0:0:0
     RDKit          3D

 90 98  0  0  1  0  0  0  0  0999 V2000
  -30.6800  -22.5010   19.9200 C   0  0  0  0  0  1  0  0  0  0  0  0
  -29.2720  -22.0930   20.3840 C   0  0  0  0  0  3  0  0  0  0  0  0
  -27.3910  -20.6130   19.6220 C   0  0  0  0  0  1  0  0  0  0  0  0
  -28.8640  -20.6960   19.7850 N   0  0  2  0  0  4  0  0  0  0  0  0
  -29.1770  -20.7500   18.8270 H   0  0  0  0  0  0  0  0  0  0  0  0
  -30.9070  -14.7930   19.9350 C   0  0  0  0  0  0  0  0  0  0  0  0
  -30.5550  -12.4920   18.9680 C   0  0  0  0  0  2  0  0  0  0  0  0
  -29.5630  -12.5120   17.7870 C   0  0  0  0  0  2  0  0  0  0  0  0
  -28.1200  -12.3490   18.3000 C   0  0  0  0  0  2  0  0  0  0  0  0
  -27.8180  -13.2550   19.5250 C   0  0  0  0  0  3  0  0  0  0  0  0
  -28.9460  -13.2260   20.5830 C   0  0  0  0  0  2  0  0  0  0  0  0
  -30.1790  -13.6100   19.8860 N   0  0  0  0  0  0  0  0  0  0  0  0
  -32.0820  -14.7110   19.5630 O   0  0  0  0  0  0  0  0  0  0  0  0
  -30.6640  -18.7130   19.4880 C   0  0  0  0  0  2  0  0  0  0  0  0
  -28.5470  -18.0400   20.3670 C   0  0  0  0  0  2  0  0  0  0  0  0
  -31.2650  -17.3190   19.9890 C   0  0  0  0  0  2  0  0  0  0  0  0
  -29.1390  -16.6050   20.7960 C   0  0  0  0  0  2  0  0  0  0  0  0
  -29.4850  -19.3310   20.3170 C   0  0  0  0  0  3  0  0  0  0  0  0
  -30.3660  -16.1080   20.1010 N   0  0  0  0  0  0  0  0  0  0  0  0
  -25.5060  -13.8650   20.4320 C   0  0  0  0  0  0  0  0  0  0  0  0
  -24.4490  -13.1050   20.8480 C   0  0  0  0  0  0  0  0  0  0  0  0
  -24.8730  -11.7450   20.7400 C   0  0  0  0  0  0  0  0  0  0  0  0
  -26.5100  -12.9710   20.1000 N   0  0  0  0  0  0  0  0  0  0  0  0
  -26.1410  -11.6860   20.3460 N   0  0  0  0  0  0  0  0  0  0  0  0
  -24.1220  -10.4960   20.9340 C   0  0  0  0  0  0  0  0  0  0  0  0
  -24.5340   -9.5240   21.8730 C   0  0  0  0  0  3  0  0  0  0  0  0
  -23.7830   -8.3430   22.0550 C   0  0  0  0  0  3  0  0  0  0  0  0
  -22.6070   -8.1240   21.2990 C   0  0  0  0  0  0  0  0  0  0  0  0
  -22.2130   -9.0840   20.3510 C   0  0  0  0  0  3  0  0  0  0  0  0
  -22.9650  -10.2590   20.1670 C   0  0  0  0  0  3  0  0  0  0  0  0
  -21.8310   -6.9950   21.3910 O   0  0  0  0  0  0  0  0  0  0  0  0
  -21.7110   -6.2980   22.5660 C   0  0  0  0  0  0  0  0  0  0  0  0
  -21.1910   -6.8920   23.7360 C   0  0  0  0  0  3  0  0  0  0  0  0
  -21.0200   -6.1210   24.9020 C   0  0  0  0  0  3  0  0  0  0  0  0
  -21.3600   -4.7560   24.9000 C   0  0  0  0  0  0  0  0  0  0  0  0
  -21.8740   -4.1590   23.7350 C   0  0  0  0  0  3  0  0  0  0  0  0
  -22.0460   -4.9290   22.5710 C   0  0  0  0  0  0  0  0  0  0  0  0
  -22.5210   -4.3440   21.4450 F   0  0  0  0  0  0  0  0  0  0  0  0
  -21.1880   -4.0120   26.0180 F   0  0  0  0  0  0  0  0  0  0  0  0
  -23.0880  -13.6110   21.2250 C   0  0  0  0  0  0  0  0  0  0  0  0
  -22.3940  -12.9010   22.1080 N   0  0  0  0  0  0  0  0  0  0  0  0
  -22.6510  -14.6690   20.7750 O   0  0  0  0  0  0  0  0  0  0  0  0
  -22.7600  -12.0430   22.4940 H   0  0  0  0  0  0  0  0  0  0  0  0
  -21.4820  -13.2200   22.4020 H   0  0  0  0  0  0  0  0  0  0  0  0
  -25.6890  -15.2360   20.2770 N   0  0  0  0  0  0  0  0  0  0  0  0
  -24.9280  -15.8930   20.4160 H   0  0  0  0  0  0  0  0  0  0  0  0
  -26.5040  -15.6590   19.8520 H   0  0  0  0  0  0  0  0  0  0  0  0
  -28.2920  -23.4550   20.4280 C   0  0  0  0  0  2  0  0  0  0  0  0
  -28.4610  -24.8420   19.5530 C   0  0  0  0  0  2  0  0  0  0  0  0
  -28.3610  -26.2670   20.0960 O   0  0  0  0  0  0  0  0  0  0  0  0
  -24.6030  -31.7160   23.0930 C   0  0  0  0  0  0  0  0  0  0  0  0
  -27.2480  -27.1470   19.9960 C   0  0  0  0  0  0  0  0  0  0  0  0
  -23.4240  -30.3400   21.4180 C   0  0  0  0  0  3  0  0  0  0  0  0
  -24.8950  -28.8150   19.9700 C   0  0  0  0  0  0  0  0  0  0  0  0
  -25.9650  -30.6570   21.2640 C   0  0  0  0  0  2  0  0  0  0  0  0
  -26.0560  -29.2820   20.5940 C   0  0  0  0  0  0  0  0  0  0  0  0
  -27.2320  -28.4600   20.5950 C   0  0  0  0  0  3  0  0  0  0  0  0
  -26.0610  -26.7550   19.3420 C   0  0  0  0  0  3  0  0  0  0  0  0
  -24.9050  -27.5640   19.3310 C   0  0  0  0  0  3  0  0  0  0  0  0
  -23.6550  -29.6910   20.0250 C   0  0  0  0  0  2  0  0  0  0  0  0
  -24.6820  -30.9230   21.9820 N   0  0  0  0  0  0  0  0  0  0  0  0
  -23.5120  -31.9800   23.6230 O   0  0  0  0  0  0  0  0  0  0  0  0
  -22.7560  -29.3060   22.3560 C   0  0  0  0  0  0  0  0  0  0  0  0
  -21.4270  -29.1410   22.2340 N   0  0  0  0  0  0  0  0  0  0  0  0
  -23.4320  -28.6540   23.1550 O   0  0  0  0  0  0  0  0  0  0  0  0
  -20.9370  -29.7210   21.5680 H   0  0  0  0  0  0  0  0  0  0  0  0
  -18.0420  -27.9610   22.7500 C   0  0  0  0  0  0  0  0  0  0  0  0
  -20.6070  -28.1850   22.9850 C   0  0  0  0  0  3  0  0  0  0  0  0
  -20.6830  -26.7730   22.3580 C   0  0  0  0  0  2  0  0  0  0  0  0
  -19.5630  -26.4990   21.3510 C   0  0  0  0  0  2  0  0  0  0  0  0
  -18.1920  -26.6360   22.0210 C   0  0  0  0  0  2  0  0  0  0  0  0
  -19.1750  -28.6960   23.1870 C   0  0  0  0  0  0  0  0  0  0  0  0
  -18.9800  -29.9370   23.8300 C   0  0  0  0  0  3  0  0  0  0  0  0
  -17.6850  -30.4470   24.0330 C   0  0  0  0  0  3  0  0  0  0  0  0
  -16.5650  -29.7100   23.6090 C   0  0  0  0  0  3  0  0  0  0  0  0
  -16.7450  -28.4680   22.9760 C   0  0  0  0  0  3  0  0  0  0  0  0
  -25.8730  -32.3490   23.7390 C   0  0  0  0  0  3  0  0  0  0  0  0
  -26.3830  -31.5620   25.0100 C   0  0  1  0  0  0  0  0  0  0  0  0
  -25.2790  -31.2960   26.0610 C   0  0  0  0  0  1  0  0  0  0  0  0
  -26.9860  -30.1970   24.6050 C   0  0  0  0  0  1  0  0  0  0  0  0
  -27.5220  -32.3540   25.6940 C   0  0  0  0  0  1  0  0  0  0  0  0
  -25.5490  -33.7390   24.0930 N   0  0  0  0  0  0  0  0  0  0  0  0
  -25.8860  -34.8100   23.3610 C   0  0  0  0  0  0  0  0  0  0  0  0
  -26.5710  -34.7300   22.3380 O   0  0  0  0  0  0  0  0  0  0  0  0
  -24.9430  -33.8710   24.8890 H   0  0  0  0  0  0  0  0  0  0  0  0
  -24.1630  -36.6090   23.0130 C   0  0  0  0  0  1  0  0  0  0  0  0
  -25.3870  -36.1860   23.8420 C   0  0  0  0  0  3  0  0  0  0  0  0
  -27.4950  -37.0570   24.7520 C   0  0  0  0  0  1  0  0  0  0  0  0
  -26.4210  -37.2430   23.7810 N   0  0  0  0  0  0  0  0  0  0  0  0
  -26.0080  -38.1590   23.9380 H   0  0  0  0  0  0  0  0  0  0  0  0
  2  1  1  0
  2 48  1  0
  3  4  1  0
  4  2  1  0
  4  5  1  6
  6 19  1  0
  7 12  1  0
  8  9  1  0
  8  7  1  0
 10  9  1  0
 10 23  1  0
 10 11  1  0
 12  6  1  0
 12 11  1  0
 13  6  2  0
 14 16  1  0
 14 18  1  0
 15 17  1  0
 16 19  1  0
 18  4  1  0
 18 15  1  0
 19 17  1  0
 20 21  2  0
 21 40  1  0
 22 21  1  0
 22 25  1  0
 23 24  1  0
 23 20  1  0
 24 22  2  0
 25 26  1  0
 26 27  2  0
 28 31  1  0
 28 27  1  0
 29 28  2  0
 30 29  1  0
 30 25  2  0
 31 32  1  0
 32 37  2  0
 32 33  1  0
 33 34  2  0
 35 34  1  0
 35 39  1  0
 36 35  2  0
 37 36  1  0
 38 37  1  0
 40 41  1  0
 41 44  1  0
 41 43  1  0
 42 40  2  0
 45 46  1  0
 45 20  1  0
 47 45  1  0
 49 50  1  0
 49 48  1  0
 51 62  2  0
 52 50  1  0
 52 57  1  0
 53 61  1  0
 53 63  1  0
 54 60  1  0
 54 56  1  0
 55 61  1  0
 56 57  2  0
 56 55  1  0
 58 52  2  0
 59 58  1  0
 59 54  2  0
 60 53  1  0
 61 51  1  0
 63 65  2  0
 64 63  1  0
 66 64  1  0
 67 76  2  0
 67 72  1  0
 68 64  1  0
 68 72  1  0
 69 68  1  0
 70 71  1  0
 70 69  1  0
 71 67  1  0
 72 73  2  0
 73 74  1  0
 75 74  2  0
 76 75  1  0
 77 51  1  0
 77 82  1  0
 77 78  1  0
 78 81  1  1
 78 79  1  0
 80 78  1  0
 82 85  1  0
 83 87  1  0
 83 82  1  0
 84 83  2  0
 87 86  1  0
 89 87  1  0
 89 90  1  0
 89 88  1  0
M  ISO  4   6 100  19 100  49 101  50 101
M  END
>  <TORSDO>  (1) 
F 19

>  <SCORE>  (1) 
-13.817

>  <name>  (1) 
0

>  <ligand_id>  (1) 
0

>  <original_smiles>  (1) 
[H]c1c([H])c([H])c2c(c1[H])C([H])([H])C([H])([H])C([H])([H])C2([H])N([H])C(=O)C1([H])N(C(=O)C([H])(N([H])C(=O)C([H])(N([H])C([H])([H])[H])C([H])([H])[H])C(C([H])([H])[H])(C([H])([H])[H])C([H])([H])[H])C([H])([H])c2c([H])c(OC([H])([H])C([H])([H])C([H])(C([H])([H])[H])[N+]([H])(C([H])([H])[H])C3([H])C([H])([H])C([H])([H])N(C(=O)N4C([H])([H])C([H])([H])C([H])([H])C([H])(n5nc(-c6c([H])c([H])c(Oc7c([H])c([H])c(F)c([H])c7F)c([H])c6[H])c(C(=O)N([H])[H])c5N([H])[H])C4([H])[H])C([H])([H])C3([H])[H])c([H])c([H])c2C1([H])[H]

>  <smiles>  (1) 
[H]c1c([H])c([H])c2c(c1[H])C([H])([H])C([H])([H])C([H])([H])C2([H])N([H])C(=O)C1([H])N(C(=O)C([H])(N([H])C(=O)C([H])(N([H])C([H])([H])[H])C([H])([H])[H])C(C([H])([H])[H])(C([H])([H])[H])C([H])([H])[H])C([H])([H])c2c([H])c(OC([H])([H])C([H])([H])C([H])(C([H])([H])[H])[N+]([H])(C([H])([H])[H])C3([H])C([H])([H])C([H])([H])N(C(=O)N4C([H])([H])C([H])([H])C([H])([H])C([H])(n5nc(-c6c([H])c([H])c(Oc7c([H])c([H])c(F)c([H])c7F)c([H])c6[H])c(C(=O)N([H])[H])c5N([H])[H])C4([H])[H])C([H])([H])C3([H])[H])c([H])c([H])c2C1([H])[H]

$$$$
1:0:0
     RDKit          3D

101111  0  0  1  0  0  0  0  0999 V2000
  -30.1750  -21.3810   21.2280 C   0  0  0  0  0  3  0  0  0  0  0  0
  -30.9470  -22.3420   19.1280 C   0  0  0  0  0  0  0  0  0  0  0  0
  -30.3420  -22.5120   20.4100 C   0  0  0  0  0  0  0  0  0  0  0  0
  -31.4210  -21.0240   18.8030 C   0  0  0  0  0  0  0  0  0  0  0  0
  -30.6110  -20.1270   20.7800 C   0  0  0  0  0  0  0  0  0  0  0  0
  -31.2400  -19.9640   19.6140 N   0  0  0  0  0  0  0  0  0  0  0  0
  -30.4430  -19.0050   21.5920 N   0  0  0  0  0  0  0  0  0  0  0  0
  -29.8600  -19.1980   22.3940 H   0  0  0  0  0  0  0  0  0  0  0  0
  -33.7820  -20.5750   18.0230 C   0  0  0  0  0  1  0  0  0  0  0  0
  -32.2900  -20.6330   17.6050 C   0  0  0  0  0  2  0  0  0  0  0  0
  -30.2280  -17.6900   20.9920 C   0  0  0  0  0  2  0  0  0  0  0  0
  -30.8000  -16.5900   21.9080 C   0  0  0  0  0  2  0  0  0  0  0  0
  -30.8350  -14.5190   20.5170 C   0  0  0  0  0  0  0  0  0  0  0  0
  -30.4490  -12.5680   19.0590 C   0  0  0  0  0  2  0  0  0  0  0  0
  -29.4620  -12.9280   17.9340 C   0  0  0  0  0  2  0  0  0  0  0  0
  -28.0030  -12.7570   18.3930 C   0  0  0  0  0  2  0  0  0  0  0  0
  -27.7230  -13.4280   19.7640 C   0  0  0  0  0  3  0  0  0  0  0  0
  -28.8080  -13.0410   20.7920 C   0  0  0  0  0  2  0  0  0  0  0  0
  -30.1270  -13.3950   20.2320 N   0  0  0  0  0  0  0  0  0  0  0  0
  -31.8470  -14.8630   19.9000 O   0  0  0  0  0  0  0  0  0  0  0  0
  -30.3420  -15.2590   21.5160 N   0  0  0  0  0  0  0  0  0  0  0  0
  -29.5530  -14.8760   22.0140 H   0  0  0  0  0  0  0  0  0  0  0  0
  -25.3190  -13.9650   20.5240 C   0  0  0  0  0  0  0  0  0  0  0  0
  -24.2690  -13.1560   20.8870 C   0  0  0  0  0  0  0  0  0  0  0  0
  -24.7580  -11.8200   20.8040 C   0  0  0  0  0  0  0  0  0  0  0  0
  -26.3780  -13.1130   20.2490 N   0  0  0  0  0  0  0  0  0  0  0  0
  -26.0430  -11.8160   20.4700 N   0  0  0  0  0  0  0  0  0  0  0  0
  -24.0600  -10.5360   20.9690 C   0  0  0  0  0  0  0  0  0  0  0  0
  -24.4690   -9.5910   21.9350 C   0  0  0  0  0  3  0  0  0  0  0  0
  -23.7700   -8.3720   22.0860 C   0  0  0  0  0  3  0  0  0  0  0  0
  -22.6490   -8.0910   21.2690 C   0  0  0  0  0  0  0  0  0  0  0  0
  -22.2610   -9.0270   20.2930 C   0  0  0  0  0  3  0  0  0  0  0  0
  -22.9600  -10.2360   20.1410 C   0  0  0  0  0  3  0  0  0  0  0  0
  -21.9270   -6.9230   21.3260 O   0  0  0  0  0  0  0  0  0  0  0  0
  -21.7750   -6.2300   22.4990 C   0  0  0  0  0  0  0  0  0  0  0  0
  -21.1670   -6.8100   23.6330 C   0  0  0  0  0  3  0  0  0  0  0  0
  -20.9650   -6.0390   24.7970 C   0  0  0  0  0  3  0  0  0  0  0  0
  -21.3620   -4.6890   24.8240 C   0  0  0  0  0  0  0  0  0  0  0  0
  -21.9600   -4.1070   23.6930 C   0  0  0  0  0  3  0  0  0  0  0  0
  -22.1640   -4.8750   22.5340 C   0  0  0  0  0  0  0  0  0  0  0  0
  -22.7230   -4.3040   21.4380 F   0  0  0  0  0  0  0  0  0  0  0  0
  -21.1620   -3.9460   25.9370 F   0  0  0  0  0  0  0  0  0  0  0  0
  -22.8680  -13.5990   21.1980 C   0  0  0  0  0  0  0  0  0  0  0  0
  -22.1710  -12.8640   22.0610 N   0  0  0  0  0  0  0  0  0  0  0  0
  -22.4010  -14.6300   20.7220 O   0  0  0  0  0  0  0  0  0  0  0  0
  -22.5610  -12.0310   22.4760 H   0  0  0  0  0  0  0  0  0  0  0  0
  -21.2310  -13.1430   22.3060 H   0  0  0  0  0  0  0  0  0  0  0  0
  -25.4460  -15.3400   20.3820 N   0  0  0  0  0  0  0  0  0  0  0  0
  -24.6690  -15.9760   20.5160 H   0  0  0  0  0  0  0  0  0  0  0  0
  -26.2870  -15.8060   20.0590 H   0  0  0  0  0  0  0  0  0  0  0  0
  -31.0000  -23.4740   18.0820 C   0  0  0  0  0  3  0  0  0  0  0  0
  -33.2990  -24.5500   19.0750 C   0  0  0  0  0  2  0  0  0  0  0  0
  -33.2390  -24.7690   17.5930 C   0  0  0  0  0  2  0  0  0  0  0  0
  -31.9490  -24.6530   18.3770 C   0  0  0  0  0  3  0  0  0  0  0  0
  -29.1310  -25.1290   16.9990 C   0  0  0  0  0  2  0  0  0  0  0  0
  -28.9710  -23.7510   16.4090 C   0  0  0  0  0  2  0  0  0  0  0  0
  -29.5500  -23.9010   17.7980 C   0  0  0  0  0  3  0  0  0  0  0  0
  -30.0480  -23.7290   20.9970 O   0  0  0  0  0  0  0  0  0  0  0  0
  -28.8180  -24.4040   20.6980 C   0  0  0  0  0  2  0  0  0  0  0  0
  -28.9190  -25.8510   21.2570 C   0  0  0  0  0  2  0  0  0  0  0  0
  -28.7330  -26.8630   20.2770 O   0  0  0  0  0  0  0  0  0  0  0  0
  -24.6720  -31.9100   23.2690 C   0  0  0  0  0  0  0  0  0  0  0  0
  -27.5310  -27.5180   20.3360 C   0  0  0  0  0  0  0  0  0  0  0  0
  -23.5470  -30.4480   21.6200 C   0  0  0  0  0  3  0  0  0  0  0  0
  -25.0820  -28.9160   20.2760 C   0  0  0  0  0  0  0  0  0  0  0  0
  -26.0610  -30.8750   21.4820 C   0  0  0  0  0  2  0  0  0  0  0  0
  -26.2060  -29.4910   20.8870 C   0  0  0  0  0  0  0  0  0  0  0  0
  -27.4330  -28.7940   20.9250 C   0  0  0  0  0  3  0  0  0  0  0  0
  -26.4030  -26.9420   19.7300 C   0  0  0  0  0  3  0  0  0  0  0  0
  -25.1780  -27.6330   19.7030 C   0  0  0  0  0  3  0  0  0  0  0  0
  -23.8110  -29.7350   20.2650 C   0  0  0  0  0  2  0  0  0  0  0  0
  -24.7770  -31.0900   22.1840 N   0  0  0  0  0  0  0  0  0  0  0  0
  -23.5690  -32.1670   23.7740 O   0  0  0  0  0  0  0  0  0  0  0  0
  -22.8930  -29.4300   22.5860 C   0  0  0  0  0  0  0  0  0  0  0  0
  -21.5740  -29.2330   22.4410 N   0  0  0  0  0  0  0  0  0  0  0  0
  -23.5730  -28.8210   23.4160 O   0  0  0  0  0  0  0  0  0  0  0  0
  -21.0860  -29.7870   21.7530 H   0  0  0  0  0  0  0  0  0  0  0  0
  -18.1900  -28.0830   22.9420 C   0  0  0  0  0  0  0  0  0  0  0  0
  -20.7510  -28.2990   23.2070 C   0  0  0  0  0  3  0  0  0  0  0  0
  -20.8310  -26.8780   22.6070 C   0  0  0  0  0  2  0  0  0  0  0  0
  -19.7200  -26.5820   21.5930 C   0  0  0  0  0  2  0  0  0  0  0  0
  -18.3440  -26.7380   22.2480 C   0  0  0  0  0  2  0  0  0  0  0  0
  -19.3230  -28.8220   23.3780 C   0  0  0  0  0  0  0  0  0  0  0  0
  -19.1280  -30.0800   23.9880 C   0  0  0  0  0  3  0  0  0  0  0  0
  -17.8340  -30.6060   24.1580 C   0  0  0  0  0  3  0  0  0  0  0  0
  -16.7160  -29.8620   23.7460 C   0  0  0  0  0  3  0  0  0  0  0  0
  -16.8930  -28.6020   23.1470 C   0  0  0  0  0  3  0  0  0  0  0  0
  -25.9280  -32.5800   23.9100 C   0  0  0  0  0  3  0  0  0  0  0  0
  -26.4430  -31.8230   25.1970 C   0  0  1  0  0  0  0  0  0  0  0  0
  -25.3260  -31.5180   26.2240 C   0  0  0  0  0  1  0  0  0  0  0  0
  -27.1130  -30.4840   24.8020 C   0  0  0  0  0  1  0  0  0  0  0  0
  -27.5200  -32.6700   25.9120 C   0  0  0  0  0  1  0  0  0  0  0  0
  -25.5740  -33.9660   24.2370 N   0  0  0  0  0  0  0  0  0  0  0  0
  -25.8890  -35.0270   23.4830 C   0  0  0  0  0  0  0  0  0  0  0  0
  -26.5880  -34.9440   22.4690 O   0  0  0  0  0  0  0  0  0  0  0  0
  -24.9580  -34.1000   25.0250 H   0  0  0  0  0  0  0  0  0  0  0  0
  -24.1130  -36.7630   23.0820 C   0  0  0  0  0  1  0  0  0  0  0  0
  -25.3450  -36.3990   23.9260 C   0  0  0  0  0  3  0  0  0  0  0  0
  -27.4270  -37.3580   24.8130 C   0  0  0  0  0  1  0  0  0  0  0  0
  -26.3460  -37.4860   23.8380 N   0  0  0  0  0  0  0  0  0  0  0  0
  -25.9010  -38.3920   23.9650 H   0  0  0  0  0  0  0  0  0  0  0  0
  2  3  1  0
  3 58  1  0
  3  1  2  0
  4  2  2  0
  4  6  1  0
  5  1  1  0
  5  7  1  0
  6  5  2  0
  7  8  1  0
 10  9  1  0
 10  4  1  0
 11  7  1  0
 11 12  1  0
 13 21  1  0
 14 19  1  0
 15 16  1  0
 15 14  1  0
 17 16  1  0
 17 26  1  0
 17 18  1  0
 19 13  1  0
 19 18  1  0
 20 13  2  0
 21 12  1  0
 21 22  1  0
 23 24  2  0
 24 43  1  0
 25 24  1  0
 25 28  1  0
 26 27  1  0
 26 23  1  0
 27 25  2  0
 28 29  1  0
 29 30  2  0
 31 34  1  0
 31 30  1  0
 32 31  2  0
 33 32  1  0
 33 28  2  0
 34 35  1  0
 35 40  2  0
 35 36  1  0
 36 37  2  0
 37 38  1  0
 38 42  1  0
 39 38  2  0
 40 39  1  0
 41 40  1  0
 43 44  1  0
 44 47  1  0
 44 46  1  0
 45 43  2  0
 48 49  1  0
 48 23  1  0
 50 48  1  0
 51 54  1  0
 51  2  1  0
 53 54  1  0
 53 52  1  0
 54 52  1  0
 55 57  1  0
 56 55  1  0
 56 57  1  0
 57 51  1  0
 59 58  1  0
 59 60  1  0
 61 63  1  0
 61 60  1  0
 62 73  2  0
 63 68  1  0
 64 72  1  0
 64 74  1  0
 65 67  1  0
 66 72  1  0
 67 68  2  0
 67 66  1  0
 69 63  2  0
 70 69  1  0
 70 65  2  0
 71 65  1  0
 71 64  1  0
 72 62  1  0
 74 76  2  0
 75 74  1  0
 77 75  1  0
 78 87  2  0
 78 83  1  0
 79 75  1  0
 79 83  1  0
 80 79  1  0
 81 82  1  0
 81 80  1  0
 82 78  1  0
 83 84  2  0
 84 85  1  0
 86 85  2  0
 87 86  1  0
 88 62  1  0
 88 93  1  0
 88 89  1  0
 89 92  1  1
 89 90  1  0
 91 89  1  0
 93 96  1  0
 94 98  1  0
 94 93  1  0
 95 94  2  0
 98 97  1  0
100 98  1  0
100101  1  0
100 99  1  0
M  ISO  4  13 100  21 100  60 101  61 101
M  END
>  <TORSDO>  (2) 
F 25

>  <SCORE>  (2) 
-12.334

>  <name>  (2) 
1

>  <ligand_id>  (2) 
1

>  <original_smiles>  (2) 
[H]c1c([H])c([H])c2c(c1[H])C([H])([H])C([H])([H])C([H])([H])C2([H])N([H])C(=O)C1([H])N(C(=O)C([H])(N([H])C(=O)C([H])(N([H])C([H])([H])[H])C([H])([H])[H])C(C([H])([H])[H])(C([H])([H])[H])C([H])([H])[H])C([H])([H])c2c([H])c(OC([H])([H])C([H])([H])Oc3c([H])c(N([H])C([H])([H])C([H])([H])N([H])C(=O)N4C([H])([H])C([H])([H])C([H])([H])C([H])(n5nc(-c6c([H])c([H])c(Oc7c([H])c([H])c(F)c([H])c7F)c([H])c6[H])c(C(=O)N([H])[H])c5N([H])[H])C4([H])[H])nc(C([H])([H])C([H])([H])[H])c3C([H])(C3([H])C([H])([H])C3([H])[H])C3([H])C([H])([H])C3([H])[H])c([H])c([H])c2C1([H])[H]

>  <smiles>  (2) 
[H]c1c([H])c([H])c2c(c1[H])C([H])([H])C([H])([H])C([H])([H])C2([H])N([H])C(=O)C1([H])N(C(=O)C([H])(N([H])C(=O)C([H])(N([H])C([H])([H])[H])C([H])([H])[H])C(C([H])([H])[H])(C([H])([H])[H])C([H])([H])[H])C([H])([H])c2c([H])c(OC([H])([H])C([H])([H])Oc3c([H])c(N([H])C([H])([H])C([H])([H])N([H])C(=O)N4C([H])([H])C([H])([H])C([H])([H])C([H])(n5nc(-c6c([H])c([H])c(Oc7c([H])c([H])c(F)c([H])c7F)c([H])c6[H])c(C(=O)N([H])[H])c5N([H])[H])C4([H])[H])nc(C([H])([H])C([H])([H])[H])c3C([H])(C3([H])C([H])([H])C3([H])[H])C3([H])C([H])([H])C3([H])[H])c([H])c([H])c2C1([H])[H]

$$$$
2:0:0
     RDKit          3D

 99108  0  0  1  0  0  0  0  0999 V2000
  -29.4340  -20.6630   20.9290 N   0  0  0  0  0  4  0  0  0  0  0  0
  -29.4020  -21.2310   21.7600 H   0  0  0  0  0  0  0  0  0  0  0  0
  -28.5030  -20.3180   20.7680 H   0  0  0  0  0  0  0  0  0  0  0  0
  -31.8360  -18.3790   22.9210 C   0  0  0  0  0  2  0  0  0  0  0  0
  -31.2760  -17.0100   22.5080 C   0  0  0  0  0  2  0  0  0  0  0  0
  -29.8120  -18.1510   20.7800 C   0  0  0  0  0  2  0  0  0  0  0  0
  -30.8120  -19.5210   22.7020 C   0  0  0  0  0  3  0  0  0  0  0  0
  -30.8230  -16.9950   21.0370 C   0  0  0  0  0  3  0  0  0  0  0  0
  -30.3830  -19.5420   21.2040 C   0  0  0  0  0  3  0  0  0  0  0  0
  -30.8350  -14.7030   19.9560 C   0  0  0  0  0  0  0  0  0  0  0  0
  -30.4850  -12.4990   18.8870 C   0  0  0  0  0  2  0  0  0  0  0  0
  -29.4670  -12.6100   17.7330 C   0  0  0  0  0  2  0  0  0  0  0  0
  -28.0250  -12.4730   18.2590 C   0  0  0  0  0  2  0  0  0  0  0  0
  -27.7480  -13.3800   19.4870 C   0  0  0  0  0  3  0  0  0  0  0  0
  -28.8670  -13.2310   20.5410 C   0  0  0  0  0  2  0  0  0  0  0  0
  -30.1530  -13.5270   19.8870 N   0  0  0  0  0  0  0  0  0  0  0  0
  -31.8760  -14.9070   19.3260 O   0  0  0  0  0  0  0  0  0  0  0  0
  -30.2720  -15.6620   20.7210 N   0  0  0  0  0  0  0  0  0  0  0  0
  -29.4150  -15.3980   21.1820 H   0  0  0  0  0  0  0  0  0  0  0  0
  -25.4280  -14.0160   20.4020 C   0  0  0  0  0  0  0  0  0  0  0  0
  -24.3740  -13.2550   20.8340 C   0  0  0  0  0  0  0  0  0  0  0  0
  -24.8000  -11.8950   20.7260 C   0  0  0  0  0  0  0  0  0  0  0  0
  -26.4290  -13.1190   20.0610 N   0  0  0  0  0  0  0  0  0  0  0  0
  -26.0590  -11.8380   20.3130 N   0  0  0  0  0  0  0  0  0  0  0  0
  -24.0630  -10.6440   20.9380 C   0  0  0  0  0  0  0  0  0  0  0  0
  -24.5100   -9.6700   21.8580 C   0  0  0  0  0  3  0  0  0  0  0  0
  -23.7750   -8.4810   22.0560 C   0  0  0  0  0  3  0  0  0  0  0  0
  -22.5790   -8.2590   21.3360 C   0  0  0  0  0  0  0  0  0  0  0  0
  -22.1500   -9.2210   20.4030 C   0  0  0  0  0  3  0  0  0  0  0  0
  -22.8860  -10.4000   20.2030 C   0  0  0  0  0  3  0  0  0  0  0  0
  -21.8120   -7.1230   21.4450 O   0  0  0  0  0  0  0  0  0  0  0  0
  -21.7420   -6.4110   22.6140 C   0  0  0  0  0  0  0  0  0  0  0  0
  -21.2780   -6.9930   23.8150 C   0  0  0  0  0  3  0  0  0  0  0  0
  -21.1560   -6.2070   24.9780 C   0  0  0  0  0  3  0  0  0  0  0  0
  -21.4880   -4.8400   24.9420 C   0  0  0  0  0  0  0  0  0  0  0  0
  -21.9450   -4.2570   23.7470 C   0  0  0  0  0  3  0  0  0  0  0  0
  -22.0690   -5.0400   22.5850 C   0  0  0  0  0  0  0  0  0  0  0  0
  -22.4900   -4.4690   21.4310 F   0  0  0  0  0  0  0  0  0  0  0  0
  -21.3650   -4.0820   26.0560 F   0  0  0  0  0  0  0  0  0  0  0  0
  -23.0150  -13.7520   21.2320 C   0  0  0  0  0  0  0  0  0  0  0  0
  -22.3450  -13.0480   22.1370 N   0  0  0  0  0  0  0  0  0  0  0  0
  -22.5580  -14.7990   20.7750 O   0  0  0  0  0  0  0  0  0  0  0  0
  -22.7280  -12.2000   22.5280 H   0  0  0  0  0  0  0  0  0  0  0  0
  -21.4330  -13.3590   22.4410 H   0  0  0  0  0  0  0  0  0  0  0  0
  -25.6110  -15.3880   20.2530 N   0  0  0  0  0  0  0  0  0  0  0  0
  -24.8720  -16.0560   20.4450 H   0  0  0  0  0  0  0  0  0  0  0  0
  -26.4380  -15.8150   19.8540 H   0  0  0  0  0  0  0  0  0  0  0  0
  -31.2540  -20.9630   24.7940 C   0  0  0  0  0  1  0  0  0  0  0  0
  -32.7180  -21.3000   22.7630 C   0  0  0  0  0  1  0  0  0  0  0  0
  -31.3180  -20.8900   23.2570 C   0  0  0  0  0  3  0  0  0  0  0  0
  -29.8340  -21.5630   19.8230 C   0  0  0  0  0  2  0  0  0  0  0  0
  -29.6260  -23.8520   20.9160 C   0  0  0  0  0  3  0  0  0  0  0  0
  -29.2500  -25.2120   20.9100 C   0  0  0  0  0  3  0  0  0  0  0  0
  -28.0250  -24.8560   18.8480 C   0  0  0  0  0  3  0  0  0  0  0  0
  -29.2200  -22.9750   19.8830 C   0  0  0  0  0  0  0  0  0  0  0  0
  -28.3670  -23.4820   18.8650 C   0  0  0  0  0  0  0  0  0  0  0  0
  -28.4690  -25.7370   19.8600 C   0  0  0  0  0  0  0  0  0  0  0  0
  -27.8670  -22.6000   17.7330 C   0  0  0  0  0  1  0  0  0  0  0  0
  -28.3200  -27.1050   19.7490 O   0  0  0  0  0  0  0  0  0  0  0  0
  -24.6670  -32.0400   23.3730 C   0  0  0  0  0  0  0  0  0  0  0  0
  -27.1180  -27.7560   19.9270 C   0  0  0  0  0  0  0  0  0  0  0  0
  -23.3680  -30.7400   21.7170 C   0  0  0  0  0  3  0  0  0  0  0  0
  -24.7340  -29.2670   20.1470 C   0  0  0  0  0  0  0  0  0  0  0  0
  -25.8810  -31.0940   21.4100 C   0  0  0  0  0  2  0  0  0  0  0  0
  -25.9220  -29.7530   20.7050 C   0  0  0  0  0  0  0  0  0  0  0  0
  -27.1140  -29.0030   20.5930 C   0  0  0  0  0  3  0  0  0  0  0  0
  -25.9100  -27.2770   19.3750 C   0  0  0  0  0  3  0  0  0  0  0  0
  -24.7210  -28.0260   19.4830 C   0  0  0  0  0  3  0  0  0  0  0  0
  -23.5020  -30.1320   20.2950 C   0  0  0  0  0  2  0  0  0  0  0  0
  -24.6610  -31.3040   22.2260 N   0  0  0  0  0  0  0  0  0  0  0  0
  -23.6170  -32.2900   23.9810 O   0  0  0  0  0  0  0  0  0  0  0  0
  -22.7540  -29.6730   22.6520 C   0  0  0  0  0  0  0  0  0  0  0  0
  -21.4360  -29.4540   22.5230 N   0  0  0  0  0  0  0  0  0  0  0  0
  -23.4600  -29.0480   23.4470 O   0  0  0  0  0  0  0  0  0  0  0  0
  -20.9300  -30.0150   21.8540 H   0  0  0  0  0  0  0  0  0  0  0  0
  -18.1210  -28.0730   22.9170 C   0  0  0  0  0  0  0  0  0  0  0  0
  -20.6510  -28.4700   23.2650 C   0  0  0  0  0  3  0  0  0  0  0  0
  -20.8500  -27.0510   22.6850 C   0  0  0  0  0  2  0  0  0  0  0  0
  -19.7970  -26.6730   21.6380 C   0  0  0  0  0  2  0  0  0  0  0  0
  -18.3920  -26.7370   22.2430 C   0  0  0  0  0  2  0  0  0  0  0  0
  -19.1830  -28.8920   23.3830 C   0  0  0  0  0  0  0  0  0  0  0  0
  -18.8800  -30.1380   23.9740 C   0  0  0  0  0  3  0  0  0  0  0  0
  -17.5450  -30.5680   24.0980 C   0  0  0  0  0  3  0  0  0  0  0  0
  -16.4970  -29.7470   23.6490 C   0  0  0  0  0  3  0  0  0  0  0  0
  -16.7850  -28.4990   23.0670 C   0  0  0  0  0  3  0  0  0  0  0  0
  -25.9890  -32.6230   23.9660 C   0  0  0  0  0  3  0  0  0  0  0  0
  -26.5250  -31.8120   25.2090 C   0  0  1  0  0  0  0  0  0  0  0  0
  -25.4580  -31.5730   26.3020 C   0  0  0  0  0  1  0  0  0  0  0  0
  -27.0640  -30.4300   24.7670 C   0  0  0  0  0  1  0  0  0  0  0  0
  -27.7130  -32.5630   25.8540 C   0  0  0  0  0  1  0  0  0  0  0  0
  -25.7290  -34.0230   24.3280 N   0  0  0  0  0  0  0  0  0  0  0  0
  -26.0780  -35.0780   23.5780 C   0  0  0  0  0  0  0  0  0  0  0  0
  -26.7230  -34.9730   22.5310 O   0  0  0  0  0  0  0  0  0  0  0  0
  -25.1480  -34.1810   25.1390 H   0  0  0  0  0  0  0  0  0  0  0  0
  -24.3920  -36.9230   23.2970 C   0  0  0  0  0  1  0  0  0  0  0  0
  -25.6430  -36.4720   24.0700 C   0  0  0  0  0  3  0  0  0  0  0  0
  -27.8230  -37.2820   24.8600 C   0  0  0  0  0  1  0  0  0  0  0  0
  -26.7020  -37.4970   23.9470 N   0  0  0  0  0  0  0  0  0  0  0  0
  -26.3260  -38.4250   24.1180 H   0  0  0  0  0  0  0  0  0  0  0  0
  1  2  1  0
  3  1  1  0
  5  4  1  0
  6  8  1  0
  6  9  1  0
  7  4  1  0
  7 50  1  0
  8 18  1  0
  8  5  1  0
  9  1  1  0
  9  7  1  0
 10 18  1  0
 11 16  1  0
 12 13  1  0
 12 11  1  0
 14 13  1  0
 14 23  1  0
 14 15  1  0
 16 10  1  0
 16 15  1  0
 17 10  2  0
 18 19  1  0
 20 21  2  0
 21 40  1  0
 22 21  1  0
 22 25  1  0
 23 24  1  0
 23 20  1  0
 24 22  2  0
 25 26  1  0
 26 27  2  0
 28 31  1  0
 28 27  1  0
 29 28  2  0
 30 29  1  0
 30 25  2  0
 31 32  1  0
 32 33  1  0
 33 34  2  0
 35 34  1  0
 35 39  1  0
 36 35  2  0
 37 32  2  0
 37 36  1  0
 38 37  1  0
 40 41  1  0
 41 44  1  0
 41 43  1  0
 42 40  2  0
 45 20  1  0
 45 46  1  0
 47 45  1  0
 49 50  1  0
 50 48  1  0
 51 55  1  0
 51  1  1  0
 53 52  1  0
 54 56  2  0
 54 57  1  0
 55 52  2  0
 56 55  1  0
 57 53  2  0
 58 56  1  0
 59 57  1  0
 59 61  1  0
 60 71  2  0
 61 66  1  0
 62 70  1  0
 62 72  1  0
 63 69  1  0
 63 65  1  0
 64 70  1  0
 65 64  1  0
 66 65  2  0
 67 68  1  0
 67 61  2  0
 68 63  2  0
 69 62  1  0
 70 60  1  0
 72 74  2  0
 73 72  1  0
 75 73  1  0
 76 85  2  0
 76 81  1  0
 77 73  1  0
 77 81  1  0
 78 77  1  0
 79 80  1  0
 79 78  1  0
 80 76  1  0
 81 82  2  0
 82 83  1  0
 84 83  2  0
 85 84  1  0
 86 60  1  0
 86 91  1  0
 86 87  1  0
 87 90  1  1
 87 88  1  0
 89 87  1  0
 91 94  1  0
 92 96  1  0
 92 91  1  0
 93 92  2  0
 96 95  1  0
 98 96  1  0
 98 99  1  0
 98 97  1  0
M  ISO  4  10 100  18 100  57 101  59 101
M  END
>  <TORSDO>  (3) 
F 20

>  <SCORE>  (3) 
-12.418

>  <name>  (3) 
2

>  <ligand_id>  (3) 
2

>  <original_smiles>  (3) 
[H]c1c([H])c([H])c2c(c1[H])C([H])([H])C([H])([H])C([H])([H])C2([H])N([H])C(=O)C1([H])N(C(=O)C([H])(N([H])C(=O)C([H])(N([H])C([H])([H])[H])C([H])([H])[H])C(C([H])([H])[H])(C([H])([H])[H])C([H])([H])[H])C([H])([H])c2c([H])c(Oc3c([H])c([H])c(C([H])([H])[N+]([H])([H])C4([H])C([H])([H])C([H])(N([H])C(=O)N5C([H])([H])C([H])([H])C([H])([H])C([H])(n6nc(-c7c([H])c([H])c(Oc8c([H])c([H])c(F)c([H])c8F)c([H])c7[H])c(C(=O)N([H])[H])c6N([H])[H])C5([H])[H])C([H])([H])C([H])([H])C4([H])C([H])(C([H])([H])[H])C([H])([H])[H])c(C([H])([H])[H])c3[H])c([H])c([H])c2C1([H])[H]

>  <smiles>  (3) 
[H]c1c([H])c([H])c2c(c1[H])C([H])([H])C([H])([H])C([H])([H])C2([H])N([H])C(=O)C1([H])N(C(=O)C([H])(N([H])C(=O)C([H])(N([H])C([H])([H])[H])C([H])([H])[H])C(C([H])([H])[H])(C([H])([H])[H])C([H])([H])[H])C([H])([H])c2c([H])c(Oc3c([H])c([H])c(C([H])([H])[N+]([H])([H])C4([H])C([H])([H])C([H])(N([H])C(=O)N5C([H])([H])C([H])([H])C([H])([H])C([H])(n6nc(-c7c([H])c([H])c(Oc8c([H])c([H])c(F)c([H])c8F)c([H])c7[H])c(C(=O)N([H])[H])c6N([H])[H])C5([H])[H])C([H])([H])C([H])([H])C4([H])C([H])(C([H])([H])[H])C([H])([H])[H])c(C([H])([H])[H])c3[H])c([H])c([H])c2C1([H])[H]

$$$$
3:0:0
     RDKit          3D

 95104  0  0  1  0  0  0  0  0999 V2000
  -28.2530  -20.5580   20.2660 C   0  0  0  0  0  2  0  0  0  0  0  0
  -30.4300  -21.5410   19.6270 C   0  0  0  0  0  2  0  0  0  0  0  0
  -27.6180  -21.9710   20.2940 C   0  0  0  0  0  2  0  0  0  0  0  0
  -29.8000  -22.9460   19.6440 C   0  0  0  0  0  2  0  0  0  0  0  0
  -29.3930  -20.4760   19.2340 C   0  0  0  0  0  3  0  0  0  0  0  0
  -28.6190  -23.0440   20.5580 N   0  0  1  0  0  4  0  0  0  0  0  0
  -28.9860  -22.8370   21.4780 H   0  0  0  0  0  0  0  0  0  0  0  0
  -31.3000  -17.5260   17.6280 C   0  0  0  0  0  3  0  0  0  0  0  0
  -31.1460  -16.5190   18.5910 C   0  0  0  0  0  3  0  0  0  0  0  0
  -29.8890  -18.0570   19.9980 C   0  0  0  0  0  3  0  0  0  0  0  0
  -30.0190  -19.0840   19.0200 C   0  0  0  0  0  0  0  0  0  0  0  0
  -30.7270  -18.7960   17.8170 C   0  0  0  0  0  0  0  0  0  0  0  0
  -30.4360  -16.7680   19.7930 C   0  0  0  0  0  0  0  0  0  0  0  0
  -30.8900  -19.8070   16.6890 C   0  0  0  0  0  1  0  0  0  0  0  0
  -30.9660  -14.6070   20.8290 C   0  0  0  0  0  0  0  0  0  0  0  0
  -30.6930  -12.4080   19.8150 C   0  0  0  0  0  2  0  0  0  0  0  0
  -29.8740  -12.6300   18.5260 C   0  0  0  0  0  2  0  0  0  0  0  0
  -28.3610  -12.5530   18.8200 C   0  0  0  0  0  2  0  0  0  0  0  0
  -27.9380  -13.3900   20.0610 C   0  0  0  0  0  3  0  0  0  0  0  0
  -28.9080  -13.2040   21.2520 C   0  0  0  0  0  2  0  0  0  0  0  0
  -30.2750  -13.4390   20.7690 N   0  0  0  0  0  0  0  0  0  0  0  0
  -32.1860  -14.6810   20.6530 O   0  0  0  0  0  0  0  0  0  0  0  0
  -30.2140  -15.7180   20.7460 N   0  0  0  0  0  0  0  0  0  0  0  0
  -29.2740  -15.6400   21.1060 H   0  0  0  0  0  0  0  0  0  0  0  0
  -25.4970  -14.0120   20.5730 C   0  0  0  0  0  0  0  0  0  0  0  0
  -24.4030  -13.2500   20.8820 C   0  0  0  0  0  0  0  0  0  0  0  0
  -24.8600  -11.8960   20.9200 C   0  0  0  0  0  0  0  0  0  0  0  0
  -26.5540  -13.1260   20.4450 N   0  0  0  0  0  0  0  0  0  0  0  0
  -26.1710  -11.8500   20.7130 N   0  0  0  0  0  0  0  0  0  0  0  0
  -24.1190  -10.6410   21.0850 C   0  0  0  0  0  0  0  0  0  0  0  0
  -24.4880   -9.6930   22.0660 C   0  0  0  0  0  3  0  0  0  0  0  0
  -23.7480   -8.5010   22.2190 C   0  0  0  0  0  3  0  0  0  0  0  0
  -22.6270   -8.2480   21.3920 C   0  0  0  0  0  0  0  0  0  0  0  0
  -22.2800   -9.1860   20.4030 C   0  0  0  0  0  3  0  0  0  0  0  0
  -23.0200  -10.3700   20.2470 C   0  0  0  0  0  3  0  0  0  0  0  0
  -21.8640   -7.1060   21.4510 O   0  0  0  0  0  0  0  0  0  0  0  0
  -21.7370   -6.3840   22.6120 C   0  0  0  0  0  0  0  0  0  0  0  0
  -21.2260   -6.9590   23.7960 C   0  0  0  0  0  3  0  0  0  0  0  0
  -21.0480   -6.1630   24.9450 C   0  0  0  0  0  3  0  0  0  0  0  0
  -21.3670   -4.7930   24.9110 C   0  0  0  0  0  0  0  0  0  0  0  0
  -21.8700   -4.2160   23.7310 C   0  0  0  0  0  3  0  0  0  0  0  0
  -22.0510   -5.0090   22.5840 C   0  0  0  0  0  0  0  0  0  0  0  0
  -22.5150   -4.4450   21.4410 F   0  0  0  0  0  0  0  0  0  0  0  0
  -21.1910   -4.0260   26.0110 F   0  0  0  0  0  0  0  0  0  0  0  0
  -22.9890  -13.7340   21.0370 C   0  0  0  0  0  0  0  0  0  0  0  0
  -22.2000  -13.0650   21.8700 N   0  0  0  0  0  0  0  0  0  0  0  0
  -22.5910  -14.7400   20.4500 O   0  0  0  0  0  0  0  0  0  0  0  0
  -22.5330  -12.2560   22.3740 H   0  0  0  0  0  0  0  0  0  0  0  0
  -21.2450  -13.3620   22.0070 H   0  0  0  0  0  0  0  0  0  0  0  0
  -25.6840  -15.3770   20.3660 N   0  0  0  0  0  0  0  0  0  0  0  0
  -24.9190  -16.0420   20.3790 H   0  0  0  0  0  0  0  0  0  0  0  0
  -26.5560  -15.7890   20.0590 H   0  0  0  0  0  0  0  0  0  0  0  0
  -28.0000  -24.4100   20.7100 C   0  0  0  0  0  2  0  0  0  0  0  0
  -28.6470  -25.5540   19.8780 C   0  0  0  0  0  2  0  0  0  0  0  0
  -28.3920  -26.8790   20.3290 O   0  0  0  0  0  0  0  0  0  0  0  0
  -24.5200  -31.9620   23.2620 C   0  0  0  0  0  0  0  0  0  0  0  0
  -27.1710  -27.5090   20.2330 C   0  0  0  0  0  0  0  0  0  0  0  0
  -23.3080  -30.5480   21.6290 C   0  0  0  0  0  3  0  0  0  0  0  0
  -24.7580  -28.9910   20.2090 C   0  0  0  0  0  0  0  0  0  0  0  0
  -25.8300  -30.9040   21.4270 C   0  0  0  0  0  2  0  0  0  0  0  0
  -25.9070  -29.5320   20.7960 C   0  0  0  0  0  0  0  0  0  0  0  0
  -27.1070  -28.7970   20.8040 C   0  0  0  0  0  3  0  0  0  0  0  0
  -26.0110  -26.9730   19.6250 C   0  0  0  0  0  3  0  0  0  0  0  0
  -24.8060  -27.7120   19.6170 C   0  0  0  0  0  3  0  0  0  0  0  0
  -23.5080  -29.8450   20.2550 C   0  0  0  0  0  2  0  0  0  0  0  0
  -24.5690  -31.1590   22.1610 N   0  0  0  0  0  0  0  0  0  0  0  0
  -23.4410  -32.2410   23.8040 O   0  0  0  0  0  0  0  0  0  0  0  0
  -22.6620  -29.5390   22.6040 C   0  0  0  0  0  0  0  0  0  0  0  0
  -21.3380  -29.3560   22.4720 N   0  0  0  0  0  0  0  0  0  0  0  0
  -23.3450  -28.9240   23.4260 O   0  0  0  0  0  0  0  0  0  0  0  0
  -20.8600  -29.8950   21.7650 H   0  0  0  0  0  0  0  0  0  0  0  0
  -17.9570  -28.1790   22.9610 C   0  0  0  0  0  0  0  0  0  0  0  0
  -20.5160  -28.4270   23.2430 C   0  0  0  0  0  3  0  0  0  0  0  0
  -20.6170  -26.9940   22.6730 C   0  0  0  0  0  2  0  0  0  0  0  0
  -19.5160  -26.6720   21.6580 C   0  0  0  0  0  2  0  0  0  0  0  0
  -18.1300  -26.8260   22.2900 C   0  0  0  0  0  2  0  0  0  0  0  0
  -19.0760  -28.9390   23.3920 C   0  0  0  0  0  0  0  0  0  0  0  0
  -18.8620  -30.2070   23.9720 C   0  0  0  0  0  3  0  0  0  0  0  0
  -17.5570  -30.7130   24.1310 C   0  0  0  0  0  3  0  0  0  0  0  0
  -16.4510  -29.9480   23.7200 C   0  0  0  0  0  3  0  0  0  0  0  0
  -16.6520  -28.6840   23.1380 C   0  0  0  0  0  3  0  0  0  0  0  0
  -25.8120  -32.5850   23.8800 C   0  0  0  0  0  3  0  0  0  0  0  0
  -26.3230  -31.8210   25.1630 C   0  0  1  0  0  0  0  0  0  0  0  0
  -25.2280  -31.5940   26.2300 C   0  0  0  0  0  1  0  0  0  0  0  0
  -26.9030  -30.4380   24.7800 C   0  0  0  0  0  1  0  0  0  0  0  0
  -27.4780  -32.6150   25.8170 C   0  0  0  0  0  1  0  0  0  0  0  0
  -25.5160  -33.9900   24.1930 N   0  0  0  0  0  0  0  0  0  0  0  0
  -25.8740  -35.0320   23.4310 C   0  0  0  0  0  0  0  0  0  0  0  0
  -26.5600  -34.9120   22.4110 O   0  0  0  0  0  0  0  0  0  0  0  0
  -24.9100  -34.1560   24.9820 H   0  0  0  0  0  0  0  0  0  0  0  0
  -24.1800  -36.8430   23.0180 C   0  0  0  0  0  1  0  0  0  0  0  0
  -25.3930  -36.4310   23.8650 C   0  0  0  0  0  3  0  0  0  0  0  0
  -27.5190  -37.2920   24.7470 C   0  0  0  0  0  1  0  0  0  0  0  0
  -26.4460  -37.4680   23.7710 N   0  0  0  0  0  0  0  0  0  0  0  0
  -26.0500  -38.3960   23.8940 H   0  0  0  0  0  0  0  0  0  0  0  0
  1  3  1  0
  2  4  1  0
  3  6  1  0
  4  6  1  0
  5 11  1  0
  5  2  1  0
  5  1  1  0
  6 53  1  0
  6  7  1  1
  8 12  2  0
  8  9  1  0
  9 13  2  0
 11 10  2  0
 12 11  1  0
 13 10  1  0
 13 23  1  0
 14 12  1  0
 16 21  1  0
 17 18  1  0
 17 16  1  0
 19 18  1  0
 19 28  1  0
 19 20  1  0
 21 15  1  0
 21 20  1  0
 22 15  2  0
 23 15  1  0
 23 24  1  0
 25 26  2  0
 26 27  1  0
 26 45  1  0
 27 30  1  0
 28 25  1  0
 28 29  1  0
 29 27  2  0
 30 31  1  0
 31 32  2  0
 33 36  1  0
 33 32  1  0
 34 33  2  0
 35 34  1  0
 35 30  2  0
 36 37  1  0
 37 38  1  0
 38 39  2  0
 40 39  1  0
 40 44  1  0
 41 40  2  0
 42 37  2  0
 42 41  1  0
 43 42  1  0
 45 46  1  0
 46 49  1  0
 46 48  1  0
 47 45  2  0
 50 51  1  0
 50 25  1  0
 52 50  1  0
 54 55  1  0
 54 53  1  0
 56 67  2  0
 57 55  1  0
 57 62  1  0
 58 66  1  0
 58 68  1  0
 59 65  1  0
 59 61  1  0
 60 66  1  0
 61 62  2  0
 61 60  1  0
 63 57  2  0
 64 63  1  0
 64 59  2  0
 65 58  1  0
 66 56  1  0
 68 70  2  0
 69 68  1  0
 71 69  1  0
 72 81  2  0
 72 77  1  0
 73 69  1  0
 73 77  1  0
 74 73  1  0
 75 76  1  0
 75 74  1  0
 76 72  1  0
 77 78  2  0
 78 79  1  0
 80 79  2  0
 81 80  1  0
 82 56  1  0
 82 87  1  0
 82 83  1  0
 83 86  1  1
 83 84  1  0
 85 83  1  0
 87 90  1  0
 88 92  1  0
 88 87  1  0
 89 88  2  0
 92 91  1  0
 94 92  1  0
 94 95  1  0
 94 93  1  0
M  ISO  4  15 100  23 100  54 101  55 101
M  END
>  <TORSDO>  (4) 
F 19

>  <SCORE>  (4) 
-14.135

>  <name>  (4) 
3

>  <ligand_id>  (4) 
3

>  <original_smiles>  (4) 
[H]c1c([H])c([H])c2c(c1[H])C([H])([H])C([H])([H])C([H])([H])C2([H])N([H])C(=O)C1([H])N(C(=O)C([H])(N([H])C(=O)C([H])(N([H])C([H])([H])[H])C([H])([H])[H])C(C([H])([H])[H])(C([H])([H])[H])C([H])([H])[H])C([H])([H])c2c([H])c(OC([H])([H])C([H])([H])[N+]3([H])C([H])([H])C([H])([H])C([H])(c4c([H])c(N([H])C(=O)N5C([H])([H])C([H])([H])C([H])([H])C([H])(n6nc(-c7c([H])c([H])c(Oc8c([H])c([H])c(F)c([H])c8F)c([H])c7[H])c(C(=O)N([H])[H])c6N([H])[H])C5([H])[H])c([H])c([H])c4C([H])([H])[H])C([H])([H])C3([H])[H])c([H])c([H])c2C1([H])[H]

>  <smiles>  (4) 
[H]c1c([H])c([H])c2c(c1[H])C([H])([H])C([H])([H])C([H])([H])C2([H])N([H])C(=O)C1([H])N(C(=O)C([H])(N([H])C(=O)C([H])(N([H])C([H])([H])[H])C([H])([H])[H])C(C([H])([H])[H])(C([H])([H])[H])C([H])([H])[H])C([H])([H])c2c([H])c(OC([H])([H])C([H])([H])[N+]3([H])C([H])([H])C([H])([H])C([H])(c4c([H])c(N([H])C(=O)N5C([H])([H])C([H])([H])C([H])([H])C([H])(n6nc(-c7c([H])c([H])c(Oc8c([H])c([H])c(F)c([H])c8F)c([H])c7[H])c(C(=O)N([H])[H])c6N([H])[H])C5([H])[H])c([H])c([H])c4C([H])([H])[H])C([H])([H])C3([H])[H])c([H])c([H])c2C1([H])[H]

$$$$
4:0:0
     RDKit          3D

 96106  0  0  1  0  0  0  0  0999 V2000
  -29.5690  -20.8930   20.9780 C   0  0  0  0  0  2  0  0  0  0  0  0
  -28.3490  -22.8130   19.6300 C   0  0  0  0  0  2  0  0  0  0  0  0
  -29.3620  -23.3210   21.8500 C   0  0  0  0  0  2  0  0  0  0  0  0
  -28.3830  -24.3260   19.2680 C   0  0  0  0  0  2  0  0  0  0  0  0
  -29.3730  -24.8370   21.5100 C   0  0  0  0  0  2  0  0  0  0  0  0
  -29.4930  -22.4210   20.5970 C   0  0  0  0  0  3  0  0  0  0  0  0
  -28.2630  -25.2380   20.5130 C   0  0  0  0  0  3  0  0  0  0  0  0
  -28.3770  -26.6510   20.2040 O   0  0  0  0  0  0  0  0  0  0  0  0
  -24.5890  -31.8900   23.2310 C   0  0  0  0  0  0  0  0  0  0  0  0
  -27.2140  -27.4050   20.1780 C   0  0  0  0  0  0  0  0  0  0  0  0
  -23.3770  -30.4870   21.5940 C   0  0  0  0  0  3  0  0  0  0  0  0
  -24.8260  -28.9440   20.1710 C   0  0  0  0  0  0  0  0  0  0  0  0
  -25.9060  -30.8370   21.3920 C   0  0  0  0  0  2  0  0  0  0  0  0
  -25.9900  -29.4620   20.7540 C   0  0  0  0  0  0  0  0  0  0  0  0
  -27.1860  -28.7050   20.7450 C   0  0  0  0  0  3  0  0  0  0  0  0
  -26.0290  -26.9090   19.5870 C   0  0  0  0  0  3  0  0  0  0  0  0
  -24.8440  -27.6680   19.5810 C   0  0  0  0  0  3  0  0  0  0  0  0
  -23.5830  -29.8070   20.2160 C   0  0  0  0  0  2  0  0  0  0  0  0
  -24.6430  -31.0870   22.1310 N   0  0  0  0  0  0  0  0  0  0  0  0
  -23.5090  -32.1670   23.7710 O   0  0  0  0  0  0  0  0  0  0  0  0
  -22.7240  -29.4710   22.5580 C   0  0  0  0  0  0  0  0  0  0  0  0
  -21.3990  -29.2900   22.4300 N   0  0  0  0  0  0  0  0  0  0  0  0
  -23.4060  -28.8460   23.3740 O   0  0  0  0  0  0  0  0  0  0  0  0
  -20.9090  -29.8430   21.7410 H   0  0  0  0  0  0  0  0  0  0  0  0
  -18.0240  -28.1040   22.9300 C   0  0  0  0  0  0  0  0  0  0  0  0
  -20.5810  -28.3570   23.2050 C   0  0  0  0  0  3  0  0  0  0  0  0
  -20.6820  -26.9240   22.6320 C   0  0  0  0  0  2  0  0  0  0  0  0
  -19.5800  -26.6010   21.6170 C   0  0  0  0  0  2  0  0  0  0  0  0
  -18.1970  -26.7510   22.2590 C   0  0  0  0  0  2  0  0  0  0  0  0
  -19.1430  -28.8640   23.3600 C   0  0  0  0  0  0  0  0  0  0  0  0
  -18.9270  -30.1300   23.9460 C   0  0  0  0  0  3  0  0  0  0  0  0
  -17.6240  -30.6350   24.1090 C   0  0  0  0  0  3  0  0  0  0  0  0
  -16.5180  -29.8710   23.6960 C   0  0  0  0  0  3  0  0  0  0  0  0
  -16.7190  -28.6070   23.1120 C   0  0  0  0  0  3  0  0  0  0  0  0
  -25.8770  -32.5190   23.8490 C   0  0  0  0  0  3  0  0  0  0  0  0
  -26.3990  -31.7450   25.1210 C   0  0  1  0  0  0  0  0  0  0  0  0
  -25.3120  -31.5110   26.1950 C   0  0  0  0  0  1  0  0  0  0  0  0
  -26.9770  -30.3680   24.7230 C   0  0  0  0  0  1  0  0  0  0  0  0
  -27.5530  -32.5390   25.7790 C   0  0  0  0  0  1  0  0  0  0  0  0
  -25.5700  -33.9170   24.1790 N   0  0  0  0  0  0  0  0  0  0  0  0
  -25.9040  -34.9700   23.4210 C   0  0  0  0  0  0  0  0  0  0  0  0
  -26.5740  -34.8660   22.3900 O   0  0  0  0  0  0  0  0  0  0  0  0
  -24.9730  -34.0730   24.9780 H   0  0  0  0  0  0  0  0  0  0  0  0
  -24.1800  -36.7660   23.0660 C   0  0  0  0  0  1  0  0  0  0  0  0
  -25.4180  -36.3580   23.8800 C   0  0  0  0  0  3  0  0  0  0  0  0
  -27.5530  -37.2340   24.7170 C   0  0  0  0  0  1  0  0  0  0  0  0
  -26.4520  -37.4100   23.7740 N   0  0  0  0  0  0  0  0  0  0  0  0
  -26.0460  -38.3300   23.9270 H   0  0  0  0  0  0  0  0  0  0  0  0
  -29.9020  -19.9450   19.8840 N   0  0  0  0  0  0  0  0  0  0  0  0
  -30.6840  -14.5750   20.4420 C   0  0  0  0  0  0  0  0  0  0  0  0
  -30.3570  -12.3860   19.3160 C   0  0  0  0  0  2  0  0  0  0  0  0
  -29.4170  -12.5400   18.1010 C   0  0  0  0  0  2  0  0  0  0  0  0
  -27.9500  -12.3590   18.5410 C   0  0  0  0  0  2  0  0  0  0  0  0
  -27.5970  -13.2190   19.7780 C   0  0  0  0  0  3  0  0  0  0  0  0
  -28.6630  -13.0950   20.8940 C   0  0  0  0  0  2  0  0  0  0  0  0
  -29.9720  -13.4110   20.3070 N   0  0  0  0  0  0  0  0  0  0  0  0
  -31.8480  -14.6430   20.0320 O   0  0  0  0  0  0  0  0  0  0  0  0
  -30.7980  -18.1610   21.5340 C   0  0  0  0  0  2  0  0  0  0  0  0
  -28.6620  -17.7950   20.4080 C   0  0  0  0  0  2  0  0  0  0  0  0
  -30.9030  -16.6260   21.8180 C   0  0  0  0  0  2  0  0  0  0  0  0
  -28.8610  -16.2570   20.3630 C   0  0  0  0  0  2  0  0  0  0  0  0
  -30.0050  -18.5060   20.2650 C   0  0  0  0  0  3  0  0  0  0  0  0
  -30.0880  -15.6900   20.9860 N   0  0  0  0  0  0  0  0  0  0  0  0
  -25.2100  -13.8470   20.4960 C   0  0  0  0  0  0  0  0  0  0  0  0
  -24.1430  -13.0790   20.8740 C   0  0  0  0  0  0  0  0  0  0  0  0
  -24.6040  -11.7270   20.8540 C   0  0  0  0  0  0  0  0  0  0  0  0
  -26.2520  -12.9590   20.2700 N   0  0  0  0  0  0  0  0  0  0  0  0
  -25.8930  -11.6830   20.5490 N   0  0  0  0  0  0  0  0  0  0  0  0
  -23.8770  -10.4700   21.0490 C   0  0  0  0  0  0  0  0  0  0  0  0
  -24.3200   -9.5010   21.9760 C   0  0  0  0  0  3  0  0  0  0  0  0
  -23.5960   -8.3040   22.1640 C   0  0  0  0  0  3  0  0  0  0  0  0
  -22.4150   -8.0700   21.4210 C   0  0  0  0  0  0  0  0  0  0  0  0
  -21.9890   -9.0270   20.4810 C   0  0  0  0  0  3  0  0  0  0  0  0
  -22.7150  -10.2150   20.2950 C   0  0  0  0  0  3  0  0  0  0  0  0
  -21.6630   -6.9240   21.5100 O   0  0  0  0  0  0  0  0  0  0  0  0
  -21.6360   -6.1690   22.6540 C   0  0  0  0  0  0  0  0  0  0  0  0
  -21.2440   -6.7160   23.8950 C   0  0  0  0  0  3  0  0  0  0  0  0
  -21.1650   -5.8900   25.0340 C   0  0  0  0  0  3  0  0  0  0  0  0
  -21.4680   -4.5180   24.9340 C   0  0  0  0  0  0  0  0  0  0  0  0
  -21.8520   -3.9730   23.6960 C   0  0  0  0  0  3  0  0  0  0  0  0
  -21.9330   -4.7950   22.5600 C   0  0  0  0  0  0  0  0  0  0  0  0
  -22.2850   -4.2610   21.3640 F   0  0  0  0  0  0  0  0  0  0  0  0
  -21.3870   -3.7240   26.0250 F   0  0  0  0  0  0  0  0  0  0  0  0
  -22.7450  -13.5610   21.1400 C   0  0  0  0  0  0  0  0  0  0  0  0
  -22.0180  -12.8720   22.0110 N   0  0  0  0  0  0  0  0  0  0  0  0
  -22.3070  -14.5830   20.6110 O   0  0  0  0  0  0  0  0  0  0  0  0
  -22.3840  -12.0430   22.4560 H   0  0  0  0  0  0  0  0  0  0  0  0
  -21.0830  -13.1780   22.2400 H   0  0  0  0  0  0  0  0  0  0  0  0
  -25.3710  -15.2150   20.3040 N   0  0  0  0  0  0  0  0  0  0  0  0
  -24.5980  -15.8630   20.4020 H   0  0  0  0  0  0  0  0  0  0  0  0
  -26.2070  -15.6480   19.9360 H   0  0  0  0  0  0  0  0  0  0  0  0
  -31.4140  -19.7100   17.8140 C   0  0  0  0  0  2  0  0  0  0  0  0
  -31.1420  -20.3130   19.1830 C   0  0  0  0  0  3  0  0  0  0  0  0
  -30.8620  -21.0350   17.9540 N   0  0  0  0  0  4  0  0  0  0  0  0
  -29.8980  -21.1100   17.6840 H   0  0  0  0  0  0  0  0  0  0  0  0
  -31.4940  -21.7810   17.7220 H   0  0  0  0  0  0  0  0  0  0  0  0
  2  6  1  0
  4  2  1  0
  4  7  1  0
  5  3  1  0
  6  1  1  0
  6  3  1  0
  7  8  1  0
  7  5  1  0
  9 20  2  0
 10  8  1  0
 10 15  1  0
 11 19  1  0
 11 21  1  0
 12 18  1  0
 12 14  1  0
 13 19  1  0
 14 13  1  0
 15 14  2  0
 16 10  2  0
 17 16  1  0
 17 12  2  0
 18 11  1  0
 19  9  1  0
 21 23  2  0
 22 21  1  0
 24 22  1  0
 25 34  2  0
 25 30  1  0
 26 22  1  0
 26 30  1  0
 27 26  1  0
 28 29  1  0
 28 27  1  0
 29 25  1  0
 30 31  2  0
 31 32  1  0
 33 32  2  0
 34 33  1  0
 35  9  1  0
 35 40  1  0
 35 36  1  0
 36 39  1  1
 36 37  1  0
 38 36  1  0
 40 43  1  0
 41 45  1  0
 41 40  1  0
 42 41  2  0
 45 44  1  0
 47 45  1  0
 47 48  1  0
 47 46  1  0
 49  1  1  0
 50 63  1  0
 51 56  1  0
 52 53  1  0
 52 51  1  0
 54 53  1  0
 54 67  1  0
 54 55  1  0
 56 50  1  0
 56 55  1  0
 57 50  2  0
 58 60  1  0
 61 59  1  0
 61 63  1  0
 62 49  1  0
 62 59  1  0
 62 58  1  0
 63 60  1  0
 64 65  2  0
 65 84  1  0
 66 65  1  0
 66 69  1  0
 67 64  1  0
 67 68  1  0
 68 66  2  0
 69 70  1  0
 70 71  2  0
 72 75  1  0
 72 71  1  0
 73 72  2  0
 74 73  1  0
 74 69  2  0
 75 76  1  0
 76 77  1  0
 77 78  2  0
 79 78  1  0
 79 83  1  0
 80 79  2  0
 81 76  2  0
 81 80  1  0
 82 81  1  0
 84 85  1  0
 85 88  1  0
 85 87  1  0
 86 84  2  0
 89 90  1  0
 89 64  1  0
 91 89  1  0
 92 94  1  0
 92 93  1  0
 93 49  1  0
 94 93  1  0
 95 94  1  0
 96 94  1  0
M  ISO  4   7 101   8 101  50 100  63 100
M  END
>  <TORSDO>  (5) 
F 19

>  <SCORE>  (5) 
-14.832

>  <name>  (5) 
4

>  <ligand_id>  (5) 
4

>  <original_smiles>  (5) 
[H]c1c([H])c([H])c2c(c1[H])C([H])([H])C([H])([H])C([H])([H])C2([H])N([H])C(=O)C1([H])N(C(=O)C([H])(N([H])C(=O)C([H])(N([H])C([H])([H])[H])C([H])([H])[H])C(C([H])([H])[H])(C([H])([H])[H])C([H])([H])[H])C([H])([H])c2c([H])c(OC3([H])C([H])([H])C([H])([H])C([H])(C([H])([H])N(C4([H])C([H])([H])C([H])([H])N(C(=O)N5C([H])([H])C([H])([H])C([H])([H])C([H])(n6nc(-c7c([H])c([H])c(Oc8c([H])c([H])c(F)c([H])c8F)c([H])c7[H])c(C(=O)N([H])[H])c6N([H])[H])C5([H])[H])C([H])([H])C4([H])[H])C4([H])C([H])([H])[N+]4([H])[H])C([H])([H])C3([H])[H])c([H])c([H])c2C1([H])[H]

>  <smiles>  (5) 
[H]c1c([H])c([H])c2c(c1[H])C([H])([H])C([H])([H])C([H])([H])C2([H])N([H])C(=O)C1([H])N(C(=O)C([H])(N([H])C(=O)C([H])(N([H])C([H])([H])[H])C([H])([H])[H])C(C([H])([H])[H])(C([H])([H])[H])C([H])([H])[H])C([H])([H])c2c([H])c(OC3([H])C([H])([H])C([H])([H])C([H])(C([H])([H])N(C4([H])C([H])([H])C([H])([H])N(C(=O)N5C([H])([H])C([H])([H])C([H])([H])C([H])(n6nc(-c7c([H])c([H])c(Oc8c([H])c([H])c(F)c([H])c8F)c([H])c7[H])c(C(=O)N([H])[H])c6N([H])[H])C5([H])[H])C([H])([H])C4([H])[H])C4([H])C([H])([H])[N+]4([H])[H])C([H])([H])C3([H])[H])c([H])c([H])c2C1([H])[H]

$$$$
5:0:0
     RDKit          3D

 96105  0  0  1  0  0  0  0  0999 V2000
  -29.2850  -24.7810   21.4040 C   0  0  0  0  0  3  0  0  0  0  0  0
  -29.8260  -23.4720   21.3360 C   0  0  0  0  0  0  0  0  0  0  0  0
  -29.8510  -22.7860   20.0900 C   0  0  0  0  0  3  0  0  0  0  0  0
  -29.2120  -23.4590   19.0040 C   0  0  0  0  0  3  0  0  0  0  0  0
  -28.7760  -25.4070   20.2470 C   0  0  0  0  0  0  0  0  0  0  0  0
  -30.4810  -22.8880   22.5820 C   0  0  0  0  0  1  0  0  0  0  0  0
  -29.0920  -22.8430   17.6210 C   0  0  0  0  0  1  0  0  0  0  0  0
  -28.7040  -24.7200   19.0850 N   0  0  0  0  0  0  0  0  0  0  0  0
  -28.6560  -26.7960   20.1560 O   0  0  0  0  0  0  0  0  0  0  0  0
  -24.7430  -31.8620   23.3720 C   0  0  0  0  0  0  0  0  0  0  0  0
  -27.4590  -27.4990   20.2020 C   0  0  0  0  0  0  0  0  0  0  0  0
  -23.5780  -30.5240   21.6470 C   0  0  0  0  0  3  0  0  0  0  0  0
  -25.0690  -29.0400   20.1940 C   0  0  0  0  0  0  0  0  0  0  0  0
  -26.1080  -30.8820   21.5260 C   0  0  0  0  0  2  0  0  0  0  0  0
  -26.2110  -29.5320   20.8370 C   0  0  0  0  0  0  0  0  0  0  0  0
  -27.4040  -28.7670   20.8410 C   0  0  0  0  0  3  0  0  0  0  0  0
  -26.3020  -27.0340   19.5410 C   0  0  0  0  0  3  0  0  0  0  0  0
  -25.1120  -27.7930   19.5390 C   0  0  0  0  0  3  0  0  0  0  0  0
  -23.8220  -29.8990   20.2450 C   0  0  0  0  0  2  0  0  0  0  0  0
  -24.8270  -31.1040   22.2410 N   0  0  0  0  0  0  0  0  0  0  0  0
  -23.6490  -32.1090   23.9040 O   0  0  0  0  0  0  0  0  0  0  0  0
  -22.9070  -29.4670   22.5550 C   0  0  0  0  0  0  0  0  0  0  0  0
  -21.5860  -29.2840   22.3940 N   0  0  0  0  0  0  0  0  0  0  0  0
  -23.5740  -28.8120   23.3600 O   0  0  0  0  0  0  0  0  0  0  0  0
  -21.1040  -29.8660   21.7230 H   0  0  0  0  0  0  0  0  0  0  0  0
  -18.2150  -28.0350   22.7460 C   0  0  0  0  0  0  0  0  0  0  0  0
  -20.7600  -28.3130   23.1090 C   0  0  0  0  0  3  0  0  0  0  0  0
  -20.9000  -26.9020   22.4920 C   0  0  0  0  0  2  0  0  0  0  0  0
  -19.8350  -26.6000   21.4310 C   0  0  0  0  0  2  0  0  0  0  0  0
  -18.4300  -26.7080   22.0350 C   0  0  0  0  0  2  0  0  0  0  0  0
  -19.3100  -28.7940   23.2350 C   0  0  0  0  0  0  0  0  0  0  0  0
  -19.0600  -30.0340   23.8630 C   0  0  0  0  0  3  0  0  0  0  0  0
  -17.7460  -30.5160   24.0050 C   0  0  0  0  0  3  0  0  0  0  0  0
  -16.6630  -29.7540   23.5330 C   0  0  0  0  0  3  0  0  0  0  0  0
  -16.8990  -28.5150   22.9090 C   0  0  0  0  0  3  0  0  0  0  0  0
  -26.0140  -32.4720   24.0430 C   0  0  0  0  0  3  0  0  0  0  0  0
  -25.7110  -33.8660   24.3880 N   0  0  0  0  0  0  0  0  0  0  0  0
  -26.0720  -34.9270   23.6530 C   0  0  0  0  0  0  0  0  0  0  0  0
  -26.7600  -34.8330   22.6340 O   0  0  0  0  0  0  0  0  0  0  0  0
  -25.0970  -34.0120   25.1740 H   0  0  0  0  0  0  0  0  0  0  0  0
  -24.3500  -36.7330   23.3080 C   0  0  0  0  0  1  0  0  0  0  0  0
  -25.5850  -36.3130   24.1240 C   0  0  0  0  0  3  0  0  0  0  0  0
  -27.7150  -37.1840   24.9790 C   0  0  0  0  0  1  0  0  0  0  0  0
  -26.6200  -37.3650   24.0300 N   0  0  0  0  0  0  0  0  0  0  0  0
  -26.2160  -38.2850   24.1830 H   0  0  0  0  0  0  0  0  0  0  0  0
  -26.4860  -31.6770   25.3220 C   0  0  1  0  0  0  0  0  0  0  0  0
  -25.3560  -31.4320   26.3520 C   0  0  0  0  0  1  0  0  0  0  0  0
  -27.0780  -30.3040   24.9260 C   0  0  0  0  0  1  0  0  0  0  0  0
  -27.6150  -32.4540   26.0380 C   0  0  0  0  0  1  0  0  0  0  0  0
  -30.7910  -21.5490   19.8900 C   0  0  0  0  0  2  0  0  0  0  0  0
  -30.4050  -17.7860   19.0810 C   0  0  0  0  0  2  0  0  0  0  0  0
  -30.8420  -19.2680   18.9870 C   0  0  0  0  0  2  0  0  0  0  0  0
  -30.6900  -19.5130   21.4040 C   0  0  0  0  0  2  0  0  0  0  0  0
  -30.2480  -18.0120   21.5420 C   0  0  0  0  0  3  0  0  0  0  0  0
  -30.8490  -17.1180   20.4020 C   0  0  0  0  0  3  0  0  0  0  0  0
  -30.5660  -17.5070   22.9610 C   0  0  0  0  0  1  0  0  0  0  0  0
  -30.3200  -20.1290   20.0930 N   0  0  1  0  0  4  0  0  0  0  0  0
  -29.3140  -20.1260   20.0290 H   0  0  0  0  0  0  0  0  0  0  0  0
  -31.1320  -14.6090   19.9220 C   0  0  0  0  0  0  0  0  0  0  0  0
  -30.7910  -12.3720   18.9070 C   0  0  0  0  0  2  0  0  0  0  0  0
  -29.7700  -12.4670   17.7540 C   0  0  0  0  0  2  0  0  0  0  0  0
  -28.3310  -12.3360   18.2860 C   0  0  0  0  0  2  0  0  0  0  0  0
  -28.0600  -13.2610   19.5020 C   0  0  0  0  0  3  0  0  0  0  0  0
  -29.1820  -13.1380   20.5590 C   0  0  0  0  0  2  0  0  0  0  0  0
  -30.4620  -13.4220   19.8910 N   0  0  0  0  0  0  0  0  0  0  0  0
  -32.2290  -14.7490   19.3710 O   0  0  0  0  0  0  0  0  0  0  0  0
  -30.4670  -15.6720   20.4540 N   0  0  0  0  0  0  0  0  0  0  0  0
  -29.5940  -15.4500   20.9110 H   0  0  0  0  0  0  0  0  0  0  0  0
  -25.7760  -13.9260   20.4800 C   0  0  0  0  0  0  0  0  0  0  0  0
  -24.7030  -13.1840   20.8890 C   0  0  0  0  0  0  0  0  0  0  0  0
  -25.0750  -11.8160   20.7020 C   0  0  0  0  0  0  0  0  0  0  0  0
  -26.7420  -13.0150   20.0810 N   0  0  0  0  0  0  0  0  0  0  0  0
  -26.3290  -11.7360   20.2730 N   0  0  0  0  0  0  0  0  0  0  0  0
  -24.2940  -10.5830   20.8600 C   0  0  0  0  0  0  0  0  0  0  0  0
  -24.6930   -9.5640   21.7540 C   0  0  0  0  0  3  0  0  0  0  0  0
  -23.9150   -8.3960   21.9000 C   0  0  0  0  0  3  0  0  0  0  0  0
  -22.7250   -8.2370   21.1510 C   0  0  0  0  0  0  0  0  0  0  0  0
  -22.3440   -9.2430   20.2480 C   0  0  0  0  0  3  0  0  0  0  0  0
  -23.1210  -10.4040   20.0990 C   0  0  0  0  0  3  0  0  0  0  0  0
  -21.9200   -7.1250   21.2090 O   0  0  0  0  0  0  0  0  0  0  0  0
  -21.7630   -6.4080   22.3680 C   0  0  0  0  0  0  0  0  0  0  0  0
  -21.2940   -7.0090   23.5560 C   0  0  0  0  0  3  0  0  0  0  0  0
  -21.0800   -6.2220   24.7050 C   0  0  0  0  0  3  0  0  0  0  0  0
  -21.3300   -4.8370   24.6680 C   0  0  0  0  0  0  0  0  0  0  0  0
  -21.7920   -4.2370   23.4840 C   0  0  0  0  0  3  0  0  0  0  0  0
  -22.0070   -5.0210   22.3370 C   0  0  0  0  0  0  0  0  0  0  0  0
  -22.4320   -4.4340   21.1920 F   0  0  0  0  0  0  0  0  0  0  0  0
  -21.1180   -4.0790   25.7690 F   0  0  0  0  0  0  0  0  0  0  0  0
  -23.3680  -13.7080   21.3320 C   0  0  0  0  0  0  0  0  0  0  0  0
  -22.6930  -12.9920   22.2230 N   0  0  0  0  0  0  0  0  0  0  0  0
  -22.9360  -14.7860   20.9220 O   0  0  0  0  0  0  0  0  0  0  0  0
  -23.0550  -12.1180   22.5740 H   0  0  0  0  0  0  0  0  0  0  0  0
  -21.8000  -13.3240   22.5620 H   0  0  0  0  0  0  0  0  0  0  0  0
  -26.0080  -15.2970   20.3980 N   0  0  0  0  0  0  0  0  0  0  0  0
  -25.2940  -15.9800   20.6220 H   0  0  0  0  0  0  0  0  0  0  0  0
  -26.8380  -15.7120   19.9950 H   0  0  0  0  0  0  0  0  0  0  0  0
  2  1  2  0
  2  6  1  0
  3 50  1  0
  3  2  1  0
  4  7  1  0
  4  8  1  0
  4  3  1  0
  5  1  1  0
  8  5  2  0
  9 11  1  0
  9  5  1  0
 10 21  2  0
 11 16  1  0
 12 20  1  0
 12 22  1  0
 13 19  1  0
 13 15  1  0
 14 20  1  0
 15 16  2  0
 15 14  1  0
 17 11  2  0
 18 17  1  0
 18 13  2  0
 19 12  1  0
 20 10  1  0
 22 24  2  0
 23 22  1  0
 25 23  1  0
 26 35  2  0
 26 31  1  0
 27 23  1  0
 27 31  1  0
 28 27  1  0
 29 30  1  0
 29 28  1  0
 30 26  1  0
 31 32  2  0
 32 33  1  0
 34 33  2  0
 35 34  1  0
 36 10  1  0
 36 37  1  0
 36 46  1  0
 37 40  1  0
 38 42  1  0
 38 37  1  0
 39 38  2  0
 42 41  1  0
 44 42  1  0
 44 45  1  0
 44 43  1  0
 46 49  1  1
 46 47  1  0
 48 46  1  0
 50 57  1  0
 51 55  1  0
 52 51  1  0
 52 57  1  0
 53 54  1  0
 54 56  1  0
 55 67  1  0
 55 54  1  0
 57 53  1  0
 57 58  1  6
 59 67  1  0
 60 65  1  0
 61 62  1  0
 61 60  1  0
 63 62  1  0
 63 72  1  0
 63 64  1  0
 65 59  1  0
 65 64  1  0
 66 59  2  0
 67 68  1  0
 69 70  2  0
 70 89  1  0
 71 74  1  0
 71 70  1  0
 72 73  1  0
 72 69  1  0
 73 71  2  0
 74 75  1  0
 75 76  2  0
 77 80  1  0
 77 76  1  0
 78 77  2  0
 79 78  1  0
 79 74  2  0
 80 81  1  0
 81 82  1  0
 82 83  2  0
 84 83  1  0
 84 88  1  0
 85 84  2  0
 86 81  2  0
 86 85  1  0
 87 86  1  0
 89 90  1  0
 90 93  1  0
 90 92  1  0
 91 89  2  0
 94 69  1  0
 94 95  1  0
 96 94  1  0
M  ISO  4   5 101   9 101  59 100  67 100
M  END
>  <TORSDO>  (6) 
F 18

>  <SCORE>  (6) 
-13.834

>  <name>  (6) 
5

>  <ligand_id>  (6) 
5

>  <original_smiles>  (6) 
[H]c1c([H])c([H])c2c(c1[H])C([H])([H])C([H])([H])C([H])([H])C2([H])N([H])C(=O)C1([H])N(C(=O)C([H])(N([H])C(=O)C([H])(N([H])C([H])([H])[H])C([H])([H])[H])C(C([H])([H])[H])(C([H])([H])[H])C([H])([H])[H])C([H])([H])c2c([H])c(Oc3nc(C([H])([H])[H])c(C([H])([H])[N+]4([H])C([H])([H])C([H])([H])C([H])(N([H])C(=O)N5C([H])([H])C([H])([H])C([H])([H])C([H])(n6nc(-c7c([H])c([H])c(Oc8c([H])c([H])c(F)c([H])c8F)c([H])c7[H])c(C(=O)N([H])[H])c6N([H])[H])C5([H])[H])C([H])(C([H])([H])[H])C4([H])[H])c(C([H])([H])[H])c3[H])c([H])c([H])c2C1([H])[H]

>  <smiles>  (6) 
[H]c1c([H])c([H])c2c(c1[H])C([H])([H])C([H])([H])C([H])([H])C2([H])N([H])C(=O)C1([H])N(C(=O)C([H])(N([H])C(=O)C([H])(N([H])C([H])([H])[H])C([H])([H])[H])C(C([H])([H])[H])(C([H])([H])[H])C([H])([H])[H])C([H])([H])c2c([H])c(Oc3nc(C([H])([H])[H])c(C([H])([H])[N+]4([H])C([H])([H])C([H])([H])C([H])(N([H])C(=O)N5C([H])([H])C([H])([H])C([H])([H])C([H])(n6nc(-c7c([H])c([H])c(Oc8c([H])c([H])c(F)c([H])c8F)c([H])c7[H])c(C(=O)N([H])[H])c6N([H])[H])C5([H])[H])C([H])(C([H])([H])[H])C4([H])[H])c(C([H])([H])[H])c3[H])c([H])c([H])c2C1([H])[H]

$$$$
6:0:0
     RDKit          3D

 96104  0  0  1  0  0  0  0  0999 V2000
  -28.2570  -23.1040   21.8460 C   0  0  0  0  0  3  0  0  0  0  0  0
  -28.4970  -24.4680   21.5720 C   0  0  0  0  0  3  0  0  0  0  0  0
  -28.2730  -22.4210   20.6640 C   0  0  0  0  0  0  0  0  0  0  0  0
  -28.6560  -24.6070   20.2230 C   0  0  0  0  0  0  0  0  0  0  0  0
  -28.4530  -23.3560   19.6240 N   0  0  0  0  0  0  0  0  0  0  0  0
  -27.6460  -22.0220   17.5920 C   0  0  0  0  0  1  0  0  0  0  0  0
  -29.9560  -23.0590   17.6490 C   0  0  0  0  0  1  0  0  0  0  0  0
  -28.5110  -23.1550   18.1600 C   0  0  0  0  0  3  0  0  0  0  0  0
  -28.1660  -20.9300   20.5260 C   0  0  0  0  0  2  0  0  0  0  0  0
  -29.5290  -20.2540   20.2960 C   0  0  0  0  0  2  0  0  0  0  0  0
  -29.3790  -18.8200   19.9790 N   0  0  0  0  0  4  0  0  0  0  0  0
  -29.7820  -18.6780   19.0650 H   0  0  0  0  0  0  0  0  0  0  0  0
  -28.3980  -18.6090   19.8990 H   0  0  0  0  0  0  0  0  0  0  0  0
  -28.9100  -17.2300   21.8150 C   0  0  0  0  0  1  0  0  0  0  0  0
  -29.9920  -17.8330   20.8990 C   0  0  0  0  0  3  0  0  0  0  0  0
  -30.7740  -16.7940   20.0620 C   0  0  0  0  0  2  0  0  0  0  0  0
  -31.6060  -14.5020   20.1350 C   0  0  0  0  0  0  0  0  0  0  0  0
  -31.1560  -12.3770   18.9880 C   0  0  0  0  0  2  0  0  0  0  0  0
  -30.1990  -12.6620   17.8100 C   0  0  0  0  0  2  0  0  0  0  0  0
  -28.7270  -12.6380   18.2690 C   0  0  0  0  0  2  0  0  0  0  0  0
  -28.4840  -13.4940   19.5400 C   0  0  0  0  0  3  0  0  0  0  0  0
  -29.5360  -13.1560   20.6250 C   0  0  0  0  0  2  0  0  0  0  0  0
  -30.8810  -13.3580   20.0460 N   0  0  0  0  0  0  0  0  0  0  0  0
  -32.6830  -14.6860   19.5590 O   0  0  0  0  0  0  0  0  0  0  0  0
  -30.9480  -15.5040   20.7230 N   0  0  0  0  0  0  0  0  0  0  0  0
  -30.1630  -15.2020   21.2810 H   0  0  0  0  0  0  0  0  0  0  0  0
  -26.1550  -14.2940   20.3100 C   0  0  0  0  0  0  0  0  0  0  0  0
  -25.0360  -13.6080   20.6980 C   0  0  0  0  0  0  0  0  0  0  0  0
  -25.3770  -12.2250   20.6190 C   0  0  0  0  0  0  0  0  0  0  0  0
  -27.1180  -13.3320   20.0380 N   0  0  0  0  0  0  0  0  0  0  0  0
  -26.6510  -12.0810   20.2750 N   0  0  0  0  0  0  0  0  0  0  0  0
  -24.5510  -11.0240   20.7940 C   0  0  0  0  0  0  0  0  0  0  0  0
  -24.8880  -10.0270   21.7360 C   0  0  0  0  0  3  0  0  0  0  0  0
  -24.0690   -8.8900   21.8980 C   0  0  0  0  0  3  0  0  0  0  0  0
  -22.8970   -8.7430   21.1180 C   0  0  0  0  0  0  0  0  0  0  0  0
  -22.5790   -9.7260   20.1660 C   0  0  0  0  0  3  0  0  0  0  0  0
  -23.3990  -10.8550   20.0020 C   0  0  0  0  0  3  0  0  0  0  0  0
  -22.0560   -7.6600   21.1900 O   0  0  0  0  0  0  0  0  0  0  0  0
  -21.8800   -6.9620   22.3580 C   0  0  0  0  0  0  0  0  0  0  0  0
  -21.4380   -7.5900   23.5420 C   0  0  0  0  0  3  0  0  0  0  0  0
  -21.2020   -6.8230   24.7010 C   0  0  0  0  0  3  0  0  0  0  0  0
  -21.4000   -5.4300   24.6760 C   0  0  0  0  0  0  0  0  0  0  0  0
  -21.8360   -4.8010   23.4950 C   0  0  0  0  0  3  0  0  0  0  0  0
  -22.0720   -5.5660   22.3390 C   0  0  0  0  0  0  0  0  0  0  0  0
  -22.4700   -4.9520   21.1980 F   0  0  0  0  0  0  0  0  0  0  0  0
  -21.1670   -4.6910   25.7850 F   0  0  0  0  0  0  0  0  0  0  0  0
  -23.6930  -14.1970   21.0230 C   0  0  0  0  0  0  0  0  0  0  0  0
  -22.9420  -13.5540   21.9100 N   0  0  0  0  0  0  0  0  0  0  0  0
  -23.3220  -15.2600   20.5260 O   0  0  0  0  0  0  0  0  0  0  0  0
  -23.2550  -12.6910   22.3290 H   0  0  0  0  0  0  0  0  0  0  0  0
  -22.0420  -13.9310   22.1740 H   0  0  0  0  0  0  0  0  0  0  0  0
  -26.4290  -15.6470   20.1390 N   0  0  0  0  0  0  0  0  0  0  0  0
  -25.6970  -16.3430   20.2190 H   0  0  0  0  0  0  0  0  0  0  0  0
  -27.2380  -15.9760   19.6310 H   0  0  0  0  0  0  0  0  0  0  0  0
  -29.0490  -25.8510   19.4720 C   0  0  0  0  0  2  0  0  0  0  0  0
  -28.7600  -26.9710   20.3010 O   0  0  0  0  0  0  0  0  0  0  0  0
  -24.5100  -31.7860   23.3050 C   0  0  0  0  0  0  0  0  0  0  0  0
  -27.5060  -27.5400   20.2830 C   0  0  0  0  0  0  0  0  0  0  0  0
  -23.4440  -30.3490   21.5960 C   0  0  0  0  0  3  0  0  0  0  0  0
  -25.0260  -28.8930   20.2300 C   0  0  0  0  0  0  0  0  0  0  0  0
  -25.9510  -30.8340   21.5120 C   0  0  0  0  0  2  0  0  0  0  0  0
  -26.1280  -29.4750   20.8700 C   0  0  0  0  0  0  0  0  0  0  0  0
  -27.3640  -28.8010   20.8990 C   0  0  0  0  0  3  0  0  0  0  0  0
  -26.3760  -26.9500   19.6650 C   0  0  0  0  0  3  0  0  0  0  0  0
  -25.1410  -27.6250   19.6350 C   0  0  0  0  0  3  0  0  0  0  0  0
  -23.7450  -29.6930   20.2230 C   0  0  0  0  0  2  0  0  0  0  0  0
  -24.6500  -31.0060   22.1970 N   0  0  0  0  0  0  0  0  0  0  0  0
  -23.3960  -32.0010   23.8010 O   0  0  0  0  0  0  0  0  0  0  0  0
  -22.8010  -29.2870   22.5170 C   0  0  0  0  0  0  0  0  0  0  0  0
  -21.4940  -29.0470   22.3280 N   0  0  0  0  0  0  0  0  0  0  0  0
  -23.4770  -28.6820   23.3530 O   0  0  0  0  0  0  0  0  0  0  0  0
  -21.0090  -29.5870   21.6260 H   0  0  0  0  0  0  0  0  0  0  0  0
  -18.1580  -27.7060   22.6680 C   0  0  0  0  0  0  0  0  0  0  0  0
  -20.6900  -28.0630   23.0490 C   0  0  0  0  0  3  0  0  0  0  0  0
  -20.8750  -26.6470   22.4540 C   0  0  0  0  0  2  0  0  0  0  0  0
  -19.8290  -26.2980   21.3910 C   0  0  0  0  0  2  0  0  0  0  0  0
  -18.4170  -26.3770   21.9800 C   0  0  0  0  0  2  0  0  0  0  0  0
  -19.2270  -28.5050   23.1550 C   0  0  0  0  0  0  0  0  0  0  0  0
  -18.9350  -29.7500   23.7550 C   0  0  0  0  0  3  0  0  0  0  0  0
  -17.6050  -30.1970   23.8720 C   0  0  0  0  0  3  0  0  0  0  0  0
  -16.5500  -29.3960   23.4000 C   0  0  0  0  0  3  0  0  0  0  0  0
  -16.8270  -28.1520   22.8060 C   0  0  0  0  0  3  0  0  0  0  0  0
  -25.7380  -32.4660   23.9880 C   0  0  0  0  0  3  0  0  0  0  0  0
  -25.3680  -33.8580   24.2750 N   0  0  0  0  0  0  0  0  0  0  0  0
  -25.7230  -34.9080   23.5240 C   0  0  0  0  0  0  0  0  0  0  0  0
  -26.4680  -34.8100   22.5440 O   0  0  0  0  0  0  0  0  0  0  0  0
  -24.7080  -34.0050   25.0260 H   0  0  0  0  0  0  0  0  0  0  0  0
  -23.9780  -36.6450   23.0120 C   0  0  0  0  0  1  0  0  0  0  0  0
  -25.1660  -36.2890   23.9210 C   0  0  0  0  0  3  0  0  0  0  0  0
  -27.2100  -37.2390   24.8940 C   0  0  0  0  0  1  0  0  0  0  0  0
  -26.1760  -37.3680   23.8700 N   0  0  0  0  0  0  0  0  0  0  0  0
  -25.7370  -38.2780   23.9740 H   0  0  0  0  0  0  0  0  0  0  0  0
  -26.2070  -31.7280   25.3030 C   0  0  1  0  0  0  0  0  0  0  0  0
  -25.0610  -31.4510   26.3020 C   0  0  0  0  0  1  0  0  0  0  0  0
  -26.8690  -30.3720   24.9590 C   0  0  0  0  0  1  0  0  0  0  0  0
  -27.2840  -32.5730   26.0230 C   0  0  0  0  0  1  0  0  0  0  0  0
  2  1  1  0
  3  1  2  0
  4  2  2  0
  5  4  1  0
  5  3  1  0
  6  8  1  0
  7  8  1  0
  8  5  1  0
  9  3  1  0
 10  9  1  0
 11 10  1  0
 11 15  1  0
 12 11  1  0
 13 11  1  0
 15 14  1  0
 16 25  1  0
 16 15  1  0
 17 25  1  0
 18 23  1  0
 19 20  1  0
 19 18  1  0
 21 20  1  0
 21 30  1  0
 21 22  1  0
 23 17  1  0
 23 22  1  0
 24 17  2  0
 25 26  1  0
 27 28  2  0
 28 47  1  0
 29 28  1  0
 29 32  1  0
 30 31  1  0
 30 27  1  0
 31 29  2  0
 32 33  1  0
 33 34  2  0
 35 38  1  0
 35 34  1  0
 36 35  2  0
 37 36  1  0
 37 32  2  0
 38 39  1  0
 39 40  1  0
 40 41  2  0
 42 41  1  0
 42 46  1  0
 43 42  2  0
 44 39  2  0
 44 43  1  0
 45 44  1  0
 47 48  1  0
 48 51  1  0
 48 50  1  0
 49 47  2  0
 52 53  1  0
 52 27  1  0
 54 52  1  0
 55  4  1  0
 55 56  1  0
 57 68  2  0
 58 56  1  0
 58 63  1  0
 59 67  1  0
 59 69  1  0
 60 62  1  0
 61 67  1  0
 62 63  2  0
 62 61  1  0
 64 58  2  0
 65 64  1  0
 65 60  2  0
 66 60  1  0
 66 59  1  0
 67 57  1  0
 69 71  2  0
 70 69  1  0
 72 70  1  0
 73 82  2  0
 73 78  1  0
 74 70  1  0
 74 78  1  0
 75 74  1  0
 76 77  1  0
 76 75  1  0
 77 73  1  0
 78 79  2  0
 79 80  1  0
 81 80  2  0
 82 81  1  0
 83 57  1  0
 83 84  1  0
 83 93  1  0
 84 87  1  0
 85 89  1  0
 85 84  1  0
 86 85  2  0
 89 88  1  0
 91 89  1  0
 91 92  1  0
 91 90  1  0
 93 96  1  1
 93 94  1  0
 95 93  1  0
M  ISO  4  17 100  25 100  55 101  56 101
M  END
>  <TORSDO>  (7) 
F 23

>  <SCORE>  (7) 
-10.792

>  <name>  (7) 
6

>  <ligand_id>  (7) 
6

>  <original_smiles>  (7) 
[H]c1c([H])c([H])c2c(c1[H])C([H])([H])C([H])([H])C([H])([H])C2([H])N([H])C(=O)C1([H])N(C(=O)C([H])(N([H])C(=O)C([H])(N([H])C([H])([H])[H])C([H])([H])[H])C(C([H])([H])[H])(C([H])([H])[H])C([H])([H])[H])C([H])([H])c2c([H])c(OC([H])([H])c3c([H])c([H])c(C([H])([H])C([H])([H])[N+]([H])([H])C([H])(C([H])([H])[H])C([H])([H])N([H])C(=O)N4C([H])([H])C([H])([H])C([H])([H])C([H])(n5nc(-c6c([H])c([H])c(Oc7c([H])c([H])c(F)c([H])c7F)c([H])c6[H])c(C(=O)N([H])[H])c5N([H])[H])C4([H])[H])n3C([H])(C([H])([H])[H])C([H])([H])[H])c([H])c([H])c2C1([H])[H]

>  <smiles>  (7) 
[H]c1c([H])c([H])c2c(c1[H])C([H])([H])C([H])([H])C([H])([H])C2([H])N([H])C(=O)C1([H])N(C(=O)C([H])(N([H])C(=O)C([H])(N([H])C([H])([H])[H])C([H])([H])[H])C(C([H])([H])[H])(C([H])([H])[H])C([H])([H])[H])C([H])([H])c2c([H])c(OC([H])([H])c3c([H])c([H])c(C([H])([H])C([H])([H])[N+]([H])([H])C([H])(C([H])([H])[H])C([H])([H])N([H])C(=O)N4C([H])([H])C([H])([H])C([H])([H])C([H])(n5nc(-c6c([H])c([H])c(Oc7c([H])c([H])c(F)c([H])c7F)c([H])c6[H])c(C(=O)N([H])[H])c5N([H])[H])C4([H])[H])n3C([H])(C([H])([H])[H])C([H])([H])[H])c([H])c([H])c2C1([H])[H]

$$$$
7:0:0
     RDKit          3D

 93102  0  0  1  0  0  0  0  0999 V2000
  -29.4150  -21.7970   21.6050 C   0  0  0  0  0  3  0  0  0  0  0  0
  -29.3370  -20.4600   19.6230 C   0  0  0  0  0  0  0  0  0  0  0  0
  -29.7770  -19.2840   20.3620 C   0  0  0  0  0  0  0  0  0  0  0  0
  -29.1720  -21.8360   20.2160 C   0  0  0  0  0  0  0  0  0  0  0  0
  -30.0020  -19.4980   21.7300 C   0  0  0  0  0  0  0  0  0  0  0  0
  -29.4550  -18.3910   18.1930 C   0  0  0  0  0  2  0  0  0  0  0  0
  -29.1270  -19.9560   18.1930 C   0  0  0  0  0  3  0  0  0  0  0  0
  -30.1360  -17.9410   19.5190 C   0  0  0  0  0  3  0  0  0  0  0  0
  -30.5520  -18.4010   22.6190 C   0  0  0  0  0  1  0  0  0  0  0  0
  -29.7980  -20.7030   22.3210 N   0  0  0  0  0  0  0  0  0  0  0  0
  -30.7130  -15.2250   19.7390 C   0  0  0  0  0  0  0  0  0  0  0  0
  -30.6130  -12.8220   18.9200 C   0  0  0  0  0  2  0  0  0  0  0  0
  -29.5870  -12.6790   17.7700 C   0  0  0  0  0  2  0  0  0  0  0  0
  -28.1770  -12.4270   18.3300 C   0  0  0  0  0  2  0  0  0  0  0  0
  -27.8260  -13.3830   19.4990 C   0  0  0  0  0  3  0  0  0  0  0  0
  -28.9700  -13.4970   20.5320 C   0  0  0  0  0  2  0  0  0  0  0  0
  -30.1640  -13.9410   19.8020 N   0  0  0  0  0  0  0  0  0  0  0  0
  -31.8830  -15.3040   19.3480 O   0  0  0  0  0  0  0  0  0  0  0  0
  -29.9170  -16.4050   19.9030 N   0  0  0  0  0  0  0  0  0  0  0  0
  -28.9780  -16.1980   20.2110 H   0  0  0  0  0  0  0  0  0  0  0  0
  -25.5490  -13.9060   20.5390 C   0  0  0  0  0  0  0  0  0  0  0  0
  -24.5230  -13.1080   20.9610 C   0  0  0  0  0  0  0  0  0  0  0  0
  -24.9660  -11.7620   20.7740 C   0  0  0  0  0  0  0  0  0  0  0  0
  -26.5500  -13.0490   20.1180 N   0  0  0  0  0  0  0  0  0  0  0  0
  -26.2160  -11.7480   20.3240 N   0  0  0  0  0  0  0  0  0  0  0  0
  -24.2470  -10.4920   20.9420 C   0  0  0  0  0  0  0  0  0  0  0  0
  -24.6560   -9.5320   21.8940 C   0  0  0  0  0  3  0  0  0  0  0  0
  -23.9360   -8.3280   22.0510 C   0  0  0  0  0  3  0  0  0  0  0  0
  -22.7930   -8.0740   21.2560 C   0  0  0  0  0  0  0  0  0  0  0  0
  -22.4050   -9.0230   20.2930 C   0  0  0  0  0  3  0  0  0  0  0  0
  -23.1250  -10.2180   20.1350 C   0  0  0  0  0  3  0  0  0  0  0  0
  -22.0490   -6.9210   21.3200 O   0  0  0  0  0  0  0  0  0  0  0  0
  -21.7930   -6.2960   22.5140 C   0  0  0  0  0  0  0  0  0  0  0  0
  -21.0940   -6.9410   23.5580 C   0  0  0  0  0  3  0  0  0  0  0  0
  -20.7900   -6.2390   24.7410 C   0  0  0  0  0  3  0  0  0  0  0  0
  -21.1770   -4.8920   24.8800 C   0  0  0  0  0  0  0  0  0  0  0  0
  -21.8670   -4.2460   23.8390 C   0  0  0  0  0  3  0  0  0  0  0  0
  -22.1720   -4.9470   22.6580 C   0  0  0  0  0  0  0  0  0  0  0  0
  -22.8190   -4.3140   21.6500 F   0  0  0  0  0  0  0  0  0  0  0  0
  -20.8790   -4.2140   26.0120 F   0  0  0  0  0  0  0  0  0  0  0  0
  -23.1690  -13.5680   21.4160 C   0  0  0  0  0  0  0  0  0  0  0  0
  -22.5370  -12.8190   22.3120 N   0  0  0  0  0  0  0  0  0  0  0  0
  -22.6860  -14.6270   21.0160 O   0  0  0  0  0  0  0  0  0  0  0  0
  -22.9410  -11.9580   22.6510 H   0  0  0  0  0  0  0  0  0  0  0  0
  -21.6370  -13.1130   22.6650 H   0  0  0  0  0  0  0  0  0  0  0  0
  -25.7050  -15.2850   20.4490 N   0  0  0  0  0  0  0  0  0  0  0  0
  -24.9520  -15.9230   20.6810 H   0  0  0  0  0  0  0  0  0  0  0  0
  -26.4970  -15.7520   20.0260 H   0  0  0  0  0  0  0  0  0  0  0  0
  -27.3810  -19.6440   16.3080 C   0  0  0  0  0  1  0  0  0  0  0  0
  -27.6870  -20.2170   17.7030 C   0  0  0  0  0  2  0  0  0  0  0  0
  -28.9010  -23.3600   19.5610 C   0  0  0  0  0  2  0  0  0  0  0  0
  -28.1890  -24.7390   20.3080 C   0  0  0  0  0  2  0  0  0  0  0  0
  -28.3650  -26.2860   20.0240 O   0  0  0  0  0  0  0  0  0  0  0  0
  -24.6260  -31.8850   23.2020 C   0  0  0  0  0  0  0  0  0  0  0  0
  -27.2800  -27.2540   20.0580 C   0  0  0  0  0  0  0  0  0  0  0  0
  -23.4420  -30.4850   21.5570 C   0  0  0  0  0  3  0  0  0  0  0  0
  -24.9110  -28.9680   20.0880 C   0  0  0  0  0  0  0  0  0  0  0  0
  -25.9910  -30.8100   21.3670 C   0  0  0  0  0  2  0  0  0  0  0  0
  -26.0910  -29.4280   20.6870 C   0  0  0  0  0  0  0  0  0  0  0  0
  -27.2740  -28.5910   20.6470 C   0  0  0  0  0  3  0  0  0  0  0  0
  -26.0680  -26.9050   19.4270 C   0  0  0  0  0  3  0  0  0  0  0  0
  -24.9150  -27.7220   19.4430 C   0  0  0  0  0  3  0  0  0  0  0  0
  -23.6620  -29.8360   20.1650 C   0  0  0  0  0  2  0  0  0  0  0  0
  -24.7070  -31.0830   22.0950 N   0  0  0  0  0  0  0  0  0  0  0  0
  -23.5400  -32.1340   23.7460 O   0  0  0  0  0  0  0  0  0  0  0  0
  -22.8060  -29.4470   22.5130 C   0  0  0  0  0  0  0  0  0  0  0  0
  -21.4920  -29.1970   22.3600 N   0  0  0  0  0  0  0  0  0  0  0  0
  -23.4950  -28.8670   23.3560 O   0  0  0  0  0  0  0  0  0  0  0  0
  -20.9920  -29.7120   21.6500 H   0  0  0  0  0  0  0  0  0  0  0  0
  -18.1890  -27.7590   22.7530 C   0  0  0  0  0  0  0  0  0  0  0  0
  -20.7090  -28.2190   23.1220 C   0  0  0  0  0  3  0  0  0  0  0  0
  -20.9440  -26.7870   22.5850 C   0  0  0  0  0  2  0  0  0  0  0  0
  -19.9120  -26.3610   21.5360 C   0  0  0  0  0  2  0  0  0  0  0  0
  -18.4950  -26.4140   22.1170 C   0  0  0  0  0  2  0  0  0  0  0  0
  -19.2290  -28.6120   23.2110 C   0  0  0  0  0  0  0  0  0  0  0  0
  -18.8890  -29.8660   23.7650 C   0  0  0  0  0  3  0  0  0  0  0  0
  -17.5440  -30.2640   23.8730 C   0  0  0  0  0  3  0  0  0  0  0  0
  -16.5180  -29.4070   23.4350 C   0  0  0  0  0  3  0  0  0  0  0  0
  -16.8440  -28.1580   22.8760 C   0  0  0  0  0  3  0  0  0  0  0  0
  -25.8940  -32.5470   23.8230 C   0  0  0  0  0  3  0  0  0  0  0  0
  -26.4190  -31.7900   25.1070 C   0  0  1  0  0  0  0  0  0  0  0  0
  -25.3220  -31.5190   26.1630 C   0  0  0  0  0  1  0  0  0  0  0  0
  -27.0490  -30.4300   24.7260 C   0  0  0  0  0  1  0  0  0  0  0  0
  -27.5370  -32.6200   25.7770 C   0  0  0  0  0  1  0  0  0  0  0  0
  -25.5570  -33.9390   24.1560 N   0  0  0  0  0  0  0  0  0  0  0  0
  -25.8750  -35.0030   23.4090 C   0  0  0  0  0  0  0  0  0  0  0  0
  -26.5490  -34.9180   22.3790 O   0  0  0  0  0  0  0  0  0  0  0  0
  -24.9570  -34.0800   24.9550 H   0  0  0  0  0  0  0  0  0  0  0  0
  -24.1190  -36.7720   23.0660 C   0  0  0  0  0  1  0  0  0  0  0  0
  -25.3640  -36.3820   23.8750 C   0  0  0  0  0  3  0  0  0  0  0  0
  -27.4820  -37.2970   24.7140 C   0  0  0  0  0  1  0  0  0  0  0  0
  -26.3780  -37.4550   23.7720 N   0  0  0  0  0  0  0  0  0  0  0  0
  -25.9550  -38.3640   23.9320 H   0  0  0  0  0  0  0  0  0  0  0  0
  1 10  1  0
  2  4  1  0
  2  3  2  0
  3  5  1  0
  4  1  2  0
  5 10  2  0
  5  9  1  0
  6  7  1  0
  6  8  1  0
  7 50  1  0
  7  2  1  0
  8 19  1  0
  8  3  1  0
 11 17  1  0
 11 19  1  0
 12 17  1  0
 13 14  1  0
 13 12  1  0
 15 14  1  0
 15 24  1  0
 15 16  1  0
 17 16  1  0
 18 11  2  0
 19 20  1  0
 21 22  2  0
 22 41  1  0
 23 26  1  0
 23 22  1  0
 24 25  1  0
 24 21  1  0
 25 23  2  0
 26 27  1  0
 27 28  2  0
 29 32  1  0
 29 28  1  0
 30 29  2  0
 31 30  1  0
 31 26  2  0
 32 33  1  0
 33 38  2  0
 33 34  1  0
 34 35  2  0
 35 36  1  0
 36 40  1  0
 37 36  2  0
 38 37  1  0
 39 38  1  0
 41 42  1  0
 42 44  1  0
 42 45  1  0
 43 41  2  0
 46 21  1  0
 46 47  1  0
 48 46  1  0
 49 50  1  0
 51  4  1  0
 51 52  1  0
 53 55  1  0
 53 52  1  0
 54 65  2  0
 55 60  1  0
 56 64  1  0
 56 66  1  0
 57 63  1  0
 57 59  1  0
 58 64  1  0
 59 58  1  0
 60 59  2  0
 61 62  1  0
 61 55  2  0
 62 57  2  0
 63 56  1  0
 64 54  1  0
 66 68  2  0
 67 66  1  0
 69 67  1  0
 70 79  2  0
 70 75  1  0
 71 67  1  0
 71 75  1  0
 72 71  1  0
 73 74  1  0
 73 72  1  0
 74 70  1  0
 75 76  2  0
 76 77  1  0
 78 77  2  0
 79 78  1  0
 80 54  1  0
 80 85  1  0
 80 81  1  0
 81 84  1  1
 81 82  1  0
 83 81  1  0
 85 88  1  0
 86 90  1  0
 86 85  1  0
 87 86  2  0
 90 89  1  0
 92 90  1  0
 92 93  1  0
 92 91  1  0
M  ISO  4  11 100  19 100  52 101  53 101
M  END
>  <TORSDO>  (8) 
F 19

>  <SCORE>  (8) 
-13.551

>  <name>  (8) 
7

>  <ligand_id>  (8) 
7

>  <original_smiles>  (8) 
[H]c1nc(C([H])([H])[H])c2c(c1C([H])([H])C([H])([H])Oc1c([H])c([H])c3c(c1[H])C([H])([H])N(C(=O)C([H])(N([H])C(=O)C([H])(N([H])C([H])([H])[H])C([H])([H])[H])C(C([H])([H])[H])(C([H])([H])[H])C([H])([H])[H])C([H])(C(=O)N([H])C1([H])c4c([H])c([H])c([H])c([H])c4C([H])([H])C([H])([H])C1([H])[H])C3([H])[H])C([H])(C([H])([H])C([H])([H])[H])C([H])([H])C2([H])N([H])C(=O)N1C([H])([H])C([H])([H])C([H])([H])C([H])(n2nc(-c3c([H])c([H])c(Oc4c([H])c([H])c(F)c([H])c4F)c([H])c3[H])c(C(=O)N([H])[H])c2N([H])[H])C1([H])[H]

>  <smiles>  (8) 
[H]c1nc(C([H])([H])[H])c2c(c1C([H])([H])C([H])([H])Oc1c([H])c([H])c3c(c1[H])C([H])([H])N(C(=O)C([H])(N([H])C(=O)C([H])(N([H])C([H])([H])[H])C([H])([H])[H])C(C([H])([H])[H])(C([H])([H])[H])C([H])([H])[H])C([H])(C(=O)N([H])C1([H])c4c([H])c([H])c([H])c([H])c4C([H])([H])C([H])([H])C1([H])[H])C3([H])[H])C([H])(C([H])([H])C([H])([H])[H])C([H])([H])C2([H])N([H])C(=O)N1C([H])([H])C([H])([H])C([H])([H])C([H])(n2nc(-c3c([H])c([H])c(Oc4c([H])c([H])c(F)c([H])c4F)c([H])c3[H])c(C(=O)N([H])[H])c2N([H])[H])C1([H])[H]

$$$$
8:0:0
     RDKit          3D

 96104  0  0  1  0  0  0  0  0999 V2000
  -28.1880  -20.2530   18.9070 C   0  0  0  0  0  3  0  0  0  0  0  0
  -28.0230  -21.6540   18.8360 C   0  0  0  0  0  0  0  0  0  0  0  0
  -28.8110  -22.4820   19.6980 C   0  0  0  0  0  0  0  0  0  0  0  0
  -29.6540  -21.7980   20.6210 C   0  0  0  0  0  0  0  0  0  0  0  0
  -29.0600  -19.6900   19.8510 C   0  0  0  0  0  0  0  0  0  0  0  0
  -26.9570  -22.1490   17.8680 C   0  0  0  0  0  1  0  0  0  0  0  0
  -30.4680  -22.5320   21.6720 C   0  0  0  0  0  1  0  0  0  0  0  0
  -29.7800  -20.4570   20.6820 N   0  0  0  0  0  0  0  0  0  0  0  0
  -29.1890  -18.2970   19.9530 N   0  0  0  0  0  0  0  0  0  0  0  0
  -28.6350  -17.7250   19.3240 H   0  0  0  0  0  0  0  0  0  0  0  0
  -28.8030  -23.8980   19.7550 N   0  0  0  0  0  0  0  0  0  0  0  0
  -29.1980  -24.3140   20.5940 H   0  0  0  0  0  0  0  0  0  0  0  0
  -29.7330  -24.4410   17.4910 C   0  0  0  0  0  1  0  0  0  0  0  0
  -28.7630  -24.8360   18.6250 C   0  0  0  0  0  3  0  0  0  0  0  0
  -29.1040  -26.2750   19.0970 C   0  0  0  0  0  2  0  0  0  0  0  0
  -28.4740  -26.6830   20.3090 O   0  0  0  0  0  0  0  0  0  0  0  0
  -24.6390  -31.8760   23.2250 C   0  0  0  0  0  0  0  0  0  0  0  0
  -27.3060  -27.4040   20.2320 C   0  0  0  0  0  0  0  0  0  0  0  0
  -23.4380  -30.4510   21.5980 C   0  0  0  0  0  3  0  0  0  0  0  0
  -24.9030  -28.8940   20.1980 C   0  0  0  0  0  0  0  0  0  0  0  0
  -25.9580  -30.8160   21.3990 C   0  0  0  0  0  2  0  0  0  0  0  0
  -26.0520  -29.4310   20.7920 C   0  0  0  0  0  0  0  0  0  0  0  0
  -27.2500  -28.6850   20.8230 C   0  0  0  0  0  3  0  0  0  0  0  0
  -26.1370  -26.8660   19.6510 C   0  0  0  0  0  3  0  0  0  0  0  0
  -24.9370  -27.6050   19.6360 C   0  0  0  0  0  3  0  0  0  0  0  0
  -23.6570  -29.7550   20.2270 C   0  0  0  0  0  2  0  0  0  0  0  0
  -24.6960  -31.0600   22.1350 N   0  0  0  0  0  0  0  0  0  0  0  0
  -23.5560  -32.1540   23.7600 O   0  0  0  0  0  0  0  0  0  0  0  0
  -22.7860  -29.4410   22.5690 C   0  0  0  0  0  0  0  0  0  0  0  0
  -21.4610  -29.2610   22.4420 N   0  0  0  0  0  0  0  0  0  0  0  0
  -23.4670  -28.8220   23.3910 O   0  0  0  0  0  0  0  0  0  0  0  0
  -20.9700  -29.8090   21.7490 H   0  0  0  0  0  0  0  0  0  0  0  0
  -18.0810  -28.1030   22.9560 C   0  0  0  0  0  0  0  0  0  0  0  0
  -20.6400  -28.3380   23.2250 C   0  0  0  0  0  3  0  0  0  0  0  0
  -20.7300  -26.9010   22.6620 C   0  0  0  0  0  2  0  0  0  0  0  0
  -19.6260  -26.5800   21.6510 C   0  0  0  0  0  2  0  0  0  0  0  0
  -18.2460  -26.7450   22.2920 C   0  0  0  0  0  2  0  0  0  0  0  0
  -19.2060  -28.8570   23.3790 C   0  0  0  0  0  0  0  0  0  0  0  0
  -19.0020  -30.1270   23.9580 C   0  0  0  0  0  3  0  0  0  0  0  0
  -17.7020  -30.6440   24.1220 C   0  0  0  0  0  3  0  0  0  0  0  0
  -16.5910  -29.8850   23.7160 C   0  0  0  0  0  3  0  0  0  0  0  0
  -16.7800  -28.6180   23.1380 C   0  0  0  0  0  3  0  0  0  0  0  0
  -25.9240  -32.5160   23.8390 C   0  0  0  0  0  3  0  0  0  0  0  0
  -25.6040  -33.9110   24.1670 N   0  0  0  0  0  0  0  0  0  0  0  0
  -25.9330  -34.9640   23.4080 C   0  0  0  0  0  0  0  0  0  0  0  0
  -26.6090  -34.8650   22.3790 O   0  0  0  0  0  0  0  0  0  0  0  0
  -25.0110  -34.0660   24.9690 H   0  0  0  0  0  0  0  0  0  0  0  0
  -24.2060  -36.7530   23.0330 C   0  0  0  0  0  1  0  0  0  0  0  0
  -25.4350  -36.3500   23.8610 C   0  0  0  0  0  3  0  0  0  0  0  0
  -27.5560  -37.2400   24.7250 C   0  0  0  0  0  1  0  0  0  0  0  0
  -26.4650  -37.4070   23.7670 N   0  0  0  0  0  0  0  0  0  0  0  0
  -26.0530  -38.3230   23.9150 H   0  0  0  0  0  0  0  0  0  0  0  0
  -26.4550  -31.7480   25.1090 C   0  0  1  0  0  0  0  0  0  0  0  0
  -25.3720  -31.5040   26.1840 C   0  0  0  0  0  1  0  0  0  0  0  0
  -27.0420  -30.3750   24.7060 C   0  0  0  0  0  1  0  0  0  0  0  0
  -27.6020  -32.5510   25.7680 C   0  0  0  0  0  1  0  0  0  0  0  0
  -29.5760  -17.6740   21.2240 C   0  0  0  0  0  2  0  0  0  0  0  0
  -30.7480  -16.6880   21.0650 C   0  0  0  0  0  2  0  0  0  0  0  0
  -30.8430  -14.3460   20.2040 C   0  0  0  0  0  0  0  0  0  0  0  0
  -30.4280  -12.2500   18.9860 C   0  0  0  0  0  2  0  0  0  0  0  0
  -29.4440  -12.5070   17.8290 C   0  0  0  0  0  2  0  0  0  0  0  0
  -27.9850  -12.3880   18.3160 C   0  0  0  0  0  2  0  0  0  0  0  0
  -27.7150  -13.2030   19.6070 C   0  0  0  0  0  3  0  0  0  0  0  0
  -28.8030  -12.9270   20.6680 C   0  0  0  0  0  2  0  0  0  0  0  0
  -30.1190  -13.2040   20.0630 N   0  0  0  0  0  0  0  0  0  0  0  0
  -31.9100  -14.5440   19.6190 O   0  0  0  0  0  0  0  0  0  0  0  0
  -30.2690  -15.3070   20.9500 N   0  0  0  0  0  0  0  0  0  0  0  0
  -29.4000  -15.0780   21.4060 H   0  0  0  0  0  0  0  0  0  0  0  0
  -25.3420  -13.8370   20.3980 C   0  0  0  0  0  0  0  0  0  0  0  0
  -24.2750  -13.0810   20.8030 C   0  0  0  0  0  0  0  0  0  0  0  0
  -24.7140  -11.7250   20.7460 C   0  0  0  0  0  0  0  0  0  0  0  0
  -26.3690  -12.9440   20.1240 N   0  0  0  0  0  0  0  0  0  0  0  0
  -25.9930  -11.6670   20.3910 N   0  0  0  0  0  0  0  0  0  0  0  0
  -23.9800  -10.4690   20.9540 C   0  0  0  0  0  0  0  0  0  0  0  0
  -24.4210   -9.5010   21.8860 C   0  0  0  0  0  3  0  0  0  0  0  0
  -23.6850   -8.3120   22.0810 C   0  0  0  0  0  3  0  0  0  0  0  0
  -22.4980   -8.0830   21.3490 C   0  0  0  0  0  0  0  0  0  0  0  0
  -22.0780   -9.0390   20.4090 C   0  0  0  0  0  3  0  0  0  0  0  0
  -22.8130  -10.2180   20.2080 C   0  0  0  0  0  3  0  0  0  0  0  0
  -21.7360   -6.9420   21.4520 O   0  0  0  0  0  0  0  0  0  0  0  0
  -21.6830   -6.2140   22.6130 C   0  0  0  0  0  0  0  0  0  0  0  0
  -21.2510   -6.7850   23.8300 C   0  0  0  0  0  3  0  0  0  0  0  0
  -21.1370   -5.9820   24.9860 C   0  0  0  0  0  3  0  0  0  0  0  0
  -21.4520   -4.6100   24.9230 C   0  0  0  0  0  0  0  0  0  0  0  0
  -21.8860   -4.0410   23.7130 C   0  0  0  0  0  3  0  0  0  0  0  0
  -21.9950   -4.8410   22.5600 C   0  0  0  0  0  0  0  0  0  0  0  0
  -22.3860   -4.2830   21.3900 F   0  0  0  0  0  0  0  0  0  0  0  0
  -21.3470   -3.8370   26.0290 F   0  0  0  0  0  0  0  0  0  0  0  0
  -22.8930  -13.5760   21.1330 C   0  0  0  0  0  0  0  0  0  0  0  0
  -22.1840  -12.8850   22.0190 N   0  0  0  0  0  0  0  0  0  0  0  0
  -22.4540  -14.6120   20.6360 O   0  0  0  0  0  0  0  0  0  0  0  0
  -22.5600  -12.0610   22.4580 H   0  0  0  0  0  0  0  0  0  0  0  0
  -21.2580  -13.1980   22.2750 H   0  0  0  0  0  0  0  0  0  0  0  0
  -25.5210  -15.2060   20.2270 N   0  0  0  0  0  0  0  0  0  0  0  0
  -24.7600  -15.8660   20.3590 H   0  0  0  0  0  0  0  0  0  0  0  0
  -26.3670  -15.6390   19.8730 H   0  0  0  0  0  0  0  0  0  0  0  0
  1  5  1  0
  2  1  2  0
  2  3  1  0
  3 11  1  0
  3  4  2  0
  4  8  1  0
  4  7  1  0
  5  9  1  0
  5  8  2  0
  6  2  1  0
  9 57  1  0
 10  9  1  0
 11 12  1  0
 14 13  1  0
 14 15  1  0
 14 11  1  0
 15 16  1  0
 17 28  2  0
 18 16  1  0
 18 23  1  0
 19 27  1  0
 19 29  1  0
 20 26  1  0
 20 22  1  0
 21 27  1  0
 22 23  2  0
 22 21  1  0
 24 18  2  0
 25 24  1  0
 25 20  2  0
 26 19  1  0
 27 17  1  0
 29 31  2  0
 30 29  1  0
 32 30  1  0
 33 42  2  0
 33 38  1  0
 34 30  1  0
 34 38  1  0
 35 34  1  0
 36 37  1  0
 36 35  1  0
 37 33  1  0
 38 39  2  0
 39 40  1  0
 41 40  2  0
 42 41  1  0
 43 17  1  0
 43 44  1  0
 43 53  1  0
 44 47  1  0
 45 49  1  0
 45 44  1  0
 46 45  2  0
 49 48  1  0
 51 49  1  0
 51 52  1  0
 51 50  1  0
 53 56  1  1
 53 54  1  0
 55 53  1  0
 58 57  1  0
 59 67  1  0
 60 65  1  0
 61 62  1  0
 61 60  1  0
 63 62  1  0
 63 72  1  0
 63 64  1  0
 65 59  1  0
 65 64  1  0
 66 59  2  0
 67 58  1  0
 67 68  1  0
 69 70  2  0
 70 89  1  0
 71 70  1  0
 71 74  1  0
 72 73  1  0
 72 69  1  0
 73 71  2  0
 74 75  1  0
 75 76  2  0
 77 80  1  0
 77 76  1  0
 78 77  2  0
 79 78  1  0
 79 74  2  0
 80 81  1  0
 81 82  1  0
 82 83  2  0
 84 83  1  0
 84 88  1  0
 85 84  2  0
 86 81  2  0
 86 85  1  0
 87 86  1  0
 89 90  1  0
 90 93  1  0
 90 92  1  0
 91 89  2  0
 94 95  1  0
 94 69  1  0
 96 94  1  0
M  ISO  4  15 101  16 101  59 100  67 100
M  END
>  <TORSDO>  (9) 
F 21

>  <SCORE>  (9) 
-13.585

>  <name>  (9) 
8

>  <ligand_id>  (9) 
8

>  <original_smiles>  (9) 
[H]c1c([H])c([H])c2c(c1[H])C([H])([H])C([H])([H])C([H])([H])C2([H])N([H])C(=O)C1([H])N(C(=O)C([H])(N([H])C(=O)C([H])(N([H])C([H])([H])[H])C([H])([H])[H])C(C([H])([H])[H])(C([H])([H])[H])C([H])([H])[H])C([H])([H])c2c([H])c(OC([H])([H])C([H])(N([H])c3c(C([H])([H])[H])nc(N([H])C([H])([H])C([H])([H])N([H])C(=O)N4C([H])([H])C([H])([H])C([H])([H])C([H])(n5nc(-c6c([H])c([H])c(Oc7c([H])c([H])c(F)c([H])c7F)c([H])c6[H])c(C(=O)N([H])[H])c5N([H])[H])C4([H])[H])c([H])c3C([H])([H])[H])C([H])([H])[H])c([H])c([H])c2C1([H])[H]

>  <smiles>  (9) 
[H]c1c([H])c([H])c2c(c1[H])C([H])([H])C([H])([H])C([H])([H])C2([H])N([H])C(=O)C1([H])N(C(=O)C([H])(N([H])C(=O)C([H])(N([H])C([H])([H])[H])C([H])([H])[H])C(C([H])([H])[H])(C([H])([H])[H])C([H])([H])[H])C([H])([H])c2c([H])c(OC([H])([H])C([H])(N([H])c3c(C([H])([H])[H])nc(N([H])C([H])([H])C([H])([H])N([H])C(=O)N4C([H])([H])C([H])([H])C([H])([H])C([H])(n5nc(-c6c([H])c([H])c(Oc7c([H])c([H])c(F)c([H])c7F)c([H])c6[H])c(C(=O)N([H])[H])c5N([H])[H])C4([H])[H])c([H])c3C([H])([H])[H])C([H])([H])[H])c([H])c([H])c2C1([H])[H]

$$$$
9:0:0
     RDKit          3D

 99108  0  0  1  0  0  0  0  0999 V2000
  -29.9990  -20.1310   20.4050 C   0  0  0  0  0  3  0  0  0  0  0  0
  -28.8230  -18.8360   19.0290 C   0  0  0  0  0  3  0  0  0  0  0  0
  -29.8940  -18.8030   19.8740 C   0  0  0  0  0  0  0  0  0  0  0  0
  -29.0410  -20.9370   19.8310 C   0  0  0  0  0  0  0  0  0  0  0  0
  -28.2940  -20.1150   18.9860 N   0  0  0  0  0  0  0  0  0  0  0  0
  -29.1880  -23.2530   18.7500 C   0  0  0  0  0  2  0  0  0  0  0  0
  -29.3290  -23.0910   21.2500 C   0  0  0  0  0  2  0  0  0  0  0  0
  -28.6340  -24.7010   18.7710 C   0  0  0  0  0  2  0  0  0  0  0  0
  -29.3720  -24.6450   21.1870 C   0  0  0  0  0  2  0  0  0  0  0  0
  -28.7480  -22.4240   19.9770 C   0  0  0  0  0  3  0  0  0  0  0  0
  -28.3510  -25.2390   20.1960 C   0  0  0  0  0  3  0  0  0  0  0  0
  -28.4090  -26.6780   20.2320 O   0  0  0  0  0  0  0  0  0  0  0  0
  -24.5740  -31.8870   23.2130 C   0  0  0  0  0  0  0  0  0  0  0  0
  -27.2280  -27.3980   20.1930 C   0  0  0  0  0  0  0  0  0  0  0  0
  -23.3770  -30.4750   21.5740 C   0  0  0  0  0  3  0  0  0  0  0  0
  -24.8350  -28.9220   20.1730 C   0  0  0  0  0  0  0  0  0  0  0  0
  -25.9060  -30.8240   21.3920 C   0  0  0  0  0  2  0  0  0  0  0  0
  -25.9920  -29.4460   20.7630 C   0  0  0  0  0  0  0  0  0  0  0  0
  -27.1890  -28.6930   20.7650 C   0  0  0  0  0  3  0  0  0  0  0  0
  -26.0480  -26.8940   19.5970 C   0  0  0  0  0  3  0  0  0  0  0  0
  -24.8590  -27.6450   19.5880 C   0  0  0  0  0  3  0  0  0  0  0  0
  -23.5940  -29.7850   20.2030 C   0  0  0  0  0  2  0  0  0  0  0  0
  -24.6370  -31.0780   22.1180 N   0  0  0  0  0  0  0  0  0  0  0  0
  -23.4910  -32.1670   23.7420 O   0  0  0  0  0  0  0  0  0  0  0  0
  -22.7140  -29.4640   22.5380 C   0  0  0  0  0  0  0  0  0  0  0  0
  -21.3940  -29.2680   22.3860 N   0  0  0  0  0  0  0  0  0  0  0  0
  -23.3850  -28.8590   23.3770 O   0  0  0  0  0  0  0  0  0  0  0  0
  -20.9140  -29.8090   21.6800 H   0  0  0  0  0  0  0  0  0  0  0  0
  -18.0220  -28.0470   22.8250 C   0  0  0  0  0  0  0  0  0  0  0  0
  -20.5690  -28.3380   23.1550 C   0  0  0  0  0  3  0  0  0  0  0  0
  -20.7010  -26.8970   22.6090 C   0  0  0  0  0  2  0  0  0  0  0  0
  -19.6270  -26.5430   21.5750 C   0  0  0  0  0  2  0  0  0  0  0  0
  -18.2290  -26.6870   22.1820 C   0  0  0  0  0  2  0  0  0  0  0  0
  -19.1220  -28.8290   23.2670 C   0  0  0  0  0  0  0  0  0  0  0  0
  -18.8760  -30.1020   23.8270 C   0  0  0  0  0  3  0  0  0  0  0  0
  -17.5630  -30.5940   23.9500 C   0  0  0  0  0  3  0  0  0  0  0  0
  -16.4770  -29.8090   23.5250 C   0  0  0  0  0  3  0  0  0  0  0  0
  -16.7070  -28.5380   22.9680 C   0  0  0  0  0  3  0  0  0  0  0  0
  -25.8580  -32.5200   23.8370 C   0  0  0  0  0  3  0  0  0  0  0  0
  -25.5460  -33.9160   24.1670 N   0  0  0  0  0  0  0  0  0  0  0  0
  -25.8840  -34.9690   23.4120 C   0  0  0  0  0  0  0  0  0  0  0  0
  -26.5600  -34.8670   22.3850 O   0  0  0  0  0  0  0  0  0  0  0  0
  -24.9450  -34.0690   24.9640 H   0  0  0  0  0  0  0  0  0  0  0  0
  -24.1680  -36.7700   23.0320 C   0  0  0  0  0  1  0  0  0  0  0  0
  -25.3900  -36.3570   23.8670 C   0  0  0  0  0  3  0  0  0  0  0  0
  -27.5060  -37.2340   24.7520 C   0  0  0  0  0  1  0  0  0  0  0  0
  -26.4290  -37.4060   23.7820 N   0  0  0  0  0  0  0  0  0  0  0  0
  -26.0220  -38.3280   23.9190 H   0  0  0  0  0  0  0  0  0  0  0  0
  -26.3740  -31.7460   25.1120 C   0  0  1  0  0  0  0  0  0  0  0  0
  -25.2800  -31.4980   26.1760 C   0  0  0  0  0  1  0  0  0  0  0  0
  -26.9660  -30.3750   24.7150 C   0  0  0  0  0  1  0  0  0  0  0  0
  -27.5190  -32.5440   25.7800 C   0  0  0  0  0  1  0  0  0  0  0  0
  -25.8700  -19.7800   18.6540 C   0  0  0  0  0  1  0  0  0  0  0  0
  -27.4210  -20.1840   16.6770 C   0  0  0  0  0  1  0  0  0  0  0  0
  -27.1430  -20.4810   18.1580 C   0  0  0  0  0  3  0  0  0  0  0  0
  -30.7910  -17.5830   20.1080 C   0  0  0  0  0  3  0  0  0  0  0  0
  -32.6770  -18.4860   18.7430 C   0  0  0  0  0  1  0  0  0  0  0  0
  -32.2140  -17.9750   20.0490 N   0  0  0  0  0  4  0  0  0  0  0  0
  -32.3990  -18.6640   20.7600 H   0  0  0  0  0  0  0  0  0  0  0  0
  -32.7560  -17.1520   20.2650 H   0  0  0  0  0  0  0  0  0  0  0  0
  -30.4830  -16.8090   21.4260 C   0  0  0  0  0  2  0  0  0  0  0  0
  -30.7190  -14.4460   20.6060 C   0  0  0  0  0  0  0  0  0  0  0  0
  -30.4320  -12.3380   19.3620 C   0  0  0  0  0  2  0  0  0  0  0  0
  -29.5050  -12.5780   18.1510 C   0  0  0  0  0  2  0  0  0  0  0  0
  -28.0240  -12.4360   18.5560 C   0  0  0  0  0  2  0  0  0  0  0  0
  -27.6730  -13.2400   19.8360 C   0  0  0  0  0  3  0  0  0  0  0  0
  -28.7070  -12.9680   20.9520 C   0  0  0  0  0  2  0  0  0  0  0  0
  -30.0440  -13.2830   20.4180 N   0  0  0  0  0  0  0  0  0  0  0  0
  -31.8390  -14.6720   20.1370 O   0  0  0  0  0  0  0  0  0  0  0  0
  -30.0280  -15.4230   21.2170 N   0  0  0  0  0  0  0  0  0  0  0  0
  -29.1040  -15.1880   21.5470 H   0  0  0  0  0  0  0  0  0  0  0  0
  -25.2540  -13.8460   20.4760 C   0  0  0  0  0  0  0  0  0  0  0  0
  -24.1800  -13.0730   20.8270 C   0  0  0  0  0  0  0  0  0  0  0  0
  -24.6470  -11.7230   20.8210 C   0  0  0  0  0  0  0  0  0  0  0  0
  -26.3080  -12.9660   20.2820 N   0  0  0  0  0  0  0  0  0  0  0  0
  -25.9440  -11.6860   20.5450 N   0  0  0  0  0  0  0  0  0  0  0  0
  -23.9220  -10.4590   21.0050 C   0  0  0  0  0  0  0  0  0  0  0  0
  -24.3270   -9.5100   21.9690 C   0  0  0  0  0  3  0  0  0  0  0  0
  -23.6030   -8.3100   22.1400 C   0  0  0  0  0  3  0  0  0  0  0  0
  -22.4600   -8.0520   21.3460 C   0  0  0  0  0  0  0  0  0  0  0  0
  -22.0750   -8.9900   20.3720 C   0  0  0  0  0  3  0  0  0  0  0  0
  -22.8000  -10.1810   20.2000 C   0  0  0  0  0  3  0  0  0  0  0  0
  -21.7110   -6.9020   21.4250 O   0  0  0  0  0  0  0  0  0  0  0  0
  -21.6100   -6.1870   22.5920 C   0  0  0  0  0  0  0  0  0  0  0  0
  -21.0880   -6.7580   23.7730 C   0  0  0  0  0  3  0  0  0  0  0  0
  -20.9380   -5.9670   24.9290 C   0  0  0  0  0  3  0  0  0  0  0  0
  -21.2990   -4.6060   24.9060 C   0  0  0  0  0  0  0  0  0  0  0  0
  -21.8130   -4.0350   23.7280 C   0  0  0  0  0  3  0  0  0  0  0  0
  -21.9650   -4.8230   22.5730 C   0  0  0  0  0  0  0  0  0  0  0  0
  -22.4410   -4.2630   21.4360 F   0  0  0  0  0  0  0  0  0  0  0  0
  -21.1470   -3.8450   26.0130 F   0  0  0  0  0  0  0  0  0  0  0  0
  -22.7750  -13.5460   21.0620 C   0  0  0  0  0  0  0  0  0  0  0  0
  -22.0270  -12.8510   21.9130 N   0  0  0  0  0  0  0  0  0  0  0  0
  -22.3460  -14.5680   20.5270 O   0  0  0  0  0  0  0  0  0  0  0  0
  -22.3860  -12.0250   22.3670 H   0  0  0  0  0  0  0  0  0  0  0  0
  -21.0830  -13.1500   22.1120 H   0  0  0  0  0  0  0  0  0  0  0  0
  -25.4190  -15.2150   20.2900 N   0  0  0  0  0  0  0  0  0  0  0  0
  -24.6480  -15.8680   20.3750 H   0  0  0  0  0  0  0  0  0  0  0  0
  -26.2750  -15.6540   19.9760 H   0  0  0  0  0  0  0  0  0  0  0  0
  2  3  2  0
  3 56  1  0
  3  1  1  0
  4  1  2  0
  5  2  1  0
  5  4  1  0
  6  8  1  0
  6 10  1  0
  8 11  1  0
  9  7  1  0
 10  4  1  0
 10  7  1  0
 11 12  1  0
 11  9  1  0
 13 24  2  0
 14 12  1  0
 14 19  1  0
 15 23  1  0
 15 25  1  0
 16 22  1  0
 16 18  1  0
 17 23  1  0
 18 19  2  0
 18 17  1  0
 20 14  2  0
 21 20  1  0
 21 16  2  0
 22 15  1  0
 23 13  1  0
 25 27  2  0
 26 25  1  0
 28 26  1  0
 29 38  2  0
 29 34  1  0
 30 26  1  0
 30 34  1  0
 31 30  1  0
 32 33  1  0
 32 31  1  0
 33 29  1  0
 34 35  2  0
 35 36  1  0
 37 36  2  0
 38 37  1  0
 39 13  1  0
 39 40  1  0
 39 49  1  0
 40 43  1  0
 41 45  1  0
 41 40  1  0
 42 41  2  0
 45 44  1  0
 47 45  1  0
 47 48  1  0
 47 46  1  0
 49 52  1  1
 49 50  1  0
 51 49  1  0
 54 55  1  0
 55 53  1  0
 55  5  1  0
 56 61  1  0
 57 58  1  0
 58 56  1  0
 58 60  1  0
 58 59  1  0
 62 70  1  0
 63 68  1  0
 64 65  1  0
 64 63  1  0
 66 65  1  0
 66 75  1  0
 66 67  1  0
 68 62  1  0
 68 67  1  0
 69 62  2  0
 70 61  1  0
 70 71  1  0
 72 73  2  0
 73 92  1  0
 74 73  1  0
 74 77  1  0
 75 72  1  0
 75 76  1  0
 76 74  2  0
 77 78  1  0
 78 79  2  0
 80 83  1  0
 80 79  1  0
 81 80  2  0
 82 81  1  0
 82 77  2  0
 83 84  1  0
 84 85  1  0
 85 86  2  0
 87 86  1  0
 87 91  1  0
 88 87  2  0
 89 84  2  0
 89 88  1  0
 90 89  1  0
 92 93  1  0
 93 96  1  0
 93 95  1  0
 94 92  2  0
 97 98  1  0
 97 72  1  0
 99 97  1  0
M  ISO  4  11 101  12 101  62 100  70 100
M  END
>  <TORSDO>  (10) 
F 21

>  <SCORE>  (10) 
-13.384

>  <name>  (10) 
9

>  <ligand_id>  (10) 
9

>  <original_smiles>  (10) 
[H]c1c([H])c([H])c2c(c1[H])C([H])([H])C([H])([H])C([H])([H])C2([H])N([H])C(=O)C1([H])N(C(=O)C([H])(N([H])C(=O)C([H])(N([H])C([H])([H])[H])C([H])([H])[H])C(C([H])([H])[H])(C([H])([H])[H])C([H])([H])[H])C([H])([H])c2c([H])c(OC3([H])C([H])([H])C([H])([H])C([H])(c4c([H])c(C([H])(C([H])([H])N([H])C(=O)N5C([H])([H])C([H])([H])C([H])([H])C([H])(n6nc(-c7c([H])c([H])c(Oc8c([H])c([H])c(F)c([H])c8F)c([H])c7[H])c(C(=O)N([H])[H])c6N([H])[H])C5([H])[H])[N+]([H])([H])C([H])([H])[H])c([H])n4C([H])(C([H])([H])[H])C([H])([H])[H])C([H])([H])C3([H])[H])c([H])c([H])c2C1([H])[H]

>  <smiles>  (10) 
[H]c1c([H])c([H])c2c(c1[H])C([H])([H])C([H])([H])C([H])([H])C2([H])N([H])C(=O)C1([H])N(C(=O)C([H])(N([H])C(=O)C([H])(N([H])C([H])([H])[H])C([H])([H])[H])C(C([H])([H])[H])(C([H])([H])[H])C([H])([H])[H])C([H])([H])c2c([H])c(OC3([H])C([H])([H])C([H])([H])C([H])(c4c([H])c(C([H])(C([H])([H])N([H])C(=O)N5C([H])([H])C([H])([H])C([H])([H])C([H])(n6nc(-c7c([H])c([H])c(Oc8c([H])c([H])c(F)c([H])c8F)c([H])c7[H])c(C(=O)N([H])[H])c6N([H])[H])C5([H])[H])[N+]([H])([H])C([H])([H])[H])c([H])n4C([H])(C([H])([H])[H])C([H])([H])[H])C([H])([H])C3([H])[H])c([H])c([H])c2C1([H])[H]

$$$$
10:0:0
     RDKit          3D

 96106  0  0  1  0  0  0  0  0999 V2000
  -31.8750  -24.2350   20.5270 C   0  0  0  0  0  3  0  0  0  0  0  0
  -30.6560  -24.9440   20.5880 C   0  0  0  0  0  3  0  0  0  0  0  0
  -29.4860  -23.0420   19.5650 C   0  0  0  0  0  3  0  0  0  0  0  0
  -31.8800  -22.9560   19.9410 C   0  0  0  0  0  0  0  0  0  0  0  0
  -30.7100  -22.3340   19.5120 C   0  0  0  0  0  0  0  0  0  0  0  0
  -29.4690  -24.3790   20.0620 C   0  0  0  0  0  0  0  0  0  0  0  0
  -33.0980  -22.1960   19.5020 C   0  0  0  0  0  2  0  0  0  0  0  0
  -32.5290  -21.2770   18.3980 C   0  0  0  0  0  2  0  0  0  0  0  0
  -31.0250  -21.0560   18.7200 C   0  0  0  0  0  3  0  0  0  0  0  0
  -30.0310  -18.0960   21.1190 C   0  0  0  0  0  2  0  0  0  0  0  0
  -30.9280  -17.2290   18.9440 C   0  0  0  0  0  2  0  0  0  0  0  0
  -29.9220  -19.5260   20.4860 C   0  0  0  0  0  2  0  0  0  0  0  0
  -30.7540  -18.6380   18.3490 C   0  0  0  0  0  2  0  0  0  0  0  0
  -29.8970  -16.9680   20.0630 C   0  0  0  0  0  3  0  0  0  0  0  0
  -30.9000  -19.7100   19.3760 N   0  0  1  0  0  4  0  0  0  0  0  0
  -31.8000  -19.5740   19.8110 H   0  0  0  0  0  0  0  0  0  0  0  0
  -30.6380  -14.5150   20.3580 C   0  0  0  0  0  0  0  0  0  0  0  0
  -30.3440  -12.3350   19.2620 C   0  0  0  0  0  2  0  0  0  0  0  0
  -29.3970  -12.5470   18.0610 C   0  0  0  0  0  2  0  0  0  0  0  0
  -27.9250  -12.4080   18.4990 C   0  0  0  0  0  2  0  0  0  0  0  0
  -27.5940  -13.2450   19.7660 C   0  0  0  0  0  3  0  0  0  0  0  0
  -28.6590  -13.0360   20.8670 C   0  0  0  0  0  2  0  0  0  0  0  0
  -29.9810  -13.3260   20.2870 N   0  0  0  0  0  0  0  0  0  0  0  0
  -31.8000  -14.6520   19.9690 O   0  0  0  0  0  0  0  0  0  0  0  0
  -29.8430  -15.5820   20.6060 N   0  0  0  0  0  0  0  0  0  0  0  0
  -28.9400  -15.3150   20.9710 H   0  0  0  0  0  0  0  0  0  0  0  0
  -25.2020  -13.8520   20.4940 C   0  0  0  0  0  0  0  0  0  0  0  0
  -24.1340  -13.0820   20.8670 C   0  0  0  0  0  0  0  0  0  0  0  0
  -24.5920  -11.7290   20.8270 C   0  0  0  0  0  0  0  0  0  0  0  0
  -26.2440  -12.9700   20.2530 N   0  0  0  0  0  0  0  0  0  0  0  0
  -25.8810  -11.6870   20.5120 N   0  0  0  0  0  0  0  0  0  0  0  0
  -23.8640  -10.4670   21.0170 C   0  0  0  0  0  0  0  0  0  0  0  0
  -24.2960   -9.4990   21.9500 C   0  0  0  0  0  3  0  0  0  0  0  0
  -23.5710   -8.3010   22.1270 C   0  0  0  0  0  3  0  0  0  0  0  0
  -22.3980   -8.0640   21.3700 C   0  0  0  0  0  0  0  0  0  0  0  0
  -21.9860   -9.0210   20.4270 C   0  0  0  0  0  3  0  0  0  0  0  0
  -22.7120  -10.2110   20.2490 C   0  0  0  0  0  3  0  0  0  0  0  0
  -21.6440   -6.9210   21.4580 O   0  0  0  0  0  0  0  0  0  0  0  0
  -21.5870   -6.1810   22.6120 C   0  0  0  0  0  0  0  0  0  0  0  0
  -21.1400   -6.7360   23.8310 C   0  0  0  0  0  3  0  0  0  0  0  0
  -21.0310   -5.9220   24.9760 C   0  0  0  0  0  3  0  0  0  0  0  0
  -21.3590   -4.5550   24.9040 C   0  0  0  0  0  0  0  0  0  0  0  0
  -21.7980   -4.0000   23.6890 C   0  0  0  0  0  3  0  0  0  0  0  0
  -21.9090   -4.8100   22.5460 C   0  0  0  0  0  0  0  0  0  0  0  0
  -22.3140   -4.2660   21.3730 F   0  0  0  0  0  0  0  0  0  0  0  0
  -21.2470   -3.7720   26.0020 F   0  0  0  0  0  0  0  0  0  0  0  0
  -22.7400  -13.5620   21.1490 C   0  0  0  0  0  0  0  0  0  0  0  0
  -22.0120  -12.8640   22.0150 N   0  0  0  0  0  0  0  0  0  0  0  0
  -22.3030  -14.5920   20.6380 O   0  0  0  0  0  0  0  0  0  0  0  0
  -22.3740  -12.0300   22.4520 H   0  0  0  0  0  0  0  0  0  0  0  0
  -21.0780  -13.1730   22.2450 H   0  0  0  0  0  0  0  0  0  0  0  0
  -25.3690  -15.2230   20.3220 N   0  0  0  0  0  0  0  0  0  0  0  0
  -24.6000  -15.8740   20.4430 H   0  0  0  0  0  0  0  0  0  0  0  0
  -26.2130  -15.6660   19.9830 H   0  0  0  0  0  0  0  0  0  0  0  0
  -28.1880  -25.2150   19.9660 C   0  0  0  0  0  2  0  0  0  0  0  0
  -28.3410  -26.6430   20.1510 O   0  0  0  0  0  0  0  0  0  0  0  0
  -24.5930  -31.8720   23.2700 C   0  0  0  0  0  0  0  0  0  0  0  0
  -27.1770  -27.4030   20.1410 C   0  0  0  0  0  0  0  0  0  0  0  0
  -23.3660  -30.4870   21.6350 C   0  0  0  0  0  3  0  0  0  0  0  0
  -24.7950  -28.9520   20.1850 C   0  0  0  0  0  0  0  0  0  0  0  0
  -25.8960  -30.8250   21.4160 C   0  0  0  0  0  2  0  0  0  0  0  0
  -25.9670  -29.4560   20.7650 C   0  0  0  0  0  0  0  0  0  0  0  0
  -27.1600  -28.6910   20.7350 C   0  0  0  0  0  3  0  0  0  0  0  0
  -25.9790  -26.9280   19.5540 C   0  0  0  0  0  3  0  0  0  0  0  0
  -24.7980  -27.6900   19.5760 C   0  0  0  0  0  3  0  0  0  0  0  0
  -23.5590  -29.8190   20.2490 C   0  0  0  0  0  2  0  0  0  0  0  0
  -24.6380  -31.0760   22.1650 N   0  0  0  0  0  0  0  0  0  0  0  0
  -23.5180  -32.1490   23.8190 O   0  0  0  0  0  0  0  0  0  0  0  0
  -22.7170  -29.4620   22.5930 C   0  0  0  0  0  0  0  0  0  0  0  0
  -21.3920  -29.2790   22.4690 N   0  0  0  0  0  0  0  0  0  0  0  0
  -23.4030  -28.8360   23.4060 O   0  0  0  0  0  0  0  0  0  0  0  0
  -20.9020  -29.8370   21.7830 H   0  0  0  0  0  0  0  0  0  0  0  0
  -18.0200  -28.0770   22.9650 C   0  0  0  0  0  0  0  0  0  0  0  0
  -20.5770  -28.3400   23.2380 C   0  0  0  0  0  3  0  0  0  0  0  0
  -20.6820  -26.9090   22.6620 C   0  0  0  0  0  2  0  0  0  0  0  0
  -19.5820  -26.5840   21.6480 C   0  0  0  0  0  2  0  0  0  0  0  0
  -18.1980  -26.7270   22.2910 C   0  0  0  0  0  2  0  0  0  0  0  0
  -19.1370  -28.8410   23.3950 C   0  0  0  0  0  0  0  0  0  0  0  0
  -18.9150  -30.1050   23.9840 C   0  0  0  0  0  3  0  0  0  0  0  0
  -17.6100  -30.6040   24.1470 C   0  0  0  0  0  3  0  0  0  0  0  0
  -16.5070  -29.8370   23.7340 C   0  0  0  0  0  3  0  0  0  0  0  0
  -16.7130  -28.5750   23.1480 C   0  0  0  0  0  3  0  0  0  0  0  0
  -25.8870  -32.4940   23.8810 C   0  0  0  0  0  3  0  0  0  0  0  0
  -25.5900  -33.8920   24.2220 N   0  0  0  0  0  0  0  0  0  0  0  0
  -25.9010  -34.9440   23.4510 C   0  0  0  0  0  0  0  0  0  0  0  0
  -26.5400  -34.8380   22.4020 O   0  0  0  0  0  0  0  0  0  0  0  0
  -25.0210  -34.0480   25.0400 H   0  0  0  0  0  0  0  0  0  0  0  0
  -24.1550  -36.7290   23.1530 C   0  0  0  0  0  1  0  0  0  0  0  0
  -25.4260  -36.3320   23.9220 C   0  0  0  0  0  3  0  0  0  0  0  0
  -27.5860  -37.2240   24.6750 C   0  0  0  0  0  1  0  0  0  0  0  0
  -26.4520  -37.3860   23.7690 N   0  0  0  0  0  0  0  0  0  0  0  0
  -26.0490  -38.3070   23.9260 H   0  0  0  0  0  0  0  0  0  0  0  0
  -26.4140  -31.7120   25.1480 C   0  0  1  0  0  0  0  0  0  0  0  0
  -25.3290  -31.4720   26.2250 C   0  0  0  0  0  1  0  0  0  0  0  0
  -26.9860  -30.3350   24.7380 C   0  0  0  0  0  1  0  0  0  0  0  0
  -27.5750  -32.4960   25.8020 C   0  0  0  0  0  1  0  0  0  0  0  0
  1  2  1  0
  3  6  1  0
  4  1  2  0
  5  3  2  0
  5  4  1  0
  6  2  2  0
  7  4  1  0
  8  7  1  0
  9  8  1  0
  9 15  1  0
  9  5  1  0
 11 14  1  0
 12 10  1  0
 13 11  1  0
 13 15  1  0
 14 25  1  0
 14 10  1  0
 15 16  1  1
 15 12  1  0
 17 25  1  0
 18 23  1  0
 19 20  1  0
 19 18  1  0
 21 20  1  0
 21 30  1  0
 21 22  1  0
 23 17  1  0
 23 22  1  0
 24 17  2  0
 25 26  1  0
 27 28  2  0
 28 47  1  0
 29 28  1  0
 29 32  1  0
 30 27  1  0
 30 31  1  0
 31 29  2  0
 32 33  1  0
 33 34  2  0
 35 38  1  0
 35 34  1  0
 36 35  2  0
 37 36  1  0
 37 32  2  0
 38 39  1  0
 39 40  1  0
 40 41  2  0
 42 41  1  0
 42 46  1  0
 43 42  2  0
 44 39  2  0
 44 43  1  0
 45 44  1  0
 47 48  1  0
 48 51  1  0
 48 50  1  0
 49 47  2  0
 52 53  1  0
 52 27  1  0
 54 52  1  0
 55  6  1  0
 55 56  1  0
 57 68  2  0
 58 56  1  0
 58 63  1  0
 59 67  1  0
 59 69  1  0
 60 66  1  0
 60 62  1  0
 61 67  1  0
 62 61  1  0
 63 62  2  0
 64 65  1  0
 64 58  2  0
 65 60  2  0
 66 59  1  0
 67 57  1  0
 69 71  2  0
 70 69  1  0
 72 70  1  0
 73 82  2  0
 73 78  1  0
 74 70  1  0
 74 78  1  0
 75 74  1  0
 76 77  1  0
 76 75  1  0
 77 73  1  0
 78 79  2  0
 79 80  1  0
 81 80  2  0
 82 81  1  0
 83 57  1  0
 83 84  1  0
 83 93  1  0
 84 87  1  0
 85 89  1  0
 85 84  1  0
 86 85  2  0
 89 88  1  0
 91 89  1  0
 91 92  1  0
 91 90  1  0
 93 96  1  1
 93 94  1  0
 95 93  1  0
M  ISO  4  17 100  25 100  55 101  56 101
M  END
>  <TORSDO>  (11) 
F 18

>  <SCORE>  (11) 
-14.640

>  <name>  (11) 
10

>  <ligand_id>  (11) 
10

>  <original_smiles>  (11) 
[H]c1c([H])c([H])c2c(c1[H])C([H])([H])C([H])([H])C([H])([H])C2([H])N([H])C(=O)C1([H])N(C(=O)C([H])(N([H])C(=O)C([H])(N([H])C([H])([H])[H])C([H])([H])[H])C(C([H])([H])[H])(C([H])([H])[H])C([H])([H])[H])C([H])([H])c2c([H])c(OC([H])([H])c3c([H])c([H])c4c(c3[H])C([H])([N+]3([H])C([H])([H])C([H])([H])C([H])(N([H])C(=O)N5C([H])([H])C([H])([H])C([H])([H])C([H])(n6nc(-c7c([H])c([H])c(Oc8c([H])c([H])c(F)c([H])c8F)c([H])c7[H])c(C(=O)N([H])[H])c6N([H])[H])C5([H])[H])C([H])([H])C3([H])[H])C([H])([H])C4([H])[H])c([H])c([H])c2C1([H])[H]

>  <smiles>  (11) 
[H]c1c([H])c([H])c2c(c1[H])C([H])([H])C([H])([H])C([H])([H])C2([H])N([H])C(=O)C1([H])N(C(=O)C([H])(N([H])C(=O)C([H])(N([H])C([H])([H])[H])C([H])([H])[H])C(C([H])([H])[H])(C([H])([H])[H])C([H])([H])[H])C([H])([H])c2c([H])c(OC([H])([H])c3c([H])c([H])c4c(c3[H])C([H])([N+]3([H])C([H])([H])C([H])([H])C([H])(N([H])C(=O)N5C([H])([H])C([H])([H])C([H])([H])C([H])(n6nc(-c7c([H])c([H])c(Oc8c([H])c([H])c(F)c([H])c8F)c([H])c7[H])c(C(=O)N([H])[H])c6N([H])[H])C5([H])[H])C([H])([H])C3([H])[H])C([H])([H])C4([H])[H])c([H])c([H])c2C1([H])[H]

$$$$
11:0:0
     RDKit          3D

 94103  0  0  1  0  0  0  0  0999 V2000
  -28.3680  -19.5040   19.5450 C   0  0  0  0  0  3  0  0  0  0  0  0
  -28.6010  -18.0870   19.5130 C   0  0  0  0  0  3  0  0  0  0  0  0
  -30.4550  -18.3700   20.9590 C   0  0  0  0  0  3  0  0  0  0  0  0
  -29.1250  -20.4480   20.3070 C   0  0  0  0  0  0  0  0  0  0  0  0
  -29.6480  -17.4380   20.2280 C   0  0  0  0  0  0  0  0  0  0  0  0
  -30.2120  -19.8120   21.0140 C   0  0  0  0  0  0  0  0  0  0  0  0
  -30.5300  -14.8760   20.1220 C   0  0  0  0  0  0  0  0  0  0  0  0
  -30.3780  -12.5790   19.1090 C   0  0  0  0  0  2  0  0  0  0  0  0
  -29.3840  -12.6280   17.9230 C   0  0  0  0  0  2  0  0  0  0  0  0
  -27.9320  -12.4380   18.4080 C   0  0  0  0  0  2  0  0  0  0  0  0
  -27.5960  -13.3190   19.6400 C   0  0  0  0  0  3  0  0  0  0  0  0
  -28.6980  -13.2190   20.7190 C   0  0  0  0  0  2  0  0  0  0  0  0
  -29.9640  -13.6160   20.0830 N   0  0  0  0  0  0  0  0  0  0  0  0
  -31.7070  -15.0290   19.7770 O   0  0  0  0  0  0  0  0  0  0  0  0
  -29.6540  -15.9390   20.3580 N   0  0  0  0  0  0  0  0  0  0  0  0
  -28.7270  -15.5660   20.4980 H   0  0  0  0  0  0  0  0  0  0  0  0
  -25.2430  -13.9120   20.4720 C   0  0  0  0  0  0  0  0  0  0  0  0
  -24.1870  -13.1360   20.8690 C   0  0  0  0  0  0  0  0  0  0  0  0
  -24.6410  -11.7840   20.7930 C   0  0  0  0  0  0  0  0  0  0  0  0
  -26.2710  -13.0300   20.1770 N   0  0  0  0  0  0  0  0  0  0  0  0
  -25.9170  -11.7440   20.4320 N   0  0  0  0  0  0  0  0  0  0  0  0
  -23.9140  -10.5220   20.9850 C   0  0  0  0  0  0  0  0  0  0  0  0
  -24.3490   -9.5520   21.9140 C   0  0  0  0  0  3  0  0  0  0  0  0
  -23.6230   -8.3550   22.0950 C   0  0  0  0  0  3  0  0  0  0  0  0
  -22.4450   -8.1200   21.3450 C   0  0  0  0  0  0  0  0  0  0  0  0
  -22.0300   -9.0780   20.4020 C   0  0  0  0  0  3  0  0  0  0  0  0
  -22.7560  -10.2670   20.2210 C   0  0  0  0  0  3  0  0  0  0  0  0
  -21.6890   -6.9770   21.4340 O   0  0  0  0  0  0  0  0  0  0  0  0
  -21.6060   -6.2590   22.6010 C   0  0  0  0  0  0  0  0  0  0  0  0
  -21.0870   -6.8230   23.7860 C   0  0  0  0  0  3  0  0  0  0  0  0
  -20.9540   -6.0290   24.9440 C   0  0  0  0  0  3  0  0  0  0  0  0
  -21.3300   -4.6740   24.9150 C   0  0  0  0  0  0  0  0  0  0  0  0
  -21.8430   -4.1100   23.7340 C   0  0  0  0  0  3  0  0  0  0  0  0
  -21.9770   -4.9000   22.5800 C   0  0  0  0  0  0  0  0  0  0  0  0
  -22.4520   -4.3470   21.4380 F   0  0  0  0  0  0  0  0  0  0  0  0
  -21.1970   -3.9090   26.0240 F   0  0  0  0  0  0  0  0  0  0  0  0
  -22.8050  -13.6160   21.2030 C   0  0  0  0  0  0  0  0  0  0  0  0
  -22.1050  -12.9060   22.0810 N   0  0  0  0  0  0  0  0  0  0  0  0
  -22.3550  -14.6550   20.7220 O   0  0  0  0  0  0  0  0  0  0  0  0
  -22.4830  -12.0650   22.4920 H   0  0  0  0  0  0  0  0  0  0  0  0
  -21.1780  -13.2070   22.3470 H   0  0  0  0  0  0  0  0  0  0  0  0
  -25.4070  -15.2850   20.3150 N   0  0  0  0  0  0  0  0  0  0  0  0
  -24.6430  -15.9350   20.4670 H   0  0  0  0  0  0  0  0  0  0  0  0
  -26.2280  -15.7300   19.9310 H   0  0  0  0  0  0  0  0  0  0  0  0
  -28.4140  -22.7020   19.1180 C   0  0  0  0  0  2  0  0  0  0  0  0
  -28.5460  -21.9670   20.4330 C   0  0  0  0  0  3  0  0  0  0  0  0
  -28.9920  -23.5380   20.2260 C   0  0  0  0  0  3  0  0  0  0  0  0
  -28.1570  -24.8780   20.6750 C   0  0  0  0  0  2  0  0  0  0  0  0
  -28.4110  -26.3420   20.2930 O   0  0  0  0  0  0  0  0  0  0  0  0
  -24.6660  -31.9040   23.2490 C   0  0  0  0  0  0  0  0  0  0  0  0
  -27.3230  -27.2680   20.2470 C   0  0  0  0  0  0  0  0  0  0  0  0
  -23.4880  -30.4920   21.6040 C   0  0  0  0  0  3  0  0  0  0  0  0
  -24.9630  -28.9370   20.1950 C   0  0  0  0  0  0  0  0  0  0  0  0
  -26.0350  -30.8050   21.4470 C   0  0  0  0  0  2  0  0  0  0  0  0
  -26.1300  -29.4170   20.8020 C   0  0  0  0  0  0  0  0  0  0  0  0
  -27.3150  -28.5980   20.8090 C   0  0  0  0  0  3  0  0  0  0  0  0
  -26.1330  -26.8760   19.5960 C   0  0  0  0  0  3  0  0  0  0  0  0
  -24.9720  -27.6770   19.5770 C   0  0  0  0  0  3  0  0  0  0  0  0
  -23.7220  -29.8110   20.2300 C   0  0  0  0  0  2  0  0  0  0  0  0
  -24.7480  -31.0880   22.1550 N   0  0  0  0  0  0  0  0  0  0  0  0
  -23.5740  -32.1760   23.7700 O   0  0  0  0  0  0  0  0  0  0  0  0
  -22.8200  -29.4770   22.5640 C   0  0  0  0  0  0  0  0  0  0  0  0
  -21.4940  -29.2980   22.4360 N   0  0  0  0  0  0  0  0  0  0  0  0
  -23.4960  -28.8550   23.3880 O   0  0  0  0  0  0  0  0  0  0  0  0
  -21.0060  -29.8520   21.7470 H   0  0  0  0  0  0  0  0  0  0  0  0
  -18.1160  -28.0880   22.9390 C   0  0  0  0  0  0  0  0  0  0  0  0
  -20.6740  -28.3560   23.2040 C   0  0  0  0  0  3  0  0  0  0  0  0
  -20.7790  -26.9260   22.6250 C   0  0  0  0  0  2  0  0  0  0  0  0
  -19.6760  -26.6030   21.6120 C   0  0  0  0  0  2  0  0  0  0  0  0
  -18.2930  -26.7420   22.2570 C   0  0  0  0  0  2  0  0  0  0  0  0
  -19.2330  -28.8530   23.3690 C   0  0  0  0  0  0  0  0  0  0  0  0
  -19.0110  -30.1120   23.9670 C   0  0  0  0  0  3  0  0  0  0  0  0
  -17.7030  -30.6070   24.1390 C   0  0  0  0  0  3  0  0  0  0  0  0
  -16.6010  -29.8390   23.7250 C   0  0  0  0  0  3  0  0  0  0  0  0
  -16.8080  -28.5820   23.1300 C   0  0  0  0  0  3  0  0  0  0  0  0
  -25.9350  -32.5510   23.8810 C   0  0  0  0  0  3  0  0  0  0  0  0
  -26.4430  -31.7940   25.1700 C   0  0  1  0  0  0  0  0  0  0  0  0
  -25.3400  -31.5530   26.2270 C   0  0  0  0  0  1  0  0  0  0  0  0
  -27.0450  -30.4190   24.7970 C   0  0  0  0  0  1  0  0  0  0  0  0
  -27.5790  -32.6040   25.8390 C   0  0  0  0  0  1  0  0  0  0  0  0
  -25.6110  -33.9500   24.2030 N   0  0  0  0  0  0  0  0  0  0  0  0
  -25.9220  -35.0020   23.4350 C   0  0  0  0  0  0  0  0  0  0  0  0
  -26.5840  -34.9000   22.3980 O   0  0  0  0  0  0  0  0  0  0  0  0
  -25.0250  -34.1030   25.0110 H   0  0  0  0  0  0  0  0  0  0  0  0
  -24.1710  -36.7750   23.0920 C   0  0  0  0  0  1  0  0  0  0  0  0
  -25.4260  -36.3890   23.8900 C   0  0  0  0  0  3  0  0  0  0  0  0
  -27.5540  -37.3080   24.6980 C   0  0  0  0  0  1  0  0  0  0  0  0
  -26.4450  -37.4530   23.7590 N   0  0  0  0  0  0  0  0  0  0  0  0
  -26.0290  -38.3690   23.8980 H   0  0  0  0  0  0  0  0  0  0  0  0
  -31.0180  -20.6440   21.8120 N   0  0  0  0  0  0  0  0  0  0  0  0
  -30.7780  -21.6310   21.8400 H   0  0  0  0  0  0  0  0  0  0  0  0
  -30.9460  -19.8250   24.1410 C   0  0  0  0  0  1  0  0  0  0  0  0
  -32.9410  -21.1050   23.2670 C   0  0  0  0  0  1  0  0  0  0  0  0
  -31.8220  -20.1210   22.9150 C   0  0  0  0  0  3  0  0  0  0  0  0
  1  4  1  0
  2  1  2  0
  2  5  1  0
  3  6  1  0
  4  6  2  0
  5 15  1  0
  5  3  2  0
  6 90  1  0
  7 15  1  0
  8 13  1  0
  9 10  1  0
  9  8  1  0
 11 10  1  0
 11 20  1  0
 11 12  1  0
 13  7  1  0
 13 12  1  0
 14  7  2  0
 15 16  1  0
 17 18  2  0
 18 37  1  0
 19 18  1  0
 19 22  1  0
 20 21  1  0
 20 17  1  0
 21 19  2  0
 22 23  1  0
 23 24  2  0
 25 28  1  0
 25 24  1  0
 26 25  2  0
 27 26  1  0
 27 22  2  0
 28 29  1  0
 29 30  1  0
 30 31  2  0
 32 31  1  0
 32 36  1  0
 33 32  2  0
 34 29  2  0
 34 33  1  0
 35 34  1  0
 37 38  1  0
 38 41  1  0
 38 40  1  0
 39 37  2  0
 42 43  1  0
 42 17  1  0
 44 42  1  0
 45 47  1  0
 45 46  1  0
 46  4  1  0
 47 46  1  0
 47 48  1  0
 49 48  1  0
 50 61  2  0
 51 49  1  0
 51 56  1  0
 52 60  1  0
 52 62  1  0
 53 59  1  0
 53 55  1  0
 54 60  1  0
 55 56  2  0
 55 54  1  0
 57 51  2  0
 58 57  1  0
 58 53  2  0
 59 52  1  0
 60 50  1  0
 62 64  2  0
 63 62  1  0
 65 63  1  0
 66 75  2  0
 66 71  1  0
 67 63  1  0
 67 71  1  0
 68 67  1  0
 69 70  1  0
 69 68  1  0
 70 66  1  0
 71 72  2  0
 72 73  1  0
 74 73  2  0
 75 74  1  0
 76 50  1  0
 76 81  1  0
 76 77  1  0
 77 80  1  1
 77 78  1  0
 79 77  1  0
 81 84  1  0
 82 86  1  0
 82 81  1  0
 83 82  2  0
 86 85  1  0
 88 86  1  0
 88 89  1  0
 88 87  1  0
 90 91  1  0
 90 94  1  0
 94 93  1  0
 94 92  1  0
M  ISO  4   7 100  15 100  48 101  49 101
M  END
>  <TORSDO>  (12) 
F 20

>  <SCORE>  (12) 
-14.136

>  <name>  (12) 
11

>  <ligand_id>  (12) 
11

>  <original_smiles>  (12) 
[H]c1c([H])c([H])c2c(c1[H])C([H])([H])C([H])([H])C([H])([H])C2([H])N([H])C(=O)C1([H])N(C(=O)C([H])(N([H])C(=O)C([H])(N([H])C([H])([H])[H])C([H])([H])[H])C(C([H])([H])[H])(C([H])([H])[H])C([H])([H])[H])C([H])([H])c2c([H])c(OC([H])([H])C3([H])C([H])([H])C3([H])c3c([H])c([H])c(N([H])C(=O)N4C([H])([H])C([H])([H])C([H])([H])C([H])(n5nc(-c6c([H])c([H])c(Oc7c([H])c([H])c(F)c([H])c7F)c([H])c6[H])c(C(=O)N([H])[H])c5N([H])[H])C4([H])[H])c([H])c3N([H])C([H])(C([H])([H])[H])C([H])([H])[H])c([H])c([H])c2C1([H])[H]

>  <smiles>  (12) 
[H]c1c([H])c([H])c2c(c1[H])C([H])([H])C([H])([H])C([H])([H])C2([H])N([H])C(=O)C1([H])N(C(=O)C([H])(N([H])C(=O)C([H])(N([H])C([H])([H])[H])C([H])([H])[H])C(C([H])([H])[H])(C([H])([H])[H])C([H])([H])[H])C([H])([H])c2c([H])c(OC([H])([H])C3([H])C([H])([H])C3([H])c3c([H])c([H])c(N([H])C(=O)N4C([H])([H])C([H])([H])C([H])([H])C([H])(n5nc(-c6c([H])c([H])c(Oc7c([H])c([H])c(F)c([H])c7F)c([H])c6[H])c(C(=O)N([H])[H])c5N([H])[H])C4([H])[H])c([H])c3N([H])C([H])(C([H])([H])[H])C([H])([H])[H])c([H])c([H])c2C1([H])[H]

$$$$
12:0:0
     RDKit          3D

101110  0  0  1  0  0  0  0  0999 V2000
  -30.9420  -18.2280   18.9760 C   0  0  0  0  0  3  0  0  0  0  0  0
  -29.6720  -19.6440   20.4660 C   0  0  0  0  0  3  0  0  0  0  0  0
  -30.4830  -18.4740   20.2810 C   0  0  0  0  0  0  0  0  0  0  0  0
  -30.6170  -19.1180   17.9390 C   0  0  0  0  0  0  0  0  0  0  0  0
  -29.3780  -20.4880   19.3530 C   0  0  0  0  0  0  0  0  0  0  0  0
  -31.1240  -18.8740   16.5310 C   0  0  0  0  0  1  0  0  0  0  0  0
  -29.8450  -20.2130   18.1240 N   0  0  0  0  0  0  0  0  0  0  0  0
  -28.4770  -21.5790   19.3880 N   0  0  0  0  0  0  0  0  0  0  0  0
  -28.0910  -21.7100   18.4590 H   0  0  0  0  0  0  0  0  0  0  0  0
  -28.8890  -22.8950   19.9260 C   0  0  0  0  0  2  0  0  0  0  0  0
  -28.1520  -24.1370   19.2780 C   0  0  0  0  0  2  0  0  0  0  0  0
  -28.2760  -25.4990   20.0590 C   0  0  0  0  0  2  0  0  0  0  0  0
  -28.1200  -26.7560   19.3320 O   0  0  0  0  0  0  0  0  0  0  0  0
  -24.4440  -31.7210   22.9950 C   0  0  0  0  0  0  0  0  0  0  0  0
  -26.9530  -27.4850   19.5000 C   0  0  0  0  0  0  0  0  0  0  0  0
  -23.1580  -30.3940   21.3530 C   0  0  0  0  0  3  0  0  0  0  0  0
  -24.5420  -28.9760   19.7410 C   0  0  0  0  0  0  0  0  0  0  0  0
  -25.6620  -30.8130   21.0130 C   0  0  0  0  0  2  0  0  0  0  0  0
  -25.7320  -29.4810   20.2850 C   0  0  0  0  0  0  0  0  0  0  0  0
  -26.9410  -28.7480   20.1500 C   0  0  0  0  0  3  0  0  0  0  0  0
  -25.7460  -27.0060   18.9540 C   0  0  0  0  0  3  0  0  0  0  0  0
  -24.5490  -27.7410   19.0680 C   0  0  0  0  0  3  0  0  0  0  0  0
  -23.2900  -29.8080   19.9230 C   0  0  0  0  0  2  0  0  0  0  0  0
  -24.4450  -30.9880   21.8450 N   0  0  0  0  0  0  0  0  0  0  0  0
  -23.3970  -31.9330   23.6230 O   0  0  0  0  0  0  0  0  0  0  0  0
  -22.5880  -29.3030   22.2910 C   0  0  0  0  0  0  0  0  0  0  0  0
  -21.2640  -29.0800   22.2230 N   0  0  0  0  0  0  0  0  0  0  0  0
  -23.3330  -28.6590   23.0350 O   0  0  0  0  0  0  0  0  0  0  0  0
  -20.7180  -29.6500   21.5920 H   0  0  0  0  0  0  0  0  0  0  0  0
  -17.9750  -27.6980   22.7940 C   0  0  0  0  0  0  0  0  0  0  0  0
  -20.5250  -28.0740   22.9860 C   0  0  0  0  0  3  0  0  0  0  0  0
  -20.6770  -26.6730   22.3500 C   0  0  0  0  0  2  0  0  0  0  0  0
  -19.5550  -26.3350   21.3630 C   0  0  0  0  0  2  0  0  0  0  0  0
  -18.1920  -26.3850   22.0590 C   0  0  0  0  0  2  0  0  0  0  0  0
  -19.0700  -28.4980   23.2160 C   0  0  0  0  0  0  0  0  0  0  0  0
  -18.8130  -29.7250   23.8650 C   0  0  0  0  0  3  0  0  0  0  0  0
  -17.4920  -30.1570   24.0900 C   0  0  0  0  0  3  0  0  0  0  0  0
  -16.4120  -29.3540   23.6890 C   0  0  0  0  0  3  0  0  0  0  0  0
  -16.6540  -28.1260   23.0460 C   0  0  0  0  0  3  0  0  0  0  0  0
  -25.7540  -32.3480   23.5640 C   0  0  0  0  0  3  0  0  0  0  0  0
  -25.4370  -33.7080   24.0150 N   0  0  0  0  0  0  0  0  0  0  0  0
  -25.7220  -34.8230   23.3300 C   0  0  0  0  0  0  0  0  0  0  0  0
  -26.3510  -34.8150   22.2690 O   0  0  0  0  0  0  0  0  0  0  0  0
  -24.8720  -33.7890   24.8470 H   0  0  0  0  0  0  0  0  0  0  0  0
  -23.9550  -36.6080   23.1840 C   0  0  0  0  0  1  0  0  0  0  0  0
  -25.2290  -36.1590   23.9180 C   0  0  0  0  0  3  0  0  0  0  0  0
  -27.3800  -37.0080   24.7420 C   0  0  0  0  0  1  0  0  0  0  0  0
  -26.2390  -37.2380   23.8580 N   0  0  0  0  0  0  0  0  0  0  0  0
  -25.8250  -38.1350   24.0980 H   0  0  0  0  0  0  0  0  0  0  0  0
  -26.3860  -31.5030   24.7390 C   0  0  1  0  0  0  0  0  0  0  0  0
  -25.3840  -31.1600   25.8660 C   0  0  0  0  0  1  0  0  0  0  0  0
  -26.9670  -30.1730   24.2050 C   0  0  0  0  0  1  0  0  0  0  0  0
  -27.5730  -32.2780   25.3610 C   0  0  0  0  0  1  0  0  0  0  0  0
  -30.9580  -17.5030   21.4010 C   0  0  0  0  0  3  0  0  0  0  0  0
  -31.3440  -14.9830   21.1590 C   0  0  0  0  0  0  0  0  0  0  0  0
  -31.2740  -12.5640   20.6090 C   0  0  0  0  0  2  0  0  0  0  0  0
  -30.5680  -12.3570   19.2540 C   0  0  0  0  0  2  0  0  0  0  0  0
  -29.0400  -12.2740   19.4370 C   0  0  0  0  0  2  0  0  0  0  0  0
  -28.4800  -13.4130   20.3300 C   0  0  0  0  0  3  0  0  0  0  0  0
  -29.3100  -13.5630   21.6230 C   0  0  0  0  0  2  0  0  0  0  0  0
  -30.7090  -13.7770   21.2250 N   0  0  0  0  0  0  0  0  0  0  0  0
  -32.5520  -15.0710   20.9320 O   0  0  0  0  0  0  0  0  0  0  0  0
  -30.5500  -16.0810   21.2360 N   0  0  0  0  0  0  0  0  0  0  0  0
  -29.5610  -15.9000   21.2970 H   0  0  0  0  0  0  0  0  0  0  0  0
  -26.0480  -14.1730   20.6590 C   0  0  0  0  0  0  0  0  0  0  0  0
  -24.8940  -13.4740   20.8920 C   0  0  0  0  0  0  0  0  0  0  0  0
  -25.2760  -12.1000   20.9760 C   0  0  0  0  0  0  0  0  0  0  0  0
  -27.0600  -13.2290   20.6150 N   0  0  0  0  0  0  0  0  0  0  0  0
  -26.5920  -11.9790   20.8660 N   0  0  0  0  0  0  0  0  0  0  0  0
  -24.4570  -10.8870   21.1000 C   0  0  0  0  0  0  0  0  0  0  0  0
  -24.7300   -9.9110   22.0820 C   0  0  0  0  0  3  0  0  0  0  0  0
  -23.9170   -8.7610   22.1930 C   0  0  0  0  0  3  0  0  0  0  0  0
  -22.8190   -8.5810   21.3180 C   0  0  0  0  0  0  0  0  0  0  0  0
  -22.5670   -9.5470   20.3270 C   0  0  0  0  0  3  0  0  0  0  0  0
  -23.3780  -10.6870   20.2150 C   0  0  0  0  0  3  0  0  0  0  0  0
  -21.9900   -7.4850   21.3350 O   0  0  0  0  0  0  0  0  0  0  0  0
  -21.8140   -6.7330   22.4680 C   0  0  0  0  0  0  0  0  0  0  0  0
  -21.3510   -7.3020   23.6750 C   0  0  0  0  0  3  0  0  0  0  0  0
  -21.1180   -6.4810   24.7960 C   0  0  0  0  0  3  0  0  0  0  0  0
  -21.3390   -5.0920   24.7110 C   0  0  0  0  0  0  0  0  0  0  0  0
  -21.7950   -4.5240   23.5080 C   0  0  0  0  0  3  0  0  0  0  0  0
  -22.0300   -5.3430   22.3890 C   0  0  0  0  0  0  0  0  0  0  0  0
  -22.4490   -4.7880   21.2260 F   0  0  0  0  0  0  0  0  0  0  0  0
  -21.1080   -4.3020   25.7840 F   0  0  0  0  0  0  0  0  0  0  0  0
  -23.5030  -14.0360   20.9370 C   0  0  0  0  0  0  0  0  0  0  0  0
  -22.6190  -13.4200   21.7150 N   0  0  0  0  0  0  0  0  0  0  0  0
  -23.2050  -15.0570   20.3190 O   0  0  0  0  0  0  0  0  0  0  0  0
  -22.8710  -12.5940   22.2380 H   0  0  0  0  0  0  0  0  0  0  0  0
  -21.6780  -13.7800   21.7910 H   0  0  0  0  0  0  0  0  0  0  0  0
  -26.3170  -15.5240   20.4590 N   0  0  0  0  0  0  0  0  0  0  0  0
  -25.5770  -16.2150   20.4060 H   0  0  0  0  0  0  0  0  0  0  0  0
  -27.2250  -15.9000   20.2160 H   0  0  0  0  0  0  0  0  0  0  0  0
  -30.6500  -17.9710   22.8510 C   0  0  0  0  0  2  0  0  0  0  0  0
  -32.5570  -21.1200   23.5770 C   0  0  0  0  0  2  0  0  0  0  0  0
  -31.7320  -20.9250   24.8400 C   0  0  0  0  0  2  0  0  0  0  0  0
  -32.3700  -19.7930   22.8560 C   0  0  0  0  0  2  0  0  0  0  0  0
  -30.5610  -20.0000   24.4250 C   0  0  2  0  0  0  0  0  0  0  0  0
  -29.2810  -20.8340   24.2340 C   0  0  0  0  0  1  0  0  0  0  0  0
  -30.3270  -18.9620   25.5490 C   0  0  0  0  0  1  0  0  0  0  0  0
  -30.9620  -19.4100   23.1060 N   0  0  2  0  0  4  0  0  0  0  0  0
  -30.4270  -19.9240   22.4200 H   0  0  0  0  0  0  0  0  0  0  0  0
  1  3  1  0
  3  2  2  0
  3 54  1  0
  4  7  1  0
  4  1  2  0
  5  8  1  0
  5  2  1  0
  6  4  1  0
  7  5  2  0
  8 10  1  0
  9  8  1  0
 11 10  1  0
 11 12  1  0
 13 15  1  0
 13 12  1  0
 14 25  2  0
 15 20  1  0
 16 24  1  0
 16 26  1  0
 17 23  1  0
 17 19  1  0
 18 24  1  0
 19 18  1  0
 20 19  2  0
 21 22  1  0
 21 15  2  0
 22 17  2  0
 23 16  1  0
 24 14  1  0
 26 28  2  0
 27 26  1  0
 29 27  1  0
 30 39  2  0
 30 35  1  0
 31 27  1  0
 31 35  1  0
 32 31  1  0
 33 34  1  0
 33 32  1  0
 34 30  1  0
 35 36  2  0
 36 37  1  0
 38 37  2  0
 39 38  1  0
 40 14  1  0
 40 41  1  0
 40 50  1  0
 41 44  1  0
 42 46  1  0
 42 41  1  0
 43 42  2  0
 46 45  1  0
 48 46  1  0
 48 49  1  0
 48 47  1  0
 50 53  1  1
 50 51  1  0
 52 50  1  0
 54 93  1  0
 55 61  1  0
 55 63  1  0
 56 61  1  0
 57 58  1  0
 57 56  1  0
 59 58  1  0
 59 68  1  0
 59 60  1  0
 61 60  1  0
 62 55  2  0
 63 64  1  0
 63 54  1  0
 65 66  2  0
 66 85  1  0
 66 67  1  0
 67 70  1  0
 68 65  1  0
 68 69  1  0
 69 67  2  0
 70 71  1  0
 71 72  2  0
 73 76  1  0
 73 72  1  0
 74 73  2  0
 75 74  1  0
 75 70  2  0
 76 77  1  0
 77 78  1  0
 78 79  2  0
 80 79  1  0
 80 84  1  0
 81 80  2  0
 82 77  2  0
 82 81  1  0
 83 82  1  0
 85 86  1  0
 86 89  1  0
 86 88  1  0
 87 85  2  0
 90 65  1  0
 91 90  1  0
 92 90  1  0
 93100  1  0
 94 95  1  0
 96100  1  0
 96 94  1  0
 97 95  1  0
 97 99  1  1
 98 97  1  0
100 97  1  0
100101  1  6
M  ISO  4  12 101  13 101  55 100  63 100
M  END
>  <TORSDO>  (13) 
F 23

>  <SCORE>  (13) 
-7.790

>  <name>  (13) 
12

>  <ligand_id>  (13) 
12

>  <original_smiles>  (13) 
[H]c1c([H])c([H])c2c(c1[H])C([H])([H])C([H])([H])C([H])([H])C2([H])N([H])C(=O)C1([H])N(C(=O)C([H])(N([H])C(=O)C([H])(N([H])C([H])([H])[H])C([H])([H])[H])C(C([H])([H])[H])(C([H])([H])[H])C([H])([H])[H])C([H])([H])c2c([H])c(OC([H])([H])C([H])([H])C([H])([H])N([H])c3nc(C([H])([H])[H])c([H])c(C([H])(N([H])C(=O)N4C([H])([H])C([H])([H])C([H])([H])C([H])(n5nc(-c6c([H])c([H])c(Oc7c([H])c([H])c(F)c([H])c7F)c([H])c6[H])c(C(=O)N([H])[H])c5N([H])[H])C4([H])[H])C([H])([H])[N+]4([H])C([H])([H])C([H])([H])C([H])([H])C4(C([H])([H])[H])C([H])([H])[H])c3[H])c([H])c([H])c2C1([H])[H]

>  <smiles>  (13) 
[H]c1c([H])c([H])c2c(c1[H])C([H])([H])C([H])([H])C([H])([H])C2([H])N([H])C(=O)C1([H])N(C(=O)C([H])(N([H])C(=O)C([H])(N([H])C([H])([H])[H])C([H])([H])[H])C(C([H])([H])[H])(C([H])([H])[H])C([H])([H])[H])C([H])([H])c2c([H])c(OC([H])([H])C([H])([H])C([H])([H])N([H])c3nc(C([H])([H])[H])c([H])c(C([H])(N([H])C(=O)N4C([H])([H])C([H])([H])C([H])([H])C([H])(n5nc(-c6c([H])c([H])c(Oc7c([H])c([H])c(F)c([H])c7F)c([H])c6[H])c(C(=O)N([H])[H])c5N([H])[H])C4([H])[H])C([H])([H])[N+]4([H])C([H])([H])C([H])([H])C([H])([H])C4(C([H])([H])[H])C([H])([H])[H])c3[H])c([H])c([H])c2C1([H])[H]

$$$$
13:0:0
     RDKit          3D

 95104  0  0  1  0  0  0  0  0999 V2000
  -29.9330  -24.8570   20.1150 C   0  0  0  0  0  3  0  0  0  0  0  0
  -30.1840  -23.5010   20.4230 C   0  0  0  0  0  0  0  0  0  0  0  0
  -29.1230  -22.6900   20.9070 C   0  0  0  0  0  0  0  0  0  0  0  0
  -27.8570  -23.3320   21.0440 C   0  0  0  0  0  0  0  0  0  0  0  0
  -28.6530  -25.4100   20.3050 C   0  0  0  0  0  0  0  0  0  0  0  0
  -31.5940  -22.9610   20.2470 C   0  0  0  0  0  1  0  0  0  0  0  0
  -26.6330  -22.5930   21.5540 C   0  0  0  0  0  1  0  0  0  0  0  0
  -27.6330  -24.6450   20.7600 N   0  0  0  0  0  0  0  0  0  0  0  0
  -28.4660  -26.7670   20.0390 O   0  0  0  0  0  0  0  0  0  0  0  0
  -24.6170  -31.8910   23.2280 C   0  0  0  0  0  0  0  0  0  0  0  0
  -27.2630  -27.4560   20.1110 C   0  0  0  0  0  0  0  0  0  0  0  0
  -23.4110  -30.5060   21.5700 C   0  0  0  0  0  3  0  0  0  0  0  0
  -24.8650  -28.9790   20.1300 C   0  0  0  0  0  0  0  0  0  0  0  0
  -25.9370  -30.8610   21.3770 C   0  0  0  0  0  2  0  0  0  0  0  0
  -26.0210  -29.4910   20.7300 C   0  0  0  0  0  0  0  0  0  0  0  0
  -27.2200  -28.7380   20.7200 C   0  0  0  0  0  3  0  0  0  0  0  0
  -26.0920  -26.9710   19.4900 C   0  0  0  0  0  3  0  0  0  0  0  0
  -24.8960  -27.7170   19.5070 C   0  0  0  0  0  3  0  0  0  0  0  0
  -23.6210  -29.8400   20.1830 C   0  0  0  0  0  2  0  0  0  0  0  0
  -24.6730  -31.1020   22.1170 N   0  0  0  0  0  0  0  0  0  0  0  0
  -23.5360  -32.1550   23.7720 O   0  0  0  0  0  0  0  0  0  0  0  0
  -22.7610  -29.4750   22.5200 C   0  0  0  0  0  0  0  0  0  0  0  0
  -21.4350  -29.2990   22.3990 N   0  0  0  0  0  0  0  0  0  0  0  0
  -23.4470  -28.8360   23.3230 O   0  0  0  0  0  0  0  0  0  0  0  0
  -20.9430  -29.8670   21.7230 H   0  0  0  0  0  0  0  0  0  0  0  0
  -18.0580  -28.1220   22.9120 C   0  0  0  0  0  0  0  0  0  0  0  0
  -20.6200  -28.3530   23.1600 C   0  0  0  0  0  3  0  0  0  0  0  0
  -20.7040  -26.9340   22.5520 C   0  0  0  0  0  2  0  0  0  0  0  0
  -19.5890  -26.6410   21.5450 C   0  0  0  0  0  2  0  0  0  0  0  0
  -18.2150  -26.7850   22.2070 C   0  0  0  0  0  2  0  0  0  0  0  0
  -19.1870  -28.8650   23.3450 C   0  0  0  0  0  0  0  0  0  0  0  0
  -18.9870  -30.1180   23.9650 C   0  0  0  0  0  3  0  0  0  0  0  0
  -17.6880  -30.6280   24.1540 C   0  0  0  0  0  3  0  0  0  0  0  0
  -16.5730  -29.8800   23.7380 C   0  0  0  0  0  3  0  0  0  0  0  0
  -16.7580  -28.6300   23.1220 C   0  0  0  0  0  3  0  0  0  0  0  0
  -25.9030  -32.5160   23.8530 C   0  0  0  0  0  3  0  0  0  0  0  0
  -25.5930  -33.9080   24.2060 N   0  0  0  0  0  0  0  0  0  0  0  0
  -25.9110  -34.9710   23.4550 C   0  0  0  0  0  0  0  0  0  0  0  0
  -26.5690  -34.8840   22.4150 O   0  0  0  0  0  0  0  0  0  0  0  0
  -25.0060  -34.0490   25.0150 H   0  0  0  0  0  0  0  0  0  0  0  0
  -24.1660  -36.7560   23.1480 C   0  0  0  0  0  1  0  0  0  0  0  0
  -25.4210  -36.3520   23.9360 C   0  0  0  0  0  3  0  0  0  0  0  0
  -27.5640  -37.2380   24.7440 C   0  0  0  0  0  1  0  0  0  0  0  0
  -26.4450  -37.4130   23.8210 N   0  0  0  0  0  0  0  0  0  0  0  0
  -26.0360  -38.3280   23.9910 H   0  0  0  0  0  0  0  0  0  0  0  0
  -26.4290  -31.7260   25.1140 C   0  0  1  0  0  0  0  0  0  0  0  0
  -25.3410  -31.4670   26.1840 C   0  0  0  0  0  1  0  0  0  0  0  0
  -27.0140  -30.3570   24.6970 C   0  0  0  0  0  1  0  0  0  0  0  0
  -27.5800  -32.5130   25.7840 C   0  0  0  0  0  1  0  0  0  0  0  0
  -29.3710  -21.2180   21.3740 C   0  0  0  0  0  2  0  0  0  0  0  0
  -29.5060  -20.1900   20.2960 N   0  0  0  0  0  4  0  0  0  0  0  0
  -28.7460  -20.3500   19.6550 H   0  0  0  0  0  0  0  0  0  0  0  0
  -30.3580  -20.3400   19.7830 H   0  0  0  0  0  0  0  0  0  0  0  0
  -30.7010  -14.6280   20.2780 C   0  0  0  0  0  0  0  0  0  0  0  0
  -30.3590  -12.4400   19.1690 C   0  0  0  0  0  2  0  0  0  0  0  0
  -29.3960  -12.5880   17.9740 C   0  0  0  0  0  2  0  0  0  0  0  0
  -27.9360  -12.4160   18.4340 C   0  0  0  0  0  2  0  0  0  0  0  0
  -27.5970  -13.2850   19.6710 C   0  0  0  0  0  3  0  0  0  0  0  0
  -28.6820  -13.1670   20.7690 C   0  0  0  0  0  2  0  0  0  0  0  0
  -29.9880  -13.4660   20.1590 N   0  0  0  0  0  0  0  0  0  0  0  0
  -31.8790  -14.7060   19.9220 O   0  0  0  0  0  0  0  0  0  0  0  0
  -30.7000  -18.1680   21.3610 C   0  0  0  0  0  2  0  0  0  0  0  0
  -29.1580  -17.8460   19.4870 C   0  0  0  0  0  2  0  0  0  0  0  0
  -30.5770  -16.6550   21.7410 C   0  0  0  0  0  2  0  0  0  0  0  0
  -28.9790  -16.3550   19.8550 C   0  0  0  0  0  2  0  0  0  0  0  0
  -29.4240  -18.7450   20.7040 C   0  0  0  0  0  3  0  0  0  0  0  0
  -30.0390  -15.7550   20.6910 N   0  0  0  0  0  0  0  0  0  0  0  0
  -25.2290  -13.9250   20.4330 C   0  0  0  0  0  0  0  0  0  0  0  0
  -24.1610  -13.1640   20.8180 C   0  0  0  0  0  0  0  0  0  0  0  0
  -24.6090  -11.8090   20.7800 C   0  0  0  0  0  0  0  0  0  0  0  0
  -26.2600  -13.0280   20.1840 N   0  0  0  0  0  0  0  0  0  0  0  0
  -25.8930  -11.7530   20.4550 N   0  0  0  0  0  0  0  0  0  0  0  0
  -23.8760  -10.5540   20.9750 C   0  0  0  0  0  0  0  0  0  0  0  0
  -24.3020   -9.5930   21.9170 C   0  0  0  0  0  3  0  0  0  0  0  0
  -23.5720   -8.3990   22.0980 C   0  0  0  0  0  3  0  0  0  0  0  0
  -22.4020   -8.1600   21.3360 C   0  0  0  0  0  0  0  0  0  0  0  0
  -21.9970   -9.1110   20.3830 C   0  0  0  0  0  3  0  0  0  0  0  0
  -22.7280  -10.2960   20.2000 C   0  0  0  0  0  3  0  0  0  0  0  0
  -21.6430   -7.0210   21.4290 O   0  0  0  0  0  0  0  0  0  0  0  0
  -21.5680   -6.2990   22.5930 C   0  0  0  0  0  0  0  0  0  0  0  0
  -21.1150   -6.8760   23.7990 C   0  0  0  0  0  3  0  0  0  0  0  0
  -20.9890   -6.0800   24.9560 C   0  0  0  0  0  3  0  0  0  0  0  0
  -21.3040   -4.7090   24.9050 C   0  0  0  0  0  0  0  0  0  0  0  0
  -21.7490   -4.1310   23.7030 C   0  0  0  0  0  3  0  0  0  0  0  0
  -21.8790   -4.9250   22.5500 C   0  0  0  0  0  0  0  0  0  0  0  0
  -22.2880   -4.3610   21.3880 F   0  0  0  0  0  0  0  0  0  0  0  0
  -21.1750   -3.9410   26.0120 F   0  0  0  0  0  0  0  0  0  0  0  0
  -22.7710  -13.6550   21.1070 C   0  0  0  0  0  0  0  0  0  0  0  0
  -22.0460  -12.9630   21.9770 N   0  0  0  0  0  0  0  0  0  0  0  0
  -22.3380  -14.6870   20.5940 O   0  0  0  0  0  0  0  0  0  0  0  0
  -22.4100  -12.1300   22.4140 H   0  0  0  0  0  0  0  0  0  0  0  0
  -21.1140  -13.2740   22.2130 H   0  0  0  0  0  0  0  0  0  0  0  0
  -25.4000  -15.2930   20.2500 N   0  0  0  0  0  0  0  0  0  0  0  0
  -24.6340  -15.9480   20.3630 H   0  0  0  0  0  0  0  0  0  0  0  0
  -26.2370  -15.7210   19.8780 H   0  0  0  0  0  0  0  0  0  0  0  0
  1  5  1  0
  1  2  2  0
  2  3  1  0
  3  4  2  0
  3 50  1  0
  4  7  1  0
  5  8  2  0
  6  2  1  0
  8  4  1  0
  9 11  1  0
  9  5  1  0
 10 21  2  0
 11 16  1  0
 12 20  1  0
 12 22  1  0
 13 19  1  0
 13 15  1  0
 14 20  1  0
 15 14  1  0
 16 15  2  0
 17 18  1  0
 17 11  2  0
 18 13  2  0
 19 12  1  0
 20 10  1  0
 22 24  2  0
 23 22  1  0
 25 23  1  0
 26 35  2  0
 26 31  1  0
 27 23  1  0
 27 31  1  0
 28 27  1  0
 29 30  1  0
 29 28  1  0
 30 26  1  0
 31 32  2  0
 32 33  1  0
 34 33  2  0
 35 34  1  0
 36 10  1  0
 36 37  1  0
 36 46  1  0
 37 40  1  0
 38 42  1  0
 38 37  1  0
 39 38  2  0
 42 41  1  0
 44 42  1  0
 44 45  1  0
 44 43  1  0
 46 49  1  1
 46 47  1  0
 48 46  1  0
 51 50  1  0
 52 51  1  0
 53 51  1  0
 54 67  1  0
 55 60  1  0
 56 57  1  0
 56 55  1  0
 58 57  1  0
 58 71  1  0
 58 59  1  0
 60 54  1  0
 60 59  1  0
 61 54  2  0
 62 64  1  0
 63 65  1  0
 63 66  1  0
 65 67  1  0
 66 51  1  0
 66 62  1  0
 67 64  1  0
 68 69  2  0
 69 88  1  0
 70 69  1  0
 70 73  1  0
 71 68  1  0
 71 72  1  0
 72 70  2  0
 73 74  1  0
 74 75  2  0
 76 79  1  0
 76 75  1  0
 77 76  2  0
 78 77  1  0
 78 73  2  0
 79 80  1  0
 80 81  1  0
 81 82  2  0
 83 82  1  0
 83 87  1  0
 84 83  2  0
 85 80  2  0
 85 84  1  0
 86 85  1  0
 88 89  1  0
 89 92  1  0
 89 91  1  0
 90 88  2  0
 93 94  1  0
 93 68  1  0
 95 93  1  0
M  ISO  4   5 101   9 101  54 100  67 100
M  END
>  <TORSDO>  (14) 
F 18

>  <SCORE>  (14) 
-14.776

>  <name>  (14) 
13

>  <ligand_id>  (14) 
13

>  <original_smiles>  (14) 
[H]c1c([H])c([H])c2c(c1[H])C([H])([H])C([H])([H])C([H])([H])C2([H])N([H])C(=O)C1([H])N(C(=O)C([H])(N([H])C(=O)C([H])(N([H])C([H])([H])[H])C([H])([H])[H])C(C([H])([H])[H])(C([H])([H])[H])C([H])([H])[H])C([H])([H])c2c([H])c(Oc3nc(C([H])([H])[H])c(C([H])([H])[N+]([H])([H])C4([H])C([H])([H])C([H])([H])N(C(=O)N5C([H])([H])C([H])([H])C([H])([H])C([H])(n6nc(-c7c([H])c([H])c(Oc8c([H])c([H])c(F)c([H])c8F)c([H])c7[H])c(C(=O)N([H])[H])c6N([H])[H])C5([H])[H])C([H])([H])C4([H])[H])c(C([H])([H])[H])c3[H])c([H])c([H])c2C1([H])[H]

>  <smiles>  (14) 
[H]c1c([H])c([H])c2c(c1[H])C([H])([H])C([H])([H])C([H])([H])C2([H])N([H])C(=O)C1([H])N(C(=O)C([H])(N([H])C(=O)C([H])(N([H])C([H])([H])[H])C([H])([H])[H])C(C([H])([H])[H])(C([H])([H])[H])C([H])([H])[H])C([H])([H])c2c([H])c(Oc3nc(C([H])([H])[H])c(C([H])([H])[N+]([H])([H])C4([H])C([H])([H])C([H])([H])N(C(=O)N5C([H])([H])C([H])([H])C([H])([H])C([H])(n6nc(-c7c([H])c([H])c(Oc8c([H])c([H])c(F)c([H])c8F)c([H])c7[H])c(C(=O)N([H])[H])c6N([H])[H])C5([H])[H])C([H])([H])C4([H])[H])c(C([H])([H])[H])c3[H])c([H])c([H])c2C1([H])[H]

$$$$
14:0:0
     RDKit          3D

 97106  0  0  1  0  0  0  0  0999 V2000
  -31.4880  -18.3170   22.8210 C   0  0  0  0  0  2  0  0  0  0  0  0
  -30.7410  -17.0290   22.4400 C   0  0  0  0  0  2  0  0  0  0  0  0
  -29.5300  -18.3070   20.6020 C   0  0  0  0  0  2  0  0  0  0  0  0
  -30.2770  -19.6470   21.0230 C   0  0  0  0  0  3  0  0  0  0  0  0
  -30.6570  -19.5900   22.5340 C   0  0  0  0  0  3  0  0  0  0  0  0
  -30.3560  -16.9970   20.9510 C   0  0  0  0  0  3  0  0  0  0  0  0
  -30.3960  -14.5870   20.1000 C   0  0  0  0  0  0  0  0  0  0  0  0
  -30.0240  -12.4710   18.8580 C   0  0  0  0  0  2  0  0  0  0  0  0
  -28.9870  -12.6950   17.7390 C   0  0  0  0  0  2  0  0  0  0  0  0
  -27.5610  -12.4820   18.2760 C   0  0  0  0  0  2  0  0  0  0  0  0
  -27.3040  -13.2380   19.6080 C   0  0  0  0  0  3  0  0  0  0  0  0
  -28.4550  -13.0330   20.6180 C   0  0  0  0  0  2  0  0  0  0  0  0
  -29.7070  -13.4130   19.9500 N   0  0  0  0  0  0  0  0  0  0  0  0
  -31.5210  -14.7310   19.6170 O   0  0  0  0  0  0  0  0  0  0  0  0
  -29.7460  -15.6560   20.6510 N   0  0  0  0  0  0  0  0  0  0  0  0
  -28.7930  -15.5020   20.9440 H   0  0  0  0  0  0  0  0  0  0  0  0
  -24.9550  -13.7240   20.5260 C   0  0  0  0  0  0  0  0  0  0  0  0
  -23.9450  -12.9010   20.9440 C   0  0  0  0  0  0  0  0  0  0  0  0
  -24.4460  -11.5690   20.8270 C   0  0  0  0  0  0  0  0  0  0  0  0
  -26.0070  -12.8900   20.1820 N   0  0  0  0  0  0  0  0  0  0  0  0
  -25.7110  -11.5860   20.4230 N   0  0  0  0  0  0  0  0  0  0  0  0
  -23.7760  -10.2760   21.0190 C   0  0  0  0  0  0  0  0  0  0  0  0
  -24.2810   -9.3080   21.9150 C   0  0  0  0  0  3  0  0  0  0  0  0
  -23.6080   -8.0810   22.0950 C   0  0  0  0  0  3  0  0  0  0  0  0
  -22.4160   -7.8140   21.3800 C   0  0  0  0  0  0  0  0  0  0  0  0
  -21.9320   -8.7700   20.4710 C   0  0  0  0  0  3  0  0  0  0  0  0
  -22.6070   -9.9890   20.2890 C   0  0  0  0  0  3  0  0  0  0  0  0
  -21.7070   -6.6410   21.4720 O   0  0  0  0  0  0  0  0  0  0  0  0
  -21.6900   -5.8990   22.6250 C   0  0  0  0  0  0  0  0  0  0  0  0
  -21.2080   -6.4240   23.8440 C   0  0  0  0  0  3  0  0  0  0  0  0
  -21.1450   -5.6050   24.9890 C   0  0  0  0  0  3  0  0  0  0  0  0
  -21.5550   -4.2610   24.9160 C   0  0  0  0  0  0  0  0  0  0  0  0
  -22.0300   -3.7330   23.7020 C   0  0  0  0  0  3  0  0  0  0  0  0
  -22.0950   -4.5490   22.5600 C   0  0  0  0  0  0  0  0  0  0  0  0
  -22.5340   -4.0300   21.3870 F   0  0  0  0  0  0  0  0  0  0  0  0
  -21.4880   -3.4710   26.0140 F   0  0  0  0  0  0  0  0  0  0  0  0
  -22.5580  -13.3200   21.3370 C   0  0  0  0  0  0  0  0  0  0  0  0
  -21.9210  -12.5720   22.2320 N   0  0  0  0  0  0  0  0  0  0  0  0
  -22.0480  -14.3450   20.8850 O   0  0  0  0  0  0  0  0  0  0  0  0
  -22.3530  -11.7450   22.6180 H   0  0  0  0  0  0  0  0  0  0  0  0
  -20.9930  -12.8310   22.5360 H   0  0  0  0  0  0  0  0  0  0  0  0
  -25.0610  -15.1050   20.3880 N   0  0  0  0  0  0  0  0  0  0  0  0
  -24.2840  -15.7270   20.5770 H   0  0  0  0  0  0  0  0  0  0  0  0
  -25.8660  -15.5820   20.0020 H   0  0  0  0  0  0  0  0  0  0  0  0
  -30.3510  -21.9550   19.8180 C   0  0  0  0  0  3  0  0  0  0  0  0
  -28.4570  -21.5130   21.2430 C   0  0  0  0  0  3  0  0  0  0  0  0
  -29.8760  -23.2780   19.5760 C   0  0  0  0  0  3  0  0  0  0  0  0
  -27.9890  -22.8380   21.0100 C   0  0  0  0  0  3  0  0  0  0  0  0
  -29.6490  -21.0350   20.6450 C   0  0  0  0  0  0  0  0  0  0  0  0
  -28.6770  -23.7510   20.1630 C   0  0  0  0  0  0  0  0  0  0  0  0
  -27.9610  -25.0470   19.6670 C   0  0  0  0  0  2  0  0  0  0  0  0
  -28.2260  -26.4080   20.1870 O   0  0  0  0  0  0  0  0  0  0  0  0
  -24.5980  -31.8640   23.2380 C   0  0  0  0  0  0  0  0  0  0  0  0
  -27.1420  -27.3080   20.1140 C   0  0  0  0  0  0  0  0  0  0  0  0
  -23.3680  -30.4830   21.6080 C   0  0  0  0  0  3  0  0  0  0  0  0
  -24.7930  -28.9480   20.1530 C   0  0  0  0  0  0  0  0  0  0  0  0
  -25.9120  -30.7770   21.4120 C   0  0  0  0  0  2  0  0  0  0  0  0
  -25.9730  -29.4080   20.7510 C   0  0  0  0  0  0  0  0  0  0  0  0
  -27.1490  -28.5960   20.7360 C   0  0  0  0  0  3  0  0  0  0  0  0
  -25.9430  -26.9360   19.4510 C   0  0  0  0  0  3  0  0  0  0  0  0
  -24.7790  -27.7140   19.5000 C   0  0  0  0  0  3  0  0  0  0  0  0
  -23.5630  -29.8240   20.2210 C   0  0  0  0  0  2  0  0  0  0  0  0
  -24.6450  -31.0570   22.1400 N   0  0  0  0  0  0  0  0  0  0  0  0
  -23.5210  -32.1490   23.7810 O   0  0  0  0  0  0  0  0  0  0  0  0
  -22.7100  -29.4590   22.5660 C   0  0  0  0  0  0  0  0  0  0  0  0
  -21.3850  -29.2770   22.4390 N   0  0  0  0  0  0  0  0  0  0  0  0
  -23.3920  -28.8360   23.3850 O   0  0  0  0  0  0  0  0  0  0  0  0
  -20.8950  -29.8320   21.7520 H   0  0  0  0  0  0  0  0  0  0  0  0
  -18.0080  -28.0900   22.9600 C   0  0  0  0  0  0  0  0  0  0  0  0
  -20.5690  -28.3420   23.2140 C   0  0  0  0  0  3  0  0  0  0  0  0
  -20.6630  -26.9100   22.6380 C   0  0  0  0  0  2  0  0  0  0  0  0
  -19.5530  -26.5890   21.6310 C   0  0  0  0  0  2  0  0  0  0  0  0
  -18.1750  -26.7400   22.2820 C   0  0  0  0  0  2  0  0  0  0  0  0
  -19.1320  -28.8490   23.3820 C   0  0  0  0  0  0  0  0  0  0  0  0
  -18.9200  -30.1130   23.9740 C   0  0  0  0  0  3  0  0  0  0  0  0
  -17.6180  -30.6190   24.1470 C   0  0  0  0  0  3  0  0  0  0  0  0
  -16.5080  -29.8560   23.7410 C   0  0  0  0  0  3  0  0  0  0  0  0
  -16.7050  -28.5940   23.1550 C   0  0  0  0  0  3  0  0  0  0  0  0
  -25.8920  -32.4870   23.8470 C   0  0  0  0  0  3  0  0  0  0  0  0
  -26.4130  -31.7150   25.1200 C   0  0  1  0  0  0  0  0  0  0  0  0
  -25.3240  -31.4700   26.1900 C   0  0  0  0  0  1  0  0  0  0  0  0
  -27.0040  -30.3400   24.7290 C   0  0  0  0  0  1  0  0  0  0  0  0
  -27.5630  -32.5130   25.7790 C   0  0  0  0  0  1  0  0  0  0  0  0
  -25.5960  -33.8890   24.1750 N   0  0  0  0  0  0  0  0  0  0  0  0
  -25.9050  -34.9340   23.3970 C   0  0  0  0  0  0  0  0  0  0  0  0
  -26.5400  -34.8220   22.3450 O   0  0  0  0  0  0  0  0  0  0  0  0
  -25.0290  -34.0500   24.9940 H   0  0  0  0  0  0  0  0  0  0  0  0
  -24.1650  -36.7250   23.0920 C   0  0  0  0  0  1  0  0  0  0  0  0
  -25.4350  -36.3270   23.8610 C   0  0  0  0  0  3  0  0  0  0  0  0
  -27.5920  -37.2220   24.6180 C   0  0  0  0  0  1  0  0  0  0  0  0
  -26.4630  -37.3780   23.7050 N   0  0  0  0  0  0  0  0  0  0  0  0
  -26.0620  -38.3000   23.8530 H   0  0  0  0  0  0  0  0  0  0  0  0
  -31.4050  -20.8610   23.0310 C   0  0  0  0  0  2  0  0  0  0  0  0
  -31.9730  -22.2390   25.0080 C   0  0  0  0  0  1  0  0  0  0  0  0
  -31.4800  -20.9410   24.5060 N   0  0  0  0  0  4  0  0  0  0  0  0
  -30.5630  -20.7880   24.8940 H   0  0  0  0  0  0  0  0  0  0  0  0
  -32.0840  -20.2160   24.8550 H   0  0  0  0  0  0  0  0  0  0  0  0
  2  1  1  0
  3  6  1  0
  3  4  1  0
  4 49  1  0
  4  5  1  0
  5  1  1  0
  5 93  1  0
  6 15  1  0
  6  2  1  0
  7 15  1  0
  8 13  1  0
  9 10  1  0
  9  8  1  0
 11 10  1  0
 11 20  1  0
 11 12  1  0
 13  7  1  0
 13 12  1  0
 14  7  2  0
 15 16  1  0
 17 18  2  0
 18 37  1  0
 19 18  1  0
 19 22  1  0
 20 21  1  0
 20 17  1  0
 21 19  2  0
 22 23  1  0
 23 24  2  0
 25 28  1  0
 25 24  1  0
 26 25  2  0
 27 26  1  0
 27 22  2  0
 28 29  1  0
 29 30  1  0
 30 31  2  0
 32 31  1  0
 32 36  1  0
 33 32  2  0
 34 29  2  0
 34 33  1  0
 35 34  1  0
 37 38  1  0
 38 41  1  0
 38 40  1  0
 39 37  2  0
 42 17  1  0
 42 43  1  0
 44 42  1  0
 45 49  1  0
 47 45  2  0
 47 50  1  0
 48 46  1  0
 49 46  2  0
 50 48  2  0
 51 50  1  0
 51 52  1  0
 53 64  2  0
 54 52  1  0
 54 59  1  0
 55 63  1  0
 55 65  1  0
 56 62  1  0
 56 58  1  0
 57 63  1  0
 58 57  1  0
 59 58  2  0
 60 61  1  0
 60 54  2  0
 61 56  2  0
 62 55  1  0
 63 53  1  0
 65 67  2  0
 66 65  1  0
 68 66  1  0
 69 78  2  0
 69 74  1  0
 70 66  1  0
 70 74  1  0
 71 70  1  0
 72 73  1  0
 72 71  1  0
 73 69  1  0
 74 75  2  0
 75 76  1  0
 77 76  2  0
 78 77  1  0
 79 53  1  0
 79 84  1  0
 79 80  1  0
 80 83  1  1
 80 81  1  0
 82 80  1  0
 84 87  1  0
 85 89  1  0
 85 84  1  0
 86 85  2  0
 89 88  1  0
 91 92  1  0
 91 89  1  0
 91 90  1  0
 93 95  1  0
 95 97  1  0
 95 96  1  0
 95 94  1  0
M  ISO  4   7 100  15 100  51 101  52 101
M  END
>  <TORSDO>  (15) 
F 20

>  <SCORE>  (15) 
-12.503

>  <name>  (15) 
14

>  <ligand_id>  (15) 
14

>  <original_smiles>  (15) 
[H]c1c([H])c([H])c2c(c1[H])C([H])([H])C([H])([H])C([H])([H])C2([H])N([H])C(=O)C1([H])N(C(=O)C([H])(N([H])C(=O)C([H])(N([H])C([H])([H])[H])C([H])([H])[H])C(C([H])([H])[H])(C([H])([H])[H])C([H])([H])[H])C([H])([H])c2c([H])c(OC([H])([H])c3c([H])c([H])c(C4([H])C([H])([H])C([H])(N([H])C(=O)N5C([H])([H])C([H])([H])C([H])([H])C([H])(n6nc(-c7c([H])c([H])c(Oc8c([H])c([H])c(F)c([H])c8F)c([H])c7[H])c(C(=O)N([H])[H])c6N([H])[H])C5([H])[H])C([H])([H])C([H])([H])C4([H])C([H])([H])[N+]([H])([H])C([H])([H])[H])c([H])c3[H])c([H])c([H])c2C1([H])[H]

>  <smiles>  (15) 
[H]c1c([H])c([H])c2c(c1[H])C([H])([H])C([H])([H])C([H])([H])C2([H])N([H])C(=O)C1([H])N(C(=O)C([H])(N([H])C(=O)C([H])(N([H])C([H])([H])[H])C([H])([H])[H])C(C([H])([H])[H])(C([H])([H])[H])C([H])([H])[H])C([H])([H])c2c([H])c(OC([H])([H])c3c([H])c([H])c(C4([H])C([H])([H])C([H])(N([H])C(=O)N5C([H])([H])C([H])([H])C([H])([H])C([H])(n6nc(-c7c([H])c([H])c(Oc8c([H])c([H])c(F)c([H])c8F)c([H])c7[H])c(C(=O)N([H])[H])c6N([H])[H])C5([H])[H])C([H])([H])C([H])([H])C4([H])C([H])([H])[N+]([H])([H])C([H])([H])[H])c([H])c3[H])c([H])c([H])c2C1([H])[H]

$$$$
15:0:0
     RDKit          3D

 97106  0  0  1  0  0  0  0  0999 V2000
  -29.5490  -20.8260   20.7620 C   0  0  0  0  0  3  0  0  0  0  0  0
  -29.4240  -19.4250   20.7610 C   0  0  0  0  0  3  0  0  0  0  0  0
  -27.6900  -19.5940   19.0750 C   0  0  0  0  0  3  0  0  0  0  0  0
  -28.7580  -21.6350   19.9140 C   0  0  0  0  0  0  0  0  0  0  0  0
  -27.8170  -21.0020   19.0570 C   0  0  0  0  0  0  0  0  0  0  0  0
  -28.4840  -18.7900   19.9170 C   0  0  0  0  0  0  0  0  0  0  0  0
  -26.9250  -21.7930   18.1140 C   0  0  0  0  0  1  0  0  0  0  0  0
  -29.6290  -25.5970   21.4620 C   0  0  0  0  0  2  0  0  0  0  0  0
  -27.9380  -23.8280   20.8950 C   0  0  0  0  0  2  0  0  0  0  0  0
  -30.5920  -24.9730   20.4350 C   0  0  0  0  0  2  0  0  0  0  0  0
  -28.9630  -23.1590   19.9430 C   0  0  0  0  0  3  0  0  0  0  0  0
  -28.1570  -25.3410   21.1020 C   0  0  0  0  0  3  0  0  0  0  0  0
  -31.3640  -22.9260   19.3350 C   0  0  0  0  0  1  0  0  0  0  0  0
  -30.3760  -23.5100   20.2780 N   0  0  1  0  0  4  0  0  0  0  0  0
  -30.5770  -23.0940   21.1750 H   0  0  0  0  0  0  0  0  0  0  0  0
  -26.5990  -26.8050   19.7780 C   0  0  0  0  0  0  0  0  0  0  0  0
  -25.3770  -28.3960   18.3380 C   0  0  0  0  0  2  0  0  0  0  0  0
  -24.5960  -27.6720   17.2260 C   0  0  0  0  0  2  0  0  0  0  0  0
  -25.4940  -27.4170   16.0000 C   0  0  0  0  0  2  0  0  0  0  0  0
  -26.8480  -26.7650   16.3830 C   0  0  0  0  0  3  0  0  0  0  0  0
  -27.5110  -27.5370   17.5430 C   0  0  0  0  0  2  0  0  0  0  0  0
  -26.5600  -27.5910   18.6720 N   0  0  0  0  0  0  0  0  0  0  0  0
  -25.6770  -26.7240   20.5950 O   0  0  0  0  0  0  0  0  0  0  0  0
  -27.7550  -26.1490   19.9450 N   0  0  0  0  0  0  0  0  0  0  0  0
  -28.4460  -26.3380   19.2350 H   0  0  0  0  0  0  0  0  0  0  0  0
  -28.7360  -25.7400   14.9620 C   0  0  0  0  0  0  0  0  0  0  0  0
  -29.2170  -26.0520   13.7180 C   0  0  0  0  0  0  0  0  0  0  0  0
  -28.4560  -27.1770   13.2720 C   0  0  0  0  0  0  0  0  0  0  0  0
  -27.7370  -26.6640   15.2260 N   0  0  0  0  0  0  0  0  0  0  0  0
  -27.6090  -27.5630   14.2170 N   0  0  0  0  0  0  0  0  0  0  0  0
  -28.4460  -27.8730   11.9790 C   0  0  0  0  0  0  0  0  0  0  0  0
  -29.0950  -29.1160   11.8050 C   0  0  0  0  0  3  0  0  0  0  0  0
  -29.0860  -29.7570   10.5480 C   0  0  0  0  0  3  0  0  0  0  0  0
  -28.4270  -29.1560    9.4490 C   0  0  0  0  0  0  0  0  0  0  0  0
  -27.7640  -27.9300    9.6340 C   0  0  0  0  0  3  0  0  0  0  0  0
  -27.7680  -27.2950   10.8870 C   0  0  0  0  0  3  0  0  0  0  0  0
  -28.3440  -29.7170    8.1970 O   0  0  0  0  0  0  0  0  0  0  0  0
  -29.4670  -30.0570    7.4860 C   0  0  0  0  0  0  0  0  0  0  0  0
  -30.4420  -29.1000    7.1310 C   0  0  0  0  0  3  0  0  0  0  0  0
  -31.5450  -29.4790    6.3400 C   0  0  0  0  0  3  0  0  0  0  0  0
  -31.6690  -30.8080    5.8950 C   0  0  0  0  0  0  0  0  0  0  0  0
  -30.6960  -31.7620    6.2430 C   0  0  0  0  0  3  0  0  0  0  0  0
  -29.5970  -31.3860    7.0340 C   0  0  0  0  0  0  0  0  0  0  0  0
  -28.6510  -32.3030    7.3480 F   0  0  0  0  0  0  0  0  0  0  0  0
  -32.7250  -31.1710    5.1280 F   0  0  0  0  0  0  0  0  0  0  0  0
  -30.2540  -25.2930   12.9420 C   0  0  0  0  0  0  0  0  0  0  0  0
  -31.2970  -25.9740   12.4810 N   0  0  0  0  0  0  0  0  0  0  0  0
  -30.1670  -24.0750   12.7820 O   0  0  0  0  0  0  0  0  0  0  0  0
  -31.3770  -26.9690   12.6300 H   0  0  0  0  0  0  0  0  0  0  0  0
  -32.0250  -25.4950   11.9730 H   0  0  0  0  0  0  0  0  0  0  0  0
  -29.0510  -24.7430   15.8790 N   0  0  0  0  0  0  0  0  0  0  0  0
  -29.7070  -24.0030   15.6560 H   0  0  0  0  0  0  0  0  0  0  0  0
  -28.5110  -24.5600   16.7150 H   0  0  0  0  0  0  0  0  0  0  0  0
  -28.2830  -17.4260   19.8630 O   0  0  0  0  0  0  0  0  0  0  0  0
  -29.0120  -16.6060   20.7720 C   0  0  0  0  0  2  0  0  0  0  0  0
  -29.0290  -15.1420   20.3010 C   0  0  0  0  0  2  0  0  0  0  0  0
  -29.9790  -14.3980   21.0680 O   0  0  0  0  0  0  0  0  0  0  0  0
  -35.4500   -9.8870   21.2210 C   0  0  0  0  0  0  0  0  0  0  0  0
  -31.2490  -14.1510   20.5920 C   0  0  0  0  0  0  0  0  0  0  0  0
  -35.8600  -12.0080   20.0160 C   0  0  0  0  0  3  0  0  0  0  0  0
  -33.8060  -13.4550   19.5930 C   0  0  0  0  0  0  0  0  0  0  0  0
  -33.4970  -11.0500   20.2020 C   0  0  0  0  0  2  0  0  0  0  0  0
  -32.9830  -12.4720   20.1540 C   0  0  0  0  0  0  0  0  0  0  0  0
  -31.7100  -12.8160   20.6540 C   0  0  0  0  0  3  0  0  0  0  0  0
  -32.1080  -15.1390   20.0520 C   0  0  0  0  0  3  0  0  0  0  0  0
  -33.3760  -14.7930   19.5480 C   0  0  0  0  0  3  0  0  0  0  0  0
  -35.1480  -13.0050   19.0640 C   0  0  0  0  0  2  0  0  0  0  0  0
  -34.9380  -10.9450   20.5310 N   0  0  0  0  0  0  0  0  0  0  0  0
  -36.6710   -9.7660   21.3940 O   0  0  0  0  0  0  0  0  0  0  0  0
  -36.5530  -12.8130   21.1390 C   0  0  0  0  0  0  0  0  0  0  0  0
  -37.8620  -13.0650   20.9720 N   0  0  0  0  0  0  0  0  0  0  0  0
  -35.9150  -13.2190   22.1130 O   0  0  0  0  0  0  0  0  0  0  0  0
  -38.3140  -12.6910   20.1500 H   0  0  0  0  0  0  0  0  0  0  0  0
  -41.2670  -13.5120   22.0910 C   0  0  0  0  0  0  0  0  0  0  0  0
  -38.7110  -13.8340   21.8790 C   0  0  0  0  0  3  0  0  0  0  0  0
  -39.0380  -15.2260   21.2900 C   0  0  0  0  0  2  0  0  0  0  0  0
  -40.3490  -15.2530   20.5000 C   0  0  0  0  0  2  0  0  0  0  0  0
  -41.5230  -14.8360   21.3910 C   0  0  0  0  0  2  0  0  0  0  0  0
  -39.9470  -13.0350   22.3070 C   0  0  0  0  0  0  0  0  0  0  0  0
  -39.7650  -11.7810   22.9290 C   0  0  0  0  0  3  0  0  0  0  0  0
  -40.8710  -11.0120   23.3360 C   0  0  0  0  0  3  0  0  0  0  0  0
  -42.1750  -11.4970   23.1360 C   0  0  0  0  0  3  0  0  0  0  0  0
  -42.3710  -12.7450   22.5190 C   0  0  0  0  0  3  0  0  0  0  0  0
  -34.5310   -8.7670   21.8030 C   0  0  0  0  0  3  0  0  0  0  0  0
  -34.3690   -8.8470   23.3700 C   0  0  1  0  0  0  0  0  0  0  0  0
  -35.4380   -8.0430   24.1480 C   0  0  0  0  0  1  0  0  0  0  0  0
  -34.4420  -10.3150   23.8530 C   0  0  0  0  0  1  0  0  0  0  0  0
  -32.9770   -8.3150   23.7820 C   0  0  0  0  0  1  0  0  0  0  0  0
  -35.1040   -7.4750   21.4050 N   0  0  0  0  0  0  0  0  0  0  0  0
  -34.3990   -6.4560   20.8930 C   0  0  0  0  0  0  0  0  0  0  0  0
  -33.1710   -6.4850   20.7730 O   0  0  0  0  0  0  0  0  0  0  0  0
  -36.1100   -7.4000   21.4240 H   0  0  0  0  0  0  0  0  0  0  0  0
  -34.7780   -4.8390   19.0060 C   0  0  0  0  0  1  0  0  0  0  0  0
  -35.1810   -5.2090   20.4420 C   0  0  0  0  0  3  0  0  0  0  0  0
  -35.7200   -4.1480   22.5900 C   0  0  0  0  0  1  0  0  0  0  0  0
  -34.9890   -4.0400   21.3300 N   0  0  0  0  0  0  0  0  0  0  0  0
  -35.2800   -3.1840   20.8660 H   0  0  0  0  0  0  0  0  0  0  0  0
  2  1  1  0
  3  6  1  0
  4  1  2  0
  5  3  2  0
  5  4  1  0
  6  2  2  0
  7  5  1  0
  9 12  1  0
 10  8  1  0
 11  4  1  0
 11 14  1  0
 11  9  1  0
 12 24  1  0
 12  8  1  0
 13 14  1  0
 14 10  1  0
 14 15  1  1
 16 24  1  0
 16 23  2  0
 17 22  1  0
 18 17  1  0
 19 20  1  0
 19 18  1  0
 20 29  1  0
 20 21  1  0
 21 22  1  0
 22 16  1  0
 25 24  1  0
 26 29  1  0
 26 51  1  0
 27 26  2  0
 28 27  1  0
 28 30  2  0
 30 29  1  0
 31 28  1  0
 32 31  1  0
 33 32  2  0
 34 35  2  0
 34 33  1  0
 35 36  1  0
 36 31  2  0
 37 34  1  0
 38 37  1  0
 39 38  1  0
 40 39  2  0
 41 42  2  0
 41 40  1  0
 42 43  1  0
 43 44  1  0
 43 38  2  0
 45 41  1  0
 46 27  1  0
 47 49  1  0
 47 46  1  0
 48 46  2  0
 50 47  1  0
 51 53  1  0
 52 51  1  0
 54  6  1  0
 54 55  1  0
 56 55  1  0
 56 57  1  0
 58 69  2  0
 59 64  1  0
 59 57  1  0
 60 68  1  0
 60 70  1  0
 61 63  1  0
 62 68  1  0
 63 62  1  0
 63 64  2  0
 65 59  2  0
 66 61  2  0
 66 65  1  0
 67 61  1  0
 67 60  1  0
 68 58  1  0
 70 72  2  0
 71 70  1  0
 73 71  1  0
 74 79  2  0
 74 83  1  0
 75 71  1  0
 75 79  1  0
 76 75  1  0
 77 76  1  0
 77 78  1  0
 78 74  1  0
 79 80  1  0
 80 81  2  0
 82 81  1  0
 83 82  2  0
 84 58  1  0
 84 85  1  0
 85 88  1  6
 85 87  1  0
 85 86  1  0
 89 92  1  0
 89 84  1  0
 90 89  1  0
 91 90  2  0
 94 93  1  0
 94 90  1  0
 94 96  1  0
 96 95  1  0
 97 96  1  0
M  ISO  4  16 100  24 100  56 101  57 101
M  END
>  <TORSDO>  (16) 
F 20

>  <SCORE>  (16) 
-6.247

>  <name>  (16) 
15

>  <ligand_id>  (16) 
15

>  <original_smiles>  (16) 
[H]c1c([H])c([H])c2c(c1[H])C([H])([H])C([H])([H])C([H])([H])C2([H])N([H])C(=O)C1([H])N(C(=O)C([H])(N([H])C(=O)C([H])(N([H])C([H])([H])[H])C([H])([H])[H])C(C([H])([H])[H])(C([H])([H])[H])C([H])([H])[H])C([H])([H])c2c([H])c(OC([H])([H])C([H])([H])Oc3c([H])c([H])c(C4([H])C([H])([H])C([H])(N([H])C(=O)N5C([H])([H])C([H])([H])C([H])([H])C([H])(n6nc(-c7c([H])c([H])c(Oc8c([H])c([H])c(F)c([H])c8F)c([H])c7[H])c(C(=O)N([H])[H])c6N([H])[H])C5([H])[H])C([H])([H])C([H])([H])[N+]4([H])C([H])([H])[H])c(C([H])([H])[H])c3[H])c([H])c([H])c2C1([H])[H]

>  <smiles>  (16) 
[H]c1c([H])c([H])c2c(c1[H])C([H])([H])C([H])([H])C([H])([H])C2([H])N([H])C(=O)C1([H])N(C(=O)C([H])(N([H])C(=O)C([H])(N([H])C([H])([H])[H])C([H])([H])[H])C(C([H])([H])[H])(C([H])([H])[H])C([H])([H])[H])C([H])([H])c2c([H])c(OC([H])([H])C([H])([H])Oc3c([H])c([H])c(C4([H])C([H])([H])C([H])(N([H])C(=O)N5C([H])([H])C([H])([H])C([H])([H])C([H])(n6nc(-c7c([H])c([H])c(Oc8c([H])c([H])c(F)c([H])c8F)c([H])c7[H])c(C(=O)N([H])[H])c6N([H])[H])C5([H])[H])C([H])([H])C([H])([H])[N+]4([H])C([H])([H])[H])c(C([H])([H])[H])c3[H])c([H])c([H])c2C1([H])[H]

$$$$
16:0:0
     RDKit          3D

 95104  0  0  1  0  0  0  0  0999 V2000
  -29.7860  -20.2890   19.8550 N   0  0  0  0  0  4  0  0  0  0  0  0
  -30.7560  -20.2660   20.1290 H   0  0  0  0  0  0  0  0  0  0  0  0
  -29.7950  -20.3290   18.8490 H   0  0  0  0  0  0  0  0  0  0  0  0
  -29.9650  -17.7720   17.6940 C   0  0  0  0  0  2  0  0  0  0  0  0
  -28.5190  -17.5310   18.1670 C   0  0  0  0  0  2  0  0  0  0  0  0
  -31.0100  -17.6060   18.8230 C   0  0  0  0  0  2  0  0  0  0  0  0
  -28.0950  -18.4880   19.3110 C   0  0  0  0  0  3  0  0  0  0  0  0
  -30.3910  -17.6220   20.2450 C   0  0  0  0  0  3  0  0  0  0  0  0
  -29.2760  -18.8650   20.2530 C   0  0  0  0  0  3  0  0  0  0  0  0
  -26.8830  -17.9570   20.0900 C   0  0  0  0  0  1  0  0  0  0  0  0
  -30.7960  -14.9670   20.4390 C   0  0  0  0  0  0  0  0  0  0  0  0
  -30.5990  -12.7000   19.3800 C   0  0  0  0  0  2  0  0  0  0  0  0
  -29.6790  -12.8010   18.1420 C   0  0  0  0  0  2  0  0  0  0  0  0
  -28.2030  -12.6180   18.5460 C   0  0  0  0  0  2  0  0  0  0  0  0
  -27.8180  -13.4610   19.7900 C   0  0  0  0  0  3  0  0  0  0  0  0
  -28.8670  -13.3580   20.9200 C   0  0  0  0  0  2  0  0  0  0  0  0
  -30.1610  -13.7410   20.3450 N   0  0  0  0  0  0  0  0  0  0  0  0
  -31.9930  -15.0340   20.1480 O   0  0  0  0  0  0  0  0  0  0  0  0
  -30.0440  -16.1420   20.6130 N   0  0  0  0  0  0  0  0  0  0  0  0
  -29.0800  -15.9830   20.8630 H   0  0  0  0  0  0  0  0  0  0  0  0
  -25.4120  -14.0250   20.4690 C   0  0  0  0  0  0  0  0  0  0  0  0
  -24.3480  -13.2470   20.8260 C   0  0  0  0  0  0  0  0  0  0  0  0
  -24.8220  -11.9010   20.8090 C   0  0  0  0  0  0  0  0  0  0  0  0
  -26.4700  -13.1560   20.2590 N   0  0  0  0  0  0  0  0  0  0  0  0
  -26.1200  -11.8720   20.5280 N   0  0  0  0  0  0  0  0  0  0  0  0
  -24.0990  -10.6360   20.9880 C   0  0  0  0  0  0  0  0  0  0  0  0
  -24.5010   -9.6860   21.9520 C   0  0  0  0  0  3  0  0  0  0  0  0
  -23.7780   -8.4860   22.1210 C   0  0  0  0  0  3  0  0  0  0  0  0
  -22.6370   -8.2280   21.3230 C   0  0  0  0  0  0  0  0  0  0  0  0
  -22.2540   -9.1670   20.3490 C   0  0  0  0  0  3  0  0  0  0  0  0
  -22.9780  -10.3590   20.1800 C   0  0  0  0  0  3  0  0  0  0  0  0
  -21.8870   -7.0800   21.3990 O   0  0  0  0  0  0  0  0  0  0  0  0
  -21.7770   -6.3680   22.5670 C   0  0  0  0  0  0  0  0  0  0  0  0
  -21.2340   -6.9380   23.7380 C   0  0  0  0  0  3  0  0  0  0  0  0
  -21.0730   -6.1510   24.8950 C   0  0  0  0  0  3  0  0  0  0  0  0
  -21.4470   -4.7930   24.8810 C   0  0  0  0  0  0  0  0  0  0  0  0
  -21.9840   -4.2220   23.7140 C   0  0  0  0  0  3  0  0  0  0  0  0
  -22.1440   -5.0070   22.5590 C   0  0  0  0  0  0  0  0  0  0  0  0
  -22.6420   -4.4460   21.4310 F   0  0  0  0  0  0  0  0  0  0  0  0
  -21.2860   -4.0350   25.9900 F   0  0  0  0  0  0  0  0  0  0  0  0
  -22.9430  -13.7180   21.0660 C   0  0  0  0  0  0  0  0  0  0  0  0
  -22.2050  -13.0290   21.9280 N   0  0  0  0  0  0  0  0  0  0  0  0
  -22.5100  -14.7360   20.5250 O   0  0  0  0  0  0  0  0  0  0  0  0
  -22.5680  -12.2060   22.3860 H   0  0  0  0  0  0  0  0  0  0  0  0
  -21.2620  -13.3280   22.1320 H   0  0  0  0  0  0  0  0  0  0  0  0
  -25.5580  -15.3920   20.2780 N   0  0  0  0  0  0  0  0  0  0  0  0
  -24.7670  -16.0210   20.3530 H   0  0  0  0  0  0  0  0  0  0  0  0
  -26.3860  -15.8420   19.9130 H   0  0  0  0  0  0  0  0  0  0  0  0
  -30.2700  -22.8570   19.9790 C   0  0  0  0  0  2  0  0  0  0  0  0
  -27.8980  -22.2840   19.9170 C   0  0  0  0  0  2  0  0  0  0  0  0
  -29.8970  -24.3580   20.3680 C   0  0  0  0  0  2  0  0  0  0  0  0
  -27.5390  -23.7970   20.3580 C   0  0  0  0  0  2  0  0  0  0  0  0
  -29.2910  -21.6870   20.3850 C   0  0  0  0  0  3  0  0  0  0  0  0
  -28.5210  -24.9500   19.8920 C   0  0  0  0  0  3  0  0  0  0  0  0
  -28.4000  -26.4040   20.3520 O   0  0  0  0  0  0  0  0  0  0  0  0
  -24.6240  -31.9040   23.2460 C   0  0  0  0  0  0  0  0  0  0  0  0
  -27.2770  -27.2710   20.2390 C   0  0  0  0  0  0  0  0  0  0  0  0
  -23.4400  -30.4880   21.6050 C   0  0  0  0  0  3  0  0  0  0  0  0
  -24.9100  -28.9230   20.1930 C   0  0  0  0  0  0  0  0  0  0  0  0
  -25.9840  -30.7990   21.4420 C   0  0  0  0  0  2  0  0  0  0  0  0
  -26.0740  -29.4100   20.8010 C   0  0  0  0  0  0  0  0  0  0  0  0
  -27.2550  -28.5960   20.8090 C   0  0  0  0  0  3  0  0  0  0  0  0
  -26.0920  -26.8570   19.5950 C   0  0  0  0  0  3  0  0  0  0  0  0
  -24.9270  -27.6580   19.5790 C   0  0  0  0  0  3  0  0  0  0  0  0
  -23.6700  -29.8000   20.2320 C   0  0  0  0  0  2  0  0  0  0  0  0
  -24.7020  -31.0850   22.1540 N   0  0  0  0  0  0  0  0  0  0  0  0
  -23.5350  -32.1790   23.7720 O   0  0  0  0  0  0  0  0  0  0  0  0
  -22.7720  -29.4800   22.5710 C   0  0  0  0  0  0  0  0  0  0  0  0
  -21.4440  -29.3020   22.4430 N   0  0  0  0  0  0  0  0  0  0  0  0
  -23.4470  -28.8590   23.3960 O   0  0  0  0  0  0  0  0  0  0  0  0
  -20.9580  -29.8550   21.7510 H   0  0  0  0  0  0  0  0  0  0  0  0
  -18.0640  -28.1150   22.9580 C   0  0  0  0  0  0  0  0  0  0  0  0
  -20.6260  -28.3650   23.2140 C   0  0  0  0  0  3  0  0  0  0  0  0
  -20.7180  -26.9350   22.6320 C   0  0  0  0  0  2  0  0  0  0  0  0
  -19.6100  -26.6210   21.6210 C   0  0  0  0  0  2  0  0  0  0  0  0
  -18.2330  -26.7690   22.2740 C   0  0  0  0  0  2  0  0  0  0  0  0
  -19.1890  -28.8710   23.3860 C   0  0  0  0  0  0  0  0  0  0  0  0
  -18.9770  -30.1300   23.9880 C   0  0  0  0  0  3  0  0  0  0  0  0
  -17.6760  -30.6350   24.1650 C   0  0  0  0  0  3  0  0  0  0  0  0
  -16.5660  -29.8760   23.7550 C   0  0  0  0  0  3  0  0  0  0  0  0
  -16.7610  -28.6180   23.1580 C   0  0  0  0  0  3  0  0  0  0  0  0
  -25.8960  -32.5510   23.8770 C   0  0  0  0  0  3  0  0  0  0  0  0
  -25.5770  -33.9510   24.1910 N   0  0  0  0  0  0  0  0  0  0  0  0
  -25.9120  -35.0010   23.4290 C   0  0  0  0  0  0  0  0  0  0  0  0
  -26.5920  -34.8910   22.4040 O   0  0  0  0  0  0  0  0  0  0  0  0
  -24.9730  -34.1090   24.9840 H   0  0  0  0  0  0  0  0  0  0  0  0
  -24.1880  -36.7930   23.0430 C   0  0  0  0  0  1  0  0  0  0  0  0
  -25.4180  -36.3910   23.8730 C   0  0  0  0  0  3  0  0  0  0  0  0
  -27.5320  -37.2960   24.7370 C   0  0  0  0  0  1  0  0  0  0  0  0
  -26.4510  -37.4450   23.7670 N   0  0  0  0  0  0  0  0  0  0  0  0
  -26.0390  -38.3670   23.8920 H   0  0  0  0  0  0  0  0  0  0  0  0
  -26.4020  -31.7970   25.1700 C   0  0  1  0  0  0  0  0  0  0  0  0
  -25.2950  -31.5620   26.2260 C   0  0  0  0  0  1  0  0  0  0  0  0
  -27.0030  -30.4210   24.8050 C   0  0  0  0  0  1  0  0  0  0  0  0
  -27.5350  -32.6100   25.8410 C   0  0  0  0  0  1  0  0  0  0  0  0
  1  2  1  0
  3  1  1  0
  4  5  1  0
  4  6  1  0
  5  7  1  0
  6  8  1  0
  7 10  1  0
  7  9  1  0
  8  9  1  0
  8 19  1  0
  9  1  1  0
 11 19  1  0
 12 17  1  0
 13 14  1  0
 13 12  1  0
 15 14  1  0
 15 24  1  0
 15 16  1  0
 17 11  1  0
 17 16  1  0
 18 11  2  0
 19 20  1  0
 21 22  2  0
 22 41  1  0
 23 22  1  0
 23 26  1  0
 24 21  1  0
 24 25  1  0
 25 23  2  0
 26 27  1  0
 27 28  2  0
 29 32  1  0
 29 28  1  0
 30 29  2  0
 31 30  1  0
 31 26  2  0
 32 33  1  0
 33 34  1  0
 34 35  2  0
 36 35  1  0
 36 40  1  0
 37 36  2  0
 38 33  2  0
 38 37  1  0
 39 38  1  0
 41 42  1  0
 42 45  1  0
 42 44  1  0
 43 41  2  0
 46 47  1  0
 46 21  1  0
 48 46  1  0
 49 51  1  0
 49 53  1  0
 50 52  1  0
 50 53  1  0
 53  1  1  0
 54 55  1  0
 54 52  1  0
 54 51  1  0
 56 67  2  0
 57 55  1  0
 57 62  1  0
 58 66  1  0
 58 68  1  0
 59 65  1  0
 59 61  1  0
 60 66  1  0
 61 62  2  0
 61 60  1  0
 63 57  2  0
 64 63  1  0
 64 59  2  0
 65 58  1  0
 66 56  1  0
 68 70  2  0
 69 68  1  0
 71 69  1  0
 72 81  2  0
 72 77  1  0
 73 69  1  0
 73 77  1  0
 74 73  1  0
 75 76  1  0
 75 74  1  0
 76 72  1  0
 77 78  2  0
 78 79  1  0
 80 79  2  0
 81 80  1  0
 82 56  1  0
 82 83  1  0
 82 92  1  0
 83 86  1  0
 84 88  1  0
 84 83  1  0
 85 84  2  0
 88 87  1  0
 90 88  1  0
 90 91  1  0
 90 89  1  0
 92 95  1  1
 92 93  1  0
 94 92  1  0
M  ISO  4  11 100  19 100  54 101  55 101
M  END
>  <TORSDO>  (17) 
F 18

>  <SCORE>  (17) 
-14.730

>  <name>  (17) 
16

>  <ligand_id>  (17) 
16

>  <original_smiles>  (17) 
[H]c1c([H])c([H])c2c(c1[H])C([H])([H])C([H])([H])C([H])([H])C2([H])N([H])C(=O)C1([H])N(C(=O)C([H])(N([H])C(=O)C([H])(N([H])C([H])([H])[H])C([H])([H])[H])C(C([H])([H])[H])(C([H])([H])[H])C([H])([H])[H])C([H])([H])c2c([H])c(OC3([H])C([H])([H])C([H])([H])C([H])([N+]([H])([H])C4([H])C([H])(N([H])C(=O)N5C([H])([H])C([H])([H])C([H])([H])C([H])(n6nc(-c7c([H])c([H])c(Oc8c([H])c([H])c(F)c([H])c8F)c([H])c7[H])c(C(=O)N([H])[H])c6N([H])[H])C5([H])[H])C([H])([H])C([H])([H])C([H])([H])C4([H])C([H])([H])[H])C([H])([H])C3([H])[H])c([H])c([H])c2C1([H])[H]

>  <smiles>  (17) 
[H]c1c([H])c([H])c2c(c1[H])C([H])([H])C([H])([H])C([H])([H])C2([H])N([H])C(=O)C1([H])N(C(=O)C([H])(N([H])C(=O)C([H])(N([H])C([H])([H])[H])C([H])([H])[H])C(C([H])([H])[H])(C([H])([H])[H])C([H])([H])[H])C([H])([H])c2c([H])c(OC3([H])C([H])([H])C([H])([H])C([H])([N+]([H])([H])C4([H])C([H])(N([H])C(=O)N5C([H])([H])C([H])([H])C([H])([H])C([H])(n6nc(-c7c([H])c([H])c(Oc8c([H])c([H])c(F)c([H])c8F)c([H])c7[H])c(C(=O)N([H])[H])c6N([H])[H])C5([H])[H])C([H])([H])C([H])([H])C([H])([H])C4([H])C([H])([H])[H])C([H])([H])C3([H])[H])c([H])c([H])c2C1([H])[H]

$$$$
17:0:0
     RDKit          3D

 92100  0  0  1  0  0  0  0  0999 V2000
  -28.6340  -23.7940   19.8430 C   0  0  0  0  0  0  0  0  0  0  0  0
  -28.7120  -24.5470   22.0330 C   0  0  0  0  0  2  0  0  0  0  0  0
  -28.0570  -24.9680   20.6840 C   0  0  0  0  0  3  0  0  0  0  0  0
  -28.6740  -22.5010   20.7470 C   0  0  0  0  0  3  0  0  0  0  0  0
  -28.9840  -23.0790   22.0790 N   0  0  0  0  0  0  0  0  0  0  0  0
  -29.0170  -23.9050   18.6740 O   0  0  0  0  0  0  0  0  0  0  0  0
  -28.4070  -22.6730   22.8120 H   0  0  0  0  0  0  0  0  0  0  0  0
  -28.2950  -26.3890   20.2430 O   0  0  0  0  0  0  0  0  0  0  0  0
  -24.5800  -31.8620   23.2050 C   0  0  0  0  0  0  0  0  0  0  0  0
  -27.1910  -27.2690   20.1920 C   0  0  0  0  0  0  0  0  0  0  0  0
  -23.3720  -30.4610   21.5680 C   0  0  0  0  0  3  0  0  0  0  0  0
  -24.8280  -28.9050   20.1420 C   0  0  0  0  0  0  0  0  0  0  0  0
  -25.9100  -30.7830   21.3700 C   0  0  0  0  0  2  0  0  0  0  0  0
  -25.9970  -29.3970   20.7350 C   0  0  0  0  0  0  0  0  0  0  0  0
  -27.1820  -28.5930   20.7450 C   0  0  0  0  0  3  0  0  0  0  0  0
  -26.0030  -26.8420   19.5620 C   0  0  0  0  0  3  0  0  0  0  0  0
  -24.8360  -27.6350   19.5430 C   0  0  0  0  0  3  0  0  0  0  0  0
  -23.5870  -29.7800   20.1910 C   0  0  0  0  0  2  0  0  0  0  0  0
  -24.6410  -31.0520   22.1080 N   0  0  0  0  0  0  0  0  0  0  0  0
  -23.5000  -32.1350   23.7480 O   0  0  0  0  0  0  0  0  0  0  0  0
  -22.7150  -29.4440   22.5320 C   0  0  0  0  0  0  0  0  0  0  0  0
  -21.3850  -29.2720   22.4200 N   0  0  0  0  0  0  0  0  0  0  0  0
  -23.4000  -28.8100   23.3410 O   0  0  0  0  0  0  0  0  0  0  0  0
  -20.8880  -29.8460   21.7520 H   0  0  0  0  0  0  0  0  0  0  0  0
  -18.0100  -28.0880   22.9480 C   0  0  0  0  0  0  0  0  0  0  0  0
  -20.5730  -28.3380   23.2000 C   0  0  0  0  0  3  0  0  0  0  0  0
  -20.6620  -26.9050   22.6230 C   0  0  0  0  0  2  0  0  0  0  0  0
  -19.5500  -26.5900   21.6180 C   0  0  0  0  0  2  0  0  0  0  0  0
  -18.1740  -26.7380   22.2710 C   0  0  0  0  0  2  0  0  0  0  0  0
  -19.1360  -28.8450   23.3700 C   0  0  0  0  0  0  0  0  0  0  0  0
  -18.9260  -30.1080   23.9650 C   0  0  0  0  0  3  0  0  0  0  0  0
  -17.6260  -30.6130   24.1470 C   0  0  0  0  0  3  0  0  0  0  0  0
  -16.5150  -29.8520   23.7430 C   0  0  0  0  0  3  0  0  0  0  0  0
  -16.7070  -28.5920   23.1450 C   0  0  0  0  0  3  0  0  0  0  0  0
  -25.8630  -32.4970   23.8230 C   0  0  0  0  0  3  0  0  0  0  0  0
  -26.3940  -31.7160   25.0890 C   0  0  1  0  0  0  0  0  0  0  0  0
  -25.3120  -31.4670   26.1660 C   0  0  0  0  0  1  0  0  0  0  0  0
  -26.9790  -30.3460   24.6770 C   0  0  0  0  0  1  0  0  0  0  0  0
  -27.5470  -32.5090   25.7480 C   0  0  0  0  0  1  0  0  0  0  0  0
  -25.5470  -33.8900   24.1690 N   0  0  0  0  0  0  0  0  0  0  0  0
  -25.8670  -34.9530   23.4190 C   0  0  0  0  0  0  0  0  0  0  0  0
  -26.5250  -34.8650   22.3790 O   0  0  0  0  0  0  0  0  0  0  0  0
  -24.9620  -34.0320   24.9790 H   0  0  0  0  0  0  0  0  0  0  0  0
  -24.1200  -36.7380   23.1040 C   0  0  0  0  0  1  0  0  0  0  0  0
  -25.3750  -36.3340   23.8940 C   0  0  0  0  0  3  0  0  0  0  0  0
  -27.5140  -37.2260   24.7010 C   0  0  0  0  0  1  0  0  0  0  0  0
  -26.3960  -37.3970   23.7780 N   0  0  0  0  0  0  0  0  0  0  0  0
  -25.9830  -38.3110   23.9500 H   0  0  0  0  0  0  0  0  0  0  0  0
  -29.5860  -21.2370   20.2750 C   0  0  0  0  0  2  0  0  0  0  0  0
  -29.6240  -19.9360   21.1000 N   0  0  0  0  0  4  0  0  0  0  0  0
  -28.9550  -20.0200   21.8490 H   0  0  0  0  0  0  0  0  0  0  0  0
  -30.5250  -19.9350   21.5490 H   0  0  0  0  0  0  0  0  0  0  0  0
  -29.4430  -18.5460   20.4550 C   0  0  0  0  0  3  0  0  0  0  0  0
  -30.2670  -17.2810   21.0570 C   0  0  0  0  0  3  0  0  0  0  0  0
  -30.5940  -14.7270   20.4180 C   0  0  0  0  0  0  0  0  0  0  0  0
  -30.3720  -12.4690   19.3610 C   0  0  0  0  0  2  0  0  0  0  0  0
  -29.4330  -12.5470   18.1380 C   0  0  0  0  0  2  0  0  0  0  0  0
  -27.9650  -12.3730   18.5700 C   0  0  0  0  0  2  0  0  0  0  0  0
  -27.5960  -13.2590   19.7900 C   0  0  0  0  0  3  0  0  0  0  0  0
  -28.6510  -13.1640   20.9120 C   0  0  0  0  0  2  0  0  0  0  0  0
  -29.9500  -13.5150   20.3200 N   0  0  0  0  0  0  0  0  0  0  0  0
  -31.7730  -14.8380   20.0730 O   0  0  0  0  0  0  0  0  0  0  0  0
  -29.8450  -15.8440   20.7490 N   0  0  0  0  0  0  0  0  0  0  0  0
  -28.8740  -15.6440   20.9360 H   0  0  0  0  0  0  0  0  0  0  0  0
  -25.2060  -13.8600   20.5030 C   0  0  0  0  0  0  0  0  0  0  0  0
  -24.1350  -13.0920   20.8690 C   0  0  0  0  0  0  0  0  0  0  0  0
  -24.5950  -11.7400   20.8460 C   0  0  0  0  0  0  0  0  0  0  0  0
  -26.2480  -12.9780   20.2740 N   0  0  0  0  0  0  0  0  0  0  0  0
  -25.8870  -11.6970   20.5430 N   0  0  0  0  0  0  0  0  0  0  0  0
  -23.8670  -10.4800   21.0390 C   0  0  0  0  0  0  0  0  0  0  0  0
  -24.3100   -9.5050   21.9590 C   0  0  0  0  0  3  0  0  0  0  0  0
  -23.5820   -8.3090   22.1400 C   0  0  0  0  0  3  0  0  0  0  0  0
  -22.3990   -8.0780   21.4010 C   0  0  0  0  0  0  0  0  0  0  0  0
  -21.9750   -9.0420   20.4700 C   0  0  0  0  0  3  0  0  0  0  0  0
  -22.7010  -10.2300   20.2860 C   0  0  0  0  0  3  0  0  0  0  0  0
  -21.6430   -6.9340   21.4900 O   0  0  0  0  0  0  0  0  0  0  0  0
  -21.6240   -6.1720   22.6290 C   0  0  0  0  0  0  0  0  0  0  0  0
  -21.2550   -6.7130   23.8810 C   0  0  0  0  0  3  0  0  0  0  0  0
  -21.1820   -5.8780   25.0130 C   0  0  0  0  0  3  0  0  0  0  0  0
  -21.4690   -4.5040   24.8960 C   0  0  0  0  0  0  0  0  0  0  0  0
  -21.8290   -3.9630   23.6500 C   0  0  0  0  0  3  0  0  0  0  0  0
  -21.9040   -4.7960   22.5190 C   0  0  0  0  0  0  0  0  0  0  0  0
  -22.2330   -4.2660   21.3160 F   0  0  0  0  0  0  0  0  0  0  0  0
  -21.3900   -3.7010   25.9830 F   0  0  0  0  0  0  0  0  0  0  0  0
  -22.7390  -13.5720   21.1360 C   0  0  0  0  0  0  0  0  0  0  0  0
  -22.0140  -12.8770   22.0040 N   0  0  0  0  0  0  0  0  0  0  0  0
  -22.3060  -14.5970   20.6120 O   0  0  0  0  0  0  0  0  0  0  0  0
  -22.3850  -12.0460   22.4400 H   0  0  0  0  0  0  0  0  0  0  0  0
  -21.0750  -13.1760   22.2330 H   0  0  0  0  0  0  0  0  0  0  0  0
  -25.3810  -15.2280   20.3180 N   0  0  0  0  0  0  0  0  0  0  0  0
  -24.6210  -15.8910   20.4110 H   0  0  0  0  0  0  0  0  0  0  0  0
  -26.2320  -15.6480   19.9690 H   0  0  0  0  0  0  0  0  0  0  0  0
  1  3  1  0
  1  4  1  0
  2  5  1  0
  3  8  1  0
  3  2  1  0
  4 49  1  0
  4  5  1  0
  5  7  1  0
  6  1  2  0
  9 20  2  0
 10  8  1  0
 10 15  1  0
 11 19  1  0
 11 21  1  0
 12 18  1  0
 12 14  1  0
 13 19  1  0
 14 15  2  0
 14 13  1  0
 16 10  2  0
 17 16  1  0
 17 12  2  0
 18 11  1  0
 19  9  1  0
 21 23  2  0
 22 21  1  0
 24 22  1  0
 25 34  2  0
 25 30  1  0
 26 22  1  0
 26 30  1  0
 27 26  1  0
 28 29  1  0
 28 27  1  0
 29 25  1  0
 30 31  2  0
 31 32  1  0
 33 32  2  0
 34 33  1  0
 35  9  1  0
 35 40  1  0
 35 36  1  0
 36 39  1  1
 36 37  1  0
 38 36  1  0
 40 43  1  0
 41 45  1  0
 41 40  1  0
 42 41  2  0
 45 44  1  0
 47 45  1  0
 47 48  1  0
 47 46  1  0
 49 50  1  0
 50 52  1  0
 50 51  1  0
 53 54  2  0
 53 50  1  0
 55 63  1  0
 56 61  1  0
 57 58  1  0
 57 56  1  0
 59 58  1  0
 59 68  1  0
 59 60  1  0
 61 55  1  0
 61 60  1  0
 62 55  2  0
 63 64  1  0
 63 54  1  0
 65 66  2  0
 66 85  1  0
 67 66  1  0
 67 70  1  0
 68 65  1  0
 68 69  1  0
 69 67  2  0
 70 71  1  0
 71 72  2  0
 73 76  1  0
 73 72  1  0
 74 73  2  0
 75 74  1  0
 75 70  2  0
 76 77  1  0
 77 78  1  0
 78 79  2  0
 80 79  1  0
 80 84  1  0
 81 80  2  0
 82 77  2  0
 82 81  1  0
 83 82  1  0
 85 86  1  0
 86 89  1  0
 86 88  1  0
 87 85  2  0
 90 91  1  0
 90 65  1  0
 92 90  1  0
M  ISO  4   3 101   8 101  55 100  63 100
M  END
>  <TORSDO>  (18) 
F 20

>  <SCORE>  (18) 
-13.968

>  <name>  (18) 
17

>  <ligand_id>  (18) 
17

>  <original_smiles>  (18) 
[H]c1c([H])c([H])c2c(c1[H])C([H])([H])C([H])([H])C([H])([H])C2([H])N([H])C(=O)C1([H])N(C(=O)C([H])(N([H])C(=O)C([H])(N([H])C([H])([H])[H])C([H])([H])[H])C(C([H])([H])[H])(C([H])([H])[H])C([H])([H])[H])C([H])([H])c2c([H])c(OC3([H])C(=O)C([H])(C([H])([H])[N+]([H])([H])C([H])([H])C([H])([H])N([H])C(=O)N4C([H])([H])C([H])([H])C([H])([H])C([H])(n5nc(-c6c([H])c([H])c(Oc7c([H])c([H])c(F)c([H])c7F)c([H])c6[H])c(C(=O)N([H])[H])c5N([H])[H])C4([H])[H])N([H])C3([H])[H])c([H])c([H])c2C1([H])[H]

>  <smiles>  (18) 
[H]c1c([H])c([H])c2c(c1[H])C([H])([H])C([H])([H])C([H])([H])C2([H])N([H])C(=O)C1([H])N(C(=O)C([H])(N([H])C(=O)C([H])(N([H])C([H])([H])[H])C([H])([H])[H])C(C([H])([H])[H])(C([H])([H])[H])C([H])([H])[H])C([H])([H])c2c([H])c(OC3([H])C(=O)C([H])(C([H])([H])[N+]([H])([H])C([H])([H])C([H])([H])N([H])C(=O)N4C([H])([H])C([H])([H])C([H])([H])C([H])(n5nc(-c6c([H])c([H])c(Oc7c([H])c([H])c(F)c([H])c7F)c([H])c6[H])c(C(=O)N([H])[H])c5N([H])[H])C4([H])[H])N([H])C3([H])[H])c([H])c([H])c2C1([H])[H]

$$$$
18:0:0
     RDKit          3D

 93102  0  0  1  0  0  0  0  0999 V2000
  -30.0050  -22.6070   19.4800 C   0  0  0  0  0  3  0  0  0  0  0  0
  -29.6560  -24.0380   19.4520 C   0  0  0  0  0  3  0  0  0  0  0  0
  -28.1130  -22.2420   20.7140 C   0  0  0  0  0  3  0  0  0  0  0  0
  -29.2770  -21.5430   20.1490 C   0  0  0  0  0  0  0  0  0  0  0  0
  -28.5170  -24.6510   20.0930 C   0  0  0  0  0  0  0  0  0  0  0  0
  -27.7700  -23.6410   20.7080 N   0  0  0  0  0  0  0  0  0  0  0  0
  -28.3410  -26.1720   20.2090 O   0  0  0  0  0  0  0  0  0  0  0  0
  -24.6120  -31.9760   23.2380 C   0  0  0  0  0  0  0  0  0  0  0  0
  -27.2330  -27.1540   20.2160 C   0  0  0  0  0  0  0  0  0  0  0  0
  -23.4240  -30.5550   21.6070 C   0  0  0  0  0  3  0  0  0  0  0  0
  -24.8850  -28.9600   20.1880 C   0  0  0  0  0  0  0  0  0  0  0  0
  -25.9810  -30.8140   21.4350 C   0  0  0  0  0  2  0  0  0  0  0  0
  -26.0690  -29.3980   20.7990 C   0  0  0  0  0  0  0  0  0  0  0  0
  -27.2330  -28.5150   20.7890 C   0  0  0  0  0  3  0  0  0  0  0  0
  -26.0170  -26.8560   19.5610 C   0  0  0  0  0  3  0  0  0  0  0  0
  -24.8790  -27.7020   19.5570 C   0  0  0  0  0  3  0  0  0  0  0  0
  -23.6560  -29.8660   20.2310 C   0  0  0  0  0  2  0  0  0  0  0  0
  -24.6940  -31.1440   22.1470 N   0  0  0  0  0  0  0  0  0  0  0  0
  -23.5260  -32.2520   23.7700 O   0  0  0  0  0  0  0  0  0  0  0  0
  -22.7550  -29.5530   22.5820 C   0  0  0  0  0  0  0  0  0  0  0  0
  -21.4270  -29.3750   22.4680 N   0  0  0  0  0  0  0  0  0  0  0  0
  -23.4330  -28.9410   23.4130 O   0  0  0  0  0  0  0  0  0  0  0  0
  -20.9310  -29.9210   21.7780 H   0  0  0  0  0  0  0  0  0  0  0  0
  -18.0650  -28.1180   22.9760 C   0  0  0  0  0  0  0  0  0  0  0  0
  -20.6200  -28.4270   23.2440 C   0  0  0  0  0  3  0  0  0  0  0  0
  -20.7450  -26.9960   22.6700 C   0  0  0  0  0  2  0  0  0  0  0  0
  -19.6470  -26.6510   21.6590 C   0  0  0  0  0  2  0  0  0  0  0  0
  -18.2640  -26.7730   22.3040 C   0  0  0  0  0  2  0  0  0  0  0  0
  -19.1710  -28.9020   23.4050 C   0  0  0  0  0  0  0  0  0  0  0  0
  -18.9270  -30.1630   23.9950 C   0  0  0  0  0  3  0  0  0  0  0  0
  -17.6120  -30.6350   24.1680 C   0  0  0  0  0  3  0  0  0  0  0  0
  -16.5230  -29.8480   23.7580 C   0  0  0  0  0  3  0  0  0  0  0  0
  -16.7500  -28.5940   23.1660 C   0  0  0  0  0  3  0  0  0  0  0  0
  -25.8820  -32.6330   23.8650 C   0  0  0  0  0  3  0  0  0  0  0  0
  -26.3790  -31.8910   25.1670 C   0  0  1  0  0  0  0  0  0  0  0  0
  -25.2710  -31.6790   26.2250 C   0  0  0  0  0  1  0  0  0  0  0  0
  -26.9740  -30.5080   24.8180 C   0  0  0  0  0  1  0  0  0  0  0  0
  -27.5190  -32.6990   25.8280 C   0  0  0  0  0  1  0  0  0  0  0  0
  -25.5600  -34.0350   24.1770 N   0  0  0  0  0  0  0  0  0  0  0  0
  -25.8940  -35.0850   23.4160 C   0  0  0  0  0  0  0  0  0  0  0  0
  -26.5740  -34.9740   22.3920 O   0  0  0  0  0  0  0  0  0  0  0  0
  -24.9680  -34.1940   24.9790 H   0  0  0  0  0  0  0  0  0  0  0  0
  -24.1770  -36.8820   23.0210 C   0  0  0  0  0  1  0  0  0  0  0  0
  -25.4010  -36.4770   23.8600 C   0  0  0  0  0  3  0  0  0  0  0  0
  -27.5170  -37.3660   24.7370 C   0  0  0  0  0  1  0  0  0  0  0  0
  -26.4380  -37.5290   23.7650 N   0  0  0  0  0  0  0  0  0  0  0  0
  -26.0270  -38.4490   23.9040 H   0  0  0  0  0  0  0  0  0  0  0  0
  -29.9160  -19.9320   20.4610 C   0  0  0  0  0  3  0  0  0  0  0  0
  -31.8670  -20.9390   23.5330 C   0  0  0  0  0  2  0  0  0  0  0  0
  -32.8060  -20.1420   22.6350 C   0  0  0  0  0  2  0  0  0  0  0  0
  -30.6220  -21.0820   22.6530 C   0  0  0  0  0  2  0  0  0  0  0  0
  -31.8550  -19.1850   21.8980 C   0  0  0  0  0  2  0  0  0  0  0  0
  -30.5120  -19.8330   21.8420 N   0  0  2  0  0  4  0  0  0  0  0  0
  -29.8950  -19.2250   22.3630 H   0  0  0  0  0  0  0  0  0  0  0  0
  -29.6350  -18.2860   19.8000 C   0  0  0  0  0  2  0  0  0  0  0  0
  -30.5370  -15.4770   20.2310 C   0  0  0  0  0  0  0  0  0  0  0  0
  -30.5490  -13.0020   19.4700 C   0  0  0  0  0  2  0  0  0  0  0  0
  -29.6500  -12.7680   18.2300 C   0  0  0  0  0  2  0  0  0  0  0  0
  -28.2060  -12.4740   18.6690 C   0  0  0  0  0  2  0  0  0  0  0  0
  -27.7240  -13.4720   19.7510 C   0  0  0  0  0  3  0  0  0  0  0  0
  -28.7540  -13.6690   20.8870 C   0  0  0  0  0  2  0  0  0  0  0  0
  -29.9980  -14.1590   20.2660 N   0  0  0  0  0  0  0  0  0  0  0  0
  -31.7300  -15.5070   19.9020 O   0  0  0  0  0  0  0  0  0  0  0  0
  -29.7520  -16.7210   20.3840 N   0  0  0  0  0  0  0  0  0  0  0  0
  -28.8540  -16.4530   20.7560 H   0  0  0  0  0  0  0  0  0  0  0  0
  -25.3360  -14.0180   20.4680 C   0  0  0  0  0  0  0  0  0  0  0  0
  -24.2780  -13.2360   20.8320 C   0  0  0  0  0  0  0  0  0  0  0  0
  -24.7570  -11.8920   20.8190 C   0  0  0  0  0  0  0  0  0  0  0  0
  -26.3900  -13.1520   20.2490 N   0  0  0  0  0  0  0  0  0  0  0  0
  -26.0520  -11.8650   20.5260 N   0  0  0  0  0  0  0  0  0  0  0  0
  -24.0400  -10.6220   21.0160 C   0  0  0  0  0  0  0  0  0  0  0  0
  -24.4660   -9.6670   21.9660 C   0  0  0  0  0  3  0  0  0  0  0  0
  -23.7430   -8.4700   22.1480 C   0  0  0  0  0  3  0  0  0  0  0  0
  -22.5810   -8.2140   21.3800 C   0  0  0  0  0  0  0  0  0  0  0  0
  -22.1780   -9.1570   20.4180 C   0  0  0  0  0  3  0  0  0  0  0  0
  -22.9020  -10.3470   20.2340 C   0  0  0  0  0  3  0  0  0  0  0  0
  -21.8320   -7.0680   21.4690 O   0  0  0  0  0  0  0  0  0  0  0  0
  -21.7680   -6.3380   22.6280 C   0  0  0  0  0  0  0  0  0  0  0  0
  -21.2810   -6.8950   23.8300 C   0  0  0  0  0  3  0  0  0  0  0  0
  -21.1650   -6.0930   24.9820 C   0  0  0  0  0  3  0  0  0  0  0  0
  -21.5280   -4.7340   24.9340 C   0  0  0  0  0  0  0  0  0  0  0  0
  -22.0100   -4.1760   23.7370 C   0  0  0  0  0  3  0  0  0  0  0  0
  -22.1250   -4.9760   22.5870 C   0  0  0  0  0  0  0  0  0  0  0  0
  -22.5680   -4.4280   21.4290 F   0  0  0  0  0  0  0  0  0  0  0  0
  -21.4120   -3.9600   26.0390 F   0  0  0  0  0  0  0  0  0  0  0  0
  -22.8740  -13.7020   21.0840 C   0  0  0  0  0  0  0  0  0  0  0  0
  -22.1460  -13.0110   21.9560 N   0  0  0  0  0  0  0  0  0  0  0  0
  -22.4330  -14.7170   20.5480 O   0  0  0  0  0  0  0  0  0  0  0  0
  -22.5190  -12.1890   22.4070 H   0  0  0  0  0  0  0  0  0  0  0  0
  -21.2040  -13.3070   22.1750 H   0  0  0  0  0  0  0  0  0  0  0  0
  -25.4870  -15.3900   20.2780 N   0  0  0  0  0  0  0  0  0  0  0  0
  -24.7080  -16.0360   20.3550 H   0  0  0  0  0  0  0  0  0  0  0  0
  -26.3440  -15.8400   19.9790 H   0  0  0  0  0  0  0  0  0  0  0  0
  1  4  1  0
  2  1  2  0
  2  5  1  0
  4 48  1  0
  4  3  2  0
  5  7  1  0
  5  6  2  0
  6  3  1  0
  7  9  1  0
  8 19  2  0
  9 14  1  0
 10 18  1  0
 10 20  1  0
 11 17  1  0
 11 13  1  0
 12 18  1  0
 13 12  1  0
 14 13  2  0
 15  9  2  0
 16 15  1  0
 16 11  2  0
 17 10  1  0
 18  8  1  0
 20 22  2  0
 21 20  1  0
 23 21  1  0
 24 33  2  0
 24 29  1  0
 25 21  1  0
 25 29  1  0
 26 25  1  0
 27 28  1  0
 27 26  1  0
 28 24  1  0
 29 30  2  0
 30 31  1  0
 32 31  2  0
 33 32  1  0
 34  8  1  0
 34 39  1  0
 34 35  1  0
 35 38  1  1
 35 36  1  0
 37 35  1  0
 39 42  1  0
 40 44  1  0
 40 39  1  0
 41 40  2  0
 44 43  1  0
 46 44  1  0
 46 47  1  0
 46 45  1  0
 48 55  1  0
 48 53  1  0
 50 49  1  0
 51 49  1  0
 52 50  1  0
 53 52  1  0
 53 54  1  1
 53 51  1  0
 55 64  1  0
 56 62  1  0
 56 64  1  0
 57 62  1  0
 58 59  1  0
 58 57  1  0
 60 59  1  0
 60 69  1  0
 60 61  1  0
 62 61  1  0
 63 56  2  0
 64 65  1  0
 66 67  2  0
 67 86  1  0
 68 67  1  0
 68 71  1  0
 69 66  1  0
 69 70  1  0
 70 68  2  0
 71 72  1  0
 72 73  2  0
 74 77  1  0
 74 73  1  0
 75 74  2  0
 76 75  1  0
 76 71  2  0
 77 78  1  0
 78 79  1  0
 79 80  2  0
 81 80  1  0
 81 85  1  0
 82 81  2  0
 83 78  2  0
 83 82  1  0
 84 83  1  0
 86 87  1  0
 87 90  1  0
 87 89  1  0
 88 86  2  0
 91 92  1  0
 91 66  1  0
 93 91  1  0
M  ISO  4   5 101   7 101  56 100  64 100
M  END
>  <TORSDO>  (19) 
F 19

>  <SCORE>  (19) 
-16.299

>  <name>  (19) 
18

>  <ligand_id>  (19) 
18

>  <original_smiles>  (19) 
[H]c1nc(Oc2c([H])c([H])c3c(c2[H])C([H])([H])N(C(=O)C([H])(N([H])C(=O)C([H])(N([H])C([H])([H])[H])C([H])([H])[H])C(C([H])([H])[H])(C([H])([H])[H])C([H])([H])[H])C([H])(C(=O)N([H])C2([H])c4c([H])c([H])c([H])c([H])c4C([H])([H])C([H])([H])C2([H])[H])C3([H])[H])c([H])c([H])c1C([H])(C([H])([H])N([H])C(=O)N1C([H])([H])C([H])([H])C([H])([H])C([H])(n2nc(-c3c([H])c([H])c(Oc4c([H])c([H])c(F)c([H])c4F)c([H])c3[H])c(C(=O)N([H])[H])c2N([H])[H])C1([H])[H])[N+]1([H])C([H])([H])C([H])([H])C([H])([H])C1([H])[H]

>  <smiles>  (19) 
[H]c1nc(Oc2c([H])c([H])c3c(c2[H])C([H])([H])N(C(=O)C([H])(N([H])C(=O)C([H])(N([H])C([H])([H])[H])C([H])([H])[H])C(C([H])([H])[H])(C([H])([H])[H])C([H])([H])[H])C([H])(C(=O)N([H])C2([H])c4c([H])c([H])c([H])c([H])c4C([H])([H])C([H])([H])C2([H])[H])C3([H])[H])c([H])c([H])c1C([H])(C([H])([H])N([H])C(=O)N1C([H])([H])C([H])([H])C([H])([H])C([H])(n2nc(-c3c([H])c([H])c(Oc4c([H])c([H])c(F)c([H])c4F)c([H])c3[H])c(C(=O)N([H])[H])c2N([H])[H])C1([H])[H])[N+]1([H])C([H])([H])C([H])([H])C([H])([H])C1([H])[H]

$$$$
19:0:0
     RDKit          3D

 95103  0  0  1  0  0  0  0  0999 V2000
  -30.9450  -22.1650   21.3840 C   0  0  0  0  0  2  0  0  0  0  0  0
  -31.0310  -23.5190   22.1150 C   0  0  0  0  0  2  0  0  0  0  0  0
  -30.5080  -24.6760   21.3500 N   0  0  0  0  0  4  0  0  0  0  0  0
  -30.5400  -24.5030   20.3580 H   0  0  0  0  0  0  0  0  0  0  0  0
  -31.1530  -25.4330   21.5250 H   0  0  0  0  0  0  0  0  0  0  0  0
  -29.1660  -25.1530   21.7650 C   0  0  0  0  0  2  0  0  0  0  0  0
  -28.9020  -26.6190   21.3710 C   0  0  0  0  0  2  0  0  0  0  0  0
  -28.2490  -26.7060   20.0970 O   0  0  0  0  0  0  0  0  0  0  0  0
  -24.5000  -31.8730   23.2200 C   0  0  0  0  0  0  0  0  0  0  0  0
  -27.1150  -27.4870   20.0860 C   0  0  0  0  0  0  0  0  0  0  0  0
  -23.2720  -30.4940   21.5680 C   0  0  0  0  0  3  0  0  0  0  0  0
  -24.7130  -28.9710   20.1110 C   0  0  0  0  0  0  0  0  0  0  0  0
  -25.7910  -30.8630   21.3480 C   0  0  0  0  0  2  0  0  0  0  0  0
  -25.8690  -29.5010   20.6960 C   0  0  0  0  0  0  0  0  0  0  0  0
  -27.0730  -28.7700   20.6770 C   0  0  0  0  0  3  0  0  0  0  0  0
  -25.9510  -26.9720   19.4780 C   0  0  0  0  0  3  0  0  0  0  0  0
  -24.7480  -27.7050   19.4960 C   0  0  0  0  0  3  0  0  0  0  0  0
  -23.4660  -29.8250   20.1790 C   0  0  0  0  0  2  0  0  0  0  0  0
  -24.5400  -31.0900   22.1050 N   0  0  0  0  0  0  0  0  0  0  0  0
  -23.4260  -32.1420   23.7750 O   0  0  0  0  0  0  0  0  0  0  0  0
  -22.6270  -29.4660   22.5230 C   0  0  0  0  0  0  0  0  0  0  0  0
  -21.3020  -29.2870   22.4010 N   0  0  0  0  0  0  0  0  0  0  0  0
  -23.3150  -28.8330   23.3290 O   0  0  0  0  0  0  0  0  0  0  0  0
  -20.8100  -29.8510   21.7220 H   0  0  0  0  0  0  0  0  0  0  0  0
  -17.9270  -28.1120   22.9110 C   0  0  0  0  0  0  0  0  0  0  0  0
  -20.4880  -28.3430   23.1650 C   0  0  0  0  0  3  0  0  0  0  0  0
  -20.5740  -26.9210   22.5660 C   0  0  0  0  0  2  0  0  0  0  0  0
  -19.4600  -26.6220   21.5570 C   0  0  0  0  0  2  0  0  0  0  0  0
  -18.0850  -26.7700   22.2160 C   0  0  0  0  0  2  0  0  0  0  0  0
  -19.0540  -28.8570   23.3430 C   0  0  0  0  0  0  0  0  0  0  0  0
  -18.8530  -30.1130   23.9540 C   0  0  0  0  0  3  0  0  0  0  0  0
  -17.5550  -30.6240   24.1370 C   0  0  0  0  0  3  0  0  0  0  0  0
  -16.4400  -29.8750   23.7230 C   0  0  0  0  0  3  0  0  0  0  0  0
  -16.6270  -28.6200   23.1150 C   0  0  0  0  0  3  0  0  0  0  0  0
  -25.7960  -32.4880   23.8360 C   0  0  0  0  0  3  0  0  0  0  0  0
  -25.5090  -33.8920   24.1580 N   0  0  0  0  0  0  0  0  0  0  0  0
  -25.8720  -34.9340   23.3990 C   0  0  0  0  0  0  0  0  0  0  0  0
  -26.5550  -34.8150   22.3780 O   0  0  0  0  0  0  0  0  0  0  0  0
  -24.9050  -34.0600   24.9500 H   0  0  0  0  0  0  0  0  0  0  0  0
  -24.2010  -36.7690   22.9890 C   0  0  0  0  0  1  0  0  0  0  0  0
  -25.4010  -36.3320   23.8440 C   0  0  0  0  0  3  0  0  0  0  0  0
  -27.5170  -37.1690   24.7660 C   0  0  0  0  0  1  0  0  0  0  0  0
  -26.4620  -37.3590   23.7740 N   0  0  0  0  0  0  0  0  0  0  0  0
  -26.0710  -38.2890   23.9010 H   0  0  0  0  0  0  0  0  0  0  0  0
  -26.3070  -31.7130   25.1120 C   0  0  1  0  0  0  0  0  0  0  0  0
  -25.2150  -31.4880   26.1830 C   0  0  0  0  0  1  0  0  0  0  0  0
  -26.8750  -30.3290   24.7180 C   0  0  0  0  0  1  0  0  0  0  0  0
  -27.4670  -32.4970   25.7720 C   0  0  0  0  0  1  0  0  0  0  0  0
  -29.5290  -21.5800   21.1750 C   0  0  0  0  0  2  0  0  0  0  0  0
  -29.4020  -20.1960   21.5320 O   0  0  0  0  0  0  0  0  0  0  0  0
  -30.6810  -14.4040   20.1820 C   0  0  0  0  0  0  0  0  0  0  0  0
  -30.3070  -12.2470   19.0800 C   0  0  0  0  0  2  0  0  0  0  0  0
  -29.3290  -12.4660   17.9080 C   0  0  0  0  0  2  0  0  0  0  0  0
  -27.8720  -12.3370   18.3910 C   0  0  0  0  0  2  0  0  0  0  0  0
  -27.5830  -13.1730   19.6680 C   0  0  0  0  0  3  0  0  0  0  0  0
  -28.6820  -12.9660   20.7390 C   0  0  0  0  0  2  0  0  0  0  0  0
  -29.9900  -13.2360   20.1230 N   0  0  0  0  0  0  0  0  0  0  0  0
  -31.7580  -14.5820   19.5970 O   0  0  0  0  0  0  0  0  0  0  0  0
  -29.6820  -17.9130   21.0580 C   0  0  0  0  0  3  0  0  0  0  0  0
  -29.8800  -19.1980   20.7030 C   0  0  0  0  0  0  0  0  0  0  0  0
  -30.2240  -16.8270   20.3230 C   0  0  0  0  0  3  0  0  0  0  0  0
  -30.6610  -19.5840   19.4480 C   0  0  0  0  0  3  0  0  0  0  0  0
  -31.0000  -18.4050   18.5210 C   0  0  0  0  0  3  0  0  0  0  0  0
  -30.9170  -17.1030   19.1930 N   0  0  0  0  0  0  0  0  0  0  0  0
  -30.0210  -15.5480   20.7500 N   0  0  0  0  0  0  0  0  0  0  0  0
  -31.4300  -16.3380   18.7630 H   0  0  0  0  0  0  0  0  0  0  0  0
  -29.2650  -15.4390   21.4030 H   0  0  0  0  0  0  0  0  0  0  0  0
  -25.2110  -13.7590   20.4820 C   0  0  0  0  0  0  0  0  0  0  0  0
  -24.1660  -12.9770   20.8950 C   0  0  0  0  0  0  0  0  0  0  0  0
  -24.6330  -11.6290   20.8330 C   0  0  0  0  0  0  0  0  0  0  0  0
  -26.2510  -12.8870   20.2010 N   0  0  0  0  0  0  0  0  0  0  0  0
  -25.9100  -11.6000   20.4710 N   0  0  0  0  0  0  0  0  0  0  0  0
  -23.9240  -10.3600   21.0460 C   0  0  0  0  0  0  0  0  0  0  0  0
  -24.3510   -9.4310   22.0200 C   0  0  0  0  0  3  0  0  0  0  0  0
  -23.6410   -8.2270   22.2210 C   0  0  0  0  0  3  0  0  0  0  0  0
  -22.4910   -7.9440   21.4460 C   0  0  0  0  0  0  0  0  0  0  0  0
  -22.0840   -8.8620   20.4620 C   0  0  0  0  0  3  0  0  0  0  0  0
  -22.7940  -10.0570   20.2610 C   0  0  0  0  0  3  0  0  0  0  0  0
  -21.7570   -6.7870   21.5520 O   0  0  0  0  0  0  0  0  0  0  0  0
  -21.6430   -6.1130   22.7420 C   0  0  0  0  0  0  0  0  0  0  0  0
  -21.0730   -6.7120   23.8860 C   0  0  0  0  0  3  0  0  0  0  0  0
  -20.9120   -5.9600   25.0660 C   0  0  0  0  0  3  0  0  0  0  0  0
  -21.3090   -4.6100   25.1030 C   0  0  0  0  0  0  0  0  0  0  0  0
  -21.8720   -4.0110   23.9630 C   0  0  0  0  0  3  0  0  0  0  0  0
  -22.0360   -4.7600   22.7840 C   0  0  0  0  0  0  0  0  0  0  0  0
  -22.5580   -4.1720   21.6810 F   0  0  0  0  0  0  0  0  0  0  0  0
  -21.1470   -3.8850   26.2340 F   0  0  0  0  0  0  0  0  0  0  0  0
  -22.7780  -13.4430   21.2280 C   0  0  0  0  0  0  0  0  0  0  0  0
  -22.0890  -12.7340   22.1160 N   0  0  0  0  0  0  0  0  0  0  0  0
  -22.3130  -14.4710   20.7370 O   0  0  0  0  0  0  0  0  0  0  0  0
  -22.4780  -11.9030   22.5350 H   0  0  0  0  0  0  0  0  0  0  0  0
  -21.1570  -13.0260   22.3780 H   0  0  0  0  0  0  0  0  0  0  0  0
  -25.3580  -15.1310   20.3040 N   0  0  0  0  0  0  0  0  0  0  0  0
  -24.5810  -15.7690   20.4370 H   0  0  0  0  0  0  0  0  0  0  0  0
  -26.1670  -15.5760   19.8880 H   0  0  0  0  0  0  0  0  0  0  0  0
  1  2  1  0
  3  5  1  0
  3  6  1  0
  3  2  1  0
  4  3  1  0
  7  6  1  0
  8  7  1  0
  9 20  2  0
 10  8  1  0
 10 15  1  0
 11 19  1  0
 11 21  1  0
 12 18  1  0
 12 14  1  0
 13 19  1  0
 14 13  1  0
 15 14  2  0
 16 17  1  0
 16 10  2  0
 17 12  2  0
 18 11  1  0
 19  9  1  0
 21 23  2  0
 22 21  1  0
 24 22  1  0
 25 34  2  0
 25 30  1  0
 26 22  1  0
 26 30  1  0
 27 26  1  0
 28 29  1  0
 28 27  1  0
 29 25  1  0
 30 31  2  0
 31 32  1  0
 33 32  2  0
 34 33  1  0
 35  9  1  0
 35 36  1  0
 35 45  1  0
 36 39  1  0
 37 41  1  0
 37 36  1  0
 38 37  2  0
 41 40  1  0
 43 41  1  0
 43 44  1  0
 43 42  1  0
 45 48  1  1
 45 46  1  0
 47 45  1  0
 49  1  1  0
 49 50  1  0
 51 65  1  0
 52 57  1  0
 53 54  1  0
 53 52  1  0
 55 54  1  0
 55 71  1  0
 55 56  1  0
 57 51  1  0
 57 56  1  0
 58 51  2  0
 60 59  2  0
 60 50  1  0
 61 65  1  0
 61 59  1  0
 62 60  1  0
 63 64  1  0
 63 62  2  0
 64 61  1  0
 65 67  1  0
 66 64  1  0
 68 69  2  0
 69 88  1  0
 70 69  1  0
 70 73  1  0
 71 72  1  0
 71 68  1  0
 72 70  2  0
 73 74  1  0
 74 75  2  0
 76 79  1  0
 76 75  1  0
 77 76  2  0
 78 77  1  0
 78 73  2  0
 79 80  1  0
 80 85  2  0
 80 81  1  0
 81 82  2  0
 82 83  1  0
 83 87  1  0
 84 83  2  0
 85 84  1  0
 86 85  1  0
 88 89  1  0
 89 92  1  0
 89 91  1  0
 90 88  2  0
 93 94  1  0
 93 68  1  0
 95 93  1  0
M  ISO  4   7 101   8 101  51 100  65 100
M  END
>  <TORSDO>  (20) 
F 22

>  <SCORE>  (20) 
-12.490

>  <name>  (20) 
19

>  <ligand_id>  (20) 
19

>  <original_smiles>  (20) 
[H]C1=C(OC([H])([H])C([H])([H])C([H])([H])[N+]([H])([H])C([H])([H])C([H])([H])Oc2c([H])c([H])c3c(c2[H])C([H])([H])N(C(=O)C([H])(N([H])C(=O)C([H])(N([H])C([H])([H])[H])C([H])([H])[H])C(C([H])([H])[H])(C([H])([H])[H])C([H])([H])[H])C([H])(C(=O)N([H])C2([H])c4c([H])c([H])c([H])c([H])c4C([H])([H])C([H])([H])C2([H])[H])C3([H])[H])C([H])([H])C([H])([H])[N+]([H])=C1N([H])C(=O)N1C([H])([H])C([H])([H])C([H])([H])C([H])(n2nc(-c3c([H])c([H])c(Oc4c([H])c([H])c(F)c([H])c4F)c([H])c3[H])c(C(=O)N([H])[H])c2N([H])[H])C1([H])[H]

>  <smiles>  (20) 
[H]C1=C(OC([H])([H])C([H])([H])C([H])([H])[N+]([H])([H])C([H])([H])C([H])([H])Oc2c([H])c([H])c3c(c2[H])C([H])([H])N(C(=O)C([H])(N([H])C(=O)C([H])(N([H])C([H])([H])[H])C([H])([H])[H])C(C([H])([H])[H])(C([H])([H])[H])C([H])([H])[H])C([H])(C(=O)N([H])C2([H])c4c([H])c([H])c([H])c([H])c4C([H])([H])C([H])([H])C2([H])[H])C3([H])[H])C([H])([H])C([H])([H])[N+]([H])=C1N([H])C(=O)N1C([H])([H])C([H])([H])C([H])([H])C([H])(n2nc(-c3c([H])c([H])c(Oc4c([H])c([H])c(F)c([H])c4F)c([H])c3[H])c(C(=O)N([H])[H])c2N([H])[H])C1([H])[H]

$$$$
20:0:0
     RDKit          3D

 95104  0  0  1  0  0  0  0  0999 V2000
  -29.6530  -20.6290   20.1980 C   0  0  0  0  0  2  0  0  0  0  0  0
  -31.6900  -18.4800   22.6750 C   0  0  0  0  0  3  0  0  0  0  0  0
  -31.1580  -19.5820   21.9860 C   0  0  0  0  0  3  0  0  0  0  0  0
  -31.2770  -17.1770   22.3550 C   0  0  0  0  0  3  0  0  0  0  0  0
  -29.7950  -18.0720   20.6120 C   0  0  0  0  0  0  0  0  0  0  0  0
  -30.2080  -19.4010   20.9540 C   0  0  0  0  0  0  0  0  0  0  0  0
  -30.3300  -16.9580   21.3310 C   0  0  0  0  0  0  0  0  0  0  0  0
  -30.5860  -14.6180   20.5380 C   0  0  0  0  0  0  0  0  0  0  0  0
  -30.2980  -12.4840   19.3250 C   0  0  0  0  0  2  0  0  0  0  0  0
  -29.3390  -12.6870   18.1350 C   0  0  0  0  0  2  0  0  0  0  0  0
  -27.8780  -12.5020   18.5820 C   0  0  0  0  0  2  0  0  0  0  0  0
  -27.5350  -13.3180   19.8580 C   0  0  0  0  0  3  0  0  0  0  0  0
  -28.6050  -13.1040   20.9530 C   0  0  0  0  0  2  0  0  0  0  0  0
  -29.9160  -13.4450   20.3740 N   0  0  0  0  0  0  0  0  0  0  0  0
  -31.7100  -14.8120   20.0650 O   0  0  0  0  0  0  0  0  0  0  0  0
  -29.8790  -15.6190   21.1040 N   0  0  0  0  0  0  0  0  0  0  0  0
  -28.9170  -15.4150   21.3300 H   0  0  0  0  0  0  0  0  0  0  0  0
  -25.1290  -13.8700   20.5840 C   0  0  0  0  0  0  0  0  0  0  0  0
  -24.0790  -13.0750   20.9530 C   0  0  0  0  0  0  0  0  0  0  0  0
  -24.5660  -11.7320   20.9100 C   0  0  0  0  0  0  0  0  0  0  0  0
  -26.1910  -13.0120   20.3420 N   0  0  0  0  0  0  0  0  0  0  0  0
  -25.8570  -11.7210   20.5970 N   0  0  0  0  0  0  0  0  0  0  0  0
  -23.8680  -10.4550   21.0940 C   0  0  0  0  0  0  0  0  0  0  0  0
  -24.3220   -9.4910   22.0210 C   0  0  0  0  0  3  0  0  0  0  0  0
  -23.6210   -8.2770   22.1920 C   0  0  0  0  0  3  0  0  0  0  0  0
  -22.4520   -8.0210   21.4350 C   0  0  0  0  0  0  0  0  0  0  0  0
  -22.0190   -8.9750   20.4980 C   0  0  0  0  0  3  0  0  0  0  0  0
  -22.7200  -10.1790   20.3260 C   0  0  0  0  0  3  0  0  0  0  0  0
  -21.7220   -6.8590   21.5160 O   0  0  0  0  0  0  0  0  0  0  0  0
  -21.6910   -6.1070   22.6640 C   0  0  0  0  0  0  0  0  0  0  0  0
  -21.2480   -6.6420   23.8940 C   0  0  0  0  0  3  0  0  0  0  0  0
  -21.1650   -5.8160   25.0310 C   0  0  0  0  0  3  0  0  0  0  0  0
  -21.5150   -4.4560   24.9430 C   0  0  0  0  0  0  0  0  0  0  0  0
  -21.9520   -3.9200   23.7180 C   0  0  0  0  0  3  0  0  0  0  0  0
  -22.0380   -4.7440   22.5820 C   0  0  0  0  0  0  0  0  0  0  0  0
  -22.4390   -4.2170   21.3990 F   0  0  0  0  0  0  0  0  0  0  0  0
  -21.4290   -3.6590   26.0330 F   0  0  0  0  0  0  0  0  0  0  0  0
  -22.6750  -13.5230   21.2390 C   0  0  0  0  0  0  0  0  0  0  0  0
  -21.9640  -12.8040   22.1000 N   0  0  0  0  0  0  0  0  0  0  0  0
  -22.2150  -14.5450   20.7330 O   0  0  0  0  0  0  0  0  0  0  0  0
  -22.3480  -11.9770   22.5320 H   0  0  0  0  0  0  0  0  0  0  0  0
  -21.0250  -13.0890   22.3380 H   0  0  0  0  0  0  0  0  0  0  0  0
  -25.2630  -15.2450   20.4140 N   0  0  0  0  0  0  0  0  0  0  0  0
  -24.4740  -15.8750   20.5250 H   0  0  0  0  0  0  0  0  0  0  0  0
  -26.0940  -15.7080   20.0730 H   0  0  0  0  0  0  0  0  0  0  0  0
  -29.0050  -16.8470   18.3920 C   0  0  0  0  0  2  0  0  0  0  0  0
  -29.0440  -18.3190   18.0880 C   0  0  0  0  0  2  0  0  0  0  0  0
  -28.7850  -17.8500   19.5070 C   0  0  0  0  0  3  0  0  0  0  0  0
  -29.8360  -22.0430   20.8240 C   0  0  0  0  0  2  0  0  0  0  0  0
  -29.1750  -23.0840   19.9940 N   0  0  0  0  0  4  0  0  0  0  0  0
  -28.1950  -22.8540   19.9540 H   0  0  0  0  0  0  0  0  0  0  0  0
  -29.5350  -23.0180   19.0540 H   0  0  0  0  0  0  0  0  0  0  0  0
  -29.3030  -24.5000   20.4420 C   0  0  0  0  0  2  0  0  0  0  0  0
  -28.1600  -25.3690   19.8610 C   0  0  0  0  0  2  0  0  0  0  0  0
  -28.2790  -26.7790   20.1340 O   0  0  0  0  0  0  0  0  0  0  0  0
  -24.5330  -31.9740   23.2450 C   0  0  0  0  0  0  0  0  0  0  0  0
  -27.1110  -27.5260   20.1060 C   0  0  0  0  0  0  0  0  0  0  0  0
  -23.2970  -30.5850   21.6160 C   0  0  0  0  0  3  0  0  0  0  0  0
  -24.7220  -29.0590   20.1570 C   0  0  0  0  0  0  0  0  0  0  0  0
  -25.8230  -30.9330   21.3840 C   0  0  0  0  0  2  0  0  0  0  0  0
  -25.8940  -29.5670   20.7340 C   0  0  0  0  0  0  0  0  0  0  0  0
  -27.0880  -28.8070   20.7090 C   0  0  0  0  0  3  0  0  0  0  0  0
  -25.9180  -27.0480   19.5060 C   0  0  0  0  0  3  0  0  0  0  0  0
  -24.7320  -27.7990   19.5400 C   0  0  0  0  0  3  0  0  0  0  0  0
  -23.4840  -29.9220   20.2280 C   0  0  0  0  0  2  0  0  0  0  0  0
  -24.5700  -31.1790   22.1390 N   0  0  0  0  0  0  0  0  0  0  0  0
  -23.4600  -32.2450   23.8030 O   0  0  0  0  0  0  0  0  0  0  0  0
  -22.6620  -29.5560   22.5780 C   0  0  0  0  0  0  0  0  0  0  0  0
  -21.3370  -29.3630   22.4590 N   0  0  0  0  0  0  0  0  0  0  0  0
  -23.3550  -28.9370   23.3890 O   0  0  0  0  0  0  0  0  0  0  0  0
  -20.8390  -29.9140   21.7740 H   0  0  0  0  0  0  0  0  0  0  0  0
  -17.9780  -28.1360   22.9670 C   0  0  0  0  0  0  0  0  0  0  0  0
  -20.5320  -28.4220   23.2370 C   0  0  0  0  0  3  0  0  0  0  0  0
  -20.6500  -26.9890   22.6690 C   0  0  0  0  0  2  0  0  0  0  0  0
  -19.5510  -26.6480   21.6580 C   0  0  0  0  0  2  0  0  0  0  0  0
  -18.1680  -26.7830   22.3010 C   0  0  0  0  0  2  0  0  0  0  0  0
  -19.0880  -28.9110   23.3930 C   0  0  0  0  0  0  0  0  0  0  0  0
  -18.8570  -30.1760   23.9760 C   0  0  0  0  0  3  0  0  0  0  0  0
  -17.5480  -30.6660   24.1390 C   0  0  0  0  0  3  0  0  0  0  0  0
  -16.4500  -29.8880   23.7280 C   0  0  0  0  0  3  0  0  0  0  0  0
  -16.6670  -28.6240   23.1480 C   0  0  0  0  0  3  0  0  0  0  0  0
  -25.8290  -32.6000   23.8460 C   0  0  0  0  0  3  0  0  0  0  0  0
  -25.5300  -33.9990   24.1760 N   0  0  0  0  0  0  0  0  0  0  0  0
  -25.8640  -35.0500   23.4130 C   0  0  0  0  0  0  0  0  0  0  0  0
  -26.5270  -34.9410   22.3790 O   0  0  0  0  0  0  0  0  0  0  0  0
  -24.9400  -34.1570   24.9800 H   0  0  0  0  0  0  0  0  0  0  0  0
  -24.1490  -36.8550   23.0600 C   0  0  0  0  0  1  0  0  0  0  0  0
  -25.3850  -36.4400   23.8720 C   0  0  0  0  0  3  0  0  0  0  0  0
  -27.5250  -37.3070   24.7100 C   0  0  0  0  0  1  0  0  0  0  0  0
  -26.4260  -37.4850   23.7640 N   0  0  0  0  0  0  0  0  0  0  0  0
  -26.0270  -38.4080   23.9130 H   0  0  0  0  0  0  0  0  0  0  0  0
  -26.3620  -31.8290   25.1150 C   0  0  1  0  0  0  0  0  0  0  0  0
  -25.2820  -31.5940   26.1980 C   0  0  0  0  0  1  0  0  0  0  0  0
  -26.9370  -30.4500   24.7150 C   0  0  0  0  0  1  0  0  0  0  0  0
  -27.5230  -32.6210   25.7600 C   0  0  0  0  0  1  0  0  0  0  0  0
  1 49  1  0
  1  6  1  0
  3  2  2  0
  4  2  1  0
  5  6  2  0
  5  7  1  0
  6  3  1  0
  7  4  2  0
  8 16  1  0
  9 14  1  0
 10 11  1  0
 10  9  1  0
 12 11  1  0
 12 21  1  0
 12 13  1  0
 14  8  1  0
 14 13  1  0
 15  8  2  0
 16 17  1  0
 16  7  1  0
 18 19  2  0
 19 38  1  0
 20 19  1  0
 20 23  1  0
 21 18  1  0
 21 22  1  0
 22 20  2  0
 23 24  1  0
 24 25  2  0
 26 29  1  0
 26 25  1  0
 27 26  2  0
 28 27  1  0
 28 23  2  0
 29 30  1  0
 30 31  1  0
 31 32  2  0
 33 32  1  0
 33 37  1  0
 34 33  2  0
 35 30  2  0
 35 34  1  0
 36 35  1  0
 38 39  1  0
 39 42  1  0
 39 41  1  0
 40 38  2  0
 43 44  1  0
 43 18  1  0
 45 43  1  0
 46 48  1  0
 47 46  1  0
 47 48  1  0
 48  5  1  0
 50 53  1  0
 50 49  1  0
 51 50  1  0
 52 50  1  0
 54 55  1  0
 54 53  1  0
 56 67  2  0
 57 55  1  0
 57 62  1  0
 58 66  1  0
 58 68  1  0
 59 65  1  0
 59 61  1  0
 60 66  1  0
 61 60  1  0
 62 61  2  0
 63 64  1  0
 63 57  2  0
 64 59  2  0
 65 58  1  0
 66 56  1  0
 68 70  2  0
 69 68  1  0
 71 69  1  0
 72 81  2  0
 72 77  1  0
 73 69  1  0
 73 77  1  0
 74 73  1  0
 75 76  1  0
 75 74  1  0
 76 72  1  0
 77 78  2  0
 78 79  1  0
 80 79  2  0
 81 80  1  0
 82 56  1  0
 82 83  1  0
 82 92  1  0
 83 86  1  0
 84 88  1  0
 84 83  1  0
 85 84  2  0
 88 87  1  0
 90 88  1  0
 90 91  1  0
 90 89  1  0
 92 95  1  1
 92 93  1  0
 94 92  1  0
M  ISO  4   8 100  16 100  54 101  55 101
M  END
>  <TORSDO>  (21) 
F 22

>  <SCORE>  (21) 
-12.692

>  <name>  (21) 
20

>  <ligand_id>  (21) 
20

>  <original_smiles>  (21) 
[H]c1c([H])c([H])c2c(c1[H])C([H])([H])C([H])([H])C([H])([H])C2([H])N([H])C(=O)C1([H])N(C(=O)C([H])(N([H])C(=O)C([H])(N([H])C([H])([H])[H])C([H])([H])[H])C(C([H])([H])[H])(C([H])([H])[H])C([H])([H])[H])C([H])([H])c2c([H])c(OC([H])([H])C([H])([H])[N+]([H])([H])C([H])([H])C([H])([H])c3c([H])c([H])c([H])c(N([H])C(=O)N4C([H])([H])C([H])([H])C([H])([H])C([H])(n5nc(-c6c([H])c([H])c(Oc7c([H])c([H])c(F)c([H])c7F)c([H])c6[H])c(C(=O)N([H])[H])c5N([H])[H])C4([H])[H])c3C3([H])C([H])([H])C3([H])[H])c([H])c([H])c2C1([H])[H]

>  <smiles>  (21) 
[H]c1c([H])c([H])c2c(c1[H])C([H])([H])C([H])([H])C([H])([H])C2([H])N([H])C(=O)C1([H])N(C(=O)C([H])(N([H])C(=O)C([H])(N([H])C([H])([H])[H])C([H])([H])[H])C(C([H])([H])[H])(C([H])([H])[H])C([H])([H])[H])C([H])([H])c2c([H])c(OC([H])([H])C([H])([H])[N+]([H])([H])C([H])([H])C([H])([H])c3c([H])c([H])c([H])c(N([H])C(=O)N4C([H])([H])C([H])([H])C([H])([H])C([H])(n5nc(-c6c([H])c([H])c(Oc7c([H])c([H])c(F)c([H])c7F)c([H])c6[H])c(C(=O)N([H])[H])c5N([H])[H])C4([H])[H])c3C3([H])C([H])([H])C3([H])[H])c([H])c([H])c2C1([H])[H]

$$$$
21:0:0
     RDKit          3D

 96 94  0  0  1  0  0  0  0  0999 V2000
  -26.1680  -13.3910   18.0630 C   0  0  0  0  0  1  0  0  0  0  0  0
  -23.8340  -13.5900   21.2280 C   0  0  0  0  0  1  0  0  0  0  0  0
  -25.6870  -15.1140   21.8350 C   0  0  0  0  0  1  0  0  0  0  0  0
  -27.7560  -14.5190   19.1220 C   0  0  0  0  0  1  0  0  0  0  0  0
  -24.2760  -13.0010   18.8540 N   0  0  0  0  0  2  0  0  0  0  0  0
  -27.3540  -15.1830   20.8970 N   0  0  0  0  0  1  0  0  0  0  0  0
  -30.3240  -13.5640   19.5280 C   0  0  0  0  0  0  0  0  0  0  0  0
  -30.4630  -11.3580   18.5130 C   0  0  0  0  0  2  0  0  0  0  0  0
  -29.5140  -11.5070   17.2920 C   0  0  0  0  0  2  0  0  0  0  0  0
  -27.9940  -11.3340   17.7530 C   0  0  0  0  0  2  0  0  0  0  0  0
  -27.7520  -12.0530   19.1020 C   0  0  0  0  0  3  0  0  0  0  0  0
  -28.8020  -11.8160   20.1880 C   0  0  0  0  0  2  0  0  0  0  0  0
  -30.0040  -12.2610   19.5770 N   0  0  0  0  0  0  0  0  0  0  0  0
  -31.5500  -13.7980   19.6560 O   0  0  0  0  0  0  0  0  0  0  0  0
  -29.3040  -14.4530   18.9960 N   0  0  0  0  0  0  0  0  0  0  0  0
  -29.7030  -15.3170   18.6640 H   0  0  0  0  0  0  0  0  0  0  0  0
  -25.3530  -14.7310   19.2780 C   0  0  0  0  0  2  0  0  0  0  0  0
  -24.5980  -14.5240   19.6580 C   0  0  0  0  0  3  0  0  0  0  0  0
  -25.6920  -12.5580   19.8970 C   0  0  1  0  0  0  0  0  0  0  0  0
  -26.3330  -12.8640   19.7110 N   0  0  0  0  0  0  0  0  0  0  0  0
  -26.3990  -12.1740   20.8100 N   0  0  0  0  0  1  0  0  0  0  0  0
  -24.7760  -10.9450   19.9600 C   0  0  0  0  0  1  0  0  0  0  0  0
  -25.1780   -9.6960   21.5250 C   0  0  0  0  0  1  0  0  0  0  0  0
  -23.7780   -8.4990   22.2150 C   0  0  0  0  0  2  0  0  0  0  0  0
  -22.0300   -8.3880   21.4120 C   0  0  0  0  0  0  0  0  0  0  0  0
  -21.5090   -9.6220   20.1290 C   0  0  0  0  0  3  0  0  0  0  0  0
  -22.7090  -10.9250   19.5110 C   0  0  0  0  0  1  0  0  0  0  0  0
  -21.1460   -7.3630   21.4750 O   0  0  0  0  0  0  0  0  0  0  0  0
  -21.1660   -6.5750   22.5610 C   0  0  0  0  0  0  0  0  0  0  0  0
  -20.9820   -7.1500   23.8280 C   0  0  0  0  0  3  0  0  0  0  0  0
  -20.9410   -6.3220   24.9550 C   0  0  0  0  0  3  0  0  0  0  0  0
  -21.0660   -4.9290   24.8000 C   0  0  0  0  0  0  0  0  0  0  0  0
  -21.2430   -4.3580   23.5260 C   0  0  0  0  0  3  0  0  0  0  0  0
  -21.2920   -5.1840   22.3950 C   0  0  0  0  0  0  0  0  0  0  0  0
  -21.4440   -4.6440   21.1580 F   0  0  0  0  0  0  0  0  0  0  0  0
  -21.0080   -4.1370   25.8920 F   0  0  0  0  0  0  0  0  0  0  0  0
  -23.0100  -15.0190   19.7720 C   0  0  0  0  0  0  0  0  0  0  0  0
  -22.0280  -14.5130   20.6090 N   0  0  0  0  0  0  0  0  0  0  0  0
  -22.5970  -15.8550   19.0460 O   0  0  0  0  0  0  0  0  0  0  0  0
  -22.2160  -13.7710   21.2640 H   0  0  0  0  0  0  0  0  0  0  0  0
  -21.0950  -14.8970   20.5600 H   0  0  0  0  0  0  0  0  0  0  0  0
  -25.5000  -15.9760   18.6420 N   0  0  0  0  0  0  0  0  0  0  0  0
  -24.6470  -16.4890   18.4400 H   0  0  0  0  0  0  0  0  0  0  0  0
  -26.2440  -16.1990   17.9930 H   0  0  0  0  0  0  0  0  0  0  0  0
  -22.2180  -11.3800   21.8990 C   0  0  0  0  0  2  0  0  0  0  0  0
  -23.9280   -9.5490   21.2590 C   0  0  0  0  0  2  0  0  0  0  0  0
  -22.2960  -12.1990   23.1390 C   0  0  0  0  0  2  0  0  0  0  0  0
  -23.1040  -12.1610   21.9280 C   0  0  0  0  0  3  0  0  0  0  0  0
  -26.0360  -17.2030   21.4360 C   0  0  0  0  0 15  0  0  0  0  0  0
  -27.0650  -18.6260   20.4500 N   0  0  0  0  0  2  0  0  0  0  0  0
  -26.5890  -18.5530   19.5650 H   0  0  0  0  0  0  0  0  0  0  0  0
  -27.9210  -18.1160   20.3090 H   0  0  0  0  0  0  0  0  0  0  0  0
  -26.8850  -21.1890   21.4790 C   0  0  0  0  0  1  0  0  0  0  0  0
  -27.7440  -20.5290   20.3930 C   0  0  0  0  0  1  0  0  0  0  0  0
  -28.3680  -22.3710   19.1780 C   0  0  0  0  0 15  0  0  0  0  0  0
  -29.0840  -24.2790   18.8540 O   0  0  0  0  0  1  0  0  0  0  0  0
  -27.9000  -30.8460   23.1780 C   0  0  0  0  0  0  0  0  0  0  0  0
  -28.8420  -25.9410   18.9660 C   0  0  0  0  0  0  0  0  0  0  0  0
  -26.4190  -30.1230   21.3640 C   0  0  0  0  0  3  0  0  0  0  0  0
  -27.4420  -28.6960   19.4130 C   0  0  0  0  0  0  0  0  0  0  0  0
  -28.9490  -29.7540   21.0520 C   0  0  0  0  0  2  0  0  0  0  0  0
  -28.6530  -28.5070   20.0750 C   0  0  0  0  0  0  0  0  0  0  0  0
  -29.3510  -27.1690   19.8170 C   0  0  0  0  0  3  0  0  0  0  0  0
  -27.8400  -26.5460   18.1590 C   0  0  0  0  0  3  0  0  0  0  0  0
  -27.1390  -27.7760   18.3940 C   0  0  0  0  0  3  0  0  0  0  0  0
  -26.4780  -29.8270   19.8290 C   0  0  0  0  0  2  0  0  0  0  0  0
  -27.8000  -30.2800   21.9180 N   0  0  0  0  0  0  0  0  0  0  0  0
  -26.8960  -31.1460   23.8490 O   0  0  0  0  0  0  0  0  0  0  0  0
  -25.6280  -29.0110   22.1080 C   0  0  0  0  0  0  0  0  0  0  0  0
  -24.2840  -29.0000   22.0090 N   0  0  0  0  0  0  0  0  0  0  0  0
  -26.2390  -28.1610   22.7600 O   0  0  0  0  0  0  0  0  0  0  0  0
  -23.8360  -29.7360   21.4810 H   0  0  0  0  0  0  0  0  0  0  0  0
  -20.8240  -27.9550   22.3830 C   0  0  0  0  0  0  0  0  0  0  0  0
  -23.4030  -27.9720   22.5820 C   0  0  0  0  0  3  0  0  0  0  0  0
  -23.3700  -26.7090   21.6890 C   0  0  0  0  0  2  0  0  0  0  0  0
  -22.2210  -26.7180   20.6750 C   0  0  0  0  0  2  0  0  0  0  0  0
  -20.8730  -26.8020   21.3940 C   0  0  0  0  0  2  0  0  0  0  0  0
  -22.0100  -28.5150   22.9290 C   0  0  0  0  0  0  0  0  0  0  0  0
  -21.9050  -29.6020   23.8240 C   0  0  0  0  0  3  0  0  0  0  0  0
  -20.6470  -30.1300   24.1700 C   0  0  0  0  0  3  0  0  0  0  0  0
  -19.4750  -29.5670   23.6330 C   0  0  0  0  0  3  0  0  0  0  0  0
  -19.5650  -28.4780   22.7480 C   0  0  0  0  0  3  0  0  0  0  0  0
  -29.2760  -31.1590   23.8420 C   0  0  0  0  0  3  0  0  0  0  0  0
  -29.0740  -32.2050   24.8710 N   0  0  0  0  0  0  0  0  0  0  0  0
  -29.3760  -33.5060   24.7420 C   0  0  0  0  0  0  0  0  0  0  0  0
  -29.9060  -33.9600   23.7260 O   0  0  0  0  0  0  0  0  0  0  0  0
  -28.5900  -31.9140   25.7080 H   0  0  0  0  0  0  0  0  0  0  0  0
  -27.7300  -35.2030   25.6270 C   0  0  0  0  0  1  0  0  0  0  0  0
  -29.0390  -34.4530   25.9170 C   0  0  0  0  0  3  0  0  0  0  0  0
  -31.3110  -34.8260   26.7790 C   0  0  0  0  0  1  0  0  0  0  0  0
  -30.1080  -35.4330   26.2170 N   0  0  0  0  0  0  0  0  0  0  0  0
  -29.7760  -36.1360   26.8710 H   0  0  0  0  0  0  0  0  0  0  0  0
  -29.9400  -29.8930   24.5180 C   0  0  1  0  0  0  0  0  0  0  0  0
  -29.0080  -29.1490   25.5030 C   0  0  0  0  0  1  0  0  0  0  0  0
  -30.4040  -28.8680   23.4630 C   0  0  0  0  0  1  0  0  0  0  0  0
  -31.2090  -30.3170   25.2950 C   0  0  0  0  0  1  0  0  0  0  0  0
  1 20  1  0
  2 48  1  0
  5 18  1  0
  5 19  1  0
  6  3  1  0
  7 13  1  0
  7 14  2  0
  8 13  1  0
  9 10  1  0
  9  8  1  0
 10 11  1  0
 11 20  1  0
 11 12  1  0
 13 12  1  0
 15  4  1  0
 15  7  1  0
 16 15  1  0
 18 17  1  0
 18 37  1  0
 19 22  1  6
 19 21  1  0
 20 19  1  0
 25 28  1  0
 25 24  1  0
 26 25  2  0
 27 26  1  0
 28 29  1  0
 29 30  1  0
 30 31  2  0
 32 31  1  0
 32 36  1  0
 33 32  2  0
 34 29  2  0
 34 33  1  0
 35 34  1  0
 37 38  1  0
 38 40  1  0
 39 37  2  0
 41 38  1  0
 42 17  1  0
 43 42  1  0
 44 42  1  0
 45 48  1  0
 45 47  1  0
 46 23  1  0
 46 24  1  0
 48 47  1  0
 51 50  1  0
 52 50  1  0
 54 53  1  0
 56 58  1  0
 57 68  2  0
 58 63  1  0
 59 67  1  0
 59 69  1  0
 60 66  1  0
 60 62  1  0
 61 67  1  0
 62 61  1  0
 63 62  2  0
 64 65  1  0
 64 58  2  0
 65 60  2  0
 66 59  1  0
 67 57  1  0
 69 71  2  0
 70 69  1  0
 72 70  1  0
 73 82  2  0
 73 78  1  0
 74 70  1  0
 74 78  1  0
 75 74  1  0
 76 77  1  0
 76 75  1  0
 77 73  1  0
 78 79  2  0
 79 80  1  0
 81 80  2  0
 82 81  1  0
 83 57  1  0
 83 93  1  0
 83 84  1  0
 84 87  1  0
 85 84  1  0
 85 89  1  0
 86 85  2  0
 89 88  1  0
 89 91  1  0
 91 90  1  0
 91 92  1  0
 93 96  1  1
 93 94  1  0
 95 93  1  0
M  ISO  4   7 100  15 100  55 101  56 101
M  END
>  <TORSDO>  (22) 
F 21

>  <SCORE>  (22) 
14.403

>  <name>  (22) 
21

>  <ligand_id>  (22) 
21

>  <original_smiles>  (22) 
[H]c1nc(C2([H])C([H])([H])C([H])([H])C2([H])[H])c(C([H])([H])[N+]([H])([H])C([H])(C([H])([H])[H])C([H])([H])Oc2c([H])c([H])c3c(c2[H])C([H])([H])N(C(=O)C([H])(N([H])C(=O)C([H])(N([H])C([H])([H])[H])C([H])([H])[H])C(C([H])([H])[H])(C([H])([H])[H])C([H])([H])[H])C([H])(C(=O)N([H])C2([H])c4c([H])c([H])c([H])c([H])c4C([H])([H])C([H])([H])C2([H])[H])C3([H])[H])nc1N([H])C(=O)N1C([H])([H])C([H])([H])C([H])([H])C([H])(n2nc(-c3c([H])c([H])c(Oc4c([H])c([H])c(F)c([H])c4F)c([H])c3[H])c(C(=O)N([H])[H])c2N([H])[H])C1([H])[H]

>  <smiles>  (22) 
[H]c1nc(C2([H])C([H])([H])C([H])([H])C2([H])[H])c(C([H])([H])[N+]([H])([H])C([H])(C([H])([H])[H])C([H])([H])Oc2c([H])c([H])c3c(c2[H])C([H])([H])N(C(=O)C([H])(N([H])C(=O)C([H])(N([H])C([H])([H])[H])C([H])([H])[H])C(C([H])([H])[H])(C([H])([H])[H])C([H])([H])[H])C([H])(C(=O)N([H])C2([H])c4c([H])c([H])c([H])c([H])c4C([H])([H])C([H])([H])C2([H])[H])C3([H])[H])nc1N([H])C(=O)N1C([H])([H])C([H])([H])C([H])([H])C([H])(n2nc(-c3c([H])c([H])c(Oc4c([H])c([H])c(F)c([H])c4F)c([H])c3[H])c(C(=O)N([H])[H])c2N([H])[H])C1([H])[H]

$$$$
22:0:0
     RDKit          3D

100108  0  0  1  0  0  0  0  0999 V2000
  -31.1060  -22.3050   21.0770 C   0  0  0  0  0  3  0  0  0  0  0  0
  -29.6930  -20.9690   19.6450 C   0  0  0  0  0  3  0  0  0  0  0  0
  -31.6560  -21.1330   21.6380 C   0  0  0  0  0  0  0  0  0  0  0  0
  -30.2150  -19.7570   20.1910 C   0  0  0  0  0  0  0  0  0  0  0  0
  -31.2180  -19.8360   21.2180 C   0  0  0  0  0  0  0  0  0  0  0  0
  -30.1120  -22.2500   20.0880 C   0  0  0  0  0  0  0  0  0  0  0  0
  -32.7080  -21.3410   22.7210 C   0  0  0  0  0  1  0  0  0  0  0  0
  -29.5350  -23.4290   19.5570 N   0  0  0  0  0  0  0  0  0  0  0  0
  -28.7010  -23.3470   18.9800 H   0  0  0  0  0  0  0  0  0  0  0  0
  -29.9220  -24.7870   20.0040 C   0  0  0  0  0  2  0  0  0  0  0  0
  -28.8860  -25.8780   19.6100 C   0  0  0  0  0  2  0  0  0  0  0  0
  -29.2030  -27.2280   20.0370 O   0  0  0  0  0  0  0  0  0  0  0  0
  -25.8950  -31.6130   24.6170 C   0  0  0  0  0  0  0  0  0  0  0  0
  -28.1270  -28.0810   20.2580 C   0  0  0  0  0  0  0  0  0  0  0  0
  -24.5800  -30.9040   22.6490 C   0  0  0  0  0  3  0  0  0  0  0  0
  -25.8940  -29.7610   20.7860 C   0  0  0  0  0  0  0  0  0  0  0  0
  -27.1330  -31.0630   22.5190 C   0  0  0  0  0  2  0  0  0  0  0  0
  -27.0940  -29.9560   21.4820 C   0  0  0  0  0  0  0  0  0  0  0  0
  -28.2140  -29.1260   21.2160 C   0  0  0  0  0  3  0  0  0  0  0  0
  -26.9060  -27.9290   19.5560 C   0  0  0  0  0  3  0  0  0  0  0  0
  -25.7970  -28.7520   19.8180 C   0  0  0  0  0  3  0  0  0  0  0  0
  -24.7370  -30.6760   21.1240 C   0  0  0  0  0  2  0  0  0  0  0  0
  -25.8880  -31.1880   23.3220 N   0  0  0  0  0  0  0  0  0  0  0  0
  -24.8370  -31.8030   25.2350 O   0  0  0  0  0  0  0  0  0  0  0  0
  -23.8250  -29.6990   23.2580 C   0  0  0  0  0  0  0  0  0  0  0  0
  -22.5260  -29.5770   22.9370 N   0  0  0  0  0  0  0  0  0  0  0  0
  -24.4110  -28.8870   23.9800 O   0  0  0  0  0  0  0  0  0  0  0  0
  -22.1170  -30.2890   22.3490 H   0  0  0  0  0  0  0  0  0  0  0  0
  -19.1750  -28.2720   22.5870 C   0  0  0  0  0  0  0  0  0  0  0  0
  -21.6310  -28.5020   23.3620 C   0  0  0  0  0  3  0  0  0  0  0  0
  -21.8980  -27.2050   22.5640 C   0  0  0  0  0  2  0  0  0  0  0  0
  -21.0070  -27.0650   21.3250 C   0  0  0  0  0  2  0  0  0  0  0  0
  -19.5280  -27.0740   21.7220 C   0  0  0  0  0  2  0  0  0  0  0  0
  -20.1640  -28.9520   23.3440 C   0  0  0  0  0  0  0  0  0  0  0  0
  -19.7890  -30.0830   24.1010 C   0  0  0  0  0  3  0  0  0  0  0  0
  -18.4540  -30.5310   24.1140 C   0  0  0  0  0  3  0  0  0  0  0  0
  -17.4750  -29.8420   23.3770 C   0  0  0  0  0  3  0  0  0  0  0  0
  -17.8360  -28.7150   22.6170 C   0  0  0  0  0  3  0  0  0  0  0  0
  -27.2260  -31.9020   25.3760 C   0  0  0  0  0  3  0  0  0  0  0  0
  -27.1060  -33.2300   25.9920 N   0  0  0  0  0  0  0  0  0  0  0  0
  -27.8060  -34.3080   25.6170 C   0  0  0  0  0  0  0  0  0  0  0  0
  -28.6830  -34.2700   24.7500 O   0  0  0  0  0  0  0  0  0  0  0  0
  -26.3720  -33.3470   26.6750 H   0  0  0  0  0  0  0  0  0  0  0  0
  -26.5970  -36.5020   25.3950 C   0  0  0  0  0  1  0  0  0  0  0  0
  -27.4820  -35.6430   26.3140 C   0  0  0  0  0  3  0  0  0  0  0  0
  -29.4570  -35.7670   27.7670 C   0  0  0  0  0  1  0  0  0  0  0  0
  -28.6850  -36.4100   26.7060 N   0  0  0  0  0  0  0  0  0  0  0  0
  -28.4310  -37.3420   27.0210 H   0  0  0  0  0  0  0  0  0  0  0  0
  -27.5700  -30.8120   26.4640 C   0  0  1  0  0  0  0  0  0  0  0  0
  -26.4050  -30.5170   27.4370 C   0  0  0  0  0  1  0  0  0  0  0  0
  -27.9720  -29.4810   25.7880 C   0  0  0  0  0  1  0  0  0  0  0  0
  -28.7880  -31.2700   27.3000 C   0  0  0  0  0  1  0  0  0  0  0  0
  -29.5860  -18.4210   19.7110 C   0  0  0  0  0  2  0  0  0  0  0  0
  -30.3910  -17.5690   18.6880 C   0  0  0  0  0  2  0  0  0  0  0  0
  -32.0550  -15.6790   18.8310 C   0  0  0  0  0  0  0  0  0  0  0  0
  -32.7940  -13.4500   18.0870 C   0  0  0  0  0  2  0  0  0  0  0  0
  -31.7120  -12.8700   17.1520 C   0  0  0  0  0  2  0  0  0  0  0  0
  -30.6330  -12.1260   17.9640 C   0  0  0  0  0  2  0  0  0  0  0  0
  -30.1090  -12.9540   19.1680 C   0  0  0  0  0  3  0  0  0  0  0  0
  -31.2740  -13.5690   19.9770 C   0  0  0  0  0  2  0  0  0  0  0  0
  -32.1170  -14.3350   19.0470 N   0  0  0  0  0  0  0  0  0  0  0  0
  -32.8620  -16.2780   18.1160 O   0  0  0  0  0  0  0  0  0  0  0  0
  -30.9270  -16.2990   19.2430 N   0  0  0  0  0  0  0  0  0  0  0  0
  -30.3010  -15.7480   19.8120 H   0  0  0  0  0  0  0  0  0  0  0  0
  -27.9960  -12.5210   20.5690 C   0  0  0  0  0  0  0  0  0  0  0  0
  -27.5330  -11.4030   21.2090 C   0  0  0  0  0  0  0  0  0  0  0  0
  -28.5210  -10.3920   20.9980 C   0  0  0  0  0  0  0  0  0  0  0  0
  -29.2150  -12.1660   20.0130 N   0  0  0  0  0  0  0  0  0  0  0  0
  -29.5510  -10.8880   20.3270 N   0  0  0  0  0  0  0  0  0  0  0  0
  -28.5170   -8.9660   21.3500 C   0  0  0  0  0  0  0  0  0  0  0  0
  -29.6670   -8.3280   21.8650 C   0  0  0  0  0  3  0  0  0  0  0  0
  -29.6340   -6.9610   22.2110 C   0  0  0  0  0  3  0  0  0  0  0  0
  -28.4400   -6.2170   22.0480 C   0  0  0  0  0  0  0  0  0  0  0  0
  -27.3050   -6.8500   21.5140 C   0  0  0  0  0  3  0  0  0  0  0  0
  -27.3420   -8.2100   21.1630 C   0  0  0  0  0  3  0  0  0  0  0  0
  -28.3220   -4.8780   22.3360 O   0  0  0  0  0  0  0  0  0  0  0  0
  -29.2370   -4.2260   23.1210 C   0  0  0  0  0  0  0  0  0  0  0  0
  -29.5340   -4.6580   24.4330 C   0  0  0  0  0  3  0  0  0  0  0  0
  -30.4290   -3.9180   25.2320 C   0  0  0  0  0  3  0  0  0  0  0  0
  -31.0200   -2.7440   24.7260 C   0  0  0  0  0  0  0  0  0  0  0  0
  -30.7200   -2.3090   23.4230 C   0  0  0  0  0  3  0  0  0  0  0  0
  -29.8290   -3.0470   22.6240 C   0  0  0  0  0  0  0  0  0  0  0  0
  -29.5270   -2.6130   21.3770 F   0  0  0  0  0  0  0  0  0  0  0  0
  -31.8730   -2.0280   25.4940 F   0  0  0  0  0  0  0  0  0  0  0  0
  -26.2050  -11.2490   21.8920 C   0  0  0  0  0  0  0  0  0  0  0  0
  -26.1320  -10.3940   22.9060 N   0  0  0  0  0  0  0  0  0  0  0  0
  -25.2330  -11.9250   21.5580 O   0  0  0  0  0  0  0  0  0  0  0  0
  -26.9350   -9.8540   23.1930 H   0  0  0  0  0  0  0  0  0  0  0  0
  -25.2600  -10.2770   23.4020 H   0  0  0  0  0  0  0  0  0  0  0  0
  -27.4750  -13.8000   20.3970 N   0  0  0  0  0  0  0  0  0  0  0  0
  -26.5560  -14.0570   20.7410 H   0  0  0  0  0  0  0  0  0  0  0  0
  -27.9010  -14.5230   19.8320 H   0  0  0  0  0  0  0  0  0  0  0  0
  -31.8330  -18.5800   21.9000 C   0  0  0  0  0  3  0  0  0  0  0  0
  -33.8980  -18.6830   20.4850 C   0  0  0  0  0  1  0  0  0  0  0  0
  -32.8060  -17.8570   21.0470 N   0  0  0  0  0  4  0  0  0  0  0  0
  -33.2330  -17.1410   21.6120 H   0  0  0  0  0  0  0  0  0  0  0  0
  -32.3270  -17.4010   20.2900 H   0  0  0  0  0  0  0  0  0  0  0  0
  -30.8110  -16.1730   22.2210 C   0  0  0  0  0  1  0  0  0  0  0  0
  -30.9230  -17.7640   24.1630 C   0  0  0  0  0  1  0  0  0  0  0  0
  -30.7930  -17.6630   22.6310 C   0  0  0  0  0  3  0  0  0  0  0  0
  1  3  1  0
  2  6  1  0
  2  4  2  0
  3  7  1  0
  4  5  1  0
  5  3  2  0
  5 93  1  0
  6  1  2  0
  8 10  1  0
  8  6  1  0
  9  8  1  0
 11 10  1  0
 11 12  1  0
 12 14  1  0
 13 24  2  0
 14 19  1  0
 15 25  1  0
 15 23  1  0
 16 22  1  0
 16 18  1  0
 17 23  1  0
 18 17  1  0
 19 18  2  0
 20 21  1  0
 20 14  2  0
 21 16  2  0
 22 15  1  0
 23 13  1  0
 25 27  2  0
 26 25  1  0
 28 26  1  0
 29 38  2  0
 29 34  1  0
 30 26  1  0
 31 30  1  0
 32 33  1  0
 32 31  1  0
 33 29  1  0
 34 30  1  0
 34 35  2  0
 35 36  1  0
 37 36  2  0
 38 37  1  0
 39 13  1  0
 39 40  1  0
 39 49  1  0
 40 43  1  0
 41 40  1  0
 41 45  1  0
 42 41  2  0
 45 44  1  0
 45 47  1  0
 47 48  1  0
 47 46  1  0
 49 52  1  1
 49 50  1  0
 51 49  1  0
 53  4  1  0
 54 63  1  0
 54 53  1  0
 55 61  1  0
 55 63  1  0
 56 61  1  0
 57 58  1  0
 57 56  1  0
 59 58  1  0
 59 60  1  0
 59 68  1  0
 61 60  1  0
 62 55  2  0
 63 64  1  0
 65 66  2  0
 66 85  1  0
 67 66  1  0
 67 70  1  0
 68 69  1  0
 68 65  1  0
 69 67  2  0
 70 71  1  0
 71 72  2  0
 73 72  1  0
 73 76  1  0
 74 73  2  0
 75 70  2  0
 75 74  1  0
 76 77  1  0
 77 78  1  0
 78 79  2  0
 80 79  1  0
 80 84  1  0
 81 80  2  0
 82 77  2  0
 82 81  1  0
 83 82  1  0
 85 86  1  0
 86 88  1  0
 86 89  1  0
 87 85  2  0
 90 65  1  0
 90 91  1  0
 92 90  1  0
 93100  1  0
 94 95  1  0
 95 96  1  0
 95 93  1  0
 97 95  1  0
 98100  1  0
100 99  1  0
M  ISO  4  11 101  12 101  55 100  63 100
M  END
>  <TORSDO>  (23) 
F 24

>  <SCORE>  (23) 
-0.342

>  <name>  (23) 
22

>  <ligand_id>  (23) 
22

>  <original_smiles>  (23) 
[H]c1c([H])c([H])c2c(c1[H])C([H])([H])C([H])([H])C([H])([H])C2([H])N([H])C(=O)C1([H])N(C(=O)C([H])(N([H])C(=O)C([H])(N([H])C([H])([H])[H])C([H])([H])[H])C(C([H])([H])[H])(C([H])([H])[H])C([H])([H])[H])C([H])([H])c2c([H])c(OC([H])([H])C([H])([H])N([H])c3c([H])c(C([H])([H])[H])c(C([H])(C([H])(C([H])([H])[H])C([H])([H])[H])[N+]([H])([H])C([H])([H])[H])c(C([H])([H])C([H])([H])N([H])C(=O)N4C([H])([H])C([H])([H])C([H])([H])C([H])(n5nc(-c6c([H])c([H])c(Oc7c([H])c([H])c(F)c([H])c7F)c([H])c6[H])c(C(=O)N([H])[H])c5N([H])[H])C4([H])[H])c3[H])c([H])c([H])c2C1([H])[H]

>  <smiles>  (23) 
[H]c1c([H])c([H])c2c(c1[H])C([H])([H])C([H])([H])C([H])([H])C2([H])N([H])C(=O)C1([H])N(C(=O)C([H])(N([H])C(=O)C([H])(N([H])C([H])([H])[H])C([H])([H])[H])C(C([H])([H])[H])(C([H])([H])[H])C([H])([H])[H])C([H])([H])c2c([H])c(OC([H])([H])C([H])([H])N([H])c3c([H])c(C([H])([H])[H])c(C([H])(C([H])(C([H])([H])[H])C([H])([H])[H])[N+]([H])([H])C([H])([H])[H])c(C([H])([H])C([H])([H])N([H])C(=O)N4C([H])([H])C([H])([H])C([H])([H])C([H])(n5nc(-c6c([H])c([H])c(Oc7c([H])c([H])c(F)c([H])c7F)c([H])c6[H])c(C(=O)N([H])[H])c5N([H])[H])C4([H])[H])c3[H])c([H])c([H])c2C1([H])[H]

$$$$
23:0:0
     RDKit          3D

 92101  0  0  1  0  0  0  0  0999 V2000
  -30.2960  -23.9640   19.7860 C   0  0  0  0  0  3  0  0  0  0  0  0
  -30.7370  -22.6180   19.5700 C   0  0  0  0  0  3  0  0  0  0  0  0
  -28.0540  -23.1590   19.9080 C   0  0  0  0  0  0  0  0  0  0  0  0
  -28.4910  -21.8260   19.7000 C   0  0  0  0  0  0  0  0  0  0  0  0
  -28.9270  -24.2860   19.9700 C   0  0  0  0  0  3  0  0  0  0  0  0
  -29.8630  -21.4890   19.5320 C   0  0  0  0  0  0  0  0  0  0  0  0
  -26.5590  -23.2100   20.1110 C   0  0  0  0  0  3  0  0  0  0  0  0
  -27.3210  -20.8710   19.7360 C   0  0  0  0  0  3  0  0  0  0  0  0
  -26.0740  -21.7600   19.9170 C   0  0  0  0  0  3  0  0  0  0  0  0
  -28.4000  -25.7090   20.4150 C   0  0  0  0  0  2  0  0  0  0  0  0
  -28.5190  -26.9160   19.5760 O   0  0  0  0  0  0  0  0  0  0  0  0
  -24.5200  -31.8250   23.0430 C   0  0  0  0  0  0  0  0  0  0  0  0
  -27.3860  -27.7350   19.6070 C   0  0  0  0  0  0  0  0  0  0  0  0
  -23.3930  -30.5010   21.2890 C   0  0  0  0  0  3  0  0  0  0  0  0
  -24.9290  -29.1770   19.7300 C   0  0  0  0  0  0  0  0  0  0  0  0
  -25.9040  -30.9980   21.1290 C   0  0  0  0  0  2  0  0  0  0  0  0
  -26.0670  -29.6890   20.3670 C   0  0  0  0  0  0  0  0  0  0  0  0
  -27.3030  -28.9810   20.2980 C   0  0  0  0  0  3  0  0  0  0  0  0
  -26.2300  -27.2710   18.9510 C   0  0  0  0  0  3  0  0  0  0  0  0
  -25.0100  -27.9720   19.0120 C   0  0  0  0  0  3  0  0  0  0  0  0
  -23.6390  -29.9630   19.8550 C   0  0  0  0  0  2  0  0  0  0  0  0
  -24.6240  -31.1210   21.8790 N   0  0  0  0  0  0  0  0  0  0  0  0
  -23.4250  -31.9890   23.6020 O   0  0  0  0  0  0  0  0  0  0  0  0
  -22.8000  -29.3680   22.1590 C   0  0  0  0  0  0  0  0  0  0  0  0
  -21.4790  -29.1460   22.0440 N   0  0  0  0  0  0  0  0  0  0  0  0
  -23.5250  -28.6940   22.8960 O   0  0  0  0  0  0  0  0  0  0  0  0
  -20.9500  -29.7480   21.4290 H   0  0  0  0  0  0  0  0  0  0  0  0
  -18.1550  -27.8240   22.5740 C   0  0  0  0  0  0  0  0  0  0  0  0
  -20.7200  -28.1030   22.7370 C   0  0  0  0  0  3  0  0  0  0  0  0
  -20.8110  -26.7550   21.9860 C   0  0  0  0  0  2  0  0  0  0  0  0
  -19.6600  -26.5350   21.0000 C   0  0  0  0  0  2  0  0  0  0  0  0
  -18.3140  -26.5700   21.7290 C   0  0  0  0  0  2  0  0  0  0  0  0
  -19.2830  -28.5520   23.0330 C   0  0  0  0  0  0  0  0  0  0  0  0
  -19.0790  -29.7280   23.7870 C   0  0  0  0  0  3  0  0  0  0  0  0
  -17.7780  -30.1770   24.0830 C   0  0  0  0  0  3  0  0  0  0  0  0
  -16.6640  -29.4420   23.6390 C   0  0  0  0  0  3  0  0  0  0  0  0
  -16.8540  -28.2680   22.8890 C   0  0  0  0  0  3  0  0  0  0  0  0
  -25.7660  -32.4790   23.7170 C   0  0  0  0  0  3  0  0  0  0  0  0
  -26.2940  -31.6690   24.9640 C   0  0  1  0  0  0  0  0  0  0  0  0
  -25.1950  -31.3390   26.0030 C   0  0  0  0  0  1  0  0  0  0  0  0
  -26.9370  -30.3360   24.5180 C   0  0  0  0  0  1  0  0  0  0  0  0
  -27.4020  -32.4750   25.6810 C   0  0  0  0  0  1  0  0  0  0  0  0
  -25.3960  -33.8460   24.1080 N   0  0  0  0  0  0  0  0  0  0  0  0
  -25.6890  -34.9450   23.4000 C   0  0  0  0  0  0  0  0  0  0  0  0
  -26.3690  -34.9170   22.3720 O   0  0  0  0  0  0  0  0  0  0  0  0
  -24.7910  -33.9390   24.9100 H   0  0  0  0  0  0  0  0  0  0  0  0
  -23.8810  -36.6720   23.1220 C   0  0  0  0  0  1  0  0  0  0  0  0
  -25.1400  -36.2900   23.9170 C   0  0  0  0  0  3  0  0  0  0  0  0
  -27.2290  -37.2380   24.7930 C   0  0  0  0  0  1  0  0  0  0  0  0
  -26.1250  -37.3910   23.8490 N   0  0  0  0  0  0  0  0  0  0  0  0
  -25.6770  -38.2870   24.0290 H   0  0  0  0  0  0  0  0  0  0  0  0
  -30.4490  -20.2110   19.3620 O   0  0  0  0  0  0  0  0  0  0  0  0
  -29.8060  -18.9090   19.5800 C   0  0  0  0  0  2  0  0  0  0  0  0
  -30.8370  -17.6910   19.5220 C   0  0  0  0  0  2  0  0  0  0  0  0
  -31.1560  -15.1670   19.7510 C   0  0  0  0  0  0  0  0  0  0  0  0
  -30.9290  -12.8270   18.9620 C   0  0  0  0  0  2  0  0  0  0  0  0
  -29.9430  -12.7890   17.7750 C   0  0  0  0  0  2  0  0  0  0  0  0
  -28.4950  -12.6440   18.2800 C   0  0  0  0  0  2  0  0  0  0  0  0
  -28.1560  -13.6400   19.4200 C   0  0  0  0  0  3  0  0  0  0  0  0
  -29.2570  -13.6650   20.5040 C   0  0  0  0  0  2  0  0  0  0  0  0
  -30.5310  -13.9510   19.8330 N   0  0  0  0  0  0  0  0  0  0  0  0
  -32.3110  -15.2610   19.3330 O   0  0  0  0  0  0  0  0  0  0  0  0
  -30.4010  -16.2990   19.9150 N   0  0  0  0  0  0  0  0  0  0  0  0
  -29.4470  -16.1740   20.2190 H   0  0  0  0  0  0  0  0  0  0  0  0
  -25.8450  -14.2830   20.3350 C   0  0  0  0  0  0  0  0  0  0  0  0
  -24.7770  -13.5300   20.7390 C   0  0  0  0  0  0  0  0  0  0  0  0
  -25.1850  -12.1670   20.6120 C   0  0  0  0  0  0  0  0  0  0  0  0
  -26.8360  -13.3810   19.9860 N   0  0  0  0  0  0  0  0  0  0  0  0
  -26.4490  -12.0990   20.2140 N   0  0  0  0  0  0  0  0  0  0  0  0
  -24.4260  -10.9220   20.7910 C   0  0  0  0  0  0  0  0  0  0  0  0
  -24.8080   -9.9540   21.7450 C   0  0  0  0  0  3  0  0  0  0  0  0
  -24.0510   -8.7740   21.9110 C   0  0  0  0  0  3  0  0  0  0  0  0
  -22.8970   -8.5530   21.1210 C   0  0  0  0  0  0  0  0  0  0  0  0
  -22.5350   -9.5100   20.1560 C   0  0  0  0  0  3  0  0  0  0  0  0
  -23.2930  -10.6810   19.9880 C   0  0  0  0  0  3  0  0  0  0  0  0
  -22.1160   -7.4260   21.1950 O   0  0  0  0  0  0  0  0  0  0  0  0
  -21.9200   -6.7630   22.3800 C   0  0  0  0  0  0  0  0  0  0  0  0
  -21.3360   -7.3930   23.5000 C   0  0  0  0  0  3  0  0  0  0  0  0
  -21.0890   -6.6550   24.6740 C   0  0  0  0  0  3  0  0  0  0  0  0
  -21.4170   -5.2880   24.7290 C   0  0  0  0  0  0  0  0  0  0  0  0
  -21.9950   -4.6560   23.6130 C   0  0  0  0  0  3  0  0  0  0  0  0
  -22.2430   -5.3920   22.4410 C   0  0  0  0  0  0  0  0  0  0  0  0
  -22.7800   -4.7740   21.3620 F   0  0  0  0  0  0  0  0  0  0  0  0
  -21.1730   -4.5760   25.8540 F   0  0  0  0  0  0  0  0  0  0  0  0
  -23.4210  -14.0410   21.1280 C   0  0  0  0  0  0  0  0  0  0  0  0
  -22.7270  -13.3270   22.0080 N   0  0  0  0  0  0  0  0  0  0  0  0
  -22.9880  -15.1070   20.6900 O   0  0  0  0  0  0  0  0  0  0  0  0
  -23.0900  -12.4620   22.3800 H   0  0  0  0  0  0  0  0  0  0  0  0
  -21.8200  -13.6490   22.3140 H   0  0  0  0  0  0  0  0  0  0  0  0
  -26.0510  -15.6540   20.2110 N   0  0  0  0  0  0  0  0  0  0  0  0
  -25.3220  -16.3300   20.4070 H   0  0  0  0  0  0  0  0  0  0  0  0
  -26.8860  -16.0750   19.8220 H   0  0  0  0  0  0  0  0  0  0  0  0
  1  5  1  0
  2  1  2  0
  3  5  1  0
  3  7  2  0
  4  8  1  0
  4  3  1  0
  5 10  1  0
  6  2  1  0
  6  4  2  0
  8  9  2  0
  9  7  1  0
 11 13  1  0
 11 10  1  0
 12 23  2  0
 13 18  1  0
 14 22  1  0
 14 24  1  0
 15 21  1  0
 15 17  1  0
 16 22  1  0
 17 16  1  0
 18 17  2  0
 19 20  1  0
 19 13  2  0
 20 15  2  0
 21 14  1  0
 22 12  1  0
 24 26  2  0
 25 24  1  0
 27 25  1  0
 28 37  2  0
 28 33  1  0
 29 25  1  0
 29 33  1  0
 30 29  1  0
 31 32  1  0
 31 30  1  0
 32 28  1  0
 33 34  2  0
 34 35  1  0
 36 35  2  0
 37 36  1  0
 38 12  1  0
 38 43  1  0
 38 39  1  0
 39 42  1  1
 39 40  1  0
 41 39  1  0
 43 46  1  0
 44 48  1  0
 44 43  1  0
 45 44  2  0
 48 47  1  0
 50 48  1  0
 50 51  1  0
 50 49  1  0
 52  6  1  0
 52 53  1  0
 54 53  1  0
 54 63  1  0
 55 61  1  0
 55 63  1  0
 56 61  1  0
 57 58  1  0
 57 56  1  0
 59 58  1  0
 59 68  1  0
 59 60  1  0
 61 60  1  0
 62 55  2  0
 63 64  1  0
 65 66  2  0
 66 85  1  0
 67 66  1  0
 67 70  1  0
 68 69  1  0
 68 65  1  0
 69 67  2  0
 70 71  1  0
 71 72  2  0
 73 76  1  0
 73 72  1  0
 74 73  2  0
 75 74  1  0
 75 70  2  0
 76 77  1  0
 77 82  2  0
 77 78  1  0
 78 79  2  0
 79 80  1  0
 80 84  1  0
 81 80  2  0
 82 81  1  0
 83 82  1  0
 85 86  1  0
 86 89  1  0
 86 88  1  0
 87 85  2  0
 90 65  1  0
 90 91  1  0
 92 90  1  0
M  ISO  4  10 101  11 101  55 100  63 100
M  END
>  <TORSDO>  (24) 
F 20

>  <SCORE>  (24) 
-11.581

>  <name>  (24) 
23

>  <ligand_id>  (24) 
23

>  <original_smiles>  (24) 
[H]c1c([H])c([H])c2c(c1[H])C([H])([H])C([H])([H])C([H])([H])C2([H])N([H])C(=O)C1([H])N(C(=O)C([H])(N([H])C(=O)C([H])(N([H])C([H])([H])[H])C([H])([H])[H])C(C([H])([H])[H])(C([H])([H])[H])C([H])([H])[H])C([H])([H])c2c([H])c(OC([H])([H])c3c([H])c([H])c(OC([H])([H])C([H])([H])N([H])C(=O)N4C([H])([H])C([H])([H])C([H])([H])C([H])(n5nc(-c6c([H])c([H])c(Oc7c([H])c([H])c(F)c([H])c7F)c([H])c6[H])c(C(=O)N([H])[H])c5N([H])[H])C4([H])[H])c4c3C([H])([H])C([H])([H])C4([H])[H])c([H])c([H])c2C1([H])[H]

>  <smiles>  (24) 
[H]c1c([H])c([H])c2c(c1[H])C([H])([H])C([H])([H])C([H])([H])C2([H])N([H])C(=O)C1([H])N(C(=O)C([H])(N([H])C(=O)C([H])(N([H])C([H])([H])[H])C([H])([H])[H])C(C([H])([H])[H])(C([H])([H])[H])C([H])([H])[H])C([H])([H])c2c([H])c(OC([H])([H])c3c([H])c([H])c(OC([H])([H])C([H])([H])N([H])C(=O)N4C([H])([H])C([H])([H])C([H])([H])C([H])(n5nc(-c6c([H])c([H])c(Oc7c([H])c([H])c(F)c([H])c7F)c([H])c6[H])c(C(=O)N([H])[H])c5N([H])[H])C4([H])[H])c4c3C([H])([H])C([H])([H])C4([H])[H])c([H])c([H])c2C1([H])[H]

$$$$
24:0:0
     RDKit          3D

102112  0  0  1  0  0  0  0  0999 V2000
  -26.9390  -20.3620   19.4540 C   0  0  0  0  0  3  0  0  0  0  0  0
  -26.9010  -21.6920   18.9980 C   0  0  0  0  0  3  0  0  0  0  0  0
  -29.2810  -20.2260   18.8300 C   0  0  0  0  0  3  0  0  0  0  0  0
  -28.1260  -19.6100   19.3620 C   0  0  0  0  0  0  0  0  0  0  0  0
  -29.2540  -21.5640   18.3670 C   0  0  0  0  0  0  0  0  0  0  0  0
  -28.0410  -22.3080   18.4410 C   0  0  0  0  0  0  0  0  0  0  0  0
  -30.5250  -22.1200   17.7310 C   0  0  0  0  0  2  0  0  0  0  0  0
  -30.0990  -24.4710   18.6810 C   0  0  0  0  0  2  0  0  0  0  0  0
  -31.1430  -23.3580   18.4320 C   0  0  0  0  0  3  0  0  0  0  0  0
  -28.9550  -24.5430   17.6480 C   0  0  0  0  0  3  0  0  0  0  0  0
  -27.8680  -23.6270   17.9840 N   0  0  0  0  0  0  0  0  0  0  0  0
  -26.9530  -24.0480   18.0950 H   0  0  0  0  0  0  0  0  0  0  0  0
  -30.8950  -14.4460   19.4340 C   0  0  0  0  0  0  0  0  0  0  0  0
  -30.4680  -12.2260   18.4560 C   0  0  0  0  0  2  0  0  0  0  0  0
  -29.3560  -12.3570   17.3960 C   0  0  0  0  0  2  0  0  0  0  0  0
  -27.9670  -12.2040   18.0450 C   0  0  0  0  0  2  0  0  0  0  0  0
  -27.7950  -13.0980   19.3010 C   0  0  0  0  0  3  0  0  0  0  0  0
  -29.0090  -12.9680   20.2490 C   0  0  0  0  0  2  0  0  0  0  0  0
  -30.2260  -13.2620   19.4750 N   0  0  0  0  0  0  0  0  0  0  0  0
  -31.9430  -14.5920   18.7930 O   0  0  0  0  0  0  0  0  0  0  0  0
  -28.7060  -17.2100   18.6970 C   0  0  0  0  0  2  0  0  0  0  0  0
  -30.1490  -16.6980   18.8960 C   0  0  0  0  0  2  0  0  0  0  0  0
  -30.2050  -15.9400   21.2260 C   0  0  0  0  0  2  0  0  0  0  0  0
  -28.8790  -16.6070   21.6600 C   0  0  0  0  0  2  0  0  0  0  0  0
  -28.1280  -18.1390   19.7930 C   0  0  0  0  0  3  0  0  0  0  0  0
  -30.1900  -15.5410   19.8130 N   0  0  0  0  0  0  0  0  0  0  0  0
  -28.7340  -17.9870   21.1360 N   0  0  0  0  0  4  0  0  0  0  0  0
  -29.6290  -18.4440   21.1620 H   0  0  0  0  0  0  0  0  0  0  0  0
  -28.1330  -18.4960   21.7660 H   0  0  0  0  0  0  0  0  0  0  0  0
  -25.5960  -13.7070   20.4920 C   0  0  0  0  0  0  0  0  0  0  0  0
  -24.5780  -12.9310   20.9780 C   0  0  0  0  0  0  0  0  0  0  0  0
  -24.9560  -11.5780   20.7240 C   0  0  0  0  0  0  0  0  0  0  0  0
  -26.5370  -12.8220   19.9880 N   0  0  0  0  0  0  0  0  0  0  0  0
  -26.1650  -11.5320   20.1820 N   0  0  0  0  0  0  0  0  0  0  0  0
  -24.2130  -10.3240   20.9110 C   0  0  0  0  0  0  0  0  0  0  0  0
  -24.6680   -9.3190   21.7920 C   0  0  0  0  0  3  0  0  0  0  0  0
  -23.9230   -8.1340   21.9680 C   0  0  0  0  0  3  0  0  0  0  0  0
  -22.7110   -7.9440   21.2640 C   0  0  0  0  0  0  0  0  0  0  0  0
  -22.2770   -8.9350   20.3660 C   0  0  0  0  0  3  0  0  0  0  0  0
  -23.0220  -10.1130   20.1890 C   0  0  0  0  0  3  0  0  0  0  0  0
  -21.9390   -6.8100   21.3530 O   0  0  0  0  0  0  0  0  0  0  0  0
  -21.8040   -6.1210   22.5310 C   0  0  0  0  0  0  0  0  0  0  0  0
  -21.2960   -6.7330   23.6980 C   0  0  0  0  0  3  0  0  0  0  0  0
  -21.1040   -5.9720   24.8670 C   0  0  0  0  0  3  0  0  0  0  0  0
  -21.4180   -4.6000   24.8740 C   0  0  0  0  0  0  0  0  0  0  0  0
  -21.9260   -3.9880   23.7150 C   0  0  0  0  0  3  0  0  0  0  0  0
  -22.1140   -4.7450   22.5460 C   0  0  0  0  0  0  0  0  0  0  0  0
  -22.5800   -4.1460   21.4260 F   0  0  0  0  0  0  0  0  0  0  0  0
  -21.2290   -3.8690   25.9970 F   0  0  0  0  0  0  0  0  0  0  0  0
  -23.2770  -13.4210   21.5420 C   0  0  0  0  0  0  0  0  0  0  0  0
  -22.6990  -12.6720   22.4750 N   0  0  0  0  0  0  0  0  0  0  0  0
  -22.7920  -14.4940   21.1900 O   0  0  0  0  0  0  0  0  0  0  0  0
  -23.1160  -11.8040   22.7720 H   0  0  0  0  0  0  0  0  0  0  0  0
  -21.8340  -12.9760   22.9000 H   0  0  0  0  0  0  0  0  0  0  0  0
  -25.7850  -15.0820   20.4090 N   0  0  0  0  0  0  0  0  0  0  0  0
  -24.9630  -15.6560   20.5660 H   0  0  0  0  0  0  0  0  0  0  0  0
  -26.3380  -15.4240   19.6360 H   0  0  0  0  0  0  0  0  0  0  0  0
  -33.1700  -22.1250   19.4680 C   0  0  0  0  0  1  0  0  0  0  0  0
  -32.4090  -24.2720   20.4930 C   0  0  0  0  0  1  0  0  0  0  0  0
  -31.9380  -23.0140   19.7290 C   0  0  0  0  0  3  0  0  0  0  0  0
  -28.4130  -25.9820   17.4820 C   0  0  0  0  0  2  0  0  0  0  0  0
  -28.1170  -26.5570   18.7520 O   0  0  0  0  0  0  0  0  0  0  0  0
  -24.5410  -31.2210   22.7080 C   0  0  0  0  0  0  0  0  0  0  0  0
  -26.9290  -27.2260   18.9090 C   0  0  0  0  0  0  0  0  0  0  0  0
  -23.2000  -29.9990   21.0230 C   0  0  0  0  0  3  0  0  0  0  0  0
  -24.5300  -28.6510   19.3130 C   0  0  0  0  0  0  0  0  0  0  0  0
  -25.6940  -30.4160   20.6530 C   0  0  0  0  0  2  0  0  0  0  0  0
  -25.7270  -29.1250   19.8640 C   0  0  0  0  0  0  0  0  0  0  0  0
  -26.9250  -28.4070   19.6770 C   0  0  0  0  0  3  0  0  0  0  0  0
  -25.7160  -26.7480   18.3680 C   0  0  0  0  0  3  0  0  0  0  0  0
  -24.5160  -27.4580   18.5690 C   0  0  0  0  0  3  0  0  0  0  0  0
  -23.2890  -29.4780   19.5620 C   0  0  0  0  0  2  0  0  0  0  0  0
  -24.5020  -30.5530   21.5200 N   0  0  0  0  0  0  0  0  0  0  0  0
  -23.5100  -31.4150   23.3670 O   0  0  0  0  0  0  0  0  0  0  0  0
  -22.6410  -28.8670   21.9140 C   0  0  0  0  0  0  0  0  0  0  0  0
  -21.3160  -28.6570   21.8480 N   0  0  0  0  0  0  0  0  0  0  0  0
  -23.3900  -28.1860   22.6200 O   0  0  0  0  0  0  0  0  0  0  0  0
  -20.7690  -29.2630   21.2520 H   0  0  0  0  0  0  0  0  0  0  0  0
  -18.0200  -27.2740   22.3690 C   0  0  0  0  0  0  0  0  0  0  0  0
  -20.5740  -27.6220   22.5660 C   0  0  0  0  0  3  0  0  0  0  0  0
  -20.7130  -26.2510   21.8670 C   0  0  0  0  0  2  0  0  0  0  0  0
  -19.5830  -25.9650   20.8710 C   0  0  0  0  0  2  0  0  0  0  0  0
  -18.2240  -25.9960   21.5750 C   0  0  0  0  0  2  0  0  0  0  0  0
  -19.1230  -28.0470   22.8210 C   0  0  0  0  0  0  0  0  0  0  0  0
  -18.8780  -29.2470   23.5240 C   0  0  0  0  0  3  0  0  0  0  0  0
  -17.5610  -29.6750   23.7790 C   0  0  0  0  0  3  0  0  0  0  0  0
  -16.4730  -28.8990   23.3430 C   0  0  0  0  0  3  0  0  0  0  0  0
  -16.7040  -27.7010   22.6440 C   0  0  0  0  0  3  0  0  0  0  0  0
  -25.8750  -31.7910   23.2820 C   0  0  0  0  0  3  0  0  0  0  0  0
  -25.5830  -33.1180   23.8450 N   0  0  0  0  0  0  0  0  0  0  0  0
  -25.8240  -34.2770   23.2190 C   0  0  0  0  0  0  0  0  0  0  0  0
  -26.3900  -34.3430   22.1240 O   0  0  0  0  0  0  0  0  0  0  0  0
  -25.0690  -33.1370   24.7130 H   0  0  0  0  0  0  0  0  0  0  0  0
  -24.0490  -36.0560   23.2930 C   0  0  0  0  0  1  0  0  0  0  0  0
  -25.3650  -35.5700   23.9200 C   0  0  0  0  0  3  0  0  0  0  0  0
  -27.5560  -36.3780   24.6760 C   0  0  0  0  0  1  0  0  0  0  0  0
  -26.3700  -36.6540   23.8710 N   0  0  0  0  0  0  0  0  0  0  0  0
  -25.9680  -37.5310   24.1910 H   0  0  0  0  0  0  0  0  0  0  0  0
  -26.5360  -30.8560   24.3690 C   0  0  1  0  0  0  0  0  0  0  0  0
  -25.5680  -30.4350   25.5000 C   0  0  0  0  0  1  0  0  0  0  0  0
  -27.0860  -29.5680   23.7130 C   0  0  0  0  0  1  0  0  0  0  0  0
  -27.7440  -31.5750   25.0150 C   0  0  0  0  0  1  0  0  0  0  0  0
  2  1  2  0
  3  4  2  0
  4  1  1  0
  5  6  2  0
  5  3  1  0
  6  2  1  0
  7  5  1  0
  7  9  1  0
  9  8  1  0
  9 60  1  0
 10 61  1  0
 10 11  1  0
 10  8  1  0
 11 12  1  0
 11  6  1  0
 13 19  1  0
 13 26  1  0
 14 19  1  0
 15 16  1  0
 15 14  1  0
 17 16  1  0
 17 33  1  0
 17 18  1  0
 19 18  1  0
 20 13  2  0
 21 22  1  0
 21 25  1  0
 22 26  1  0
 23 24  1  0
 25  4  1  0
 25 27  1  0
 26 23  1  0
 27 28  1  0
 27 24  1  0
 27 29  1  0
 30 31  2  0
 31 50  1  0
 32 35  1  0
 32 31  1  0
 33 34  1  0
 33 30  1  0
 34 32  2  0
 35 36  1  0
 36 37  2  0
 38 41  1  0
 38 37  1  0
 39 38  2  0
 40 39  1  0
 40 35  2  0
 41 42  1  0
 42 47  2  0
 42 43  1  0
 43 44  2  0
 44 45  1  0
 45 49  1  0
 46 45  2  0
 47 46  1  0
 48 47  1  0
 50 51  1  0
 51 53  1  0
 51 54  1  0
 52 50  2  0
 55 30  1  0
 55 56  1  0
 57 55  1  0
 58 60  1  0
 60 59  1  0
 61 62  1  0
 62 64  1  0
 63 74  2  0
 64 69  1  0
 65 73  1  0
 65 75  1  0
 66 72  1  0
 66 68  1  0
 67 73  1  0
 68 67  1  0
 69 68  2  0
 70 71  1  0
 70 64  2  0
 71 66  2  0
 72 65  1  0
 73 63  1  0
 75 77  2  0
 76 75  1  0
 78 76  1  0
 79 88  2  0
 79 84  1  0
 80 76  1  0
 80 84  1  0
 81 80  1  0
 82 83  1  0
 82 81  1  0
 83 79  1  0
 84 85  2  0
 85 86  1  0
 87 86  2  0
 88 87  1  0
 89 63  1  0
 89 90  1  0
 89 99  1  0
 90 93  1  0
 91 90  1  0
 91 95  1  0
 92 91  2  0
 95 94  1  0
 97 95  1  0
 97 98  1  0
 97 96  1  0
 99102  1  1
 99100  1  0
101 99  1  0
M  ISO  4  13 100  26 100  61 101  62 101
M  END
>  <TORSDO>  (25) 
F 18

>  <SCORE>  (25) 
-10.683

>  <name>  (25) 
24

>  <ligand_id>  (25) 
24

>  <original_smiles>  (25) 
[H]c1c([H])c([H])c2c(c1[H])C([H])([H])C([H])([H])C([H])([H])C2([H])N([H])C(=O)C1([H])N(C(=O)C([H])(N([H])C(=O)C([H])(N([H])C([H])([H])[H])C([H])([H])[H])C(C([H])([H])[H])(C([H])([H])[H])C([H])([H])[H])C([H])([H])c2c([H])c(OC([H])([H])C3([H])N([H])c4c([H])c([H])c(C5([H])C([H])([H])C([H])([H])N(C(=O)N6C([H])([H])C([H])([H])C([H])([H])C([H])(n7nc(-c8c([H])c([H])c(Oc9c([H])c([H])c(F)c([H])c9F)c([H])c8[H])c(C(=O)N([H])[H])c7N([H])[H])C6([H])[H])C([H])([H])C([H])([H])[N+]5([H])[H])c([H])c4C([H])([H])C([H])(C([H])(C([H])([H])[H])C([H])([H])[H])C3([H])[H])c([H])c([H])c2C1([H])[H]

>  <smiles>  (25) 
[H]c1c([H])c([H])c2c(c1[H])C([H])([H])C([H])([H])C([H])([H])C2([H])N([H])C(=O)C1([H])N(C(=O)C([H])(N([H])C(=O)C([H])(N([H])C([H])([H])[H])C([H])([H])[H])C(C([H])([H])[H])(C([H])([H])[H])C([H])([H])[H])C([H])([H])c2c([H])c(OC([H])([H])C3([H])N([H])c4c([H])c([H])c(C5([H])C([H])([H])C([H])([H])N(C(=O)N6C([H])([H])C([H])([H])C([H])([H])C([H])(n7nc(-c8c([H])c([H])c(Oc9c([H])c([H])c(F)c([H])c9F)c([H])c8[H])c(C(=O)N([H])[H])c7N([H])[H])C6([H])[H])C([H])([H])C([H])([H])[N+]5([H])[H])c([H])c4C([H])([H])C([H])(C([H])(C([H])([H])[H])C([H])([H])[H])C3([H])[H])c([H])c([H])c2C1([H])[H]

$$$$
25:0:0
     RDKit          3D

 97106  0  0  1  0  0  0  0  0999 V2000
  -30.3040  -22.3520   21.7830 C   0  0  0  0  0  3  0  0  0  0  0  0
  -29.8250  -23.6780   21.8860 C   0  0  0  0  0  3  0  0  0  0  0  0
  -30.3660  -20.1840   20.6050 C   0  0  0  0  0  3  0  0  0  0  0  0
  -28.7720  -23.4740   19.7120 C   0  0  0  0  0  3  0  0  0  0  0  0
  -28.9650  -21.3510   18.4760 C   0  0  0  0  0  3  0  0  0  0  0  0
  -29.9870  -21.5530   20.6640 C   0  0  0  0  0  0  0  0  0  0  0  0
  -29.2470  -22.1370   19.6100 C   0  0  0  0  0  0  0  0  0  0  0  0
  -29.0230  -24.2510   20.8700 C   0  0  0  0  0  0  0  0  0  0  0  0
  -30.0160  -19.3620   19.4980 C   0  0  0  0  0  0  0  0  0  0  0  0
  -29.3530  -19.9900   18.3990 C   0  0  0  0  0  0  0  0  0  0  0  0
  -30.3490  -17.8430   19.4760 C   0  0  0  0  0  2  0  0  0  0  0  0
  -30.4970  -17.0970   20.8370 C   0  0  0  0  0  2  0  0  0  0  0  0
  -30.9020  -14.6290   20.2830 C   0  0  0  0  0  0  0  0  0  0  0  0
  -30.5880  -12.4790   19.1080 C   0  0  0  0  0  2  0  0  0  0  0  0
  -29.6250  -12.7040   17.9230 C   0  0  0  0  0  2  0  0  0  0  0  0
  -28.1590  -12.5570   18.3770 C   0  0  0  0  0  2  0  0  0  0  0  0
  -27.8450  -13.3780   19.6560 C   0  0  0  0  0  3  0  0  0  0  0  0
  -28.9190  -13.1360   20.7430 C   0  0  0  0  0  2  0  0  0  0  0  0
  -30.2350  -13.4480   20.1580 N   0  0  0  0  0  0  0  0  0  0  0  0
  -32.0290  -14.8180   19.8240 O   0  0  0  0  0  0  0  0  0  0  0  0
  -30.1730  -15.6510   20.7760 N   0  0  0  0  0  0  0  0  0  0  0  0
  -29.2530  -15.3930   21.1050 H   0  0  0  0  0  0  0  0  0  0  0  0
  -25.4540  -13.9940   20.3850 C   0  0  0  0  0  0  0  0  0  0  0  0
  -24.3860  -13.2250   20.7600 C   0  0  0  0  0  0  0  0  0  0  0  0
  -24.8420  -11.8720   20.7240 C   0  0  0  0  0  0  0  0  0  0  0  0
  -26.4950  -13.1090   20.1480 N   0  0  0  0  0  0  0  0  0  0  0  0
  -26.1290  -11.8280   20.4070 N   0  0  0  0  0  0  0  0  0  0  0  0
  -24.1120  -10.6140   20.9170 C   0  0  0  0  0  0  0  0  0  0  0  0
  -24.5150   -9.6670   21.8860 C   0  0  0  0  0  3  0  0  0  0  0  0
  -23.7870   -8.4710   22.0650 C   0  0  0  0  0  3  0  0  0  0  0  0
  -22.6400   -8.2140   21.2770 C   0  0  0  0  0  0  0  0  0  0  0  0
  -22.2560   -9.1490   20.2990 C   0  0  0  0  0  3  0  0  0  0  0  0
  -22.9860  -10.3360   20.1180 C   0  0  0  0  0  3  0  0  0  0  0  0
  -21.8850   -7.0700   21.3640 O   0  0  0  0  0  0  0  0  0  0  0  0
  -21.7500   -6.3850   22.5460 C   0  0  0  0  0  0  0  0  0  0  0  0
  -21.2280   -6.9970   23.7070 C   0  0  0  0  0  3  0  0  0  0  0  0
  -21.0430   -6.2380   24.8800 C   0  0  0  0  0  3  0  0  0  0  0  0
  -21.3680   -4.8680   24.8910 C   0  0  0  0  0  0  0  0  0  0  0  0
  -21.8820   -4.2560   23.7340 C   0  0  0  0  0  3  0  0  0  0  0  0
  -22.0700   -5.0120   22.5630 C   0  0  0  0  0  0  0  0  0  0  0  0
  -22.5460   -4.4130   21.4460 F   0  0  0  0  0  0  0  0  0  0  0  0
  -21.1810   -4.1370   26.0130 F   0  0  0  0  0  0  0  0  0  0  0  0
  -22.9930  -13.7080   21.0440 C   0  0  0  0  0  0  0  0  0  0  0  0
  -22.2730  -13.0200   21.9220 N   0  0  0  0  0  0  0  0  0  0  0  0
  -22.5520  -14.7320   20.5220 O   0  0  0  0  0  0  0  0  0  0  0  0
  -22.6420  -12.1920   22.3640 H   0  0  0  0  0  0  0  0  0  0  0  0
  -21.3390  -13.3270   22.1570 H   0  0  0  0  0  0  0  0  0  0  0  0
  -25.6240  -15.3640   20.2070 N   0  0  0  0  0  0  0  0  0  0  0  0
  -24.8590  -16.0190   20.3220 H   0  0  0  0  0  0  0  0  0  0  0  0
  -26.4750  -15.8020   19.8810 H   0  0  0  0  0  0  0  0  0  0  0  0
  -29.0430  -19.2500   17.0940 C   0  0  0  0  0  2  0  0  0  0  0  0
  -30.0320  -18.1840   15.1080 C   0  0  0  0  0  1  0  0  0  0  0  0
  -30.7290  -20.4550   15.7320 C   0  0  0  0  0  1  0  0  0  0  0  0
  -30.2360  -19.1450   16.2160 N   0  0  1  0  0  4  0  0  0  0  0  0
  -30.9740  -18.7630   16.7860 H   0  0  0  0  0  0  0  0  0  0  0  0
  -28.2800  -25.5770   21.1440 C   0  0  0  0  0  2  0  0  0  0  0  0
  -28.4190  -26.6640   20.1990 O   0  0  0  0  0  0  0  0  0  0  0  0
  -24.5970  -31.9360   23.1900 C   0  0  0  0  0  0  0  0  0  0  0  0
  -27.2930  -27.4710   20.1610 C   0  0  0  0  0  0  0  0  0  0  0  0
  -23.4140  -30.5140   21.5500 C   0  0  0  0  0  3  0  0  0  0  0  0
  -24.8920  -28.9780   20.1430 C   0  0  0  0  0  0  0  0  0  0  0  0
  -25.9420  -30.8840   21.3690 C   0  0  0  0  0  2  0  0  0  0  0  0
  -26.0450  -29.5080   20.7370 C   0  0  0  0  0  0  0  0  0  0  0  0
  -27.2530  -28.7620   20.7470 C   0  0  0  0  0  3  0  0  0  0  0  0
  -26.1260  -26.9650   19.5540 C   0  0  0  0  0  3  0  0  0  0  0  0
  -24.9280  -27.7050   19.5470 C   0  0  0  0  0  3  0  0  0  0  0  0
  -23.6380  -29.8270   20.1770 C   0  0  0  0  0  2  0  0  0  0  0  0
  -24.6690  -31.1260   22.0940 N   0  0  0  0  0  0  0  0  0  0  0  0
  -23.5100  -32.2060   23.7170 O   0  0  0  0  0  0  0  0  0  0  0  0
  -22.7600  -29.4960   22.5130 C   0  0  0  0  0  0  0  0  0  0  0  0
  -21.4350  -29.3190   22.3910 N   0  0  0  0  0  0  0  0  0  0  0  0
  -23.4440  -28.8670   23.3250 O   0  0  0  0  0  0  0  0  0  0  0  0
  -20.9430  -29.8780   21.7090 H   0  0  0  0  0  0  0  0  0  0  0  0
  -18.0490  -28.1700   22.9360 C   0  0  0  0  0  0  0  0  0  0  0  0
  -20.6160  -28.3830   23.1640 C   0  0  0  0  0  3  0  0  0  0  0  0
  -20.6840  -26.9590   22.5640 C   0  0  0  0  0  2  0  0  0  0  0  0
  -19.5580  -26.6690   21.5670 C   0  0  0  0  0  2  0  0  0  0  0  0
  -18.1910  -26.8270   22.2390 C   0  0  0  0  0  2  0  0  0  0  0  0
  -19.1870  -28.9070   23.3540 C   0  0  0  0  0  0  0  0  0  0  0  0
  -19.0000  -30.1670   23.9650 C   0  0  0  0  0  3  0  0  0  0  0  0
  -17.7070  -30.6870   24.1620 C   0  0  0  0  0  3  0  0  0  0  0  0
  -16.5830  -29.9450   23.7590 C   0  0  0  0  0  3  0  0  0  0  0  0
  -16.7550  -28.6880   23.1510 C   0  0  0  0  0  3  0  0  0  0  0  0
  -25.8740  -32.5800   23.8150 C   0  0  0  0  0  3  0  0  0  0  0  0
  -25.5500  -33.9760   24.1410 N   0  0  0  0  0  0  0  0  0  0  0  0
  -25.8890  -35.0310   23.3880 C   0  0  0  0  0  0  0  0  0  0  0  0
  -26.5780  -34.9320   22.3690 O   0  0  0  0  0  0  0  0  0  0  0  0
  -24.9390  -34.1260   24.9310 H   0  0  0  0  0  0  0  0  0  0  0  0
  -24.1690  -36.8210   22.9900 C   0  0  0  0  0  1  0  0  0  0  0  0
  -25.3840  -36.4140   23.8380 C   0  0  0  0  0  3  0  0  0  0  0  0
  -27.4900  -37.2960   24.7400 C   0  0  0  0  0  1  0  0  0  0  0  0
  -26.4160  -37.4700   23.7660 N   0  0  0  0  0  0  0  0  0  0  0  0
  -26.0020  -38.3860   23.9130 H   0  0  0  0  0  0  0  0  0  0  0  0
  -26.3950  -31.8160   25.0930 C   0  0  1  0  0  0  0  0  0  0  0  0
  -25.2980  -31.5570   26.1520 C   0  0  0  0  0  1  0  0  0  0  0  0
  -27.0030  -30.4500   24.6990 C   0  0  0  0  0  1  0  0  0  0  0  0
  -27.5300  -32.6260   25.7600 C   0  0  0  0  0  1  0  0  0  0  0  0
  1  2  1  0
  3  6  1  0
  4  8  1  0
  5  7  1  0
  6  1  2  0
  7  4  2  0
  7  6  1  0
  8 56  1  0
  8  2  2  0
  9  3  2  0
 10  5  2  0
 10  9  1  0
 11  9  1  0
 11 12  1  0
 13 21  1  0
 14 19  1  0
 15 16  1  0
 15 14  1  0
 17 16  1  0
 17 26  1  0
 17 18  1  0
 19 13  1  0
 19 18  1  0
 20 13  2  0
 21 12  1  0
 21 22  1  0
 23 24  2  0
 24 43  1  0
 25 24  1  0
 25 28  1  0
 26 23  1  0
 26 27  1  0
 27 25  2  0
 28 29  1  0
 29 30  2  0
 31 34  1  0
 31 30  1  0
 32 31  2  0
 33 32  1  0
 33 28  2  0
 34 35  1  0
 35 40  2  0
 35 36  1  0
 36 37  2  0
 37 38  1  0
 38 42  1  0
 39 38  2  0
 40 39  1  0
 41 40  1  0
 43 44  1  0
 44 47  1  0
 44 46  1  0
 45 43  2  0
 48 49  1  0
 48 23  1  0
 50 48  1  0
 51 10  1  0
 52 54  1  0
 53 54  1  0
 54 55  1  1
 54 51  1  0
 57 56  1  0
 58 69  2  0
 59 57  1  0
 59 64  1  0
 60 68  1  0
 60 70  1  0
 61 67  1  0
 61 63  1  0
 62 68  1  0
 63 64  2  0
 63 62  1  0
 65 59  2  0
 66 65  1  0
 66 61  2  0
 67 60  1  0
 68 58  1  0
 70 72  2  0
 71 70  1  0
 73 71  1  0
 74 83  2  0
 74 79  1  0
 75 71  1  0
 75 79  1  0
 76 75  1  0
 77 78  1  0
 77 76  1  0
 78 74  1  0
 79 80  2  0
 80 81  1  0
 82 81  2  0
 83 82  1  0
 84 58  1  0
 84 85  1  0
 84 94  1  0
 85 88  1  0
 86 90  1  0
 86 85  1  0
 87 86  2  0
 90 89  1  0
 92 90  1  0
 92 93  1  0
 92 91  1  0
 94 97  1  1
 94 95  1  0
 96 94  1  0
M  ISO  4  13 100  21 100  56 101  57 101
M  END
>  <TORSDO>  (26) 
F 21

>  <SCORE>  (26) 
-13.662

>  <name>  (26) 
25

>  <ligand_id>  (26) 
25

>  <original_smiles>  (26) 
[H]c1c([H])c([H])c2c(c1[H])C([H])([H])C([H])([H])C([H])([H])C2([H])N([H])C(=O)C1([H])N(C(=O)C([H])(N([H])C(=O)C([H])(N([H])C([H])([H])[H])C([H])([H])[H])C(C([H])([H])[H])(C([H])([H])[H])C([H])([H])[H])C([H])([H])c2c([H])c(OC([H])([H])c3c([H])c([H])c4c([H])c(C([H])([H])C([H])([H])N([H])C(=O)N5C([H])([H])C([H])([H])C([H])([H])C([H])(n6nc(-c7c([H])c([H])c(Oc8c([H])c([H])c(F)c([H])c8F)c([H])c7[H])c(C(=O)N([H])[H])c6N([H])[H])C5([H])[H])c(C([H])([H])[N+]([H])(C([H])([H])[H])C([H])([H])[H])c([H])c4c3[H])c([H])c([H])c2C1([H])[H]

>  <smiles>  (26) 
[H]c1c([H])c([H])c2c(c1[H])C([H])([H])C([H])([H])C([H])([H])C2([H])N([H])C(=O)C1([H])N(C(=O)C([H])(N([H])C(=O)C([H])(N([H])C([H])([H])[H])C([H])([H])[H])C(C([H])([H])[H])(C([H])([H])[H])C([H])([H])[H])C([H])([H])c2c([H])c(OC([H])([H])c3c([H])c([H])c4c([H])c(C([H])([H])C([H])([H])N([H])C(=O)N5C([H])([H])C([H])([H])C([H])([H])C([H])(n6nc(-c7c([H])c([H])c(Oc8c([H])c([H])c(F)c([H])c8F)c([H])c7[H])c(C(=O)N([H])[H])c6N([H])[H])C5([H])[H])c(C([H])([H])[N+]([H])(C([H])([H])[H])C([H])([H])[H])c([H])c4c3[H])c([H])c([H])c2C1([H])[H]

$$$$
26:0:0
     RDKit          3D

 95104  0  0  1  0  0  0  0  0999 V2000
  -28.5570  -19.3770   19.9800 C   0  0  0  0  0  2  0  0  0  0  0  0
  -32.2900  -19.2200   20.6780 C   0  0  0  0  0  3  0  0  0  0  0  0
  -32.5440  -17.9010   21.0430 C   0  0  0  0  0  3  0  0  0  0  0  0
  -31.0040  -19.5720   20.2680 C   0  0  0  0  0  3  0  0  0  0  0  0
  -31.5690  -16.9030   20.8770 C   0  0  0  0  0  0  0  0  0  0  0  0
  -29.9590  -18.6310   20.1180 C   0  0  0  0  0  0  0  0  0  0  0  0
  -30.3100  -17.1750   20.2320 C   0  0  0  0  0  0  0  0  0  0  0  0
  -30.0950  -14.7690   19.2370 C   0  0  0  0  0  0  0  0  0  0  0  0
  -29.6000  -12.5890   18.0870 C   0  0  0  0  0  2  0  0  0  0  0  0
  -28.4510  -12.7510   17.0690 C   0  0  0  0  0  2  0  0  0  0  0  0
  -27.0930  -12.5460   17.7640 C   0  0  0  0  0  2  0  0  0  0  0  0
  -26.9780  -13.3390   19.0920 C   0  0  0  0  0  3  0  0  0  0  0  0
  -28.2300  -13.1810   19.9820 C   0  0  0  0  0  2  0  0  0  0  0  0
  -29.3850  -13.5830   19.1720 N   0  0  0  0  0  0  0  0  0  0  0  0
  -31.1660  -14.8250   18.6260 O   0  0  0  0  0  0  0  0  0  0  0  0
  -29.5590  -15.9360   19.8210 N   0  0  0  0  0  0  0  0  0  0  0  0
  -28.5840  -15.9000   20.0730 H   0  0  0  0  0  0  0  0  0  0  0  0
  -24.7550  -13.8760   20.2440 C   0  0  0  0  0  0  0  0  0  0  0  0
  -23.7820  -13.0790   20.7820 C   0  0  0  0  0  0  0  0  0  0  0  0
  -24.2510  -11.7360   20.6460 C   0  0  0  0  0  0  0  0  0  0  0  0
  -25.7510  -13.0170   19.8110 N   0  0  0  0  0  0  0  0  0  0  0  0
  -25.4670  -11.7240   20.1150 N   0  0  0  0  0  0  0  0  0  0  0  0
  -23.5840  -10.4600   20.9380 C   0  0  0  0  0  0  0  0  0  0  0  0
  -24.1350   -9.5280   21.8450 C   0  0  0  0  0  3  0  0  0  0  0  0
  -23.4650   -8.3180   22.1240 C   0  0  0  0  0  3  0  0  0  0  0  0
  -22.2290   -8.0290   21.4970 C   0  0  0  0  0  0  0  0  0  0  0  0
  -21.6960   -8.9490   20.5770 C   0  0  0  0  0  3  0  0  0  0  0  0
  -22.3670  -10.1520   20.2970 C   0  0  0  0  0  3  0  0  0  0  0  0
  -21.5190   -6.8690   21.6880 O   0  0  0  0  0  0  0  0  0  0  0  0
  -21.5590   -6.1890   22.8790 C   0  0  0  0  0  0  0  0  0  0  0  0
  -21.1790   -6.7940   24.0960 C   0  0  0  0  0  3  0  0  0  0  0  0
  -21.1690   -6.0380   25.2860 C   0  0  0  0  0  3  0  0  0  0  0  0
  -21.5270   -4.6780   25.2600 C   0  0  0  0  0  0  0  0  0  0  0  0
  -21.9000   -4.0710   24.0470 C   0  0  0  0  0  3  0  0  0  0  0  0
  -21.9120   -4.8240   22.8590 C   0  0  0  0  0  0  0  0  0  0  0  0
  -22.2510   -4.2290   21.6900 F   0  0  0  0  0  0  0  0  0  0  0  0
  -21.5100   -3.9490   26.4000 F   0  0  0  0  0  0  0  0  0  0  0  0
  -22.4480  -13.5310   21.3000 C   0  0  0  0  0  0  0  0  0  0  0  0
  -21.9000  -12.8230   22.2820 N   0  0  0  0  0  0  0  0  0  0  0  0
  -21.9050  -14.5480   20.8680 O   0  0  0  0  0  0  0  0  0  0  0  0
  -22.3560  -12.0010   22.6490 H   0  0  0  0  0  0  0  0  0  0  0  0
  -21.0130  -13.1080   22.6710 H   0  0  0  0  0  0  0  0  0  0  0  0
  -24.8670  -15.2520   20.0630 N   0  0  0  0  0  0  0  0  0  0  0  0
  -24.1190  -15.8880   20.3120 H   0  0  0  0  0  0  0  0  0  0  0  0
  -25.6250  -15.7060   19.5720 H   0  0  0  0  0  0  0  0  0  0  0  0
  -30.9490  -14.6730   22.1610 C   0  0  0  0  0  2  0  0  0  0  0  0
  -31.9880  -15.3920   22.9830 C   0  0  0  0  0  2  0  0  0  0  0  0
  -31.9600  -15.5720   21.4790 C   0  0  0  0  0  3  0  0  0  0  0  0
  -28.3280  -20.9700   19.5220 C   0  0  0  0  0  2  0  0  0  0  0  0
  -28.7260  -22.2190   20.3550 N   0  0  0  0  0  4  0  0  0  0  0  0
  -29.6850  -22.4470   20.1490 H   0  0  0  0  0  0  0  0  0  0  0  0
  -28.7290  -21.8870   21.3070 H   0  0  0  0  0  0  0  0  0  0  0  0
  -27.9040  -23.5540   20.4270 C   0  0  0  0  0  2  0  0  0  0  0  0
  -28.2680  -24.9060   19.5720 C   0  0  0  0  0  2  0  0  0  0  0  0
  -28.1580  -26.3460   20.0620 O   0  0  0  0  0  0  0  0  0  0  0  0
  -24.4020  -31.7760   23.0940 C   0  0  0  0  0  0  0  0  0  0  0  0
  -27.0320  -27.2080   19.9760 C   0  0  0  0  0  0  0  0  0  0  0  0
  -23.2060  -30.3870   21.4390 C   0  0  0  0  0  3  0  0  0  0  0  0
  -24.6640  -28.8540   19.9840 C   0  0  0  0  0  0  0  0  0  0  0  0
  -25.7460  -30.7090   21.2560 C   0  0  0  0  0  2  0  0  0  0  0  0
  -25.8310  -29.3330   20.5880 C   0  0  0  0  0  0  0  0  0  0  0  0
  -27.0140  -28.5220   20.5710 C   0  0  0  0  0  3  0  0  0  0  0  0
  -25.8400  -26.7990   19.3440 C   0  0  0  0  0  3  0  0  0  0  0  0
  -24.6750  -27.5990   19.3500 C   0  0  0  0  0  3  0  0  0  0  0  0
  -23.4220  -29.7260   20.0500 C   0  0  0  0  0  2  0  0  0  0  0  0
  -24.4710  -30.9780   21.9850 N   0  0  0  0  0  0  0  0  0  0  0  0
  -23.3170  -32.0390   23.6340 O   0  0  0  0  0  0  0  0  0  0  0  0
  -22.5520  -29.3570   22.3930 C   0  0  0  0  0  0  0  0  0  0  0  0
  -21.2330  -29.1440   22.2460 N   0  0  0  0  0  0  0  0  0  0  0  0
  -23.2320  -28.7520   23.2260 O   0  0  0  0  0  0  0  0  0  0  0  0
  -20.7410  -29.6880   21.5510 H   0  0  0  0  0  0  0  0  0  0  0  0
  -17.8900  -27.8210   22.6680 C   0  0  0  0  0  0  0  0  0  0  0  0
  -20.4280  -28.1820   23.0030 C   0  0  0  0  0  3  0  0  0  0  0  0
  -20.5990  -26.7500   22.4450 C   0  0  0  0  0  2  0  0  0  0  0  0
  -19.5380  -26.3770   21.4040 C   0  0  0  0  0  2  0  0  0  0  0  0
  -18.1350  -26.4740   22.0090 C   0  0  0  0  0  2  0  0  0  0  0  0
  -18.9660  -28.6300   23.1190 C   0  0  0  0  0  0  0  0  0  0  0  0
  -18.6840  -29.8880   23.6950 C   0  0  0  0  0  3  0  0  0  0  0  0
  -17.3570  -30.3400   23.8230 C   0  0  0  0  0  3  0  0  0  0  0  0
  -16.2940  -29.5300   23.3860 C   0  0  0  0  0  3  0  0  0  0  0  0
  -16.5610  -28.2720   22.8160 C   0  0  0  0  0  3  0  0  0  0  0  0
  -25.6800  -32.4150   23.7210 C   0  0  0  0  0  3  0  0  0  0  0  0
  -25.3510  -33.7990   24.0920 N   0  0  0  0  0  0  0  0  0  0  0  0
  -25.6520  -34.8790   23.3580 C   0  0  0  0  0  0  0  0  0  0  0  0
  -26.3040  -34.8150   22.3120 O   0  0  0  0  0  0  0  0  0  0  0  0
  -24.7700  -33.9230   24.9090 H   0  0  0  0  0  0  0  0  0  0  0  0
  -23.8810  -36.6480   23.0940 C   0  0  0  0  0  1  0  0  0  0  0  0
  -25.1510  -36.2470   23.8630 C   0  0  0  0  0  3  0  0  0  0  0  0
  -27.2870  -37.1560   24.6620 C   0  0  0  0  0  1  0  0  0  0  0  0
  -26.1590  -37.3230   23.7480 N   0  0  0  0  0  0  0  0  0  0  0  0
  -25.7390  -38.2310   23.9270 H   0  0  0  0  0  0  0  0  0  0  0  0
  -26.2180  -31.6220   24.9750 C   0  0  1  0  0  0  0  0  0  0  0  0
  -25.1320  -31.3190   26.0350 C   0  0  0  0  0  1  0  0  0  0  0  0
  -26.8450  -30.2760   24.5450 C   0  0  0  0  0  1  0  0  0  0  0  0
  -27.3430  -32.4330   25.6630 C   0  0  0  0  0  1  0  0  0  0  0  0
  1  6  1  0
  2  3  1  0
  4  2  2  0
  5  3  2  0
  5 48  1  0
  6  7  2  0
  6  4  1  0
  7  5  1  0
  8 16  1  0
  9 14  1  0
 10 11  1  0
 10  9  1  0
 12 11  1  0
 12 21  1  0
 12 13  1  0
 14  8  1  0
 14 13  1  0
 15  8  2  0
 16 17  1  0
 16  7  1  0
 18 19  2  0
 19 38  1  0
 20 19  1  0
 20 23  1  0
 21 22  1  0
 21 18  1  0
 22 20  2  0
 23 24  1  0
 24 25  2  0
 26 29  1  0
 26 25  1  0
 27 26  2  0
 28 27  1  0
 28 23  2  0
 29 30  1  0
 30 31  1  0
 31 32  2  0
 33 32  1  0
 33 37  1  0
 34 33  2  0
 35 30  2  0
 35 34  1  0
 36 35  1  0
 38 39  1  0
 39 41  1  0
 39 42  1  0
 40 38  2  0
 43 18  1  0
 43 44  1  0
 45 43  1  0
 46 47  1  0
 48 46  1  0
 48 47  1  0
 49  1  1  0
 49 50  1  0
 50 53  1  0
 50 52  1  0
 51 50  1  0
 54 55  1  0
 54 53  1  0
 56 67  2  0
 57 55  1  0
 57 62  1  0
 58 66  1  0
 58 68  1  0
 59 65  1  0
 59 61  1  0
 60 66  1  0
 61 60  1  0
 62 61  2  0
 63 64  1  0
 63 57  2  0
 64 59  2  0
 65 58  1  0
 66 56  1  0
 68 70  2  0
 69 68  1  0
 71 69  1  0
 72 81  2  0
 72 77  1  0
 73 69  1  0
 73 77  1  0
 74 73  1  0
 75 76  1  0
 75 74  1  0
 76 72  1  0
 77 78  2  0
 78 79  1  0
 80 79  2  0
 81 80  1  0
 82 56  1  0
 82 83  1  0
 82 92  1  0
 83 86  1  0
 84 88  1  0
 84 83  1  0
 85 84  2  0
 88 87  1  0
 90 88  1  0
 90 91  1  0
 90 89  1  0
 92 95  1  1
 92 93  1  0
 94 92  1  0
M  ISO  4   8 100  16 100  54 101  55 101
M  END
>  <TORSDO>  (27) 
F 22

>  <SCORE>  (27) 
-7.161

>  <name>  (27) 
26

>  <ligand_id>  (27) 
26

>  <original_smiles>  (27) 
[H]c1c([H])c([H])c2c(c1[H])C([H])([H])C([H])([H])C([H])([H])C2([H])N([H])C(=O)C1([H])N(C(=O)C([H])(N([H])C(=O)C([H])(N([H])C([H])([H])[H])C([H])([H])[H])C(C([H])([H])[H])(C([H])([H])[H])C([H])([H])[H])C([H])([H])c2c([H])c(OC([H])([H])C([H])([H])[N+]([H])([H])C([H])([H])C([H])([H])c3c([H])c([H])c([H])c(C4([H])C([H])([H])C4([H])[H])c3N([H])C(=O)N3C([H])([H])C([H])([H])C([H])([H])C([H])(n4nc(-c5c([H])c([H])c(Oc6c([H])c([H])c(F)c([H])c6F)c([H])c5[H])c(C(=O)N([H])[H])c4N([H])[H])C3([H])[H])c([H])c([H])c2C1([H])[H]

>  <smiles>  (27) 
[H]c1c([H])c([H])c2c(c1[H])C([H])([H])C([H])([H])C([H])([H])C2([H])N([H])C(=O)C1([H])N(C(=O)C([H])(N([H])C(=O)C([H])(N([H])C([H])([H])[H])C([H])([H])[H])C(C([H])([H])[H])(C([H])([H])[H])C([H])([H])[H])C([H])([H])c2c([H])c(OC([H])([H])C([H])([H])[N+]([H])([H])C([H])([H])C([H])([H])c3c([H])c([H])c([H])c(C4([H])C([H])([H])C4([H])[H])c3N([H])C(=O)N3C([H])([H])C([H])([H])C([H])([H])C([H])(n4nc(-c5c([H])c([H])c(Oc6c([H])c([H])c(F)c([H])c6F)c([H])c5[H])c(C(=O)N([H])[H])c4N([H])[H])C3([H])[H])c([H])c([H])c2C1([H])[H]

$$$$
27:0:0
     RDKit          3D

 91 99  0  0  1  0  0  0  0  0999 V2000
  -30.3100  -21.8510   20.5360 C   0  0  0  0  0  2  0  0  0  0  0  0
  -28.0820  -22.1840   19.8200 C   0  0  0  0  0  2  0  0  0  0  0  0
  -29.8790  -23.3180   20.8710 C   0  0  0  0  0  3  0  0  0  0  0  0
  -28.7270  -23.6410   19.9170 C   0  0  0  0  0  3  0  0  0  0  0  0
  -31.0330  -24.3180   20.7300 C   0  0  0  0  0  1  0  0  0  0  0  0
  -29.1710  -21.1290   19.9090 N   0  0  2  0  0  4  0  0  0  0  0  0
  -29.4370  -20.9760   18.9460 H   0  0  0  0  0  0  0  0  0  0  0  0
  -27.0920  -24.7780   21.6220 C   0  0  0  0  0  1  0  0  0  0  0  0
  -27.7830  -24.9120   20.2490 C   0  0  0  0  0  3  0  0  0  0  0  0
  -28.2030  -26.3610   20.1390 O   0  0  0  0  0  0  0  0  0  0  0  0
  -24.6100  -31.8940   23.2580 C   0  0  0  0  0  0  0  0  0  0  0  0
  -27.1590  -27.3180   20.0980 C   0  0  0  0  0  0  0  0  0  0  0  0
  -23.3950  -30.5130   21.6240 C   0  0  0  0  0  3  0  0  0  0  0  0
  -24.8220  -28.9800   20.1730 C   0  0  0  0  0  0  0  0  0  0  0  0
  -25.9470  -30.7980   21.4430 C   0  0  0  0  0  2  0  0  0  0  0  0
  -26.0120  -29.4330   20.7650 C   0  0  0  0  0  0  0  0  0  0  0  0
  -27.1850  -28.6110   20.7270 C   0  0  0  0  0  3  0  0  0  0  0  0
  -25.9570  -26.9730   19.4370 C   0  0  0  0  0  3  0  0  0  0  0  0
  -24.8000  -27.7550   19.5070 C   0  0  0  0  0  3  0  0  0  0  0  0
  -23.5940  -29.8590   20.2380 C   0  0  0  0  0  2  0  0  0  0  0  0
  -24.6690  -31.0870   22.1590 N   0  0  0  0  0  0  0  0  0  0  0  0
  -23.5290  -32.1800   23.7930 O   0  0  0  0  0  0  0  0  0  0  0  0
  -22.7350  -29.4840   22.5750 C   0  0  0  0  0  0  0  0  0  0  0  0
  -21.4080  -29.3040   22.4500 N   0  0  0  0  0  0  0  0  0  0  0  0
  -23.4180  -28.8540   23.3880 O   0  0  0  0  0  0  0  0  0  0  0  0
  -20.9190  -29.8670   21.7670 H   0  0  0  0  0  0  0  0  0  0  0  0
  -18.0340  -28.1010   22.9600 C   0  0  0  0  0  0  0  0  0  0  0  0
  -20.5930  -28.3670   23.2230 C   0  0  0  0  0  3  0  0  0  0  0  0
  -20.6930  -26.9330   22.6530 C   0  0  0  0  0  2  0  0  0  0  0  0
  -19.5920  -26.6050   21.6420 C   0  0  0  0  0  2  0  0  0  0  0  0
  -18.2100  -26.7500   22.2870 C   0  0  0  0  0  2  0  0  0  0  0  0
  -19.1520  -28.8670   23.3860 C   0  0  0  0  0  0  0  0  0  0  0  0
  -18.9310  -30.1290   23.9760 C   0  0  0  0  0  3  0  0  0  0  0  0
  -17.6270  -30.6310   24.1400 C   0  0  0  0  0  3  0  0  0  0  0  0
  -16.5230  -29.8640   23.7280 C   0  0  0  0  0  3  0  0  0  0  0  0
  -16.7270  -28.5990   23.1460 C   0  0  0  0  0  3  0  0  0  0  0  0
  -25.8980  -32.5190   23.8700 C   0  0  0  0  0  3  0  0  0  0  0  0
  -26.4170  -31.7480   25.1460 C   0  0  1  0  0  0  0  0  0  0  0  0
  -25.3240  -31.5160   26.2150 C   0  0  0  0  0  1  0  0  0  0  0  0
  -26.9970  -30.3640   24.7670 C   0  0  0  0  0  1  0  0  0  0  0  0
  -27.5710  -32.5410   25.8030 C   0  0  0  0  0  1  0  0  0  0  0  0
  -25.5880  -33.9180   24.2010 N   0  0  0  0  0  0  0  0  0  0  0  0
  -25.9100  -34.9730   23.4410 C   0  0  0  0  0  0  0  0  0  0  0  0
  -26.5730  -34.8730   22.4050 O   0  0  0  0  0  0  0  0  0  0  0  0
  -24.9970  -34.0670   25.0050 H   0  0  0  0  0  0  0  0  0  0  0  0
  -24.1770  -36.7660   23.1090 C   0  0  0  0  0  1  0  0  0  0  0  0
  -25.4270  -36.3610   23.9060 C   0  0  0  0  0  3  0  0  0  0  0  0
  -27.5700  -37.2480   24.7140 C   0  0  0  0  0  1  0  0  0  0  0  0
  -26.4580  -37.4140   23.7810 N   0  0  0  0  0  0  0  0  0  0  0  0
  -26.0530  -38.3340   23.9330 H   0  0  0  0  0  0  0  0  0  0  0  0
  -28.8590  -19.7430   20.5140 C   0  0  0  0  0  2  0  0  0  0  0  0
  -29.5210  -18.4080   19.8760 C   0  0  0  0  0  2  0  0  0  0  0  0
  -30.1310  -17.2490   20.8130 C   0  0  0  0  0  2  0  0  0  0  0  0
  -30.5730  -14.6950   20.3400 C   0  0  0  0  0  0  0  0  0  0  0  0
  -30.3620  -12.4450   19.3060 C   0  0  0  0  0  2  0  0  0  0  0  0
  -29.4180  -12.5630   18.0910 C   0  0  0  0  0  2  0  0  0  0  0  0
  -27.9450  -12.4080   18.5190 C   0  0  0  0  0  2  0  0  0  0  0  0
  -27.5850  -13.2750   19.7580 C   0  0  0  0  0  3  0  0  0  0  0  0
  -28.6480  -13.1340   20.8670 C   0  0  0  0  0  2  0  0  0  0  0  0
  -29.9480  -13.4760   20.2770 N   0  0  0  0  0  0  0  0  0  0  0  0
  -31.7540  -14.8230   20.0200 O   0  0  0  0  0  0  0  0  0  0  0  0
  -29.7700  -15.7920   20.5830 N   0  0  0  0  0  0  0  0  0  0  0  0
  -28.8120  -15.5530   20.7820 H   0  0  0  0  0  0  0  0  0  0  0  0
  -25.1980  -13.8770   20.4910 C   0  0  0  0  0  0  0  0  0  0  0  0
  -24.1340  -13.1060   20.8750 C   0  0  0  0  0  0  0  0  0  0  0  0
  -24.5970  -11.7550   20.8450 C   0  0  0  0  0  0  0  0  0  0  0  0
  -26.2400  -12.9950   20.2540 N   0  0  0  0  0  0  0  0  0  0  0  0
  -25.8860  -11.7160   20.5280 N   0  0  0  0  0  0  0  0  0  0  0  0
  -23.8680  -10.4940   21.0390 C   0  0  0  0  0  0  0  0  0  0  0  0
  -24.3110   -9.5210   21.9600 C   0  0  0  0  0  3  0  0  0  0  0  0
  -23.5870   -8.3250   22.1470 C   0  0  0  0  0  3  0  0  0  0  0  0
  -22.4050   -8.0880   21.4070 C   0  0  0  0  0  0  0  0  0  0  0  0
  -21.9760   -9.0520   20.4750 C   0  0  0  0  0  3  0  0  0  0  0  0
  -22.7040  -10.2390   20.2880 C   0  0  0  0  0  3  0  0  0  0  0  0
  -21.6500   -6.9450   21.5040 O   0  0  0  0  0  0  0  0  0  0  0  0
  -21.6270   -6.1910   22.6490 C   0  0  0  0  0  0  0  0  0  0  0  0
  -21.2410   -6.7350   23.8930 C   0  0  0  0  0  3  0  0  0  0  0  0
  -21.1590   -5.9050   25.0280 C   0  0  0  0  0  3  0  0  0  0  0  0
  -21.4590   -4.5350   24.9230 C   0  0  0  0  0  0  0  0  0  0  0  0
  -21.8360   -3.9890   23.6850 C   0  0  0  0  0  3  0  0  0  0  0  0
  -21.9190   -4.8160   22.5500 C   0  0  0  0  0  0  0  0  0  0  0  0
  -22.2600   -4.2800   21.3540 F   0  0  0  0  0  0  0  0  0  0  0  0
  -21.3750   -3.7370   26.0140 F   0  0  0  0  0  0  0  0  0  0  0  0
  -22.7370  -13.5840   21.1490 C   0  0  0  0  0  0  0  0  0  0  0  0
  -22.0130  -12.8890   22.0210 N   0  0  0  0  0  0  0  0  0  0  0  0
  -22.2950  -14.6050   20.6230 O   0  0  0  0  0  0  0  0  0  0  0  0
  -22.3830  -12.0670   22.4690 H   0  0  0  0  0  0  0  0  0  0  0  0
  -21.0720  -13.1830   22.2430 H   0  0  0  0  0  0  0  0  0  0  0  0
  -25.3650  -15.2470   20.3060 N   0  0  0  0  0  0  0  0  0  0  0  0
  -24.5960  -15.9040   20.4040 H   0  0  0  0  0  0  0  0  0  0  0  0
  -26.2040  -15.6760   19.9390 H   0  0  0  0  0  0  0  0  0  0  0  0
  1  3  1  0
  2  6  1  0
  2  4  1  0
  3  5  1  0
  4  9  1  0
  4  3  1  0
  6 51  1  0
  6  1  1  0
  6  7  1  6
  9  8  1  0
 10  9  1  0
 11 22  2  0
 12 10  1  0
 12 17  1  0
 13 21  1  0
 13 23  1  0
 14 20  1  0
 14 16  1  0
 15 21  1  0
 16 15  1  0
 17 16  2  0
 18 19  1  0
 18 12  2  0
 19 14  2  0
 20 13  1  0
 21 11  1  0
 23 25  2  0
 24 23  1  0
 26 24  1  0
 27 36  2  0
 27 32  1  0
 28 24  1  0
 28 32  1  0
 29 28  1  0
 30 31  1  0
 30 29  1  0
 31 27  1  0
 32 33  2  0
 33 34  1  0
 35 34  2  0
 36 35  1  0
 37 11  1  0
 37 42  1  0
 37 38  1  0
 38 41  1  1
 38 39  1  0
 40 38  1  0
 42 45  1  0
 43 47  1  0
 43 42  1  0
 44 43  2  0
 47 46  1  0
 49 47  1  0
 49 50  1  0
 49 48  1  0
 52 51  1  0
 52 53  1  0
 54 62  1  0
 55 60  1  0
 56 57  1  0
 56 55  1  0
 58 57  1  0
 58 67  1  0
 58 59  1  0
 60 54  1  0
 60 59  1  0
 61 54  2  0
 62 63  1  0
 62 53  1  0
 64 65  2  0
 65 84  1  0
 66 65  1  0
 66 69  1  0
 67 64  1  0
 67 68  1  0
 68 66  2  0
 69 70  1  0
 70 71  2  0
 72 75  1  0
 72 71  1  0
 73 72  2  0
 74 73  1  0
 74 69  2  0
 75 76  1  0
 76 77  1  0
 77 78  2  0
 79 78  1  0
 79 83  1  0
 80 79  2  0
 81 76  2  0
 81 80  1  0
 82 81  1  0
 84 85  1  0
 85 88  1  0
 85 87  1  0
 86 84  2  0
 89 90  1  0
 89 64  1  0
 91 89  1  0
M  ISO  4   9 101  10 101  54 100  62 100
M  END
>  <TORSDO>  (28) 
F 20

>  <SCORE>  (28) 
-13.899

>  <name>  (28) 
27

>  <ligand_id>  (28) 
27

>  <original_smiles>  (28) 
[H]c1c([H])c([H])c2c(c1[H])C([H])([H])C([H])([H])C([H])([H])C2([H])N([H])C(=O)C1([H])N(C(=O)C([H])(N([H])C(=O)C([H])(N([H])C([H])([H])[H])C([H])([H])[H])C(C([H])([H])[H])(C([H])([H])[H])C([H])([H])[H])C([H])([H])c2c([H])c(OC([H])(C([H])([H])[H])C3([H])C([H])(C([H])([H])[H])C([H])([H])[N+]([H])(C([H])([H])C([H])([H])C([H])([H])N([H])C(=O)N4C([H])([H])C([H])([H])C([H])([H])C([H])(n5nc(-c6c([H])c([H])c(Oc7c([H])c([H])c(F)c([H])c7F)c([H])c6[H])c(C(=O)N([H])[H])c5N([H])[H])C4([H])[H])C3([H])[H])c([H])c([H])c2C1([H])[H]

>  <smiles>  (28) 
[H]c1c([H])c([H])c2c(c1[H])C([H])([H])C([H])([H])C([H])([H])C2([H])N([H])C(=O)C1([H])N(C(=O)C([H])(N([H])C(=O)C([H])(N([H])C([H])([H])[H])C([H])([H])[H])C(C([H])([H])[H])(C([H])([H])[H])C([H])([H])[H])C([H])([H])c2c([H])c(OC([H])(C([H])([H])[H])C3([H])C([H])(C([H])([H])[H])C([H])([H])[N+]([H])(C([H])([H])C([H])([H])C([H])([H])N([H])C(=O)N4C([H])([H])C([H])([H])C([H])([H])C([H])(n5nc(-c6c([H])c([H])c(Oc7c([H])c([H])c(F)c([H])c7F)c([H])c6[H])c(C(=O)N([H])[H])c5N([H])[H])C4([H])[H])C3([H])[H])c([H])c([H])c2C1([H])[H]

$$$$
28:0:0
     RDKit          3D

105115  0  0  1  0  0  0  0  0999 V2000
  -29.1060  -20.7830   19.5810 C   0  0  0  0  0  3  0  0  0  0  0  0
  -29.9500  -18.1760   19.5570 C   0  0  0  0  0  2  0  0  0  0  0  0
  -29.9930  -17.9300   21.8900 C   0  0  0  0  0  2  0  0  0  0  0  0
  -30.5330  -17.2130   20.6330 C   0  0  0  0  0  3  0  0  0  0  0  0
  -30.0780  -19.6360   20.1560 C   0  0  0  0  0  3  0  0  0  0  0  0
  -29.9890  -19.3960   21.6170 N   0  0  0  0  0  4  0  0  0  0  0  0
  -30.7860  -19.8240   22.0600 H   0  0  0  0  0  0  0  0  0  0  0  0
  -29.1590  -19.8100   22.0110 H   0  0  0  0  0  0  0  0  0  0  0  0
  -30.9500  -14.6670   20.2260 C   0  0  0  0  0  0  0  0  0  0  0  0
  -30.6640  -12.4660   19.1160 C   0  0  0  0  0  2  0  0  0  0  0  0
  -29.6780  -12.6440   17.9410 C   0  0  0  0  0  2  0  0  0  0  0  0
  -28.2210  -12.4930   18.4220 C   0  0  0  0  0  2  0  0  0  0  0  0
  -27.9220  -13.3280   19.6950 C   0  0  0  0  0  3  0  0  0  0  0  0
  -29.0190  -13.1320   20.7660 C   0  0  0  0  0  2  0  0  0  0  0  0
  -30.3070  -13.4630   20.1410 N   0  0  0  0  0  0  0  0  0  0  0  0
  -32.1110  -14.8090   19.8290 O   0  0  0  0  0  0  0  0  0  0  0  0
  -30.1820  -15.7450   20.5710 N   0  0  0  0  0  0  0  0  0  0  0  0
  -29.2350  -15.5090   20.8260 H   0  0  0  0  0  0  0  0  0  0  0  0
  -25.5710  -13.9460   20.5280 C   0  0  0  0  0  0  0  0  0  0  0  0
  -24.5040  -13.1800   20.9100 C   0  0  0  0  0  0  0  0  0  0  0  0
  -24.9370  -11.8220   20.8130 C   0  0  0  0  0  0  0  0  0  0  0  0
  -26.5880  -13.0550   20.2220 N   0  0  0  0  0  0  0  0  0  0  0  0
  -26.2150  -11.7710   20.4540 N   0  0  0  0  0  0  0  0  0  0  0  0
  -24.1940  -10.5670   20.9860 C   0  0  0  0  0  0  0  0  0  0  0  0
  -24.6020   -9.5920   21.9210 C   0  0  0  0  0  3  0  0  0  0  0  0
  -23.8620   -8.4010   22.0840 C   0  0  0  0  0  3  0  0  0  0  0  0
  -22.6990   -8.1770   21.3110 C   0  0  0  0  0  0  0  0  0  0  0  0
  -22.3090   -9.1420   20.3650 C   0  0  0  0  0  3  0  0  0  0  0  0
  -23.0500  -10.3250   20.2000 C   0  0  0  0  0  3  0  0  0  0  0  0
  -21.9310   -7.0400   21.3830 O   0  0  0  0  0  0  0  0  0  0  0  0
  -21.8180   -6.3210   22.5460 C   0  0  0  0  0  0  0  0  0  0  0  0
  -21.3200   -6.8990   23.7340 C   0  0  0  0  0  3  0  0  0  0  0  0
  -21.1540   -6.1050   24.8870 C   0  0  0  0  0  3  0  0  0  0  0  0
  -21.4740   -4.7350   24.8510 C   0  0  0  0  0  0  0  0  0  0  0  0
  -21.9620   -4.1570   23.6670 C   0  0  0  0  0  3  0  0  0  0  0  0
  -22.1310   -4.9470   22.5180 C   0  0  0  0  0  0  0  0  0  0  0  0
  -22.5840   -4.3800   21.3730 F   0  0  0  0  0  0  0  0  0  0  0  0
  -21.3060   -3.9710   25.9560 F   0  0  0  0  0  0  0  0  0  0  0  0
  -23.1260  -13.6730   21.2490 C   0  0  0  0  0  0  0  0  0  0  0  0
  -22.4260  -12.9730   22.1340 N   0  0  0  0  0  0  0  0  0  0  0  0
  -22.6820  -14.7120   20.7640 O   0  0  0  0  0  0  0  0  0  0  0  0
  -22.8000  -12.1300   22.5460 H   0  0  0  0  0  0  0  0  0  0  0  0
  -21.5040  -13.2830   22.4030 H   0  0  0  0  0  0  0  0  0  0  0  0
  -25.7540  -15.3190   20.3930 N   0  0  0  0  0  0  0  0  0  0  0  0
  -24.9910  -15.9720   20.5350 H   0  0  0  0  0  0  0  0  0  0  0  0
  -26.5800  -15.7570   20.0060 H   0  0  0  0  0  0  0  0  0  0  0  0
  -27.7780  -22.7760   20.6510 C   0  0  0  0  0  3  0  0  0  0  0  0
  -30.1010  -23.1540   20.1630 C   0  0  0  0  0  3  0  0  0  0  0  0
  -27.6010  -24.1690   20.9160 C   0  0  0  0  0  3  0  0  0  0  0  0
  -29.9130  -24.5470   20.3980 C   0  0  0  0  0  3  0  0  0  0  0  0
  -29.0220  -22.2290   20.2240 C   0  0  0  0  0  0  0  0  0  0  0  0
  -28.6550  -25.1080   20.7360 C   0  0  0  0  0  0  0  0  0  0  0  0
  -28.5640  -26.5090   20.9020 O   0  0  0  0  0  0  0  0  0  0  0  0
  -24.6610  -32.0210   23.3680 C   0  0  0  0  0  0  0  0  0  0  0  0
  -27.4020  -27.2760   20.7820 C   0  0  0  0  0  0  0  0  0  0  0  0
  -23.5240  -30.5020   21.7830 C   0  0  0  0  0  3  0  0  0  0  0  0
  -25.0320  -28.8490   20.5410 C   0  0  0  0  0  0  0  0  0  0  0  0
  -26.0640  -30.8180   21.6830 C   0  0  0  0  0  2  0  0  0  0  0  0
  -26.1660  -29.3930   21.1560 C   0  0  0  0  0  0  0  0  0  0  0  0
  -27.3490  -28.6130   21.2740 C   0  0  0  0  0  3  0  0  0  0  0  0
  -26.2560  -26.7800   20.1230 C   0  0  0  0  0  3  0  0  0  0  0  0
  -25.0760  -27.5450   20.0180 C   0  0  0  0  0  3  0  0  0  0  0  0
  -23.7950  -29.7200   20.4670 C   0  0  0  0  0  2  0  0  0  0  0  0
  -24.7660  -31.1360   22.3340 N   0  0  0  0  0  0  0  0  0  0  0  0
  -23.5570  -32.3350   23.8350 O   0  0  0  0  0  0  0  0  0  0  0  0
  -22.8220  -29.5590   22.7880 C   0  0  0  0  0  0  0  0  0  0  0  0
  -21.5140  -29.3250   22.5840 N   0  0  0  0  0  0  0  0  0  0  0  0
  -23.4550  -29.0380   23.7100 O   0  0  0  0  0  0  0  0  0  0  0  0
  -21.0640  -29.8010   21.8140 H   0  0  0  0  0  0  0  0  0  0  0  0
  -18.1380  -28.0910   22.9600 C   0  0  0  0  0  0  0  0  0  0  0  0
  -20.6650  -28.4380   23.3770 C   0  0  0  0  0  3  0  0  0  0  0  0
  -20.8350  -26.9650   22.9390 C   0  0  0  0  0  2  0  0  0  0  0  0
  -19.8120  -26.5270   21.8860 C   0  0  0  0  0  2  0  0  0  0  0  0
  -18.3870  -26.6930   22.4210 C   0  0  0  0  0  2  0  0  0  0  0  0
  -19.2090  -28.9170   23.3950 C   0  0  0  0  0  0  0  0  0  0  0  0
  -18.9250  -30.2210   23.8550 C   0  0  0  0  0  3  0  0  0  0  0  0
  -17.6020  -30.6990   23.8890 C   0  0  0  0  0  3  0  0  0  0  0  0
  -16.5440  -29.8720   23.4730 C   0  0  0  0  0  3  0  0  0  0  0  0
  -16.8130  -28.5720   23.0130 C   0  0  0  0  0  3  0  0  0  0  0  0
  -25.9190  -32.6960   23.9970 C   0  0  0  0  0  3  0  0  0  0  0  0
  -26.4460  -31.9520   25.2850 C   0  0  1  0  0  0  0  0  0  0  0  0
  -25.3350  -31.6190   26.3100 C   0  0  0  0  0  1  0  0  0  0  0  0
  -27.1500  -30.6290   24.9040 C   0  0  0  0  0  1  0  0  0  0  0  0
  -27.5070  -32.8240   25.9970 C   0  0  0  0  0  1  0  0  0  0  0  0
  -25.5650  -34.0870   24.3120 N   0  0  0  0  0  0  0  0  0  0  0  0
  -25.8380  -35.1380   23.5280 C   0  0  0  0  0  0  0  0  0  0  0  0
  -26.4840  -35.0420   22.4810 O   0  0  0  0  0  0  0  0  0  0  0  0
  -24.9840  -34.2310   25.1240 H   0  0  0  0  0  0  0  0  0  0  0  0
  -24.0150  -36.8440   23.2150 C   0  0  0  0  0  1  0  0  0  0  0  0
  -25.3100  -36.5150   23.9750 C   0  0  0  0  0  3  0  0  0  0  0  0
  -27.4430  -37.5120   24.6750 C   0  0  0  0  0  1  0  0  0  0  0  0
  -26.2870  -37.6100   23.7870 N   0  0  0  0  0  0  0  0  0  0  0  0
  -25.8480  -38.5140   23.9360 H   0  0  0  0  0  0  0  0  0  0  0  0
  -29.3600  -21.0370   18.0730 C   0  0  0  0  0  0  0  0  0  0  0  0
  -29.2130  -22.2980   17.6390 N   0  0  0  0  0  0  0  0  0  0  0  0
  -29.7860  -20.1440   17.3370 O   0  0  0  0  0  0  0  0  0  0  0  0
  -28.8620  -22.9680   18.3110 H   0  0  0  0  0  0  0  0  0  0  0  0
  -30.0110  -24.8810   14.9460 C   0  0  0  0  0  2  0  0  0  0  0  0
  -29.3220  -24.2830   16.1850 C   0  0  0  0  0  2  0  0  0  0  0  0
  -31.5440  -24.7720   15.0480 C   0  0  0  0  0  2  0  0  0  0  0  0
  -31.3390  -22.7730   16.4830 C   0  0  0  0  0  2  0  0  0  0  0  0
  -29.7930  -22.8350   16.4100 C   0  0  0  0  0  3  0  0  0  0  0  0
  -31.9620  -23.3730   15.2830 N   0  0  0  0  0  4  0  0  0  0  0  0
  -32.9640  -23.3450   15.3880 H   0  0  0  0  0  0  0  0  0  0  0  0
  -31.7330  -22.8140   14.4770 H   0  0  0  0  0  0  0  0  0  0  0  0
  1 94  1  0
  1 51  1  0
  2  5  1  0
  2  4  1  0
  4 17  1  0
  4  3  1  0
  5  1  1  0
  5  6  1  0
  6  3  1  0
  6  8  1  0
  6  7  1  0
  9 17  1  0
 10 15  1  0
 11 12  1  0
 11 10  1  0
 13 12  1  0
 13 22  1  0
 13 14  1  0
 15  9  1  0
 15 14  1  0
 16  9  2  0
 17 18  1  0
 19 20  2  0
 20 39  1  0
 21 20  1  0
 21 24  1  0
 22 23  1  0
 22 19  1  0
 23 21  2  0
 24 25  1  0
 25 26  2  0
 27 30  1  0
 27 26  1  0
 28 27  2  0
 29 28  1  0
 29 24  2  0
 30 31  1  0
 31 32  1  0
 32 33  2  0
 34 33  1  0
 34 38  1  0
 35 34  2  0
 36 31  2  0
 36 35  1  0
 37 36  1  0
 39 40  1  0
 40 43  1  0
 40 42  1  0
 41 39  2  0
 44 19  1  0
 44 45  1  0
 46 44  1  0
 47 49  1  0
 48 51  1  0
 48 50  2  0
 50 52  1  0
 51 47  2  0
 52 53  1  0
 52 49  2  0
 54 65  2  0
 55 53  1  0
 55 60  1  0
 56 64  1  0
 56 66  1  0
 57 59  1  0
 58 64  1  0
 59 60  2  0
 59 58  1  0
 61 55  2  0
 62 61  1  0
 62 57  2  0
 63 57  1  0
 63 56  1  0
 64 54  1  0
 66 68  2  0
 67 66  1  0
 69 67  1  0
 70 79  2  0
 70 75  1  0
 71 67  1  0
 71 75  1  0
 72 71  1  0
 73 74  1  0
 73 72  1  0
 74 70  1  0
 75 76  2  0
 76 77  1  0
 78 77  2  0
 79 78  1  0
 80 54  1  0
 80 85  1  0
 80 81  1  0
 81 84  1  1
 81 82  1  0
 83 81  1  0
 85 88  1  0
 86 90  1  0
 86 85  1  0
 87 86  2  0
 90 89  1  0
 92 93  1  0
 92 90  1  0
 92 91  1  0
 95 94  1  0
 95 97  1  0
 96 94  2  0
 98100  1  0
 98 99  1  0
 99102  1  0
100103  1  0
102101  1  0
102 95  1  0
103104  1  0
103101  1  0
105103  1  0
M  ISO  4   9 100  17 100  52 101  53 101
M  END
>  <TORSDO>  (29) 
F 20

>  <SCORE>  (29) 
-13.529

>  <name>  (29) 
28

>  <ligand_id>  (29) 
28

>  <original_smiles>  (29) 
[H]c1c([H])c([H])c2c(c1[H])C([H])([H])C([H])([H])C([H])([H])C2([H])N([H])C(=O)C1([H])N(C(=O)C([H])(N([H])C(=O)C([H])(N([H])C([H])([H])[H])C([H])([H])[H])C(C([H])([H])[H])(C([H])([H])[H])C([H])([H])[H])C([H])([H])c2c([H])c(Oc3c([H])c([H])c(C([H])(C(=O)N([H])C4([H])C([H])([H])C([H])([H])C([H])([H])[N+]([H])([H])C4([H])[H])C4([H])C([H])([H])C([H])(N([H])C(=O)N5C([H])([H])C([H])([H])C([H])([H])C([H])(n6nc(-c7c([H])c([H])c(Oc8c([H])c([H])c(F)c([H])c8F)c([H])c7[H])c(C(=O)N([H])[H])c6N([H])[H])C5([H])[H])C([H])([H])[N+]4([H])[H])c([H])c3[H])c([H])c([H])c2C1([H])[H]

>  <smiles>  (29) 
[H]c1c([H])c([H])c2c(c1[H])C([H])([H])C([H])([H])C([H])([H])C2([H])N([H])C(=O)C1([H])N(C(=O)C([H])(N([H])C(=O)C([H])(N([H])C([H])([H])[H])C([H])([H])[H])C(C([H])([H])[H])(C([H])([H])[H])C([H])([H])[H])C([H])([H])c2c([H])c(Oc3c([H])c([H])c(C([H])(C(=O)N([H])C4([H])C([H])([H])C([H])([H])C([H])([H])[N+]([H])([H])C4([H])[H])C4([H])C([H])([H])C([H])(N([H])C(=O)N5C([H])([H])C([H])([H])C([H])([H])C([H])(n6nc(-c7c([H])c([H])c(Oc8c([H])c([H])c(F)c([H])c8F)c([H])c7[H])c(C(=O)N([H])[H])c6N([H])[H])C5([H])[H])C([H])([H])[N+]4([H])[H])c([H])c3[H])c([H])c([H])c2C1([H])[H]

$$$$
29:0:0
     RDKit          3D

 95104  0  0  1  0  0  0  0  0999 V2000
  -27.8120  -20.6250   20.2470 C   0  0  0  0  0  3  0  0  0  0  0  0
  -29.7500  -21.6630   20.5300 C   0  0  0  0  0  3  0  0  0  0  0  0
  -27.5480  -21.9670   20.3900 C   0  0  0  0  0  0  0  0  0  0  0  0
  -28.7860  -22.6630   20.5900 C   0  0  0  0  0  0  0  0  0  0  0  0
  -26.1710  -22.5830   20.3680 C   0  0  0  0  0  1  0  0  0  0  0  0
  -29.1710  -20.3940   20.3400 N   0  0  0  0  0  0  0  0  0  0  0  0
  -30.9190  -14.7670   19.9810 C   0  0  0  0  0  0  0  0  0  0  0  0
  -30.5690  -12.5500   18.9270 C   0  0  0  0  0  2  0  0  0  0  0  0
  -29.5660  -12.7030   17.7660 C   0  0  0  0  0  2  0  0  0  0  0  0
  -28.1240  -12.5470   18.2850 C   0  0  0  0  0  2  0  0  0  0  0  0
  -27.8420  -13.4100   19.5450 C   0  0  0  0  0  3  0  0  0  0  0  0
  -28.9650  -13.2790   20.5960 C   0  0  0  0  0  2  0  0  0  0  0  0
  -30.2310  -13.5860   19.9260 N   0  0  0  0  0  0  0  0  0  0  0  0
  -32.0900  -14.8260   19.5870 O   0  0  0  0  0  0  0  0  0  0  0  0
  -29.4140  -18.1880   19.0540 C   0  0  0  0  0  2  0  0  0  0  0  0
  -29.6430  -18.1150   21.4760 C   0  0  0  0  0  2  0  0  0  0  0  0
  -30.2070  -16.8440   18.9400 C   0  0  0  0  0  2  0  0  0  0  0  0
  -30.3870  -16.7280   21.3760 C   0  0  0  0  0  2  0  0  0  0  0  0
  -29.8530  -19.0520   20.2570 C   0  0  0  0  0  3  0  0  0  0  0  0
  -30.2000  -15.9410   20.1260 N   0  0  0  0  0  0  0  0  0  0  0  0
  -25.5170  -14.0080   20.4470 C   0  0  0  0  0  0  0  0  0  0  0  0
  -24.4660  -13.2340   20.8560 C   0  0  0  0  0  0  0  0  0  0  0  0
  -24.9050  -11.8800   20.7470 C   0  0  0  0  0  0  0  0  0  0  0  0
  -26.5300  -13.1250   20.1120 N   0  0  0  0  0  0  0  0  0  0  0  0
  -26.1730  -11.8370   20.3530 N   0  0  0  0  0  0  0  0  0  0  0  0
  -24.1750  -10.6190   20.9390 C   0  0  0  0  0  0  0  0  0  0  0  0
  -24.5870   -9.6630   21.8920 C   0  0  0  0  0  3  0  0  0  0  0  0
  -23.8570   -8.4690   22.0700 C   0  0  0  0  0  3  0  0  0  0  0  0
  -22.7000   -8.2210   21.2930 C   0  0  0  0  0  0  0  0  0  0  0  0
  -22.3070   -9.1660   20.3280 C   0  0  0  0  0  3  0  0  0  0  0  0
  -23.0390  -10.3510   20.1500 C   0  0  0  0  0  3  0  0  0  0  0  0
  -21.9420   -7.0780   21.3800 O   0  0  0  0  0  0  0  0  0  0  0  0
  -21.7910   -6.4020   22.5640 C   0  0  0  0  0  0  0  0  0  0  0  0
  -21.2020   -7.0050   23.6970 C   0  0  0  0  0  3  0  0  0  0  0  0
  -21.0030   -6.2520   24.8720 C   0  0  0  0  0  3  0  0  0  0  0  0
  -21.3830   -4.8980   24.9140 C   0  0  0  0  0  0  0  0  0  0  0  0
  -21.9660   -4.2950   23.7850 C   0  0  0  0  0  3  0  0  0  0  0  0
  -22.1660   -5.0440   22.6120 C   0  0  0  0  0  0  0  0  0  0  0  0
  -22.7080   -4.4520   21.5210 F   0  0  0  0  0  0  0  0  0  0  0  0
  -21.1870   -4.1720   26.0390 F   0  0  0  0  0  0  0  0  0  0  0  0
  -23.0960  -13.7180   21.2360 C   0  0  0  0  0  0  0  0  0  0  0  0
  -22.4130  -12.9950   22.1170 N   0  0  0  0  0  0  0  0  0  0  0  0
  -22.6420  -14.7700   20.7860 O   0  0  0  0  0  0  0  0  0  0  0  0
  -22.7960  -12.1430   22.5010 H   0  0  0  0  0  0  0  0  0  0  0  0
  -21.4970  -13.2990   22.4140 H   0  0  0  0  0  0  0  0  0  0  0  0
  -25.6930  -15.3810   20.3110 N   0  0  0  0  0  0  0  0  0  0  0  0
  -24.9520  -16.0470   20.5010 H   0  0  0  0  0  0  0  0  0  0  0  0
  -26.5440  -15.8180   19.9760 H   0  0  0  0  0  0  0  0  0  0  0  0
  -28.9280  -24.1990   20.9280 C   0  0  0  0  0  3  0  0  0  0  0  0
  -30.1730  -24.4420   21.6780 N   0  0  0  0  0  4  0  0  0  0  0  0
  -30.9810  -24.2600   21.1100 H   0  0  0  0  0  0  0  0  0  0  0  0
  -30.2080  -23.8560   22.4920 H   0  0  0  0  0  0  0  0  0  0  0  0
  -30.2090  -25.4020   21.9760 H   0  0  0  0  0  0  0  0  0  0  0  0
  -28.7660  -25.2770   19.7790 C   0  0  0  0  0  2  0  0  0  0  0  0
  -28.6650  -26.6890   20.2190 O   0  0  0  0  0  0  0  0  0  0  0  0
  -24.6330  -31.8500   23.2010 C   0  0  0  0  0  0  0  0  0  0  0  0
  -27.4840  -27.4400   20.1490 C   0  0  0  0  0  0  0  0  0  0  0  0
  -23.5250  -30.4390   21.5050 C   0  0  0  0  0  3  0  0  0  0  0  0
  -25.0640  -28.9660   20.0980 C   0  0  0  0  0  0  0  0  0  0  0  0
  -26.0540  -30.8480   21.4010 C   0  0  0  0  0  2  0  0  0  0  0  0
  -26.1970  -29.4850   20.7360 C   0  0  0  0  0  0  0  0  0  0  0  0
  -27.4070  -28.7340   20.7510 C   0  0  0  0  0  3  0  0  0  0  0  0
  -26.3180  -26.9670   19.4970 C   0  0  0  0  0  3  0  0  0  0  0  0
  -25.1270  -27.7130   19.4730 C   0  0  0  0  0  3  0  0  0  0  0  0
  -23.7990  -29.7970   20.1200 C   0  0  0  0  0  2  0  0  0  0  0  0
  -24.7540  -31.0630   22.0920 N   0  0  0  0  0  0  0  0  0  0  0  0
  -23.5250  -32.0830   23.7070 O   0  0  0  0  0  0  0  0  0  0  0  0
  -22.8710  -29.3830   22.4280 C   0  0  0  0  0  0  0  0  0  0  0  0
  -21.5530  -29.1760   22.2680 N   0  0  0  0  0  0  0  0  0  0  0  0
  -23.5480  -28.7540   23.2450 O   0  0  0  0  0  0  0  0  0  0  0  0
  -21.0650  -29.7380   21.5850 H   0  0  0  0  0  0  0  0  0  0  0  0
  -18.1880  -27.9160   22.6880 C   0  0  0  0  0  0  0  0  0  0  0  0
  -20.7390  -28.2010   22.9980 C   0  0  0  0  0  3  0  0  0  0  0  0
  -20.8690  -26.7910   22.3770 C   0  0  0  0  0  2  0  0  0  0  0  0
  -19.7830  -26.4860   21.3400 C   0  0  0  0  0  2  0  0  0  0  0  0
  -18.3910  -26.5910   21.9730 C   0  0  0  0  0  2  0  0  0  0  0  0
  -19.2900  -28.6790   23.1540 C   0  0  0  0  0  0  0  0  0  0  0  0
  -19.0470  -29.9200   23.7820 C   0  0  0  0  0  3  0  0  0  0  0  0
  -17.7330  -30.3970   23.9490 C   0  0  0  0  0  3  0  0  0  0  0  0
  -16.6450  -29.6300   23.4980 C   0  0  0  0  0  3  0  0  0  0  0  0
  -16.8730  -28.3910   22.8730 C   0  0  0  0  0  3  0  0  0  0  0  0
  -25.8760  -32.5100   23.8730 C   0  0  0  0  0  3  0  0  0  0  0  0
  -26.3480  -31.7620   25.1800 C   0  0  1  0  0  0  0  0  0  0  0  0
  -25.2100  -31.5130   26.1990 C   0  0  0  0  0  1  0  0  0  0  0  0
  -26.9760  -30.3940   24.8280 C   0  0  0  0  0  1  0  0  0  0  0  0
  -27.4490  -32.5870   25.8890 C   0  0  0  0  0  1  0  0  0  0  0  0
  -25.5280  -33.9060   24.1720 N   0  0  0  0  0  0  0  0  0  0  0  0
  -25.8740  -34.9570   23.4180 C   0  0  0  0  0  0  0  0  0  0  0  0
  -26.5910  -34.8560   22.4180 O   0  0  0  0  0  0  0  0  0  0  0  0
  -24.8950  -34.0590   24.9440 H   0  0  0  0  0  0  0  0  0  0  0  0
  -24.1370  -36.7180   22.9640 C   0  0  0  0  0  1  0  0  0  0  0  0
  -25.3420  -36.3400   23.8380 C   0  0  0  0  0  3  0  0  0  0  0  0
  -27.4110  -37.2730   24.7740 C   0  0  0  0  0  1  0  0  0  0  0  0
  -26.3610  -37.4090   23.7680 N   0  0  0  0  0  0  0  0  0  0  0  0
  -25.9320  -38.3240   23.8810 H   0  0  0  0  0  0  0  0  0  0  0  0
  1  6  1  0
  1  3  2  0
  2  4  2  0
  3  4  1  0
  4 49  1  0
  5  3  1  0
  6  2  1  0
  7 20  1  0
  8 13  1  0
  9 10  1  0
  9  8  1  0
 11 10  1  0
 11 24  1  0
 11 12  1  0
 13  7  1  0
 13 12  1  0
 14  7  2  0
 17 15  1  0
 17 20  1  0
 18 16  1  0
 19 15  1  0
 19  6  1  0
 19 16  1  0
 20 18  1  0
 21 22  2  0
 22 41  1  0
 23 22  1  0
 23 26  1  0
 24 25  1  0
 24 21  1  0
 25 23  2  0
 26 27  1  0
 27 28  2  0
 29 32  1  0
 29 28  1  0
 30 29  2  0
 31 30  1  0
 31 26  2  0
 32 33  1  0
 33 38  2  0
 33 34  1  0
 34 35  2  0
 35 36  1  0
 36 40  1  0
 37 36  2  0
 38 37  1  0
 39 38  1  0
 41 42  1  0
 42 45  1  0
 42 44  1  0
 43 41  2  0
 46 21  1  0
 46 47  1  0
 48 46  1  0
 49 54  1  0
 49 50  1  0
 50 53  1  0
 50 52  1  0
 51 50  1  0
 54 55  1  0
 56 67  2  0
 57 55  1  0
 57 62  1  0
 58 66  1  0
 58 68  1  0
 59 65  1  0
 59 61  1  0
 60 66  1  0
 61 62  2  0
 61 60  1  0
 63 57  2  0
 64 63  1  0
 64 59  2  0
 65 58  1  0
 66 56  1  0
 68 70  2  0
 69 68  1  0
 71 69  1  0
 72 81  2  0
 72 77  1  0
 73 69  1  0
 73 77  1  0
 74 73  1  0
 75 76  1  0
 75 74  1  0
 76 72  1  0
 77 78  2  0
 78 79  1  0
 80 79  2  0
 81 80  1  0
 82 56  1  0
 82 87  1  0
 82 83  1  0
 83 86  1  1
 83 84  1  0
 85 83  1  0
 87 90  1  0
 88 92  1  0
 88 87  1  0
 89 88  2  0
 92 91  1  0
 94 92  1  0
 94 95  1  0
 94 93  1  0
M  ISO  4   7 100  20 100  54 101  55 101
M  END
>  <TORSDO>  (30) 
F 19

>  <SCORE>  (30) 
-13.700

>  <name>  (30) 
29

>  <ligand_id>  (30) 
29

>  <original_smiles>  (30) 
[H]c1c([H])c([H])c2c(c1[H])C([H])([H])C([H])([H])C([H])([H])C2([H])N([H])C(=O)C1([H])N(C(=O)C([H])(N([H])C(=O)C([H])(N([H])C([H])([H])[H])C([H])([H])[H])C(C([H])([H])[H])(C([H])([H])[H])C([H])([H])[H])C([H])([H])c2c([H])c(OC([H])([H])C([H])(c3c(C([H])([H])[H])c([H])n(C4([H])C([H])([H])C([H])([H])N(C(=O)N5C([H])([H])C([H])([H])C([H])([H])C([H])(n6nc(-c7c([H])c([H])c(Oc8c([H])c([H])c(F)c([H])c8F)c([H])c7[H])c(C(=O)N([H])[H])c6N([H])[H])C5([H])[H])C([H])([H])C4([H])[H])c3[H])[N+]([H])([H])[H])c([H])c([H])c2C1([H])[H]

>  <smiles>  (30) 
[H]c1c([H])c([H])c2c(c1[H])C([H])([H])C([H])([H])C([H])([H])C2([H])N([H])C(=O)C1([H])N(C(=O)C([H])(N([H])C(=O)C([H])(N([H])C([H])([H])[H])C([H])([H])[H])C(C([H])([H])[H])(C([H])([H])[H])C([H])([H])[H])C([H])([H])c2c([H])c(OC([H])([H])C([H])(c3c(C([H])([H])[H])c([H])n(C4([H])C([H])([H])C([H])([H])N(C(=O)N5C([H])([H])C([H])([H])C([H])([H])C([H])(n6nc(-c7c([H])c([H])c(Oc8c([H])c([H])c(F)c([H])c8F)c([H])c7[H])c(C(=O)N([H])[H])c6N([H])[H])C5([H])[H])C([H])([H])C4([H])[H])c3[H])[N+]([H])([H])[H])c([H])c([H])c2C1([H])[H]

$$$$
30:0:0
     RDKit          3D

 96105  0  0  1  0  0  0  0  0999 V2000
  -29.3390  -23.2470   21.8000 C   0  0  0  0  0  3  0  0  0  0  0  0
  -29.1320  -24.6560   21.6060 C   0  0  0  0  0  3  0  0  0  0  0  0
  -28.2860  -24.2210   19.4330 C   0  0  0  0  0  3  0  0  0  0  0  0
  -29.0060  -22.2420   20.8400 C   0  0  0  0  0  0  0  0  0  0  0  0
  -28.4550  -22.7990   19.6340 C   0  0  0  0  0  0  0  0  0  0  0  0
  -28.5840  -25.2120   20.4160 C   0  0  0  0  0  0  0  0  0  0  0  0
  -27.9830  -21.8930   18.5210 C   0  0  0  0  0  1  0  0  0  0  0  0
  -28.5280  -26.6310   20.2010 O   0  0  0  0  0  0  0  0  0  0  0  0
  -24.6340  -31.9570   23.2430 C   0  0  0  0  0  0  0  0  0  0  0  0
  -27.3670  -27.4370   20.1990 C   0  0  0  0  0  0  0  0  0  0  0  0
  -23.4740  -30.5450   21.5810 C   0  0  0  0  0  3  0  0  0  0  0  0
  -24.9690  -29.0250   20.1600 C   0  0  0  0  0  0  0  0  0  0  0  0
  -26.0100  -30.9080   21.4250 C   0  0  0  0  0  2  0  0  0  0  0  0
  -26.1220  -29.5310   20.7750 C   0  0  0  0  0  0  0  0  0  0  0  0
  -27.3210  -28.7490   20.7810 C   0  0  0  0  0  3  0  0  0  0  0  0
  -26.1910  -26.9940   19.5560 C   0  0  0  0  0  3  0  0  0  0  0  0
  -25.0100  -27.7660   19.5370 C   0  0  0  0  0  3  0  0  0  0  0  0
  -23.7140  -29.8760   20.2010 C   0  0  0  0  0  2  0  0  0  0  0  0
  -24.7230  -31.1580   22.1400 N   0  0  0  0  0  0  0  0  0  0  0  0
  -23.5400  -32.2080   23.7710 O   0  0  0  0  0  0  0  0  0  0  0  0
  -22.8220  -29.5120   22.5320 C   0  0  0  0  0  0  0  0  0  0  0  0
  -21.4980  -29.3210   22.4030 N   0  0  0  0  0  0  0  0  0  0  0  0
  -23.5080  -28.8840   23.3410 O   0  0  0  0  0  0  0  0  0  0  0  0
  -21.0020  -29.8820   21.7240 H   0  0  0  0  0  0  0  0  0  0  0  0
  -18.1310  -28.0930   22.9050 C   0  0  0  0  0  0  0  0  0  0  0  0
  -20.6900  -28.3630   23.1590 C   0  0  0  0  0  3  0  0  0  0  0  0
  -20.7950  -26.9430   22.5540 C   0  0  0  0  0  2  0  0  0  0  0  0
  -19.6870  -26.6360   21.5420 C   0  0  0  0  0  2  0  0  0  0  0  0
  -18.3100  -26.7590   22.2000 C   0  0  0  0  0  2  0  0  0  0  0  0
  -19.2480  -28.8530   23.3410 C   0  0  0  0  0  0  0  0  0  0  0  0
  -19.0270  -30.1010   23.9620 C   0  0  0  0  0  3  0  0  0  0  0  0
  -17.7210  -30.5890   24.1500 C   0  0  0  0  0  3  0  0  0  0  0  0
  -16.6180  -29.8280   23.7290 C   0  0  0  0  0  3  0  0  0  0  0  0
  -16.8240  -28.5800   23.1130 C   0  0  0  0  0  3  0  0  0  0  0  0
  -25.8970  -32.6110   23.8840 C   0  0  0  0  0  3  0  0  0  0  0  0
  -26.4020  -31.8570   25.1760 C   0  0  1  0  0  0  0  0  0  0  0  0
  -25.2940  -31.6080   26.2270 C   0  0  0  0  0  1  0  0  0  0  0  0
  -27.0140  -30.4850   24.8060 C   0  0  0  0  0  1  0  0  0  0  0  0
  -27.5290  -32.6730   25.8520 C   0  0  0  0  0  1  0  0  0  0  0  0
  -25.5620  -34.0080   24.2010 N   0  0  0  0  0  0  0  0  0  0  0  0
  -25.9070  -35.0650   23.4520 C   0  0  0  0  0  0  0  0  0  0  0  0
  -26.6090  -34.9660   22.4420 O   0  0  0  0  0  0  0  0  0  0  0  0
  -24.9400  -34.1570   24.9830 H   0  0  0  0  0  0  0  0  0  0  0  0
  -24.1800  -36.8470   23.0390 C   0  0  0  0  0  1  0  0  0  0  0  0
  -25.3940  -36.4480   23.8940 C   0  0  0  0  0  3  0  0  0  0  0  0
  -27.4900  -37.3490   24.8030 C   0  0  0  0  0  1  0  0  0  0  0  0
  -26.4220  -37.5100   23.8200 N   0  0  0  0  0  0  0  0  0  0  0  0
  -26.0030  -38.4260   23.9550 H   0  0  0  0  0  0  0  0  0  0  0  0
  -29.0220  -20.6840   21.2890 C   0  0  0  0  0  2  0  0  0  0  0  0
  -30.9280  -15.0440   20.6760 C   0  0  0  0  0  0  0  0  0  0  0  0
  -30.7410  -12.7460   19.6720 C   0  0  0  0  0  2  0  0  0  0  0  0
  -29.8780  -12.7400   18.3920 C   0  0  0  0  0  2  0  0  0  0  0  0
  -28.3960  -12.5320   18.7480 C   0  0  0  0  0  2  0  0  0  0  0  0
  -27.9370  -13.4670   19.8930 C   0  0  0  0  0  3  0  0  0  0  0  0
  -28.9280  -13.4840   21.0790 C   0  0  0  0  0  2  0  0  0  0  0  0
  -30.2460  -13.8460   20.5440 N   0  0  0  0  0  0  0  0  0  0  0  0
  -32.1470  -15.0300   20.4790 O   0  0  0  0  0  0  0  0  0  0  0  0
  -30.9920  -17.4620   21.5300 C   0  0  0  0  0  2  0  0  0  0  0  0
  -29.0870  -16.7920   20.2190 C   0  0  0  0  0  2  0  0  0  0  0  0
  -30.9120  -18.8730   20.7790 C   0  0  0  0  0  3  0  0  0  0  0  0
  -28.5480  -18.2810   20.4850 C   0  0  0  0  0  3  0  0  0  0  0  0
  -31.8720  -19.8990   21.4170 C   0  0  0  0  0  1  0  0  0  0  0  0
  -30.2900  -16.2820   20.9250 N   0  0  0  0  0  0  0  0  0  0  0  0
  -29.5320  -19.4360   20.4990 N   0  0  1  0  0  4  0  0  0  0  0  0
  -29.5900  -19.7580   19.5460 H   0  0  0  0  0  0  0  0  0  0  0  0
  -25.5170  -14.0780   20.4800 C   0  0  0  0  0  0  0  0  0  0  0  0
  -24.4320  -13.3170   20.8090 C   0  0  0  0  0  0  0  0  0  0  0  0
  -24.8990  -11.9670   20.8400 C   0  0  0  0  0  0  0  0  0  0  0  0
  -26.5720  -13.1940   20.3220 N   0  0  0  0  0  0  0  0  0  0  0  0
  -26.2050  -11.9220   20.6070 N   0  0  0  0  0  0  0  0  0  0  0  0
  -24.1650  -10.7100   21.0120 C   0  0  0  0  0  0  0  0  0  0  0  0
  -24.5450   -9.7620   21.9850 C   0  0  0  0  0  3  0  0  0  0  0  0
  -23.8100   -8.5670   22.1430 C   0  0  0  0  0  3  0  0  0  0  0  0
  -22.6820   -8.3160   21.3250 C   0  0  0  0  0  0  0  0  0  0  0  0
  -22.3210   -9.2550   20.3440 C   0  0  0  0  0  3  0  0  0  0  0  0
  -23.0570  -10.4410   20.1840 C   0  0  0  0  0  3  0  0  0  0  0  0
  -21.9210   -7.1740   21.3940 O   0  0  0  0  0  0  0  0  0  0  0  0
  -21.8060   -6.4550   22.5560 C   0  0  0  0  0  0  0  0  0  0  0  0
  -21.3040   -7.0310   23.7440 C   0  0  0  0  0  3  0  0  0  0  0  0
  -21.1400   -6.2370   24.8970 C   0  0  0  0  0  3  0  0  0  0  0  0
  -21.4680   -4.8680   24.8590 C   0  0  0  0  0  0  0  0  0  0  0  0
  -21.9640   -4.2910   23.6770 C   0  0  0  0  0  3  0  0  0  0  0  0
  -22.1310   -5.0840   22.5270 C   0  0  0  0  0  0  0  0  0  0  0  0
  -22.5900   -4.5210   21.3830 F   0  0  0  0  0  0  0  0  0  0  0  0
  -21.3030   -4.1010   25.9630 F   0  0  0  0  0  0  0  0  0  0  0  0
  -23.0230  -13.8030   20.9800 C   0  0  0  0  0  0  0  0  0  0  0  0
  -22.2440  -13.1460   21.8330 N   0  0  0  0  0  0  0  0  0  0  0  0
  -22.6170  -14.8030   20.3880 O   0  0  0  0  0  0  0  0  0  0  0  0
  -22.5820  -12.3390   22.3360 H   0  0  0  0  0  0  0  0  0  0  0  0
  -21.2940  -13.4530   21.9850 H   0  0  0  0  0  0  0  0  0  0  0  0
  -25.6810  -15.4410   20.2670 N   0  0  0  0  0  0  0  0  0  0  0  0
  -24.8780  -16.0590   20.2500 H   0  0  0  0  0  0  0  0  0  0  0  0
  -26.5030  -15.8380   19.8390 H   0  0  0  0  0  0  0  0  0  0  0  0
  -27.3300  -18.5830   19.5630 C   0  0  0  0  0  2  0  0  0  0  0  0
  -26.5830  -19.5700   17.3060 C   0  0  0  0  0  1  0  0  0  0  0  0
  -27.6600  -18.7840   18.0660 C   0  0  0  0  0  2  0  0  0  0  0  0
  2  1  1  0
  3  5  2  0
  3  6  1  0
  4 49  1  0
  4  1  2  0
  5  4  1  0
  6  2  2  0
  7  5  1  0
  8  6  1  0
  9 20  2  0
 10  8  1  0
 10 15  1  0
 11 19  1  0
 11 21  1  0
 12 18  1  0
 12 14  1  0
 13 19  1  0
 14 15  2  0
 14 13  1  0
 16 10  2  0
 17 16  1  0
 17 12  2  0
 18 11  1  0
 19  9  1  0
 21 23  2  0
 22 21  1  0
 24 22  1  0
 25 34  2  0
 25 30  1  0
 26 22  1  0
 26 30  1  0
 27 26  1  0
 28 29  1  0
 28 27  1  0
 29 25  1  0
 30 31  2  0
 31 32  1  0
 33 32  2  0
 34 33  1  0
 35  9  1  0
 35 40  1  0
 35 36  1  0
 36 39  1  1
 36 37  1  0
 38 36  1  0
 40 43  1  0
 41 45  1  0
 41 40  1  0
 42 41  2  0
 45 44  1  0
 47 45  1  0
 47 48  1  0
 47 46  1  0
 50 63  1  0
 51 56  1  0
 52 53  1  0
 52 51  1  0
 54 53  1  0
 54 69  1  0
 54 55  1  0
 56 50  1  0
 56 55  1  0
 57 50  2  0
 59 61  1  0
 59 63  1  0
 60 62  1  0
 60 58  1  0
 61 94  1  0
 61 64  1  0
 63 58  1  0
 64 60  1  0
 64 49  1  0
 64 65  1  6
 66 67  2  0
 67 68  1  0
 67 86  1  0
 68 71  1  0
 69 66  1  0
 69 70  1  0
 70 68  2  0
 71 72  1  0
 72 73  2  0
 74 77  1  0
 74 73  1  0
 75 74  2  0
 76 75  1  0
 76 71  2  0
 77 78  1  0
 78 79  1  0
 79 80  2  0
 81 80  1  0
 81 85  1  0
 82 81  2  0
 83 78  2  0
 83 82  1  0
 84 83  1  0
 86 87  1  0
 87 90  1  0
 87 89  1  0
 88 86  2  0
 91 66  1  0
 92 91  1  0
 93 91  1  0
 95 96  1  0
 96 94  1  0
M  ISO  4   6 101   8 101  50 100  63 100
M  END
>  <TORSDO>  (31) 
F 19

>  <SCORE>  (31) 
-14.415

>  <name>  (31) 
30

>  <ligand_id>  (31) 
30

>  <original_smiles>  (31) 
[H]c1c([H])c([H])c2c(c1[H])C([H])([H])C([H])([H])C([H])([H])C2([H])N([H])C(=O)C1([H])N(C(=O)C([H])(N([H])C(=O)C([H])(N([H])C([H])([H])[H])C([H])([H])[H])C(C([H])([H])[H])(C([H])([H])[H])C([H])([H])[H])C([H])([H])c2c([H])c(Oc3c([H])c([H])c(C([H])([H])[N+]4([H])C([H])(C([H])([H])[H])C([H])([H])N(C(=O)N5C([H])([H])C([H])([H])C([H])([H])C([H])(n6nc(-c7c([H])c([H])c(Oc8c([H])c([H])c(F)c([H])c8F)c([H])c7[H])c(C(=O)N([H])[H])c6N([H])[H])C5([H])[H])C([H])([H])C4([H])C([H])([H])C([H])([H])C([H])([H])[H])c(C([H])([H])[H])c3[H])c([H])c([H])c2C1([H])[H]

>  <smiles>  (31) 
[H]c1c([H])c([H])c2c(c1[H])C([H])([H])C([H])([H])C([H])([H])C2([H])N([H])C(=O)C1([H])N(C(=O)C([H])(N([H])C(=O)C([H])(N([H])C([H])([H])[H])C([H])([H])[H])C(C([H])([H])[H])(C([H])([H])[H])C([H])([H])[H])C([H])([H])c2c([H])c(Oc3c([H])c([H])c(C([H])([H])[N+]4([H])C([H])(C([H])([H])[H])C([H])([H])N(C(=O)N5C([H])([H])C([H])([H])C([H])([H])C([H])(n6nc(-c7c([H])c([H])c(Oc8c([H])c([H])c(F)c([H])c8F)c([H])c7[H])c(C(=O)N([H])[H])c6N([H])[H])C5([H])[H])C([H])([H])C4([H])C([H])([H])C([H])([H])C([H])([H])[H])c(C([H])([H])[H])c3[H])c([H])c([H])c2C1([H])[H]

$$$$
31:0:0
     RDKit          3D

 95104  0  0  1  0  0  0  0  0999 V2000
  -27.4610  -20.8610   19.8920 C   0  0  0  0  0  3  0  0  0  0  0  0
  -27.4740  -22.2070   19.4700 C   0  0  0  0  0  0  0  0  0  0  0  0
  -28.6570  -22.9730   19.6650 C   0  0  0  0  0  0  0  0  0  0  0  0
  -29.7780  -22.2970   20.2230 C   0  0  0  0  0  0  0  0  0  0  0  0
  -28.6100  -20.2920   20.4500 C   0  0  0  0  0  0  0  0  0  0  0  0
  -31.1130  -22.9750   20.5000 C   0  0  0  0  0  1  0  0  0  0  0  0
  -29.7490  -20.9930   20.5890 N   0  0  0  0  0  0  0  0  0  0  0  0
  -28.5910  -18.9600   20.8890 N   0  0  0  0  0  0  0  0  0  0  0  0
  -27.6620  -18.5530   20.9220 H   0  0  0  0  0  0  0  0  0  0  0  0
  -25.4090  -23.8580   19.3230 C   0  0  0  0  0  2  0  0  0  0  0  0
  -24.8640  -22.4520   19.3180 C   0  0  0  0  0  2  0  0  0  0  0  0
  -26.2510  -22.7310   18.7790 C   0  0  0  0  0  3  0  0  0  0  0  0
  -28.7290  -24.4680   19.2670 C   0  0  0  0  0  2  0  0  0  0  0  0
  -28.5110  -25.4470   20.4550 C   0  0  0  0  0  2  0  0  0  0  0  0
  -28.6350  -26.8480   20.1220 O   0  0  0  0  0  0  0  0  0  0  0  0
  -24.6750  -31.9130   23.2450 C   0  0  0  0  0  0  0  0  0  0  0  0
  -27.4670  -27.5790   20.1140 C   0  0  0  0  0  0  0  0  0  0  0  0
  -23.5320  -30.5140   21.5630 C   0  0  0  0  0  3  0  0  0  0  0  0
  -25.0430  -29.0380   20.1300 C   0  0  0  0  0  0  0  0  0  0  0  0
  -26.0540  -30.9350   21.4050 C   0  0  0  0  0  2  0  0  0  0  0  0
  -26.1840  -29.5780   20.7390 C   0  0  0  0  0  0  0  0  0  0  0  0
  -27.4020  -28.8570   20.7230 C   0  0  0  0  0  3  0  0  0  0  0  0
  -26.3100  -27.0650   19.4920 C   0  0  0  0  0  3  0  0  0  0  0  0
  -25.1030  -27.7840   19.5010 C   0  0  0  0  0  3  0  0  0  0  0  0
  -23.7800  -29.8690   20.1740 C   0  0  0  0  0  2  0  0  0  0  0  0
  -24.7730  -31.1320   22.1330 N   0  0  0  0  0  0  0  0  0  0  0  0
  -23.5770  -32.1500   23.7680 O   0  0  0  0  0  0  0  0  0  0  0  0
  -22.8890  -29.4550   22.4880 C   0  0  0  0  0  0  0  0  0  0  0  0
  -21.5700  -29.2460   22.3370 N   0  0  0  0  0  0  0  0  0  0  0  0
  -23.5730  -28.8250   23.2990 O   0  0  0  0  0  0  0  0  0  0  0  0
  -21.0780  -29.8130   21.6610 H   0  0  0  0  0  0  0  0  0  0  0  0
  -18.2110  -27.9910   22.7670 C   0  0  0  0  0  0  0  0  0  0  0  0
  -20.7620  -28.2720   23.0670 C   0  0  0  0  0  3  0  0  0  0  0  0
  -20.8860  -26.8610   22.4460 C   0  0  0  0  0  2  0  0  0  0  0  0
  -19.7950  -26.5580   21.4140 C   0  0  0  0  0  2  0  0  0  0  0  0
  -18.4090  -26.6640   22.0510 C   0  0  0  0  0  2  0  0  0  0  0  0
  -19.3150  -28.7540   23.2270 C   0  0  0  0  0  0  0  0  0  0  0  0
  -19.0750  -29.9980   23.8530 C   0  0  0  0  0  3  0  0  0  0  0  0
  -17.7610  -30.4780   24.0200 C   0  0  0  0  0  3  0  0  0  0  0  0
  -16.6710  -29.7090   23.5770 C   0  0  0  0  0  3  0  0  0  0  0  0
  -16.8960  -28.4670   22.9580 C   0  0  0  0  0  3  0  0  0  0  0  0
  -25.9300  -32.5650   23.9010 C   0  0  0  0  0  3  0  0  0  0  0  0
  -25.6020  -33.9660   24.1940 N   0  0  0  0  0  0  0  0  0  0  0  0
  -25.9490  -35.0070   23.4250 C   0  0  0  0  0  0  0  0  0  0  0  0
  -26.6500  -34.8870   22.4160 O   0  0  0  0  0  0  0  0  0  0  0  0
  -24.9860  -34.1340   24.9770 H   0  0  0  0  0  0  0  0  0  0  0  0
  -24.2210  -36.7770   22.9730 C   0  0  0  0  0  1  0  0  0  0  0  0
  -25.4350  -36.3990   23.8380 C   0  0  0  0  0  3  0  0  0  0  0  0
  -27.5240  -37.3200   24.7420 C   0  0  0  0  0  1  0  0  0  0  0  0
  -26.4630  -37.4590   23.7460 N   0  0  0  0  0  0  0  0  0  0  0  0
  -26.0450  -38.3790   23.8550 H   0  0  0  0  0  0  0  0  0  0  0  0
  -26.4060  -31.8140   25.2050 C   0  0  1  0  0  0  0  0  0  0  0  0
  -25.2750  -31.5700   26.2300 C   0  0  0  0  0  1  0  0  0  0  0  0
  -27.0170  -30.4410   24.8410 C   0  0  0  0  0  1  0  0  0  0  0  0
  -27.5260  -32.6260   25.9000 C   0  0  0  0  0  1  0  0  0  0  0  0
  -29.5700  -18.0760   20.2680 C   0  0  0  0  0  2  0  0  0  0  0  0
  -29.5170  -16.6210   20.8070 C   0  0  0  0  0  2  0  0  0  0  0  0
  -30.8160  -14.6390   19.9920 C   0  0  0  0  0  0  0  0  0  0  0  0
  -30.4810  -12.4170   19.0130 C   0  0  0  0  0  2  0  0  0  0  0  0
  -29.5280  -12.5720   17.8120 C   0  0  0  0  0  2  0  0  0  0  0  0
  -28.0560  -12.4770   18.2730 C   0  0  0  0  0  2  0  0  0  0  0  0
  -27.7390  -13.3420   19.5270 C   0  0  0  0  0  3  0  0  0  0  0  0
  -28.8330  -13.2180   20.6130 C   0  0  0  0  0  2  0  0  0  0  0  0
  -30.1310  -13.4680   19.9740 N   0  0  0  0  0  0  0  0  0  0  0  0
  -31.9900  -14.7350   19.6430 O   0  0  0  0  0  0  0  0  0  0  0  0
  -30.0610  -15.7270   19.7910 N   0  0  0  0  0  0  0  0  0  0  0  0
  -30.4920  -16.2850   19.0680 H   0  0  0  0  0  0  0  0  0  0  0  0
  -25.3790  -13.9280   20.3620 C   0  0  0  0  0  0  0  0  0  0  0  0
  -24.3240  -13.1490   20.7520 C   0  0  0  0  0  0  0  0  0  0  0  0
  -24.7790  -11.7960   20.6710 C   0  0  0  0  0  0  0  0  0  0  0  0
  -26.4100  -13.0520   20.0630 N   0  0  0  0  0  0  0  0  0  0  0  0
  -26.0560  -11.7620   20.3070 N   0  0  0  0  0  0  0  0  0  0  0  0
  -24.0550  -10.5330   20.8570 C   0  0  0  0  0  0  0  0  0  0  0  0
  -24.4510   -9.5910   21.8300 C   0  0  0  0  0  3  0  0  0  0  0  0
  -23.7270   -8.3920   22.0050 C   0  0  0  0  0  3  0  0  0  0  0  0
  -22.5900   -8.1280   21.2070 C   0  0  0  0  0  0  0  0  0  0  0  0
  -22.2130   -9.0560   20.2220 C   0  0  0  0  0  3  0  0  0  0  0  0
  -22.9390  -10.2450   20.0440 C   0  0  0  0  0  3  0  0  0  0  0  0
  -21.8400   -6.9790   21.2890 O   0  0  0  0  0  0  0  0  0  0  0  0
  -21.6770   -6.3090   22.4740 C   0  0  0  0  0  0  0  0  0  0  0  0
  -21.0650   -6.9110   23.5950 C   0  0  0  0  0  3  0  0  0  0  0  0
  -20.8540   -6.1610   24.7690 C   0  0  0  0  0  3  0  0  0  0  0  0
  -21.2470   -4.8100   24.8240 C   0  0  0  0  0  0  0  0  0  0  0  0
  -21.8510   -4.2080   23.7070 C   0  0  0  0  0  3  0  0  0  0  0  0
  -22.0640   -4.9550   22.5350 C   0  0  0  0  0  0  0  0  0  0  0  0
  -22.6270   -4.3620   21.4550 F   0  0  0  0  0  0  0  0  0  0  0  0
  -21.0350   -4.0890   25.9490 F   0  0  0  0  0  0  0  0  0  0  0  0
  -22.9410  -13.6230   21.0910 C   0  0  0  0  0  0  0  0  0  0  0  0
  -22.2290  -12.8990   21.9460 N   0  0  0  0  0  0  0  0  0  0  0  0
  -22.4960  -14.6730   20.6280 O   0  0  0  0  0  0  0  0  0  0  0  0
  -22.5830  -12.0360   22.3300 H   0  0  0  0  0  0  0  0  0  0  0  0
  -21.2980  -13.2000   22.1910 H   0  0  0  0  0  0  0  0  0  0  0  0
  -25.5420  -15.3040   20.2110 N   0  0  0  0  0  0  0  0  0  0  0  0
  -24.7700  -15.9430   20.3560 H   0  0  0  0  0  0  0  0  0  0  0  0
  -26.3640  -15.7440   19.8200 H   0  0  0  0  0  0  0  0  0  0  0  0
  1  5  1  0
  2  3  1  0
  2  1  2  0
  3  4  2  0
  4  6  1  0
  4  7  1  0
  5  7  2  0
  5  8  1  0
  8  9  1  0
 11 10  1  0
 12 11  1  0
 12 10  1  0
 12  2  1  0
 13  3  1  0
 13 14  1  0
 15 14  1  0
 16 27  2  0
 17 15  1  0
 17 22  1  0
 18 26  1  0
 18 28  1  0
 19 25  1  0
 19 21  1  0
 20 26  1  0
 21 20  1  0
 22 21  2  0
 23 24  1  0
 23 17  2  0
 24 19  2  0
 25 18  1  0
 26 16  1  0
 28 30  2  0
 29 28  1  0
 31 29  1  0
 32 41  2  0
 32 37  1  0
 33 29  1  0
 33 37  1  0
 34 33  1  0
 35 36  1  0
 35 34  1  0
 36 32  1  0
 37 38  2  0
 38 39  1  0
 40 39  2  0
 41 40  1  0
 42 16  1  0
 42 43  1  0
 42 52  1  0
 43 46  1  0
 44 48  1  0
 44 43  1  0
 45 44  2  0
 48 47  1  0
 50 48  1  0
 50 51  1  0
 50 49  1  0
 52 55  1  1
 52 53  1  0
 54 52  1  0
 56 57  1  0
 56  8  1  0
 59 64  1  0
 60 61  1  0
 60 59  1  0
 62 61  1  0
 62 71  1  0
 62 63  1  0
 64 58  1  0
 64 63  1  0
 65 58  2  0
 66 58  1  0
 66 57  1  0
 67 66  1  0
 68 69  2  0
 69 88  1  0
 70 69  1  0
 70 73  1  0
 71 72  1  0
 71 68  1  0
 72 70  2  0
 73 74  1  0
 74 75  2  0
 76 79  1  0
 76 75  1  0
 77 76  2  0
 78 77  1  0
 78 73  2  0
 79 80  1  0
 80 85  2  0
 80 81  1  0
 81 82  2  0
 82 83  1  0
 83 87  1  0
 84 83  2  0
 85 84  1  0
 86 85  1  0
 88 89  1  0
 89 92  1  0
 89 91  1  0
 90 88  2  0
 93 94  1  0
 93 68  1  0
 95 93  1  0
M  ISO  4  14 101  15 101  58 100  66 100
M  END
>  <TORSDO>  (32) 
F 21

>  <SCORE>  (32) 
-13.440

>  <name>  (32) 
31

>  <ligand_id>  (32) 
31

>  <original_smiles>  (32) 
[H]c1c([H])c([H])c2c(c1[H])C([H])([H])C([H])([H])C([H])([H])C2([H])N([H])C(=O)C1([H])N(C(=O)C([H])(N([H])C(=O)C([H])(N([H])C([H])([H])[H])C([H])([H])[H])C(C([H])([H])[H])(C([H])([H])[H])C([H])([H])[H])C([H])([H])c2c([H])c(OC([H])([H])C([H])([H])c3c(C([H])([H])[H])nc(N([H])C([H])([H])C([H])([H])N([H])C(=O)N4C([H])([H])C([H])([H])C([H])([H])C([H])(n5nc(-c6c([H])c([H])c(Oc7c([H])c([H])c(F)c([H])c7F)c([H])c6[H])c(C(=O)N([H])[H])c5N([H])[H])C4([H])[H])c([H])c3C3([H])C([H])([H])C3([H])[H])c([H])c([H])c2C1([H])[H]

>  <smiles>  (32) 
[H]c1c([H])c([H])c2c(c1[H])C([H])([H])C([H])([H])C([H])([H])C2([H])N([H])C(=O)C1([H])N(C(=O)C([H])(N([H])C(=O)C([H])(N([H])C([H])([H])[H])C([H])([H])[H])C(C([H])([H])[H])(C([H])([H])[H])C([H])([H])[H])C([H])([H])c2c([H])c(OC([H])([H])C([H])([H])c3c(C([H])([H])[H])nc(N([H])C([H])([H])C([H])([H])N([H])C(=O)N4C([H])([H])C([H])([H])C([H])([H])C([H])(n5nc(-c6c([H])c([H])c(Oc7c([H])c([H])c(F)c([H])c7F)c([H])c6[H])c(C(=O)N([H])[H])c5N([H])[H])C4([H])[H])c([H])c3C3([H])C([H])([H])C3([H])[H])c([H])c([H])c2C1([H])[H]

$$$$
32:0:0
     RDKit          3D

 98107  0  0  1  0  0  0  0  0999 V2000
  -28.2890  -22.2660   20.4860 C   0  0  0  0  0  2  0  0  0  0  0  0
  -29.2250  -24.6460   20.8230 C   0  0  0  0  0  2  0  0  0  0  0  0
  -27.4500  -25.4350   22.2040 C   0  0  0  0  0  2  0  0  0  0  0  0
  -28.6500  -25.9530   21.3720 C   0  0  0  0  0  3  0  0  0  0  0  0
  -27.9820  -23.7830   20.5470 C   0  0  0  0  0  3  0  0  0  0  0  0
  -27.0120  -24.1590   21.5970 N   0  0  0  0  0  4  0  0  0  0  0  0
  -26.0920  -24.2640   21.1960 H   0  0  0  0  0  0  0  0  0  0  0  0
  -26.9650  -23.4580   22.3200 H   0  0  0  0  0  0  0  0  0  0  0  0
  -28.3660  -26.7750   20.2300 O   0  0  0  0  0  0  0  0  0  0  0  0
  -24.5250  -31.9460   23.2960 C   0  0  0  0  0  0  0  0  0  0  0  0
  -27.2230  -27.5280   20.2560 C   0  0  0  0  0  0  0  0  0  0  0  0
  -23.3500  -30.5430   21.6320 C   0  0  0  0  0  3  0  0  0  0  0  0
  -24.8290  -29.0090   20.2340 C   0  0  0  0  0  0  0  0  0  0  0  0
  -25.8760  -30.9070   21.4790 C   0  0  0  0  0  2  0  0  0  0  0  0
  -25.9740  -29.5340   20.8490 C   0  0  0  0  0  0  0  0  0  0  0  0
  -27.1770  -28.7970   20.8700 C   0  0  0  0  0  3  0  0  0  0  0  0
  -26.0740  -27.0150   19.6230 C   0  0  0  0  0  3  0  0  0  0  0  0
  -24.8720  -27.7440   19.6220 C   0  0  0  0  0  3  0  0  0  0  0  0
  -23.5830  -29.8620   20.2570 C   0  0  0  0  0  2  0  0  0  0  0  0
  -24.6010  -31.1470   22.1940 N   0  0  0  0  0  0  0  0  0  0  0  0
  -23.4350  -32.2180   23.8150 O   0  0  0  0  0  0  0  0  0  0  0  0
  -22.6850  -29.5190   22.5800 C   0  0  0  0  0  0  0  0  0  0  0  0
  -21.3630  -29.3360   22.4280 N   0  0  0  0  0  0  0  0  0  0  0  0
  -23.3550  -28.8910   23.4040 O   0  0  0  0  0  0  0  0  0  0  0  0
  -20.8860  -29.8930   21.7330 H   0  0  0  0  0  0  0  0  0  0  0  0
  -17.9750  -28.1650   22.8790 C   0  0  0  0  0  0  0  0  0  0  0  0
  -20.5320  -28.3990   23.1820 C   0  0  0  0  0  3  0  0  0  0  0  0
  -20.6290  -26.9720   22.5940 C   0  0  0  0  0  2  0  0  0  0  0  0
  -19.5350  -26.6670   21.5660 C   0  0  0  0  0  2  0  0  0  0  0  0
  -18.1480  -26.8190   22.1960 C   0  0  0  0  0  2  0  0  0  0  0  0
  -19.0960  -28.9140   23.3270 C   0  0  0  0  0  0  0  0  0  0  0  0
  -18.8810  -30.1770   23.9220 C   0  0  0  0  0  3  0  0  0  0  0  0
  -17.5790  -30.6900   24.0750 C   0  0  0  0  0  3  0  0  0  0  0  0
  -16.4730  -29.9360   23.6430 C   0  0  0  0  0  3  0  0  0  0  0  0
  -16.6720  -28.6770   23.0510 C   0  0  0  0  0  3  0  0  0  0  0  0
  -25.8010  -32.5760   23.9380 C   0  0  0  0  0  3  0  0  0  0  0  0
  -25.5000  -33.9840   24.2270 N   0  0  0  0  0  0  0  0  0  0  0  0
  -25.8760  -35.0140   23.4590 C   0  0  0  0  0  0  0  0  0  0  0  0
  -26.5840  -34.8800   22.4560 O   0  0  0  0  0  0  0  0  0  0  0  0
  -24.8770  -34.1650   25.0020 H   0  0  0  0  0  0  0  0  0  0  0  0
  -24.1980  -36.8250   22.9830 C   0  0  0  0  0  1  0  0  0  0  0  0
  -25.3890  -36.4180   23.8650 C   0  0  0  0  0  3  0  0  0  0  0  0
  -27.4890  -37.2840   24.7950 C   0  0  0  0  0  1  0  0  0  0  0  0
  -26.4430  -37.4510   23.7900 N   0  0  0  0  0  0  0  0  0  0  0  0
  -26.0460  -38.3810   23.8960 H   0  0  0  0  0  0  0  0  0  0  0  0
  -26.2760  -31.8250   25.2410 C   0  0  1  0  0  0  0  0  0  0  0  0
  -25.1500  -31.6130   26.2800 C   0  0  0  0  0  1  0  0  0  0  0  0
  -26.8600  -30.4380   24.8870 C   0  0  0  0  0  1  0  0  0  0  0  0
  -27.4130  -32.6240   25.9210 C   0  0  0  0  0  1  0  0  0  0  0  0
  -27.0930  -21.3650   20.0860 C   0  0  0  0  0  2  0  0  0  0  0  0
  -27.4190  -19.9200   20.0980 N   0  0  0  0  0  4  0  0  0  0  0  0
  -27.8570  -19.6510   20.9640 H   0  0  0  0  0  0  0  0  0  0  0  0
  -26.5660  -19.3910   20.0330 H   0  0  0  0  0  0  0  0  0  0  0  0
  -28.2940  -19.4500   19.0130 C   0  0  0  0  0  2  0  0  0  0  0  0
  -31.8140  -18.9520   20.3940 C   0  0  0  0  0  3  0  0  0  0  0  0
  -30.7140  -19.5640   19.7760 C   0  0  0  0  0  3  0  0  0  0  0  0
  -31.6880  -17.6170   20.8170 C   0  0  0  0  0  3  0  0  0  0  0  0
  -29.5310  -18.8220   19.6240 C   0  0  0  0  0  0  0  0  0  0  0  0
  -30.4740  -16.9240   20.6100 C   0  0  0  0  0  0  0  0  0  0  0  0
  -29.4060  -17.5480   20.0650 N   0  0  0  0  0  0  0  0  0  0  0  0
  -31.0470  -14.5460   20.5160 C   0  0  0  0  0  0  0  0  0  0  0  0
  -30.7140  -12.4040   19.3600 C   0  0  0  0  0  2  0  0  0  0  0  0
  -29.8030  -12.6490   18.1400 C   0  0  0  0  0  2  0  0  0  0  0  0
  -28.3160  -12.5640   18.5350 C   0  0  0  0  0  2  0  0  0  0  0  0
  -27.9770  -13.3960   19.7990 C   0  0  0  0  0  3  0  0  0  0  0  0
  -29.0010  -13.1260   20.9240 C   0  0  0  0  0  2  0  0  0  0  0  0
  -30.3490  -13.3890   20.3870 N   0  0  0  0  0  0  0  0  0  0  0  0
  -32.2000  -14.6800   20.0910 O   0  0  0  0  0  0  0  0  0  0  0  0
  -30.3460  -15.5750   21.0160 N   0  0  0  0  0  0  0  0  0  0  0  0
  -29.4250  -15.3150   21.3280 H   0  0  0  0  0  0  0  0  0  0  0  0
  -25.5630  -14.0400   20.4280 C   0  0  0  0  0  0  0  0  0  0  0  0
  -24.4750  -13.2860   20.7780 C   0  0  0  0  0  0  0  0  0  0  0  0
  -24.9220  -11.9290   20.7830 C   0  0  0  0  0  0  0  0  0  0  0  0
  -26.6060  -13.1470   20.2460 N   0  0  0  0  0  0  0  0  0  0  0  0
  -26.2220  -11.8730   20.5150 N   0  0  0  0  0  0  0  0  0  0  0  0
  -24.1800  -10.6760   20.9740 C   0  0  0  0  0  0  0  0  0  0  0  0
  -24.5690   -9.7260   21.9420 C   0  0  0  0  0  3  0  0  0  0  0  0
  -23.8280   -8.5390   22.1190 C   0  0  0  0  0  3  0  0  0  0  0  0
  -22.6810   -8.2930   21.3260 C   0  0  0  0  0  0  0  0  0  0  0  0
  -22.3150   -9.2300   20.3440 C   0  0  0  0  0  3  0  0  0  0  0  0
  -23.0580  -10.4090   20.1670 C   0  0  0  0  0  3  0  0  0  0  0  0
  -21.9190   -7.1530   21.4080 O   0  0  0  0  0  0  0  0  0  0  0  0
  -21.8090   -6.4400   22.5760 C   0  0  0  0  0  0  0  0  0  0  0  0
  -21.3020   -7.0250   23.7580 C   0  0  0  0  0  3  0  0  0  0  0  0
  -21.1430   -6.2410   24.9190 C   0  0  0  0  0  3  0  0  0  0  0  0
  -21.4780   -4.8740   24.8960 C   0  0  0  0  0  0  0  0  0  0  0  0
  -21.9790   -4.2900   23.7200 C   0  0  0  0  0  3  0  0  0  0  0  0
  -22.1420   -5.0710   22.5620 C   0  0  0  0  0  0  0  0  0  0  0  0
  -22.6030   -4.4990   21.4240 F   0  0  0  0  0  0  0  0  0  0  0  0
  -21.3190   -4.1190   26.0080 F   0  0  0  0  0  0  0  0  0  0  0  0
  -23.0740  -13.7840   21.0000 C   0  0  0  0  0  0  0  0  0  0  0  0
  -22.3150  -13.1170   21.8610 N   0  0  0  0  0  0  0  0  0  0  0  0
  -22.6600  -14.8010   20.4440 O   0  0  0  0  0  0  0  0  0  0  0  0
  -22.6640  -12.3010   22.3430 H   0  0  0  0  0  0  0  0  0  0  0  0
  -21.3720  -13.4270   22.0450 H   0  0  0  0  0  0  0  0  0  0  0  0
  -25.7490  -15.4050   20.2310 N   0  0  0  0  0  0  0  0  0  0  0  0
  -24.9830  -16.0670   20.2880 H   0  0  0  0  0  0  0  0  0  0  0  0
  -26.6310  -15.8260   19.9670 H   0  0  0  0  0  0  0  0  0  0  0  0
  2  4  1  0
  4  9  1  0
  4  3  1  0
  5  1  1  0
  5  2  1  0
  5  6  1  0
  6  3  1  0
  6  8  1  0
  7  6  1  0
  9 11  1  0
 10 21  2  0
 11 16  1  0
 12 20  1  0
 12 22  1  0
 13 19  1  0
 13 15  1  0
 14 20  1  0
 15 16  2  0
 15 14  1  0
 17 11  2  0
 18 17  1  0
 18 13  2  0
 19 12  1  0
 20 10  1  0
 22 24  2  0
 23 22  1  0
 25 23  1  0
 26 35  2  0
 26 31  1  0
 27 23  1  0
 27 31  1  0
 28 27  1  0
 29 30  1  0
 29 28  1  0
 30 26  1  0
 31 32  2  0
 32 33  1  0
 34 33  2  0
 35 34  1  0
 36 10  1  0
 36 37  1  0
 36 46  1  0
 37 40  1  0
 38 42  1  0
 38 37  1  0
 39 38  2  0
 42 41  1  0
 44 42  1  0
 44 45  1  0
 44 43  1  0
 46 49  1  1
 46 47  1  0
 48 46  1  0
 50 51  1  0
 50  1  1  0
 51 52  1  0
 53 51  1  0
 54 58  1  0
 54 51  1  0
 55 57  1  0
 56 55  2  0
 58 56  1  0
 58 60  2  0
 59 57  2  0
 59 69  1  0
 60 59  1  0
 61 69  1  0
 62 67  1  0
 63 64  1  0
 63 62  1  0
 65 64  1  0
 65 74  1  0
 65 66  1  0
 67 61  1  0
 67 66  1  0
 68 61  2  0
 69 70  1  0
 71 72  2  0
 72 73  1  0
 72 91  1  0
 73 76  1  0
 74 71  1  0
 74 75  1  0
 75 73  2  0
 76 77  1  0
 77 78  2  0
 79 82  1  0
 79 78  1  0
 80 79  2  0
 81 80  1  0
 81 76  2  0
 82 83  1  0
 83 84  1  0
 84 85  2  0
 86 85  1  0
 86 90  1  0
 87 86  2  0
 88 83  2  0
 88 87  1  0
 89 88  1  0
 91 92  1  0
 92 95  1  0
 92 94  1  0
 93 91  2  0
 96 97  1  0
 96 71  1  0
 98 96  1  0
M  ISO  4   4 101   9 101  61 100  69 100
M  END
>  <TORSDO>  (33) 
F 21

>  <SCORE>  (33) 
-13.481

>  <name>  (33) 
32

>  <ligand_id>  (33) 
32

>  <original_smiles>  (33) 
[H]c1c(N([H])C(=O)N2C([H])([H])C([H])([H])C([H])([H])C([H])(n3nc(-c4c([H])c([H])c(Oc5c([H])c([H])c(F)c([H])c5F)c([H])c4[H])c(C(=O)N([H])[H])c3N([H])[H])C2([H])[H])nc(C([H])([H])[N+]([H])([H])C([H])([H])C([H])([H])C2([H])C([H])([H])C([H])(Oc3c([H])c([H])c4c(c3[H])C([H])([H])N(C(=O)C([H])(N([H])C(=O)C([H])(N([H])C([H])([H])[H])C([H])([H])[H])C(C([H])([H])[H])(C([H])([H])[H])C([H])([H])[H])C([H])(C(=O)N([H])C3([H])c5c([H])c([H])c([H])c([H])c5C([H])([H])C([H])([H])C3([H])[H])C4([H])[H])C([H])([H])[N+]2([H])[H])c([H])c1[H]

>  <smiles>  (33) 
[H]c1c(N([H])C(=O)N2C([H])([H])C([H])([H])C([H])([H])C([H])(n3nc(-c4c([H])c([H])c(Oc5c([H])c([H])c(F)c([H])c5F)c([H])c4[H])c(C(=O)N([H])[H])c3N([H])[H])C2([H])[H])nc(C([H])([H])[N+]([H])([H])C([H])([H])C([H])([H])C2([H])C([H])([H])C([H])(Oc3c([H])c([H])c4c(c3[H])C([H])([H])N(C(=O)C([H])(N([H])C(=O)C([H])(N([H])C([H])([H])[H])C([H])([H])[H])C(C([H])([H])[H])(C([H])([H])[H])C([H])([H])[H])C([H])(C(=O)N([H])C3([H])c5c([H])c([H])c([H])c([H])c5C([H])([H])C([H])([H])C3([H])[H])C4([H])[H])C([H])([H])[N+]2([H])[H])c([H])c1[H]

$$$$
33:0:0
     RDKit          3D

 94103  0  0  1  0  0  0  0  0999 V2000
  -28.2390  -23.1540   21.0220 C   0  0  0  0  0  2  0  0  0  0  0  0
  -29.8590  -23.6390   19.3010 C   0  0  0  0  0  2  0  0  0  0  0  0
  -28.8800  -21.6270   21.1900 C   0  0  0  0  0  2  0  0  0  0  0  0
  -30.5100  -22.1150   19.4720 C   0  0  0  0  0  2  0  0  0  0  0  0
  -29.1340  -24.3930   20.5280 C   0  0  0  0  0  3  0  0  0  0  0  0
  -29.6350  -20.9800   20.0160 N   0  0  1  0  0  4  0  0  0  0  0  0
  -28.8930  -21.0580   19.3380 H   0  0  0  0  0  0  0  0  0  0  0  0
  -28.8580  -25.9890   20.6910 O   0  0  0  0  0  0  0  0  0  0  0  0
  -24.8420  -31.8010   23.0740 C   0  0  0  0  0  0  0  0  0  0  0  0
  -27.7260  -26.9070   20.5200 C   0  0  0  0  0  0  0  0  0  0  0  0
  -23.7800  -30.2610   21.4680 C   0  0  0  0  0  3  0  0  0  0  0  0
  -25.3520  -28.6220   20.2360 C   0  0  0  0  0  0  0  0  0  0  0  0
  -26.3350  -30.5790   21.4280 C   0  0  0  0  0  2  0  0  0  0  0  0
  -26.4840  -29.1390   20.8760 C   0  0  0  0  0  0  0  0  0  0  0  0
  -27.6680  -28.3000   20.9840 C   0  0  0  0  0  3  0  0  0  0  0  0
  -26.5590  -26.5010   19.8400 C   0  0  0  0  0  3  0  0  0  0  0  0
  -25.4090  -27.3230   19.7000 C   0  0  0  0  0  3  0  0  0  0  0  0
  -24.0990  -29.4930   20.1550 C   0  0  0  0  0  2  0  0  0  0  0  0
  -25.0030  -30.9110   22.0440 N   0  0  0  0  0  0  0  0  0  0  0  0
  -23.7190  -32.0820   23.5220 O   0  0  0  0  0  0  0  0  0  0  0  0
  -23.0740  -29.3030   22.4630 C   0  0  0  0  0  0  0  0  0  0  0  0
  -21.7440  -29.1590   22.3370 N   0  0  0  0  0  0  0  0  0  0  0  0
  -23.7290  -28.6930   23.3110 O   0  0  0  0  0  0  0  0  0  0  0  0
  -21.2730  -29.7000   21.6250 H   0  0  0  0  0  0  0  0  0  0  0  0
  -18.3250  -28.1070   22.9330 C   0  0  0  0  0  0  0  0  0  0  0  0
  -20.9000  -28.2610   23.1330 C   0  0  0  0  0  3  0  0  0  0  0  0
  -20.9250  -26.8260   22.5590 C   0  0  0  0  0  2  0  0  0  0  0  0
  -19.7850  -26.5510   21.5730 C   0  0  0  0  0  2  0  0  0  0  0  0
  -18.4280  -26.7530   22.2530 C   0  0  0  0  0  2  0  0  0  0  0  0
  -19.4870  -28.8220   23.3320 C   0  0  0  0  0  0  0  0  0  0  0  0
  -19.3340  -30.0900   23.9340 C   0  0  0  0  0  3  0  0  0  0  0  0
  -18.0550  -30.6420   24.1370 C   0  0  0  0  0  3  0  0  0  0  0  0
  -16.9100  -29.9260   23.7520 C   0  0  0  0  0  3  0  0  0  0  0  0
  -17.0470  -28.6580   23.1560 C   0  0  0  0  0  3  0  0  0  0  0  0
  -26.0580  -32.5240   23.7310 C   0  0  0  0  0  3  0  0  0  0  0  0
  -26.6180  -31.7650   24.9980 C   0  0  1  0  0  0  0  0  0  0  0  0
  -25.5230  -31.3530   26.0110 C   0  0  0  0  0  1  0  0  0  0  0  0
  -27.3770  -30.4860   24.5800 C   0  0  0  0  0  1  0  0  0  0  0  0
  -27.6400  -32.6620   25.7350 C   0  0  0  0  0  1  0  0  0  0  0  0
  -25.6310  -33.8830   24.1040 N   0  0  0  0  0  0  0  0  0  0  0  0
  -25.9500  -34.9960   23.4290 C   0  0  0  0  0  0  0  0  0  0  0  0
  -26.6980  -34.9880   22.4480 O   0  0  0  0  0  0  0  0  0  0  0  0
  -24.9720  -33.9570   24.8630 H   0  0  0  0  0  0  0  0  0  0  0  0
  -24.1600  -36.7180   23.0230 C   0  0  0  0  0  1  0  0  0  0  0  0
  -25.3470  -36.3280   23.9200 C   0  0  0  0  0  3  0  0  0  0  0  0
  -27.3590  -37.2590   24.9780 C   0  0  0  0  0  1  0  0  0  0  0  0
  -26.3240  -37.4400   23.9630 N   0  0  0  0  0  0  0  0  0  0  0  0
  -25.8570  -38.3260   24.1400 H   0  0  0  0  0  0  0  0  0  0  0  0
  -29.8020  -19.3540   19.7110 C   0  0  0  0  0  3  0  0  0  0  0  0
  -25.7360  -18.0790   18.8200 C   0  0  0  0  0  3  0  0  0  0  0  0
  -26.5040  -18.7240   17.8320 C   0  0  0  0  0  3  0  0  0  0  0  0
  -26.2980  -17.8130   20.0830 C   0  0  0  0  0  3  0  0  0  0  0  0
  -27.8310  -19.1080   18.1080 C   0  0  0  0  0  3  0  0  0  0  0  0
  -27.6260  -18.1980   20.3610 C   0  0  0  0  0  3  0  0  0  0  0  0
  -28.3980  -18.8590   19.3790 C   0  0  0  0  0  0  0  0  0  0  0  0
  -30.7040  -18.0200   20.4230 C   0  0  0  0  0  2  0  0  0  0  0  0
  -31.1130  -15.1490   20.1430 C   0  0  0  0  0  0  0  0  0  0  0  0
  -30.9470  -12.7800   19.1400 C   0  0  0  0  0  2  0  0  0  0  0  0
  -29.9800  -12.7060   17.9320 C   0  0  0  0  0  2  0  0  0  0  0  0
  -28.5280  -12.5080   18.4010 C   0  0  0  0  0  2  0  0  0  0  0  0
  -28.1660  -13.4300   19.5920 C   0  0  0  0  0  3  0  0  0  0  0  0
  -29.2480  -13.4290   20.6890 C   0  0  0  0  0  2  0  0  0  0  0  0
  -30.4890  -13.8860   20.0470 N   0  0  0  0  0  0  0  0  0  0  0  0
  -32.3240  -15.1370   19.8910 O   0  0  0  0  0  0  0  0  0  0  0  0
  -30.3800  -16.4040   20.3210 N   0  0  0  0  0  0  0  0  0  0  0  0
  -29.3960  -16.2230   20.4440 H   0  0  0  0  0  0  0  0  0  0  0  0
  -25.8420  -14.0680   20.4250 C   0  0  0  0  0  0  0  0  0  0  0  0
  -24.7530  -13.3280   20.7910 C   0  0  0  0  0  0  0  0  0  0  0  0
  -25.1570  -11.9620   20.6930 C   0  0  0  0  0  0  0  0  0  0  0  0
  -26.8360  -13.1570   20.1200 N   0  0  0  0  0  0  0  0  0  0  0  0
  -26.4380  -11.8800   20.3500 N   0  0  0  0  0  0  0  0  0  0  0  0
  -24.3780  -10.7260   20.8510 C   0  0  0  0  0  0  0  0  0  0  0  0
  -24.7570   -9.7260   21.7730 C   0  0  0  0  0  3  0  0  0  0  0  0
  -23.9800   -8.5570   21.9190 C   0  0  0  0  0  3  0  0  0  0  0  0
  -22.8090   -8.3810   21.1440 C   0  0  0  0  0  0  0  0  0  0  0  0
  -22.4500   -9.3700   20.2110 C   0  0  0  0  0  3  0  0  0  0  0  0
  -23.2270  -10.5310   20.0620 C   0  0  0  0  0  3  0  0  0  0  0  0
  -22.0070   -7.2670   21.2000 O   0  0  0  0  0  0  0  0  0  0  0  0
  -21.8650   -6.5420   22.3560 C   0  0  0  0  0  0  0  0  0  0  0  0
  -21.4160   -7.1330   23.5560 C   0  0  0  0  0  3  0  0  0  0  0  0
  -21.2180   -6.3360   24.7020 C   0  0  0  0  0  3  0  0  0  0  0  0
  -21.4590   -4.9510   24.6480 C   0  0  0  0  0  0  0  0  0  0  0  0
  -21.9000   -4.3590   23.4510 C   0  0  0  0  0  3  0  0  0  0  0  0
  -22.1000   -5.1530   22.3070 C   0  0  0  0  0  0  0  0  0  0  0  0
  -22.5060   -4.5750   21.1510 F   0  0  0  0  0  0  0  0  0  0  0  0
  -21.2600   -4.1830   25.7450 F   0  0  0  0  0  0  0  0  0  0  0  0
  -23.3860  -13.8580   21.1120 C   0  0  0  0  0  0  0  0  0  0  0  0
  -22.6530  -13.1700   21.9780 N   0  0  0  0  0  0  0  0  0  0  0  0
  -22.9800  -14.9150   20.6290 O   0  0  0  0  0  0  0  0  0  0  0  0
  -22.9950  -12.3120   22.3870 H   0  0  0  0  0  0  0  0  0  0  0  0
  -21.7350  -13.5020   22.2370 H   0  0  0  0  0  0  0  0  0  0  0  0
  -26.0680  -15.4320   20.2980 N   0  0  0  0  0  0  0  0  0  0  0  0
  -25.3680  -16.1270   20.5320 H   0  0  0  0  0  0  0  0  0  0  0  0
  -26.9330  -15.8470   19.9860 H   0  0  0  0  0  0  0  0  0  0  0  0
  1  3  1  0
  2  4  1  0
  2  5  1  0
  4  6  1  0
  5  8  1  0
  5  1  1  0
  6  3  1  0
  6  7  1  6
  9 20  2  0
 10  8  1  0
 10 15  1  0
 11 19  1  0
 11 21  1  0
 12 14  1  0
 13 19  1  0
 14 15  2  0
 14 13  1  0
 16 10  2  0
 17 16  1  0
 17 12  2  0
 18 12  1  0
 18 11  1  0
 19  9  1  0
 21 23  2  0
 22 21  1  0
 24 22  1  0
 25 34  2  0
 25 30  1  0
 26 22  1  0
 26 30  1  0
 27 26  1  0
 28 29  1  0
 28 27  1  0
 29 25  1  0
 30 31  2  0
 31 32  1  0
 33 32  2  0
 34 33  1  0
 35  9  1  0
 35 40  1  0
 35 36  1  0
 36 39  1  1
 36 37  1  0
 38 36  1  0
 40 43  1  0
 41 45  1  0
 41 40  1  0
 42 41  2  0
 45 44  1  0
 45 47  1  0
 47 48  1  0
 47 46  1  0
 49  6  1  0
 49 56  1  0
 50 52  1  0
 51 53  1  0
 51 50  2  0
 52 54  2  0
 53 55  2  0
 55 49  1  0
 55 54  1  0
 57 65  1  0
 58 63  1  0
 59 60  1  0
 59 58  1  0
 61 60  1  0
 61 70  1  0
 61 62  1  0
 63 57  1  0
 63 62  1  0
 64 57  2  0
 65 56  1  0
 65 66  1  0
 67 68  2  0
 68 87  1  0
 69 68  1  0
 69 72  1  0
 70 71  1  0
 70 67  1  0
 71 69  2  0
 72 73  1  0
 73 74  2  0
 75 78  1  0
 75 74  1  0
 76 75  2  0
 77 76  1  0
 77 72  2  0
 78 79  1  0
 79 80  1  0
 80 81  2  0
 82 81  1  0
 82 86  1  0
 83 82  2  0
 84 79  2  0
 84 83  1  0
 85 84  1  0
 87 88  1  0
 88 91  1  0
 88 90  1  0
 89 87  2  0
 92 67  1  0
 92 93  1  0
 94 92  1  0
M  ISO  4   5 101   8 101  57 100  65 100
M  END
>  <TORSDO>  (34) 
F 19

>  <SCORE>  (34) 
-12.758

>  <name>  (34) 
33

>  <ligand_id>  (34) 
33

>  <original_smiles>  (34) 
[H]c1c([H])c([H])c(C([H])(C([H])([H])N([H])C(=O)N2C([H])([H])C([H])([H])C([H])([H])C([H])(n3nc(-c4c([H])c([H])c(Oc5c([H])c([H])c(F)c([H])c5F)c([H])c4[H])c(C(=O)N([H])[H])c3N([H])[H])C2([H])[H])[N+]2([H])C([H])([H])C([H])([H])C([H])(Oc3c([H])c([H])c4c(c3[H])C([H])([H])N(C(=O)C([H])(N([H])C(=O)C([H])(N([H])C([H])([H])[H])C([H])([H])[H])C(C([H])([H])[H])(C([H])([H])[H])C([H])([H])[H])C([H])(C(=O)N([H])C3([H])c5c([H])c([H])c([H])c([H])c5C([H])([H])C([H])([H])C3([H])[H])C4([H])[H])C([H])([H])C2([H])[H])c([H])c1[H]

>  <smiles>  (34) 
[H]c1c([H])c([H])c(C([H])(C([H])([H])N([H])C(=O)N2C([H])([H])C([H])([H])C([H])([H])C([H])(n3nc(-c4c([H])c([H])c(Oc5c([H])c([H])c(F)c([H])c5F)c([H])c4[H])c(C(=O)N([H])[H])c3N([H])[H])C2([H])[H])[N+]2([H])C([H])([H])C([H])([H])C([H])(Oc3c([H])c([H])c4c(c3[H])C([H])([H])N(C(=O)C([H])(N([H])C(=O)C([H])(N([H])C([H])([H])[H])C([H])([H])[H])C(C([H])([H])[H])(C([H])([H])[H])C([H])([H])[H])C([H])(C(=O)N([H])C3([H])c5c([H])c([H])c([H])c([H])c5C([H])([H])C([H])([H])C3([H])[H])C4([H])[H])C([H])([H])C2([H])[H])c([H])c1[H]

$$$$
34:0:0
     RDKit          3D

 98107  0  0  1  0  0  0  0  0999 V2000
  -29.0450  -20.9480   19.0070 N   0  0  0  0  0  4  0  0  0  0  0  0
  -29.4600  -20.7530   18.1100 H   0  0  0  0  0  0  0  0  0  0  0  0
  -28.0660  -21.0930   18.8290 H   0  0  0  0  0  0  0  0  0  0  0  0
  -29.3320  -23.3240   18.3810 C   0  0  0  0  0  2  0  0  0  0  0  0
  -29.0890  -22.7310   20.8510 C   0  0  0  0  0  2  0  0  0  0  0  0
  -29.6810  -24.7730   18.7820 C   0  0  0  0  0  2  0  0  0  0  0  0
  -29.4870  -24.1930   21.1950 C   0  0  0  0  0  2  0  0  0  0  0  0
  -29.6230  -22.2500   19.4700 C   0  0  0  0  0  3  0  0  0  0  0  0
  -28.9930  -25.1540   20.1010 C   0  0  0  0  0  3  0  0  0  0  0  0
  -29.2030  -26.5480   20.4210 O   0  0  0  0  0  0  0  0  0  0  0  0
  -25.3260  -31.4060   23.8890 C   0  0  0  0  0  0  0  0  0  0  0  0
  -28.0900  -27.3730   20.3750 C   0  0  0  0  0  0  0  0  0  0  0  0
  -24.2420  -30.3620   21.9270 C   0  0  0  0  0  3  0  0  0  0  0  0
  -25.7740  -29.0110   20.4030 C   0  0  0  0  0  0  0  0  0  0  0  0
  -26.7900  -30.6040   22.0360 C   0  0  0  0  0  2  0  0  0  0  0  0
  -26.8860  -29.3580   21.1810 C   0  0  0  0  0  0  0  0  0  0  0  0
  -28.0470  -28.5490   21.1630 C   0  0  0  0  0  3  0  0  0  0  0  0
  -26.9680  -27.0690   19.5680 C   0  0  0  0  0  3  0  0  0  0  0  0
  -25.8130  -27.8680   19.5900 C   0  0  0  0  0  3  0  0  0  0  0  0
  -24.5640  -29.9130   20.4780 C   0  0  0  0  0  2  0  0  0  0  0  0
  -25.4640  -30.7970   22.6770 N   0  0  0  0  0  0  0  0  0  0  0  0
  -24.2060  -31.6460   24.3620 O   0  0  0  0  0  0  0  0  0  0  0  0
  -23.4580  -29.2320   22.6350 C   0  0  0  0  0  0  0  0  0  0  0  0
  -22.1450  -29.1550   22.3620 N   0  0  0  0  0  0  0  0  0  0  0  0
  -24.0310  -28.4360   23.3830 O   0  0  0  0  0  0  0  0  0  0  0  0
  -21.7490  -29.8460   21.7400 H   0  0  0  0  0  0  0  0  0  0  0  0
  -18.6780  -28.1340   22.3850 C   0  0  0  0  0  0  0  0  0  0  0  0
  -21.2150  -28.1550   22.8850 C   0  0  0  0  0  3  0  0  0  0  0  0
  -21.2870  -26.8490   22.0610 C   0  0  0  0  0  2  0  0  0  0  0  0
  -20.2580  -26.7930   20.9290 C   0  0  0  0  0  2  0  0  0  0  0  0
  -18.8360  -26.9190   21.4840 C   0  0  0  0  0  2  0  0  0  0  0  0
  -19.7990  -28.7230   23.0290 C   0  0  0  0  0  0  0  0  0  0  0  0
  -19.6020  -29.8730   23.8250 C   0  0  0  0  0  3  0  0  0  0  0  0
  -18.3200  -30.4270   23.9880 C   0  0  0  0  0  3  0  0  0  0  0  0
  -17.2120  -29.8280   23.3620 C   0  0  0  0  0  3  0  0  0  0  0  0
  -17.3930  -28.6830   22.5660 C   0  0  0  0  0  3  0  0  0  0  0  0
  -26.5660  -31.8530   24.7250 C   0  0  0  0  0  3  0  0  0  0  0  0
  -26.2910  -33.2030   25.2360 N   0  0  0  0  0  0  0  0  0  0  0  0
  -26.7710  -34.3310   24.6980 C   0  0  0  0  0  0  0  0  0  0  0  0
  -27.5640  -34.3390   23.7520 O   0  0  0  0  0  0  0  0  0  0  0  0
  -25.6120  -33.2750   25.9800 H   0  0  0  0  0  0  0  0  0  0  0  0
  -25.1950  -36.2720   24.4270 C   0  0  0  0  0  1  0  0  0  0  0  0
  -26.2990  -35.6650   25.3080 C   0  0  0  0  0  3  0  0  0  0  0  0
  -28.3400  -36.2680   26.5310 C   0  0  0  0  0  1  0  0  0  0  0  0
  -27.3880  -36.6480   25.4910 N   0  0  0  0  0  0  0  0  0  0  0  0
  -27.0110  -37.5620   25.7280 H   0  0  0  0  0  0  0  0  0  0  0  0
  -26.9070  -30.8680   25.9090 C   0  0  1  0  0  0  0  0  0  0  0  0
  -25.6910  -30.5230   26.8010 C   0  0  0  0  0  1  0  0  0  0  0  0
  -27.4840  -29.5390   25.3660 C   0  0  0  0  0  1  0  0  0  0  0  0
  -28.0030  -31.4870   26.8080 C   0  0  0  0  0  1  0  0  0  0  0  0
  -29.1840  -19.7060   19.8310 C   0  0  0  0  0  3  0  0  0  0  0  0
  -27.7930  -17.3960   20.1340 C   0  0  0  0  0  2  0  0  0  0  0  0
  -26.6410  -19.0610   20.4530 C   0  0  0  0  0  2  0  0  0  0  0  0
  -27.9150  -18.8420   19.6280 C   0  0  0  0  0  3  0  0  0  0  0  0
  -26.3640  -17.6330   20.3040 N   0  0  0  0  0  4  0  0  0  0  0  0
  -25.9640  -17.1920   21.1170 H   0  0  0  0  0  0  0  0  0  0  0  0
  -25.8410  -17.4210   19.4690 H   0  0  0  0  0  0  0  0  0  0  0  0
  -30.4650  -18.9150   19.4080 C   0  0  0  0  0  2  0  0  0  0  0  0
  -31.3200  -18.3120   20.5620 C   0  0  0  0  0  2  0  0  0  0  0  0
  -30.9250  -16.8870   21.0250 C   0  0  0  0  0  2  0  0  0  0  0  0
  -32.2900  -14.8560   20.6110 C   0  0  0  0  0  0  0  0  0  0  0  0
  -32.1450  -12.4250   20.3390 C   0  0  0  0  0  2  0  0  0  0  0  0
  -31.4180  -12.1330   19.0090 C   0  0  0  0  0  2  0  0  0  0  0  0
  -29.8890  -12.1030   19.2210 C   0  0  0  0  0  2  0  0  0  0  0  0
  -29.3560  -13.3260   20.0190 C   0  0  0  0  0  3  0  0  0  0  0  0
  -30.2190  -13.5730   21.2780 C   0  0  0  0  0  2  0  0  0  0  0  0
  -31.6180  -13.7000   20.8450 N   0  0  0  0  0  0  0  0  0  0  0  0
  -33.4930  -14.9040   20.3720 O   0  0  0  0  0  0  0  0  0  0  0  0
  -31.5380  -15.8750   20.1710 N   0  0  0  0  0  0  0  0  0  0  0  0
  -32.0050  -16.3200   19.3950 H   0  0  0  0  0  0  0  0  0  0  0  0
  -26.9400  -14.1350   20.3910 C   0  0  0  0  0  0  0  0  0  0  0  0
  -25.7810  -13.4610   20.6710 C   0  0  0  0  0  0  0  0  0  0  0  0
  -26.1460  -12.0840   20.7850 C   0  0  0  0  0  0  0  0  0  0  0  0
  -27.9390  -13.1750   20.3480 N   0  0  0  0  0  0  0  0  0  0  0  0
  -27.4560  -11.9410   20.6410 N   0  0  0  0  0  0  0  0  0  0  0  0
  -25.3140  -10.8860   20.9650 C   0  0  0  0  0  0  0  0  0  0  0  0
  -25.4620  -10.0420   22.0880 C   0  0  0  0  0  3  0  0  0  0  0  0
  -24.6360   -8.9080   22.2470 C   0  0  0  0  0  3  0  0  0  0  0  0
  -23.6480   -8.6110   21.2780 C   0  0  0  0  0  0  0  0  0  0  0  0
  -23.5220   -9.4400   20.1490 C   0  0  0  0  0  3  0  0  0  0  0  0
  -24.3480  -10.5650   19.9920 C   0  0  0  0  0  3  0  0  0  0  0  0
  -22.8210   -7.5150   21.3360 O   0  0  0  0  0  0  0  0  0  0  0  0
  -22.3160   -7.0550   22.5250 C   0  0  0  0  0  0  0  0  0  0  0  0
  -21.5280   -7.8700   23.3680 C   0  0  0  0  0  3  0  0  0  0  0  0
  -20.9710   -7.3340   24.5460 C   0  0  0  0  0  3  0  0  0  0  0  0
  -21.1950   -5.9840   24.8810 C   0  0  0  0  0  0  0  0  0  0  0  0
  -21.9750   -5.1700   24.0410 C   0  0  0  0  0  3  0  0  0  0  0  0
  -22.5310   -5.7040   22.8640 C   0  0  0  0  0  0  0  0  0  0  0  0
  -23.2620   -4.9090   22.0460 F   0  0  0  0  0  0  0  0  0  0  0  0
  -20.6570   -5.4650   26.0100 F   0  0  0  0  0  0  0  0  0  0  0  0
  -24.3980  -14.0450   20.7400 C   0  0  0  0  0  0  0  0  0  0  0  0
  -23.5320  -13.4840   21.5760 N   0  0  0  0  0  0  0  0  0  0  0  0
  -24.0930  -15.0440   20.0890 O   0  0  0  0  0  0  0  0  0  0  0  0
  -23.7740  -12.6690   22.1210 H   0  0  0  0  0  0  0  0  0  0  0  0
  -22.6050  -13.8740   21.6650 H   0  0  0  0  0  0  0  0  0  0  0  0
  -27.2260  -15.4770   20.1530 N   0  0  0  0  0  0  0  0  0  0  0  0
  -26.4970  -16.1790   20.0990 H   0  0  0  0  0  0  0  0  0  0  0  0
  -28.1420  -15.8250   19.8980 H   0  0  0  0  0  0  0  0  0  0  0  0
  1 51  1  0
  2  1  1  0
  3  1  1  0
  4  6  1  0
  4  8  1  0
  5  7  1  0
  6  9  1  0
  8  1  1  0
  8  5  1  0
  9 10  1  0
  9  7  1  0
 11 22  2  0
 12 10  1  0
 12 17  1  0
 13 23  1  0
 13 21  1  0
 14 20  1  0
 14 16  1  0
 15 21  1  0
 16 15  1  0
 17 16  2  0
 18 19  1  0
 18 12  2  0
 19 14  2  0
 20 13  1  0
 21 11  1  0
 23 25  2  0
 24 23  1  0
 26 24  1  0
 27 36  2  0
 27 32  1  0
 28 24  1  0
 28 32  1  0
 29 28  1  0
 30 31  1  0
 30 29  1  0
 31 27  1  0
 32 33  2  0
 33 34  1  0
 35 34  2  0
 36 35  1  0
 37 11  1  0
 37 38  1  0
 37 47  1  0
 38 41  1  0
 39 38  1  0
 39 43  1  0
 40 39  2  0
 43 42  1  0
 43 45  1  0
 45 46  1  0
 45 44  1  0
 47 48  1  1
 47 50  1  0
 49 47  1  0
 51 58  1  0
 52 55  1  0
 54 51  1  0
 54 52  1  0
 54 53  1  0
 55 53  1  0
 55 56  1  0
 57 55  1  0
 58 59  1  0
 59 60  1  0
 61 67  1  0
 62 67  1  0
 63 64  1  0
 63 62  1  0
 65 64  1  0
 65 74  1  0
 65 66  1  0
 67 66  1  0
 68 61  2  0
 69 61  1  0
 69 60  1  0
 70 69  1  0
 71 72  2  0
 72 91  1  0
 72 73  1  0
 73 76  1  0
 74 71  1  0
 74 75  1  0
 75 73  2  0
 76 77  1  0
 77 78  2  0
 79 82  1  0
 79 78  1  0
 80 79  2  0
 81 80  1  0
 81 76  2  0
 82 83  1  0
 83 88  2  0
 83 84  1  0
 84 85  2  0
 85 86  1  0
 86 90  1  0
 87 86  2  0
 88 87  1  0
 89 88  1  0
 91 92  1  0
 92 95  1  0
 92 94  1  0
 93 91  2  0
 96 71  1  0
 97 96  1  0
 98 96  1  0
M  ISO  4   9 101  10 101  61 100  69 100
M  END
>  <TORSDO>  (35) 
F 22

>  <SCORE>  (35) 
-8.660

>  <name>  (35) 
34

>  <ligand_id>  (35) 
34

>  <original_smiles>  (35) 
[H]c1c([H])c([H])c2c(c1[H])C([H])([H])C([H])([H])C([H])([H])C2([H])N([H])C(=O)C1([H])N(C(=O)C([H])(N([H])C(=O)C([H])(N([H])C([H])([H])[H])C([H])([H])[H])C(C([H])([H])[H])(C([H])([H])[H])C([H])([H])[H])C([H])([H])c2c([H])c(OC3([H])C([H])([H])C([H])([H])C([H])([N+]([H])([H])C([H])(C([H])([H])C([H])([H])C([H])([H])N([H])C(=O)N4C([H])([H])C([H])([H])C([H])([H])C([H])(n5nc(-c6c([H])c([H])c(Oc7c([H])c([H])c(F)c([H])c7F)c([H])c6[H])c(C(=O)N([H])[H])c5N([H])[H])C4([H])[H])C4([H])C([H])([H])[N+]([H])([H])C4([H])[H])C([H])([H])C3([H])[H])c([H])c([H])c2C1([H])[H]

>  <smiles>  (35) 
[H]c1c([H])c([H])c2c(c1[H])C([H])([H])C([H])([H])C([H])([H])C2([H])N([H])C(=O)C1([H])N(C(=O)C([H])(N([H])C(=O)C([H])(N([H])C([H])([H])[H])C([H])([H])[H])C(C([H])([H])[H])(C([H])([H])[H])C([H])([H])[H])C([H])([H])c2c([H])c(OC3([H])C([H])([H])C([H])([H])C([H])([N+]([H])([H])C([H])(C([H])([H])C([H])([H])C([H])([H])N([H])C(=O)N4C([H])([H])C([H])([H])C([H])([H])C([H])(n5nc(-c6c([H])c([H])c(Oc7c([H])c([H])c(F)c([H])c7F)c([H])c6[H])c(C(=O)N([H])[H])c5N([H])[H])C4([H])[H])C4([H])C([H])([H])[N+]([H])([H])C4([H])[H])C([H])([H])C3([H])[H])c([H])c([H])c2C1([H])[H]

$$$$
35:0:0
     RDKit          3D

104114  0  0  1  0  0  0  0  0999 V2000
  -29.1260  -21.2980   20.6820 C   0  0  0  0  0  2  0  0  0  0  0  0
  -27.3410  -21.6310   18.9640 C   0  0  0  0  0  2  0  0  0  0  0  0
  -29.5100  -23.6410   18.6900 C   0  0  0  0  0  2  0  0  0  0  0  0
  -27.9840  -22.3150   20.1700 C   0  0  0  0  0  3  0  0  0  0  0  0
  -29.6130  -20.0180   19.7930 C   0  0  0  0  0  3  0  0  0  0  0  0
  -28.3320  -23.8080   19.6710 C   0  0  0  0  0  3  0  0  0  0  0  0
  -29.3520  -20.2180   18.2450 C   0  0  0  0  0  3  0  0  0  0  0  0
  -28.4380  -21.4410   17.8930 C   0  0  0  0  0  3  0  0  0  0  0  0
  -29.1640  -22.7100   17.5670 N   0  0  0  0  0  4  0  0  0  0  0  0
  -29.9970  -22.4790   17.0490 H   0  0  0  0  0  0  0  0  0  0  0  0
  -28.5730  -23.2290   16.9340 H   0  0  0  0  0  0  0  0  0  0  0  0
  -30.6380  -20.0700   16.0600 C   0  0  0  0  0  0  0  0  0  0  0  0
  -30.5640  -20.0140   17.4090 N   0  0  0  0  0  0  0  0  0  0  0  0
  -29.8190  -20.7030   15.3890 O   0  0  0  0  0  0  0  0  0  0  0  0
  -31.3090  -19.4930   17.8510 H   0  0  0  0  0  0  0  0  0  0  0  0
  -31.2440  -18.0780   14.5290 C   0  0  0  0  0  2  0  0  0  0  0  0
  -31.8090  -18.7360   13.2780 C   0  0  0  0  0  2  0  0  0  0  0  0
  -31.7590  -19.2840   15.3330 C   0  0  0  0  0  3  0  0  0  0  0  0
  -32.0950  -19.9330   14.0710 N   0  0  0  0  0  4  0  0  0  0  0  0
  -31.4400  -20.6810   13.9110 H   0  0  0  0  0  0  0  0  0  0  0  0
  -33.0530  -20.2370   14.0210 H   0  0  0  0  0  0  0  0  0  0  0  0
  -28.9840  -18.3860   21.7780 C   0  0  0  0  0  1  0  0  0  0  0  0
  -29.2650  -18.4870   20.2610 C   0  0  0  0  0  3  0  0  0  0  0  0
  -30.2880  -17.3110   19.8090 C   0  0  0  0  0  2  0  0  0  0  0  0
  -30.7730  -14.7530   19.8990 C   0  0  0  0  0  0  0  0  0  0  0  0
  -30.5470  -12.4790   18.9160 C   0  0  0  0  0  2  0  0  0  0  0  0
  -29.5260  -12.5390   17.7590 C   0  0  0  0  0  2  0  0  0  0  0  0
  -28.0820  -12.3940   18.2820 C   0  0  0  0  0  2  0  0  0  0  0  0
  -27.8000  -13.2700   19.5310 C   0  0  0  0  0  3  0  0  0  0  0  0
  -28.9300  -13.1560   20.5770 C   0  0  0  0  0  2  0  0  0  0  0  0
  -30.1730  -13.5190   19.8940 N   0  0  0  0  0  0  0  0  0  0  0  0
  -31.9310  -14.8820   19.4990 O   0  0  0  0  0  0  0  0  0  0  0  0
  -29.9720  -15.8590   20.1250 N   0  0  0  0  0  0  0  0  0  0  0  0
  -29.0210  -15.6620   20.3870 H   0  0  0  0  0  0  0  0  0  0  0  0
  -25.4770  -13.8630   20.4430 C   0  0  0  0  0  0  0  0  0  0  0  0
  -24.4240  -13.0870   20.8540 C   0  0  0  0  0  0  0  0  0  0  0  0
  -24.8630  -11.7340   20.7300 C   0  0  0  0  0  0  0  0  0  0  0  0
  -26.4880  -12.9810   20.1030 N   0  0  0  0  0  0  0  0  0  0  0  0
  -26.1300  -11.6900   20.3340 N   0  0  0  0  0  0  0  0  0  0  0  0
  -24.1300  -10.4730   20.9220 C   0  0  0  0  0  0  0  0  0  0  0  0
  -24.5540   -9.5090   21.8640 C   0  0  0  0  0  3  0  0  0  0  0  0
  -23.8260   -8.3110   22.0400 C   0  0  0  0  0  3  0  0  0  0  0  0
  -22.6600   -8.0700   21.2740 C   0  0  0  0  0  0  0  0  0  0  0  0
  -22.2540   -9.0260   20.3240 C   0  0  0  0  0  3  0  0  0  0  0  0
  -22.9820  -10.2140   20.1470 C   0  0  0  0  0  3  0  0  0  0  0  0
  -21.9020   -6.9280   21.3500 O   0  0  0  0  0  0  0  0  0  0  0  0
  -21.7570   -6.2470   22.5330 C   0  0  0  0  0  0  0  0  0  0  0  0
  -21.2070   -6.8620   23.6800 C   0  0  0  0  0  3  0  0  0  0  0  0
  -21.0080   -6.1110   24.8540 C   0  0  0  0  0  3  0  0  0  0  0  0
  -21.3490   -4.7430   24.8840 C   0  0  0  0  0  0  0  0  0  0  0  0
  -21.8920   -4.1290   23.7430 C   0  0  0  0  0  3  0  0  0  0  0  0
  -22.0930   -4.8810   22.5700 C   0  0  0  0  0  0  0  0  0  0  0  0
  -22.5960   -4.2800   21.4660 F   0  0  0  0  0  0  0  0  0  0  0  0
  -21.1530   -4.0180   26.0090 F   0  0  0  0  0  0  0  0  0  0  0  0
  -23.0580  -13.5700   21.2450 C   0  0  0  0  0  0  0  0  0  0  0  0
  -22.3870  -12.8480   22.1350 N   0  0  0  0  0  0  0  0  0  0  0  0
  -22.5990  -14.6210   20.8020 O   0  0  0  0  0  0  0  0  0  0  0  0
  -22.7670  -11.9940   22.5100 H   0  0  0  0  0  0  0  0  0  0  0  0
  -21.4810  -13.1610   22.4500 H   0  0  0  0  0  0  0  0  0  0  0  0
  -25.6460  -15.2400   20.3120 N   0  0  0  0  0  0  0  0  0  0  0  0
  -24.8960  -15.8970   20.5060 H   0  0  0  0  0  0  0  0  0  0  0  0
  -26.4720  -15.6830   19.9300 H   0  0  0  0  0  0  0  0  0  0  0  0
  -28.3550  -25.0610   20.6870 C   0  0  0  0  0  2  0  0  0  0  0  0
  -28.5170  -26.4800   20.2330 O   0  0  0  0  0  0  0  0  0  0  0  0
  -24.6930  -31.8840   23.2040 C   0  0  0  0  0  0  0  0  0  0  0  0
  -27.4040  -27.3330   20.2040 C   0  0  0  0  0  0  0  0  0  0  0  0
  -23.5430  -30.4850   21.5250 C   0  0  0  0  0  3  0  0  0  0  0  0
  -25.0420  -28.9440   20.1340 C   0  0  0  0  0  0  0  0  0  0  0  0
  -26.0880  -30.8170   21.4090 C   0  0  0  0  0  2  0  0  0  0  0  0
  -26.1940  -29.4370   20.7600 C   0  0  0  0  0  0  0  0  0  0  0  0
  -27.3840  -28.6460   20.7760 C   0  0  0  0  0  3  0  0  0  0  0  0
  -26.2310  -26.8930   19.5580 C   0  0  0  0  0  3  0  0  0  0  0  0
  -25.0650  -27.6790   19.5200 C   0  0  0  0  0  3  0  0  0  0  0  0
  -23.7980  -29.8140   20.1490 C   0  0  0  0  0  2  0  0  0  0  0  0
  -24.7920  -31.0790   22.1030 N   0  0  0  0  0  0  0  0  0  0  0  0
  -23.5930  -32.1520   23.7110 O   0  0  0  0  0  0  0  0  0  0  0  0
  -22.8650  -29.4600   22.4640 C   0  0  0  0  0  0  0  0  0  0  0  0
  -21.5440  -29.2680   22.2970 N   0  0  0  0  0  0  0  0  0  0  0  0
  -23.5220  -28.8400   23.3040 O   0  0  0  0  0  0  0  0  0  0  0  0
  -21.0730  -29.8170   21.5900 H   0  0  0  0  0  0  0  0  0  0  0  0
  -18.1610  -28.0490   22.7120 C   0  0  0  0  0  0  0  0  0  0  0  0
  -20.7140  -28.3210   23.0410 C   0  0  0  0  0  3  0  0  0  0  0  0
  -20.8350  -26.8950   22.4570 C   0  0  0  0  0  2  0  0  0  0  0  0
  -19.7590  -26.5730   21.4160 C   0  0  0  0  0  2  0  0  0  0  0  0
  -18.3610  -26.7070   22.0290 C   0  0  0  0  0  2  0  0  0  0  0  0
  -19.2670  -28.8120   23.1740 C   0  0  0  0  0  0  0  0  0  0  0  0
  -19.0290  -30.0670   23.7740 C   0  0  0  0  0  3  0  0  0  0  0  0
  -17.7200  -30.5630   23.9130 C   0  0  0  0  0  3  0  0  0  0  0  0
  -16.6280  -29.7960   23.4700 C   0  0  0  0  0  3  0  0  0  0  0  0
  -16.8500  -28.5410   22.8750 C   0  0  0  0  0  3  0  0  0  0  0  0
  -25.9540  -32.5230   23.8630 C   0  0  0  0  0  3  0  0  0  0  0  0
  -25.6190  -33.9120   24.2100 N   0  0  0  0  0  0  0  0  0  0  0  0
  -25.9480  -34.9810   23.4760 C   0  0  0  0  0  0  0  0  0  0  0  0
  -26.6370  -34.9030   22.4550 O   0  0  0  0  0  0  0  0  0  0  0  0
  -25.0070  -34.0440   25.0020 H   0  0  0  0  0  0  0  0  0  0  0  0
  -24.2090  -36.7600   23.1130 C   0  0  0  0  0  1  0  0  0  0  0  0
  -25.4350  -36.3560   23.9460 C   0  0  0  0  0  3  0  0  0  0  0  0
  -27.5390  -37.2500   24.8440 C   0  0  0  0  0  1  0  0  0  0  0  0
  -26.4590  -37.4230   23.8750 N   0  0  0  0  0  0  0  0  0  0  0  0
  -26.0410  -38.3370   24.0260 H   0  0  0  0  0  0  0  0  0  0  0  0
  -26.4530  -31.7390   25.1390 C   0  0  1  0  0  0  0  0  0  0  0  0
  -25.3370  -31.4610   26.1730 C   0  0  0  0  0  1  0  0  0  0  0  0
  -27.0750  -30.3800   24.7420 C   0  0  0  0  0  1  0  0  0  0  0  0
  -27.5720  -32.5430   25.8420 C   0  0  0  0  0  1  0  0  0  0  0  0
  3  6  1  0
  4  2  1  0
  4  1  1  0
  5 23  1  0
  5  1  1  0
  6  4  1  0
  6 63  1  0
  7 13  1  0
  7  5  1  0
  8  7  1  0
  8  2  1  0
  9  8  1  0
  9  3  1  0
 10  9  1  0
 11  9  1  0
 12 13  1  0
 13 15  1  0
 14 12  2  0
 16 18  1  0
 17 19  1  0
 17 16  1  0
 18 12  1  0
 19 18  1  0
 20 19  1  0
 21 19  1  0
 23 22  1  0
 24 33  1  0
 24 23  1  0
 25 33  1  0
 26 31  1  0
 27 28  1  0
 27 26  1  0
 29 28  1  0
 29 38  1  0
 29 30  1  0
 31 25  1  0
 31 30  1  0
 32 25  2  0
 33 34  1  0
 35 36  2  0
 36 55  1  0
 37 36  1  0
 37 40  1  0
 38 39  1  0
 38 35  1  0
 39 37  2  0
 40 41  1  0
 41 42  2  0
 43 46  1  0
 43 42  1  0
 44 43  2  0
 45 44  1  0
 45 40  2  0
 46 47  1  0
 47 52  2  0
 47 48  1  0
 48 49  2  0
 49 50  1  0
 50 54  1  0
 51 50  2  0
 52 51  1  0
 53 52  1  0
 55 56  1  0
 56 59  1  0
 56 58  1  0
 57 55  2  0
 60 35  1  0
 60 61  1  0
 62 60  1  0
 64 63  1  0
 65 76  2  0
 66 64  1  0
 66 71  1  0
 67 75  1  0
 67 77  1  0
 68 74  1  0
 68 70  1  0
 69 75  1  0
 70 71  2  0
 70 69  1  0
 72 66  2  0
 73 72  1  0
 73 68  2  0
 74 67  1  0
 75 65  1  0
 77 79  2  0
 78 77  1  0
 80 78  1  0
 81 90  2  0
 81 86  1  0
 82 78  1  0
 82 86  1  0
 83 82  1  0
 84 85  1  0
 84 83  1  0
 85 81  1  0
 86 87  2  0
 87 88  1  0
 89 88  2  0
 90 89  1  0
 91 65  1  0
 91 92  1  0
 91101  1  0
 92 95  1  0
 93 97  1  0
 93 92  1  0
 94 93  2  0
 97 96  1  0
 99 97  1  0
 99100  1  0
 99 98  1  0
101104  1  1
101102  1  0
103101  1  0
M  ISO  4  25 100  33 100  63 101  64 101
M  END
>  <TORSDO>  (36) 
F 21

>  <SCORE>  (36) 
-12.377

>  <name>  (36) 
35

>  <ligand_id>  (36) 
35

>  <original_smiles>  (36) 
[H]c1c([H])c([H])c2c(c1[H])C([H])([H])C([H])([H])C([H])([H])C2([H])N([H])C(=O)C1([H])N(C(=O)C([H])(N([H])C(=O)C([H])(N([H])C([H])([H])[H])C([H])([H])[H])C(C([H])([H])[H])(C([H])([H])[H])C([H])([H])[H])C([H])([H])c2c([H])c(OC([H])([H])C3([H])C4([H])C([H])([H])C([H])(C([H])(C([H])([H])[H])C([H])([H])N([H])C(=O)N5C([H])([H])C([H])([H])C([H])([H])C([H])(n6nc(-c7c([H])c([H])c(Oc8c([H])c([H])c(F)c([H])c8F)c([H])c7[H])c(C(=O)N([H])[H])c6N([H])[H])C5([H])[H])C([H])(N([H])C(=O)C5([H])C([H])([H])C([H])([H])[N+]5([H])[H])C([H])(C4([H])[H])[N+]([H])([H])C3([H])[H])c([H])c([H])c2C1([H])[H]

>  <smiles>  (36) 
[H]c1c([H])c([H])c2c(c1[H])C([H])([H])C([H])([H])C([H])([H])C2([H])N([H])C(=O)C1([H])N(C(=O)C([H])(N([H])C(=O)C([H])(N([H])C([H])([H])[H])C([H])([H])[H])C(C([H])([H])[H])(C([H])([H])[H])C([H])([H])[H])C([H])([H])c2c([H])c(OC([H])([H])C3([H])C4([H])C([H])([H])C([H])(C([H])(C([H])([H])[H])C([H])([H])N([H])C(=O)N5C([H])([H])C([H])([H])C([H])([H])C([H])(n6nc(-c7c([H])c([H])c(Oc8c([H])c([H])c(F)c([H])c8F)c([H])c7[H])c(C(=O)N([H])[H])c6N([H])[H])C5([H])[H])C([H])(N([H])C(=O)C5([H])C([H])([H])C([H])([H])[N+]5([H])[H])C([H])(C4([H])[H])[N+]([H])([H])C3([H])[H])c([H])c([H])c2C1([H])[H]

$$$$
36:0:0
     RDKit          3D

 94103  0  0  1  0  0  0  0  0999 V2000
  -29.4460  -20.7100   19.4190 C   0  0  0  0  0  3  0  0  0  0  0  0
  -29.9500  -18.5790   20.5540 C   0  0  0  0  0  0  0  0  0  0  0  0
  -29.7890  -19.3140   19.3470 C   0  0  0  0  0  0  0  0  0  0  0  0
  -29.8340  -19.3250   21.7270 C   0  0  0  0  0  0  0  0  0  0  0  0
  -29.2980  -21.3570   20.6760 C   0  0  0  0  0  0  0  0  0  0  0  0
  -30.2820  -18.5380   22.9290 C   0  0  0  0  0  2  0  0  0  0  0  0
  -30.5290  -17.1430   20.8320 C   0  0  0  0  0  3  0  0  0  0  0  0
  -30.6790  -17.1360   22.3860 C   0  0  0  0  0  3  0  0  0  0  0  0
  -30.0730  -18.6580   18.0120 C   0  0  0  0  0  1  0  0  0  0  0  0
  -32.0720  -16.6740   22.8470 C   0  0  0  0  0  1  0  0  0  0  0  0
  -29.5030  -20.6450   21.8120 N   0  0  0  0  0  0  0  0  0  0  0  0
  -28.9550  -22.7270   20.9100 N   0  0  0  0  0  0  0  0  0  0  0  0
  -28.8890  -22.9690   21.8920 H   0  0  0  0  0  0  0  0  0  0  0  0
  -30.5050  -14.7190   19.9850 C   0  0  0  0  0  0  0  0  0  0  0  0
  -30.1310  -12.5420   18.8410 C   0  0  0  0  0  2  0  0  0  0  0  0
  -29.1100  -12.7130   17.6990 C   0  0  0  0  0  2  0  0  0  0  0  0
  -27.6750  -12.5330   18.2290 C   0  0  0  0  0  2  0  0  0  0  0  0
  -27.4040  -13.3530   19.5200 C   0  0  0  0  0  3  0  0  0  0  0  0
  -28.5450  -13.1990   20.5520 C   0  0  0  0  0  2  0  0  0  0  0  0
  -29.8020  -13.5460   19.8760 N   0  0  0  0  0  0  0  0  0  0  0  0
  -31.6610  -14.7960   19.5620 O   0  0  0  0  0  0  0  0  0  0  0  0
  -29.8580  -15.8550   20.4130 N   0  0  0  0  0  0  0  0  0  0  0  0
  -28.8800  -15.7570   20.6360 H   0  0  0  0  0  0  0  0  0  0  0  0
  -25.0580  -13.8990   20.4040 C   0  0  0  0  0  0  0  0  0  0  0  0
  -24.0270  -13.1030   20.8270 C   0  0  0  0  0  0  0  0  0  0  0  0
  -24.5060  -11.7600   20.7480 C   0  0  0  0  0  0  0  0  0  0  0  0
  -26.0980  -13.0380   20.0920 N   0  0  0  0  0  0  0  0  0  0  0  0
  -25.7770  -11.7460   20.3620 N   0  0  0  0  0  0  0  0  0  0  0  0
  -23.8100  -10.4840   20.9620 C   0  0  0  0  0  0  0  0  0  0  0  0
  -24.2740   -9.5370   21.9010 C   0  0  0  0  0  3  0  0  0  0  0  0
  -23.5750   -8.3270   22.1030 C   0  0  0  0  0  3  0  0  0  0  0  0
  -22.3980   -8.0550   21.3670 C   0  0  0  0  0  0  0  0  0  0  0  0
  -21.9530   -8.9920   20.4170 C   0  0  0  0  0  3  0  0  0  0  0  0
  -22.6530  -10.1930   20.2130 C   0  0  0  0  0  3  0  0  0  0  0  0
  -21.6690   -6.8960   21.4770 O   0  0  0  0  0  0  0  0  0  0  0  0
  -21.6210   -6.1850   22.6500 C   0  0  0  0  0  0  0  0  0  0  0  0
  -21.1500   -6.7600   23.8510 C   0  0  0  0  0  3  0  0  0  0  0  0
  -21.0520   -5.9740   25.0170 C   0  0  0  0  0  3  0  0  0  0  0  0
  -21.4130   -4.6140   24.9810 C   0  0  0  0  0  0  0  0  0  0  0  0
  -21.8780   -4.0390   23.7850 C   0  0  0  0  0  3  0  0  0  0  0  0
  -21.9770   -4.8220   22.6220 C   0  0  0  0  0  0  0  0  0  0  0  0
  -22.4050   -4.2580   21.4670 F   0  0  0  0  0  0  0  0  0  0  0  0
  -21.3130   -3.8570   26.1000 F   0  0  0  0  0  0  0  0  0  0  0  0
  -22.6430  -13.5560   21.1890 C   0  0  0  0  0  0  0  0  0  0  0  0
  -21.9780  -12.8380   22.0880 N   0  0  0  0  0  0  0  0  0  0  0  0
  -22.1580  -14.5810   20.7090 O   0  0  0  0  0  0  0  0  0  0  0  0
  -22.3830  -12.0070   22.4940 H   0  0  0  0  0  0  0  0  0  0  0  0
  -21.0530  -13.1230   22.3750 H   0  0  0  0  0  0  0  0  0  0  0  0
  -25.1910  -15.2740   20.2350 N   0  0  0  0  0  0  0  0  0  0  0  0
  -24.4200  -15.9130   20.3970 H   0  0  0  0  0  0  0  0  0  0  0  0
  -26.0070  -15.7300   19.8470 H   0  0  0  0  0  0  0  0  0  0  0  0
  -28.8900  -23.9110   19.9920 C   0  0  0  0  0  2  0  0  0  0  0  0
  -28.3010  -25.2300   20.6900 C   0  0  0  0  0  2  0  0  0  0  0  0
  -28.4150  -26.5750   20.0810 O   0  0  0  0  0  0  0  0  0  0  0  0
  -24.6080  -31.8880   23.1930 C   0  0  0  0  0  0  0  0  0  0  0  0
  -27.2810  -27.3970   20.1000 C   0  0  0  0  0  0  0  0  0  0  0  0
  -23.4250  -30.4990   21.5280 C   0  0  0  0  0  3  0  0  0  0  0  0
  -24.8950  -28.9700   20.0970 C   0  0  0  0  0  0  0  0  0  0  0  0
  -25.9600  -30.8450   21.3580 C   0  0  0  0  0  2  0  0  0  0  0  0
  -26.0580  -29.4730   20.6980 C   0  0  0  0  0  0  0  0  0  0  0  0
  -27.2560  -28.7010   20.6820 C   0  0  0  0  0  3  0  0  0  0  0  0
  -26.0960  -26.9340   19.4900 C   0  0  0  0  0  3  0  0  0  0  0  0
  -24.9140  -27.7030   19.4870 C   0  0  0  0  0  3  0  0  0  0  0  0
  -23.6520  -29.8370   20.1440 C   0  0  0  0  0  2  0  0  0  0  0  0
  -24.6840  -31.0940   22.0840 N   0  0  0  0  0  0  0  0  0  0  0  0
  -23.5190  -32.1520   23.7230 O   0  0  0  0  0  0  0  0  0  0  0  0
  -22.7600  -29.4700   22.4720 C   0  0  0  0  0  0  0  0  0  0  0  0
  -21.4330  -29.3030   22.3460 N   0  0  0  0  0  0  0  0  0  0  0  0
  -23.4380  -28.8240   23.2750 O   0  0  0  0  0  0  0  0  0  0  0  0
  -20.9480  -29.8750   21.6690 H   0  0  0  0  0  0  0  0  0  0  0  0
  -18.0450  -28.1450   22.8630 C   0  0  0  0  0  0  0  0  0  0  0  0
  -20.6110  -28.3570   23.1010 C   0  0  0  0  0  3  0  0  0  0  0  0
  -20.6820  -26.9420   22.4810 C   0  0  0  0  0  2  0  0  0  0  0  0
  -19.5600  -26.6680   21.4750 C   0  0  0  0  0  2  0  0  0  0  0  0
  -18.1900  -26.8140   22.1440 C   0  0  0  0  0  2  0  0  0  0  0  0
  -19.1820  -28.8760   23.2970 C   0  0  0  0  0  0  0  0  0  0  0  0
  -18.9930  -30.1230   23.9300 C   0  0  0  0  0  3  0  0  0  0  0  0
  -17.6990  -30.6400   24.1330 C   0  0  0  0  0  3  0  0  0  0  0  0
  -16.5760  -29.9050   23.7150 C   0  0  0  0  0  3  0  0  0  0  0  0
  -16.7510  -28.6590   23.0850 C   0  0  0  0  0  3  0  0  0  0  0  0
  -25.8820  -32.5200   23.8330 C   0  0  0  0  0  3  0  0  0  0  0  0
  -25.5650  -33.9160   24.1670 N   0  0  0  0  0  0  0  0  0  0  0  0
  -25.8990  -34.9730   23.4150 C   0  0  0  0  0  0  0  0  0  0  0  0
  -26.5760  -34.8770   22.3880 O   0  0  0  0  0  0  0  0  0  0  0  0
  -24.9650  -34.0640   24.9650 H   0  0  0  0  0  0  0  0  0  0  0  0
  -24.1720  -36.7670   23.0560 C   0  0  0  0  0  1  0  0  0  0  0  0
  -25.4060  -36.3590   23.8770 C   0  0  0  0  0  3  0  0  0  0  0  0
  -27.5300  -37.2440   24.7350 C   0  0  0  0  0  1  0  0  0  0  0  0
  -26.4390  -37.4140   23.7780 N   0  0  0  0  0  0  0  0  0  0  0  0
  -26.0310  -38.3330   23.9220 H   0  0  0  0  0  0  0  0  0  0  0  0
  -26.3840  -31.7430   25.1130 C   0  0  1  0  0  0  0  0  0  0  0  0
  -25.2770  -31.4960   26.1650 C   0  0  0  0  0  1  0  0  0  0  0  0
  -26.9760  -30.3710   24.7200 C   0  0  0  0  0  1  0  0  0  0  0  0
  -27.5210  -32.5380   25.7950 C   0  0  0  0  0  1  0  0  0  0  0  0
  1  5  1  0
  2  7  1  0
  2  4  2  0
  3  1  2  0
  3  2  1  0
  4 11  1  0
  4  6  1  0
  5 12  1  0
  5 11  2  0
  7 22  1  0
  7  8  1  0
  8 10  1  0
  8  6  1  0
  9  3  1  0
 12 13  1  0
 14 22  1  0
 15 20  1  0
 16 17  1  0
 16 15  1  0
 18 17  1  0
 18 27  1  0
 18 19  1  0
 20 14  1  0
 20 19  1  0
 21 14  2  0
 22 23  1  0
 24 25  2  0
 25 44  1  0
 26 25  1  0
 26 29  1  0
 27 28  1  0
 27 24  1  0
 28 26  2  0
 29 30  1  0
 30 31  2  0
 32 35  1  0
 32 31  1  0
 33 32  2  0
 34 33  1  0
 34 29  2  0
 35 36  1  0
 36 37  1  0
 37 38  2  0
 39 38  1  0
 39 43  1  0
 40 39  2  0
 41 36  2  0
 41 40  1  0
 42 41  1  0
 44 45  1  0
 45 48  1  0
 45 47  1  0
 46 44  2  0
 49 50  1  0
 49 24  1  0
 51 49  1  0
 52 53  1  0
 52 12  1  0
 54 56  1  0
 54 53  1  0
 55 66  2  0
 56 61  1  0
 57 65  1  0
 57 67  1  0
 58 64  1  0
 58 60  1  0
 59 65  1  0
 60 59  1  0
 61 60  2  0
 62 56  2  0
 63 62  1  0
 63 58  2  0
 64 57  1  0
 65 55  1  0
 67 69  2  0
 68 67  1  0
 70 68  1  0
 71 80  2  0
 71 76  1  0
 72 68  1  0
 72 76  1  0
 73 72  1  0
 74 75  1  0
 74 73  1  0
 75 71  1  0
 76 77  2  0
 77 78  1  0
 79 78  2  0
 80 79  1  0
 81 55  1  0
 81 82  1  0
 81 91  1  0
 82 85  1  0
 83 87  1  0
 83 82  1  0
 84 83  2  0
 87 86  1  0
 89 87  1  0
 89 90  1  0
 89 88  1  0
 91 94  1  1
 91 92  1  0
 93 91  1  0
M  ISO  4  14 100  22 100  53 101  54 101
M  END
>  <TORSDO>  (37) 
F 18

>  <SCORE>  (37) 
-10.715

>  <name>  (37) 
36

>  <ligand_id>  (37) 
36

>  <original_smiles>  (37) 
[H]c1c([H])c([H])c2c(c1[H])C([H])([H])C([H])([H])C([H])([H])C2([H])N([H])C(=O)C1([H])N(C(=O)C([H])(N([H])C(=O)C([H])(N([H])C([H])([H])[H])C([H])([H])[H])C(C([H])([H])[H])(C([H])([H])[H])C([H])([H])[H])C([H])([H])c2c([H])c(OC([H])([H])C([H])([H])N([H])c3nc4c(c(C([H])([H])[H])c3[H])C([H])(N([H])C(=O)N3C([H])([H])C([H])([H])C([H])([H])C([H])(n5nc(-c6c([H])c([H])c(Oc7c([H])c([H])c(F)c([H])c7F)c([H])c6[H])c(C(=O)N([H])[H])c5N([H])[H])C3([H])[H])C([H])(C([H])([H])[H])C4([H])[H])c([H])c([H])c2C1([H])[H]

>  <smiles>  (37) 
[H]c1c([H])c([H])c2c(c1[H])C([H])([H])C([H])([H])C([H])([H])C2([H])N([H])C(=O)C1([H])N(C(=O)C([H])(N([H])C(=O)C([H])(N([H])C([H])([H])[H])C([H])([H])[H])C(C([H])([H])[H])(C([H])([H])[H])C([H])([H])[H])C([H])([H])c2c([H])c(OC([H])([H])C([H])([H])N([H])c3nc4c(c(C([H])([H])[H])c3[H])C([H])(N([H])C(=O)N3C([H])([H])C([H])([H])C([H])([H])C([H])(n5nc(-c6c([H])c([H])c(Oc7c([H])c([H])c(F)c([H])c7F)c([H])c6[H])c(C(=O)N([H])[H])c5N([H])[H])C3([H])[H])C([H])(C([H])([H])[H])C4([H])[H])c([H])c([H])c2C1([H])[H]

$$$$
37:0:0
     RDKit          3D

 92100  0  0  1  0  0  0  0  0999 V2000
  -29.3250  -20.0700   19.3580 C   0  0  0  0  0  2  0  0  0  0  0  0
  -26.0940  -17.0440   20.0180 C   0  0  0  0  0  3  0  0  0  0  0  0
  -25.8800  -18.2930   19.4440 C   0  0  0  0  0  3  0  0  0  0  0  0
  -27.3800  -16.5040   19.9860 C   0  0  0  0  0  3  0  0  0  0  0  0
  -26.9620  -19.0990   19.0520 C   0  0  0  0  0  0  0  0  0  0  0  0
  -28.3280  -18.7180   19.2840 C   0  0  0  0  0  0  0  0  0  0  0  0
  -28.4960  -17.1910   19.4510 C   0  0  0  0  0  0  0  0  0  0  0  0
  -26.5540  -20.3650   18.3040 C   0  0  0  0  0  1  0  0  0  0  0  0
  -30.2660  -15.0440   19.7010 C   0  0  0  0  0  0  0  0  0  0  0  0
  -30.4390  -12.5080   19.6900 C   0  0  0  0  0  2  0  0  0  0  0  0
  -29.6500  -11.8480   18.5350 C   0  0  0  0  0  2  0  0  0  0  0  0
  -28.1930  -11.5910   18.9610 C   0  0  0  0  0  2  0  0  0  0  0  0
  -27.5690  -12.8140   19.6810 C   0  0  0  0  0  3  0  0  0  0  0  0
  -28.5020  -13.4140   20.7460 C   0  0  0  0  0  2  0  0  0  0  0  0
  -29.7420  -13.7880   20.0510 N   0  0  0  0  0  0  0  0  0  0  0  0
  -31.4960  -15.0760   19.5970 O   0  0  0  0  0  0  0  0  0  0  0  0
  -29.5660  -16.1560   19.0880 N   0  0  0  0  0  0  0  0  0  0  0  0
  -30.1740  -16.5290   18.3750 H   0  0  0  0  0  0  0  0  0  0  0  0
  -25.2350  -13.4210   20.5180 C   0  0  0  0  0  0  0  0  0  0  0  0
  -24.1580  -12.6610   20.8780 C   0  0  0  0  0  0  0  0  0  0  0  0
  -24.5830  -11.3000   20.7850 C   0  0  0  0  0  0  0  0  0  0  0  0
  -26.2440  -12.5260   20.2120 N   0  0  0  0  0  0  0  0  0  0  0  0
  -25.8650  -11.2410   20.4430 N   0  0  0  0  0  0  0  0  0  0  0  0
  -23.8240  -10.0520   20.9450 C   0  0  0  0  0  0  0  0  0  0  0  0
  -24.2090   -9.0670   21.8810 C   0  0  0  0  0  3  0  0  0  0  0  0
  -23.4510   -7.8850   22.0290 C   0  0  0  0  0  3  0  0  0  0  0  0
  -22.2940   -7.6810   21.2400 C   0  0  0  0  0  0  0  0  0  0  0  0
  -21.9280   -8.6550   20.2950 C   0  0  0  0  0  3  0  0  0  0  0  0
  -22.6860   -9.8280   20.1450 C   0  0  0  0  0  3  0  0  0  0  0  0
  -21.5110   -6.5530   21.2970 O   0  0  0  0  0  0  0  0  0  0  0  0
  -21.2370   -5.9270   22.4870 C   0  0  0  0  0  0  0  0  0  0  0  0
  -20.6670   -6.6170   23.5780 C   0  0  0  0  0  3  0  0  0  0  0  0
  -20.3350   -5.9200   24.7570 C   0  0  0  0  0  3  0  0  0  0  0  0
  -20.5640   -4.5340   24.8450 C   0  0  0  0  0  0  0  0  0  0  0  0
  -21.1250   -3.8430   23.7570 C   0  0  0  0  0  3  0  0  0  0  0  0
  -21.4590   -4.5370   22.5810 C   0  0  0  0  0  0  0  0  0  0  0  0
  -21.9800   -3.8620   21.5270 F   0  0  0  0  0  0  0  0  0  0  0  0
  -20.2400   -3.8620   25.9740 F   0  0  0  0  0  0  0  0  0  0  0  0
  -22.7820  -13.1670   21.1970 C   0  0  0  0  0  0  0  0  0  0  0  0
  -22.0670  -12.4790   22.0780 N   0  0  0  0  0  0  0  0  0  0  0  0
  -22.3530  -14.2090   20.7000 O   0  0  0  0  0  0  0  0  0  0  0  0
  -22.4250  -11.6360   22.5000 H   0  0  0  0  0  0  0  0  0  0  0  0
  -21.1430  -12.8000   22.3340 H   0  0  0  0  0  0  0  0  0  0  0  0
  -25.4380  -14.7940   20.4000 N   0  0  0  0  0  0  0  0  0  0  0  0
  -24.7140  -15.4660   20.6270 H   0  0  0  0  0  0  0  0  0  0  0  0
  -26.3280  -15.2270   20.1920 H   0  0  0  0  0  0  0  0  0  0  0  0
  -28.8290  -21.4820   19.9820 N   0  0  0  0  0  4  0  0  0  0  0  0
  -28.9800  -21.3920   20.9740 H   0  0  0  0  0  0  0  0  0  0  0  0
  -27.8310  -21.4570   19.8560 H   0  0  0  0  0  0  0  0  0  0  0  0
  -29.2680  -22.9880   19.6030 C   0  0  0  0  0  3  0  0  0  0  0  0
  -28.3830  -24.4010   20.0400 C   0  0  0  0  0  3  0  0  0  0  0  0
  -28.5950  -25.9330   19.6700 O   0  0  0  0  0  0  0  0  0  0  0  0
  -24.9580  -31.4280   23.1120 C   0  0  0  0  0  0  0  0  0  0  0  0
  -27.5370  -26.9280   19.7300 C   0  0  0  0  0  0  0  0  0  0  0  0
  -23.7470  -30.1150   21.4150 C   0  0  0  0  0  3  0  0  0  0  0  0
  -25.1900  -28.6620   19.8600 C   0  0  0  0  0  0  0  0  0  0  0  0
  -26.2940  -30.4330   21.2110 C   0  0  0  0  0  2  0  0  0  0  0  0
  -26.3800  -29.0820   20.4700 C   0  0  0  0  0  0  0  0  0  0  0  0
  -27.5560  -28.2360   20.3830 C   0  0  0  0  0  3  0  0  0  0  0  0
  -26.3220  -26.6340   19.0740 C   0  0  0  0  0  3  0  0  0  0  0  0
  -25.1770  -27.4580   19.1440 C   0  0  0  0  0  3  0  0  0  0  0  0
  -23.9490  -29.5350   19.9910 C   0  0  0  0  0  2  0  0  0  0  0  0
  -25.0210  -30.6790   21.9690 N   0  0  0  0  0  0  0  0  0  0  0  0
  -23.8780  -31.6550   23.6820 O   0  0  0  0  0  0  0  0  0  0  0  0
  -23.1110  -29.0350   22.3260 C   0  0  0  0  0  0  0  0  0  0  0  0
  -21.8030  -28.7720   22.1490 N   0  0  0  0  0  0  0  0  0  0  0  0
  -23.7970  -28.4350   23.1580 O   0  0  0  0  0  0  0  0  0  0  0  0
  -21.3000  -29.3110   21.4590 H   0  0  0  0  0  0  0  0  0  0  0  0
  -18.5120  -27.2930   22.4850 C   0  0  0  0  0  0  0  0  0  0  0  0
  -21.0290  -27.7560   22.8670 C   0  0  0  0  0  3  0  0  0  0  0  0
  -21.2690  -26.3490   22.2720 C   0  0  0  0  0  2  0  0  0  0  0  0
  -20.2410  -25.9600   21.2050 C   0  0  0  0  0  2  0  0  0  0  0  0
  -18.8270  -25.9780   21.7910 C   0  0  0  0  0  2  0  0  0  0  0  0
  -19.5460  -28.1350   22.9770 C   0  0  0  0  0  0  0  0  0  0  0  0
  -19.1980  -29.3600   23.5860 C   0  0  0  0  0  3  0  0  0  0  0  0
  -17.8510  -29.7480   23.7070 C   0  0  0  0  0  3  0  0  0  0  0  0
  -16.8310  -28.9050   23.2310 C   0  0  0  0  0  3  0  0  0  0  0  0
  -17.1620  -27.6790   22.6270 C   0  0  0  0  0  3  0  0  0  0  0  0
  -26.2360  -32.0530   23.7500 C   0  0  0  0  0  3  0  0  0  0  0  0
  -26.7740  -31.2350   24.9880 C   0  0  1  0  0  0  0  0  0  0  0  0
  -25.6950  -30.9400   26.0560 C   0  0  0  0  0  1  0  0  0  0  0  0
  -27.3680  -29.8790   24.5380 C   0  0  0  0  0  1  0  0  0  0  0  0
  -27.9220  -32.0130   25.6720 C   0  0  0  0  0  1  0  0  0  0  0  0
  -25.9100  -33.4310   24.1520 N   0  0  0  0  0  0  0  0  0  0  0  0
  -26.1940  -34.5260   23.4330 C   0  0  0  0  0  0  0  0  0  0  0  0
  -26.8240  -34.4820   22.3740 O   0  0  0  0  0  0  0  0  0  0  0  0
  -25.3450  -33.5370   24.9820 H   0  0  0  0  0  0  0  0  0  0  0  0
  -24.4160  -36.2990   23.2440 C   0  0  0  0  0  1  0  0  0  0  0  0
  -25.7030  -35.8840   23.9750 C   0  0  0  0  0  3  0  0  0  0  0  0
  -27.8570  -36.7830   24.7420 C   0  0  0  0  0  1  0  0  0  0  0  0
  -26.7080  -36.9640   23.8580 N   0  0  0  0  0  0  0  0  0  0  0  0
  -26.2910  -37.8690   24.0610 H   0  0  0  0  0  0  0  0  0  0  0  0
  1 47  1  0
  3  2  2  0
  4  2  1  0
  5  6  2  0
  5  3  1  0
  6  1  1  0
  6  7  1  0
  7  4  2  0
  8  5  1  0
  9 15  1  0
 10 15  1  0
 11 12  1  0
 11 10  1  0
 13 12  1  0
 13 22  1  0
 13 14  1  0
 15 14  1  0
 16  9  2  0
 17  7  1  0
 17  9  1  0
 18 17  1  0
 19 20  2  0
 20 39  1  0
 21 20  1  0
 21 24  1  0
 22 23  1  0
 22 19  1  0
 23 21  2  0
 24 25  1  0
 25 26  2  0
 27 30  1  0
 27 26  1  0
 28 27  2  0
 29 28  1  0
 29 24  2  0
 30 31  1  0
 31 36  2  0
 31 32  1  0
 32 33  2  0
 33 34  1  0
 34 38  1  0
 35 34  2  0
 36 35  1  0
 37 36  1  0
 39 40  1  0
 40 43  1  0
 40 42  1  0
 41 39  2  0
 44 19  1  0
 44 45  1  0
 46 44  1  0
 47 48  1  0
 49 47  1  0
 50 47  1  0
 50 51  2  0
 52 54  1  0
 52 51  1  0
 53 64  2  0
 54 59  1  0
 55 63  1  0
 55 65  1  0
 56 62  1  0
 56 58  1  0
 57 63  1  0
 58 57  1  0
 59 58  2  0
 60 61  1  0
 60 54  2  0
 61 56  2  0
 62 55  1  0
 63 53  1  0
 65 67  2  0
 66 65  1  0
 68 66  1  0
 69 78  2  0
 69 74  1  0
 70 66  1  0
 70 74  1  0
 71 70  1  0
 72 73  1  0
 72 71  1  0
 73 69  1  0
 74 75  2  0
 75 76  1  0
 77 76  2  0
 78 77  1  0
 79 53  1  0
 79 84  1  0
 79 80  1  0
 80 83  1  1
 80 81  1  0
 82 80  1  0
 84 87  1  0
 85 89  1  0
 85 84  1  0
 86 85  2  0
 89 88  1  0
 91 89  1  0
 91 92  1  0
 91 90  1  0
M  ISO  4   9 100  17 100  51 101  52 101
M  END
>  <TORSDO>  (38) 
F 20

>  <SCORE>  (38) 
-12.153

>  <name>  (38) 
37

>  <ligand_id>  (38) 
37

>  <original_smiles>  (38) 
[H]c1c([H])c(N([H])C(=O)N2C([H])([H])C([H])([H])C([H])([H])C([H])(n3nc(-c4c([H])c([H])c(Oc5c([H])c([H])c(F)c([H])c5F)c([H])c4[H])c(C(=O)N([H])[H])c3N([H])[H])C2([H])[H])c(C([H])([H])[N+]([H])([H])C([H])([H])C([H])([H])Oc2c([H])c([H])c3c(c2[H])C([H])([H])N(C(=O)C([H])(N([H])C(=O)C([H])(N([H])C([H])([H])[H])C([H])([H])[H])C(C([H])([H])[H])(C([H])([H])[H])C([H])([H])[H])C([H])(C(=O)N([H])C2([H])c4c([H])c([H])c([H])c([H])c4C([H])([H])C([H])([H])C2([H])[H])C3([H])[H])c(C([H])([H])[H])c1[H]

>  <smiles>  (38) 
[H]c1c([H])c(N([H])C(=O)N2C([H])([H])C([H])([H])C([H])([H])C([H])(n3nc(-c4c([H])c([H])c(Oc5c([H])c([H])c(F)c([H])c5F)c([H])c4[H])c(C(=O)N([H])[H])c3N([H])[H])C2([H])[H])c(C([H])([H])[N+]([H])([H])C([H])([H])C([H])([H])Oc2c([H])c([H])c3c(c2[H])C([H])([H])N(C(=O)C([H])(N([H])C(=O)C([H])(N([H])C([H])([H])[H])C([H])([H])[H])C(C([H])([H])[H])(C([H])([H])[H])C([H])([H])[H])C([H])(C(=O)N([H])C2([H])c4c([H])c([H])c([H])c([H])c4C([H])([H])C([H])([H])C2([H])[H])C3([H])[H])c(C([H])([H])[H])c1[H]

$$$$
38:0:0
     RDKit          3D

 99109  0  0  1  0  0  0  0  0999 V2000
  -27.8180  -22.4200   20.0050 C   0  0  0  0  0  3  0  0  0  0  0  0
  -27.4930  -23.8400   20.0210 C   0  0  0  0  0  3  0  0  0  0  0  0
  -29.7490  -24.3310   20.4560 C   0  0  0  0  0  3  0  0  0  0  0  0
  -29.1390  -21.8730   20.1790 C   0  0  0  0  0  0  0  0  0  0  0  0
  -30.0900  -22.9230   20.4570 C   0  0  0  0  0  0  0  0  0  0  0  0
  -28.4590  -24.8910   20.2030 C   0  0  0  0  0  0  0  0  0  0  0  0
  -29.9870  -18.7530   17.7780 C   0  0  0  0  0  2  0  0  0  0  0  0
  -29.6100  -17.4720   18.5360 C   0  0  0  0  0  2  0  0  0  0  0  0
  -29.3270  -18.9140   20.6210 C   0  0  0  0  0  2  0  0  0  0  0  0
  -29.5810  -20.3260   19.7800 C   0  0  0  0  0  3  0  0  0  0  0  0
  -29.2570  -20.0240   18.2840 C   0  0  0  0  0  3  0  0  0  0  0  0
  -30.0090  -17.5170   20.0220 C   0  0  0  0  0  3  0  0  0  0  0  0
  -30.5650  -14.9080   20.4170 C   0  0  0  0  0  0  0  0  0  0  0  0
  -30.4370  -12.5780   19.4780 C   0  0  0  0  0  2  0  0  0  0  0  0
  -29.5350  -12.5870   18.2230 C   0  0  0  0  0  2  0  0  0  0  0  0
  -28.0570  -12.3990   18.6150 C   0  0  0  0  0  2  0  0  0  0  0  0
  -27.6390  -13.3130   19.7990 C   0  0  0  0  0  3  0  0  0  0  0  0
  -28.6660  -13.2830   20.9520 C   0  0  0  0  0  2  0  0  0  0  0  0
  -29.9650  -13.6600   20.3840 N   0  0  0  0  0  0  0  0  0  0  0  0
  -31.7550  -14.9900   20.0940 O   0  0  0  0  0  0  0  0  0  0  0  0
  -29.7830  -16.0720   20.5740 N   0  0  0  0  0  0  0  0  0  0  0  0
  -28.8430  -15.8860   20.8930 H   0  0  0  0  0  0  0  0  0  0  0  0
  -25.2390  -13.9020   20.4660 C   0  0  0  0  0  0  0  0  0  0  0  0
  -24.1660  -13.1300   20.8200 C   0  0  0  0  0  0  0  0  0  0  0  0
  -24.6320  -11.7790   20.8150 C   0  0  0  0  0  0  0  0  0  0  0  0
  -26.2880  -13.0210   20.2620 N   0  0  0  0  0  0  0  0  0  0  0  0
  -25.9310  -11.7400   20.5370 N   0  0  0  0  0  0  0  0  0  0  0  0
  -23.9030  -10.5180   21.0020 C   0  0  0  0  0  0  0  0  0  0  0  0
  -24.3060   -9.5650   21.9630 C   0  0  0  0  0  3  0  0  0  0  0  0
  -23.5760   -8.3700   22.1370 C   0  0  0  0  0  3  0  0  0  0  0  0
  -22.4270   -8.1180   21.3480 C   0  0  0  0  0  0  0  0  0  0  0  0
  -22.0430   -9.0600   20.3780 C   0  0  0  0  0  3  0  0  0  0  0  0
  -22.7740  -10.2470   20.2020 C   0  0  0  0  0  3  0  0  0  0  0  0
  -21.6710   -6.9740   21.4300 O   0  0  0  0  0  0  0  0  0  0  0  0
  -21.5840   -6.2510   22.5920 C   0  0  0  0  0  0  0  0  0  0  0  0
  -21.1090   -6.8230   23.7930 C   0  0  0  0  0  3  0  0  0  0  0  0
  -20.9700   -6.0270   24.9470 C   0  0  0  0  0  3  0  0  0  0  0  0
  -21.2930   -4.6570   24.8990 C   0  0  0  0  0  0  0  0  0  0  0  0
  -21.7600   -4.0840   23.7040 C   0  0  0  0  0  3  0  0  0  0  0  0
  -21.9010   -4.8790   22.5530 C   0  0  0  0  0  0  0  0  0  0  0  0
  -22.3310   -4.3170   21.3970 F   0  0  0  0  0  0  0  0  0  0  0  0
  -21.1520   -3.8880   26.0050 F   0  0  0  0  0  0  0  0  0  0  0  0
  -22.7630  -13.6090   21.0510 C   0  0  0  0  0  0  0  0  0  0  0  0
  -22.0120  -12.9190   21.9020 N   0  0  0  0  0  0  0  0  0  0  0  0
  -22.3400  -14.6310   20.5120 O   0  0  0  0  0  0  0  0  0  0  0  0
  -22.3680  -12.0930   22.3600 H   0  0  0  0  0  0  0  0  0  0  0  0
  -21.0690  -13.2220   22.0990 H   0  0  0  0  0  0  0  0  0  0  0  0
  -25.4050  -15.2700   20.2760 N   0  0  0  0  0  0  0  0  0  0  0  0
  -24.6330  -15.9220   20.3570 H   0  0  0  0  0  0  0  0  0  0  0  0
  -26.2530  -15.7020   19.9320 H   0  0  0  0  0  0  0  0  0  0  0  0
  -29.6230  -21.1840   17.3380 C   0  0  0  0  0  0  0  0  0  0  0  0
  -28.4910  -21.8410   16.5610 C   0  0  0  0  0  1  0  0  0  0  0  0
  -30.7900  -21.5530   17.1840 O   0  0  0  0  0  0  0  0  0  0  0  0
  -28.3340  -26.3470   20.1040 O   0  0  0  0  0  0  0  0  0  0  0  0
  -24.5710  -31.8470   23.1570 C   0  0  0  0  0  0  0  0  0  0  0  0
  -27.1950  -27.2110   20.1000 C   0  0  0  0  0  0  0  0  0  0  0  0
  -23.3820  -30.4540   21.5030 C   0  0  0  0  0  3  0  0  0  0  0  0
  -24.8420  -28.9000   20.0710 C   0  0  0  0  0  0  0  0  0  0  0  0
  -25.9280  -30.7480   21.3450 C   0  0  0  0  0  2  0  0  0  0  0  0
  -26.0090  -29.3620   20.6930 C   0  0  0  0  0  0  0  0  0  0  0  0
  -27.1800  -28.5280   20.6980 C   0  0  0  0  0  3  0  0  0  0  0  0
  -26.0150  -26.8460   19.4210 C   0  0  0  0  0  3  0  0  0  0  0  0
  -24.8530  -27.6530   19.4240 C   0  0  0  0  0  3  0  0  0  0  0  0
  -23.6080  -29.7840   20.1200 C   0  0  0  0  0  2  0  0  0  0  0  0
  -24.6460  -31.0380   22.0570 N   0  0  0  0  0  0  0  0  0  0  0  0
  -23.4830  -32.1190   23.6870 O   0  0  0  0  0  0  0  0  0  0  0  0
  -22.7140  -29.4330   22.4560 C   0  0  0  0  0  0  0  0  0  0  0  0
  -21.3820  -29.2750   22.3460 N   0  0  0  0  0  0  0  0  0  0  0  0
  -23.3930  -28.7870   23.2580 O   0  0  0  0  0  0  0  0  0  0  0  0
  -20.8920  -29.8470   21.6730 H   0  0  0  0  0  0  0  0  0  0  0  0
  -17.9980  -28.1090   22.8850 C   0  0  0  0  0  0  0  0  0  0  0  0
  -20.5650  -28.3320   23.1110 C   0  0  0  0  0  3  0  0  0  0  0  0
  -20.6370  -26.9120   22.5020 C   0  0  0  0  0  2  0  0  0  0  0  0
  -19.5130  -26.6260   21.5020 C   0  0  0  0  0  2  0  0  0  0  0  0
  -18.1440  -26.7740   22.1740 C   0  0  0  0  0  2  0  0  0  0  0  0
  -19.1340  -28.8480   23.3100 C   0  0  0  0  0  0  0  0  0  0  0  0
  -18.9420  -30.0980   23.9360 C   0  0  0  0  0  3  0  0  0  0  0  0
  -17.6470  -30.6110   24.1400 C   0  0  0  0  0  3  0  0  0  0  0  0
  -16.5260  -29.8690   23.7300 C   0  0  0  0  0  3  0  0  0  0  0  0
  -16.7020  -28.6200   23.1080 C   0  0  0  0  0  3  0  0  0  0  0  0
  -25.8460  -32.4840   23.7890 C   0  0  0  0  0  3  0  0  0  0  0  0
  -25.5230  -33.8740   24.1440 N   0  0  0  0  0  0  0  0  0  0  0  0
  -25.8560  -34.9460   23.4120 C   0  0  0  0  0  0  0  0  0  0  0  0
  -26.5360  -34.8690   22.3860 O   0  0  0  0  0  0  0  0  0  0  0  0
  -24.9200  -34.0080   24.9420 H   0  0  0  0  0  0  0  0  0  0  0  0
  -24.1310  -36.7470   23.0700 C   0  0  0  0  0  1  0  0  0  0  0  0
  -25.3570  -36.3230   23.8950 C   0  0  0  0  0  3  0  0  0  0  0  0
  -27.4700  -37.1930   24.7950 C   0  0  0  0  0  1  0  0  0  0  0  0
  -26.3890  -37.3800   23.8300 N   0  0  0  0  0  0  0  0  0  0  0  0
  -25.9780  -38.2960   23.9880 H   0  0  0  0  0  0  0  0  0  0  0  0
  -26.3670  -31.7010   25.0570 C   0  0  1  0  0  0  0  0  0  0  0  0
  -25.2760  -31.4420   26.1210 C   0  0  0  0  0  1  0  0  0  0  0  0
  -26.9640  -30.3320   24.6530 C   0  0  0  0  0  1  0  0  0  0  0  0
  -27.5140  -32.4960   25.7290 C   0  0  0  0  0  1  0  0  0  0  0  0
  -31.5550  -22.5840   20.7200 C   0  0  0  0  0  2  0  0  0  0  0  0
  -31.7380  -21.7040   21.9670 C   0  0  0  0  0  2  0  0  0  0  0  0
  -33.3880  -19.8950   22.9180 C   0  0  0  0  0  2  0  0  0  0  0  0
  -33.4880  -19.8150   21.4120 C   0  0  0  0  0  2  0  0  0  0  0  0
  -33.1330  -21.1240   22.0780 C   0  0  0  0  0  3  0  0  0  0  0  0
  1  2  2  0
  1  4  1  0
  2  6  1  0
  3  5  1  0
  4  5  2  0
  5 95  1  0
  6  3  2  0
  7 11  1  0
  7  8  1  0
  8 12  1  0
 10  4  1  0
 10  9  1  0
 11 51  1  0
 11 10  1  0
 12 21  1  0
 12  9  1  0
 13 21  1  0
 14 19  1  0
 15 16  1  0
 15 14  1  0
 17 16  1  0
 17 26  1  0
 17 18  1  0
 19 13  1  0
 19 18  1  0
 20 13  2  0
 21 22  1  0
 23 24  2  0
 24 43  1  0
 25 24  1  0
 25 28  1  0
 26 23  1  0
 26 27  1  0
 27 25  2  0
 28 29  1  0
 29 30  2  0
 31 34  1  0
 31 30  1  0
 32 31  2  0
 33 32  1  0
 33 28  2  0
 34 35  1  0
 35 36  1  0
 36 37  2  0
 38 37  1  0
 38 42  1  0
 39 38  2  0
 40 35  2  0
 40 39  1  0
 41 40  1  0
 43 44  1  0
 44 47  1  0
 44 46  1  0
 45 43  2  0
 48 49  1  0
 48 23  1  0
 50 48  1  0
 52 51  1  0
 53 51  2  0
 54  6  1  0
 55 66  2  0
 56 54  1  0
 56 61  1  0
 57 65  1  0
 57 67  1  0
 58 64  1  0
 58 60  1  0
 59 65  1  0
 60 61  2  0
 60 59  1  0
 62 63  1  0
 62 56  2  0
 63 58  2  0
 64 57  1  0
 65 55  1  0
 67 69  2  0
 68 67  1  0
 70 68  1  0
 71 80  2  0
 71 76  1  0
 72 68  1  0
 72 76  1  0
 73 72  1  0
 74 75  1  0
 74 73  1  0
 75 71  1  0
 76 77  2  0
 77 78  1  0
 79 78  2  0
 80 79  1  0
 81 55  1  0
 81 82  1  0
 81 91  1  0
 82 85  1  0
 83 87  1  0
 83 82  1  0
 84 83  2  0
 87 86  1  0
 89 87  1  0
 89 90  1  0
 89 88  1  0
 91 94  1  1
 91 92  1  0
 93 91  1  0
 95 96  1  0
 96 99  1  0
 98 99  1  0
 98 97  1  0
 99 97  1  0
M  ISO  4   6 101  13 100  21 100  54 101
M  END
>  <TORSDO>  (39) 
F 21

>  <SCORE>  (39) 
-12.925

>  <name>  (39) 
38

>  <ligand_id>  (39) 
38

>  <original_smiles>  (39) 
[H]c1c([H])c([H])c2c(c1[H])C([H])([H])C([H])([H])C([H])([H])C2([H])N([H])C(=O)C1([H])N(C(=O)C([H])(N([H])C(=O)C([H])(N([H])C([H])([H])[H])C([H])([H])[H])C(C([H])([H])[H])(C([H])([H])[H])C([H])([H])[H])C([H])([H])c2c([H])c(Oc3c([H])c([H])c(C4([H])C([H])([H])C([H])(N([H])C(=O)N5C([H])([H])C([H])([H])C([H])([H])C([H])(n6nc(-c7c([H])c([H])c(Oc8c([H])c([H])c(F)c([H])c8F)c([H])c7[H])c(C(=O)N([H])[H])c6N([H])[H])C5([H])[H])C([H])([H])C([H])([H])C4([H])C(=O)C([H])([H])[H])c(C([H])([H])C([H])([H])C4([H])C([H])([H])C4([H])[H])c3[H])c([H])c([H])c2C1([H])[H]

>  <smiles>  (39) 
[H]c1c([H])c([H])c2c(c1[H])C([H])([H])C([H])([H])C([H])([H])C2([H])N([H])C(=O)C1([H])N(C(=O)C([H])(N([H])C(=O)C([H])(N([H])C([H])([H])[H])C([H])([H])[H])C(C([H])([H])[H])(C([H])([H])[H])C([H])([H])[H])C([H])([H])c2c([H])c(Oc3c([H])c([H])c(C4([H])C([H])([H])C([H])(N([H])C(=O)N5C([H])([H])C([H])([H])C([H])([H])C([H])(n6nc(-c7c([H])c([H])c(Oc8c([H])c([H])c(F)c([H])c8F)c([H])c7[H])c(C(=O)N([H])[H])c6N([H])[H])C5([H])[H])C([H])([H])C([H])([H])C4([H])C(=O)C([H])([H])[H])c(C([H])([H])C([H])([H])C4([H])C([H])([H])C4([H])[H])c3[H])c([H])c([H])c2C1([H])[H]

$$$$
39:0:0
     RDKit          3D

 94103  0  0  1  0  0  0  0  0999 V2000
  -28.7350  -22.6510   20.7330 N   0  0  0  0  0  4  0  0  0  0  0  0
  -29.6300  -22.8860   21.1290 H   0  0  0  0  0  0  0  0  0  0  0  0
  -28.2460  -22.1580   21.4650 H   0  0  0  0  0  0  0  0  0  0  0  0
  -29.0090  -21.6130   19.6580 C   0  0  0  0  0  2  0  0  0  0  0  0
  -30.6260  -19.5200   19.8860 C   0  0  0  0  0  3  0  0  0  0  0  0
  -28.3260  -19.2040   20.4780 C   0  0  0  0  0  3  0  0  0  0  0  0
  -30.8770  -18.1150   20.0720 C   0  0  0  0  0  3  0  0  0  0  0  0
  -28.5730  -17.8140   20.6640 C   0  0  0  0  0  3  0  0  0  0  0  0
  -29.3380  -20.1110   20.0670 C   0  0  0  0  0  0  0  0  0  0  0  0
  -29.8430  -17.2140   20.4450 C   0  0  0  0  0  0  0  0  0  0  0  0
  -30.7500  -14.7690   20.1340 C   0  0  0  0  0  0  0  0  0  0  0  0
  -30.5380  -12.5520   19.0100 C   0  0  0  0  0  2  0  0  0  0  0  0
  -29.5470  -12.7030   17.8330 C   0  0  0  0  0  2  0  0  0  0  0  0
  -28.0890  -12.5340   18.3050 C   0  0  0  0  0  2  0  0  0  0  0  0
  -27.7770  -13.3550   19.5850 C   0  0  0  0  0  3  0  0  0  0  0  0
  -28.8720  -13.1570   20.6580 C   0  0  0  0  0  2  0  0  0  0  0  0
  -30.1620  -13.5320   20.0520 N   0  0  0  0  0  0  0  0  0  0  0  0
  -31.8810  -14.9770   19.6800 O   0  0  0  0  0  0  0  0  0  0  0  0
  -29.9460  -15.7620   20.6360 N   0  0  0  0  0  0  0  0  0  0  0  0
  -29.1240  -15.3580   21.0550 H   0  0  0  0  0  0  0  0  0  0  0  0
  -25.4020  -13.9350   20.3770 C   0  0  0  0  0  0  0  0  0  0  0  0
  -24.3500  -13.1520   20.7720 C   0  0  0  0  0  0  0  0  0  0  0  0
  -24.8180  -11.8040   20.7160 C   0  0  0  0  0  0  0  0  0  0  0  0
  -26.4440  -13.0620   20.1060 N   0  0  0  0  0  0  0  0  0  0  0  0
  -26.0990  -11.7760   20.3690 N   0  0  0  0  0  0  0  0  0  0  0  0
  -24.1040  -10.5370   20.9180 C   0  0  0  0  0  0  0  0  0  0  0  0
  -24.5350   -9.5920   21.8740 C   0  0  0  0  0  3  0  0  0  0  0  0
  -23.8230   -8.3870   22.0620 C   0  0  0  0  0  3  0  0  0  0  0  0
  -22.6650   -8.1200   21.2920 C   0  0  0  0  0  0  0  0  0  0  0  0
  -22.2550   -9.0530   20.3240 C   0  0  0  0  0  3  0  0  0  0  0  0
  -22.9670  -10.2490   20.1350 C   0  0  0  0  0  3  0  0  0  0  0  0
  -21.9270   -6.9650   21.3880 O   0  0  0  0  0  0  0  0  0  0  0  0
  -21.8270   -6.2700   22.5670 C   0  0  0  0  0  0  0  0  0  0  0  0
  -21.3050   -6.8600   23.7390 C   0  0  0  0  0  3  0  0  0  0  0  0
  -21.1560   -6.0900   24.9090 C   0  0  0  0  0  3  0  0  0  0  0  0
  -21.5160   -4.7290   24.9070 C   0  0  0  0  0  0  0  0  0  0  0  0
  -22.0270   -4.1360   23.7390 C   0  0  0  0  0  3  0  0  0  0  0  0
  -22.1780   -4.9050   22.5710 C   0  0  0  0  0  0  0  0  0  0  0  0
  -22.6530   -4.3240   21.4430 F   0  0  0  0  0  0  0  0  0  0  0  0
  -21.3630   -3.9860   26.0290 F   0  0  0  0  0  0  0  0  0  0  0  0
  -22.9570  -13.6190   21.0850 C   0  0  0  0  0  0  0  0  0  0  0  0
  -22.2570  -12.9110   21.9650 N   0  0  0  0  0  0  0  0  0  0  0  0
  -22.4980  -14.6470   20.5870 O   0  0  0  0  0  0  0  0  0  0  0  0
  -22.6450  -12.0830   22.3960 H   0  0  0  0  0  0  0  0  0  0  0  0
  -21.3200  -13.1990   22.2090 H   0  0  0  0  0  0  0  0  0  0  0  0
  -25.5550  -15.3070   20.2060 N   0  0  0  0  0  0  0  0  0  0  0  0
  -24.7850  -15.9540   20.3400 H   0  0  0  0  0  0  0  0  0  0  0  0
  -26.3730  -15.7460   19.8020 H   0  0  0  0  0  0  0  0  0  0  0  0
  -27.9500  -23.9640   20.5150 C   0  0  0  0  0  3  0  0  0  0  0  0
  -26.0360  -23.3780   18.7410 C   0  0  0  0  0  2  0  0  0  0  0  0
  -25.7410  -22.4840   19.9230 C   0  0  0  0  0  2  0  0  0  0  0  0
  -26.4690  -23.7950   20.1320 C   0  0  0  0  0  3  0  0  0  0  0  0
  -28.6270  -25.2010   19.7520 C   0  0  0  0  0  2  0  0  0  0  0  0
  -28.5070  -26.5950   20.2620 O   0  0  0  0  0  0  0  0  0  0  0  0
  -24.6390  -31.9000   23.2240 C   0  0  0  0  0  0  0  0  0  0  0  0
  -27.3540  -27.3900   20.1700 C   0  0  0  0  0  0  0  0  0  0  0  0
  -23.4760  -30.4950   21.5580 C   0  0  0  0  0  3  0  0  0  0  0  0
  -24.9650  -28.9700   20.1370 C   0  0  0  0  0  0  0  0  0  0  0  0
  -26.0130  -30.8470   21.4110 C   0  0  0  0  0  2  0  0  0  0  0  0
  -26.1160  -29.4720   20.7560 C   0  0  0  0  0  0  0  0  0  0  0  0
  -27.3080  -28.6890   20.7660 C   0  0  0  0  0  3  0  0  0  0  0  0
  -26.1860  -26.9490   19.5120 C   0  0  0  0  0  3  0  0  0  0  0  0
  -25.0030  -27.7150   19.5080 C   0  0  0  0  0  3  0  0  0  0  0  0
  -23.7140  -29.8260   20.1770 C   0  0  0  0  0  2  0  0  0  0  0  0
  -24.7270  -31.0990   22.1210 N   0  0  0  0  0  0  0  0  0  0  0  0
  -23.5440  -32.1610   23.7430 O   0  0  0  0  0  0  0  0  0  0  0  0
  -22.8160  -29.4630   22.5050 C   0  0  0  0  0  0  0  0  0  0  0  0
  -21.4910  -29.2860   22.3740 N   0  0  0  0  0  0  0  0  0  0  0  0
  -23.4960  -28.8260   23.3150 O   0  0  0  0  0  0  0  0  0  0  0  0
  -21.0060  -29.8500   21.6920 H   0  0  0  0  0  0  0  0  0  0  0  0
  -18.1060  -28.1190   22.8870 C   0  0  0  0  0  0  0  0  0  0  0  0
  -20.6700  -28.3380   23.1290 C   0  0  0  0  0  3  0  0  0  0  0  0
  -20.7470  -26.9230   22.5100 C   0  0  0  0  0  2  0  0  0  0  0  0
  -19.6260  -26.6430   21.5030 C   0  0  0  0  0  2  0  0  0  0  0  0
  -18.2550  -26.7880   22.1700 C   0  0  0  0  0  2  0  0  0  0  0  0
  -19.2410  -28.8540   23.3220 C   0  0  0  0  0  0  0  0  0  0  0  0
  -19.0470  -30.1030   23.9530 C   0  0  0  0  0  3  0  0  0  0  0  0
  -17.7510  -30.6150   24.1520 C   0  0  0  0  0  3  0  0  0  0  0  0
  -16.6310  -29.8760   23.7340 C   0  0  0  0  0  3  0  0  0  0  0  0
  -16.8090  -28.6290   23.1090 C   0  0  0  0  0  3  0  0  0  0  0  0
  -25.9050  -32.5460   23.8670 C   0  0  0  0  0  3  0  0  0  0  0  0
  -25.5800  -33.9450   24.1850 N   0  0  0  0  0  0  0  0  0  0  0  0
  -25.9170  -34.9970   23.4260 C   0  0  0  0  0  0  0  0  0  0  0  0
  -26.6050  -34.8940   22.4070 O   0  0  0  0  0  0  0  0  0  0  0  0
  -24.9810  -34.1000   24.9820 H   0  0  0  0  0  0  0  0  0  0  0  0
  -24.1820  -36.7750   23.0310 C   0  0  0  0  0  1  0  0  0  0  0  0
  -25.4100  -36.3840   23.8690 C   0  0  0  0  0  3  0  0  0  0  0  0
  -27.5190  -37.2930   24.7420 C   0  0  0  0  0  1  0  0  0  0  0  0
  -26.4380  -37.4450   23.7720 N   0  0  0  0  0  0  0  0  0  0  0  0
  -26.0210  -38.3630   23.9020 H   0  0  0  0  0  0  0  0  0  0  0  0
  -26.4000  -31.7890   25.1610 C   0  0  1  0  0  0  0  0  0  0  0  0
  -25.2860  -31.5520   26.2070 C   0  0  0  0  0  1  0  0  0  0  0  0
  -27.0050  -30.4150   24.7910 C   0  0  0  0  0  1  0  0  0  0  0  0
  -27.5240  -32.6010   25.8470 C   0  0  0  0  0  1  0  0  0  0  0  0
  1  2  1  0
  1  3  1  0
  4  9  1  0
  4  1  1  0
  5  9  2  0
  5  7  1  0
  6  8  2  0
  7 10  2  0
  9  6  1  0
 10 19  1  0
 10  8  1  0
 11 19  1  0
 12 17  1  0
 13 14  1  0
 13 12  1  0
 15 14  1  0
 15 24  1  0
 15 16  1  0
 17 11  1  0
 17 16  1  0
 18 11  2  0
 19 20  1  0
 21 22  2  0
 22 41  1  0
 23 22  1  0
 23 26  1  0
 24 25  1  0
 24 21  1  0
 25 23  2  0
 26 27  1  0
 27 28  2  0
 29 32  1  0
 29 28  1  0
 30 29  2  0
 31 30  1  0
 31 26  2  0
 32 33  1  0
 33 38  2  0
 33 34  1  0
 34 35  2  0
 36 35  1  0
 36 40  1  0
 37 36  2  0
 38 37  1  0
 39 38  1  0
 41 42  1  0
 42 45  1  0
 42 44  1  0
 43 41  2  0
 46 47  1  0
 46 21  1  0
 48 46  1  0
 49 53  1  0
 49  1  1  0
 50 51  1  0
 50 52  1  0
 51 52  1  0
 52 49  1  0
 53 54  1  0
 55 66  2  0
 56 54  1  0
 56 61  1  0
 57 65  1  0
 57 67  1  0
 58 64  1  0
 58 60  1  0
 59 65  1  0
 60 61  2  0
 60 59  1  0
 62 56  2  0
 63 62  1  0
 63 58  2  0
 64 57  1  0
 65 55  1  0
 67 69  2  0
 68 67  1  0
 70 68  1  0
 71 80  2  0
 71 76  1  0
 72 68  1  0
 72 76  1  0
 73 72  1  0
 74 75  1  0
 74 73  1  0
 75 71  1  0
 76 77  2  0
 77 78  1  0
 79 78  2  0
 80 79  1  0
 81 55  1  0
 81 82  1  0
 81 91  1  0
 82 85  1  0
 83 87  1  0
 83 82  1  0
 84 83  2  0
 87 86  1  0
 89 87  1  0
 89 90  1  0
 89 88  1  0
 91 94  1  1
 91 92  1  0
 93 91  1  0
M  ISO  4  11 100  19 100  53 101  54 101
M  END
>  <TORSDO>  (40) 
F 21

>  <SCORE>  (40) 
-13.236

>  <name>  (40) 
39

>  <ligand_id>  (40) 
39

>  <original_smiles>  (40) 
[H]c1c([H])c([H])c2c(c1[H])C([H])([H])C([H])([H])C([H])([H])C2([H])N([H])C(=O)C1([H])N(C(=O)C([H])(N([H])C(=O)C([H])(N([H])C([H])([H])[H])C([H])([H])[H])C(C([H])([H])[H])(C([H])([H])[H])C([H])([H])[H])C([H])([H])c2c([H])c(OC([H])([H])C([H])(C3([H])C([H])([H])C3([H])[H])[N+]([H])([H])C([H])([H])c3c([H])c([H])c(N([H])C(=O)N4C([H])([H])C([H])([H])C([H])([H])C([H])(n5nc(-c6c([H])c([H])c(Oc7c([H])c([H])c(F)c([H])c7F)c([H])c6[H])c(C(=O)N([H])[H])c5N([H])[H])C4([H])[H])c([H])c3[H])c([H])c([H])c2C1([H])[H]

>  <smiles>  (40) 
[H]c1c([H])c([H])c2c(c1[H])C([H])([H])C([H])([H])C([H])([H])C2([H])N([H])C(=O)C1([H])N(C(=O)C([H])(N([H])C(=O)C([H])(N([H])C([H])([H])[H])C([H])([H])[H])C(C([H])([H])[H])(C([H])([H])[H])C([H])([H])[H])C([H])([H])c2c([H])c(OC([H])([H])C([H])(C3([H])C([H])([H])C3([H])[H])[N+]([H])([H])C([H])([H])c3c([H])c([H])c(N([H])C(=O)N4C([H])([H])C([H])([H])C([H])([H])C([H])(n5nc(-c6c([H])c([H])c(Oc7c([H])c([H])c(F)c([H])c7F)c([H])c6[H])c(C(=O)N([H])[H])c5N([H])[H])C4([H])[H])c([H])c3[H])c([H])c([H])c2C1([H])[H]

$$$$
40:0:0
     RDKit          3D

 92101  0  0  1  0  0  0  0  0999 V2000
  -31.0310  -14.8790   19.7680 C   0  0  0  0  0  0  0  0  0  0  0  0
  -30.9230  -12.3970   19.3800 C   0  0  0  0  0  2  0  0  0  0  0  0
  -29.9750  -12.1020   18.1960 C   0  0  0  0  0  2  0  0  0  0  0  0
  -28.5100  -12.0140   18.6730 C   0  0  0  0  0  2  0  0  0  0  0  0
  -28.1100  -13.1900   19.6010 C   0  0  0  0  0  3  0  0  0  0  0  0
  -29.1730  -13.4290   20.6950 C   0  0  0  0  0  2  0  0  0  0  0  0
  -30.4540  -13.6510   20.0120 N   0  0  0  0  0  0  0  0  0  0  0  0
  -32.2340  -14.9490   19.4960 O   0  0  0  0  0  0  0  0  0  0  0  0
  -30.3040  -17.8470   20.9740 C   0  0  0  0  0  3  0  0  0  0  0  0
  -29.8850  -20.1400   20.2810 C   0  0  0  0  0  3  0  0  0  0  0  0
  -30.1130  -19.2030   21.3070 C   0  0  0  0  0  0  0  0  0  0  0  0
  -30.2360  -17.4020   19.6410 C   0  0  0  0  0  0  0  0  0  0  0  0
  -29.8320  -19.7190   18.9410 C   0  0  0  0  0  0  0  0  0  0  0  0
  -29.9950  -18.3610   18.6480 N   0  0  0  0  0  0  0  0  0  0  0  0
  -30.1570  -15.9300   19.5040 N   0  0  0  0  0  0  0  0  0  0  0  0
  -29.2060  -15.6050   19.4810 H   0  0  0  0  0  0  0  0  0  0  0  0
  -25.8690  -13.9950   20.5600 C   0  0  0  0  0  0  0  0  0  0  0  0
  -24.7340  -13.3240   20.9260 C   0  0  0  0  0  0  0  0  0  0  0  0
  -25.0140  -11.9370   20.7280 C   0  0  0  0  0  0  0  0  0  0  0  0
  -26.7730  -13.0230   20.1600 N   0  0  0  0  0  0  0  0  0  0  0  0
  -26.2690  -11.7740   20.3260 N   0  0  0  0  0  0  0  0  0  0  0  0
  -24.1410  -10.7620   20.8410 C   0  0  0  0  0  0  0  0  0  0  0  0
  -24.5100   -9.6450   21.6210 C   0  0  0  0  0  3  0  0  0  0  0  0
  -23.6480   -8.5320   21.7330 C   0  0  0  0  0  3  0  0  0  0  0  0
  -22.4020   -8.5300   21.0630 C   0  0  0  0  0  0  0  0  0  0  0  0
  -22.0490   -9.6360   20.2680 C   0  0  0  0  0  3  0  0  0  0  0  0
  -22.9090  -10.7410   20.1550 C   0  0  0  0  0  3  0  0  0  0  0  0
  -21.5130   -7.4820   21.0880 O   0  0  0  0  0  0  0  0  0  0  0  0
  -21.4980   -6.5800   22.1210 C   0  0  0  0  0  0  0  0  0  0  0  0
  -21.2610   -6.9770   23.4550 C   0  0  0  0  0  3  0  0  0  0  0  0
  -21.1870   -6.0070   24.4750 C   0  0  0  0  0  3  0  0  0  0  0  0
  -21.3350   -4.6420   24.1630 C   0  0  0  0  0  0  0  0  0  0  0  0
  -21.5640   -4.2450   22.8340 C   0  0  0  0  0  3  0  0  0  0  0  0
  -21.6420   -5.2110   21.8160 C   0  0  0  0  0  0  0  0  0  0  0  0
  -21.8420   -4.8220   20.5330 F   0  0  0  0  0  0  0  0  0  0  0  0
  -21.2550   -3.7100   25.1410 F   0  0  0  0  0  0  0  0  0  0  0  0
  -23.4270  -13.9370   21.3390 C   0  0  0  0  0  0  0  0  0  0  0  0
  -22.6750  -13.2560   22.1970 N   0  0  0  0  0  0  0  0  0  0  0  0
  -23.0880  -15.0500   20.9400 O   0  0  0  0  0  0  0  0  0  0  0  0
  -22.9620  -12.3520   22.5430 H   0  0  0  0  0  0  0  0  0  0  0  0
  -21.7950  -13.6430   22.5120 H   0  0  0  0  0  0  0  0  0  0  0  0
  -26.1970  -15.3490   20.5090 N   0  0  0  0  0  0  0  0  0  0  0  0
  -25.5280  -16.0680   20.7580 H   0  0  0  0  0  0  0  0  0  0  0  0
  -27.0530  -15.7290   20.1290 H   0  0  0  0  0  0  0  0  0  0  0  0
  -30.6920  -20.9250   23.2230 C   0  0  0  0  0  2  0  0  0  0  0  0
  -31.3440  -19.6050   23.5900 C   0  0  0  0  0  2  0  0  0  0  0  0
  -30.0910  -19.6210   22.7460 C   0  0  0  0  0  3  0  0  0  0  0  0
  -29.6700  -20.6600   17.8800 O   0  0  0  0  0  0  0  0  0  0  0  0
  -28.6700  -21.7860   17.8970 C   0  0  0  0  0  3  0  0  0  0  0  0
  -29.0410  -23.3130   17.4540 C   0  0  0  0  0  3  0  0  0  0  0  0
  -27.9140  -24.4820   17.5500 C   0  0  0  0  0  2  0  0  0  0  0  0
  -28.1830  -25.9750   17.6430 O   0  0  0  0  0  0  0  0  0  0  0  0
  -24.8460  -30.3300   22.4480 C   0  0  0  0  0  0  0  0  0  0  0  0
  -27.1040  -26.8430   17.9650 C   0  0  0  0  0  0  0  0  0  0  0  0
  -23.4830  -29.4320   20.6040 C   0  0  0  0  0  3  0  0  0  0  0  0
  -24.7750  -28.3910   18.6570 C   0  0  0  0  0  0  0  0  0  0  0  0
  -25.9970  -29.8430   20.2670 C   0  0  0  0  0  2  0  0  0  0  0  0
  -26.0070  -28.6990   19.2470 C   0  0  0  0  0  0  0  0  0  0  0  0
  -27.1750  -27.9410   18.8940 C   0  0  0  0  0  3  0  0  0  0  0  0
  -25.8410  -26.6240   17.3660 C   0  0  0  0  0  3  0  0  0  0  0  0
  -24.6960  -27.3650   17.7090 C   0  0  0  0  0  3  0  0  0  0  0  0
  -23.5620  -29.1990   19.0730 C   0  0  0  0  0  2  0  0  0  0  0  0
  -24.8010  -29.8690   21.1640 N   0  0  0  0  0  0  0  0  0  0  0  0
  -23.8210  -30.4030   23.1430 O   0  0  0  0  0  0  0  0  0  0  0  0
  -22.9190  -28.1600   21.2860 C   0  0  0  0  0  0  0  0  0  0  0  0
  -21.5890  -27.9700   21.2250 N   0  0  0  0  0  0  0  0  0  0  0  0
  -23.6760  -27.3600   21.8390 O   0  0  0  0  0  0  0  0  0  0  0  0
  -21.0300  -28.6790   20.7710 H   0  0  0  0  0  0  0  0  0  0  0  0
  -18.2960  -26.5080   21.5930 C   0  0  0  0  0  0  0  0  0  0  0  0
  -20.8570  -26.8220   21.7670 C   0  0  0  0  0  3  0  0  0  0  0  0
  -20.9680  -25.5960   20.8310 C   0  0  0  0  0  2  0  0  0  0  0  0
  -19.8080  -25.4900   19.8380 C   0  0  0  0  0  2  0  0  0  0  0  0
  -18.4710  -25.3940   20.5760 C   0  0  0  0  0  2  0  0  0  0  0  0
  -19.4160  -27.1870   22.1430 C   0  0  0  0  0  0  0  0  0  0  0  0
  -19.1970  -28.2350   23.0630 C   0  0  0  0  0  3  0  0  0  0  0  0
  -17.8900  -28.6090   23.4310 C   0  0  0  0  0  3  0  0  0  0  0  0
  -16.7850  -27.9260   22.8940 C   0  0  0  0  0  3  0  0  0  0  0  0
  -16.9900  -26.8760   21.9810 C   0  0  0  0  0  3  0  0  0  0  0  0
  -26.1790  -30.8070   23.0980 C   0  0  0  0  0  3  0  0  0  0  0  0
  -26.8140  -29.7280   24.0600 C   0  0  1  0  0  0  0  0  0  0  0  0
  -25.8320  -29.1970   25.1300 C   0  0  0  0  0  1  0  0  0  0  0  0
  -27.3400  -28.5190   23.2540 C   0  0  0  0  0  1  0  0  0  0  0  0
  -28.0320  -30.3360   24.7950 C   0  0  0  0  0  1  0  0  0  0  0  0
  -25.9020  -32.0500   23.8330 N   0  0  0  0  0  0  0  0  0  0  0  0
  -26.1880  -33.2790   23.3840 C   0  0  0  0  0  0  0  0  0  0  0  0
  -26.7760  -33.4820   22.3200 O   0  0  0  0  0  0  0  0  0  0  0  0
  -25.3780  -31.9590   24.6900 H   0  0  0  0  0  0  0  0  0  0  0  0
  -24.4560  -35.0800   23.6810 C   0  0  0  0  0  1  0  0  0  0  0  0
  -25.7460  -34.4720   24.2540 C   0  0  0  0  0  3  0  0  0  0  0  0
  -27.9410  -35.1060   25.1590 C   0  0  0  0  0  1  0  0  0  0  0  0
  -26.7790  -35.5240   24.3780 N   0  0  0  0  0  0  0  0  0  0  0  0
  -26.3930  -36.3610   24.8080 H   0  0  0  0  0  0  0  0  0  0  0  0
  1  7  1  0
  2  7  1  0
  3  4  1  0
  3  2  1  0
  5  4  1  0
  5 20  1  0
  5  6  1  0
  7  6  1  0
  8  1  2  0
  9 11  1  0
 10 11  2  0
 11 47  1  0
 12  9  2  0
 13 10  1  0
 14 13  2  0
 14 12  1  0
 15 12  1  0
 15  1  1  0
 16 15  1  0
 17 18  2  0
 18 37  1  0
 19 22  1  0
 19 18  1  0
 20 21  1  0
 20 17  1  0
 21 19  2  0
 22 23  1  0
 23 24  2  0
 25 28  1  0
 25 24  1  0
 26 25  2  0
 27 26  1  0
 27 22  2  0
 28 29  1  0
 29 30  1  0
 30 31  2  0
 32 31  1  0
 32 36  1  0
 33 32  2  0
 34 29  2  0
 34 33  1  0
 35 34  1  0
 37 38  1  0
 38 41  1  0
 38 40  1  0
 39 37  2  0
 42 17  1  0
 42 43  1  0
 44 42  1  0
 45 46  1  0
 47 45  1  0
 47 46  1  0
 48 49  1  0
 48 13  1  0
 50 51  1  0
 50 49  2  0
 51 52  1  0
 52 54  1  0
 53 64  2  0
 54 59  1  0
 55 63  1  0
 55 65  1  0
 56 62  1  0
 56 58  1  0
 57 63  1  0
 58 57  1  0
 59 58  2  0
 60 61  1  0
 60 54  2  0
 61 56  2  0
 62 55  1  0
 63 53  1  0
 65 67  2  0
 66 65  1  0
 68 66  1  0
 69 78  2  0
 69 74  1  0
 70 66  1  0
 70 74  1  0
 71 70  1  0
 72 73  1  0
 72 71  1  0
 73 69  1  0
 74 75  2  0
 75 76  1  0
 77 76  2  0
 78 77  1  0
 79 53  1  0
 79 84  1  0
 79 80  1  0
 80 83  1  1
 80 81  1  0
 82 80  1  0
 84 87  1  0
 85 84  1  0
 85 89  1  0
 86 85  2  0
 89 88  1  0
 89 91  1  0
 91 92  1  0
 91 90  1  0
M  ISO  4   1 100  15 100  51 101  52 101
M  END
>  <TORSDO>  (41) 
F 20

>  <SCORE>  (41) 
-8.936

>  <name>  (41) 
40

>  <ligand_id>  (41) 
40

>  <original_smiles>  (41) 
[H]c1c([H])c([H])c2c(c1[H])C([H])([H])C([H])([H])C([H])([H])C2([H])N([H])C(=O)C1([H])N(C(=O)C([H])(N([H])C(=O)C([H])(N([H])C([H])([H])[H])C([H])([H])[H])C(C([H])([H])[H])(C([H])([H])[H])C([H])([H])[H])C([H])([H])c2c([H])c(OC([H])([H])C([H])([H])C([H])([H])Oc3nc(N([H])C(=O)N4C([H])([H])C([H])([H])C([H])([H])C([H])(n5nc(-c6c([H])c([H])c(Oc7c([H])c([H])c(F)c([H])c7F)c([H])c6[H])c(C(=O)N([H])[H])c5N([H])[H])C4([H])[H])c([H])c(C4([H])C([H])([H])C4([H])[H])c3[H])c([H])c([H])c2C1([H])[H]

>  <smiles>  (41) 
[H]c1c([H])c([H])c2c(c1[H])C([H])([H])C([H])([H])C([H])([H])C2([H])N([H])C(=O)C1([H])N(C(=O)C([H])(N([H])C(=O)C([H])(N([H])C([H])([H])[H])C([H])([H])[H])C(C([H])([H])[H])(C([H])([H])[H])C([H])([H])[H])C([H])([H])c2c([H])c(OC([H])([H])C([H])([H])C([H])([H])Oc3nc(N([H])C(=O)N4C([H])([H])C([H])([H])C([H])([H])C([H])(n5nc(-c6c([H])c([H])c(Oc7c([H])c([H])c(F)c([H])c7F)c([H])c6[H])c(C(=O)N([H])[H])c5N([H])[H])C4([H])[H])c([H])c(C4([H])C([H])([H])C4([H])[H])c3[H])c([H])c([H])c2C1([H])[H]

$$$$
41:0:0
     RDKit          3D

101110  0  0  1  0  0  0  0  0999 V2000
  -27.2990  -23.6100   21.2060 C   0  0  0  0  0  2  0  0  0  0  0  0
  -28.1110  -23.1660   22.4470 C   0  0  0  0  0  2  0  0  0  0  0  0
  -30.3000  -23.0080   21.0910 C   0  0  0  0  0  2  0  0  0  0  0  0
  -28.1540  -23.8440   19.9340 C   0  0  0  0  0  3  0  0  0  0  0  0
  -29.3250  -22.7120   19.9110 C   0  0  0  0  0  3  0  0  0  0  0  0
  -29.6130  -23.5240   22.3910 C   0  0  0  0  0  3  0  0  0  0  0  0
  -30.3220  -23.0870   23.6110 N   0  0  0  0  0  4  0  0  0  0  0  0
  -30.3380  -22.0880   23.7030 H   0  0  0  0  0  0  0  0  0  0  0  0
  -29.8750  -23.4630   24.4270 H   0  0  0  0  0  0  0  0  0  0  0  0
  -31.2720  -23.4200   23.6090 H   0  0  0  0  0  0  0  0  0  0  0  0
  -29.7980  -20.1330   19.6190 C   0  0  0  0  0  0  0  0  0  0  0  0
  -28.9740  -21.2080   19.9420 N   0  0  0  0  0  0  0  0  0  0  0  0
  -30.8660  -20.3650   19.0440 O   0  0  0  0  0  0  0  0  0  0  0  0
  -28.0390  -20.9800   20.2560 H   0  0  0  0  0  0  0  0  0  0  0  0
  -31.6190  -17.6420   20.7500 C   0  0  0  0  0  2  0  0  0  0  0  0
  -30.7970  -17.9900   22.0000 C   0  0  0  0  0  2  0  0  0  0  0  0
  -29.5080  -18.6030   20.0590 C   0  0  0  0  0  3  0  0  0  0  0  0
  -30.5430  -17.4080   19.6790 C   0  0  0  0  0  3  0  0  0  0  0  0
  -29.5090  -18.5720   21.5350 N   0  0  0  0  0  4  0  0  0  0  0  0
  -29.3690  -19.5020   21.8910 H   0  0  0  0  0  0  0  0  0  0  0  0
  -28.7490  -17.9990   21.8550 H   0  0  0  0  0  0  0  0  0  0  0  0
  -30.8500  -14.7910   19.5440 C   0  0  0  0  0  0  0  0  0  0  0  0
  -30.6430  -12.3920   18.8560 C   0  0  0  0  0  2  0  0  0  0  0  0
  -29.6410  -12.2630   17.6880 C   0  0  0  0  0  2  0  0  0  0  0  0
  -28.2070  -12.1040   18.2230 C   0  0  0  0  0  2  0  0  0  0  0  0
  -27.8630  -13.1630   19.3070 C   0  0  0  0  0  3  0  0  0  0  0  0
  -28.9810  -13.2740   20.3680 C   0  0  0  0  0  2  0  0  0  0  0  0
  -30.2350  -13.5640   19.6650 N   0  0  0  0  0  0  0  0  0  0  0  0
  -31.9970  -14.8680   19.0970 O   0  0  0  0  0  0  0  0  0  0  0  0
  -30.1030  -15.9350   19.7640 N   0  0  0  0  0  0  0  0  0  0  0  0
  -29.1480  -15.7650   20.0300 H   0  0  0  0  0  0  0  0  0  0  0  0
  -25.5840  -13.8260   20.2840 C   0  0  0  0  0  0  0  0  0  0  0  0
  -24.5240  -13.0840   20.7310 C   0  0  0  0  0  0  0  0  0  0  0  0
  -24.9230  -11.7180   20.6140 C   0  0  0  0  0  0  0  0  0  0  0  0
  -26.5600  -12.9160   19.9170 N   0  0  0  0  0  0  0  0  0  0  0  0
  -26.1740  -11.6380   20.1770 N   0  0  0  0  0  0  0  0  0  0  0  0
  -24.1610  -10.4800   20.8290 C   0  0  0  0  0  0  0  0  0  0  0  0
  -24.5760   -9.5080   21.7650 C   0  0  0  0  0  3  0  0  0  0  0  0
  -23.8130   -8.3380   21.9710 C   0  0  0  0  0  3  0  0  0  0  0  0
  -22.6200   -8.1310   21.2390 C   0  0  0  0  0  0  0  0  0  0  0  0
  -22.2240   -9.0900   20.2900 C   0  0  0  0  0  3  0  0  0  0  0  0
  -22.9880  -10.2490   20.0830 C   0  0  0  0  0  3  0  0  0  0  0  0
  -21.8310   -7.0140   21.3520 O   0  0  0  0  0  0  0  0  0  0  0  0
  -21.7130   -6.3320   22.5380 C   0  0  0  0  0  0  0  0  0  0  0  0
  -21.2530   -6.9620   23.7140 C   0  0  0  0  0  3  0  0  0  0  0  0
  -21.0780   -6.2080   24.8930 C   0  0  0  0  0  3  0  0  0  0  0  0
  -21.3550   -4.8290   24.8950 C   0  0  0  0  0  0  0  0  0  0  0  0
  -21.8090   -4.2000   23.7230 C   0  0  0  0  0  3  0  0  0  0  0  0
  -21.9840   -4.9500   22.5460 C   0  0  0  0  0  0  0  0  0  0  0  0
  -22.4020   -4.3330   21.4140 F   0  0  0  0  0  0  0  0  0  0  0  0
  -21.1790   -4.1050   26.0260 F   0  0  0  0  0  0  0  0  0  0  0  0
  -23.1810  -13.6120   21.1450 C   0  0  0  0  0  0  0  0  0  0  0  0
  -22.5150  -12.9330   22.0720 N   0  0  0  0  0  0  0  0  0  0  0  0
  -22.7390  -14.6640   20.6860 O   0  0  0  0  0  0  0  0  0  0  0  0
  -22.8860  -12.0820   22.4670 H   0  0  0  0  0  0  0  0  0  0  0  0
  -21.6160  -13.2680   22.3880 H   0  0  0  0  0  0  0  0  0  0  0  0
  -25.7870  -15.1950   20.1350 N   0  0  0  0  0  0  0  0  0  0  0  0
  -25.0450  -15.8630   20.3160 H   0  0  0  0  0  0  0  0  0  0  0  0
  -26.5860  -15.6090   19.6720 H   0  0  0  0  0  0  0  0  0  0  0  0
  -28.6070  -25.4070   19.8770 C   0  0  0  0  0  2  0  0  0  0  0  0
  -28.0440  -26.4680   19.0080 O   0  0  0  0  0  0  0  0  0  0  0  0
  -24.6670  -31.5870   22.9440 C   0  0  0  0  0  0  0  0  0  0  0  0
  -26.9290  -27.2510   19.3320 C   0  0  0  0  0  0  0  0  0  0  0  0
  -23.3000  -30.3390   21.3060 C   0  0  0  0  0  3  0  0  0  0  0  0
  -24.5950  -28.8730   19.6570 C   0  0  0  0  0  0  0  0  0  0  0  0
  -25.8180  -30.6420   20.9250 C   0  0  0  0  0  2  0  0  0  0  0  0
  -25.8190  -29.3090   20.1820 C   0  0  0  0  0  0  0  0  0  0  0  0
  -26.9890  -28.5130   20.0090 C   0  0  0  0  0  3  0  0  0  0  0  0
  -25.6830  -26.8630   18.8040 C   0  0  0  0  0  3  0  0  0  0  0  0
  -24.5280  -27.6530   18.9630 C   0  0  0  0  0  3  0  0  0  0  0  0
  -23.3850  -29.7610   19.8660 C   0  0  0  0  0  2  0  0  0  0  0  0
  -24.6180  -30.8710   21.7800 N   0  0  0  0  0  0  0  0  0  0  0  0
  -23.6430  -31.8310   23.5970 O   0  0  0  0  0  0  0  0  0  0  0  0
  -22.7060  -29.2570   22.2410 C   0  0  0  0  0  0  0  0  0  0  0  0
  -21.3780  -29.0620   22.1790 N   0  0  0  0  0  0  0  0  0  0  0  0
  -23.4400  -28.5970   22.9820 O   0  0  0  0  0  0  0  0  0  0  0  0
  -20.8410  -29.6540   21.5600 H   0  0  0  0  0  0  0  0  0  0  0  0
  -18.0740  -27.6930   22.7010 C   0  0  0  0  0  0  0  0  0  0  0  0
  -20.6210  -28.0620   22.9320 C   0  0  0  0  0  3  0  0  0  0  0  0
  -20.7780  -26.6560   22.3090 C   0  0  0  0  0  2  0  0  0  0  0  0
  -19.6740  -26.3150   21.3030 C   0  0  0  0  0  2  0  0  0  0  0  0
  -18.2990  -26.3760   21.9760 C   0  0  0  0  0  2  0  0  0  0  0  0
  -19.1640  -28.4920   23.1360 C   0  0  0  0  0  0  0  0  0  0  0  0
  -18.9000  -29.7260   23.7710 C   0  0  0  0  0  3  0  0  0  0  0  0
  -17.5770  -30.1630   23.9710 C   0  0  0  0  0  3  0  0  0  0  0  0
  -16.5010  -29.3600   23.5550 C   0  0  0  0  0  3  0  0  0  0  0  0
  -16.7490  -28.1250   22.9290 C   0  0  0  0  0  3  0  0  0  0  0  0
  -26.0120  -32.1540   23.4980 C   0  0  0  0  0  3  0  0  0  0  0  0
  -26.6580  -31.2480   24.6170 C   0  0  1  0  0  0  0  0  0  0  0  0
  -25.6820  -30.8970   25.7640 C   0  0  0  0  0  1  0  0  0  0  0  0
  -27.1800  -29.9230   24.0180 C   0  0  0  0  0  1  0  0  0  0  0  0
  -27.8840  -31.9630   25.2300 C   0  0  0  0  0  1  0  0  0  0  0  0
  -25.7540  -33.5060   24.0100 N   0  0  0  0  0  0  0  0  0  0  0  0
  -26.0530  -34.6380   23.3590 C   0  0  0  0  0  0  0  0  0  0  0  0
  -26.6470  -34.6480   22.2760 O   0  0  0  0  0  0  0  0  0  0  0  0
  -25.2190  -33.5710   24.8650 H   0  0  0  0  0  0  0  0  0  0  0  0
  -24.3370  -36.4740   23.3400 C   0  0  0  0  0  1  0  0  0  0  0  0
  -25.6240  -35.9670   24.0100 C   0  0  0  0  0  3  0  0  0  0  0  0
  -27.8280  -36.7240   24.7880 C   0  0  0  0  0  1  0  0  0  0  0  0
  -26.6660  -37.0160   23.9520 N   0  0  0  0  0  0  0  0  0  0  0  0
  -26.2890  -37.9160   24.2330 H   0  0  0  0  0  0  0  0  0  0  0  0
  1  2  1  0
  3  6  1  0
  4 60  1  0
  4  1  1  0
  5  4  1  0
  5 12  1  0
  5  3  1  0
  6  2  1  0
  6  7  1  0
  7  8  1  0
  7  9  1  0
 10  7  1  0
 11 12  1  0
 12 14  1  0
 13 11  2  0
 15 16  1  0
 17 11  1  0
 17 19  1  0
 18 30  1  0
 18 17  1  0
 18 15  1  0
 19 21  1  0
 19 20  1  0
 19 16  1  0
 22 28  1  0
 22 30  1  0
 23 28  1  0
 24 25  1  0
 24 23  1  0
 26 25  1  0
 26 35  1  0
 26 27  1  0
 28 27  1  0
 29 22  2  0
 30 31  1  0
 32 33  2  0
 33 52  1  0
 34 33  1  0
 34 37  1  0
 35 36  1  0
 35 32  1  0
 36 34  2  0
 37 38  1  0
 38 39  2  0
 40 43  1  0
 40 39  1  0
 41 40  2  0
 42 41  1  0
 42 37  2  0
 43 44  1  0
 44 49  2  0
 44 45  1  0
 45 46  2  0
 46 47  1  0
 47 51  1  0
 48 47  2  0
 49 48  1  0
 50 49  1  0
 52 53  1  0
 53 56  1  0
 53 55  1  0
 54 52  2  0
 57 32  1  0
 57 58  1  0
 59 57  1  0
 61 63  1  0
 61 60  1  0
 62 73  2  0
 63 68  1  0
 64 72  1  0
 64 74  1  0
 65 71  1  0
 65 67  1  0
 66 72  1  0
 67 66  1  0
 68 67  2  0
 69 70  1  0
 69 63  2  0
 70 65  2  0
 71 64  1  0
 72 62  1  0
 74 76  2  0
 75 74  1  0
 77 75  1  0
 78 87  2  0
 78 83  1  0
 79 75  1  0
 79 83  1  0
 80 79  1  0
 81 82  1  0
 81 80  1  0
 82 78  1  0
 83 84  2  0
 84 85  1  0
 86 85  2  0
 87 86  1  0
 88 62  1  0
 88 93  1  0
 88 89  1  0
 89 92  1  1
 89 90  1  0
 91 89  1  0
 93 96  1  0
 94 93  1  0
 94 98  1  0
 95 94  2  0
 98 97  1  0
100 98  1  0
100101  1  0
100 99  1  0
M  ISO  4  22 100  30 100  60 101  61 101
M  END
>  <TORSDO>  (42) 
F 20

>  <SCORE>  (42) 
-13.008

>  <name>  (42) 
41

>  <ligand_id>  (42) 
41

>  <original_smiles>  (42) 
[H]c1c([H])c([H])c2c(c1[H])C([H])([H])C([H])([H])C([H])([H])C2([H])N([H])C(=O)C1([H])N(C(=O)C([H])(N([H])C(=O)C([H])(N([H])C([H])([H])[H])C([H])([H])[H])C(C([H])([H])[H])(C([H])([H])[H])C([H])([H])[H])C([H])([H])c2c([H])c(OC([H])([H])C3([H])C([H])([H])C([H])([H])C([H])([N+]([H])([H])[H])C([H])([H])C3([H])N([H])C(=O)C3([H])C([H])(N([H])C(=O)N4C([H])([H])C([H])([H])C([H])([H])C([H])(n5nc(-c6c([H])c([H])c(Oc7c([H])c([H])c(F)c([H])c7F)c([H])c6[H])c(C(=O)N([H])[H])c5N([H])[H])C4([H])[H])C([H])([H])C([H])([H])[N+]3([H])[H])c([H])c([H])c2C1([H])[H]

>  <smiles>  (42) 
[H]c1c([H])c([H])c2c(c1[H])C([H])([H])C([H])([H])C([H])([H])C2([H])N([H])C(=O)C1([H])N(C(=O)C([H])(N([H])C(=O)C([H])(N([H])C([H])([H])[H])C([H])([H])[H])C(C([H])([H])[H])(C([H])([H])[H])C([H])([H])[H])C([H])([H])c2c([H])c(OC([H])([H])C3([H])C([H])([H])C([H])([H])C([H])([N+]([H])([H])[H])C([H])([H])C3([H])N([H])C(=O)C3([H])C([H])(N([H])C(=O)N4C([H])([H])C([H])([H])C([H])([H])C([H])(n5nc(-c6c([H])c([H])c(Oc7c([H])c([H])c(F)c([H])c7F)c([H])c6[H])c(C(=O)N([H])[H])c5N([H])[H])C4([H])[H])C([H])([H])C([H])([H])[N+]3([H])[H])c([H])c([H])c2C1([H])[H]

$$$$
42:0:0
     RDKit          3D

 94102  0  0  1  0  0  0  0  0999 V2000
  -29.9720  -23.5510   21.0630 C   0  0  0  0  0  3  0  0  0  0  0  0
  -30.4580  -22.2120   21.0600 C   0  0  0  0  0  3  0  0  0  0  0  0
  -28.6000  -23.8310   20.8550 C   0  0  0  0  0  0  0  0  0  0  0  0
  -27.8030  -22.6620   20.5970 C   0  0  0  0  0  0  0  0  0  0  0  0
  -29.5870  -21.1160   20.8660 C   0  0  0  0  0  0  0  0  0  0  0  0
  -28.2780  -21.3690   20.6400 N   0  0  0  0  0  0  0  0  0  0  0  0
  -30.1090  -19.7820   20.8890 N   0  0  0  0  0  0  0  0  0  0  0  0
  -31.1060  -19.7140   21.0620 H   0  0  0  0  0  0  0  0  0  0  0  0
  -25.8490  -21.8390   19.1500 C   0  0  0  0  0  1  0  0  0  0  0  0
  -26.3060  -22.7520   20.3020 C   0  0  0  0  0  2  0  0  0  0  0  0
  -28.4580  -25.7940   22.5210 C   0  0  0  0  0  1  0  0  0  0  0  0
  -28.0120  -25.2830   21.1360 C   0  0  0  0  0  3  0  0  0  0  0  0
  -28.2720  -26.4130   20.2150 O   0  0  0  0  0  0  0  0  0  0  0  0
  -24.6260  -31.8610   23.2060 C   0  0  0  0  0  0  0  0  0  0  0  0
  -27.2160  -27.3280   20.1340 C   0  0  0  0  0  0  0  0  0  0  0  0
  -23.4220  -30.4830   21.5490 C   0  0  0  0  0  3  0  0  0  0  0  0
  -24.8700  -28.9440   20.1070 C   0  0  0  0  0  0  0  0  0  0  0  0
  -25.9620  -30.7990   21.3720 C   0  0  0  0  0  2  0  0  0  0  0  0
  -26.0380  -29.4270   20.7160 C   0  0  0  0  0  0  0  0  0  0  0  0
  -27.2190  -28.6290   20.7210 C   0  0  0  0  0  3  0  0  0  0  0  0
  -26.0410  -26.9020   19.4860 C   0  0  0  0  0  3  0  0  0  0  0  0
  -24.8740  -27.6890   19.4790 C   0  0  0  0  0  3  0  0  0  0  0  0
  -23.6360  -29.8220   20.1610 C   0  0  0  0  0  2  0  0  0  0  0  0
  -24.6890  -31.0630   22.1010 N   0  0  0  0  0  0  0  0  0  0  0  0
  -23.5410  -32.1410   23.7380 O   0  0  0  0  0  0  0  0  0  0  0  0
  -22.7500  -29.4600   22.4960 C   0  0  0  0  0  0  0  0  0  0  0  0
  -21.4210  -29.3030   22.3710 N   0  0  0  0  0  0  0  0  0  0  0  0
  -23.4220  -28.8130   23.3040 O   0  0  0  0  0  0  0  0  0  0  0  0
  -20.9420  -29.8760   21.6900 H   0  0  0  0  0  0  0  0  0  0  0  0
  -18.0270  -28.1380   22.8480 C   0  0  0  0  0  0  0  0  0  0  0  0
  -20.5880  -28.3690   23.1290 C   0  0  0  0  0  3  0  0  0  0  0  0
  -20.6760  -26.9410   22.5410 C   0  0  0  0  0  2  0  0  0  0  0  0
  -19.5740  -26.6400   21.5210 C   0  0  0  0  0  2  0  0  0  0  0  0
  -18.1920  -26.7920   22.1620 C   0  0  0  0  0  2  0  0  0  0  0  0
  -19.1520  -28.8850   23.2880 C   0  0  0  0  0  0  0  0  0  0  0  0
  -18.9450  -30.1450   23.8920 C   0  0  0  0  0  3  0  0  0  0  0  0
  -17.6450  -30.6590   24.0570 C   0  0  0  0  0  3  0  0  0  0  0  0
  -16.5340  -29.9100   23.6310 C   0  0  0  0  0  3  0  0  0  0  0  0
  -16.7260  -28.6500   23.0360 C   0  0  0  0  0  3  0  0  0  0  0  0
  -25.9090  -32.4780   23.8410 C   0  0  0  0  0  3  0  0  0  0  0  0
  -26.4500  -31.6580   25.0760 C   0  0  1  0  0  0  0  0  0  0  0  0
  -25.3750  -31.3690   26.1490 C   0  0  0  0  0  1  0  0  0  0  0  0
  -27.0340  -30.3010   24.6150 C   0  0  0  0  0  1  0  0  0  0  0  0
  -27.6090  -32.4300   25.7500 C   0  0  0  0  0  1  0  0  0  0  0  0
  -25.5910  -33.8590   24.2320 N   0  0  0  0  0  0  0  0  0  0  0  0
  -25.9050  -34.9470   23.5150 C   0  0  0  0  0  0  0  0  0  0  0  0
  -26.5620  -34.8940   22.4710 O   0  0  0  0  0  0  0  0  0  0  0  0
  -25.0060  -33.9760   25.0460 H   0  0  0  0  0  0  0  0  0  0  0  0
  -24.1480  -36.7300   23.2640 C   0  0  0  0  0  1  0  0  0  0  0  0
  -25.4100  -36.3100   24.0360 C   0  0  0  0  0  3  0  0  0  0  0  0
  -27.5580  -37.1800   24.8480 C   0  0  0  0  0  1  0  0  0  0  0  0
  -26.4290  -37.3790   23.9430 N   0  0  0  0  0  0  0  0  0  0  0  0
  -26.0190  -38.2890   24.1380 H   0  0  0  0  0  0  0  0  0  0  0  0
  -29.4050  -18.4590   20.8920 C   0  0  0  0  0  2  0  0  0  0  0  0
  -30.4360  -17.3940   18.8380 C   0  0  0  0  0  1  0  0  0  0  0  0
  -30.3050  -17.2380   20.3680 C   0  0  0  0  0  3  0  0  0  0  0  0
  -30.6510  -14.6710   20.4850 C   0  0  0  0  0  0  0  0  0  0  0  0
  -30.4260  -12.4050   19.4820 C   0  0  0  0  0  2  0  0  0  0  0  0
  -29.5030  -12.4870   18.2460 C   0  0  0  0  0  2  0  0  0  0  0  0
  -28.0350  -12.3150   18.6670 C   0  0  0  0  0  2  0  0  0  0  0  0
  -27.6460  -13.2240   19.8610 C   0  0  0  0  0  3  0  0  0  0  0  0
  -28.6860  -13.1490   21.0010 C   0  0  0  0  0  2  0  0  0  0  0  0
  -30.0000  -13.4630   20.4260 N   0  0  0  0  0  0  0  0  0  0  0  0
  -31.8310  -14.7590   20.1380 O   0  0  0  0  0  0  0  0  0  0  0  0
  -29.9050  -15.8100   20.7000 N   0  0  0  0  0  0  0  0  0  0  0  0
  -28.9550  -15.6690   21.0090 H   0  0  0  0  0  0  0  0  0  0  0  0
  -25.2540  -13.8200   20.5720 C   0  0  0  0  0  0  0  0  0  0  0  0
  -24.1820  -13.0460   20.9240 C   0  0  0  0  0  0  0  0  0  0  0  0
  -24.6400  -11.6930   20.8810 C   0  0  0  0  0  0  0  0  0  0  0  0
  -26.2960  -12.9390   20.3340 N   0  0  0  0  0  0  0  0  0  0  0  0
  -25.9320  -11.6550   20.5840 N   0  0  0  0  0  0  0  0  0  0  0  0
  -23.9090  -10.4310   21.0470 C   0  0  0  0  0  0  0  0  0  0  0  0
  -24.3640   -9.4200   21.9220 C   0  0  0  0  0  3  0  0  0  0  0  0
  -23.6300   -8.2240   22.0760 C   0  0  0  0  0  3  0  0  0  0  0  0
  -22.4290   -8.0290   21.3550 C   0  0  0  0  0  0  0  0  0  0  0  0
  -21.9940   -9.0280   20.4660 C   0  0  0  0  0  3  0  0  0  0  0  0
  -22.7280  -10.2160   20.3090 C   0  0  0  0  0  3  0  0  0  0  0  0
  -21.6630   -6.8910   21.4260 O   0  0  0  0  0  0  0  0  0  0  0  0
  -21.6840   -6.0750   22.5300 C   0  0  0  0  0  0  0  0  0  0  0  0
  -21.4010   -6.5650   23.8230 C   0  0  0  0  0  3  0  0  0  0  0  0
  -21.3660   -5.6810   24.9190 C   0  0  0  0  0  3  0  0  0  0  0  0
  -21.6040   -4.3070   24.7240 C   0  0  0  0  0  0  0  0  0  0  0  0
  -21.8810   -3.8160   23.4360 C   0  0  0  0  0  3  0  0  0  0  0  0
  -21.9190   -4.6980   22.3410 C   0  0  0  0  0  0  0  0  0  0  0  0
  -22.1660   -4.2170   21.0990 F   0  0  0  0  0  0  0  0  0  0  0  0
  -21.5630   -3.4550   25.7750 F   0  0  0  0  0  0  0  0  0  0  0  0
  -22.7830  -13.5240   21.1880 C   0  0  0  0  0  0  0  0  0  0  0  0
  -22.0470  -12.8230   22.0440 N   0  0  0  0  0  0  0  0  0  0  0  0
  -22.3520  -14.5540   20.6730 O   0  0  0  0  0  0  0  0  0  0  0  0
  -22.4090  -11.9880   22.4830 H   0  0  0  0  0  0  0  0  0  0  0  0
  -21.1090  -13.1250   22.2640 H   0  0  0  0  0  0  0  0  0  0  0  0
  -25.4250  -15.1910   20.4040 N   0  0  0  0  0  0  0  0  0  0  0  0
  -24.6630  -15.8510   20.5090 H   0  0  0  0  0  0  0  0  0  0  0  0
  -26.2680  -15.6170   20.0410 H   0  0  0  0  0  0  0  0  0  0  0  0
  2  1  1  0
  3  1  2  0
  3 12  1  0
  4  6  2  0
  4  3  1  0
  5  7  1  0
  5  2  2  0
  6  5  1  0
  7 54  1  0
  7  8  1  0
  9 10  1  0
 10  4  1  0
 12 11  1  0
 13 12  1  0
 14 25  2  0
 15 13  1  0
 15 20  1  0
 16 24  1  0
 16 26  1  0
 17 23  1  0
 17 19  1  0
 18 24  1  0
 19 20  2  0
 19 18  1  0
 21 15  2  0
 22 21  1  0
 22 17  2  0
 23 16  1  0
 24 14  1  0
 26 28  2  0
 27 26  1  0
 29 27  1  0
 30 39  2  0
 30 35  1  0
 31 27  1  0
 31 35  1  0
 32 31  1  0
 33 34  1  0
 33 32  1  0
 34 30  1  0
 35 36  2  0
 36 37  1  0
 38 37  2  0
 39 38  1  0
 40 14  1  0
 40 45  1  0
 40 41  1  0
 41 44  1  1
 41 42  1  0
 43 41  1  0
 45 48  1  0
 46 50  1  0
 46 45  1  0
 47 46  2  0
 50 49  1  0
 52 50  1  0
 52 53  1  0
 52 51  1  0
 56 55  1  0
 56 65  1  0
 56 54  1  0
 57 65  1  0
 58 63  1  0
 59 60  1  0
 59 58  1  0
 61 60  1  0
 61 70  1  0
 61 62  1  0
 63 57  1  0
 63 62  1  0
 64 57  2  0
 65 66  1  0
 67 68  2  0
 68 87  1  0
 69 68  1  0
 69 72  1  0
 70 67  1  0
 70 71  1  0
 71 69  2  0
 72 73  1  0
 73 74  2  0
 75 78  1  0
 75 74  1  0
 76 75  2  0
 77 76  1  0
 77 72  2  0
 78 79  1  0
 79 80  1  0
 80 81  2  0
 82 81  1  0
 82 86  1  0
 83 82  2  0
 84 79  2  0
 84 83  1  0
 85 84  1  0
 87 88  1  0
 88 91  1  0
 88 90  1  0
 89 87  2  0
 92 93  1  0
 92 67  1  0
 94 92  1  0
M  ISO  4  12 101  13 101  57 100  65 100
M  END
>  <TORSDO>  (43) 
F 20

>  <SCORE>  (43) 
-13.622

>  <name>  (43) 
42

>  <ligand_id>  (43) 
42

>  <original_smiles>  (43) 
[H]c1c(N([H])C([H])([H])C([H])(N([H])C(=O)N2C([H])([H])C([H])([H])C([H])([H])C([H])(n3nc(-c4c([H])c([H])c(Oc5c([H])c([H])c(F)c([H])c5F)c([H])c4[H])c(C(=O)N([H])[H])c3N([H])[H])C2([H])[H])C([H])([H])[H])nc(C([H])([H])C([H])([H])[H])c(C([H])(Oc2c([H])c([H])c3c(c2[H])C([H])([H])N(C(=O)C([H])(N([H])C(=O)C([H])(N([H])C([H])([H])[H])C([H])([H])[H])C(C([H])([H])[H])(C([H])([H])[H])C([H])([H])[H])C([H])(C(=O)N([H])C2([H])c4c([H])c([H])c([H])c([H])c4C([H])([H])C([H])([H])C2([H])[H])C3([H])[H])C([H])([H])[H])c1[H]

>  <smiles>  (43) 
[H]c1c(N([H])C([H])([H])C([H])(N([H])C(=O)N2C([H])([H])C([H])([H])C([H])([H])C([H])(n3nc(-c4c([H])c([H])c(Oc5c([H])c([H])c(F)c([H])c5F)c([H])c4[H])c(C(=O)N([H])[H])c3N([H])[H])C2([H])[H])C([H])([H])[H])nc(C([H])([H])C([H])([H])[H])c(C([H])(Oc2c([H])c([H])c3c(c2[H])C([H])([H])N(C(=O)C([H])(N([H])C(=O)C([H])(N([H])C([H])([H])[H])C([H])([H])[H])C(C([H])([H])[H])(C([H])([H])[H])C([H])([H])[H])C([H])(C(=O)N([H])C2([H])c4c([H])c([H])c([H])c([H])c4C([H])([H])C([H])([H])C2([H])[H])C3([H])[H])C([H])([H])[H])c1[H]

$$$$
43:0:0
     RDKit          3D

 90 99  0  0  1  0  0  0  0  0999 V2000
  -28.4460  -19.0740   20.6750 C   0  0  0  0  0  2  0  0  0  0  0  0
  -30.8290  -19.4150   20.7530 C   0  0  0  0  0  2  0  0  0  0  0  0
  -28.2040  -20.6790   21.0180 C   0  0  0  0  0  2  0  0  0  0  0  0
  -30.3930  -20.8680   20.0750 C   0  0  0  0  0  2  0  0  0  0  0  0
  -29.7810  -18.2290   21.0820 C   0  0  0  0  0  3  0  0  0  0  0  0
  -29.2640  -21.7330   20.6700 N   0  0  1  0  0  4  0  0  0  0  0  0
  -29.6340  -22.0080   21.5670 H   0  0  0  0  0  0  0  0  0  0  0  0
  -30.6960  -15.4440   21.0510 C   0  0  0  0  0  0  0  0  0  0  0  0
  -30.8390  -12.9630   20.3610 C   0  0  0  0  0  2  0  0  0  0  0  0
  -30.0790  -12.5820   19.0670 C   0  0  0  0  0  2  0  0  0  0  0  0
  -28.5750  -12.3660   19.3270 C   0  0  0  0  0  2  0  0  0  0  0  0
  -27.9650  -13.3970   20.3110 C   0  0  0  0  0  3  0  0  0  0  0  0
  -28.8710  -13.6670   21.5280 C   0  0  0  0  0  2  0  0  0  0  0  0
  -30.1560  -14.1390   20.9880 N   0  0  0  0  0  0  0  0  0  0  0  0
  -31.9190  -15.4780   21.2400 O   0  0  0  0  0  0  0  0  0  0  0  0
  -29.9630  -16.6530   20.6230 N   0  0  0  0  0  0  0  0  0  0  0  0
  -25.5130  -13.9430   20.7770 C   0  0  0  0  0  0  0  0  0  0  0  0
  -24.4260  -13.1550   21.0330 C   0  0  0  0  0  0  0  0  0  0  0  0
  -24.9180  -11.8150   21.0970 C   0  0  0  0  0  0  0  0  0  0  0  0
  -26.5920  -13.0810   20.6820 N   0  0  0  0  0  0  0  0  0  0  0  0
  -26.2370  -11.7980   20.9500 N   0  0  0  0  0  0  0  0  0  0  0  0
  -24.1990  -10.5410   21.2280 C   0  0  0  0  0  0  0  0  0  0  0  0
  -24.5410   -9.6010   22.2250 C   0  0  0  0  0  3  0  0  0  0  0  0
  -23.8220   -8.3930   22.3440 C   0  0  0  0  0  3  0  0  0  0  0  0
  -22.7470   -8.1170   21.4670 C   0  0  0  0  0  0  0  0  0  0  0  0
  -22.4250   -9.0460   20.4630 C   0  0  0  0  0  3  0  0  0  0  0  0
  -23.1450  -10.2460   20.3410 C   0  0  0  0  0  3  0  0  0  0  0  0
  -22.0070   -6.9590   21.4930 O   0  0  0  0  0  0  0  0  0  0  0  0
  -21.8400   -6.2380   22.6490 C   0  0  0  0  0  0  0  0  0  0  0  0
  -21.2390   -6.7990   23.7960 C   0  0  0  0  0  3  0  0  0  0  0  0
  -21.0240   -6.0030   24.9380 C   0  0  0  0  0  3  0  0  0  0  0  0
  -21.3990   -4.6460   24.9320 C   0  0  0  0  0  0  0  0  0  0  0  0
  -21.9940   -4.0840   23.7880 C   0  0  0  0  0  3  0  0  0  0  0  0
  -22.2100   -4.8780   22.6490 C   0  0  0  0  0  0  0  0  0  0  0  0
  -22.7630   -4.3270   21.5420 F   0  0  0  0  0  0  0  0  0  0  0  0
  -21.1850   -3.8780   26.0260 F   0  0  0  0  0  0  0  0  0  0  0  0
  -22.9980  -13.6080   21.1090 C   0  0  0  0  0  0  0  0  0  0  0  0
  -22.1860  -12.9350   21.9170 N   0  0  0  0  0  0  0  0  0  0  0  0
  -22.6040  -14.5950   20.4890 O   0  0  0  0  0  0  0  0  0  0  0  0
  -22.5130  -12.1420   22.4470 H   0  0  0  0  0  0  0  0  0  0  0  0
  -21.2210  -13.2210   22.0080 H   0  0  0  0  0  0  0  0  0  0  0  0
  -25.6680  -15.3130   20.5870 N   0  0  0  0  0  0  0  0  0  0  0  0
  -24.8790  -15.9500   20.6050 H   0  0  0  0  0  0  0  0  0  0  0  0
  -26.5490  -15.7740   20.4010 H   0  0  0  0  0  0  0  0  0  0  0  0
  -29.8840  -15.9690   18.1220 C   0  0  0  0  0  2  0  0  0  0  0  0
  -29.7030  -17.4510   18.2090 C   0  0  0  0  0  2  0  0  0  0  0  0
  -29.2530  -16.5700   19.3700 C   0  0  0  0  0  3  0  0  0  0  0  0
  -28.9280  -23.1700   19.9360 C   0  0  0  0  0  2  0  0  0  0  0  0
  -28.1770  -24.6400   20.5200 C   0  0  0  0  0  2  0  0  0  0  0  0
  -28.2230  -26.1710   20.0050 O   0  0  0  0  0  0  0  0  0  0  0  0
  -24.5620  -31.9070   23.1450 C   0  0  0  0  0  0  0  0  0  0  0  0
  -27.1450  -27.1680   20.0490 C   0  0  0  0  0  0  0  0  0  0  0  0
  -23.3550  -30.5120   21.5130 C   0  0  0  0  0  3  0  0  0  0  0  0
  -24.8000  -28.9440   20.0610 C   0  0  0  0  0  0  0  0  0  0  0  0
  -25.9090  -30.7860   21.3150 C   0  0  0  0  0  2  0  0  0  0  0  0
  -25.9900  -29.3880   20.6520 C   0  0  0  0  0  0  0  0  0  0  0  0
  -27.1610  -28.5220   20.6180 C   0  0  0  0  0  3  0  0  0  0  0  0
  -25.9210  -26.8430   19.4260 C   0  0  0  0  0  3  0  0  0  0  0  0
  -24.7830  -27.6890   19.4300 C   0  0  0  0  0  3  0  0  0  0  0  0
  -23.5660  -29.8400   20.1280 C   0  0  0  0  0  2  0  0  0  0  0  0
  -24.6300  -31.0930   22.0450 N   0  0  0  0  0  0  0  0  0  0  0  0
  -23.4800  -32.1760   23.6910 O   0  0  0  0  0  0  0  0  0  0  0  0
  -22.6950  -29.4960   22.4800 C   0  0  0  0  0  0  0  0  0  0  0  0
  -21.3690  -29.3000   22.3630 N   0  0  0  0  0  0  0  0  0  0  0  0
  -23.3830  -28.8840   23.3020 O   0  0  0  0  0  0  0  0  0  0  0  0
  -20.8670  -29.8470   21.6770 H   0  0  0  0  0  0  0  0  0  0  0  0
  -18.0140  -28.0390   22.9100 C   0  0  0  0  0  0  0  0  0  0  0  0
  -20.5730  -28.3430   23.1380 C   0  0  0  0  0  3  0  0  0  0  0  0
  -20.6880  -26.9170   22.5490 C   0  0  0  0  0  2  0  0  0  0  0  0
  -19.5750  -26.5860   21.5490 C   0  0  0  0  0  2  0  0  0  0  0  0
  -18.2020  -26.7010   22.2160 C   0  0  0  0  0  2  0  0  0  0  0  0
  -19.1260  -28.8170   23.3290 C   0  0  0  0  0  0  0  0  0  0  0  0
  -18.8950  -30.0670   23.9430 C   0  0  0  0  0  3  0  0  0  0  0  0
  -17.5850  -30.5410   24.1390 C   0  0  0  0  0  3  0  0  0  0  0  0
  -16.4870  -29.7630   23.7340 C   0  0  0  0  0  3  0  0  0  0  0  0
  -16.7030  -28.5130   23.1260 C   0  0  0  0  0  3  0  0  0  0  0  0
  -25.8390  -32.5570   23.7610 C   0  0  0  0  0  3  0  0  0  0  0  0
  -26.3800  -31.7810   25.0240 C   0  0  1  0  0  0  0  0  0  0  0  0
  -25.3060  -31.5340   26.1090 C   0  0  0  0  0  1  0  0  0  0  0  0
  -26.9640  -30.4080   24.6230 C   0  0  0  0  0  1  0  0  0  0  0  0
  -27.5370  -32.5780   25.6720 C   0  0  0  0  0  1  0  0  0  0  0  0
  -25.5100  -33.9460   24.1190 N   0  0  0  0  0  0  0  0  0  0  0  0
  -25.8480  -35.0250   23.3990 C   0  0  0  0  0  0  0  0  0  0  0  0
  -26.5350  -34.9550   22.3760 O   0  0  0  0  0  0  0  0  0  0  0  0
  -24.9020  -34.0740   24.9150 H   0  0  0  0  0  0  0  0  0  0  0  0
  -24.1390  -36.8410   23.0540 C   0  0  0  0  0  1  0  0  0  0  0  0
  -25.3510  -36.3990   23.8900 C   0  0  0  0  0  3  0  0  0  0  0  0
  -27.4580  -37.2500   24.8250 C   0  0  0  0  0  1  0  0  0  0  0  0
  -26.3900  -37.4530   23.8500 N   0  0  0  0  0  0  0  0  0  0  0  0
  -25.9800  -38.3690   24.0130 H   0  0  0  0  0  0  0  0  0  0  0  0
  1  3  1  0
  1  5  1  0
  2  5  1  0
  4  6  1  0
  4  2  1  0
  5 16  1  0
  6  3  1  0
  6  7  1  1
  8 15  2  0
  9 14  1  0
 10 11  1  0
 10  9  1  0
 12 11  1  0
 12 20  1  0
 12 13  1  0
 14  8  1  0
 14 13  1  0
 16  8  1  0
 17 18  2  0
 18 19  1  0
 18 37  1  0
 19 22  1  0
 20 17  1  0
 20 21  1  0
 21 19  2  0
 22 23  1  0
 23 24  2  0
 25 28  1  0
 25 24  1  0
 26 25  2  0
 27 26  1  0
 27 22  2  0
 28 29  1  0
 29 30  1  0
 30 31  2  0
 32 31  1  0
 32 36  1  0
 33 32  2  0
 34 29  2  0
 34 33  1  0
 35 34  1  0
 37 38  1  0
 38 41  1  0
 38 40  1  0
 39 37  2  0
 42 43  1  0
 42 17  1  0
 44 42  1  0
 45 46  1  0
 45 47  1  0
 46 47  1  0
 47 16  1  0
 48 49  1  0
 48  6  1  0
 50 52  1  0
 50 49  1  0
 51 62  2  0
 52 57  1  0
 53 61  1  0
 53 63  1  0
 54 60  1  0
 54 56  1  0
 55 61  1  0
 56 55  1  0
 57 56  2  0
 58 59  1  0
 58 52  2  0
 59 54  2  0
 60 53  1  0
 61 51  1  0
 63 65  2  0
 64 63  1  0
 66 64  1  0
 67 76  2  0
 67 72  1  0
 68 64  1  0
 68 72  1  0
 69 68  1  0
 70 71  1  0
 70 69  1  0
 71 67  1  0
 72 73  2  0
 73 74  1  0
 75 74  2  0
 76 75  1  0
 77 51  1  0
 77 82  1  0
 77 78  1  0
 78 81  1  1
 78 79  1  0
 80 78  1  0
 82 85  1  0
 83 87  1  0
 83 82  1  0
 84 83  2  0
 87 86  1  0
 89 87  1  0
 89 90  1  0
 89 88  1  0
M  ISO  4   8 100  16 100  49 101  50 101
M  END
>  <TORSDO>  (44) 
F 19

>  <SCORE>  (44) 
-13.154

>  <name>  (44) 
43

>  <ligand_id>  (44) 
43

>  <original_smiles>  (44) 
[H]c1c([H])c([H])c2c(c1[H])C([H])([H])C([H])([H])C([H])([H])C2([H])N([H])C(=O)C1([H])N(C(=O)C([H])(N([H])C(=O)C([H])(N([H])C([H])([H])[H])C([H])([H])[H])C(C([H])([H])[H])(C([H])([H])[H])C([H])([H])[H])C([H])([H])c2c([H])c(OC([H])([H])C([H])([H])[N+]3([H])C([H])([H])C([H])([H])C([H])(N(C(=O)N4C([H])([H])C([H])([H])C([H])([H])C([H])(n5nc(-c6c([H])c([H])c(Oc7c([H])c([H])c(F)c([H])c7F)c([H])c6[H])c(C(=O)N([H])[H])c5N([H])[H])C4([H])[H])C4([H])C([H])([H])C4([H])[H])C([H])([H])C3([H])[H])c([H])c([H])c2C1([H])[H]

>  <smiles>  (44) 
[H]c1c([H])c([H])c2c(c1[H])C([H])([H])C([H])([H])C([H])([H])C2([H])N([H])C(=O)C1([H])N(C(=O)C([H])(N([H])C(=O)C([H])(N([H])C([H])([H])[H])C([H])([H])[H])C(C([H])([H])[H])(C([H])([H])[H])C([H])([H])[H])C([H])([H])c2c([H])c(OC([H])([H])C([H])([H])[N+]3([H])C([H])([H])C([H])([H])C([H])(N(C(=O)N4C([H])([H])C([H])([H])C([H])([H])C([H])(n5nc(-c6c([H])c([H])c(Oc7c([H])c([H])c(F)c([H])c7F)c([H])c6[H])c(C(=O)N([H])[H])c5N([H])[H])C4([H])[H])C4([H])C([H])([H])C4([H])[H])C([H])([H])C3([H])[H])c([H])c([H])c2C1([H])[H]

$$$$
44:0:0
     RDKit          3D

 91100  0  0  1  0  0  0  0  0999 V2000
  -30.8790  -19.8500   21.1530 C   0  0  0  0  0  3  0  0  0  0  0  0
  -29.0680  -21.9570   20.4630 C   0  0  0  0  0  0  0  0  0  0  0  0
  -29.6790  -19.3570   20.5950 C   0  0  0  0  0  0  0  0  0  0  0  0
  -28.7690  -20.4980   20.2180 C   0  0  0  0  0  0  0  0  0  0  0  0
  -30.2670  -22.1460   21.1640 C   0  0  0  0  0  0  0  0  0  0  0  0
  -28.2940  -23.3880   20.0460 C   0  0  0  0  0  2  0  0  0  0  0  0
  -30.5810  -23.5220   21.7490 C   0  0  0  0  0  2  0  0  0  0  0  0
  -29.9920  -24.7320   20.9790 C   0  0  0  0  0  2  0  0  0  0  0  0
  -27.4290  -20.1500   19.6040 C   0  0  0  0  0  1  0  0  0  0  0  0
  -31.1430  -21.1490   21.4500 N   0  0  0  0  0  0  0  0  0  0  0  0
  -28.5320  -24.7400   20.8190 N   0  0  0  0  0  0  0  0  0  0  0  0
  -28.3310  -26.1640   20.0610 O   0  0  0  0  0  0  0  0  0  0  0  0
  -24.6350  -31.8920   23.2090 C   0  0  0  0  0  0  0  0  0  0  0  0
  -27.2380  -27.1020   20.2550 C   0  0  0  0  0  0  0  0  0  0  0  0
  -23.4510  -30.4790   21.5760 C   0  0  0  0  0  3  0  0  0  0  0  0
  -24.9100  -28.8740   20.1920 C   0  0  0  0  0  0  0  0  0  0  0  0
  -26.0080  -30.7320   21.4280 C   0  0  0  0  0  2  0  0  0  0  0  0
  -26.0880  -29.3200   20.8060 C   0  0  0  0  0  0  0  0  0  0  0  0
  -27.2540  -28.4520   20.8150 C   0  0  0  0  0  3  0  0  0  0  0  0
  -26.0290  -26.7660   19.6140 C   0  0  0  0  0  3  0  0  0  0  0  0
  -24.8940  -27.6090   19.5840 C   0  0  0  0  0  3  0  0  0  0  0  0
  -23.6860  -29.7820   20.2090 C   0  0  0  0  0  2  0  0  0  0  0  0
  -24.7180  -31.0600   22.1250 N   0  0  0  0  0  0  0  0  0  0  0  0
  -23.5450  -32.1770   23.7280 O   0  0  0  0  0  0  0  0  0  0  0  0
  -22.7660  -29.4810   22.5450 C   0  0  0  0  0  0  0  0  0  0  0  0
  -21.4370  -29.3140   22.4210 N   0  0  0  0  0  0  0  0  0  0  0  0
  -23.4350  -28.8570   23.3730 O   0  0  0  0  0  0  0  0  0  0  0  0
  -20.9520  -29.8680   21.7290 H   0  0  0  0  0  0  0  0  0  0  0  0
  -18.0510  -28.1330   22.9460 C   0  0  0  0  0  0  0  0  0  0  0  0
  -20.6130  -28.3820   23.1960 C   0  0  0  0  0  3  0  0  0  0  0  0
  -20.7030  -26.9490   22.6210 C   0  0  0  0  0  2  0  0  0  0  0  0
  -19.5930  -26.6330   21.6130 C   0  0  0  0  0  2  0  0  0  0  0  0
  -18.2160  -26.7840   22.2660 C   0  0  0  0  0  2  0  0  0  0  0  0
  -19.1770  -28.8890   23.3690 C   0  0  0  0  0  0  0  0  0  0  0  0
  -18.9660  -30.1510   23.9680 C   0  0  0  0  0  3  0  0  0  0  0  0
  -17.6650  -30.6560   24.1460 C   0  0  0  0  0  3  0  0  0  0  0  0
  -16.5550  -29.8970   23.7370 C   0  0  0  0  0  3  0  0  0  0  0  0
  -16.7480  -28.6370   23.1450 C   0  0  0  0  0  3  0  0  0  0  0  0
  -25.9070  -32.5390   23.8380 C   0  0  0  0  0  3  0  0  0  0  0  0
  -25.5830  -33.9380   24.1660 N   0  0  0  0  0  0  0  0  0  0  0  0
  -25.9090  -34.9960   23.4120 C   0  0  0  0  0  0  0  0  0  0  0  0
  -26.5780  -34.8980   22.3810 O   0  0  0  0  0  0  0  0  0  0  0  0
  -24.9870  -34.0860   24.9680 H   0  0  0  0  0  0  0  0  0  0  0  0
  -24.1700  -36.7840   23.0670 C   0  0  0  0  0  1  0  0  0  0  0  0
  -25.4160  -36.3830   23.8740 C   0  0  0  0  0  3  0  0  0  0  0  0
  -27.5490  -37.2800   24.7000 C   0  0  0  0  0  1  0  0  0  0  0  0
  -26.4440  -37.4420   23.7580 N   0  0  0  0  0  0  0  0  0  0  0  0
  -26.0330  -38.3590   23.9080 H   0  0  0  0  0  0  0  0  0  0  0  0
  -26.4140  -31.7800   25.1260 C   0  0  1  0  0  0  0  0  0  0  0  0
  -25.3140  -31.5460   26.1870 C   0  0  0  0  0  1  0  0  0  0  0  0
  -27.0070  -30.4010   24.7530 C   0  0  0  0  0  1  0  0  0  0  0  0
  -27.5570  -32.5830   25.7910 C   0  0  0  0  0  1  0  0  0  0  0  0
  -29.4140  -17.7020   20.8500 C   0  0  0  0  0  2  0  0  0  0  0  0
  -30.4220  -15.1030   20.1290 C   0  0  0  0  0  0  0  0  0  0  0  0
  -30.3090  -12.7570   19.1030 C   0  0  0  0  0  2  0  0  0  0  0  0
  -29.3240  -12.6760   17.9130 C   0  0  0  0  0  2  0  0  0  0  0  0
  -27.8810  -12.4430   18.4030 C   0  0  0  0  0  2  0  0  0  0  0  0
  -27.5070  -13.3550   19.5990 C   0  0  0  0  0  3  0  0  0  0  0  0
  -28.6070  -13.3760   20.6770 C   0  0  0  0  0  2  0  0  0  0  0  0
  -29.8280  -13.8410   20.0080 N   0  0  0  0  0  0  0  0  0  0  0  0
  -31.6500  -15.1430   19.9920 O   0  0  0  0  0  0  0  0  0  0  0  0
  -29.6200  -16.3030   20.0760 N   0  0  0  0  0  0  0  0  0  0  0  0
  -28.7230  -16.0250   19.7080 H   0  0  0  0  0  0  0  0  0  0  0  0
  -25.1550  -13.9240   20.4220 C   0  0  0  0  0  0  0  0  0  0  0  0
  -24.1040  -13.1460   20.8200 C   0  0  0  0  0  0  0  0  0  0  0  0
  -24.5720  -11.7960   20.7740 C   0  0  0  0  0  0  0  0  0  0  0  0
  -26.1910  -13.0490   20.1470 N   0  0  0  0  0  0  0  0  0  0  0  0
  -25.8550  -11.7640   20.4280 N   0  0  0  0  0  0  0  0  0  0  0  0
  -23.8550  -10.5310   20.9800 C   0  0  0  0  0  0  0  0  0  0  0  0
  -24.3110   -9.5640   21.9020 C   0  0  0  0  0  3  0  0  0  0  0  0
  -23.5910   -8.3660   22.0970 C   0  0  0  0  0  3  0  0  0  0  0  0
  -22.4010   -8.1270   21.3690 C   0  0  0  0  0  0  0  0  0  0  0  0
  -21.9640   -9.0820   20.4350 C   0  0  0  0  0  3  0  0  0  0  0  0
  -22.6840  -10.2720   20.2390 C   0  0  0  0  0  3  0  0  0  0  0  0
  -21.6500   -6.9800   21.4750 O   0  0  0  0  0  0  0  0  0  0  0  0
  -21.6250   -6.2390   22.6290 C   0  0  0  0  0  0  0  0  0  0  0  0
  -21.2170   -6.7950   23.8620 C   0  0  0  0  0  3  0  0  0  0  0  0
  -21.1400   -5.9800   25.0090 C   0  0  0  0  0  3  0  0  0  0  0  0
  -21.4610   -4.6130   24.9250 C   0  0  0  0  0  0  0  0  0  0  0  0
  -21.8610   -4.0570   23.6970 C   0  0  0  0  0  3  0  0  0  0  0  0
  -21.9400   -4.8680   22.5520 C   0  0  0  0  0  0  0  0  0  0  0  0
  -22.3070   -4.3230   21.3670 F   0  0  0  0  0  0  0  0  0  0  0  0
  -21.3790   -3.8280   26.0250 F   0  0  0  0  0  0  0  0  0  0  0  0
  -22.7130  -13.6180   21.1250 C   0  0  0  0  0  0  0  0  0  0  0  0
  -22.0080  -12.9190   22.0070 N   0  0  0  0  0  0  0  0  0  0  0  0
  -22.2610  -14.6430   20.6170 O   0  0  0  0  0  0  0  0  0  0  0  0
  -22.3880  -12.0900   22.4390 H   0  0  0  0  0  0  0  0  0  0  0  0
  -21.0760  -13.2180   22.2550 H   0  0  0  0  0  0  0  0  0  0  0  0
  -25.3060  -15.2970   20.2430 N   0  0  0  0  0  0  0  0  0  0  0  0
  -24.5360  -15.9420   20.3780 H   0  0  0  0  0  0  0  0  0  0  0  0
  -26.1330  -15.7420   19.8700 H   0  0  0  0  0  0  0  0  0  0  0  0
  1 10  1  0
  2  5  1  0
  3 53  1  0
  3  1  2  0
  4  2  2  0
  4  3  1  0
  5 10  2  0
  5  7  1  0
  6  2  1  0
  6 11  1  0
  8  7  1  0
  9  4  1  0
 11  8  1  0
 12 14  1  0
 12 11  1  0
 13 24  2  0
 14 19  1  0
 15 23  1  0
 15 25  1  0
 16 22  1  0
 16 18  1  0
 17 23  1  0
 18 19  2  0
 18 17  1  0
 20 14  2  0
 21 20  1  0
 21 16  2  0
 22 15  1  0
 23 13  1  0
 25 27  2  0
 26 25  1  0
 28 26  1  0
 29 38  2  0
 29 34  1  0
 30 26  1  0
 30 34  1  0
 31 30  1  0
 32 33  1  0
 32 31  1  0
 33 29  1  0
 34 35  2  0
 35 36  1  0
 37 36  2  0
 38 37  1  0
 39 13  1  0
 39 40  1  0
 39 49  1  0
 40 43  1  0
 41 45  1  0
 41 40  1  0
 42 41  2  0
 45 44  1  0
 47 45  1  0
 47 48  1  0
 47 46  1  0
 49 52  1  1
 49 50  1  0
 51 49  1  0
 55 60  1  0
 56 57  1  0
 56 55  1  0
 58 57  1  0
 58 67  1  0
 58 59  1  0
 60 54  1  0
 60 59  1  0
 61 54  2  0
 62 54  1  0
 62 53  1  0
 63 62  1  0
 64 65  2  0
 65 84  1  0
 66 65  1  0
 66 69  1  0
 67 64  1  0
 67 68  1  0
 68 66  2  0
 69 70  1  0
 70 71  2  0
 72 75  1  0
 72 71  1  0
 73 72  2  0
 74 73  1  0
 74 69  2  0
 75 76  1  0
 76 77  1  0
 77 78  2  0
 79 78  1  0
 79 83  1  0
 80 79  2  0
 81 76  2  0
 81 80  1  0
 82 81  1  0
 84 85  1  0
 85 88  1  0
 85 87  1  0
 86 84  2  0
 89 90  1  0
 89 64  1  0
 91 89  1  0
M  ISO  4  11 101  12 101  54 100  62 100
M  END
>  <TORSDO>  (45) 
F 17

>  <SCORE>  (45) 
-15.834

>  <name>  (45) 
44

>  <ligand_id>  (45) 
44

>  <original_smiles>  (45) 
[H]c1nc2c(c(C([H])([H])[H])c1C([H])([H])N([H])C(=O)N1C([H])([H])C([H])([H])C([H])([H])C([H])(n3nc(-c4c([H])c([H])c(Oc5c([H])c([H])c(F)c([H])c5F)c([H])c4[H])c(C(=O)N([H])[H])c3N([H])[H])C1([H])[H])C([H])([H])N(Oc1c([H])c([H])c3c(c1[H])C([H])([H])N(C(=O)C([H])(N([H])C(=O)C([H])(N([H])C([H])([H])[H])C([H])([H])[H])C(C([H])([H])[H])(C([H])([H])[H])C([H])([H])[H])C([H])(C(=O)N([H])C1([H])c4c([H])c([H])c([H])c([H])c4C([H])([H])C([H])([H])C1([H])[H])C3([H])[H])C([H])([H])C2([H])[H]

>  <smiles>  (45) 
[H]c1nc2c(c(C([H])([H])[H])c1C([H])([H])N([H])C(=O)N1C([H])([H])C([H])([H])C([H])([H])C([H])(n3nc(-c4c([H])c([H])c(Oc5c([H])c([H])c(F)c([H])c5F)c([H])c4[H])c(C(=O)N([H])[H])c3N([H])[H])C1([H])[H])C([H])([H])N(Oc1c([H])c([H])c3c(c1[H])C([H])([H])N(C(=O)C([H])(N([H])C(=O)C([H])(N([H])C([H])([H])[H])C([H])([H])[H])C(C([H])([H])[H])(C([H])([H])[H])C([H])([H])[H])C([H])(C(=O)N([H])C1([H])c4c([H])c([H])c([H])c([H])c4C([H])([H])C([H])([H])C1([H])[H])C3([H])[H])C([H])([H])C2([H])[H]

$$$$
45:0:0
     RDKit          3D

 89 98  0  0  1  0  0  0  0  0999 V2000
  -26.7470  -20.9820   19.0030 C   0  0  0  0  0  3  0  0  0  0  0  0
  -27.0410  -22.3080   19.4470 C   0  0  0  0  0  3  0  0  0  0  0  0
  -29.1650  -21.4040   20.1790 C   0  0  0  0  0  3  0  0  0  0  0  0
  -27.6390  -19.8770   19.1350 C   0  0  0  0  0  0  0  0  0  0  0  0
  -28.8580  -19.9210   19.8210 C   0  0  0  0  0  0  0  0  0  0  0  0
  -28.2840  -22.6780   20.0170 C   0  0  0  0  0  0  0  0  0  0  0  0
  -27.5510  -18.6100   18.3240 C   0  0  0  0  0  2  0  0  0  0  0  0
  -29.0350  -18.1950   18.1650 C   0  0  0  0  0  2  0  0  0  0  0  0
  -29.6990  -18.3820   19.5560 C   0  0  0  0  0  3  0  0  0  0  0  0
  -30.4230  -15.4860   20.0340 C   0  0  0  0  0  0  0  0  0  0  0  0
  -30.4740  -13.0040   19.2850 C   0  0  0  0  0  2  0  0  0  0  0  0
  -29.5410  -12.7460   18.0750 C   0  0  0  0  0  2  0  0  0  0  0  0
  -28.0990  -12.4780   18.5380 C   0  0  0  0  0  2  0  0  0  0  0  0
  -27.6630  -13.4340   19.6800 C   0  0  0  0  0  3  0  0  0  0  0  0
  -28.7400  -13.5940   20.7730 C   0  0  0  0  0  2  0  0  0  0  0  0
  -29.9180  -14.1490   20.0900 N   0  0  0  0  0  0  0  0  0  0  0  0
  -31.6440  -15.4950   19.7890 O   0  0  0  0  0  0  0  0  0  0  0  0
  -29.6110  -16.7640   20.0710 N   0  0  0  0  0  0  0  0  0  0  0  0
  -28.6480  -16.5360   20.3020 H   0  0  0  0  0  0  0  0  0  0  0  0
  -25.3200  -13.9720   20.4980 C   0  0  0  0  0  0  0  0  0  0  0  0
  -24.2640  -13.1940   20.8730 C   0  0  0  0  0  0  0  0  0  0  0  0
  -24.7330  -11.8470   20.8220 C   0  0  0  0  0  0  0  0  0  0  0  0
  -26.3540  -13.1060   20.2170 N   0  0  0  0  0  0  0  0  0  0  0  0
  -26.0180  -11.8200   20.4810 N   0  0  0  0  0  0  0  0  0  0  0  0
  -24.0150  -10.5800   21.0090 C   0  0  0  0  0  0  0  0  0  0  0  0
  -24.4490   -9.6070   21.9370 C   0  0  0  0  0  3  0  0  0  0  0  0
  -23.7250   -8.4060   22.1170 C   0  0  0  0  0  3  0  0  0  0  0  0
  -22.5480   -8.1690   21.3670 C   0  0  0  0  0  0  0  0  0  0  0  0
  -22.1320   -9.1280   20.4240 C   0  0  0  0  0  3  0  0  0  0  0  0
  -22.8580  -10.3180   20.2460 C   0  0  0  0  0  3  0  0  0  0  0  0
  -21.7980   -7.0190   21.4530 O   0  0  0  0  0  0  0  0  0  0  0  0
  -21.7280   -6.2910   22.6130 C   0  0  0  0  0  0  0  0  0  0  0  0
  -21.2520   -6.8470   23.8210 C   0  0  0  0  0  3  0  0  0  0  0  0
  -21.1380   -6.0380   24.9670 C   0  0  0  0  0  3  0  0  0  0  0  0
  -21.4910   -4.6770   24.9090 C   0  0  0  0  0  0  0  0  0  0  0  0
  -21.9630   -4.1220   23.7060 C   0  0  0  0  0  3  0  0  0  0  0  0
  -22.0800   -4.9270   22.5600 C   0  0  0  0  0  0  0  0  0  0  0  0
  -22.5160   -4.3810   21.3980 F   0  0  0  0  0  0  0  0  0  0  0  0
  -21.3730   -3.9000   26.0110 F   0  0  0  0  0  0  0  0  0  0  0  0
  -22.8720  -13.6670   21.1700 C   0  0  0  0  0  0  0  0  0  0  0  0
  -22.1510  -12.9590   22.0340 N   0  0  0  0  0  0  0  0  0  0  0  0
  -22.4340  -14.7040   20.6700 O   0  0  0  0  0  0  0  0  0  0  0  0
  -22.5250  -12.1240   22.4660 H   0  0  0  0  0  0  0  0  0  0  0  0
  -21.2200  -13.2750   22.2750 H   0  0  0  0  0  0  0  0  0  0  0  0
  -25.4920  -15.3400   20.3520 N   0  0  0  0  0  0  0  0  0  0  0  0
  -24.7580  -16.0150   20.5170 H   0  0  0  0  0  0  0  0  0  0  0  0
  -26.3530  -15.7750   20.0600 H   0  0  0  0  0  0  0  0  0  0  0  0
  -28.4740  -24.3420   20.5890 C   0  0  0  0  0  2  0  0  0  0  0  0
  -28.2620  -25.9180   20.0740 O   0  0  0  0  0  0  0  0  0  0  0  0
  -24.6240  -31.9160   23.1830 C   0  0  0  0  0  0  0  0  0  0  0  0
  -27.2090  -26.9780   20.2140 C   0  0  0  0  0  0  0  0  0  0  0  0
  -23.4460  -30.4950   21.5600 C   0  0  0  0  0  3  0  0  0  0  0  0
  -24.9030  -28.8610   20.1750 C   0  0  0  0  0  0  0  0  0  0  0  0
  -26.0150  -30.6970   21.4300 C   0  0  0  0  0  2  0  0  0  0  0  0
  -26.0930  -29.2740   20.7890 C   0  0  0  0  0  0  0  0  0  0  0  0
  -27.2440  -28.3550   20.7740 C   0  0  0  0  0  3  0  0  0  0  0  0
  -25.9820  -26.7190   19.5780 C   0  0  0  0  0  3  0  0  0  0  0  0
  -24.8690  -27.6000   19.5560 C   0  0  0  0  0  3  0  0  0  0  0  0
  -23.6890  -29.7890   20.1970 C   0  0  0  0  0  2  0  0  0  0  0  0
  -24.7170  -31.0680   22.1060 N   0  0  0  0  0  0  0  0  0  0  0  0
  -23.5290  -32.2060   23.6930 O   0  0  0  0  0  0  0  0  0  0  0  0
  -22.7510  -29.5100   22.5390 C   0  0  0  0  0  0  0  0  0  0  0  0
  -21.4250  -29.3300   22.4050 N   0  0  0  0  0  0  0  0  0  0  0  0
  -23.4180  -28.8950   23.3770 O   0  0  0  0  0  0  0  0  0  0  0  0
  -20.9330  -29.8750   21.7100 H   0  0  0  0  0  0  0  0  0  0  0  0
  -18.0410  -28.1320   22.9690 C   0  0  0  0  0  0  0  0  0  0  0  0
  -20.6050  -28.4010   23.1880 C   0  0  0  0  0  3  0  0  0  0  0  0
  -20.6930  -26.9720   22.6070 C   0  0  0  0  0  2  0  0  0  0  0  0
  -19.5790  -26.6720   21.5980 C   0  0  0  0  0  2  0  0  0  0  0  0
  -18.2120  -26.7900   22.2770 C   0  0  0  0  0  2  0  0  0  0  0  0
  -19.1650  -28.9010   23.3710 C   0  0  0  0  0  0  0  0  0  0  0  0
  -18.9520  -30.1660   23.9610 C   0  0  0  0  0  3  0  0  0  0  0  0
  -17.6480  -30.6650   24.1500 C   0  0  0  0  0  3  0  0  0  0  0  0
  -16.5390  -29.8930   23.7590 C   0  0  0  0  0  3  0  0  0  0  0  0
  -16.7360  -28.6310   23.1740 C   0  0  0  0  0  3  0  0  0  0  0  0
  -25.8850  -32.5730   23.8200 C   0  0  0  0  0  3  0  0  0  0  0  0
  -25.5520  -33.9740   24.1390 N   0  0  0  0  0  0  0  0  0  0  0  0
  -25.8790  -35.0350   23.3910 C   0  0  0  0  0  0  0  0  0  0  0  0
  -26.5590  -34.9400   22.3700 O   0  0  0  0  0  0  0  0  0  0  0  0
  -24.9470  -34.1240   24.9290 H   0  0  0  0  0  0  0  0  0  0  0  0
  -24.1570  -36.8310   23.0190 C   0  0  0  0  0  1  0  0  0  0  0  0
  -25.3840  -36.4230   23.8470 C   0  0  0  0  0  3  0  0  0  0  0  0
  -27.5010  -37.3140   24.7190 C   0  0  0  0  0  1  0  0  0  0  0  0
  -26.4140  -37.4830   23.7580 N   0  0  0  0  0  0  0  0  0  0  0  0
  -26.0010  -38.4010   23.9020 H   0  0  0  0  0  0  0  0  0  0  0  0
  -26.3870  -31.8300   25.1200 C   0  0  1  0  0  0  0  0  0  0  0  0
  -25.2750  -31.6010   26.1700 C   0  0  0  0  0  1  0  0  0  0  0  0
  -26.9910  -30.4540   24.7690 C   0  0  0  0  0  1  0  0  0  0  0  0
  -27.5200  -32.6470   25.7840 C   0  0  0  0  0  1  0  0  0  0  0  0
  1  4  2  0
  1  2  1  0
  2  6  2  0
  4  5  1  0
  5  3  2  0
  6  3  1  0
  6 48  1  0
  7  4  1  0
  8  7  1  0
  8  9  1  0
  9  5  1  0
  9 18  1  0
 10 18  1  0
 10 16  1  0
 11 16  1  0
 12 13  1  0
 12 11  1  0
 14 13  1  0
 14 23  1  0
 14 15  1  0
 16 15  1  0
 17 10  2  0
 18 19  1  0
 20 21  2  0
 21 40  1  0
 22 21  1  0
 22 25  1  0
 23 24  1  0
 23 20  1  0
 24 22  2  0
 25 26  1  0
 26 27  2  0
 28 31  1  0
 28 27  1  0
 29 28  2  0
 30 29  1  0
 30 25  2  0
 31 32  1  0
 32 33  1  0
 33 34  2  0
 35 34  1  0
 35 39  1  0
 36 35  2  0
 37 32  2  0
 37 36  1  0
 38 37  1  0
 40 41  1  0
 41 44  1  0
 41 43  1  0
 42 40  2  0
 45 20  1  0
 45 46  1  0
 47 45  1  0
 49 51  1  0
 49 48  1  0
 50 61  2  0
 51 56  1  0
 52 60  1  0
 52 62  1  0
 53 59  1  0
 53 55  1  0
 54 60  1  0
 55 54  1  0
 56 55  2  0
 57 51  2  0
 58 57  1  0
 58 53  2  0
 59 52  1  0
 60 50  1  0
 62 64  2  0
 63 62  1  0
 65 63  1  0
 66 75  2  0
 66 71  1  0
 67 63  1  0
 67 71  1  0
 68 67  1  0
 69 70  1  0
 69 68  1  0
 70 66  1  0
 71 72  2  0
 72 73  1  0
 74 73  2  0
 75 74  1  0
 76 50  1  0
 76 77  1  0
 76 86  1  0
 77 80  1  0
 78 82  1  0
 78 77  1  0
 79 78  2  0
 82 81  1  0
 84 82  1  0
 84 85  1  0
 84 83  1  0
 86 89  1  1
 86 87  1  0
 88 86  1  0
M  ISO  4  10 100  18 100  48 101  49 101
M  END
>  <TORSDO>  (46) 
F 17

>  <SCORE>  (46) 
-16.681

>  <name>  (46) 
45

>  <ligand_id>  (46) 
45

>  <original_smiles>  (46) 
[H]c1c([H])c([H])c2c(c1[H])C([H])([H])C([H])([H])C([H])([H])C2([H])N([H])C(=O)C1([H])N(C(=O)C([H])(N([H])C(=O)C([H])(N([H])C([H])([H])[H])C([H])([H])[H])C(C([H])([H])[H])(C([H])([H])[H])C([H])([H])[H])C([H])([H])c2c([H])c(OC([H])([H])c3c([H])c([H])c4c(c3[H])C([H])(N([H])C(=O)N3C([H])([H])C([H])([H])C([H])([H])C([H])(n5nc(-c6c([H])c([H])c(Oc7c([H])c([H])c(F)c([H])c7F)c([H])c6[H])c(C(=O)N([H])[H])c5N([H])[H])C3([H])[H])C([H])([H])C4([H])[H])c([H])c([H])c2C1([H])[H]

>  <smiles>  (46) 
[H]c1c([H])c([H])c2c(c1[H])C([H])([H])C([H])([H])C([H])([H])C2([H])N([H])C(=O)C1([H])N(C(=O)C([H])(N([H])C(=O)C([H])(N([H])C([H])([H])[H])C([H])([H])[H])C(C([H])([H])[H])(C([H])([H])[H])C([H])([H])[H])C([H])([H])c2c([H])c(OC([H])([H])c3c([H])c([H])c4c(c3[H])C([H])(N([H])C(=O)N3C([H])([H])C([H])([H])C([H])([H])C([H])(n5nc(-c6c([H])c([H])c(Oc7c([H])c([H])c(F)c([H])c7F)c([H])c6[H])c(C(=O)N([H])[H])c5N([H])[H])C3([H])[H])C([H])([H])C4([H])[H])c([H])c([H])c2C1([H])[H]

$$$$
46:0:0
     RDKit          3D

 94102  0  0  1  0  0  0  0  0999 V2000
  -28.9210  -20.4950   19.8560 C   0  0  0  0  0  2  0  0  0  0  0  0
  -29.7020  -21.3140   22.1240 C   0  0  0  0  0  2  0  0  0  0  0  0
  -29.1030  -21.9420   19.3220 C   0  0  0  0  0  2  0  0  0  0  0  0
  -28.7530  -22.4780   21.7280 C   0  0  0  0  0  2  0  0  0  0  0  0
  -29.8220  -20.1720   21.0730 C   0  0  0  0  0  3  0  0  0  0  0  0
  -29.0190  -23.0160   20.3650 N   0  0  2  0  0  4  0  0  0  0  0  0
  -29.9540  -23.4040   20.3970 H   0  0  0  0  0  0  0  0  0  0  0  0
  -29.5370  -18.8480   21.7090 N   0  0  0  0  0  4  0  0  0  0  0  0
  -28.6110  -18.8850   22.1050 H   0  0  0  0  0  0  0  0  0  0  0  0
  -30.1700  -18.7090   22.4830 H   0  0  0  0  0  0  0  0  0  0  0  0
  -29.5910  -17.5990   20.9040 C   0  0  0  0  0  2  0  0  0  0  0  0
  -31.2050  -16.6440   22.6740 C   0  0  0  0  0  1  0  0  0  0  0  0
  -30.8450  -16.7160   21.1760 C   0  0  0  0  0  3  0  0  0  0  0  0
  -31.2590  -14.4370   20.0590 C   0  0  0  0  0  0  0  0  0  0  0  0
  -30.9170  -12.2610   18.9310 C   0  0  0  0  0  2  0  0  0  0  0  0
  -29.9250  -12.4360   17.7610 C   0  0  0  0  0  2  0  0  0  0  0  0
  -28.4540  -12.3840   18.2360 C   0  0  0  0  0  2  0  0  0  0  0  0
  -28.1950  -13.2710   19.4820 C   0  0  0  0  0  3  0  0  0  0  0  0
  -29.2660  -12.9850   20.5550 C   0  0  0  0  0  2  0  0  0  0  0  0
  -30.5860  -13.2620   19.9510 N   0  0  0  0  0  0  0  0  0  0  0  0
  -32.3410  -14.6700   19.5110 O   0  0  0  0  0  0  0  0  0  0  0  0
  -30.5640  -15.3470   20.7590 N   0  0  0  0  0  0  0  0  0  0  0  0
  -29.6890  -14.9700   21.0940 H   0  0  0  0  0  0  0  0  0  0  0  0
  -25.8620  -14.0370   20.2610 C   0  0  0  0  0  0  0  0  0  0  0  0
  -24.7590  -13.3380   20.6710 C   0  0  0  0  0  0  0  0  0  0  0  0
  -25.1290  -11.9600   20.6240 C   0  0  0  0  0  0  0  0  0  0  0  0
  -26.8400  -13.0910   20.0000 N   0  0  0  0  0  0  0  0  0  0  0  0
  -26.4030  -11.8340   20.2710 N   0  0  0  0  0  0  0  0  0  0  0  0
  -24.3320  -10.7470   20.8410 C   0  0  0  0  0  0  0  0  0  0  0  0
  -24.7120   -9.7760   21.7930 C   0  0  0  0  0  3  0  0  0  0  0  0
  -23.9220   -8.6240   21.9960 C   0  0  0  0  0  3  0  0  0  0  0  0
  -22.7350   -8.4390   21.2480 C   0  0  0  0  0  0  0  0  0  0  0  0
  -22.3730   -9.3970   20.2870 C   0  0  0  0  0  3  0  0  0  0  0  0
  -23.1640  -10.5400   20.0810 C   0  0  0  0  0  3  0  0  0  0  0  0
  -21.9170   -7.3390   21.3590 O   0  0  0  0  0  0  0  0  0  0  0  0
  -21.7920   -6.6550   22.5420 C   0  0  0  0  0  0  0  0  0  0  0  0
  -21.3620   -7.2880   23.7280 C   0  0  0  0  0  3  0  0  0  0  0  0
  -21.1780   -6.5320   24.9030 C   0  0  0  0  0  3  0  0  0  0  0  0
  -21.4120   -5.1440   24.8920 C   0  0  0  0  0  0  0  0  0  0  0  0
  -21.8360   -4.5110   23.7100 C   0  0  0  0  0  3  0  0  0  0  0  0
  -22.0210   -5.2640   22.5380 C   0  0  0  0  0  0  0  0  0  0  0  0
  -22.4070   -4.6450   21.3970 F   0  0  0  0  0  0  0  0  0  0  0  0
  -21.2290   -4.4170   26.0190 F   0  0  0  0  0  0  0  0  0  0  0  0
  -23.4040  -13.9030   20.9900 C   0  0  0  0  0  0  0  0  0  0  0  0
  -22.6710  -13.2640   21.8920 N   0  0  0  0  0  0  0  0  0  0  0  0
  -23.0120  -14.9500   20.4760 O   0  0  0  0  0  0  0  0  0  0  0  0
  -23.0020  -12.4170   22.3290 H   0  0  0  0  0  0  0  0  0  0  0  0
  -21.7630  -13.6250   22.1470 H   0  0  0  0  0  0  0  0  0  0  0  0
  -26.1050  -15.3950   20.0680 N   0  0  0  0  0  0  0  0  0  0  0  0
  -25.3590  -16.0770   20.1420 H   0  0  0  0  0  0  0  0  0  0  0  0
  -26.9240  -15.7550   19.5920 H   0  0  0  0  0  0  0  0  0  0  0  0
  -28.1390  -24.1700   19.9780 C   0  0  0  0  0  2  0  0  0  0  0  0
  -28.3770  -25.4540   20.8270 C   0  0  0  0  0  2  0  0  0  0  0  0
  -28.3850  -26.6900   20.0870 O   0  0  0  0  0  0  0  0  0  0  0  0
  -24.6380  -31.8980   23.2320 C   0  0  0  0  0  0  0  0  0  0  0  0
  -27.2260  -27.4310   20.1270 C   0  0  0  0  0  0  0  0  0  0  0  0
  -23.4110  -30.4990   21.6040 C   0  0  0  0  0  3  0  0  0  0  0  0
  -24.8430  -28.9520   20.1660 C   0  0  0  0  0  0  0  0  0  0  0  0
  -25.9390  -30.8460   21.3780 C   0  0  0  0  0  2  0  0  0  0  0  0
  -26.0120  -29.4730   20.7370 C   0  0  0  0  0  0  0  0  0  0  0  0
  -27.2100  -28.7180   20.7120 C   0  0  0  0  0  3  0  0  0  0  0  0
  -26.0440  -26.9260   19.5490 C   0  0  0  0  0  3  0  0  0  0  0  0
  -24.8540  -27.6810   19.5710 C   0  0  0  0  0  3  0  0  0  0  0  0
  -23.6050  -29.8230   20.2220 C   0  0  0  0  0  2  0  0  0  0  0  0
  -24.6820  -31.0980   22.1280 N   0  0  0  0  0  0  0  0  0  0  0  0
  -23.5650  -32.1750   23.7840 O   0  0  0  0  0  0  0  0  0  0  0  0
  -22.7680  -29.4780   22.5710 C   0  0  0  0  0  0  0  0  0  0  0  0
  -21.4460  -29.2750   22.4370 N   0  0  0  0  0  0  0  0  0  0  0  0
  -23.4540  -28.8710   23.3960 O   0  0  0  0  0  0  0  0  0  0  0  0
  -20.9570  -29.8190   21.7420 H   0  0  0  0  0  0  0  0  0  0  0  0
  -18.0910  -28.0050   22.8910 C   0  0  0  0  0  0  0  0  0  0  0  0
  -20.6370  -28.3370   23.2120 C   0  0  0  0  0  3  0  0  0  0  0  0
  -20.7870  -26.8950   22.6760 C   0  0  0  0  0  2  0  0  0  0  0  0
  -19.7160  -26.5190   21.6470 C   0  0  0  0  0  2  0  0  0  0  0  0
  -18.3160  -26.6440   22.2560 C   0  0  0  0  0  2  0  0  0  0  0  0
  -19.1810  -28.8060   23.3260 C   0  0  0  0  0  0  0  0  0  0  0  0
  -18.9180  -30.0790   23.8760 C   0  0  0  0  0  3  0  0  0  0  0  0
  -17.5970  -30.5510   23.9980 C   0  0  0  0  0  3  0  0  0  0  0  0
  -16.5210  -29.7450   23.5850 C   0  0  0  0  0  3  0  0  0  0  0  0
  -16.7700  -28.4750   23.0340 C   0  0  0  0  0  3  0  0  0  0  0  0
  -25.9330  -32.5260   23.8370 C   0  0  0  0  0  3  0  0  0  0  0  0
  -25.6320  -33.9210   24.1790 N   0  0  0  0  0  0  0  0  0  0  0  0
  -25.9530  -34.9770   23.4180 C   0  0  0  0  0  0  0  0  0  0  0  0
  -26.6070  -34.8800   22.3770 O   0  0  0  0  0  0  0  0  0  0  0  0
  -25.0520  -34.0720   24.9910 H   0  0  0  0  0  0  0  0  0  0  0  0
  -24.2180  -36.7680   23.0910 C   0  0  0  0  0  1  0  0  0  0  0  0
  -25.4690  -36.3630   23.8870 C   0  0  0  0  0  3  0  0  0  0  0  0
  -27.6140  -37.2410   24.6970 C   0  0  0  0  0  1  0  0  0  0  0  0
  -26.5010  -37.4170   23.7680 N   0  0  0  0  0  0  0  0  0  0  0  0
  -26.0970  -38.3370   23.9270 H   0  0  0  0  0  0  0  0  0  0  0  0
  -26.4720  -31.7460   25.0980 C   0  0  1  0  0  0  0  0  0  0  0  0
  -25.3970  -31.4910   26.1830 C   0  0  0  0  0  1  0  0  0  0  0  0
  -27.0540  -30.3730   24.6840 C   0  0  0  0  0  1  0  0  0  0  0  0
  -27.6360  -32.5350   25.7460 C   0  0  0  0  0  1  0  0  0  0  0  0
  1  5  1  0
  3  1  1  0
  3  6  1  0
  4  2  1  0
  5  8  1  0
  5  2  1  0
  6  7  1  1
  6  4  1  0
  8  9  1  0
  8 10  1  0
 11 13  1  0
 11  8  1  0
 13 12  1  0
 14 22  1  0
 15 20  1  0
 16 17  1  0
 16 15  1  0
 18 17  1  0
 18 27  1  0
 18 19  1  0
 20 14  1  0
 20 19  1  0
 21 14  2  0
 22 23  1  0
 22 13  1  0
 24 25  2  0
 25 44  1  0
 26 25  1  0
 26 29  1  0
 27 24  1  0
 27 28  1  0
 28 26  2  0
 29 30  1  0
 30 31  2  0
 32 35  1  0
 32 31  1  0
 33 32  2  0
 34 33  1  0
 34 29  2  0
 35 36  1  0
 36 37  1  0
 37 38  2  0
 39 38  1  0
 39 43  1  0
 40 39  2  0
 41 36  2  0
 41 40  1  0
 42 41  1  0
 44 45  1  0
 45 48  1  0
 45 47  1  0
 46 44  2  0
 49 50  1  0
 49 24  1  0
 51 49  1  0
 52  6  1  0
 52 53  1  0
 54 56  1  0
 54 53  1  0
 55 66  2  0
 56 61  1  0
 57 65  1  0
 57 67  1  0
 58 64  1  0
 58 60  1  0
 59 65  1  0
 60 59  1  0
 61 60  2  0
 62 63  1  0
 62 56  2  0
 63 58  2  0
 64 57  1  0
 65 55  1  0
 67 69  2  0
 68 67  1  0
 70 68  1  0
 71 80  2  0
 71 76  1  0
 72 68  1  0
 72 76  1  0
 73 72  1  0
 74 75  1  0
 74 73  1  0
 75 71  1  0
 76 77  2  0
 77 78  1  0
 79 78  2  0
 80 79  1  0
 81 55  1  0
 81 82  1  0
 81 91  1  0
 82 85  1  0
 83 87  1  0
 83 82  1  0
 84 83  2  0
 87 86  1  0
 89 87  1  0
 89 90  1  0
 89 88  1  0
 91 94  1  1
 91 92  1  0
 93 91  1  0
M  ISO  4  14 100  22 100  53 101  54 101
M  END
>  <TORSDO>  (47) 
F 21

>  <SCORE>  (47) 
-12.583

>  <name>  (47) 
46

>  <ligand_id>  (47) 
46

>  <original_smiles>  (47) 
[H]c1c([H])c([H])c2c(c1[H])C([H])([H])C([H])([H])C([H])([H])C2([H])N([H])C(=O)C1([H])N(C(=O)C([H])(N([H])C(=O)C([H])(N([H])C([H])([H])[H])C([H])([H])[H])C(C([H])([H])[H])(C([H])([H])[H])C([H])([H])[H])C([H])([H])c2c([H])c(OC([H])([H])C([H])([H])[N+]3([H])C([H])([H])C([H])([H])C([H])([N+]([H])([H])C([H])([H])C([H])(N([H])C(=O)N4C([H])([H])C([H])([H])C([H])([H])C([H])(n5nc(-c6c([H])c([H])c(Oc7c([H])c([H])c(F)c([H])c7F)c([H])c6[H])c(C(=O)N([H])[H])c5N([H])[H])C4([H])[H])C([H])([H])[H])C([H])([H])C3([H])[H])c([H])c([H])c2C1([H])[H]

>  <smiles>  (47) 
[H]c1c([H])c([H])c2c(c1[H])C([H])([H])C([H])([H])C([H])([H])C2([H])N([H])C(=O)C1([H])N(C(=O)C([H])(N([H])C(=O)C([H])(N([H])C([H])([H])[H])C([H])([H])[H])C(C([H])([H])[H])(C([H])([H])[H])C([H])([H])[H])C([H])([H])c2c([H])c(OC([H])([H])C([H])([H])[N+]3([H])C([H])([H])C([H])([H])C([H])([N+]([H])([H])C([H])([H])C([H])(N([H])C(=O)N4C([H])([H])C([H])([H])C([H])([H])C([H])(n5nc(-c6c([H])c([H])c(Oc7c([H])c([H])c(F)c([H])c7F)c([H])c6[H])c(C(=O)N([H])[H])c5N([H])[H])C4([H])[H])C([H])([H])[H])C([H])([H])C3([H])[H])c([H])c([H])c2C1([H])[H]

$$$$
47:0:0
     RDKit          3D

 94102  0  0  1  0  0  0  0  0999 V2000
  -30.2480  -22.1700   22.7810 C   0  0  0  0  0  2  0  0  0  0  0  0
  -29.1230  -23.0700   23.3170 C   0  0  0  0  0  2  0  0  0  0  0  0
  -28.8730  -23.0300   21.0060 C   0  0  0  0  0  3  0  0  0  0  0  0
  -29.9430  -21.9450   21.2870 C   0  0  0  0  0  3  0  0  0  0  0  0
  -28.1100  -23.0770   22.2650 N   0  0  0  0  0  0  0  0  0  0  0  0
  -27.5060  -23.8910   22.3420 H   0  0  0  0  0  0  0  0  0  0  0  0
  -29.3940  -20.5790   21.0350 N   0  0  0  0  0  4  0  0  0  0  0  0
  -28.9760  -20.5760   20.1180 H   0  0  0  0  0  0  0  0  0  0  0  0
  -28.6510  -20.4320   21.7010 H   0  0  0  0  0  0  0  0  0  0  0  0
  -30.3670  -19.4510   21.1000 C   0  0  0  0  0  2  0  0  0  0  0  0
  -29.7220  -18.0440   20.9310 C   0  0  0  0  0  2  0  0  0  0  0  0
  -30.7580  -16.8930   21.0500 C   0  0  0  0  0  2  0  0  0  0  0  0
  -30.8020  -14.5150   20.2690 C   0  0  0  0  0  0  0  0  0  0  0  0
  -30.4270  -12.3670   19.1160 C   0  0  0  0  0  2  0  0  0  0  0  0
  -29.4610  -12.5790   17.9320 C   0  0  0  0  0  2  0  0  0  0  0  0
  -27.9970  -12.4590   18.4010 C   0  0  0  0  0  2  0  0  0  0  0  0
  -27.6990  -13.3030   19.6690 C   0  0  0  0  0  3  0  0  0  0  0  0
  -28.7780  -13.0810   20.7530 C   0  0  0  0  0  2  0  0  0  0  0  0
  -30.0930  -13.3610   20.1490 N   0  0  0  0  0  0  0  0  0  0  0  0
  -31.9050  -14.6760   19.7390 O   0  0  0  0  0  0  0  0  0  0  0  0
  -30.1900  -15.5380   20.8980 N   0  0  0  0  0  0  0  0  0  0  0  0
  -29.2810  -15.3540   21.2950 H   0  0  0  0  0  0  0  0  0  0  0  0
  -25.3290  -13.9330   20.4480 C   0  0  0  0  0  0  0  0  0  0  0  0
  -24.2600  -13.1720   20.8380 C   0  0  0  0  0  0  0  0  0  0  0  0
  -24.7020  -11.8150   20.7820 C   0  0  0  0  0  0  0  0  0  0  0  0
  -26.3560  -13.0410   20.1800 N   0  0  0  0  0  0  0  0  0  0  0  0
  -25.9820  -11.7610   20.4370 N   0  0  0  0  0  0  0  0  0  0  0  0
  -23.9650  -10.5600   20.9780 C   0  0  0  0  0  0  0  0  0  0  0  0
  -24.3980   -9.5850   21.9030 C   0  0  0  0  0  3  0  0  0  0  0  0
  -23.6600   -8.3960   22.0890 C   0  0  0  0  0  3  0  0  0  0  0  0
  -22.4760   -8.1730   21.3480 C   0  0  0  0  0  0  0  0  0  0  0  0
  -22.0600   -9.1370   20.4120 C   0  0  0  0  0  3  0  0  0  0  0  0
  -22.7990  -10.3170   20.2250 C   0  0  0  0  0  3  0  0  0  0  0  0
  -21.7100   -7.0360   21.4420 O   0  0  0  0  0  0  0  0  0  0  0  0
  -21.6520   -6.3000   22.5990 C   0  0  0  0  0  0  0  0  0  0  0  0
  -21.2140   -6.8620   23.8170 C   0  0  0  0  0  3  0  0  0  0  0  0
  -21.1030   -6.0530   24.9670 C   0  0  0  0  0  3  0  0  0  0  0  0
  -21.4210   -4.6830   24.8970 C   0  0  0  0  0  0  0  0  0  0  0  0
  -21.8540   -4.1210   23.6830 C   0  0  0  0  0  3  0  0  0  0  0  0
  -21.9650   -4.9280   22.5360 C   0  0  0  0  0  0  0  0  0  0  0  0
  -22.3620   -4.3760   21.3640 F   0  0  0  0  0  0  0  0  0  0  0  0
  -21.3090   -3.9050   25.9980 F   0  0  0  0  0  0  0  0  0  0  0  0
  -22.8780  -13.6660   21.1530 C   0  0  0  0  0  0  0  0  0  0  0  0
  -22.1630  -12.9710   22.0320 N   0  0  0  0  0  0  0  0  0  0  0  0
  -22.4410  -14.7040   20.6580 O   0  0  0  0  0  0  0  0  0  0  0  0
  -22.5310  -12.1330   22.4590 H   0  0  0  0  0  0  0  0  0  0  0  0
  -21.2360  -13.2830   22.2830 H   0  0  0  0  0  0  0  0  0  0  0  0
  -25.5090  -15.3030   20.2810 N   0  0  0  0  0  0  0  0  0  0  0  0
  -24.7540  -15.9680   20.4170 H   0  0  0  0  0  0  0  0  0  0  0  0
  -26.3540  -15.7320   19.9250 H   0  0  0  0  0  0  0  0  0  0  0  0
  -29.4420  -24.4270   20.5700 C   0  0  0  0  0  0  0  0  0  0  0  0
  -30.5820  -24.8190   20.8440 O   0  0  0  0  0  0  0  0  0  0  0  0
  -28.4640  -25.3410   19.8070 C   0  0  0  0  0  2  0  0  0  0  0  0
  -28.6060  -26.7460   20.1200 O   0  0  0  0  0  0  0  0  0  0  0  0
  -24.6730  -31.8240   23.2190 C   0  0  0  0  0  0  0  0  0  0  0  0
  -27.4380  -27.4900   20.0710 C   0  0  0  0  0  0  0  0  0  0  0  0
  -23.5190  -30.4450   21.5240 C   0  0  0  0  0  3  0  0  0  0  0  0
  -25.0220  -28.9760   20.0820 C   0  0  0  0  0  0  0  0  0  0  0  0
  -26.0450  -30.8460   21.3810 C   0  0  0  0  0  2  0  0  0  0  0  0
  -26.1630  -29.4950   20.7040 C   0  0  0  0  0  0  0  0  0  0  0  0
  -27.3750  -28.7590   20.6980 C   0  0  0  0  0  3  0  0  0  0  0  0
  -26.2750  -27.0090   19.4190 C   0  0  0  0  0  3  0  0  0  0  0  0
  -25.0740  -27.7330   19.4350 C   0  0  0  0  0  3  0  0  0  0  0  0
  -23.7630  -29.8110   20.1300 C   0  0  0  0  0  2  0  0  0  0  0  0
  -24.7620  -31.0520   22.1000 N   0  0  0  0  0  0  0  0  0  0  0  0
  -23.5780  -32.0640   23.7470 O   0  0  0  0  0  0  0  0  0  0  0  0
  -22.8710  -29.3860   22.4450 C   0  0  0  0  0  0  0  0  0  0  0  0
  -21.5480  -29.2000   22.3060 N   0  0  0  0  0  0  0  0  0  0  0  0
  -23.5560  -28.7370   23.2400 O   0  0  0  0  0  0  0  0  0  0  0  0
  -21.0560  -29.7760   21.6380 H   0  0  0  0  0  0  0  0  0  0  0  0
  -18.1740  -27.9980   22.7850 C   0  0  0  0  0  0  0  0  0  0  0  0
  -20.7350  -28.2320   23.0430 C   0  0  0  0  0  3  0  0  0  0  0  0
  -20.8250  -26.8270   22.4030 C   0  0  0  0  0  2  0  0  0  0  0  0
  -19.7120  -26.5540   21.3860 C   0  0  0  0  0  2  0  0  0  0  0  0
  -18.3370  -26.6780   22.0490 C   0  0  0  0  0  2  0  0  0  0  0  0
  -19.3000  -28.7340   23.2370 C   0  0  0  0  0  0  0  0  0  0  0  0
  -19.0930  -29.9730   23.8840 C   0  0  0  0  0  3  0  0  0  0  0  0
  -17.7930  -30.4730   24.0830 C   0  0  0  0  0  3  0  0  0  0  0  0
  -16.6820  -29.7320   23.6470 C   0  0  0  0  0  3  0  0  0  0  0  0
  -16.8720  -28.4970   23.0030 C   0  0  0  0  0  3  0  0  0  0  0  0
  -25.9380  -32.4620   23.8730 C   0  0  0  0  0  3  0  0  0  0  0  0
  -25.6090  -33.8550   24.2030 N   0  0  0  0  0  0  0  0  0  0  0  0
  -25.9310  -34.9120   23.4450 C   0  0  0  0  0  0  0  0  0  0  0  0
  -26.6070  -34.8170   22.4170 O   0  0  0  0  0  0  0  0  0  0  0  0
  -25.0090  -34.0010   25.0020 H   0  0  0  0  0  0  0  0  0  0  0  0
  -24.1710  -36.6720   23.0910 C   0  0  0  0  0  1  0  0  0  0  0  0
  -25.4210  -36.2930   23.8990 C   0  0  0  0  0  3  0  0  0  0  0  0
  -27.5390  -37.2190   24.7260 C   0  0  0  0  0  1  0  0  0  0  0  0
  -26.4350  -37.3630   23.7810 N   0  0  0  0  0  0  0  0  0  0  0  0
  -26.0130  -38.2760   23.9210 H   0  0  0  0  0  0  0  0  0  0  0  0
  -26.4320  -31.6860   25.1550 C   0  0  1  0  0  0  0  0  0  0  0  0
  -25.3170  -31.4310   26.1950 C   0  0  0  0  0  1  0  0  0  0  0  0
  -27.0390  -30.3170   24.7680 C   0  0  0  0  0  1  0  0  0  0  0  0
  -27.5570  -32.4890   25.8520 C   0  0  0  0  0  1  0  0  0  0  0  0
  1  2  1  0
  3 51  1  0
  3  4  1  0
  3  5  1  0
  4  7  1  0
  4  1  1  0
  5  6  1  0
  5  2  1  0
  7 10  1  0
  7  9  1  0
  8  7  1  0
 11 12  1  0
 11 10  1  0
 13 21  1  0
 14 19  1  0
 15 16  1  0
 15 14  1  0
 17 16  1  0
 17 26  1  0
 17 18  1  0
 19 13  1  0
 19 18  1  0
 20 13  2  0
 21 12  1  0
 21 22  1  0
 23 24  2  0
 24 43  1  0
 25 24  1  0
 25 28  1  0
 26 27  1  0
 26 23  1  0
 27 25  2  0
 28 29  1  0
 29 30  2  0
 31 34  1  0
 31 30  1  0
 32 31  2  0
 33 32  1  0
 33 28  2  0
 34 35  1  0
 35 36  1  0
 36 37  2  0
 38 37  1  0
 38 42  1  0
 39 38  2  0
 40 35  2  0
 40 39  1  0
 41 40  1  0
 43 44  1  0
 44 47  1  0
 44 46  1  0
 45 43  2  0
 48 49  1  0
 48 23  1  0
 50 48  1  0
 51 52  2  0
 53 54  1  0
 53 51  1  0
 55 66  2  0
 56 54  1  0
 56 61  1  0
 57 65  1  0
 57 67  1  0
 58 64  1  0
 58 60  1  0
 59 65  1  0
 60 59  1  0
 61 60  2  0
 62 63  1  0
 62 56  2  0
 63 58  2  0
 64 57  1  0
 65 55  1  0
 67 69  2  0
 68 67  1  0
 70 68  1  0
 71 80  2  0
 71 76  1  0
 72 68  1  0
 72 76  1  0
 73 72  1  0
 74 75  1  0
 74 73  1  0
 75 71  1  0
 76 77  2  0
 77 78  1  0
 79 78  2  0
 80 79  1  0
 81 55  1  0
 81 82  1  0
 81 91  1  0
 82 85  1  0
 83 87  1  0
 83 82  1  0
 84 83  2  0
 87 86  1  0
 89 87  1  0
 89 90  1  0
 89 88  1  0
 91 94  1  1
 91 92  1  0
 93 91  1  0
M  ISO  4  13 100  21 100  53 101  54 101
M  END
>  <TORSDO>  (48) 
F 22

>  <SCORE>  (48) 
-13.047

>  <name>  (48) 
47

>  <ligand_id>  (48) 
47

>  <original_smiles>  (48) 
[H]c1c([H])c([H])c2c(c1[H])C([H])([H])C([H])([H])C([H])([H])C2([H])N([H])C(=O)C1([H])N(C(=O)C([H])(N([H])C(=O)C([H])(N([H])C([H])([H])[H])C([H])([H])[H])C(C([H])([H])[H])(C([H])([H])[H])C([H])([H])[H])C([H])([H])c2c([H])c(OC([H])([H])C(=O)C3([H])N([H])C([H])([H])C([H])([H])C3([H])[N+]([H])([H])C([H])([H])C([H])([H])C([H])([H])N([H])C(=O)N3C([H])([H])C([H])([H])C([H])([H])C([H])(n4nc(-c5c([H])c([H])c(Oc6c([H])c([H])c(F)c([H])c6F)c([H])c5[H])c(C(=O)N([H])[H])c4N([H])[H])C3([H])[H])c([H])c([H])c2C1([H])[H]

>  <smiles>  (48) 
[H]c1c([H])c([H])c2c(c1[H])C([H])([H])C([H])([H])C([H])([H])C2([H])N([H])C(=O)C1([H])N(C(=O)C([H])(N([H])C(=O)C([H])(N([H])C([H])([H])[H])C([H])([H])[H])C(C([H])([H])[H])(C([H])([H])[H])C([H])([H])[H])C([H])([H])c2c([H])c(OC([H])([H])C(=O)C3([H])N([H])C([H])([H])C([H])([H])C3([H])[N+]([H])([H])C([H])([H])C([H])([H])C([H])([H])N([H])C(=O)N3C([H])([H])C([H])([H])C([H])([H])C([H])(n4nc(-c5c([H])c([H])c(Oc6c([H])c([H])c(F)c([H])c6F)c([H])c5[H])c(C(=O)N([H])[H])c4N([H])[H])C3([H])[H])c([H])c([H])c2C1([H])[H]

$$$$
48:0:0
     RDKit          3D

 96105  0  0  1  0  0  0  0  0999 V2000
  -27.8450  -24.9400   21.9330 C   0  0  0  0  0  2  0  0  0  0  0  0
  -27.3160  -23.5390   22.2650 C   0  0  0  0  0  2  0  0  0  0  0  0
  -27.3070  -22.8410   19.8660 C   0  0  0  0  0  2  0  0  0  0  0  0
  -28.7160  -23.4960   19.8570 C   0  0  0  0  0  3  0  0  0  0  0  0
  -28.6790  -24.9930   20.6250 C   0  0  0  0  0  3  0  0  0  0  0  0
  -26.5320  -23.0460   21.1180 N   0  0  0  0  0  4  0  0  0  0  0  0
  -25.8150  -23.7270   20.9230 H   0  0  0  0  0  0  0  0  0  0  0  0
  -26.0510  -22.1980   21.3710 H   0  0  0  0  0  0  0  0  0  0  0  0
  -28.6010  -26.4220   20.0490 O   0  0  0  0  0  0  0  0  0  0  0  0
  -24.6230  -31.7530   23.1430 C   0  0  0  0  0  0  0  0  0  0  0  0
  -27.4580  -27.2780   20.0650 C   0  0  0  0  0  0  0  0  0  0  0  0
  -23.5070  -30.3370   21.4580 C   0  0  0  0  0  3  0  0  0  0  0  0
  -25.0460  -28.8670   20.0210 C   0  0  0  0  0  0  0  0  0  0  0  0
  -26.0390  -30.7460   21.3250 C   0  0  0  0  0  2  0  0  0  0  0  0
  -26.1890  -29.3760   20.6500 C   0  0  0  0  0  0  0  0  0  0  0  0
  -27.4000  -28.5970   20.6510 C   0  0  0  0  0  3  0  0  0  0  0  0
  -26.2920  -26.8450   19.4090 C   0  0  0  0  0  3  0  0  0  0  0  0
  -25.1060  -27.6130   19.3860 C   0  0  0  0  0  3  0  0  0  0  0  0
  -23.7740  -29.6970   20.0690 C   0  0  0  0  0  2  0  0  0  0  0  0
  -24.7400  -30.9650   22.0310 N   0  0  0  0  0  0  0  0  0  0  0  0
  -23.5200  -31.9760   23.6630 O   0  0  0  0  0  0  0  0  0  0  0  0
  -22.8650  -29.2810   22.3920 C   0  0  0  0  0  0  0  0  0  0  0  0
  -21.5450  -29.0650   22.2540 N   0  0  0  0  0  0  0  0  0  0  0  0
  -23.5590  -28.6580   23.2000 O   0  0  0  0  0  0  0  0  0  0  0  0
  -21.0420  -29.6200   21.5740 H   0  0  0  0  0  0  0  0  0  0  0  0
  -18.2080  -27.7390   22.7150 C   0  0  0  0  0  0  0  0  0  0  0  0
  -20.7550  -28.0780   22.9920 C   0  0  0  0  0  3  0  0  0  0  0  0
  -20.9080  -26.6690   22.3720 C   0  0  0  0  0  2  0  0  0  0  0  0
  -19.8180  -26.3410   21.3480 C   0  0  0  0  0  2  0  0  0  0  0  0
  -18.4310  -26.4180   21.9960 C   0  0  0  0  0  2  0  0  0  0  0  0
  -19.3020  -28.5250   23.1690 C   0  0  0  0  0  0  0  0  0  0  0  0
  -19.0430  -29.7560   23.8070 C   0  0  0  0  0  3  0  0  0  0  0  0
  -17.7250  -30.2090   23.9940 C   0  0  0  0  0  3  0  0  0  0  0  0
  -16.6440  -29.4220   23.5570 C   0  0  0  0  0  3  0  0  0  0  0  0
  -16.8850  -28.1890   22.9240 C   0  0  0  0  0  3  0  0  0  0  0  0
  -25.8680  -32.4270   23.7980 C   0  0  0  0  0  3  0  0  0  0  0  0
  -25.4950  -33.8090   24.1410 N   0  0  0  0  0  0  0  0  0  0  0  0
  -25.8040  -34.8890   23.4090 C   0  0  0  0  0  0  0  0  0  0  0  0
  -26.4990  -34.8290   22.3910 O   0  0  0  0  0  0  0  0  0  0  0  0
  -24.8640  -33.9250   24.9200 H   0  0  0  0  0  0  0  0  0  0  0  0
  -24.0180  -36.6260   23.0610 C   0  0  0  0  0  1  0  0  0  0  0  0
  -25.2600  -36.2500   23.8800 C   0  0  0  0  0  3  0  0  0  0  0  0
  -27.3510  -37.1990   24.7540 C   0  0  0  0  0  1  0  0  0  0  0  0
  -26.2560  -37.3410   23.7990 N   0  0  0  0  0  0  0  0  0  0  0  0
  -25.8140  -38.2420   23.9600 H   0  0  0  0  0  0  0  0  0  0  0  0
  -26.3900  -31.6610   25.0780 C   0  0  1  0  0  0  0  0  0  0  0  0
  -25.2830  -31.3610   26.1170 C   0  0  0  0  0  1  0  0  0  0  0  0
  -27.0400  -30.3140   24.6840 C   0  0  0  0  0  1  0  0  0  0  0  0
  -27.4930  -32.4950   25.7720 C   0  0  0  0  0  1  0  0  0  0  0  0
  -29.8690  -22.3550   20.2540 C   0  0  0  0  0  2  0  0  0  0  0  0
  -31.1430  -20.0870   19.5330 C   0  0  0  0  0  3  0  0  0  0  0  0
  -28.9820  -19.7650   20.3940 C   0  0  0  0  0  3  0  0  0  0  0  0
  -29.9470  -20.7340   19.9820 C   0  0  0  0  0  0  0  0  0  0  0  0
  -31.4170  -18.6610   19.5970 C   0  0  0  0  0  0  0  0  0  0  0  0
  -29.2170  -18.3340   20.4430 C   0  0  0  0  0  0  0  0  0  0  0  0
  -30.4820  -17.6900   20.1280 C   0  0  0  0  0  0  0  0  0  0  0  0
  -32.8030  -18.2450   19.1400 C   0  0  0  0  0  1  0  0  0  0  0  0
  -28.0230  -17.5020   20.8880 C   0  0  0  0  0  1  0  0  0  0  0  0
  -31.2310  -15.0650   19.8190 C   0  0  0  0  0  0  0  0  0  0  0  0
  -30.8660  -12.7600   18.8370 C   0  0  0  0  0  2  0  0  0  0  0  0
  -29.8840  -12.8170   17.6460 C   0  0  0  0  0  2  0  0  0  0  0  0
  -28.4270  -12.7070   18.1300 C   0  0  0  0  0  2  0  0  0  0  0  0
  -28.1410  -13.6380   19.3370 C   0  0  0  0  0  3  0  0  0  0  0  0
  -29.2360  -13.5520   20.4160 C   0  0  0  0  0  2  0  0  0  0  0  0
  -30.5220  -13.8660   19.7770 N   0  0  0  0  0  0  0  0  0  0  0  0
  -32.3560  -15.0670   19.3110 O   0  0  0  0  0  0  0  0  0  0  0  0
  -31.0620  -16.0560   21.9340 C   0  0  0  0  0  1  0  0  0  0  0  0
  -30.7400  -16.2130   20.5010 N   0  0  0  0  0  0  0  0  0  0  0  0
  -25.8440  -14.3580   20.2070 C   0  0  0  0  0  0  0  0  0  0  0  0
  -24.7520  -13.6450   20.6230 C   0  0  0  0  0  0  0  0  0  0  0  0
  -25.1270  -12.2690   20.5490 C   0  0  0  0  0  0  0  0  0  0  0  0
  -26.8120  -13.4180   19.8960 N   0  0  0  0  0  0  0  0  0  0  0  0
  -26.3940  -12.1550   20.1700 N   0  0  0  0  0  0  0  0  0  0  0  0
  -24.3290  -11.0520   20.7590 C   0  0  0  0  0  0  0  0  0  0  0  0
  -24.7070  -10.0710   21.7010 C   0  0  0  0  0  3  0  0  0  0  0  0
  -23.9110   -8.9210   21.8980 C   0  0  0  0  0  3  0  0  0  0  0  0
  -22.7210   -8.7460   21.1520 C   0  0  0  0  0  0  0  0  0  0  0  0
  -22.3630   -9.7140   20.1960 C   0  0  0  0  0  3  0  0  0  0  0  0
  -23.1590  -10.8530   20.0000 C   0  0  0  0  0  3  0  0  0  0  0  0
  -21.8990   -7.6490   21.2570 O   0  0  0  0  0  0  0  0  0  0  0  0
  -21.7620   -6.9640   22.4390 C   0  0  0  0  0  0  0  0  0  0  0  0
  -21.3460   -7.6020   23.6270 C   0  0  0  0  0  3  0  0  0  0  0  0
  -21.1510   -6.8450   24.8010 C   0  0  0  0  0  3  0  0  0  0  0  0
  -21.3580   -5.4540   24.7840 C   0  0  0  0  0  0  0  0  0  0  0  0
  -21.7670   -4.8160   23.6000 C   0  0  0  0  0  3  0  0  0  0  0  0
  -21.9640   -5.5690   22.4290 C   0  0  0  0  0  0  0  0  0  0  0  0
  -22.3360   -4.9460   21.2850 F   0  0  0  0  0  0  0  0  0  0  0  0
  -21.1640   -4.7260   25.9090 F   0  0  0  0  0  0  0  0  0  0  0  0
  -23.4040  -14.2070   20.9690 C   0  0  0  0  0  0  0  0  0  0  0  0
  -22.6950  -13.5690   21.8970 N   0  0  0  0  0  0  0  0  0  0  0  0
  -22.9930  -15.2450   20.4550 O   0  0  0  0  0  0  0  0  0  0  0  0
  -23.0410  -12.7250   22.3320 H   0  0  0  0  0  0  0  0  0  0  0  0
  -21.7930  -13.9300   22.1740 H   0  0  0  0  0  0  0  0  0  0  0  0
  -26.0870  -15.7170   20.0360 N   0  0  0  0  0  0  0  0  0  0  0  0
  -25.3720  -16.4190   20.1930 H   0  0  0  0  0  0  0  0  0  0  0  0
  -26.9410  -16.1000   19.6510 H   0  0  0  0  0  0  0  0  0  0  0  0
  1  2  1  0
  3  6  1  0
  4  3  1  0
  4 50  1  0
  4  5  1  0
  5  9  1  0
  5  1  1  0
  6  8  1  0
  6  2  1  0
  7  6  1  0
  9 11  1  0
 10 21  2  0
 11 16  1  0
 12 20  1  0
 12 22  1  0
 13 19  1  0
 13 15  1  0
 14 20  1  0
 15 16  2  0
 15 14  1  0
 17 11  2  0
 18 17  1  0
 18 13  2  0
 19 12  1  0
 20 10  1  0
 22 24  2  0
 23 22  1  0
 25 23  1  0
 26 35  2  0
 26 31  1  0
 27 23  1  0
 27 31  1  0
 28 27  1  0
 29 30  1  0
 29 28  1  0
 30 26  1  0
 31 32  2  0
 32 33  1  0
 34 33  2  0
 35 34  1  0
 36 10  1  0
 36 37  1  0
 36 46  1  0
 37 40  1  0
 38 42  1  0
 38 37  1  0
 39 38  2  0
 42 41  1  0
 44 42  1  0
 44 45  1  0
 44 43  1  0
 46 49  1  1
 46 47  1  0
 48 46  1  0
 51 54  2  0
 51 53  1  0
 52 55  1  0
 53 50  1  0
 53 52  2  0
 54 56  1  0
 55 58  1  0
 56 55  2  0
 56 68  1  0
 57 54  1  0
 59 68  1  0
 60 65  1  0
 61 62  1  0
 61 60  1  0
 63 62  1  0
 63 72  1  0
 63 64  1  0
 65 59  1  0
 65 64  1  0
 66 59  2  0
 68 67  1  0
 69 70  2  0
 70 89  1  0
 71 70  1  0
 71 74  1  0
 72 73  1  0
 72 69  1  0
 73 71  2  0
 74 75  1  0
 75 76  2  0
 77 80  1  0
 77 76  1  0
 78 77  2  0
 79 78  1  0
 79 74  2  0
 80 81  1  0
 81 82  1  0
 82 83  2  0
 84 83  1  0
 84 88  1  0
 85 84  2  0
 86 81  2  0
 86 85  1  0
 87 86  1  0
 89 90  1  0
 90 93  1  0
 90 92  1  0
 91 89  2  0
 94 95  1  0
 94 69  1  0
 96 94  1  0
M  ISO  4   5 101   9 101  59 100  68 100
M  END
>  <TORSDO>  (49) 
F 18

>  <SCORE>  (49) 
-13.297

>  <name>  (49) 
48

>  <ligand_id>  (49) 
48

>  <original_smiles>  (49) 
[H]c1c([H])c([H])c2c(c1[H])C([H])([H])C([H])([H])C([H])([H])C2([H])N([H])C(=O)C1([H])N(C(=O)C([H])(N([H])C(=O)C([H])(N([H])C([H])([H])[H])C([H])([H])[H])C(C([H])([H])[H])(C([H])([H])[H])C([H])([H])[H])C([H])([H])c2c([H])c(OC3([H])C([H])([H])C([H])([H])[N+]([H])([H])C([H])([H])C3([H])C([H])([H])c3c([H])c(C([H])([H])[H])c(N(C(=O)N4C([H])([H])C([H])([H])C([H])([H])C([H])(n5nc(-c6c([H])c([H])c(Oc7c([H])c([H])c(F)c([H])c7F)c([H])c6[H])c(C(=O)N([H])[H])c5N([H])[H])C4([H])[H])C([H])([H])[H])c(C([H])([H])[H])c3[H])c([H])c([H])c2C1([H])[H]

>  <smiles>  (49) 
[H]c1c([H])c([H])c2c(c1[H])C([H])([H])C([H])([H])C([H])([H])C2([H])N([H])C(=O)C1([H])N(C(=O)C([H])(N([H])C(=O)C([H])(N([H])C([H])([H])[H])C([H])([H])[H])C(C([H])([H])[H])(C([H])([H])[H])C([H])([H])[H])C([H])([H])c2c([H])c(OC3([H])C([H])([H])C([H])([H])[N+]([H])([H])C([H])([H])C3([H])C([H])([H])c3c([H])c(C([H])([H])[H])c(N(C(=O)N4C([H])([H])C([H])([H])C([H])([H])C([H])(n5nc(-c6c([H])c([H])c(Oc7c([H])c([H])c(F)c([H])c7F)c([H])c6[H])c(C(=O)N([H])[H])c5N([H])[H])C4([H])[H])C([H])([H])[H])c(C([H])([H])[H])c3[H])c([H])c([H])c2C1([H])[H]

$$$$
49:0:0
     RDKit          3D

 94 95  0  0  1  0  0  0  0  0999 V2000
  -24.4450  -25.0490   19.9660 N   0  0  0  0  0  4  0  0  0  0  0  0
  -25.2760  -25.5740   20.1800 H   0  0  0  0  0  0  0  0  0  0  0  0
  -24.0840  -24.7580   20.8620 H   0  0  0  0  0  0  0  0  0  0  0  0
  -22.0070  -25.9350   19.2620 C   0  0  0  0  0  1  0  0  0  0  0  0
  -23.4380  -26.4710   19.4640 C   0  0  0  0  0  2  0  0  0  0  0  0
  -23.9600  -29.5410   20.2950 C   0  0  0  0  0  3  0  0  0  0  0  0
  -23.3560  -28.3820   20.1910 C   0  0  0  0  0  3  0  0  0  0  0  0
  -25.4510  -28.9330   21.7630 C   0  0  0  0  0  1  0  0  0  0  0  0
  -26.7910  -27.8990   21.8240 O   0  0  0  0  0  0  0  0  0  0  0  0
  -24.3250  -31.8260   23.2860 C   0  0  0  0  0  0  0  0  0  0  0  0
  -27.6220  -27.6470   20.7650 C   0  0  0  0  0  3  0  0  0  0  0  0
  -23.4890  -29.3110   22.7480 C   0  0  0  0  0  2  0  0  0  0  0  0
  -25.4110  -27.6420   19.9660 C   0  0  0  0  0  2  0  0  0  0  0  0
  -25.6760  -30.9700   20.7760 C   0  0  0  0  0 15  0  0  0  0  0  0
  -26.1980  -29.2300   19.6940 C   0  0  0  0  0  2  0  0  0  0  0  0
  -27.4980  -28.8800   20.1220 C   0  0  0  0  0  2  0  0  0  0  0  0
  -27.1010  -26.5100   20.0680 C   0  0  0  0  0  2  0  0  0  0  0  0
  -25.9770  -26.6710   19.3090 C   0  0  0  0  0  2  0  0  0  0  0  0
  -24.2500  -27.2130   22.0300 C   0  0  0  0  0 15  0  0  0  0  0  0
  -24.3890  -30.9240   22.2370 N   0  0  0  0  0  2  0  0  0  0  0  0
  -23.2520  -32.0790   23.8370 O   0  0  0  0  0  0  0  0  0  0  0  0
  -22.2430  -29.2070   23.4190 C   0  0  0  0  0  0  0  0  0  0  0  0
  -21.0940  -29.2290   22.7730 N   0  0  0  0  0  0  0  0  0  0  0  0
  -22.3820  -28.7400   24.5290 O   0  0  0  0  0  0  0  0  0  0  0  0
  -21.0390  -29.5190   21.8080 H   0  0  0  0  0  0  0  0  0  0  0  0
  -17.6200  -28.1960   22.9890 C   0  0  0  0  0  0  0  0  0  0  0  0
  -20.1050  -28.3250   23.3310 C   0  0  0  0  0  3  0  0  0  0  0  0
  -20.2360  -26.9120   22.7340 C   0  0  0  0  0  2  0  0  0  0  0  0
  -19.1260  -26.5840   21.7390 C   0  0  0  0  0  2  0  0  0  0  0  0
  -17.7590  -26.8140   22.3810 C   0  0  0  0  0  2  0  0  0  0  0  0
  -18.7450  -28.9350   23.3940 C   0  0  0  0  0  0  0  0  0  0  0  0
  -18.6030  -30.2270   23.9400 C   0  0  0  0  0  3  0  0  0  0  0  0
  -17.3280  -30.8030   24.0510 C   0  0  0  0  0  3  0  0  0  0  0  0
  -16.1960  -30.0620   23.6670 C   0  0  0  0  0  3  0  0  0  0  0  0
  -16.3410  -28.7520   23.1660 C   0  0  0  0  0  3  0  0  0  0  0  0
  -25.6130  -32.4330   23.9490 C   0  0  0  0  0  3  0  0  0  0  0  0
  -26.0500  -31.7310   25.3140 C   0  0  1  0  0  0  0  0  0  0  0  0
  -24.9170  -31.5780   26.3610 C   0  0  0  0  0  1  0  0  0  0  0  0
  -26.6500  -30.3300   25.0700 C   0  0  0  0  0  1  0  0  0  0  0  0
  -27.1660  -32.5520   26.0100 C   0  0  0  0  0  1  0  0  0  0  0  0
  -25.3320  -33.8500   24.2400 N   0  0  0  0  0  0  0  0  0  0  0  0
  -25.7360  -34.8770   23.4890 C   0  0  0  0  0  0  0  0  0  0  0  0
  -26.4510  -34.7280   22.4960 O   0  0  0  0  0  0  0  0  0  0  0  0
  -24.7060  -34.0360   25.0090 H   0  0  0  0  0  0  0  0  0  0  0  0
  -24.0550  -36.6890   23.0450 C   0  0  0  0  0  1  0  0  0  0  0  0
  -25.2660  -36.2850   23.8990 C   0  0  0  0  0  3  0  0  0  0  0  0
  -27.3980  -37.1590   24.7530 C   0  0  0  0  0  1  0  0  0  0  0  0
  -26.3210  -37.3110   23.7790 N   0  0  0  0  0  0  0  0  0  0  0  0
  -25.9270  -38.2430   23.8840 H   0  0  0  0  0  0  0  0  0  0  0  0
  -25.2220  -23.6020   19.2960 C   0  0  0  0  0  1  0  0  0  0  0  0
  -27.6960  -21.4110   20.0750 C   0  0  0  0  0  2  0  0  0  0  0  0
  -25.8920  -20.3680   19.1950 C   0  0  0  0  0  2  0  0  0  0  0  0
  -28.3540  -19.8540   20.6000 C   0  0  0  0  0  2  0  0  0  0  0  0
  -27.0060  -19.0370   18.9090 C   0  0  0  0  0  2  0  0  0  0  0  0
  -26.0840  -21.9230   19.8800 C   0  0  0  0  0  2  0  0  0  0  0  0
  -28.0550  -18.2890   19.9930 C   0  0  0  0  0  3  0  0  0  0  0  0
  -29.9880  -15.5420   19.8960 C   0  0  0  0  0  0  0  0  0  0  0  0
  -30.3780  -13.0200   19.1330 C   0  0  0  0  0  2  0  0  0  0  0  0
  -29.4500  -12.6100   17.9560 C   0  0  0  0  0  2  0  0  0  0  0  0
  -28.0310  -12.2750   18.4660 C   0  0  0  0  0  2  0  0  0  0  0  0
  -27.5710  -13.2630   19.5590 C   0  0  0  0  0  3  0  0  0  0  0  0
  -28.6190  -13.4740   20.6470 C   0  0  0  0  0  2  0  0  0  0  0  0
  -29.7020  -14.1300   19.9370 N   0  0  0  0  0  0  0  0  0  0  0  0
  -31.2160  -15.6580   19.6870 O   0  0  0  0  0  0  0  0  0  0  0  0
  -28.9480  -16.7170   19.9410 N   0  0  0  0  0  0  0  0  0  0  0  0
  -29.7760  -17.2370   19.6790 H   0  0  0  0  0  0  0  0  0  0  0  0
  -25.2900  -13.8230   20.4840 C   0  0  0  0  0  0  0  0  0  0  0  0
  -24.2530  -13.0460   20.8990 C   0  0  0  0  0  0  0  0  0  0  0  0
  -24.7070  -11.6910   20.7950 C   0  0  0  0  0  0  0  0  0  0  0  0
  -26.2930  -12.9410   20.1340 N   0  0  0  0  0  0  0  0  0  0  0  0
  -25.9720  -11.6530   20.4000 N   0  0  0  0  0  0  0  0  0  0  0  0
  -23.9890  -10.4330   20.9880 C   0  0  0  0  0  0  0  0  0  0  0  0
  -24.4510   -9.4470   21.8880 C   0  0  0  0  0  3  0  0  0  0  0  0
  -23.7300   -8.2460   22.0660 C   0  0  0  0  0  3  0  0  0  0  0  0
  -22.5280   -8.0290   21.3480 C   0  0  0  0  0  0  0  0  0  0  0  0
  -22.0920   -8.9990   20.4280 C   0  0  0  0  0  3  0  0  0  0  0  0
  -22.8140  -10.1900   20.2490 C   0  0  0  0  0  3  0  0  0  0  0  0
  -21.7710   -6.8860   21.4380 O   0  0  0  0  0  0  0  0  0  0  0  0
  -21.7300   -6.1430   22.5910 C   0  0  0  0  0  0  0  0  0  0  0  0
  -21.3370   -6.7050   23.8250 C   0  0  0  0  0  3  0  0  0  0  0  0
  -21.2400   -5.8900   24.9700 C   0  0  0  0  0  3  0  0  0  0  0  0
  -21.5290   -4.5140   24.8820 C   0  0  0  0  0  0  0  0  0  0  0  0
  -21.9160   -3.9530   23.6530 C   0  0  0  0  0  3  0  0  0  0  0  0
  -22.0160   -4.7660   22.5100 C   0  0  0  0  0  0  0  0  0  0  0  0
  -22.3680   -4.2200   21.3220 F   0  0  0  0  0  0  0  0  0  0  0  0
  -21.4290   -3.7250   25.9780 F   0  0  0  0  0  0  0  0  0  0  0  0
  -22.8770  -13.5210   21.2560 C   0  0  0  0  0  0  0  0  0  0  0  0
  -22.2010  -12.8130   22.1490 N   0  0  0  0  0  0  0  0  0  0  0  0
  -22.4220  -14.5640   20.7820 O   0  0  0  0  0  0  0  0  0  0  0  0
  -22.5860  -11.9720   22.5530 H   0  0  0  0  0  0  0  0  0  0  0  0
  -21.2790  -13.1080   22.4340 H   0  0  0  0  0  0  0  0  0  0  0  0
  -25.4760  -15.2020   20.3490 N   0  0  0  0  0  0  0  0  0  0  0  0
  -24.7520  -15.8790   20.5600 H   0  0  0  0  0  0  0  0  0  0  0  0
  -26.3380  -15.6250   20.0240 H   0  0  0  0  0  0  0  0  0  0  0  0
  1  2  1  0
  1  3  1  0
  4  5  1  0
  5  1  1  0
  7  6  3  0
  8  9  1  0
 10 21  2  0
 11  9  1  0
 12 22  1  0
 15 13  1  0
 15 16  1  0
 16 11  1  0
 17 11  1  0
 18 13  1  0
 18 17  1  0
 20 12  1  0
 20 10  1  0
 22 24  2  0
 23 22  1  0
 25 23  1  0
 26 35  2  0
 26 31  1  0
 27 23  1  0
 27 31  1  0
 28 27  1  0
 29 30  1  0
 29 28  1  0
 30 26  1  0
 31 32  2  0
 32 33  1  0
 34 33  2  0
 35 34  1  0
 36 10  1  0
 36 41  1  0
 36 37  1  0
 37 40  1  1
 37 38  1  0
 39 37  1  0
 41 44  1  0
 42 46  1  0
 42 41  1  0
 43 42  2  0
 46 45  1  0
 48 49  1  0
 48 46  1  0
 48 47  1  0
 50  1  1  0
 51 53  1  0
 52 55  1  0
 54 52  1  0
 54 56  1  0
 55 51  1  0
 56 53  1  0
 57 63  1  0
 57 65  1  0
 58 63  1  0
 59 60  1  0
 59 58  1  0
 61 60  1  0
 61 70  1  0
 61 62  1  0
 63 62  1  0
 64 57  2  0
 65 56  1  0
 66 65  1  0
 67 68  2  0
 68 87  1  0
 69 68  1  0
 69 72  1  0
 70 71  1  0
 70 67  1  0
 71 69  2  0
 72 73  1  0
 73 74  2  0
 75 78  1  0
 75 74  1  0
 76 75  2  0
 77 76  1  0
 77 72  2  0
 78 79  1  0
 79 80  1  0
 80 81  2  0
 82 81  1  0
 82 86  1  0
 83 82  2  0
 84 79  2  0
 84 83  1  0
 85 84  1  0
 87 88  1  0
 88 91  1  0
 88 90  1  0
 89 87  2  0
 92 67  1  0
 92 93  1  0
 94 92  1  0
M  ISO  4   8 101   9 101  57 100  65 100
M  END
>  <TORSDO>  (50) 
F 20

>  <SCORE>  (50) 
-14.621

>  <name>  (50) 
49

>  <ligand_id>  (50) 
49

>  <original_smiles>  (50) 
[H]c1c([H])c([H])c2c(c1[H])C([H])([H])C([H])([H])C([H])([H])C2([H])N([H])C(=O)C1([H])N(C(=O)C([H])(N([H])C(=O)C([H])(N([H])C([H])([H])[H])C([H])([H])[H])C(C([H])([H])[H])(C([H])([H])[H])C([H])([H])[H])C([H])([H])c2c([H])c(OC3([H])C([H])([H])C3([H])C([H])(C([H])([H])[H])[N+]([H])([H])C([H])([H])C3([H])C([H])([H])C([H])([H])C([H])(N([H])C(=O)N4C([H])([H])C([H])([H])C([H])([H])C([H])(n5nc(-c6c([H])c([H])c(Oc7c([H])c([H])c(F)c([H])c7F)c([H])c6[H])c(C(=O)N([H])[H])c5N([H])[H])C4([H])[H])C([H])([H])C3([H])[H])c([H])c([H])c2C1([H])[H]

>  <smiles>  (50) 
[H]c1c([H])c([H])c2c(c1[H])C([H])([H])C([H])([H])C([H])([H])C2([H])N([H])C(=O)C1([H])N(C(=O)C([H])(N([H])C(=O)C([H])(N([H])C([H])([H])[H])C([H])([H])[H])C(C([H])([H])[H])(C([H])([H])[H])C([H])([H])[H])C([H])([H])c2c([H])c(OC3([H])C([H])([H])C3([H])C([H])(C([H])([H])[H])[N+]([H])([H])C([H])([H])C3([H])C([H])([H])C([H])([H])C([H])(N([H])C(=O)N4C([H])([H])C([H])([H])C([H])([H])C([H])(n5nc(-c6c([H])c([H])c(Oc7c([H])c([H])c(F)c([H])c7F)c([H])c6[H])c(C(=O)N([H])[H])c5N([H])[H])C4([H])[H])C([H])([H])C3([H])[H])c([H])c([H])c2C1([H])[H]

$$$$
50:0:0
     RDKit          3D

 94103  0  0  1  0  0  0  0  0999 V2000
  -30.8550  -20.9780   18.9940 C   0  0  0  0  0  3  0  0  0  0  0  0
  -30.3270  -23.4120   19.0380 C   0  0  0  0  0  3  0  0  0  0  0  0
  -29.8110  -20.6310   19.8800 C   0  0  0  0  0  0  0  0  0  0  0  0
  -31.0970  -22.3140   18.5760 C   0  0  0  0  0  0  0  0  0  0  0  0
  -29.2530  -23.2500   19.9370 C   0  0  0  0  0  0  0  0  0  0  0  0
  -29.0110  -21.8230   20.3290 C   0  0  0  0  0  0  0  0  0  0  0  0
  -32.2190  -22.5790   17.5870 C   0  0  0  0  0  1  0  0  0  0  0  0
  -27.8300  -21.5900   21.2580 C   0  0  0  0  0  1  0  0  0  0  0  0
  -30.9280  -14.9970   19.5720 C   0  0  0  0  0  0  0  0  0  0  0  0
  -30.6060  -12.7010   18.5100 C   0  0  0  0  0  2  0  0  0  0  0  0
  -29.5170  -12.7110   17.4110 C   0  0  0  0  0  2  0  0  0  0  0  0
  -28.1290  -12.4700   18.0260 C   0  0  0  0  0  2  0  0  0  0  0  0
  -27.8920  -13.3450   19.2810 C   0  0  0  0  0  3  0  0  0  0  0  0
  -29.0830  -13.3080   20.2610 C   0  0  0  0  0  2  0  0  0  0  0  0
  -30.2760  -13.7560   19.5240 N   0  0  0  0  0  0  0  0  0  0  0  0
  -32.0210  -15.0550   18.9970 O   0  0  0  0  0  0  0  0  0  0  0  0
  -30.3800  -16.3350   21.5420 C   0  0  0  0  0  2  0  0  0  0  0  0
  -30.4130  -17.6900   19.5140 C   0  0  0  0  0  2  0  0  0  0  0  0
  -29.4370  -17.4130   22.1400 C   0  0  0  0  0  2  0  0  0  0  0  0
  -29.6270  -19.0040   20.2480 C   0  0  0  0  0  3  0  0  0  0  0  0
  -30.3170  -16.2050   20.0730 N   0  0  0  0  0  0  0  0  0  0  0  0
  -29.7630  -18.7940   21.6990 N   0  0  0  0  0  4  0  0  0  0  0  0
  -30.7050  -19.0240   21.9720 H   0  0  0  0  0  0  0  0  0  0  0  0
  -29.1510  -19.4350   22.1750 H   0  0  0  0  0  0  0  0  0  0  0  0
  -25.6600  -13.9020   20.3980 C   0  0  0  0  0  0  0  0  0  0  0  0
  -24.6410  -13.1180   20.8620 C   0  0  0  0  0  0  0  0  0  0  0  0
  -25.0630  -11.7660   20.6680 C   0  0  0  0  0  0  0  0  0  0  0  0
  -26.6330  -13.0300   19.9430 N   0  0  0  0  0  0  0  0  0  0  0  0
  -26.2950  -11.7330   20.1720 N   0  0  0  0  0  0  0  0  0  0  0  0
  -24.3400  -10.5050   20.8740 C   0  0  0  0  0  0  0  0  0  0  0  0
  -24.8020   -9.5250   21.7800 C   0  0  0  0  0  3  0  0  0  0  0  0
  -24.0750   -8.3300   21.9740 C   0  0  0  0  0  3  0  0  0  0  0  0
  -22.8730   -8.1060   21.2610 C   0  0  0  0  0  0  0  0  0  0  0  0
  -22.4290   -9.0740   20.3430 C   0  0  0  0  0  3  0  0  0  0  0  0
  -23.1570  -10.2610   20.1470 C   0  0  0  0  0  3  0  0  0  0  0  0
  -22.1190   -6.9620   21.3640 O   0  0  0  0  0  0  0  0  0  0  0  0
  -22.0170   -6.2700   22.5440 C   0  0  0  0  0  0  0  0  0  0  0  0
  -21.5150   -6.8720   23.7200 C   0  0  0  0  0  3  0  0  0  0  0  0
  -21.3580   -6.1050   24.8910 C   0  0  0  0  0  3  0  0  0  0  0  0
  -21.6980   -4.7400   24.8890 C   0  0  0  0  0  0  0  0  0  0  0  0
  -22.1930   -4.1370   23.7200 C   0  0  0  0  0  3  0  0  0  0  0  0
  -22.3490   -4.9010   22.5490 C   0  0  0  0  0  0  0  0  0  0  0  0
  -22.8080   -4.3110   21.4200 F   0  0  0  0  0  0  0  0  0  0  0  0
  -21.5400   -4.0010   26.0130 F   0  0  0  0  0  0  0  0  0  0  0  0
  -23.3090  -13.5980   21.3600 C   0  0  0  0  0  0  0  0  0  0  0  0
  -22.7010  -12.8700   22.2890 N   0  0  0  0  0  0  0  0  0  0  0  0
  -22.8200  -14.6540   20.9580 O   0  0  0  0  0  0  0  0  0  0  0  0
  -23.1100  -12.0170   22.6400 H   0  0  0  0  0  0  0  0  0  0  0  0
  -21.8130  -13.1770   22.6620 H   0  0  0  0  0  0  0  0  0  0  0  0
  -25.8290  -15.2810   20.3020 N   0  0  0  0  0  0  0  0  0  0  0  0
  -25.0880  -15.9220   20.5640 H   0  0  0  0  0  0  0  0  0  0  0  0
  -26.6070  -15.7390   19.8460 H   0  0  0  0  0  0  0  0  0  0  0  0
  -28.3640  -24.5910   20.3650 C   0  0  0  0  0  2  0  0  0  0  0  0
  -28.7080  -26.1150   20.1790 O   0  0  0  0  0  0  0  0  0  0  0  0
  -25.0020  -31.8080   23.1640 C   0  0  0  0  0  0  0  0  0  0  0  0
  -27.6590  -27.1150   20.1450 C   0  0  0  0  0  0  0  0  0  0  0  0
  -23.8410  -30.4150   21.4970 C   0  0  0  0  0  3  0  0  0  0  0  0
  -25.3230  -28.8600   20.0890 C   0  0  0  0  0  0  0  0  0  0  0  0
  -26.3970  -30.6930   21.3800 C   0  0  0  0  0  2  0  0  0  0  0  0
  -26.4930  -29.3030   20.7200 C   0  0  0  0  0  0  0  0  0  0  0  0
  -27.6640  -28.4490   20.7280 C   0  0  0  0  0  3  0  0  0  0  0  0
  -26.4650  -26.7850   19.4660 C   0  0  0  0  0  3  0  0  0  0  0  0
  -25.3230  -27.6140   19.4490 C   0  0  0  0  0  3  0  0  0  0  0  0
  -24.0920  -29.7510   20.1190 C   0  0  0  0  0  2  0  0  0  0  0  0
  -25.0990  -30.9940   22.0690 N   0  0  0  0  0  0  0  0  0  0  0  0
  -23.9040  -32.0810   23.6750 O   0  0  0  0  0  0  0  0  0  0  0  0
  -23.1520  -29.3950   22.4400 C   0  0  0  0  0  0  0  0  0  0  0  0
  -21.8230  -29.2400   22.3110 N   0  0  0  0  0  0  0  0  0  0  0  0
  -23.8180  -28.7490   23.2540 O   0  0  0  0  0  0  0  0  0  0  0  0
  -21.3410  -29.8090   21.6280 H   0  0  0  0  0  0  0  0  0  0  0  0
  -18.4280  -28.0800   22.8200 C   0  0  0  0  0  0  0  0  0  0  0  0
  -20.9930  -28.2990   23.0680 C   0  0  0  0  0  3  0  0  0  0  0  0
  -21.0670  -26.8780   22.4600 C   0  0  0  0  0  2  0  0  0  0  0  0
  -19.9500  -26.5960   21.4490 C   0  0  0  0  0  2  0  0  0  0  0  0
  -18.5770  -26.7460   22.1090 C   0  0  0  0  0  2  0  0  0  0  0  0
  -19.5620  -28.8160   23.2570 C   0  0  0  0  0  0  0  0  0  0  0  0
  -19.3650  -30.0650   23.8850 C   0  0  0  0  0  3  0  0  0  0  0  0
  -18.0700  -30.5790   24.0760 C   0  0  0  0  0  3  0  0  0  0  0  0
  -16.9500  -29.8420   23.6530 C   0  0  0  0  0  3  0  0  0  0  0  0
  -17.1310  -28.5930   23.0320 C   0  0  0  0  0  3  0  0  0  0  0  0
  -26.2640  -32.4510   23.8150 C   0  0  0  0  0  3  0  0  0  0  0  0
  -25.9180  -33.8290   24.1960 N   0  0  0  0  0  0  0  0  0  0  0  0
  -26.2270  -34.9190   23.4800 C   0  0  0  0  0  0  0  0  0  0  0  0
  -26.8990  -34.8700   22.4460 O   0  0  0  0  0  0  0  0  0  0  0  0
  -25.3200  -33.9390   25.0010 H   0  0  0  0  0  0  0  0  0  0  0  0
  -24.4620  -36.6900   23.1950 C   0  0  0  0  0  1  0  0  0  0  0  0
  -25.7110  -36.2800   23.9900 C   0  0  0  0  0  3  0  0  0  0  0  0
  -27.8260  -37.1790   24.8580 C   0  0  0  0  0  1  0  0  0  0  0  0
  -26.7220  -37.3580   23.9190 N   0  0  0  0  0  0  0  0  0  0  0  0
  -26.2950  -38.2640   24.0980 H   0  0  0  0  0  0  0  0  0  0  0  0
  -26.7880  -31.6490   25.0710 C   0  0  1  0  0  0  0  0  0  0  0  0
  -25.6890  -31.3500   26.1190 C   0  0  0  0  0  1  0  0  0  0  0  0
  -27.4070  -30.3000   24.6440 C   0  0  0  0  0  1  0  0  0  0  0  0
  -27.9130  -32.4500   25.7680 C   0  0  0  0  0  1  0  0  0  0  0  0
  1  3  1  0
  2  5  2  0
  3  6  2  0
  4  1  2  0
  4  2  1  0
  5  6  1  0
  5 53  1  0
  6  8  1  0
  7  4  1  0
  9 21  1  0
 10 15  1  0
 11 12  1  0
 11 10  1  0
 13 12  1  0
 13 28  1  0
 13 14  1  0
 15  9  1  0
 15 14  1  0
 16  9  2  0
 17 19  1  0
 18 21  1  0
 18 20  1  0
 20  3  1  0
 20 22  1  0
 21 17  1  0
 22 23  1  0
 22 19  1  0
 22 24  1  0
 25 26  2  0
 26 45  1  0
 27 26  1  0
 27 30  1  0
 28 29  1  0
 28 25  1  0
 29 27  2  0
 30 31  1  0
 31 32  2  0
 33 36  1  0
 33 32  1  0
 34 33  2  0
 35 34  1  0
 35 30  2  0
 36 37  1  0
 37 42  2  0
 37 38  1  0
 38 39  2  0
 40 39  1  0
 40 44  1  0
 41 40  2  0
 42 41  1  0
 43 42  1  0
 45 46  1  0
 46 48  1  0
 46 49  1  0
 47 45  2  0
 50 25  1  0
 50 51  1  0
 52 50  1  0
 54 53  1  0
 55 66  2  0
 56 54  1  0
 56 61  1  0
 57 65  1  0
 57 67  1  0
 58 64  1  0
 58 60  1  0
 59 65  1  0
 60 61  2  0
 60 59  1  0
 62 56  2  0
 63 62  1  0
 63 58  2  0
 64 57  1  0
 65 55  1  0
 67 69  2  0
 68 67  1  0
 70 68  1  0
 71 80  2  0
 71 76  1  0
 72 68  1  0
 72 76  1  0
 73 72  1  0
 74 75  1  0
 74 73  1  0
 75 71  1  0
 76 77  2  0
 77 78  1  0
 79 78  2  0
 80 79  1  0
 81 55  1  0
 81 82  1  0
 81 91  1  0
 82 85  1  0
 83 87  1  0
 83 82  1  0
 84 83  2  0
 87 86  1  0
 89 87  1  0
 89 90  1  0
 89 88  1  0
 91 94  1  1
 91 92  1  0
 93 91  1  0
M  ISO  4   9 100  21 100  53 101  54 101
M  END
>  <TORSDO>  (51) 
F 17

>  <SCORE>  (51) 
-12.360

>  <name>  (51) 
50

>  <ligand_id>  (51) 
50

>  <original_smiles>  (51) 
[H]c1c([H])c([H])c2c(c1[H])C([H])([H])C([H])([H])C([H])([H])C2([H])N([H])C(=O)C1([H])N(C(=O)C([H])(N([H])C(=O)C([H])(N([H])C([H])([H])[H])C([H])([H])[H])C(C([H])([H])[H])(C([H])([H])[H])C([H])([H])[H])C([H])([H])c2c([H])c(OC([H])([H])c3c([H])c(C([H])([H])[H])c([H])c(C4([H])C([H])([H])N(C(=O)N5C([H])([H])C([H])([H])C([H])([H])C([H])(n6nc(-c7c([H])c([H])c(Oc8c([H])c([H])c(F)c([H])c8F)c([H])c7[H])c(C(=O)N([H])[H])c6N([H])[H])C5([H])[H])C([H])([H])C([H])([H])[N+]4([H])[H])c3C([H])([H])[H])c([H])c([H])c2C1([H])[H]

>  <smiles>  (51) 
[H]c1c([H])c([H])c2c(c1[H])C([H])([H])C([H])([H])C([H])([H])C2([H])N([H])C(=O)C1([H])N(C(=O)C([H])(N([H])C(=O)C([H])(N([H])C([H])([H])[H])C([H])([H])[H])C(C([H])([H])[H])(C([H])([H])[H])C([H])([H])[H])C([H])([H])c2c([H])c(OC([H])([H])c3c([H])c(C([H])([H])[H])c([H])c(C4([H])C([H])([H])N(C(=O)N5C([H])([H])C([H])([H])C([H])([H])C([H])(n6nc(-c7c([H])c([H])c(Oc8c([H])c([H])c(F)c([H])c8F)c([H])c7[H])c(C(=O)N([H])[H])c6N([H])[H])C5([H])[H])C([H])([H])C([H])([H])[N+]4([H])[H])c3C([H])([H])[H])c([H])c([H])c2C1([H])[H]

$$$$
51:0:0
     RDKit          3D

 99109  0  0  1  0  0  0  0  0999 V2000
  -29.9370  -23.4390   20.0320 C   0  0  0  0  0  3  0  0  0  0  0  0
  -29.5740  -24.7190   19.5640 C   0  0  0  0  0  3  0  0  0  0  0  0
  -28.6460  -25.2530   21.7340 C   0  0  0  0  0  3  0  0  0  0  0  0
  -29.0170  -23.9740   22.2270 C   0  0  0  0  0  0  0  0  0  0  0  0
  -29.6800  -23.0510   21.3670 C   0  0  0  0  0  0  0  0  0  0  0  0
  -28.9430  -25.6490   20.4110 C   0  0  0  0  0  0  0  0  0  0  0  0
  -28.8570  -24.7020   24.7610 C   0  0  0  0  0  2  0  0  0  0  0  0
  -29.8510  -23.5710   24.6860 C   0  0  0  0  0  2  0  0  0  0  0  0
  -28.7320  -23.6560   23.6710 C   0  0  0  0  0  3  0  0  0  0  0  0
  -28.7370  -26.9310   19.9350 O   0  0  0  0  0  0  0  0  0  0  0  0
  -24.6150  -31.7380   23.2190 C   0  0  0  0  0  0  0  0  0  0  0  0
  -27.5120  -27.5550   20.0170 C   0  0  0  0  0  0  0  0  0  0  0  0
  -23.4960  -30.3440   21.5060 C   0  0  0  0  0  3  0  0  0  0  0  0
  -25.0420  -28.9290   20.0490 C   0  0  0  0  0  0  0  0  0  0  0  0
  -26.0010  -30.8360   21.3540 C   0  0  0  0  0  2  0  0  0  0  0  0
  -26.1620  -29.4910   20.6740 C   0  0  0  0  0  0  0  0  0  0  0  0
  -27.4000  -28.8090   20.6560 C   0  0  0  0  0  3  0  0  0  0  0  0
  -26.3770  -27.0000   19.3890 C   0  0  0  0  0  3  0  0  0  0  0  0
  -25.1420  -27.6800   19.4080 C   0  0  0  0  0  3  0  0  0  0  0  0
  -23.7560  -29.7240   20.1060 C   0  0  0  0  0  2  0  0  0  0  0  0
  -24.7220  -30.9870   22.0860 N   0  0  0  0  0  0  0  0  0  0  0  0
  -23.5170  -31.9350   23.7550 O   0  0  0  0  0  0  0  0  0  0  0  0
  -22.8880  -29.2570   22.4210 C   0  0  0  0  0  0  0  0  0  0  0  0
  -21.5760  -29.0130   22.2690 N   0  0  0  0  0  0  0  0  0  0  0  0
  -23.5930  -28.6350   23.2200 O   0  0  0  0  0  0  0  0  0  0  0  0
  -21.0670  -29.5680   21.5960 H   0  0  0  0  0  0  0  0  0  0  0  0
  -18.2620  -27.6350   22.6710 C   0  0  0  0  0  0  0  0  0  0  0  0
  -20.8000  -28.0070   22.9940 C   0  0  0  0  0  3  0  0  0  0  0  0
  -20.9820  -26.6060   22.3660 C   0  0  0  0  0  2  0  0  0  0  0  0
  -19.9110  -26.2690   21.3230 C   0  0  0  0  0  2  0  0  0  0  0  0
  -18.5150  -26.3220   21.9480 C   0  0  0  0  0  2  0  0  0  0  0  0
  -19.3350  -28.4330   23.1490 C   0  0  0  0  0  0  0  0  0  0  0  0
  -19.0460  -29.6620   23.7810 C   0  0  0  0  0  3  0  0  0  0  0  0
  -17.7150  -30.0920   23.9440 C   0  0  0  0  0  3  0  0  0  0  0  0
  -16.6560  -29.2900   23.4840 C   0  0  0  0  0  3  0  0  0  0  0  0
  -16.9310  -28.0630   22.8530 C   0  0  0  0  0  3  0  0  0  0  0  0
  -25.8630  -32.4070   23.8770 C   0  0  0  0  0  3  0  0  0  0  0  0
  -25.5070  -33.7960   24.1940 N   0  0  0  0  0  0  0  0  0  0  0  0
  -25.8170  -34.8520   23.4310 C   0  0  0  0  0  0  0  0  0  0  0  0
  -26.5060  -34.7650   22.4110 O   0  0  0  0  0  0  0  0  0  0  0  0
  -24.8970  -33.9360   24.9860 H   0  0  0  0  0  0  0  0  0  0  0  0
  -24.0330  -36.5790   23.0420 C   0  0  0  0  0  1  0  0  0  0  0  0
  -25.2770  -36.2270   23.8720 C   0  0  0  0  0  3  0  0  0  0  0  0
  -27.3710  -37.1880   24.7200 C   0  0  0  0  0  1  0  0  0  0  0  0
  -26.2720  -37.3150   23.7650 N   0  0  0  0  0  0  0  0  0  0  0  0
  -25.8310  -38.2200   23.9100 H   0  0  0  0  0  0  0  0  0  0  0  0
  -26.3650  -31.6500   25.1690 C   0  0  1  0  0  0  0  0  0  0  0  0
  -25.2490  -31.3890   26.2070 C   0  0  0  0  0  1  0  0  0  0  0  0
  -26.9920  -30.2870   24.7940 C   0  0  0  0  0  1  0  0  0  0  0  0
  -27.4760  -32.4750   25.8610 C   0  0  0  0  0  1  0  0  0  0  0  0
  -30.2470  -21.7040   21.8640 C   0  0  0  0  0  2  0  0  0  0  0  0
  -29.7700  -20.4950   21.1460 N   0  0  0  0  0  4  0  0  0  0  0  0
  -28.8190  -20.2990   21.4100 H   0  0  0  0  0  0  0  0  0  0  0  0
  -29.7730  -20.6910   20.1580 H   0  0  0  0  0  0  0  0  0  0  0  0
  -31.1400  -17.2430   22.5590 C   0  0  0  0  0  2  0  0  0  0  0  0
  -30.5470  -18.6530   22.7370 C   0  0  0  0  0  2  0  0  0  0  0  0
  -31.1170  -16.9270   21.0450 C   0  0  0  0  0  3  0  0  0  0  0  0
  -30.6310  -19.2930   21.3450 C   0  0  0  0  0  3  0  0  0  0  0  0
  -30.3050  -18.0960   20.4260 C   0  0  0  0  0  3  0  0  0  0  0  0
  -31.1050  -14.6170   20.0680 C   0  0  0  0  0  0  0  0  0  0  0  0
  -30.7000  -12.4430   18.9650 C   0  0  0  0  0  2  0  0  0  0  0  0
  -29.7170  -12.6240   17.7910 C   0  0  0  0  0  2  0  0  0  0  0  0
  -28.2580  -12.5370   18.2820 C   0  0  0  0  0  2  0  0  0  0  0  0
  -27.9900  -13.4330   19.5200 C   0  0  0  0  0  3  0  0  0  0  0  0
  -29.0760  -13.2150   20.5970 C   0  0  0  0  0  2  0  0  0  0  0  0
  -30.3880  -13.4660   19.9760 N   0  0  0  0  0  0  0  0  0  0  0  0
  -32.1800  -14.7870   19.4860 O   0  0  0  0  0  0  0  0  0  0  0  0
  -30.5360  -15.6020   20.7870 N   0  0  0  0  0  0  0  0  0  0  0  0
  -29.6370  -15.3970   21.1970 H   0  0  0  0  0  0  0  0  0  0  0  0
  -25.6700  -14.1490   20.3740 C   0  0  0  0  0  0  0  0  0  0  0  0
  -24.5770  -13.4260   20.7680 C   0  0  0  0  0  0  0  0  0  0  0  0
  -24.9540  -12.0510   20.6600 C   0  0  0  0  0  0  0  0  0  0  0  0
  -26.6480  -13.2180   20.0560 N   0  0  0  0  0  0  0  0  0  0  0  0
  -26.2220  -11.9490   20.2830 N   0  0  0  0  0  0  0  0  0  0  0  0
  -24.1630  -10.8270   20.8380 C   0  0  0  0  0  0  0  0  0  0  0  0
  -24.5670   -9.8110   21.7330 C   0  0  0  0  0  3  0  0  0  0  0  0
  -23.7810   -8.6500   21.9010 C   0  0  0  0  0  3  0  0  0  0  0  0
  -22.5780   -8.4990   21.1740 C   0  0  0  0  0  0  0  0  0  0  0  0
  -22.1910   -9.5020   20.2680 C   0  0  0  0  0  3  0  0  0  0  0  0
  -22.9770  -10.6540   20.0980 C   0  0  0  0  0  3  0  0  0  0  0  0
  -21.7640   -7.3940   21.2540 O   0  0  0  0  0  0  0  0  0  0  0  0
  -21.6590   -6.6580   22.4070 C   0  0  0  0  0  0  0  0  0  0  0  0
  -21.2520   -7.2380   23.6270 C   0  0  0  0  0  3  0  0  0  0  0  0
  -21.0910   -6.4310   24.7710 C   0  0  0  0  0  3  0  0  0  0  0  0
  -21.3280   -5.0460   24.6950 C   0  0  0  0  0  0  0  0  0  0  0  0
  -21.7300   -4.4650   23.4790 C   0  0  0  0  0  3  0  0  0  0  0  0
  -21.8920   -5.2690   22.3370 C   0  0  0  0  0  0  0  0  0  0  0  0
  -22.2580   -4.7020   21.1630 F   0  0  0  0  0  0  0  0  0  0  0  0
  -21.1660   -4.2680   25.7910 F   0  0  0  0  0  0  0  0  0  0  0  0
  -23.2260  -13.9710   21.1330 C   0  0  0  0  0  0  0  0  0  0  0  0
  -22.5110  -13.2920   22.0230 N   0  0  0  0  0  0  0  0  0  0  0  0
  -22.8190  -15.0340   20.6660 O   0  0  0  0  0  0  0  0  0  0  0  0
  -22.8530  -12.4310   22.4220 H   0  0  0  0  0  0  0  0  0  0  0  0
  -21.6050  -13.6390   22.3070 H   0  0  0  0  0  0  0  0  0  0  0  0
  -25.9080  -15.5130   20.2420 N   0  0  0  0  0  0  0  0  0  0  0  0
  -25.1850  -16.2050   20.4040 H   0  0  0  0  0  0  0  0  0  0  0  0
  -26.7680  -15.9140   19.8870 H   0  0  0  0  0  0  0  0  0  0  0  0
  -30.7080  -18.3480   19.0930 O   0  0  0  0  0  0  0  0  0  0  0  0
  -31.6470  -18.1940   19.0350 H   0  0  0  0  0  0  0  0  0  0  0  0
  1  5  1  0
  2  1  2  0
  2  6  1  0
  3  4  1  0
  4  9  1  0
  5 51  1  0
  5  4  2  0
  6  3  2  0
  8  7  1  0
  9  8  1  0
  9  7  1  0
 10 12  1  0
 10  6  1  0
 11 22  2  0
 12 17  1  0
 13 21  1  0
 13 23  1  0
 14 20  1  0
 14 16  1  0
 15 21  1  0
 16 15  1  0
 17 16  2  0
 18 19  1  0
 18 12  2  0
 19 14  2  0
 20 13  1  0
 21 11  1  0
 23 25  2  0
 24 23  1  0
 26 24  1  0
 27 36  2  0
 27 32  1  0
 28 24  1  0
 28 32  1  0
 29 28  1  0
 30 31  1  0
 30 29  1  0
 31 27  1  0
 32 33  2  0
 33 34  1  0
 35 34  2  0
 36 35  1  0
 37 11  1  0
 37 38  1  0
 37 47  1  0
 38 41  1  0
 39 43  1  0
 39 38  1  0
 40 39  2  0
 43 42  1  0
 45 43  1  0
 45 46  1  0
 45 44  1  0
 47 50  1  1
 47 48  1  0
 49 47  1  0
 52 53  1  0
 52 51  1  0
 54 52  1  0
 55 56  1  0
 57 68  1  0
 57 55  1  0
 58 52  1  0
 58 56  1  0
 59 98  1  0
 59 57  1  0
 59 58  1  0
 60 68  1  0
 61 66  1  0
 62 63  1  0
 62 61  1  0
 64 63  1  0
 64 73  1  0
 64 65  1  0
 66 60  1  0
 66 65  1  0
 67 60  2  0
 68 69  1  0
 70 71  2  0
 71 90  1  0
 72 71  1  0
 72 75  1  0
 73 74  1  0
 73 70  1  0
 74 72  2  0
 75 76  1  0
 76 77  2  0
 78 81  1  0
 78 77  1  0
 79 78  2  0
 80 79  1  0
 80 75  2  0
 81 82  1  0
 82 83  1  0
 83 84  2  0
 85 84  1  0
 85 89  1  0
 86 85  2  0
 87 82  2  0
 87 86  1  0
 88 87  1  0
 90 91  1  0
 91 94  1  0
 91 93  1  0
 92 90  2  0
 95 70  1  0
 95 96  1  0
 97 95  1  0
 99 98  1  0
M  ISO  4   6 101  10 101  60 100  68 100
M  END
>  <TORSDO>  (52) 
F 21

>  <SCORE>  (52) 
-10.311

>  <name>  (52) 
51

>  <ligand_id>  (52) 
51

>  <original_smiles>  (52) 
[H]OC1([H])C([H])(N([H])C(=O)N2C([H])([H])C([H])([H])C([H])([H])C([H])(n3nc(-c4c([H])c([H])c(Oc5c([H])c([H])c(F)c([H])c5F)c([H])c4[H])c(C(=O)N([H])[H])c3N([H])[H])C2([H])[H])C([H])([H])C([H])([H])C1([H])[N+]([H])([H])C([H])([H])c1c([H])c([H])c(Oc2c([H])c([H])c3c(c2[H])C([H])([H])N(C(=O)C([H])(N([H])C(=O)C([H])(N([H])C([H])([H])[H])C([H])([H])[H])C(C([H])([H])[H])(C([H])([H])[H])C([H])([H])[H])C([H])(C(=O)N([H])C2([H])c4c([H])c([H])c([H])c([H])c4C([H])([H])C([H])([H])C2([H])[H])C3([H])[H])c([H])c1C1([H])C([H])([H])C1([H])[H]

>  <smiles>  (52) 
[H]OC1([H])C([H])(N([H])C(=O)N2C([H])([H])C([H])([H])C([H])([H])C([H])(n3nc(-c4c([H])c([H])c(Oc5c([H])c([H])c(F)c([H])c5F)c([H])c4[H])c(C(=O)N([H])[H])c3N([H])[H])C2([H])[H])C([H])([H])C([H])([H])C1([H])[N+]([H])([H])C([H])([H])c1c([H])c([H])c(Oc2c([H])c([H])c3c(c2[H])C([H])([H])N(C(=O)C([H])(N([H])C(=O)C([H])(N([H])C([H])([H])[H])C([H])([H])[H])C(C([H])([H])[H])(C([H])([H])[H])C([H])([H])[H])C([H])(C(=O)N([H])C2([H])c4c([H])c([H])c([H])c([H])c4C([H])([H])C([H])([H])C2([H])[H])C3([H])[H])c([H])c1C1([H])C([H])([H])C1([H])[H]

$$$$
52:0:0
     RDKit          3D

 94103  0  0  1  0  0  0  0  0999 V2000
  -30.8830  -20.2200   19.7790 C   0  0  0  0  0  3  0  0  0  0  0  0
  -31.4510  -18.9740   20.1120 C   0  0  0  0  0  3  0  0  0  0  0  0
  -28.7250  -19.1960   20.0520 C   0  0  0  0  0  3  0  0  0  0  0  0
  -29.4800  -20.3600   19.7650 C   0  0  0  0  0  0  0  0  0  0  0  0
  -30.6200  -17.8740   20.4120 C   0  0  0  0  0  0  0  0  0  0  0  0
  -29.2720  -17.9900   20.3740 N   0  0  0  0  0  0  0  0  0  0  0  0
  -30.7650  -14.4860   19.8010 C   0  0  0  0  0  0  0  0  0  0  0  0
  -30.1860  -12.4540   18.4890 C   0  0  0  0  0  2  0  0  0  0  0  0
  -29.1240  -12.7350   17.4080 C   0  0  0  0  0  2  0  0  0  0  0  0
  -27.7080  -12.5770   17.9890 C   0  0  0  0  0  2  0  0  0  0  0  0
  -27.5320  -13.3580   19.3140 C   0  0  0  0  0  3  0  0  0  0  0  0
  -28.6910  -13.0730   20.2890 C   0  0  0  0  0  2  0  0  0  0  0  0
  -29.9730  -13.3780   19.6250 N   0  0  0  0  0  0  0  0  0  0  0  0
  -31.6460  -14.7630   18.9790 O   0  0  0  0  0  0  0  0  0  0  0  0
  -31.5290  -15.4260   23.1060 C   0  0  0  0  0  2  0  0  0  0  0  0
  -31.5010  -16.8230   22.5260 C   0  0  0  0  0  2  0  0  0  0  0  0
  -30.5060  -14.6930   22.2470 C   0  0  0  0  0  2  0  0  0  0  0  0
  -31.2530  -16.6080   21.0270 C   0  0  0  0  0  3  0  0  0  0  0  0
  -30.5700  -15.2820   20.8940 N   0  0  0  0  0  0  0  0  0  0  0  0
  -25.2430  -13.9710   20.3160 C   0  0  0  0  0  0  0  0  0  0  0  0
  -24.2110  -13.2010   20.7810 C   0  0  0  0  0  0  0  0  0  0  0  0
  -24.6430  -11.8450   20.6560 C   0  0  0  0  0  0  0  0  0  0  0  0
  -26.2380  -13.0830   19.9350 N   0  0  0  0  0  0  0  0  0  0  0  0
  -25.8880  -11.7980   20.1980 N   0  0  0  0  0  0  0  0  0  0  0  0
  -23.9220  -10.5860   20.8910 C   0  0  0  0  0  0  0  0  0  0  0  0
  -24.4070   -9.6120   21.7910 C   0  0  0  0  0  3  0  0  0  0  0  0
  -23.6860   -8.4190   22.0120 C   0  0  0  0  0  3  0  0  0  0  0  0
  -22.4660   -8.1920   21.3330 C   0  0  0  0  0  0  0  0  0  0  0  0
  -21.9980   -9.1540   20.4220 C   0  0  0  0  0  3  0  0  0  0  0  0
  -22.7200  -10.3390   20.1990 C   0  0  0  0  0  3  0  0  0  0  0  0
  -21.7110   -7.0500   21.4650 O   0  0  0  0  0  0  0  0  0  0  0  0
  -21.6880   -6.3350   22.6350 C   0  0  0  0  0  0  0  0  0  0  0  0
  -21.2970   -6.9210   23.8590 C   0  0  0  0  0  3  0  0  0  0  0  0
  -21.2190   -6.1310   25.0230 C   0  0  0  0  0  3  0  0  0  0  0  0
  -21.5200   -4.7580   24.9660 C   0  0  0  0  0  0  0  0  0  0  0  0
  -21.9040   -4.1720   23.7470 C   0  0  0  0  0  3  0  0  0  0  0  0
  -21.9840   -4.9580   22.5840 C   0  0  0  0  0  0  0  0  0  0  0  0
  -22.3330   -4.3840   21.4070 F   0  0  0  0  0  0  0  0  0  0  0  0
  -21.4390   -3.9970   26.0830 F   0  0  0  0  0  0  0  0  0  0  0  0
  -22.8630  -13.6870   21.2280 C   0  0  0  0  0  0  0  0  0  0  0  0
  -22.2310  -12.9770   22.1570 N   0  0  0  0  0  0  0  0  0  0  0  0
  -22.3820  -14.7310   20.7870 O   0  0  0  0  0  0  0  0  0  0  0  0
  -22.6360  -12.1310   22.5310 H   0  0  0  0  0  0  0  0  0  0  0  0
  -21.3320  -13.2830   22.4980 H   0  0  0  0  0  0  0  0  0  0  0  0
  -25.4110  -15.3440   20.1680 N   0  0  0  0  0  0  0  0  0  0  0  0
  -24.6830  -16.0090   20.4010 H   0  0  0  0  0  0  0  0  0  0  0  0
  -26.2460  -15.7830   19.7990 H   0  0  0  0  0  0  0  0  0  0  0  0
  -28.8250  -21.6940   19.3270 C   0  0  0  0  0  2  0  0  0  0  0  0
  -28.8080  -22.8080   20.3260 N   0  0  0  0  0  4  0  0  0  0  0  0
  -29.6890  -22.8120   20.8170 H   0  0  0  0  0  0  0  0  0  0  0  0
  -28.0890  -22.6080   21.0030 H   0  0  0  0  0  0  0  0  0  0  0  0
  -28.5830  -24.1810   19.7520 C   0  0  0  0  0  2  0  0  0  0  0  0
  -28.3330  -25.2960   20.8170 C   0  0  0  0  0  2  0  0  0  0  0  0
  -28.4360  -26.6570   20.3230 O   0  0  0  0  0  0  0  0  0  0  0  0
  -24.5160  -31.9010   23.2010 C   0  0  0  0  0  0  0  0  0  0  0  0
  -27.2710  -27.4010   20.2860 C   0  0  0  0  0  0  0  0  0  0  0  0
  -23.3680  -30.4660   21.5460 C   0  0  0  0  0  3  0  0  0  0  0  0
  -24.8720  -28.9100   20.1920 C   0  0  0  0  0  0  0  0  0  0  0  0
  -25.8980  -30.8340   21.4160 C   0  0  0  0  0  2  0  0  0  0  0  0
  -26.0120  -29.4490   20.8020 C   0  0  0  0  0  0  0  0  0  0  0  0
  -27.2180  -28.7070   20.8380 C   0  0  0  0  0  3  0  0  0  0  0  0
  -26.1140  -26.8800   19.6690 C   0  0  0  0  0  3  0  0  0  0  0  0
  -24.9200  -27.6250   19.6200 C   0  0  0  0  0  3  0  0  0  0  0  0
  -23.6230  -29.7620   20.1860 C   0  0  0  0  0  2  0  0  0  0  0  0
  -24.6110  -31.0840   22.1130 N   0  0  0  0  0  0  0  0  0  0  0  0
  -23.4170  -32.1750   23.7040 O   0  0  0  0  0  0  0  0  0  0  0  0
  -22.6930  -29.4570   22.5050 C   0  0  0  0  0  0  0  0  0  0  0  0
  -21.3770  -29.2540   22.3320 N   0  0  0  0  0  0  0  0  0  0  0  0
  -23.3530  -28.8590   23.3590 O   0  0  0  0  0  0  0  0  0  0  0  0
  -20.9050  -29.7890   21.6160 H   0  0  0  0  0  0  0  0  0  0  0  0
  -18.0050  -28.0110   22.7200 C   0  0  0  0  0  0  0  0  0  0  0  0
  -20.5450  -28.3200   23.0920 C   0  0  0  0  0  3  0  0  0  0  0  0
  -20.6950  -26.8780   22.5560 C   0  0  0  0  0  2  0  0  0  0  0  0
  -19.6420  -26.5130   21.5040 C   0  0  0  0  0  2  0  0  0  0  0  0
  -18.2320  -26.6490   22.0860 C   0  0  0  0  0  2  0  0  0  0  0  0
  -19.0910  -28.8020   23.1780 C   0  0  0  0  0  0  0  0  0  0  0  0
  -18.8280  -30.0760   23.7270 C   0  0  0  0  0  3  0  0  0  0  0  0
  -17.5100  -30.5600   23.8240 C   0  0  0  0  0  3  0  0  0  0  0  0
  -16.4370  -29.7660   23.3850 C   0  0  0  0  0  3  0  0  0  0  0  0
  -16.6840  -28.4930   22.8380 C   0  0  0  0  0  3  0  0  0  0  0  0
  -25.7790  -32.5510   23.8470 C   0  0  0  0  0  3  0  0  0  0  0  0
  -26.2810  -31.7880   25.1340 C   0  0  1  0  0  0  0  0  0  0  0  0
  -25.1650  -31.5100   26.1690 C   0  0  0  0  0  1  0  0  0  0  0  0
  -26.9170  -30.4300   24.7500 C   0  0  0  0  0  1  0  0  0  0  0  0
  -27.3880  -32.6100   25.8350 C   0  0  0  0  0  1  0  0  0  0  0  0
  -25.4440  -33.9450   24.1690 N   0  0  0  0  0  0  0  0  0  0  0  0
  -25.7700  -35.0000   23.4090 C   0  0  0  0  0  0  0  0  0  0  0  0
  -26.4550  -34.9020   22.3880 O   0  0  0  0  0  0  0  0  0  0  0  0
  -24.8370  -34.0930   24.9620 H   0  0  0  0  0  0  0  0  0  0  0  0
  -24.0200  -36.7640   23.0220 C   0  0  0  0  0  1  0  0  0  0  0  0
  -25.2550  -36.3820   23.8540 C   0  0  0  0  0  3  0  0  0  0  0  0
  -27.3620  -37.3020   24.7140 C   0  0  0  0  0  1  0  0  0  0  0  0
  -26.2740  -37.4500   23.7530 N   0  0  0  0  0  0  0  0  0  0  0  0
  -25.8510  -38.3640   23.8890 H   0  0  0  0  0  0  0  0  0  0  0  0
  1  2  1  0
  2  5  2  0
  3  6  2  0
  4  1  2  0
  4  3  1  0
  6  5  1  0
  7 19  1  0
  8 13  1  0
  9 10  1  0
  9  8  1  0
 11 10  1  0
 11 23  1  0
 11 12  1  0
 13  7  1  0
 13 12  1  0
 14  7  2  0
 16 15  1  0
 17 15  1  0
 18  5  1  0
 18 16  1  0
 19 18  1  0
 19 17  1  0
 20 21  2  0
 21 40  1  0
 22 21  1  0
 22 25  1  0
 23 24  1  0
 23 20  1  0
 24 22  2  0
 25 26  1  0
 26 27  2  0
 28 31  1  0
 28 27  1  0
 29 28  2  0
 30 29  1  0
 30 25  2  0
 31 32  1  0
 32 33  1  0
 33 34  2  0
 35 34  1  0
 35 39  1  0
 36 35  2  0
 37 32  2  0
 37 36  1  0
 38 37  1  0
 40 41  1  0
 41 44  1  0
 41 43  1  0
 42 40  2  0
 45 20  1  0
 45 46  1  0
 47 45  1  0
 48  4  1  0
 48 49  1  0
 49 50  1  0
 49 51  1  0
 52 49  1  0
 52 53  1  0
 54 53  1  0
 55 66  2  0
 56 54  1  0
 56 61  1  0
 57 65  1  0
 57 67  1  0
 58 60  1  0
 59 65  1  0
 60 61  2  0
 60 59  1  0
 62 56  2  0
 63 62  1  0
 63 58  2  0
 64 58  1  0
 64 57  1  0
 65 55  1  0
 67 69  2  0
 68 67  1  0
 70 68  1  0
 71 80  2  0
 71 76  1  0
 72 68  1  0
 72 76  1  0
 73 72  1  0
 74 75  1  0
 74 73  1  0
 75 71  1  0
 76 77  2  0
 77 78  1  0
 79 78  2  0
 80 79  1  0
 81 55  1  0
 81 86  1  0
 81 82  1  0
 82 85  1  1
 82 83  1  0
 84 82  1  0
 86 89  1  0
 87 91  1  0
 87 86  1  0
 88 87  2  0
 91 90  1  0
 93 91  1  0
 93 94  1  0
 93 92  1  0
M  ISO  4   7 100  19 100  53 101  54 101
M  END
>  <TORSDO>  (53) 
F 20

>  <SCORE>  (53) 
-9.622

>  <name>  (53) 
52

>  <ligand_id>  (53) 
52

>  <original_smiles>  (53) 
[H]c1nc(C2([H])N(C(=O)N3C([H])([H])C([H])([H])C([H])([H])C([H])(n4nc(-c5c([H])c([H])c(Oc6c([H])c([H])c(F)c([H])c6F)c([H])c5[H])c(C(=O)N([H])[H])c4N([H])[H])C3([H])[H])C([H])([H])C([H])([H])C2([H])[H])c([H])c([H])c1C([H])([H])[N+]([H])([H])C([H])([H])C([H])([H])Oc1c([H])c([H])c2c(c1[H])C([H])([H])N(C(=O)C([H])(N([H])C(=O)C([H])(N([H])C([H])([H])[H])C([H])([H])[H])C(C([H])([H])[H])(C([H])([H])[H])C([H])([H])[H])C([H])(C(=O)N([H])C1([H])c3c([H])c([H])c([H])c([H])c3C([H])([H])C([H])([H])C1([H])[H])C2([H])[H]

>  <smiles>  (53) 
[H]c1nc(C2([H])N(C(=O)N3C([H])([H])C([H])([H])C([H])([H])C([H])(n4nc(-c5c([H])c([H])c(Oc6c([H])c([H])c(F)c([H])c6F)c([H])c5[H])c(C(=O)N([H])[H])c4N([H])[H])C3([H])[H])C([H])([H])C([H])([H])C2([H])[H])c([H])c([H])c1C([H])([H])[N+]([H])([H])C([H])([H])C([H])([H])Oc1c([H])c([H])c2c(c1[H])C([H])([H])N(C(=O)C([H])(N([H])C(=O)C([H])(N([H])C([H])([H])[H])C([H])([H])[H])C(C([H])([H])[H])(C([H])([H])[H])C([H])([H])[H])C([H])(C(=O)N([H])C1([H])c3c([H])c([H])c([H])c([H])c3C([H])([H])C([H])([H])C1([H])[H])C2([H])[H]

$$$$
53:0:0
     RDKit          3D

 95104  0  0  1  0  0  0  0  0999 V2000
  -27.7780  -22.8760   19.6740 C   0  0  0  0  0  3  0  0  0  0  0  0
  -28.0800  -21.4870   19.8130 C   0  0  0  0  0  3  0  0  0  0  0  0
  -30.1210  -23.3710   19.5210 C   0  0  0  0  0  3  0  0  0  0  0  0
  -28.7930  -23.8520   19.5060 C   0  0  0  0  0  0  0  0  0  0  0  0
  -30.4380  -21.9840   19.6530 C   0  0  0  0  0  0  0  0  0  0  0  0
  -29.4170  -20.9940   19.7860 C   0  0  0  0  0  0  0  0  0  0  0  0
  -32.6340  -22.2860   18.4420 C   0  0  0  0  0  1  0  0  0  0  0  0
  -31.9130  -21.5740   19.5970 C   0  0  0  0  0  3  0  0  0  0  0  0
  -32.0600  -20.9810   22.1010 C   0  0  0  0  0  1  0  0  0  0  0  0
  -32.6480  -21.7920   20.9370 C   0  0  0  0  0  2  0  0  0  0  0  0
  -28.4790  -25.3290   19.0880 C   0  0  0  0  0  2  0  0  0  0  0  0
  -28.2360  -26.3610   20.1010 O   0  0  0  0  0  0  0  0  0  0  0  0
  -24.5340  -31.6890   23.2040 C   0  0  0  0  0  0  0  0  0  0  0  0
  -27.1040  -27.1820   20.0510 C   0  0  0  0  0  0  0  0  0  0  0  0
  -23.3210  -30.3510   21.5180 C   0  0  0  0  0  3  0  0  0  0  0  0
  -24.7560  -28.8110   20.0720 C   0  0  0  0  0  0  0  0  0  0  0  0
  -25.8650  -30.6340   21.3660 C   0  0  0  0  0  2  0  0  0  0  0  0
  -25.9250  -29.2720   20.6880 C   0  0  0  0  0  0  0  0  0  0  0  0
  -27.0980  -28.4660   20.6750 C   0  0  0  0  0  3  0  0  0  0  0  0
  -25.9000  -26.7550   19.4430 C   0  0  0  0  0  3  0  0  0  0  0  0
  -24.7440  -27.5550   19.4460 C   0  0  0  0  0  3  0  0  0  0  0  0
  -23.5340  -29.7020   20.1260 C   0  0  0  0  0  2  0  0  0  0  0  0
  -24.5910  -30.9080   22.0860 N   0  0  0  0  0  0  0  0  0  0  0  0
  -23.4500  -31.9740   23.7330 O   0  0  0  0  0  0  0  0  0  0  0  0
  -22.6310  -29.3260   22.4480 C   0  0  0  0  0  0  0  0  0  0  0  0
  -21.3060  -29.1640   22.2910 N   0  0  0  0  0  0  0  0  0  0  0  0
  -23.2860  -28.6780   23.2690 O   0  0  0  0  0  0  0  0  0  0  0  0
  -20.8370  -29.7370   21.6040 H   0  0  0  0  0  0  0  0  0  0  0  0
  -17.9110  -27.9860   22.6850 C   0  0  0  0  0  0  0  0  0  0  0  0
  -20.4610  -28.2240   23.0290 C   0  0  0  0  0  3  0  0  0  0  0  0
  -20.5710  -26.7980   22.4410 C   0  0  0  0  0  2  0  0  0  0  0  0
  -19.4950  -26.4930   21.3940 C   0  0  0  0  0  2  0  0  0  0  0  0
  -18.0970  -26.6410   22.0000 C   0  0  0  0  0  2  0  0  0  0  0  0
  -19.0220  -28.7350   23.1530 C   0  0  0  0  0  0  0  0  0  0  0  0
  -18.7940  -29.9950   23.7500 C   0  0  0  0  0  3  0  0  0  0  0  0
  -17.4880  -30.5030   23.8850 C   0  0  0  0  0  3  0  0  0  0  0  0
  -16.3910  -29.7490   23.4330 C   0  0  0  0  0  3  0  0  0  0  0  0
  -16.6030  -28.4920   22.8390 C   0  0  0  0  0  3  0  0  0  0  0  0
  -25.8230  -32.2810   23.8530 C   0  0  0  0  0  3  0  0  0  0  0  0
  -26.3010  -31.4820   25.1280 C   0  0  1  0  0  0  0  0  0  0  0  0
  -25.1850  -31.2520   26.1730 C   0  0  0  0  0  1  0  0  0  0  0  0
  -26.8630  -30.0970   24.7290 C   0  0  0  0  0  1  0  0  0  0  0  0
  -27.4550  -32.2430   25.8210 C   0  0  0  0  0  1  0  0  0  0  0  0
  -25.5420  -33.6810   24.1960 N   0  0  0  0  0  0  0  0  0  0  0  0
  -25.8870  -34.7340   23.4440 C   0  0  0  0  0  0  0  0  0  0  0  0
  -26.5480  -34.6280   22.4070 O   0  0  0  0  0  0  0  0  0  0  0  0
  -24.9580  -33.8410   25.0040 H   0  0  0  0  0  0  0  0  0  0  0  0
  -24.1870  -36.5600   23.1230 C   0  0  0  0  0  1  0  0  0  0  0  0
  -25.4300  -36.1270   23.9170 C   0  0  0  0  0  3  0  0  0  0  0  0
  -27.5810  -36.9750   24.7420 C   0  0  0  0  0  1  0  0  0  0  0  0
  -26.4780  -37.1640   23.8040 N   0  0  0  0  0  0  0  0  0  0  0  0
  -26.0870  -38.0890   23.9560 H   0  0  0  0  0  0  0  0  0  0  0  0
  -29.8080  -19.6390   19.8770 O   0  0  0  0  0  0  0  0  0  0  0  0
  -30.8330  -14.4690   19.8570 C   0  0  0  0  0  0  0  0  0  0  0  0
  -30.5220  -12.1880   18.9440 C   0  0  0  0  0  2  0  0  0  0  0  0
  -29.5160  -12.2560   17.7780 C   0  0  0  0  0  2  0  0  0  0  0  0
  -28.0730  -12.1230   18.3040 C   0  0  0  0  0  2  0  0  0  0  0  0
  -27.7830  -13.0570   19.5100 C   0  0  0  0  0  3  0  0  0  0  0  0
  -28.9070  -12.9920   20.5670 C   0  0  0  0  0  2  0  0  0  0  0  0
  -30.1710  -13.2730   19.8790 N   0  0  0  0  0  0  0  0  0  0  0  0
  -32.0000  -14.5390   19.4560 O   0  0  0  0  0  0  0  0  0  0  0  0
  -28.9720  -17.5790   18.6970 C   0  0  0  0  0  2  0  0  0  0  0  0
  -29.1050  -17.6100   21.1950 C   0  0  0  0  0  2  0  0  0  0  0  0
  -30.1030  -16.5050   18.7310 C   0  0  0  0  0  2  0  0  0  0  0  0
  -30.2060  -16.5010   21.1000 C   0  0  0  0  0  2  0  0  0  0  0  0
  -28.8950  -18.5050   19.9380 C   0  0  0  0  0  3  0  0  0  0  0  0
  -30.0730  -15.6180   19.9210 N   0  0  0  0  0  0  0  0  0  0  0  0
  -25.4700  -13.6860   20.4300 C   0  0  0  0  0  0  0  0  0  0  0  0
  -24.4150  -12.9260   20.8550 C   0  0  0  0  0  0  0  0  0  0  0  0
  -24.8410  -11.5650   20.7550 C   0  0  0  0  0  0  0  0  0  0  0  0
  -26.4710  -12.7900   20.0930 N   0  0  0  0  0  0  0  0  0  0  0  0
  -26.1040  -11.5090   20.3510 N   0  0  0  0  0  0  0  0  0  0  0  0
  -24.1010  -10.3130   20.9660 C   0  0  0  0  0  0  0  0  0  0  0  0
  -24.5280   -9.3510   21.9070 C   0  0  0  0  0  3  0  0  0  0  0  0
  -23.7880   -8.1650   22.1040 C   0  0  0  0  0  3  0  0  0  0  0  0
  -22.6070   -7.9330   21.3590 C   0  0  0  0  0  0  0  0  0  0  0  0
  -22.2000   -8.8840   20.4070 C   0  0  0  0  0  3  0  0  0  0  0  0
  -22.9400  -10.0620   20.2080 C   0  0  0  0  0  3  0  0  0  0  0  0
  -21.8390   -6.7990   21.4650 O   0  0  0  0  0  0  0  0  0  0  0  0
  -21.7410   -6.1040   22.6440 C   0  0  0  0  0  0  0  0  0  0  0  0
  -21.2320   -6.6990   23.8190 C   0  0  0  0  0  3  0  0  0  0  0  0
  -21.0820   -5.9290   24.9890 C   0  0  0  0  0  3  0  0  0  0  0  0
  -21.4320   -4.5660   24.9870 C   0  0  0  0  0  0  0  0  0  0  0  0
  -21.9350   -3.9710   23.8150 C   0  0  0  0  0  3  0  0  0  0  0  0
  -22.0850   -4.7370   22.6470 C   0  0  0  0  0  0  0  0  0  0  0  0
  -22.5500   -4.1540   21.5150 F   0  0  0  0  0  0  0  0  0  0  0  0
  -21.2820   -3.8240   26.1070 F   0  0  0  0  0  0  0  0  0  0  0  0
  -23.0530  -13.4250   21.2440 C   0  0  0  0  0  0  0  0  0  0  0  0
  -22.3800  -12.7260   22.1510 N   0  0  0  0  0  0  0  0  0  0  0  0
  -22.5990  -14.4690   20.7790 O   0  0  0  0  0  0  0  0  0  0  0  0
  -22.7630  -11.8790   22.5460 H   0  0  0  0  0  0  0  0  0  0  0  0
  -21.4700  -13.0410   22.4560 H   0  0  0  0  0  0  0  0  0  0  0  0
  -25.6560  -15.0570   20.2780 N   0  0  0  0  0  0  0  0  0  0  0  0
  -24.9240  -15.7310   20.4730 H   0  0  0  0  0  0  0  0  0  0  0  0
  -26.5050  -15.4800   19.9270 H   0  0  0  0  0  0  0  0  0  0  0  0
  1  2  1  0
  3  5  2  0
  4  3  1  0
  4  1  2  0
  5  6  1  0
  6  2  2  0
  6 53  1  0
  8  7  1  0
  8  5  1  0
  8 10  1  0
 10  9  1  0
 11  4  1  0
 11 12  1  0
 13 24  2  0
 14 12  1  0
 14 19  1  0
 15 23  1  0
 15 25  1  0
 16 22  1  0
 16 18  1  0
 17 23  1  0
 18 17  1  0
 19 18  2  0
 20 21  1  0
 20 14  2  0
 21 16  2  0
 22 15  1  0
 23 13  1  0
 25 27  2  0
 26 25  1  0
 28 26  1  0
 29 38  2  0
 29 34  1  0
 30 26  1  0
 30 34  1  0
 31 30  1  0
 32 33  1  0
 32 31  1  0
 33 29  1  0
 34 35  2  0
 35 36  1  0
 37 36  2  0
 38 37  1  0
 39 13  1  0
 39 44  1  0
 39 40  1  0
 40 43  1  1
 40 41  1  0
 42 40  1  0
 44 47  1  0
 45 49  1  0
 45 44  1  0
 46 45  2  0
 49 48  1  0
 51 49  1  0
 51 52  1  0
 51 50  1  0
 54 60  1  0
 54 67  1  0
 55 60  1  0
 56 57  1  0
 56 55  1  0
 58 57  1  0
 58 71  1  0
 58 59  1  0
 60 59  1  0
 61 54  2  0
 62 64  1  0
 62 66  1  0
 64 67  1  0
 65 63  1  0
 66 53  1  0
 66 63  1  0
 67 65  1  0
 68 69  2  0
 69 88  1  0
 70 69  1  0
 70 73  1  0
 71 72  1  0
 71 68  1  0
 72 70  2  0
 73 74  1  0
 74 75  2  0
 76 79  1  0
 76 75  1  0
 77 76  2  0
 78 77  1  0
 78 73  2  0
 79 80  1  0
 80 85  2  0
 80 81  1  0
 81 82  2  0
 83 82  1  0
 83 87  1  0
 84 83  2  0
 85 84  1  0
 86 85  1  0
 88 89  1  0
 89 92  1  0
 89 91  1  0
 90 88  2  0
 93 68  1  0
 93 94  1  0
 95 93  1  0
M  ISO  4  11 101  12 101  54 100  67 100
M  END
>  <TORSDO>  (54) 
F 20

>  <SCORE>  (54) 
-13.295

>  <name>  (54) 
53

>  <ligand_id>  (54) 
53

>  <original_smiles>  (54) 
[H]c1c([H])c([H])c2c(c1[H])C([H])([H])C([H])([H])C([H])([H])C2([H])N([H])C(=O)C1([H])N(C(=O)C([H])(N([H])C(=O)C([H])(N([H])C([H])([H])[H])C([H])([H])[H])C(C([H])([H])[H])(C([H])([H])[H])C([H])([H])[H])C([H])([H])c2c([H])c(OC([H])([H])c3c([H])c([H])c(OC4([H])C([H])([H])C([H])([H])N(C(=O)N5C([H])([H])C([H])([H])C([H])([H])C([H])(n6nc(-c7c([H])c([H])c(Oc8c([H])c([H])c(F)c([H])c8F)c([H])c7[H])c(C(=O)N([H])[H])c6N([H])[H])C5([H])[H])C([H])([H])C4([H])[H])c(C([H])(C([H])([H])[H])C([H])([H])C([H])([H])[H])c3[H])c([H])c([H])c2C1([H])[H]

>  <smiles>  (54) 
[H]c1c([H])c([H])c2c(c1[H])C([H])([H])C([H])([H])C([H])([H])C2([H])N([H])C(=O)C1([H])N(C(=O)C([H])(N([H])C(=O)C([H])(N([H])C([H])([H])[H])C([H])([H])[H])C(C([H])([H])[H])(C([H])([H])[H])C([H])([H])[H])C([H])([H])c2c([H])c(OC([H])([H])c3c([H])c([H])c(OC4([H])C([H])([H])C([H])([H])N(C(=O)N5C([H])([H])C([H])([H])C([H])([H])C([H])(n6nc(-c7c([H])c([H])c(Oc8c([H])c([H])c(F)c([H])c8F)c([H])c7[H])c(C(=O)N([H])[H])c6N([H])[H])C5([H])[H])C([H])([H])C4([H])[H])c(C([H])(C([H])([H])[H])C([H])([H])C([H])([H])[H])c3[H])c([H])c([H])c2C1([H])[H]

$$$$
54:0:0
     RDKit          3D

 94103  0  0  1  0  0  0  0  0999 V2000
  -30.0360  -20.7190   21.5950 C   0  0  0  0  0  3  0  0  0  0  0  0
  -28.6250  -20.6460   19.6850 C   0  0  0  0  0  3  0  0  0  0  0  0
  -30.3830  -19.3550   21.3740 C   0  0  0  0  0  0  0  0  0  0  0  0
  -29.1660  -21.4380   20.7340 C   0  0  0  0  0  0  0  0  0  0  0  0
  -29.8410  -18.6780   20.2510 C   0  0  0  0  0  0  0  0  0  0  0  0
  -28.9340  -19.3280   19.4670 N   0  0  0  0  0  0  0  0  0  0  0  0
  -30.9850  -17.4980   23.1330 C   0  0  0  0  0  2  0  0  0  0  0  0
  -31.2330  -18.8310   23.7980 C   0  0  0  0  0  2  0  0  0  0  0  0
  -31.3680  -18.6980   22.2960 C   0  0  0  0  0  3  0  0  0  0  0  0
  -30.4490  -17.2900   18.1780 C   0  0  0  0  0  1  0  0  0  0  0  0
  -30.4320  -17.3070   19.7240 C   0  0  0  0  0  3  0  0  0  0  0  0
  -30.7210  -14.8120   20.1180 C   0  0  0  0  0  0  0  0  0  0  0  0
  -30.4530  -12.5800   19.0820 C   0  0  0  0  0  2  0  0  0  0  0  0
  -29.4860  -12.7050   17.8860 C   0  0  0  0  0  2  0  0  0  0  0  0
  -28.0290  -12.5280   18.3540 C   0  0  0  0  0  2  0  0  0  0  0  0
  -27.6910  -13.3840   19.6040 C   0  0  0  0  0  3  0  0  0  0  0  0
  -28.7830  -13.2760   20.6930 C   0  0  0  0  0  2  0  0  0  0  0  0
  -30.0650  -13.6110   20.0660 N   0  0  0  0  0  0  0  0  0  0  0  0
  -31.9060  -14.8870   19.7850 O   0  0  0  0  0  0  0  0  0  0  0  0
  -29.9800  -15.9620   20.2420 N   0  0  0  0  0  0  0  0  0  0  0  0
  -29.0090  -15.8780   20.5000 H   0  0  0  0  0  0  0  0  0  0  0  0
  -25.3140  -13.9320   20.3990 C   0  0  0  0  0  0  0  0  0  0  0  0
  -24.2700  -13.1370   20.7920 C   0  0  0  0  0  0  0  0  0  0  0  0
  -24.7540  -11.7940   20.7390 C   0  0  0  0  0  0  0  0  0  0  0  0
  -26.3640  -13.0710   20.1280 N   0  0  0  0  0  0  0  0  0  0  0  0
  -26.0370  -11.7800   20.3950 N   0  0  0  0  0  0  0  0  0  0  0  0
  -24.0530  -10.5190   20.9360 C   0  0  0  0  0  0  0  0  0  0  0  0
  -24.4760   -9.5860   21.9090 C   0  0  0  0  0  3  0  0  0  0  0  0
  -23.7730   -8.3750   22.0930 C   0  0  0  0  0  3  0  0  0  0  0  0
  -22.6340   -8.0890   21.3050 C   0  0  0  0  0  0  0  0  0  0  0  0
  -22.2310   -9.0100   20.3220 C   0  0  0  0  0  3  0  0  0  0  0  0
  -22.9330  -10.2120   20.1360 C   0  0  0  0  0  3  0  0  0  0  0  0
  -21.9040   -6.9280   21.3970 O   0  0  0  0  0  0  0  0  0  0  0  0
  -21.7740   -6.2530   22.5830 C   0  0  0  0  0  0  0  0  0  0  0  0
  -21.1830   -6.8490   23.7200 C   0  0  0  0  0  3  0  0  0  0  0  0
  -21.0060   -6.0960   24.8970 C   0  0  0  0  0  3  0  0  0  0  0  0
  -21.4060   -4.7480   24.9390 C   0  0  0  0  0  0  0  0  0  0  0  0
  -21.9890   -4.1510   23.8070 C   0  0  0  0  0  3  0  0  0  0  0  0
  -22.1680   -4.9010   22.6320 C   0  0  0  0  0  0  0  0  0  0  0  0
  -22.7090   -4.3140   21.5370 F   0  0  0  0  0  0  0  0  0  0  0  0
  -21.2280   -4.0220   26.0680 F   0  0  0  0  0  0  0  0  0  0  0  0
  -22.8740  -13.5900   21.1030 C   0  0  0  0  0  0  0  0  0  0  0  0
  -22.1760  -12.8680   21.9730 N   0  0  0  0  0  0  0  0  0  0  0  0
  -22.4080  -14.6170   20.6090 O   0  0  0  0  0  0  0  0  0  0  0  0
  -22.5660  -12.0390   22.3940 H   0  0  0  0  0  0  0  0  0  0  0  0
  -21.2390  -13.1510   22.2240 H   0  0  0  0  0  0  0  0  0  0  0  0
  -25.4510  -15.3060   20.2260 N   0  0  0  0  0  0  0  0  0  0  0  0
  -24.6760  -15.9480   20.3550 H   0  0  0  0  0  0  0  0  0  0  0  0
  -26.2730  -15.7550   19.8430 H   0  0  0  0  0  0  0  0  0  0  0  0
  -28.8960  -22.8240   21.0170 N   0  0  0  0  0  0  0  0  0  0  0  0
  -29.3160  -23.1620   21.8820 H   0  0  0  0  0  0  0  0  0  0  0  0
  -28.5050  -23.9360   20.0920 C   0  0  0  0  0  2  0  0  0  0  0  0
  -28.1940  -25.3230   20.8310 C   0  0  0  0  0  2  0  0  0  0  0  0
  -28.2950  -26.6210   20.1330 O   0  0  0  0  0  0  0  0  0  0  0  0
  -24.5410  -31.9470   23.2420 C   0  0  0  0  0  0  0  0  0  0  0  0
  -27.1700  -27.4470   20.1460 C   0  0  0  0  0  0  0  0  0  0  0  0
  -23.3370  -30.5490   21.5970 C   0  0  0  0  0  3  0  0  0  0  0  0
  -24.7910  -29.0170   20.1560 C   0  0  0  0  0  0  0  0  0  0  0  0
  -25.8690  -30.8980   21.3960 C   0  0  0  0  0  2  0  0  0  0  0  0
  -25.9580  -29.5250   20.7420 C   0  0  0  0  0  0  0  0  0  0  0  0
  -27.1560  -28.7520   20.7220 C   0  0  0  0  0  3  0  0  0  0  0  0
  -25.9840  -26.9790   19.5470 C   0  0  0  0  0  3  0  0  0  0  0  0
  -24.8040  -27.7490   19.5510 C   0  0  0  0  0  3  0  0  0  0  0  0
  -23.5460  -29.8800   20.2130 C   0  0  0  0  0  2  0  0  0  0  0  0
  -24.6010  -31.1480   22.1360 N   0  0  0  0  0  0  0  0  0  0  0  0
  -23.4580  -32.2110   23.7850 O   0  0  0  0  0  0  0  0  0  0  0  0
  -22.6900  -29.5210   22.5550 C   0  0  0  0  0  0  0  0  0  0  0  0
  -21.3670  -29.3220   22.4220 N   0  0  0  0  0  0  0  0  0  0  0  0
  -23.3770  -28.9030   23.3720 O   0  0  0  0  0  0  0  0  0  0  0  0
  -20.8730  -29.8730   21.7340 H   0  0  0  0  0  0  0  0  0  0  0  0
  -18.0040  -28.0830   22.9160 C   0  0  0  0  0  0  0  0  0  0  0  0
  -20.5600  -28.3700   23.1870 C   0  0  0  0  0  3  0  0  0  0  0  0
  -20.6780  -26.9440   22.6030 C   0  0  0  0  0  2  0  0  0  0  0  0
  -19.5810  -26.6150   21.5870 C   0  0  0  0  0  2  0  0  0  0  0  0
  -18.1970  -26.7390   22.2320 C   0  0  0  0  0  2  0  0  0  0  0  0
  -19.1150  -28.8550   23.3500 C   0  0  0  0  0  0  0  0  0  0  0  0
  -18.8830  -30.1130   23.9480 C   0  0  0  0  0  3  0  0  0  0  0  0
  -17.5730  -30.5980   24.1170 C   0  0  0  0  0  3  0  0  0  0  0  0
  -16.4760  -29.8230   23.7020 C   0  0  0  0  0  3  0  0  0  0  0  0
  -16.6930  -28.5670   23.1060 C   0  0  0  0  0  3  0  0  0  0  0  0
  -25.8230  -32.5820   23.8620 C   0  0  0  0  0  3  0  0  0  0  0  0
  -25.5110  -33.9810   24.1890 N   0  0  0  0  0  0  0  0  0  0  0  0
  -25.8470  -35.0340   23.4320 C   0  0  0  0  0  0  0  0  0  0  0  0
  -26.5230  -34.9310   22.4050 O   0  0  0  0  0  0  0  0  0  0  0  0
  -24.9140  -34.1350   24.9880 H   0  0  0  0  0  0  0  0  0  0  0  0
  -24.1280  -36.8330   23.0590 C   0  0  0  0  0  1  0  0  0  0  0  0
  -25.3560  -36.4230   23.8870 C   0  0  0  0  0  3  0  0  0  0  0  0
  -27.4770  -37.3040   24.7540 C   0  0  0  0  0  1  0  0  0  0  0  0
  -26.3930  -37.4730   23.7910 N   0  0  0  0  0  0  0  0  0  0  0  0
  -25.9870  -38.3950   23.9310 H   0  0  0  0  0  0  0  0  0  0  0  0
  -26.3420  -31.8160   25.1410 C   0  0  1  0  0  0  0  0  0  0  0  0
  -25.2430  -31.5570   26.1990 C   0  0  0  0  0  1  0  0  0  0  0  0
  -26.9530  -30.4490   24.7510 C   0  0  0  0  0  1  0  0  0  0  0  0
  -27.4710  -32.6300   25.8160 C   0  0  0  0  0  1  0  0  0  0  0  0
  2  4  1  0
  3  1  1  0
  3  9  1  0
  4 50  1  0
  4  1  2  0
  5  3  2  0
  6  2  2  0
  6  5  1  0
  7  8  1  0
  9  7  1  0
  9  8  1  0
 11 10  1  0
 11 20  1  0
 11  5  1  0
 12 20  1  0
 13 18  1  0
 14 15  1  0
 14 13  1  0
 16 15  1  0
 16 25  1  0
 16 17  1  0
 18 12  1  0
 18 17  1  0
 19 12  2  0
 20 21  1  0
 22 23  2  0
 23 42  1  0
 24 23  1  0
 24 27  1  0
 25 26  1  0
 25 22  1  0
 26 24  2  0
 27 28  1  0
 28 29  2  0
 30 33  1  0
 30 29  1  0
 31 30  2  0
 32 31  1  0
 32 27  2  0
 33 34  1  0
 34 39  2  0
 34 35  1  0
 35 36  2  0
 36 37  1  0
 37 41  1  0
 38 37  2  0
 39 38  1  0
 40 39  1  0
 42 43  1  0
 43 46  1  0
 43 45  1  0
 44 42  2  0
 47 48  1  0
 47 22  1  0
 49 47  1  0
 50 51  1  0
 52 53  1  0
 52 50  1  0
 54 56  1  0
 54 53  1  0
 55 66  2  0
 56 61  1  0
 57 65  1  0
 57 67  1  0
 58 64  1  0
 58 60  1  0
 59 65  1  0
 60 59  1  0
 61 60  2  0
 62 63  1  0
 62 56  2  0
 63 58  2  0
 64 57  1  0
 65 55  1  0
 67 69  2  0
 68 67  1  0
 70 68  1  0
 71 80  2  0
 71 76  1  0
 72 68  1  0
 72 76  1  0
 73 72  1  0
 74 75  1  0
 74 73  1  0
 75 71  1  0
 76 77  2  0
 77 78  1  0
 79 78  2  0
 80 79  1  0
 81 55  1  0
 81 82  1  0
 81 91  1  0
 82 85  1  0
 83 87  1  0
 83 82  1  0
 84 83  2  0
 87 86  1  0
 89 87  1  0
 89 90  1  0
 89 88  1  0
 91 94  1  1
 91 92  1  0
 93 91  1  0
M  ISO  4  12 100  20 100  53 101  54 101
M  END
>  <TORSDO>  (55) 
F 21

>  <SCORE>  (55) 
-12.713

>  <name>  (55) 
54

>  <ligand_id>  (55) 
54

>  <original_smiles>  (55) 
[H]c1nc(C([H])(N([H])C(=O)N2C([H])([H])C([H])([H])C([H])([H])C([H])(n3nc(-c4c([H])c([H])c(Oc5c([H])c([H])c(F)c([H])c5F)c([H])c4[H])c(C(=O)N([H])[H])c3N([H])[H])C2([H])[H])C([H])([H])[H])c(C2([H])C([H])([H])C2([H])[H])c([H])c1N([H])C([H])([H])C([H])([H])Oc1c([H])c([H])c2c(c1[H])C([H])([H])N(C(=O)C([H])(N([H])C(=O)C([H])(N([H])C([H])([H])[H])C([H])([H])[H])C(C([H])([H])[H])(C([H])([H])[H])C([H])([H])[H])C([H])(C(=O)N([H])C1([H])c3c([H])c([H])c([H])c([H])c3C([H])([H])C([H])([H])C1([H])[H])C2([H])[H]

>  <smiles>  (55) 
[H]c1nc(C([H])(N([H])C(=O)N2C([H])([H])C([H])([H])C([H])([H])C([H])(n3nc(-c4c([H])c([H])c(Oc5c([H])c([H])c(F)c([H])c5F)c([H])c4[H])c(C(=O)N([H])[H])c3N([H])[H])C2([H])[H])C([H])([H])[H])c(C2([H])C([H])([H])C2([H])[H])c([H])c1N([H])C([H])([H])C([H])([H])Oc1c([H])c([H])c2c(c1[H])C([H])([H])N(C(=O)C([H])(N([H])C(=O)C([H])(N([H])C([H])([H])[H])C([H])([H])[H])C(C([H])([H])[H])(C([H])([H])[H])C([H])([H])[H])C([H])(C(=O)N([H])C1([H])c3c([H])c([H])c([H])c([H])c3C([H])([H])C([H])([H])C1([H])[H])C2([H])[H]

$$$$
55:0:0
     RDKit          3D

 97107  0  0  1  0  0  0  0  0999 V2000
  -28.9380  -20.5640   18.8050 C   0  0  0  0  0  3  0  0  0  0  0  0
  -28.8000  -21.9580   18.9230 C   0  0  0  0  0  3  0  0  0  0  0  0
  -30.3630  -21.9580   20.7740 C   0  0  0  0  0  3  0  0  0  0  0  0
  -29.7670  -19.8310   19.6850 C   0  0  0  0  0  0  0  0  0  0  0  0
  -30.5040  -20.5460   20.6610 C   0  0  0  0  0  0  0  0  0  0  0  0
  -29.4920  -22.6820   19.9100 C   0  0  0  0  0  0  0  0  0  0  0  0
  -31.4520  -19.7900   21.5840 C   0  0  0  0  0  2  0  0  0  0  0  0
  -31.9690  -18.4650   20.9820 C   0  0  0  0  0  2  0  0  0  0  0  0
  -29.8800  -18.3000   19.5110 C   0  0  0  0  0  3  0  0  0  0  0  0
  -30.8270  -17.5280   20.5180 C   0  0  0  0  0  3  0  0  0  0  0  0
  -31.7490  -15.1690   20.8030 C   0  0  0  0  0  0  0  0  0  0  0  0
  -31.3940  -12.9860   19.7600 C   0  0  0  0  0  2  0  0  0  0  0  0
  -30.5360  -13.1690   18.4900 C   0  0  0  0  0  2  0  0  0  0  0  0
  -29.0370  -13.1240   18.8350 C   0  0  0  0  0  2  0  0  0  0  0  0
  -28.6480  -14.0020   20.0570 C   0  0  0  0  0  3  0  0  0  0  0  0
  -29.6420  -13.8320   21.2260 C   0  0  0  0  0  2  0  0  0  0  0  0
  -30.9930  -14.0420   20.6930 N   0  0  0  0  0  0  0  0  0  0  0  0
  -32.9680  -15.1080   20.9510 O   0  0  0  0  0  0  0  0  0  0  0  0
  -32.0550  -16.3120   18.7320 C   0  0  0  0  0  1  0  0  0  0  0  0
  -31.3160  -16.1980   20.0120 N   0  0  0  0  0  0  0  0  0  0  0  0
  -26.2520  -14.6740   20.7150 C   0  0  0  0  0  0  0  0  0  0  0  0
  -25.1250  -13.9390   20.9510 C   0  0  0  0  0  0  0  0  0  0  0  0
  -25.5160  -12.5720   20.8370 C   0  0  0  0  0  0  0  0  0  0  0  0
  -27.2640  -13.7610   20.4630 N   0  0  0  0  0  0  0  0  0  0  0  0
  -26.8210  -12.4840   20.6040 N   0  0  0  0  0  0  0  0  0  0  0  0
  -24.7110  -11.3450   20.8800 C   0  0  0  0  0  0  0  0  0  0  0  0
  -25.0330  -10.2820   21.7510 C   0  0  0  0  0  3  0  0  0  0  0  0
  -24.2330   -9.1210   21.7880 C   0  0  0  0  0  3  0  0  0  0  0  0
  -23.0930   -9.0170   20.9570 C   0  0  0  0  0  0  0  0  0  0  0  0
  -22.7890  -10.0690   20.0740 C   0  0  0  0  0  3  0  0  0  0  0  0
  -23.5910  -11.2220   20.0330 C   0  0  0  0  0  3  0  0  0  0  0  0
  -22.2710   -7.9190   20.9090 O   0  0  0  0  0  0  0  0  0  0  0  0
  -22.0480   -7.1390   22.0170 C   0  0  0  0  0  0  0  0  0  0  0  0
  -21.5250   -7.6760   23.2130 C   0  0  0  0  0  3  0  0  0  0  0  0
  -21.2470   -6.8270   24.3030 C   0  0  0  0  0  3  0  0  0  0  0  0
  -21.4800   -5.4430   24.1960 C   0  0  0  0  0  0  0  0  0  0  0  0
  -21.9970   -4.9060   23.0020 C   0  0  0  0  0  3  0  0  0  0  0  0
  -22.2760   -5.7530   21.9150 C   0  0  0  0  0  0  0  0  0  0  0  0
  -22.7530   -5.2270   20.7610 F   0  0  0  0  0  0  0  0  0  0  0  0
  -21.2070   -4.6250   25.2390 F   0  0  0  0  0  0  0  0  0  0  0  0
  -23.7410  -14.4780   21.1720 C   0  0  0  0  0  0  0  0  0  0  0  0
  -22.9310  -13.7810   21.9620 N   0  0  0  0  0  0  0  0  0  0  0  0
  -23.3870  -15.5510   20.6840 O   0  0  0  0  0  0  0  0  0  0  0  0
  -23.2250  -12.9100   22.3790 H   0  0  0  0  0  0  0  0  0  0  0  0
  -22.0020  -14.1270   22.1540 H   0  0  0  0  0  0  0  0  0  0  0  0
  -26.4750  -16.0410   20.6750 N   0  0  0  0  0  0  0  0  0  0  0  0
  -25.7050  -16.6890   20.7890 H   0  0  0  0  0  0  0  0  0  0  0  0
  -27.3150  -16.5200   20.3580 H   0  0  0  0  0  0  0  0  0  0  0  0
  -28.4860  -17.6590   19.4290 C   0  0  0  0  0  0  0  0  0  0  0  0
  -27.8400  -17.4620   20.4580 O   0  0  0  0  0  0  0  0  0  0  0  0
  -26.6820  -16.4870   17.9690 C   0  0  0  0  0  2  0  0  0  0  0  0
  -26.5940  -17.9640   17.6880 C   0  0  0  0  0  2  0  0  0  0  0  0
  -27.9270  -17.3490   18.0630 C   0  0  0  0  0  3  0  0  0  0  0  0
  -29.2350  -24.0460   19.9230 O   0  0  0  0  0  0  0  0  0  0  0  0
  -29.7870  -24.9140   20.9180 C   0  0  0  0  0  2  0  0  0  0  0  0
  -28.8290  -26.1050   21.1840 C   0  0  0  0  0  2  0  0  0  0  0  0
  -28.9140  -27.2250   20.2750 O   0  0  0  0  0  0  0  0  0  0  0  0
  -25.0040  -32.1040   23.6910 C   0  0  0  0  0  0  0  0  0  0  0  0
  -27.7640  -27.9880   20.2860 C   0  0  0  0  0  0  0  0  0  0  0  0
  -23.8320  -30.7920   21.9520 C   0  0  0  0  0  3  0  0  0  0  0  0
  -25.3270  -29.4170   20.4050 C   0  0  0  0  0  0  0  0  0  0  0  0
  -26.3430  -31.2490   21.7690 C   0  0  0  0  0  2  0  0  0  0  0  0
  -26.4720  -29.9330   21.0260 C   0  0  0  0  0  0  0  0  0  0  0  0
  -27.6970  -29.2260   20.9650 C   0  0  0  0  0  3  0  0  0  0  0  0
  -26.6080  -27.4980   19.6400 C   0  0  0  0  0  3  0  0  0  0  0  0
  -25.3910  -28.2010   19.7040 C   0  0  0  0  0  3  0  0  0  0  0  0
  -24.0550  -30.2250   20.5240 C   0  0  0  0  0  2  0  0  0  0  0  0
  -25.0790  -31.3930   22.5310 N   0  0  0  0  0  0  0  0  0  0  0  0
  -23.9200  -32.2990   24.2560 O   0  0  0  0  0  0  0  0  0  0  0  0
  -23.2220  -29.6800   22.8380 C   0  0  0  0  0  0  0  0  0  0  0  0
  -21.9320  -29.3790   22.6180 N   0  0  0  0  0  0  0  0  0  0  0  0
  -23.9090  -29.0920   23.6770 O   0  0  0  0  0  0  0  0  0  0  0  0
  -21.4320  -29.9140   21.9210 H   0  0  0  0  0  0  0  0  0  0  0  0
  -18.7100  -27.7460   22.7400 C   0  0  0  0  0  0  0  0  0  0  0  0
  -21.1610  -28.3420   23.3050 C   0  0  0  0  0  3  0  0  0  0  0  0
  -21.5180  -26.9360   22.7700 C   0  0  0  0  0  2  0  0  0  0  0  0
  -20.5960  -26.4700   21.6390 C   0  0  0  0  0  2  0  0  0  0  0  0
  -19.1410  -26.4310   22.1140 C   0  0  0  0  0  2  0  0  0  0  0  0
  -19.6590  -28.6510   23.2850 C   0  0  0  0  0  0  0  0  0  0  0  0
  -19.2080  -29.8760   23.8220 C   0  0  0  0  0  3  0  0  0  0  0  0
  -17.8370  -30.1990   23.8250 C   0  0  0  0  0  3  0  0  0  0  0  0
  -16.9010  -29.2940   23.2970 C   0  0  0  0  0  3  0  0  0  0  0  0
  -17.3380  -28.0700   22.7590 C   0  0  0  0  0  3  0  0  0  0  0  0
  -26.2740  -32.7280   24.3510 C   0  0  0  0  0  3  0  0  0  0  0  0
  -25.9900  -34.1460   24.6030 N   0  0  0  0  0  0  0  0  0  0  0  0
  -26.4310  -35.1570   23.8420 C   0  0  0  0  0  0  0  0  0  0  0  0
  -27.1890  -34.9910   22.8820 O   0  0  0  0  0  0  0  0  0  0  0  0
  -25.3330  -34.3510   25.3400 H   0  0  0  0  0  0  0  0  0  0  0  0
  -24.8170  -36.9950   23.2590 C   0  0  0  0  0  1  0  0  0  0  0  0
  -25.9550  -36.5780   24.2030 C   0  0  0  0  0  3  0  0  0  0  0  0
  -28.0370  -37.4100   25.2060 C   0  0  0  0  0  1  0  0  0  0  0  0
  -27.0350  -37.5880   24.1580 N   0  0  0  0  0  0  0  0  0  0  0  0
  -26.6530  -38.5270   24.2400 H   0  0  0  0  0  0  0  0  0  0  0  0
  -26.7070  -31.9990   25.6820 C   0  0  1  0  0  0  0  0  0  0  0  0
  -25.5560  -31.8330   26.7010 C   0  0  0  0  0  1  0  0  0  0  0  0
  -27.2730  -30.5930   25.3730 C   0  0  0  0  0  1  0  0  0  0  0  0
  -27.8420  -32.7930   26.3690 C   0  0  0  0  0  1  0  0  0  0  0  0
  1  2  2  0
  1  4  1  0
  2  6  1  0
  4  5  2  0
  5  3  1  0
  5  7  1  0
  6 54  1  0
  6  3  2  0
  8  7  1  0
  9 49  1  0
  9  4  1  0
  9 10  1  0
 10 20  1  0
 10  8  1  0
 11 18  2  0
 12 17  1  0
 13 14  1  0
 13 12  1  0
 15 14  1  0
 15 24  1  0
 15 16  1  0
 17 11  1  0
 17 16  1  0
 19 20  1  0
 20 11  1  0
 21 22  2  0
 22 41  1  0
 23 26  1  0
 23 22  1  0
 24 25  1  0
 24 21  1  0
 25 23  2  0
 26 27  1  0
 27 28  2  0
 29 28  1  0
 30 29  2  0
 31 30  1  0
 31 26  2  0
 32 29  1  0
 32 33  1  0
 33 34  1  0
 34 35  2  0
 36 35  1  0
 36 40  1  0
 37 36  2  0
 38 33  2  0
 38 37  1  0
 39 38  1  0
 41 42  1  0
 42 45  1  0
 42 44  1  0
 43 41  2  0
 46 21  1  0
 46 47  1  0
 48 46  1  0
 49 50  2  0
 51 53  1  0
 52 51  1  0
 52 53  1  0
 53 49  1  0
 54 55  1  0
 55 56  1  0
 57 59  1  0
 57 56  1  0
 58 69  2  0
 59 64  1  0
 60 68  1  0
 60 70  1  0
 61 67  1  0
 61 63  1  0
 62 68  1  0
 63 62  1  0
 64 63  2  0
 65 66  1  0
 65 59  2  0
 66 61  2  0
 67 60  1  0
 68 58  1  0
 70 72  2  0
 71 70  1  0
 73 71  1  0
 74 83  2  0
 74 79  1  0
 75 71  1  0
 76 75  1  0
 77 78  1  0
 77 76  1  0
 78 74  1  0
 79 75  1  0
 79 80  2  0
 80 81  1  0
 82 81  2  0
 83 82  1  0
 84 58  1  0
 84 85  1  0
 84 94  1  0
 85 88  1  0
 86 90  1  0
 86 85  1  0
 87 86  2  0
 90 89  1  0
 92 90  1  0
 92 93  1  0
 92 91  1  0
 94 97  1  1
 94 95  1  0
 96 94  1  0
M  ISO  4  11 100  20 100  56 101  57 101
M  END
>  <TORSDO>  (56) 
F 21

>  <SCORE>  (56) 
-5.735

>  <name>  (56) 
55

>  <ligand_id>  (56) 
55

>  <original_smiles>  (56) 
[H]c1c([H])c([H])c2c(c1[H])C([H])([H])C([H])([H])C([H])([H])C2([H])N([H])C(=O)C1([H])N(C(=O)C([H])(N([H])C(=O)C([H])(N([H])C([H])([H])[H])C([H])([H])[H])C(C([H])([H])[H])(C([H])([H])[H])C([H])([H])[H])C([H])([H])c2c([H])c(OC([H])([H])C([H])([H])Oc3c([H])c([H])c4c(c3[H])C([H])([H])C([H])([H])C([H])(N(C(=O)N3C([H])([H])C([H])([H])C([H])([H])C([H])(n5nc(-c6c([H])c([H])c(Oc7c([H])c([H])c(F)c([H])c7F)c([H])c6[H])c(C(=O)N([H])[H])c5N([H])[H])C3([H])[H])C([H])([H])[H])C4([H])C(=O)C3([H])C([H])([H])C3([H])[H])c([H])c([H])c2C1([H])[H]

>  <smiles>  (56) 
[H]c1c([H])c([H])c2c(c1[H])C([H])([H])C([H])([H])C([H])([H])C2([H])N([H])C(=O)C1([H])N(C(=O)C([H])(N([H])C(=O)C([H])(N([H])C([H])([H])[H])C([H])([H])[H])C(C([H])([H])[H])(C([H])([H])[H])C([H])([H])[H])C([H])([H])c2c([H])c(OC([H])([H])C([H])([H])Oc3c([H])c([H])c4c(c3[H])C([H])([H])C([H])([H])C([H])(N(C(=O)N3C([H])([H])C([H])([H])C([H])([H])C([H])(n5nc(-c6c([H])c([H])c(Oc7c([H])c([H])c(F)c([H])c7F)c([H])c6[H])c(C(=O)N([H])[H])c5N([H])[H])C3([H])[H])C([H])([H])[H])C4([H])C(=O)C3([H])C([H])([H])C3([H])[H])c([H])c([H])c2C1([H])[H]

$$$$
56:0:0
     RDKit          3D

 91 99  0  0  1  0  0  0  0  0999 V2000
  -29.0620  -22.2820   20.1540 C   0  0  0  0  0  0  0  0  0  0  0  0
  -28.2690  -21.8060   19.3390 O   0  0  0  0  0  0  0  0  0  0  0  0
  -30.9750  -20.7590   22.9670 C   0  0  0  0  0  3  0  0  0  0  0  0
  -30.4150  -21.8350   22.2400 C   0  0  0  0  0  3  0  0  0  0  0  0
  -30.7080  -19.6180   22.2760 C   0  0  0  0  0  3  0  0  0  0  0  0
  -29.8240  -21.3600   21.0970 C   0  0  0  0  0  0  0  0  0  0  0  0
  -30.0420  -19.9120   21.0900 N   0  0  0  0  0  0  0  0  0  0  0  0
  -29.6520  -18.7430   20.1980 C   0  0  0  0  0  2  0  0  0  0  0  0
  -30.6270  -17.4310   20.1710 C   0  0  0  0  0  2  0  0  0  0  0  0
  -30.8060  -14.8300   19.9990 C   0  0  0  0  0  0  0  0  0  0  0  0
  -30.4990  -12.5800   18.9660 C   0  0  0  0  0  2  0  0  0  0  0  0
  -29.5180  -12.6850   17.7800 C   0  0  0  0  0  2  0  0  0  0  0  0
  -28.0610  -12.5470   18.2610 C   0  0  0  0  0  2  0  0  0  0  0  0
  -27.7520  -13.4250   19.5040 C   0  0  0  0  0  3  0  0  0  0  0  0
  -28.8500  -13.3070   20.5830 C   0  0  0  0  0  2  0  0  0  0  0  0
  -30.1300  -13.6330   19.9400 N   0  0  0  0  0  0  0  0  0  0  0  0
  -31.9840  -14.8900   19.6410 O   0  0  0  0  0  0  0  0  0  0  0  0
  -30.0970  -15.9960   20.2420 N   0  0  0  0  0  0  0  0  0  0  0  0
  -29.1210  -15.8800   20.4630 H   0  0  0  0  0  0  0  0  0  0  0  0
  -25.4000  -14.0490   20.3170 C   0  0  0  0  0  0  0  0  0  0  0  0
  -24.3390  -13.2910   20.7270 C   0  0  0  0  0  0  0  0  0  0  0  0
  -24.7820  -11.9330   20.6830 C   0  0  0  0  0  0  0  0  0  0  0  0
  -26.4230  -13.1550   20.0440 N   0  0  0  0  0  0  0  0  0  0  0  0
  -26.0600  -11.8780   20.3280 N   0  0  0  0  0  0  0  0  0  0  0  0
  -24.0430  -10.6820   20.8970 C   0  0  0  0  0  0  0  0  0  0  0  0
  -24.4780   -9.7190   21.8350 C   0  0  0  0  0  3  0  0  0  0  0  0
  -23.7400   -8.5320   22.0390 C   0  0  0  0  0  3  0  0  0  0  0  0
  -22.5520   -8.3010   21.3060 C   0  0  0  0  0  0  0  0  0  0  0  0
  -22.1350   -9.2510   20.3570 C   0  0  0  0  0  3  0  0  0  0  0  0
  -22.8740  -10.4290   20.1520 C   0  0  0  0  0  3  0  0  0  0  0  0
  -21.7850   -7.1660   21.4200 O   0  0  0  0  0  0  0  0  0  0  0  0
  -21.7250   -6.4520   22.5890 C   0  0  0  0  0  0  0  0  0  0  0  0
  -21.3020   -7.0390   23.8020 C   0  0  0  0  0  3  0  0  0  0  0  0
  -21.1920   -6.2510   24.9650 C   0  0  0  0  0  3  0  0  0  0  0  0
  -21.4920   -4.8770   24.9160 C   0  0  0  0  0  0  0  0  0  0  0  0
  -21.9070   -4.2890   23.7080 C   0  0  0  0  0  3  0  0  0  0  0  0
  -22.0210   -5.0750   22.5480 C   0  0  0  0  0  0  0  0  0  0  0  0
  -22.4010   -4.4980   21.3820 F   0  0  0  0  0  0  0  0  0  0  0  0
  -21.3750   -4.1180   26.0300 F   0  0  0  0  0  0  0  0  0  0  0  0
  -22.9580  -13.7880   21.0430 C   0  0  0  0  0  0  0  0  0  0  0  0
  -22.2510  -13.1090   21.9390 N   0  0  0  0  0  0  0  0  0  0  0  0
  -22.5170  -14.8150   20.5290 O   0  0  0  0  0  0  0  0  0  0  0  0
  -22.6230  -12.2790   22.3770 H   0  0  0  0  0  0  0  0  0  0  0  0
  -21.3240  -13.4210   22.1890 H   0  0  0  0  0  0  0  0  0  0  0  0
  -25.5740  -15.4170   20.1270 N   0  0  0  0  0  0  0  0  0  0  0  0
  -24.8110  -16.0740   20.2540 H   0  0  0  0  0  0  0  0  0  0  0  0
  -26.3980  -15.8410   19.7220 H   0  0  0  0  0  0  0  0  0  0  0  0
  -29.3100  -23.8760   20.1400 C   0  0  0  0  0  2  0  0  0  0  0  0
  -27.4480  -24.7250   21.6860 C   0  0  0  0  0  1  0  0  0  0  0  0
  -28.1130  -24.9500   20.3110 C   0  0  0  0  0  3  0  0  0  0  0  0
  -28.3760  -26.4390   20.1690 O   0  0  0  0  0  0  0  0  0  0  0  0
  -24.6010  -31.8740   23.1700 C   0  0  0  0  0  0  0  0  0  0  0  0
  -27.2830  -27.3390   20.0890 C   0  0  0  0  0  0  0  0  0  0  0  0
  -23.4280  -30.4710   21.5160 C   0  0  0  0  0  3  0  0  0  0  0  0
  -24.9070  -28.9590   20.0740 C   0  0  0  0  0  0  0  0  0  0  0  0
  -25.9660  -30.8180   21.3510 C   0  0  0  0  0  2  0  0  0  0  0  0
  -26.0680  -29.4440   20.6880 C   0  0  0  0  0  0  0  0  0  0  0  0
  -27.2580  -28.6440   20.6880 C   0  0  0  0  0  3  0  0  0  0  0  0
  -26.1000  -26.9380   19.4230 C   0  0  0  0  0  3  0  0  0  0  0  0
  -24.9270  -27.7140   19.4320 C   0  0  0  0  0  3  0  0  0  0  0  0
  -23.6580  -29.8160   20.1300 C   0  0  0  0  0  2  0  0  0  0  0  0
  -24.6830  -31.0750   22.0670 N   0  0  0  0  0  0  0  0  0  0  0  0
  -23.5110  -32.1280   23.7020 O   0  0  0  0  0  0  0  0  0  0  0  0
  -22.7760  -29.4360   22.4650 C   0  0  0  0  0  0  0  0  0  0  0  0
  -21.4550  -29.2270   22.3230 N   0  0  0  0  0  0  0  0  0  0  0  0
  -23.4570  -28.8240   23.2910 O   0  0  0  0  0  0  0  0  0  0  0  0
  -20.9590  -29.7750   21.6360 H   0  0  0  0  0  0  0  0  0  0  0  0
  -18.1080  -27.9180   22.7520 C   0  0  0  0  0  0  0  0  0  0  0  0
  -20.6500  -28.2670   23.0800 C   0  0  0  0  0  3  0  0  0  0  0  0
  -20.8140  -26.8360   22.5180 C   0  0  0  0  0  2  0  0  0  0  0  0
  -19.7480  -26.4690   21.4800 C   0  0  0  0  0  2  0  0  0  0  0  0
  -18.3480  -26.5700   22.0900 C   0  0  0  0  0  2  0  0  0  0  0  0
  -19.1900  -28.7220   23.2020 C   0  0  0  0  0  0  0  0  0  0  0  0
  -18.9130  -29.9790   23.7780 C   0  0  0  0  0  3  0  0  0  0  0  0
  -17.5870  -30.4350   23.9100 C   0  0  0  0  0  3  0  0  0  0  0  0
  -16.5210  -29.6300   23.4760 C   0  0  0  0  0  3  0  0  0  0  0  0
  -16.7810  -28.3730   22.9030 C   0  0  0  0  0  3  0  0  0  0  0  0
  -25.8700  -32.5230   23.8030 C   0  0  0  0  0  3  0  0  0  0  0  0
  -25.5370  -33.9170   24.1340 N   0  0  0  0  0  0  0  0  0  0  0  0
  -25.8760  -34.9790   23.3920 C   0  0  0  0  0  0  0  0  0  0  0  0
  -26.5670  -34.8900   22.3730 O   0  0  0  0  0  0  0  0  0  0  0  0
  -24.9280  -34.0600   24.9270 H   0  0  0  0  0  0  0  0  0  0  0  0
  -24.1420  -36.7620   23.0100 C   0  0  0  0  0  1  0  0  0  0  0  0
  -25.3670  -36.3600   23.8480 C   0  0  0  0  0  3  0  0  0  0  0  0
  -27.4740  -37.2550   24.7370 C   0  0  0  0  0  1  0  0  0  0  0  0
  -26.3920  -37.4230   23.7700 N   0  0  0  0  0  0  0  0  0  0  0  0
  -25.9740  -38.3390   23.9150 H   0  0  0  0  0  0  0  0  0  0  0  0
  -26.3850  -31.7570   25.0820 C   0  0  1  0  0  0  0  0  0  0  0  0
  -25.2860  -31.5060   26.1400 C   0  0  0  0  0  1  0  0  0  0  0  0
  -26.9870  -30.3860   24.6970 C   0  0  0  0  0  1  0  0  0  0  0  0
  -27.5230  -32.5630   25.7530 C   0  0  0  0  0  1  0  0  0  0  0  0
  1  6  1  0
  2  1  2  0
  4  3  1  0
  5  3  2  0
  6  4  2  0
  7  6  1  0
  7  5  1  0
  8  7  1  0
  9  8  1  0
  9 18  1  0
 10 18  1  0
 11 16  1  0
 12 13  1  0
 12 11  1  0
 14 13  1  0
 14 23  1  0
 14 15  1  0
 16 10  1  0
 16 15  1  0
 17 10  2  0
 18 19  1  0
 20 21  2  0
 21 40  1  0
 22 21  1  0
 22 25  1  0
 23 20  1  0
 23 24  1  0
 24 22  2  0
 25 26  1  0
 26 27  2  0
 28 31  1  0
 28 27  1  0
 29 28  2  0
 30 29  1  0
 30 25  2  0
 31 32  1  0
 32 33  1  0
 33 34  2  0
 35 34  1  0
 35 39  1  0
 36 35  2  0
 37 32  2  0
 37 36  1  0
 38 37  1  0
 40 41  1  0
 41 44  1  0
 41 43  1  0
 42 40  2  0
 45 46  1  0
 45 20  1  0
 47 45  1  0
 48  1  1  0
 48 50  1  0
 50 49  1  0
 51 50  1  0
 52 63  2  0
 53 51  1  0
 53 58  1  0
 54 62  1  0
 54 64  1  0
 55 61  1  0
 55 57  1  0
 56 62  1  0
 57 56  1  0
 58 57  2  0
 59 60  1  0
 59 53  2  0
 60 55  2  0
 61 54  1  0
 62 52  1  0
 64 66  2  0
 65 64  1  0
 67 65  1  0
 68 77  2  0
 68 73  1  0
 69 65  1  0
 69 73  1  0
 70 69  1  0
 71 72  1  0
 71 70  1  0
 72 68  1  0
 73 74  2  0
 74 75  1  0
 76 75  2  0
 77 76  1  0
 78 52  1  0
 78 79  1  0
 78 88  1  0
 79 82  1  0
 80 84  1  0
 80 79  1  0
 81 80  2  0
 84 83  1  0
 86 84  1  0
 86 87  1  0
 86 85  1  0
 88 91  1  1
 88 89  1  0
 90 88  1  0
M  ISO  4  10 100  18 100  50 101  51 101
M  END
>  <TORSDO>  (57) 
F 21

>  <SCORE>  (57) 
-13.382

>  <name>  (57) 
56

>  <ligand_id>  (57) 
56

>  <original_smiles>  (57) 
[H]c1c([H])c([H])c2c(c1[H])C([H])([H])C([H])([H])C([H])([H])C2([H])N([H])C(=O)C1([H])N(C(=O)C([H])(N([H])C(=O)C([H])(N([H])C([H])([H])[H])C([H])([H])[H])C(C([H])([H])[H])(C([H])([H])[H])C([H])([H])[H])C([H])([H])c2c([H])c(OC([H])(C([H])([H])[H])C([H])([H])C(=O)c3c([H])c([H])c([H])n3C([H])([H])C([H])([H])N([H])C(=O)N3C([H])([H])C([H])([H])C([H])([H])C([H])(n4nc(-c5c([H])c([H])c(Oc6c([H])c([H])c(F)c([H])c6F)c([H])c5[H])c(C(=O)N([H])[H])c4N([H])[H])C3([H])[H])c([H])c([H])c2C1([H])[H]

>  <smiles>  (57) 
[H]c1c([H])c([H])c2c(c1[H])C([H])([H])C([H])([H])C([H])([H])C2([H])N([H])C(=O)C1([H])N(C(=O)C([H])(N([H])C(=O)C([H])(N([H])C([H])([H])[H])C([H])([H])[H])C(C([H])([H])[H])(C([H])([H])[H])C([H])([H])[H])C([H])([H])c2c([H])c(OC([H])(C([H])([H])[H])C([H])([H])C(=O)c3c([H])c([H])c([H])n3C([H])([H])C([H])([H])N([H])C(=O)N3C([H])([H])C([H])([H])C([H])([H])C([H])(n4nc(-c5c([H])c([H])c(Oc6c([H])c([H])c(F)c([H])c6F)c([H])c5[H])c(C(=O)N([H])[H])c4N([H])[H])C3([H])[H])c([H])c([H])c2C1([H])[H]

$$$$
57:0:0
     RDKit          3D

102111  0  0  1  0  0  0  0  0999 V2000
  -31.0070  -23.4470   23.4000 C   0  0  0  0  0  2  0  0  0  0  0  0
  -31.7840  -22.6370   24.4610 C   0  0  0  0  0  2  0  0  0  0  0  0
  -30.3070  -21.1640   23.3490 C   0  0  0  0  0  2  0  0  0  0  0  0
  -30.3780  -22.4050   22.4530 C   0  0  0  0  0  3  0  0  0  0  0  0
  -31.5470  -21.2130   24.1450 N   0  0  2  0  0  4  0  0  0  0  0  0
  -32.2910  -20.9410   23.5200 H   0  0  0  0  0  0  0  0  0  0  0  0
  -28.3150  -21.6680   21.0990 C   0  0  0  0  0  1  0  0  0  0  0  0
  -29.0440  -22.8480   21.7880 C   0  0  0  0  0  3  0  0  0  0  0  0
  -29.3090  -23.9760   20.8530 N   0  0  0  0  0  4  0  0  0  0  0  0
  -29.5090  -24.7970   21.4070 H   0  0  0  0  0  0  0  0  0  0  0  0
  -30.1450  -23.7690   20.3270 H   0  0  0  0  0  0  0  0  0  0  0  0
  -28.2350  -24.3340   19.8950 C   0  0  0  0  0  2  0  0  0  0  0  0
  -28.5660  -25.6430   19.1540 C   0  0  0  0  0  2  0  0  0  0  0  0
  -28.4260  -26.7690   20.0290 O   0  0  0  0  0  0  0  0  0  0  0  0
  -24.6130  -31.8700   23.2130 C   0  0  0  0  0  0  0  0  0  0  0  0
  -27.2240  -27.4480   20.0640 C   0  0  0  0  0  0  0  0  0  0  0  0
  -23.3980  -30.4990   21.5520 C   0  0  0  0  0  3  0  0  0  0  0  0
  -24.8380  -28.9650   20.1190 C   0  0  0  0  0  0  0  0  0  0  0  0
  -25.9280  -30.8340   21.3680 C   0  0  0  0  0  2  0  0  0  0  0  0
  -26.0010  -29.4710   20.7130 C   0  0  0  0  0  0  0  0  0  0  0  0
  -27.1930  -28.7150   20.6890 C   0  0  0  0  0  3  0  0  0  0  0  0
  -26.0290  -26.9400   19.4970 C   0  0  0  0  0  3  0  0  0  0  0  0
  -24.8440  -27.6970   19.5190 C   0  0  0  0  0  3  0  0  0  0  0  0
  -23.6050  -29.8370   20.1670 C   0  0  0  0  0  2  0  0  0  0  0  0
  -24.6640  -31.0820   22.1030 N   0  0  0  0  0  0  0  0  0  0  0  0
  -23.5330  -32.1470   23.7540 O   0  0  0  0  0  0  0  0  0  0  0  0
  -22.7380  -29.4680   22.4970 C   0  0  0  0  0  0  0  0  0  0  0  0
  -21.4120  -29.3030   22.3700 N   0  0  0  0  0  0  0  0  0  0  0  0
  -23.4160  -28.8220   23.3000 O   0  0  0  0  0  0  0  0  0  0  0  0
  -20.9270  -29.8760   21.6930 H   0  0  0  0  0  0  0  0  0  0  0  0
  -18.0270  -28.1380   22.8490 C   0  0  0  0  0  0  0  0  0  0  0  0
  -20.5860  -28.3660   23.1300 C   0  0  0  0  0  3  0  0  0  0  0  0
  -20.6750  -26.9400   22.5400 C   0  0  0  0  0  2  0  0  0  0  0  0
  -19.5740  -26.6390   21.5180 C   0  0  0  0  0  2  0  0  0  0  0  0
  -18.1920  -26.7940   22.1590 C   0  0  0  0  0  2  0  0  0  0  0  0
  -19.1520  -28.8830   23.2910 C   0  0  0  0  0  0  0  0  0  0  0  0
  -18.9450  -30.1430   23.8940 C   0  0  0  0  0  3  0  0  0  0  0  0
  -17.6450  -30.6580   24.0560 C   0  0  0  0  0  3  0  0  0  0  0  0
  -16.5350  -29.9080   23.6320 C   0  0  0  0  0  3  0  0  0  0  0  0
  -16.7260  -28.6490   23.0370 C   0  0  0  0  0  3  0  0  0  0  0  0
  -25.9040  -32.4820   23.8410 C   0  0  0  0  0  3  0  0  0  0  0  0
  -25.5930  -33.8610   24.2360 N   0  0  0  0  0  0  0  0  0  0  0  0
  -25.9020  -34.9470   23.5140 C   0  0  0  0  0  0  0  0  0  0  0  0
  -26.5570  -34.8920   22.4690 O   0  0  0  0  0  0  0  0  0  0  0  0
  -25.0110  -33.9760   25.0530 H   0  0  0  0  0  0  0  0  0  0  0  0
  -24.1460  -36.7290   23.2620 C   0  0  0  0  0  1  0  0  0  0  0  0
  -25.4080  -36.3100   24.0340 C   0  0  0  0  0  3  0  0  0  0  0  0
  -27.5580  -37.1770   24.8440 C   0  0  0  0  0  1  0  0  0  0  0  0
  -26.4260  -37.3790   23.9450 N   0  0  0  0  0  0  0  0  0  0  0  0
  -26.0140  -38.2830   24.1580 H   0  0  0  0  0  0  0  0  0  0  0  0
  -26.4480  -31.6580   25.0720 C   0  0  1  0  0  0  0  0  0  0  0  0
  -25.3750  -31.3730   26.1480 C   0  0  0  0  0  1  0  0  0  0  0  0
  -27.0260  -30.2990   24.6100 C   0  0  0  0  0  1  0  0  0  0  0  0
  -27.6080  -32.4280   25.7470 C   0  0  0  0  0  1  0  0  0  0  0  0
  -31.6250  -20.2650   25.2840 C   0  0  0  0  0  2  0  0  0  0  0  0
  -30.6240  -16.6970   24.1730 C   0  0  0  0  0  3  0  0  0  0  0  0
  -32.9620  -17.0550   23.6280 C   0  0  0  0  0  3  0  0  0  0  0  0
  -31.8180  -16.2410   23.5830 C   0  0  0  0  0  0  0  0  0  0  0  0
  -30.5620  -17.9730   24.7750 C   0  0  0  0  0  0  0  0  0  0  0  0
  -32.9170  -18.3390   24.2040 C   0  0  0  0  0  0  0  0  0  0  0  0
  -31.7020  -18.8260   24.7600 C   0  0  0  0  0  0  0  0  0  0  0  0
  -29.2570  -18.3800   25.4450 C   0  0  0  0  0  1  0  0  0  0  0  0
  -34.2090  -19.1460   24.2200 C   0  0  0  0  0  1  0  0  0  0  0  0
  -31.9200  -14.8530   22.9720 C   0  0  0  0  0  2  0  0  0  0  0  0
  -30.8520  -14.2280   20.8170 C   0  0  0  0  0  0  0  0  0  0  0  0
  -30.4030  -12.2990   19.3540 C   0  0  0  0  0  2  0  0  0  0  0  0
  -29.4610  -12.5470   18.1690 C   0  0  0  0  0  2  0  0  0  0  0  0
  -27.9960  -12.3750   18.6020 C   0  0  0  0  0  2  0  0  0  0  0  0
  -27.6580  -13.2030   19.8680 C   0  0  0  0  0  3  0  0  0  0  0  0
  -28.6940  -12.9600   20.9850 C   0  0  0  0  0  2  0  0  0  0  0  0
  -30.0450  -13.2090   20.4490 N   0  0  0  0  0  0  0  0  0  0  0  0
  -31.7510  -14.6890   20.1040 O   0  0  0  0  0  0  0  0  0  0  0  0
  -30.7940  -14.4540   22.1360 N   0  0  0  0  0  0  0  0  0  0  0  0
  -30.0370  -13.9840   22.6090 H   0  0  0  0  0  0  0  0  0  0  0  0
  -25.2560  -13.8160   20.5670 C   0  0  0  0  0  0  0  0  0  0  0  0
  -24.1810  -13.0430   20.9170 C   0  0  0  0  0  0  0  0  0  0  0  0
  -24.6360  -11.6900   20.8700 C   0  0  0  0  0  0  0  0  0  0  0  0
  -26.2990  -12.9330   20.3330 N   0  0  0  0  0  0  0  0  0  0  0  0
  -25.9280  -11.6480   20.5720 N   0  0  0  0  0  0  0  0  0  0  0  0
  -23.9040  -10.4280   21.0370 C   0  0  0  0  0  0  0  0  0  0  0  0
  -24.3600   -9.4210   21.9150 C   0  0  0  0  0  3  0  0  0  0  0  0
  -23.6290   -8.2240   22.0730 C   0  0  0  0  0  3  0  0  0  0  0  0
  -22.4270   -8.0270   21.3540 C   0  0  0  0  0  0  0  0  0  0  0  0
  -21.9890   -9.0230   20.4640 C   0  0  0  0  0  3  0  0  0  0  0  0
  -22.7200  -10.2120   20.3030 C   0  0  0  0  0  3  0  0  0  0  0  0
  -21.6640   -6.8860   21.4250 O   0  0  0  0  0  0  0  0  0  0  0  0
  -21.6850   -6.0730   22.5280 C   0  0  0  0  0  0  0  0  0  0  0  0
  -21.4000   -6.5630   23.8220 C   0  0  0  0  0  3  0  0  0  0  0  0
  -21.3660   -5.6790   24.9180 C   0  0  0  0  0  3  0  0  0  0  0  0
  -21.6050   -4.3060   24.7230 C   0  0  0  0  0  0  0  0  0  0  0  0
  -21.8820   -3.8140   23.4350 C   0  0  0  0  0  3  0  0  0  0  0  0
  -21.9190   -4.6950   22.3410 C   0  0  0  0  0  0  0  0  0  0  0  0
  -22.1660   -4.2140   21.0990 F   0  0  0  0  0  0  0  0  0  0  0  0
  -21.5630   -3.4540   25.7730 F   0  0  0  0  0  0  0  0  0  0  0  0
  -22.7840  -13.5220   21.1850 C   0  0  0  0  0  0  0  0  0  0  0  0
  -22.0510  -12.8200   22.0410 N   0  0  0  0  0  0  0  0  0  0  0  0
  -22.3510  -14.5520   20.6690 O   0  0  0  0  0  0  0  0  0  0  0  0
  -22.4150  -11.9880   22.4810 H   0  0  0  0  0  0  0  0  0  0  0  0
  -21.1110  -13.1190   22.2610 H   0  0  0  0  0  0  0  0  0  0  0  0
  -25.4270  -15.1880   20.4100 N   0  0  0  0  0  0  0  0  0  0  0  0
  -24.6590  -15.8420   20.5210 H   0  0  0  0  0  0  0  0  0  0  0  0
  -26.2880  -15.6340   20.1170 H   0  0  0  0  0  0  0  0  0  0  0  0
  1  2  1  0
  3  5  1  0
  4  8  1  0
  4  3  1  0
  4  1  1  0
  5  2  1  0
  5 55  1  0
  5  6  1  6
  8  7  1  0
  9 10  1  0
  9  8  1  0
 11  9  1  0
 12  9  1  0
 13 12  1  0
 13 14  1  0
 14 16  1  0
 15 26  2  0
 16 21  1  0
 17 25  1  0
 17 27  1  0
 18 24  1  0
 18 20  1  0
 19 25  1  0
 20 19  1  0
 21 20  2  0
 22 23  1  0
 22 16  2  0
 23 18  2  0
 24 17  1  0
 25 15  1  0
 27 29  2  0
 28 27  1  0
 30 28  1  0
 31 40  2  0
 31 36  1  0
 32 28  1  0
 32 36  1  0
 33 32  1  0
 34 35  1  0
 34 33  1  0
 35 31  1  0
 36 37  2  0
 37 38  1  0
 39 38  2  0
 40 39  1  0
 41 15  1  0
 41 42  1  0
 41 51  1  0
 42 45  1  0
 43 47  1  0
 43 42  1  0
 44 43  2  0
 47 46  1  0
 49 47  1  0
 49 50  1  0
 49 48  1  0
 51 54  1  1
 51 52  1  0
 53 51  1  0
 56 59  1  0
 57 60  2  0
 58 57  1  0
 58 56  2  0
 59 62  1  0
 60 63  1  0
 60 61  1  0
 61 59  2  0
 61 55  1  0
 64 58  1  0
 65 73  1  0
 66 71  1  0
 67 68  1  0
 67 66  1  0
 69 68  1  0
 69 78  1  0
 69 70  1  0
 71 65  1  0
 71 70  1  0
 72 65  2  0
 73 74  1  0
 73 64  1  0
 75 76  2  0
 76 95  1  0
 77 76  1  0
 77 80  1  0
 78 75  1  0
 78 79  1  0
 79 77  2  0
 80 81  1  0
 81 82  2  0
 83 86  1  0
 83 82  1  0
 84 83  2  0
 85 84  1  0
 85 80  2  0
 86 87  1  0
 87 88  1  0
 88 89  2  0
 90 89  1  0
 90 94  1  0
 91 90  2  0
 92 87  2  0
 92 91  1  0
 93 92  1  0
 95 96  1  0
 96 99  1  0
 96 98  1  0
 97 95  2  0
100101  1  0
100 75  1  0
102100  1  0
M  ISO  4  13 101  14 101  65 100  73 100
M  END
>  <TORSDO>  (58) 
F 23

>  <SCORE>  (58) 
21.785

>  <name>  (58) 
57

>  <ligand_id>  (58) 
57

>  <original_smiles>  (58) 
[H]c1c([H])c([H])c2c(c1[H])C([H])([H])C([H])([H])C([H])([H])C2([H])N([H])C(=O)C1([H])N(C(=O)C([H])(N([H])C(=O)C([H])(N([H])C([H])([H])[H])C([H])([H])[H])C(C([H])([H])[H])(C([H])([H])[H])C([H])([H])[H])C([H])([H])c2c([H])c(OC([H])([H])C([H])([H])[N+]([H])([H])C([H])(C([H])([H])[H])C3([H])C([H])([H])C([H])([H])[N+]([H])(C([H])([H])c4c(C([H])([H])[H])c([H])c(C([H])([H])N([H])C(=O)N5C([H])([H])C([H])([H])C([H])([H])C([H])(n6nc(-c7c([H])c([H])c(Oc8c([H])c([H])c(F)c([H])c8F)c([H])c7[H])c(C(=O)N([H])[H])c6N([H])[H])C5([H])[H])c([H])c4C([H])([H])[H])C3([H])[H])c([H])c([H])c2C1([H])[H]

>  <smiles>  (58) 
[H]c1c([H])c([H])c2c(c1[H])C([H])([H])C([H])([H])C([H])([H])C2([H])N([H])C(=O)C1([H])N(C(=O)C([H])(N([H])C(=O)C([H])(N([H])C([H])([H])[H])C([H])([H])[H])C(C([H])([H])[H])(C([H])([H])[H])C([H])([H])[H])C([H])([H])c2c([H])c(OC([H])([H])C([H])([H])[N+]([H])([H])C([H])(C([H])([H])[H])C3([H])C([H])([H])C([H])([H])[N+]([H])(C([H])([H])c4c(C([H])([H])[H])c([H])c(C([H])([H])N([H])C(=O)N5C([H])([H])C([H])([H])C([H])([H])C([H])(n6nc(-c7c([H])c([H])c(Oc8c([H])c([H])c(F)c([H])c8F)c([H])c7[H])c(C(=O)N([H])[H])c6N([H])[H])C5([H])[H])c([H])c4C([H])([H])[H])C3([H])[H])c([H])c([H])c2C1([H])[H]

$$$$
58:0:0
     RDKit          3D

 99108  0  0  1  0  0  0  0  0999 V2000
  -28.6650  -21.6870   22.3100 C   0  0  0  0  0  2  0  0  0  0  0  0
  -29.7150  -19.3620   22.5500 C   0  0  0  0  0  2  0  0  0  0  0  0
  -30.7630  -19.5670   19.9000 C   0  0  0  0  0  2  0  0  0  0  0  0
  -30.7110  -18.2300   20.6840 C   0  0  0  0  0  3  0  0  0  0  0  0
  -29.7750  -20.7250   21.8250 C   0  0  0  0  0  3  0  0  0  0  0  0
  -30.8250  -18.5100   22.1180 N   0  0  0  0  0  0  0  0  0  0  0  0
  -29.7210  -20.5070   20.3630 N   0  0  0  0  0  4  0  0  0  0  0  0
  -30.7700  -17.6330   22.6280 H   0  0  0  0  0  0  0  0  0  0  0  0
  -28.8210  -20.1330   20.1110 H   0  0  0  0  0  0  0  0  0  0  0  0
  -29.8500  -21.3850   19.8890 H   0  0  0  0  0  0  0  0  0  0  0  0
  -31.8730  -17.3100   20.2530 C   0  0  0  0  0  2  0  0  0  0  0  0
  -31.9490  -15.9220   20.9260 C   0  0  0  0  0  2  0  0  0  0  0  0
  -31.1490  -14.1320   19.3860 C   0  0  0  0  0  0  0  0  0  0  0  0
  -30.6520  -11.8840   18.5020 C   0  0  0  0  0  2  0  0  0  0  0  0
  -29.5810  -11.8830   17.3990 C   0  0  0  0  0  2  0  0  0  0  0  0
  -28.1720  -11.8120   18.0120 C   0  0  0  0  0  2  0  0  0  0  0  0
  -27.9570  -12.8660   19.1260 C   0  0  0  0  0  3  0  0  0  0  0  0
  -29.1190  -12.8400   20.1430 C   0  0  0  0  0  2  0  0  0  0  0  0
  -30.3900  -13.0090   19.4110 N   0  0  0  0  0  0  0  0  0  0  0  0
  -32.0380  -14.3380   18.5530 O   0  0  0  0  0  0  0  0  0  0  0  0
  -30.9780  -14.9410   20.4390 N   0  0  0  0  0  0  0  0  0  0  0  0
  -30.2370  -14.6790   21.0730 H   0  0  0  0  0  0  0  0  0  0  0  0
  -25.7520  -13.6410   20.2080 C   0  0  0  0  0  0  0  0  0  0  0  0
  -24.6770  -12.9440   20.6920 C   0  0  0  0  0  0  0  0  0  0  0  0
  -24.9970  -11.5620   20.5290 C   0  0  0  0  0  0  0  0  0  0  0  0
  -26.6640  -12.6870   19.7840 N   0  0  0  0  0  0  0  0  0  0  0  0
  -26.2190  -11.4280   20.0320 N   0  0  0  0  0  0  0  0  0  0  0  0
  -24.1870  -10.3600   20.7640 C   0  0  0  0  0  0  0  0  0  0  0  0
  -24.5880   -9.3670   21.6850 C   0  0  0  0  0  3  0  0  0  0  0  0
  -23.7840   -8.2280   21.9060 C   0  0  0  0  0  3  0  0  0  0  0  0
  -22.5640   -8.0740   21.2050 C   0  0  0  0  0  0  0  0  0  0  0  0
  -22.1820   -9.0530   20.2710 C   0  0  0  0  0  3  0  0  0  0  0  0
  -22.9850  -10.1830   20.0490 C   0  0  0  0  0  3  0  0  0  0  0  0
  -21.7310   -6.9890   21.3360 O   0  0  0  0  0  0  0  0  0  0  0  0
  -21.5920   -6.3290   22.5310 C   0  0  0  0  0  0  0  0  0  0  0  0
  -21.1450   -6.9850   23.6970 C   0  0  0  0  0  3  0  0  0  0  0  0
  -20.9490   -6.2540   24.8860 C   0  0  0  0  0  3  0  0  0  0  0  0
  -21.1900   -4.8670   24.9090 C   0  0  0  0  0  0  0  0  0  0  0  0
  -21.6320   -4.2110   23.7450 C   0  0  0  0  0  3  0  0  0  0  0  0
  -21.8290   -4.9390   22.5600 C   0  0  0  0  0  0  0  0  0  0  0  0
  -22.2330   -4.2980   21.4370 F   0  0  0  0  0  0  0  0  0  0  0  0
  -20.9960   -4.1630   26.0470 F   0  0  0  0  0  0  0  0  0  0  0  0
  -23.3860  -13.5250   21.1910 C   0  0  0  0  0  0  0  0  0  0  0  0
  -22.7320  -12.8500   22.1310 N   0  0  0  0  0  0  0  0  0  0  0  0
  -22.9710  -14.6100   20.7830 O   0  0  0  0  0  0  0  0  0  0  0  0
  -23.0810  -11.9700   22.4810 H   0  0  0  0  0  0  0  0  0  0  0  0
  -21.8690  -13.2200   22.5060 H   0  0  0  0  0  0  0  0  0  0  0  0
  -26.0220  -15.0000   20.0730 N   0  0  0  0  0  0  0  0  0  0  0  0
  -25.3490  -15.7160   20.3250 H   0  0  0  0  0  0  0  0  0  0  0  0
  -26.8620  -15.3750   19.6470 H   0  0  0  0  0  0  0  0  0  0  0  0
  -29.1730  -25.7390   20.7950 C   0  0  0  0  0  3  0  0  0  0  0  0
  -29.8880  -25.3290   21.9340 C   0  0  0  0  0  3  0  0  0  0  0  0
  -28.1070  -23.5530   20.6800 C   0  0  0  0  0  3  0  0  0  0  0  0
  -28.2760  -24.8540   20.1630 C   0  0  0  0  0  0  0  0  0  0  0  0
  -29.7360  -24.0210   22.4420 C   0  0  0  0  0  0  0  0  0  0  0  0
  -28.8410  -23.1190   21.8070 C   0  0  0  0  0  0  0  0  0  0  0  0
  -30.5480  -23.6200   23.6630 C   0  0  0  0  0  1  0  0  0  0  0  0
  -27.5590  -25.2630   18.8840 C   0  0  0  0  0  2  0  0  0  0  0  0
  -27.5280  -26.6740   18.6710 O   0  0  0  0  0  0  0  0  0  0  0  0
  -24.6810  -31.4180   23.1260 C   0  0  0  0  0  0  0  0  0  0  0  0
  -26.4020  -27.3930   19.0060 C   0  0  0  0  0  0  0  0  0  0  0  0
  -23.1140  -30.4070   21.5000 C   0  0  0  0  0  3  0  0  0  0  0  0
  -24.1830  -29.0240   19.6460 C   0  0  0  0  0  0  0  0  0  0  0  0
  -25.6040  -30.6110   20.9580 C   0  0  0  0  0  2  0  0  0  0  0  0
  -25.4590  -29.3660   20.1100 C   0  0  0  0  0  0  0  0  0  0  0  0
  -26.5690  -28.5590   19.7840 C   0  0  0  0  0  3  0  0  0  0  0  0
  -25.1030  -27.0510   18.5600 C   0  0  0  0  0  3  0  0  0  0  0  0
  -23.9980  -27.8640   18.8750 C   0  0  0  0  0  3  0  0  0  0  0  0
  -23.0490  -29.9500   20.0190 C   0  0  0  0  0  2  0  0  0  0  0  0
  -24.4950  -30.8140   21.9180 N   0  0  0  0  0  0  0  0  0  0  0  0
  -23.7230  -31.6740   23.8690 O   0  0  0  0  0  0  0  0  0  0  0  0
  -22.5140  -29.2890   22.3840 C   0  0  0  0  0  0  0  0  0  0  0  0
  -21.1860  -29.1090   22.2960 N   0  0  0  0  0  0  0  0  0  0  0  0
  -23.2370  -28.5900   23.0980 O   0  0  0  0  0  0  0  0  0  0  0  0
  -20.6650  -29.7290   21.6930 H   0  0  0  0  0  0  0  0  0  0  0  0
  -17.8800  -27.6970   22.6370 C   0  0  0  0  0  0  0  0  0  0  0  0
  -20.4070  -28.0920   23.0010 C   0  0  0  0  0  3  0  0  0  0  0  0
  -20.6130  -26.6950   22.3690 C   0  0  0  0  0  2  0  0  0  0  0  0
  -19.5620  -26.3520   21.3080 C   0  0  0  0  0  2  0  0  0  0  0  0
  -18.1560  -26.3900   21.9160 C   0  0  0  0  0  2  0  0  0  0  0  0
  -18.9370  -28.5050   23.1330 C   0  0  0  0  0  0  0  0  0  0  0  0
  -18.6270  -29.7280   23.7650 C   0  0  0  0  0  3  0  0  0  0  0  0
  -17.2900  -30.1440   23.9100 C   0  0  0  0  0  3  0  0  0  0  0  0
  -16.2460  -29.3330   23.4320 C   0  0  0  0  0  3  0  0  0  0  0  0
  -16.5420  -28.1120   22.8010 C   0  0  0  0  0  3  0  0  0  0  0  0
  -26.1000  -31.8360   23.6230 C   0  0  0  0  0  3  0  0  0  0  0  0
  -25.9760  -33.1560   24.2540 N   0  0  0  0  0  0  0  0  0  0  0  0
  -26.3360  -34.3100   23.6780 C   0  0  0  0  0  0  0  0  0  0  0  0
  -26.8800  -34.3660   22.5700 O   0  0  0  0  0  0  0  0  0  0  0  0
  -25.4900  -33.1900   25.1380 H   0  0  0  0  0  0  0  0  0  0  0  0
  -24.7860  -36.2790   23.8780 C   0  0  0  0  0  1  0  0  0  0  0  0
  -26.0460  -35.6100   24.4510 C   0  0  0  0  0  3  0  0  0  0  0  0
  -28.3290  -36.1140   25.1990 C   0  0  0  0  0  1  0  0  0  0  0  0
  -27.1710  -36.5690   24.4330 N   0  0  0  0  0  0  0  0  0  0  0  0
  -26.8820  -37.4720   24.8010 H   0  0  0  0  0  0  0  0  0  0  0  0
  -26.7410  -30.7970   24.6240 C   0  0  1  0  0  0  0  0  0  0  0  0
  -25.8140  -30.4160   25.8020 C   0  0  0  0  0  1  0  0  0  0  0  0
  -27.1270  -29.4960   23.8830 C   0  0  0  0  0  1  0  0  0  0  0  0
  -28.0510  -31.3740   25.2110 C   0  0  0  0  0  1  0  0  0  0  0  0
  3  7  1  0
  3  4  1  0
  4 11  1  0
  4  6  1  0
  5  1  1  0
  5  2  1  0
  6  2  1  0
  6  8  1  0
  7  5  1  0
  9  7  1  0
 10  7  1  0
 11 12  1  0
 13 19  1  0
 13 21  1  0
 14 19  1  0
 15 16  1  0
 15 14  1  0
 17 16  1  0
 17 26  1  0
 17 18  1  0
 19 18  1  0
 20 13  2  0
 21 12  1  0
 21 22  1  0
 23 24  2  0
 24 43  1  0
 25 24  1  0
 25 28  1  0
 26 27  1  0
 26 23  1  0
 27 25  2  0
 28 29  1  0
 29 30  2  0
 31 34  1  0
 31 30  1  0
 32 31  2  0
 33 32  1  0
 33 28  2  0
 34 35  1  0
 35 40  2  0
 35 36  1  0
 36 37  2  0
 37 38  1  0
 38 42  1  0
 39 38  2  0
 40 39  1  0
 41 40  1  0
 43 44  1  0
 44 46  1  0
 44 47  1  0
 45 43  2  0
 48 23  1  0
 48 49  1  0
 50 48  1  0
 51 52  1  0
 52 55  2  0
 53 56  2  0
 54 53  1  0
 54 51  2  0
 55 57  1  0
 56  1  1  0
 56 55  1  0
 58 54  1  0
 59 58  1  0
 59 61  1  0
 60 71  2  0
 61 66  1  0
 62 70  1  0
 62 72  1  0
 63 69  1  0
 63 65  1  0
 64 70  1  0
 65 64  1  0
 66 65  2  0
 67 68  1  0
 67 61  2  0
 68 63  2  0
 69 62  1  0
 70 60  1  0
 72 74  2  0
 73 72  1  0
 75 73  1  0
 76 85  2  0
 76 81  1  0
 77 73  1  0
 77 81  1  0
 78 77  1  0
 79 80  1  0
 79 78  1  0
 80 76  1  0
 81 82  2  0
 82 83  1  0
 84 83  2  0
 85 84  1  0
 86 60  1  0
 86 87  1  0
 86 96  1  0
 87 90  1  0
 88 87  1  0
 88 92  1  0
 89 88  2  0
 92 91  1  0
 94 92  1  0
 94 95  1  0
 94 93  1  0
 96 99  1  1
 96 97  1  0
 98 96  1  0
M  ISO  4  13 100  21 100  58 101  59 101
M  END
>  <TORSDO>  (59) 
F 21

>  <SCORE>  (59) 
-9.316

>  <name>  (59) 
58

>  <ligand_id>  (59) 
58

>  <original_smiles>  (59) 
[H]c1c([H])c([H])c2c(c1[H])C([H])([H])C([H])([H])C([H])([H])C2([H])N([H])C(=O)C1([H])N(C(=O)C([H])(N([H])C(=O)C([H])(N([H])C([H])([H])[H])C([H])([H])[H])C(C([H])([H])[H])(C([H])([H])[H])C([H])([H])[H])C([H])([H])c2c([H])c(OC([H])([H])c3c([H])c([H])c(C([H])([H])[H])c(C([H])([H])C4([H])C([H])([H])N([H])C([H])(C([H])([H])C([H])([H])N([H])C(=O)N5C([H])([H])C([H])([H])C([H])([H])C([H])(n6nc(-c7c([H])c([H])c(Oc8c([H])c([H])c(F)c([H])c8F)c([H])c7[H])c(C(=O)N([H])[H])c6N([H])[H])C5([H])[H])C([H])([H])[N+]4([H])[H])c3[H])c([H])c([H])c2C1([H])[H]

>  <smiles>  (59) 
[H]c1c([H])c([H])c2c(c1[H])C([H])([H])C([H])([H])C([H])([H])C2([H])N([H])C(=O)C1([H])N(C(=O)C([H])(N([H])C(=O)C([H])(N([H])C([H])([H])[H])C([H])([H])[H])C(C([H])([H])[H])(C([H])([H])[H])C([H])([H])[H])C([H])([H])c2c([H])c(OC([H])([H])c3c([H])c([H])c(C([H])([H])[H])c(C([H])([H])C4([H])C([H])([H])N([H])C([H])(C([H])([H])C([H])([H])N([H])C(=O)N5C([H])([H])C([H])([H])C([H])([H])C([H])(n6nc(-c7c([H])c([H])c(Oc8c([H])c([H])c(F)c([H])c8F)c([H])c7[H])c(C(=O)N([H])[H])c6N([H])[H])C5([H])[H])C([H])([H])[N+]4([H])[H])c3[H])c([H])c([H])c2C1([H])[H]

$$$$
59:0:0
     RDKit          3D

 89 97  0  0  1  0  0  0  0  0999 V2000
  -30.4280  -19.7210   19.2600 C   0  0  0  0  0  3  0  0  0  0  0  0
  -29.0950  -18.9880   21.1200 C   0  0  0  0  0  3  0  0  0  0  0  0
  -29.9610  -21.0610   19.4170 C   0  0  0  0  0  3  0  0  0  0  0  0
  -28.6270  -20.3300   21.2760 C   0  0  0  0  0  3  0  0  0  0  0  0
  -30.0260  -18.6490   20.1090 C   0  0  0  0  0  0  0  0  0  0  0  0
  -29.0550  -21.4080   20.4500 C   0  0  0  0  0  0  0  0  0  0  0  0
  -30.7550  -17.2590   19.9870 C   0  0  0  0  0  2  0  0  0  0  0  0
  -30.8180  -14.7460   19.9980 C   0  0  0  0  0  0  0  0  0  0  0  0
  -30.4790  -12.5320   18.9350 C   0  0  0  0  0  2  0  0  0  0  0  0
  -29.4900  -12.6800   17.7610 C   0  0  0  0  0  2  0  0  0  0  0  0
  -28.0400  -12.5230   18.2590 C   0  0  0  0  0  2  0  0  0  0  0  0
  -27.7430  -13.3760   19.5220 C   0  0  0  0  0  3  0  0  0  0  0  0
  -28.8560  -13.2430   20.5850 C   0  0  0  0  0  2  0  0  0  0  0  0
  -30.1300  -13.5640   19.9340 N   0  0  0  0  0  0  0  0  0  0  0  0
  -31.9850  -14.8090   19.6030 O   0  0  0  0  0  0  0  0  0  0  0  0
  -30.1420  -15.9120   20.2680 N   0  0  0  0  0  0  0  0  0  0  0  0
  -29.1690  -15.8640   20.5280 H   0  0  0  0  0  0  0  0  0  0  0  0
  -25.3860  -13.9510   20.3630 C   0  0  0  0  0  0  0  0  0  0  0  0
  -24.3430  -13.1680   20.7780 C   0  0  0  0  0  0  0  0  0  0  0  0
  -24.8130  -11.8200   20.7180 C   0  0  0  0  0  0  0  0  0  0  0  0
  -26.4240  -13.0800   20.0740 N   0  0  0  0  0  0  0  0  0  0  0  0
  -26.0880  -11.7930   20.3510 N   0  0  0  0  0  0  0  0  0  0  0  0
  -24.1050  -10.5520   20.9340 C   0  0  0  0  0  0  0  0  0  0  0  0
  -24.5570   -9.6030   21.8780 C   0  0  0  0  0  3  0  0  0  0  0  0
  -23.8480   -8.3990   22.0800 C   0  0  0  0  0  3  0  0  0  0  0  0
  -22.6710   -8.1360   21.3390 C   0  0  0  0  0  0  0  0  0  0  0  0
  -22.2380   -9.0730   20.3850 C   0  0  0  0  0  3  0  0  0  0  0  0
  -22.9480  -10.2680   20.1800 C   0  0  0  0  0  3  0  0  0  0  0  0
  -21.9310   -6.9840   21.4510 O   0  0  0  0  0  0  0  0  0  0  0  0
  -21.8750   -6.2750   22.6250 C   0  0  0  0  0  0  0  0  0  0  0  0
  -21.3740   -6.8450   23.8170 C   0  0  0  0  0  3  0  0  0  0  0  0
  -21.2680   -6.0610   24.9820 C   0  0  0  0  0  3  0  0  0  0  0  0
  -21.6540   -4.7080   24.9580 C   0  0  0  0  0  0  0  0  0  0  0  0
  -22.1490   -4.1370   23.7720 C   0  0  0  0  0  3  0  0  0  0  0  0
  -22.2550   -4.9190   22.6080 C   0  0  0  0  0  0  0  0  0  0  0  0
  -22.7130   -4.3590   21.4620 F   0  0  0  0  0  0  0  0  0  0  0  0
  -21.5460   -3.9510   26.0760 F   0  0  0  0  0  0  0  0  0  0  0  0
  -22.9560  -13.6340   21.1140 C   0  0  0  0  0  0  0  0  0  0  0  0
  -22.2680  -12.9240   22.0020 N   0  0  0  0  0  0  0  0  0  0  0  0
  -22.4910  -14.6620   20.6240 O   0  0  0  0  0  0  0  0  0  0  0  0
  -22.6580  -12.0930   22.4230 H   0  0  0  0  0  0  0  0  0  0  0  0
  -21.3390  -13.2170   22.2670 H   0  0  0  0  0  0  0  0  0  0  0  0
  -25.5310  -15.3230   20.1840 N   0  0  0  0  0  0  0  0  0  0  0  0
  -24.7630  -15.9690   20.3310 H   0  0  0  0  0  0  0  0  0  0  0  0
  -26.3530  -15.7710   19.7980 H   0  0  0  0  0  0  0  0  0  0  0  0
  -28.5650  -22.7020   20.7240 O   0  0  0  0  0  0  0  0  0  0  0  0
  -28.9530  -23.9200   20.0020 C   0  0  0  0  0  2  0  0  0  0  0  0
  -28.2530  -25.2200   20.6080 C   0  0  0  0  0  2  0  0  0  0  0  0
  -28.4570  -26.5740   20.0400 O   0  0  0  0  0  0  0  0  0  0  0  0
  -24.6040  -31.8390   23.1280 C   0  0  0  0  0  0  0  0  0  0  0  0
  -27.3370  -27.4120   20.0150 C   0  0  0  0  0  0  0  0  0  0  0  0
  -23.4500  -30.4680   21.4290 C   0  0  0  0  0  3  0  0  0  0  0  0
  -24.9500  -28.9750   19.9940 C   0  0  0  0  0  0  0  0  0  0  0  0
  -25.9850  -30.8330   21.2980 C   0  0  0  0  0  2  0  0  0  0  0  0
  -26.0990  -29.4720   20.6230 C   0  0  0  0  0  0  0  0  0  0  0  0
  -27.3000  -28.7040   20.6220 C   0  0  0  0  0  3  0  0  0  0  0  0
  -26.1720  -26.9650   19.3580 C   0  0  0  0  0  3  0  0  0  0  0  0
  -24.9870  -27.7260   19.3510 C   0  0  0  0  0  3  0  0  0  0  0  0
  -23.6990  -29.8290   20.0370 C   0  0  0  0  0  2  0  0  0  0  0  0
  -24.6970  -31.0620   22.0100 N   0  0  0  0  0  0  0  0  0  0  0  0
  -23.5070  -32.0880   23.6500 O   0  0  0  0  0  0  0  0  0  0  0  0
  -22.7840  -29.4180   22.3510 C   0  0  0  0  0  0  0  0  0  0  0  0
  -21.4610  -29.2390   22.2030 N   0  0  0  0  0  0  0  0  0  0  0  0
  -23.4570  -28.7700   23.1560 O   0  0  0  0  0  0  0  0  0  0  0  0
  -20.9770  -29.8140   21.5270 H   0  0  0  0  0  0  0  0  0  0  0  0
  -18.0790  -28.0380   22.6530 C   0  0  0  0  0  0  0  0  0  0  0  0
  -20.6380  -28.2740   22.9350 C   0  0  0  0  0  3  0  0  0  0  0  0
  -20.7340  -26.8670   22.3010 C   0  0  0  0  0  2  0  0  0  0  0  0
  -19.6310  -26.5910   21.2750 C   0  0  0  0  0  2  0  0  0  0  0  0
  -18.2490  -26.7170   21.9240 C   0  0  0  0  0  2  0  0  0  0  0  0
  -19.2010  -28.7770   23.1150 C   0  0  0  0  0  0  0  0  0  0  0  0
  -18.9870  -30.0160   23.7570 C   0  0  0  0  0  3  0  0  0  0  0  0
  -17.6840  -30.5160   23.9430 C   0  0  0  0  0  3  0  0  0  0  0  0
  -16.5770  -29.7740   23.4970 C   0  0  0  0  0  3  0  0  0  0  0  0
  -16.7750  -28.5360   22.8590 C   0  0  0  0  0  3  0  0  0  0  0  0
  -25.8670  -32.4720   23.7920 C   0  0  0  0  0  3  0  0  0  0  0  0
  -26.3400  -31.7010   25.0840 C   0  0  1  0  0  0  0  0  0  0  0  0
  -25.2130  -31.4610   26.1140 C   0  0  0  0  0  1  0  0  0  0  0  0
  -26.9380  -30.3240   24.7110 C   0  0  0  0  0  1  0  0  0  0  0  0
  -27.4680  -32.4950   25.7850 C   0  0  0  0  0  1  0  0  0  0  0  0
  -25.5480  -33.8700   24.1120 N   0  0  0  0  0  0  0  0  0  0  0  0
  -25.9030  -34.9230   23.3630 C   0  0  0  0  0  0  0  0  0  0  0  0
  -26.6030  -34.8180   22.3520 O   0  0  0  0  0  0  0  0  0  0  0  0
  -24.9310  -34.0250   24.8950 H   0  0  0  0  0  0  0  0  0  0  0  0
  -24.1980  -36.7240   22.9420 C   0  0  0  0  0  1  0  0  0  0  0  0
  -25.4030  -36.3120   23.8040 C   0  0  0  0  0  3  0  0  0  0  0  0
  -27.5000  -37.1910   24.7330 C   0  0  0  0  0  1  0  0  0  0  0  0
  -26.4450  -37.3600   23.7370 N   0  0  0  0  0  0  0  0  0  0  0  0
  -26.0370  -38.2830   23.8620 H   0  0  0  0  0  0  0  0  0  0  0  0
  1  3  2  0
  1  5  1  0
  2  4  1  0
  3  6  1  0
  5  2  2  0
  6 46  1  0
  6  4  2  0
  7  5  1  0
  7 16  1  0
  8 16  1  0
  9 14  1  0
 10 11  1  0
 10  9  1  0
 12 11  1  0
 12 21  1  0
 12 13  1  0
 14  8  1  0
 14 13  1  0
 15  8  2  0
 16 17  1  0
 18 19  2  0
 19 38  1  0
 20 19  1  0
 20 23  1  0
 21 22  1  0
 21 18  1  0
 22 20  2  0
 23 24  1  0
 24 25  2  0
 26 29  1  0
 26 25  1  0
 27 26  2  0
 28 27  1  0
 28 23  2  0
 29 30  1  0
 30 31  1  0
 31 32  2  0
 33 32  1  0
 33 37  1  0
 34 33  2  0
 35 30  2  0
 35 34  1  0
 36 35  1  0
 38 39  1  0
 39 42  1  0
 39 41  1  0
 40 38  2  0
 43 44  1  0
 43 18  1  0
 45 43  1  0
 47 48  1  0
 47 46  1  0
 49 48  1  0
 50 61  2  0
 51 49  1  0
 51 56  1  0
 52 60  1  0
 52 62  1  0
 53 59  1  0
 53 55  1  0
 54 60  1  0
 55 54  1  0
 56 55  2  0
 57 51  2  0
 58 57  1  0
 58 53  2  0
 59 52  1  0
 60 50  1  0
 62 64  2  0
 63 62  1  0
 65 63  1  0
 66 75  2  0
 66 71  1  0
 67 63  1  0
 67 71  1  0
 68 67  1  0
 69 70  1  0
 69 68  1  0
 70 66  1  0
 71 72  2  0
 72 73  1  0
 74 73  2  0
 75 74  1  0
 76 50  1  0
 76 81  1  0
 76 77  1  0
 77 80  1  1
 77 78  1  0
 79 77  1  0
 81 84  1  0
 82 86  1  0
 82 81  1  0
 83 82  2  0
 86 85  1  0
 88 86  1  0
 88 89  1  0
 88 87  1  0
M  ISO  4   8 100  16 100  48 101  49 101
M  END
>  <TORSDO>  (60) 
F 20

>  <SCORE>  (60) 
-12.786

>  <name>  (60) 
59

>  <ligand_id>  (60) 
59

>  <original_smiles>  (60) 
[H]c1c([H])c([H])c2c(c1[H])C([H])([H])C([H])([H])C([H])([H])C2([H])N([H])C(=O)C1([H])N(C(=O)C([H])(N([H])C(=O)C([H])(N([H])C([H])([H])[H])C([H])([H])[H])C(C([H])([H])[H])(C([H])([H])[H])C([H])([H])[H])C([H])([H])c2c([H])c(OC([H])([H])C([H])([H])Oc3c([H])c([H])c(C([H])([H])N([H])C(=O)N4C([H])([H])C([H])([H])C([H])([H])C([H])(n5nc(-c6c([H])c([H])c(Oc7c([H])c([H])c(F)c([H])c7F)c([H])c6[H])c(C(=O)N([H])[H])c5N([H])[H])C4([H])[H])c([H])c3[H])c([H])c([H])c2C1([H])[H]

>  <smiles>  (60) 
[H]c1c([H])c([H])c2c(c1[H])C([H])([H])C([H])([H])C([H])([H])C2([H])N([H])C(=O)C1([H])N(C(=O)C([H])(N([H])C(=O)C([H])(N([H])C([H])([H])[H])C([H])([H])[H])C(C([H])([H])[H])(C([H])([H])[H])C([H])([H])[H])C([H])([H])c2c([H])c(OC([H])([H])C([H])([H])Oc3c([H])c([H])c(C([H])([H])N([H])C(=O)N4C([H])([H])C([H])([H])C([H])([H])C([H])(n5nc(-c6c([H])c([H])c(Oc7c([H])c([H])c(F)c([H])c7F)c([H])c6[H])c(C(=O)N([H])[H])c5N([H])[H])C4([H])[H])c([H])c3[H])c([H])c([H])c2C1([H])[H]

$$$$
60:0:0
     RDKit          3D

 97105  0  0  1  0  0  0  0  0999 V2000
  -26.4490  -23.0790   20.6770 C   0  0  0  0  0  2  0  0  0  0  0  0
  -28.8610  -23.1710   21.5290 C   0  0  0  0  0  2  0  0  0  0  0  0
  -26.6400  -24.6030   20.8210 C   0  0  0  0  0  2  0  0  0  0  0  0
  -29.0730  -24.1790   20.3870 C   0  0  0  0  0  2  0  0  0  0  0  0
  -27.6260  -22.2730   21.2730 C   0  0  0  0  0  3  0  0  0  0  0  0
  -27.8960  -25.0780   20.1710 N   0  0  1  0  0  4  0  0  0  0  0  0
  -28.1290  -25.9290   20.6610 H   0  0  0  0  0  0  0  0  0  0  0  0
  -27.9120  -21.1460   20.3800 N   0  0  0  0  0  0  0  0  0  0  0  0
  -27.0140  -20.7210   20.1530 H   0  0  0  0  0  0  0  0  0  0  0  0
  -28.7280  -20.1260   21.0370 C   0  0  0  0  0  2  0  0  0  0  0  0
  -28.5250  -18.7490   20.3920 C   0  0  0  0  0  2  0  0  0  0  0  0
  -29.6960  -18.2970   19.6090 N   0  0  0  0  0  4  0  0  0  0  0  0
  -29.5070  -18.4630   18.6320 H   0  0  0  0  0  0  0  0  0  0  0  0
  -30.4900  -18.8580   19.8640 H   0  0  0  0  0  0  0  0  0  0  0  0
  -29.9870  -16.8690   19.8600 C   0  0  0  0  0  2  0  0  0  0  0  0
  -31.4680  -16.4470   19.7190 C   0  0  0  0  0  2  0  0  0  0  0  0
  -32.1700  -14.0550   20.0820 C   0  0  0  0  0  0  0  0  0  0  0  0
  -31.9870  -11.5990   20.3130 C   0  0  0  0  0  2  0  0  0  0  0  0
  -31.1130  -10.9920   19.1960 C   0  0  0  0  0  2  0  0  0  0  0  0
  -29.6140  -11.0680   19.5430 C   0  0  0  0  0  2  0  0  0  0  0  0
  -29.1860  -12.4800   20.0130 C   0  0  0  0  0  3  0  0  0  0  0  0
  -30.1480  -12.9740   21.1190 C   0  0  0  0  0  2  0  0  0  0  0  0
  -31.5280  -12.9690   20.5830 N   0  0  0  0  0  0  0  0  0  0  0  0
  -33.1660  -14.0060   19.3530 O   0  0  0  0  0  0  0  0  0  0  0  0
  -31.6110  -15.2030   20.4710 N   0  0  0  0  0  0  0  0  0  0  0  0
  -30.9430  -15.0780   21.2170 H   0  0  0  0  0  0  0  0  0  0  0  0
  -26.9500  -13.5710   20.7010 C   0  0  0  0  0  0  0  0  0  0  0  0
  -25.7370  -13.0300   21.0340 C   0  0  0  0  0  0  0  0  0  0  0  0
  -25.9040  -11.6140   20.9640 C   0  0  0  0  0  0  0  0  0  0  0  0
  -27.7920  -12.4950   20.4580 N   0  0  0  0  0  0  0  0  0  0  0  0
  -27.1610  -11.3120   20.6680 N   0  0  0  0  0  0  0  0  0  0  0  0
  -24.9280  -10.5250   21.1070 C   0  0  0  0  0  0  0  0  0  0  0  0
  -25.1240   -9.4760   22.0300 C   0  0  0  0  0  3  0  0  0  0  0  0
  -24.1640   -8.4500   22.1600 C   0  0  0  0  0  3  0  0  0  0  0  0
  -22.9940   -8.4670   21.3660 C   0  0  0  0  0  0  0  0  0  0  0  0
  -22.8150   -9.5020   20.4310 C   0  0  0  0  0  3  0  0  0  0  0  0
  -23.7740  -10.5200   20.2980 C   0  0  0  0  0  3  0  0  0  0  0  0
  -22.0200   -7.5010   21.4070 O   0  0  0  0  0  0  0  0  0  0  0  0
  -21.7820   -6.7680   22.5410 C   0  0  0  0  0  0  0  0  0  0  0  0
  -21.4290   -7.3770   23.7650 C   0  0  0  0  0  3  0  0  0  0  0  0
  -21.1260   -6.5790   24.8870 C   0  0  0  0  0  3  0  0  0  0  0  0
  -21.1630   -5.1750   24.7850 C   0  0  0  0  0  0  0  0  0  0  0  0
  -21.5100   -4.5680   23.5650 C   0  0  0  0  0  3  0  0  0  0  0  0
  -21.8160   -5.3620   22.4460 C   0  0  0  0  0  0  0  0  0  0  0  0
  -22.1280   -4.7700   21.2680 F   0  0  0  0  0  0  0  0  0  0  0  0
  -20.8660   -4.4070   25.8590 F   0  0  0  0  0  0  0  0  0  0  0  0
  -24.4640  -13.7800   21.3070 C   0  0  0  0  0  0  0  0  0  0  0  0
  -23.6030  -13.2330   22.1570 N   0  0  0  0  0  0  0  0  0  0  0  0
  -24.2500  -14.8810   20.8020 O   0  0  0  0  0  0  0  0  0  0  0  0
  -23.7880  -12.3380   22.5830 H   0  0  0  0  0  0  0  0  0  0  0  0
  -22.7420  -13.7120   22.3800 H   0  0  0  0  0  0  0  0  0  0  0  0
  -27.3950  -14.8830   20.5630 N   0  0  0  0  0  0  0  0  0  0  0  0
  -26.7260  -15.6440   20.6170 H   0  0  0  0  0  0  0  0  0  0  0  0
  -28.2310  -15.1280   20.0490 H   0  0  0  0  0  0  0  0  0  0  0  0
  -27.7130  -25.4830   18.7470 C   0  0  0  0  0  2  0  0  0  0  0  0
  -28.0750  -26.9600   18.4890 C   0  0  0  0  0  2  0  0  0  0  0  0
  -27.1070  -27.5400   17.6210 O   0  0  0  0  0  0  0  0  0  0  0  0
  -25.0130  -31.3960   23.2330 C   0  0  0  0  0  0  0  0  0  0  0  0
  -26.1170  -28.2470   18.2470 C   0  0  0  0  0  0  0  0  0  0  0  0
  -23.2330  -30.7370   21.6400 C   0  0  0  0  0  3  0  0  0  0  0  0
  -24.0410  -29.7300   19.4380 C   0  0  0  0  0  0  0  0  0  0  0  0
  -25.6470  -31.0190   20.8590 C   0  0  0  0  0  2  0  0  0  0  0  0
  -25.3700  -29.9530   19.8210 C   0  0  0  0  0  0  0  0  0  0  0  0
  -26.4130  -29.2060   19.2370 C   0  0  0  0  0  3  0  0  0  0  0  0
  -24.7810  -28.0460   17.8480 C   0  0  0  0  0  3  0  0  0  0  0  0
  -23.7390  -28.7710   18.4550 C   0  0  0  0  0  3  0  0  0  0  0  0
  -22.9840  -30.5720   20.1160 C   0  0  0  0  0  2  0  0  0  0  0  0
  -24.6660  -31.0430   21.9640 N   0  0  0  0  0  0  0  0  0  0  0  0
  -24.1590  -31.5110   24.1220 O   0  0  0  0  0  0  0  0  0  0  0  0
  -22.7050  -29.4780   22.3590 C   0  0  0  0  0  0  0  0  0  0  0  0
  -21.3790  -29.2750   22.3060 N   0  0  0  0  0  0  0  0  0  0  0  0
  -23.4790  -28.6950   22.9180 O   0  0  0  0  0  0  0  0  0  0  0  0
  -20.8150  -29.9630   21.8250 H   0  0  0  0  0  0  0  0  0  0  0  0
  -18.1620  -27.6400   22.4440 C   0  0  0  0  0  0  0  0  0  0  0  0
  -20.6610  -28.1380   22.8780 C   0  0  0  0  0  3  0  0  0  0  0  0
  -20.9520  -26.8440   22.0840 C   0  0  0  0  0  2  0  0  0  0  0  0
  -19.9280  -26.5760   20.9760 C   0  0  0  0  0  2  0  0  0  0  0  0
  -18.5200  -26.4510   21.5670 C   0  0  0  0  0  2  0  0  0  0  0  0
  -19.1680  -28.4440   23.0440 C   0  0  0  0  0  0  0  0  0  0  0  0
  -18.7840  -29.5620   23.8140 C   0  0  0  0  0  3  0  0  0  0  0  0
  -17.4260  -29.8800   23.9930 C   0  0  0  0  0  3  0  0  0  0  0  0
  -16.4330  -29.0710   23.4140 C   0  0  0  0  0  3  0  0  0  0  0  0
  -16.8010  -27.9530   22.6450 C   0  0  0  0  0  3  0  0  0  0  0  0
  -26.4960  -31.6930   23.6230 C   0  0  0  0  0  3  0  0  0  0  0  0
  -26.5050  -32.9310   24.4130 N   0  0  0  0  0  0  0  0  0  0  0  0
  -26.8840  -34.1280   23.9460 C   0  0  0  0  0  0  0  0  0  0  0  0
  -27.3390  -34.2910   22.8100 O   0  0  0  0  0  0  0  0  0  0  0  0
  -26.0960  -32.8800   25.3340 H   0  0  0  0  0  0  0  0  0  0  0  0
  -25.4860  -36.1460   24.4950 C   0  0  0  0  0  1  0  0  0  0  0  0
  -26.7330  -35.3380   24.8880 C   0  0  0  0  0  3  0  0  0  0  0  0
  -29.0930  -35.6090   25.5110 C   0  0  0  0  0  1  0  0  0  0  0  0
  -27.9160  -36.2240   24.9020 N   0  0  0  0  0  0  0  0  0  0  0  0
  -27.7160  -37.0850   25.4030 H   0  0  0  0  0  0  0  0  0  0  0  0
  -27.1780  -30.5150   24.4220 C   0  0  1  0  0  0  0  0  0  0  0  0
  -26.3560  -30.0350   25.6400 C   0  0  0  0  0  1  0  0  0  0  0  0
  -27.4180  -29.2970   23.4980 C   0  0  0  0  0  1  0  0  0  0  0  0
  -28.5660  -30.9650   24.9350 C   0  0  0  0  0  1  0  0  0  0  0  0
  1  3  1  0
  1  5  1  0
  4  2  1  0
  5  8  1  0
  5  2  1  0
  6  4  1  0
  6  7  1  1
  6  3  1  0
  8 10  1  0
  9  8  1  0
 11 10  1  0
 12 15  1  0
 12 14  1  0
 12 11  1  0
 13 12  1  0
 16 15  1  0
 16 25  1  0
 17 25  1  0
 17 23  1  0
 18 23  1  0
 19 20  1  0
 19 18  1  0
 21 20  1  0
 21 30  1  0
 21 22  1  0
 23 22  1  0
 24 17  2  0
 25 26  1  0
 27 28  2  0
 28 47  1  0
 29 28  1  0
 29 32  1  0
 30 31  1  0
 30 27  1  0
 31 29  2  0
 32 33  1  0
 33 34  2  0
 35 38  1  0
 35 34  1  0
 36 35  2  0
 37 36  1  0
 37 32  2  0
 38 39  1  0
 39 40  1  0
 40 41  2  0
 42 41  1  0
 42 46  1  0
 43 42  2  0
 44 39  2  0
 44 43  1  0
 45 44  1  0
 47 48  1  0
 48 51  1  0
 48 50  1  0
 49 47  2  0
 52 53  1  0
 52 27  1  0
 54 52  1  0
 55  6  1  0
 56 55  1  0
 57 59  1  0
 57 56  1  0
 58 69  2  0
 59 64  1  0
 60 68  1  0
 60 70  1  0
 61 63  1  0
 61 67  1  0
 62 68  1  0
 63 62  1  0
 64 63  2  0
 65 59  2  0
 65 66  1  0
 66 61  2  0
 67 60  1  0
 68 58  1  0
 70 72  2  0
 71 70  1  0
 73 71  1  0
 74 83  2  0
 74 79  1  0
 75 71  1  0
 75 79  1  0
 76 75  1  0
 77 78  1  0
 77 76  1  0
 78 74  1  0
 79 80  2  0
 80 81  1  0
 82 81  2  0
 83 82  1  0
 84 58  1  0
 84 85  1  0
 84 94  1  0
 85 88  1  0
 86 85  1  0
 86 90  1  0
 87 86  2  0
 90 89  1  0
 90 92  1  0
 92 93  1  0
 92 91  1  0
 94 97  1  1
 94 95  1  0
 96 94  1  0
M  ISO  4  17 100  25 100  56 101  57 101
M  END
>  <TORSDO>  (61) 
F 24

>  <SCORE>  (61) 
-9.426

>  <name>  (61) 
60

>  <ligand_id>  (61) 
60

>  <original_smiles>  (61) 
[H]c1c([H])c([H])c2c(c1[H])C([H])([H])C([H])([H])C([H])([H])C2([H])N([H])C(=O)C1([H])N(C(=O)C([H])(N([H])C(=O)C([H])(N([H])C([H])([H])[H])C([H])([H])[H])C(C([H])([H])[H])(C([H])([H])[H])C([H])([H])[H])C([H])([H])c2c([H])c(OC([H])([H])C([H])([H])[N+]3([H])C([H])([H])C([H])([H])C([H])(N([H])C([H])([H])C([H])([H])[N+]([H])([H])C([H])([H])C([H])([H])N([H])C(=O)N4C([H])([H])C([H])([H])C([H])([H])C([H])(n5nc(-c6c([H])c([H])c(Oc7c([H])c([H])c(F)c([H])c7F)c([H])c6[H])c(C(=O)N([H])[H])c5N([H])[H])C4([H])[H])C([H])([H])C3([H])[H])c([H])c([H])c2C1([H])[H]

>  <smiles>  (61) 
[H]c1c([H])c([H])c2c(c1[H])C([H])([H])C([H])([H])C([H])([H])C2([H])N([H])C(=O)C1([H])N(C(=O)C([H])(N([H])C(=O)C([H])(N([H])C([H])([H])[H])C([H])([H])[H])C(C([H])([H])[H])(C([H])([H])[H])C([H])([H])[H])C([H])([H])c2c([H])c(OC([H])([H])C([H])([H])[N+]3([H])C([H])([H])C([H])([H])C([H])(N([H])C([H])([H])C([H])([H])[N+]([H])([H])C([H])([H])C([H])([H])N([H])C(=O)N4C([H])([H])C([H])([H])C([H])([H])C([H])(n5nc(-c6c([H])c([H])c(Oc7c([H])c([H])c(F)c([H])c7F)c([H])c6[H])c(C(=O)N([H])[H])c5N([H])[H])C4([H])[H])C([H])([H])C3([H])[H])c([H])c([H])c2C1([H])[H]

$$$$
61:0:0
     RDKit          3D

 93101  0  0  1  0  0  0  0  0999 V2000
  -29.3910  -22.7890   19.4960 C   0  0  0  0  0  3  0  0  0  0  0  0
  -29.2190  -23.9130   20.4230 C   0  0  0  0  0  0  0  0  0  0  0  0
  -29.6640  -23.3660   21.6160 C   0  0  0  0  0  0  0  0  0  0  0  0
  -29.9500  -21.6730   20.1390 C   0  0  0  0  0  0  0  0  0  0  0  0
  -29.6070  -23.9810   22.9900 C   0  0  0  0  0  1  0  0  0  0  0  0
  -30.1870  -22.0690   21.4580 N   0  0  0  0  0  0  0  0  0  0  0  0
  -32.3840  -21.1980   22.3300 C   0  0  0  0  0  1  0  0  0  0  0  0
  -30.1570  -20.0010   22.9280 C   0  0  0  0  0  1  0  0  0  0  0  0
  -30.8620  -21.3150   22.5380 C   0  0  0  0  0  3  0  0  0  0  0  0
  -30.3040  -20.3910   19.5340 N   0  0  0  0  0  0  0  0  0  0  0  0
  -30.4870  -20.4840   18.5390 H   0  0  0  0  0  0  0  0  0  0  0  0
  -29.7860  -18.9970   19.8820 C   0  0  0  0  0  3  0  0  0  0  0  0
  -30.8400  -17.7730   20.0940 C   0  0  0  0  0  3  0  0  0  0  0  0
  -31.1220  -15.1550   20.2560 C   0  0  0  0  0  0  0  0  0  0  0  0
  -30.9430  -12.8010   19.4380 C   0  0  0  0  0  2  0  0  0  0  0  0
  -30.0610  -12.7910   18.1710 C   0  0  0  0  0  2  0  0  0  0  0  0
  -28.5700  -12.6650   18.5450 C   0  0  0  0  0  2  0  0  0  0  0  0
  -28.1520  -13.6200   19.6920 C   0  0  0  0  0  3  0  0  0  0  0  0
  -29.1680  -13.6270   20.8540 C   0  0  0  0  0  2  0  0  0  0  0  0
  -30.4840  -13.9320   20.2780 N   0  0  0  0  0  0  0  0  0  0  0  0
  -32.3240  -15.2030   19.9870 O   0  0  0  0  0  0  0  0  0  0  0  0
  -30.3710  -16.3250   20.3190 N   0  0  0  0  0  0  0  0  0  0  0  0
  -29.3900  -16.2040   20.5230 H   0  0  0  0  0  0  0  0  0  0  0  0
  -25.7620  -14.2610   20.3600 C   0  0  0  0  0  0  0  0  0  0  0  0
  -24.6720  -13.5130   20.7070 C   0  0  0  0  0  0  0  0  0  0  0  0
  -25.1060  -12.1520   20.6940 C   0  0  0  0  0  0  0  0  0  0  0  0
  -26.7930  -13.3590   20.1530 N   0  0  0  0  0  0  0  0  0  0  0  0
  -26.4030  -12.0850   20.4160 N   0  0  0  0  0  0  0  0  0  0  0  0
  -24.3440  -10.9080   20.8700 C   0  0  0  0  0  0  0  0  0  0  0  0
  -24.7120   -9.9440   21.8350 C   0  0  0  0  0  3  0  0  0  0  0  0
  -23.9520   -8.7660   22.0000 C   0  0  0  0  0  3  0  0  0  0  0  0
  -22.8070   -8.5430   21.1980 C   0  0  0  0  0  0  0  0  0  0  0  0
  -22.4590   -9.4920   20.2210 C   0  0  0  0  0  3  0  0  0  0  0  0
  -23.2190  -10.6610   20.0550 C   0  0  0  0  0  3  0  0  0  0  0  0
  -22.0230   -7.4150   21.2690 O   0  0  0  0  0  0  0  0  0  0  0  0
  -21.8690   -6.7190   22.4400 C   0  0  0  0  0  0  0  0  0  0  0  0
  -21.3650   -7.3290   23.6090 C   0  0  0  0  0  3  0  0  0  0  0  0
  -21.1580   -6.5600   24.7710 C   0  0  0  0  0  3  0  0  0  0  0  0
  -21.4460   -5.1830   24.7650 C   0  0  0  0  0  0  0  0  0  0  0  0
  -21.9410   -4.5710   23.6000 C   0  0  0  0  0  3  0  0  0  0  0  0
  -22.1510   -5.3370   22.4400 C   0  0  0  0  0  0  0  0  0  0  0  0
  -22.6100   -4.7400   21.3140 F   0  0  0  0  0  0  0  0  0  0  0  0
  -21.2390   -4.4410   25.8790 F   0  0  0  0  0  0  0  0  0  0  0  0
  -23.2780  -14.0210   20.9420 C   0  0  0  0  0  0  0  0  0  0  0  0
  -22.5200  -13.3580   21.8050 N   0  0  0  0  0  0  0  0  0  0  0  0
  -22.8740  -15.0460   20.3930 O   0  0  0  0  0  0  0  0  0  0  0  0
  -22.8620  -12.5260   22.2660 H   0  0  0  0  0  0  0  0  0  0  0  0
  -21.5840  -13.6820   22.0080 H   0  0  0  0  0  0  0  0  0  0  0  0
  -25.9630  -15.6280   20.1800 N   0  0  0  0  0  0  0  0  0  0  0  0
  -25.2120  -16.3030   20.2540 H   0  0  0  0  0  0  0  0  0  0  0  0
  -26.8200  -16.0350   19.8320 H   0  0  0  0  0  0  0  0  0  0  0  0
  -28.5050  -25.3640   20.4310 C   0  0  0  0  0  2  0  0  0  0  0  0
  -28.7550  -26.6340   19.6630 O   0  0  0  0  0  0  0  0  0  0  0  0
  -24.6360  -31.5860   23.1280 C   0  0  0  0  0  0  0  0  0  0  0  0
  -27.6300  -27.5040   19.6890 C   0  0  0  0  0  0  0  0  0  0  0  0
  -23.5480  -30.1800   21.4190 C   0  0  0  0  0  3  0  0  0  0  0  0
  -25.1190  -28.9020   19.8510 C   0  0  0  0  0  0  0  0  0  0  0  0
  -26.0410  -30.7650   21.2140 C   0  0  0  0  0  2  0  0  0  0  0  0
  -26.2550  -29.4470   20.4680 C   0  0  0  0  0  0  0  0  0  0  0  0
  -27.5150  -28.7620   20.3790 C   0  0  0  0  0  3  0  0  0  0  0  0
  -26.4690  -27.0570   19.0160 C   0  0  0  0  0  3  0  0  0  0  0  0
  -25.2320  -27.7170   19.1140 C   0  0  0  0  0  3  0  0  0  0  0  0
  -23.7980  -29.6310   19.9940 C   0  0  0  0  0  2  0  0  0  0  0  0
  -24.7600  -30.8600   21.9770 N   0  0  0  0  0  0  0  0  0  0  0  0
  -23.5410  -31.7060   23.6980 O   0  0  0  0  0  0  0  0  0  0  0  0
  -23.0200  -29.0360   22.3170 C   0  0  0  0  0  0  0  0  0  0  0  0
  -21.7450  -28.6480   22.1250 N   0  0  0  0  0  0  0  0  0  0  0  0
  -23.7560  -28.5000   23.1500 O   0  0  0  0  0  0  0  0  0  0  0  0
  -21.2010  -29.1420   21.4310 H   0  0  0  0  0  0  0  0  0  0  0  0
  -18.6430  -26.7950   22.3210 C   0  0  0  0  0  0  0  0  0  0  0  0
  -21.0570  -27.5650   22.8320 C   0  0  0  0  0  3  0  0  0  0  0  0
  -21.5020  -26.1850   22.2950 C   0  0  0  0  0  2  0  0  0  0  0  0
  -20.5930  -25.6480   21.1860 C   0  0  0  0  0  2  0  0  0  0  0  0
  -19.1540  -25.5120   21.6880 C   0  0  0  0  0  2  0  0  0  0  0  0
  -19.5370  -27.7690   22.8420 C   0  0  0  0  0  0  0  0  0  0  0  0
  -19.0090  -28.9590   23.3840 C   0  0  0  0  0  3  0  0  0  0  0  0
  -17.6200  -29.1830   23.4170 C   0  0  0  0  0  3  0  0  0  0  0  0
  -16.7410  -28.2100   22.9120 C   0  0  0  0  0  3  0  0  0  0  0  0
  -17.2510  -27.0190   22.3680 C   0  0  0  0  0  3  0  0  0  0  0  0
  -25.8570  -32.3140   23.7690 C   0  0  0  0  0  3  0  0  0  0  0  0
  -25.4350  -33.6770   24.1200 N   0  0  0  0  0  0  0  0  0  0  0  0
  -25.7250  -34.7710   23.4040 C   0  0  0  0  0  0  0  0  0  0  0  0
  -26.4460  -34.7430   22.4020 O   0  0  0  0  0  0  0  0  0  0  0  0
  -24.7990  -33.7690   24.9000 H   0  0  0  0  0  0  0  0  0  0  0  0
  -23.8920  -36.4480   23.0170 C   0  0  0  0  0  1  0  0  0  0  0  0
  -25.1230  -36.1100   23.8730 C   0  0  0  0  0  3  0  0  0  0  0  0
  -27.1540  -37.1150   24.8170 C   0  0  0  0  0  1  0  0  0  0  0  0
  -26.0830  -37.2360   23.8320 N   0  0  0  0  0  0  0  0  0  0  0  0
  -25.6060  -38.1200   23.9870 H   0  0  0  0  0  0  0  0  0  0  0  0
  -26.4230  -31.5680   25.0390 C   0  0  1  0  0  0  0  0  0  0  0  0
  -25.3460  -31.2410   26.1000 C   0  0  0  0  0  1  0  0  0  0  0  0
  -27.1050  -30.2390   24.6370 C   0  0  0  0  0  1  0  0  0  0  0  0
  -27.5120  -32.4340   25.7130 C   0  0  0  0  0  1  0  0  0  0  0  0
  1  4  2  0
  1  2  1  0
  2 52  1  0
  2  3  2  0
  3  5  1  0
  4  6  1  0
  6  3  1  0
  6  9  1  0
  7  9  1  0
  9  8  1  0
 10 12  1  0
 10  4  1  0
 11 10  1  0
 12 13  2  0
 13 22  1  0
 14 20  1  0
 14 22  1  0
 15 20  1  0
 16 17  1  0
 16 15  1  0
 18 17  1  0
 18 27  1  0
 18 19  1  0
 20 19  1  0
 21 14  2  0
 22 23  1  0
 24 25  2  0
 25 44  1  0
 26 25  1  0
 26 29  1  0
 27 24  1  0
 27 28  1  0
 28 26  2  0
 29 30  1  0
 30 31  2  0
 32 35  1  0
 32 31  1  0
 33 32  2  0
 34 33  1  0
 34 29  2  0
 35 36  1  0
 36 37  1  0
 37 38  2  0
 39 38  1  0
 39 43  1  0
 40 39  2  0
 41 36  2  0
 41 40  1  0
 42 41  1  0
 44 45  1  0
 45 48  1  0
 45 47  1  0
 46 44  2  0
 49 50  1  0
 49 24  1  0
 51 49  1  0
 53 55  1  0
 53 52  1  0
 54 65  2  0
 55 60  1  0
 56 64  1  0
 56 66  1  0
 57 63  1  0
 57 59  1  0
 58 64  1  0
 59 58  1  0
 60 59  2  0
 61 62  1  0
 61 55  2  0
 62 57  2  0
 63 56  1  0
 64 54  1  0
 66 68  2  0
 67 66  1  0
 69 67  1  0
 70 79  2  0
 70 75  1  0
 71 67  1  0
 71 75  1  0
 72 71  1  0
 73 74  1  0
 73 72  1  0
 74 70  1  0
 75 76  2  0
 76 77  1  0
 78 77  2  0
 79 78  1  0
 80 54  1  0
 80 81  1  0
 80 90  1  0
 81 84  1  0
 82 86  1  0
 82 81  1  0
 83 82  2  0
 86 85  1  0
 88 86  1  0
 88 89  1  0
 88 87  1  0
 90 93  1  1
 90 91  1  0
 92 90  1  0
M  ISO  4  14 100  22 100  52 101  53 101
M  END
>  <TORSDO>  (62) 
F 21

>  <SCORE>  (62) 
-11.517

>  <name>  (62) 
61

>  <ligand_id>  (62) 
61

>  <original_smiles>  (62) 
[H]c1c([H])c([H])c2c(c1[H])C([H])([H])C([H])([H])C([H])([H])C2([H])N([H])C(=O)C1([H])N(C(=O)C([H])(N([H])C(=O)C([H])(N([H])C([H])([H])[H])C([H])([H])[H])C(C([H])([H])[H])(C([H])([H])[H])C([H])([H])[H])C([H])([H])c2c([H])c(OC([H])([H])c3c([H])c(N([H])C([H])([H])C([H])([H])N([H])C(=O)N4C([H])([H])C([H])([H])C([H])([H])C([H])(n5nc(-c6c([H])c([H])c(Oc7c([H])c([H])c(F)c([H])c7F)c([H])c6[H])c(C(=O)N([H])[H])c5N([H])[H])C4([H])[H])n(C([H])(C([H])([H])[H])C([H])([H])[H])c3C([H])([H])[H])c([H])c([H])c2C1([H])[H]

>  <smiles>  (62) 
[H]c1c([H])c([H])c2c(c1[H])C([H])([H])C([H])([H])C([H])([H])C2([H])N([H])C(=O)C1([H])N(C(=O)C([H])(N([H])C(=O)C([H])(N([H])C([H])([H])[H])C([H])([H])[H])C(C([H])([H])[H])(C([H])([H])[H])C([H])([H])[H])C([H])([H])c2c([H])c(OC([H])([H])c3c([H])c(N([H])C([H])([H])C([H])([H])N([H])C(=O)N4C([H])([H])C([H])([H])C([H])([H])C([H])(n5nc(-c6c([H])c([H])c(Oc7c([H])c([H])c(F)c([H])c7F)c([H])c6[H])c(C(=O)N([H])[H])c5N([H])[H])C4([H])[H])n(C([H])(C([H])([H])[H])C([H])([H])[H])c3C([H])([H])[H])c([H])c([H])c2C1([H])[H]

$$$$
62:0:0
     RDKit          3D

 93102  0  0  1  0  0  0  0  0999 V2000
  -30.0640  -21.5910   21.1270 C   0  0  0  0  0  2  0  0  0  0  0  0
  -30.0950  -19.8910   21.4080 C   0  0  0  0  0  2  0  0  0  0  0  0
  -28.6020  -19.5730   19.6980 C   0  0  0  0  0  2  0  0  0  0  0  0
  -28.5200  -21.2680   19.4350 C   0  0  0  0  0  3  0  0  0  0  0  0
  -28.7720  -22.4780   20.5560 C   0  0  0  0  0  3  0  0  0  0  0  0
  -29.9040  -18.7010   20.2560 C   0  0  0  0  0  3  0  0  0  0  0  0
  -30.6450  -15.6770   20.2800 C   0  0  0  0  0  0  0  0  0  0  0  0
  -30.6730  -13.2090   19.3570 C   0  0  0  0  0  2  0  0  0  0  0  0
  -29.7580  -12.9650   18.1250 C   0  0  0  0  0  2  0  0  0  0  0  0
  -28.3220  -12.6440   18.5690 C   0  0  0  0  0  2  0  0  0  0  0  0
  -27.8560  -13.5890   19.7010 C   0  0  0  0  0  3  0  0  0  0  0  0
  -28.9000  -13.7640   20.8270 C   0  0  0  0  0  2  0  0  0  0  0  0
  -30.1060  -14.3410   20.2030 N   0  0  0  0  0  0  0  0  0  0  0  0
  -31.8590  -15.6640   20.0170 O   0  0  0  0  0  0  0  0  0  0  0  0
  -29.8700  -16.9760   20.4650 N   0  0  0  0  0  0  0  0  0  0  0  0
  -28.9300  -16.7050   20.7200 H   0  0  0  0  0  0  0  0  0  0  0  0
  -25.4910  -14.1220   20.4720 C   0  0  0  0  0  0  0  0  0  0  0  0
  -24.4310  -13.3370   20.8250 C   0  0  0  0  0  0  0  0  0  0  0  0
  -24.9000  -11.9890   20.7720 C   0  0  0  0  0  0  0  0  0  0  0  0
  -26.5330  -13.2530   20.2090 N   0  0  0  0  0  0  0  0  0  0  0  0
  -26.1910  -11.9620   20.4580 N   0  0  0  0  0  0  0  0  0  0  0  0
  -24.1740  -10.7240   20.9420 C   0  0  0  0  0  0  0  0  0  0  0  0
  -24.5410   -9.7880   21.9350 C   0  0  0  0  0  3  0  0  0  0  0  0
  -23.8150   -8.5880   22.0940 C   0  0  0  0  0  3  0  0  0  0  0  0
  -22.7070   -8.3140   21.2570 C   0  0  0  0  0  0  0  0  0  0  0  0
  -22.3580   -9.2370   20.2550 C   0  0  0  0  0  3  0  0  0  0  0  0
  -23.0860  -10.4280   20.0960 C   0  0  0  0  0  3  0  0  0  0  0  0
  -21.9580   -7.1630   21.3220 O   0  0  0  0  0  0  0  0  0  0  0  0
  -21.7650   -6.4950   22.5030 C   0  0  0  0  0  0  0  0  0  0  0  0
  -21.1040   -7.0920   23.5980 C   0  0  0  0  0  3  0  0  0  0  0  0
  -20.8660   -6.3460   24.7700 C   0  0  0  0  0  3  0  0  0  0  0  0
  -21.2770   -5.0010   24.8440 C   0  0  0  0  0  0  0  0  0  0  0  0
  -21.9300   -4.4030   23.7520 C   0  0  0  0  0  3  0  0  0  0  0  0
  -22.1700   -5.1460   22.5840 C   0  0  0  0  0  0  0  0  0  0  0  0
  -22.7810   -4.5590   21.5270 F   0  0  0  0  0  0  0  0  0  0  0  0
  -21.0410   -4.2810   25.9650 F   0  0  0  0  0  0  0  0  0  0  0  0
  -23.0320  -13.8100   21.0960 C   0  0  0  0  0  0  0  0  0  0  0  0
  -22.3020  -13.1080   21.9530 N   0  0  0  0  0  0  0  0  0  0  0  0
  -22.5980  -14.8400   20.5820 O   0  0  0  0  0  0  0  0  0  0  0  0
  -22.6670  -12.2740   22.3910 H   0  0  0  0  0  0  0  0  0  0  0  0
  -21.3630  -13.4100   22.1750 H   0  0  0  0  0  0  0  0  0  0  0  0
  -25.6530  -15.4960   20.3230 N   0  0  0  0  0  0  0  0  0  0  0  0
  -24.8930  -16.1500   20.4710 H   0  0  0  0  0  0  0  0  0  0  0  0
  -26.4980  -15.9410   19.9890 H   0  0  0  0  0  0  0  0  0  0  0  0
  -24.7830  -21.3290   18.5640 C   0  0  0  0  0  3  0  0  0  0  0  0
  -24.7490  -22.1360   17.4130 C   0  0  0  0  0  3  0  0  0  0  0  0
  -26.0120  -21.0580   19.1940 C   0  0  0  0  0  3  0  0  0  0  0  0
  -25.9420  -22.6820   16.9060 C   0  0  0  0  0  3  0  0  0  0  0  0
  -27.2200  -21.5920   18.6900 C   0  0  0  0  0  0  0  0  0  0  0  0
  -27.1780  -22.4230   17.5370 C   0  0  0  0  0  0  0  0  0  0  0  0
  -28.4270  -23.0670   16.9570 C   0  0  0  0  0  1  0  0  0  0  0  0
  -28.5480  -24.2980   20.1060 C   0  0  0  0  0  2  0  0  0  0  0  0
  -28.4130  -25.8940   20.6850 O   0  0  0  0  0  0  0  0  0  0  0  0
  -24.5740  -31.9390   23.3120 C   0  0  0  0  0  0  0  0  0  0  0  0
  -27.3950  -27.0100   20.4980 C   0  0  0  0  0  0  0  0  0  0  0  0
  -23.4910  -30.4680   21.6640 C   0  0  0  0  0  3  0  0  0  0  0  0
  -25.0460  -28.8750   20.3210 C   0  0  0  0  0  0  0  0  0  0  0  0
  -26.0560  -30.7410   21.6100 C   0  0  0  0  0  2  0  0  0  0  0  0
  -26.1960  -29.3130   20.9870 C   0  0  0  0  0  0  0  0  0  0  0  0
  -27.3560  -28.4000   21.0530 C   0  0  0  0  0  3  0  0  0  0  0  0
  -26.2150  -26.7570   19.7590 C   0  0  0  0  0  3  0  0  0  0  0  0
  -25.0870  -27.6210   19.6860 C   0  0  0  0  0  3  0  0  0  0  0  0
  -23.7960  -29.7630   20.3100 C   0  0  0  0  0  2  0  0  0  0  0  0
  -24.7270  -31.0820   22.2480 N   0  0  0  0  0  0  0  0  0  0  0  0
  -23.4560  -32.2020   23.7860 O   0  0  0  0  0  0  0  0  0  0  0  0
  -22.7900  -29.4750   22.6270 C   0  0  0  0  0  0  0  0  0  0  0  0
  -21.4770  -29.2410   22.4400 N   0  0  0  0  0  0  0  0  0  0  0  0
  -23.4380  -28.9130   23.5140 O   0  0  0  0  0  0  0  0  0  0  0  0
  -21.0060  -29.7490   21.7050 H   0  0  0  0  0  0  0  0  0  0  0  0
  -18.1210  -27.9170   22.8580 C   0  0  0  0  0  0  0  0  0  0  0  0
  -20.6600  -28.2850   23.1980 C   0  0  0  0  0  3  0  0  0  0  0  0
  -20.8330  -26.8500   22.6490 C   0  0  0  0  0  2  0  0  0  0  0  0
  -19.7770  -26.4710   21.6060 C   0  0  0  0  0  2  0  0  0  0  0  0
  -18.3700  -26.5700   22.2020 C   0  0  0  0  0  2  0  0  0  0  0  0
  -19.1960  -28.7300   23.3100 C   0  0  0  0  0  0  0  0  0  0  0  0
  -18.9050  -29.9870   23.8830 C   0  0  0  0  0  3  0  0  0  0  0  0
  -17.5760  -30.4330   24.0090 C   0  0  0  0  0  3  0  0  0  0  0  0
  -16.5170  -29.6180   23.5710 C   0  0  0  0  0  3  0  0  0  0  0  0
  -16.7900  -28.3620   23.0020 C   0  0  0  0  0  3  0  0  0  0  0  0
  -25.7950  -32.6430   23.9800 C   0  0  0  0  0  3  0  0  0  0  0  0
  -25.4050  -34.0270   24.3090 N   0  0  0  0  0  0  0  0  0  0  0  0
  -25.6770  -35.1030   23.5570 C   0  0  0  0  0  0  0  0  0  0  0  0
  -26.3460  -35.0370   22.5230 O   0  0  0  0  0  0  0  0  0  0  0  0
  -24.8110  -34.1470   25.1150 H   0  0  0  0  0  0  0  0  0  0  0  0
  -23.8520  -36.8060   23.2310 C   0  0  0  0  0  1  0  0  0  0  0  0
  -25.1240  -36.4660   24.0220 C   0  0  0  0  0  3  0  0  0  0  0  0
  -27.2070  -37.4800   24.8400 C   0  0  0  0  0  1  0  0  0  0  0  0
  -26.0980  -37.5730   23.8950 N   0  0  0  0  0  0  0  0  0  0  0  0
  -25.6420  -38.4720   24.0270 H   0  0  0  0  0  0  0  0  0  0  0  0
  -26.2980  -31.9020   25.2810 C   0  0  1  0  0  0  0  0  0  0  0  0
  -25.1690  -31.5620   26.2820 C   0  0  0  0  0  1  0  0  0  0  0  0
  -27.0180  -30.5840   24.9230 C   0  0  0  0  0  1  0  0  0  0  0  0
  -27.3370  -32.7830   26.0150 C   0  0  0  0  0  1  0  0  0  0  0  0
  1  2  1  0
  3  6  1  0
  4 49  1  0
  4  3  1  0
  4  5  1  0
  5 52  1  0
  5  1  1  0
  6 15  1  0
  6  2  1  0
  7 15  1  0
  8 13  1  0
  9 10  1  0
  9  8  1  0
 11 10  1  0
 11 20  1  0
 11 12  1  0
 13  7  1  0
 13 12  1  0
 14  7  2  0
 15 16  1  0
 17 18  2  0
 18 37  1  0
 19 18  1  0
 19 22  1  0
 20 21  1  0
 20 17  1  0
 21 19  2  0
 22 23  1  0
 23 24  2  0
 25 28  1  0
 25 24  1  0
 26 25  2  0
 27 26  1  0
 27 22  2  0
 28 29  1  0
 29 34  2  0
 29 30  1  0
 30 31  2  0
 31 32  1  0
 32 36  1  0
 33 32  2  0
 34 33  1  0
 35 34  1  0
 37 38  1  0
 38 41  1  0
 38 40  1  0
 39 37  2  0
 42 43  1  0
 42 17  1  0
 44 42  1  0
 45 47  1  0
 46 45  2  0
 48 46  1  0
 48 50  2  0
 49 47  2  0
 50 49  1  0
 51 50  1  0
 52 53  1  0
 54 65  2  0
 55 53  1  0
 55 60  1  0
 56 64  1  0
 56 66  1  0
 57 59  1  0
 58 64  1  0
 59 60  2  0
 59 58  1  0
 61 55  2  0
 62 61  1  0
 62 57  2  0
 63 57  1  0
 63 56  1  0
 64 54  1  0
 66 68  2  0
 67 66  1  0
 69 67  1  0
 70 79  2  0
 70 75  1  0
 71 67  1  0
 71 75  1  0
 72 71  1  0
 73 74  1  0
 73 72  1  0
 74 70  1  0
 75 76  2  0
 76 77  1  0
 78 77  2  0
 79 78  1  0
 80 54  1  0
 80 81  1  0
 80 90  1  0
 81 84  1  0
 82 86  1  0
 82 81  1  0
 83 82  2  0
 86 85  1  0
 88 86  1  0
 88 89  1  0
 88 87  1  0
 90 93  1  1
 90 91  1  0
 92 90  1  0
M  ISO  4   7 100  15 100  52 101  53 101
M  END
>  <TORSDO>  (63) 
F 18

>  <SCORE>  (63) 
-13.791

>  <name>  (63) 
62

>  <ligand_id>  (63) 
62

>  <original_smiles>  (63) 
[H]c1c([H])c([H])c(C2([H])C([H])([H])C([H])(N([H])C(=O)N3C([H])([H])C([H])([H])C([H])([H])C([H])(n4nc(-c5c([H])c([H])c(Oc6c([H])c([H])c(F)c([H])c6F)c([H])c5[H])c(C(=O)N([H])[H])c4N([H])[H])C3([H])[H])C([H])([H])C([H])([H])C2([H])C([H])([H])Oc2c([H])c([H])c3c(c2[H])C([H])([H])N(C(=O)C([H])(N([H])C(=O)C([H])(N([H])C([H])([H])[H])C([H])([H])[H])C(C([H])([H])[H])(C([H])([H])[H])C([H])([H])[H])C([H])(C(=O)N([H])C2([H])c4c([H])c([H])c([H])c([H])c4C([H])([H])C([H])([H])C2([H])[H])C3([H])[H])c(C([H])([H])[H])c1[H]

>  <smiles>  (63) 
[H]c1c([H])c([H])c(C2([H])C([H])([H])C([H])(N([H])C(=O)N3C([H])([H])C([H])([H])C([H])([H])C([H])(n4nc(-c5c([H])c([H])c(Oc6c([H])c([H])c(F)c([H])c6F)c([H])c5[H])c(C(=O)N([H])[H])c4N([H])[H])C3([H])[H])C([H])([H])C([H])([H])C2([H])C([H])([H])Oc2c([H])c([H])c3c(c2[H])C([H])([H])N(C(=O)C([H])(N([H])C(=O)C([H])(N([H])C([H])([H])[H])C([H])([H])[H])C(C([H])([H])[H])(C([H])([H])[H])C([H])([H])[H])C([H])(C(=O)N([H])C2([H])c4c([H])c([H])c([H])c([H])c4C([H])([H])C([H])([H])C2([H])[H])C3([H])[H])c(C([H])([H])[H])c1[H]

$$$$
63:0:0
     RDKit          3D

 90 98  0  0  1  0  0  0  0  0999 V2000
  -30.1960  -19.3130   18.8000 C   0  0  0  0  0  3  0  0  0  0  0  0
  -29.0050  -18.5860   20.7800 C   0  0  0  0  0  3  0  0  0  0  0  0
  -29.7580  -20.6370   19.0050 C   0  0  0  0  0  3  0  0  0  0  0  0
  -28.5710  -19.9270   20.9950 C   0  0  0  0  0  3  0  0  0  0  0  0
  -29.8150  -18.2590   19.6630 C   0  0  0  0  0  0  0  0  0  0  0  0
  -28.9260  -20.9680   20.0890 C   0  0  0  0  0  0  0  0  0  0  0  0
  -30.2980  -16.8400   19.2870 C   0  0  0  0  0  2  0  0  0  0  0  0
  -30.8140  -14.5440   20.0020 C   0  0  0  0  0  0  0  0  0  0  0  0
  -30.4420  -12.3680   18.9250 C   0  0  0  0  0  2  0  0  0  0  0  0
  -29.4500  -12.6040   17.7700 C   0  0  0  0  0  2  0  0  0  0  0  0
  -28.0010  -12.4660   18.2720 C   0  0  0  0  0  2  0  0  0  0  0  0
  -27.7310  -13.2840   19.5670 C   0  0  0  0  0  3  0  0  0  0  0  0
  -28.8490  -13.0750   20.6170 C   0  0  0  0  0  2  0  0  0  0  0  0
  -30.1370  -13.3620   19.9700 N   0  0  0  0  0  0  0  0  0  0  0  0
  -31.9760  -14.6420   19.6010 O   0  0  0  0  0  0  0  0  0  0  0  0
  -30.0600  -15.6610   20.1540 N   0  0  0  0  0  0  0  0  0  0  0  0
  -29.1250  -15.5310   20.5030 H   0  0  0  0  0  0  0  0  0  0  0  0
  -25.3770  -13.8780   20.4130 C   0  0  0  0  0  0  0  0  0  0  0  0
  -24.3310  -13.0980   20.8220 C   0  0  0  0  0  0  0  0  0  0  0  0
  -24.7860  -11.7470   20.7440 C   0  0  0  0  0  0  0  0  0  0  0  0
  -26.4090  -13.0010   20.1150 N   0  0  0  0  0  0  0  0  0  0  0  0
  -26.0590  -11.7140   20.3720 N   0  0  0  0  0  0  0  0  0  0  0  0
  -24.0720  -10.4820   20.9490 C   0  0  0  0  0  0  0  0  0  0  0  0
  -24.5170   -9.5260   21.8880 C   0  0  0  0  0  3  0  0  0  0  0  0
  -23.7980   -8.3280   22.0830 C   0  0  0  0  0  3  0  0  0  0  0  0
  -22.6190   -8.0790   21.3390 C   0  0  0  0  0  0  0  0  0  0  0  0
  -22.1940   -9.0240   20.3890 C   0  0  0  0  0  3  0  0  0  0  0  0
  -22.9140  -10.2150   20.1920 C   0  0  0  0  0  3  0  0  0  0  0  0
  -21.8680   -6.9330   21.4410 O   0  0  0  0  0  0  0  0  0  0  0  0
  -21.8040   -6.2180   22.6100 C   0  0  0  0  0  0  0  0  0  0  0  0
  -21.3100   -6.7820   23.8050 C   0  0  0  0  0  3  0  0  0  0  0  0
  -21.1960   -5.9910   24.9650 C   0  0  0  0  0  3  0  0  0  0  0  0
  -21.5680   -4.6330   24.9310 C   0  0  0  0  0  0  0  0  0  0  0  0
  -22.0570   -4.0680   23.7390 C   0  0  0  0  0  3  0  0  0  0  0  0
  -22.1720   -4.8570   22.5830 C   0  0  0  0  0  0  0  0  0  0  0  0
  -22.6210   -4.3000   21.4320 F   0  0  0  0  0  0  0  0  0  0  0  0
  -21.4540   -3.8690   26.0430 F   0  0  0  0  0  0  0  0  0  0  0  0
  -22.9500  -13.5720   21.1740 C   0  0  0  0  0  0  0  0  0  0  0  0
  -22.2690  -12.8540   22.0570 N   0  0  0  0  0  0  0  0  0  0  0  0
  -22.4870  -14.6080   20.7020 O   0  0  0  0  0  0  0  0  0  0  0  0
  -22.6640  -12.0170   22.4620 H   0  0  0  0  0  0  0  0  0  0  0  0
  -21.3390  -13.1430   22.3280 H   0  0  0  0  0  0  0  0  0  0  0  0
  -25.5260  -15.2540   20.2470 N   0  0  0  0  0  0  0  0  0  0  0  0
  -24.7520  -15.8900   20.4020 H   0  0  0  0  0  0  0  0  0  0  0  0
  -26.3370  -15.7130   19.8570 H   0  0  0  0  0  0  0  0  0  0  0  0
  -28.4610  -22.2740   20.1350 O   0  0  0  0  0  0  0  0  0  0  0  0
  -28.3720  -22.9400   21.3940 C   0  0  0  0  0  2  0  0  0  0  0  0
  -27.8880  -24.4250   21.2630 C   0  0  0  0  0  2  0  0  0  0  0  0
  -28.5590  -25.2930   20.1570 C   0  0  0  0  0  2  0  0  0  0  0  0
  -28.5020  -26.7250   20.3620 O   0  0  0  0  0  0  0  0  0  0  0  0
  -24.5440  -31.8420   23.2750 C   0  0  0  0  0  0  0  0  0  0  0  0
  -27.3130  -27.4230   20.2660 C   0  0  0  0  0  0  0  0  0  0  0  0
  -23.4000  -30.4500   21.5780 C   0  0  0  0  0  3  0  0  0  0  0  0
  -24.9100  -28.9300   20.1850 C   0  0  0  0  0  0  0  0  0  0  0  0
  -25.9280  -30.8240   21.4630 C   0  0  0  0  0  2  0  0  0  0  0  0
  -26.0440  -29.4570   20.8130 C   0  0  0  0  0  0  0  0  0  0  0  0
  -27.2460  -28.7150   20.8430 C   0  0  0  0  0  3  0  0  0  0  0  0
  -26.1630  -26.9110   19.6240 C   0  0  0  0  0  3  0  0  0  0  0  0
  -24.9670  -27.6590   19.5830 C   0  0  0  0  0  3  0  0  0  0  0  0
  -23.6580  -29.7800   20.2000 C   0  0  0  0  0  2  0  0  0  0  0  0
  -24.6410  -31.0530   22.1650 N   0  0  0  0  0  0  0  0  0  0  0  0
  -23.4430  -32.1050   23.7840 O   0  0  0  0  0  0  0  0  0  0  0  0
  -22.7210  -29.4190   22.5070 C   0  0  0  0  0  0  0  0  0  0  0  0
  -21.3970  -29.2610   22.3610 N   0  0  0  0  0  0  0  0  0  0  0  0
  -23.3860  -28.7630   23.3140 O   0  0  0  0  0  0  0  0  0  0  0  0
  -20.9220  -29.8430   21.6860 H   0  0  0  0  0  0  0  0  0  0  0  0
  -17.9920  -28.1530   22.8360 C   0  0  0  0  0  0  0  0  0  0  0  0
  -20.5570  -28.3150   23.0970 C   0  0  0  0  0  3  0  0  0  0  0  0
  -20.6090  -26.9090   22.4550 C   0  0  0  0  0  2  0  0  0  0  0  0
  -19.4910  -26.6660   21.4370 C   0  0  0  0  0  2  0  0  0  0  0  0
  -18.1200  -26.8310   22.1000 C   0  0  0  0  0  2  0  0  0  0  0  0
  -19.1380  -28.8580   23.2900 C   0  0  0  0  0  0  0  0  0  0  0  0
  -18.9660  -30.1030   23.9350 C   0  0  0  0  0  3  0  0  0  0  0  0
  -17.6800  -30.6390   24.1320 C   0  0  0  0  0  3  0  0  0  0  0  0
  -16.5480  -29.9280   23.6970 C   0  0  0  0  0  3  0  0  0  0  0  0
  -16.7050  -28.6860   23.0550 C   0  0  0  0  0  3  0  0  0  0  0  0
  -25.8060  -32.4710   23.9470 C   0  0  0  0  0  3  0  0  0  0  0  0
  -25.4960  -33.8750   24.2460 N   0  0  0  0  0  0  0  0  0  0  0  0
  -25.8660  -34.9130   23.4840 C   0  0  0  0  0  0  0  0  0  0  0  0
  -26.5720  -34.7910   22.4800 O   0  0  0  0  0  0  0  0  0  0  0  0
  -24.8800  -34.0490   25.0270 H   0  0  0  0  0  0  0  0  0  0  0  0
  -24.1770  -36.7160   23.0270 C   0  0  0  0  0  1  0  0  0  0  0  0
  -25.3720  -36.3100   23.9040 C   0  0  0  0  0  3  0  0  0  0  0  0
  -27.4640  -37.1890   24.8400 C   0  0  0  0  0  1  0  0  0  0  0  0
  -26.4200  -37.3500   23.8320 N   0  0  0  0  0  0  0  0  0  0  0  0
  -26.0170  -38.2760   23.9380 H   0  0  0  0  0  0  0  0  0  0  0  0
  -26.2650  -31.7100   25.2500 C   0  0  1  0  0  0  0  0  0  0  0  0
  -25.1310  -31.4820   26.2770 C   0  0  0  0  0  1  0  0  0  0  0  0
  -26.8580  -30.3290   24.8890 C   0  0  0  0  0  1  0  0  0  0  0  0
  -27.3880  -32.5100   25.9530 C   0  0  0  0  0  1  0  0  0  0  0  0
  1  3  2  0
  1  5  1  0
  2  4  1  0
  3  6  1  0
  5  2  2  0
  6 46  1  0
  6  4  2  0
  7  5  1  0
  7 16  1  0
  8 16  1  0
  9 14  1  0
 10 11  1  0
 10  9  1  0
 12 11  1  0
 12 21  1  0
 12 13  1  0
 14  8  1  0
 14 13  1  0
 15  8  2  0
 16 17  1  0
 18 19  2  0
 19 38  1  0
 20 19  1  0
 20 23  1  0
 21 22  1  0
 21 18  1  0
 22 20  2  0
 23 24  1  0
 24 25  2  0
 26 29  1  0
 26 25  1  0
 27 26  2  0
 28 27  1  0
 28 23  2  0
 29 30  1  0
 30 31  1  0
 31 32  2  0
 33 32  1  0
 33 37  1  0
 34 33  2  0
 35 30  2  0
 35 34  1  0
 36 35  1  0
 38 39  1  0
 39 42  1  0
 39 41  1  0
 40 38  2  0
 43 44  1  0
 43 18  1  0
 45 43  1  0
 46 47  1  0
 48 47  1  0
 49 50  1  0
 49 48  1  0
 51 62  2  0
 52 50  1  0
 52 57  1  0
 53 61  1  0
 53 63  1  0
 54 60  1  0
 54 56  1  0
 55 61  1  0
 56 57  2  0
 56 55  1  0
 58 52  2  0
 59 58  1  0
 59 54  2  0
 60 53  1  0
 61 51  1  0
 63 65  2  0
 64 63  1  0
 66 64  1  0
 67 76  2  0
 67 72  1  0
 68 64  1  0
 68 72  1  0
 69 68  1  0
 70 71  1  0
 70 69  1  0
 71 67  1  0
 72 73  2  0
 73 74  1  0
 75 74  2  0
 76 75  1  0
 77 51  1  0
 77 78  1  0
 77 87  1  0
 78 81  1  0
 79 83  1  0
 79 78  1  0
 80 79  2  0
 83 82  1  0
 85 83  1  0
 85 86  1  0
 85 84  1  0
 87 90  1  1
 87 88  1  0
 89 87  1  0
M  ISO  4   8 100  16 100  49 101  50 101
M  END
>  <TORSDO>  (64) 
F 21

>  <SCORE>  (64) 
-13.069

>  <name>  (64) 
63

>  <ligand_id>  (64) 
63

>  <original_smiles>  (64) 
[H]c1c([H])c([H])c2c(c1[H])C([H])([H])C([H])([H])C([H])([H])C2([H])N([H])C(=O)C1([H])N(C(=O)C([H])(N([H])C(=O)C([H])(N([H])C([H])([H])[H])C([H])([H])[H])C(C([H])([H])[H])(C([H])([H])[H])C([H])([H])[H])C([H])([H])c2c([H])c(OC([H])([H])C([H])([H])C([H])([H])Oc3c([H])c([H])c(C([H])([H])N([H])C(=O)N4C([H])([H])C([H])([H])C([H])([H])C([H])(n5nc(-c6c([H])c([H])c(Oc7c([H])c([H])c(F)c([H])c7F)c([H])c6[H])c(C(=O)N([H])[H])c5N([H])[H])C4([H])[H])c([H])c3[H])c([H])c([H])c2C1([H])[H]

>  <smiles>  (64) 
[H]c1c([H])c([H])c2c(c1[H])C([H])([H])C([H])([H])C([H])([H])C2([H])N([H])C(=O)C1([H])N(C(=O)C([H])(N([H])C(=O)C([H])(N([H])C([H])([H])[H])C([H])([H])[H])C(C([H])([H])[H])(C([H])([H])[H])C([H])([H])[H])C([H])([H])c2c([H])c(OC([H])([H])C([H])([H])C([H])([H])Oc3c([H])c([H])c(C([H])([H])N([H])C(=O)N4C([H])([H])C([H])([H])C([H])([H])C([H])(n5nc(-c6c([H])c([H])c(Oc7c([H])c([H])c(F)c([H])c7F)c([H])c6[H])c(C(=O)N([H])[H])c5N([H])[H])C4([H])[H])c([H])c3[H])c([H])c([H])c2C1([H])[H]

$$$$
64:0:0
     RDKit          3D

 95104  0  0  1  0  0  0  0  0999 V2000
  -28.7450  -21.8160   21.3760 C   0  0  0  0  0  3  0  0  0  0  0  0
  -28.8430  -20.4530   21.7140 C   0  0  0  0  0  3  0  0  0  0  0  0
  -29.6420  -22.3560   20.4260 C   0  0  0  0  0  0  0  0  0  0  0  0
  -30.6120  -21.4830   19.8800 C   0  0  0  0  0  0  0  0  0  0  0  0
  -29.8300  -19.6630   21.1020 C   0  0  0  0  0  0  0  0  0  0  0  0
  -30.6960  -20.1710   20.2030 N   0  0  0  0  0  0  0  0  0  0  0  0
  -29.9180  -18.3010   21.4150 N   0  0  0  0  0  0  0  0  0  0  0  0
  -29.3060  -17.9240   22.1310 H   0  0  0  0  0  0  0  0  0  0  0  0
  -33.0660  -21.7340   18.9040 C   0  0  0  0  0  2  0  0  0  0  0  0
  -32.4910  -23.1150   19.0840 C   0  0  0  0  0  2  0  0  0  0  0  0
  -31.5680  -21.9450   18.8150 C   0  0  0  0  0  3  0  0  0  0  0  0
  -31.1290  -17.5580   21.0880 C   0  0  0  0  0  2  0  0  0  0  0  0
  -31.2410  -16.2330   21.8670 C   0  0  0  0  0  2  0  0  0  0  0  0
  -30.8240  -14.3960   20.2270 C   0  0  0  0  0  0  0  0  0  0  0  0
  -30.3920  -12.3310   18.9380 C   0  0  0  0  0  2  0  0  0  0  0  0
  -29.4030  -12.5630   17.7800 C   0  0  0  0  0  2  0  0  0  0  0  0
  -27.9500  -12.4200   18.2680 C   0  0  0  0  0  2  0  0  0  0  0  0
  -27.6710  -13.2510   19.5470 C   0  0  0  0  0  3  0  0  0  0  0  0
  -28.7580  -12.9970   20.6150 C   0  0  0  0  0  2  0  0  0  0  0  0
  -30.0750  -13.2810   20.0170 N   0  0  0  0  0  0  0  0  0  0  0  0
  -31.8170  -14.6800   19.5510 O   0  0  0  0  0  0  0  0  0  0  0  0
  -30.4610  -15.1420   21.2790 N   0  0  0  0  0  0  0  0  0  0  0  0
  -29.6410  -14.8420   21.7860 H   0  0  0  0  0  0  0  0  0  0  0  0
  -25.2980  -13.8770   20.3330 C   0  0  0  0  0  0  0  0  0  0  0  0
  -24.2380  -13.1130   20.7400 C   0  0  0  0  0  0  0  0  0  0  0  0
  -24.6890  -11.7580   20.6950 C   0  0  0  0  0  0  0  0  0  0  0  0
  -26.3300  -12.9890   20.0700 N   0  0  0  0  0  0  0  0  0  0  0  0
  -25.9670  -11.7080   20.3420 N   0  0  0  0  0  0  0  0  0  0  0  0
  -23.9620  -10.5000   20.9120 C   0  0  0  0  0  0  0  0  0  0  0  0
  -24.4080   -9.5400   21.8460 C   0  0  0  0  0  3  0  0  0  0  0  0
  -23.6820   -8.3470   22.0500 C   0  0  0  0  0  3  0  0  0  0  0  0
  -22.4940   -8.1060   21.3200 C   0  0  0  0  0  0  0  0  0  0  0  0
  -22.0660   -9.0540   20.3740 C   0  0  0  0  0  3  0  0  0  0  0  0
  -22.7940  -10.2380   20.1680 C   0  0  0  0  0  3  0  0  0  0  0  0
  -21.7400   -6.9640   21.4320 O   0  0  0  0  0  0  0  0  0  0  0  0
  -21.6950   -6.2410   22.5960 C   0  0  0  0  0  0  0  0  0  0  0  0
  -21.2910   -6.8200   23.8180 C   0  0  0  0  0  3  0  0  0  0  0  0
  -21.1960   -6.0250   24.9780 C   0  0  0  0  0  3  0  0  0  0  0  0
  -21.4920   -4.6510   24.9160 C   0  0  0  0  0  0  0  0  0  0  0  0
  -21.8880   -4.0700   23.6980 C   0  0  0  0  0  3  0  0  0  0  0  0
  -21.9870   -4.8630   22.5410 C   0  0  0  0  0  0  0  0  0  0  0  0
  -22.3490   -4.2940   21.3660 F   0  0  0  0  0  0  0  0  0  0  0  0
  -21.3930   -3.8840   26.0260 F   0  0  0  0  0  0  0  0  0  0  0  0
  -22.8540  -13.5990   21.0600 C   0  0  0  0  0  0  0  0  0  0  0  0
  -22.1520  -12.9070   21.9520 N   0  0  0  0  0  0  0  0  0  0  0  0
  -22.4040  -14.6270   20.5570 O   0  0  0  0  0  0  0  0  0  0  0  0
  -22.5290  -12.0750   22.3830 H   0  0  0  0  0  0  0  0  0  0  0  0
  -21.2240  -13.2120   22.2090 H   0  0  0  0  0  0  0  0  0  0  0  0
  -25.4660  -15.2460   20.1500 N   0  0  0  0  0  0  0  0  0  0  0  0
  -24.7090  -15.9090   20.2730 H   0  0  0  0  0  0  0  0  0  0  0  0
  -26.3220  -15.6810   19.8310 H   0  0  0  0  0  0  0  0  0  0  0  0
  -29.6240  -23.6730   20.0110 O   0  0  0  0  0  0  0  0  0  0  0  0
  -28.4010  -24.4140   20.0870 C   0  0  0  0  0  2  0  0  0  0  0  0
  -28.5950  -25.7380   19.3100 C   0  0  0  0  0  2  0  0  0  0  0  0
  -28.4130  -26.8990   20.1270 O   0  0  0  0  0  0  0  0  0  0  0  0
  -24.5700  -31.9760   23.2740 C   0  0  0  0  0  0  0  0  0  0  0  0
  -27.2010  -27.5550   20.1410 C   0  0  0  0  0  0  0  0  0  0  0  0
  -23.3470  -30.5720   21.6440 C   0  0  0  0  0  3  0  0  0  0  0  0
  -24.7870  -29.0280   20.2100 C   0  0  0  0  0  0  0  0  0  0  0  0
  -25.8670  -30.9330   21.4180 C   0  0  0  0  0  2  0  0  0  0  0  0
  -25.9470  -29.5620   20.7800 C   0  0  0  0  0  0  0  0  0  0  0  0
  -27.1530  -28.8290   20.7490 C   0  0  0  0  0  3  0  0  0  0  0  0
  -26.0110  -27.0210   19.5870 C   0  0  0  0  0  3  0  0  0  0  0  0
  -24.8090  -27.7550   19.6190 C   0  0  0  0  0  3  0  0  0  0  0  0
  -23.5410  -29.8830   20.2670 C   0  0  0  0  0  2  0  0  0  0  0  0
  -24.6130  -31.1750   22.1700 N   0  0  0  0  0  0  0  0  0  0  0  0
  -23.4950  -32.2530   23.8250 O   0  0  0  0  0  0  0  0  0  0  0  0
  -22.7070  -29.5540   22.6160 C   0  0  0  0  0  0  0  0  0  0  0  0
  -21.3840  -29.3510   22.4870 N   0  0  0  0  0  0  0  0  0  0  0  0
  -23.3950  -28.9490   23.4420 O   0  0  0  0  0  0  0  0  0  0  0  0
  -20.8890  -29.8960   21.7940 H   0  0  0  0  0  0  0  0  0  0  0  0
  -18.0350  -28.0850   22.9600 C   0  0  0  0  0  0  0  0  0  0  0  0
  -20.5810  -28.4070   23.2620 C   0  0  0  0  0  3  0  0  0  0  0  0
  -20.7250  -26.9690   22.7110 C   0  0  0  0  0  2  0  0  0  0  0  0
  -19.6460  -26.6020   21.6870 C   0  0  0  0  0  2  0  0  0  0  0  0
  -18.2510  -26.7270   22.3100 C   0  0  0  0  0  2  0  0  0  0  0  0
  -19.1300  -28.8790   23.3920 C   0  0  0  0  0  0  0  0  0  0  0  0
  -18.8750  -30.1460   23.9570 C   0  0  0  0  0  3  0  0  0  0  0  0
  -17.5590  -30.6240   24.0930 C   0  0  0  0  0  3  0  0  0  0  0  0
  -16.4780  -29.8280   23.6760 C   0  0  0  0  0  3  0  0  0  0  0  0
  -16.7160  -28.5590   23.1180 C   0  0  0  0  0  3  0  0  0  0  0  0
  -25.8640  -32.6020   23.8800 C   0  0  0  0  0  3  0  0  0  0  0  0
  -25.5640  -34.0050   24.2000 N   0  0  0  0  0  0  0  0  0  0  0  0
  -25.9060  -35.0520   23.4360 C   0  0  0  0  0  0  0  0  0  0  0  0
  -26.5780  -34.9370   22.4070 O   0  0  0  0  0  0  0  0  0  0  0  0
  -24.9570  -34.1720   24.9890 H   0  0  0  0  0  0  0  0  0  0  0  0
  -24.1850  -36.8530   23.0750 C   0  0  0  0  0  1  0  0  0  0  0  0
  -25.4250  -36.4440   23.8860 C   0  0  0  0  0  3  0  0  0  0  0  0
  -27.5670  -37.3190   24.7050 C   0  0  0  0  0  1  0  0  0  0  0  0
  -26.4610  -37.4930   23.7660 N   0  0  0  0  0  0  0  0  0  0  0  0
  -26.0600  -38.4160   23.9120 H   0  0  0  0  0  0  0  0  0  0  0  0
  -26.3940  -31.8360   25.1540 C   0  0  1  0  0  0  0  0  0  0  0  0
  -25.3110  -31.5970   26.2320 C   0  0  0  0  0  1  0  0  0  0  0  0
  -26.9720  -30.4570   24.7590 C   0  0  0  0  0  1  0  0  0  0  0  0
  -27.5560  -32.6310   25.7970 C   0  0  0  0  0  1  0  0  0  0  0  0
  1  2  1  0
  3  1  2  0
  4  6  2  0
  4  3  1  0
  5  7  1  0
  5  2  2  0
  6  5  1  0
  7  8  1  0
  9 10  1  0
 11  9  1  0
 11 10  1  0
 11  4  1  0
 12  7  1  0
 12 13  1  0
 14 22  1  0
 15 20  1  0
 16 17  1  0
 16 15  1  0
 18 17  1  0
 18 27  1  0
 18 19  1  0
 20 14  1  0
 20 19  1  0
 21 14  2  0
 22 23  1  0
 22 13  1  0
 24 25  2  0
 25 44  1  0
 26 25  1  0
 26 29  1  0
 27 24  1  0
 27 28  1  0
 28 26  2  0
 29 30  1  0
 30 31  2  0
 32 35  1  0
 32 31  1  0
 33 32  2  0
 34 33  1  0
 34 29  2  0
 35 36  1  0
 36 37  1  0
 37 38  2  0
 39 38  1  0
 39 43  1  0
 40 39  2  0
 41 36  2  0
 41 40  1  0
 42 41  1  0
 44 45  1  0
 45 48  1  0
 45 47  1  0
 46 44  2  0
 49 50  1  0
 49 24  1  0
 51 49  1  0
 52 53  1  0
 52  3  1  0
 54 53  1  0
 54 55  1  0
 55 57  1  0
 56 67  2  0
 57 62  1  0
 58 66  1  0
 58 68  1  0
 59 65  1  0
 59 61  1  0
 60 66  1  0
 61 60  1  0
 62 61  2  0
 63 64  1  0
 63 57  2  0
 64 59  2  0
 65 58  1  0
 66 56  1  0
 68 70  2  0
 69 68  1  0
 71 69  1  0
 72 81  2  0
 72 77  1  0
 73 69  1  0
 73 77  1  0
 74 73  1  0
 75 76  1  0
 75 74  1  0
 76 72  1  0
 77 78  2  0
 78 79  1  0
 80 79  2  0
 81 80  1  0
 82 56  1  0
 82 83  1  0
 82 92  1  0
 83 86  1  0
 84 88  1  0
 84 83  1  0
 85 84  2  0
 88 87  1  0
 90 88  1  0
 90 91  1  0
 90 89  1  0
 92 95  1  1
 92 93  1  0
 94 92  1  0
M  ISO  4  14 100  22 100  54 101  55 101
M  END
>  <TORSDO>  (65) 
F 22

>  <SCORE>  (65) 
-12.668

>  <name>  (65) 
64

>  <ligand_id>  (65) 
64

>  <original_smiles>  (65) 
[H]c1c(N([H])C([H])([H])C([H])([H])N([H])C(=O)N2C([H])([H])C([H])([H])C([H])([H])C([H])(n3nc(-c4c([H])c([H])c(Oc5c([H])c([H])c(F)c([H])c5F)c([H])c4[H])c(C(=O)N([H])[H])c3N([H])[H])C2([H])[H])nc(C2([H])C([H])([H])C2([H])[H])c(OC([H])([H])C([H])([H])Oc2c([H])c([H])c3c(c2[H])C([H])([H])N(C(=O)C([H])(N([H])C(=O)C([H])(N([H])C([H])([H])[H])C([H])([H])[H])C(C([H])([H])[H])(C([H])([H])[H])C([H])([H])[H])C([H])(C(=O)N([H])C2([H])c4c([H])c([H])c([H])c([H])c4C([H])([H])C([H])([H])C2([H])[H])C3([H])[H])c1[H]

>  <smiles>  (65) 
[H]c1c(N([H])C([H])([H])C([H])([H])N([H])C(=O)N2C([H])([H])C([H])([H])C([H])([H])C([H])(n3nc(-c4c([H])c([H])c(Oc5c([H])c([H])c(F)c([H])c5F)c([H])c4[H])c(C(=O)N([H])[H])c3N([H])[H])C2([H])[H])nc(C2([H])C([H])([H])C2([H])[H])c(OC([H])([H])C([H])([H])Oc2c([H])c([H])c3c(c2[H])C([H])([H])N(C(=O)C([H])(N([H])C(=O)C([H])(N([H])C([H])([H])[H])C([H])([H])[H])C(C([H])([H])[H])(C([H])([H])[H])C([H])([H])[H])C([H])(C(=O)N([H])C2([H])c4c([H])c([H])c([H])c([H])c4C([H])([H])C([H])([H])C2([H])[H])C3([H])[H])c1[H]

$$$$
65:0:0
     RDKit          3D

105115  0  0  1  0  0  0  0  0999 V2000
  -30.6490  -24.4430   20.9000 C   0  0  0  0  0  3  0  0  0  0  0  0
  -31.0810  -23.1230   20.6890 C   0  0  0  0  0  3  0  0  0  0  0  0
  -28.4500  -23.8690   20.0290 C   0  0  0  0  0  3  0  0  0  0  0  0
  -29.3290  -24.8220   20.5900 C   0  0  0  0  0  0  0  0  0  0  0  0
  -30.1990  -22.1580   20.1470 C   0  0  0  0  0  0  0  0  0  0  0  0
  -28.8860  -22.5400   19.7870 C   0  0  0  0  0  0  0  0  0  0  0  0
  -30.5700  -20.8170   19.9360 N   0  0  0  0  0  0  0  0  0  0  0  0
  -29.9410  -20.3160   19.3160 H   0  0  0  0  0  0  0  0  0  0  0  0
  -31.9790  -20.4220   19.9370 C   0  0  0  0  0  2  0  0  0  0  0  0
  -31.5990  -17.8590   20.0600 C   0  0  0  0  0  2  0  0  0  0  0  0
  -30.9890  -17.8810   22.3460 C   0  0  0  0  0  2  0  0  0  0  0  0
  -31.5120  -16.9210   21.2670 C   0  0  0  0  0  3  0  0  0  0  0  0
  -32.2260  -19.1080   20.7000 C   0  0  0  0  0  3  0  0  0  0  0  0
  -31.6920  -19.1560   22.0770 N   0  0  0  0  0  4  0  0  0  0  0  0
  -32.4480  -19.3030   22.7280 H   0  0  0  0  0  0  0  0  0  0  0  0
  -31.0660  -19.9470   22.1280 H   0  0  0  0  0  0  0  0  0  0  0  0
  -31.2140  -14.6760   20.2840 C   0  0  0  0  0  0  0  0  0  0  0  0
  -30.8630  -12.4290   19.3380 C   0  0  0  0  0  2  0  0  0  0  0  0
  -29.9560  -12.4880   18.0950 C   0  0  0  0  0  2  0  0  0  0  0  0
  -28.4770  -12.3870   18.5090 C   0  0  0  0  0  2  0  0  0  0  0  0
  -28.1090  -13.3840   19.6400 C   0  0  0  0  0  3  0  0  0  0  0  0
  -29.1340  -13.3280   20.7960 C   0  0  0  0  0  2  0  0  0  0  0  0
  -30.4810  -13.5310   20.2370 N   0  0  0  0  0  0  0  0  0  0  0  0
  -32.2670  -14.8140   19.6550 O   0  0  0  0  0  0  0  0  0  0  0  0
  -30.7530  -15.6740   21.0570 N   0  0  0  0  0  0  0  0  0  0  0  0
  -29.8880  -15.5320   21.5560 H   0  0  0  0  0  0  0  0  0  0  0  0
  -25.7300  -14.0830   20.3330 C   0  0  0  0  0  0  0  0  0  0  0  0
  -24.6360  -13.3550   20.7110 C   0  0  0  0  0  0  0  0  0  0  0  0
  -25.0470  -11.9870   20.7010 C   0  0  0  0  0  0  0  0  0  0  0  0
  -26.7440  -13.1630   20.1170 N   0  0  0  0  0  0  0  0  0  0  0  0
  -26.3350  -11.8970   20.3940 N   0  0  0  0  0  0  0  0  0  0  0  0
  -24.2770  -10.7550   20.9100 C   0  0  0  0  0  0  0  0  0  0  0  0
  -24.6770   -9.7820   21.8510 C   0  0  0  0  0  3  0  0  0  0  0  0
  -23.9080   -8.6140   22.0460 C   0  0  0  0  0  3  0  0  0  0  0  0
  -22.7240   -8.4110   21.2970 C   0  0  0  0  0  0  0  0  0  0  0  0
  -22.3430   -9.3720   20.3450 C   0  0  0  0  0  3  0  0  0  0  0  0
  -23.1130  -10.5300   20.1480 C   0  0  0  0  0  3  0  0  0  0  0  0
  -21.9270   -7.2970   21.4010 O   0  0  0  0  0  0  0  0  0  0  0  0
  -21.8350   -6.5840   22.5710 C   0  0  0  0  0  0  0  0  0  0  0  0
  -21.4070   -7.1830   23.7750 C   0  0  0  0  0  3  0  0  0  0  0  0
  -21.2570   -6.3990   24.9380 C   0  0  0  0  0  3  0  0  0  0  0  0
  -21.5290   -5.0190   24.8960 C   0  0  0  0  0  0  0  0  0  0  0  0
  -21.9490   -4.4190   23.6950 C   0  0  0  0  0  3  0  0  0  0  0  0
  -22.0990   -5.2000   22.5360 C   0  0  0  0  0  0  0  0  0  0  0  0
  -22.4850   -4.6140   21.3770 F   0  0  0  0  0  0  0  0  0  0  0  0
  -21.3780   -4.2640   26.0090 F   0  0  0  0  0  0  0  0  0  0  0  0
  -23.2550  -13.8860   20.9760 C   0  0  0  0  0  0  0  0  0  0  0  0
  -22.5110  -13.2420   21.8660 N   0  0  0  0  0  0  0  0  0  0  0  0
  -22.8490  -14.9090   20.4250 O   0  0  0  0  0  0  0  0  0  0  0  0
  -22.8510  -12.4130   22.3300 H   0  0  0  0  0  0  0  0  0  0  0  0
  -21.5840  -13.5790   22.0850 H   0  0  0  0  0  0  0  0  0  0  0  0
  -25.9440  -15.4460   20.1350 N   0  0  0  0  0  0  0  0  0  0  0  0
  -25.1830  -16.1150   20.1840 H   0  0  0  0  0  0  0  0  0  0  0  0
  -26.7980  -15.8340   19.7530 H   0  0  0  0  0  0  0  0  0  0  0  0
  -28.8750  -26.2510   20.8660 C   0  0  0  0  0  2  0  0  0  0  0  0
  -28.4910  -26.9160   19.6640 O   0  0  0  0  0  0  0  0  0  0  0  0
  -24.4960  -31.7090   23.1040 C   0  0  0  0  0  0  0  0  0  0  0  0
  -27.3190  -27.6260   19.7430 C   0  0  0  0  0  0  0  0  0  0  0  0
  -23.3420  -30.3700   21.3710 C   0  0  0  0  0  3  0  0  0  0  0  0
  -24.8600  -29.0040   19.8400 C   0  0  0  0  0  0  0  0  0  0  0  0
  -25.8410  -30.8660   21.1850 C   0  0  0  0  0  2  0  0  0  0  0  0
  -25.9920  -29.5430   20.4660 C   0  0  0  0  0  0  0  0  0  0  0  0
  -27.2260  -28.8590   20.4250 C   0  0  0  0  0  3  0  0  0  0  0  0
  -26.1810  -27.0990   19.1040 C   0  0  0  0  0  3  0  0  0  0  0  0
  -24.9480  -27.7800   19.1530 C   0  0  0  0  0  3  0  0  0  0  0  0
  -23.5730  -29.7940   19.9460 C   0  0  0  0  0  2  0  0  0  0  0  0
  -24.5790  -30.9930   21.9480 N   0  0  0  0  0  0  0  0  0  0  0  0
  -23.4070  -31.8930   23.6670 O   0  0  0  0  0  0  0  0  0  0  0  0
  -22.7460  -29.2550   22.2600 C   0  0  0  0  0  0  0  0  0  0  0  0
  -21.4260  -29.0360   22.1350 N   0  0  0  0  0  0  0  0  0  0  0  0
  -23.4630  -28.5940   23.0160 O   0  0  0  0  0  0  0  0  0  0  0  0
  -20.9100  -29.6260   21.4960 H   0  0  0  0  0  0  0  0  0  0  0  0
  -18.0980  -27.7050   22.5870 C   0  0  0  0  0  0  0  0  0  0  0  0
  -20.6520  -28.0150   22.8390 C   0  0  0  0  0  3  0  0  0  0  0  0
  -20.7860  -26.6400   22.1480 C   0  0  0  0  0  2  0  0  0  0  0  0
  -19.6760  -26.3660   21.1280 C   0  0  0  0  0  2  0  0  0  0  0  0
  -18.3010  -26.4190   21.8040 C   0  0  0  0  0  2  0  0  0  0  0  0
  -19.2030  -28.4630   23.0590 C   0  0  0  0  0  0  0  0  0  0  0  0
  -18.9610  -29.6700   23.7510 C   0  0  0  0  0  3  0  0  0  0  0  0
  -17.6480  -30.1210   23.9740 C   0  0  0  0  0  3  0  0  0  0  0  0
  -16.5560  -29.3570   23.5210 C   0  0  0  0  0  3  0  0  0  0  0  0
  -16.7830  -28.1510   22.8330 C   0  0  0  0  0  3  0  0  0  0  0  0
  -25.7570  -32.3500   23.7630 C   0  0  0  0  0  3  0  0  0  0  0  0
  -25.4220  -33.7400   24.0940 N   0  0  0  0  0  0  0  0  0  0  0  0
  -25.7500  -34.8000   23.3440 C   0  0  0  0  0  0  0  0  0  0  0  0
  -26.4390  -34.7090   22.3240 O   0  0  0  0  0  0  0  0  0  0  0  0
  -24.8100  -33.8800   24.8860 H   0  0  0  0  0  0  0  0  0  0  0  0
  -23.9840  -36.5520   22.9820 C   0  0  0  0  0  1  0  0  0  0  0  0
  -25.2320  -36.1780   23.7960 C   0  0  0  0  0  3  0  0  0  0  0  0
  -27.3460  -37.1080   24.6290 C   0  0  0  0  0  1  0  0  0  0  0  0
  -26.2420  -37.2520   23.6830 N   0  0  0  0  0  0  0  0  0  0  0  0
  -25.8180  -38.1630   23.8310 H   0  0  0  0  0  0  0  0  0  0  0  0
  -26.2500  -31.5730   25.0440 C   0  0  1  0  0  0  0  0  0  0  0  0
  -25.1320  -31.3170   26.0830 C   0  0  0  0  0  1  0  0  0  0  0  0
  -26.8570  -30.2070   24.6480 C   0  0  0  0  0  1  0  0  0  0  0  0
  -27.3780  -32.3700   25.7400 C   0  0  0  0  0  1  0  0  0  0  0  0
  -28.0780  -21.5510   19.2630 O   0  0  0  0  0  0  0  0  0  0  0  0
  -26.1490  -21.0000   17.9100 C   0  0  0  0  0  2  0  0  0  0  0  0
  -28.4780  -21.0640   16.9570 C   0  0  0  0  0  2  0  0  0  0  0  0
  -26.3090  -19.4830   18.1270 C   0  0  0  0  0  2  0  0  0  0  0  0
  -28.5750  -19.5330   17.1400 C   0  0  0  0  0  2  0  0  0  0  0  0
  -27.5110  -21.7120   17.9640 C   0  0  0  0  0  3  0  0  0  0  0  0
  -27.2420  -18.8920   17.1410 N   0  0  0  0  0  4  0  0  0  0  0  0
  -26.8410  -18.9510   16.2190 H   0  0  0  0  0  0  0  0  0  0  0  0
  -27.3550  -17.9120   17.3470 H   0  0  0  0  0  0  0  0  0  0  0  0
  2  1  1  0
  3  4  1  0
  4 55  1  0
  4  1  2  0
  5  2  2  0
  6  3  2  0
  6  5  1  0
  7  9  1  0
  7  5  1  0
  8  7  1  0
 10 13  1  0
 10 12  1  0
 12 25  1  0
 12 11  1  0
 13  9  1  0
 13 14  1  0
 14 16  1  0
 14 11  1  0
 14 15  1  0
 17 25  1  0
 18 23  1  0
 19 20  1  0
 19 18  1  0
 21 20  1  0
 21 30  1  0
 21 22  1  0
 23 17  1  0
 23 22  1  0
 24 17  2  0
 25 26  1  0
 27 28  2  0
 28 47  1  0
 29 28  1  0
 29 32  1  0
 30 27  1  0
 30 31  1  0
 31 29  2  0
 32 33  1  0
 33 34  2  0
 35 38  1  0
 35 34  1  0
 36 35  2  0
 37 36  1  0
 37 32  2  0
 38 39  1  0
 39 40  1  0
 40 41  2  0
 42 41  1  0
 42 46  1  0
 43 42  2  0
 44 39  2  0
 44 43  1  0
 45 44  1  0
 47 48  1  0
 48 51  1  0
 48 50  1  0
 49 47  2  0
 52 53  1  0
 52 27  1  0
 54 52  1  0
 56 58  1  0
 56 55  1  0
 57 68  2  0
 58 63  1  0
 59 67  1  0
 59 69  1  0
 60 66  1  0
 60 62  1  0
 61 67  1  0
 62 61  1  0
 63 62  2  0
 64 65  1  0
 64 58  2  0
 65 60  2  0
 66 59  1  0
 67 57  1  0
 69 71  2  0
 70 69  1  0
 72 70  1  0
 73 82  2  0
 73 78  1  0
 74 70  1  0
 74 78  1  0
 75 74  1  0
 76 77  1  0
 76 75  1  0
 77 73  1  0
 78 79  2  0
 79 80  1  0
 81 80  2  0
 82 81  1  0
 83 57  1  0
 83 84  1  0
 83 93  1  0
 84 87  1  0
 85 89  1  0
 85 84  1  0
 86 85  2  0
 89 88  1  0
 91 89  1  0
 91 92  1  0
 91 90  1  0
 93 96  1  1
 93 94  1  0
 95 93  1  0
 97  6  1  0
 98102  1  0
 98100  1  0
 99101  1  0
 99102  1  0
101103  1  0
102 97  1  0
103105  1  0
103100  1  0
104103  1  0
M  ISO  4  17 100  25 100  55 101  56 101
M  END
>  <TORSDO>  (66) 
F 22

>  <SCORE>  (66) 
-12.437

>  <name>  (66) 
65

>  <ligand_id>  (66) 
65

>  <original_smiles>  (66) 
[H]c1c([H])c([H])c2c(c1[H])C([H])([H])C([H])([H])C([H])([H])C2([H])N([H])C(=O)C1([H])N(C(=O)C([H])(N([H])C(=O)C([H])(N([H])C([H])([H])[H])C([H])([H])[H])C(C([H])([H])[H])(C([H])([H])[H])C([H])([H])[H])C([H])([H])c2c([H])c(OC([H])([H])c3c([H])c([H])c(N([H])C([H])([H])C4([H])C([H])([H])C([H])(N([H])C(=O)N5C([H])([H])C([H])([H])C([H])([H])C([H])(n6nc(-c7c([H])c([H])c(Oc8c([H])c([H])c(F)c([H])c8F)c([H])c7[H])c(C(=O)N([H])[H])c6N([H])[H])C5([H])[H])C([H])([H])[N+]4([H])[H])c(OC4([H])C([H])([H])C([H])([H])[N+]([H])([H])C([H])([H])C4([H])[H])c3[H])c([H])c([H])c2C1([H])[H]

>  <smiles>  (66) 
[H]c1c([H])c([H])c2c(c1[H])C([H])([H])C([H])([H])C([H])([H])C2([H])N([H])C(=O)C1([H])N(C(=O)C([H])(N([H])C(=O)C([H])(N([H])C([H])([H])[H])C([H])([H])[H])C(C([H])([H])[H])(C([H])([H])[H])C([H])([H])[H])C([H])([H])c2c([H])c(OC([H])([H])c3c([H])c([H])c(N([H])C([H])([H])C4([H])C([H])([H])C([H])(N([H])C(=O)N5C([H])([H])C([H])([H])C([H])([H])C([H])(n6nc(-c7c([H])c([H])c(Oc8c([H])c([H])c(F)c([H])c8F)c([H])c7[H])c(C(=O)N([H])[H])c6N([H])[H])C5([H])[H])C([H])([H])[N+]4([H])[H])c(OC4([H])C([H])([H])C([H])([H])[N+]([H])([H])C([H])([H])C4([H])[H])c3[H])c([H])c([H])c2C1([H])[H]

$$$$
66:0:0
     RDKit          3D

 92100  0  0  1  0  0  0  0  0999 V2000
  -28.5210  -23.2660   19.6070 C   0  0  0  0  0  2  0  0  0  0  0  0
  -28.8060  -23.0040   22.0640 C   0  0  0  0  0  2  0  0  0  0  0  0
  -29.2750  -21.9130   19.4050 C   0  0  0  0  0  2  0  0  0  0  0  0
  -29.4960  -21.6180   21.8660 C   0  0  0  0  0  2  0  0  0  0  0  0
  -28.9320  -24.0310   20.8900 C   0  0  0  0  0  3  0  0  0  0  0  0
  -29.1030  -20.8810   20.5600 C   0  0  0  0  0  3  0  0  0  0  0  0
  -29.9200  -19.6310   20.3190 N   0  0  0  0  0  4  0  0  0  0  0  0
  -30.8490  -19.7770   20.6760 H   0  0  0  0  0  0  0  0  0  0  0  0
  -30.0060  -19.5460   19.3190 H   0  0  0  0  0  0  0  0  0  0  0  0
  -29.4180  -18.2930   20.7980 C   0  0  0  0  0  2  0  0  0  0  0  0
  -30.3560  -17.0880   20.3890 C   0  0  0  0  0  2  0  0  0  0  0  0
  -30.6240  -14.5770   20.3680 C   0  0  0  0  0  0  0  0  0  0  0  0
  -30.3310  -12.3630   19.3090 C   0  0  0  0  0  2  0  0  0  0  0  0
  -29.3940  -12.5140   18.0910 C   0  0  0  0  0  2  0  0  0  0  0  0
  -27.9200  -12.3870   18.5250 C   0  0  0  0  0  2  0  0  0  0  0  0
  -27.5770  -13.2480   19.7700 C   0  0  0  0  0  3  0  0  0  0  0  0
  -28.6370  -13.0970   20.8840 C   0  0  0  0  0  2  0  0  0  0  0  0
  -29.9500  -13.3910   20.2940 N   0  0  0  0  0  0  0  0  0  0  0  0
  -31.7830  -14.6910   19.9620 O   0  0  0  0  0  0  0  0  0  0  0  0
  -29.9030  -15.6910   20.6800 N   0  0  0  0  0  0  0  0  0  0  0  0
  -28.9480  -15.5540   20.9750 H   0  0  0  0  0  0  0  0  0  0  0  0
  -25.1940  -13.8510   20.5130 C   0  0  0  0  0  0  0  0  0  0  0  0
  -24.1300  -13.0810   20.8930 C   0  0  0  0  0  0  0  0  0  0  0  0
  -24.5890  -11.7280   20.8570 C   0  0  0  0  0  0  0  0  0  0  0  0
  -26.2330  -12.9690   20.2650 N   0  0  0  0  0  0  0  0  0  0  0  0
  -25.8740  -11.6870   20.5330 N   0  0  0  0  0  0  0  0  0  0  0  0
  -23.8610  -10.4680   21.0540 C   0  0  0  0  0  0  0  0  0  0  0  0
  -24.3090   -9.4910   21.9690 C   0  0  0  0  0  3  0  0  0  0  0  0
  -23.5820   -8.2960   22.1530 C   0  0  0  0  0  3  0  0  0  0  0  0
  -22.3920   -8.0680   21.4210 C   0  0  0  0  0  0  0  0  0  0  0  0
  -21.9640   -9.0330   20.4910 C   0  0  0  0  0  3  0  0  0  0  0  0
  -22.6930  -10.2200   20.3060 C   0  0  0  0  0  3  0  0  0  0  0  0
  -21.6330   -6.9280   21.5160 O   0  0  0  0  0  0  0  0  0  0  0  0
  -21.6150   -6.1670   22.6580 C   0  0  0  0  0  0  0  0  0  0  0  0
  -21.2410   -6.7080   23.9080 C   0  0  0  0  0  3  0  0  0  0  0  0
  -21.1710   -5.8760   25.0420 C   0  0  0  0  0  3  0  0  0  0  0  0
  -21.4630   -4.5030   24.9290 C   0  0  0  0  0  0  0  0  0  0  0  0
  -21.8310   -3.9630   23.6850 C   0  0  0  0  0  3  0  0  0  0  0  0
  -21.9030   -4.7920   22.5520 C   0  0  0  0  0  0  0  0  0  0  0  0
  -22.2390   -4.2620   21.3520 F   0  0  0  0  0  0  0  0  0  0  0  0
  -21.3880   -3.7010   26.0170 F   0  0  0  0  0  0  0  0  0  0  0  0
  -22.7380  -13.5600   21.1800 C   0  0  0  0  0  0  0  0  0  0  0  0
  -22.0200  -12.8620   22.0520 N   0  0  0  0  0  0  0  0  0  0  0  0
  -22.2970  -14.5880   20.6660 O   0  0  0  0  0  0  0  0  0  0  0  0
  -22.3900  -12.0260   22.4810 H   0  0  0  0  0  0  0  0  0  0  0  0
  -21.0850  -13.1610   22.2930 H   0  0  0  0  0  0  0  0  0  0  0  0
  -25.3620  -15.2220   20.3340 N   0  0  0  0  0  0  0  0  0  0  0  0
  -24.5920  -15.8750   20.4340 H   0  0  0  0  0  0  0  0  0  0  0  0
  -26.1960  -15.6490   19.9570 H   0  0  0  0  0  0  0  0  0  0  0  0
  -28.2380  -25.8420   22.6050 C   0  0  0  0  0  1  0  0  0  0  0  0
  -28.0900  -25.3570   21.1430 C   0  0  0  0  0  3  0  0  0  0  0  0
  -28.3410  -26.5160   20.2730 O   0  0  0  0  0  0  0  0  0  0  0  0
  -24.6200  -31.8630   23.2070 C   0  0  0  0  0  0  0  0  0  0  0  0
  -27.2490  -27.3710   20.1590 C   0  0  0  0  0  0  0  0  0  0  0  0
  -23.4140  -30.4550   21.5720 C   0  0  0  0  0  3  0  0  0  0  0  0
  -24.8710  -28.9220   20.1330 C   0  0  0  0  0  0  0  0  0  0  0  0
  -25.9420  -30.8090   21.3680 C   0  0  0  0  0  2  0  0  0  0  0  0
  -26.0310  -29.4370   20.7260 C   0  0  0  0  0  0  0  0  0  0  0  0
  -27.2290  -28.6710   20.7310 C   0  0  0  0  0  3  0  0  0  0  0  0
  -26.0830  -26.9020   19.5180 C   0  0  0  0  0  3  0  0  0  0  0  0
  -24.8980  -27.6610   19.5150 C   0  0  0  0  0  3  0  0  0  0  0  0
  -23.6170  -29.7710   20.1930 C   0  0  0  0  0  2  0  0  0  0  0  0
  -24.6770  -31.0610   22.1070 N   0  0  0  0  0  0  0  0  0  0  0  0
  -23.5410  -32.1390   23.7490 O   0  0  0  0  0  0  0  0  0  0  0  0
  -22.7620  -29.4410   22.5390 C   0  0  0  0  0  0  0  0  0  0  0  0
  -21.4350  -29.2640   22.4200 N   0  0  0  0  0  0  0  0  0  0  0  0
  -23.4480  -28.8110   23.3480 O   0  0  0  0  0  0  0  0  0  0  0  0
  -20.9440  -29.8220   21.7340 H   0  0  0  0  0  0  0  0  0  0  0  0
  -18.0610  -28.0810   22.9430 C   0  0  0  0  0  0  0  0  0  0  0  0
  -20.6220  -28.3290   23.1950 C   0  0  0  0  0  3  0  0  0  0  0  0
  -20.7150  -26.8990   22.6140 C   0  0  0  0  0  2  0  0  0  0  0  0
  -19.6050  -26.5840   21.6070 C   0  0  0  0  0  2  0  0  0  0  0  0
  -18.2270  -26.7350   22.2580 C   0  0  0  0  0  2  0  0  0  0  0  0
  -19.1860  -28.8380   23.3660 C   0  0  0  0  0  0  0  0  0  0  0  0
  -18.9760  -30.1020   23.9590 C   0  0  0  0  0  3  0  0  0  0  0  0
  -17.6730  -30.6040   24.1380 C   0  0  0  0  0  3  0  0  0  0  0  0
  -16.5640  -29.8450   23.7360 C   0  0  0  0  0  3  0  0  0  0  0  0
  -16.7590  -28.5840   23.1430 C   0  0  0  0  0  3  0  0  0  0  0  0
  -25.9070  -32.4960   23.8250 C   0  0  0  0  0  3  0  0  0  0  0  0
  -26.4410  -31.7170   25.0900 C   0  0  1  0  0  0  0  0  0  0  0  0
  -25.3570  -31.4650   26.1650 C   0  0  0  0  0  1  0  0  0  0  0  0
  -27.0300  -30.3460   24.6830 C   0  0  0  0  0  1  0  0  0  0  0  0
  -27.5940  -32.5140   25.7470 C   0  0  0  0  0  1  0  0  0  0  0  0
  -25.5960  -33.8900   24.1680 N   0  0  0  0  0  0  0  0  0  0  0  0
  -25.9140  -34.9490   23.4130 C   0  0  0  0  0  0  0  0  0  0  0  0
  -26.5740  -34.8560   22.3740 O   0  0  0  0  0  0  0  0  0  0  0  0
  -25.0180  -34.0370   24.9830 H   0  0  0  0  0  0  0  0  0  0  0  0
  -24.1750  -36.7370   23.0840 C   0  0  0  0  0  1  0  0  0  0  0  0
  -25.4230  -36.3320   23.8840 C   0  0  0  0  0  3  0  0  0  0  0  0
  -27.5620  -37.2210   24.6990 C   0  0  0  0  0  1  0  0  0  0  0  0
  -26.4490  -37.3910   23.7690 N   0  0  0  0  0  0  0  0  0  0  0  0
  -26.0390  -38.3070   23.9280 H   0  0  0  0  0  0  0  0  0  0  0  0
  1  5  1  0
  3  1  1  0
  3  6  1  0
  4  2  1  0
  5 51  1  0
  5  2  1  0
  6  7  1  0
  6  4  1  0
  7  8  1  0
  7 10  1  0
  9  7  1  0
 11 20  1  0
 11 10  1  0
 12 20  1  0
 13 18  1  0
 14 15  1  0
 14 13  1  0
 16 15  1  0
 16 25  1  0
 16 17  1  0
 18 12  1  0
 18 17  1  0
 19 12  2  0
 20 21  1  0
 22 23  2  0
 23 42  1  0
 24 23  1  0
 24 27  1  0
 25 22  1  0
 25 26  1  0
 26 24  2  0
 27 28  1  0
 28 29  2  0
 30 33  1  0
 30 29  1  0
 31 30  2  0
 32 31  1  0
 32 27  2  0
 33 34  1  0
 34 35  1  0
 35 36  2  0
 37 36  1  0
 37 41  1  0
 38 37  2  0
 39 34  2  0
 39 38  1  0
 40 39  1  0
 42 43  1  0
 43 46  1  0
 43 45  1  0
 44 42  2  0
 47 48  1  0
 47 22  1  0
 49 47  1  0
 51 50  1  0
 52 51  1  0
 53 64  2  0
 54 52  1  0
 54 59  1  0
 55 63  1  0
 55 65  1  0
 56 62  1  0
 56 58  1  0
 57 63  1  0
 58 59  2  0
 58 57  1  0
 60 54  2  0
 61 60  1  0
 61 56  2  0
 62 55  1  0
 63 53  1  0
 65 67  2  0
 66 65  1  0
 68 66  1  0
 69 78  2  0
 69 74  1  0
 70 66  1  0
 70 74  1  0
 71 70  1  0
 72 73  1  0
 72 71  1  0
 73 69  1  0
 74 75  2  0
 75 76  1  0
 77 76  2  0
 78 77  1  0
 79 53  1  0
 79 84  1  0
 79 80  1  0
 80 83  1  1
 80 81  1  0
 82 80  1  0
 84 87  1  0
 85 89  1  0
 85 84  1  0
 86 85  2  0
 89 88  1  0
 91 89  1  0
 91 92  1  0
 91 90  1  0
M  ISO  4  12 100  20 100  51 101  52 101
M  END
>  <TORSDO>  (67) 
F 20

>  <SCORE>  (67) 
-13.867

>  <name>  (67) 
66

>  <ligand_id>  (67) 
66

>  <original_smiles>  (67) 
[H]c1c([H])c([H])c2c(c1[H])C([H])([H])C([H])([H])C([H])([H])C2([H])N([H])C(=O)C1([H])N(C(=O)C([H])(N([H])C(=O)C([H])(N([H])C([H])([H])[H])C([H])([H])[H])C(C([H])([H])[H])(C([H])([H])[H])C([H])([H])[H])C([H])([H])c2c([H])c(OC([H])(C([H])([H])[H])C3([H])C([H])([H])C([H])([H])C([H])([N+]([H])([H])C([H])([H])C([H])([H])N([H])C(=O)N4C([H])([H])C([H])([H])C([H])([H])C([H])(n5nc(-c6c([H])c([H])c(Oc7c([H])c([H])c(F)c([H])c7F)c([H])c6[H])c(C(=O)N([H])[H])c5N([H])[H])C4([H])[H])C([H])([H])C3([H])[H])c([H])c([H])c2C1([H])[H]

>  <smiles>  (67) 
[H]c1c([H])c([H])c2c(c1[H])C([H])([H])C([H])([H])C([H])([H])C2([H])N([H])C(=O)C1([H])N(C(=O)C([H])(N([H])C(=O)C([H])(N([H])C([H])([H])[H])C([H])([H])[H])C(C([H])([H])[H])(C([H])([H])[H])C([H])([H])[H])C([H])([H])c2c([H])c(OC([H])(C([H])([H])[H])C3([H])C([H])([H])C([H])([H])C([H])([N+]([H])([H])C([H])([H])C([H])([H])N([H])C(=O)N4C([H])([H])C([H])([H])C([H])([H])C([H])(n5nc(-c6c([H])c([H])c(Oc7c([H])c([H])c(F)c([H])c7F)c([H])c6[H])c(C(=O)N([H])[H])c5N([H])[H])C4([H])[H])C([H])([H])C3([H])[H])c([H])c([H])c2C1([H])[H]

$$$$
67:0:0
     RDKit          3D

 92100  0  0  1  0  0  0  0  0999 V2000
  -26.0210  -26.5920   21.4210 C   0  0  0  0  0  1  0  0  0  0  0  0
  -26.1310  -24.7420   21.4350 C   0  0  0  0  0  2  0  0  0  0  0  0
  -26.0550  -24.3520   18.4290 C   0  0  0  0  0  2  0  0  0  0  0  0
  -25.8510  -27.3770   18.8560 C   0  0  2  0  0  0  0  0  0  0  0  0
  -25.9890  -26.0260   17.8360 C   0  0  0  0  0  3  0  0  0  0  0  0
  -26.3620  -23.6620   20.0140 C   0  0  0  0  0  0  0  0  0  0  0  0
  -25.9070  -28.6520   17.9800 C   0  0  0  0  0  2  0  0  0  0  0  0
  -26.8880  -28.1730   16.9120 C   0  0  0  0  0  2  0  0  0  0  0  0
  -27.3630  -26.8160   17.4710 C   0  0  0  0  0  3  0  0  0  0  0  0
  -27.2420  -22.2160   20.2020 N   0  0  0  0  0  4  0  0  0  0  0  0
  -27.4830  -22.1990   21.1910 H   0  0  0  0  0  0  0  0  0  0  0  0
  -27.9120  -20.6360   19.5900 C   0  0  0  0  0  1  0  0  0  0  0  0
  -29.1360  -19.0620   20.1140 C   0  0  0  0  0  1  0  0  0  0  0  0
  -30.4020  -15.9120   20.0780 C   0  0  0  0  0  0  0  0  0  0  0  0
  -30.8390  -13.2860   19.4460 C   0  0  0  0  0  2  0  0  0  0  0  0
  -30.0060  -12.6610   18.2850 C   0  0  0  0  0  2  0  0  0  0  0  0
  -28.5950  -12.2750   18.7570 C   0  0  0  0  0  2  0  0  0  0  0  0
  -28.0320  -13.3480   19.7130 C   0  0  0  0  0  3  0  0  0  0  0  0
  -29.0100  -13.7690   20.8150 C   0  0  0  0  0  2  0  0  0  0  0  0
  -30.0810  -14.4690   20.0950 N   0  0  0  0  0  0  0  0  0  0  0  0
  -31.6580  -15.9280   19.9930 O   0  0  0  0  0  0  0  0  0  0  0  0
  -29.4220  -17.2100   20.0020 N   0  0  0  0  0  0  0  0  0  0  0  0
  -28.4990  -16.8050   19.9490 H   0  0  0  0  0  0  0  0  0  0  0  0
  -25.7490  -13.9560   20.5810 C   0  0  0  0  0  0  0  0  0  0  0  0
  -24.6690  -13.2100   20.9490 C   0  0  0  0  0  0  0  0  0  0  0  0
  -25.0780  -11.8450   20.8430 C   0  0  0  0  0  0  0  0  0  0  0  0
  -26.7320  -13.0450   20.2540 N   0  0  0  0  0  0  0  0  0  0  0  0
  -26.3550  -11.7650   20.4860 N   0  0  0  0  0  0  0  0  0  0  0  0
  -24.3040  -10.6090   20.9910 C   0  0  0  0  0  0  0  0  0  0  0  0
  -24.6590   -9.6210   21.9360 C   0  0  0  0  0  3  0  0  0  0  0  0
  -23.8810   -8.4520   22.0720 C   0  0  0  0  0  3  0  0  0  0  0  0
  -22.7360   -8.2640   21.2630 C   0  0  0  0  0  0  0  0  0  0  0  0
  -22.4010   -9.2400   20.3090 C   0  0  0  0  0  3  0  0  0  0  0  0
  -23.1800  -10.4000   20.1700 C   0  0  0  0  0  3  0  0  0  0  0  0
  -21.9330   -7.1510   21.3100 O   0  0  0  0  0  0  0  0  0  0  0  0
  -21.7200   -6.4680   22.4810 C   0  0  0  0  0  0  0  0  0  0  0  0
  -21.1290   -7.0840   23.6060 C   0  0  0  0  0  3  0  0  0  0  0  0
  -20.8630   -6.3260   24.7630 C   0  0  0  0  0  3  0  0  0  0  0  0
  -21.1800   -4.9550   24.7960 C   0  0  0  0  0  0  0  0  0  0  0  0
  -21.7640   -4.3390   23.6760 C   0  0  0  0  0  3  0  0  0  0  0  0
  -22.0310   -5.0940   22.5200 C   0  0  0  0  0  0  0  0  0  0  0  0
  -22.5750   -4.4920   21.4350 F   0  0  0  0  0  0  0  0  0  0  0  0
  -20.9180   -4.2260   25.9060 F   0  0  0  0  0  0  0  0  0  0  0  0
  -23.3040  -13.7380   21.2650 C   0  0  0  0  0  0  0  0  0  0  0  0
  -22.5640  -13.0470   22.1220 N   0  0  0  0  0  0  0  0  0  0  0  0
  -22.9070  -14.8010   20.7880 O   0  0  0  0  0  0  0  0  0  0  0  0
  -22.8990  -12.1860   22.5280 H   0  0  0  0  0  0  0  0  0  0  0  0
  -21.6450  -13.3820   22.3760 H   0  0  0  0  0  0  0  0  0  0  0  0
  -25.9690  -15.3250   20.4550 N   0  0  0  0  0  0  0  0  0  0  0  0
  -25.2160  -15.9930   20.5850 H   0  0  0  0  0  0  0  0  0  0  0  0
  -26.7590  -15.7130   19.9620 H   0  0  0  0  0  0  0  0  0  0  0  0
  -28.2950  -27.2750   18.6820 O   0  0  0  0  0  0  0  0  0  0  0  0
  -24.7000  -32.0690   23.1830 C   0  0  0  0  0  0  0  0  0  0  0  0
  -27.8420  -27.4160   20.0060 C   0  0  0  0  0  3  0  0  0  0  0  0
  -23.2490  -30.6360   21.6540 C   0  0  0  0  0  3  0  0  0  0  0  0
  -24.2960  -28.5060   20.3210 C   0  0  0  0  0  3  0  0  0  0  0  0
  -25.6630  -30.8810   21.1650 C   0  0  0  0  0  2  0  0  0  0  0  0
  -25.7020  -29.3950   20.6960 C   0  0  0  0  0  0  0  0  0  0  0  0
  -27.2670  -28.8710   20.5580 C   0  0  0  0  0  3  0  0  0  0  0  0
  -26.9100  -26.1660   19.7060 C   0  0  0  0  0  2  0  0  0  0  0  0
  -24.4260  -26.6870   19.7530 C   0  0  0  0  0  2  0  0  0  0  0  0
  -23.2130  -29.6380   20.3800 C   0  0  0  0  0  2  0  0  0  0  0  0
  -24.5680  -31.2390   22.0720 N   0  0  0  0  0  0  0  0  0  0  0  0
  -23.7060  -32.4170   23.8390 O   0  0  0  0  0  0  0  0  0  0  0  0
  -22.6370  -29.8150   22.7750 C   0  0  0  0  0  0  0  0  0  0  0  0
  -21.3360  -29.5490   22.6420 N   0  0  0  0  0  0  0  0  0  0  0  0
  -23.3470  -29.3490   23.6680 O   0  0  0  0  0  0  0  0  0  0  0  0
  -20.8310  -29.9750   21.8770 H   0  0  0  0  0  0  0  0  0  0  0  0
  -18.1620  -27.9190   22.9690 C   0  0  0  0  0  0  0  0  0  0  0  0
  -20.6020  -28.5880   23.4450 C   0  0  0  0  0  3  0  0  0  0  0  0
  -20.9780  -27.1440   23.0390 C   0  0  0  0  0  2  0  0  0  0  0  0
  -20.0520  -26.5610   21.9690 C   0  0  0  0  0  2  0  0  0  0  0  0
  -18.6030  -26.5520   22.4700 C   0  0  0  0  0  2  0  0  0  0  0  0
  -19.1050  -28.8830   23.4060 C   0  0  0  0  0  0  0  0  0  0  0  0
  -18.6530  -30.1550   23.8160 C   0  0  0  0  0  3  0  0  0  0  0  0
  -17.2820  -30.4680   23.8050 C   0  0  0  0  0  3  0  0  0  0  0  0
  -16.3470  -29.5010   23.3940 C   0  0  0  0  0  3  0  0  0  0  0  0
  -16.7870  -28.2310   22.9800 C   0  0  0  0  0  3  0  0  0  0  0  0
  -26.0770  -32.6370   23.7100 C   0  0  0  0  0  3  0  0  0  0  0  0
  -26.7080  -31.8000   24.9000 C   0  0  1  0  0  0  0  0  0  0  0  0
  -25.7380  -31.5650   26.0830 C   0  0  0  0  0  1  0  0  0  0  0  0
  -27.1740  -30.4220   24.3820 C   0  0  0  0  0  1  0  0  0  0  0  0
  -27.9640  -32.5090   25.4690 C   0  0  0  0  0  1  0  0  0  0  0  0
  -25.8780  -34.0320   24.1610 N   0  0  0  0  0  0  0  0  0  0  0  0
  -26.1850  -35.1320   23.4550 C   0  0  0  0  0  0  0  0  0  0  0  0
  -26.7150  -35.0770   22.3440 O   0  0  0  0  0  0  0  0  0  0  0  0
  -25.3870  -34.1510   25.0350 H   0  0  0  0  0  0  0  0  0  0  0  0
  -24.4840  -36.9910   23.5220 C   0  0  0  0  0  1  0  0  0  0  0  0
  -25.8390  -36.5080   24.0660 C   0  0  0  0  0  3  0  0  0  0  0  0
  -28.1070  -37.3260   24.5490 C   0  0  0  0  0  1  0  0  0  0  0  0
  -26.8630  -37.5470   23.8160 N   0  0  0  0  0  0  0  0  0  0  0  0
  -26.5100  -38.4680   24.0620 H   0  0  0  0  0  0  0  0  0  0  0  0
  1  2  1  0
  3  6  1  0
  4  7  1  6
  4 60  1  0
  4 61  1  0
  5  3  1  0
  5  4  1  0
  6 10  2  0
  6  2  1  0
  8  7  1  0
  9  8  1  0
  9  5  1  0
  9 52  1  0
 10 11  1  0
 12 10  1  0
 14 20  1  0
 15 20  1  0
 16 17  1  0
 16 15  1  0
 18 17  1  0
 18 27  1  0
 18 19  1  0
 20 19  1  0
 21 14  2  0
 22 14  1  0
 22 13  1  0
 23 22  1  0
 24 25  2  0
 25 44  1  0
 26 25  1  0
 26 29  1  0
 27 28  1  0
 27 24  1  0
 28 26  2  0
 29 30  1  0
 30 31  2  0
 32 35  1  0
 32 31  1  0
 33 32  2  0
 34 33  1  0
 34 29  2  0
 35 36  1  0
 36 41  2  0
 36 37  1  0
 37 38  2  0
 38 39  1  0
 39 43  1  0
 40 39  2  0
 41 40  1  0
 42 41  1  0
 44 45  1  0
 45 48  1  0
 45 47  1  0
 46 44  2  0
 49 24  1  0
 49 50  1  0
 51 49  1  0
 52 54  1  0
 53 64  2  0
 54 60  1  0
 54 59  1  0
 55 63  1  0
 55 65  1  0
 56 61  1  0
 56 62  1  0
 56 58  1  0
 57 63  1  0
 58 57  1  0
 59 58  2  0
 62 55  1  0
 63 53  1  0
 65 67  2  0
 66 65  1  0
 68 66  1  0
 69 78  2  0
 69 74  1  0
 70 66  1  0
 71 70  1  0
 72 73  1  0
 72 71  1  0
 73 69  1  0
 74 70  1  0
 74 75  2  0
 76 75  1  0
 77 76  2  0
 78 77  1  0
 79 53  1  0
 79 84  1  0
 79 80  1  0
 80 83  1  1
 80 81  1  0
 82 80  1  0
 84 87  1  0
 85 89  1  0
 85 84  1  0
 86 85  2  0
 89 88  1  0
 91 92  1  0
 91 89  1  0
 91 90  1  0
M  ISO  4   9 101  14 100  22 100  52 101
M  END
>  <TORSDO>  (68) 
F 19

>  <SCORE>  (68) 
-14.915

>  <name>  (68) 
67

>  <ligand_id>  (68) 
67

>  <original_smiles>  (68) 
[H]c1c([H])c([H])c2c(c1[H])C([H])([H])C([H])([H])C([H])([H])C2([H])N([H])C(=O)C1([H])N(C(=O)C([H])(N([H])C(=O)C([H])(N([H])C([H])([H])[H])C([H])([H])[H])C(C([H])([H])[H])(C([H])([H])[H])C([H])([H])[H])C([H])([H])c2c([H])c(OC3([H])c4c([H])c(N([H])C([H])([H])C([H])([H])N([H])C(=O)N5C([H])([H])C([H])([H])C([H])([H])C([H])(n6nc(-c7c([H])c([H])c(Oc8c([H])c([H])c(F)c([H])c8F)c([H])c7[H])c(C(=O)N([H])[H])c6N([H])[H])C5([H])[H])c([H])c([H])c4C([H])([H])C3([H])[H])c([H])c([H])c2C1([H])[H]

>  <smiles>  (68) 
[H]c1c([H])c([H])c2c(c1[H])C([H])([H])C([H])([H])C([H])([H])C2([H])N([H])C(=O)C1([H])N(C(=O)C([H])(N([H])C(=O)C([H])(N([H])C([H])([H])[H])C([H])([H])[H])C(C([H])([H])[H])(C([H])([H])[H])C([H])([H])[H])C([H])([H])c2c([H])c(OC3([H])c4c([H])c(N([H])C([H])([H])C([H])([H])N([H])C(=O)N5C([H])([H])C([H])([H])C([H])([H])C([H])(n6nc(-c7c([H])c([H])c(Oc8c([H])c([H])c(F)c([H])c8F)c([H])c7[H])c(C(=O)N([H])[H])c6N([H])[H])C5([H])[H])c([H])c([H])c4C([H])([H])C3([H])[H])c([H])c([H])c2C1([H])[H]

$$$$
68:0:0
     RDKit          3D

 94102  0  0  1  0  0  0  0  0999 V2000
  -29.7560  -21.6160   20.0260 C   0  0  0  0  0  2  0  0  0  0  0  0
  -29.6850  -20.1470   19.5500 C   0  0  0  0  0  2  0  0  0  0  0  0
  -30.9210  -19.4330   21.6940 C   0  0  0  0  0  3  0  0  0  0  0  0
  -31.2950  -18.4400   22.6200 C   0  0  0  0  0  3  0  0  0  0  0  0
  -29.8670  -17.7370   20.3050 C   0  0  0  0  0  3  0  0  0  0  0  0
  -30.1770  -19.0940   20.5420 C   0  0  0  0  0  0  0  0  0  0  0  0
  -30.9510  -17.0890   22.4010 C   0  0  0  0  0  0  0  0  0  0  0  0
  -30.2630  -16.7350   21.2200 C   0  0  0  0  0  0  0  0  0  0  0  0
  -31.3130  -16.0380   23.4350 C   0  0  0  0  0  1  0  0  0  0  0  0
  -30.4330  -14.5820   20.0660 C   0  0  0  0  0  0  0  0  0  0  0  0
  -30.0450  -12.5500   18.7210 C   0  0  0  0  0  2  0  0  0  0  0  0
  -29.0010  -12.8550   17.6300 C   0  0  0  0  0  2  0  0  0  0  0  0
  -27.5670  -12.6680   18.1690 C   0  0  0  0  0  2  0  0  0  0  0  0
  -27.3390  -13.3740   19.5330 C   0  0  0  0  0  3  0  0  0  0  0  0
  -28.4850  -13.0440   20.5140 C   0  0  0  0  0  2  0  0  0  0  0  0
  -29.7590  -13.4170   19.8740 N   0  0  0  0  0  0  0  0  0  0  0  0
  -31.4390  -14.8990   19.4230 O   0  0  0  0  0  0  0  0  0  0  0  0
  -29.8950  -15.3910   20.9900 N   0  0  0  0  0  0  0  0  0  0  0  0
  -29.1030  -15.0330   21.5010 H   0  0  0  0  0  0  0  0  0  0  0  0
  -24.9690  -13.8740   20.4060 C   0  0  0  0  0  0  0  0  0  0  0  0
  -23.9620  -13.0540   20.8410 C   0  0  0  0  0  0  0  0  0  0  0  0
  -24.4790  -11.7240   20.7680 C   0  0  0  0  0  0  0  0  0  0  0  0
  -26.0330  -13.0410   20.0980 N   0  0  0  0  0  0  0  0  0  0  0  0
  -25.7440  -11.7420   20.3690 N   0  0  0  0  0  0  0  0  0  0  0  0
  -23.8240  -10.4300   21.0010 C   0  0  0  0  0  0  0  0  0  0  0  0
  -24.3060   -9.5220   21.9700 C   0  0  0  0  0  3  0  0  0  0  0  0
  -23.6490   -8.2920   22.1880 C   0  0  0  0  0  3  0  0  0  0  0  0
  -22.4970   -7.9600   21.4350 C   0  0  0  0  0  0  0  0  0  0  0  0
  -22.0370   -8.8560   20.4550 C   0  0  0  0  0  3  0  0  0  0  0  0
  -22.6950  -10.0780   20.2360 C   0  0  0  0  0  3  0  0  0  0  0  0
  -21.8100   -6.7770   21.5590 O   0  0  0  0  0  0  0  0  0  0  0  0
  -21.7430   -6.1040   22.7530 C   0  0  0  0  0  0  0  0  0  0  0  0
  -21.1800   -6.6890   23.9070 C   0  0  0  0  0  3  0  0  0  0  0  0
  -21.0700   -5.9380   25.0960 C   0  0  0  0  0  3  0  0  0  0  0  0
  -21.5110   -4.6020   25.1280 C   0  0  0  0  0  0  0  0  0  0  0  0
  -22.0640   -4.0150   23.9770 C   0  0  0  0  0  3  0  0  0  0  0  0
  -22.1780   -4.7640   22.7930 C   0  0  0  0  0  0  0  0  0  0  0  0
  -22.6930   -4.1860   21.6810 F   0  0  0  0  0  0  0  0  0  0  0  0
  -21.3960   -3.8780   26.2660 F   0  0  0  0  0  0  0  0  0  0  0  0
  -22.5680  -13.4670   21.2160 C   0  0  0  0  0  0  0  0  0  0  0  0
  -21.9300  -12.7260   22.1150 N   0  0  0  0  0  0  0  0  0  0  0  0
  -22.0530  -14.4820   20.7470 O   0  0  0  0  0  0  0  0  0  0  0  0
  -22.3620  -11.9090   22.5220 H   0  0  0  0  0  0  0  0  0  0  0  0
  -20.9970  -12.9820   22.4050 H   0  0  0  0  0  0  0  0  0  0  0  0
  -25.0620  -15.2520   20.2320 N   0  0  0  0  0  0  0  0  0  0  0  0
  -24.2850  -15.8780   20.4140 H   0  0  0  0  0  0  0  0  0  0  0  0
  -25.8810  -15.7320   19.8800 H   0  0  0  0  0  0  0  0  0  0  0  0
  -29.0510  -22.5780   19.0480 C   0  0  0  0  0  2  0  0  0  0  0  0
  -29.2420  -24.0060   19.3950 N   0  0  0  0  0  4  0  0  0  0  0  0
  -30.2270  -24.2160   19.3500 H   0  0  0  0  0  0  0  0  0  0  0  0
  -28.9400  -24.1670   20.3440 H   0  0  0  0  0  0  0  0  0  0  0  0
  -28.5060  -24.9260   18.4940 C   0  0  0  0  0  2  0  0  0  0  0  0
  -28.8520  -26.4150   18.7130 C   0  0  0  0  0  2  0  0  0  0  0  0
  -28.4200  -26.9280   19.9770 O   0  0  0  0  0  0  0  0  0  0  0  0
  -24.5550  -31.9630   23.1960 C   0  0  0  0  0  0  0  0  0  0  0  0
  -27.2280  -27.6180   20.0010 C   0  0  0  0  0  0  0  0  0  0  0  0
  -23.3490  -30.5690   21.5480 C   0  0  0  0  0  3  0  0  0  0  0  0
  -24.8070  -29.0750   20.0840 C   0  0  0  0  0  0  0  0  0  0  0  0
  -25.8680  -30.9630   21.3320 C   0  0  0  0  0  2  0  0  0  0  0  0
  -25.9610  -29.6010   20.6750 C   0  0  0  0  0  0  0  0  0  0  0  0
  -27.1700  -28.8720   20.6480 C   0  0  0  0  0  3  0  0  0  0  0  0
  -26.0510  -27.0990   19.4150 C   0  0  0  0  0  3  0  0  0  0  0  0
  -24.8430  -27.8180   19.4580 C   0  0  0  0  0  3  0  0  0  0  0  0
  -23.5510  -29.9140   20.1550 C   0  0  0  0  0  2  0  0  0  0  0  0
  -24.6090  -31.1800   22.0830 N   0  0  0  0  0  0  0  0  0  0  0  0
  -23.4770  -32.2130   23.7520 O   0  0  0  0  0  0  0  0  0  0  0  0
  -22.7240  -29.5230   22.4980 C   0  0  0  0  0  0  0  0  0  0  0  0
  -21.4040  -29.3180   22.3770 N   0  0  0  0  0  0  0  0  0  0  0  0
  -23.4250  -28.9000   23.3010 O   0  0  0  0  0  0  0  0  0  0  0  0
  -20.8980  -29.8740   21.7020 H   0  0  0  0  0  0  0  0  0  0  0  0
  -18.0500  -28.0810   22.8990 C   0  0  0  0  0  0  0  0  0  0  0  0
  -20.6080  -28.3570   23.1410 C   0  0  0  0  0  3  0  0  0  0  0  0
  -20.7150  -26.9380   22.5370 C   0  0  0  0  0  2  0  0  0  0  0  0
  -19.6030  -26.6250   21.5310 C   0  0  0  0  0  2  0  0  0  0  0  0
  -18.2280  -26.7460   22.1950 C   0  0  0  0  0  2  0  0  0  0  0  0
  -19.1670  -28.8440   23.3290 C   0  0  0  0  0  0  0  0  0  0  0  0
  -18.9450  -30.0950   23.9450 C   0  0  0  0  0  3  0  0  0  0  0  0
  -17.6390  -30.5830   24.1360 C   0  0  0  0  0  3  0  0  0  0  0  0
  -16.5360  -29.8150   23.7240 C   0  0  0  0  0  3  0  0  0  0  0  0
  -16.7420  -28.5670   23.1110 C   0  0  0  0  0  3  0  0  0  0  0  0
  -25.8390  -32.6020   23.8100 C   0  0  0  0  0  3  0  0  0  0  0  0
  -25.5220  -33.9960   24.1480 N   0  0  0  0  0  0  0  0  0  0  0  0
  -25.8620  -35.0550   23.4020 C   0  0  0  0  0  0  0  0  0  0  0  0
  -26.5470  -34.9620   22.3790 O   0  0  0  0  0  0  0  0  0  0  0  0
  -24.9170  -34.1420   24.9430 H   0  0  0  0  0  0  0  0  0  0  0  0
  -24.1500  -36.8550   23.0140 C   0  0  0  0  0  1  0  0  0  0  0  0
  -25.3620  -36.4370   23.8630 C   0  0  0  0  0  3  0  0  0  0  0  0
  -27.4660  -37.3050   24.7850 C   0  0  0  0  0  1  0  0  0  0  0  0
  -26.4010  -37.4890   23.8030 N   0  0  0  0  0  0  0  0  0  0  0  0
  -25.9920  -38.4080   23.9470 H   0  0  0  0  0  0  0  0  0  0  0  0
  -26.3760  -31.8280   25.0760 C   0  0  1  0  0  0  0  0  0  0  0  0
  -25.2900  -31.5550   26.1430 C   0  0  0  0  0  1  0  0  0  0  0  0
  -26.9880  -30.4690   24.6660 C   0  0  0  0  0  1  0  0  0  0  0  0
  -27.5120  -32.6390   25.7430 C   0  0  0  0  0  1  0  0  0  0  0  0
  2  1  1  0
  2  6  1  0
  3  4  1  0
  5  6  1  0
  5  8  2  0
  6  3  2  0
  7  4  2  0
  7  9  1  0
  8  7  1  0
 10 18  1  0
 11 16  1  0
 12 13  1  0
 12 11  1  0
 14 13  1  0
 14 23  1  0
 14 15  1  0
 16 10  1  0
 16 15  1  0
 17 10  2  0
 18  8  1  0
 18 19  1  0
 20 21  2  0
 21 40  1  0
 22 21  1  0
 22 25  1  0
 23 24  1  0
 23 20  1  0
 24 22  2  0
 25 26  1  0
 26 27  2  0
 28 31  1  0
 28 27  1  0
 29 28  2  0
 30 29  1  0
 30 25  2  0
 31 32  1  0
 32 37  2  0
 32 33  1  0
 33 34  2  0
 34 35  1  0
 35 39  1  0
 36 35  2  0
 37 36  1  0
 38 37  1  0
 40 41  1  0
 41 44  1  0
 41 43  1  0
 42 40  2  0
 45 20  1  0
 45 46  1  0
 47 45  1  0
 48 49  1  0
 48  1  1  0
 49 51  1  0
 50 49  1  0
 52 53  1  0
 52 49  1  0
 53 54  1  0
 54 56  1  0
 55 66  2  0
 56 61  1  0
 57 65  1  0
 57 67  1  0
 58 64  1  0
 58 60  1  0
 59 65  1  0
 60 59  1  0
 61 60  2  0
 62 63  1  0
 62 56  2  0
 63 58  2  0
 64 57  1  0
 65 55  1  0
 67 69  2  0
 68 67  1  0
 70 68  1  0
 71 80  2  0
 71 76  1  0
 72 68  1  0
 72 76  1  0
 73 72  1  0
 74 75  1  0
 74 73  1  0
 75 71  1  0
 76 77  2  0
 77 78  1  0
 79 78  2  0
 80 79  1  0
 81 55  1  0
 81 82  1  0
 81 91  1  0
 82 85  1  0
 83 87  1  0
 83 82  1  0
 84 83  2  0
 87 86  1  0
 89 87  1  0
 89 90  1  0
 89 88  1  0
 91 94  1  1
 91 92  1  0
 93 91  1  0
M  ISO  4  10 100  18 100  53 101  54 101
M  END
>  <TORSDO>  (69) 
F 22

>  <SCORE>  (69) 
-10.632

>  <name>  (69) 
68

>  <ligand_id>  (69) 
68

>  <original_smiles>  (69) 
[H]c1c([H])c([H])c2c(c1[H])C([H])([H])C([H])([H])C([H])([H])C2([H])N([H])C(=O)C1([H])N(C(=O)C([H])(N([H])C(=O)C([H])(N([H])C([H])([H])[H])C([H])([H])[H])C(C([H])([H])[H])(C([H])([H])[H])C([H])([H])[H])C([H])([H])c2c([H])c(OC([H])([H])C([H])([H])[N+]([H])([H])C([H])([H])C([H])([H])C([H])([H])c3c([H])c([H])c(C([H])([H])[H])c(N([H])C(=O)N4C([H])([H])C([H])([H])C([H])([H])C([H])(n5nc(-c6c([H])c([H])c(Oc7c([H])c([H])c(F)c([H])c7F)c([H])c6[H])c(C(=O)N([H])[H])c5N([H])[H])C4([H])[H])c3[H])c([H])c([H])c2C1([H])[H]

>  <smiles>  (69) 
[H]c1c([H])c([H])c2c(c1[H])C([H])([H])C([H])([H])C([H])([H])C2([H])N([H])C(=O)C1([H])N(C(=O)C([H])(N([H])C(=O)C([H])(N([H])C([H])([H])[H])C([H])([H])[H])C(C([H])([H])[H])(C([H])([H])[H])C([H])([H])[H])C([H])([H])c2c([H])c(OC([H])([H])C([H])([H])[N+]([H])([H])C([H])([H])C([H])([H])C([H])([H])c3c([H])c([H])c(C([H])([H])[H])c(N([H])C(=O)N4C([H])([H])C([H])([H])C([H])([H])C([H])(n5nc(-c6c([H])c([H])c(Oc7c([H])c([H])c(F)c([H])c7F)c([H])c6[H])c(C(=O)N([H])[H])c5N([H])[H])C4([H])[H])c3[H])c([H])c([H])c2C1([H])[H]

$$$$
69:0:0
     RDKit          3D

 89 98  0  0  1  0  0  0  0  0999 V2000
  -28.3820  -23.3650   19.1330 C   0  0  0  0  0  2  0  0  0  0  0  0
  -29.0450  -23.5720   21.3570 C   0  0  0  0  0  2  0  0  0  0  0  0
  -28.3050  -21.7030   19.3100 C   0  0  0  0  0  2  0  0  0  0  0  0
  -29.0030  -21.9180   21.5300 C   0  0  0  0  0  2  0  0  0  0  0  0
  -28.0860  -24.4020   20.3490 C   0  0  0  0  0  3  0  0  0  0  0  0
  -29.2040  -20.9710   20.3290 N   0  0  1  0  0  4  0  0  0  0  0  0
  -30.1500  -21.1270   20.0130 H   0  0  0  0  0  0  0  0  0  0  0  0
  -30.4720  -15.2880   20.2760 C   0  0  0  0  0  0  0  0  0  0  0  0
  -30.3970  -12.8680   19.3760 C   0  0  0  0  0  2  0  0  0  0  0  0
  -29.4700  -12.6660   18.1540 C   0  0  0  0  0  2  0  0  0  0  0  0
  -28.0280  -12.3830   18.6100 C   0  0  0  0  0  2  0  0  0  0  0  0
  -27.5790  -13.3410   19.7410 C   0  0  0  0  0  3  0  0  0  0  0  0
  -28.6380  -13.5140   20.8520 C   0  0  0  0  0  2  0  0  0  0  0  0
  -29.8590  -14.0100   20.1970 N   0  0  0  0  0  0  0  0  0  0  0  0
  -31.6990  -15.2440   20.1020 O   0  0  0  0  0  0  0  0  0  0  0  0
  -28.0840  -18.4640   19.8330 C   0  0  0  0  0  2  0  0  0  0  0  0
  -28.3570  -16.9170   20.1370 C   0  0  0  0  0  2  0  0  0  0  0  0
  -30.3000  -18.1200   20.4250 C   0  0  0  0  0  2  0  0  0  0  0  0
  -29.1200  -19.3260   20.5810 C   0  0  0  0  0  3  0  0  0  0  0  0
  -29.7930  -16.6060   20.3580 N   0  0  0  0  0  0  0  0  0  0  0  0
  -25.2160  -13.8920   20.5250 C   0  0  0  0  0  0  0  0  0  0  0  0
  -24.1610  -13.1080   20.8940 C   0  0  0  0  0  0  0  0  0  0  0  0
  -24.6340  -11.7600   20.8470 C   0  0  0  0  0  0  0  0  0  0  0  0
  -26.2600  -13.0210   20.2660 N   0  0  0  0  0  0  0  0  0  0  0  0
  -25.9230  -11.7330   20.5270 N   0  0  0  0  0  0  0  0  0  0  0  0
  -23.9140  -10.4940   21.0280 C   0  0  0  0  0  0  0  0  0  0  0  0
  -24.3370   -9.5320   21.9720 C   0  0  0  0  0  3  0  0  0  0  0  0
  -23.6150   -8.3300   22.1400 C   0  0  0  0  0  3  0  0  0  0  0  0
  -22.4560   -8.0840   21.3650 C   0  0  0  0  0  0  0  0  0  0  0  0
  -22.0530   -9.0360   20.4120 C   0  0  0  0  0  3  0  0  0  0  0  0
  -22.7750  -10.2270   20.2420 C   0  0  0  0  0  3  0  0  0  0  0  0
  -21.7060   -6.9350   21.4440 O   0  0  0  0  0  0  0  0  0  0  0  0
  -21.6160   -6.2140   22.6080 C   0  0  0  0  0  0  0  0  0  0  0  0
  -21.0910   -6.7720   23.7930 C   0  0  0  0  0  3  0  0  0  0  0  0
  -20.9540   -5.9730   24.9450 C   0  0  0  0  0  3  0  0  0  0  0  0
  -21.3310   -4.6170   24.9140 C   0  0  0  0  0  0  0  0  0  0  0  0
  -21.8490   -4.0590   23.7320 C   0  0  0  0  0  3  0  0  0  0  0  0
  -21.9880   -4.8540   22.5810 C   0  0  0  0  0  0  0  0  0  0  0  0
  -22.4690   -4.3060   21.4390 F   0  0  0  0  0  0  0  0  0  0  0  0
  -21.1910   -3.8470   26.0180 F   0  0  0  0  0  0  0  0  0  0  0  0
  -22.7630  -13.5770   21.1740 C   0  0  0  0  0  0  0  0  0  0  0  0
  -22.0420  -12.8720   22.0360 N   0  0  0  0  0  0  0  0  0  0  0  0
  -22.3230  -14.6060   20.6650 O   0  0  0  0  0  0  0  0  0  0  0  0
  -22.4080  -12.0390   22.4720 H   0  0  0  0  0  0  0  0  0  0  0  0
  -21.1040  -13.1720   22.2660 H   0  0  0  0  0  0  0  0  0  0  0  0
  -25.3660  -15.2640   20.3540 N   0  0  0  0  0  0  0  0  0  0  0  0
  -24.5960  -15.9100   20.4850 H   0  0  0  0  0  0  0  0  0  0  0  0
  -26.2030  -15.7100   20.0050 H   0  0  0  0  0  0  0  0  0  0  0  0
  -28.2270  -26.0250   20.2600 O   0  0  0  0  0  0  0  0  0  0  0  0
  -24.6260  -31.9090   23.2140 C   0  0  0  0  0  0  0  0  0  0  0  0
  -27.1740  -27.0600   20.2200 C   0  0  0  0  0  0  0  0  0  0  0  0
  -23.4210  -30.5050   21.5880 C   0  0  0  0  0  3  0  0  0  0  0  0
  -24.8610  -28.8950   20.1700 C   0  0  0  0  0  0  0  0  0  0  0  0
  -25.9820  -30.7310   21.4210 C   0  0  0  0  0  2  0  0  0  0  0  0
  -26.0500  -29.3220   20.7770 C   0  0  0  0  0  0  0  0  0  0  0  0
  -27.2030  -28.4250   20.7690 C   0  0  0  0  0  3  0  0  0  0  0  0
  -25.9540  -26.7620   19.5750 C   0  0  0  0  0  3  0  0  0  0  0  0
  -24.8350  -27.6340   19.5500 C   0  0  0  0  0  3  0  0  0  0  0  0
  -23.6410  -29.8110   20.2160 C   0  0  0  0  0  2  0  0  0  0  0  0
  -24.6970  -31.0740   22.1290 N   0  0  0  0  0  0  0  0  0  0  0  0
  -23.5400  -32.2020   23.7400 O   0  0  0  0  0  0  0  0  0  0  0  0
  -22.7330  -29.5150   22.5620 C   0  0  0  0  0  0  0  0  0  0  0  0
  -21.4030  -29.3470   22.4400 N   0  0  0  0  0  0  0  0  0  0  0  0
  -23.4000  -28.8970   23.3950 O   0  0  0  0  0  0  0  0  0  0  0  0
  -20.9180  -29.8970   21.7440 H   0  0  0  0  0  0  0  0  0  0  0  0
  -18.0200  -28.1490   22.9650 C   0  0  0  0  0  0  0  0  0  0  0  0
  -20.5810  -28.4160   23.2180 C   0  0  0  0  0  3  0  0  0  0  0  0
  -20.6790  -26.9790   22.6530 C   0  0  0  0  0  2  0  0  0  0  0  0
  -19.5740  -26.6510   21.6440 C   0  0  0  0  0  2  0  0  0  0  0  0
  -18.1940  -26.7980   22.2920 C   0  0  0  0  0  2  0  0  0  0  0  0
  -19.1400  -28.9150   23.3850 C   0  0  0  0  0  0  0  0  0  0  0  0
  -18.9190  -30.1790   23.9770 C   0  0  0  0  0  3  0  0  0  0  0  0
  -17.6130  -30.6760   24.1490 C   0  0  0  0  0  3  0  0  0  0  0  0
  -16.5090  -29.9060   23.7430 C   0  0  0  0  0  3  0  0  0  0  0  0
  -16.7130  -28.6450   23.1560 C   0  0  0  0  0  3  0  0  0  0  0  0
  -25.9020  -32.5510   23.8380 C   0  0  0  0  0  3  0  0  0  0  0  0
  -25.5880  -33.9510   24.1720 N   0  0  0  0  0  0  0  0  0  0  0  0
  -25.9090  -35.0100   23.4160 C   0  0  0  0  0  0  0  0  0  0  0  0
  -26.5620  -34.9100   22.3750 O   0  0  0  0  0  0  0  0  0  0  0  0
  -25.0040  -34.1020   24.9810 H   0  0  0  0  0  0  0  0  0  0  0  0
  -24.1750  -36.8110   23.1000 C   0  0  0  0  0  1  0  0  0  0  0  0
  -25.4310  -36.4000   23.8870 C   0  0  0  0  0  3  0  0  0  0  0  0
  -27.5740  -37.2910   24.6920 C   0  0  0  0  0  1  0  0  0  0  0  0
  -26.4630  -37.4520   23.7590 N   0  0  0  0  0  0  0  0  0  0  0  0
  -26.0580  -38.3740   23.9040 H   0  0  0  0  0  0  0  0  0  0  0  0
  -26.4150  -31.7870   25.1220 C   0  0  1  0  0  0  0  0  0  0  0  0
  -25.3180  -31.5560   26.1890 C   0  0  0  0  0  1  0  0  0  0  0  0
  -26.9990  -30.4070   24.7460 C   0  0  0  0  0  1  0  0  0  0  0  0
  -27.5630  -32.5850   25.7820 C   0  0  0  0  0  1  0  0  0  0  0  0
  1  3  1  0
  1  5  1  0
  2  4  1  0
  3  6  1  0
  5 49  1  0
  5  2  1  0
  6  7  1  6
  6 19  1  0
  6  4  1  0
  8 20  1  0
  9 14  1  0
 10 11  1  0
 10  9  1  0
 12 11  1  0
 12 24  1  0
 12 13  1  0
 14  8  1  0
 14 13  1  0
 15  8  2  0
 16 17  1  0
 17 20  1  0
 18 19  1  0
 19 16  1  0
 20 18  1  0
 21 22  2  0
 22 41  1  0
 23 22  1  0
 23 26  1  0
 24 21  1  0
 24 25  1  0
 25 23  2  0
 26 27  1  0
 27 28  2  0
 29 32  1  0
 29 28  1  0
 30 29  2  0
 31 30  1  0
 31 26  2  0
 32 33  1  0
 33 34  1  0
 34 35  2  0
 36 35  1  0
 36 40  1  0
 37 36  2  0
 38 33  2  0
 38 37  1  0
 39 38  1  0
 41 42  1  0
 42 45  1  0
 42 44  1  0
 43 41  2  0
 46 47  1  0
 46 21  1  0
 48 46  1  0
 50 61  2  0
 51 49  1  0
 51 56  1  0
 52 60  1  0
 52 62  1  0
 53 59  1  0
 53 55  1  0
 54 60  1  0
 55 54  1  0
 56 55  2  0
 57 51  2  0
 58 57  1  0
 58 53  2  0
 59 52  1  0
 60 50  1  0
 62 64  2  0
 63 62  1  0
 65 63  1  0
 66 75  2  0
 66 71  1  0
 67 63  1  0
 67 71  1  0
 68 67  1  0
 69 70  1  0
 69 68  1  0
 70 66  1  0
 71 72  2  0
 72 73  1  0
 74 73  2  0
 75 74  1  0
 76 50  1  0
 76 77  1  0
 76 86  1  0
 77 80  1  0
 78 82  1  0
 78 77  1  0
 79 78  2  0
 82 81  1  0
 84 82  1  0
 84 85  1  0
 84 83  1  0
 86 89  1  1
 86 87  1  0
 88 86  1  0
M  ISO  4   5 101   8 100  20 100  49 101
M  END
>  <TORSDO>  (70) 
F 16

>  <SCORE>  (70) 
-15.699

>  <name>  (70) 
69

>  <ligand_id>  (70) 
69

>  <original_smiles>  (70) 
[H]c1c([H])c([H])c2c(c1[H])C([H])([H])C([H])([H])C([H])([H])C2([H])N([H])C(=O)C1([H])N(C(=O)C([H])(N([H])C(=O)C([H])(N([H])C([H])([H])[H])C([H])([H])[H])C(C([H])([H])[H])(C([H])([H])[H])C([H])([H])[H])C([H])([H])c2c([H])c(OC3([H])C([H])([H])C([H])([H])[N+]([H])(C4([H])C([H])([H])N(C(=O)N5C([H])([H])C([H])([H])C([H])([H])C([H])(n6nc(-c7c([H])c([H])c(Oc8c([H])c([H])c(F)c([H])c8F)c([H])c7[H])c(C(=O)N([H])[H])c6N([H])[H])C5([H])[H])C([H])([H])C4([H])[H])C([H])([H])C3([H])[H])c([H])c([H])c2C1([H])[H]

>  <smiles>  (70) 
[H]c1c([H])c([H])c2c(c1[H])C([H])([H])C([H])([H])C([H])([H])C2([H])N([H])C(=O)C1([H])N(C(=O)C([H])(N([H])C(=O)C([H])(N([H])C([H])([H])[H])C([H])([H])[H])C(C([H])([H])[H])(C([H])([H])[H])C([H])([H])[H])C([H])([H])c2c([H])c(OC3([H])C([H])([H])C([H])([H])[N+]([H])(C4([H])C([H])([H])N(C(=O)N5C([H])([H])C([H])([H])C([H])([H])C([H])(n6nc(-c7c([H])c([H])c(Oc8c([H])c([H])c(F)c([H])c8F)c([H])c7[H])c(C(=O)N([H])[H])c6N([H])[H])C5([H])[H])C([H])([H])C4([H])[H])C([H])([H])C3([H])[H])c([H])c([H])c2C1([H])[H]

$$$$
70:0:0
     RDKit          3D

 97103  0  0  1  0  0  0  0  0999 V2000
  -22.1760  -26.2860   22.9350 C   0  0  0  0  0  2  0  0  0  0  0  0
  -23.7590  -26.1190   20.4160 C   0  0  0  0  0  2  0  0  0  0  0  0
  -20.5440  -26.1990   22.0760 C   0  0  1  0  0  0  0  0  0  0  0  0
  -21.0660  -26.2150   19.8380 C   0  0  0  0  0  2  0  0  0  0  0  0
  -23.6800  -26.2980   21.9700 C   0  0  0  0  0  0  0  0  0  0  0  0
  -22.7850  -25.5950   19.3520 C   0  0  0  0  0  3  0  0  0  0  0  0
  -18.6500  -26.1450   22.5940 C   0  0  0  0  0  3  0  0  0  0  0  0
  -19.5030  -26.3960   18.6570 C   0  0  0  0  0  2  0  0  0  0  0  0
  -17.1810  -26.0550   21.0570 C   0  0  0  0  0  2  0  0  0  0  0  0
  -17.7090  -26.2810   19.2360 N   0  0  0  0  0  4  0  0  0  0  0  0
  -17.2170  -25.6190   18.6570 H   0  0  0  0  0  0  0  0  0  0  0  0
  -17.3390  -27.1810   18.9790 H   0  0  0  0  0  0  0  0  0  0  0  0
  -23.5930  -24.0200   18.9630 N   0  0  0  0  0  2  0  0  0  0  0  0
  -22.8720  -23.4680   18.5000 H   0  0  0  0  0  0  0  0  0  0  0  0
  -25.1440  -22.8160   19.0380 C   0  0  0  0  0 15  0  0  0  0  0  0
  -26.0440  -20.7390   18.9220 C   0  0  0  0  0 15  0  0  0  0  0  0
  -27.7950  -19.3020   19.0660 C   0  0  0  0  0 15  0  0  0  0  0  0
  -29.8690  -16.2600   19.4480 C   0  0  0  0  0  0  0  0  0  0  0  0
  -30.8440  -13.6160   19.0910 C   0  0  0  0  0  2  0  0  0  0  0  0
  -30.1400  -12.6630   18.0620 C   0  0  0  0  0  2  0  0  0  0  0  0
  -28.7670  -12.2080   18.5810 C   0  0  0  0  0  2  0  0  0  0  0  0
  -28.1290  -13.3600   19.3760 C   0  0  0  0  0  3  0  0  0  0  0  0
  -29.0230  -13.9470   20.4540 C   0  0  0  0  0  2  0  0  0  0  0  0
  -29.8970  -14.7590   19.6350 N   0  0  0  0  0  0  0  0  0  0  0  0
  -31.1350  -16.3840   19.2900 O   0  0  0  0  0  0  0  0  0  0  0  0
  -28.5970  -17.4430   19.3320 N   0  0  0  0  0  2  0  0  0  0  0  0
  -27.7780  -16.8520   19.4260 H   0  0  0  0  0  0  0  0  0  0  0  0
  -25.9540  -14.0900   20.3180 C   0  0  0  0  0  0  0  0  0  0  0  0
  -24.8490  -13.4000   20.7000 C   0  0  0  0  0  0  0  0  0  0  0  0
  -25.1820  -12.0150   20.5710 C   0  0  0  0  0  0  0  0  0  0  0  0
  -26.8520  -13.1180   19.9390 N   0  0  0  0  0  0  0  0  0  0  0  0
  -26.4320  -11.8610   20.1700 N   0  0  0  0  0  0  0  0  0  0  0  0
  -24.3570  -10.8250   20.7320 C   0  0  0  0  0  0  0  0  0  0  0  0
  -24.7460   -9.7660   21.5800 C   0  0  0  0  0  3  0  0  0  0  0  0
  -23.9150   -8.6360   21.7260 C   0  0  0  0  0  3  0  0  0  0  0  0
  -22.6890   -8.5650   21.0250 C   0  0  0  0  0  0  0  0  0  0  0  0
  -22.3230   -9.6130   20.1630 C   0  0  0  0  0  3  0  0  0  0  0  0
  -23.1520  -10.7340   20.0130 C   0  0  0  0  0  3  0  0  0  0  0  0
  -21.8260   -7.5010   21.0890 O   0  0  0  0  0  0  0  0  0  0  0  0
  -21.6580   -6.7840   22.2450 C   0  0  0  0  0  0  0  0  0  0  0  0
  -21.2430   -7.3960   23.4490 C   0  0  0  0  0  3  0  0  0  0  0  0
  -21.0150   -6.6090   24.5950 C   0  0  0  0  0  3  0  0  0  0  0  0
  -21.1930   -5.2130   24.5380 C   0  0  0  0  0  0  0  0  0  0  0  0
  -21.6030   -4.6040   23.3400 C   0  0  0  0  0  3  0  0  0  0  0  0
  -21.8330   -5.3870   22.1950 C   0  0  0  0  0  0  0  0  0  0  0  0
  -22.2080   -4.7940   21.0370 F   0  0  0  0  0  0  0  0  0  0  0  0
  -20.9660   -4.4560   25.6350 F   0  0  0  0  0  0  0  0  0  0  0  0
  -23.5350  -14.0040   21.0750 C   0  0  0  0  0  0  0  0  0  0  0  0
  -22.8250  -13.3890   22.0100 N   0  0  0  0  0  0  0  0  0  0  0  0
  -23.1630  -15.0640   20.5730 O   0  0  0  0  0  0  0  0  0  0  0  0
  -23.1490  -12.5310   22.4340 H   0  0  0  0  0  0  0  0  0  0  0  0
  -21.9420  -13.7780   22.3060 H   0  0  0  0  0  0  0  0  0  0  0  0
  -26.2740  -15.4460   20.2430 N   0  0  0  0  0  0  0  0  0  0  0  0
  -25.4420  -16.0070   20.4100 H   0  0  0  0  0  0  0  0  0  0  0  0
  -26.9320  -15.6620   20.9790 H   0  0  0  0  0  0  0  0  0  0  0  0
  -25.4160  -26.4720   22.2630 C   0  0  0  0  0  3  0  0  0  0  0  0
  -26.8020  -26.3610   21.2920 O   0  0  0  0  0  0  0  0  0  0  0  0
  -24.7480  -31.6140   22.9740 C   0  0  0  0  0  0  0  0  0  0  0  0
  -27.2230  -27.2720   20.3260 C   0  0  0  0  0  3  0  0  0  0  0  0
  -23.8440  -30.4800   20.9870 C   0  0  0  0  0  3  0  0  0  0  0  0
  -25.4320  -29.1170   19.5660 C   0  0  0  0  0  0  0  0  0  0  0  0
  -26.3220  -30.8040   21.2010 C   0  0  0  0  0  2  0  0  0  0  0  0
  -26.4520  -29.4970   20.4490 C   0  0  0  0  0  0  0  0  0  0  0  0
  -27.4600  -28.5820   20.7650 C   0  0  0  0  0  2  0  0  0  0  0  0
  -26.5710  -27.0330   19.1130 C   0  0  0  0  0  2  0  0  0  0  0  0
  -25.5260  -27.9220   18.8220 C   0  0  0  0  0  2  0  0  0  0  0  0
  -24.2420  -30.0360   19.5400 C   0  0  0  0  0  2  0  0  0  0  0  0
  -24.9810  -31.0020   21.7770 N   0  0  0  0  0  0  0  0  0  0  0  0
  -23.5960  -31.7780   23.4110 O   0  0  0  0  0  0  0  0  0  0  0  0
  -23.3110  -29.2760   21.6960 C   0  0  0  0  0  0  0  0  0  0  0  0
  -22.2200  -28.8100   21.1390 N   0  0  0  0  0  0  0  0  0  0  0  0
  -23.8610  -28.7530   22.6730 O   0  0  0  0  0  0  0  0  0  0  0  0
  -21.8090  -29.2720   20.3430 H   0  0  0  0  0  0  0  0  0  0  0  0
  -18.8100  -27.8110   22.2890 C   0  0  0  0  0  0  0  0  0  0  0  0
  -21.5110  -27.8080   21.7590 C   0  0  0  0  0  3  0  0  0  0  0  0
  -21.3370  -24.7040   21.5660 C   0  0  0  0  0  2  0  0  0  0  0  0
  -19.7220  -24.2580   21.4610 C   0  0  0  0  0  2  0  0  0  0  0  0
  -18.5910  -25.3510   21.9270 C   0  0  0  0  0  3  0  0  0  0  0  0
  -20.0830  -28.5760   22.4170 C   0  0  0  0  0  0  0  0  0  0  0  0
  -20.1430  -29.6510   23.4360 C   0  0  0  0  0  3  0  0  0  0  0  0
  -19.0530  -30.2110   24.1640 C   0  0  0  0  0  3  0  0  0  0  0  0
  -17.7920  -29.8180   23.7660 C   0  0  0  0  0  3  0  0  0  0  0  0
  -17.7370  -28.8100   22.7740 C   0  0  0  0  0  3  0  0  0  0  0  0
  -25.9250  -32.1570   23.8260 C   0  0  0  0  0  3  0  0  0  0  0  0
  -25.5470  -33.5140   24.2250 N   0  0  0  0  0  0  0  0  0  0  0  0
  -25.7720  -34.5980   23.4760 C   0  0  0  0  0  0  0  0  0  0  0  0
  -26.4040  -34.5610   22.4150 O   0  0  0  0  0  0  0  0  0  0  0  0
  -24.9840  -33.6060   25.0570 H   0  0  0  0  0  0  0  0  0  0  0  0
  -23.8840  -36.2440   23.2860 C   0  0  0  0  0  1  0  0  0  0  0  0
  -25.2160  -35.9370   23.9890 C   0  0  0  0  0  3  0  0  0  0  0  0
  -27.3450  -36.9640   24.6420 C   0  0  0  0  0  1  0  0  0  0  0  0
  -26.1520  -37.0660   23.8060 N   0  0  0  0  0  0  0  0  0  0  0  0
  -25.6960  -37.9490   24.0130 H   0  0  0  0  0  0  0  0  0  0  0  0
  -26.2720  -31.2730   25.0840 C   0  0  1  0  0  0  0  0  0  0  0  0
  -25.0360  -30.7890   25.8750 C   0  0  0  0  0  1  0  0  0  0  0  0
  -27.0840  -30.0270   24.6650 C   0  0  0  0  0  1  0  0  0  0  0  0
  -27.1720  -32.0850   26.0430 C   0  0  0  0  0  1  0  0  0  0  0  0
  2  5  1  0
  3 76  1  6
  3  7  1  0
  3  1  1  0
  5 56  2  0
  5  1  1  0
  6 13  1  0
  6  4  1  0
  6  2  1  0
  7 74  1  0
  8 10  1  0
  8  4  1  0
 10  9  1  0
 11 10  1  0
 12 10  1  0
 14 13  1  0
 18 24  1  0
 19 24  1  0
 20 21  1  0
 20 19  1  0
 22 21  1  0
 22 31  1  0
 22 23  1  0
 24 23  1  0
 25 18  2  0
 26 27  1  0
 26 18  1  0
 28 29  2  0
 29 48  1  0
 30 29  1  0
 30 33  1  0
 31 32  1  0
 31 28  1  0
 32 30  2  0
 33 34  1  0
 34 35  2  0
 36 39  1  0
 36 35  1  0
 37 36  2  0
 38 37  1  0
 38 33  2  0
 39 40  1  0
 40 41  1  0
 41 42  2  0
 43 42  1  0
 43 47  1  0
 44 43  2  0
 45 40  2  0
 45 44  1  0
 46 45  1  0
 48 49  1  0
 49 52  1  0
 49 51  1  0
 50 48  2  0
 53 28  1  0
 53 54  1  0
 53 55  1  0
 57 56  1  0
 58 69  2  0
 59 65  1  0
 59 64  1  0
 59 57  1  0
 60 67  1  0
 60 70  1  0
 60 68  1  0
 61 63  2  0
 62 68  1  0
 63 64  1  0
 63 62  1  0
 66 65  1  0
 66 61  1  0
 67 61  1  0
 68 58  1  0
 70 72  2  0
 71 70  1  0
 71 75  1  0
 73 71  1  0
 74 79  2  0
 74 83  1  0
 75  3  1  0
 75 79  1  0
 77 76  1  0
 77 78  1  0
 78  9  1  0
 78  7  1  0
 79 80  1  0
 80 81  2  0
 82 81  1  0
 83 82  2  0
 84 58  1  0
 84 85  1  0
 84 94  1  0
 85 88  1  0
 86 90  1  0
 86 85  1  0
 87 86  2  0
 90 89  1  0
 92 90  1  0
 92 93  1  0
 92 91  1  0
 94 95  1  1
 94 97  1  0
 96 94  1  0
M  ISO  4  18 100  26 100  56 101  57 101
M  END
>  <TORSDO>  (71) 
F 21

>  <SCORE>  (71) 
-15.607

>  <name>  (71) 
70

>  <ligand_id>  (71) 
70

>  <original_smiles>  (71) 
[H]c1c([H])c([H])c2c(c1[H])C([H])([H])C([H])([H])C([H])([H])C2([H])N([H])C(=O)C1([H])N(C(=O)C([H])(N([H])C(=O)C([H])(N([H])C([H])([H])[H])C([H])([H])[H])C(C([H])([H])[H])(C([H])([H])[H])C([H])([H])[H])C([H])([H])c2c([H])c(OC([H])([H])c3c([H])c(N([H])C([H])([H])C([H])([H])C([H])([H])N([H])C(=O)N4C([H])([H])C([H])([H])C([H])([H])C([H])(n5nc(-c6c([H])c([H])c(Oc7c([H])c([H])c(F)c([H])c7F)c([H])c6[H])c(C(=O)N([H])[H])c5N([H])[H])C4([H])[H])c4c(c3[H])C([H])([H])C([H])([H])[N+]([H])([H])C4([H])[H])c([H])c([H])c2C1([H])[H]

>  <smiles>  (71) 
[H]c1c([H])c([H])c2c(c1[H])C([H])([H])C([H])([H])C([H])([H])C2([H])N([H])C(=O)C1([H])N(C(=O)C([H])(N([H])C(=O)C([H])(N([H])C([H])([H])[H])C([H])([H])[H])C(C([H])([H])[H])(C([H])([H])[H])C([H])([H])[H])C([H])([H])c2c([H])c(OC([H])([H])c3c([H])c(N([H])C([H])([H])C([H])([H])C([H])([H])N([H])C(=O)N4C([H])([H])C([H])([H])C([H])([H])C([H])(n5nc(-c6c([H])c([H])c(Oc7c([H])c([H])c(F)c([H])c7F)c([H])c6[H])c(C(=O)N([H])[H])c5N([H])[H])C4([H])[H])c4c(c3[H])C([H])([H])C([H])([H])[N+]([H])([H])C4([H])[H])c([H])c([H])c2C1([H])[H]

$$$$
71:0:0
     RDKit          3D

 99108  0  0  1  0  0  0  0  0999 V2000
  -30.8080  -21.5010   19.5400 N   0  0  0  0  0  0  0  0  0  0  0  0
  -31.6790  -21.8260   19.1300 H   0  0  0  0  0  0  0  0  0  0  0  0
  -31.9640  -18.4250   21.2640 C   0  0  0  0  0  3  0  0  0  0  0  0
  -31.9550  -19.6950   20.6570 C   0  0  0  0  0  3  0  0  0  0  0  0
  -29.6020  -19.4100   20.1260 C   0  0  0  0  0  3  0  0  0  0  0  0
  -30.7920  -17.6430   21.3320 C   0  0  0  0  0  0  0  0  0  0  0  0
  -30.7720  -20.2080   20.0930 C   0  0  0  0  0  0  0  0  0  0  0  0
  -29.5960  -18.1300   20.7420 C   0  0  0  0  0  0  0  0  0  0  0  0
  -28.4270  -17.3490   20.8000 N   0  0  0  0  0  0  0  0  0  0  0  0
  -28.4600  -16.4560   21.2810 H   0  0  0  0  0  0  0  0  0  0  0  0
  -26.3290  -16.4230   19.8950 C   0  0  0  0  0  2  0  0  0  0  0  0
  -27.2960  -17.6090   19.9210 C   0  0  0  0  0  2  0  0  0  0  0  0
  -30.8500  -16.3220   22.1050 C   0  0  0  0  0  2  0  0  0  0  0  0
  -30.5170  -14.5420   20.3880 C   0  0  0  0  0  0  0  0  0  0  0  0
  -30.1220  -12.5620   18.9670 C   0  0  0  0  0  2  0  0  0  0  0  0
  -29.0660  -12.8400   17.8830 C   0  0  0  0  0  2  0  0  0  0  0  0
  -27.6470  -12.5890   18.4240 C   0  0  0  0  0  2  0  0  0  0  0  0
  -27.3960  -13.2920   19.7840 C   0  0  0  0  0  3  0  0  0  0  0  0
  -28.5490  -13.0040   20.7700 C   0  0  0  0  0  2  0  0  0  0  0  0
  -29.8190  -13.4050   20.1330 N   0  0  0  0  0  0  0  0  0  0  0  0
  -31.4670  -14.9230   19.6990 O   0  0  0  0  0  0  0  0  0  0  0  0
  -30.1400  -15.2020   21.4890 N   0  0  0  0  0  0  0  0  0  0  0  0
  -29.3680  -14.8060   22.0020 H   0  0  0  0  0  0  0  0  0  0  0  0
  -25.0360  -13.7290   20.7160 C   0  0  0  0  0  0  0  0  0  0  0  0
  -24.0370  -12.8800   21.1130 C   0  0  0  0  0  0  0  0  0  0  0  0
  -24.5560  -11.5590   20.9510 C   0  0  0  0  0  0  0  0  0  0  0  0
  -26.0980  -12.9210   20.3450 N   0  0  0  0  0  0  0  0  0  0  0  0
  -25.8170  -11.6070   20.5400 N   0  0  0  0  0  0  0  0  0  0  0  0
  -23.9070  -10.2510   21.1080 C   0  0  0  0  0  0  0  0  0  0  0  0
  -24.3950   -9.2890   22.0190 C   0  0  0  0  0  3  0  0  0  0  0  0
  -23.7430   -8.0460   22.1660 C   0  0  0  0  0  3  0  0  0  0  0  0
  -22.5890   -7.7550   21.4000 C   0  0  0  0  0  0  0  0  0  0  0  0
  -22.1220   -8.7070   20.4770 C   0  0  0  0  0  3  0  0  0  0  0  0
  -22.7740   -9.9420   20.3280 C   0  0  0  0  0  3  0  0  0  0  0  0
  -21.9060   -6.5640   21.4560 O   0  0  0  0  0  0  0  0  0  0  0  0
  -21.8100   -5.8440   22.6190 C   0  0  0  0  0  0  0  0  0  0  0  0
  -21.2230   -6.3840   23.7840 C   0  0  0  0  0  3  0  0  0  0  0  0
  -21.0830   -5.5850   24.9360 C   0  0  0  0  0  3  0  0  0  0  0  0
  -21.5190   -4.2470   24.9240 C   0  0  0  0  0  0  0  0  0  0  0  0
  -22.0980   -3.7060   23.7620 C   0  0  0  0  0  3  0  0  0  0  0  0
  -22.2400   -4.5020   22.6130 C   0  0  0  0  0  0  0  0  0  0  0  0
  -22.7800   -3.9690   21.4900 F   0  0  0  0  0  0  0  0  0  0  0  0
  -21.3760   -3.4770   26.0280 F   0  0  0  0  0  0  0  0  0  0  0  0
  -22.6470  -13.2650   21.5300 C   0  0  0  0  0  0  0  0  0  0  0  0
  -22.0370  -12.4900   22.4200 N   0  0  0  0  0  0  0  0  0  0  0  0
  -22.1110  -14.2870   21.1030 O   0  0  0  0  0  0  0  0  0  0  0  0
  -22.4850  -11.6620   22.7850 H   0  0  0  0  0  0  0  0  0  0  0  0
  -21.1090  -12.7280   22.7400 H   0  0  0  0  0  0  0  0  0  0  0  0
  -25.1220  -15.1150   20.6220 N   0  0  0  0  0  2  0  0  0  0  0  0
  -24.3430  -15.7240   20.8460 H   0  0  0  0  0  0  0  0  0  0  0  0
  -25.9370  -15.6170   20.2930 H   0  0  0  0  0  0  0  0  0  0  0  0
  -29.5800  -22.1690   19.1200 C   0  0  0  0  0  2  0  0  0  0  0  0
  -28.5080  -24.2350   18.1250 C   0  0  0  0  0  2  0  0  0  0  0  0
  -30.4450  -24.5050   19.7310 C   0  0  0  0  0  2  0  0  0  0  0  0
  -28.6870  -25.7010   17.6890 C   0  0  0  0  0  2  0  0  0  0  0  0
  -30.5790  -25.9820   19.3000 C   0  0  0  0  0  2  0  0  0  0  0  0
  -29.8260  -23.6140   18.6280 C   0  0  0  0  0  3  0  0  0  0  0  0
  -29.2350  -26.5730   18.8370 C   0  0  0  0  0  3  0  0  0  0  0  0
  -28.3990  -26.6160   19.9960 O   0  0  0  0  0  0  0  0  0  0  0  0
  -24.5600  -31.7520   23.0520 C   0  0  0  0  0  0  0  0  0  0  0  0
  -27.2450  -27.3600   19.9450 C   0  0  0  0  0  0  0  0  0  0  0  0
  -23.3700  -30.3610   21.3870 C   0  0  0  0  0  3  0  0  0  0  0  0
  -24.8390  -28.8380   19.9660 C   0  0  0  0  0  0  0  0  0  0  0  0
  -25.8950  -30.7290   21.2150 C   0  0  0  0  0  2  0  0  0  0  0  0
  -25.9900  -29.3650   20.5640 C   0  0  0  0  0  0  0  0  0  0  0  0
  -27.1960  -28.6300   20.5570 C   0  0  0  0  0  3  0  0  0  0  0  0
  -26.0680  -26.8260   19.3780 C   0  0  0  0  0  3  0  0  0  0  0  0
  -24.8710  -27.5630   19.3750 C   0  0  0  0  0  3  0  0  0  0  0  0
  -23.5910  -29.6900   20.0060 C   0  0  0  0  0  2  0  0  0  0  0  0
  -24.6270  -30.9610   21.9440 N   0  0  0  0  0  0  0  0  0  0  0  0
  -23.4730  -32.0220   23.5830 O   0  0  0  0  0  0  0  0  0  0  0  0
  -22.7100  -29.3340   22.3350 C   0  0  0  0  0  0  0  0  0  0  0  0
  -21.3770  -29.1990   22.2350 N   0  0  0  0  0  0  0  0  0  0  0  0
  -23.3910  -28.6620   23.1140 O   0  0  0  0  0  0  0  0  0  0  0  0
  -20.8900  -29.7910   21.5770 H   0  0  0  0  0  0  0  0  0  0  0  0
  -17.9700  -28.1550   22.8290 C   0  0  0  0  0  0  0  0  0  0  0  0
  -20.5470  -28.2680   22.9980 C   0  0  0  0  0  3  0  0  0  0  0  0
  -20.5500  -26.8630   22.3510 C   0  0  0  0  0  2  0  0  0  0  0  0
  -19.3890  -26.6470   21.3740 C   0  0  0  0  0  2  0  0  0  0  0  0
  -18.0470  -26.8320   22.0860 C   0  0  0  0  0  2  0  0  0  0  0  0
  -19.1450  -28.8360   23.2440 C   0  0  0  0  0  0  0  0  0  0  0  0
  -19.0210  -30.0800   23.9000 C   0  0  0  0  0  3  0  0  0  0  0  0
  -17.7530  -30.6400   24.1470 C   0  0  0  0  0  3  0  0  0  0  0  0
  -16.5930  -29.9530   23.7500 C   0  0  0  0  0  3  0  0  0  0  0  0
  -16.7020  -28.7120   23.0970 C   0  0  0  0  0  3  0  0  0  0  0  0
  -25.8400  -32.3780   23.6880 C   0  0  0  0  0  3  0  0  0  0  0  0
  -25.5090  -33.7520   24.0880 N   0  0  0  0  0  0  0  0  0  0  0  0
  -25.7950  -34.8430   23.3660 C   0  0  0  0  0  0  0  0  0  0  0  0
  -26.4400  -34.8010   22.3130 O   0  0  0  0  0  0  0  0  0  0  0  0
  -24.9340  -33.8580   24.9100 H   0  0  0  0  0  0  0  0  0  0  0  0
  -24.0030  -36.5940   23.1460 C   0  0  0  0  0  1  0  0  0  0  0  0
  -25.2870  -36.1980   23.8940 C   0  0  0  0  0  3  0  0  0  0  0  0
  -27.4250  -37.1160   24.6810 C   0  0  0  0  0  1  0  0  0  0  0  0
  -26.2840  -37.2860   23.7830 N   0  0  0  0  0  0  0  0  0  0  0  0
  -25.8570  -38.1860   23.9800 H   0  0  0  0  0  0  0  0  0  0  0  0
  -26.3890  -31.5550   24.9170 C   0  0  1  0  0  0  0  0  0  0  0  0
  -25.3180  -31.2520   25.9910 C   0  0  0  0  0  1  0  0  0  0  0  0
  -26.9810  -30.2050   24.4480 C   0  0  0  0  0  1  0  0  0  0  0  0
  -27.5420  -32.3320   25.5970 C   0  0  0  0  0  1  0  0  0  0  0  0
  1  7  1  0
  2  1  1  0
  3  6  1  0
  4  3  2  0
  5  8  1  0
  6 13  1  0
  7  5  2  0
  7  4  1  0
  8  9  1  0
  8  6  2  0
  9 10  1  0
 11 12  1  0
 11 51  1  0
 12  9  1  0
 14 22  1  0
 15 20  1  0
 16 17  1  0
 16 15  1  0
 18 17  1  0
 18 27  1  0
 18 19  1  0
 20 14  1  0
 20 19  1  0
 21 14  2  0
 22 23  1  0
 22 13  1  0
 24 25  2  0
 25 44  1  0
 26 29  1  0
 26 25  1  0
 27 28  1  0
 27 24  1  0
 28 26  2  0
 29 30  1  0
 30 31  2  0
 32 35  1  0
 32 31  1  0
 33 32  2  0
 34 33  1  0
 34 29  2  0
 35 36  1  0
 36 37  1  0
 37 38  2  0
 39 38  1  0
 39 43  1  0
 40 39  2  0
 41 36  2  0
 41 40  1  0
 42 41  1  0
 44 45  1  0
 45 48  1  0
 45 47  1  0
 46 44  2  0
 49 24  1  0
 49 50  1  0
 52  1  1  0
 53 57  1  0
 55 53  1  0
 55 58  1  0
 56 54  1  0
 57 52  1  0
 57 54  1  0
 58 56  1  0
 58 59  1  0
 60 71  2  0
 61 59  1  0
 61 66  1  0
 62 70  1  0
 62 72  1  0
 63 69  1  0
 63 65  1  0
 64 70  1  0
 65 64  1  0
 66 65  2  0
 67 61  2  0
 68 67  1  0
 68 63  2  0
 69 62  1  0
 70 60  1  0
 72 74  2  0
 73 72  1  0
 75 73  1  0
 76 85  2  0
 76 81  1  0
 77 73  1  0
 77 81  1  0
 78 77  1  0
 79 80  1  0
 79 78  1  0
 80 76  1  0
 81 82  2  0
 82 83  1  0
 84 83  2  0
 85 84  1  0
 86 60  1  0
 86 87  1  0
 86 96  1  0
 87 90  1  0
 88 92  1  0
 88 87  1  0
 89 88  2  0
 92 91  1  0
 94 92  1  0
 94 95  1  0
 94 93  1  0
 96 99  1  1
 96 97  1  0
 98 96  1  0
M  ISO  4  14 100  22 100  58 101  59 101
M  END
>  <TORSDO>  (72) 
F 22

>  <SCORE>  (72) 
-13.382

>  <name>  (72) 
71

>  <ligand_id>  (72) 
71

>  <original_smiles>  (72) 
[H]c1c([H])c([H])c2c(c1[H])C([H])([H])C([H])([H])C([H])([H])C2([H])N([H])C(=O)C1([H])N(C(=O)C([H])(N([H])C(=O)C([H])(N([H])C([H])([H])[H])C([H])([H])[H])C(C([H])([H])[H])(C([H])([H])[H])C([H])([H])[H])C([H])([H])c2c([H])c(OC3([H])C([H])([H])C([H])([H])C([H])(C([H])([H])N([H])c4c([H])c([H])c(C([H])([H])N([H])C(=O)N5C([H])([H])C([H])([H])C([H])([H])C([H])(n6nc(-c7c([H])c([H])c(Oc8c([H])c([H])c(F)c([H])c8F)c([H])c7[H])c(C(=O)N([H])[H])c6N([H])[H])C5([H])[H])c(N([H])C([H])([H])C([H])([H])[H])c4[H])C([H])([H])C3([H])[H])c([H])c([H])c2C1([H])[H]

>  <smiles>  (72) 
[H]c1c([H])c([H])c2c(c1[H])C([H])([H])C([H])([H])C([H])([H])C2([H])N([H])C(=O)C1([H])N(C(=O)C([H])(N([H])C(=O)C([H])(N([H])C([H])([H])[H])C([H])([H])[H])C(C([H])([H])[H])(C([H])([H])[H])C([H])([H])[H])C([H])([H])c2c([H])c(OC3([H])C([H])([H])C([H])([H])C([H])(C([H])([H])N([H])c4c([H])c([H])c(C([H])([H])N([H])C(=O)N5C([H])([H])C([H])([H])C([H])([H])C([H])(n6nc(-c7c([H])c([H])c(Oc8c([H])c([H])c(F)c([H])c8F)c([H])c7[H])c(C(=O)N([H])[H])c6N([H])[H])C5([H])[H])c(N([H])C([H])([H])C([H])([H])[H])c4[H])C([H])([H])C3([H])[H])c([H])c([H])c2C1([H])[H]

$$$$
72:0:0
     RDKit          3D

103112  0  0  1  0  0  0  0  0999 V2000
  -29.1400  -23.0710   20.1660 C   0  0  0  0  0  2  0  0  0  0  0  0
  -30.1070  -22.4430   19.2630 N   0  0  0  0  0  0  0  0  0  0  0  0
  -29.8260  -22.5910   18.2910 H   0  0  0  0  0  0  0  0  0  0  0  0
  -31.6690  -20.7340   18.6250 C   0  0  0  0  0  2  0  0  0  0  0  0
  -31.0780  -20.1070   17.3540 C   0  0  0  0  0  2  0  0  0  0  0  0
  -30.4640  -21.0380   19.5230 C   0  0  0  0  0  3  0  0  0  0  0  0
  -29.4340  -19.9420   19.1070 C   0  0  0  0  0  3  0  0  0  0  0  0
  -28.6940  -20.2900   16.7570 C   0  0  0  0  0  1  0  0  0  0  0  0
  -29.6930  -19.6800   17.6680 N   0  0  1  0  0  4  0  0  0  0  0  0
  -29.6300  -18.6850   17.5200 H   0  0  0  0  0  0  0  0  0  0  0  0
  -28.9920  -18.8710   21.3700 C   0  0  0  0  0  1  0  0  0  0  0  0
  -29.5250  -18.6090   19.9480 C   0  0  0  0  0  3  0  0  0  0  0  0
  -30.9460  -17.9530   19.9900 C   0  0  0  0  0  2  0  0  0  0  0  0
  -31.2620  -16.7990   20.9720 C   0  0  0  0  0  2  0  0  0  0  0  0
  -31.3120  -14.4890   19.9800 C   0  0  0  0  0  0  0  0  0  0  0  0
  -30.9340  -12.2680   18.9720 C   0  0  0  0  0  2  0  0  0  0  0  0
  -29.9740  -12.4160   17.7760 C   0  0  0  0  0  2  0  0  0  0  0  0
  -28.5020  -12.3670   18.2360 C   0  0  0  0  0  2  0  0  0  0  0  0
  -28.2200  -13.3080   19.4390 C   0  0  0  0  0  3  0  0  0  0  0  0
  -29.2840  -13.1100   20.5410 C   0  0  0  0  0  2  0  0  0  0  0  0
  -30.6070  -13.3320   19.9320 N   0  0  0  0  0  0  0  0  0  0  0  0
  -32.4080  -14.6380   19.4300 O   0  0  0  0  0  0  0  0  0  0  0  0
  -30.6900  -15.4990   20.6210 N   0  0  0  0  0  0  0  0  0  0  0  0
  -29.7840  -15.2820   21.0140 H   0  0  0  0  0  0  0  0  0  0  0  0
  -25.8960  -14.0840   20.2210 C   0  0  0  0  0  0  0  0  0  0  0  0
  -24.7900  -13.3920   20.6320 C   0  0  0  0  0  0  0  0  0  0  0  0
  -25.1480  -12.0090   20.5810 C   0  0  0  0  0  0  0  0  0  0  0  0
  -26.8660  -13.1310   19.9590 N   0  0  0  0  0  0  0  0  0  0  0  0
  -26.4220  -11.8780   20.2270 N   0  0  0  0  0  0  0  0  0  0  0  0
  -24.3390  -10.8030   20.7920 C   0  0  0  0  0  0  0  0  0  0  0  0
  -24.6830   -9.8440   21.7710 C   0  0  0  0  0  3  0  0  0  0  0  0
  -23.8780   -8.7030   21.9690 C   0  0  0  0  0  3  0  0  0  0  0  0
  -22.7130   -8.5110   21.1890 C   0  0  0  0  0  0  0  0  0  0  0  0
  -22.3870   -9.4560   20.2000 C   0  0  0  0  0  3  0  0  0  0  0  0
  -23.1940  -10.5890   20.0000 C   0  0  0  0  0  3  0  0  0  0  0  0
  -21.8860   -7.4190   21.2920 O   0  0  0  0  0  0  0  0  0  0  0  0
  -21.7020   -6.7670   22.4850 C   0  0  0  0  0  0  0  0  0  0  0  0
  -21.1850   -7.4240   23.6230 C   0  0  0  0  0  3  0  0  0  0  0  0
  -20.9480   -6.6970   24.8060 C   0  0  0  0  0  3  0  0  0  0  0  0
  -21.2180   -5.3160   24.8540 C   0  0  0  0  0  0  0  0  0  0  0  0
  -21.7280   -4.6590   23.7190 C   0  0  0  0  0  3  0  0  0  0  0  0
  -21.9660   -5.3830   22.5370 C   0  0  0  0  0  0  0  0  0  0  0  0
  -22.4380   -4.7410   21.4420 F   0  0  0  0  0  0  0  0  0  0  0  0
  -20.9830   -4.6160   25.9880 F   0  0  0  0  0  0  0  0  0  0  0  0
  -23.4410  -13.9670   20.9580 C   0  0  0  0  0  0  0  0  0  0  0  0
  -22.6980  -13.3250   21.8510 N   0  0  0  0  0  0  0  0  0  0  0  0
  -23.0590  -15.0220   20.4500 O   0  0  0  0  0  0  0  0  0  0  0  0
  -23.0190  -12.4710   22.2820 H   0  0  0  0  0  0  0  0  0  0  0  0
  -21.7930  -13.6930   22.1080 H   0  0  0  0  0  0  0  0  0  0  0  0
  -26.1490  -15.4400   20.0310 N   0  0  0  0  0  0  0  0  0  0  0  0
  -25.4150  -16.1350   20.1130 H   0  0  0  0  0  0  0  0  0  0  0  0
  -26.9970  -15.8050   19.6170 H   0  0  0  0  0  0  0  0  0  0  0  0
  -29.3410  -24.6020   20.0880 C   0  0  0  0  0  3  0  0  0  0  0  0
  -30.6110  -24.9380   20.7680 N   0  0  0  0  0  4  0  0  0  0  0  0
  -30.4620  -25.0400   21.7600 H   0  0  0  0  0  0  0  0  0  0  0  0
  -31.1940  -24.1270   20.6130 H   0  0  0  0  0  0  0  0  0  0  0  0
  -31.3120  -26.1340   20.2510 C   0  0  0  0  0  2  0  0  0  0  0  0
  -34.0390  -27.7940   21.7750 C   0  0  0  0  0  2  0  0  0  0  0  0
  -32.5910  -27.4820   22.1600 C   0  0  0  0  0  2  0  0  0  0  0  0
  -33.6770  -27.2920   20.3730 C   0  0  0  0  0  2  0  0  0  0  0  0
  -32.5900  -26.4270   21.0340 C   0  0  0  0  0  3  0  0  0  0  0  0
  -28.1840  -25.4260   20.6880 C   0  0  0  0  0  2  0  0  0  0  0  0
  -28.3460  -26.7700   20.2190 O   0  0  0  0  0  0  0  0  0  0  0  0
  -24.5540  -31.8910   23.2710 C   0  0  0  0  0  0  0  0  0  0  0  0
  -27.1950  -27.5040   20.1810 C   0  0  0  0  0  0  0  0  0  0  0  0
  -23.3500  -30.5010   21.6160 C   0  0  0  0  0  3  0  0  0  0  0  0
  -24.8070  -28.9930   20.1690 C   0  0  0  0  0  0  0  0  0  0  0  0
  -25.8680  -30.8850   21.4130 C   0  0  0  0  0  2  0  0  0  0  0  0
  -25.9620  -29.5230   20.7640 C   0  0  0  0  0  0  0  0  0  0  0  0
  -27.1640  -28.7870   20.7620 C   0  0  0  0  0  3  0  0  0  0  0  0
  -26.0380  -26.9900   19.5600 C   0  0  0  0  0  3  0  0  0  0  0  0
  -24.8430  -27.7280   19.5530 C   0  0  0  0  0  3  0  0  0  0  0  0
  -23.5560  -29.8370   20.2260 C   0  0  0  0  0  2  0  0  0  0  0  0
  -24.6090  -31.1060   22.1580 N   0  0  0  0  0  0  0  0  0  0  0  0
  -23.4720  -32.1470   23.8180 O   0  0  0  0  0  0  0  0  0  0  0  0
  -22.7140  -29.4630   22.5690 C   0  0  0  0  0  0  0  0  0  0  0  0
  -21.3930  -29.2660   22.4370 N   0  0  0  0  0  0  0  0  0  0  0  0
  -23.4070  -28.8380   23.3770 O   0  0  0  0  0  0  0  0  0  0  0  0
  -20.8940  -29.8270   21.7590 H   0  0  0  0  0  0  0  0  0  0  0  0
  -18.0340  -28.0100   22.8860 C   0  0  0  0  0  0  0  0  0  0  0  0
  -20.5820  -28.3130   23.1970 C   0  0  0  0  0  3  0  0  0  0  0  0
  -20.7200  -26.8830   22.6260 C   0  0  0  0  0  2  0  0  0  0  0  0
  -19.6380  -26.5350   21.5980 C   0  0  0  0  0  2  0  0  0  0  0  0
  -18.2440  -26.6620   22.2190 C   0  0  0  0  0  2  0  0  0  0  0  0
  -19.1320  -28.7920   23.3290 C   0  0  0  0  0  0  0  0  0  0  0  0
  -18.8830  -30.0550   23.9070 C   0  0  0  0  0  3  0  0  0  0  0  0
  -17.5690  -30.5370   24.0490 C   0  0  0  0  0  3  0  0  0  0  0  0
  -16.4840  -29.7520   23.6230 C   0  0  0  0  0  3  0  0  0  0  0  0
  -16.7170  -28.4920   23.0450 C   0  0  0  0  0  3  0  0  0  0  0  0
  -25.8390  -32.5270   23.8900 C   0  0  0  0  0  3  0  0  0  0  0  0
  -26.3390  -31.7710   25.1820 C   0  0  1  0  0  0  0  0  0  0  0  0
  -25.2340  -31.5470   26.2440 C   0  0  0  0  0  1  0  0  0  0  0  0
  -26.9210  -30.3890   24.8050 C   0  0  0  0  0  1  0  0  0  0  0  0
  -27.4850  -32.5690   25.8450 C   0  0  0  0  0  1  0  0  0  0  0  0
  -25.5340  -33.9310   24.2000 N   0  0  0  0  0  0  0  0  0  0  0  0
  -25.8850  -34.9700   23.4270 C   0  0  0  0  0  0  0  0  0  0  0  0
  -26.5750  -34.8470   22.4120 O   0  0  0  0  0  0  0  0  0  0  0  0
  -24.9300  -34.1010   24.9900 H   0  0  0  0  0  0  0  0  0  0  0  0
  -24.1790  -36.7620   23.0040 C   0  0  0  0  0  1  0  0  0  0  0  0
  -25.3950  -36.3650   23.8540 C   0  0  0  0  0  3  0  0  0  0  0  0
  -27.5210  -37.2390   24.7160 C   0  0  0  0  0  1  0  0  0  0  0  0
  -26.4350  -37.4150   23.7580 N   0  0  0  0  0  0  0  0  0  0  0  0
  -26.0270  -38.3330   23.9060 H   0  0  0  0  0  0  0  0  0  0  0  0
  2  1  1  0
  3  2  1  0
  4  6  1  0
  5  9  1  0
  5  4  1  0
  6  2  1  0
  7  6  1  0
  7 12  1  0
  8  9  1  0
  9  7  1  0
  9 10  1  1
 12 13  1  0
 12 11  1  0
 13 14  1  0
 15 23  1  0
 16 21  1  0
 17 18  1  0
 17 16  1  0
 19 18  1  0
 19 28  1  0
 19 20  1  0
 21 15  1  0
 21 20  1  0
 22 15  2  0
 23 14  1  0
 23 24  1  0
 25 26  2  0
 26 45  1  0
 27 26  1  0
 27 30  1  0
 28 25  1  0
 28 29  1  0
 29 27  2  0
 30 31  1  0
 31 32  2  0
 33 36  1  0
 33 32  1  0
 34 33  2  0
 35 34  1  0
 35 30  2  0
 36 37  1  0
 37 42  2  0
 37 38  1  0
 38 39  2  0
 39 40  1  0
 40 44  1  0
 41 40  2  0
 42 41  1  0
 43 42  1  0
 45 46  1  0
 46 49  1  0
 46 48  1  0
 47 45  2  0
 50 51  1  0
 50 25  1  0
 52 50  1  0
 53  1  1  0
 53 62  1  0
 53 54  1  0
 54 55  1  0
 56 54  1  0
 57 54  1  0
 57 61  1  0
 58 59  1  0
 60 61  1  0
 60 58  1  0
 61 59  1  0
 63 62  1  0
 64 75  2  0
 65 63  1  0
 65 70  1  0
 66 74  1  0
 66 76  1  0
 67 73  1  0
 67 69  1  0
 68 74  1  0
 69 68  1  0
 70 69  2  0
 71 65  2  0
 72 71  1  0
 72 67  2  0
 73 66  1  0
 74 64  1  0
 76 78  2  0
 77 76  1  0
 79 77  1  0
 80 89  2  0
 80 85  1  0
 81 77  1  0
 81 85  1  0
 82 81  1  0
 83 84  1  0
 83 82  1  0
 84 80  1  0
 85 86  2  0
 86 87  1  0
 88 87  2  0
 89 88  1  0
 90 64  1  0
 90 95  1  0
 90 91  1  0
 91 94  1  1
 91 92  1  0
 93 91  1  0
 95 98  1  0
 96100  1  0
 96 95  1  0
 97 96  2  0
100 99  1  0
102100  1  0
102103  1  0
102101  1  0
M  ISO  4  15 100  23 100  62 101  63 101
M  END
>  <TORSDO>  (73) 
F 26

>  <SCORE>  (73) 
-11.310

>  <name>  (73) 
72

>  <ligand_id>  (73) 
72

>  <original_smiles>  (73) 
[H]c1c([H])c([H])c2c(c1[H])C([H])([H])C([H])([H])C([H])([H])C2([H])N([H])C(=O)C1([H])N(C(=O)C([H])(N([H])C(=O)C([H])(N([H])C([H])([H])[H])C([H])([H])[H])C(C([H])([H])[H])(C([H])([H])[H])C([H])([H])[H])C([H])([H])c2c([H])c(OC([H])([H])C([H])(C([H])([H])N([H])C3([H])C([H])([H])C([H])([H])[N+]([H])(C([H])([H])[H])C3([H])C([H])(C([H])([H])[H])C([H])([H])C([H])([H])N([H])C(=O)N3C([H])([H])C([H])([H])C([H])([H])C([H])(n4nc(-c5c([H])c([H])c(Oc6c([H])c([H])c(F)c([H])c6F)c([H])c5[H])c(C(=O)N([H])[H])c4N([H])[H])C3([H])[H])[N+]([H])([H])C([H])([H])C3([H])C([H])([H])C([H])([H])C3([H])[H])c([H])c([H])c2C1([H])[H]

>  <smiles>  (73) 
[H]c1c([H])c([H])c2c(c1[H])C([H])([H])C([H])([H])C([H])([H])C2([H])N([H])C(=O)C1([H])N(C(=O)C([H])(N([H])C(=O)C([H])(N([H])C([H])([H])[H])C([H])([H])[H])C(C([H])([H])[H])(C([H])([H])[H])C([H])([H])[H])C([H])([H])c2c([H])c(OC([H])([H])C([H])(C([H])([H])N([H])C3([H])C([H])([H])C([H])([H])[N+]([H])(C([H])([H])[H])C3([H])C([H])(C([H])([H])[H])C([H])([H])C([H])([H])N([H])C(=O)N3C([H])([H])C([H])([H])C([H])([H])C([H])(n4nc(-c5c([H])c([H])c(Oc6c([H])c([H])c(F)c([H])c6F)c([H])c5[H])c(C(=O)N([H])[H])c4N([H])[H])C3([H])[H])[N+]([H])([H])C([H])([H])C3([H])C([H])([H])C([H])([H])C3([H])[H])c([H])c([H])c2C1([H])[H]

$$$$
73:0:0
     RDKit          3D

 99109  0  0  1  0  0  0  0  0999 V2000
  -29.3970  -22.1880   19.9820 C   0  0  0  0  0  3  0  0  0  0  0  0
  -28.3830  -23.2170   19.6390 C   0  0  0  0  0  0  0  0  0  0  0  0
  -29.0900  -20.8180   19.6730 C   0  0  0  0  0  0  0  0  0  0  0  0
  -27.3700  -22.3760   19.2190 C   0  0  0  0  0  0  0  0  0  0  0  0
  -27.8370  -21.0330   19.0460 N   0  0  0  0  0  0  0  0  0  0  0  0
  -31.4170  -19.8940   20.0570 C   0  0  0  0  0  2  0  0  0  0  0  0
  -31.4920  -20.2480   21.5690 C   0  0  0  0  0  2  0  0  0  0  0  0
  -30.6590  -17.9740   21.8880 C   0  0  0  0  0  2  0  0  0  0  0  0
  -30.0100  -19.3880   19.6650 C   0  0  0  0  0  3  0  0  0  0  0  0
  -29.8830  -17.8870   20.5520 C   0  0  0  0  0  3  0  0  0  0  0  0
  -30.6650  -19.3500   22.4020 N   0  0  0  0  0  4  0  0  0  0  0  0
  -29.7170  -19.6950   22.4250 H   0  0  0  0  0  0  0  0  0  0  0  0
  -31.0040  -19.3580   23.3490 H   0  0  0  0  0  0  0  0  0  0  0  0
  -30.8450  -15.1660   20.2070 C   0  0  0  0  0  0  0  0  0  0  0  0
  -30.7820  -12.7500   19.3680 C   0  0  0  0  0  2  0  0  0  0  0  0
  -29.8510  -12.6220   18.1390 C   0  0  0  0  0  2  0  0  0  0  0  0
  -28.3890  -12.4200   18.5820 C   0  0  0  0  0  2  0  0  0  0  0  0
  -27.9730  -13.3920   19.7130 C   0  0  0  0  0  3  0  0  0  0  0  0
  -29.0230  -13.4730   20.8350 C   0  0  0  0  0  2  0  0  0  0  0  0
  -30.2730  -13.8870   20.1860 N   0  0  0  0  0  0  0  0  0  0  0  0
  -32.0770  -15.2100   20.1150 O   0  0  0  0  0  0  0  0  0  0  0  0
  -30.0120  -16.3410   20.0800 N   0  0  0  0  0  0  0  0  0  0  0  0
  -29.0950  -16.0280   19.7990 H   0  0  0  0  0  0  0  0  0  0  0  0
  -25.6200  -14.0340   20.4580 C   0  0  0  0  0  0  0  0  0  0  0  0
  -24.5360  -13.2920   20.8240 C   0  0  0  0  0  0  0  0  0  0  0  0
  -24.9610  -11.9260   20.7960 C   0  0  0  0  0  0  0  0  0  0  0  0
  -26.6360  -13.1260   20.2190 N   0  0  0  0  0  0  0  0  0  0  0  0
  -26.2500  -11.8510   20.4890 N   0  0  0  0  0  0  0  0  0  0  0  0
  -24.1970  -10.6870   20.9810 C   0  0  0  0  0  0  0  0  0  0  0  0
  -24.5800   -9.7160   21.9310 C   0  0  0  0  0  3  0  0  0  0  0  0
  -23.8160   -8.5410   22.1000 C   0  0  0  0  0  3  0  0  0  0  0  0
  -22.6590   -8.3290   21.3130 C   0  0  0  0  0  0  0  0  0  0  0  0
  -22.2980   -9.2880   20.3490 C   0  0  0  0  0  3  0  0  0  0  0  0
  -23.0610  -10.4550   20.1830 C   0  0  0  0  0  3  0  0  0  0  0  0
  -21.8680   -7.2070   21.3880 O   0  0  0  0  0  0  0  0  0  0  0  0
  -21.7340   -6.4980   22.5540 C   0  0  0  0  0  0  0  0  0  0  0  0
  -21.2440   -7.0940   23.7360 C   0  0  0  0  0  3  0  0  0  0  0  0
  -21.0610   -6.3170   24.8980 C   0  0  0  0  0  3  0  0  0  0  0  0
  -21.3560   -4.9400   24.8730 C   0  0  0  0  0  0  0  0  0  0  0  0
  -21.8390   -4.3410   23.6970 C   0  0  0  0  0  3  0  0  0  0  0  0
  -22.0250   -5.1190   22.5400 C   0  0  0  0  0  0  0  0  0  0  0  0
  -22.4710   -4.5340   21.4030 F   0  0  0  0  0  0  0  0  0  0  0  0
  -21.1700   -4.1890   25.9830 F   0  0  0  0  0  0  0  0  0  0  0  0
  -23.1530  -13.8080   21.0860 C   0  0  0  0  0  0  0  0  0  0  0  0
  -22.4130  -13.1440   21.9640 N   0  0  0  0  0  0  0  0  0  0  0  0
  -22.7420  -14.8350   20.5510 O   0  0  0  0  0  0  0  0  0  0  0  0
  -22.7590  -12.3090   22.4150 H   0  0  0  0  0  0  0  0  0  0  0  0
  -21.4840  -13.4660   22.1870 H   0  0  0  0  0  0  0  0  0  0  0  0
  -25.8220  -15.4020   20.2760 N   0  0  0  0  0  0  0  0  0  0  0  0
  -25.0530  -16.0570   20.3380 H   0  0  0  0  0  0  0  0  0  0  0  0
  -26.6400  -15.8000   19.8350 H   0  0  0  0  0  0  0  0  0  0  0  0
  -25.0210  -23.4840   19.6940 C   0  0  0  0  0  2  0  0  0  0  0  0
  -24.7350  -22.0790   19.2510 C   0  0  0  0  0  2  0  0  0  0  0  0
  -25.9870  -22.7870   18.7600 C   0  0  0  0  0  3  0  0  0  0  0  0
  -26.7150  -18.7770   18.7500 C   0  0  0  0  0  1  0  0  0  0  0  0
  -27.9300  -19.9800   16.8180 C   0  0  0  0  0  1  0  0  0  0  0  0
  -27.1450  -20.1050   18.1330 C   0  0  0  0  0  3  0  0  0  0  0  0
  -28.3990  -24.8810   19.3770 C   0  0  0  0  0  2  0  0  0  0  0  0
  -28.2160  -26.1240   20.3020 O   0  0  0  0  0  0  0  0  0  0  0  0
  -24.6340  -31.8880   23.2380 C   0  0  0  0  0  0  0  0  0  0  0  0
  -27.1870  -27.1360   20.1920 C   0  0  0  0  0  0  0  0  0  0  0  0
  -23.4320  -30.4890   21.6110 C   0  0  0  0  0  3  0  0  0  0  0  0
  -24.8690  -28.9050   20.1860 C   0  0  0  0  0  0  0  0  0  0  0  0
  -25.9910  -30.7300   21.4540 C   0  0  0  0  0  2  0  0  0  0  0  0
  -26.0530  -29.3370   20.7930 C   0  0  0  0  0  0  0  0  0  0  0  0
  -27.2100  -28.4660   20.7870 C   0  0  0  0  0  3  0  0  0  0  0  0
  -25.9800  -26.8180   19.5400 C   0  0  0  0  0  3  0  0  0  0  0  0
  -24.8430  -27.6530   19.5530 C   0  0  0  0  0  3  0  0  0  0  0  0
  -23.6490  -29.8140   20.2340 C   0  0  0  0  0  2  0  0  0  0  0  0
  -24.7060  -31.0550   22.1540 N   0  0  0  0  0  0  0  0  0  0  0  0
  -23.5480  -32.1860   23.7590 O   0  0  0  0  0  0  0  0  0  0  0  0
  -22.7470  -29.4850   22.5750 C   0  0  0  0  0  0  0  0  0  0  0  0
  -21.4240  -29.2980   22.4240 N   0  0  0  0  0  0  0  0  0  0  0  0
  -23.4080  -28.8840   23.4250 O   0  0  0  0  0  0  0  0  0  0  0  0
  -20.9460  -29.8360   21.7120 H   0  0  0  0  0  0  0  0  0  0  0  0
  -18.0520  -28.0460   22.8610 C   0  0  0  0  0  0  0  0  0  0  0  0
  -20.5950  -28.3670   23.1970 C   0  0  0  0  0  3  0  0  0  0  0  0
  -20.7420  -26.9230   22.6690 C   0  0  0  0  0  2  0  0  0  0  0  0
  -19.6780  -26.5470   21.6330 C   0  0  0  0  0  2  0  0  0  0  0  0
  -18.2750  -26.6820   22.2290 C   0  0  0  0  0  2  0  0  0  0  0  0
  -19.1420  -28.8440   23.3000 C   0  0  0  0  0  0  0  0  0  0  0  0
  -18.8790  -30.1170   23.8520 C   0  0  0  0  0  3  0  0  0  0  0  0
  -17.5600  -30.5950   23.9670 C   0  0  0  0  0  3  0  0  0  0  0  0
  -16.4850  -29.7960   23.5410 C   0  0  0  0  0  3  0  0  0  0  0  0
  -16.7320  -28.5230   22.9960 C   0  0  0  0  0  3  0  0  0  0  0  0
  -25.9130  -32.5230   23.8640 C   0  0  0  0  0  3  0  0  0  0  0  0
  -26.4220  -31.7530   25.1450 C   0  0  1  0  0  0  0  0  0  0  0  0
  -25.3220  -31.5120   26.2050 C   0  0  0  0  0  1  0  0  0  0  0  0
  -27.0140  -30.3760   24.7640 C   0  0  0  0  0  1  0  0  0  0  0  0
  -27.5640  -32.5540   25.8160 C   0  0  0  0  0  1  0  0  0  0  0  0
  -25.5980  -33.9230   24.1970 N   0  0  0  0  0  0  0  0  0  0  0  0
  -25.9210  -34.9820   23.4420 C   0  0  0  0  0  0  0  0  0  0  0  0
  -26.5800  -34.8820   22.4050 O   0  0  0  0  0  0  0  0  0  0  0  0
  -25.0050  -34.0720   25.0000 H   0  0  0  0  0  0  0  0  0  0  0  0
  -24.1810  -36.7720   23.1200 C   0  0  0  0  0  1  0  0  0  0  0  0
  -25.4350  -36.3670   23.9130 C   0  0  0  0  0  3  0  0  0  0  0  0
  -27.5720  -37.2560   24.7250 C   0  0  0  0  0  1  0  0  0  0  0  0
  -26.4610  -37.4240   23.7920 N   0  0  0  0  0  0  0  0  0  0  0  0
  -26.0540  -38.3400   23.9480 H   0  0  0  0  0  0  0  0  0  0  0  0
  2  1  1  0
  3  1  2  0
  4  2  2  0
  5  4  1  0
  5  3  1  0
  6  7  1  0
  7 11  1  0
  8 11  1  0
  9  3  1  0
  9  6  1  0
  9 10  1  0
 10 22  1  0
 10  8  1  0
 11 12  1  0
 11 13  1  0
 15 20  1  0
 16 17  1  0
 16 15  1  0
 18 17  1  0
 18 27  1  0
 18 19  1  0
 20 14  1  0
 20 19  1  0
 21 14  2  0
 22 14  1  0
 23 22  1  0
 24 25  2  0
 25 44  1  0
 26 25  1  0
 26 29  1  0
 27 24  1  0
 27 28  1  0
 28 26  2  0
 29 30  1  0
 30 31  2  0
 32 35  1  0
 32 31  1  0
 33 32  2  0
 34 33  1  0
 34 29  2  0
 35 36  1  0
 36 37  1  0
 37 38  2  0
 39 38  1  0
 39 43  1  0
 40 39  2  0
 41 36  2  0
 41 40  1  0
 42 41  1  0
 44 45  1  0
 45 48  1  0
 45 47  1  0
 46 44  2  0
 49 50  1  0
 49 24  1  0
 51 49  1  0
 53 52  1  0
 54  4  1  0
 54 53  1  0
 54 52  1  0
 56 57  1  0
 57 55  1  0
 57  5  1  0
 58  2  1  0
 58 59  1  0
 60 71  2  0
 61 59  1  0
 61 66  1  0
 62 70  1  0
 62 72  1  0
 63 69  1  0
 63 65  1  0
 64 70  1  0
 65 64  1  0
 66 65  2  0
 67 68  1  0
 67 61  2  0
 68 63  2  0
 69 62  1  0
 70 60  1  0
 72 74  2  0
 73 72  1  0
 75 73  1  0
 76 85  2  0
 76 81  1  0
 77 73  1  0
 77 81  1  0
 78 77  1  0
 79 80  1  0
 79 78  1  0
 80 76  1  0
 81 82  2  0
 82 83  1  0
 84 83  2  0
 85 84  1  0
 86 60  1  0
 86 91  1  0
 86 87  1  0
 87 90  1  1
 87 88  1  0
 89 87  1  0
 91 94  1  0
 92 96  1  0
 92 91  1  0
 93 92  2  0
 96 95  1  0
 98 96  1  0
 98 99  1  0
 98 97  1  0
M  ISO  4  14 100  22 100  58 101  59 101
M  END
>  <TORSDO>  (74) 
F 20

>  <SCORE>  (74) 
-14.399

>  <name>  (74) 
73

>  <ligand_id>  (74) 
73

>  <original_smiles>  (74) 
[H]c1c([H])c([H])c2c(c1[H])C([H])([H])C([H])([H])C([H])([H])C2([H])N([H])C(=O)C1([H])N(C(=O)C([H])(N([H])C(=O)C([H])(N([H])C([H])([H])[H])C([H])([H])[H])C(C([H])([H])[H])(C([H])([H])[H])C([H])([H])[H])C([H])([H])c2c([H])c(OC([H])([H])c3c([H])c(C4([H])C([H])([H])C([H])([H])[N+]([H])([H])C([H])([H])C4([H])N([H])C(=O)N4C([H])([H])C([H])([H])C([H])([H])C([H])(n5nc(-c6c([H])c([H])c(Oc7c([H])c([H])c(F)c([H])c7F)c([H])c6[H])c(C(=O)N([H])[H])c5N([H])[H])C4([H])[H])n(C([H])(C([H])([H])[H])C([H])([H])[H])c3C3([H])C([H])([H])C3([H])[H])c([H])c([H])c2C1([H])[H]

>  <smiles>  (74) 
[H]c1c([H])c([H])c2c(c1[H])C([H])([H])C([H])([H])C([H])([H])C2([H])N([H])C(=O)C1([H])N(C(=O)C([H])(N([H])C(=O)C([H])(N([H])C([H])([H])[H])C([H])([H])[H])C(C([H])([H])[H])(C([H])([H])[H])C([H])([H])[H])C([H])([H])c2c([H])c(OC([H])([H])c3c([H])c(C4([H])C([H])([H])C([H])([H])[N+]([H])([H])C([H])([H])C4([H])N([H])C(=O)N4C([H])([H])C([H])([H])C([H])([H])C([H])(n5nc(-c6c([H])c([H])c(Oc7c([H])c([H])c(F)c([H])c7F)c([H])c6[H])c(C(=O)N([H])[H])c5N([H])[H])C4([H])[H])n(C([H])(C([H])([H])[H])C([H])([H])[H])c3C3([H])C([H])([H])C3([H])[H])c([H])c([H])c2C1([H])[H]

$$$$
74:0:0
     RDKit          3D

 94104  0  0  1  0  0  0  0  0999 V2000
  -29.4530  -23.0630   19.9430 C   0  0  0  0  0  3  0  0  0  0  0  0
  -29.3360  -24.4790   19.6510 C   0  0  0  0  0  3  0  0  0  0  0  0
  -27.4210  -23.1640   21.1010 C   0  0  0  0  0  0  0  0  0  0  0  0
  -27.3060  -24.5750   20.8140 C   0  0  0  0  0  0  0  0  0  0  0  0
  -28.4770  -22.3320   20.6910 C   0  0  0  0  0  0  0  0  0  0  0  0
  -28.2450  -25.3130   20.0710 C   0  0  0  0  0  0  0  0  0  0  0  0
  -26.1300  -23.1360   21.8800 C   0  0  0  0  0  2  0  0  0  0  0  0
  -26.0050  -24.7060   21.5700 C   0  0  0  0  0  2  0  0  0  0  0  0
  -28.4770  -20.9430   21.0080 N   0  0  0  0  0  0  0  0  0  0  0  0
  -27.7440  -20.6510   21.6490 H   0  0  0  0  0  0  0  0  0  0  0  0
  -29.6110  -19.9870   20.9100 C   0  0  0  0  0  2  0  0  0  0  0  0
  -30.7170  -14.8630   20.5910 C   0  0  0  0  0  0  0  0  0  0  0  0
  -30.6190  -12.5250   19.7760 C   0  0  0  0  0  2  0  0  0  0  0  0
  -29.7550  -12.4400   18.5010 C   0  0  0  0  0  2  0  0  0  0  0  0
  -28.2510  -12.3410   18.8450 C   0  0  0  0  0  2  0  0  0  0  0  0
  -27.7870  -13.3020   19.9760 C   0  0  0  0  0  3  0  0  0  0  0  0
  -28.7840  -13.3270   21.1520 C   0  0  0  0  0  2  0  0  0  0  0  0
  -30.1040  -13.6390   20.5940 N   0  0  0  0  0  0  0  0  0  0  0  0
  -31.9450  -14.9560   20.5170 O   0  0  0  0  0  0  0  0  0  0  0  0
  -28.4430  -17.0680   18.6050 C   0  0  0  0  0  2  0  0  0  0  0  0
  -28.7810  -18.4840   19.0580 C   0  0  0  0  0  2  0  0  0  0  0  0
  -29.6370  -16.1390   18.8690 C   0  0  0  0  0  2  0  0  0  0  0  0
  -30.2420  -17.3490   20.8530 C   0  0  0  0  0  2  0  0  0  0  0  0
  -29.1860  -18.5060   20.5390 C   0  0  0  0  0  3  0  0  0  0  0  0
  -29.9320  -15.9730   20.3090 N   0  0  0  0  0  0  0  0  0  0  0  0
  -25.3580  -13.8860   20.5710 C   0  0  0  0  0  0  0  0  0  0  0  0
  -24.2810  -13.1090   20.8940 C   0  0  0  0  0  0  0  0  0  0  0  0
  -24.7610  -11.7640   20.9150 C   0  0  0  0  0  0  0  0  0  0  0  0
  -26.4230  -13.0140   20.4100 N   0  0  0  0  0  0  0  0  0  0  0  0
  -26.0660  -11.7340   20.6840 N   0  0  0  0  0  0  0  0  0  0  0  0
  -24.0420  -10.4940   21.0840 C   0  0  0  0  0  0  0  0  0  0  0  0
  -24.4290   -9.5500   22.0580 C   0  0  0  0  0  3  0  0  0  0  0  0
  -23.7100   -8.3440   22.2130 C   0  0  0  0  0  3  0  0  0  0  0  0
  -22.5900   -8.0760   21.3910 C   0  0  0  0  0  0  0  0  0  0  0  0
  -22.2220   -9.0080   20.4060 C   0  0  0  0  0  3  0  0  0  0  0  0
  -22.9420  -10.2050   20.2500 C   0  0  0  0  0  3  0  0  0  0  0  0
  -21.8480   -6.9210   21.4510 O   0  0  0  0  0  0  0  0  0  0  0  0
  -21.7270   -6.2040   22.6150 C   0  0  0  0  0  0  0  0  0  0  0  0
  -21.1470   -6.7610   23.7750 C   0  0  0  0  0  3  0  0  0  0  0  0
  -20.9790   -5.9680   24.9280 C   0  0  0  0  0  3  0  0  0  0  0  0
  -21.3810   -4.6180   24.9200 C   0  0  0  0  0  0  0  0  0  0  0  0
  -21.9540   -4.0600   23.7620 C   0  0  0  0  0  3  0  0  0  0  0  0
  -22.1220   -4.8510   22.6130 C   0  0  0  0  0  0  0  0  0  0  0  0
  -22.6550   -4.3060   21.4930 F   0  0  0  0  0  0  0  0  0  0  0  0
  -21.2130   -3.8530   26.0230 F   0  0  0  0  0  0  0  0  0  0  0  0
  -22.8650  -13.5750   21.0770 C   0  0  0  0  0  0  0  0  0  0  0  0
  -22.1020  -12.8870   21.9180 N   0  0  0  0  0  0  0  0  0  0  0  0
  -22.4420  -14.5820   20.5100 O   0  0  0  0  0  0  0  0  0  0  0  0
  -22.4580  -12.0730   22.3970 H   0  0  0  0  0  0  0  0  0  0  0  0
  -21.1500  -13.1810   22.0870 H   0  0  0  0  0  0  0  0  0  0  0  0
  -25.5170  -15.2540   20.3770 N   0  0  0  0  0  0  0  0  0  0  0  0
  -24.7390  -15.9060   20.4200 H   0  0  0  0  0  0  0  0  0  0  0  0
  -26.3900  -15.6890   20.1120 H   0  0  0  0  0  0  0  0  0  0  0  0
  -28.2140  -26.6950   19.8080 O   0  0  0  0  0  0  0  0  0  0  0  0
  -24.4640  -31.8190   23.1690 C   0  0  0  0  0  0  0  0  0  0  0  0
  -27.0560  -27.4660   19.8660 C   0  0  0  0  0  0  0  0  0  0  0  0
  -23.2400  -30.5130   21.4620 C   0  0  0  0  0  3  0  0  0  0  0  0
  -24.6790  -29.0340   19.9480 C   0  0  0  0  0  0  0  0  0  0  0  0
  -25.7710  -30.8530   21.2680 C   0  0  0  0  0  2  0  0  0  0  0  0
  -25.8460  -29.5080   20.5600 C   0  0  0  0  0  0  0  0  0  0  0  0
  -27.0350  -28.7310   20.5160 C   0  0  0  0  0  3  0  0  0  0  0  0
  -25.8750  -27.0320   19.2260 C   0  0  0  0  0  3  0  0  0  0  0  0
  -24.6920  -27.7980   19.2770 C   0  0  0  0  0  3  0  0  0  0  0  0
  -23.4420  -29.9030   20.0470 C   0  0  0  0  0  2  0  0  0  0  0  0
  -24.5120  -31.0740   22.0260 N   0  0  0  0  0  0  0  0  0  0  0  0
  -23.3870  -32.0690   23.7300 O   0  0  0  0  0  0  0  0  0  0  0  0
  -22.5880  -29.4450   22.3740 C   0  0  0  0  0  0  0  0  0  0  0  0
  -21.2620  -29.2760   22.2480 N   0  0  0  0  0  0  0  0  0  0  0  0
  -23.2750  -28.7780   23.1520 O   0  0  0  0  0  0  0  0  0  0  0  0
  -20.7700  -29.8730   21.5990 H   0  0  0  0  0  0  0  0  0  0  0  0
  -17.8790  -28.1060   22.7610 C   0  0  0  0  0  0  0  0  0  0  0  0
  -20.4490  -28.2970   22.9710 C   0  0  0  0  0  3  0  0  0  0  0  0
  -20.5040  -26.9100   22.2880 C   0  0  0  0  0  2  0  0  0  0  0  0
  -19.3670  -26.6850   21.2870 C   0  0  0  0  0  2  0  0  0  0  0  0
  -18.0090  -26.8060   21.9840 C   0  0  0  0  0  2  0  0  0  0  0  0
  -19.0260  -28.8130   23.2120 C   0  0  0  0  0  0  0  0  0  0  0  0
  -18.8510  -30.0320   23.9000 C   0  0  0  0  0  3  0  0  0  0  0  0
  -17.5620  -30.5460   24.1400 C   0  0  0  0  0  3  0  0  0  0  0  0
  -16.4310  -29.8340   23.7060 C   0  0  0  0  0  3  0  0  0  0  0  0
  -16.5900  -28.6150   23.0220 C   0  0  0  0  0  3  0  0  0  0  0  0
  -25.7570  -32.4130   23.8110 C   0  0  0  0  0  3  0  0  0  0  0  0
  -25.4780  -33.8140   24.1540 N   0  0  0  0  0  0  0  0  0  0  0  0
  -25.8320  -34.8670   23.4030 C   0  0  0  0  0  0  0  0  0  0  0  0
  -26.4970  -34.7570   22.3700 O   0  0  0  0  0  0  0  0  0  0  0  0
  -24.8900  -33.9750   24.9590 H   0  0  0  0  0  0  0  0  0  0  0  0
  -24.1460  -36.7010   23.0610 C   0  0  0  0  0  1  0  0  0  0  0  0
  -25.3760  -36.2620   23.8730 C   0  0  0  0  0  3  0  0  0  0  0  0
  -27.5210  -37.0970   24.7260 C   0  0  0  0  0  1  0  0  0  0  0  0
  -26.4320  -37.2920   23.7710 N   0  0  0  0  0  0  0  0  0  0  0  0
  -26.0460  -38.2210   23.9150 H   0  0  0  0  0  0  0  0  0  0  0  0
  -26.2400  -31.6170   25.0860 C   0  0  1  0  0  0  0  0  0  0  0  0
  -25.1280  -31.3940   26.1370 C   0  0  0  0  0  1  0  0  0  0  0  0
  -26.7970  -30.2320   24.6840 C   0  0  0  0  0  1  0  0  0  0  0  0
  -27.3980  -32.3780   25.7710 C   0  0  0  0  0  1  0  0  0  0  0  0
  1  5  1  0
  2  1  2  0
  2  6  1  0
  3  7  1  0
  4  3  1  0
  4  8  1  0
  5  9  1  0
  5  3  2  0
  6  4  2  0
  8  7  1  0
  9 10  1  0
 11  9  1  0
 12 18  1  0
 13 18  1  0
 14 15  1  0
 14 13  1  0
 16 15  1  0
 16 29  1  0
 16 17  1  0
 18 17  1  0
 19 12  2  0
 20 22  1  0
 20 21  1  0
 21 24  1  0
 22 25  1  0
 24 23  1  0
 24 11  1  0
 25 12  1  0
 25 23  1  0
 26 27  2  0
 27 28  1  0
 27 46  1  0
 28 31  1  0
 29 26  1  0
 29 30  1  0
 30 28  2  0
 31 32  1  0
 32 33  2  0
 34 37  1  0
 34 33  1  0
 35 34  2  0
 36 35  1  0
 36 31  2  0
 37 38  1  0
 38 39  1  0
 39 40  2  0
 41 40  1  0
 41 45  1  0
 42 41  2  0
 43 38  2  0
 43 42  1  0
 44 43  1  0
 46 47  1  0
 47 50  1  0
 47 49  1  0
 48 46  2  0
 51 52  1  0
 51 26  1  0
 53 51  1  0
 54 56  1  0
 54  6  1  0
 55 66  2  0
 56 61  1  0
 57 65  1  0
 57 67  1  0
 58 64  1  0
 58 60  1  0
 59 65  1  0
 60 59  1  0
 61 60  2  0
 62 63  1  0
 62 56  2  0
 63 58  2  0
 64 57  1  0
 65 55  1  0
 67 69  2  0
 68 67  1  0
 70 68  1  0
 71 80  2  0
 71 76  1  0
 72 68  1  0
 72 76  1  0
 73 72  1  0
 74 75  1  0
 74 73  1  0
 75 71  1  0
 76 77  2  0
 77 78  1  0
 79 78  2  0
 80 79  1  0
 81 55  1  0
 81 82  1  0
 81 91  1  0
 82 85  1  0
 83 87  1  0
 83 82  1  0
 84 83  2  0
 87 86  1  0
 89 87  1  0
 89 90  1  0
 89 88  1  0
 91 94  1  1
 91 92  1  0
 93 91  1  0
M  ISO  4   6 101  12 100  25 100  54 101
M  END
>  <TORSDO>  (75) 
F 18

>  <SCORE>  (75) 
-14.484

>  <name>  (75) 
74

>  <ligand_id>  (75) 
74

>  <original_smiles>  (75) 
[H]c1c([H])c([H])c2c(c1[H])C([H])([H])C([H])([H])C([H])([H])C2([H])N([H])C(=O)C1([H])N(C(=O)C([H])(N([H])C(=O)C([H])(N([H])C([H])([H])[H])C([H])([H])[H])C(C([H])([H])[H])(C([H])([H])[H])C([H])([H])[H])C([H])([H])c2c([H])c(Oc3c([H])c([H])c(N([H])C([H])([H])C4([H])C([H])([H])N(C(=O)N5C([H])([H])C([H])([H])C([H])([H])C([H])(n6nc(-c7c([H])c([H])c(Oc8c([H])c([H])c(F)c([H])c8F)c([H])c7[H])c(C(=O)N([H])[H])c6N([H])[H])C5([H])[H])C([H])([H])C([H])([H])C4([H])[H])c4c3C([H])([H])C4([H])[H])c([H])c([H])c2C1([H])[H]

>  <smiles>  (75) 
[H]c1c([H])c([H])c2c(c1[H])C([H])([H])C([H])([H])C([H])([H])C2([H])N([H])C(=O)C1([H])N(C(=O)C([H])(N([H])C(=O)C([H])(N([H])C([H])([H])[H])C([H])([H])[H])C(C([H])([H])[H])(C([H])([H])[H])C([H])([H])[H])C([H])([H])c2c([H])c(Oc3c([H])c([H])c(N([H])C([H])([H])C4([H])C([H])([H])N(C(=O)N5C([H])([H])C([H])([H])C([H])([H])C([H])(n6nc(-c7c([H])c([H])c(Oc8c([H])c([H])c(F)c([H])c8F)c([H])c7[H])c(C(=O)N([H])[H])c6N([H])[H])C5([H])[H])C([H])([H])C([H])([H])C4([H])[H])c4c3C([H])([H])C4([H])[H])c([H])c([H])c2C1([H])[H]

$$$$
75:0:0
     RDKit          3D

 92100  0  0  1  0  0  0  0  0999 V2000
  -28.4860  -22.0070   21.7820 C   0  0  0  0  0  3  0  0  0  0  0  0
  -28.5530  -20.6010   21.8080 C   0  0  0  0  0  3  0  0  0  0  0  0
  -30.4400  -21.9880   20.3780 C   0  0  0  0  0  3  0  0  0  0  0  0
  -29.4420  -22.7340   21.0490 C   0  0  0  0  0  0  0  0  0  0  0  0
  -29.5890  -19.9540   21.1180 C   0  0  0  0  0  0  0  0  0  0  0  0
  -30.5130  -20.6360   20.4110 N   0  0  0  0  0  0  0  0  0  0  0  0
  -29.6780  -18.5560   21.1740 N   0  0  0  0  0  0  0  0  0  0  0  0
  -29.0090  -18.0450   21.7380 H   0  0  0  0  0  0  0  0  0  0  0  0
  -30.8420  -17.8340   20.6640 C   0  0  0  0  0  2  0  0  0  0  0  0
  -31.1860  -16.6030   21.5290 C   0  0  0  0  0  2  0  0  0  0  0  0
  -31.0060  -14.5230   20.1570 C   0  0  0  0  0  0  0  0  0  0  0  0
  -30.6330  -12.3970   18.9560 C   0  0  0  0  0  2  0  0  0  0  0  0
  -29.6570  -12.5880   17.7800 C   0  0  0  0  0  2  0  0  0  0  0  0
  -28.1990  -12.4460   18.2550 C   0  0  0  0  0  2  0  0  0  0  0  0
  -27.8960  -13.3040   19.5100 C   0  0  0  0  0  3  0  0  0  0  0  0
  -28.9740  -13.0880   20.5950 C   0  0  0  0  0  2  0  0  0  0  0  0
  -30.2920  -13.3780   19.9980 N   0  0  0  0  0  0  0  0  0  0  0  0
  -32.0320  -14.7760   19.5170 O   0  0  0  0  0  0  0  0  0  0  0  0
  -30.5300  -15.3760   21.0770 N   0  0  0  0  0  0  0  0  0  0  0  0
  -29.6850  -15.0980   21.5540 H   0  0  0  0  0  0  0  0  0  0  0  0
  -25.5230  -13.9330   20.2920 C   0  0  0  0  0  0  0  0  0  0  0  0
  -24.4580  -13.1690   20.6880 C   0  0  0  0  0  0  0  0  0  0  0  0
  -24.9030  -11.8130   20.6300 C   0  0  0  0  0  0  0  0  0  0  0  0
  -26.5530  -13.0430   20.0240 N   0  0  0  0  0  0  0  0  0  0  0  0
  -26.1830  -11.7620   20.2830 N   0  0  0  0  0  0  0  0  0  0  0  0
  -24.1700  -10.5560   20.8320 C   0  0  0  0  0  0  0  0  0  0  0  0
  -24.5930   -9.5970   21.7790 C   0  0  0  0  0  3  0  0  0  0  0  0
  -23.8600   -8.4050   21.9660 C   0  0  0  0  0  3  0  0  0  0  0  0
  -22.6900   -8.1640   21.2060 C   0  0  0  0  0  0  0  0  0  0  0  0
  -22.2880   -9.1130   20.2490 C   0  0  0  0  0  3  0  0  0  0  0  0
  -23.0200  -10.2950   20.0600 C   0  0  0  0  0  3  0  0  0  0  0  0
  -21.9290   -7.0240   21.3030 O   0  0  0  0  0  0  0  0  0  0  0  0
  -21.8320   -6.3220   22.4770 C   0  0  0  0  0  0  0  0  0  0  0  0
  -21.3560   -6.9170   23.6660 C   0  0  0  0  0  3  0  0  0  0  0  0
  -21.2050   -6.1400   24.8320 C   0  0  0  0  0  3  0  0  0  0  0  0
  -21.5220   -4.7690   24.8090 C   0  0  0  0  0  0  0  0  0  0  0  0
  -21.9920   -4.1740   23.6250 C   0  0  0  0  0  3  0  0  0  0  0  0
  -22.1430   -4.9470   22.4620 C   0  0  0  0  0  0  0  0  0  0  0  0
  -22.5750   -4.3630   21.3190 F   0  0  0  0  0  0  0  0  0  0  0  0
  -21.3720   -4.0200   25.9280 F   0  0  0  0  0  0  0  0  0  0  0  0
  -23.0750  -13.6590   21.0090 C   0  0  0  0  0  0  0  0  0  0  0  0
  -22.3710  -12.9680   21.8990 N   0  0  0  0  0  0  0  0  0  0  0  0
  -22.6290  -14.6890   20.5060 O   0  0  0  0  0  0  0  0  0  0  0  0
  -22.7440  -12.1340   22.3280 H   0  0  0  0  0  0  0  0  0  0  0  0
  -21.4440  -13.2790   22.1560 H   0  0  0  0  0  0  0  0  0  0  0  0
  -25.6980  -15.3030   20.1200 N   0  0  0  0  0  0  0  0  0  0  0  0
  -24.9430  -15.9680   20.2490 H   0  0  0  0  0  0  0  0  0  0  0  0
  -26.5500  -15.7340   19.7820 H   0  0  0  0  0  0  0  0  0  0  0  0
  -29.3650  -24.1120   21.0670 O   0  0  0  0  0  0  0  0  0  0  0  0
  -29.8090  -24.8490   19.9230 C   0  0  0  0  0  2  0  0  0  0  0  0
  -28.6240  -25.6860   19.4150 C   0  0  0  0  0  2  0  0  0  0  0  0
  -28.5150  -26.9260   20.1230 O   0  0  0  0  0  0  0  0  0  0  0  0
  -24.6180  -31.9570   23.2960 C   0  0  0  0  0  0  0  0  0  0  0  0
  -27.3070  -27.5990   20.1230 C   0  0  0  0  0  0  0  0  0  0  0  0
  -23.4160  -30.5490   21.6580 C   0  0  0  0  0  3  0  0  0  0  0  0
  -24.8770  -29.0560   20.1980 C   0  0  0  0  0  0  0  0  0  0  0  0
  -25.9320  -30.9550   21.4310 C   0  0  0  0  0  2  0  0  0  0  0  0
  -26.0330  -29.5930   20.7780 C   0  0  0  0  0  0  0  0  0  0  0  0
  -27.2460  -28.8680   20.7450 C   0  0  0  0  0  3  0  0  0  0  0  0
  -26.1270  -27.0800   19.5360 C   0  0  0  0  0  3  0  0  0  0  0  0
  -24.9190  -27.7980   19.5790 C   0  0  0  0  0  3  0  0  0  0  0  0
  -23.6190  -29.8900   20.2680 C   0  0  0  0  0  2  0  0  0  0  0  0
  -24.6750  -31.1670   22.1870 N   0  0  0  0  0  0  0  0  0  0  0  0
  -23.5390  -32.2050   23.8510 O   0  0  0  0  0  0  0  0  0  0  0  0
  -22.7980  -29.5050   22.6130 C   0  0  0  0  0  0  0  0  0  0  0  0
  -21.4810  -29.2760   22.4810 N   0  0  0  0  0  0  0  0  0  0  0  0
  -23.4990  -28.9030   23.4310 O   0  0  0  0  0  0  0  0  0  0  0  0
  -20.9730  -29.8170   21.7950 H   0  0  0  0  0  0  0  0  0  0  0  0
  -18.1540  -27.9540   22.9500 C   0  0  0  0  0  0  0  0  0  0  0  0
  -20.6950  -28.3120   23.2490 C   0  0  0  0  0  3  0  0  0  0  0  0
  -20.8610  -26.8820   22.6850 C   0  0  0  0  0  2  0  0  0  0  0  0
  -19.7830  -26.5110   21.6610 C   0  0  0  0  0  2  0  0  0  0  0  0
  -18.3890  -26.6070   22.2890 C   0  0  0  0  0  2  0  0  0  0  0  0
  -19.2370  -28.7620   23.3870 C   0  0  0  0  0  0  0  0  0  0  0  0
  -18.9640  -30.0210   23.9640 C   0  0  0  0  0  3  0  0  0  0  0  0
  -17.6390  -30.4720   24.1110 C   0  0  0  0  0  3  0  0  0  0  0  0
  -16.5700  -29.6630   23.6910 C   0  0  0  0  0  3  0  0  0  0  0  0
  -16.8270  -28.4050   23.1170 C   0  0  0  0  0  3  0  0  0  0  0  0
  -25.8990  -32.6090   23.9030 C   0  0  0  0  0  3  0  0  0  0  0  0
  -25.5790  -34.0100   24.2140 N   0  0  0  0  0  0  0  0  0  0  0  0
  -25.9120  -35.0550   23.4430 C   0  0  0  0  0  0  0  0  0  0  0  0
  -26.5920  -34.9430   22.4200 O   0  0  0  0  0  0  0  0  0  0  0  0
  -24.9770  -34.1710   25.0070 H   0  0  0  0  0  0  0  0  0  0  0  0
  -24.1790  -36.8330   23.0430 C   0  0  0  0  0  1  0  0  0  0  0  0
  -25.4100  -36.4450   23.8770 C   0  0  0  0  0  3  0  0  0  0  0  0
  -27.5270  -37.3460   24.7350 C   0  0  0  0  0  1  0  0  0  0  0  0
  -26.4370  -37.5030   23.7740 N   0  0  0  0  0  0  0  0  0  0  0  0
  -26.0230  -38.4210   23.9140 H   0  0  0  0  0  0  0  0  0  0  0  0
  -26.4320  -31.8580   25.1840 C   0  0  1  0  0  0  0  0  0  0  0  0
  -25.3460  -31.6030   26.2550 C   0  0  0  0  0  1  0  0  0  0  0  0
  -27.0440  -30.4910   24.8010 C   0  0  0  0  0  1  0  0  0  0  0  0
  -27.5670  -32.6800   25.8400 C   0  0  0  0  0  1  0  0  0  0  0  0
  1  2  1  0
  3  6  2  0
  3  4  1  0
  4 49  1  0
  4  1  2  0
  5  7  1  0
  5  2  2  0
  6  5  1  0
  7  8  1  0
  9  7  1  0
  9 10  1  0
 11 19  1  0
 12 17  1  0
 13 14  1  0
 13 12  1  0
 15 14  1  0
 15 24  1  0
 15 16  1  0
 17 11  1  0
 17 16  1  0
 18 11  2  0
 19 10  1  0
 19 20  1  0
 21 22  2  0
 22 41  1  0
 23 22  1  0
 23 26  1  0
 24 25  1  0
 24 21  1  0
 25 23  2  0
 26 27  1  0
 27 28  2  0
 29 32  1  0
 29 28  1  0
 30 29  2  0
 31 30  1  0
 31 26  2  0
 32 33  1  0
 33 34  1  0
 34 35  2  0
 36 35  1  0
 36 40  1  0
 37 36  2  0
 38 33  2  0
 38 37  1  0
 39 38  1  0
 41 42  1  0
 42 45  1  0
 42 44  1  0
 43 41  2  0
 46 47  1  0
 46 21  1  0
 48 46  1  0
 50 49  1  0
 51 50  1  0
 51 52  1  0
 53 64  2  0
 54 52  1  0
 54 59  1  0
 55 63  1  0
 55 65  1  0
 56 62  1  0
 56 58  1  0
 57 63  1  0
 58 57  1  0
 59 58  2  0
 60 61  1  0
 60 54  2  0
 61 56  2  0
 62 55  1  0
 63 53  1  0
 65 67  2  0
 66 65  1  0
 68 66  1  0
 69 78  2  0
 69 74  1  0
 70 66  1  0
 70 74  1  0
 71 70  1  0
 72 73  1  0
 72 71  1  0
 73 69  1  0
 74 75  2  0
 75 76  1  0
 77 76  2  0
 78 77  1  0
 79 53  1  0
 79 80  1  0
 79 89  1  0
 80 83  1  0
 81 85  1  0
 81 80  1  0
 82 81  2  0
 85 84  1  0
 87 85  1  0
 87 88  1  0
 87 86  1  0
 89 92  1  1
 89 90  1  0
 91 89  1  0
M  ISO  4  11 100  19 100  51 101  52 101
M  END
>  <TORSDO>  (76) 
F 21

>  <SCORE>  (76) 
-12.642

>  <name>  (76) 
75

>  <ligand_id>  (76) 
75

>  <original_smiles>  (76) 
[H]c1nc(N([H])C([H])([H])C([H])([H])N([H])C(=O)N2C([H])([H])C([H])([H])C([H])([H])C([H])(n3nc(-c4c([H])c([H])c(Oc5c([H])c([H])c(F)c([H])c5F)c([H])c4[H])c(C(=O)N([H])[H])c3N([H])[H])C2([H])[H])c([H])c([H])c1OC([H])([H])C([H])([H])Oc1c([H])c([H])c2c(c1[H])C([H])([H])N(C(=O)C([H])(N([H])C(=O)C([H])(N([H])C([H])([H])[H])C([H])([H])[H])C(C([H])([H])[H])(C([H])([H])[H])C([H])([H])[H])C([H])(C(=O)N([H])C1([H])c3c([H])c([H])c([H])c([H])c3C([H])([H])C([H])([H])C1([H])[H])C2([H])[H]

>  <smiles>  (76) 
[H]c1nc(N([H])C([H])([H])C([H])([H])N([H])C(=O)N2C([H])([H])C([H])([H])C([H])([H])C([H])(n3nc(-c4c([H])c([H])c(Oc5c([H])c([H])c(F)c([H])c5F)c([H])c4[H])c(C(=O)N([H])[H])c3N([H])[H])C2([H])[H])c([H])c([H])c1OC([H])([H])C([H])([H])Oc1c([H])c([H])c2c(c1[H])C([H])([H])N(C(=O)C([H])(N([H])C(=O)C([H])(N([H])C([H])([H])[H])C([H])([H])[H])C(C([H])([H])[H])(C([H])([H])[H])C([H])([H])[H])C([H])(C(=O)N([H])C1([H])c3c([H])c([H])c([H])c([H])c3C([H])([H])C([H])([H])C1([H])[H])C2([H])[H]

$$$$
76:0:0
     RDKit          3D

 93101  0  0  1  0  0  0  0  0999 V2000
  -28.9630  -24.2730   19.0580 C   0  0  0  0  0  3  0  0  0  0  0  0
  -28.2990  -24.8720   21.0780 C   0  0  0  0  0  3  0  0  0  0  0  0
  -28.5730  -25.4320   19.8570 C   0  0  0  0  0  0  0  0  0  0  0  0
  -28.8710  -23.0650   19.7670 C   0  0  0  0  0  0  0  0  0  0  0  0
  -28.4390  -23.4740   21.0340 N   0  0  0  0  0  0  0  0  0  0  0  0
  -26.9780  -23.0530   23.0060 C   0  0  0  0  0  1  0  0  0  0  0  0
  -29.4540  -22.4580   23.0310 C   0  0  0  0  0  1  0  0  0  0  0  0
  -28.1880  -22.5950   22.1760 C   0  0  0  0  0  3  0  0  0  0  0  0
  -28.5540  -26.8250   19.5240 O   0  0  0  0  0  0  0  0  0  0  0  0
  -24.7240  -31.8220   23.1990 C   0  0  0  0  0  0  0  0  0  0  0  0
  -27.4100  -27.6390   19.6610 C   0  0  0  0  0  0  0  0  0  0  0  0
  -23.5300  -30.5450   21.4560 C   0  0  0  0  0  3  0  0  0  0  0  0
  -24.9970  -29.1830   19.8570 C   0  0  0  0  0  0  0  0  0  0  0  0
  -26.0530  -30.9620   21.2510 C   0  0  0  0  0  2  0  0  0  0  0  0
  -26.1650  -29.6480   20.4770 C   0  0  0  0  0  0  0  0  0  0  0  0
  -27.3740  -28.8870   20.3710 C   0  0  0  0  0  3  0  0  0  0  0  0
  -26.2180  -27.2350   19.0260 C   0  0  0  0  0  3  0  0  0  0  0  0
  -25.0270  -27.9850   19.1230 C   0  0  0  0  0  3  0  0  0  0  0  0
  -23.7360  -30.0120   20.0130 C   0  0  0  0  0  2  0  0  0  0  0  0
  -24.7890  -31.1240   22.0270 N   0  0  0  0  0  0  0  0  0  0  0  0
  -23.6450  -32.0060   23.7810 O   0  0  0  0  0  0  0  0  0  0  0  0
  -22.9250  -29.4180   22.3290 C   0  0  0  0  0  0  0  0  0  0  0  0
  -21.6070  -29.1850   22.1900 N   0  0  0  0  0  0  0  0  0  0  0  0
  -23.6400  -28.7610   23.0900 O   0  0  0  0  0  0  0  0  0  0  0  0
  -21.0860  -29.7710   21.5540 H   0  0  0  0  0  0  0  0  0  0  0  0
  -18.3050  -27.7630   22.5850 C   0  0  0  0  0  0  0  0  0  0  0  0
  -20.8450  -28.1420   22.8810 C   0  0  0  0  0  3  0  0  0  0  0  0
  -21.0250  -26.7710   22.1900 C   0  0  0  0  0  2  0  0  0  0  0  0
  -19.9400  -26.4720   21.1500 C   0  0  0  0  0  2  0  0  0  0  0  0
  -18.5550  -26.4850   21.8000 C   0  0  0  0  0  2  0  0  0  0  0  0
  -19.3790  -28.5480   23.0800 C   0  0  0  0  0  0  0  0  0  0  0  0
  -19.0910  -29.7440   23.7730 C   0  0  0  0  0  3  0  0  0  0  0  0
  -17.7590  -30.1550   23.9780 C   0  0  0  0  0  3  0  0  0  0  0  0
  -16.7000  -29.3660   23.4980 C   0  0  0  0  0  3  0  0  0  0  0  0
  -16.9730  -28.1720   22.8080 C   0  0  0  0  0  3  0  0  0  0  0  0
  -25.9980  -32.4390   23.8530 C   0  0  0  0  0  3  0  0  0  0  0  0
  -25.6600  -33.8010   24.2870 N   0  0  0  0  0  0  0  0  0  0  0  0
  -25.9380  -34.9130   23.5950 C   0  0  0  0  0  0  0  0  0  0  0  0
  -26.5760  -34.9010   22.5380 O   0  0  0  0  0  0  0  0  0  0  0  0
  -25.0870  -33.8820   25.1150 H   0  0  0  0  0  0  0  0  0  0  0  0
  -24.1440  -36.6690   23.4320 C   0  0  0  0  0  1  0  0  0  0  0  0
  -25.4290  -36.2520   24.1640 C   0  0  0  0  0  3  0  0  0  0  0  0
  -27.5630  -37.1560   24.9740 C   0  0  0  0  0  1  0  0  0  0  0  0
  -26.4230  -37.3440   24.0820 N   0  0  0  0  0  0  0  0  0  0  0  0
  -25.9940  -38.2400   24.3000 H   0  0  0  0  0  0  0  0  0  0  0  0
  -26.5460  -31.5910   25.0660 C   0  0  1  0  0  0  0  0  0  0  0  0
  -25.4720  -31.2570   26.1270 C   0  0  0  0  0  1  0  0  0  0  0  0
  -27.1520  -30.2560   24.5730 C   0  0  0  0  0  1  0  0  0  0  0  0
  -27.6870  -32.3610   25.7710 C   0  0  0  0  0  1  0  0  0  0  0  0
  -28.9810  -21.5330   19.3290 C   0  0  0  0  0  2  0  0  0  0  0  0
  -29.8510  -20.4720   20.0280 N   0  0  0  0  0  4  0  0  0  0  0  0
  -30.7990  -20.6300   19.7290 H   0  0  0  0  0  0  0  0  0  0  0  0
  -29.8250  -20.6490   21.0170 H   0  0  0  0  0  0  0  0  0  0  0  0
  -29.5180  -18.9740   19.8200 C   0  0  0  0  0  3  0  0  0  0  0  0
  -30.5470  -17.8270   20.3540 C   0  0  0  0  0  3  0  0  0  0  0  0
  -30.9620  -15.2090   20.1440 C   0  0  0  0  0  0  0  0  0  0  0  0
  -30.7830  -12.8970   19.2050 C   0  0  0  0  0  2  0  0  0  0  0  0
  -29.8420  -12.9230   17.9790 C   0  0  0  0  0  2  0  0  0  0  0  0
  -28.3720  -12.7630   18.4130 C   0  0  0  0  0  2  0  0  0  0  0  0
  -27.9950  -13.6870   19.6020 C   0  0  0  0  0  3  0  0  0  0  0  0
  -29.0530  -13.6370   20.7240 C   0  0  0  0  0  2  0  0  0  0  0  0
  -30.3450  -13.9790   20.1140 N   0  0  0  0  0  0  0  0  0  0  0  0
  -32.1550  -15.3080   19.8460 O   0  0  0  0  0  0  0  0  0  0  0  0
  -30.1710  -16.3370   20.3040 N   0  0  0  0  0  0  0  0  0  0  0  0
  -29.1960  -16.1350   20.4710 H   0  0  0  0  0  0  0  0  0  0  0  0
  -25.6310  -14.3070   20.3850 C   0  0  0  0  0  0  0  0  0  0  0  0
  -24.5520  -13.5460   20.7410 C   0  0  0  0  0  0  0  0  0  0  0  0
  -24.9810  -12.1870   20.6550 C   0  0  0  0  0  0  0  0  0  0  0  0
  -26.6500  -13.4130   20.1010 N   0  0  0  0  0  0  0  0  0  0  0  0
  -26.2670  -12.1310   20.3290 N   0  0  0  0  0  0  0  0  0  0  0  0
  -24.2280  -10.9350   20.8040 C   0  0  0  0  0  0  0  0  0  0  0  0
  -24.6290   -9.9370   21.7190 C   0  0  0  0  0  3  0  0  0  0  0  0
  -23.8760   -8.7510   21.8600 C   0  0  0  0  0  3  0  0  0  0  0  0
  -22.7060   -8.5580   21.0890 C   0  0  0  0  0  0  0  0  0  0  0  0
  -22.3240   -9.5450   20.1640 C   0  0  0  0  0  3  0  0  0  0  0  0
  -23.0770  -10.7210   20.0190 C   0  0  0  0  0  3  0  0  0  0  0  0
  -21.9260   -7.4270   21.1430 O   0  0  0  0  0  0  0  0  0  0  0  0
  -21.8180   -6.6810   22.2880 C   0  0  0  0  0  0  0  0  0  0  0  0
  -21.3250   -7.2290   23.4940 C   0  0  0  0  0  3  0  0  0  0  0  0
  -21.1650   -6.4070   24.6270 C   0  0  0  0  0  3  0  0  0  0  0  0
  -21.4880   -5.0390   24.5560 C   0  0  0  0  0  0  0  0  0  0  0  0
  -21.9740   -4.4910   23.3560 C   0  0  0  0  0  3  0  0  0  0  0  0
  -22.1350   -5.3090   22.2240 C   0  0  0  0  0  0  0  0  0  0  0  0
  -22.5830   -4.7710   21.0630 F   0  0  0  0  0  0  0  0  0  0  0  0
  -21.3270   -4.2450   25.6420 F   0  0  0  0  0  0  0  0  0  0  0  0
  -23.1680  -14.0460   21.0430 C   0  0  0  0  0  0  0  0  0  0  0  0
  -22.4350  -13.3430   21.8980 N   0  0  0  0  0  0  0  0  0  0  0  0
  -22.7490  -15.0970   20.5580 O   0  0  0  0  0  0  0  0  0  0  0  0
  -22.7870  -12.4920   22.3110 H   0  0  0  0  0  0  0  0  0  0  0  0
  -21.5070  -13.6600   22.1410 H   0  0  0  0  0  0  0  0  0  0  0  0
  -25.8250  -15.6800   20.2550 N   0  0  0  0  0  0  0  0  0  0  0  0
  -25.0610  -16.3360   20.3860 H   0  0  0  0  0  0  0  0  0  0  0  0
  -26.6560  -16.1130   19.8780 H   0  0  0  0  0  0  0  0  0  0  0  0
  1  4  2  0
  1  3  1  0
  3  2  2  0
  4  5  1  0
  5  2  1  0
  5  8  1  0
  8  6  1  0
  8  7  1  0
  9 11  1  0
  9  3  1  0
 10 21  2  0
 11 16  1  0
 12 20  1  0
 12 22  1  0
 13 19  1  0
 13 15  1  0
 14 20  1  0
 15 14  1  0
 16 15  2  0
 17 18  1  0
 17 11  2  0
 18 13  2  0
 19 12  1  0
 20 10  1  0
 22 24  2  0
 23 22  1  0
 25 23  1  0
 26 35  2  0
 26 31  1  0
 27 23  1  0
 27 31  1  0
 28 27  1  0
 29 30  1  0
 29 28  1  0
 30 26  1  0
 31 32  2  0
 32 33  1  0
 34 33  2  0
 35 34  1  0
 36 10  1  0
 36 37  1  0
 36 46  1  0
 37 40  1  0
 38 42  1  0
 38 37  1  0
 39 38  2  0
 42 41  1  0
 44 42  1  0
 44 45  1  0
 44 43  1  0
 46 49  1  1
 46 47  1  0
 48 46  1  0
 50  4  1  0
 50 51  1  0
 51 53  1  0
 52 51  1  0
 54 51  1  0
 54 55  2  0
 56 64  1  0
 57 62  1  0
 58 59  1  0
 58 57  1  0
 60 59  1  0
 60 69  1  0
 60 61  1  0
 62 56  1  0
 62 61  1  0
 63 56  2  0
 64 55  1  0
 64 65  1  0
 66 67  2  0
 67 86  1  0
 68 67  1  0
 68 71  1  0
 69 70  1  0
 69 66  1  0
 70 68  2  0
 71 72  1  0
 72 73  2  0
 74 77  1  0
 74 73  1  0
 75 74  2  0
 76 75  1  0
 76 71  2  0
 77 78  1  0
 78 79  1  0
 79 80  2  0
 81 80  1  0
 81 85  1  0
 82 81  2  0
 83 78  2  0
 83 82  1  0
 84 83  1  0
 86 87  1  0
 87 90  1  0
 87 89  1  0
 88 86  2  0
 91 66  1  0
 91 92  1  0
 93 91  1  0
M  ISO  4   3 101   9 101  56 100  64 100
M  END
>  <TORSDO>  (77) 
F 21

>  <SCORE>  (77) 
-10.259

>  <name>  (77) 
76

>  <ligand_id>  (77) 
76

>  <original_smiles>  (77) 
[H]c1c([H])c([H])c2c(c1[H])C([H])([H])C([H])([H])C([H])([H])C2([H])N([H])C(=O)C1([H])N(C(=O)C([H])(N([H])C(=O)C([H])(N([H])C([H])([H])[H])C([H])([H])[H])C(C([H])([H])[H])(C([H])([H])[H])C([H])([H])[H])C([H])([H])c2c([H])c(Oc3c([H])c(C([H])([H])[N+]([H])([H])C([H])([H])C([H])([H])N([H])C(=O)N4C([H])([H])C([H])([H])C([H])([H])C([H])(n5nc(-c6c([H])c([H])c(Oc7c([H])c([H])c(F)c([H])c7F)c([H])c6[H])c(C(=O)N([H])[H])c5N([H])[H])C4([H])[H])n(C([H])(C([H])([H])[H])C([H])([H])[H])c3[H])c([H])c([H])c2C1([H])[H]

>  <smiles>  (77) 
[H]c1c([H])c([H])c2c(c1[H])C([H])([H])C([H])([H])C([H])([H])C2([H])N([H])C(=O)C1([H])N(C(=O)C([H])(N([H])C(=O)C([H])(N([H])C([H])([H])[H])C([H])([H])[H])C(C([H])([H])[H])(C([H])([H])[H])C([H])([H])[H])C([H])([H])c2c([H])c(Oc3c([H])c(C([H])([H])[N+]([H])([H])C([H])([H])C([H])([H])N([H])C(=O)N4C([H])([H])C([H])([H])C([H])([H])C([H])(n5nc(-c6c([H])c([H])c(Oc7c([H])c([H])c(F)c([H])c7F)c([H])c6[H])c(C(=O)N([H])[H])c5N([H])[H])C4([H])[H])n(C([H])(C([H])([H])[H])C([H])([H])[H])c3[H])c([H])c([H])c2C1([H])[H]

$$$$
77:0:0
     RDKit          3D

 95 95  0  0  1  0  0  0  0  0999 V2000
  -25.0290  -30.2040   20.3070 C   0  0  0  0  0  1  0  0  0  0  0  0
  -25.3190  -27.8340   22.0480 C   0  0  0  0  0 15  0  0  0  0  0  0
  -25.5270  -29.2880   17.8290 C   0  0  0  0  0  2  0  0  0  0  0  0
  -24.8500  -30.3400   18.7120 C   0  0  0  0  0  3  0  0  0  0  0  0
  -26.4660  -28.1650   18.5510 C   0  0  0  0  0  1  0  0  0  0  0  0
  -26.4590  -26.4230   20.9030 C   0  0  0  0  0  1  0  0  0  0  0  0
  -23.4230  -30.6140   18.1860 C   0  0  0  0  0  1  0  0  0  0  0  0
  -27.1210  -24.3670   21.4940 N   0  0  0  0  0  2  0  0  0  0  0  0
  -26.5850  -24.2510   22.3400 H   0  0  0  0  0  0  0  0  0  0  0  0
  -28.0420  -24.5750   21.8520 H   0  0  0  0  0  0  0  0  0  0  0  0
  -27.4100  -22.3220   20.9790 C   0  0  0  0  0 15  0  0  0  0  0  0
  -29.7980  -20.6170   21.8060 C   0  0  0  0  0  1  0  0  0  0  0  0
  -28.6970  -20.3050   20.7860 C   0  0  0  0  0  1  0  0  0  0  0  0
  -29.8300  -16.5820   20.2260 C   0  0  0  0  0  0  0  0  0  0  0  0
  -30.3370  -13.8370   19.3190 C   0  0  0  0  0  2  0  0  0  0  0  0
  -29.6080  -12.9630   18.2030 C   0  0  0  0  0  2  0  0  0  0  0  0
  -28.2980  -12.3570   18.7070 C   0  0  0  0  0  2  0  0  0  0  0  0
  -27.6470  -13.3890   19.6370 C   0  0  0  0  0  3  0  0  0  0  0  0
  -28.5760  -14.0440   20.7120 C   0  0  0  0  0  2  0  0  0  0  0  0
  -29.5060  -15.0310   20.0370 N   0  0  0  0  0  0  0  0  0  0  0  0
  -31.0830  -16.3980   20.0410 O   0  0  0  0  0  0  0  0  0  0  0  0
  -29.0380  -18.2020   20.4470 N   0  0  0  0  0  2  0  0  0  0  0  0
  -29.9960  -18.4780   20.2760 H   0  0  0  0  0  0  0  0  0  0  0  0
  -25.3450  -13.8460   20.4940 C   0  0  0  0  0  0  0  0  0  0  0  0
  -24.3050  -13.0590   20.8810 C   0  0  0  0  0  0  0  0  0  0  0  0
  -24.7660  -11.7090   20.7850 C   0  0  0  0  0  0  0  0  0  0  0  0
  -26.3710  -12.9830   20.1810 N   0  0  0  0  0  0  0  0  0  0  0  0
  -26.0460  -11.6820   20.4130 N   0  0  0  0  0  0  0  0  0  0  0  0
  -24.0290  -10.4500   20.9690 C   0  0  0  0  0  0  0  0  0  0  0  0
  -24.4550   -9.4680   21.8910 C   0  0  0  0  0  3  0  0  0  0  0  0
  -23.7080   -8.2830   22.0700 C   0  0  0  0  0  3  0  0  0  0  0  0
  -22.5220   -8.0720   21.3290 C   0  0  0  0  0  0  0  0  0  0  0  0
  -22.1120   -9.0430   20.3990 C   0  0  0  0  0  3  0  0  0  0  0  0
  -22.8580  -10.2190   20.2180 C   0  0  0  0  0  3  0  0  0  0  0  0
  -21.7460   -6.9400   21.4180 O   0  0  0  0  0  0  0  0  0  0  0  0
  -21.6690   -6.2100   22.5770 C   0  0  0  0  0  0  0  0  0  0  0  0
  -21.2200   -6.7800   23.7880 C   0  0  0  0  0  3  0  0  0  0  0  0
  -21.0900   -5.9760   24.9380 C   0  0  0  0  0  3  0  0  0  0  0  0
  -21.3970   -4.6030   24.8770 C   0  0  0  0  0  0  0  0  0  0  0  0
  -21.8380   -4.0330   23.6690 C   0  0  0  0  0  3  0  0  0  0  0  0
  -21.9700   -4.8340   22.5220 C   0  0  0  0  0  0  0  0  0  0  0  0
  -22.3750   -4.2750   21.3560 F   0  0  0  0  0  0  0  0  0  0  0  0
  -21.2650   -3.8290   25.9800 F   0  0  0  0  0  0  0  0  0  0  0  0
  -22.9280  -13.5470   21.2150 C   0  0  0  0  0  0  0  0  0  0  0  0
  -22.2260  -12.8460   22.0960 N   0  0  0  0  0  0  0  0  0  0  0  0
  -22.4910  -14.5930   20.7360 O   0  0  0  0  0  0  0  0  0  0  0  0
  -22.5970  -12.0020   22.5070 H   0  0  0  0  0  0  0  0  0  0  0  0
  -21.3030  -13.1570   22.3640 H   0  0  0  0  0  0  0  0  0  0  0  0
  -25.5070  -15.2220   20.3500 N   0  0  0  0  0  0  0  0  0  0  0  0
  -24.7470  -15.8720   20.5130 H   0  0  0  0  0  0  0  0  0  0  0  0
  -26.3470  -15.6680   20.0020 H   0  0  0  0  0  0  0  0  0  0  0  0
  -25.2890  -24.4240   19.4870 C   0  0  0  0  0  1  0  0  0  0  0  0
  -26.1750  -25.8780   19.9200 C   0  0  0  0  0  3  0  0  0  0  0  0
  -27.6250  -24.9080   19.1870 C   0  0  0  0  0  3  0  0  0  0  0  0
  -28.7680  -25.6380   19.1860 O   0  0  0  0  0  0  0  0  0  0  0  0
  -24.5650  -31.3710   23.1860 C   0  0  0  0  0  0  0  0  0  0  0  0
  -28.0330  -26.5650   18.7900 C   0  0  0  0  0  3  0  0  0  0  0  0
  -23.2540  -29.6650   21.7320 C   0  0  0  0  0  3  0  0  0  0  0  0
  -24.7020  -27.9180   19.5120 C   0  0  0  0  0  3  0  0  0  0  0  0
  -26.2960  -29.7230   21.9710 C   0  0  0  0  0  3  0  0  0  0  0  0
  -26.5540  -28.6330   20.6000 C   0  0  0  0  0  3  0  0  0  0  0  0
  -28.0350  -27.7790   20.1770 C   0  0  0  0  0  2  0  0  0  0  0  0
  -26.5180  -26.2510   17.4940 C   0  0  0  0  0  1  0  0  0  0  0  0
  -24.8270  -26.9140   18.0290 C   0  0  0  0  0  3  0  0  0  0  0  0
  -23.1670  -28.5640   20.2170 C   0  0  0  0  0  2  0  0  0  0  0  0
  -24.7150  -30.2120   22.4530 N   0  0  0  0  0  0  0  0  0  0  0  0
  -23.4490  -31.8100   23.5070 O   0  0  0  0  0  0  0  0  0  0  0  0
  -22.4760  -28.9980   22.7400 C   0  0  0  0  0  0  0  0  0  0  0  0
  -21.1960  -28.8950   22.4560 N   0  0  0  0  0  0  0  0  0  0  0  0
  -23.0550  -28.4670   23.6760 O   0  0  0  0  0  0  0  0  0  0  0  0
  -20.8110  -29.3590   21.6460 H   0  0  0  0  0  0  0  0  0  0  0  0
  -17.9030  -27.6520   22.7130 C   0  0  0  0  0  0  0  0  0  0  0  0
  -20.3860  -27.9420   23.1480 C   0  0  0  0  0  3  0  0  0  0  0  0
  -20.5940  -26.5370   22.5400 C   0  0  0  0  0  2  0  0  0  0  0  0
  -19.5720  -26.2130   21.4560 C   0  0  0  0  0  2  0  0  0  0  0  0
  -18.1600  -26.3100   22.0430 C   0  0  0  0  0  2  0  0  0  0  0  0
  -18.9660  -28.4420   23.1970 C   0  0  0  0  0  0  0  0  0  0  0  0
  -18.7140  -29.7150   23.7540 C   0  0  0  0  0  3  0  0  0  0  0  0
  -17.3980  -30.1920   23.8540 C   0  0  0  0  0  3  0  0  0  0  0  0
  -16.3310  -29.3890   23.4090 C   0  0  0  0  0  3  0  0  0  0  0  0
  -16.5840  -28.1240   22.8430 C   0  0  0  0  0  3  0  0  0  0  0  0
  -25.7970  -32.1630   23.7250 C   0  0  0  0  0  3  0  0  0  0  0  0
  -25.4210  -33.5750   24.0050 N   0  0  0  0  0  0  0  0  0  0  0  0
  -25.7790  -34.6660   23.3070 C   0  0  0  0  0  0  0  0  0  0  0  0
  -26.4870  -34.6090   22.3000 O   0  0  0  0  0  0  0  0  0  0  0  0
  -24.7830  -33.7110   24.7750 H   0  0  0  0  0  0  0  0  0  0  0  0
  -24.0430  -36.4780   23.0090 C   0  0  0  0  0  1  0  0  0  0  0  0
  -25.2780  -36.0410   23.8120 C   0  0  0  0  0  3  0  0  0  0  0  0
  -27.3880  -36.9330   24.7130 C   0  0  0  0  0  1  0  0  0  0  0  0
  -26.2990  -37.1130   23.7550 N   0  0  0  0  0  0  0  0  0  0  0  0
  -25.8770  -38.0220   23.9250 H   0  0  0  0  0  0  0  0  0  0  0  0
  -26.3560  -31.5090   25.0490 C   0  0  1  0  0  0  0  0  0  0  0  0
  -25.2460  -31.2460   26.0920 C   0  0  0  0  0  1  0  0  0  0  0  0
  -27.0630  -30.1610   24.8680 C   0  0  0  0  0  1  0  0  0  0  0  0
  -27.4420  -32.4160   25.6640 C   0  0  0  0  0  1  0  0  0  0  0  0
  3  5  1  0
  3  4  1  0
  4  1  1  0
  7  4  1  0
  8 10  1  0
  8  9  1  0
 13 12  1  0
 14 22  1  0
 15 20  1  0
 16 17  1  0
 16 15  1  0
 18 17  1  0
 18 27  1  0
 18 19  1  0
 20 14  1  0
 20 19  1  0
 21 14  2  0
 23 22  1  0
 24 25  2  0
 25 44  1  0
 26 25  1  0
 26 29  1  0
 27 28  1  0
 27 24  1  0
 28 26  2  0
 29 30  1  0
 30 31  2  0
 32 35  1  0
 32 31  1  0
 33 32  2  0
 34 33  1  0
 34 29  2  0
 35 36  1  0
 36 37  1  0
 37 38  2  0
 39 38  1  0
 39 43  1  0
 40 39  2  0
 41 36  2  0
 41 40  1  0
 42 41  1  0
 44 45  1  0
 45 48  1  0
 45 47  1  0
 46 44  2  0
 49 24  1  0
 49 50  1  0
 51 49  1  0
 52 53  1  0
 53  6  1  0
 54 53  1  0
 55 54  1  0
 56 67  2  0
 57 55  1  0
 57 54  1  0
 57 62  1  0
 58 65  1  0
 58 66  1  0
 58 68  1  0
 59 65  1  0
 60 66  1  0
 61 60  2  0
 62 61  1  0
 63 64  1  0
 64 59  2  0
 66 56  1  0
 68 70  2  0
 69 68  1  0
 71 69  1  0
 72 81  2  0
 72 77  1  0
 73 69  1  0
 73 77  1  0
 74 73  1  0
 75 76  1  0
 75 74  1  0
 76 72  1  0
 77 78  2  0
 78 79  1  0
 80 79  2  0
 81 80  1  0
 82 56  1  0
 82 83  1  0
 82 92  1  0
 83 86  1  0
 84 88  1  0
 84 83  1  0
 85 84  2  0
 88 87  1  0
 90 88  1  0
 90 91  1  0
 90 89  1  0
 92 95  1  1
 92 93  1  0
 94 92  1  0
M  ISO  4  14 100  22 100  54 101  55 101
M  END
>  <TORSDO>  (78) 
F 21

>  <SCORE>  (78) 
-14.109

>  <name>  (78) 
77

>  <ligand_id>  (78) 
77

>  <original_smiles>  (78) 
[H]c1c([H])c([H])c2c(c1[H])C([H])([H])C([H])([H])C([H])([H])C2([H])N([H])C(=O)C1([H])N(C(=O)C([H])(N([H])C(=O)C([H])(N([H])C([H])([H])[H])C([H])([H])[H])C(C([H])([H])[H])(C([H])([H])[H])C([H])([H])[H])C([H])([H])c2c([H])c(OC([H])([H])C([H])(C([H])([H])[H])C3([H])C([H])([H])C([H])(C([H])([H])[H])C([H])([H])C([H])([H])C3([H])[N+]([H])([H])C([H])([H])C([H])(N([H])C(=O)N3C([H])([H])C([H])([H])C([H])([H])C([H])(n4nc(-c5c([H])c([H])c(Oc6c([H])c([H])c(F)c([H])c6F)c([H])c5[H])c(C(=O)N([H])[H])c4N([H])[H])C3([H])[H])C([H])([H])[H])c([H])c([H])c2C1([H])[H]

>  <smiles>  (78) 
[H]c1c([H])c([H])c2c(c1[H])C([H])([H])C([H])([H])C([H])([H])C2([H])N([H])C(=O)C1([H])N(C(=O)C([H])(N([H])C(=O)C([H])(N([H])C([H])([H])[H])C([H])([H])[H])C(C([H])([H])[H])(C([H])([H])[H])C([H])([H])[H])C([H])([H])c2c([H])c(OC([H])([H])C([H])(C([H])([H])[H])C3([H])C([H])([H])C([H])(C([H])([H])[H])C([H])([H])C([H])([H])C3([H])[N+]([H])([H])C([H])([H])C([H])(N([H])C(=O)N3C([H])([H])C([H])([H])C([H])([H])C([H])(n4nc(-c5c([H])c([H])c(Oc6c([H])c([H])c(F)c([H])c6F)c([H])c5[H])c(C(=O)N([H])[H])c4N([H])[H])C3([H])[H])C([H])([H])[H])c([H])c([H])c2C1([H])[H]

$$$$
78:0:0
     RDKit          3D

 92100  0  0  1  0  0  0  0  0999 V2000
  -27.6450  -22.9010   19.2350 C   0  0  0  0  0  3  0  0  0  0  0  0
  -27.7890  -21.4900   19.3470 C   0  0  0  0  0  3  0  0  0  0  0  0
  -28.5840  -23.7960   19.8140 C   0  0  0  0  0  0  0  0  0  0  0  0
  -29.5860  -23.1300   20.6020 C   0  0  0  0  0  0  0  0  0  0  0  0
  -28.8750  -20.9210   20.0480 C   0  0  0  0  0  0  0  0  0  0  0  0
  -30.6430  -23.8980   21.3760 C   0  0  0  0  0  1  0  0  0  0  0  0
  -29.7200  -21.7590   20.7030 N   0  0  0  0  0  0  0  0  0  0  0  0
  -29.1810  -19.5250   19.8870 N   0  0  0  0  0  0  0  0  0  0  0  0
  -28.6430  -19.1390   19.1190 H   0  0  0  0  0  0  0  0  0  0  0  0
  -29.8880  -25.6360   18.5680 C   0  0  0  0  0  1  0  0  0  0  0  0
  -28.5820  -25.3180   19.3220 C   0  0  0  0  0  3  0  0  0  0  0  0
  -28.3430  -26.4730   20.2250 O   0  0  0  0  0  0  0  0  0  0  0  0
  -24.5810  -31.8630   23.2330 C   0  0  0  0  0  0  0  0  0  0  0  0
  -27.2030  -27.3030   20.1480 C   0  0  0  0  0  0  0  0  0  0  0  0
  -23.3700  -30.4700   21.5910 C   0  0  0  0  0  3  0  0  0  0  0  0
  -24.8170  -28.9100   20.1680 C   0  0  0  0  0  0  0  0  0  0  0  0
  -25.9120  -30.7800   21.4030 C   0  0  0  0  0  2  0  0  0  0  0  0
  -25.9900  -29.4070   20.7490 C   0  0  0  0  0  0  0  0  0  0  0  0
  -27.1830  -28.6160   20.7210 C   0  0  0  0  0  3  0  0  0  0  0  0
  -25.9920  -26.8500   19.5730 C   0  0  0  0  0  3  0  0  0  0  0  0
  -24.8200  -27.6340   19.5790 C   0  0  0  0  0  3  0  0  0  0  0  0
  -23.5840  -29.7910   20.2130 C   0  0  0  0  0  2  0  0  0  0  0  0
  -24.6390  -31.0550   22.1330 N   0  0  0  0  0  0  0  0  0  0  0  0
  -23.4970  -32.1420   23.7710 O   0  0  0  0  0  0  0  0  0  0  0  0
  -22.7010  -29.4560   22.5510 C   0  0  0  0  0  0  0  0  0  0  0  0
  -21.3770  -29.2790   22.4200 N   0  0  0  0  0  0  0  0  0  0  0  0
  -23.3740  -28.8290   23.3750 O   0  0  0  0  0  0  0  0  0  0  0  0
  -20.8910  -29.8370   21.7320 H   0  0  0  0  0  0  0  0  0  0  0  0
  -17.9980  -28.0750   22.9100 C   0  0  0  0  0  0  0  0  0  0  0  0
  -20.5550  -28.3410   23.1870 C   0  0  0  0  0  3  0  0  0  0  0  0
  -20.6610  -26.9090   22.6110 C   0  0  0  0  0  2  0  0  0  0  0  0
  -19.5650  -26.5840   21.5910 C   0  0  0  0  0  2  0  0  0  0  0  0
  -18.1800  -26.7260   22.2300 C   0  0  0  0  0  2  0  0  0  0  0  0
  -19.1140  -28.8410   23.3430 C   0  0  0  0  0  0  0  0  0  0  0  0
  -18.8910  -30.1020   23.9320 C   0  0  0  0  0  3  0  0  0  0  0  0
  -17.5860  -30.6040   24.0920 C   0  0  0  0  0  3  0  0  0  0  0  0
  -16.4840  -29.8370   23.6760 C   0  0  0  0  0  3  0  0  0  0  0  0
  -16.6910  -28.5750   23.0900 C   0  0  0  0  0  3  0  0  0  0  0  0
  -25.8650  -32.4880   23.8600 C   0  0  0  0  0  3  0  0  0  0  0  0
  -26.3710  -31.7260   25.1460 C   0  0  1  0  0  0  0  0  0  0  0  0
  -25.2700  -31.5040   26.2110 C   0  0  0  0  0  1  0  0  0  0  0  0
  -26.9460  -30.3400   24.7720 C   0  0  0  0  0  1  0  0  0  0  0  0
  -27.5280  -32.5150   25.8060 C   0  0  0  0  0  1  0  0  0  0  0  0
  -25.5640  -33.8900   24.1840 N   0  0  0  0  0  0  0  0  0  0  0  0
  -25.9010  -34.9400   23.4220 C   0  0  0  0  0  0  0  0  0  0  0  0
  -26.5660  -34.8290   22.3890 O   0  0  0  0  0  0  0  0  0  0  0  0
  -24.9860  -34.0530   24.9950 H   0  0  0  0  0  0  0  0  0  0  0  0
  -24.1810  -36.7410   23.0630 C   0  0  0  0  0  1  0  0  0  0  0  0
  -25.4200  -36.3330   23.8770 C   0  0  0  0  0  3  0  0  0  0  0  0
  -27.5570  -37.2010   24.7140 C   0  0  0  0  0  1  0  0  0  0  0  0
  -26.4560  -37.3820   23.7730 N   0  0  0  0  0  0  0  0  0  0  0  0
  -26.0540  -38.3020   23.9300 H   0  0  0  0  0  0  0  0  0  0  0  0
  -29.3590  -18.4710   20.9390 C   0  0  0  0  0  2  0  0  0  0  0  0
  -30.3550  -17.2520   20.6000 C   0  0  0  0  0  2  0  0  0  0  0  0
  -30.6100  -14.6880   20.3250 C   0  0  0  0  0  0  0  0  0  0  0  0
  -30.3490  -12.4450   19.2600 C   0  0  0  0  0  2  0  0  0  0  0  0
  -29.3990  -12.5650   18.0500 C   0  0  0  0  0  2  0  0  0  0  0  0
  -27.9350  -12.3970   18.4960 C   0  0  0  0  0  2  0  0  0  0  0  0
  -27.5850  -13.2760   19.7260 C   0  0  0  0  0  3  0  0  0  0  0  0
  -28.6520  -13.1620   20.8370 C   0  0  0  0  0  2  0  0  0  0  0  0
  -29.9530  -13.4830   20.2390 N   0  0  0  0  0  0  0  0  0  0  0  0
  -31.7770  -14.7870   19.9400 O   0  0  0  0  0  0  0  0  0  0  0  0
  -29.8830  -15.8110   20.6660 N   0  0  0  0  0  0  0  0  0  0  0  0
  -28.9260  -15.6500   20.9420 H   0  0  0  0  0  0  0  0  0  0  0  0
  -25.2050  -13.8820   20.4630 C   0  0  0  0  0  0  0  0  0  0  0  0
  -24.1380  -13.1150   20.8460 C   0  0  0  0  0  0  0  0  0  0  0  0
  -24.5960  -11.7620   20.8160 C   0  0  0  0  0  0  0  0  0  0  0  0
  -26.2440  -12.9980   20.2250 N   0  0  0  0  0  0  0  0  0  0  0  0
  -25.8840  -11.7190   20.5000 N   0  0  0  0  0  0  0  0  0  0  0  0
  -23.8660  -10.5030   21.0170 C   0  0  0  0  0  0  0  0  0  0  0  0
  -24.3030   -9.5340   21.9480 C   0  0  0  0  0  3  0  0  0  0  0  0
  -23.5710   -8.3440   22.1390 C   0  0  0  0  0  3  0  0  0  0  0  0
  -22.3890   -8.1100   21.3980 C   0  0  0  0  0  0  0  0  0  0  0  0
  -21.9710   -9.0650   20.4560 C   0  0  0  0  0  3  0  0  0  0  0  0
  -22.7030  -10.2510   20.2630 C   0  0  0  0  0  3  0  0  0  0  0  0
  -21.6310   -6.9700   21.4950 O   0  0  0  0  0  0  0  0  0  0  0  0
  -21.5940   -6.2240   22.6450 C   0  0  0  0  0  0  0  0  0  0  0  0
  -21.1870   -6.7800   23.8780 C   0  0  0  0  0  3  0  0  0  0  0  0
  -21.0980   -5.9620   25.0220 C   0  0  0  0  0  3  0  0  0  0  0  0
  -21.4060   -4.5920   24.9360 C   0  0  0  0  0  0  0  0  0  0  0  0
  -21.8040   -4.0360   23.7080 C   0  0  0  0  0  3  0  0  0  0  0  0
  -21.8960   -4.8490   22.5650 C   0  0  0  0  0  0  0  0  0  0  0  0
  -22.2610   -4.3050   21.3780 F   0  0  0  0  0  0  0  0  0  0  0  0
  -21.3120   -3.8040   26.0330 F   0  0  0  0  0  0  0  0  0  0  0  0
  -22.7480  -13.5990   21.1280 C   0  0  0  0  0  0  0  0  0  0  0  0
  -22.0280  -12.9090   22.0070 N   0  0  0  0  0  0  0  0  0  0  0  0
  -22.3090  -14.6220   20.6050 O   0  0  0  0  0  0  0  0  0  0  0  0
  -22.4000  -12.0780   22.4420 H   0  0  0  0  0  0  0  0  0  0  0  0
  -21.0960  -13.2140   22.2430 H   0  0  0  0  0  0  0  0  0  0  0  0
  -25.3720  -15.2520   20.2770 N   0  0  0  0  0  0  0  0  0  0  0  0
  -24.5960  -15.9010   20.3620 H   0  0  0  0  0  0  0  0  0  0  0  0
  -26.2080  -15.6830   19.9050 H   0  0  0  0  0  0  0  0  0  0  0  0
  1  2  2  0
  1  3  1  0
  2  5  1  0
  3  4  2  0
  4  7  1  0
  4  6  1  0
  5  7  2  0
  8  5  1  0
  8 53  1  0
  9  8  1  0
 11 10  1  0
 11  3  1  0
 11 12  1  0
 13 24  2  0
 14 12  1  0
 14 19  1  0
 15 23  1  0
 15 25  1  0
 16 22  1  0
 16 18  1  0
 17 23  1  0
 18 17  1  0
 19 18  2  0
 20 21  1  0
 20 14  2  0
 21 16  2  0
 22 15  1  0
 23 13  1  0
 25 27  2  0
 26 25  1  0
 28 26  1  0
 29 38  2  0
 29 34  1  0
 30 26  1  0
 30 34  1  0
 31 30  1  0
 32 33  1  0
 32 31  1  0
 33 29  1  0
 34 35  2  0
 35 36  1  0
 37 36  2  0
 38 37  1  0
 39 13  1  0
 39 44  1  0
 39 40  1  0
 40 43  1  1
 40 41  1  0
 42 40  1  0
 44 47  1  0
 45 49  1  0
 45 44  1  0
 46 45  2  0
 49 48  1  0
 51 49  1  0
 51 52  1  0
 51 50  1  0
 54 63  1  0
 54 53  1  0
 55 63  1  0
 56 61  1  0
 57 58  1  0
 57 56  1  0
 59 58  1  0
 59 68  1  0
 59 60  1  0
 61 55  1  0
 61 60  1  0
 62 55  2  0
 63 64  1  0
 65 66  2  0
 66 85  1  0
 67 66  1  0
 67 70  1  0
 68 65  1  0
 68 69  1  0
 69 67  2  0
 70 71  1  0
 71 72  2  0
 73 76  1  0
 73 72  1  0
 74 73  2  0
 75 74  1  0
 75 70  2  0
 76 77  1  0
 77 78  1  0
 78 79  2  0
 80 79  1  0
 80 84  1  0
 81 80  2  0
 82 77  2  0
 82 81  1  0
 83 82  1  0
 85 86  1  0
 86 89  1  0
 86 88  1  0
 87 85  2  0
 90 91  1  0
 90 65  1  0
 92 90  1  0
M  ISO  4  11 101  12 101  55 100  63 100
M  END
>  <TORSDO>  (79) 
F 19

>  <SCORE>  (79) 
-14.139

>  <name>  (79) 
78

>  <ligand_id>  (79) 
78

>  <original_smiles>  (79) 
[H]c1c(N([H])C([H])([H])C([H])([H])N([H])C(=O)N2C([H])([H])C([H])([H])C([H])([H])C([H])(n3nc(-c4c([H])c([H])c(Oc5c([H])c([H])c(F)c([H])c5F)c([H])c4[H])c(C(=O)N([H])[H])c3N([H])[H])C2([H])[H])nc(C([H])([H])[H])c(C([H])(Oc2c([H])c([H])c3c(c2[H])C([H])([H])N(C(=O)C([H])(N([H])C(=O)C([H])(N([H])C([H])([H])[H])C([H])([H])[H])C(C([H])([H])[H])(C([H])([H])[H])C([H])([H])[H])C([H])(C(=O)N([H])C2([H])c4c([H])c([H])c([H])c([H])c4C([H])([H])C([H])([H])C2([H])[H])C3([H])[H])C([H])([H])[H])c1[H]

>  <smiles>  (79) 
[H]c1c(N([H])C([H])([H])C([H])([H])N([H])C(=O)N2C([H])([H])C([H])([H])C([H])([H])C([H])(n3nc(-c4c([H])c([H])c(Oc5c([H])c([H])c(F)c([H])c5F)c([H])c4[H])c(C(=O)N([H])[H])c3N([H])[H])C2([H])[H])nc(C([H])([H])[H])c(C([H])(Oc2c([H])c([H])c3c(c2[H])C([H])([H])N(C(=O)C([H])(N([H])C(=O)C([H])(N([H])C([H])([H])[H])C([H])([H])[H])C(C([H])([H])[H])(C([H])([H])[H])C([H])([H])[H])C([H])(C(=O)N([H])C2([H])c4c([H])c([H])c([H])c([H])c4C([H])([H])C([H])([H])C2([H])[H])C3([H])[H])C([H])([H])[H])c1[H]

$$$$
79:0:0
     RDKit          3D

 91 99  0  0  1  0  0  0  0  0999 V2000
  -28.4140  -23.1900   20.2230 C   0  0  0  0  0  3  0  0  0  0  0  0
  -28.5390  -19.0310   19.2110 C   0  0  0  0  0  2  0  0  0  0  0  0
  -30.3910  -19.4060   20.6490 C   0  0  0  0  0  2  0  0  0  0  0  0
  -28.4240  -20.6570   18.8890 C   0  0  0  0  0  2  0  0  0  0  0  0
  -30.3060  -21.0370   20.3180 C   0  0  0  0  0  2  0  0  0  0  0  0
  -29.9250  -18.2770   19.5830 C   0  0  0  0  0  3  0  0  0  0  0  0
  -28.9490  -21.6420   19.9340 N   0  0  1  0  0  4  0  0  0  0  0  0
  -28.4280  -21.2830   20.7220 H   0  0  0  0  0  0  0  0  0  0  0  0
  -30.6910  -15.4620   19.7470 C   0  0  0  0  0  0  0  0  0  0  0  0
  -30.6390  -13.0180   18.9470 C   0  0  0  0  0  2  0  0  0  0  0  0
  -29.6460  -12.8300   17.7730 C   0  0  0  0  0  2  0  0  0  0  0  0
  -28.2190  -12.5820   18.2950 C   0  0  0  0  0  2  0  0  0  0  0  0
  -27.8420  -13.5510   19.4440 C   0  0  0  0  0  3  0  0  0  0  0  0
  -28.9550  -13.6860   20.5050 C   0  0  0  0  0  2  0  0  0  0  0  0
  -30.1580  -14.1560   19.8020 N   0  0  0  0  0  0  0  0  0  0  0  0
  -31.8680  -15.5200   19.3610 O   0  0  0  0  0  0  0  0  0  0  0  0
  -29.8860  -16.6660   19.9300 N   0  0  0  0  0  0  0  0  0  0  0  0
  -28.9800  -16.3980   20.2860 H   0  0  0  0  0  0  0  0  0  0  0  0
  -25.5320  -14.1150   20.3750 C   0  0  0  0  0  0  0  0  0  0  0  0
  -24.4910  -13.3350   20.7980 C   0  0  0  0  0  0  0  0  0  0  0  0
  -24.9390  -11.9830   20.6920 C   0  0  0  0  0  0  0  0  0  0  0  0
  -26.5450  -13.2370   20.0320 N   0  0  0  0  0  0  0  0  0  0  0  0
  -26.2040  -11.9480   20.2870 N   0  0  0  0  0  0  0  0  0  0  0  0
  -24.2130  -10.7220   20.8950 C   0  0  0  0  0  0  0  0  0  0  0  0
  -24.6490   -9.7590   21.8320 C   0  0  0  0  0  3  0  0  0  0  0  0
  -23.9210   -8.5650   22.0250 C   0  0  0  0  0  3  0  0  0  0  0  0
  -22.7420   -8.3240   21.2790 C   0  0  0  0  0  0  0  0  0  0  0  0
  -22.3240   -9.2760   20.3320 C   0  0  0  0  0  3  0  0  0  0  0  0
  -23.0540  -10.4610   20.1370 C   0  0  0  0  0  3  0  0  0  0  0  0
  -21.9860   -7.1820   21.3790 O   0  0  0  0  0  0  0  0  0  0  0  0
  -21.8770   -6.4920   22.5610 C   0  0  0  0  0  0  0  0  0  0  0  0
  -21.3440   -7.0890   23.7250 C   0  0  0  0  0  3  0  0  0  0  0  0
  -21.1860   -6.3240   24.8980 C   0  0  0  0  0  3  0  0  0  0  0  0
  -21.5470   -4.9650   24.9070 C   0  0  0  0  0  0  0  0  0  0  0  0
  -22.0720   -4.3670   23.7470 C   0  0  0  0  0  3  0  0  0  0  0  0
  -22.2320   -5.1290   22.5770 C   0  0  0  0  0  0  0  0  0  0  0  0
  -22.7180   -4.5420   21.4550 F   0  0  0  0  0  0  0  0  0  0  0  0
  -21.3880   -4.2270   26.0310 F   0  0  0  0  0  0  0  0  0  0  0  0
  -23.1220  -13.8170   21.1830 C   0  0  0  0  0  0  0  0  0  0  0  0
  -22.4540  -13.1080   22.0860 N   0  0  0  0  0  0  0  0  0  0  0  0
  -22.6580  -14.8580   20.7210 O   0  0  0  0  0  0  0  0  0  0  0  0
  -22.8440  -12.2640   22.4800 H   0  0  0  0  0  0  0  0  0  0  0  0
  -21.5420  -13.4160   22.3910 H   0  0  0  0  0  0  0  0  0  0  0  0
  -25.6930  -15.4890   20.2240 N   0  0  0  0  0  0  0  0  0  0  0  0
  -24.9280  -16.1360   20.3830 H   0  0  0  0  0  0  0  0  0  0  0  0
  -26.4960  -15.9260   19.7910 H   0  0  0  0  0  0  0  0  0  0  0  0
  -27.6020  -24.4940   22.3190 C   0  0  0  0  0  1  0  0  0  0  0  0
  -28.4870  -22.2010   22.6250 C   0  0  0  0  0  1  0  0  0  0  0  0
  -28.6090  -23.4750   21.7500 C   0  0  0  0  0  3  0  0  0  0  0  0
  -28.4440  -24.6820   19.2750 C   0  0  0  0  0  2  0  0  0  0  0  0
  -28.3670  -26.2770   19.5940 O   0  0  0  0  0  0  0  0  0  0  0  0
  -24.7340  -31.8110   23.0120 C   0  0  0  0  0  0  0  0  0  0  0  0
  -27.2790  -27.2690   19.5800 C   0  0  0  0  0  0  0  0  0  0  0  0
  -23.4970  -30.4740   21.3510 C   0  0  0  0  0  3  0  0  0  0  0  0
  -24.9150  -29.0170   19.7580 C   0  0  0  0  0  0  0  0  0  0  0  0
  -26.0370  -30.8000   21.0860 C   0  0  0  0  0  2  0  0  0  0  0  0
  -26.1140  -29.4430   20.3410 C   0  0  0  0  0  0  0  0  0  0  0  0
  -27.2860  -28.5870   20.2340 C   0  0  0  0  0  3  0  0  0  0  0  0
  -26.0490  -26.9720   18.9560 C   0  0  0  0  0  3  0  0  0  0  0  0
  -24.9010  -27.8020   19.0490 C   0  0  0  0  0  3  0  0  0  0  0  0
  -23.6700  -29.8840   19.9240 C   0  0  0  0  0  2  0  0  0  0  0  0
  -24.7780  -31.0540   21.8700 N   0  0  0  0  0  0  0  0  0  0  0  0
  -23.6650  -32.0320   23.6060 O   0  0  0  0  0  0  0  0  0  0  0  0
  -22.8930  -29.3950   22.2870 C   0  0  0  0  0  0  0  0  0  0  0  0
  -21.5710  -29.1580   22.1850 N   0  0  0  0  0  0  0  0  0  0  0  0
  -23.6150  -28.7750   23.0710 O   0  0  0  0  0  0  0  0  0  0  0  0
  -21.0390  -29.7160   21.5330 H   0  0  0  0  0  0  0  0  0  0  0  0
  -18.2890  -27.7000   22.6760 C   0  0  0  0  0  0  0  0  0  0  0  0
  -20.8240  -28.1400   22.9300 C   0  0  0  0  0  3  0  0  0  0  0  0
  -21.0240  -26.7370   22.3120 C   0  0  0  0  0  2  0  0  0  0  0  0
  -19.9390  -26.3690   21.2940 C   0  0  0  0  0  2  0  0  0  0  0  0
  -18.5560  -26.3900   21.9520 C   0  0  0  0  0  2  0  0  0  0  0  0
  -19.3530  -28.5280   23.1200 C   0  0  0  0  0  0  0  0  0  0  0  0
  -19.0480  -29.7500   23.7600 C   0  0  0  0  0  3  0  0  0  0  0  0
  -17.7100  -30.1450   23.9550 C   0  0  0  0  0  3  0  0  0  0  0  0
  -16.6610  -29.3160   23.5250 C   0  0  0  0  0  3  0  0  0  0  0  0
  -16.9510  -28.0930   22.8950 C   0  0  0  0  0  3  0  0  0  0  0  0
  -26.0190  -32.4530   23.6180 C   0  0  0  0  0  3  0  0  0  0  0  0
  -26.6070  -31.6400   24.8390 C   0  0  1  0  0  0  0  0  0  0  0  0
  -25.5640  -31.3320   25.9400 C   0  0  0  0  0  1  0  0  0  0  0  0
  -27.2040  -30.2940   24.3710 C   0  0  0  0  0  1  0  0  0  0  0  0
  -27.7660  -32.4340   25.4870 C   0  0  0  0  0  1  0  0  0  0  0  0
  -25.6840  -33.8250   24.0410 N   0  0  0  0  0  0  0  0  0  0  0  0
  -25.9710  -34.9330   23.3460 C   0  0  0  0  0  0  0  0  0  0  0  0
  -26.6100  -34.9090   22.2910 O   0  0  0  0  0  0  0  0  0  0  0  0
  -25.1120  -33.9150   24.8680 H   0  0  0  0  0  0  0  0  0  0  0  0
  -24.1920  -36.7060   23.1680 C   0  0  0  0  0  1  0  0  0  0  0  0
  -25.4720  -36.2810   23.9060 C   0  0  0  0  0  3  0  0  0  0  0  0
  -27.6120  -37.1700   24.7200 C   0  0  0  0  0  1  0  0  0  0  0  0
  -26.4760  -37.3640   23.8220 N   0  0  0  0  0  0  0  0  0  0  0  0
  -26.0540  -38.2640   24.0330 H   0  0  0  0  0  0  0  0  0  0  0  0
  1 50  1  0
  1 49  1  0
  2  6  1  0
  4  2  1  0
  4  7  1  0
  5  3  1  0
  6 17  1  0
  6  3  1  0
  7  1  1  0
  7  5  1  0
  7  8  1  1
  9 15  1  0
  9 17  1  0
 10 15  1  0
 11 12  1  0
 11 10  1  0
 13 12  1  0
 13 22  1  0
 13 14  1  0
 15 14  1  0
 16  9  2  0
 17 18  1  0
 19 20  2  0
 20 39  1  0
 21 20  1  0
 21 24  1  0
 22 23  1  0
 22 19  1  0
 23 21  2  0
 24 25  1  0
 25 26  2  0
 27 30  1  0
 27 26  1  0
 28 27  2  0
 29 28  1  0
 29 24  2  0
 30 31  1  0
 31 36  2  0
 31 32  1  0
 32 33  2  0
 33 34  1  0
 34 38  1  0
 35 34  2  0
 36 35  1  0
 37 36  1  0
 39 40  1  0
 40 43  1  0
 40 42  1  0
 41 39  2  0
 44 19  1  0
 44 45  1  0
 46 44  1  0
 49 47  1  0
 49 48  1  0
 50 51  1  0
 52 63  2  0
 53 51  1  0
 53 58  1  0
 54 62  1  0
 54 64  1  0
 55 61  1  0
 55 57  1  0
 56 62  1  0
 57 56  1  0
 58 57  2  0
 59 60  1  0
 59 53  2  0
 60 55  2  0
 61 54  1  0
 62 52  1  0
 64 66  2  0
 65 64  1  0
 67 65  1  0
 68 77  2  0
 68 73  1  0
 69 65  1  0
 69 73  1  0
 70 69  1  0
 71 72  1  0
 71 70  1  0
 72 68  1  0
 73 74  2  0
 74 75  1  0
 76 75  2  0
 77 76  1  0
 78 52  1  0
 78 83  1  0
 78 79  1  0
 79 82  1  1
 79 80  1  0
 81 79  1  0
 83 86  1  0
 84 88  1  0
 84 83  1  0
 85 84  2  0
 88 87  1  0
 90 88  1  0
 90 91  1  0
 90 89  1  0
M  ISO  4   9 100  17 100  50 101  51 101
M  END
>  <TORSDO>  (80) 
F 19

>  <SCORE>  (80) 
-13.445

>  <name>  (80) 
79

>  <ligand_id>  (80) 
79

>  <original_smiles>  (80) 
[H]c1c([H])c([H])c2c(c1[H])C([H])([H])C([H])([H])C([H])([H])C2([H])N([H])C(=O)C1([H])N(C(=O)C([H])(N([H])C(=O)C([H])(N([H])C([H])([H])[H])C([H])([H])[H])C(C([H])([H])[H])(C([H])([H])[H])C([H])([H])[H])C([H])([H])c2c([H])c(OC([H])([H])C([H])(C([H])(C([H])([H])[H])C([H])([H])[H])[N+]3([H])C([H])([H])C([H])([H])C([H])(N([H])C(=O)N4C([H])([H])C([H])([H])C([H])([H])C([H])(n5nc(-c6c([H])c([H])c(Oc7c([H])c([H])c(F)c([H])c7F)c([H])c6[H])c(C(=O)N([H])[H])c5N([H])[H])C4([H])[H])C([H])([H])C3([H])[H])c([H])c([H])c2C1([H])[H]

>  <smiles>  (80) 
[H]c1c([H])c([H])c2c(c1[H])C([H])([H])C([H])([H])C([H])([H])C2([H])N([H])C(=O)C1([H])N(C(=O)C([H])(N([H])C(=O)C([H])(N([H])C([H])([H])[H])C([H])([H])[H])C(C([H])([H])[H])(C([H])([H])[H])C([H])([H])[H])C([H])([H])c2c([H])c(OC([H])([H])C([H])(C([H])(C([H])([H])[H])C([H])([H])[H])[N+]3([H])C([H])([H])C([H])([H])C([H])(N([H])C(=O)N4C([H])([H])C([H])([H])C([H])([H])C([H])(n5nc(-c6c([H])c([H])c(Oc7c([H])c([H])c(F)c([H])c7F)c([H])c6[H])c(C(=O)N([H])[H])c5N([H])[H])C4([H])[H])C([H])([H])C3([H])[H])c([H])c([H])c2C1([H])[H]

$$$$
80:0:0
     RDKit          3D

 95103  0  0  1  0  0  0  0  0999 V2000
  -27.9880  -22.9550   22.5870 C   0  0  0  0  0  2  0  0  0  0  0  0
  -27.7240  -25.2650   22.0620 C   0  0  0  0  0  2  0  0  0  0  0  0
  -28.4730  -23.1780   21.1380 C   0  0  0  0  0  3  0  0  0  0  0  0
  -28.8080  -24.7040   21.1270 C   0  0  0  0  0  3  0  0  0  0  0  0
  -27.4880  -24.2450   23.0910 N   0  0  0  0  0  4  0  0  0  0  0  0
  -27.9710  -24.4870   23.9410 H   0  0  0  0  0  0  0  0  0  0  0  0
  -26.5020  -24.1940   23.2970 H   0  0  0  0  0  0  0  0  0  0  0  0
  -29.5560  -22.1270   20.7000 C   0  0  0  0  0  2  0  0  0  0  0  0
  -27.9660  -20.4150   19.6200 C   0  0  0  0  0  1  0  0  0  0  0  0
  -29.0590  -20.6260   20.6900 C   0  0  0  0  0  3  0  0  0  0  0  0
  -30.1500  -19.6080   20.5170 N   0  0  0  0  0  4  0  0  0  0  0  0
  -30.3780  -19.5500   19.5370 H   0  0  0  0  0  0  0  0  0  0  0  0
  -30.9760  -19.9270   20.9990 H   0  0  0  0  0  0  0  0  0  0  0  0
  -29.8510  -18.2290   21.0230 C   0  0  0  0  0  2  0  0  0  0  0  0
  -30.7050  -17.1270   20.3380 C   0  0  0  0  0  2  0  0  0  0  0  0
  -31.0220  -14.6690   20.2580 C   0  0  0  0  0  0  0  0  0  0  0  0
  -30.6250  -12.5280   19.1080 C   0  0  0  0  0  2  0  0  0  0  0  0
  -29.6830  -12.7890   17.9160 C   0  0  0  0  0  2  0  0  0  0  0  0
  -28.2130  -12.6920   18.3650 C   0  0  0  0  0  2  0  0  0  0  0  0
  -27.9190  -13.5200   19.6430 C   0  0  0  0  0  3  0  0  0  0  0  0
  -28.9790  -13.2700   20.7430 C   0  0  0  0  0  2  0  0  0  0  0  0
  -30.3050  -13.5180   20.1530 N   0  0  0  0  0  0  0  0  0  0  0  0
  -32.1460  -14.8050   19.7690 O   0  0  0  0  0  0  0  0  0  0  0  0
  -30.3550  -15.7430   20.7210 N   0  0  0  0  0  0  0  0  0  0  0  0
  -29.4460  -15.5730   21.1250 H   0  0  0  0  0  0  0  0  0  0  0  0
  -25.5390  -14.1860   20.3640 C   0  0  0  0  0  0  0  0  0  0  0  0
  -24.4560  -13.4390   20.7440 C   0  0  0  0  0  0  0  0  0  0  0  0
  -24.8830  -12.0760   20.7040 C   0  0  0  0  0  0  0  0  0  0  0  0
  -26.5640  -13.2790   20.1300 N   0  0  0  0  0  0  0  0  0  0  0  0
  -26.1700  -12.0060   20.3890 N   0  0  0  0  0  0  0  0  0  0  0  0
  -24.1270  -10.8330   20.8930 C   0  0  0  0  0  0  0  0  0  0  0  0
  -24.5070   -9.8760   21.8590 C   0  0  0  0  0  3  0  0  0  0  0  0
  -23.7510   -8.6950   22.0340 C   0  0  0  0  0  3  0  0  0  0  0  0
  -22.5980   -8.4670   21.2440 C   0  0  0  0  0  0  0  0  0  0  0  0
  -22.2360   -9.4130   20.2690 C   0  0  0  0  0  3  0  0  0  0  0  0
  -22.9940  -10.5840   20.0920 C   0  0  0  0  0  3  0  0  0  0  0  0
  -21.8200   -7.3380   21.3270 O   0  0  0  0  0  0  0  0  0  0  0  0
  -21.6740   -6.6480   22.5050 C   0  0  0  0  0  0  0  0  0  0  0  0
  -21.1540   -7.2590   23.6670 C   0  0  0  0  0  3  0  0  0  0  0  0
  -20.9590   -6.4970   24.8360 C   0  0  0  0  0  3  0  0  0  0  0  0
  -21.2710   -5.1230   24.8410 C   0  0  0  0  0  0  0  0  0  0  0  0
  -21.7850   -4.5130   23.6830 C   0  0  0  0  0  3  0  0  0  0  0  0
  -21.9840   -5.2730   22.5180 C   0  0  0  0  0  0  0  0  0  0  0  0
  -22.4590   -4.6760   21.3980 F   0  0  0  0  0  0  0  0  0  0  0  0
  -21.0780   -4.3890   25.9600 F   0  0  0  0  0  0  0  0  0  0  0  0
  -23.0730  -13.9510   21.0240 C   0  0  0  0  0  0  0  0  0  0  0  0
  -22.3360  -13.2770   21.9000 N   0  0  0  0  0  0  0  0  0  0  0  0
  -22.6590  -14.9860   20.5040 O   0  0  0  0  0  0  0  0  0  0  0  0
  -22.6860  -12.4410   22.3440 H   0  0  0  0  0  0  0  0  0  0  0  0
  -21.4080  -13.6020   22.1310 H   0  0  0  0  0  0  0  0  0  0  0  0
  -25.7330  -15.5510   20.1790 N   0  0  0  0  0  0  0  0  0  0  0  0
  -24.9420  -16.1880   20.2030 H   0  0  0  0  0  0  0  0  0  0  0  0
  -26.5530  -15.9500   19.7410 H   0  0  0  0  0  0  0  0  0  0  0  0
  -28.7760  -25.4250   19.7510 C   0  0  0  0  0  2  0  0  0  0  0  0
  -28.7220  -26.8720   19.8660 O   0  0  0  0  0  0  0  0  0  0  0  0
  -24.6720  -31.7760   23.1290 C   0  0  0  0  0  0  0  0  0  0  0  0
  -27.5030  -27.5410   19.8760 C   0  0  0  0  0  0  0  0  0  0  0  0
  -23.5300  -30.3940   21.4300 C   0  0  0  0  0  3  0  0  0  0  0  0
  -25.0460  -28.9720   19.9520 C   0  0  0  0  0  0  0  0  0  0  0  0
  -26.0440  -30.8480   21.2630 C   0  0  0  0  0  2  0  0  0  0  0  0
  -26.1840  -29.5070   20.5680 C   0  0  0  0  0  0  0  0  0  0  0  0
  -27.4110  -28.8010   20.5250 C   0  0  0  0  0  3  0  0  0  0  0  0
  -26.3400  -27.0360   19.2490 C   0  0  0  0  0  3  0  0  0  0  0  0
  -25.1220  -27.7380   19.2870 C   0  0  0  0  0  3  0  0  0  0  0  0
  -23.7700  -29.7800   20.0260 C   0  0  0  0  0  2  0  0  0  0  0  0
  -24.7670  -31.0190   22.0000 N   0  0  0  0  0  0  0  0  0  0  0  0
  -23.5790  -31.9830   23.6750 O   0  0  0  0  0  0  0  0  0  0  0  0
  -22.9160  -29.3090   22.3430 C   0  0  0  0  0  0  0  0  0  0  0  0
  -21.6010  -29.0790   22.2010 N   0  0  0  0  0  0  0  0  0  0  0  0
  -23.6200  -28.6770   23.1360 O   0  0  0  0  0  0  0  0  0  0  0  0
  -21.0900  -29.6450   21.5370 H   0  0  0  0  0  0  0  0  0  0  0  0
  -18.2710  -27.7490   22.6590 C   0  0  0  0  0  0  0  0  0  0  0  0
  -20.8200  -28.0780   22.9280 C   0  0  0  0  0  3  0  0  0  0  0  0
  -20.9650  -26.6800   22.2840 C   0  0  0  0  0  2  0  0  0  0  0  0
  -19.8690  -26.3700   21.2600 C   0  0  0  0  0  2  0  0  0  0  0  0
  -18.4870  -26.4410   21.9180 C   0  0  0  0  0  2  0  0  0  0  0  0
  -19.3670  -28.5260   23.1200 C   0  0  0  0  0  0  0  0  0  0  0  0
  -19.1100  -29.7510   23.7700 C   0  0  0  0  0  3  0  0  0  0  0  0
  -17.7900  -30.2030   23.9620 C   0  0  0  0  0  3  0  0  0  0  0  0
  -16.7090  -29.4200   23.5200 C   0  0  0  0  0  3  0  0  0  0  0  0
  -16.9500  -28.1950   22.8740 C   0  0  0  0  0  3  0  0  0  0  0  0
  -25.9290  -32.4360   23.7790 C   0  0  0  0  0  3  0  0  0  0  0  0
  -25.5780  -33.8190   24.1240 N   0  0  0  0  0  0  0  0  0  0  0  0
  -25.8940  -34.8910   23.3850 C   0  0  0  0  0  0  0  0  0  0  0  0
  -26.5890  -34.8200   22.3670 O   0  0  0  0  0  0  0  0  0  0  0  0
  -24.9700  -33.9470   24.9200 H   0  0  0  0  0  0  0  0  0  0  0  0
  -24.1260  -36.6370   23.0150 C   0  0  0  0  0  1  0  0  0  0  0  0
  -25.3590  -36.2570   23.8520 C   0  0  0  0  0  3  0  0  0  0  0  0
  -27.4460  -37.1890   24.7490 C   0  0  0  0  0  1  0  0  0  0  0  0
  -26.3650  -37.3400   23.7780 N   0  0  0  0  0  0  0  0  0  0  0  0
  -25.9310  -38.2470   23.9280 H   0  0  0  0  0  0  0  0  0  0  0  0
  -26.4470  -31.6620   25.0540 C   0  0  1  0  0  0  0  0  0  0  0  0
  -25.3430  -31.3800   26.1000 C   0  0  0  0  0  1  0  0  0  0  0  0
  -27.0760  -30.3090   24.6520 C   0  0  0  0  0  1  0  0  0  0  0  0
  -27.5640  -32.4790   25.7490 C   0  0  0  0  0  1  0  0  0  0  0  0
  1  5  1  0
  2  5  1  0
  3  8  1  0
  3  1  1  0
  4 54  1  0
  4  3  1  0
  4  2  1  0
  5  7  1  0
  5  6  1  0
 10  9  1  0
 10  8  1  0
 11 10  1  0
 11 13  1  0
 11 14  1  0
 12 11  1  0
 15 24  1  0
 15 14  1  0
 16 24  1  0
 17 22  1  0
 18 19  1  0
 18 17  1  0
 20 19  1  0
 20 29  1  0
 20 21  1  0
 22 16  1  0
 22 21  1  0
 23 16  2  0
 24 25  1  0
 26 27  2  0
 27 46  1  0
 28 27  1  0
 28 31  1  0
 29 26  1  0
 29 30  1  0
 30 28  2  0
 31 32  1  0
 32 33  2  0
 34 37  1  0
 34 33  1  0
 35 34  2  0
 36 35  1  0
 36 31  2  0
 37 38  1  0
 38 43  2  0
 38 39  1  0
 39 40  2  0
 40 41  1  0
 41 45  1  0
 42 41  2  0
 43 42  1  0
 44 43  1  0
 46 47  1  0
 47 50  1  0
 47 49  1  0
 48 46  2  0
 51 52  1  0
 51 26  1  0
 53 51  1  0
 54 55  1  0
 55 57  1  0
 56 67  2  0
 57 62  1  0
 58 66  1  0
 58 68  1  0
 59 65  1  0
 59 61  1  0
 60 66  1  0
 61 60  1  0
 62 61  2  0
 63 64  1  0
 63 57  2  0
 64 59  2  0
 65 58  1  0
 66 56  1  0
 68 70  2  0
 69 68  1  0
 71 69  1  0
 72 81  2  0
 72 77  1  0
 73 69  1  0
 73 77  1  0
 74 73  1  0
 75 76  1  0
 75 74  1  0
 76 72  1  0
 77 78  2  0
 78 79  1  0
 80 79  2  0
 81 80  1  0
 82 56  1  0
 82 83  1  0
 82 92  1  0
 83 86  1  0
 84 88  1  0
 84 83  1  0
 85 84  2  0
 88 87  1  0
 90 88  1  0
 90 91  1  0
 90 89  1  0
 92 95  1  1
 92 93  1  0
 94 92  1  0
M  ISO  4  16 100  24 100  54 101  55 101
M  END
>  <TORSDO>  (81) 
F 22

>  <SCORE>  (81) 
-11.522

>  <name>  (81) 
80

>  <ligand_id>  (81) 
80

>  <original_smiles>  (81) 
[H]c1c([H])c([H])c2c(c1[H])C([H])([H])C([H])([H])C([H])([H])C2([H])N([H])C(=O)C1([H])N(C(=O)C([H])(N([H])C(=O)C([H])(N([H])C([H])([H])[H])C([H])([H])[H])C(C([H])([H])[H])(C([H])([H])[H])C([H])([H])[H])C([H])([H])c2c([H])c(OC([H])([H])C3([H])C([H])(C([H])([H])C([H])(C([H])([H])[H])[N+]([H])([H])C([H])([H])C([H])([H])N([H])C(=O)N4C([H])([H])C([H])([H])C([H])([H])C([H])(n5nc(-c6c([H])c([H])c(Oc7c([H])c([H])c(F)c([H])c7F)c([H])c6[H])c(C(=O)N([H])[H])c5N([H])[H])C4([H])[H])C([H])([H])[N+]([H])([H])C3([H])[H])c([H])c([H])c2C1([H])[H]

>  <smiles>  (81) 
[H]c1c([H])c([H])c2c(c1[H])C([H])([H])C([H])([H])C([H])([H])C2([H])N([H])C(=O)C1([H])N(C(=O)C([H])(N([H])C(=O)C([H])(N([H])C([H])([H])[H])C([H])([H])[H])C(C([H])([H])[H])(C([H])([H])[H])C([H])([H])[H])C([H])([H])c2c([H])c(OC([H])([H])C3([H])C([H])(C([H])([H])C([H])(C([H])([H])[H])[N+]([H])([H])C([H])([H])C([H])([H])N([H])C(=O)N4C([H])([H])C([H])([H])C([H])([H])C([H])(n5nc(-c6c([H])c([H])c(Oc7c([H])c([H])c(F)c([H])c7F)c([H])c6[H])c(C(=O)N([H])[H])c5N([H])[H])C4([H])[H])C([H])([H])[N+]([H])([H])C3([H])[H])c([H])c([H])c2C1([H])[H]

$$$$
81:0:0
     RDKit          3D

105109  0  0  1  0  0  0  0  0999 V2000
  -27.6070  -22.9160   21.8050 C   0  0  0  0  0  2  0  0  0  0  0  0
  -29.1170  -22.6970   21.7610 C   0  0  0  0  0  2  0  0  0  0  0  0
  -29.4210  -23.5020   19.5430 C   0  0  0  0  0  2  0  0  0  0  0  0
  -27.9860  -24.1390   19.4890 C   0  0  0  0  0  3  0  0  0  0  0  0
  -27.1230  -23.9960   20.8040 C   0  0  0  0  0  3  0  0  0  0  0  0
  -29.4840  -22.2750   20.3880 N   0  0  1  0  0  4  0  0  0  0  0  0
  -28.7860  -21.6270   20.0500 H   0  0  0  0  0  0  0  0  0  0  0  0
  -25.6880  -23.7220   20.4960 N   0  0  0  0  0  4  0  0  0  0  0  0
  -25.5800  -22.7650   20.2000 H   0  0  0  0  0  0  0  0  0  0  0  0
  -25.3730  -24.3040   19.7370 H   0  0  0  0  0  0  0  0  0  0  0  0
  -24.7060  -23.9660   21.5700 C   0  0  0  0  0  2  0  0  0  0  0  0
  -21.8920  -25.1420   17.3200 C   0  0  0  0  0 15  0  0  0  0  0  0
  -21.6900  -23.2840   18.0850 C   0  0  0  0  0 15  0  0  0  0  0  0
  -23.4920  -26.2270   20.1010 C   0  0  0  0  0 15  0  0  0  0  0  0
  -22.4560  -22.9730   19.9220 C   0  0  0  0  0 15  0  0  0  0  0  0
  -23.3630  -24.4270   20.9770 C   0  0  0  0  0  1  0  0  0  0  0  0
  -30.7450  -21.4770   20.3040 C   0  0  0  0  0  2  0  0  0  0  0  0
  -30.3950  -17.7420   21.4040 C   0  0  0  0  0  3  0  0  0  0  0  0
  -30.1920  -17.8340   18.9990 C   0  0  0  0  0  3  0  0  0  0  0  0
  -30.5510  -19.1440   21.4660 C   0  0  0  0  0  0  0  0  0  0  0  0
  -30.3180  -19.2500   19.0380 C   0  0  0  0  0  0  0  0  0  0  0  0
  -30.5160  -19.9370   20.2770 C   0  0  0  0  0  0  0  0  0  0  0  0
  -30.2400  -17.0640   20.1840 C   0  0  0  0  0  0  0  0  0  0  0  0
  -30.7670  -19.7200   22.8570 C   0  0  0  0  0  1  0  0  0  0  0  0
  -30.2610  -19.9960   17.7090 C   0  0  0  0  0  1  0  0  0  0  0  0
  -30.7660  -14.6470   19.6550 C   0  0  0  0  0  0  0  0  0  0  0  0
  -30.5020  -12.3510   18.7770 C   0  0  0  0  0  2  0  0  0  0  0  0
  -29.4400  -12.3660   17.6570 C   0  0  0  0  0  2  0  0  0  0  0  0
  -28.0180  -12.2210   18.2360 C   0  0  0  0  0  2  0  0  0  0  0  0
  -27.7560  -13.1800   19.4280 C   0  0  0  0  0  3  0  0  0  0  0  0
  -28.9180  -13.1170   20.4470 C   0  0  0  0  0  2  0  0  0  0  0  0
  -30.1690  -13.4240   19.7270 N   0  0  0  0  0  0  0  0  0  0  0  0
  -31.8140  -14.8380   19.0300 O   0  0  0  0  0  0  0  0  0  0  0  0
  -30.0740  -15.6450   20.2430 N   0  0  0  0  0  0  0  0  0  0  0  0
  -29.2970  -15.3240   20.8000 H   0  0  0  0  0  0  0  0  0  0  0  0
  -25.5000  -13.8130   20.4980 C   0  0  0  0  0  0  0  0  0  0  0  0
  -24.4540  -13.0510   20.9430 C   0  0  0  0  0  0  0  0  0  0  0  0
  -24.8400  -11.6920   20.7380 C   0  0  0  0  0  0  0  0  0  0  0  0
  -26.4620  -12.9160   20.0560 N   0  0  0  0  0  0  0  0  0  0  0  0
  -26.0750  -11.6300   20.2570 N   0  0  0  0  0  0  0  0  0  0  0  0
  -24.0840  -10.4460   20.9220 C   0  0  0  0  0  0  0  0  0  0  0  0
  -24.5340   -9.4300   21.7940 C   0  0  0  0  0  3  0  0  0  0  0  0
  -23.7810   -8.2490   21.9660 C   0  0  0  0  0  3  0  0  0  0  0  0
  -22.5620   -8.0760   21.2670 C   0  0  0  0  0  0  0  0  0  0  0  0
  -22.1310   -9.0810   20.3820 C   0  0  0  0  0  3  0  0  0  0  0  0
  -22.8840  -10.2530   20.2080 C   0  0  0  0  0  3  0  0  0  0  0  0
  -21.7780   -6.9500   21.3510 O   0  0  0  0  0  0  0  0  0  0  0  0
  -21.6240   -6.2680   22.5310 C   0  0  0  0  0  0  0  0  0  0  0  0
  -21.1300   -6.8950   23.6950 C   0  0  0  0  0  3  0  0  0  0  0  0
  -20.9210   -6.1400   24.8660 C   0  0  0  0  0  3  0  0  0  0  0  0
  -21.1970   -4.7590   24.8740 C   0  0  0  0  0  0  0  0  0  0  0  0
  -21.6840   -4.1330   23.7130 C   0  0  0  0  0  3  0  0  0  0  0  0
  -21.8940   -4.8840   22.5440 C   0  0  0  0  0  0  0  0  0  0  0  0
  -22.3430   -4.2720   21.4220 F   0  0  0  0  0  0  0  0  0  0  0  0
  -20.9900   -4.0310   25.9960 F   0  0  0  0  0  0  0  0  0  0  0  0
  -23.1290  -13.5550   21.4400 C   0  0  0  0  0  0  0  0  0  0  0  0
  -22.5010  -12.8260   22.3550 N   0  0  0  0  0  0  0  0  0  0  0  0
  -22.6670  -14.6280   21.0540 O   0  0  0  0  0  0  0  0  0  0  0  0
  -22.8900  -11.9570   22.6890 H   0  0  0  0  0  0  0  0  0  0  0  0
  -21.6170  -13.1420   22.7290 H   0  0  0  0  0  0  0  0  0  0  0  0
  -25.7060  -15.1870   20.4120 N   0  0  0  0  0  0  0  0  0  0  0  0
  -24.9880  -15.8540   20.6700 H   0  0  0  0  0  0  0  0  0  0  0  0
  -26.5260  -15.6230   20.0110 H   0  0  0  0  0  0  0  0  0  0  0  0
  -28.0430  -25.5820   18.8450 C   0  0  0  0  0  2  0  0  0  0  0  0
  -28.1290  -26.7740   19.6750 O   0  0  0  0  0  0  0  0  0  0  0  0
  -25.2050  -31.6030   24.2970 C   0  0  0  0  0  0  0  0  0  0  0  0
  -27.0450  -27.6080   19.8280 C   0  0  0  0  0  0  0  0  0  0  0  0
  -23.6360  -30.9330   22.5440 C   0  0  0  0  0  3  0  0  0  0  0  0
  -24.5400  -29.7090   20.5890 C   0  0  0  0  0  0  0  0  0  0  0  0
  -26.1800  -30.8690   22.1190 C   0  0  0  0  0  2  0  0  0  0  0  0
  -25.9400  -29.7410   21.1340 C   0  0  0  0  0  0  0  0  0  0  0  0
  -27.0750  -28.7860   20.7930 C   0  0  0  0  0  3  0  0  0  0  0  0
  -25.7430  -27.3050   19.0860 C   0  0  0  0  0  1  0  0  0  0  0  0
  -24.1310  -28.6470   19.5820 C   0  0  0  0  0  1  0  0  0  0  0  0
  -23.5720  -30.7390   21.0280 C   0  0  0  0  0  2  0  0  0  0  0  0
  -25.0390  -31.1300   23.0340 N   0  0  0  0  0  0  0  0  0  0  0  0
  -24.2290  -31.8800   25.0100 O   0  0  0  0  0  0  0  0  0  0  0  0
  -22.9010  -29.7670   23.2490 C   0  0  0  0  0  0  0  0  0  0  0  0
  -21.6180  -29.5860   22.9010 N   0  0  0  0  0  0  0  0  0  0  0  0
  -23.4690  -29.0560   24.0810 O   0  0  0  0  0  0  0  0  0  0  0  0
  -21.2090  -30.2100   22.2180 H   0  0  0  0  0  0  0  0  0  0  0  0
  -18.3010  -28.2090   22.6270 C   0  0  0  0  0  0  0  0  0  0  0  0
  -20.7250  -28.5660   23.4420 C   0  0  0  0  0  3  0  0  0  0  0  0
  -21.0340  -27.1810   22.8310 C   0  0  0  0  0  2  0  0  0  0  0  0
  -20.1860  -26.8710   21.5940 C   0  0  0  0  0  2  0  0  0  0  0  0
  -18.6940  -26.9140   21.9380 C   0  0  0  0  0  2  0  0  0  0  0  0
  -19.2570  -28.9930   23.3210 C   0  0  0  0  0  0  0  0  0  0  0  0
  -18.8520  -30.2100   23.9110 C   0  0  0  0  0  3  0  0  0  0  0  0
  -17.5160  -30.6400   23.8280 C   0  0  0  0  0  3  0  0  0  0  0  0
  -16.5660  -29.8500   23.1560 C   0  0  0  0  0  3  0  0  0  0  0  0
  -16.9590  -28.6390   22.5600 C   0  0  0  0  0  3  0  0  0  0  0  0
  -26.6210  -31.8480   24.8940 C   0  0  0  0  0  3  0  0  0  0  0  0
  -26.6610  -33.2430   25.3480 N   0  0  0  0  0  0  0  0  0  0  0  0
  -27.2240  -34.2510   24.6700 C   0  0  0  0  0  0  0  0  0  0  0  0
  -27.8480  -34.0840   23.6180 O   0  0  0  0  0  0  0  0  0  0  0  0
  -26.1340  -33.4630   26.1800 H   0  0  0  0  0  0  0  0  0  0  0  0
  -25.9980  -36.4380   24.4810 C   0  0  0  0  0  1  0  0  0  0  0  0
  -27.0790  -35.6670   25.2550 C   0  0  0  0  0  3  0  0  0  0  0  0
  -29.3410  -35.9150   26.1790 C   0  0  0  0  0  1  0  0  0  0  0  0
  -28.3410  -36.4410   25.2510 N   0  0  0  0  0  0  0  0  0  0  0  0
  -28.1670  -37.4140   25.4920 H   0  0  0  0  0  0  0  0  0  0  0  0
  -26.9690  -30.8650   26.0770 C   0  0  1  0  0  0  0  0  0  0  0  0
  -25.8760  -30.7960   27.1690 C   0  0  0  0  0  1  0  0  0  0  0  0
  -27.1960  -29.4280   25.5520 C   0  0  0  0  0  1  0  0  0  0  0  0
  -28.2900  -31.3010   26.7500 C   0  0  0  0  0  1  0  0  0  0  0  0
  2  1  1  0
  3  6  1  0
  4 64  1  0
  4  3  1  0
  4  5  1  0
  5  8  1  0
  5  1  1  0
  6  2  1  0
  6  7  1  6
  8 11  1  0
  9  8  1  0
 10  8  1  0
 16 11  1  0
 17  6  1  0
 18 20  1  0
 19 21  2  0
 19 23  1  0
 20 24  1  0
 21 22  1  0
 22 17  1  0
 22 20  2  0
 23 34  1  0
 23 18  2  0
 25 21  1  0
 26 32  1  0
 26 34  1  0
 27 32  1  0
 28 29  1  0
 28 27  1  0
 30 29  1  0
 30 39  1  0
 30 31  1  0
 32 31  1  0
 33 26  2  0
 34 35  1  0
 36 37  2  0
 37 56  1  0
 38 41  1  0
 38 37  1  0
 39 40  1  0
 39 36  1  0
 40 38  2  0
 41 42  1  0
 42 43  2  0
 44 47  1  0
 44 43  1  0
 45 44  2  0
 46 45  1  0
 46 41  2  0
 47 48  1  0
 48 53  2  0
 48 49  1  0
 49 50  2  0
 50 51  1  0
 51 55  1  0
 52 51  2  0
 53 52  1  0
 54 53  1  0
 56 57  1  0
 57 59  1  0
 57 60  1  0
 58 56  2  0
 61 36  1  0
 61 62  1  0
 63 61  1  0
 64 65  1  0
 65 67  1  0
 66 77  2  0
 67 72  2  0
 68 76  1  0
 68 78  1  0
 69 75  1  0
 69 71  2  0
 70 76  1  0
 71 70  1  0
 72 71  1  0
 73 67  1  0
 74 69  1  0
 75 68  1  0
 76 66  1  0
 78 80  2  0
 79 78  1  0
 81 79  1  0
 82 87  1  0
 83 79  1  0
 84 83  1  0
 85 86  1  0
 85 84  1  0
 86 82  1  0
 87 83  1  0
 87 88  2  0
 89 88  1  0
 90 89  2  0
 91 82  2  0
 91 90  1  0
 92 66  1  0
 92 93  1  0
 92102  1  0
 93 96  1  0
 94 98  1  0
 94 93  1  0
 95 94  2  0
 98 97  1  0
100 98  1  0
100101  1  0
100 99  1  0
102105  1  1
102103  1  0
104102  1  0
M  ISO  4  26 100  34 100  64 101  65 101
M  END
>  <TORSDO>  (82) 
F 22

>  <SCORE>  (82) 
-11.571

>  <name>  (82) 
81

>  <ligand_id>  (82) 
81

>  <original_smiles>  (82) 
[H]c1c([H])c([H])c2c(c1[H])C([H])([H])C([H])([H])C([H])([H])C2([H])N([H])C(=O)C1([H])N(C(=O)C([H])(N([H])C(=O)C([H])(N([H])C([H])([H])[H])C([H])([H])[H])C(C([H])([H])[H])(C([H])([H])[H])C([H])([H])[H])C([H])([H])c2c([H])c(OC([H])([H])C3([H])C([H])([N+]([H])([H])C([H])([H])C4([H])C([H])([H])C([H])([H])C([H])([H])C4([H])[H])C([H])([H])C([H])([H])[N+]([H])(C([H])([H])c4c(C([H])([H])[H])c([H])c(N([H])C(=O)N5C([H])([H])C([H])([H])C([H])([H])C([H])(n6nc(-c7c([H])c([H])c(Oc8c([H])c([H])c(F)c([H])c8F)c([H])c7[H])c(C(=O)N([H])[H])c6N([H])[H])C5([H])[H])c([H])c4C([H])([H])[H])C3([H])[H])c([H])c([H])c2C1([H])[H]

>  <smiles>  (82) 
[H]c1c([H])c([H])c2c(c1[H])C([H])([H])C([H])([H])C([H])([H])C2([H])N([H])C(=O)C1([H])N(C(=O)C([H])(N([H])C(=O)C([H])(N([H])C([H])([H])[H])C([H])([H])[H])C(C([H])([H])[H])(C([H])([H])[H])C([H])([H])[H])C([H])([H])c2c([H])c(OC([H])([H])C3([H])C([H])([N+]([H])([H])C([H])([H])C4([H])C([H])([H])C([H])([H])C([H])([H])C4([H])[H])C([H])([H])C([H])([H])[N+]([H])(C([H])([H])c4c(C([H])([H])[H])c([H])c(N([H])C(=O)N5C([H])([H])C([H])([H])C([H])([H])C([H])(n6nc(-c7c([H])c([H])c(Oc8c([H])c([H])c(F)c([H])c8F)c([H])c7[H])c(C(=O)N([H])[H])c6N([H])[H])C5([H])[H])c([H])c4C([H])([H])[H])C3([H])[H])c([H])c([H])c2C1([H])[H]

$$$$
82:0:0
     RDKit          3D

 96105  0  0  1  0  0  0  0  0999 V2000
  -29.4870  -21.9360   19.7280 C   0  0  0  0  0  3  0  0  0  0  0  0
  -27.5680  -22.6460   19.0220 C   0  0  0  0  0  2  0  0  0  0  0  0
  -28.7460  -23.2100   19.3870 C   0  0  0  0  0  0  0  0  0  0  0  0
  -28.8310  -20.6860   19.4340 C   0  0  0  0  0  3  0  0  0  0  0  0
  -27.6330  -21.2480   18.8510 N   0  0  0  0  0  0  0  0  0  0  0  0
  -28.4110  -18.3790   20.7420 C   0  0  0  0  0  2  0  0  0  0  0  0
  -29.1310  -18.8840   22.0070 C   0  0  0  0  0  2  0  0  0  0  0  0
  -31.2120  -18.1750   20.8590 C   0  0  0  0  0  2  0  0  0  0  0  0
  -29.0770  -18.9820   19.4780 C   0  0  0  0  0  3  0  0  0  0  0  0
  -30.4490  -17.9420   19.5030 C   0  0  0  0  0  3  0  0  0  0  0  0
  -30.5620  -19.1820   21.7360 N   0  0  0  0  0  4  0  0  0  0  0  0
  -31.0600  -19.2650   22.6110 H   0  0  0  0  0  0  0  0  0  0  0  0
  -30.6110  -20.0830   21.2930 H   0  0  0  0  0  0  0  0  0  0  0  0
  -31.0610  -15.1340   19.2910 C   0  0  0  0  0  0  0  0  0  0  0  0
  -30.8600  -12.7000   18.5380 C   0  0  0  0  0  2  0  0  0  0  0  0
  -29.8040  -12.5430   17.4150 C   0  0  0  0  0  2  0  0  0  0  0  0
  -28.3930  -12.3760   18.0080 C   0  0  0  0  0  2  0  0  0  0  0  0
  -28.1050  -13.3880   19.1470 C   0  0  0  0  0  3  0  0  0  0  0  0
  -29.2720  -13.4900   20.1470 C   0  0  0  0  0  2  0  0  0  0  0  0
  -30.4620  -13.8670   19.3780 N   0  0  0  0  0  0  0  0  0  0  0  0
  -32.2460  -15.1690   18.9490 O   0  0  0  0  0  0  0  0  0  0  0  0
  -30.2730  -16.3300   19.4040 N   0  0  0  0  0  0  0  0  0  0  0  0
  -29.3160  -16.0690   19.5760 H   0  0  0  0  0  0  0  0  0  0  0  0
  -25.8820  -14.0700   20.2080 C   0  0  0  0  0  0  0  0  0  0  0  0
  -24.8270  -13.3480   20.6870 C   0  0  0  0  0  0  0  0  0  0  0  0
  -25.1890  -11.9710   20.5390 C   0  0  0  0  0  0  0  0  0  0  0  0
  -26.8250  -13.1410   19.8010 N   0  0  0  0  0  0  0  0  0  0  0  0
  -26.4250  -11.8690   20.0610 N   0  0  0  0  0  0  0  0  0  0  0  0
  -24.4040  -10.7530   20.7690 C   0  0  0  0  0  0  0  0  0  0  0  0
  -24.8070   -9.7800   21.7110 C   0  0  0  0  0  3  0  0  0  0  0  0
  -24.0250   -8.6260   21.9290 C   0  0  0  0  0  3  0  0  0  0  0  0
  -22.8240   -8.4370   21.2050 C   0  0  0  0  0  0  0  0  0  0  0  0
  -22.4370   -9.3960   20.2520 C   0  0  0  0  0  3  0  0  0  0  0  0
  -23.2200  -10.5410   20.0340 C   0  0  0  0  0  3  0  0  0  0  0  0
  -22.0150   -7.3320   21.3310 O   0  0  0  0  0  0  0  0  0  0  0  0
  -21.8590   -6.6820   22.5290 C   0  0  0  0  0  0  0  0  0  0  0  0
  -21.3930   -7.3510   23.6820 C   0  0  0  0  0  3  0  0  0  0  0  0
  -21.1850   -6.6320   24.8770 C   0  0  0  0  0  3  0  0  0  0  0  0
  -21.4350   -5.2470   24.9180 C   0  0  0  0  0  0  0  0  0  0  0  0
  -21.8950   -4.5790   23.7700 C   0  0  0  0  0  3  0  0  0  0  0  0
  -22.1060   -5.2950   22.5780 C   0  0  0  0  0  0  0  0  0  0  0  0
  -22.5300   -4.6450   21.4690 F   0  0  0  0  0  0  0  0  0  0  0  0
  -21.2290   -4.5550   26.0620 F   0  0  0  0  0  0  0  0  0  0  0  0
  -23.5100  -13.9000   21.1470 C   0  0  0  0  0  0  0  0  0  0  0  0
  -22.8670  -13.2400   22.1010 N   0  0  0  0  0  0  0  0  0  0  0  0
  -23.0680  -14.9560   20.6910 O   0  0  0  0  0  0  0  0  0  0  0  0
  -23.2410  -12.3860   22.4900 H   0  0  0  0  0  0  0  0  0  0  0  0
  -21.9880  -13.5940   22.4500 H   0  0  0  0  0  0  0  0  0  0  0  0
  -26.1100  -15.4310   20.0510 N   0  0  0  0  0  0  0  0  0  0  0  0
  -25.3340  -16.0710   20.1760 H   0  0  0  0  0  0  0  0  0  0  0  0
  -26.7770  -15.7680   19.3730 H   0  0  0  0  0  0  0  0  0  0  0  0
  -27.0060  -19.7490   16.9130 C   0  0  0  0  0  1  0  0  0  0  0  0
  -25.4080  -21.5220   17.5970 C   0  0  0  0  0  1  0  0  0  0  0  0
  -26.5160  -20.5710   18.1230 C   0  0  0  0  0  3  0  0  0  0  0  0
  -29.0750  -24.8430   19.1170 C   0  0  0  0  0  2  0  0  0  0  0  0
  -28.7050  -26.1670   19.8780 O   0  0  0  0  0  0  0  0  0  0  0  0
  -24.6310  -31.5320   22.8650 C   0  0  0  0  0  0  0  0  0  0  0  0
  -27.5920  -27.0880   19.7200 C   0  0  0  0  0  0  0  0  0  0  0  0
  -23.5640  -30.1170   21.1510 C   0  0  0  0  0  3  0  0  0  0  0  0
  -25.1500  -28.6940   19.6880 C   0  0  0  0  0  0  0  0  0  0  0  0
  -26.0980  -30.5490   21.0530 C   0  0  0  0  0  2  0  0  0  0  0  0
  -26.2790  -29.1910   20.3480 C   0  0  0  0  0  0  0  0  0  0  0  0
  -27.4900  -28.3980   20.3530 C   0  0  0  0  0  3  0  0  0  0  0  0
  -26.4340  -26.6990   19.0160 C   0  0  0  0  0  3  0  0  0  0  0  0
  -25.2410  -27.4650   19.0090 C   0  0  0  0  0  3  0  0  0  0  0  0
  -23.8580  -29.5060   19.7510 C   0  0  0  0  0  2  0  0  0  0  0  0
  -24.7830  -30.7540   21.7470 N   0  0  0  0  0  0  0  0  0  0  0  0
  -23.5210  -31.7160   23.3840 O   0  0  0  0  0  0  0  0  0  0  0  0
  -22.9330  -29.0340   22.0620 C   0  0  0  0  0  0  0  0  0  0  0  0
  -21.6140  -28.8050   21.9170 N   0  0  0  0  0  0  0  0  0  0  0  0
  -23.6290  -28.4080   22.8630 O   0  0  0  0  0  0  0  0  0  0  0  0
  -21.1000  -29.3850   21.2660 H   0  0  0  0  0  0  0  0  0  0  0  0
  -18.3000  -27.4210   22.3650 C   0  0  0  0  0  0  0  0  0  0  0  0
  -20.8430  -27.7870   22.6390 C   0  0  0  0  0  3  0  0  0  0  0  0
  -21.0060  -26.3900   21.9900 C   0  0  0  0  0  2  0  0  0  0  0  0
  -19.9140  -26.0670   20.9620 C   0  0  0  0  0  2  0  0  0  0  0  0
  -18.5340  -26.1180   21.6130 C   0  0  0  0  0  2  0  0  0  0  0  0
  -19.3830  -28.2070   22.8380 C   0  0  0  0  0  0  0  0  0  0  0  0
  -19.1030  -29.4190   23.5080 C   0  0  0  0  0  3  0  0  0  0  0  0
  -17.7770  -29.8410   23.7120 C   0  0  0  0  0  3  0  0  0  0  0  0
  -16.7110  -29.0480   23.2460 C   0  0  0  0  0  3  0  0  0  0  0  0
  -16.9730  -27.8360   22.5850 C   0  0  0  0  0  3  0  0  0  0  0  0
  -25.8540  -32.2310   23.5420 C   0  0  0  0  0  3  0  0  0  0  0  0
  -26.4150  -31.4310   24.7830 C   0  0  1  0  0  0  0  0  0  0  0  0
  -25.3350  -31.0360   25.8180 C   0  0  0  0  0  1  0  0  0  0  0  0
  -27.1190  -30.1310   24.3300 C   0  0  0  0  0  1  0  0  0  0  0  0
  -27.4840  -32.2760   25.5190 C   0  0  0  0  0  1  0  0  0  0  0  0
  -25.4280  -33.5750   23.9610 N   0  0  0  0  0  0  0  0  0  0  0  0
  -25.6930  -34.7050   23.2940 C   0  0  0  0  0  0  0  0  0  0  0  0
  -26.3890  -34.7350   22.2740 O   0  0  0  0  0  0  0  0  0  0  0  0
  -24.8130  -33.6220   24.7600 H   0  0  0  0  0  0  0  0  0  0  0  0
  -23.8380  -36.3890   23.0350 C   0  0  0  0  0  1  0  0  0  0  0  0
  -25.0940  -36.0160   23.8410 C   0  0  0  0  0  3  0  0  0  0  0  0
  -27.1370  -37.0030   24.7810 C   0  0  0  0  0  1  0  0  0  0  0  0
  -26.0420  -37.1520   23.8270 N   0  0  0  0  0  0  0  0  0  0  0  0
  -25.5610  -38.0230   24.0360 H   0  0  0  0  0  0  0  0  0  0  0  0
  2  3  1  0
  3  1  2  0
  4  9  1  0
  4  1  1  0
  5  2  1  0
  5  4  1  0
  6  7  1  0
  8 11  1  0
  9 10  1  0
  9  6  1  0
 10 22  1  0
 10  8  1  0
 11  7  1  0
 11 12  1  0
 13 11  1  0
 14 20  1  0
 14 22  1  0
 15 20  1  0
 16 17  1  0
 16 15  1  0
 18 17  1  0
 18 27  1  0
 18 19  1  0
 20 19  1  0
 21 14  2  0
 22 23  1  0
 24 25  2  0
 25 44  1  0
 26 25  1  0
 26 29  1  0
 27 28  1  0
 27 24  1  0
 28 26  2  0
 29 30  1  0
 30 31  2  0
 32 35  1  0
 32 31  1  0
 33 32  2  0
 34 33  1  0
 34 29  2  0
 35 36  1  0
 36 41  2  0
 36 37  1  0
 37 38  2  0
 38 39  1  0
 39 43  1  0
 40 39  2  0
 41 40  1  0
 42 41  1  0
 44 45  1  0
 45 48  1  0
 45 47  1  0
 46 44  2  0
 49 50  1  0
 49 24  1  0
 51 49  1  0
 52 54  1  0
 53 54  1  0
 54  5  1  0
 55  3  1  0
 55 56  1  0
 57 68  2  0
 58 56  1  0
 58 63  1  0
 59 67  1  0
 59 69  1  0
 60 66  1  0
 60 62  1  0
 61 67  1  0
 62 63  2  0
 62 61  1  0
 64 58  2  0
 65 64  1  0
 65 60  2  0
 66 59  1  0
 67 57  1  0
 69 71  2  0
 70 69  1  0
 72 70  1  0
 73 82  2  0
 73 78  1  0
 74 70  1  0
 74 78  1  0
 75 74  1  0
 76 77  1  0
 76 75  1  0
 77 73  1  0
 78 79  2  0
 79 80  1  0
 81 80  2  0
 82 81  1  0
 83 57  1  0
 83 88  1  0
 83 84  1  0
 84 87  1  1
 84 85  1  0
 86 84  1  0
 88 91  1  0
 89 93  1  0
 89 88  1  0
 90 89  2  0
 93 92  1  0
 95 93  1  0
 95 96  1  0
 95 94  1  0
M  ISO  4  14 100  22 100  55 101  56 101
M  END
>  <TORSDO>  (83) 
F 19

>  <SCORE>  (83) 
-11.428

>  <name>  (83) 
82

>  <ligand_id>  (83) 
82

>  <original_smiles>  (83) 
[H]c1c([H])c([H])c2c(c1[H])C([H])([H])C([H])([H])C([H])([H])C2([H])N([H])C(=O)C1([H])N(C(=O)C([H])(N([H])C(=O)C([H])(N([H])C([H])([H])[H])C([H])([H])[H])C(C([H])([H])[H])(C([H])([H])[H])C([H])([H])[H])C([H])([H])c2c([H])c(OC([H])([H])c3c([H])c(C4([H])C([H])([H])C([H])([H])[N+]([H])([H])C([H])([H])C4([H])N([H])C(=O)N4C([H])([H])C([H])([H])C([H])([H])C([H])(n5nc(-c6c([H])c([H])c(Oc7c([H])c([H])c(F)c([H])c7F)c([H])c6[H])c(C(=O)N([H])[H])c5N([H])[H])C4([H])[H])n(C([H])(C([H])([H])[H])C([H])([H])[H])c3[H])c([H])c([H])c2C1([H])[H]

>  <smiles>  (83) 
[H]c1c([H])c([H])c2c(c1[H])C([H])([H])C([H])([H])C([H])([H])C2([H])N([H])C(=O)C1([H])N(C(=O)C([H])(N([H])C(=O)C([H])(N([H])C([H])([H])[H])C([H])([H])[H])C(C([H])([H])[H])(C([H])([H])[H])C([H])([H])[H])C([H])([H])c2c([H])c(OC([H])([H])c3c([H])c(C4([H])C([H])([H])C([H])([H])[N+]([H])([H])C([H])([H])C4([H])N([H])C(=O)N4C([H])([H])C([H])([H])C([H])([H])C([H])(n5nc(-c6c([H])c([H])c(Oc7c([H])c([H])c(F)c([H])c7F)c([H])c6[H])c(C(=O)N([H])[H])c5N([H])[H])C4([H])[H])n(C([H])(C([H])([H])[H])C([H])([H])[H])c3[H])c([H])c([H])c2C1([H])[H]

$$$$
83:0:0
     RDKit          3D

 88 96  0  0  1  0  0  0  0  0999 V2000
  -28.3100  -21.9530   21.2870 C   0  0  0  0  0  2  0  0  0  0  0  0
  -28.9000  -22.0340   19.0050 C   0  0  0  0  0  2  0  0  0  0  0  0
  -29.0320  -20.4710   21.4260 C   0  0  0  0  0  2  0  0  0  0  0  0
  -29.6680  -20.5940   19.1520 C   0  0  0  0  0  2  0  0  0  0  0  0
  -28.7980  -23.0720   20.2270 C   0  0  0  0  0  3  0  0  0  0  0  0
  -29.1890  -19.4520   20.1780 C   0  0  0  0  0  3  0  0  0  0  0  0
  -31.3890  -18.3090   21.1120 C   0  0  0  0  0  1  0  0  0  0  0  0
  -30.1650  -18.0020   20.2320 C   0  0  0  0  0  0  0  0  0  0  0  0
  -30.5110  -15.1950   20.2030 C   0  0  0  0  0  0  0  0  0  0  0  0
  -30.3990  -12.8100   19.2860 C   0  0  0  0  0  2  0  0  0  0  0  0
  -29.4450  -12.7060   18.0720 C   0  0  0  0  0  2  0  0  0  0  0  0
  -28.0010  -12.4600   18.5470 C   0  0  0  0  0  2  0  0  0  0  0  0
  -27.6010  -13.3950   19.7170 C   0  0  0  0  0  3  0  0  0  0  0  0
  -28.6800  -13.4700   20.8170 C   0  0  0  0  0  2  0  0  0  0  0  0
  -29.9170  -13.9240   20.1670 N   0  0  0  0  0  0  0  0  0  0  0  0
  -31.7050  -15.2180   19.8860 O   0  0  0  0  0  0  0  0  0  0  0  0
  -29.7750  -16.4340   20.3900 N   0  0  0  0  0  4  0  0  0  0  0  0
  -28.8020  -16.2760   20.6090 H   0  0  0  0  0  0  0  0  0  0  0  0
  -25.2490  -13.9420   20.5460 C   0  0  0  0  0  0  0  0  0  0  0  0
  -24.1980  -13.1550   20.9280 C   0  0  0  0  0  0  0  0  0  0  0  0
  -24.6640  -11.8070   20.8520 C   0  0  0  0  0  0  0  0  0  0  0  0
  -26.2850  -13.0740   20.2530 N   0  0  0  0  0  0  0  0  0  0  0  0
  -25.9460  -11.7830   20.5030 N   0  0  0  0  0  0  0  0  0  0  0  0
  -23.9450  -10.5390   21.0310 C   0  0  0  0  0  0  0  0  0  0  0  0
  -24.3810   -9.5660   21.9570 C   0  0  0  0  0  3  0  0  0  0  0  0
  -23.6570   -8.3650   22.1260 C   0  0  0  0  0  3  0  0  0  0  0  0
  -22.4860   -8.1290   21.3680 C   0  0  0  0  0  0  0  0  0  0  0  0
  -22.0710   -9.0910   20.4300 C   0  0  0  0  0  3  0  0  0  0  0  0
  -22.7940  -10.2830   20.2600 C   0  0  0  0  0  3  0  0  0  0  0  0
  -21.7350   -6.9810   21.4460 O   0  0  0  0  0  0  0  0  0  0  0  0
  -21.6540   -6.2520   22.6060 C   0  0  0  0  0  0  0  0  0  0  0  0
  -21.1610   -6.8100   23.8050 C   0  0  0  0  0  3  0  0  0  0  0  0
  -21.0310   -6.0070   24.9550 C   0  0  0  0  0  3  0  0  0  0  0  0
  -21.3830   -4.6450   24.9060 C   0  0  0  0  0  0  0  0  0  0  0  0
  -21.8690   -4.0840   23.7110 C   0  0  0  0  0  3  0  0  0  0  0  0
  -22.0010   -4.8870   22.5640 C   0  0  0  0  0  0  0  0  0  0  0  0
  -22.4510   -4.3370   21.4090 F   0  0  0  0  0  0  0  0  0  0  0  0
  -21.2510   -3.8700   26.0090 F   0  0  0  0  0  0  0  0  0  0  0  0
  -22.8080  -13.6230   21.2470 C   0  0  0  0  0  0  0  0  0  0  0  0
  -22.1070  -12.9070   22.1200 N   0  0  0  0  0  0  0  0  0  0  0  0
  -22.3560  -14.6600   20.7620 O   0  0  0  0  0  0  0  0  0  0  0  0
  -22.4880  -12.0670   22.5300 H   0  0  0  0  0  0  0  0  0  0  0  0
  -21.1770  -13.2010   22.3790 H   0  0  0  0  0  0  0  0  0  0  0  0
  -25.4040  -15.3170   20.3940 N   0  0  0  0  0  0  0  0  0  0  0  0
  -24.6350  -15.9640   20.5370 H   0  0  0  0  0  0  0  0  0  0  0  0
  -26.2290  -15.7640   20.0150 H   0  0  0  0  0  0  0  0  0  0  0  0
  -27.9160  -24.5650   19.9960 C   0  0  0  0  0  2  0  0  0  0  0  0
  -28.2000  -26.1150   20.2550 O   0  0  0  0  0  0  0  0  0  0  0  0
  -24.6320  -31.9290   23.2460 C   0  0  0  0  0  0  0  0  0  0  0  0
  -27.1760  -27.1580   20.1830 C   0  0  0  0  0  0  0  0  0  0  0  0
  -23.4280  -30.5460   21.6020 C   0  0  0  0  0  3  0  0  0  0  0  0
  -24.8670  -28.9680   20.1590 C   0  0  0  0  0  0  0  0  0  0  0  0
  -25.9870  -30.7850   21.4350 C   0  0  0  0  0  2  0  0  0  0  0  0
  -26.0520  -29.3900   20.7750 C   0  0  0  0  0  0  0  0  0  0  0  0
  -27.2040  -28.5010   20.7670 C   0  0  0  0  0  3  0  0  0  0  0  0
  -25.9640  -26.8640   19.5200 C   0  0  0  0  0  3  0  0  0  0  0  0
  -24.8410  -27.7230   19.5140 C   0  0  0  0  0  3  0  0  0  0  0  0
  -23.6440  -29.8750   20.2180 C   0  0  0  0  0  2  0  0  0  0  0  0
  -24.7030  -31.1100   22.1500 N   0  0  0  0  0  0  0  0  0  0  0  0
  -23.5450  -32.2120   23.7760 O   0  0  0  0  0  0  0  0  0  0  0  0
  -22.7440  -29.5370   22.5610 C   0  0  0  0  0  0  0  0  0  0  0  0
  -21.4160  -29.3640   22.4330 N   0  0  0  0  0  0  0  0  0  0  0  0
  -23.4150  -28.9130   23.3880 O   0  0  0  0  0  0  0  0  0  0  0  0
  -20.9280  -29.9240   21.7470 H   0  0  0  0  0  0  0  0  0  0  0  0
  -18.0390  -28.1350   22.9180 C   0  0  0  0  0  0  0  0  0  0  0  0
  -20.5960  -28.4180   23.1980 C   0  0  0  0  0  3  0  0  0  0  0  0
  -20.7100  -26.9870   22.6260 C   0  0  0  0  0  2  0  0  0  0  0  0
  -19.6160  -26.6530   21.6070 C   0  0  0  0  0  2  0  0  0  0  0  0
  -18.2300  -26.7880   22.2420 C   0  0  0  0  0  2  0  0  0  0  0  0
  -19.1490  -28.9070   23.3530 C   0  0  0  0  0  0  0  0  0  0  0  0
  -18.9150  -30.1680   23.9470 C   0  0  0  0  0  3  0  0  0  0  0  0
  -17.6050  -30.6550   24.1080 C   0  0  0  0  0  3  0  0  0  0  0  0
  -16.5100  -29.8790   23.6900 C   0  0  0  0  0  3  0  0  0  0  0  0
  -16.7270  -28.6200   23.1020 C   0  0  0  0  0  3  0  0  0  0  0  0
  -25.9080  -32.5660   23.8750 C   0  0  0  0  0  3  0  0  0  0  0  0
  -25.6000  -33.9650   24.2140 N   0  0  0  0  0  0  0  0  0  0  0  0
  -25.9050  -35.0230   23.4520 C   0  0  0  0  0  0  0  0  0  0  0  0
  -26.5410  -34.9270   22.4000 O   0  0  0  0  0  0  0  0  0  0  0  0
  -25.0410  -34.1160   25.0400 H   0  0  0  0  0  0  0  0  0  0  0  0
  -24.1500  -36.8070   23.1810 C   0  0  0  0  0  1  0  0  0  0  0  0
  -25.4320  -36.4110   23.9330 C   0  0  0  0  0  3  0  0  0  0  0  0
  -27.5930  -37.3170   24.6660 C   0  0  0  0  0  1  0  0  0  0  0  0
  -26.4510  -37.4720   23.7700 N   0  0  0  0  0  0  0  0  0  0  0  0
  -26.0450  -38.3900   23.9310 H   0  0  0  0  0  0  0  0  0  0  0  0
  -26.4190  -31.7950   25.1540 C   0  0  1  0  0  0  0  0  0  0  0  0
  -25.3190  -31.5600   26.2170 C   0  0  0  0  0  1  0  0  0  0  0  0
  -27.0010  -30.4170   24.7660 C   0  0  0  0  0  1  0  0  0  0  0  0
  -27.5700  -32.5860   25.8180 C   0  0  0  0  0  1  0  0  0  0  0  0
  1  3  1  0
  2  4  1  0
  2  5  1  0
  4  6  1  0
  5 47  1  0
  5  1  1  0
  6  8  1  0
  6  3  1  0
  8 17  2  0
  8  7  1  0
  9 17  1  0
 10 15  1  0
 11 12  1  0
 11 10  1  0
 13 12  1  0
 13 22  1  0
 13 14  1  0
 15  9  1  0
 15 14  1  0
 16  9  2  0
 17 18  1  0
 19 20  2  0
 20 39  1  0
 21 20  1  0
 21 24  1  0
 22 23  1  0
 22 19  1  0
 23 21  2  0
 24 25  1  0
 25 26  2  0
 27 30  1  0
 27 26  1  0
 28 27  2  0
 29 28  1  0
 29 24  2  0
 30 31  1  0
 31 32  1  0
 32 33  2  0
 34 33  1  0
 34 38  1  0
 35 34  2  0
 36 31  2  0
 36 35  1  0
 37 36  1  0
 39 40  1  0
 40 43  1  0
 40 42  1  0
 41 39  2  0
 44 45  1  0
 44 19  1  0
 46 44  1  0
 47 48  1  0
 49 60  2  0
 50 48  1  0
 50 55  1  0
 51 59  1  0
 51 61  1  0
 52 58  1  0
 52 54  1  0
 53 59  1  0
 54 53  1  0
 55 54  2  0
 56 50  2  0
 57 56  1  0
 57 52  2  0
 58 51  1  0
 59 49  1  0
 61 63  2  0
 62 61  1  0
 64 62  1  0
 65 74  2  0
 65 70  1  0
 66 62  1  0
 66 70  1  0
 67 66  1  0
 68 69  1  0
 68 67  1  0
 69 65  1  0
 70 71  2  0
 71 72  1  0
 73 72  2  0
 74 73  1  0
 75 49  1  0
 75 76  1  0
 75 85  1  0
 76 79  1  0
 77 81  1  0
 77 76  1  0
 78 77  2  0
 81 80  1  0
 83 84  1  0
 83 81  1  0
 83 82  1  0
 85 88  1  1
 85 86  1  0
 87 85  1  0
M  ISO  4   9 100  17 100  47 101  48 101
M  END
>  <TORSDO>  (84) 
F 18

>  <SCORE>  (84) 
-15.615

>  <name>  (84) 
83

>  <ligand_id>  (84) 
83

>  <original_smiles>  (84) 
[H]c1c([H])c([H])c2c(c1[H])C([H])([H])C([H])([H])C([H])([H])C2([H])N([H])C(=O)C1([H])N(C(=O)C([H])(N([H])C(=O)C([H])(N([H])C([H])([H])[H])C([H])([H])[H])C(C([H])([H])[H])(C([H])([H])[H])C([H])([H])[H])C([H])([H])c2c([H])c(OC([H])([H])C3([H])C([H])([H])C([H])([H])C([H])(C([H])(N([H])C(=O)N4C([H])([H])C([H])([H])C([H])([H])C([H])(n5nc(-c6c([H])c([H])c(Oc7c([H])c([H])c(F)c([H])c7F)c([H])c6[H])c(C(=O)N([H])[H])c5N([H])[H])C4([H])[H])C([H])([H])[H])C([H])([H])C3([H])[H])c([H])c([H])c2C1([H])[H]

>  <smiles>  (84) 
[H]c1c([H])c([H])c2c(c1[H])C([H])([H])C([H])([H])C([H])([H])C2([H])N([H])C(=O)C1([H])N(C(=O)C([H])(N([H])C(=O)C([H])(N([H])C([H])([H])[H])C([H])([H])[H])C(C([H])([H])[H])(C([H])([H])[H])C([H])([H])[H])C([H])([H])c2c([H])c(OC([H])([H])C3([H])C([H])([H])C([H])([H])C([H])(C([H])(N([H])C(=O)N4C([H])([H])C([H])([H])C([H])([H])C([H])(n5nc(-c6c([H])c([H])c(Oc7c([H])c([H])c(F)c([H])c7F)c([H])c6[H])c(C(=O)N([H])[H])c5N([H])[H])C4([H])[H])C([H])([H])[H])C([H])([H])C3([H])[H])c([H])c([H])c2C1([H])[H]

$$$$
84:0:0
     RDKit          3D

 92101  0  0  1  0  0  0  0  0999 V2000
  -28.5830  -19.8350   20.5120 C   0  0  0  0  0  3  0  0  0  0  0  0
  -30.6360  -18.5400   19.1710 C   0  0  0  0  0  3  0  0  0  0  0  0
  -28.7680  -18.3890   20.5990 C   0  0  0  0  0  0  0  0  0  0  0  0
  -30.4420  -19.9880   19.0760 C   0  0  0  0  0  0  0  0  0  0  0  0
  -29.3800  -20.7330   19.7270 C   0  0  0  0  0  0  0  0  0  0  0  0
  -29.8060  -17.6430   19.9190 C   0  0  0  0  0  0  0  0  0  0  0  0
  -27.7680  -17.6260   21.4570 C   0  0  0  0  0  1  0  0  0  0  0  0
  -31.4620  -20.7340   18.2340 C   0  0  0  0  0  1  0  0  0  0  0  0
  -30.6700  -15.0200   19.5260 C   0  0  0  0  0  0  0  0  0  0  0  0
  -30.4690  -12.7070   18.5020 C   0  0  0  0  0  2  0  0  0  0  0  0
  -29.3750  -12.7230   17.4060 C   0  0  0  0  0  2  0  0  0  0  0  0
  -27.9770  -12.4980   18.0160 C   0  0  0  0  0  2  0  0  0  0  0  0
  -27.7410  -13.3630   19.2830 C   0  0  0  0  0  3  0  0  0  0  0  0
  -28.9350  -13.2910   20.2590 C   0  0  0  0  0  2  0  0  0  0  0  0
  -30.1230  -13.7390   19.5180 N   0  0  0  0  0  0  0  0  0  0  0  0
  -31.7970  -15.1650   19.0350 O   0  0  0  0  0  0  0  0  0  0  0  0
  -29.8630  -16.1040   19.9650 N   0  0  0  0  0  0  0  0  0  0  0  0
  -29.0470  -15.7240   20.4200 H   0  0  0  0  0  0  0  0  0  0  0  0
  -25.4960  -13.9230   20.3750 C   0  0  0  0  0  0  0  0  0  0  0  0
  -24.4760  -13.1380   20.8380 C   0  0  0  0  0  0  0  0  0  0  0  0
  -24.9010  -11.7880   20.6520 C   0  0  0  0  0  0  0  0  0  0  0  0
  -26.4760  -13.0500   19.9350 N   0  0  0  0  0  0  0  0  0  0  0  0
  -26.1360  -11.7550   20.1630 N   0  0  0  0  0  0  0  0  0  0  0  0
  -24.1770  -10.5260   20.8520 C   0  0  0  0  0  0  0  0  0  0  0  0
  -24.6260   -9.5550   21.7740 C   0  0  0  0  0  3  0  0  0  0  0  0
  -23.9030   -8.3580   21.9630 C   0  0  0  0  0  3  0  0  0  0  0  0
  -22.7150   -8.1230   21.2300 C   0  0  0  0  0  0  0  0  0  0  0  0
  -22.2840   -9.0820   20.2950 C   0  0  0  0  0  3  0  0  0  0  0  0
  -23.0100  -10.2710   20.1050 C   0  0  0  0  0  3  0  0  0  0  0  0
  -21.9610   -6.9790   21.3290 O   0  0  0  0  0  0  0  0  0  0  0  0
  -21.7950   -6.3280   22.5250 C   0  0  0  0  0  0  0  0  0  0  0  0
  -21.2110   -6.9600   23.6430 C   0  0  0  0  0  3  0  0  0  0  0  0
  -20.9980   -6.2320   24.8300 C   0  0  0  0  0  3  0  0  0  0  0  0
  -21.3570   -4.8730   24.8990 C   0  0  0  0  0  0  0  0  0  0  0  0
  -21.9340   -4.2410   23.7840 C   0  0  0  0  0  3  0  0  0  0  0  0
  -22.1490   -4.9660   22.5990 C   0  0  0  0  0  0  0  0  0  0  0  0
  -22.6850   -4.3450   21.5210 F   0  0  0  0  0  0  0  0  0  0  0  0
  -21.1460   -4.1720   26.0370 F   0  0  0  0  0  0  0  0  0  0  0  0
  -23.1410  -13.6140   21.3300 C   0  0  0  0  0  0  0  0  0  0  0  0
  -22.5250  -12.8750   22.2450 N   0  0  0  0  0  0  0  0  0  0  0  0
  -22.6590  -14.6770   20.9410 O   0  0  0  0  0  0  0  0  0  0  0  0
  -22.9310  -12.0150   22.5830 H   0  0  0  0  0  0  0  0  0  0  0  0
  -21.6350  -13.1750   22.6150 H   0  0  0  0  0  0  0  0  0  0  0  0
  -25.6610  -15.2990   20.2670 N   0  0  0  0  0  0  0  0  0  0  0  0
  -24.9100  -15.9400   20.5020 H   0  0  0  0  0  0  0  0  0  0  0  0
  -26.4160  -15.7450   19.7640 H   0  0  0  0  0  0  0  0  0  0  0  0
  -28.3390  -24.1950   18.2470 C   0  0  0  0  0  2  0  0  0  0  0  0
  -29.0060  -22.7700   18.1760 C   0  0  0  0  0  2  0  0  0  0  0  0
  -28.7380  -23.3790   20.4390 C   0  0  0  0  0  2  0  0  0  0  0  0
  -28.7510  -24.7950   19.5990 C   0  0  0  0  0  3  0  0  0  0  0  0
  -29.1030  -22.1950   19.5300 N   0  0  0  0  0  0  0  0  0  0  0  0
  -28.5060  -26.2860   20.0180 O   0  0  0  0  0  0  0  0  0  0  0  0
  -24.6040  -31.6890   23.0780 C   0  0  0  0  0  0  0  0  0  0  0  0
  -27.3590  -27.1530   19.9450 C   0  0  0  0  0  0  0  0  0  0  0  0
  -23.4550  -30.2880   21.4050 C   0  0  0  0  0  3  0  0  0  0  0  0
  -24.9570  -28.7980   19.9430 C   0  0  0  0  0  0  0  0  0  0  0  0
  -25.9940  -30.6560   21.2460 C   0  0  0  0  0  2  0  0  0  0  0  0
  -26.1150  -29.2840   20.5600 C   0  0  0  0  0  0  0  0  0  0  0  0
  -27.3110  -28.4770   20.5410 C   0  0  0  0  0  3  0  0  0  0  0  0
  -26.1700  -26.7600   19.2970 C   0  0  0  0  0  3  0  0  0  0  0  0
  -24.9970  -27.5510   19.2970 C   0  0  0  0  0  3  0  0  0  0  0  0
  -23.6960  -29.6460   20.0100 C   0  0  0  0  0  2  0  0  0  0  0  0
  -24.7040  -30.9000   21.9640 N   0  0  0  0  0  0  0  0  0  0  0  0
  -23.5090  -31.9210   23.6120 O   0  0  0  0  0  0  0  0  0  0  0  0
  -22.8140  -29.2360   22.3440 C   0  0  0  0  0  0  0  0  0  0  0  0
  -21.5040  -28.9870   22.1800 N   0  0  0  0  0  0  0  0  0  0  0  0
  -23.5000  -28.6460   23.1830 O   0  0  0  0  0  0  0  0  0  0  0  0
  -21.0050  -29.5200   21.4810 H   0  0  0  0  0  0  0  0  0  0  0  0
  -18.1910  -27.5740   22.5690 C   0  0  0  0  0  0  0  0  0  0  0  0
  -20.7190  -27.9960   22.9200 C   0  0  0  0  0  3  0  0  0  0  0  0
  -20.9280  -26.5760   22.3460 C   0  0  0  0  0  2  0  0  0  0  0  0
  -19.8830  -26.1890   21.2970 C   0  0  0  0  0  2  0  0  0  0  0  0
  -18.4740  -26.2420   21.8950 C   0  0  0  0  0  2  0  0  0  0  0  0
  -19.2440  -28.4050   23.0350 C   0  0  0  0  0  0  0  0  0  0  0  0
  -18.9260  -29.6480   23.6230 C   0  0  0  0  0  3  0  0  0  0  0  0
  -17.5870  -30.0620   23.7530 C   0  0  0  0  0  3  0  0  0  0  0  0
  -16.5480  -29.2300   23.3020 C   0  0  0  0  0  3  0  0  0  0  0  0
  -16.8500  -27.9890   22.7150 C   0  0  0  0  0  3  0  0  0  0  0  0
  -25.8600  -32.3560   23.7210 C   0  0  0  0  0  3  0  0  0  0  0  0
  -25.5010  -33.7380   24.0790 N   0  0  0  0  0  0  0  0  0  0  0  0
  -25.7720  -34.8160   23.3330 C   0  0  0  0  0  0  0  0  0  0  0  0
  -26.4190  -34.7570   22.2840 O   0  0  0  0  0  0  0  0  0  0  0  0
  -24.9260  -33.8560   24.9000 H   0  0  0  0  0  0  0  0  0  0  0  0
  -23.9540  -36.5360   23.0670 C   0  0  0  0  0  1  0  0  0  0  0  0
  -25.2420  -36.1780   23.8260 C   0  0  0  0  0  3  0  0  0  0  0  0
  -27.3580  -37.1500   24.6020 C   0  0  0  0  0  1  0  0  0  0  0  0
  -26.2230  -37.2770   23.6920 N   0  0  0  0  0  0  0  0  0  0  0  0
  -25.7810  -38.1760   23.8640 H   0  0  0  0  0  0  0  0  0  0  0  0
  -26.3920  -31.5810   24.9900 C   0  0  1  0  0  0  0  0  0  0  0  0
  -25.2960  -31.2780   26.0370 C   0  0  0  0  0  1  0  0  0  0  0  0
  -27.0420  -30.2390   24.5830 C   0  0  0  0  0  1  0  0  0  0  0  0
  -27.4980  -32.4120   25.6840 C   0  0  0  0  0  1  0  0  0  0  0  0
  1  3  1  0
  2  6  1  0
  3  7  1  0
  4  2  2  0
  4  5  1  0
  5  1  2  0
  6 17  1  0
  6  3  2  0
  8  4  1  0
  9 17  1  0
 10 15  1  0
 11 12  1  0
 11 10  1  0
 13 12  1  0
 13 22  1  0
 13 14  1  0
 15  9  1  0
 15 14  1  0
 16  9  2  0
 17 18  1  0
 19 20  2  0
 20 39  1  0
 21 20  1  0
 21 24  1  0
 22 23  1  0
 22 19  1  0
 23 21  2  0
 24 25  1  0
 25 26  2  0
 27 30  1  0
 27 26  1  0
 28 27  2  0
 29 28  1  0
 29 24  2  0
 30 31  1  0
 31 36  2  0
 31 32  1  0
 32 33  2  0
 33 34  1  0
 34 38  1  0
 35 34  2  0
 36 35  1  0
 37 36  1  0
 39 40  1  0
 40 42  1  0
 40 43  1  0
 41 39  2  0
 44 19  1  0
 44 45  1  0
 46 44  1  0
 47 50  1  0
 48 47  1  0
 48 51  1  0
 50 52  1  0
 50 49  1  0
 51  5  1  0
 51 49  1  0
 53 64  2  0
 54 52  1  0
 54 59  1  0
 55 63  1  0
 55 65  1  0
 56 62  1  0
 56 58  1  0
 57 63  1  0
 58 57  1  0
 59 58  2  0
 60 61  1  0
 60 54  2  0
 61 56  2  0
 62 55  1  0
 63 53  1  0
 65 67  2  0
 66 65  1  0
 68 66  1  0
 69 78  2  0
 69 74  1  0
 70 66  1  0
 70 74  1  0
 71 70  1  0
 72 73  1  0
 72 71  1  0
 73 69  1  0
 74 75  2  0
 75 76  1  0
 77 76  2  0
 78 77  1  0
 79 53  1  0
 79 80  1  0
 79 89  1  0
 80 83  1  0
 81 85  1  0
 81 80  1  0
 82 81  2  0
 85 84  1  0
 87 85  1  0
 87 88  1  0
 87 86  1  0
 89 92  1  1
 89 90  1  0
 91 89  1  0
M  ISO  4   9 100  17 100  50 101  52 101
M  END
>  <TORSDO>  (85) 
F 17

>  <SCORE>  (85) 
-11.805

>  <name>  (85) 
84

>  <ligand_id>  (85) 
84

>  <original_smiles>  (85) 
[H]c1c([H])c([H])c2c(c1[H])C([H])([H])C([H])([H])C([H])([H])C2([H])N([H])C(=O)C1([H])N(C(=O)C([H])(N([H])C(=O)C([H])(N([H])C([H])([H])[H])C([H])([H])[H])C(C([H])([H])[H])(C([H])([H])[H])C([H])([H])[H])C([H])([H])c2c([H])c(OC3([H])C([H])([H])N(c4c([H])c(C([H])([H])[H])c(N([H])C(=O)N5C([H])([H])C([H])([H])C([H])([H])C([H])(n6nc(-c7c([H])c([H])c(Oc8c([H])c([H])c(F)c([H])c8F)c([H])c7[H])c(C(=O)N([H])[H])c6N([H])[H])C5([H])[H])c([H])c4C([H])([H])[H])C([H])([H])C3([H])[H])c([H])c([H])c2C1([H])[H]

>  <smiles>  (85) 
[H]c1c([H])c([H])c2c(c1[H])C([H])([H])C([H])([H])C([H])([H])C2([H])N([H])C(=O)C1([H])N(C(=O)C([H])(N([H])C(=O)C([H])(N([H])C([H])([H])[H])C([H])([H])[H])C(C([H])([H])[H])(C([H])([H])[H])C([H])([H])[H])C([H])([H])c2c([H])c(OC3([H])C([H])([H])N(c4c([H])c(C([H])([H])[H])c(N([H])C(=O)N5C([H])([H])C([H])([H])C([H])([H])C([H])(n6nc(-c7c([H])c([H])c(Oc8c([H])c([H])c(F)c([H])c8F)c([H])c7[H])c(C(=O)N([H])[H])c6N([H])[H])C5([H])[H])c([H])c4C([H])([H])[H])C([H])([H])C3([H])[H])c([H])c([H])c2C1([H])[H]

$$$$
85:0:0
     RDKit          3D

 96105  0  0  1  0  0  0  0  0999 V2000
  -27.0400  -21.7130   18.4530 C   0  0  0  0  0  2  0  0  0  0  0  0
  -28.4120  -21.0880   18.2830 C   0  0  0  0  0  2  0  0  0  0  0  0
  -27.3560  -23.2010   18.4480 C   0  0  0  0  0  2  0  0  0  0  0  0
  -29.3740  -22.0280   19.0470 C   0  0  0  0  0  3  0  0  0  0  0  0
  -28.6700  -23.3670   19.1230 N   0  0  1  0  0  4  0  0  0  0  0  0
  -28.4620  -23.5040   20.1020 H   0  0  0  0  0  0  0  0  0  0  0  0
  -31.2520  -22.0800   20.7630 C   0  0  0  0  0  1  0  0  0  0  0  0
  -28.9150  -21.9120   21.5680 C   0  0  0  0  0  1  0  0  0  0  0  0
  -29.8780  -21.4570   20.4380 C   0  0  1  0  0  0  0  0  0  0  0  0
  -31.0550  -19.2570   19.6540 C   0  0  0  0  0  3  0  0  0  0  0  0
  -29.2510  -19.0560   21.2460 C   0  0  0  0  0  3  0  0  0  0  0  0
  -31.2300  -17.8450   19.6710 C   0  0  0  0  0  3  0  0  0  0  0  0
  -29.4260  -17.6580   21.2710 C   0  0  0  0  0  3  0  0  0  0  0  0
  -30.0610  -19.8990   20.4420 C   0  0  0  0  0  0  0  0  0  0  0  0
  -30.4110  -17.0240   20.4870 C   0  0  0  0  0  0  0  0  0  0  0  0
  -31.1050  -14.6580   19.8500 C   0  0  0  0  0  0  0  0  0  0  0  0
  -30.7310  -12.4780   18.7370 C   0  0  0  0  0  2  0  0  0  0  0  0
  -29.7030  -12.6760   17.6010 C   0  0  0  0  0  2  0  0  0  0  0  0
  -28.2570  -12.5740   18.1290 C   0  0  0  0  0  2  0  0  0  0  0  0
  -28.0270  -13.4340   19.4020 C   0  0  0  0  0  3  0  0  0  0  0  0
  -29.1470  -13.1750   20.4340 C   0  0  0  0  0  2  0  0  0  0  0  0
  -30.4410  -13.4680   19.7870 N   0  0  0  0  0  0  0  0  0  0  0  0
  -32.1630  -14.8670   19.2480 O   0  0  0  0  0  0  0  0  0  0  0  0
  -30.4760  -15.5940   20.5920 N   0  0  0  0  0  0  0  0  0  0  0  0
  -29.7290  -15.1920   21.1390 H   0  0  0  0  0  0  0  0  0  0  0  0
  -25.7240  -14.1300   20.3250 C   0  0  0  0  0  0  0  0  0  0  0  0
  -24.6470  -13.3960   20.7420 C   0  0  0  0  0  0  0  0  0  0  0  0
  -25.0280  -12.0250   20.6100 C   0  0  0  0  0  0  0  0  0  0  0  0
  -26.6990  -13.2090   19.9700 N   0  0  0  0  0  0  0  0  0  0  0  0
  -26.2860  -11.9350   20.1960 N   0  0  0  0  0  0  0  0  0  0  0  0
  -24.2510  -10.7940   20.7980 C   0  0  0  0  0  0  0  0  0  0  0  0
  -24.6640   -9.7910   21.7020 C   0  0  0  0  0  3  0  0  0  0  0  0
  -23.8900   -8.6230   21.8790 C   0  0  0  0  0  3  0  0  0  0  0  0
  -22.6900   -8.4510   21.1500 C   0  0  0  0  0  0  0  0  0  0  0  0
  -22.2950   -9.4420   20.2340 C   0  0  0  0  0  3  0  0  0  0  0  0
  -23.0680  -10.6010   20.0560 C   0  0  0  0  0  3  0  0  0  0  0  0
  -21.8870   -7.3390   21.2370 O   0  0  0  0  0  0  0  0  0  0  0  0
  -21.7840   -6.6160   22.3980 C   0  0  0  0  0  0  0  0  0  0  0  0
  -21.3570   -7.2060   23.6090 C   0  0  0  0  0  3  0  0  0  0  0  0
  -21.1980   -6.4110   24.7610 C   0  0  0  0  0  3  0  0  0  0  0  0
  -21.4560   -5.0280   24.7050 C   0  0  0  0  0  0  0  0  0  0  0  0
  -21.8760   -4.4390   23.5000 C   0  0  0  0  0  3  0  0  0  0  0  0
  -22.0360   -5.2310   22.3480 C   0  0  0  0  0  0  0  0  0  0  0  0
  -22.4200   -4.6540   21.1850 F   0  0  0  0  0  0  0  0  0  0  0  0
  -21.2960   -4.2620   25.8100 F   0  0  0  0  0  0  0  0  0  0  0  0
  -23.3030  -13.9290   21.1510 C   0  0  0  0  0  0  0  0  0  0  0  0
  -22.6160  -13.2350   22.0530 N   0  0  0  0  0  0  0  0  0  0  0  0
  -22.8760  -14.9930   20.7080 O   0  0  0  0  0  0  0  0  0  0  0  0
  -22.9750  -12.3720   22.4330 H   0  0  0  0  0  0  0  0  0  0  0  0
  -21.7180  -13.5720   22.3680 H   0  0  0  0  0  0  0  0  0  0  0  0
  -25.9520  -15.4980   20.2010 N   0  0  0  0  0  0  0  0  0  0  0  0
  -25.2380  -16.1880   20.4060 H   0  0  0  0  0  0  0  0  0  0  0  0
  -26.8030  -15.9060   19.8340 H   0  0  0  0  0  0  0  0  0  0  0  0
  -29.4490  -24.5700   18.6620 C   0  0  0  0  0  2  0  0  0  0  0  0
  -28.6410  -25.8790   18.3350 C   0  0  0  0  0  2  0  0  0  0  0  0
  -28.3500  -26.7370   19.4570 O   0  0  0  0  0  0  0  0  0  0  0  0
  -24.5400  -31.6530   22.9560 C   0  0  0  0  0  0  0  0  0  0  0  0
  -27.1610  -27.4510   19.4980 C   0  0  0  0  0  0  0  0  0  0  0  0
  -23.3020  -30.3290   21.2760 C   0  0  0  0  0  3  0  0  0  0  0  0
  -24.7320  -28.9140   19.7040 C   0  0  0  0  0  0  0  0  0  0  0  0
  -25.8140  -30.7460   21.0130 C   0  0  0  0  0  2  0  0  0  0  0  0
  -25.9020  -29.4170   20.2850 C   0  0  0  0  0  0  0  0  0  0  0  0
  -27.1120  -28.6890   20.1900 C   0  0  0  0  0  3  0  0  0  0  0  0
  -25.9630  -26.9630   18.9270 C   0  0  0  0  0  3  0  0  0  0  0  0
  -24.7580  -27.6840   19.0260 C   0  0  0  0  0  3  0  0  0  0  0  0
  -23.4740  -29.7410   19.8500 C   0  0  0  0  0  2  0  0  0  0  0  0
  -24.5720  -30.9220   21.8060 N   0  0  0  0  0  0  0  0  0  0  0  0
  -23.4740  -31.8700   23.5500 O   0  0  0  0  0  0  0  0  0  0  0  0
  -22.7050  -29.2370   22.1940 C   0  0  0  0  0  0  0  0  0  0  0  0
  -21.3790  -29.0410   22.1100 N   0  0  0  0  0  0  0  0  0  0  0  0
  -23.4320  -28.5710   22.9370 O   0  0  0  0  0  0  0  0  0  0  0  0
  -20.8530  -29.6340   21.4830 H   0  0  0  0  0  0  0  0  0  0  0  0
  -18.0480  -27.7480   22.6520 C   0  0  0  0  0  0  0  0  0  0  0  0
  -20.6090  -28.0430   22.8510 C   0  0  0  0  0  3  0  0  0  0  0  0
  -20.7180  -26.6510   22.1860 C   0  0  0  0  0  2  0  0  0  0  0  0
  -19.5860  -26.3660   21.1930 C   0  0  0  0  0  2  0  0  0  0  0  0
  -18.2250  -26.4450   21.8920 C   0  0  0  0  0  2  0  0  0  0  0  0
  -19.1670  -28.5060   23.0880 C   0  0  0  0  0  0  0  0  0  0  0  0
  -18.9460  -29.7280   23.7610 C   0  0  0  0  0  3  0  0  0  0  0  0
  -17.6380  -30.1910   23.9990 C   0  0  0  0  0  3  0  0  0  0  0  0
  -16.5340  -29.4300   23.5790 C   0  0  0  0  0  3  0  0  0  0  0  0
  -16.7410  -28.2090   22.9110 C   0  0  0  0  0  3  0  0  0  0  0  0
  -25.8350  -32.2720   23.5680 C   0  0  0  0  0  3  0  0  0  0  0  0
  -26.4300  -31.4230   24.7580 C   0  0  1  0  0  0  0  0  0  0  0  0
  -25.3970  -31.0840   25.8570 C   0  0  0  0  0  1  0  0  0  0  0  0
  -27.0180  -30.0910   24.2360 C   0  0  0  0  0  1  0  0  0  0  0  0
  -27.5970  -32.1920   25.4190 C   0  0  0  0  0  1  0  0  0  0  0  0
  -25.5060  -33.6330   24.0150 N   0  0  0  0  0  0  0  0  0  0  0  0
  -25.7820  -34.7470   23.3260 C   0  0  0  0  0  0  0  0  0  0  0  0
  -26.4120  -34.7390   22.2650 O   0  0  0  0  0  0  0  0  0  0  0  0
  -24.9380  -33.7090   24.8470 H   0  0  0  0  0  0  0  0  0  0  0  0
  -23.9950  -36.5110   23.1750 C   0  0  0  0  0  1  0  0  0  0  0  0
  -25.2780  -36.0840   23.9050 C   0  0  0  0  0  3  0  0  0  0  0  0
  -27.4220  -36.9640   24.7160 C   0  0  0  0  0  1  0  0  0  0  0  0
  -26.2790  -37.1710   23.8310 N   0  0  0  0  0  0  0  0  0  0  0  0
  -25.8560  -38.0660   24.0640 H   0  0  0  0  0  0  0  0  0  0  0  0
  2  1  1  0
  2  4  1  0
  3  1  1  0
  3  5  1  0
  4  5  1  0
  4  9  1  0
  5  6  1  1
  9 14  1  0
  9  7  1  1
  9  8  1  0
 10 12  2  0
 10 14  1  0
 11 13  1  0
 12 15  1  0
 14 11  2  0
 15 24  1  0
 15 13  2  0
 16 24  1  0
 17 22  1  0
 18 19  1  0
 18 17  1  0
 20 19  1  0
 20 29  1  0
 20 21  1  0
 22 16  1  0
 22 21  1  0
 23 16  2  0
 24 25  1  0
 26 27  2  0
 27 46  1  0
 28 27  1  0
 28 31  1  0
 29 30  1  0
 29 26  1  0
 30 28  2  0
 31 32  1  0
 32 33  2  0
 34 37  1  0
 34 33  1  0
 35 34  2  0
 36 35  1  0
 36 31  2  0
 37 38  1  0
 38 39  1  0
 39 40  2  0
 41 40  1  0
 41 45  1  0
 42 41  2  0
 43 38  2  0
 43 42  1  0
 44 43  1  0
 46 47  1  0
 47 50  1  0
 47 49  1  0
 48 46  2  0
 51 26  1  0
 51 52  1  0
 53 51  1  0
 54  5  1  0
 55 54  1  0
 55 56  1  0
 56 58  1  0
 57 68  2  0
 58 63  1  0
 59 67  1  0
 59 69  1  0
 60 66  1  0
 60 62  1  0
 61 67  1  0
 62 61  1  0
 63 62  2  0
 64 65  1  0
 64 58  2  0
 65 60  2  0
 66 59  1  0
 67 57  1  0
 69 71  2  0
 70 69  1  0
 72 70  1  0
 73 82  2  0
 73 78  1  0
 74 70  1  0
 74 78  1  0
 75 74  1  0
 76 77  1  0
 76 75  1  0
 77 73  1  0
 78 79  2  0
 79 80  1  0
 81 80  2  0
 82 81  1  0
 83 57  1  0
 83 88  1  0
 83 84  1  0
 84 87  1  1
 84 85  1  0
 86 84  1  0
 88 91  1  0
 89 93  1  0
 89 88  1  0
 90 89  2  0
 93 92  1  0
 95 93  1  0
 95 96  1  0
 95 94  1  0
M  ISO  4  16 100  24 100  55 101  56 101
M  END
>  <TORSDO>  (86) 
F 20

>  <SCORE>  (86) 
-12.705

>  <name>  (86) 
85

>  <ligand_id>  (86) 
85

>  <original_smiles>  (86) 
[H]c1c([H])c([H])c2c(c1[H])C([H])([H])C([H])([H])C([H])([H])C2([H])N([H])C(=O)C1([H])N(C(=O)C([H])(N([H])C(=O)C([H])(N([H])C([H])([H])[H])C([H])([H])[H])C(C([H])([H])[H])(C([H])([H])[H])C([H])([H])[H])C([H])([H])c2c([H])c(OC([H])([H])C([H])([H])[N+]3([H])C([H])([H])C([H])([H])C([H])([H])C3([H])C(c3c([H])c([H])c(N([H])C(=O)N4C([H])([H])C([H])([H])C([H])([H])C([H])(n5nc(-c6c([H])c([H])c(Oc7c([H])c([H])c(F)c([H])c7F)c([H])c6[H])c(C(=O)N([H])[H])c5N([H])[H])C4([H])[H])c([H])c3[H])(C([H])([H])[H])C([H])([H])[H])c([H])c([H])c2C1([H])[H]

>  <smiles>  (86) 
[H]c1c([H])c([H])c2c(c1[H])C([H])([H])C([H])([H])C([H])([H])C2([H])N([H])C(=O)C1([H])N(C(=O)C([H])(N([H])C(=O)C([H])(N([H])C([H])([H])[H])C([H])([H])[H])C(C([H])([H])[H])(C([H])([H])[H])C([H])([H])[H])C([H])([H])c2c([H])c(OC([H])([H])C([H])([H])[N+]3([H])C([H])([H])C([H])([H])C([H])([H])C3([H])C(c3c([H])c([H])c(N([H])C(=O)N4C([H])([H])C([H])([H])C([H])([H])C([H])(n5nc(-c6c([H])c([H])c(Oc7c([H])c([H])c(F)c([H])c7F)c([H])c6[H])c(C(=O)N([H])[H])c5N([H])[H])C4([H])[H])c([H])c3[H])(C([H])([H])[H])C([H])([H])[H])c([H])c([H])c2C1([H])[H]

$$$$
86:0:0
     RDKit          3D

 99108  0  0  1  0  0  0  0  0999 V2000
  -31.8820  -20.9460   19.0030 C   0  0  0  0  0  3  0  0  0  0  0  0
  -31.1670  -22.0510   19.5000 C   0  0  0  0  0  3  0  0  0  0  0  0
  -29.4460  -20.5390   20.2990 C   0  0  0  0  0  3  0  0  0  0  0  0
  -31.3790  -19.6310   19.1180 C   0  0  0  0  0  0  0  0  0  0  0  0
  -30.1640  -19.3960   19.8280 C   0  0  0  0  0  0  0  0  0  0  0  0
  -29.9070  -21.8740   20.1120 C   0  0  0  0  0  0  0  0  0  0  0  0
  -32.1350  -18.5820   18.4180 C   0  0  0  0  0  0  0  0  0  0  0  0
  -31.5350  -17.8030   17.5190 N   0  0  0  0  0  4  0  0  0  0  0  0
  -33.4490  -18.4250   18.6380 N   0  0  0  0  0  0  0  0  0  0  0  0
  -30.5930  -18.0100   17.2270 H   0  0  0  0  0  0  0  0  0  0  0  0
  -32.0450  -17.0730   17.0520 H   0  0  0  0  0  0  0  0  0  0  0  0
  -33.8440  -19.0060   19.3680 H   0  0  0  0  0  0  0  0  0  0  0  0
  -35.7480  -17.2830   18.4260 C   0  0  0  0  0  2  0  0  0  0  0  0
  -34.7170  -16.1790   18.4500 C   0  0  0  0  0  2  0  0  0  0  0  0
  -34.3590  -17.5380   17.8940 C   0  0  0  0  0  3  0  0  0  0  0  0
  -29.5830  -17.9690   20.0390 C   0  0  0  0  0  2  0  0  0  0  0  0
  -30.4130  -16.9980   20.9450 C   0  0  0  0  0  2  0  0  0  0  0  0
  -30.6530  -14.5160   20.4890 C   0  0  0  0  0  0  0  0  0  0  0  0
  -30.3510  -12.3360   19.3810 C   0  0  0  0  0  2  0  0  0  0  0  0
  -29.4180  -12.5300   18.1690 C   0  0  0  0  0  2  0  0  0  0  0  0
  -27.9430  -12.3830   18.5910 C   0  0  0  0  0  2  0  0  0  0  0  0
  -27.5960  -13.2370   19.8400 C   0  0  0  0  0  3  0  0  0  0  0  0
  -28.6470  -13.0500   20.9580 C   0  0  0  0  0  2  0  0  0  0  0  0
  -29.9710  -13.3420   20.3870 N   0  0  0  0  0  0  0  0  0  0  0  0
  -31.8010  -14.6530   20.0600 O   0  0  0  0  0  0  0  0  0  0  0  0
  -29.9470  -15.5880   20.9190 N   0  0  0  0  0  0  0  0  0  0  0  0
  -29.0050  -15.4060   21.2330 H   0  0  0  0  0  0  0  0  0  0  0  0
  -25.1950  -13.8480   20.5360 C   0  0  0  0  0  0  0  0  0  0  0  0
  -24.1220  -13.0790   20.9000 C   0  0  0  0  0  0  0  0  0  0  0  0
  -24.5810  -11.7260   20.8770 C   0  0  0  0  0  0  0  0  0  0  0  0
  -26.2400  -12.9640   20.3140 N   0  0  0  0  0  0  0  0  0  0  0  0
  -25.8740  -11.6820   20.5760 N   0  0  0  0  0  0  0  0  0  0  0  0
  -23.8490  -10.4670   21.0650 C   0  0  0  0  0  0  0  0  0  0  0  0
  -24.2840   -9.4890   21.9880 C   0  0  0  0  0  3  0  0  0  0  0  0
  -23.5550   -8.2940   22.1610 C   0  0  0  0  0  3  0  0  0  0  0  0
  -22.3750   -8.0670   21.4140 C   0  0  0  0  0  0  0  0  0  0  0  0
  -21.9610   -9.0320   20.4790 C   0  0  0  0  0  3  0  0  0  0  0  0
  -22.6900  -10.2190   20.3020 C   0  0  0  0  0  3  0  0  0  0  0  0
  -21.6150   -6.9260   21.5010 O   0  0  0  0  0  0  0  0  0  0  0  0
  -21.5830   -6.1660   22.6440 C   0  0  0  0  0  0  0  0  0  0  0  0
  -21.1930   -6.7080   23.8880 C   0  0  0  0  0  3  0  0  0  0  0  0
  -21.1070   -5.8750   25.0210 C   0  0  0  0  0  3  0  0  0  0  0  0
  -21.4030   -4.5030   24.9120 C   0  0  0  0  0  0  0  0  0  0  0  0
  -21.7890   -3.9620   23.6720 C   0  0  0  0  0  3  0  0  0  0  0  0
  -21.8760   -4.7920   22.5420 C   0  0  0  0  0  0  0  0  0  0  0  0
  -22.2260   -4.2610   21.3450 F   0  0  0  0  0  0  0  0  0  0  0  0
  -21.3140   -3.7020   25.9990 F   0  0  0  0  0  0  0  0  0  0  0  0
  -22.7240  -13.5610   21.1640 C   0  0  0  0  0  0  0  0  0  0  0  0
  -21.9890  -12.8680   22.0270 N   0  0  0  0  0  0  0  0  0  0  0  0
  -22.2920  -14.5850   20.6380 O   0  0  0  0  0  0  0  0  0  0  0  0
  -22.3470  -12.0360   22.4720 H   0  0  0  0  0  0  0  0  0  0  0  0
  -21.0530  -13.1770   22.2470 H   0  0  0  0  0  0  0  0  0  0  0  0
  -25.3620  -15.2190   20.3520 N   0  0  0  0  0  0  0  0  0  0  0  0
  -24.5890  -15.8690   20.4440 H   0  0  0  0  0  0  0  0  0  0  0  0
  -26.2070  -15.6570   20.0100 H   0  0  0  0  0  0  0  0  0  0  0  0
  -29.0990  -22.9320   20.5220 O   0  0  0  0  0  0  0  0  0  0  0  0
  -29.4680  -24.3060   20.2530 C   0  0  0  0  0  2  0  0  0  0  0  0
  -28.1970  -25.1860   20.1250 C   0  0  0  0  0  2  0  0  0  0  0  0
  -28.3800  -26.6230   20.2070 O   0  0  0  0  0  0  0  0  0  0  0  0
  -24.6090  -31.8920   23.2530 C   0  0  0  0  0  0  0  0  0  0  0  0
  -27.2230  -27.3960   20.1840 C   0  0  0  0  0  0  0  0  0  0  0  0
  -23.3960  -30.4940   21.6160 C   0  0  0  0  0  3  0  0  0  0  0  0
  -24.8400  -28.9470   20.1960 C   0  0  0  0  0  0  0  0  0  0  0  0
  -25.9280  -30.8310   21.4170 C   0  0  0  0  0  2  0  0  0  0  0  0
  -26.0080  -29.4560   20.7790 C   0  0  0  0  0  0  0  0  0  0  0  0
  -27.2020  -28.6900   20.7680 C   0  0  0  0  0  3  0  0  0  0  0  0
  -26.0280  -26.9190   19.5910 C   0  0  0  0  0  3  0  0  0  0  0  0
  -24.8470  -27.6790   19.6000 C   0  0  0  0  0  3  0  0  0  0  0  0
  -23.6020  -29.8140   20.2390 C   0  0  0  0  0  2  0  0  0  0  0  0
  -24.6630  -31.0870   22.1530 N   0  0  0  0  0  0  0  0  0  0  0  0
  -23.5300  -32.1700   23.7930 O   0  0  0  0  0  0  0  0  0  0  0  0
  -22.7400  -29.4750   22.5780 C   0  0  0  0  0  0  0  0  0  0  0  0
  -21.4150  -29.2980   22.4520 N   0  0  0  0  0  0  0  0  0  0  0  0
  -23.4210  -28.8510   23.3950 O   0  0  0  0  0  0  0  0  0  0  0  0
  -20.9270  -29.8540   21.7630 H   0  0  0  0  0  0  0  0  0  0  0  0
  -18.0370  -28.1180   22.9520 C   0  0  0  0  0  0  0  0  0  0  0  0
  -20.5940  -28.3670   23.2250 C   0  0  0  0  0  3  0  0  0  0  0  0
  -20.6920  -26.9330   22.6530 C   0  0  0  0  0  2  0  0  0  0  0  0
  -19.5890  -26.6110   21.6400 C   0  0  0  0  0  2  0  0  0  0  0  0
  -18.2080  -26.7650   22.2820 C   0  0  0  0  0  2  0  0  0  0  0  0
  -19.1570  -28.8760   23.3810 C   0  0  0  0  0  0  0  0  0  0  0  0
  -18.9440  -30.1430   23.9670 C   0  0  0  0  0  3  0  0  0  0  0  0
  -17.6410  -30.6510   24.1290 C   0  0  0  0  0  3  0  0  0  0  0  0
  -16.5340  -29.8900   23.7170 C   0  0  0  0  0  3  0  0  0  0  0  0
  -16.7320  -28.6260   23.1340 C   0  0  0  0  0  3  0  0  0  0  0  0
  -25.8990  -32.5190   23.8690 C   0  0  0  0  0  3  0  0  0  0  0  0
  -25.5920  -33.9150   24.2050 N   0  0  0  0  0  0  0  0  0  0  0  0
  -25.9140  -34.9680   23.4400 C   0  0  0  0  0  0  0  0  0  0  0  0
  -26.5710  -34.8670   22.4010 O   0  0  0  0  0  0  0  0  0  0  0  0
  -25.0100  -34.0690   25.0140 H   0  0  0  0  0  0  0  0  0  0  0  0
  -24.1750  -36.7540   23.1120 C   0  0  0  0  0  1  0  0  0  0  0  0
  -25.4310  -36.3550   23.9040 C   0  0  0  0  0  3  0  0  0  0  0  0
  -27.5770  -37.2450   24.6980 C   0  0  0  0  0  1  0  0  0  0  0  0
  -26.4590  -37.4110   23.7730 N   0  0  0  0  0  0  0  0  0  0  0  0
  -26.0530  -38.3310   23.9290 H   0  0  0  0  0  0  0  0  0  0  0  0
  -26.4210  -31.7410   25.1380 C   0  0  1  0  0  0  0  0  0  0  0  0
  -25.3340  -31.5000   26.2110 C   0  0  0  0  0  1  0  0  0  0  0  0
  -27.0000  -30.3640   24.7350 C   0  0  0  0  0  1  0  0  0  0  0  0
  -27.5770  -32.5300   25.7970 C   0  0  0  0  0  1  0  0  0  0  0  0
  1  4  2  0
  1  2  1  0
  2  6  2  0
  4  5  1  0
  5 16  1  0
  5  3  2  0
  6  3  1  0
  6 56  1  0
  7  9  1  0
  7  4  1  0
  8  7  2  0
  9 12  1  0
 10  8  1  0
 11  8  1  0
 13 14  1  0
 15 13  1  0
 15 14  1  0
 15  9  1  0
 16 17  1  0
 18 26  1  0
 19 24  1  0
 20 21  1  0
 20 19  1  0
 22 21  1  0
 22 31  1  0
 22 23  1  0
 24 18  1  0
 24 23  1  0
 25 18  2  0
 26 17  1  0
 26 27  1  0
 28 29  2  0
 29 48  1  0
 30 29  1  0
 30 33  1  0
 31 28  1  0
 31 32  1  0
 32 30  2  0
 33 34  1  0
 34 35  2  0
 36 39  1  0
 36 35  1  0
 37 36  2  0
 38 37  1  0
 38 33  2  0
 39 40  1  0
 40 41  1  0
 41 42  2  0
 43 42  1  0
 43 47  1  0
 44 43  2  0
 45 40  2  0
 45 44  1  0
 46 45  1  0
 48 49  1  0
 49 52  1  0
 49 51  1  0
 50 48  2  0
 53 54  1  0
 53 28  1  0
 55 53  1  0
 57 56  1  0
 58 59  1  0
 58 57  1  0
 60 71  2  0
 61 59  1  0
 61 66  1  0
 62 70  1  0
 62 72  1  0
 63 69  1  0
 63 65  1  0
 64 70  1  0
 65 64  1  0
 66 65  2  0
 67 68  1  0
 67 61  2  0
 68 63  2  0
 69 62  1  0
 70 60  1  0
 72 74  2  0
 73 72  1  0
 75 73  1  0
 76 85  2  0
 76 81  1  0
 77 73  1  0
 77 81  1  0
 78 77  1  0
 79 80  1  0
 79 78  1  0
 80 76  1  0
 81 82  2  0
 82 83  1  0
 84 83  2  0
 85 84  1  0
 86 60  1  0
 86 87  1  0
 86 96  1  0
 87 90  1  0
 88 92  1  0
 88 87  1  0
 89 88  2  0
 92 91  1  0
 94 92  1  0
 94 95  1  0
 94 93  1  0
 96 99  1  1
 96 97  1  0
 98 96  1  0
M  ISO  4  18 100  26 100  58 101  59 101
M  END
>  <TORSDO>  (87) 
F 23

>  <SCORE>  (87) 
-12.929

>  <name>  (87) 
86

>  <ligand_id>  (87) 
86

>  <original_smiles>  (87) 
[H]c1c([H])c([H])c2c(c1[H])C([H])([H])C([H])([H])C([H])([H])C2([H])N([H])C(=O)C1([H])N(C(=O)C([H])(N([H])C(=O)C([H])(N([H])C([H])([H])[H])C([H])([H])[H])C(C([H])([H])[H])(C([H])([H])[H])C([H])([H])[H])C([H])([H])c2c([H])c(OC([H])([H])C([H])([H])Oc3c([H])c([H])c(C(N([H])[H])=[N+]([H])C4([H])C([H])([H])C4([H])[H])c(C([H])([H])C([H])([H])N([H])C(=O)N4C([H])([H])C([H])([H])C([H])([H])C([H])(n5nc(-c6c([H])c([H])c(Oc7c([H])c([H])c(F)c([H])c7F)c([H])c6[H])c(C(=O)N([H])[H])c5N([H])[H])C4([H])[H])c3[H])c([H])c([H])c2C1([H])[H]

>  <smiles>  (87) 
[H]c1c([H])c([H])c2c(c1[H])C([H])([H])C([H])([H])C([H])([H])C2([H])N([H])C(=O)C1([H])N(C(=O)C([H])(N([H])C(=O)C([H])(N([H])C([H])([H])[H])C([H])([H])[H])C(C([H])([H])[H])(C([H])([H])[H])C([H])([H])[H])C([H])([H])c2c([H])c(OC([H])([H])C([H])([H])Oc3c([H])c([H])c(C(N([H])[H])=[N+]([H])C4([H])C([H])([H])C4([H])[H])c(C([H])([H])C([H])([H])N([H])C(=O)N4C([H])([H])C([H])([H])C([H])([H])C([H])(n5nc(-c6c([H])c([H])c(Oc7c([H])c([H])c(F)c([H])c7F)c([H])c6[H])c(C(=O)N([H])[H])c5N([H])[H])C4([H])[H])c3[H])c([H])c([H])c2C1([H])[H]

$$$$
87:0:0
     RDKit          3D

103112  0  0  1  0  0  0  0  0999 V2000
  -30.1650  -18.3500   17.0880 C   0  0  0  0  0  3  0  0  0  0  0  0
  -29.4790  -19.3690   17.7740 C   0  0  0  0  0  3  0  0  0  0  0  0
  -30.4850  -17.1330   17.7150 C   0  0  0  0  0  3  0  0  0  0  0  0
  -29.0900  -19.2250   19.1280 C   0  0  0  0  0  0  0  0  0  0  0  0
  -29.4020  -17.9380   19.7600 C   0  0  0  0  0  0  0  0  0  0  0  0
  -30.1070  -16.8660   19.0500 C   0  0  0  0  0  0  0  0  0  0  0  0
  -30.8740  -14.3970   18.8750 C   0  0  0  0  0  0  0  0  0  0  0  0
  -30.3570  -12.1630   17.8970 C   0  0  0  0  0  2  0  0  0  0  0  0
  -29.1560  -12.3330   16.9380 C   0  0  0  0  0  2  0  0  0  0  0  0
  -27.8310  -12.1810   17.7110 C   0  0  0  0  0  2  0  0  0  0  0  0
  -27.8070  -12.9940   19.0340 C   0  0  0  0  0  3  0  0  0  0  0  0
  -29.1120  -12.8430   19.8480 C   0  0  0  0  0  2  0  0  0  0  0  0
  -30.2360  -13.1800   18.9650 N   0  0  0  0  0  0  0  0  0  0  0  0
  -31.8510  -14.5300   18.1330 O   0  0  0  0  0  0  0  0  0  0  0  0
  -30.3420  -15.4870   19.5460 N   0  0  0  0  0  0  0  0  0  0  0  0
  -29.7870  -15.2330   20.3470 H   0  0  0  0  0  0  0  0  0  0  0  0
  -25.8880  -13.5370   20.6480 C   0  0  0  0  0  0  0  0  0  0  0  0
  -24.8540  -12.7850   21.1320 C   0  0  0  0  0  0  0  0  0  0  0  0
  -25.0210  -11.4780   20.5820 C   0  0  0  0  0  0  0  0  0  0  0  0
  -26.6320  -12.6880   19.8460 N   0  0  0  0  0  0  0  0  0  0  0  0
  -26.1330  -11.4230   19.8570 N   0  0  0  0  0  0  0  0  0  0  0  0
  -24.1580  -10.2930   20.6560 C   0  0  0  0  0  0  0  0  0  0  0  0
  -24.5640   -9.1190   21.3300 C   0  0  0  0  0  3  0  0  0  0  0  0
  -23.7060   -8.0000   21.4070 C   0  0  0  0  0  3  0  0  0  0  0  0
  -22.4240   -8.0490   20.8070 C   0  0  0  0  0  0  0  0  0  0  0  0
  -22.0350   -9.2100   20.1140 C   0  0  0  0  0  3  0  0  0  0  0  0
  -22.8930  -10.3180   20.0360 C   0  0  0  0  0  3  0  0  0  0  0  0
  -21.5350   -7.0020   20.8050 O   0  0  0  0  0  0  0  0  0  0  0  0
  -21.4010   -6.1690   21.8860 C   0  0  0  0  0  0  0  0  0  0  0  0
  -20.9510   -6.6400   23.1390 C   0  0  0  0  0  3  0  0  0  0  0  0
  -20.7620   -5.7380   24.2050 C   0  0  0  0  0  3  0  0  0  0  0  0
  -21.0110   -4.3650   24.0160 C   0  0  0  0  0  0  0  0  0  0  0  0
  -21.4520   -3.8910   22.7680 C   0  0  0  0  0  3  0  0  0  0  0  0
  -21.6440   -4.7930   21.7050 C   0  0  0  0  0  0  0  0  0  0  0  0
  -22.0490   -4.3310   20.4970 F   0  0  0  0  0  0  0  0  0  0  0  0
  -20.8230   -3.4940   25.0350 F   0  0  0  0  0  0  0  0  0  0  0  0
  -23.7150  -13.2760   21.9800 C   0  0  0  0  0  0  0  0  0  0  0  0
  -23.1520  -12.4100   22.8130 N   0  0  0  0  0  0  0  0  0  0  0  0
  -23.3500  -14.4490   21.9420 O   0  0  0  0  0  0  0  0  0  0  0  0
  -23.4750  -11.4550   22.8680 H   0  0  0  0  0  0  0  0  0  0  0  0
  -22.3910  -12.7070   23.4060 H   0  0  0  0  0  0  0  0  0  0  0  0
  -26.2460  -14.8740   20.8040 N   0  0  0  0  0  0  0  0  0  0  0  0
  -25.6720  -15.5270   21.3280 H   0  0  0  0  0  0  0  0  0  0  0  0
  -27.0250  -15.3190   20.3340 H   0  0  0  0  0  0  0  0  0  0  0  0
  -28.9520  -17.6810   21.2020 C   0  0  0  0  0  2  0  0  0  0  0  0
  -31.0050  -19.5580   23.5900 C   0  0  0  0  0  2  0  0  0  0  0  0
  -30.7860  -18.9100   22.2250 C   0  0  0  0  0  2  0  0  0  0  0  0
  -28.9340  -18.3520   23.5380 C   0  0  0  0  0  2  0  0  0  0  0  0
  -30.1030  -18.7190   24.4810 C   0  0  0  0  0  3  0  0  0  0  0  0
  -29.3370  -18.7190   22.1700 N   0  0  0  0  0  0  0  0  0  0  0  0
  -29.6940  -19.4180   25.7250 N   0  0  0  0  0  4  0  0  0  0  0  0
  -29.0840  -20.1770   25.4700 H   0  0  0  0  0  0  0  0  0  0  0  0
  -30.5140  -19.8160   26.1560 H   0  0  0  0  0  0  0  0  0  0  0  0
  -27.7500  -19.2140   27.2870 C   0  0  0  0  0  1  0  0  0  0  0  0
  -29.9710  -18.1520   27.8690 C   0  0  0  0  0  1  0  0  0  0  0  0
  -29.0170  -18.5510   26.7250 C   0  0  0  0  0  3  0  0  0  0  0  0
  -28.3540  -20.4630   19.8260 C   0  0  0  0  0  2  0  0  0  0  0  0
  -28.4120  -21.8550   19.1760 N   0  0  0  0  0  4  0  0  0  0  0  0
  -27.5890  -21.9550   18.6050 H   0  0  0  0  0  0  0  0  0  0  0  0
  -29.1970  -21.8390   18.5440 H   0  0  0  0  0  0  0  0  0  0  0  0
  -28.5630  -23.1250   20.0310 C   0  0  0  0  0  2  0  0  0  0  0  0
  -28.1120  -24.5260   19.3650 C   0  0  0  0  0  2  0  0  0  0  0  0
  -28.6380  -25.8570   19.8170 O   0  0  0  0  0  0  0  0  0  0  0  0
  -26.4220  -30.9720   24.4060 C   0  0  0  0  0  0  0  0  0  0  0  0
  -27.7420  -26.9230   20.0630 C   0  0  0  0  0  0  0  0  0  0  0  0
  -24.8180  -30.2890   22.6560 C   0  0  0  0  0  3  0  0  0  0  0  0
  -25.7930  -28.9250   20.7210 C   0  0  0  0  0  0  0  0  0  0  0  0
  -27.3470  -30.1650   22.2230 C   0  0  0  0  0  2  0  0  0  0  0  0
  -27.0810  -29.0080   21.2650 C   0  0  0  0  0  0  0  0  0  0  0  0
  -28.0570  -28.0200   20.9340 C   0  0  0  0  0  3  0  0  0  0  0  0
  -26.4520  -26.9300   19.4870 C   0  0  0  0  0  3  0  0  0  0  0  0
  -25.4850  -27.8980   19.8190 C   0  0  0  0  0  3  0  0  0  0  0  0
  -24.7700  -29.9620   21.1400 C   0  0  0  0  0  2  0  0  0  0  0  0
  -26.2220  -30.4720   23.1500 N   0  0  0  0  0  0  0  0  0  0  0  0
  -25.4690  -31.2950   25.1310 O   0  0  0  0  0  0  0  0  0  0  0  0
  -24.0370  -29.1970   23.4320 C   0  0  0  0  0  0  0  0  0  0  0  0
  -22.7430  -29.0320   23.1110 N   0  0  0  0  0  0  0  0  0  0  0  0
  -24.6030  -28.5070   24.2830 O   0  0  0  0  0  0  0  0  0  0  0  0
  -22.3470  -29.6410   22.4080 H   0  0  0  0  0  0  0  0  0  0  0  0
  -19.4710  -27.5350   22.7670 C   0  0  0  0  0  0  0  0  0  0  0  0
  -21.8340  -28.0400   23.6870 C   0  0  0  0  0  3  0  0  0  0  0  0
  -22.2080  -26.6120   23.2260 C   0  0  0  0  0  2  0  0  0  0  0  0
  -21.4450  -26.1650   21.9770 C   0  0  0  0  0  2  0  0  0  0  0  0
  -19.9340  -26.1940   22.2270 C   0  0  0  0  0  2  0  0  0  0  0  0
  -20.3650  -28.4080   23.4410 C   0  0  0  0  0  0  0  0  0  0  0  0
  -19.8890  -29.6570   23.8940 C   0  0  0  0  0  3  0  0  0  0  0  0
  -18.5490  -30.0350   23.6890 C   0  0  0  0  0  3  0  0  0  0  0  0
  -17.6650  -29.1600   23.0370 C   0  0  0  0  0  3  0  0  0  0  0  0
  -18.1230  -27.9120   22.5800 C   0  0  0  0  0  3  0  0  0  0  0  0
  -27.8560  -31.1750   24.9810 C   0  0  0  0  0  3  0  0  0  0  0  0
  -27.8660  -32.4530   25.7070 N   0  0  0  0  0  0  0  0  0  0  0  0
  -28.3730  -33.5980   25.2290 C   0  0  0  0  0  0  0  0  0  0  0  0
  -28.9420  -33.6730   24.1370 O   0  0  0  0  0  0  0  0  0  0  0  0
  -27.3560  -32.4810   26.5770 H   0  0  0  0  0  0  0  0  0  0  0  0
  -27.0520  -35.7110   25.5710 C   0  0  0  0  0  1  0  0  0  0  0  0
  -28.2190  -34.8600   26.0990 C   0  0  0  0  0  3  0  0  0  0  0  0
  -30.5300  -35.0480   26.9060 C   0  0  0  0  0  1  0  0  0  0  0  0
  -29.4460  -35.6840   26.1630 N   0  0  0  0  0  0  0  0  0  0  0  0
  -29.2510  -36.5830   26.5990 H   0  0  0  0  0  0  0  0  0  0  0  0
  -28.3180  -29.9990   25.9250 C   0  0  1  0  0  0  0  0  0  0  0  0
  -27.3000  -29.6670   27.0390 C   0  0  0  0  0  1  0  0  0  0  0  0
  -28.5690  -28.7090   25.1110 C   0  0  0  0  0  1  0  0  0  0  0  0
  -29.6580  -30.3640   26.6010 C   0  0  0  0  0  1  0  0  0  0  0  0
  1  3  2  0
  1  2  1  0
  2  4  2  0
  3  6  1  0
  4  5  1  0
  4 57  1  0
  5 45  1  0
  6 15  1  0
  6  5  2  0
  7 13  1  0
  7 15  1  0
  8 13  1  0
  9 10  1  0
  9  8  1  0
 11 10  1  0
 11 20  1  0
 11 12  1  0
 13 12  1  0
 14  7  2  0
 15 16  1  0
 17 42  1  0
 17 18  2  0
 18 37  1  0
 19 22  1  0
 19 18  1  0
 20 21  1  0
 20 17  1  0
 21 19  2  0
 22 23  1  0
 23 24  2  0
 25 24  1  0
 26 25  2  0
 27 26  1  0
 27 22  2  0
 28 25  1  0
 28 29  1  0
 29 30  1  0
 30 31  2  0
 32 31  1  0
 32 36  1  0
 33 32  2  0
 34 29  2  0
 34 33  1  0
 35 34  1  0
 37 38  1  0
 38 40  1  0
 38 41  1  0
 39 37  2  0
 42 43  1  0
 44 42  1  0
 45 50  1  0
 46 49  1  0
 47 46  1  0
 48 49  1  0
 49 51  1  0
 50 47  1  0
 50 48  1  0
 51 53  1  0
 51 56  1  0
 52 51  1  0
 56 54  1  0
 56 55  1  0
 58 57  1  0
 58 61  1  0
 59 58  1  0
 60 58  1  0
 62 63  1  0
 62 61  1  0
 63 65  1  0
 64 75  2  0
 65 70  1  0
 66 74  1  0
 66 76  1  0
 67 73  1  0
 67 69  1  0
 68 74  1  0
 69 68  1  0
 70 69  2  0
 71 72  1  0
 71 65  2  0
 72 67  2  0
 73 66  1  0
 74 64  1  0
 76 78  2  0
 77 76  1  0
 79 77  1  0
 80 85  1  0
 81 77  1  0
 82 81  1  0
 83 84  1  0
 83 82  1  0
 84 80  1  0
 85 81  1  0
 85 86  2  0
 87 86  1  0
 88 87  2  0
 89 80  2  0
 89 88  1  0
 90 64  1  0
 90 91  1  0
 90100  1  0
 91 94  1  0
 92 91  1  0
 92 96  1  0
 93 92  2  0
 96 95  1  0
 96 98  1  0
 98 99  1  0
 98 97  1  0
100103  1  1
100101  1  0
102100  1  0
M  ISO  4   7 100  15 100  62 101  63 101
M  END
>  <TORSDO>  (88) 
F 24

>  <SCORE>  (88) 
10.544

>  <name>  (88) 
87

>  <ligand_id>  (88) 
87

>  <original_smiles>  (88) 
[H]c1c([H])c([H])c2c(c1[H])C([H])([H])C([H])([H])C([H])([H])C2([H])N([H])C(=O)C1([H])N(C(=O)C([H])(N([H])C(=O)C([H])(N([H])C([H])([H])[H])C([H])([H])[H])C(C([H])([H])[H])(C([H])([H])[H])C([H])([H])[H])C([H])([H])c2c([H])c(OC([H])([H])C([H])([H])[N+]([H])([H])C([H])([H])c3c([H])c([H])c([H])c(N([H])C(=O)N4C([H])([H])C([H])([H])C([H])([H])C([H])(n5nc(-c6c([H])c([H])c(Oc7c([H])c([H])c(F)c([H])c7F)c([H])c6[H])c(C(=O)N([H])[H])c5N([H])[H])C4([H])[H])c3C([H])([H])N3C([H])([H])C([H])([H])C([H])([N+]([H])([H])C([H])(C([H])([H])[H])C([H])([H])[H])C3([H])[H])c([H])c([H])c2C1([H])[H]

>  <smiles>  (88) 
[H]c1c([H])c([H])c2c(c1[H])C([H])([H])C([H])([H])C([H])([H])C2([H])N([H])C(=O)C1([H])N(C(=O)C([H])(N([H])C(=O)C([H])(N([H])C([H])([H])[H])C([H])([H])[H])C(C([H])([H])[H])(C([H])([H])[H])C([H])([H])[H])C([H])([H])c2c([H])c(OC([H])([H])C([H])([H])[N+]([H])([H])C([H])([H])c3c([H])c([H])c([H])c(N([H])C(=O)N4C([H])([H])C([H])([H])C([H])([H])C([H])(n5nc(-c6c([H])c([H])c(Oc7c([H])c([H])c(F)c([H])c7F)c([H])c6[H])c(C(=O)N([H])[H])c5N([H])[H])C4([H])[H])c3C([H])([H])N3C([H])([H])C([H])([H])C([H])([N+]([H])([H])C([H])(C([H])([H])[H])C([H])([H])[H])C3([H])[H])c([H])c([H])c2C1([H])[H]

$$$$
88:0:0
     RDKit          3D

 93101  0  0  1  0  0  0  0  0999 V2000
  -29.6890  -20.2810   21.5260 C   0  0  0  0  0  3  0  0  0  0  0  0
  -29.3150  -21.5860   21.1330 C   0  0  0  0  0  3  0  0  0  0  0  0
  -30.2460  -19.3610   20.6060 C   0  0  0  0  0  0  0  0  0  0  0  0
  -30.4320  -19.7890   19.2610 C   0  0  0  0  0  0  0  0  0  0  0  0
  -29.4740  -22.0050   19.7930 C   0  0  0  0  0  0  0  0  0  0  0  0
  -30.0110  -21.0830   18.8630 C   0  0  0  0  0  0  0  0  0  0  0  0
  -31.0680  -18.8870   18.2110 C   0  0  0  0  0  1  0  0  0  0  0  0
  -28.9340  -21.3840   16.8130 C   0  0  0  0  0  1  0  0  0  0  0  0
  -30.1490  -21.4540   17.5490 O   0  0  0  0  0  0  0  0  0  0  0  0
  -30.6240  -17.9460   21.0910 C   0  0  0  0  0  2  0  0  0  0  0  0
  -29.7220  -16.8350   20.4990 C   0  0  0  0  0  2  0  0  0  0  0  0
  -30.6700  -14.5140   20.4880 C   0  0  0  0  0  0  0  0  0  0  0  0
  -30.4070  -12.3730   19.2950 C   0  0  0  0  0  2  0  0  0  0  0  0
  -29.4620  -12.6260   18.0990 C   0  0  0  0  0  2  0  0  0  0  0  0
  -27.9840  -12.4880   18.5220 C   0  0  0  0  0  2  0  0  0  0  0  0
  -27.6560  -13.2820   19.8150 C   0  0  0  0  0  3  0  0  0  0  0  0
  -28.7070  -12.9940   20.9120 C   0  0  0  0  0  2  0  0  0  0  0  0
  -30.0400  -13.3140   20.3650 N   0  0  0  0  0  0  0  0  0  0  0  0
  -31.7600  -14.7640   19.9680 O   0  0  0  0  0  0  0  0  0  0  0  0
  -29.9080  -15.4780   21.0400 N   0  0  0  0  0  0  0  0  0  0  0  0
  -29.1100  -15.1190   21.5420 H   0  0  0  0  0  0  0  0  0  0  0  0
  -25.2520  -13.8980   20.5060 C   0  0  0  0  0  0  0  0  0  0  0  0
  -24.1810  -13.1280   20.8750 C   0  0  0  0  0  0  0  0  0  0  0  0
  -24.6400  -11.7750   20.8470 C   0  0  0  0  0  0  0  0  0  0  0  0
  -26.2970  -13.0130   20.2820 N   0  0  0  0  0  0  0  0  0  0  0  0
  -25.9300  -11.7320   20.5400 N   0  0  0  0  0  0  0  0  0  0  0  0
  -23.9130  -10.5150   21.0380 C   0  0  0  0  0  0  0  0  0  0  0  0
  -24.3430   -9.5480   21.9740 C   0  0  0  0  0  3  0  0  0  0  0  0
  -23.6170   -8.3510   22.1520 C   0  0  0  0  0  3  0  0  0  0  0  0
  -22.4460   -8.1120   21.3930 C   0  0  0  0  0  0  0  0  0  0  0  0
  -22.0360   -9.0660   20.4460 C   0  0  0  0  0  3  0  0  0  0  0  0
  -22.7630  -10.2540   20.2660 C   0  0  0  0  0  3  0  0  0  0  0  0
  -21.6930   -6.9660   21.4800 O   0  0  0  0  0  0  0  0  0  0  0  0
  -21.6380   -6.2260   22.6340 C   0  0  0  0  0  0  0  0  0  0  0  0
  -21.2100   -6.7830   23.8580 C   0  0  0  0  0  3  0  0  0  0  0  0
  -21.1010   -5.9700   25.0020 C   0  0  0  0  0  3  0  0  0  0  0  0
  -21.4130   -4.5990   24.9250 C   0  0  0  0  0  0  0  0  0  0  0  0
  -21.8370   -4.0420   23.7060 C   0  0  0  0  0  3  0  0  0  0  0  0
  -21.9470   -4.8520   22.5630 C   0  0  0  0  0  0  0  0  0  0  0  0
  -22.3330   -4.3050   21.3860 F   0  0  0  0  0  0  0  0  0  0  0  0
  -21.3030   -3.8140   26.0230 F   0  0  0  0  0  0  0  0  0  0  0  0
  -22.7830  -13.6070   21.1450 C   0  0  0  0  0  0  0  0  0  0  0  0
  -22.0530  -12.9110   22.0090 N   0  0  0  0  0  0  0  0  0  0  0  0
  -22.3460  -14.6330   20.6250 O   0  0  0  0  0  0  0  0  0  0  0  0
  -22.4190  -12.0820   22.4530 H   0  0  0  0  0  0  0  0  0  0  0  0
  -21.1130  -13.2110   22.2300 H   0  0  0  0  0  0  0  0  0  0  0  0
  -25.4200  -15.2680   20.3260 N   0  0  0  0  0  0  0  0  0  0  0  0
  -24.6550  -15.9260   20.4240 H   0  0  0  0  0  0  0  0  0  0  0  0
  -26.2730  -15.7000   19.9950 H   0  0  0  0  0  0  0  0  0  0  0  0
  -29.1490  -23.2640   19.3130 O   0  0  0  0  0  0  0  0  0  0  0  0
  -28.7500  -24.3100   20.2040 C   0  0  0  0  0  2  0  0  0  0  0  0
  -28.7710  -25.6380   19.4090 C   0  0  0  0  0  2  0  0  0  0  0  0
  -28.5360  -26.8050   20.2140 O   0  0  0  0  0  0  0  0  0  0  0  0
  -24.6060  -31.8990   23.2360 C   0  0  0  0  0  0  0  0  0  0  0  0
  -27.3230  -27.4690   20.1840 C   0  0  0  0  0  0  0  0  0  0  0  0
  -23.4260  -30.4870   21.5830 C   0  0  0  0  0  3  0  0  0  0  0  0
  -24.9040  -28.9530   20.1780 C   0  0  0  0  0  0  0  0  0  0  0  0
  -25.9500  -30.8620   21.4090 C   0  0  0  0  0  2  0  0  0  0  0  0
  -26.0510  -29.4880   20.7750 C   0  0  0  0  0  0  0  0  0  0  0  0
  -27.2570  -28.7520   20.7790 C   0  0  0  0  0  3  0  0  0  0  0  0
  -26.1470  -26.9380   19.6010 C   0  0  0  0  0  3  0  0  0  0  0  0
  -24.9470  -27.6760   19.5930 C   0  0  0  0  0  3  0  0  0  0  0  0
  -23.6550  -29.8050   20.2060 C   0  0  0  0  0  2  0  0  0  0  0  0
  -24.6780  -31.0990   22.1340 N   0  0  0  0  0  0  0  0  0  0  0  0
  -23.5170  -32.1640   23.7650 O   0  0  0  0  0  0  0  0  0  0  0  0
  -22.7720  -29.4630   22.5370 C   0  0  0  0  0  0  0  0  0  0  0  0
  -21.4490  -29.2780   22.4000 N   0  0  0  0  0  0  0  0  0  0  0  0
  -23.4510  -28.8380   23.3550 O   0  0  0  0  0  0  0  0  0  0  0  0
  -20.9630  -29.8330   21.7100 H   0  0  0  0  0  0  0  0  0  0  0  0
  -18.0720  -28.0890   22.8830 C   0  0  0  0  0  0  0  0  0  0  0  0
  -20.6300  -28.3380   23.1630 C   0  0  0  0  0  3  0  0  0  0  0  0
  -20.7300  -26.9100   22.5780 C   0  0  0  0  0  2  0  0  0  0  0  0
  -19.6290  -26.5980   21.5590 C   0  0  0  0  0  2  0  0  0  0  0  0
  -18.2460  -26.7430   22.2000 C   0  0  0  0  0  2  0  0  0  0  0  0
  -19.1910  -28.8440   23.3220 C   0  0  0  0  0  0  0  0  0  0  0  0
  -18.9760  -30.1040   23.9210 C   0  0  0  0  0  3  0  0  0  0  0  0
  -17.6720  -30.6090   24.0850 C   0  0  0  0  0  3  0  0  0  0  0  0
  -16.5670  -29.8510   23.6630 C   0  0  0  0  0  3  0  0  0  0  0  0
  -16.7680  -28.5920   23.0680 C   0  0  0  0  0  3  0  0  0  0  0  0
  -25.8810  -32.5380   23.8710 C   0  0  0  0  0  3  0  0  0  0  0  0
  -25.5630  -33.9360   24.1880 N   0  0  0  0  0  0  0  0  0  0  0  0
  -25.9040  -34.9850   23.4280 C   0  0  0  0  0  0  0  0  0  0  0  0
  -26.5890  -34.8780   22.4080 O   0  0  0  0  0  0  0  0  0  0  0  0
  -24.9540  -34.0930   24.9790 H   0  0  0  0  0  0  0  0  0  0  0  0
  -24.1750  -36.7700   23.0320 C   0  0  0  0  0  1  0  0  0  0  0  0
  -25.4020  -36.3740   23.8690 C   0  0  0  0  0  3  0  0  0  0  0  0
  -27.5190  -37.2690   24.7340 C   0  0  0  0  0  1  0  0  0  0  0  0
  -26.4340  -37.4300   23.7700 N   0  0  0  0  0  0  0  0  0  0  0  0
  -26.0220  -38.3500   23.9070 H   0  0  0  0  0  0  0  0  0  0  0  0
  -26.3870  -31.7740   25.1550 C   0  0  1  0  0  0  0  0  0  0  0  0
  -25.2840  -31.5360   26.2120 C   0  0  0  0  0  1  0  0  0  0  0  0
  -26.9800  -30.3990   24.7720 C   0  0  0  0  0  1  0  0  0  0  0  0
  -27.5280  -32.5750   25.8260 C   0  0  0  0  0  1  0  0  0  0  0  0
  2  1  1  0
  3 10  1  0
  3  1  2  0
  4  3  1  0
  5  2  2  0
  6  4  2  0
  6  5  1  0
  7  4  1  0
  8  9  1  0
  9  6  1  0
 11 20  1  0
 11 10  1  0
 12 20  1  0
 13 18  1  0
 14 15  1  0
 14 13  1  0
 16 15  1  0
 16 25  1  0
 16 17  1  0
 18 12  1  0
 18 17  1  0
 19 12  2  0
 20 21  1  0
 22 23  2  0
 23 42  1  0
 24 23  1  0
 24 27  1  0
 25 22  1  0
 25 26  1  0
 26 24  2  0
 27 28  1  0
 28 29  2  0
 30 33  1  0
 30 29  1  0
 31 30  2  0
 32 31  1  0
 32 27  2  0
 33 34  1  0
 34 35  1  0
 35 36  2  0
 37 36  1  0
 37 41  1  0
 38 37  2  0
 39 34  2  0
 39 38  1  0
 40 39  1  0
 42 43  1  0
 43 46  1  0
 43 45  1  0
 44 42  2  0
 47 48  1  0
 47 22  1  0
 49 47  1  0
 50  5  1  0
 50 51  1  0
 52 51  1  0
 52 53  1  0
 54 65  2  0
 55 53  1  0
 55 60  1  0
 56 64  1  0
 56 66  1  0
 57 63  1  0
 57 59  1  0
 58 64  1  0
 59 60  2  0
 59 58  1  0
 61 55  2  0
 62 61  1  0
 62 57  2  0
 63 56  1  0
 64 54  1  0
 66 68  2  0
 67 66  1  0
 69 67  1  0
 70 79  2  0
 70 75  1  0
 71 67  1  0
 71 75  1  0
 72 71  1  0
 73 74  1  0
 73 72  1  0
 74 70  1  0
 75 76  2  0
 76 77  1  0
 78 77  2  0
 79 78  1  0
 80 54  1  0
 80 81  1  0
 80 90  1  0
 81 84  1  0
 82 86  1  0
 82 81  1  0
 83 82  2  0
 86 85  1  0
 88 86  1  0
 88 89  1  0
 88 87  1  0
 90 93  1  1
 90 91  1  0
 92 90  1  0
M  ISO  4  12 100  20 100  52 101  53 101
M  END
>  <TORSDO>  (89) 
F 22

>  <SCORE>  (89) 
-13.165

>  <name>  (89) 
88

>  <ligand_id>  (89) 
88

>  <original_smiles>  (89) 
[H]c1c([H])c([H])c2c(c1[H])C([H])([H])C([H])([H])C([H])([H])C2([H])N([H])C(=O)C1([H])N(C(=O)C([H])(N([H])C(=O)C([H])(N([H])C([H])([H])[H])C([H])([H])[H])C(C([H])([H])[H])(C([H])([H])[H])C([H])([H])[H])C([H])([H])c2c([H])c(OC([H])([H])C([H])([H])Oc3c([H])c([H])c(C([H])([H])C([H])([H])N([H])C(=O)N4C([H])([H])C([H])([H])C([H])([H])C([H])(n5nc(-c6c([H])c([H])c(Oc7c([H])c([H])c(F)c([H])c7F)c([H])c6[H])c(C(=O)N([H])[H])c5N([H])[H])C4([H])[H])c(C([H])([H])[H])c3OC([H])([H])[H])c([H])c([H])c2C1([H])[H]

>  <smiles>  (89) 
[H]c1c([H])c([H])c2c(c1[H])C([H])([H])C([H])([H])C([H])([H])C2([H])N([H])C(=O)C1([H])N(C(=O)C([H])(N([H])C(=O)C([H])(N([H])C([H])([H])[H])C([H])([H])[H])C(C([H])([H])[H])(C([H])([H])[H])C([H])([H])[H])C([H])([H])c2c([H])c(OC([H])([H])C([H])([H])Oc3c([H])c([H])c(C([H])([H])C([H])([H])N([H])C(=O)N4C([H])([H])C([H])([H])C([H])([H])C([H])(n5nc(-c6c([H])c([H])c(Oc7c([H])c([H])c(F)c([H])c7F)c([H])c6[H])c(C(=O)N([H])[H])c5N([H])[H])C4([H])[H])c(C([H])([H])[H])c3OC([H])([H])[H])c([H])c([H])c2C1([H])[H]

$$$$
89:0:0
     RDKit          3D

 99108  0  0  1  0  0  0  0  0999 V2000
  -30.3300  -20.3070   20.4660 C   0  0  0  0  0  3  0  0  0  0  0  0
  -26.9700  -19.1760   18.7150 C   0  0  0  0  0  2  0  0  0  0  0  0
  -28.2450  -19.9840   18.9830 C   0  0  0  0  0  2  0  0  0  0  0  0
  -27.3050  -17.6990   18.4980 C   0  0  0  0  0  2  0  0  0  0  0  0
  -29.0800  -19.4070   20.1590 C   0  0  0  0  0  3  0  0  0  0  0  0
  -29.3330  -17.8590   19.9420 C   0  0  0  0  0  3  0  0  0  0  0  0
  -28.0440  -17.1740   19.6620 N   0  0  0  0  0  4  0  0  0  0  0  0
  -28.2310  -16.2020   19.4890 H   0  0  0  0  0  0  0  0  0  0  0  0
  -27.4390  -17.2330   20.4660 H   0  0  0  0  0  0  0  0  0  0  0  0
  -30.1060  -17.1080   21.0820 C   0  0  0  0  0  2  0  0  0  0  0  0
  -30.7130  -14.6770   20.5460 C   0  0  0  0  0  0  0  0  0  0  0  0
  -30.4860  -12.5400   19.3300 C   0  0  0  0  0  2  0  0  0  0  0  0
  -29.5330  -12.7630   18.1360 C   0  0  0  0  0  2  0  0  0  0  0  0
  -28.0600  -12.5900   18.5610 C   0  0  0  0  0  2  0  0  0  0  0  0
  -27.7150  -13.3760   19.8540 C   0  0  0  0  0  3  0  0  0  0  0  0
  -28.7750  -13.1170   20.9500 C   0  0  0  0  0  2  0  0  0  0  0  0
  -30.0950  -13.4740   20.3970 N   0  0  0  0  0  0  0  0  0  0  0  0
  -31.8190  -14.9360   20.0660 O   0  0  0  0  0  0  0  0  0  0  0  0
  -29.9270  -15.6350   21.0820 N   0  0  0  0  0  0  0  0  0  0  0  0
  -29.1020  -15.2800   21.5430 H   0  0  0  0  0  0  0  0  0  0  0  0
  -25.3090  -13.9590   20.5480 C   0  0  0  0  0  0  0  0  0  0  0  0
  -24.2400  -13.1720   20.8890 C   0  0  0  0  0  0  0  0  0  0  0  0
  -24.7170  -11.8250   20.8510 C   0  0  0  0  0  0  0  0  0  0  0  0
  -26.3620  -13.0880   20.3210 N   0  0  0  0  0  0  0  0  0  0  0  0
  -26.0100  -11.8010   20.5580 N   0  0  0  0  0  0  0  0  0  0  0  0
  -24.0060  -10.5540   21.0280 C   0  0  0  0  0  0  0  0  0  0  0  0
  -24.4350   -9.5930   21.9690 C   0  0  0  0  0  3  0  0  0  0  0  0
  -23.7250   -8.3840   22.1310 C   0  0  0  0  0  3  0  0  0  0  0  0
  -22.5730   -8.1280   21.3500 C   0  0  0  0  0  0  0  0  0  0  0  0
  -22.1640   -9.0780   20.3980 C   0  0  0  0  0  3  0  0  0  0  0  0
  -22.8750  -10.2790   20.2350 C   0  0  0  0  0  3  0  0  0  0  0  0
  -21.8370   -6.9710   21.4190 O   0  0  0  0  0  0  0  0  0  0  0  0
  -21.7510   -6.2410   22.5770 C   0  0  0  0  0  0  0  0  0  0  0  0
  -21.2400   -6.7940   23.7720 C   0  0  0  0  0  3  0  0  0  0  0  0
  -21.1050   -5.9870   24.9190 C   0  0  0  0  0  3  0  0  0  0  0  0
  -21.4730   -4.6280   24.8730 C   0  0  0  0  0  0  0  0  0  0  0  0
  -21.9770   -4.0750   23.6840 C   0  0  0  0  0  3  0  0  0  0  0  0
  -22.1130   -4.8790   22.5380 C   0  0  0  0  0  0  0  0  0  0  0  0
  -22.5810   -4.3350   21.3880 F   0  0  0  0  0  0  0  0  0  0  0  0
  -21.3360   -3.8510   25.9720 F   0  0  0  0  0  0  0  0  0  0  0  0
  -22.8380  -13.6340   21.1620 C   0  0  0  0  0  0  0  0  0  0  0  0
  -22.1120  -12.9190   22.0150 N   0  0  0  0  0  0  0  0  0  0  0  0
  -22.3990  -14.6660   20.6590 O   0  0  0  0  0  0  0  0  0  0  0  0
  -22.4810  -12.0840   22.4450 H   0  0  0  0  0  0  0  0  0  0  0  0
  -21.1720  -13.2120   22.2420 H   0  0  0  0  0  0  0  0  0  0  0  0
  -25.4800  -15.3360   20.4150 N   0  0  0  0  0  0  0  0  0  0  0  0
  -24.5620  -15.7720   20.4180 H   0  0  0  0  0  0  0  0  0  0  0  0
  -25.9330  -15.6530   21.2630 H   0  0  0  0  0  0  0  0  0  0  0  0
  -29.4450  -24.0450   19.7650 C   0  0  0  0  0  3  0  0  0  0  0  0
  -29.7660  -22.6790   19.5890 C   0  0  0  0  0  3  0  0  0  0  0  0
  -29.5250  -23.7310   22.1630 C   0  0  0  0  0  3  0  0  0  0  0  0
  -29.3210  -24.5880   21.0600 C   0  0  0  0  0  0  0  0  0  0  0  0
  -29.9710  -21.8070   20.6920 C   0  0  0  0  0  0  0  0  0  0  0  0
  -29.8430  -22.3600   21.9960 C   0  0  0  0  0  0  0  0  0  0  0  0
  -30.0460  -21.5140   23.2420 C   0  0  0  0  0  1  0  0  0  0  0  0
  -28.9770  -26.0650   21.3150 C   0  0  0  0  0  2  0  0  0  0  0  0
  -28.7920  -26.8820   20.1470 O   0  0  0  0  0  0  0  0  0  0  0  0
  -24.6960  -31.8230   23.2900 C   0  0  0  0  0  0  0  0  0  0  0  0
  -27.6170  -27.6000   20.1540 C   0  0  0  0  0  0  0  0  0  0  0  0
  -23.5940  -30.4110   21.5840 C   0  0  0  0  0  3  0  0  0  0  0  0
  -25.1530  -28.9830   20.1520 C   0  0  0  0  0  0  0  0  0  0  0  0
  -26.1020  -30.8960   21.4520 C   0  0  0  0  0  2  0  0  0  0  0  0
  -26.2710  -29.5480   20.7820 C   0  0  0  0  0  0  0  0  0  0  0  0
  -27.5080  -28.8620   20.7840 C   0  0  0  0  0  3  0  0  0  0  0  0
  -26.4880  -27.0500   19.5180 C   0  0  0  0  0  3  0  0  0  0  0  0
  -25.2560  -27.7330   19.5180 C   0  0  0  0  0  3  0  0  0  0  0  0
  -23.8660  -29.7790   20.1920 C   0  0  0  0  0  2  0  0  0  0  0  0
  -24.8140  -31.0580   22.1680 N   0  0  0  0  0  0  0  0  0  0  0  0
  -23.5920  -32.0300   23.8120 O   0  0  0  0  0  0  0  0  0  0  0  0
  -22.9710  -29.3350   22.5030 C   0  0  0  0  0  0  0  0  0  0  0  0
  -21.6640  -29.0830   22.3310 N   0  0  0  0  0  0  0  0  0  0  0  0
  -23.6640  -28.7310   23.3270 O   0  0  0  0  0  0  0  0  0  0  0  0
  -21.1640  -29.6260   21.6400 H   0  0  0  0  0  0  0  0  0  0  0  0
  -18.3530  -27.6760   22.6780 C   0  0  0  0  0  0  0  0  0  0  0  0
  -20.8770  -28.0850   23.0550 C   0  0  0  0  0  3  0  0  0  0  0  0
  -21.0900  -26.6720   22.4620 C   0  0  0  0  0  2  0  0  0  0  0  0
  -20.0500  -26.3010   21.4000 C   0  0  0  0  0  2  0  0  0  0  0  0
  -18.6390  -26.3510   21.9920 C   0  0  0  0  0  2  0  0  0  0  0  0
  -19.4050  -28.4980   23.1630 C   0  0  0  0  0  0  0  0  0  0  0  0
  -19.0870  -29.7360   23.7610 C   0  0  0  0  0  3  0  0  0  0  0  0
  -17.7490  -30.1550   23.8820 C   0  0  0  0  0  3  0  0  0  0  0  0
  -16.7100  -29.3310   23.4140 C   0  0  0  0  0  3  0  0  0  0  0  0
  -17.0130  -28.0940   22.8180 C   0  0  0  0  0  3  0  0  0  0  0  0
  -25.9380  -32.4970   23.9540 C   0  0  0  0  0  3  0  0  0  0  0  0
  -25.5670  -33.8790   24.2850 N   0  0  0  0  0  0  0  0  0  0  0  0
  -25.8810  -34.9500   23.5430 C   0  0  0  0  0  0  0  0  0  0  0  0
  -26.5850  -34.8790   22.5310 O   0  0  0  0  0  0  0  0  0  0  0  0
  -24.9440  -34.0050   25.0700 H   0  0  0  0  0  0  0  0  0  0  0  0
  -24.1030  -36.6800   23.1420 C   0  0  0  0  0  1  0  0  0  0  0  0
  -25.3280  -36.3150   23.9940 C   0  0  0  0  0  3  0  0  0  0  0  0
  -27.3950  -37.2700   24.9120 C   0  0  0  0  0  1  0  0  0  0  0  0
  -26.3250  -37.4050   23.9270 N   0  0  0  0  0  0  0  0  0  0  0  0
  -25.8800  -38.3090   24.0630 H   0  0  0  0  0  0  0  0  0  0  0  0
  -26.4480  -31.7330   25.2360 C   0  0  1  0  0  0  0  0  0  0  0  0
  -25.3350  -31.4420   26.2700 C   0  0  0  0  0  1  0  0  0  0  0  0
  -27.0950  -30.3830   24.8460 C   0  0  0  0  0  1  0  0  0  0  0  0
  -27.5490  -32.5630   25.9380 C   0  0  0  0  0  1  0  0  0  0  0  0
  -32.7920  -20.8190   19.8620 C   0  0  0  0  0  1  0  0  0  0  0  0
  -31.4880  -20.1160   19.4520 C   0  0  0  0  0  2  0  0  0  0  0  0
  1 99  1  0
  1 53  1  0
  2  3  1  0
  3  5  1  0
  4  2  1  0
  4  7  1  0
  5  1  1  0
  6  5  1  0
  6 10  1  0
  7  6  1  0
  7  9  1  0
  8  7  1  0
 10 19  1  0
 11 19  1  0
 12 17  1  0
 13 14  1  0
 13 12  1  0
 15 14  1  0
 15 24  1  0
 15 16  1  0
 17 11  1  0
 17 16  1  0
 18 11  2  0
 19 20  1  0
 21 22  2  0
 22 41  1  0
 23 22  1  0
 23 26  1  0
 24 21  1  0
 24 25  1  0
 25 23  2  0
 26 27  1  0
 27 28  2  0
 29 32  1  0
 29 28  1  0
 30 29  2  0
 31 30  1  0
 31 26  2  0
 32 33  1  0
 33 34  1  0
 34 35  2  0
 36 35  1  0
 36 40  1  0
 37 36  2  0
 38 33  2  0
 38 37  1  0
 39 38  1  0
 41 42  1  0
 42 45  1  0
 42 44  1  0
 43 41  2  0
 46 47  1  0
 46 21  1  0
 46 48  1  0
 49 52  1  0
 50 49  2  0
 50 53  1  0
 52 56  1  0
 52 51  2  0
 53 54  2  0
 54 51  1  0
 54 55  1  0
 57 59  1  0
 57 56  1  0
 58 69  2  0
 59 64  1  0
 60 68  1  0
 60 70  1  0
 61 67  1  0
 61 63  1  0
 62 68  1  0
 63 64  2  0
 63 62  1  0
 65 59  2  0
 66 65  1  0
 66 61  2  0
 67 60  1  0
 68 58  1  0
 70 72  2  0
 71 70  1  0
 73 71  1  0
 74 83  2  0
 74 79  1  0
 75 71  1  0
 75 79  1  0
 76 75  1  0
 77 78  1  0
 77 76  1  0
 78 74  1  0
 79 80  2  0
 80 81  1  0
 82 81  2  0
 83 82  1  0
 84 58  1  0
 84 85  1  0
 84 94  1  0
 85 88  1  0
 86 90  1  0
 86 85  1  0
 87 86  2  0
 90 89  1  0
 92 90  1  0
 92 93  1  0
 92 91  1  0
 94 97  1  1
 94 95  1  0
 96 94  1  0
 99 98  1  0
M  ISO  4  11 100  19 100  56 101  57 101
M  END
>  <TORSDO>  (90) 
F 21

>  <SCORE>  (90) 
-13.743

>  <name>  (90) 
89

>  <ligand_id>  (90) 
89

>  <original_smiles>  (90) 
[H]c1c([H])c([H])c2c(c1[H])C([H])([H])C([H])([H])C([H])([H])C2([H])N([H])C(=O)C1([H])N(C(=O)C([H])(N([H])C(=O)C([H])(N([H])C([H])([H])[H])C([H])([H])[H])C(C([H])([H])[H])(C([H])([H])[H])C([H])([H])[H])C([H])([H])c2c([H])c(OC([H])([H])c3c([H])c([H])c(C([H])(C([H])([H])C([H])([H])[H])C4([H])C([H])([H])C([H])([H])C([H])([H])[N+]([H])([H])C4([H])C([H])([H])N([H])C(=O)N4C([H])([H])C([H])([H])C([H])([H])C([H])(n5nc(-c6c([H])c([H])c(Oc7c([H])c([H])c(F)c([H])c7F)c([H])c6[H])c(C(=O)N([H])[H])c5N([H])[H])C4([H])[H])c(C([H])([H])[H])c3[H])c([H])c([H])c2C1([H])[H]

>  <smiles>  (90) 
[H]c1c([H])c([H])c2c(c1[H])C([H])([H])C([H])([H])C([H])([H])C2([H])N([H])C(=O)C1([H])N(C(=O)C([H])(N([H])C(=O)C([H])(N([H])C([H])([H])[H])C([H])([H])[H])C(C([H])([H])[H])(C([H])([H])[H])C([H])([H])[H])C([H])([H])c2c([H])c(OC([H])([H])c3c([H])c([H])c(C([H])(C([H])([H])C([H])([H])[H])C4([H])C([H])([H])C([H])([H])C([H])([H])[N+]([H])([H])C4([H])C([H])([H])N([H])C(=O)N4C([H])([H])C([H])([H])C([H])([H])C([H])(n5nc(-c6c([H])c([H])c(Oc7c([H])c([H])c(F)c([H])c7F)c([H])c6[H])c(C(=O)N([H])[H])c5N([H])[H])C4([H])[H])c(C([H])([H])[H])c3[H])c([H])c([H])c2C1([H])[H]

$$$$
90:0:0
     RDKit          3D

 97106  0  0  1  0  0  0  0  0999 V2000
  -28.6520  -19.9500   20.8030 C   0  0  0  0  0  3  0  0  0  0  0  0
  -30.9410  -18.7260   21.8070 C   0  0  0  0  0  3  0  0  0  0  0  0
  -29.0260  -18.6810   20.3020 C   0  0  0  0  0  0  0  0  0  0  0  0
  -29.4020  -20.6330   21.7790 C   0  0  0  0  0  0  0  0  0  0  0  0
  -30.2520  -18.1000   20.7400 C   0  0  0  0  0  0  0  0  0  0  0  0
  -30.5220  -19.9700   22.3410 C   0  0  0  0  0  0  0  0  0  0  0  0
  -31.3020  -20.5750   23.4970 C   0  0  0  0  0  1  0  0  0  0  0  0
  -27.8930  -18.5800   17.9210 C   0  0  0  0  0  2  0  0  0  0  0  0
  -26.7620  -18.5540   18.9260 C   0  0  0  0  0  2  0  0  0  0  0  0
  -28.1240  -18.0050   19.3000 C   0  0  0  0  0  3  0  0  0  0  0  0
  -32.2750  -17.3760   19.3580 C   0  0  0  0  0  1  0  0  0  0  0  0
  -30.9260  -16.9340   19.9730 C   0  0  0  0  0  0  0  0  0  0  0  0
  -31.6130  -14.4830   20.2480 C   0  0  0  0  0  0  0  0  0  0  0  0
  -31.1700  -12.3750   19.0560 C   0  0  0  0  0  2  0  0  0  0  0  0
  -30.2400  -12.7040   17.8690 C   0  0  0  0  0  2  0  0  0  0  0  0
  -28.7620  -12.6500   18.3060 C   0  0  0  0  0  2  0  0  0  0  0  0
  -28.4920  -13.4420   19.6150 C   0  0  0  0  0  3  0  0  0  0  0  0
  -29.5450  -13.1110   20.7000 C   0  0  0  0  0  2  0  0  0  0  0  0
  -30.8810  -13.3420   20.1280 N   0  0  0  0  0  0  0  0  0  0  0  0
  -32.7710  -14.5640   19.8300 O   0  0  0  0  0  0  0  0  0  0  0  0
  -30.9020  -15.5820   20.5980 N   0  0  0  0  0  4  0  0  0  0  0  0
  -30.0220  -15.3610   21.0390 H   0  0  0  0  0  0  0  0  0  0  0  0
  -26.1370  -14.1590   20.3590 C   0  0  0  0  0  0  0  0  0  0  0  0
  -25.0350  -13.4440   20.7360 C   0  0  0  0  0  0  0  0  0  0  0  0
  -25.4190  -12.0710   20.6720 C   0  0  0  0  0  0  0  0  0  0  0  0
  -27.1310  -13.2300   20.1020 N   0  0  0  0  0  0  0  0  0  0  0  0
  -26.7020  -11.9650   20.3450 N   0  0  0  0  0  0  0  0  0  0  0  0
  -24.6230  -10.8510   20.8390 C   0  0  0  0  0  0  0  0  0  0  0  0
  -24.9670   -9.8730   21.7980 C   0  0  0  0  0  3  0  0  0  0  0  0
  -24.1750   -8.7160   21.9550 C   0  0  0  0  0  3  0  0  0  0  0  0
  -23.0240   -8.5290   21.1530 C   0  0  0  0  0  0  0  0  0  0  0  0
  -22.7000   -9.4960   20.1840 C   0  0  0  0  0  3  0  0  0  0  0  0
  -23.4920  -10.6440   20.0260 C   0  0  0  0  0  3  0  0  0  0  0  0
  -22.2100   -7.4250   21.2190 O   0  0  0  0  0  0  0  0  0  0  0  0
  -21.9790   -6.7700   22.4020 C   0  0  0  0  0  0  0  0  0  0  0  0
  -21.4170   -7.4260   23.5190 C   0  0  0  0  0  3  0  0  0  0  0  0
  -21.1330   -6.6990   24.6910 C   0  0  0  0  0  3  0  0  0  0  0  0
  -21.4000   -5.3180   24.7470 C   0  0  0  0  0  0  0  0  0  0  0  0
  -21.9580   -4.6630   23.6350 C   0  0  0  0  0  3  0  0  0  0  0  0
  -22.2430   -5.3880   22.4640 C   0  0  0  0  0  0  0  0  0  0  0  0
  -22.7590   -4.7480   21.3870 F   0  0  0  0  0  0  0  0  0  0  0  0
  -21.1210   -4.6170   25.8710 F   0  0  0  0  0  0  0  0  0  0  0  0
  -23.6720  -13.9970   21.0370 C   0  0  0  0  0  0  0  0  0  0  0  0
  -22.9330  -13.3550   21.9340 N   0  0  0  0  0  0  0  0  0  0  0  0
  -23.2730  -15.0360   20.5100 O   0  0  0  0  0  0  0  0  0  0  0  0
  -23.2680  -12.5150   22.3840 H   0  0  0  0  0  0  0  0  0  0  0  0
  -22.0200  -13.7090   22.1780 H   0  0  0  0  0  0  0  0  0  0  0  0
  -26.3630  -15.5160   20.1820 N   0  0  0  0  0  0  0  0  0  0  0  0
  -25.6100  -16.1880   20.2690 H   0  0  0  0  0  0  0  0  0  0  0  0
  -27.1760  -15.8880   19.7130 H   0  0  0  0  0  0  0  0  0  0  0  0
  -28.9690  -22.0600   22.1560 C   0  0  0  0  0  2  0  0  0  0  0  0
  -29.2820  -23.0140   21.0620 N   0  0  0  0  0  4  0  0  0  0  0  0
  -28.9300  -22.6140   20.2080 H   0  0  0  0  0  0  0  0  0  0  0  0
  -30.2860  -23.0490   20.9790 H   0  0  0  0  0  0  0  0  0  0  0  0
  -28.7420  -24.4000   21.2050 C   0  0  0  0  0  2  0  0  0  0  0  0
  -28.9400  -25.2400   19.9160 C   0  0  0  0  0  2  0  0  0  0  0  0
  -28.7820  -26.6480   20.1510 O   0  0  0  0  0  0  0  0  0  0  0  0
  -24.6670  -31.6310   23.0700 C   0  0  0  0  0  0  0  0  0  0  0  0
  -27.5510  -27.2740   20.0900 C   0  0  0  0  0  0  0  0  0  0  0  0
  -23.5610  -30.2060   21.3770 C   0  0  0  0  0  3  0  0  0  0  0  0
  -25.1070  -28.7110   20.0070 C   0  0  0  0  0  0  0  0  0  0  0  0
  -26.0780  -30.6390   21.2650 C   0  0  0  0  0  2  0  0  0  0  0  0
  -26.2250  -29.2690   20.6360 C   0  0  0  0  0  0  0  0  0  0  0  0
  -27.4450  -28.5600   20.6700 C   0  0  0  0  0  3  0  0  0  0  0  0
  -26.4080  -26.7270   19.4590 C   0  0  0  0  0  3  0  0  0  0  0  0
  -25.1930  -27.4400   19.4140 C   0  0  0  0  0  3  0  0  0  0  0  0
  -23.8400  -29.5360   20.0060 C   0  0  0  0  0  2  0  0  0  0  0  0
  -24.7850  -30.8410   21.9630 N   0  0  0  0  0  0  0  0  0  0  0  0
  -23.5580  -31.8690   23.5710 O   0  0  0  0  0  0  0  0  0  0  0  0
  -22.9040  -29.1610   22.3090 C   0  0  0  0  0  0  0  0  0  0  0  0
  -21.5780  -29.0010   22.1840 N   0  0  0  0  0  0  0  0  0  0  0  0
  -23.5870  -28.5000   23.0960 O   0  0  0  0  0  0  0  0  0  0  0  0
  -21.0900  -29.5940   21.5260 H   0  0  0  0  0  0  0  0  0  0  0  0
  -18.1770  -27.9250   22.7630 C   0  0  0  0  0  0  0  0  0  0  0  0
  -20.7540  -28.0480   22.9260 C   0  0  0  0  0  3  0  0  0  0  0  0
  -20.7600  -26.6570   22.2520 C   0  0  0  0  0  2  0  0  0  0  0  0
  -19.6000  -26.4550   21.2710 C   0  0  0  0  0  2  0  0  0  0  0  0
  -18.2580  -26.6180   21.9900 C   0  0  0  0  0  2  0  0  0  0  0  0
  -19.3500  -28.6020   23.1880 C   0  0  0  0  0  0  0  0  0  0  0  0
  -19.2210  -29.8290   23.8750 C   0  0  0  0  0  3  0  0  0  0  0  0
  -17.9520  -30.3780   24.1380 C   0  0  0  0  0  3  0  0  0  0  0  0
  -16.7940  -29.6960   23.7270 C   0  0  0  0  0  3  0  0  0  0  0  0
  -16.9070  -28.4700   23.0480 C   0  0  0  0  0  3  0  0  0  0  0  0
  -25.9100  -32.2940   23.7400 C   0  0  0  0  0  3  0  0  0  0  0  0
  -25.5390  -33.6690   24.1000 N   0  0  0  0  0  0  0  0  0  0  0  0
  -25.8380  -34.7520   23.3700 C   0  0  0  0  0  0  0  0  0  0  0  0
  -26.5280  -34.7020   22.3490 O   0  0  0  0  0  0  0  0  0  0  0  0
  -24.9250  -33.7810   24.8950 H   0  0  0  0  0  0  0  0  0  0  0  0
  -24.0310  -36.4710   23.0420 C   0  0  0  0  0  1  0  0  0  0  0  0
  -25.2850  -36.1070   23.8530 C   0  0  0  0  0  3  0  0  0  0  0  0
  -27.3650  -37.0790   24.7210 C   0  0  0  0  0  1  0  0  0  0  0  0
  -26.2670  -37.2080   23.7670 N   0  0  0  0  0  0  0  0  0  0  0  0
  -25.8160  -38.1050   23.9240 H   0  0  0  0  0  0  0  0  0  0  0  0
  -26.4320  -31.5050   25.0040 C   0  0  1  0  0  0  0  0  0  0  0  0
  -25.3280  -31.1750   26.0340 C   0  0  0  0  0  1  0  0  0  0  0  0
  -27.0930  -30.1730   24.5770 C   0  0  0  0  0  1  0  0  0  0  0  0
  -27.5220  -32.3320   25.7280 C   0  0  0  0  0  1  0  0  0  0  0  0
  1  4  1  0
  2  6  1  0
  3  5  1  0
  3  1  2  0
  4 51  1  0
  4  6  2  0
  5  2  2  0
  6  7  1  0
  8  9  1  0
  8 10  1  0
  9 10  1  0
 10  3  1  0
 11 12  1  0
 12 21  2  0
 12  5  1  0
 13 21  1  0
 14 19  1  0
 15 16  1  0
 15 14  1  0
 17 16  1  0
 17 26  1  0
 17 18  1  0
 19 13  1  0
 19 18  1  0
 20 13  2  0
 21 22  1  0
 23 24  2  0
 24 43  1  0
 25 24  1  0
 25 28  1  0
 26 27  1  0
 26 23  1  0
 27 25  2  0
 28 29  1  0
 29 30  2  0
 31 34  1  0
 31 30  1  0
 32 31  2  0
 33 32  1  0
 33 28  2  0
 34 35  1  0
 35 40  2  0
 35 36  1  0
 36 37  2  0
 37 38  1  0
 38 42  1  0
 39 38  2  0
 40 39  1  0
 41 40  1  0
 43 44  1  0
 44 47  1  0
 44 46  1  0
 45 43  2  0
 48 49  1  0
 48 23  1  0
 50 48  1  0
 52 55  1  0
 52 51  1  0
 53 52  1  0
 54 52  1  0
 56 57  1  0
 56 55  1  0
 58 69  2  0
 59 57  1  0
 59 64  1  0
 60 68  1  0
 60 70  1  0
 61 63  1  0
 62 68  1  0
 63 64  2  0
 63 62  1  0
 65 59  2  0
 66 65  1  0
 66 61  2  0
 67 61  1  0
 67 60  1  0
 68 58  1  0
 70 72  2  0
 71 70  1  0
 73 71  1  0
 74 83  2  0
 74 79  1  0
 75 71  1  0
 75 79  1  0
 76 75  1  0
 77 78  1  0
 77 76  1  0
 78 74  1  0
 79 80  2  0
 80 81  1  0
 82 81  2  0
 83 82  1  0
 84 58  1  0
 84 85  1  0
 84 94  1  0
 85 88  1  0
 86 90  1  0
 86 85  1  0
 87 86  2  0
 90 89  1  0
 92 90  1  0
 92 93  1  0
 92 91  1  0
 94 97  1  1
 94 95  1  0
 96 94  1  0
M  ISO  4  13 100  21 100  56 101  57 101
M  END
>  <TORSDO>  (91) 
F 22

>  <SCORE>  (91) 
-12.262

>  <name>  (91) 
90

>  <ligand_id>  (91) 
90

>  <original_smiles>  (91) 
[H]c1c([H])c([H])c2c(c1[H])C([H])([H])C([H])([H])C([H])([H])C2([H])N([H])C(=O)C1([H])N(C(=O)C([H])(N([H])C(=O)C([H])(N([H])C([H])([H])[H])C([H])([H])[H])C(C([H])([H])[H])(C([H])([H])[H])C([H])([H])[H])C([H])([H])c2c([H])c(OC([H])([H])C([H])([H])[N+]([H])([H])C([H])([H])c3c([H])c(C4([H])C([H])([H])C4([H])[H])c(C([H])(N([H])C(=O)N4C([H])([H])C([H])([H])C([H])([H])C([H])(n5nc(-c6c([H])c([H])c(Oc7c([H])c([H])c(F)c([H])c7F)c([H])c6[H])c(C(=O)N([H])[H])c5N([H])[H])C4([H])[H])C([H])([H])[H])c([H])c3C([H])([H])[H])c([H])c([H])c2C1([H])[H]

>  <smiles>  (91) 
[H]c1c([H])c([H])c2c(c1[H])C([H])([H])C([H])([H])C([H])([H])C2([H])N([H])C(=O)C1([H])N(C(=O)C([H])(N([H])C(=O)C([H])(N([H])C([H])([H])[H])C([H])([H])[H])C(C([H])([H])[H])(C([H])([H])[H])C([H])([H])[H])C([H])([H])c2c([H])c(OC([H])([H])C([H])([H])[N+]([H])([H])C([H])([H])c3c([H])c(C4([H])C([H])([H])C4([H])[H])c(C([H])(N([H])C(=O)N4C([H])([H])C([H])([H])C([H])([H])C([H])(n5nc(-c6c([H])c([H])c(Oc7c([H])c([H])c(F)c([H])c7F)c([H])c6[H])c(C(=O)N([H])[H])c5N([H])[H])C4([H])[H])C([H])([H])[H])c([H])c3C([H])([H])[H])c([H])c([H])c2C1([H])[H]

$$$$
91:0:0
     RDKit          3D

 94102  0  0  1  0  0  0  0  0999 V2000
  -30.4760  -15.1370   20.3890 C   0  0  0  0  0  0  0  0  0  0  0  0
  -30.3970  -12.7520   19.4670 C   0  0  0  0  0  2  0  0  0  0  0  0
  -29.4840  -12.6920   18.2170 C   0  0  0  0  0  2  0  0  0  0  0  0
  -28.0190  -12.4580   18.6300 C   0  0  0  0  0  2  0  0  0  0  0  0
  -27.5930  -13.3710   19.8070 C   0  0  0  0  0  3  0  0  0  0  0  0
  -28.6340  -13.3990   20.9490 C   0  0  0  0  0  2  0  0  0  0  0  0
  -29.9050  -13.8500   20.3660 N   0  0  0  0  0  0  0  0  0  0  0  0
  -31.6600  -15.1820   20.0270 O   0  0  0  0  0  0  0  0  0  0  0  0
  -29.2880  -17.7720   18.7830 C   0  0  0  0  0  3  0  0  0  0  0  0
  -28.9140  -18.9310   18.0640 C   0  0  0  0  0  0  0  0  0  0  0  0
  -28.8320  -20.2140   18.6870 C   0  0  0  0  0  0  0  0  0  0  0  0
  -29.5750  -17.7820   20.1560 C   0  0  0  0  0  0  0  0  0  0  0  0
  -29.1040  -20.3360   20.0770 C   0  0  0  0  0  0  0  0  0  0  0  0
  -28.6030  -18.7450   16.5840 C   0  0  0  0  0  1  0  0  0  0  0  0
  -29.4690  -19.1030   20.7560 N   0  0  0  0  0  0  0  0  0  0  0  0
  -29.7450  -16.3390   20.7420 N   0  0  0  0  0  0  0  0  0  0  0  0
  -28.9720  -16.1050   21.3450 H   0  0  0  0  0  0  0  0  0  0  0  0
  -25.2040  -13.9310   20.5190 C   0  0  0  0  0  0  0  0  0  0  0  0
  -24.1400  -13.1530   20.8790 C   0  0  0  0  0  0  0  0  0  0  0  0
  -24.6100  -11.8040   20.8540 C   0  0  0  0  0  0  0  0  0  0  0  0
  -26.2530  -13.0590   20.2900 N   0  0  0  0  0  0  0  0  0  0  0  0
  -25.9060  -11.7720   20.5580 N   0  0  0  0  0  0  0  0  0  0  0  0
  -23.8860  -10.5390   21.0370 C   0  0  0  0  0  0  0  0  0  0  0  0
  -24.3180   -9.5650   21.9650 C   0  0  0  0  0  3  0  0  0  0  0  0
  -23.5910   -8.3680   22.1390 C   0  0  0  0  0  3  0  0  0  0  0  0
  -22.4160   -8.1350   21.3830 C   0  0  0  0  0  0  0  0  0  0  0  0
  -22.0030   -9.0960   20.4440 C   0  0  0  0  0  3  0  0  0  0  0  0
  -22.7320  -10.2850   20.2690 C   0  0  0  0  0  3  0  0  0  0  0  0
  -21.6620   -6.9900   21.4660 O   0  0  0  0  0  0  0  0  0  0  0  0
  -21.6190   -6.2350   22.6100 C   0  0  0  0  0  0  0  0  0  0  0  0
  -21.2100   -6.7790   23.8480 C   0  0  0  0  0  3  0  0  0  0  0  0
  -21.1160   -5.9510   24.9840 C   0  0  0  0  0  3  0  0  0  0  0  0
  -21.4210   -4.5810   24.8840 C   0  0  0  0  0  0  0  0  0  0  0  0
  -21.8230   -4.0360   23.6520 C   0  0  0  0  0  3  0  0  0  0  0  0
  -21.9190   -4.8610   22.5180 C   0  0  0  0  0  0  0  0  0  0  0  0
  -22.2870   -4.3260   21.3280 F   0  0  0  0  0  0  0  0  0  0  0  0
  -21.3230   -3.7840   25.9740 F   0  0  0  0  0  0  0  0  0  0  0  0
  -22.7380  -13.6260   21.1300 C   0  0  0  0  0  0  0  0  0  0  0  0
  -22.0010  -12.9310   21.9880 N   0  0  0  0  0  0  0  0  0  0  0  0
  -22.3050  -14.6490   20.6010 O   0  0  0  0  0  0  0  0  0  0  0  0
  -22.3640  -12.1030   22.4380 H   0  0  0  0  0  0  0  0  0  0  0  0
  -21.0590  -13.2300   22.1990 H   0  0  0  0  0  0  0  0  0  0  0  0
  -25.3650  -15.3020   20.3420 N   0  0  0  0  0  0  0  0  0  0  0  0
  -24.5910  -15.9510   20.4420 H   0  0  0  0  0  0  0  0  0  0  0  0
  -26.2060  -15.7430   19.9910 H   0  0  0  0  0  0  0  0  0  0  0  0
  -28.5030  -21.4440   17.8290 C   0  0  0  0  0  2  0  0  0  0  0  0
  -29.7080  -22.1150   17.3070 N   0  0  0  0  0  4  0  0  0  0  0  0
  -30.2990  -22.4500   18.0470 H   0  0  0  0  0  0  0  0  0  0  0  0
  -29.4410  -22.9010   16.7400 H   0  0  0  0  0  0  0  0  0  0  0  0
  -30.2480  -21.4960   16.7300 H   0  0  0  0  0  0  0  0  0  0  0  0
  -29.2320  -21.6920   20.6940 O   0  0  0  0  0  0  0  0  0  0  0  0
  -28.3280  -23.0130   20.7190 C   0  0  0  0  0  2  0  0  0  0  0  0
  -28.4520  -24.6070   20.0200 C   0  0  0  0  0  2  0  0  0  0  0  0
  -28.3230  -26.1120   20.5500 O   0  0  0  0  0  0  0  0  0  0  0  0
  -24.6450  -31.9410   23.2880 C   0  0  0  0  0  0  0  0  0  0  0  0
  -27.2690  -27.1130   20.3850 C   0  0  0  0  0  0  0  0  0  0  0  0
  -23.4730  -30.5140   21.6560 C   0  0  0  0  0  3  0  0  0  0  0  0
  -24.9460  -28.9030   20.2760 C   0  0  0  0  0  0  0  0  0  0  0  0
  -26.0320  -30.7600   21.5320 C   0  0  0  0  0  2  0  0  0  0  0  0
  -26.1160  -29.3490   20.9030 C   0  0  0  0  0  0  0  0  0  0  0  0
  -27.2700  -28.4690   20.9400 C   0  0  0  0  0  3  0  0  0  0  0  0
  -26.0760  -26.7850   19.7070 C   0  0  0  0  0  3  0  0  0  0  0  0
  -24.9460  -27.6390   19.6610 C   0  0  0  0  0  3  0  0  0  0  0  0
  -23.7180  -29.8080   20.2940 C   0  0  0  0  0  2  0  0  0  0  0  0
  -24.7370  -31.0980   22.2130 N   0  0  0  0  0  0  0  0  0  0  0  0
  -23.5500  -32.2340   23.7940 O   0  0  0  0  0  0  0  0  0  0  0  0
  -22.7780  -29.5280   22.6290 C   0  0  0  0  0  0  0  0  0  0  0  0
  -21.4520  -29.3520   22.4850 N   0  0  0  0  0  0  0  0  0  0  0  0
  -23.4350  -28.9220   23.4790 O   0  0  0  0  0  0  0  0  0  0  0  0
  -20.9760  -29.8900   21.7750 H   0  0  0  0  0  0  0  0  0  0  0  0
  -18.0680  -28.1400   22.9540 C   0  0  0  0  0  0  0  0  0  0  0  0
  -20.6210  -28.4260   23.2610 C   0  0  0  0  0  3  0  0  0  0  0  0
  -20.7410  -26.9820   22.7190 C   0  0  0  0  0  2  0  0  0  0  0  0
  -19.6590  -26.6320   21.6920 C   0  0  0  0  0  2  0  0  0  0  0  0
  -18.2660  -26.7800   22.3070 C   0  0  0  0  0  2  0  0  0  0  0  0
  -19.1730  -28.9200   23.3890 C   0  0  0  0  0  0  0  0  0  0  0  0
  -18.9330  -30.1900   23.9550 C   0  0  0  0  0  3  0  0  0  0  0  0
  -17.6220  -30.6830   24.0920 C   0  0  0  0  0  3  0  0  0  0  0  0
  -16.5310  -29.9000   23.6730 C   0  0  0  0  0  3  0  0  0  0  0  0
  -16.7550  -28.6310   23.1110 C   0  0  0  0  0  3  0  0  0  0  0  0
  -25.9090  -32.5940   23.9260 C   0  0  0  0  0  3  0  0  0  0  0  0
  -26.4010  -31.8500   25.2290 C   0  0  1  0  0  0  0  0  0  0  0  0
  -25.2870  -31.6320   26.2810 C   0  0  0  0  0  1  0  0  0  0  0  0
  -26.9960  -30.4650   24.8830 C   0  0  0  0  0  1  0  0  0  0  0  0
  -27.5380  -32.6600   25.8980 C   0  0  0  0  0  1  0  0  0  0  0  0
  -25.5870  -33.9970   24.2320 N   0  0  0  0  0  0  0  0  0  0  0  0
  -25.9220  -35.0460   23.4680 C   0  0  0  0  0  0  0  0  0  0  0  0
  -26.5990  -34.9330   22.4440 O   0  0  0  0  0  0  0  0  0  0  0  0
  -24.9840  -34.1570   25.0270 H   0  0  0  0  0  0  0  0  0  0  0  0
  -24.1850  -36.8310   23.0960 C   0  0  0  0  0  1  0  0  0  0  0  0
  -25.4290  -36.4390   23.9100 C   0  0  0  0  0  3  0  0  0  0  0  0
  -27.5590  -37.3470   24.7280 C   0  0  0  0  0  1  0  0  0  0  0  0
  -26.4570  -37.4960   23.7820 N   0  0  0  0  0  0  0  0  0  0  0  0
  -26.0460  -38.4170   23.9160 H   0  0  0  0  0  0  0  0  0  0  0  0
  1 16  1  0
  2  7  1  0
  3  4  1  0
  3  2  1  0
  5  4  1  0
  5 21  1  0
  5  6  1  0
  7  1  1  0
  7  6  1  0
  8  1  2  0
  9 12  2  0
 10 11  2  0
 10  9  1  0
 11 13  1  0
 12 16  1  0
 12 15  1  0
 13 51  1  0
 13 15  2  0
 14 10  1  0
 16 17  1  0
 18 19  2  0
 19 38  1  0
 20 19  1  0
 20 23  1  0
 21 18  1  0
 21 22  1  0
 22 20  2  0
 23 24  1  0
 24 25  2  0
 26 29  1  0
 26 25  1  0
 27 26  2  0
 28 27  1  0
 28 23  2  0
 29 30  1  0
 30 31  1  0
 31 32  2  0
 33 32  1  0
 33 37  1  0
 34 33  2  0
 35 30  2  0
 35 34  1  0
 36 35  1  0
 38 39  1  0
 39 42  1  0
 39 41  1  0
 40 38  2  0
 43 44  1  0
 43 18  1  0
 45 43  1  0
 46 11  1  0
 47 46  1  0
 47 48  1  0
 49 47  1  0
 50 47  1  0
 51 52  1  0
 53 54  1  0
 53 52  1  0
 55 66  2  0
 56 54  1  0
 56 61  1  0
 57 65  1  0
 57 67  1  0
 58 64  1  0
 58 60  1  0
 59 65  1  0
 60 61  2  0
 60 59  1  0
 62 56  2  0
 63 62  1  0
 63 58  2  0
 64 57  1  0
 65 55  1  0
 67 69  2  0
 68 67  1  0
 70 68  1  0
 71 80  2  0
 71 76  1  0
 72 68  1  0
 72 76  1  0
 73 72  1  0
 74 75  1  0
 74 73  1  0
 75 71  1  0
 76 77  2  0
 77 78  1  0
 79 78  2  0
 80 79  1  0
 81 55  1  0
 81 86  1  0
 81 82  1  0
 82 85  1  1
 82 83  1  0
 84 82  1  0
 86 89  1  0
 87 91  1  0
 87 86  1  0
 88 87  2  0
 91 90  1  0
 93 91  1  0
 93 94  1  0
 93 92  1  0
M  ISO  4   1 100  16 100  53 101  54 101
M  END
>  <TORSDO>  (92) 
F 20

>  <SCORE>  (92) 
-15.124

>  <name>  (92) 
91

>  <ligand_id>  (92) 
91

>  <original_smiles>  (92) 
[H]c1c([H])c([H])c2c(c1[H])C([H])([H])C([H])([H])C([H])([H])C2([H])N([H])C(=O)C1([H])N(C(=O)C([H])(N([H])C(=O)C([H])(N([H])C([H])([H])[H])C([H])([H])[H])C(C([H])([H])[H])(C([H])([H])[H])C([H])([H])[H])C([H])([H])c2c([H])c(OC([H])([H])C([H])([H])Oc3nc(N([H])C(=O)N4C([H])([H])C([H])([H])C([H])([H])C([H])(n5nc(-c6c([H])c([H])c(Oc7c([H])c([H])c(F)c([H])c7F)c([H])c6[H])c(C(=O)N([H])[H])c5N([H])[H])C4([H])[H])c([H])c(C([H])([H])[H])c3C([H])([H])[N+]([H])([H])[H])c([H])c([H])c2C1([H])[H]

>  <smiles>  (92) 
[H]c1c([H])c([H])c2c(c1[H])C([H])([H])C([H])([H])C([H])([H])C2([H])N([H])C(=O)C1([H])N(C(=O)C([H])(N([H])C(=O)C([H])(N([H])C([H])([H])[H])C([H])([H])[H])C(C([H])([H])[H])(C([H])([H])[H])C([H])([H])[H])C([H])([H])c2c([H])c(OC([H])([H])C([H])([H])Oc3nc(N([H])C(=O)N4C([H])([H])C([H])([H])C([H])([H])C([H])(n5nc(-c6c([H])c([H])c(Oc7c([H])c([H])c(F)c([H])c7F)c([H])c6[H])c(C(=O)N([H])[H])c5N([H])[H])C4([H])[H])c([H])c(C([H])([H])[H])c3C([H])([H])[N+]([H])([H])[H])c([H])c([H])c2C1([H])[H]

$$$$
92:0:0
     RDKit          3D

 94102  0  0  1  0  0  0  0  0999 V2000
  -27.9790  -24.3160   20.6390 C   0  0  0  0  0  2  0  0  0  0  0  0
  -30.0900  -25.3360   21.1350 C   0  0  0  0  0  2  0  0  0  0  0  0
  -28.5920  -25.6660   21.0410 C   0  0  0  0  0  3  0  0  0  0  0  0
  -28.8870  -23.2450   21.3030 C   0  0  0  0  0  3  0  0  0  0  0  0
  -30.2270  -23.8710   21.3250 N   0  0  0  0  0  4  0  0  0  0  0  0
  -30.6950  -23.6730   22.1980 H   0  0  0  0  0  0  0  0  0  0  0  0
  -30.7960  -23.5110   20.5750 H   0  0  0  0  0  0  0  0  0  0  0  0
  -28.4040  -26.7360   20.0920 O   0  0  0  0  0  0  0  0  0  0  0  0
  -24.5960  -31.8880   23.2350 C   0  0  0  0  0  0  0  0  0  0  0  0
  -27.2240  -27.4440   20.1590 C   0  0  0  0  0  0  0  0  0  0  0  0
  -23.3750  -30.4800   21.6040 C   0  0  0  0  0  3  0  0  0  0  0  0
  -24.8220  -28.9370   20.1750 C   0  0  0  0  0  0  0  0  0  0  0  0
  -25.8940  -30.8480   21.3800 C   0  0  0  0  0  2  0  0  0  0  0  0
  -25.9810  -29.4720   20.7500 C   0  0  0  0  0  0  0  0  0  0  0  0
  -27.1860  -28.7320   20.7370 C   0  0  0  0  0  3  0  0  0  0  0  0
  -26.0520  -26.9220   19.5760 C   0  0  0  0  0  3  0  0  0  0  0  0
  -24.8520  -27.6600   19.5850 C   0  0  0  0  0  3  0  0  0  0  0  0
  -23.5740  -29.7920   20.2280 C   0  0  0  0  0  2  0  0  0  0  0  0
  -24.6410  -31.0870   22.1320 N   0  0  0  0  0  0  0  0  0  0  0  0
  -23.5230  -32.1600   23.7880 O   0  0  0  0  0  0  0  0  0  0  0  0
  -22.7320  -29.4650   22.5760 C   0  0  0  0  0  0  0  0  0  0  0  0
  -21.4090  -29.2740   22.4570 N   0  0  0  0  0  0  0  0  0  0  0  0
  -23.4250  -28.8460   23.3890 O   0  0  0  0  0  0  0  0  0  0  0  0
  -20.9110  -29.8240   21.7700 H   0  0  0  0  0  0  0  0  0  0  0  0
  -18.0460  -28.0570   22.9740 C   0  0  0  0  0  0  0  0  0  0  0  0
  -20.6020  -28.3370   23.2370 C   0  0  0  0  0  3  0  0  0  0  0  0
  -20.7140  -26.9020   22.6740 C   0  0  0  0  0  2  0  0  0  0  0  0
  -19.6150  -26.5630   21.6620 C   0  0  0  0  0  2  0  0  0  0  0  0
  -18.2320  -26.7040   22.3080 C   0  0  0  0  0  2  0  0  0  0  0  0
  -19.1590  -28.8310   23.3960 C   0  0  0  0  0  0  0  0  0  0  0  0
  -18.9320  -30.0970   23.9770 C   0  0  0  0  0  3  0  0  0  0  0  0
  -17.6250  -30.5920   24.1390 C   0  0  0  0  0  3  0  0  0  0  0  0
  -16.5260  -29.8150   23.7360 C   0  0  0  0  0  3  0  0  0  0  0  0
  -16.7360  -28.5500   23.1580 C   0  0  0  0  0  3  0  0  0  0  0  0
  -25.8900  -32.5210   23.8380 C   0  0  0  0  0  3  0  0  0  0  0  0
  -25.5840  -33.9170   24.1810 N   0  0  0  0  0  0  0  0  0  0  0  0
  -25.9010  -34.9740   23.4220 C   0  0  0  0  0  0  0  0  0  0  0  0
  -26.5560  -34.8770   22.3800 O   0  0  0  0  0  0  0  0  0  0  0  0
  -25.0070  -34.0640   24.9980 H   0  0  0  0  0  0  0  0  0  0  0  0
  -24.1610  -36.7570   23.1000 C   0  0  0  0  0  1  0  0  0  0  0  0
  -25.4140  -36.3560   23.8940 C   0  0  0  0  0  3  0  0  0  0  0  0
  -27.5590  -37.2420   24.6970 C   0  0  0  0  0  1  0  0  0  0  0  0
  -26.4410  -37.4140   23.7740 N   0  0  0  0  0  0  0  0  0  0  0  0
  -26.0340  -38.3300   23.9400 H   0  0  0  0  0  0  0  0  0  0  0  0
  -26.4360  -31.7440   25.0980 C   0  0  1  0  0  0  0  0  0  0  0  0
  -25.3660  -31.4980   26.1860 C   0  0  0  0  0  1  0  0  0  0  0  0
  -27.0160  -30.3720   24.6840 C   0  0  0  0  0  1  0  0  0  0  0  0
  -27.5990  -32.5350   25.7420 C   0  0  0  0  0  1  0  0  0  0  0  0
  -28.8440  -21.8360   20.6160 C   0  0  0  0  0  2  0  0  0  0  0  0
  -29.6200  -20.6450   21.2840 C   0  0  0  0  0  2  0  0  0  0  0  0
  -29.4170  -19.3540   20.5570 N   0  0  0  0  0  4  0  0  0  0  0  0
  -29.6960  -19.4830   19.5960 H   0  0  0  0  0  0  0  0  0  0  0  0
  -28.4280  -19.1600   20.5620 H   0  0  0  0  0  0  0  0  0  0  0  0
  -30.0870  -18.1170   21.0710 C   0  0  0  0  0  2  0  0  0  0  0  0
  -29.9230  -16.8700   18.7990 C   0  0  0  0  0  1  0  0  0  0  0  0
  -29.5640  -16.8580   20.3010 C   0  0  0  0  0  3  0  0  0  0  0  0
  -30.6720  -14.5460   20.5870 C   0  0  0  0  0  0  0  0  0  0  0  0
  -30.4970  -12.3330   19.5070 C   0  0  0  0  0  2  0  0  0  0  0  0
  -29.5880  -12.5130   18.2700 C   0  0  0  0  0  2  0  0  0  0  0  0
  -28.0990  -12.3790   18.6490 C   0  0  0  0  0  2  0  0  0  0  0  0
  -27.7160  -13.2270   19.8920 C   0  0  0  0  0  3  0  0  0  0  0  0
  -28.7360  -13.0060   21.0390 C   0  0  0  0  0  2  0  0  0  0  0  0
  -30.0790  -13.3220   20.5160 N   0  0  0  0  0  0  0  0  0  0  0  0
  -31.8100  -14.7690   20.1610 O   0  0  0  0  0  0  0  0  0  0  0  0
  -29.8130  -15.5340   20.9270 N   0  0  0  0  0  0  0  0  0  0  0  0
  -28.9860  -15.1550   21.3670 H   0  0  0  0  0  0  0  0  0  0  0  0
  -25.2930  -13.8510   20.4990 C   0  0  0  0  0  0  0  0  0  0  0  0
  -24.2130  -13.0860   20.8510 C   0  0  0  0  0  0  0  0  0  0  0  0
  -24.6780  -11.7340   20.8640 C   0  0  0  0  0  0  0  0  0  0  0  0
  -26.3470  -12.9640   20.3240 N   0  0  0  0  0  0  0  0  0  0  0  0
  -25.9780  -11.6890   20.6010 N   0  0  0  0  0  0  0  0  0  0  0  0
  -23.9490  -10.4750   21.0540 C   0  0  0  0  0  0  0  0  0  0  0  0
  -24.3720   -9.5110   21.9960 C   0  0  0  0  0  3  0  0  0  0  0  0
  -23.6430   -8.3150   22.1730 C   0  0  0  0  0  3  0  0  0  0  0  0
  -22.4760   -8.0750   21.4080 C   0  0  0  0  0  0  0  0  0  0  0  0
  -22.0740   -9.0280   20.4540 C   0  0  0  0  0  3  0  0  0  0  0  0
  -22.8040  -10.2140   20.2770 C   0  0  0  0  0  3  0  0  0  0  0  0
  -21.7160   -6.9320   21.4960 O   0  0  0  0  0  0  0  0  0  0  0  0
  -21.6720   -6.1850   22.6450 C   0  0  0  0  0  0  0  0  0  0  0  0
  -21.2740   -6.7390   23.8800 C   0  0  0  0  0  3  0  0  0  0  0  0
  -21.1700   -5.9170   25.0210 C   0  0  0  0  0  3  0  0  0  0  0  0
  -21.4610   -4.5430   24.9270 C   0  0  0  0  0  0  0  0  0  0  0  0
  -21.8560   -3.9880   23.6970 C   0  0  0  0  0  3  0  0  0  0  0  0
  -21.9570   -4.8080   22.5580 C   0  0  0  0  0  0  0  0  0  0  0  0
  -22.3150   -4.2640   21.3700 F   0  0  0  0  0  0  0  0  0  0  0  0
  -21.3570   -3.7520   26.0210 F   0  0  0  0  0  0  0  0  0  0  0  0
  -22.8070  -13.5650   21.0690 C   0  0  0  0  0  0  0  0  0  0  0  0
  -22.0570  -12.8840   21.9270 N   0  0  0  0  0  0  0  0  0  0  0  0
  -22.3830  -14.5800   20.5160 O   0  0  0  0  0  0  0  0  0  0  0  0
  -22.4120  -12.0600   22.3950 H   0  0  0  0  0  0  0  0  0  0  0  0
  -21.1130  -13.1850   22.1210 H   0  0  0  0  0  0  0  0  0  0  0  0
  -25.4650  -15.2180   20.2980 N   0  0  0  0  0  0  0  0  0  0  0  0
  -24.6910  -15.8700   20.3600 H   0  0  0  0  0  0  0  0  0  0  0  0
  -26.3150  -15.6400   19.9530 H   0  0  0  0  0  0  0  0  0  0  0  0
  1  3  1  0
  1  4  1  0
  2  5  1  0
  3  8  1  0
  3  2  1  0
  4 49  1  0
  4  5  1  0
  5  6  1  0
  7  5  1  0
  8 10  1  0
  9 20  2  0
 10 15  1  0
 11 19  1  0
 11 21  1  0
 12 18  1  0
 12 14  1  0
 13 19  1  0
 14 13  1  0
 15 14  2  0
 16 17  1  0
 16 10  2  0
 17 12  2  0
 18 11  1  0
 19  9  1  0
 21 23  2  0
 22 21  1  0
 24 22  1  0
 25 34  2  0
 25 30  1  0
 26 22  1  0
 26 30  1  0
 27 26  1  0
 28 29  1  0
 28 27  1  0
 29 25  1  0
 30 31  2  0
 31 32  1  0
 33 32  2  0
 34 33  1  0
 35  9  1  0
 35 36  1  0
 35 45  1  0
 36 39  1  0
 37 41  1  0
 37 36  1  0
 38 37  2  0
 41 40  1  0
 43 41  1  0
 43 44  1  0
 43 42  1  0
 45 48  1  1
 45 46  1  0
 47 45  1  0
 49 50  1  0
 51 53  1  0
 51 54  1  0
 51 50  1  0
 52 51  1  0
 56 55  1  0
 56 65  1  0
 56 54  1  0
 57 65  1  0
 58 63  1  0
 59 60  1  0
 59 58  1  0
 61 60  1  0
 61 70  1  0
 61 62  1  0
 63 57  1  0
 63 62  1  0
 64 57  2  0
 65 66  1  0
 67 68  2  0
 68 69  1  0
 68 87  1  0
 69 72  1  0
 70 67  1  0
 70 71  1  0
 71 69  2  0
 72 73  1  0
 73 74  2  0
 75 78  1  0
 75 74  1  0
 76 75  2  0
 77 76  1  0
 77 72  2  0
 78 79  1  0
 79 80  1  0
 80 81  2  0
 82 81  1  0
 82 86  1  0
 83 82  2  0
 84 79  2  0
 84 83  1  0
 85 84  1  0
 87 88  1  0
 88 91  1  0
 88 90  1  0
 89 87  2  0
 92 93  1  0
 92 67  1  0
 94 92  1  0
M  ISO  4   3 101   8 101  57 100  65 100
M  END
>  <TORSDO>  (93) 
F 21

>  <SCORE>  (93) 
-13.408

>  <name>  (93) 
92

>  <ligand_id>  (93) 
92

>  <original_smiles>  (93) 
[H]c1c([H])c([H])c2c(c1[H])C([H])([H])C([H])([H])C([H])([H])C2([H])N([H])C(=O)C1([H])N(C(=O)C([H])(N([H])C(=O)C([H])(N([H])C([H])([H])[H])C([H])([H])[H])C(C([H])([H])[H])(C([H])([H])[H])C([H])([H])[H])C([H])([H])c2c([H])c(OC3([H])C([H])([H])C([H])(C([H])([H])C([H])([H])[N+]([H])([H])C([H])([H])C([H])(N([H])C(=O)N4C([H])([H])C([H])([H])C([H])([H])C([H])(n5nc(-c6c([H])c([H])c(Oc7c([H])c([H])c(F)c([H])c7F)c([H])c6[H])c(C(=O)N([H])[H])c5N([H])[H])C4([H])[H])C([H])([H])[H])[N+]([H])([H])C3([H])[H])c([H])c([H])c2C1([H])[H]

>  <smiles>  (93) 
[H]c1c([H])c([H])c2c(c1[H])C([H])([H])C([H])([H])C([H])([H])C2([H])N([H])C(=O)C1([H])N(C(=O)C([H])(N([H])C(=O)C([H])(N([H])C([H])([H])[H])C([H])([H])[H])C(C([H])([H])[H])(C([H])([H])[H])C([H])([H])[H])C([H])([H])c2c([H])c(OC3([H])C([H])([H])C([H])(C([H])([H])C([H])([H])[N+]([H])([H])C([H])([H])C([H])(N([H])C(=O)N4C([H])([H])C([H])([H])C([H])([H])C([H])(n5nc(-c6c([H])c([H])c(Oc7c([H])c([H])c(F)c([H])c7F)c([H])c6[H])c(C(=O)N([H])[H])c5N([H])[H])C4([H])[H])C([H])([H])[H])[N+]([H])([H])C3([H])[H])c([H])c([H])c2C1([H])[H]

$$$$
93:0:0
     RDKit          3D

 96105  0  0  1  0  0  0  0  0999 V2000
  -28.4590  -21.4070   20.3380 C   0  0  0  0  0  3  0  0  0  0  0  0
  -30.2580  -22.5340   21.4180 C   0  0  0  0  0  3  0  0  0  0  0  0
  -27.9090  -22.6760   20.0150 C   0  0  0  0  0  0  0  0  0  0  0  0
  -29.6710  -21.2860   21.0400 C   0  0  0  0  0  0  0  0  0  0  0  0
  -28.5940  -23.8740   20.4220 C   0  0  0  0  0  0  0  0  0  0  0  0
  -29.7560  -23.7750   21.1200 N   0  0  0  0  0  0  0  0  0  0  0  0
  -25.6150  -21.5020   19.1770 C   0  0  0  0  0  2  0  0  0  0  0  0
  -25.4220  -21.8640   17.7070 C   0  0  0  0  0  2  0  0  0  0  0  0
  -26.5820  -22.6920   19.2180 C   0  0  0  0  0  3  0  0  0  0  0  0
  -26.7180  -22.5400   17.7640 N   0  0  0  0  0  4  0  0  0  0  0  0
  -26.7390  -23.4000   17.2400 H   0  0  0  0  0  0  0  0  0  0  0  0
  -27.4610  -21.9200   17.4880 H   0  0  0  0  0  0  0  0  0  0  0  0
  -30.2650  -20.0120   21.3400 N   0  0  0  0  0  0  0  0  0  0  0  0
  -31.1970  -20.0130   21.7550 H   0  0  0  0  0  0  0  0  0  0  0  0
  -29.6520  -18.6730   21.0670 C   0  0  0  0  0  3  0  0  0  0  0  0
  -30.6360  -17.4390   21.2190 C   0  0  0  0  0  3  0  0  0  0  0  0
  -30.7590  -14.9240   20.8470 C   0  0  0  0  0  0  0  0  0  0  0  0
  -30.5370  -12.7370   19.6960 C   0  0  0  0  0  2  0  0  0  0  0  0
  -29.6620  -12.9080   18.4370 C   0  0  0  0  0  2  0  0  0  0  0  0
  -28.1770  -12.7080   18.7890 C   0  0  0  0  0  2  0  0  0  0  0  0
  -27.7450  -13.5300   20.0330 C   0  0  0  0  0  3  0  0  0  0  0  0
  -28.7530  -13.3950   21.1980 C   0  0  0  0  0  2  0  0  0  0  0  0
  -30.0870  -13.7410   20.6850 N   0  0  0  0  0  0  0  0  0  0  0  0
  -31.9380  -15.0320   20.5110 O   0  0  0  0  0  0  0  0  0  0  0  0
  -30.0620  -16.0470   21.2020 N   0  0  0  0  0  0  0  0  0  0  0  0
  -29.0900  -15.9330   21.4480 H   0  0  0  0  0  0  0  0  0  0  0  0
  -25.2930  -14.0460   20.5950 C   0  0  0  0  0  0  0  0  0  0  0  0
  -24.2330  -13.2390   20.9090 C   0  0  0  0  0  0  0  0  0  0  0  0
  -24.7440  -11.9060   20.9290 C   0  0  0  0  0  0  0  0  0  0  0  0
  -26.3820  -13.2030   20.4420 N   0  0  0  0  0  0  0  0  0  0  0  0
  -26.0530  -11.9110   20.7030 N   0  0  0  0  0  0  0  0  0  0  0  0
  -24.0510  -10.6210   21.0920 C   0  0  0  0  0  0  0  0  0  0  0  0
  -24.4590   -9.6790   22.0630 C   0  0  0  0  0  3  0  0  0  0  0  0
  -23.7630   -8.4600   22.2140 C   0  0  0  0  0  3  0  0  0  0  0  0
  -22.6470   -8.1720   21.3930 C   0  0  0  0  0  0  0  0  0  0  0  0
  -22.2590   -9.1030   20.4130 C   0  0  0  0  0  3  0  0  0  0  0  0
  -22.9550  -10.3140   20.2610 C   0  0  0  0  0  3  0  0  0  0  0  0
  -21.9270   -7.0030   21.4510 O   0  0  0  0  0  0  0  0  0  0  0  0
  -21.8400   -6.2680   22.6060 C   0  0  0  0  0  0  0  0  0  0  0  0
  -21.3260   -6.8160   23.8010 C   0  0  0  0  0  3  0  0  0  0  0  0
  -21.1890   -6.0050   24.9470 C   0  0  0  0  0  3  0  0  0  0  0  0
  -21.5570   -4.6480   24.8960 C   0  0  0  0  0  0  0  0  0  0  0  0
  -22.0650   -4.0990   23.7050 C   0  0  0  0  0  3  0  0  0  0  0  0
  -22.2030   -4.9060   22.5620 C   0  0  0  0  0  0  0  0  0  0  0  0
  -22.6730   -4.3680   21.4120 F   0  0  0  0  0  0  0  0  0  0  0  0
  -21.4200   -3.8660   25.9930 F   0  0  0  0  0  0  0  0  0  0  0  0
  -22.8060  -13.6700   21.0880 C   0  0  0  0  0  0  0  0  0  0  0  0
  -22.0530  -12.9620   21.9220 N   0  0  0  0  0  0  0  0  0  0  0  0
  -22.3670  -14.6710   20.5240 O   0  0  0  0  0  0  0  0  0  0  0  0
  -22.4220  -12.1530   22.3990 H   0  0  0  0  0  0  0  0  0  0  0  0
  -21.0940  -13.2330   22.0870 H   0  0  0  0  0  0  0  0  0  0  0  0
  -25.4160  -15.4190   20.4030 N   0  0  0  0  0  0  0  0  0  0  0  0
  -24.6130  -16.0360   20.4250 H   0  0  0  0  0  0  0  0  0  0  0  0
  -26.2650  -15.8840   20.1060 H   0  0  0  0  0  0  0  0  0  0  0  0
  -28.0390  -25.2650   19.9240 C   0  0  0  0  0  2  0  0  0  0  0  0
  -28.4810  -26.6540   20.2170 O   0  0  0  0  0  0  0  0  0  0  0  0
  -24.6230  -31.9600   23.2870 C   0  0  0  0  0  0  0  0  0  0  0  0
  -27.4060  -27.5730   20.1210 C   0  0  0  0  0  0  0  0  0  0  0  0
  -23.4950  -30.6100   21.5630 C   0  0  0  0  0  3  0  0  0  0  0  0
  -25.0180  -29.1680   20.1140 C   0  0  0  0  0  0  0  0  0  0  0  0
  -26.0390  -30.9780   21.4730 C   0  0  0  0  0  2  0  0  0  0  0  0
  -26.1650  -29.6330   20.7690 C   0  0  0  0  0  0  0  0  0  0  0  0
  -27.3630  -28.8470   20.7740 C   0  0  0  0  0  3  0  0  0  0  0  0
  -26.2330  -27.2070   19.4030 C   0  0  0  0  0  3  0  0  0  0  0  0
  -25.0540  -27.9580   19.4230 C   0  0  0  0  0  3  0  0  0  0  0  0
  -23.7620  -30.0100   20.1630 C   0  0  0  0  0  2  0  0  0  0  0  0
  -24.7360  -31.1960   22.1640 N   0  0  0  0  0  0  0  0  0  0  0  0
  -23.5180  -32.1970   23.7970 O   0  0  0  0  0  0  0  0  0  0  0  0
  -22.8290  -29.5340   22.4560 C   0  0  0  0  0  0  0  0  0  0  0  0
  -21.5050  -29.3550   22.3000 N   0  0  0  0  0  0  0  0  0  0  0  0
  -23.5000  -28.8690   23.2480 O   0  0  0  0  0  0  0  0  0  0  0  0
  -21.0210  -29.9470   21.6410 H   0  0  0  0  0  0  0  0  0  0  0  0
  -18.1150  -28.1730   22.7560 C   0  0  0  0  0  0  0  0  0  0  0  0
  -20.6800  -28.3770   23.0130 C   0  0  0  0  0  3  0  0  0  0  0  0
  -20.7550  -26.9860   22.3410 C   0  0  0  0  0  2  0  0  0  0  0  0
  -19.6370  -26.7480   21.3200 C   0  0  0  0  0  2  0  0  0  0  0  0
  -18.2640  -26.8700   21.9870 C   0  0  0  0  0  2  0  0  0  0  0  0
  -19.2490  -28.8890   23.2230 C   0  0  0  0  0  0  0  0  0  0  0  0
  -19.0560  -30.1110   23.9010 C   0  0  0  0  0  3  0  0  0  0  0  0
  -17.7610  -30.6180   24.1180 C   0  0  0  0  0  3  0  0  0  0  0  0
  -16.6410  -29.8980   23.6650 C   0  0  0  0  0  3  0  0  0  0  0  0
  -16.8190  -28.6770   22.9900 C   0  0  0  0  0  3  0  0  0  0  0  0
  -25.8730  -32.5920   23.9690 C   0  0  0  0  0  3  0  0  0  0  0  0
  -25.5550  -33.9960   24.2630 N   0  0  0  0  0  0  0  0  0  0  0  0
  -25.9170  -35.0350   23.4980 C   0  0  0  0  0  0  0  0  0  0  0  0
  -26.6220  -34.9130   22.4930 O   0  0  0  0  0  0  0  0  0  0  0  0
  -24.9360  -34.1670   25.0410 H   0  0  0  0  0  0  0  0  0  0  0  0
  -24.1930  -36.8160   23.0640 C   0  0  0  0  0  1  0  0  0  0  0  0
  -25.4140  -36.4310   23.9130 C   0  0  0  0  0  3  0  0  0  0  0  0
  -27.5240  -37.3390   24.7800 C   0  0  0  0  0  1  0  0  0  0  0  0
  -26.4470  -37.4850   23.8050 N   0  0  0  0  0  0  0  0  0  0  0  0
  -26.0350  -38.4060   23.9230 H   0  0  0  0  0  0  0  0  0  0  0  0
  -26.3140  -31.8350   25.2820 C   0  0  1  0  0  0  0  0  0  0  0  0
  -25.1590  -31.6100   26.2870 C   0  0  0  0  0  1  0  0  0  0  0  0
  -26.9160  -30.4510   24.9410 C   0  0  0  0  0  1  0  0  0  0  0  0
  -27.4240  -32.6360   26.0010 C   0  0  0  0  0  1  0  0  0  0  0  0
  1  4  1  0
  3  1  2  0
  3  5  1  0
  4 13  1  0
  4  2  2  0
  5  6  2  0
  6  2  1  0
  7  9  1  0
  8 10  1  0
  8  7  1  0
  9  3  1  0
 10  9  1  0
 11 10  1  0
 12 10  1  0
 13 14  1  0
 15 16  2  0
 15 13  1  0
 17 25  1  0
 18 23  1  0
 19 20  1  0
 19 18  1  0
 21 20  1  0
 21 30  1  0
 21 22  1  0
 23 17  1  0
 23 22  1  0
 24 17  2  0
 25 16  1  0
 25 26  1  0
 27 28  2  0
 28 29  1  0
 28 47  1  0
 29 32  1  0
 30 27  1  0
 30 31  1  0
 31 29  2  0
 32 33  1  0
 33 34  2  0
 35 38  1  0
 35 34  1  0
 36 35  2  0
 37 36  1  0
 37 32  2  0
 38 39  1  0
 39 40  1  0
 40 41  2  0
 42 41  1  0
 42 46  1  0
 43 42  2  0
 44 39  2  0
 44 43  1  0
 45 44  1  0
 47 48  1  0
 48 51  1  0
 48 50  1  0
 49 47  2  0
 52 53  1  0
 52 27  1  0
 54 52  1  0
 55 56  1  0
 55  5  1  0
 57 68  2  0
 58 56  1  0
 58 63  1  0
 59 67  1  0
 59 69  1  0
 60 66  1  0
 60 62  1  0
 61 67  1  0
 62 63  2  0
 62 61  1  0
 64 65  1  0
 64 58  2  0
 65 60  2  0
 66 59  1  0
 67 57  1  0
 69 71  2  0
 70 69  1  0
 72 70  1  0
 73 82  2  0
 73 78  1  0
 74 70  1  0
 74 78  1  0
 75 74  1  0
 76 77  1  0
 76 75  1  0
 77 73  1  0
 78 79  2  0
 79 80  1  0
 81 80  2  0
 82 81  1  0
 83 57  1  0
 83 84  1  0
 83 93  1  0
 84 87  1  0
 85 89  1  0
 85 84  1  0
 86 85  2  0
 89 88  1  0
 91 89  1  0
 91 92  1  0
 91 90  1  0
 93 96  1  1
 93 94  1  0
 95 93  1  0
M  ISO  4  17 100  25 100  55 101  56 101
M  END
>  <TORSDO>  (94) 
F 21

>  <SCORE>  (94) 
-13.257

>  <name>  (94) 
93

>  <ligand_id>  (94) 
93

>  <original_smiles>  (94) 
[H]c1nc(C([H])([H])Oc2c([H])c([H])c3c(c2[H])C([H])([H])N(C(=O)C([H])(N([H])C(=O)C([H])(N([H])C([H])([H])[H])C([H])([H])[H])C(C([H])([H])[H])(C([H])([H])[H])C([H])([H])[H])C([H])(C(=O)N([H])C2([H])c4c([H])c([H])c([H])c([H])c4C([H])([H])C([H])([H])C2([H])[H])C3([H])[H])c(C2([H])C([H])([H])C([H])([H])[N+]2([H])[H])c([H])c1N([H])C([H])([H])C([H])([H])N([H])C(=O)N1C([H])([H])C([H])([H])C([H])([H])C([H])(n2nc(-c3c([H])c([H])c(Oc4c([H])c([H])c(F)c([H])c4F)c([H])c3[H])c(C(=O)N([H])[H])c2N([H])[H])C1([H])[H]

>  <smiles>  (94) 
[H]c1nc(C([H])([H])Oc2c([H])c([H])c3c(c2[H])C([H])([H])N(C(=O)C([H])(N([H])C(=O)C([H])(N([H])C([H])([H])[H])C([H])([H])[H])C(C([H])([H])[H])(C([H])([H])[H])C([H])([H])[H])C([H])(C(=O)N([H])C2([H])c4c([H])c([H])c([H])c([H])c4C([H])([H])C([H])([H])C2([H])[H])C3([H])[H])c(C2([H])C([H])([H])C([H])([H])[N+]2([H])[H])c([H])c1N([H])C([H])([H])C([H])([H])N([H])C(=O)N1C([H])([H])C([H])([H])C([H])([H])C([H])(n2nc(-c3c([H])c([H])c(Oc4c([H])c([H])c(F)c([H])c4F)c([H])c3[H])c(C(=O)N([H])[H])c2N([H])[H])C1([H])[H]

$$$$
94:0:0
     RDKit          3D

 93101  0  0  1  0  0  0  0  0999 V2000
  -30.1880  -19.9990   20.1540 C   0  0  0  0  0  3  0  0  0  0  0  0
  -30.0520  -21.4000   19.9970 C   0  0  0  0  0  3  0  0  0  0  0  0
  -29.0970  -19.1500   19.8490 C   0  0  0  0  0  0  0  0  0  0  0  0
  -27.9030  -19.7720   19.4140 C   0  0  0  0  0  0  0  0  0  0  0  0
  -28.8210  -21.9170   19.5410 C   0  0  0  0  0  0  0  0  0  0  0  0
  -27.7850  -21.1060   19.2570 N   0  0  0  0  0  0  0  0  0  0  0  0
  -25.5170  -19.6680   18.7390 C   0  0  0  0  0  1  0  0  0  0  0  0
  -26.7660  -19.0130   19.1150 N   0  0  0  0  0  0  0  0  0  0  0  0
  -26.7450  -18.0240   19.3430 H   0  0  0  0  0  0  0  0  0  0  0  0
  -29.1560  -17.6110   19.9560 C   0  0  0  0  0  2  0  0  0  0  0  0
  -30.5300  -16.9000   20.0660 C   0  0  0  0  0  2  0  0  0  0  0  0
  -31.0660  -14.4310   20.0410 C   0  0  0  0  0  0  0  0  0  0  0  0
  -30.7920  -12.1180   19.2260 C   0  0  0  0  0  2  0  0  0  0  0  0
  -29.8330  -12.1440   18.0160 C   0  0  0  0  0  2  0  0  0  0  0  0
  -28.3670  -12.0550   18.4800 C   0  0  0  0  0  2  0  0  0  0  0  0
  -28.0370  -13.0670   19.6100 C   0  0  0  0  0  3  0  0  0  0  0  0
  -29.1030  -13.0060   20.7290 C   0  0  0  0  0  2  0  0  0  0  0  0
  -30.4230  -13.2330   20.1120 N   0  0  0  0  0  0  0  0  0  0  0  0
  -32.1680  -14.5770   19.5050 O   0  0  0  0  0  0  0  0  0  0  0  0
  -30.3360  -15.4870   20.4390 N   0  0  0  0  0  0  0  0  0  0  0  0
  -29.4630  -15.2600   20.8890 H   0  0  0  0  0  0  0  0  0  0  0  0
  -25.7070  -13.8010   20.4220 C   0  0  0  0  0  0  0  0  0  0  0  0
  -24.6120  -13.0870   20.8240 C   0  0  0  0  0  0  0  0  0  0  0  0
  -24.9910  -11.7110   20.7530 C   0  0  0  0  0  0  0  0  0  0  0  0
  -26.6900  -12.8650   20.1350 N   0  0  0  0  0  0  0  0  0  0  0  0
  -26.2620  -11.6010   20.3880 N   0  0  0  0  0  0  0  0  0  0  0  0
  -24.2010  -10.4900   20.9530 C   0  0  0  0  0  0  0  0  0  0  0  0
  -24.5900   -9.5060   21.8880 C   0  0  0  0  0  3  0  0  0  0  0  0
  -23.8040   -8.3480   22.0780 C   0  0  0  0  0  3  0  0  0  0  0  0
  -22.6160   -8.1680   21.3320 C   0  0  0  0  0  0  0  0  0  0  0  0
  -22.2450   -9.1410   20.3860 C   0  0  0  0  0  3  0  0  0  0  0  0
  -23.0310  -10.2890   20.1940 C   0  0  0  0  0  3  0  0  0  0  0  0
  -21.8050   -7.0630   21.4300 O   0  0  0  0  0  0  0  0  0  0  0  0
  -21.6870   -6.3570   22.6000 C   0  0  0  0  0  0  0  0  0  0  0  0
  -21.2440   -6.9640   23.7960 C   0  0  0  0  0  3  0  0  0  0  0  0
  -21.0700   -6.1850   24.9570 C   0  0  0  0  0  3  0  0  0  0  0  0
  -21.3280   -4.8010   24.9240 C   0  0  0  0  0  0  0  0  0  0  0  0
  -21.7660   -4.1950   23.7340 C   0  0  0  0  0  3  0  0  0  0  0  0
  -21.9420   -4.9710   22.5740 C   0  0  0  0  0  0  0  0  0  0  0  0
  -22.3400   -4.3770   21.4230 F   0  0  0  0  0  0  0  0  0  0  0  0
  -21.1560   -4.0510   26.0390 F   0  0  0  0  0  0  0  0  0  0  0  0
  -23.2570  -13.6400   21.1610 C   0  0  0  0  0  0  0  0  0  0  0  0
  -22.5320  -12.9830   22.0560 N   0  0  0  0  0  0  0  0  0  0  0  0
  -22.8520  -14.6900   20.6620 O   0  0  0  0  0  0  0  0  0  0  0  0
  -22.8700  -12.1320   22.4800 H   0  0  0  0  0  0  0  0  0  0  0  0
  -21.6260  -13.3390   22.3240 H   0  0  0  0  0  0  0  0  0  0  0  0
  -25.9460  -15.1620   20.2540 N   0  0  0  0  0  0  0  0  0  0  0  0
  -25.2080  -15.8480   20.3690 H   0  0  0  0  0  0  0  0  0  0  0  0
  -26.7770  -15.5420   19.8210 H   0  0  0  0  0  0  0  0  0  0  0  0
  -28.5060  -23.2430   19.3170 O   0  0  0  0  0  0  0  0  0  0  0  0
  -29.4090  -24.2880   19.6810 C   0  0  0  0  0  2  0  0  0  0  0  0
  -28.6020  -25.4040   20.4000 C   0  0  0  0  0  2  0  0  0  0  0  0
  -28.5710  -26.6510   19.6930 O   0  0  0  0  0  0  0  0  0  0  0  0
  -24.5660  -31.5520   23.0100 C   0  0  0  0  0  0  0  0  0  0  0  0
  -27.3830  -27.3450   19.7600 C   0  0  0  0  0  0  0  0  0  0  0  0
  -23.4300  -30.2240   21.2570 C   0  0  0  0  0  3  0  0  0  0  0  0
  -24.9530  -28.7900   19.7960 C   0  0  0  0  0  0  0  0  0  0  0  0
  -25.9530  -30.6390   21.1490 C   0  0  0  0  0  2  0  0  0  0  0  0
  -26.0840  -29.3070   20.4400 C   0  0  0  0  0  0  0  0  0  0  0  0
  -27.3050  -28.5930   20.4190 C   0  0  0  0  0  3  0  0  0  0  0  0
  -26.2370  -26.8320   19.1220 C   0  0  0  0  0  3  0  0  0  0  0  0
  -25.0220  -27.5480   19.1370 C   0  0  0  0  0  3  0  0  0  0  0  0
  -23.6900  -29.6220   19.8510 C   0  0  0  0  0  2  0  0  0  0  0  0
  -24.6660  -30.8150   21.8670 N   0  0  0  0  0  0  0  0  0  0  0  0
  -23.4650  -31.7760   23.5330 O   0  0  0  0  0  0  0  0  0  0  0  0
  -22.7700  -29.1420   22.1400 C   0  0  0  0  0  0  0  0  0  0  0  0
  -21.4380  -29.0140   22.0350 N   0  0  0  0  0  0  0  0  0  0  0  0
  -23.4540  -28.4220   22.8730 O   0  0  0  0  0  0  0  0  0  0  0  0
  -20.9480  -29.6480   21.4200 H   0  0  0  0  0  0  0  0  0  0  0  0
  -18.0320  -27.9480   22.5950 C   0  0  0  0  0  0  0  0  0  0  0  0
  -20.6100  -28.0330   22.7380 C   0  0  0  0  0  3  0  0  0  0  0  0
  -20.5980  -26.6800   21.9910 C   0  0  0  0  0  2  0  0  0  0  0  0
  -19.4230  -26.5390   21.0170 C   0  0  0  0  0  2  0  0  0  0  0  0
  -18.0920  -26.6790   21.7620 C   0  0  0  0  0  2  0  0  0  0  0  0
  -19.2160  -28.5920   23.0420 C   0  0  0  0  0  0  0  0  0  0  0  0
  -19.1090  -29.7850   23.7890 C   0  0  0  0  0  3  0  0  0  0  0  0
  -17.8490  -30.3340   24.0910 C   0  0  0  0  0  3  0  0  0  0  0  0
  -16.6790  -29.6840   23.6610 C   0  0  0  0  0  3  0  0  0  0  0  0
  -16.7730  -28.4920   22.9200 C   0  0  0  0  0  3  0  0  0  0  0  0
  -25.8240  -32.1670   23.6990 C   0  0  0  0  0  3  0  0  0  0  0  0
  -25.4820  -33.5390   24.0990 N   0  0  0  0  0  0  0  0  0  0  0  0
  -25.8170  -34.6380   23.4100 C   0  0  0  0  0  0  0  0  0  0  0  0
  -26.5190  -34.6030   22.3950 O   0  0  0  0  0  0  0  0  0  0  0  0
  -24.8620  -33.6400   24.8900 H   0  0  0  0  0  0  0  0  0  0  0  0
  -24.0650  -36.4150   23.1090 C   0  0  0  0  0  1  0  0  0  0  0  0
  -25.2930  -35.9900   23.9300 C   0  0  0  0  0  3  0  0  0  0  0  0
  -27.3850  -36.8680   24.8660 C   0  0  0  0  0  1  0  0  0  0  0  0
  -26.3080  -37.0650   23.9000 N   0  0  0  0  0  0  0  0  0  0  0  0
  -25.8800  -37.9690   24.0820 H   0  0  0  0  0  0  0  0  0  0  0  0
  -26.3230  -31.3320   24.9410 C   0  0  1  0  0  0  0  0  0  0  0  0
  -25.2090  -31.0240   25.9690 C   0  0  0  0  0  1  0  0  0  0  0  0
  -26.9310  -29.9860   24.4840 C   0  0  0  0  0  1  0  0  0  0  0  0
  -27.4490  -32.0980   25.6730 C   0  0  0  0  0  1  0  0  0  0  0  0
  2  1  2  0
  3 10  1  0
  3  1  1  0
  4  3  2  0
  5  2  1  0
  6  4  1  0
  6  5  2  0
  7  8  1  0
  8  9  1  0
  8  4  1  0
 10 11  1  0
 11 20  1  0
 12 18  1  0
 12 20  1  0
 13 18  1  0
 14 15  1  0
 14 13  1  0
 16 15  1  0
 16 25  1  0
 16 17  1  0
 18 17  1  0
 19 12  2  0
 20 21  1  0
 22 23  2  0
 23 42  1  0
 24 23  1  0
 24 27  1  0
 25 26  1  0
 25 22  1  0
 26 24  2  0
 27 28  1  0
 28 29  2  0
 30 33  1  0
 30 29  1  0
 31 30  2  0
 32 31  1  0
 32 27  2  0
 33 34  1  0
 34 35  1  0
 35 36  2  0
 37 36  1  0
 37 41  1  0
 38 37  2  0
 39 34  2  0
 39 38  1  0
 40 39  1  0
 42 43  1  0
 43 46  1  0
 43 45  1  0
 44 42  2  0
 47 48  1  0
 47 22  1  0
 49 47  1  0
 50  5  1  0
 50 51  1  0
 51 52  1  0
 53 55  1  0
 53 52  1  0
 54 65  2  0
 55 60  1  0
 56 64  1  0
 56 66  1  0
 57 63  1  0
 57 59  1  0
 58 64  1  0
 59 58  1  0
 60 59  2  0
 61 62  1  0
 61 55  2  0
 62 57  2  0
 63 56  1  0
 64 54  1  0
 66 68  2  0
 67 66  1  0
 69 67  1  0
 70 79  2  0
 70 75  1  0
 71 67  1  0
 71 75  1  0
 72 71  1  0
 73 74  1  0
 73 72  1  0
 74 70  1  0
 75 76  2  0
 76 77  1  0
 78 77  2  0
 79 78  1  0
 80 54  1  0
 80 81  1  0
 80 90  1  0
 81 84  1  0
 82 86  1  0
 82 81  1  0
 83 82  2  0
 86 85  1  0
 88 86  1  0
 88 89  1  0
 88 87  1  0
 90 93  1  1
 90 91  1  0
 92 90  1  0
M  ISO  4  12 100  20 100  52 101  53 101
M  END
>  <TORSDO>  (95) 
F 22

>  <SCORE>  (95) 
-12.191

>  <name>  (95) 
94

>  <ligand_id>  (95) 
94

>  <original_smiles>  (95) 
[H]c1c(OC([H])([H])C([H])([H])Oc2c([H])c([H])c3c(c2[H])C([H])([H])N(C(=O)C([H])(N([H])C(=O)C([H])(N([H])C([H])([H])[H])C([H])([H])[H])C(C([H])([H])[H])(C([H])([H])[H])C([H])([H])[H])C([H])(C(=O)N([H])C2([H])c4c([H])c([H])c([H])c([H])c4C([H])([H])C([H])([H])C2([H])[H])C3([H])[H])nc(N([H])C([H])([H])[H])c(C([H])([H])C([H])([H])N([H])C(=O)N2C([H])([H])C([H])([H])C([H])([H])C([H])(n3nc(-c4c([H])c([H])c(Oc5c([H])c([H])c(F)c([H])c5F)c([H])c4[H])c(C(=O)N([H])[H])c3N([H])[H])C2([H])[H])c1[H]

>  <smiles>  (95) 
[H]c1c(OC([H])([H])C([H])([H])Oc2c([H])c([H])c3c(c2[H])C([H])([H])N(C(=O)C([H])(N([H])C(=O)C([H])(N([H])C([H])([H])[H])C([H])([H])[H])C(C([H])([H])[H])(C([H])([H])[H])C([H])([H])[H])C([H])(C(=O)N([H])C2([H])c4c([H])c([H])c([H])c([H])c4C([H])([H])C([H])([H])C2([H])[H])C3([H])[H])nc(N([H])C([H])([H])[H])c(C([H])([H])C([H])([H])N([H])C(=O)N2C([H])([H])C([H])([H])C([H])([H])C([H])(n3nc(-c4c([H])c([H])c(Oc5c([H])c([H])c(F)c([H])c5F)c([H])c4[H])c(C(=O)N([H])[H])c3N([H])[H])C2([H])[H])c1[H]

$$$$
95:0:0
     RDKit          3D

 99108  0  0  1  0  0  0  0  0999 V2000
  -28.9580  -22.9560   21.7180 C   0  0  0  0  0  3  0  0  0  0  0  0
  -29.2260  -21.5850   21.4360 C   0  0  0  0  0  3  0  0  0  0  0  0
  -28.5320  -23.3820   19.3980 C   0  0  0  0  0  3  0  0  0  0  0  0
  -28.6060  -23.9000   20.7150 C   0  0  0  0  0  0  0  0  0  0  0  0
  -28.8070  -22.0050   19.0940 C   0  0  0  0  0  0  0  0  0  0  0  0
  -29.1650  -21.0660   20.1190 C   0  0  0  0  0  0  0  0  0  0  0  0
  -29.5030  -19.7060   19.8090 N   0  0  0  0  0  0  0  0  0  0  0  0
  -29.6380  -19.5430   18.8110 H   0  0  0  0  0  0  0  0  0  0  0  0
  -29.2440  -18.4550   20.5840 C   0  0  0  0  0  2  0  0  0  0  0  0
  -31.5480  -17.6590   21.2880 C   0  0  0  0  0  1  0  0  0  0  0  0
  -30.3470  -17.3150   20.3880 C   0  0  0  0  0  3  0  0  0  0  0  0
  -30.6350  -14.7480   20.2120 C   0  0  0  0  0  0  0  0  0  0  0  0
  -30.3600  -12.5100   19.1660 C   0  0  0  0  0  2  0  0  0  0  0  0
  -29.4020  -12.6360   17.9620 C   0  0  0  0  0  2  0  0  0  0  0  0
  -27.9400  -12.4730   18.4200 C   0  0  0  0  0  2  0  0  0  0  0  0
  -27.6030  -13.3410   19.6610 C   0  0  0  0  0  3  0  0  0  0  0  0
  -28.6830  -13.2190   20.7610 C   0  0  0  0  0  2  0  0  0  0  0  0
  -29.9760  -13.5460   20.1500 N   0  0  0  0  0  0  0  0  0  0  0  0
  -31.7860  -14.8480   19.7810 O   0  0  0  0  0  0  0  0  0  0  0  0
  -29.9250  -15.8720   20.5700 N   0  0  0  0  0  0  0  0  0  0  0  0
  -28.9810  -15.7160   20.8890 H   0  0  0  0  0  0  0  0  0  0  0  0
  -25.2260  -13.9240   20.4330 C   0  0  0  0  0  0  0  0  0  0  0  0
  -24.1700  -13.1450   20.8230 C   0  0  0  0  0  0  0  0  0  0  0  0
  -24.6380  -11.7960   20.7810 C   0  0  0  0  0  0  0  0  0  0  0  0
  -26.2680  -13.0490   20.1760 N   0  0  0  0  0  0  0  0  0  0  0  0
  -25.9230  -11.7640   20.4460 N   0  0  0  0  0  0  0  0  0  0  0  0
  -23.9200  -10.5310   20.9820 C   0  0  0  0  0  0  0  0  0  0  0  0
  -24.3650   -9.5680   21.9170 C   0  0  0  0  0  3  0  0  0  0  0  0
  -23.6450   -8.3690   22.1060 C   0  0  0  0  0  3  0  0  0  0  0  0
  -22.4670   -8.1210   21.3610 C   0  0  0  0  0  0  0  0  0  0  0  0
  -22.0420   -9.0720   20.4160 C   0  0  0  0  0  3  0  0  0  0  0  0
  -22.7620  -10.2630   20.2250 C   0  0  0  0  0  3  0  0  0  0  0  0
  -21.7190   -6.9740   21.4600 O   0  0  0  0  0  0  0  0  0  0  0  0
  -21.6760   -6.2410   22.6180 C   0  0  0  0  0  0  0  0  0  0  0  0
  -21.2460   -6.8030   23.8410 C   0  0  0  0  0  3  0  0  0  0  0  0
  -21.1510   -5.9950   24.9920 C   0  0  0  0  0  3  0  0  0  0  0  0
  -21.4720   -4.6270   24.9220 C   0  0  0  0  0  0  0  0  0  0  0  0
  -21.8940   -4.0640   23.7040 C   0  0  0  0  0  3  0  0  0  0  0  0
  -21.9920   -4.8690   22.5560 C   0  0  0  0  0  0  0  0  0  0  0  0
  -22.3780   -4.3160   21.3790 F   0  0  0  0  0  0  0  0  0  0  0  0
  -21.3720   -3.8490   26.0250 F   0  0  0  0  0  0  0  0  0  0  0  0
  -22.7770  -13.6160   21.1240 C   0  0  0  0  0  0  0  0  0  0  0  0
  -22.0680  -12.9130   21.9990 N   0  0  0  0  0  0  0  0  0  0  0  0
  -22.3270  -14.6420   20.6170 O   0  0  0  0  0  0  0  0  0  0  0  0
  -22.4460  -12.0820   22.4290 H   0  0  0  0  0  0  0  0  0  0  0  0
  -21.1350  -13.2110   22.2450 H   0  0  0  0  0  0  0  0  0  0  0  0
  -25.3790  -15.2960   20.2540 N   0  0  0  0  0  0  0  0  0  0  0  0
  -24.6060  -15.9410   20.3740 H   0  0  0  0  0  0  0  0  0  0  0  0
  -26.2110  -15.7400   19.8880 H   0  0  0  0  0  0  0  0  0  0  0  0
  -28.6020  -21.5700   17.6370 C   0  0  0  0  0  2  0  0  0  0  0  0
  -31.9990  -19.5580   15.7890 C   0  0  0  0  0  3  0  0  0  0  0  0
  -32.1130  -20.8780   16.2580 C   0  0  0  0  0  3  0  0  0  0  0  0
  -30.7750  -18.8740   15.9080 C   0  0  0  0  0  3  0  0  0  0  0  0
  -31.0040  -21.5120   16.8500 C   0  0  0  0  0  3  0  0  0  0  0  0
  -29.6560  -19.5040   16.4950 C   0  0  0  0  0  0  0  0  0  0  0  0
  -29.7720  -20.8370   16.9780 C   0  0  0  0  0  0  0  0  0  0  0  0
  -28.3540  -18.7240   16.5950 C   0  0  0  0  0  1  0  0  0  0  0  0
  -28.1370  -25.3470   21.1390 C   0  0  0  0  0  2  0  0  0  0  0  0
  -28.3790  -26.5510   20.3200 O   0  0  0  0  0  0  0  0  0  0  0  0
  -24.6120  -31.9660   23.2660 C   0  0  0  0  0  0  0  0  0  0  0  0
  -27.2920  -27.4290   20.2680 C   0  0  0  0  0  0  0  0  0  0  0  0
  -23.4350  -30.5460   21.6240 C   0  0  0  0  0  3  0  0  0  0  0  0
  -24.9150  -29.0040   20.2180 C   0  0  0  0  0  0  0  0  0  0  0  0
  -25.9700  -30.8950   21.4570 C   0  0  0  0  0  2  0  0  0  0  0  0
  -26.0740  -29.5130   20.8220 C   0  0  0  0  0  0  0  0  0  0  0  0
  -27.2700  -28.7370   20.8370 C   0  0  0  0  0  3  0  0  0  0  0  0
  -26.1180  -26.9680   19.6370 C   0  0  0  0  0  3  0  0  0  0  0  0
  -24.9380  -27.7360   19.6150 C   0  0  0  0  0  3  0  0  0  0  0  0
  -23.6680  -29.8640   20.2510 C   0  0  0  0  0  2  0  0  0  0  0  0
  -24.6910  -31.1530   22.1730 N   0  0  0  0  0  0  0  0  0  0  0  0
  -23.5220  -32.2350   23.7900 O   0  0  0  0  0  0  0  0  0  0  0  0
  -22.7760  -29.5280   22.5850 C   0  0  0  0  0  0  0  0  0  0  0  0
  -21.4530  -29.3380   22.4490 N   0  0  0  0  0  0  0  0  0  0  0  0
  -23.4540  -28.9140   23.4120 O   0  0  0  0  0  0  0  0  0  0  0  0
  -20.9640  -29.8880   21.7560 H   0  0  0  0  0  0  0  0  0  0  0  0
  -18.0810  -28.1220   22.9370 C   0  0  0  0  0  0  0  0  0  0  0  0
  -20.6360  -28.4000   23.2200 C   0  0  0  0  0  3  0  0  0  0  0  0
  -20.7490  -26.9660   22.6520 C   0  0  0  0  0  2  0  0  0  0  0  0
  -19.6560  -26.6310   21.6340 C   0  0  0  0  0  2  0  0  0  0  0  0
  -18.2690  -26.7710   22.2690 C   0  0  0  0  0  2  0  0  0  0  0  0
  -19.1920  -28.8940   23.3700 C   0  0  0  0  0  0  0  0  0  0  0  0
  -18.9610  -30.1570   23.9550 C   0  0  0  0  0  3  0  0  0  0  0  0
  -17.6530  -30.6500   24.1130 C   0  0  0  0  0  3  0  0  0  0  0  0
  -16.5550  -29.8770   23.6950 C   0  0  0  0  0  3  0  0  0  0  0  0
  -16.7700  -28.6150   23.1140 C   0  0  0  0  0  3  0  0  0  0  0  0
  -25.8830  -32.6140   23.8960 C   0  0  0  0  0  3  0  0  0  0  0  0
  -25.5590  -34.0150   24.2040 N   0  0  0  0  0  0  0  0  0  0  0  0
  -25.9000  -35.0610   23.4410 C   0  0  0  0  0  0  0  0  0  0  0  0
  -26.5910  -34.9510   22.4230 O   0  0  0  0  0  0  0  0  0  0  0  0
  -24.9480  -34.1750   24.9920 H   0  0  0  0  0  0  0  0  0  0  0  0
  -24.1730  -36.8450   23.0350 C   0  0  0  0  0  1  0  0  0  0  0  0
  -25.3980  -36.4520   23.8750 C   0  0  0  0  0  3  0  0  0  0  0  0
  -27.5120  -37.3540   24.7400 C   0  0  0  0  0  1  0  0  0  0  0  0
  -26.4290  -37.5090   23.7730 N   0  0  0  0  0  0  0  0  0  0  0  0
  -26.0170  -38.4280   23.9040 H   0  0  0  0  0  0  0  0  0  0  0  0
  -26.3900  -31.8620   25.1870 C   0  0  1  0  0  0  0  0  0  0  0  0
  -25.2830  -31.6210   26.2410 C   0  0  0  0  0  1  0  0  0  0  0  0
  -26.9950  -30.4880   24.8190 C   0  0  0  0  0  1  0  0  0  0  0  0
  -27.5210  -32.6770   25.8570 C   0  0  0  0  0  1  0  0  0  0  0  0
  2  1  1  0
  3  4  1  0
  4 58  1  0
  4  1  2  0
  5  3  2  0
  5  6  1  0
  6  2  2  0
  7  6  1  0
  7  9  1  0
  8  7  1  0
 11 20  1  0
 11  9  1  0
 11 10  1  0
 12 20  1  0
 13 18  1  0
 14 15  1  0
 14 13  1  0
 16 15  1  0
 16 25  1  0
 16 17  1  0
 18 12  1  0
 18 17  1  0
 19 12  2  0
 20 21  1  0
 22 23  2  0
 23 42  1  0
 24 23  1  0
 24 27  1  0
 25 22  1  0
 25 26  1  0
 26 24  2  0
 27 28  1  0
 28 29  2  0
 30 33  1  0
 30 29  1  0
 31 30  2  0
 32 31  1  0
 32 27  2  0
 33 34  1  0
 34 35  1  0
 35 36  2  0
 37 36  1  0
 37 41  1  0
 38 37  2  0
 39 34  2  0
 39 38  1  0
 40 39  1  0
 42 43  1  0
 43 46  1  0
 43 45  1  0
 44 42  2  0
 47 48  1  0
 47 22  1  0
 49 47  1  0
 50  5  1  0
 51 53  2  0
 51 52  1  0
 52 54  2  0
 53 55  1  0
 54 56  1  0
 55 57  1  0
 55 56  2  0
 56 50  1  0
 59 58  1  0
 60 71  2  0
 61 59  1  0
 61 66  1  0
 62 70  1  0
 62 72  1  0
 63 69  1  0
 63 65  1  0
 64 70  1  0
 65 66  2  0
 65 64  1  0
 67 61  2  0
 68 67  1  0
 68 63  2  0
 69 62  1  0
 70 60  1  0
 72 74  2  0
 73 72  1  0
 75 73  1  0
 76 85  2  0
 76 81  1  0
 77 73  1  0
 77 81  1  0
 78 77  1  0
 79 80  1  0
 79 78  1  0
 80 76  1  0
 81 82  2  0
 82 83  1  0
 84 83  2  0
 85 84  1  0
 86 60  1  0
 86 87  1  0
 86 96  1  0
 87 90  1  0
 88 92  1  0
 88 87  1  0
 89 88  2  0
 92 91  1  0
 94 92  1  0
 94 95  1  0
 94 93  1  0
 96 99  1  1
 96 97  1  0
 98 96  1  0
M  ISO  4  12 100  20 100  58 101  59 101
M  END
>  <TORSDO>  (96) 
F 22

>  <SCORE>  (96) 
-13.715

>  <name>  (96) 
95

>  <ligand_id>  (96) 
95

>  <original_smiles>  (96) 
[H]c1c([H])c([H])c(C([H])([H])c2c([H])c(C([H])([H])Oc3c([H])c([H])c4c(c3[H])C([H])([H])N(C(=O)C([H])(N([H])C(=O)C([H])(N([H])C([H])([H])[H])C([H])([H])[H])C(C([H])([H])[H])(C([H])([H])[H])C([H])([H])[H])C([H])(C(=O)N([H])C3([H])c5c([H])c([H])c([H])c([H])c5C([H])([H])C([H])([H])C3([H])[H])C4([H])[H])c([H])c([H])c2N([H])C([H])([H])C([H])(N([H])C(=O)N2C([H])([H])C([H])([H])C([H])([H])C([H])(n3nc(-c4c([H])c([H])c(Oc5c([H])c([H])c(F)c([H])c5F)c([H])c4[H])c(C(=O)N([H])[H])c3N([H])[H])C2([H])[H])C([H])([H])[H])c(C([H])([H])[H])c1[H]

>  <smiles>  (96) 
[H]c1c([H])c([H])c(C([H])([H])c2c([H])c(C([H])([H])Oc3c([H])c([H])c4c(c3[H])C([H])([H])N(C(=O)C([H])(N([H])C(=O)C([H])(N([H])C([H])([H])[H])C([H])([H])[H])C(C([H])([H])[H])(C([H])([H])[H])C([H])([H])[H])C([H])(C(=O)N([H])C3([H])c5c([H])c([H])c([H])c([H])c5C([H])([H])C([H])([H])C3([H])[H])C4([H])[H])c([H])c([H])c2N([H])C([H])([H])C([H])(N([H])C(=O)N2C([H])([H])C([H])([H])C([H])([H])C([H])(n3nc(-c4c([H])c([H])c(Oc5c([H])c([H])c(F)c([H])c5F)c([H])c4[H])c(C(=O)N([H])[H])c3N([H])[H])C2([H])[H])C([H])([H])[H])c(C([H])([H])[H])c1[H]

$$$$
96:0:0
     RDKit          3D

 95103  0  0  1  0  0  0  0  0999 V2000
  -28.4330  -23.8720   20.8950 C   0  0  0  0  0  3  0  0  0  0  0  0
  -28.2640  -24.9970   19.9830 C   0  0  0  0  0  0  0  0  0  0  0  0
  -28.3850  -22.6280   20.2470 C   0  0  0  0  0  0  0  0  0  0  0  0
  -28.1600  -24.3850   18.7600 C   0  0  0  0  0  0  0  0  0  0  0  0
  -28.0190  -25.0570   17.4270 C   0  0  0  0  0  1  0  0  0  0  0  0
  -28.1820  -22.9770   18.8930 N   0  0  0  0  0  0  0  0  0  0  0  0
  -26.5350  -21.4280   17.8270 C   0  0  0  0  0  1  0  0  0  0  0  0
  -29.0300  -21.0480   17.4580 C   0  0  0  0  0  1  0  0  0  0  0  0
  -27.9280  -22.0720   17.7500 C   0  0  0  0  0  3  0  0  0  0  0  0
  -28.3120  -26.4110   20.2190 O   0  0  0  0  0  0  0  0  0  0  0  0
  -24.6340  -31.8980   23.2370 C   0  0  0  0  0  0  0  0  0  0  0  0
  -27.1980  -27.2810   20.1730 C   0  0  0  0  0  0  0  0  0  0  0  0
  -23.4170  -30.5030   21.6040 C   0  0  0  0  0  3  0  0  0  0  0  0
  -24.8520  -28.9420   20.1700 C   0  0  0  0  0  0  0  0  0  0  0  0
  -25.9600  -30.7990   21.4120 C   0  0  0  0  0  2  0  0  0  0  0  0
  -26.0280  -29.4150   20.7650 C   0  0  0  0  0  0  0  0  0  0  0  0
  -27.2020  -28.5950   20.7580 C   0  0  0  0  0  3  0  0  0  0  0  0
  -25.9970  -26.8740   19.5530 C   0  0  0  0  0  3  0  0  0  0  0  0
  -24.8420  -27.6810   19.5520 C   0  0  0  0  0  3  0  0  0  0  0  0
  -23.6230  -29.8260   20.2230 C   0  0  0  0  0  2  0  0  0  0  0  0
  -24.6890  -31.0860   22.1400 N   0  0  0  0  0  0  0  0  0  0  0  0
  -23.5540  -32.1800   23.7780 O   0  0  0  0  0  0  0  0  0  0  0  0
  -22.7530  -29.4920   22.5710 C   0  0  0  0  0  0  0  0  0  0  0  0
  -21.4260  -29.3190   22.4540 N   0  0  0  0  0  0  0  0  0  0  0  0
  -23.4350  -28.8660   23.3880 O   0  0  0  0  0  0  0  0  0  0  0  0
  -20.9340  -29.8740   21.7670 H   0  0  0  0  0  0  0  0  0  0  0  0
  -18.0510  -28.1200   22.9610 C   0  0  0  0  0  0  0  0  0  0  0  0
  -20.6090  -28.3830   23.2290 C   0  0  0  0  0  3  0  0  0  0  0  0
  -20.7120  -26.9490   22.6580 C   0  0  0  0  0  2  0  0  0  0  0  0
  -19.6100  -26.6220   21.6450 C   0  0  0  0  0  2  0  0  0  0  0  0
  -18.2280  -26.7690   22.2900 C   0  0  0  0  0  2  0  0  0  0  0  0
  -19.1690  -28.8850   23.3870 C   0  0  0  0  0  0  0  0  0  0  0  0
  -18.9490  -30.1490   23.9750 C   0  0  0  0  0  3  0  0  0  0  0  0
  -17.6430  -30.6500   24.1400 C   0  0  0  0  0  3  0  0  0  0  0  0
  -16.5400  -29.8830   23.7310 C   0  0  0  0  0  3  0  0  0  0  0  0
  -16.7440  -28.6190   23.1470 C   0  0  0  0  0  3  0  0  0  0  0  0
  -25.9210  -32.5260   23.8540 C   0  0  0  0  0  3  0  0  0  0  0  0
  -25.6130  -33.9210   24.2010 N   0  0  0  0  0  0  0  0  0  0  0  0
  -25.9370  -34.9840   23.4520 C   0  0  0  0  0  0  0  0  0  0  0  0
  -26.5970  -34.8930   22.4140 O   0  0  0  0  0  0  0  0  0  0  0  0
  -25.0270  -34.0660   25.0110 H   0  0  0  0  0  0  0  0  0  0  0  0
  -24.2160  -36.7890   23.1240 C   0  0  0  0  0  1  0  0  0  0  0  0
  -25.4520  -36.3660   23.9330 C   0  0  0  0  0  3  0  0  0  0  0  0
  -27.5850  -37.2340   24.7870 C   0  0  0  0  0  1  0  0  0  0  0  0
  -26.4890  -37.4170   23.8390 N   0  0  0  0  0  0  0  0  0  0  0  0
  -26.0840  -38.3360   23.9980 H   0  0  0  0  0  0  0  0  0  0  0  0
  -26.4500  -31.7450   25.1190 C   0  0  1  0  0  0  0  0  0  0  0  0
  -25.3680  -31.4950   26.1950 C   0  0  0  0  0  1  0  0  0  0  0  0
  -27.0320  -30.3720   24.7130 C   0  0  0  0  0  1  0  0  0  0  0  0
  -27.6060  -32.5350   25.7770 C   0  0  0  0  0  1  0  0  0  0  0  0
  -28.3530  -21.1430   20.8340 C   0  0  0  0  0  2  0  0  0  0  0  0
  -29.3990  -20.0620   20.5230 N   0  0  0  0  0  4  0  0  0  0  0  0
  -30.2240  -20.3070   21.0440 H   0  0  0  0  0  0  0  0  0  0  0  0
  -29.6220  -20.1410   19.5450 H   0  0  0  0  0  0  0  0  0  0  0  0
  -29.0860  -18.5810   20.8370 C   0  0  0  0  0  2  0  0  0  0  0  0
  -31.5450  -17.8290   21.1420 C   0  0  0  0  0  1  0  0  0  0  0  0
  -30.2030  -17.4410   20.4810 C   0  0  0  0  0  3  0  0  0  0  0  0
  -30.6380  -14.8040   20.4550 C   0  0  0  0  0  0  0  0  0  0  0  0
  -30.4380  -12.5530   19.3950 C   0  0  0  0  0  2  0  0  0  0  0  0
  -29.5210  -12.6740   18.1580 C   0  0  0  0  0  2  0  0  0  0  0  0
  -28.0420  -12.4980   18.5590 C   0  0  0  0  0  2  0  0  0  0  0  0
  -27.6560  -13.3490   19.8010 C   0  0  0  0  0  3  0  0  0  0  0  0
  -28.7000  -13.2250   20.9330 C   0  0  0  0  0  2  0  0  0  0  0  0
  -30.0050  -13.5860   20.3660 N   0  0  0  0  0  0  0  0  0  0  0  0
  -31.8210  -14.8880   20.1110 O   0  0  0  0  0  0  0  0  0  0  0  0
  -29.8860  -15.9470   20.7180 N   0  0  0  0  0  0  0  0  0  0  0  0
  -28.9290  -15.7510   20.9760 H   0  0  0  0  0  0  0  0  0  0  0  0
  -25.2500  -13.9200   20.4910 C   0  0  0  0  0  0  0  0  0  0  0  0
  -24.1880  -13.1390   20.8500 C   0  0  0  0  0  0  0  0  0  0  0  0
  -24.6620  -11.7910   20.8300 C   0  0  0  0  0  0  0  0  0  0  0  0
  -26.3050  -13.0480   20.2690 N   0  0  0  0  0  0  0  0  0  0  0  0
  -25.9570  -11.7640   20.5400 N   0  0  0  0  0  0  0  0  0  0  0  0
  -23.9410  -10.5250   21.0120 C   0  0  0  0  0  0  0  0  0  0  0  0
  -24.3480   -9.5760   21.9750 C   0  0  0  0  0  3  0  0  0  0  0  0
  -23.6270   -8.3750   22.1470 C   0  0  0  0  0  3  0  0  0  0  0  0
  -22.4830   -8.1140   21.3560 C   0  0  0  0  0  0  0  0  0  0  0  0
  -22.0920   -9.0530   20.3850 C   0  0  0  0  0  3  0  0  0  0  0  0
  -22.8150  -10.2460   20.2110 C   0  0  0  0  0  3  0  0  0  0  0  0
  -21.7370   -6.9630   21.4350 O   0  0  0  0  0  0  0  0  0  0  0  0
  -21.6390   -6.2480   22.6020 C   0  0  0  0  0  0  0  0  0  0  0  0
  -21.1280   -6.8190   23.7880 C   0  0  0  0  0  3  0  0  0  0  0  0
  -20.9800   -6.0260   24.9440 C   0  0  0  0  0  3  0  0  0  0  0  0
  -21.3330   -4.6640   24.9140 C   0  0  0  0  0  0  0  0  0  0  0  0
  -21.8370   -4.0920   23.7330 C   0  0  0  0  0  3  0  0  0  0  0  0
  -21.9850   -4.8820   22.5800 C   0  0  0  0  0  0  0  0  0  0  0  0
  -22.4500   -4.3210   21.4380 F   0  0  0  0  0  0  0  0  0  0  0  0
  -21.1840   -3.8990   26.0220 F   0  0  0  0  0  0  0  0  0  0  0  0
  -22.7800  -13.6060   21.0910 C   0  0  0  0  0  0  0  0  0  0  0  0
  -22.0380  -12.9120   21.9440 N   0  0  0  0  0  0  0  0  0  0  0  0
  -22.3480  -14.6290   20.5580 O   0  0  0  0  0  0  0  0  0  0  0  0
  -22.3960  -12.0890   22.4070 H   0  0  0  0  0  0  0  0  0  0  0  0
  -21.0930  -13.2100   22.1410 H   0  0  0  0  0  0  0  0  0  0  0  0
  -25.3950  -15.2920   20.3110 N   0  0  0  0  0  0  0  0  0  0  0  0
  -24.5890  -15.9040   20.3910 H   0  0  0  0  0  0  0  0  0  0  0  0
  -26.2060  -15.7540   19.9230 H   0  0  0  0  0  0  0  0  0  0  0  0
  2 10  1  0
  2  1  1  0
  3 51  1  0
  3  1  2  0
  4  6  1  0
  4  2  2  0
  5  4  1  0
  6  3  1  0
  8  9  1  0
  9  7  1  0
  9  6  1  0
 11 22  2  0
 12 10  1  0
 12 17  1  0
 13 21  1  0
 13 23  1  0
 14 20  1  0
 14 16  1  0
 15 21  1  0
 16 15  1  0
 17 16  2  0
 18 12  2  0
 19 18  1  0
 19 14  2  0
 20 13  1  0
 21 11  1  0
 23 25  2  0
 24 23  1  0
 26 24  1  0
 27 36  2  0
 27 32  1  0
 28 24  1  0
 28 32  1  0
 29 28  1  0
 30 31  1  0
 30 29  1  0
 31 27  1  0
 32 33  2  0
 33 34  1  0
 35 34  2  0
 36 35  1  0
 37 11  1  0
 37 38  1  0
 37 47  1  0
 38 41  1  0
 39 43  1  0
 39 38  1  0
 40 39  2  0
 43 42  1  0
 45 43  1  0
 45 46  1  0
 45 44  1  0
 47 50  1  1
 47 48  1  0
 49 47  1  0
 52 51  1  0
 52 55  1  0
 52 53  1  0
 54 52  1  0
 57 66  1  0
 57 55  1  0
 57 56  1  0
 58 66  1  0
 59 64  1  0
 60 61  1  0
 60 59  1  0
 62 61  1  0
 62 71  1  0
 62 63  1  0
 64 58  1  0
 64 63  1  0
 65 58  2  0
 66 67  1  0
 68 69  2  0
 69 88  1  0
 70 69  1  0
 70 73  1  0
 71 68  1  0
 71 72  1  0
 72 70  2  0
 73 74  1  0
 74 75  2  0
 76 79  1  0
 76 75  1  0
 77 76  2  0
 78 77  1  0
 78 73  2  0
 79 80  1  0
 80 81  1  0
 81 82  2  0
 83 82  1  0
 83 87  1  0
 84 83  2  0
 85 80  2  0
 85 84  1  0
 86 85  1  0
 88 89  1  0
 89 92  1  0
 89 91  1  0
 90 88  2  0
 93 94  1  0
 93 68  1  0
 95 93  1  0
M  ISO  4   2 101  10 101  58 100  66 100
M  END
>  <TORSDO>  (97) 
F 21

>  <SCORE>  (97) 
-13.549

>  <name>  (97) 
96

>  <ligand_id>  (97) 
96

>  <original_smiles>  (97) 
[H]c1c([H])c([H])c2c(c1[H])C([H])([H])C([H])([H])C([H])([H])C2([H])N([H])C(=O)C1([H])N(C(=O)C([H])(N([H])C(=O)C([H])(N([H])C([H])([H])[H])C([H])([H])[H])C(C([H])([H])[H])(C([H])([H])[H])C([H])([H])[H])C([H])([H])c2c([H])c(Oc3c([H])c(C([H])([H])[N+]([H])([H])C([H])([H])C([H])(N([H])C(=O)N4C([H])([H])C([H])([H])C([H])([H])C([H])(n5nc(-c6c([H])c([H])c(Oc7c([H])c([H])c(F)c([H])c7F)c([H])c6[H])c(C(=O)N([H])[H])c5N([H])[H])C4([H])[H])C([H])([H])[H])n(C([H])(C([H])([H])[H])C([H])([H])[H])c3C([H])([H])[H])c([H])c([H])c2C1([H])[H]

>  <smiles>  (97) 
[H]c1c([H])c([H])c2c(c1[H])C([H])([H])C([H])([H])C([H])([H])C2([H])N([H])C(=O)C1([H])N(C(=O)C([H])(N([H])C(=O)C([H])(N([H])C([H])([H])[H])C([H])([H])[H])C(C([H])([H])[H])(C([H])([H])[H])C([H])([H])[H])C([H])([H])c2c([H])c(Oc3c([H])c(C([H])([H])[N+]([H])([H])C([H])([H])C([H])(N([H])C(=O)N4C([H])([H])C([H])([H])C([H])([H])C([H])(n5nc(-c6c([H])c([H])c(Oc7c([H])c([H])c(F)c([H])c7F)c([H])c6[H])c(C(=O)N([H])[H])c5N([H])[H])C4([H])[H])C([H])([H])[H])n(C([H])(C([H])([H])[H])C([H])([H])[H])c3C([H])([H])[H])c([H])c([H])c2C1([H])[H]

$$$$
97:0:0
     RDKit          3D

 97106  0  0  1  0  0  0  0  0999 V2000
  -27.1150  -22.5560   24.3890 C   0  0  0  0  0  3  0  0  0  0  0  0
  -27.3750  -23.3370   23.2590 C   0  0  0  0  0  3  0  0  0  0  0  0
  -27.8180  -21.3630   24.5700 C   0  0  0  0  0  3  0  0  0  0  0  0
  -29.2270  -23.2520   20.0490 C   0  0  0  0  0  3  0  0  0  0  0  0
  -29.6930  -21.9020   20.0710 C   0  0  0  0  0  3  0  0  0  0  0  0
  -28.2590  -22.9040   22.2350 C   0  0  0  0  0  0  0  0  0  0  0  0
  -28.8650  -21.5880   22.3400 C   0  0  0  0  0  0  0  0  0  0  0  0
  -28.7380  -20.8950   23.6030 C   0  0  0  0  0  0  0  0  0  0  0  0
  -28.5040  -23.8010   21.1340 C   0  0  0  0  0  0  0  0  0  0  0  0
  -29.5490  -21.0400   21.1910 C   0  0  0  0  0  0  0  0  0  0  0  0
  -29.5910  -19.7300   24.0470 C   0  0  0  0  0  0  0  0  0  0  0  0
  -29.0980  -18.8350   24.7660 O   0  0  0  0  0  1  0  0  0  0  0  0
  -30.8100  -19.6930   23.7710 O   0  0  0  0  0  0  0  0  0  0  0  0
  -30.1950  -19.7570   21.1340 N   0  0  0  0  0  0  0  0  0  0  0  0
  -30.6790  -19.6510   22.0440 H   0  0  0  0  0  0  0  0  0  0  0  0
  -29.5130  -18.4480   20.8810 C   0  0  0  0  0  2  0  0  0  0  0  0
  -30.5100  -17.1960   20.8430 C   0  0  0  0  0  2  0  0  0  0  0  0
  -30.6660  -14.6530   20.5090 C   0  0  0  0  0  0  0  0  0  0  0  0
  -30.4220  -12.3960   19.4820 C   0  0  0  0  0  2  0  0  0  0  0  0
  -29.5030  -12.4730   18.2430 C   0  0  0  0  0  2  0  0  0  0  0  0
  -28.0280  -12.3190   18.6600 C   0  0  0  0  0  2  0  0  0  0  0  0
  -27.6430  -13.2260   19.8590 C   0  0  0  0  0  3  0  0  0  0  0  0
  -28.6860  -13.1410   20.9960 C   0  0  0  0  0  2  0  0  0  0  0  0
  -30.0010  -13.4580   20.4240 N   0  0  0  0  0  0  0  0  0  0  0  0
  -31.8360  -14.7480   20.1320 O   0  0  0  0  0  0  0  0  0  0  0  0
  -29.9650  -15.7860   20.8480 N   0  0  0  0  0  0  0  0  0  0  0  0
  -29.0040  -15.6660   21.1280 H   0  0  0  0  0  0  0  0  0  0  0  0
  -25.2540  -13.8190   20.5800 C   0  0  0  0  0  0  0  0  0  0  0  0
  -24.1790  -13.0450   20.9200 C   0  0  0  0  0  0  0  0  0  0  0  0
  -24.6370  -11.6910   20.8750 C   0  0  0  0  0  0  0  0  0  0  0  0
  -26.2940  -12.9380   20.3340 N   0  0  0  0  0  0  0  0  0  0  0  0
  -25.9300  -11.6530   20.5780 N   0  0  0  0  0  0  0  0  0  0  0  0
  -23.9050  -10.4290   21.0400 C   0  0  0  0  0  0  0  0  0  0  0  0
  -24.3600   -9.4200   21.9180 C   0  0  0  0  0  3  0  0  0  0  0  0
  -23.6280   -8.2230   22.0750 C   0  0  0  0  0  3  0  0  0  0  0  0
  -22.4270   -8.0260   21.3530 C   0  0  0  0  0  0  0  0  0  0  0  0
  -21.9900   -9.0230   20.4620 C   0  0  0  0  0  3  0  0  0  0  0  0
  -22.7230  -10.2120   20.3040 C   0  0  0  0  0  3  0  0  0  0  0  0
  -21.6630   -6.8850   21.4250 O   0  0  0  0  0  0  0  0  0  0  0  0
  -21.6850   -6.0720   22.5280 C   0  0  0  0  0  0  0  0  0  0  0  0
  -21.4000   -6.5620   23.8200 C   0  0  0  0  0  3  0  0  0  0  0  0
  -21.3670   -5.6780   24.9160 C   0  0  0  0  0  3  0  0  0  0  0  0
  -21.6060   -4.3050   24.7230 C   0  0  0  0  0  0  0  0  0  0  0  0
  -21.8820   -3.8130   23.4340 C   0  0  0  0  0  3  0  0  0  0  0  0
  -21.9190   -4.6940   22.3400 C   0  0  0  0  0  0  0  0  0  0  0  0
  -22.1660   -4.2120   21.0980 F   0  0  0  0  0  0  0  0  0  0  0  0
  -21.5640   -3.4540   25.7740 F   0  0  0  0  0  0  0  0  0  0  0  0
  -22.7800  -13.5190   21.1890 C   0  0  0  0  0  0  0  0  0  0  0  0
  -22.0460  -12.8130   22.0410 N   0  0  0  0  0  0  0  0  0  0  0  0
  -22.3470  -14.5510   20.6760 O   0  0  0  0  0  0  0  0  0  0  0  0
  -22.4100  -11.9730   22.4660 H   0  0  0  0  0  0  0  0  0  0  0  0
  -21.1090  -13.1140   22.2700 H   0  0  0  0  0  0  0  0  0  0  0  0
  -25.4370  -15.1900   20.4360 N   0  0  0  0  0  0  0  0  0  0  0  0
  -24.7020  -15.8650   20.6120 H   0  0  0  0  0  0  0  0  0  0  0  0
  -26.3160  -15.6230   20.1920 H   0  0  0  0  0  0  0  0  0  0  0  0
  -27.9120  -25.2760   21.1670 C   0  0  0  0  0  2  0  0  0  0  0  0
  -28.2600  -26.3790   20.2430 O   0  0  0  0  0  0  0  0  0  0  0  0
  -24.6250  -31.8610   23.2020 C   0  0  0  0  0  0  0  0  0  0  0  0
  -27.2190  -27.3140   20.1410 C   0  0  0  0  0  0  0  0  0  0  0  0
  -23.4230  -30.4840   21.5410 C   0  0  0  0  0  3  0  0  0  0  0  0
  -24.8750  -28.9420   20.1030 C   0  0  0  0  0  0  0  0  0  0  0  0
  -25.9650  -30.7950   21.3700 C   0  0  0  0  0  2  0  0  0  0  0  0
  -26.0420  -29.4190   20.7170 C   0  0  0  0  0  0  0  0  0  0  0  0
  -27.2250  -28.6170   20.7290 C   0  0  0  0  0  3  0  0  0  0  0  0
  -26.0380  -26.8980   19.4900 C   0  0  0  0  0  3  0  0  0  0  0  0
  -24.8720  -27.6870   19.4770 C   0  0  0  0  0  3  0  0  0  0  0  0
  -23.6430  -29.8220   20.1540 C   0  0  0  0  0  2  0  0  0  0  0  0
  -24.6900  -31.0640   22.0960 N   0  0  0  0  0  0  0  0  0  0  0  0
  -23.5410  -32.1370   23.7380 O   0  0  0  0  0  0  0  0  0  0  0  0
  -22.7500  -29.4630   22.4910 C   0  0  0  0  0  0  0  0  0  0  0  0
  -21.4190  -29.3050   22.3650 N   0  0  0  0  0  0  0  0  0  0  0  0
  -23.4200  -28.8150   23.2980 O   0  0  0  0  0  0  0  0  0  0  0  0
  -20.9340  -29.8810   21.6910 H   0  0  0  0  0  0  0  0  0  0  0  0
  -18.0300  -28.1390   22.8530 C   0  0  0  0  0  0  0  0  0  0  0  0
  -20.5920  -28.3690   23.1280 C   0  0  0  0  0  3  0  0  0  0  0  0
  -20.6780  -26.9410   22.5410 C   0  0  0  0  0  2  0  0  0  0  0  0
  -19.5750  -26.6410   21.5220 C   0  0  0  0  0  2  0  0  0  0  0  0
  -18.1920  -26.7960   22.1620 C   0  0  0  0  0  2  0  0  0  0  0  0
  -19.1560  -28.8860   23.2900 C   0  0  0  0  0  0  0  0  0  0  0  0
  -18.9480  -30.1480   23.8910 C   0  0  0  0  0  3  0  0  0  0  0  0
  -17.6480  -30.6610   24.0580 C   0  0  0  0  0  3  0  0  0  0  0  0
  -16.5370  -29.9120   23.6340 C   0  0  0  0  0  3  0  0  0  0  0  0
  -16.7300  -28.6530   23.0390 C   0  0  0  0  0  3  0  0  0  0  0  0
  -25.9080  -32.4780   23.8370 C   0  0  0  0  0  3  0  0  0  0  0  0
  -25.5930  -33.8580   24.2310 N   0  0  0  0  0  0  0  0  0  0  0  0
  -25.9050  -34.9460   23.5140 C   0  0  0  0  0  0  0  0  0  0  0  0
  -26.5580  -34.8930   22.4660 O   0  0  0  0  0  0  0  0  0  0  0  0
  -25.0190  -33.9750   25.0530 H   0  0  0  0  0  0  0  0  0  0  0  0
  -24.1450  -36.7230   23.2660 C   0  0  0  0  0  1  0  0  0  0  0  0
  -25.4090  -36.3070   24.0370 C   0  0  0  0  0  3  0  0  0  0  0  0
  -27.5550  -37.1770   24.8500 C   0  0  0  0  0  1  0  0  0  0  0  0
  -26.4260  -37.3780   23.9460 N   0  0  0  0  0  0  0  0  0  0  0  0
  -26.0130  -38.2840   24.1510 H   0  0  0  0  0  0  0  0  0  0  0  0
  -26.4510  -31.6590   25.0710 C   0  0  1  0  0  0  0  0  0  0  0  0
  -25.3770  -31.3690   26.1440 C   0  0  0  0  0  1  0  0  0  0  0  0
  -27.0350  -30.3050   24.6050 C   0  0  0  0  0  1  0  0  0  0  0  0
  -27.6070  -32.4320   25.7470 C   0  0  0  0  0  1  0  0  0  0  0  0
  1  3  1  0
  2  1  2  0
  4  5  2  0
  4  9  1  0
  5 10  1  0
  6  7  1  0
  6  2  1  0
  7  8  1  0
  8 11  1  0
  8  3  2  0
  9 56  1  0
  9  6  2  0
 10  7  2  0
 11 12  1  0
 13 11  2  0
 14 10  1  0
 14 15  1  0
 16 14  1  0
 17 26  1  0
 17 16  1  0
 18 26  1  0
 19 24  1  0
 20 21  1  0
 20 19  1  0
 22 21  1  0
 22 31  1  0
 22 23  1  0
 24 18  1  0
 24 23  1  0
 25 18  2  0
 26 27  1  0
 28 29  2  0
 29 48  1  0
 30 29  1  0
 30 33  1  0
 31 32  1  0
 31 28  1  0
 32 30  2  0
 33 34  1  0
 34 35  2  0
 36 39  1  0
 36 35  1  0
 37 36  2  0
 38 37  1  0
 38 33  2  0
 39 40  1  0
 40 41  1  0
 41 42  2  0
 43 42  1  0
 43 47  1  0
 44 43  2  0
 45 40  2  0
 45 44  1  0
 46 45  1  0
 48 49  1  0
 49 52  1  0
 49 51  1  0
 50 48  2  0
 53 28  1  0
 53 54  1  0
 55 53  1  0
 57 56  1  0
 58 69  2  0
 59 57  1  0
 59 64  1  0
 60 68  1  0
 60 70  1  0
 61 67  1  0
 61 63  1  0
 62 68  1  0
 63 64  2  0
 63 62  1  0
 65 59  2  0
 66 65  1  0
 66 61  2  0
 67 60  1  0
 68 58  1  0
 70 72  2  0
 71 70  1  0
 73 71  1  0
 74 83  2  0
 74 79  1  0
 75 71  1  0
 75 79  1  0
 76 75  1  0
 77 78  1  0
 77 76  1  0
 78 74  1  0
 79 80  2  0
 80 81  1  0
 82 81  2  0
 83 82  1  0
 84 58  1  0
 84 85  1  0
 84 94  1  0
 85 88  1  0
 86 90  1  0
 86 85  1  0
 87 86  2  0
 90 89  1  0
 92 90  1  0
 92 93  1  0
 92 91  1  0
 94 97  1  1
 94 95  1  0
 96 94  1  0
M  ISO  4  18 100  26 100  56 101  57 101
M  END
>  <TORSDO>  (98) 
F 21

>  <SCORE>  (98) 
9.305

>  <name>  (98) 
97

>  <ligand_id>  (98) 
97

>  <original_smiles>  (98) 
[H]c1c([H])c([H])c2c(c1[H])C([H])([H])C([H])([H])C([H])([H])C2([H])N([H])C(=O)C1([H])N(C(=O)C([H])(N([H])C(=O)C([H])(N([H])C([H])([H])[H])C([H])([H])[H])C(C([H])([H])[H])(C([H])([H])[H])C([H])([H])[H])C([H])([H])c2c([H])c(OC([H])([H])c3c([H])c([H])c(N([H])C([H])([H])C([H])([H])N([H])C(=O)N4C([H])([H])C([H])([H])C([H])([H])C([H])(n5nc(-c6c([H])c([H])c(Oc7c([H])c([H])c(F)c([H])c7F)c([H])c6[H])c(C(=O)N([H])[H])c5N([H])[H])C4([H])[H])c4c(C(=O)[O-])c([H])c([H])c([H])c34)c([H])c([H])c2C1([H])[H]

>  <smiles>  (98) 
[H]c1c([H])c([H])c2c(c1[H])C([H])([H])C([H])([H])C([H])([H])C2([H])N([H])C(=O)C1([H])N(C(=O)C([H])(N([H])C(=O)C([H])(N([H])C([H])([H])[H])C([H])([H])[H])C(C([H])([H])[H])(C([H])([H])[H])C([H])([H])[H])C([H])([H])c2c([H])c(OC([H])([H])c3c([H])c([H])c(N([H])C([H])([H])C([H])([H])N([H])C(=O)N4C([H])([H])C([H])([H])C([H])([H])C([H])(n5nc(-c6c([H])c([H])c(Oc7c([H])c([H])c(F)c([H])c7F)c([H])c6[H])c(C(=O)N([H])[H])c5N([H])[H])C4([H])[H])c4c(C(=O)[O-])c([H])c([H])c([H])c34)c([H])c([H])c2C1([H])[H]

$$$$
98:0:0
     RDKit          3D

102111  0  0  1  0  0  0  0  0999 V2000
  -30.9240  -18.5660   21.1710 C   0  0  0  0  0  3  0  0  0  0  0  0
  -30.4620  -18.2510   23.5210 C   0  0  0  0  0  3  0  0  0  0  0  0
  -29.9960  -20.4430   22.4720 C   0  0  0  0  0  0  0  0  0  0  0  0
  -30.9730  -17.7460   22.3120 C   0  0  0  0  0  0  0  0  0  0  0  0
  -30.4520  -19.8960   21.2310 C   0  0  0  0  0  0  0  0  0  0  0  0
  -29.9890  -19.5810   23.6130 C   0  0  0  0  0  0  0  0  0  0  0  0
  -30.4980  -20.6470   19.9050 C   0  0  0  0  0  1  0  0  0  0  0  0
  -29.5140  -20.0450   24.9840 C   0  0  0  0  0  1  0  0  0  0  0  0
  -30.7900  -22.8890   22.6530 C   0  0  0  0  0  2  0  0  0  0  0  0
  -28.4780  -22.4090   21.6390 C   0  0  0  0  0  2  0  0  0  0  0  0
  -30.3760  -24.3710   22.7380 C   0  0  0  0  0  2  0  0  0  0  0  0
  -28.1730  -23.9170   21.7870 C   0  0  0  0  0  2  0  0  0  0  0  0
  -29.5770  -21.9320   22.6190 C   0  0  0  0  0  3  0  0  0  0  0  0
  -29.4110  -24.7340   21.6650 N   0  0  1  0  0  4  0  0  0  0  0  0
  -29.8530  -24.4800   20.7930 H   0  0  0  0  0  0  0  0  0  0  0  0
  -29.1650  -26.2050   21.5890 C   0  0  0  0  0  2  0  0  0  0  0  0
  -29.0980  -26.7440   20.1420 C   0  0  0  0  0  2  0  0  0  0  0  0
  -27.8430  -26.4590   19.5180 O   0  0  0  0  0  0  0  0  0  0  0  0
  -24.6640  -31.8700   22.9910 C   0  0  0  0  0  0  0  0  0  0  0  0
  -26.7750  -27.3130   19.6950 C   0  0  0  0  0  0  0  0  0  0  0  0
  -23.2350  -30.5560   21.4550 C   0  0  0  0  0  3  0  0  0  0  0  0
  -24.4680  -28.9410   19.9100 C   0  0  0  0  0  0  0  0  0  0  0  0
  -25.7470  -30.7650   21.0410 C   0  0  0  0  0  2  0  0  0  0  0  0
  -25.6950  -29.3910   20.4100 C   0  0  0  0  0  0  0  0  0  0  0  0
  -26.8480  -28.5840   20.3150 C   0  0  0  0  0  3  0  0  0  0  0  0
  -25.5330  -26.8830   19.1790 C   0  0  0  0  0  3  0  0  0  0  0  0
  -24.3790  -27.6820   19.2900 C   0  0  0  0  0  3  0  0  0  0  0  0
  -23.2860  -29.8720   20.0610 C   0  0  0  0  0  2  0  0  0  0  0  0
  -24.5730  -31.0780   21.8860 N   0  0  0  0  0  0  0  0  0  0  0  0
  -23.6530  -32.2070   23.6250 O   0  0  0  0  0  0  0  0  0  0  0  0
  -22.6080  -29.5710   22.4660 C   0  0  0  0  0  0  0  0  0  0  0  0
  -21.2840  -29.3660   22.3600 N   0  0  0  0  0  0  0  0  0  0  0  0
  -23.3100  -28.9910   23.3000 O   0  0  0  0  0  0  0  0  0  0  0  0
  -20.7800  -29.8870   21.6560 H   0  0  0  0  0  0  0  0  0  0  0  0
  -17.9720  -28.0010   22.8090 C   0  0  0  0  0  0  0  0  0  0  0  0
  -20.4880  -28.4550   23.1810 C   0  0  0  0  0  3  0  0  0  0  0  0
  -20.7100  -26.9850   22.7560 C   0  0  0  0  0  2  0  0  0  0  0  0
  -19.6890  -26.4930   21.7260 C   0  0  0  0  0  2  0  0  0  0  0  0
  -18.2680  -26.6070   22.2840 C   0  0  0  0  0  2  0  0  0  0  0  0
  -19.0140  -28.8750   23.2160 C   0  0  0  0  0  0  0  0  0  0  0  0
  -18.6850  -30.1730   23.6630 C   0  0  0  0  0  3  0  0  0  0  0  0
  -17.3460  -30.6000   23.7120 C   0  0  0  0  0  3  0  0  0  0  0  0
  -16.3170  -29.7250   23.3230 C   0  0  0  0  0  3  0  0  0  0  0  0
  -16.6290  -28.4280   22.8790 C   0  0  0  0  0  3  0  0  0  0  0  0
  -26.0370  -32.4130   23.4970 C   0  0  0  0  0  3  0  0  0  0  0  0
  -25.8530  -33.8310   23.8350 N   0  0  0  0  0  0  0  0  0  0  0  0
  -26.2220  -34.8500   23.0490 C   0  0  0  0  0  0  0  0  0  0  0  0
  -26.8220  -34.6930   21.9820 O   0  0  0  0  0  0  0  0  0  0  0  0
  -25.3020  -34.0320   24.6580 H   0  0  0  0  0  0  0  0  0  0  0  0
  -24.6100  -36.7670   22.7800 C   0  0  0  0  0  1  0  0  0  0  0  0
  -25.8640  -36.2730   23.5200 C   0  0  0  0  0  3  0  0  0  0  0  0
  -28.0980  -37.0120   24.2260 C   0  0  0  0  0  1  0  0  0  0  0  0
  -26.9640  -37.2450   23.3350 N   0  0  0  0  0  0  0  0  0  0  0  0
  -26.6350  -38.1950   23.4840 H   0  0  0  0  0  0  0  0  0  0  0  0
  -26.6110  -31.6080   24.7290 C   0  0  1  0  0  0  0  0  0  0  0  0
  -25.6070  -31.4550   25.8960 C   0  0  0  0  0  1  0  0  0  0  0  0
  -27.0440  -30.1870   24.2990 C   0  0  0  0  0  1  0  0  0  0  0  0
  -27.8800  -32.3070   25.2690 C   0  0  0  0  0  1  0  0  0  0  0  0
  -31.6270  -16.3620   22.2280 C   0  0  0  0  0  3  0  0  0  0  0  0
  -31.1830  -14.6560   20.4570 C   0  0  0  0  0  0  0  0  0  0  0  0
  -30.7510  -12.6090   19.1390 C   0  0  0  0  0  2  0  0  0  0  0  0
  -29.8090  -12.8700   17.9500 C   0  0  0  0  0  2  0  0  0  0  0  0
  -28.3370  -12.7650   18.3880 C   0  0  0  0  0  2  0  0  0  0  0  0
  -28.0370  -13.5910   19.6640 C   0  0  0  0  0  3  0  0  0  0  0  0
  -29.0780  -13.2990   20.7650 C   0  0  0  0  0  2  0  0  0  0  0  0
  -30.4210  -13.5580   20.2120 N   0  0  0  0  0  0  0  0  0  0  0  0
  -32.2030  -14.9230   19.8140 O   0  0  0  0  0  0  0  0  0  0  0  0
  -30.8020  -15.3800   21.5210 N   0  0  0  0  0  0  0  0  0  0  0  0
  -29.9360  -15.1060   21.9600 H   0  0  0  0  0  0  0  0  0  0  0  0
  -25.6620  -14.2740   20.3850 C   0  0  0  0  0  0  0  0  0  0  0  0
  -24.5690  -13.5350   20.7460 C   0  0  0  0  0  0  0  0  0  0  0  0
  -24.9820  -12.1680   20.6960 C   0  0  0  0  0  0  0  0  0  0  0  0
  -26.6750  -13.3590   20.1410 N   0  0  0  0  0  0  0  0  0  0  0  0
  -26.2680  -12.0870   20.3810 N   0  0  0  0  0  0  0  0  0  0  0  0
  -24.2150  -10.9280   20.8700 C   0  0  0  0  0  0  0  0  0  0  0  0
  -24.5460   -9.9880   21.8730 C   0  0  0  0  0  3  0  0  0  0  0  0
  -23.7820   -8.8120   22.0300 C   0  0  0  0  0  3  0  0  0  0  0  0
  -22.6730   -8.5670   21.1860 C   0  0  0  0  0  0  0  0  0  0  0  0
  -22.3640   -9.4940   20.1740 C   0  0  0  0  0  3  0  0  0  0  0  0
  -23.1280  -10.6620   20.0140 C   0  0  0  0  0  3  0  0  0  0  0  0
  -21.8880   -7.4410   21.2500 O   0  0  0  0  0  0  0  0  0  0  0  0
  -21.5900   -6.8400   22.4470 C   0  0  0  0  0  0  0  0  0  0  0  0
  -20.9580   -7.5410   23.4980 C   0  0  0  0  0  3  0  0  0  0  0  0
  -20.6090   -6.8650   24.6840 C   0  0  0  0  0  3  0  0  0  0  0  0
  -20.8790   -5.4910   24.8170 C   0  0  0  0  0  0  0  0  0  0  0  0
  -21.5040   -4.7910   23.7700 C   0  0  0  0  0  3  0  0  0  0  0  0
  -21.8550   -5.4620   22.5880 C   0  0  0  0  0  0  0  0  0  0  0  0
  -22.4360   -4.7780   21.5730 F   0  0  0  0  0  0  0  0  0  0  0  0
  -20.5360   -4.8390   25.9530 F   0  0  0  0  0  0  0  0  0  0  0  0
  -23.1900  -14.0540   21.0340 C   0  0  0  0  0  0  0  0  0  0  0  0
  -22.4560  -13.3850   21.9160 N   0  0  0  0  0  0  0  0  0  0  0  0
  -22.7770  -15.0890   20.5130 O   0  0  0  0  0  0  0  0  0  0  0  0
  -22.8040  -12.5460   22.3550 H   0  0  0  0  0  0  0  0  0  0  0  0
  -21.5310  -13.7160   22.1570 H   0  0  0  0  0  0  0  0  0  0  0  0
  -25.8760  -15.6410   20.2250 N   0  0  0  0  0  0  0  0  0  0  0  0
  -25.1390  -16.3270   20.3460 H   0  0  0  0  0  0  0  0  0  0  0  0
  -26.7510  -16.0500   19.9220 H   0  0  0  0  0  0  0  0  0  0  0  0
  -32.0190  -15.8000   23.6160 C   0  0  0  0  0  2  0  0  0  0  0  0
  -32.1850  -16.8630   24.6210 N   0  0  0  0  0  4  0  0  0  0  0  0
  -32.9040  -17.5040   24.3400 H   0  0  0  0  0  0  0  0  0  0  0  0
  -32.4410  -16.4670   25.5070 H   0  0  0  0  0  0  0  0  0  0  0  0
  -31.3260  -17.3710   24.7350 H   0  0  0  0  0  0  0  0  0  0  0  0
  1  5  2  0
  1  4  1  0
  2  6  1  0
  3  6  2  0
  4  2  2  0
  5  3  1  0
  6  8  1  0
  7  5  1  0
  9 11  1  0
 10 12  1  0
 10 13  1  0
 13  3  1  0
 13  9  1  0
 14 12  1  0
 14 11  1  0
 14 15  1  6
 16 14  1  0
 17 16  1  0
 18 20  1  0
 18 17  1  0
 19 30  2  0
 20 25  1  0
 21 29  1  0
 21 31  1  0
 22 28  1  0
 22 24  1  0
 23 29  1  0
 24 23  1  0
 25 24  2  0
 26 27  1  0
 26 20  2  0
 27 22  2  0
 28 21  1  0
 29 19  1  0
 31 33  2  0
 32 31  1  0
 34 32  1  0
 35 44  2  0
 35 40  1  0
 36 32  1  0
 36 40  1  0
 37 36  1  0
 38 39  1  0
 38 37  1  0
 39 35  1  0
 40 41  2  0
 41 42  1  0
 43 42  2  0
 44 43  1  0
 45 19  1  0
 45 46  1  0
 45 55  1  0
 46 49  1  0
 47 51  1  0
 47 46  1  0
 48 47  2  0
 51 50  1  0
 53 54  1  0
 53 51  1  0
 53 52  1  0
 55 58  1  1
 55 56  1  0
 57 55  1  0
 59  4  1  0
 59 98  1  0
 60 68  1  0
 61 66  1  0
 62 63  1  0
 62 61  1  0
 64 63  1  0
 64 73  1  0
 64 65  1  0
 66 60  1  0
 66 65  1  0
 67 60  2  0
 68 69  1  0
 68 59  1  0
 70 71  2  0
 71 90  1  0
 72 71  1  0
 72 75  1  0
 73 74  1  0
 73 70  1  0
 74 72  2  0
 75 76  1  0
 76 77  2  0
 78 81  1  0
 78 77  1  0
 79 78  2  0
 80 79  1  0
 80 75  2  0
 81 82  1  0
 82 87  2  0
 82 83  1  0
 83 84  2  0
 84 85  1  0
 85 89  1  0
 86 85  2  0
 87 86  1  0
 88 87  1  0
 90 91  1  0
 91 94  1  0
 91 93  1  0
 92 90  2  0
 95 96  1  0
 95 70  1  0
 97 95  1  0
 98 99  1  0
 99102  1  0
 99101  1  0
100 99  1  0
M  ISO  4  17 101  18 101  60 100  68 100
M  END
>  <TORSDO>  (99) 
F 22

>  <SCORE>  (99) 
0.679

>  <name>  (99) 
98

>  <ligand_id>  (99) 
98

>  <original_smiles>  (99) 
[H]c1c([H])c([H])c2c(c1[H])C([H])([H])C([H])([H])C([H])([H])C2([H])N([H])C(=O)C1([H])N(C(=O)C([H])(N([H])C(=O)C([H])(N([H])C([H])([H])[H])C([H])([H])[H])C(C([H])([H])[H])(C([H])([H])[H])C([H])([H])[H])C([H])([H])c2c([H])c(OC([H])([H])C([H])([H])[N+]3([H])C([H])([H])C([H])([H])C([H])(c4c(C([H])([H])[H])c([H])c(C([H])(N([H])C(=O)N5C([H])([H])C([H])([H])C([H])([H])C([H])(n6nc(-c7c([H])c([H])c(Oc8c([H])c([H])c(F)c([H])c8F)c([H])c7[H])c(C(=O)N([H])[H])c6N([H])[H])C5([H])[H])C([H])([H])[N+]([H])([H])[H])c([H])c4C([H])([H])[H])C([H])([H])C3([H])[H])c([H])c([H])c2C1([H])[H]

>  <smiles>  (99) 
[H]c1c([H])c([H])c2c(c1[H])C([H])([H])C([H])([H])C([H])([H])C2([H])N([H])C(=O)C1([H])N(C(=O)C([H])(N([H])C(=O)C([H])(N([H])C([H])([H])[H])C([H])([H])[H])C(C([H])([H])[H])(C([H])([H])[H])C([H])([H])[H])C([H])([H])c2c([H])c(OC([H])([H])C([H])([H])[N+]3([H])C([H])([H])C([H])([H])C([H])(c4c(C([H])([H])[H])c([H])c(C([H])(N([H])C(=O)N5C([H])([H])C([H])([H])C([H])([H])C([H])(n6nc(-c7c([H])c([H])c(Oc8c([H])c([H])c(F)c([H])c8F)c([H])c7[H])c(C(=O)N([H])[H])c6N([H])[H])C5([H])[H])C([H])([H])[N+]([H])([H])[H])c([H])c4C([H])([H])[H])C([H])([H])C3([H])[H])c([H])c([H])c2C1([H])[H]

$$$$
