0:0:0
     RDKit          3D

 96104  0  0  1  0  0  0  0  0999 V2000
  -30.2730  -19.1810   20.1720 C   0  0  0  0  0  3  0  0  0  0  0  0
  -30.5450  -17.7710   20.2960 C   0  0  0  0  0  3  0  0  0  0  0  0
  -27.9360  -18.6990   19.9740 C   0  0  0  0  0  3  0  0  0  0  0  0
  -28.9460  -19.6920   20.0060 C   0  0  0  0  0  0  0  0  0  0  0  0
  -28.1890  -17.3060   20.1250 C   0  0  0  0  0  0  0  0  0  0  0  0
  -29.5090  -16.7890   20.2850 C   0  0  0  0  0  0  0  0  0  0  0  0
  -30.5320  -14.3520   20.0070 C   0  0  0  0  0  0  0  0  0  0  0  0
  -30.4880  -12.0690   19.0000 C   0  0  0  0  0  2  0  0  0  0  0  0
  -29.5620  -12.0950   17.7620 C   0  0  0  0  0  2  0  0  0  0  0  0
  -28.0850  -11.8920   18.1550 C   0  0  0  0  0  2  0  0  0  0  0  0
  -27.6590  -12.7770   19.3550 C   0  0  0  0  0  3  0  0  0  0  0  0
  -28.6910  -12.6830   20.5020 C   0  0  0  0  0  2  0  0  0  0  0  0
  -30.0010  -13.0870   19.9560 N   0  0  0  0  0  0  0  0  0  0  0  0
  -31.6800  -14.5830   19.6140 O   0  0  0  0  0  0  0  0  0  0  0  0
  -29.6520  -15.3270   20.4070 N   0  0  0  0  0  0  0  0  0  0  0  0
  -28.8220  -14.8980   20.7830 H   0  0  0  0  0  0  0  0  0  0  0  0
  -25.1850  -13.2740   19.8470 C   0  0  0  0  0  0  0  0  0  0  0  0
  -24.1600  -12.4850   20.2910 C   0  0  0  0  0  0  0  0  0  0  0  0
  -24.7170  -11.1810   20.4690 C   0  0  0  0  0  0  0  0  0  0  0  0
  -26.3070  -12.4600   19.8070 N   0  0  0  0  0  0  0  0  0  0  0  0
  -26.0240  -11.2020   20.2340 N   0  0  0  0  0  0  0  0  0  0  0  0
  -24.0700   -9.9050   20.7880 C   0  0  0  0  0  0  0  0  0  0  0  0
  -24.4920   -9.1150   21.8800 C   0  0  0  0  0  3  0  0  0  0  0  0
  -23.8410   -7.8990   22.1750 C   0  0  0  0  0  3  0  0  0  0  0  0
  -22.7530   -7.4640   21.3810 C   0  0  0  0  0  0  0  0  0  0  0  0
  -22.3540   -8.2410   20.2800 C   0  0  0  0  0  3  0  0  0  0  0  0
  -23.0060   -9.4490   19.9830 C   0  0  0  0  0  3  0  0  0  0  0  0
  -22.0760   -6.2840   21.5810 O   0  0  0  0  0  0  0  0  0  0  0  0
  -21.9350   -5.7400   22.8320 C   0  0  0  0  0  0  0  0  0  0  0  0
  -21.3300   -6.4510   23.8920 C   0  0  0  0  0  3  0  0  0  0  0  0
  -21.1440   -5.8280   25.1420 C   0  0  0  0  0  3  0  0  0  0  0  0
  -21.5510   -4.4940   25.3320 C   0  0  0  0  0  0  0  0  0  0  0  0
  -22.1480   -3.7830   24.2770 C   0  0  0  0  0  3  0  0  0  0  0  0
  -22.3370   -4.4030   23.0300 C   0  0  0  0  0  0  0  0  0  0  0  0
  -22.8930   -3.7070   22.0100 F   0  0  0  0  0  0  0  0  0  0  0  0
  -21.3640   -3.8920   26.5300 F   0  0  0  0  0  0  0  0  0  0  0  0
  -22.7210  -12.8900   20.4310 C   0  0  0  0  0  0  0  0  0  0  0  0
  -22.0060  -12.2920   21.3790 N   0  0  0  0  0  0  0  0  0  0  0  0
  -22.2350  -13.7770   19.7310 O   0  0  0  0  0  0  0  0  0  0  0  0
  -22.4090  -11.5780   21.9690 H   0  0  0  0  0  0  0  0  0  0  0  0
  -21.0420  -12.5590   21.5200 H   0  0  0  0  0  0  0  0  0  0  0  0
  -25.2400  -14.5990   19.4360 N   0  0  0  0  0  0  0  0  0  0  0  0
  -24.3940  -15.1450   19.3240 H   0  0  0  0  0  0  0  0  0  0  0  0
  -26.0310  -14.9880   18.9400 H   0  0  0  0  0  0  0  0  0  0  0  0
  -26.9790  -16.3790   20.1300 C   0  0  0  0  0  2  0  0  0  0  0  0
  -26.5450  -15.9680   21.5460 C   0  0  0  0  0  2  0  0  0  0  0  0
  -25.1840  -14.3400   22.9390 C   0  0  0  0  0  1  0  0  0  0  0  0
  -24.0340  -15.6830   21.1340 C   0  0  0  0  0  1  0  0  0  0  0  0
  -25.3440  -14.9960   21.5580 C   0  0  0  0  0  3  0  0  0  0  0  0
  -28.4730  -21.2130   19.9890 C   0  0  0  0  0  2  0  0  0  0  0  0
  -29.1970  -22.3050   19.2310 N   0  0  0  0  0  4  0  0  0  0  0  0
  -29.4640  -21.8880   18.3530 H   0  0  0  0  0  0  0  0  0  0  0  0
  -30.0590  -22.5140   19.7110 H   0  0  0  0  0  0  0  0  0  0  0  0
  -28.4830  -23.6160   18.8710 C   0  0  0  0  0  2  0  0  0  0  0  0
  -28.3840  -24.8140   19.9200 C   0  0  0  0  0  2  0  0  0  0  0  0
  -28.3800  -26.2180   19.4400 O   0  0  0  0  0  0  0  0  0  0  0  0
  -24.8230  -31.4240   22.9710 C   0  0  0  0  0  0  0  0  0  0  0  0
  -27.2450  -27.0280   19.5610 C   0  0  0  0  0  0  0  0  0  0  0  0
  -23.5430  -30.1820   21.2590 C   0  0  0  0  0  3  0  0  0  0  0  0
  -24.9190  -28.6830   19.7050 C   0  0  0  0  0  0  0  0  0  0  0  0
  -26.0840  -30.4430   21.0430 C   0  0  0  0  0  2  0  0  0  0  0  0
  -26.1100  -29.1100   20.3020 C   0  0  0  0  0  0  0  0  0  0  0  0
  -27.2770  -28.2970   20.2130 C   0  0  0  0  0  3  0  0  0  0  0  0
  -26.0340  -26.6400   18.9540 C   0  0  0  0  0  3  0  0  0  0  0  0
  -24.8810  -27.4530   19.0250 C   0  0  0  0  0  3  0  0  0  0  0  0
  -23.7130  -29.5920   19.8330 C   0  0  0  0  0  2  0  0  0  0  0  0
  -24.8370  -30.6950   21.8160 N   0  0  0  0  0  0  0  0  0  0  0  0
  -23.7600  -31.6960   23.5490 O   0  0  0  0  0  0  0  0  0  0  0  0
  -22.8700  -29.1210   22.1620 C   0  0  0  0  0  0  0  0  0  0  0  0
  -21.5340  -29.0140   22.0730 N   0  0  0  0  0  0  0  0  0  0  0  0
  -23.5480  -28.4010   22.9000 O   0  0  0  0  0  0  0  0  0  0  0  0
  -21.0510  -29.6440   21.4500 H   0  0  0  0  0  0  0  0  0  0  0  0
  -18.1170  -27.9670   22.6300 C   0  0  0  0  0  0  0  0  0  0  0  0
  -20.6960  -28.0560   22.7960 C   0  0  0  0  0  3  0  0  0  0  0  0
  -20.6880  -26.6830   22.0870 C   0  0  0  0  0  2  0  0  0  0  0  0
  -19.5230  -26.5170   21.1050 C   0  0  0  0  0  2  0  0  0  0  0  0
  -18.1830  -26.6770   21.8280 C   0  0  0  0  0  2  0  0  0  0  0  0
  -19.2990  -28.6200   23.0710 C   0  0  0  0  0  0  0  0  0  0  0  0
  -19.1830  -29.8320   23.7870 C   0  0  0  0  0  3  0  0  0  0  0  0
  -17.9200  -30.3870   24.0650 C   0  0  0  0  0  3  0  0  0  0  0  0
  -16.7530  -29.7250   23.6430 C   0  0  0  0  0  3  0  0  0  0  0  0
  -16.8550  -28.5180   22.9280 C   0  0  0  0  0  3  0  0  0  0  0  0
  -26.1390  -31.9690   23.6060 C   0  0  0  0  0  3  0  0  0  0  0  0
  -25.8690  -33.3270   24.0990 N   0  0  0  0  0  0  0  0  0  0  0  0
  -26.1950  -34.4520   23.4500 C   0  0  0  0  0  0  0  0  0  0  0  0
  -26.8260  -34.4520   22.3900 O   0  0  0  0  0  0  0  0  0  0  0  0
  -25.3130  -33.4000   24.9380 H   0  0  0  0  0  0  0  0  0  0  0  0
  -24.4890  -36.2960   23.3480 C   0  0  0  0  0  1  0  0  0  0  0  0
  -25.7450  -35.7880   24.0720 C   0  0  0  0  0  3  0  0  0  0  0  0
  -27.9200  -36.5460   24.9250 C   0  0  0  0  0  1  0  0  0  0  0  0
  -26.7930  -36.8320   24.0410 N   0  0  0  0  0  0  0  0  0  0  0  0
  -26.4080  -37.7370   24.2990 H   0  0  0  0  0  0  0  0  0  0  0  0
  -26.6900  -31.0580   24.7720 C   0  0  1  0  0  0  0  0  0  0  0  0
  -25.6360  -30.7290   25.8560 C   0  0  0  0  0  1  0  0  0  0  0  0
  -27.2290  -29.7200   24.2130 C   0  0  0  0  0  1  0  0  0  0  0  0
  -27.8800  -31.7600   25.4670 C   0  0  0  0  0  1  0  0  0  0  0  0
  1  2  1  0
  3  4  1  0
  3  5  2  0
  4  1  2  0
  5 45  1  0
  5  6  1  0
  6  2  2  0
  6 15  1  0
  7 15  1  0
  8 13  1  0
  9 10  1  0
  9  8  1  0
 11 10  1  0
 11 20  1  0
 11 12  1  0
 13  7  1  0
 13 12  1  0
 14  7  2  0
 15 16  1  0
 17 18  2  0
 18 37  1  0
 18 19  1  0
 19 22  1  0
 20 17  1  0
 20 21  1  0
 21 19  2  0
 22 23  1  0
 23 24  2  0
 25 28  1  0
 25 24  1  0
 26 25  2  0
 27 26  1  0
 27 22  2  0
 28 29  1  0
 29 34  2  0
 29 30  1  0
 30 31  2  0
 31 32  1  0
 32 36  1  0
 33 32  2  0
 34 33  1  0
 35 34  1  0
 37 38  1  0
 38 41  1  0
 38 40  1  0
 39 37  2  0
 42 17  1  0
 43 42  1  0
 44 42  1  0
 45 46  1  0
 46 49  1  0
 48 49  1  0
 49 47  1  0
 50  4  1  0
 51 53  1  0
 51 50  1  0
 52 51  1  0
 54 51  1  0
 54 55  1  0
 56 58  1  0
 56 55  1  0
 57 68  2  0
 58 63  1  0
 59 67  1  0
 59 69  1  0
 60 66  1  0
 60 62  1  0
 61 67  1  0
 62 61  1  0
 63 62  2  0
 64 65  1  0
 64 58  2  0
 65 60  2  0
 66 59  1  0
 67 57  1  0
 69 71  2  0
 70 69  1  0
 72 70  1  0
 73 82  2  0
 73 78  1  0
 74 70  1  0
 74 78  1  0
 75 74  1  0
 76 77  1  0
 76 75  1  0
 77 73  1  0
 78 79  2  0
 79 80  1  0
 81 80  2  0
 82 81  1  0
 83 57  1  0
 83 84  1  0
 83 93  1  0
 84 87  1  0
 85 89  1  0
 85 84  1  0
 86 85  2  0
 89 88  1  0
 91 89  1  0
 91 92  1  0
 91 90  1  0
 93 96  1  1
 93 94  1  0
 95 93  1  0
M  ISO  4   7 100  15 100  55 101  56 101
M  END
>  <TORSDO>  (1) 
F 23

>  <SCORE>  (1) 
-6.038

>  <name>  (1) 
0

>  <ligand_id>  (1) 
0

>  <original_smiles>  (1) 
[H]c1c([H])c([H])c2c(c1[H])C([H])([H])C([H])([H])C([H])([H])C2([H])N([H])C(=O)C1([H])N(C(=O)C([H])(N([H])C(=O)C([H])(N([H])C([H])([H])[H])C([H])([H])[H])C(C([H])([H])[H])(C([H])([H])[H])C([H])([H])[H])C([H])([H])c2c([H])c(OC([H])([H])C([H])([H])[N+]([H])([H])C([H])([H])c3c([H])c([H])c(N([H])C(=O)N4C([H])([H])C([H])([H])C([H])([H])C([H])(n5nc(-c6c([H])c([H])c(Oc7c([H])c([H])c(F)c([H])c7F)c([H])c6[H])c(C(=O)N([H])[H])c5N([H])[H])C4([H])[H])c(C([H])([H])C([H])([H])C([H])(C([H])([H])[H])C([H])([H])[H])c3[H])c([H])c([H])c2C1([H])[H]

>  <smiles>  (1) 
[H]c1c([H])c([H])c2c(c1[H])C([H])([H])C([H])([H])C([H])([H])C2([H])N([H])C(=O)C1([H])N(C(=O)C([H])(N([H])C(=O)C([H])(N([H])C([H])([H])[H])C([H])([H])[H])C(C([H])([H])[H])(C([H])([H])[H])C([H])([H])[H])C([H])([H])c2c([H])c(OC([H])([H])C([H])([H])[N+]([H])([H])C([H])([H])c3c([H])c([H])c(N([H])C(=O)N4C([H])([H])C([H])([H])C([H])([H])C([H])(n5nc(-c6c([H])c([H])c(Oc7c([H])c([H])c(F)c([H])c7F)c([H])c6[H])c(C(=O)N([H])[H])c5N([H])[H])C4([H])[H])c(C([H])([H])C([H])([H])C([H])(C([H])([H])[H])C([H])([H])[H])c3[H])c([H])c([H])c2C1([H])[H]

$$$$
1:0:0
     RDKit          3D

 93101  0  0  1  0  0  0  0  0999 V2000
  -29.0760  -22.5100   22.5090 C   0  0  0  0  0  2  0  0  0  0  0  0
  -29.0070  -24.6600   23.7110 C   0  0  0  0  0  1  0  0  0  0  0  0
  -29.1870  -24.0050   22.3910 N   0  0  2  0  0  4  0  0  0  0  0  0
  -30.1380  -24.1900   22.1060 H   0  0  0  0  0  0  0  0  0  0  0  0
  -28.3010  -24.5820   21.3150 C   0  0  0  0  0  2  0  0  0  0  0  0
  -28.4580  -26.1150   21.0560 C   0  0  0  0  0  2  0  0  0  0  0  0
  -27.9570  -26.5240   19.7640 O   0  0  0  0  0  0  0  0  0  0  0  0
  -24.5400  -31.8000   23.0860 C   0  0  0  0  0  0  0  0  0  0  0  0
  -26.8470  -27.3370   19.8070 C   0  0  0  0  0  0  0  0  0  0  0  0
  -23.1880  -30.4690   21.4960 C   0  0  0  0  0  3  0  0  0  0  0  0
  -24.5050  -28.9190   19.9480 C   0  0  0  0  0  0  0  0  0  0  0  0
  -25.7060  -30.7650   21.1390 C   0  0  0  0  0  2  0  0  0  0  0  0
  -25.7090  -29.4010   20.4780 C   0  0  0  0  0  0  0  0  0  0  0  0
  -26.8830  -28.6180   20.4060 C   0  0  0  0  0  3  0  0  0  0  0  0
  -25.6390  -26.8790   19.2490 C   0  0  0  0  0  3  0  0  0  0  0  0
  -24.4640  -27.6590   19.3260 C   0  0  0  0  0  3  0  0  0  0  0  0
  -23.2880  -29.8090   20.0910 C   0  0  0  0  0  2  0  0  0  0  0  0
  -24.5010  -31.0270   21.9630 N   0  0  0  0  0  0  0  0  0  0  0  0
  -23.5090  -32.0920   23.7030 O   0  0  0  0  0  0  0  0  0  0  0  0
  -22.5710  -29.4460   22.4780 C   0  0  0  0  0  0  0  0  0  0  0  0
  -21.2440  -29.2670   22.4000 N   0  0  0  0  0  0  0  0  0  0  0  0
  -23.2850  -28.8180   23.2630 O   0  0  0  0  0  0  0  0  0  0  0  0
  -20.7250  -29.8290   21.7390 H   0  0  0  0  0  0  0  0  0  0  0  0
  -17.8990  -28.0190   22.9650 C   0  0  0  0  0  0  0  0  0  0  0  0
  -20.4550  -28.3270   23.2010 C   0  0  0  0  0  3  0  0  0  0  0  0
  -20.5760  -26.8870   22.6480 C   0  0  0  0  0  2  0  0  0  0  0  0
  -19.4690  -26.5280   21.6530 C   0  0  0  0  0  2  0  0  0  0  0  0
  -18.0910  -26.6610   22.3110 C   0  0  0  0  0  2  0  0  0  0  0  0
  -19.0100  -28.8070   23.3680 C   0  0  0  0  0  0  0  0  0  0  0  0
  -18.7770  -30.0790   23.9360 C   0  0  0  0  0  3  0  0  0  0  0  0
  -17.4660  -30.5610   24.1100 C   0  0  0  0  0  3  0  0  0  0  0  0
  -16.3700  -29.7700   23.7240 C   0  0  0  0  0  3  0  0  0  0  0  0
  -16.5860  -28.5010   23.1560 C   0  0  0  0  0  3  0  0  0  0  0  0
  -25.8820  -32.3810   23.6310 C   0  0  0  0  0  3  0  0  0  0  0  0
  -25.6270  -33.7590   24.0670 N   0  0  0  0  0  0  0  0  0  0  0  0
  -25.9570  -34.8540   23.3700 C   0  0  0  0  0  0  0  0  0  0  0  0
  -26.5850  -34.8040   22.3080 O   0  0  0  0  0  0  0  0  0  0  0  0
  -25.0660  -33.8750   24.8990 H   0  0  0  0  0  0  0  0  0  0  0  0
  -24.2720  -36.7160   23.1940 C   0  0  0  0  0  1  0  0  0  0  0  0
  -25.5190  -36.2170   23.9420 C   0  0  0  0  0  3  0  0  0  0  0  0
  -27.6980  -36.9740   24.7760 C   0  0  0  0  0  1  0  0  0  0  0  0
  -26.5790  -37.2470   23.8800 N   0  0  0  0  0  0  0  0  0  0  0  0
  -26.2090  -38.1630   24.1130 H   0  0  0  0  0  0  0  0  0  0  0  0
  -26.4980  -31.5280   24.8080 C   0  0  1  0  0  0  0  0  0  0  0  0
  -25.5000  -31.2420   25.9540 C   0  0  0  0  0  1  0  0  0  0  0  0
  -27.0220  -30.1710   24.2830 C   0  0  0  0  0  1  0  0  0  0  0  0
  -27.7100  -32.2710   25.4140 C   0  0  0  0  0  1  0  0  0  0  0  0
  -30.4030  -21.7980   22.9240 C   0  0  0  0  0  2  0  0  0  0  0  0
  -30.2520  -20.3460   23.4440 C   0  0  0  0  0  2  0  0  0  0  0  0
  -29.8450  -19.2060   21.2090 C   0  0  0  0  0  3  0  0  0  0  0  0
  -31.4440  -18.2040   22.7540 C   0  0  0  0  0  3  0  0  0  0  0  0
  -29.9610  -18.0950   20.3560 C   0  0  0  0  0  3  0  0  0  0  0  0
  -31.5750  -17.0900   21.9010 C   0  0  0  0  0  3  0  0  0  0  0  0
  -30.5470  -19.2460   22.4300 C   0  0  0  0  0  0  0  0  0  0  0  0
  -30.7850  -17.0130   20.7350 C   0  0  0  0  0  0  0  0  0  0  0  0
  -31.4230  -14.7380   19.9840 C   0  0  0  0  0  0  0  0  0  0  0  0
  -31.0270  -12.5540   18.9350 C   0  0  0  0  0  2  0  0  0  0  0  0
  -30.0540  -12.7590   17.7550 C   0  0  0  0  0  2  0  0  0  0  0  0
  -28.5870  -12.7090   18.2310 C   0  0  0  0  0  2  0  0  0  0  0  0
  -28.3170  -13.6130   19.4600 C   0  0  0  0  0  3  0  0  0  0  0  0
  -29.3950  -13.3860   20.5490 C   0  0  0  0  0  2  0  0  0  0  0  0
  -30.7220  -13.5800   19.9290 N   0  0  0  0  0  0  0  0  0  0  0  0
  -32.5940  -14.8780   19.6230 O   0  0  0  0  0  0  0  0  0  0  0  0
  -30.6050  -15.7870   20.0740 N   0  0  0  0  0  0  0  0  0  0  0  0
  -29.6420  -15.5200   19.9750 H   0  0  0  0  0  0  0  0  0  0  0  0
  -25.9780  -14.3680   20.2370 C   0  0  0  0  0  0  0  0  0  0  0  0
  -24.8750  -13.6580   20.6280 C   0  0  0  0  0  0  0  0  0  0  0  0
  -25.2600  -12.2820   20.5960 C   0  0  0  0  0  0  0  0  0  0  0  0
  -26.9640  -13.4250   19.9810 N   0  0  0  0  0  0  0  0  0  0  0  0
  -26.5340  -12.1660   20.2550 N   0  0  0  0  0  0  0  0  0  0  0  0
  -24.4730  -11.0620   20.8110 C   0  0  0  0  0  0  0  0  0  0  0  0
  -24.8380  -10.1080   21.7870 C   0  0  0  0  0  3  0  0  0  0  0  0
  -24.0550   -8.9500   21.9820 C   0  0  0  0  0  3  0  0  0  0  0  0
  -22.8940   -8.7390   21.2010 C   0  0  0  0  0  0  0  0  0  0  0  0
  -22.5480   -9.6820   20.2160 C   0  0  0  0  0  3  0  0  0  0  0  0
  -23.3310  -10.8320   20.0200 C   0  0  0  0  0  3  0  0  0  0  0  0
  -22.0840   -7.6320   21.3060 O   0  0  0  0  0  0  0  0  0  0  0  0
  -21.9100   -6.9790   22.5010 C   0  0  0  0  0  0  0  0  0  0  0  0
  -21.4240   -7.6430   23.6480 C   0  0  0  0  0  3  0  0  0  0  0  0
  -21.1930   -6.9190   24.8360 C   0  0  0  0  0  3  0  0  0  0  0  0
  -21.4350   -5.5300   24.8740 C   0  0  0  0  0  0  0  0  0  0  0  0
  -21.9140   -4.8690   23.7290 C   0  0  0  0  0  3  0  0  0  0  0  0
  -22.1470   -5.5910   22.5460 C   0  0  0  0  0  0  0  0  0  0  0  0
  -22.5870   -4.9450   21.4390 F   0  0  0  0  0  0  0  0  0  0  0  0
  -21.2070   -4.8300   26.0090 F   0  0  0  0  0  0  0  0  0  0  0  0
  -23.5130  -14.2120   20.9300 C   0  0  0  0  0  0  0  0  0  0  0  0
  -22.7760  -13.5750   21.8300 N   0  0  0  0  0  0  0  0  0  0  0  0
  -23.1070  -15.2470   20.3990 O   0  0  0  0  0  0  0  0  0  0  0  0
  -23.1080  -12.7370   22.2830 H   0  0  0  0  0  0  0  0  0  0  0  0
  -21.8620  -13.9300   22.0710 H   0  0  0  0  0  0  0  0  0  0  0  0
  -26.2180  -15.7280   20.0530 N   0  0  0  0  0  0  0  0  0  0  0  0
  -25.5000  -16.4300   20.1960 H   0  0  0  0  0  0  0  0  0  0  0  0
  -27.0920  -16.1240   19.7360 H   0  0  0  0  0  0  0  0  0  0  0  0
  1 48  1  0
  3  1  1  0
  3  2  1  0
  3  4  1  6
  5  3  1  0
  6  5  1  0
  7  9  1  0
  7  6  1  0
  8 19  2  0
  9 14  1  0
 10 18  1  0
 10 20  1  0
 11 17  1  0
 11 13  1  0
 12 18  1  0
 13 12  1  0
 14 13  2  0
 15 16  1  0
 15  9  2  0
 16 11  2  0
 17 10  1  0
 18  8  1  0
 20 22  2  0
 21 20  1  0
 23 21  1  0
 24 33  2  0
 24 29  1  0
 25 21  1  0
 25 29  1  0
 26 25  1  0
 27 28  1  0
 27 26  1  0
 28 24  1  0
 29 30  2  0
 30 31  1  0
 32 31  2  0
 33 32  1  0
 34  8  1  0
 34 35  1  0
 34 44  1  0
 35 38  1  0
 36 40  1  0
 36 35  1  0
 37 36  2  0
 40 39  1  0
 42 40  1  0
 42 43  1  0
 42 41  1  0
 44 47  1  1
 44 45  1  0
 46 44  1  0
 48 49  1  0
 50 54  1  0
 52 55  1  0
 52 50  2  0
 53 51  1  0
 54 51  2  0
 54 49  1  0
 55 53  2  0
 56 64  1  0
 57 62  1  0
 58 59  1  0
 58 57  1  0
 60 59  1  0
 60 69  1  0
 60 61  1  0
 62 56  1  0
 62 61  1  0
 63 56  2  0
 64 55  1  0
 65 64  1  0
 66 67  2  0
 67 86  1  0
 68 67  1  0
 68 71  1  0
 69 66  1  0
 69 70  1  0
 70 68  2  0
 71 72  1  0
 72 73  2  0
 74 77  1  0
 74 73  1  0
 75 74  2  0
 76 75  1  0
 76 71  2  0
 77 78  1  0
 78 83  2  0
 78 79  1  0
 79 80  2  0
 80 81  1  0
 81 85  1  0
 82 81  2  0
 83 82  1  0
 84 83  1  0
 86 87  1  0
 87 90  1  0
 87 89  1  0
 88 86  2  0
 91 92  1  0
 91 66  1  0
 93 91  1  0
M  ISO  4   6 101   7 101  56 100  64 100
M  END
>  <TORSDO>  (2) 
F 22

>  <SCORE>  (2) 
-10.586

>  <name>  (2) 
1

>  <ligand_id>  (2) 
1

>  <original_smiles>  (2) 
[H]c1c([H])c([H])c2c(c1[H])C([H])([H])C([H])([H])C([H])([H])C2([H])N([H])C(=O)C1([H])N(C(=O)C([H])(N([H])C(=O)C([H])(N([H])C([H])([H])[H])C([H])([H])[H])C(C([H])([H])[H])(C([H])([H])[H])C([H])([H])[H])C([H])([H])c2c([H])c(OC([H])([H])C([H])([H])[N+]([H])(C([H])([H])[H])C([H])([H])C([H])([H])C([H])([H])c3c([H])c([H])c(N([H])C(=O)N4C([H])([H])C([H])([H])C([H])([H])C([H])(n5nc(-c6c([H])c([H])c(Oc7c([H])c([H])c(F)c([H])c7F)c([H])c6[H])c(C(=O)N([H])[H])c5N([H])[H])C4([H])[H])c([H])c3[H])c([H])c([H])c2C1([H])[H]

>  <smiles>  (2) 
[H]c1c([H])c([H])c2c(c1[H])C([H])([H])C([H])([H])C([H])([H])C2([H])N([H])C(=O)C1([H])N(C(=O)C([H])(N([H])C(=O)C([H])(N([H])C([H])([H])[H])C([H])([H])[H])C(C([H])([H])[H])(C([H])([H])[H])C([H])([H])[H])C([H])([H])c2c([H])c(OC([H])([H])C([H])([H])[N+]([H])(C([H])([H])[H])C([H])([H])C([H])([H])C([H])([H])c3c([H])c([H])c(N([H])C(=O)N4C([H])([H])C([H])([H])C([H])([H])C([H])(n5nc(-c6c([H])c([H])c(Oc7c([H])c([H])c(F)c([H])c7F)c([H])c6[H])c(C(=O)N([H])[H])c5N([H])[H])C4([H])[H])c([H])c3[H])c([H])c([H])c2C1([H])[H]

$$$$
2:0:0
     RDKit          3D

 91 99  0  0  1  0  0  0  0  0999 V2000
  -30.4090  -21.3600   21.3450 C   0  0  0  0  0  3  0  0  0  0  0  0
  -29.5470  -21.5110   20.2260 C   0  0  0  0  0  0  0  0  0  0  0  0
  -30.7110  -20.0330   21.5120 C   0  0  0  0  0  0  0  0  0  0  0  0
  -29.3330  -20.2400   19.7460 C   0  0  0  0  0  0  0  0  0  0  0  0
  -31.6020  -19.4270   22.5550 C   0  0  0  0  0  1  0  0  0  0  0  0
  -28.4960  -19.8090   18.5760 C   0  0  0  0  0  1  0  0  0  0  0  0
  -30.0440  -19.3100   20.5170 N   0  0  0  0  0  0  0  0  0  0  0  0
  -28.9620  -22.7990   19.6360 C   0  0  0  0  0  2  0  0  0  0  0  0
  -29.1510  -24.1410   20.4070 C   0  0  0  0  0  2  0  0  0  0  0  0
  -28.2000  -25.2210   19.8090 C   0  0  0  0  0  2  0  0  0  0  0  0
  -28.3370  -26.6070   20.2240 O   0  0  0  0  0  0  0  0  0  0  0  0
  -24.5990  -31.9060   23.2370 C   0  0  0  0  0  0  0  0  0  0  0  0
  -27.1970  -27.4080   20.1510 C   0  0  0  0  0  0  0  0  0  0  0  0
  -23.3800  -30.5120   21.6030 C   0  0  0  0  0  3  0  0  0  0  0  0
  -24.8200  -28.9770   20.1610 C   0  0  0  0  0  0  0  0  0  0  0  0
  -25.9120  -30.8430   21.4040 C   0  0  0  0  0  2  0  0  0  0  0  0
  -25.9860  -29.4730   20.7570 C   0  0  0  0  0  0  0  0  0  0  0  0
  -27.1740  -28.6940   20.7530 C   0  0  0  0  0  3  0  0  0  0  0  0
  -26.0130  -26.9690   19.5070 C   0  0  0  0  0  3  0  0  0  0  0  0
  -24.8310  -27.7270   19.5290 C   0  0  0  0  0  3  0  0  0  0  0  0
  -23.5760  -29.8320   20.2230 C   0  0  0  0  0  2  0  0  0  0  0  0
  -24.6480  -31.1010   22.1390 N   0  0  0  0  0  0  0  0  0  0  0  0
  -23.5190  -32.1890   23.7780 O   0  0  0  0  0  0  0  0  0  0  0  0
  -22.7250  -29.4920   22.5620 C   0  0  0  0  0  0  0  0  0  0  0  0
  -21.4000  -29.3140   22.4320 N   0  0  0  0  0  0  0  0  0  0  0  0
  -23.4070  -28.8650   23.3780 O   0  0  0  0  0  0  0  0  0  0  0  0
  -20.9130  -29.8760   21.7470 H   0  0  0  0  0  0  0  0  0  0  0  0
  -18.0260  -28.1230   22.9330 C   0  0  0  0  0  0  0  0  0  0  0  0
  -20.5810  -28.3790   23.2040 C   0  0  0  0  0  3  0  0  0  0  0  0
  -20.6800  -26.9470   22.6310 C   0  0  0  0  0  2  0  0  0  0  0  0
  -19.5800  -26.6210   21.6150 C   0  0  0  0  0  2  0  0  0  0  0  0
  -18.1980  -26.7710   22.2600 C   0  0  0  0  0  2  0  0  0  0  0  0
  -19.1450  -28.8860   23.3600 C   0  0  0  0  0  0  0  0  0  0  0  0
  -18.9290  -30.1530   23.9440 C   0  0  0  0  0  3  0  0  0  0  0  0
  -17.6260  -30.6580   24.1050 C   0  0  0  0  0  3  0  0  0  0  0  0
  -16.5200  -29.8900   23.7000 C   0  0  0  0  0  3  0  0  0  0  0  0
  -16.7210  -28.6250   23.1200 C   0  0  0  0  0  3  0  0  0  0  0  0
  -25.8900  -32.5300   23.8510 C   0  0  0  0  0  3  0  0  0  0  0  0
  -25.5870  -33.9280   24.1860 N   0  0  0  0  0  0  0  0  0  0  0  0
  -25.9130  -34.9810   23.4240 C   0  0  0  0  0  0  0  0  0  0  0  0
  -26.5730  -34.8780   22.3870 O   0  0  0  0  0  0  0  0  0  0  0  0
  -24.9940  -34.0800   24.9890 H   0  0  0  0  0  0  0  0  0  0  0  0
  -24.1830  -36.7810   23.0990 C   0  0  0  0  0  1  0  0  0  0  0  0
  -25.4320  -36.3680   23.8920 C   0  0  0  0  0  3  0  0  0  0  0  0
  -27.5770  -37.2470   24.7020 C   0  0  0  0  0  1  0  0  0  0  0  0
  -26.4640  -37.4210   23.7730 N   0  0  0  0  0  0  0  0  0  0  0  0
  -26.0580  -38.3400   23.9240 H   0  0  0  0  0  0  0  0  0  0  0  0
  -26.4170  -31.7510   25.1200 C   0  0  1  0  0  0  0  0  0  0  0  0
  -25.3310  -31.5080   26.1930 C   0  0  0  0  0  1  0  0  0  0  0  0
  -26.9950  -30.3730   24.7190 C   0  0  0  0  0  1  0  0  0  0  0  0
  -27.5770  -32.5390   25.7730 C   0  0  0  0  0  1  0  0  0  0  0  0
  -30.0980  -17.8540   20.2110 C   0  0  0  0  0  2  0  0  0  0  0  0
  -30.3370  -16.8650   21.3850 C   0  0  0  0  0  2  0  0  0  0  0  0
  -30.6500  -14.4970   20.5290 C   0  0  0  0  0  0  0  0  0  0  0  0
  -30.3710  -12.3440   19.3470 C   0  0  0  0  0  2  0  0  0  0  0  0
  -29.4310  -12.5450   18.1390 C   0  0  0  0  0  2  0  0  0  0  0  0
  -27.9500  -12.4260   18.5520 C   0  0  0  0  0  2  0  0  0  0  0  0
  -27.6130  -13.2540   19.8210 C   0  0  0  0  0  3  0  0  0  0  0  0
  -28.6590  -13.0060   20.9320 C   0  0  0  0  0  2  0  0  0  0  0  0
  -29.9860  -13.3190   20.3760 N   0  0  0  0  0  0  0  0  0  0  0  0
  -31.7770  -14.7050   20.0740 O   0  0  0  0  0  0  0  0  0  0  0  0
  -29.9300  -15.4780   21.1050 N   0  0  0  0  0  0  0  0  0  0  0  0
  -29.0030  -15.2150   21.4050 H   0  0  0  0  0  0  0  0  0  0  0  0
  -25.2100  -13.8780   20.5010 C   0  0  0  0  0  0  0  0  0  0  0  0
  -24.1330  -13.1120   20.8630 C   0  0  0  0  0  0  0  0  0  0  0  0
  -24.5890  -11.7590   20.8500 C   0  0  0  0  0  0  0  0  0  0  0  0
  -26.2530  -12.9890   20.2890 N   0  0  0  0  0  0  0  0  0  0  0  0
  -25.8820  -11.7110   20.5570 N   0  0  0  0  0  0  0  0  0  0  0  0
  -23.8570  -10.5010   21.0450 C   0  0  0  0  0  0  0  0  0  0  0  0
  -24.2910   -9.5330   21.9770 C   0  0  0  0  0  3  0  0  0  0  0  0
  -23.5620   -8.3380   22.1590 C   0  0  0  0  0  3  0  0  0  0  0  0
  -22.3860   -8.1030   21.4090 C   0  0  0  0  0  0  0  0  0  0  0  0
  -21.9710   -9.0610   20.4650 C   0  0  0  0  0  3  0  0  0  0  0  0
  -22.7000  -10.2480   20.2820 C   0  0  0  0  0  3  0  0  0  0  0  0
  -21.6280   -6.9610   21.4990 O   0  0  0  0  0  0  0  0  0  0  0  0
  -21.5920   -6.2100   22.6460 C   0  0  0  0  0  0  0  0  0  0  0  0
  -21.2010   -6.7620   23.8860 C   0  0  0  0  0  3  0  0  0  0  0  0
  -21.1130   -5.9380   25.0270 C   0  0  0  0  0  3  0  0  0  0  0  0
  -21.4040   -4.5650   24.9280 C   0  0  0  0  0  0  0  0  0  0  0  0
  -21.7870   -4.0130   23.6920 C   0  0  0  0  0  3  0  0  0  0  0  0
  -21.8790   -4.8330   22.5550 C   0  0  0  0  0  0  0  0  0  0  0  0
  -22.2280   -4.2930   21.3630 F   0  0  0  0  0  0  0  0  0  0  0  0
  -21.3120   -3.7710   26.0210 F   0  0  0  0  0  0  0  0  0  0  0  0
  -22.7350  -13.5970   21.1160 C   0  0  0  0  0  0  0  0  0  0  0  0
  -21.9960  -12.9090   21.9810 N   0  0  0  0  0  0  0  0  0  0  0  0
  -22.3040  -14.6170   20.5820 O   0  0  0  0  0  0  0  0  0  0  0  0
  -22.3590  -12.0840   22.4350 H   0  0  0  0  0  0  0  0  0  0  0  0
  -21.0560  -13.2130   22.1920 H   0  0  0  0  0  0  0  0  0  0  0  0
  -25.3840  -15.2470   20.3150 N   0  0  0  0  0  0  0  0  0  0  0  0
  -24.6190  -15.9080   20.3980 H   0  0  0  0  0  0  0  0  0  0  0  0
  -26.2520  -15.6780   20.0230 H   0  0  0  0  0  0  0  0  0  0  0  0
  1  3  2  0
  2  1  1  0
  3  5  1  0
  4  2  2  0
  4  7  1  0
  6  4  1  0
  7  3  1  0
  8  2  1  0
  8  9  1  0
 10 11  1  0
 10  9  1  0
 12 23  2  0
 13 11  1  0
 13 18  1  0
 14 22  1  0
 14 24  1  0
 15 21  1  0
 15 17  1  0
 16 22  1  0
 17 16  1  0
 18 17  2  0
 19 20  1  0
 19 13  2  0
 20 15  2  0
 21 14  1  0
 22 12  1  0
 24 26  2  0
 25 24  1  0
 27 25  1  0
 28 37  2  0
 28 33  1  0
 29 25  1  0
 29 33  1  0
 30 29  1  0
 31 32  1  0
 31 30  1  0
 32 28  1  0
 33 34  2  0
 34 35  1  0
 36 35  2  0
 37 36  1  0
 38 12  1  0
 38 39  1  0
 38 48  1  0
 39 42  1  0
 40 44  1  0
 40 39  1  0
 41 40  2  0
 44 43  1  0
 46 44  1  0
 46 47  1  0
 46 45  1  0
 48 51  1  1
 48 49  1  0
 50 48  1  0
 52  7  1  0
 52 53  1  0
 54 62  1  0
 55 60  1  0
 56 57  1  0
 56 55  1  0
 58 57  1  0
 58 67  1  0
 58 59  1  0
 60 54  1  0
 60 59  1  0
 61 54  2  0
 62 53  1  0
 62 63  1  0
 64 65  2  0
 65 84  1  0
 66 65  1  0
 66 69  1  0
 67 64  1  0
 67 68  1  0
 68 66  2  0
 69 70  1  0
 70 71  2  0
 72 75  1  0
 72 71  1  0
 73 72  2  0
 74 73  1  0
 74 69  2  0
 75 76  1  0
 76 77  1  0
 77 78  2  0
 79 78  1  0
 79 83  1  0
 80 79  2  0
 81 76  2  0
 81 80  1  0
 82 81  1  0
 84 85  1  0
 85 88  1  0
 85 87  1  0
 86 84  2  0
 89 90  1  0
 89 64  1  0
 91 89  1  0
M  ISO  4  10 101  11 101  54 100  62 100
M  END
>  <TORSDO>  (3) 
F 21

>  <SCORE>  (3) 
-13.732

>  <name>  (3) 
2

>  <ligand_id>  (3) 
2

>  <original_smiles>  (3) 
[H]c1c([H])c([H])c2c(c1[H])C([H])([H])C([H])([H])C([H])([H])C2([H])N([H])C(=O)C1([H])N(C(=O)C([H])(N([H])C(=O)C([H])(N([H])C([H])([H])[H])C([H])([H])[H])C(C([H])([H])[H])(C([H])([H])[H])C([H])([H])[H])C([H])([H])c2c([H])c(OC([H])([H])C([H])([H])C([H])([H])c3c([H])c(C([H])([H])[H])n(C([H])([H])C([H])([H])N([H])C(=O)N4C([H])([H])C([H])([H])C([H])([H])C([H])(n5nc(-c6c([H])c([H])c(Oc7c([H])c([H])c(F)c([H])c7F)c([H])c6[H])c(C(=O)N([H])[H])c5N([H])[H])C4([H])[H])c3C([H])([H])[H])c([H])c([H])c2C1([H])[H]

>  <smiles>  (3) 
[H]c1c([H])c([H])c2c(c1[H])C([H])([H])C([H])([H])C([H])([H])C2([H])N([H])C(=O)C1([H])N(C(=O)C([H])(N([H])C(=O)C([H])(N([H])C([H])([H])[H])C([H])([H])[H])C(C([H])([H])[H])(C([H])([H])[H])C([H])([H])[H])C([H])([H])c2c([H])c(OC([H])([H])C([H])([H])C([H])([H])c3c([H])c(C([H])([H])[H])n(C([H])([H])C([H])([H])N([H])C(=O)N4C([H])([H])C([H])([H])C([H])([H])C([H])(n5nc(-c6c([H])c([H])c(Oc7c([H])c([H])c(F)c([H])c7F)c([H])c6[H])c(C(=O)N([H])[H])c5N([H])[H])C4([H])[H])c3C([H])([H])[H])c([H])c([H])c2C1([H])[H]

$$$$
3:0:0
     RDKit          3D

 90 99  0  0  1  0  0  0  0  0999 V2000
  -28.9570  -21.3200   18.6280 C   0  0  0  0  0  3  0  0  0  0  0  0
  -28.7390  -22.7110   18.9680 C   0  0  0  0  0  3  0  0  0  0  0  0
  -29.5590  -22.2560   21.1450 C   0  0  0  0  0  3  0  0  0  0  0  0
  -29.4670  -20.3270   19.5310 C   0  0  0  0  0  0  0  0  0  0  0  0
  -29.7900  -20.8460   20.8060 C   0  0  0  0  0  0  0  0  0  0  0  0
  -29.0080  -23.2700   20.2540 C   0  0  0  0  0  0  0  0  0  0  0  0
  -29.6010  -18.7560   19.1610 C   0  0  0  0  0  2  0  0  0  0  0  0
  -30.4040  -19.8290   21.7930 C   0  0  0  0  0  2  0  0  0  0  0  0
  -30.0870  -18.2930   21.5620 C   0  0  0  0  0  2  0  0  0  0  0  0
  -30.3590  -17.6940   20.1410 C   0  0  0  0  0  3  0  0  0  0  0  0
  -30.8540  -14.9540   19.8760 C   0  0  0  0  0  0  0  0  0  0  0  0
  -30.6390  -12.6050   18.9460 C   0  0  0  0  0  2  0  0  0  0  0  0
  -29.6260  -12.5770   17.7790 C   0  0  0  0  0  2  0  0  0  0  0  0
  -28.1880  -12.3980   18.3040 C   0  0  0  0  0  2  0  0  0  0  0  0
  -27.8740  -13.3310   19.5020 C   0  0  0  0  0  3  0  0  0  0  0  0
  -29.0010  -13.3190   20.5570 C   0  0  0  0  0  2  0  0  0  0  0  0
  -30.2370  -13.7060   19.8650 N   0  0  0  0  0  0  0  0  0  0  0  0
  -32.0420  -15.0080   19.5440 O   0  0  0  0  0  0  0  0  0  0  0  0
  -30.0820  -16.1330   20.0610 N   0  0  0  0  0  0  0  0  0  0  0  0
  -29.1150  -15.9060   20.2350 H   0  0  0  0  0  0  0  0  0  0  0  0
  -25.5700  -13.9590   20.4220 C   0  0  0  0  0  0  0  0  0  0  0  0
  -24.5080  -13.2050   20.8420 C   0  0  0  0  0  0  0  0  0  0  0  0
  -24.9260  -11.8420   20.7380 C   0  0  0  0  0  0  0  0  0  0  0  0
  -26.5650  -13.0570   20.0840 N   0  0  0  0  0  0  0  0  0  0  0  0
  -26.1920  -11.7760   20.3410 N   0  0  0  0  0  0  0  0  0  0  0  0
  -24.1730  -10.5970   20.9400 C   0  0  0  0  0  0  0  0  0  0  0  0
  -24.6040   -9.6110   21.8550 C   0  0  0  0  0  3  0  0  0  0  0  0
  -23.8500   -8.4330   22.0450 C   0  0  0  0  0  3  0  0  0  0  0  0
  -22.6520   -8.2320   21.3200 C   0  0  0  0  0  0  0  0  0  0  0  0
  -22.2400   -9.2050   20.3920 C   0  0  0  0  0  3  0  0  0  0  0  0
  -22.9930  -10.3750   20.2010 C   0  0  0  0  0  3  0  0  0  0  0  0
  -21.8690   -7.1070   21.4200 O   0  0  0  0  0  0  0  0  0  0  0  0
  -21.7830   -6.3930   22.5880 C   0  0  0  0  0  0  0  0  0  0  0  0
  -21.3290   -6.9800   23.7890 C   0  0  0  0  0  3  0  0  0  0  0  0
  -21.1880   -6.1940   24.9500 C   0  0  0  0  0  3  0  0  0  0  0  0
  -21.4920   -4.8190   24.9090 C   0  0  0  0  0  0  0  0  0  0  0  0
  -21.9390   -4.2310   23.7130 C   0  0  0  0  0  3  0  0  0  0  0  0
  -22.0810   -5.0160   22.5550 C   0  0  0  0  0  0  0  0  0  0  0  0
  -22.4910   -4.4390   21.3990 F   0  0  0  0  0  0  0  0  0  0  0  0
  -21.3500   -4.0600   26.0220 F   0  0  0  0  0  0  0  0  0  0  0  0
  -23.1480  -13.7160   21.2200 C   0  0  0  0  0  0  0  0  0  0  0  0
  -22.4620  -13.0230   22.1210 N   0  0  0  0  0  0  0  0  0  0  0  0
  -22.7060  -14.7640   20.7500 O   0  0  0  0  0  0  0  0  0  0  0  0
  -22.8350  -12.1750   22.5230 H   0  0  0  0  0  0  0  0  0  0  0  0
  -21.5500  -13.3440   22.4150 H   0  0  0  0  0  0  0  0  0  0  0  0
  -25.7630  -15.3300   20.2720 N   0  0  0  0  0  0  0  0  0  0  0  0
  -25.0200  -15.9970   20.4480 H   0  0  0  0  0  0  0  0  0  0  0  0
  -26.5800  -15.7530   19.8550 H   0  0  0  0  0  0  0  0  0  0  0  0
  -28.4540  -24.7460   20.7700 C   0  0  0  0  0  2  0  0  0  0  0  0
  -28.7520  -26.1890   20.2730 O   0  0  0  0  0  0  0  0  0  0  0  0
  -24.8240  -31.7310   23.2090 C   0  0  0  0  0  0  0  0  0  0  0  0
  -27.6740  -27.1480   20.2290 C   0  0  0  0  0  0  0  0  0  0  0  0
  -23.7280  -30.3000   21.5290 C   0  0  0  0  0  3  0  0  0  0  0  0
  -25.2800  -28.7960   20.1380 C   0  0  0  0  0  0  0  0  0  0  0  0
  -26.2730  -30.6690   21.4410 C   0  0  0  0  0  2  0  0  0  0  0  0
  -26.4230  -29.2840   20.7860 C   0  0  0  0  0  0  0  0  0  0  0  0
  -27.6240  -28.4770   20.8150 C   0  0  0  0  0  3  0  0  0  0  0  0
  -26.5080  -26.7690   19.5310 C   0  0  0  0  0  3  0  0  0  0  0  0
  -25.3360  -27.5510   19.4940 C   0  0  0  0  0  3  0  0  0  0  0  0
  -24.0140  -29.6400   20.1550 C   0  0  0  0  0  2  0  0  0  0  0  0
  -24.9590  -30.9230   22.1150 N   0  0  0  0  0  0  0  0  0  0  0  0
  -23.7130  -31.9690   23.7070 O   0  0  0  0  0  0  0  0  0  0  0  0
  -23.0640  -29.2600   22.4660 C   0  0  0  0  0  0  0  0  0  0  0  0
  -21.7480  -29.0350   22.2980 N   0  0  0  0  0  0  0  0  0  0  0  0
  -23.7350  -28.6580   23.3080 O   0  0  0  0  0  0  0  0  0  0  0  0
  -21.2610  -29.5740   21.5950 H   0  0  0  0  0  0  0  0  0  0  0  0
  -18.4060  -27.6970   22.6930 C   0  0  0  0  0  0  0  0  0  0  0  0
  -20.9420  -28.0620   23.0400 C   0  0  0  0  0  3  0  0  0  0  0  0
  -21.1200  -26.6380   22.4650 C   0  0  0  0  0  2  0  0  0  0  0  0
  -20.0640  -26.2760   21.4150 C   0  0  0  0  0  2  0  0  0  0  0  0
  -18.6590  -26.3600   22.0160 C   0  0  0  0  0  2  0  0  0  0  0  0
  -19.4780  -28.5030   23.1590 C   0  0  0  0  0  0  0  0  0  0  0  0
  -19.1880  -29.7520   23.7510 C   0  0  0  0  0  3  0  0  0  0  0  0
  -17.8580  -30.1960   23.8810 C   0  0  0  0  0  3  0  0  0  0  0  0
  -16.8000  -29.3870   23.4310 C   0  0  0  0  0  3  0  0  0  0  0  0
  -17.0740  -28.1390   22.8430 C   0  0  0  0  0  3  0  0  0  0  0  0
  -26.0580  -32.4130   23.8750 C   0  0  0  0  0  3  0  0  0  0  0  0
  -25.6850  -33.8000   24.1950 N   0  0  0  0  0  0  0  0  0  0  0  0
  -25.9900  -34.8670   23.4430 C   0  0  0  0  0  0  0  0  0  0  0  0
  -26.6820  -34.7890   22.4250 O   0  0  0  0  0  0  0  0  0  0  0  0
  -25.0680  -33.9310   24.9840 H   0  0  0  0  0  0  0  0  0  0  0  0
  -24.1930  -36.5900   23.0690 C   0  0  0  0  0  1  0  0  0  0  0  0
  -25.4420  -36.2360   23.8920 C   0  0  0  0  0  3  0  0  0  0  0  0
  -27.5290  -37.2150   24.7410 C   0  0  0  0  0  1  0  0  0  0  0  0
  -26.4320  -37.3310   23.7830 N   0  0  0  0  0  0  0  0  0  0  0  0
  -25.9870  -38.2340   23.9220 H   0  0  0  0  0  0  0  0  0  0  0  0
  -26.5540  -31.6650   25.1740 C   0  0  1  0  0  0  0  0  0  0  0  0
  -25.4320  -31.3920   26.2040 C   0  0  0  0  0  1  0  0  0  0  0  0
  -27.1980  -30.3060   24.8150 C   0  0  0  0  0  1  0  0  0  0  0  0
  -27.6520  -32.4990   25.8740 C   0  0  0  0  0  1  0  0  0  0  0  0
  1  2  2  0
  1  4  1  0
  2  6  1  0
  4  5  2  0
  5  3  1  0
  5  8  1  0
  6 49  1  0
  6  3  2  0
  7  4  1  0
  7 10  1  0
  9  8  1  0
 10 19  1  0
 10  9  1  0
 11 19  1  0
 12 17  1  0
 13 14  1  0
 13 12  1  0
 15 14  1  0
 15 24  1  0
 15 16  1  0
 17 11  1  0
 17 16  1  0
 18 11  2  0
 19 20  1  0
 21 22  2  0
 22 41  1  0
 23 22  1  0
 23 26  1  0
 24 25  1  0
 24 21  1  0
 25 23  2  0
 26 27  1  0
 27 28  2  0
 29 32  1  0
 29 28  1  0
 30 29  2  0
 31 30  1  0
 31 26  2  0
 32 33  1  0
 33 34  1  0
 34 35  2  0
 36 35  1  0
 36 40  1  0
 37 36  2  0
 38 33  2  0
 38 37  1  0
 39 38  1  0
 41 42  1  0
 42 45  1  0
 42 44  1  0
 43 41  2  0
 46 21  1  0
 46 47  1  0
 48 46  1  0
 50 49  1  0
 51 62  2  0
 52 50  1  0
 52 57  1  0
 53 61  1  0
 53 63  1  0
 54 60  1  0
 54 56  1  0
 55 61  1  0
 56 57  2  0
 56 55  1  0
 58 52  2  0
 59 58  1  0
 59 54  2  0
 60 53  1  0
 61 51  1  0
 63 65  2  0
 64 63  1  0
 66 64  1  0
 67 76  2  0
 67 72  1  0
 68 64  1  0
 68 72  1  0
 69 68  1  0
 70 71  1  0
 70 69  1  0
 71 67  1  0
 72 73  2  0
 73 74  1  0
 75 74  2  0
 76 75  1  0
 77 51  1  0
 77 78  1  0
 77 87  1  0
 78 81  1  0
 79 83  1  0
 79 78  1  0
 80 79  2  0
 83 82  1  0
 85 83  1  0
 85 86  1  0
 85 84  1  0
 87 90  1  1
 87 88  1  0
 89 87  1  0
M  ISO  4  11 100  19 100  49 101  50 101
M  END
>  <TORSDO>  (4) 
F 17

>  <SCORE>  (4) 
-14.240

>  <name>  (4) 
3

>  <ligand_id>  (4) 
3

>  <original_smiles>  (4) 
[H]c1c([H])c([H])c2c(c1[H])C([H])([H])C([H])([H])C([H])([H])C2([H])N([H])C(=O)C1([H])N(C(=O)C([H])(N([H])C(=O)C([H])(N([H])C([H])([H])[H])C([H])([H])[H])C(C([H])([H])[H])(C([H])([H])[H])C([H])([H])[H])C([H])([H])c2c([H])c(OC([H])([H])c3c([H])c([H])c4c(c3[H])C([H])([H])C([H])([H])C([H])(N([H])C(=O)N3C([H])([H])C([H])([H])C([H])([H])C([H])(n5nc(-c6c([H])c([H])c(Oc7c([H])c([H])c(F)c([H])c7F)c([H])c6[H])c(C(=O)N([H])[H])c5N([H])[H])C3([H])[H])C4([H])[H])c([H])c([H])c2C1([H])[H]

>  <smiles>  (4) 
[H]c1c([H])c([H])c2c(c1[H])C([H])([H])C([H])([H])C([H])([H])C2([H])N([H])C(=O)C1([H])N(C(=O)C([H])(N([H])C(=O)C([H])(N([H])C([H])([H])[H])C([H])([H])[H])C(C([H])([H])[H])(C([H])([H])[H])C([H])([H])[H])C([H])([H])c2c([H])c(OC([H])([H])c3c([H])c([H])c4c(c3[H])C([H])([H])C([H])([H])C([H])(N([H])C(=O)N3C([H])([H])C([H])([H])C([H])([H])C([H])(n5nc(-c6c([H])c([H])c(Oc7c([H])c([H])c(F)c([H])c7F)c([H])c6[H])c(C(=O)N([H])[H])c5N([H])[H])C3([H])[H])C4([H])[H])c([H])c([H])c2C1([H])[H]

$$$$
4:0:0
     RDKit          3D

101110  0  0  1  0  0  0  0  0999 V2000
  -30.8930  -23.2430   23.9650 C   0  0  0  0  0  2  0  0  0  0  0  0
  -30.6530  -24.3200   22.8920 C   0  0  0  0  0  2  0  0  0  0  0  0
  -29.6430  -22.3520   23.9660 C   0  0  0  0  0  2  0  0  0  0  0  0
  -29.2180  -24.0900   22.3810 C   0  0  0  0  0  3  0  0  0  0  0  0
  -29.0010  -22.5550   22.5790 C   0  0  0  0  0  3  0  0  0  0  0  0
  -29.6600  -21.6550   21.5890 N   0  0  0  0  0  4  0  0  0  0  0  0
  -30.6520  -21.6320   21.7650 H   0  0  0  0  0  0  0  0  0  0  0  0
  -29.5290  -21.9610   20.6400 H   0  0  0  0  0  0  0  0  0  0  0  0
  -29.1940  -20.2480   21.6590 C   0  0  0  0  0  2  0  0  0  0  0  0
  -31.4760  -19.6040   20.6700 C   0  0  0  0  0  3  0  0  0  0  0  0
  -29.7950  -17.8780   20.9370 C   0  0  0  0  0  3  0  0  0  0  0  0
  -30.1670  -19.2390   21.0540 C   0  0  0  0  0  0  0  0  0  0  0  0
  -32.3410  -18.5950   20.2130 C   0  0  0  0  0  0  0  0  0  0  0  0
  -30.7180  -16.9220   20.4550 C   0  0  0  0  0  0  0  0  0  0  0  0
  -33.7650  -18.8980   19.7960 C   0  0  0  0  0  1  0  0  0  0  0  0
  -31.9720  -17.3040   20.1200 N   0  0  0  0  0  0  0  0  0  0  0  0
  -30.9140  -14.5180   19.8260 C   0  0  0  0  0  0  0  0  0  0  0  0
  -30.6130  -12.2250   18.9700 C   0  0  0  0  0  2  0  0  0  0  0  0
  -29.6210  -12.2400   17.7900 C   0  0  0  0  0  2  0  0  0  0  0  0
  -28.1730  -12.1120   18.2970 C   0  0  0  0  0  2  0  0  0  0  0  0
  -27.8530  -13.0960   19.4550 C   0  0  0  0  0  3  0  0  0  0  0  0
  -28.9600  -13.0730   20.5340 C   0  0  0  0  0  2  0  0  0  0  0  0
  -30.2490  -13.3310   19.8720 N   0  0  0  0  0  0  0  0  0  0  0  0
  -31.9790  -14.6370   19.2120 O   0  0  0  0  0  0  0  0  0  0  0  0
  -30.2780  -15.5690   20.3820 N   0  0  0  0  0  0  0  0  0  0  0  0
  -29.3580  -15.3780   20.7410 H   0  0  0  0  0  0  0  0  0  0  0  0
  -25.5130  -13.7280   20.3190 C   0  0  0  0  0  0  0  0  0  0  0  0
  -24.4620  -12.9660   20.7590 C   0  0  0  0  0  0  0  0  0  0  0  0
  -24.9020  -11.6100   20.6940 C   0  0  0  0  0  0  0  0  0  0  0  0
  -26.5300  -12.8350   20.0210 N   0  0  0  0  0  0  0  0  0  0  0  0
  -26.1690  -11.5540   20.3000 N   0  0  0  0  0  0  0  0  0  0  0  0
  -24.1740  -10.3540   20.9280 C   0  0  0  0  0  0  0  0  0  0  0  0
  -24.5950   -9.4300   21.9090 C   0  0  0  0  0  3  0  0  0  0  0  0
  -23.8680   -8.2410   22.1300 C   0  0  0  0  0  3  0  0  0  0  0  0
  -22.7070   -7.9670   21.3690 C   0  0  0  0  0  0  0  0  0  0  0  0
  -22.3070   -8.8790   20.3770 C   0  0  0  0  0  3  0  0  0  0  0  0
  -23.0340  -10.0600   20.1550 C   0  0  0  0  0  3  0  0  0  0  0  0
  -21.9540   -6.8250   21.4940 O   0  0  0  0  0  0  0  0  0  0  0  0
  -21.7990   -6.1940   22.7030 C   0  0  0  0  0  0  0  0  0  0  0  0
  -21.2600   -6.8580   23.8260 C   0  0  0  0  0  3  0  0  0  0  0  0
  -21.0550   -6.1530   25.0300 C   0  0  0  0  0  3  0  0  0  0  0  0
  -21.3790   -4.7860   25.1090 C   0  0  0  0  0  0  0  0  0  0  0  0
  -21.9100   -4.1210   23.9910 C   0  0  0  0  0  3  0  0  0  0  0  0
  -22.1170   -4.8240   22.7900 C   0  0  0  0  0  0  0  0  0  0  0  0
  -22.6100   -4.1730   21.7080 F   0  0  0  0  0  0  0  0  0  0  0  0
  -21.1740   -4.1060   26.2620 F   0  0  0  0  0  0  0  0  0  0  0  0
  -23.0930  -13.4610   21.1280 C   0  0  0  0  0  0  0  0  0  0  0  0
  -22.4230  -12.7770   22.0500 N   0  0  0  0  0  0  0  0  0  0  0  0
  -22.6300  -14.4860   20.6340 O   0  0  0  0  0  0  0  0  0  0  0  0
  -22.8100  -11.9460   22.4690 H   0  0  0  0  0  0  0  0  0  0  0  0
  -21.5060  -13.0900   22.3390 H   0  0  0  0  0  0  0  0  0  0  0  0
  -25.6800  -15.0970   20.1280 N   0  0  0  0  0  0  0  0  0  0  0  0
  -24.9180  -15.7530   20.2620 H   0  0  0  0  0  0  0  0  0  0  0  0
  -26.4930  -15.5170   19.6970 H   0  0  0  0  0  0  0  0  0  0  0  0
  -28.8340  -24.7990   21.0310 C   0  0  0  0  0  3  0  0  0  0  0  0
  -27.1140  -23.5910   19.6440 C   0  0  0  0  0  1  0  0  0  0  0  0
  -27.4020  -24.5970   20.6890 N   0  0  0  0  0  4  0  0  0  0  0  0
  -26.8360  -24.4230   21.5070 H   0  0  0  0  0  0  0  0  0  0  0  0
  -27.0910  -25.4810   20.3090 H   0  0  0  0  0  0  0  0  0  0  0  0
  -29.0730  -26.3410   21.0860 C   0  0  0  0  0  2  0  0  0  0  0  0
  -28.6140  -26.9790   19.8800 O   0  0  0  0  0  0  0  0  0  0  0  0
  -24.5630  -31.8680   23.1820 C   0  0  0  0  0  0  0  0  0  0  0  0
  -27.4330  -27.6860   19.9520 C   0  0  0  0  0  0  0  0  0  0  0  0
  -23.4300  -30.4820   21.4710 C   0  0  0  0  0  3  0  0  0  0  0  0
  -24.9680  -29.0720   19.9990 C   0  0  0  0  0  0  0  0  0  0  0  0
  -25.9370  -30.9630   21.3130 C   0  0  0  0  0  2  0  0  0  0  0  0
  -26.0950  -29.6220   20.6260 C   0  0  0  0  0  0  0  0  0  0  0  0
  -27.3310  -28.9350   20.6090 C   0  0  0  0  0  3  0  0  0  0  0  0
  -26.2990  -27.1580   19.3010 C   0  0  0  0  0  3  0  0  0  0  0  0
  -25.0640  -27.8360   19.3350 C   0  0  0  0  0  3  0  0  0  0  0  0
  -23.6830  -29.8700   20.0660 C   0  0  0  0  0  2  0  0  0  0  0  0
  -24.6600  -31.1170   22.0470 N   0  0  0  0  0  0  0  0  0  0  0  0
  -23.4670  -32.0670   23.7240 O   0  0  0  0  0  0  0  0  0  0  0  0
  -22.8230  -29.3920   22.3850 C   0  0  0  0  0  0  0  0  0  0  0  0
  -21.5070  -29.1570   22.2430 N   0  0  0  0  0  0  0  0  0  0  0  0
  -23.5310  -28.7630   23.1750 O   0  0  0  0  0  0  0  0  0  0  0  0
  -20.9950  -29.7230   21.5830 H   0  0  0  0  0  0  0  0  0  0  0  0
  -18.1870  -27.7940   22.6710 C   0  0  0  0  0  0  0  0  0  0  0  0
  -20.7300  -28.1510   22.9690 C   0  0  0  0  0  3  0  0  0  0  0  0
  -20.8970  -26.7520   22.3310 C   0  0  0  0  0  2  0  0  0  0  0  0
  -19.8130  -26.4240   21.2990 C   0  0  0  0  0  2  0  0  0  0  0  0
  -18.4240  -26.4830   21.9390 C   0  0  0  0  0  2  0  0  0  0  0  0
  -19.2700  -28.5850   23.1380 C   0  0  0  0  0  0  0  0  0  0  0  0
  -18.9930  -29.8120   23.7790 C   0  0  0  0  0  3  0  0  0  0  0  0
  -17.6670  -30.2480   23.9600 C   0  0  0  0  0  3  0  0  0  0  0  0
  -16.5990  -29.4530   23.5090 C   0  0  0  0  0  3  0  0  0  0  0  0
  -16.8600  -28.2290   22.8680 C   0  0  0  0  0  3  0  0  0  0  0  0
  -25.8170  -32.5280   23.8350 C   0  0  0  0  0  3  0  0  0  0  0  0
  -25.4640  -33.9140   24.1700 N   0  0  0  0  0  0  0  0  0  0  0  0
  -25.7740  -34.9790   23.4180 C   0  0  0  0  0  0  0  0  0  0  0  0
  -26.4590  -34.9010   22.3930 O   0  0  0  0  0  0  0  0  0  0  0  0
  -24.8610  -34.0470   24.9680 H   0  0  0  0  0  0  0  0  0  0  0  0
  -23.9950  -36.7160   23.0520 C   0  0  0  0  0  1  0  0  0  0  0  0
  -25.2390  -36.3480   23.8770 C   0  0  0  0  0  3  0  0  0  0  0  0
  -27.3360  -37.2930   24.7360 C   0  0  0  0  0  1  0  0  0  0  0  0
  -26.2400  -37.4330   23.7800 N   0  0  0  0  0  0  0  0  0  0  0  0
  -25.8030  -38.3390   23.9280 H   0  0  0  0  0  0  0  0  0  0  0  0
  -26.3330  -31.7600   25.1140 C   0  0  1  0  0  0  0  0  0  0  0  0
  -25.2260  -31.4630   26.1510 C   0  0  0  0  0  1  0  0  0  0  0  0
  -26.9850  -30.4140   24.7170 C   0  0  0  0  0  1  0  0  0  0  0  0
  -27.4340  -32.5920   25.8140 C   0  0  0  0  0  1  0  0  0  0  0  0
  1  3  1  0
  2  1  1  0
  4 55  1  0
  4  5  1  0
  4  2  1  0
  5  6  1  0
  5  3  1  0
  6  9  1  0
  6  7  1  0
  8  6  1  0
 10 12  1  0
 11 12  2  0
 12  9  1  0
 13 10  2  0
 14 11  1  0
 15 13  1  0
 16 13  1  0
 16 14  2  0
 17 23  1  0
 17 25  1  0
 18 23  1  0
 19 20  1  0
 19 18  1  0
 21 20  1  0
 21 30  1  0
 21 22  1  0
 23 22  1  0
 24 17  2  0
 25 14  1  0
 25 26  1  0
 27 28  2  0
 28 47  1  0
 29 28  1  0
 29 32  1  0
 30 31  1  0
 30 27  1  0
 31 29  2  0
 32 33  1  0
 33 34  2  0
 35 38  1  0
 35 34  1  0
 36 35  2  0
 37 36  1  0
 37 32  2  0
 38 39  1  0
 39 44  2  0
 39 40  1  0
 40 41  2  0
 41 42  1  0
 42 46  1  0
 43 42  2  0
 44 43  1  0
 45 44  1  0
 47 48  1  0
 48 51  1  0
 48 50  1  0
 49 47  2  0
 52 53  1  0
 52 27  1  0
 54 52  1  0
 55 60  1  0
 56 57  1  0
 57 55  1  0
 57 58  1  0
 59 57  1  0
 61 63  1  0
 61 60  1  0
 62 73  2  0
 63 68  1  0
 64 72  1  0
 64 74  1  0
 65 71  1  0
 65 67  1  0
 66 72  1  0
 67 66  1  0
 68 67  2  0
 69 70  1  0
 69 63  2  0
 70 65  2  0
 71 64  1  0
 72 62  1  0
 74 76  2  0
 75 74  1  0
 77 75  1  0
 78 87  2  0
 78 83  1  0
 79 75  1  0
 79 83  1  0
 80 79  1  0
 81 82  1  0
 81 80  1  0
 82 78  1  0
 83 84  2  0
 84 85  1  0
 86 85  2  0
 87 86  1  0
 88 62  1  0
 88 89  1  0
 88 98  1  0
 89 92  1  0
 90 94  1  0
 90 89  1  0
 91 90  2  0
 94 93  1  0
 96 94  1  0
 96 97  1  0
 96 95  1  0
 98101  1  1
 98 99  1  0
100 98  1  0
M  ISO  4  17 100  25 100  60 101  61 101
M  END
>  <TORSDO>  (5) 
F 22

>  <SCORE>  (5) 
-10.437

>  <name>  (5) 
4

>  <ligand_id>  (5) 
4

>  <original_smiles>  (5) 
[H]c1c([H])c([H])c2c(c1[H])C([H])([H])C([H])([H])C([H])([H])C2([H])N([H])C(=O)C1([H])N(C(=O)C([H])(N([H])C(=O)C([H])(N([H])C([H])([H])[H])C([H])([H])[H])C(C([H])([H])[H])(C([H])([H])[H])C([H])([H])[H])C([H])([H])c2c([H])c(OC([H])([H])C([H])(C3([H])C([H])([H])C([H])([H])C([H])([H])C3([H])[N+]([H])([H])C([H])([H])c3c([H])c(N([H])C(=O)N4C([H])([H])C([H])([H])C([H])([H])C([H])(n5nc(-c6c([H])c([H])c(Oc7c([H])c([H])c(F)c([H])c7F)c([H])c6[H])c(C(=O)N([H])[H])c5N([H])[H])C4([H])[H])nc(C([H])([H])[H])c3[H])[N+]([H])([H])C([H])([H])[H])c([H])c([H])c2C1([H])[H]

>  <smiles>  (5) 
[H]c1c([H])c([H])c2c(c1[H])C([H])([H])C([H])([H])C([H])([H])C2([H])N([H])C(=O)C1([H])N(C(=O)C([H])(N([H])C(=O)C([H])(N([H])C([H])([H])[H])C([H])([H])[H])C(C([H])([H])[H])(C([H])([H])[H])C([H])([H])[H])C([H])([H])c2c([H])c(OC([H])([H])C([H])(C3([H])C([H])([H])C([H])([H])C([H])([H])C3([H])[N+]([H])([H])C([H])([H])c3c([H])c(N([H])C(=O)N4C([H])([H])C([H])([H])C([H])([H])C([H])(n5nc(-c6c([H])c([H])c(Oc7c([H])c([H])c(F)c([H])c7F)c([H])c6[H])c(C(=O)N([H])[H])c5N([H])[H])C4([H])[H])nc(C([H])([H])[H])c3[H])[N+]([H])([H])C([H])([H])[H])c([H])c([H])c2C1([H])[H]

$$$$
5:0:0
     RDKit          3D

 95103  0  0  1  0  0  0  0  0999 V2000
  -26.8240  -24.0830   21.3380 C   0  0  0  0  0  3  0  0  0  0  0  0
  -27.2530  -25.4000   21.5250 C   0  0  0  0  0  3  0  0  0  0  0  0
  -27.6720  -23.1660   20.6900 C   0  0  0  0  0  3  0  0  0  0  0  0
  -28.9990  -23.5810   20.3980 C   0  0  0  0  0  3  0  0  0  0  0  0
  -28.4920  -25.8090   20.9950 C   0  0  0  0  0  0  0  0  0  0  0  0
  -29.3900  -24.8910   20.5280 N   0  0  0  0  0  0  0  0  0  0  0  0
  -26.4940  -22.0490   18.7920 C   0  0  0  0  0  1  0  0  0  0  0  0
  -26.0560  -21.1860   21.1300 C   0  0  0  0  0  1  0  0  0  0  0  0
  -27.0860  -21.8350   20.1900 C   0  0  0  0  0  3  0  0  0  0  0  0
  -28.7940  -27.1700   20.8350 O   0  0  0  0  0  0  0  0  0  0  0  0
  -24.8150  -32.3240   23.7880 C   0  0  0  0  0  0  0  0  0  0  0  0
  -27.7090  -28.0280   20.6970 C   0  0  0  0  0  0  0  0  0  0  0  0
  -23.7360  -30.9670   22.0300 C   0  0  0  0  0  3  0  0  0  0  0  0
  -25.3050  -29.5310   20.6090 C   0  0  0  0  0  0  0  0  0  0  0  0
  -26.2660  -31.3700   21.9990 C   0  0  0  0  0  2  0  0  0  0  0  0
  -26.4160  -30.0300   21.3030 C   0  0  0  0  0  0  0  0  0  0  0  0
  -27.6200  -29.2790   21.3610 C   0  0  0  0  0  3  0  0  0  0  0  0
  -26.5960  -27.5890   19.9430 C   0  0  0  0  0  3  0  0  0  0  0  0
  -25.3930  -28.3120   19.9230 C   0  0  0  0  0  3  0  0  0  0  0  0
  -24.0350  -30.3530   20.6350 C   0  0  0  0  0  2  0  0  0  0  0  0
  -24.9540  -31.5660   22.6650 N   0  0  0  0  0  0  0  0  0  0  0  0
  -23.7000  -32.5590   24.2740 O   0  0  0  0  0  0  0  0  0  0  0  0
  -23.0500  -29.8930   22.9080 C   0  0  0  0  0  0  0  0  0  0  0  0
  -21.7480  -29.6680   22.6720 N   0  0  0  0  0  0  0  0  0  0  0  0
  -23.6900  -29.2680   23.7560 O   0  0  0  0  0  0  0  0  0  0  0  0
  -21.2910  -30.2270   21.9640 H   0  0  0  0  0  0  0  0  0  0  0  0
  -18.3840  -28.3640   22.9010 C   0  0  0  0  0  0  0  0  0  0  0  0
  -20.9080  -28.6830   23.3550 C   0  0  0  0  0  3  0  0  0  0  0  0
  -21.0940  -27.2760   22.7400 C   0  0  0  0  0  2  0  0  0  0  0  0
  -20.0700  -26.9590   21.6440 C   0  0  0  0  0  2  0  0  0  0  0  0
  -18.6440  -27.0450   22.1940 C   0  0  0  0  0  2  0  0  0  0  0  0
  -19.4470  -29.1410   23.4330 C   0  0  0  0  0  0  0  0  0  0  0  0
  -19.1500  -30.3760   24.0480 C   0  0  0  0  0  3  0  0  0  0  0  0
  -17.8220  -30.8340   24.1400 C   0  0  0  0  0  3  0  0  0  0  0  0
  -16.7720  -30.0510   23.6290 C   0  0  0  0  0  3  0  0  0  0  0  0
  -17.0540  -28.8200   23.0150 C   0  0  0  0  0  3  0  0  0  0  0  0
  -26.0500  -32.9540   24.5040 C   0  0  0  0  0  3  0  0  0  0  0  0
  -25.7530  -34.3750   24.7350 N   0  0  0  0  0  0  0  0  0  0  0  0
  -26.1860  -35.3760   23.9580 C   0  0  0  0  0  0  0  0  0  0  0  0
  -26.9490  -35.2030   23.0030 O   0  0  0  0  0  0  0  0  0  0  0  0
  -25.0920  -34.5870   25.4680 H   0  0  0  0  0  0  0  0  0  0  0  0
  -24.5520  -37.1870   23.3430 C   0  0  0  0  0  1  0  0  0  0  0  0
  -25.6940  -36.7970   24.2950 C   0  0  0  0  0  3  0  0  0  0  0  0
  -27.7640  -37.6680   25.2890 C   0  0  0  0  0  1  0  0  0  0  0  0
  -26.7630  -37.8190   24.2370 N   0  0  0  0  0  0  0  0  0  0  0  0
  -26.3670  -38.7540   24.3070 H   0  0  0  0  0  0  0  0  0  0  0  0
  -26.4130  -32.2340   25.8600 C   0  0  1  0  0  0  0  0  0  0  0  0
  -25.2010  -32.0390   26.8010 C   0  0  0  0  0  1  0  0  0  0  0  0
  -27.0290  -30.8410   25.5890 C   0  0  0  0  0  1  0  0  0  0  0  0
  -27.4920  -33.0500   26.6090 C   0  0  0  0  0  1  0  0  0  0  0  0
  -30.0280  -22.5600   19.8690 C   0  0  0  0  0  2  0  0  0  0  0  0
  -30.4740  -21.5020   20.9320 C   0  0  0  0  0  2  0  0  0  0  0  0
  -30.9990  -20.2170   20.3750 N   0  0  0  0  0  4  0  0  0  0  0  0
  -31.9580  -20.1510   20.6760 H   0  0  0  0  0  0  0  0  0  0  0  0
  -31.0170  -20.2670   19.3690 H   0  0  0  0  0  0  0  0  0  0  0  0
  -30.3220  -18.9470   20.7930 C   0  0  0  0  0  2  0  0  0  0  0  0
  -31.2520  -17.7080   20.5920 C   0  0  0  0  0  2  0  0  0  0  0  0
  -31.4370  -15.2430   20.7050 C   0  0  0  0  0  0  0  0  0  0  0  0
  -31.2100  -12.9990   19.7240 C   0  0  0  0  0  2  0  0  0  0  0  0
  -30.3700  -13.1040   18.4330 C   0  0  0  0  0  2  0  0  0  0  0  0
  -28.8630  -12.9980   18.7470 C   0  0  0  0  0  2  0  0  0  0  0  0
  -28.4280  -13.9200   19.9180 C   0  0  0  0  0  3  0  0  0  0  0  0
  -29.3950  -13.8100   21.1180 C   0  0  0  0  0  2  0  0  0  0  0  0
  -30.7570  -14.0670   20.6300 N   0  0  0  0  0  0  0  0  0  0  0  0
  -32.6240  -15.3410   20.3800 O   0  0  0  0  0  0  0  0  0  0  0  0
  -30.7100  -16.3660   20.9170 N   0  0  0  0  0  0  0  0  0  0  0  0
  -29.7280  -16.2680   21.1320 H   0  0  0  0  0  0  0  0  0  0  0  0
  -26.0170  -14.5670   20.5130 C   0  0  0  0  0  0  0  0  0  0  0  0
  -24.9100  -13.8130   20.8070 C   0  0  0  0  0  0  0  0  0  0  0  0
  -25.3400  -12.4520   20.7700 C   0  0  0  0  0  0  0  0  0  0  0  0
  -27.0480  -13.6630   20.3160 N   0  0  0  0  0  0  0  0  0  0  0  0
  -26.6430  -12.3840   20.5300 N   0  0  0  0  0  0  0  0  0  0  0  0
  -24.5710  -11.2050   20.8880 C   0  0  0  0  0  0  0  0  0  0  0  0
  -24.8780  -10.2390   21.8720 C   0  0  0  0  0  3  0  0  0  0  0  0
  -24.1150   -9.0570   21.9770 C   0  0  0  0  0  3  0  0  0  0  0  0
  -23.0290   -8.8340   21.0970 C   0  0  0  0  0  0  0  0  0  0  0  0
  -22.7420   -9.7860   20.1040 C   0  0  0  0  0  3  0  0  0  0  0  0
  -23.5080  -10.9600   19.9970 C   0  0  0  0  0  3  0  0  0  0  0  0
  -22.2460   -7.7050   21.1120 O   0  0  0  0  0  0  0  0  0  0  0  0
  -21.9770   -7.0280   22.2750 C   0  0  0  0  0  0  0  0  0  0  0  0
  -21.3500   -7.6540   23.3740 C   0  0  0  0  0  3  0  0  0  0  0  0
  -21.0320   -6.9050   24.5240 C   0  0  0  0  0  3  0  0  0  0  0  0
  -21.3280   -5.5290   24.5730 C   0  0  0  0  0  0  0  0  0  0  0  0
  -21.9460   -4.9020   23.4770 C   0  0  0  0  0  3  0  0  0  0  0  0
  -22.2650   -5.6500   22.3290 C   0  0  0  0  0  0  0  0  0  0  0  0
  -22.8430   -5.0360   21.2680 F   0  0  0  0  0  0  0  0  0  0  0  0
  -21.0140   -4.8070   25.6720 F   0  0  0  0  0  0  0  0  0  0  0  0
  -23.5130  -14.3190   21.0160 C   0  0  0  0  0  0  0  0  0  0  0  0
  -22.7260  -13.6270   21.8350 N   0  0  0  0  0  0  0  0  0  0  0  0
  -23.1250  -15.3620   20.4900 O   0  0  0  0  0  0  0  0  0  0  0  0
  -23.0520  -12.7830   22.2810 H   0  0  0  0  0  0  0  0  0  0  0  0
  -21.7850  -13.9430   22.0170 H   0  0  0  0  0  0  0  0  0  0  0  0
  -26.2280  -15.9350   20.3710 N   0  0  0  0  0  0  0  0  0  0  0  0
  -25.4770  -16.6130   20.4310 H   0  0  0  0  0  0  0  0  0  0  0  0
  -27.0970  -16.3390   20.0470 H   0  0  0  0  0  0  0  0  0  0  0  0
  1  2  2  0
  3  9  1  0
  3  1  1  0
  4 51  1  0
  4  6  1  0
  4  3  1  0
  5  2  1  0
  6  5  2  0
  7  9  1  0
  9  8  1  0
 10  5  1  0
 11 22  2  0
 12 10  1  0
 12 17  1  0
 13 21  1  0
 13 23  1  0
 14 20  1  0
 14 16  1  0
 15 21  1  0
 16 17  2  0
 16 15  1  0
 18 12  2  0
 19 18  1  0
 19 14  2  0
 20 13  1  0
 21 11  1  0
 23 25  2  0
 24 23  1  0
 26 24  1  0
 27 36  2  0
 27 32  1  0
 28 24  1  0
 28 32  1  0
 29 28  1  0
 30 31  1  0
 30 29  1  0
 31 27  1  0
 32 33  2  0
 33 34  1  0
 35 34  2  0
 36 35  1  0
 37 11  1  0
 37 38  1  0
 37 47  1  0
 38 41  1  0
 39 43  1  0
 39 38  1  0
 40 39  2  0
 43 42  1  0
 45 43  1  0
 45 46  1  0
 45 44  1  0
 47 50  1  1
 47 48  1  0
 49 47  1  0
 51 52  1  0
 53 54  1  0
 53 56  1  0
 53 52  1  0
 55 53  1  0
 57 56  1  0
 57 66  1  0
 58 66  1  0
 59 64  1  0
 60 61  1  0
 60 59  1  0
 62 61  1  0
 62 71  1  0
 62 63  1  0
 64 58  1  0
 64 63  1  0
 65 58  2  0
 66 67  1  0
 68 69  2  0
 69 88  1  0
 70 69  1  0
 70 73  1  0
 71 68  1  0
 71 72  1  0
 72 70  2  0
 73 74  1  0
 74 75  2  0
 76 79  1  0
 76 75  1  0
 77 76  2  0
 78 77  1  0
 78 73  2  0
 79 80  1  0
 80 85  2  0
 80 81  1  0
 81 82  2  0
 82 83  1  0
 83 87  1  0
 84 83  2  0
 85 84  1  0
 86 85  1  0
 88 89  1  0
 89 92  1  0
 89 91  1  0
 90 88  2  0
 93 94  1  0
 93 68  1  0
 95 93  1  0
M  ISO  4   5 101  10 101  58 100  66 100
M  END
>  <TORSDO>  (6) 
F 22

>  <SCORE>  (6) 
-7.516

>  <name>  (6) 
5

>  <ligand_id>  (6) 
5

>  <original_smiles>  (6) 
[H]c1c(Oc2c([H])c([H])c3c(c2[H])C([H])([H])N(C(=O)C([H])(N([H])C(=O)C([H])(N([H])C([H])([H])[H])C([H])([H])[H])C(C([H])([H])[H])(C([H])([H])[H])C([H])([H])[H])C([H])(C(=O)N([H])C2([H])c4c([H])c([H])c([H])c([H])c4C([H])([H])C([H])([H])C2([H])[H])C3([H])[H])nc(C([H])([H])C([H])([H])[N+]([H])([H])C([H])([H])C([H])([H])N([H])C(=O)N2C([H])([H])C([H])([H])C([H])([H])C([H])(n3nc(-c4c([H])c([H])c(Oc5c([H])c([H])c(F)c([H])c5F)c([H])c4[H])c(C(=O)N([H])[H])c3N([H])[H])C2([H])[H])c(C([H])(C([H])([H])[H])C([H])([H])[H])c1[H]

>  <smiles>  (6) 
[H]c1c(Oc2c([H])c([H])c3c(c2[H])C([H])([H])N(C(=O)C([H])(N([H])C(=O)C([H])(N([H])C([H])([H])[H])C([H])([H])[H])C(C([H])([H])[H])(C([H])([H])[H])C([H])([H])[H])C([H])(C(=O)N([H])C2([H])c4c([H])c([H])c([H])c([H])c4C([H])([H])C([H])([H])C2([H])[H])C3([H])[H])nc(C([H])([H])C([H])([H])[N+]([H])([H])C([H])([H])C([H])([H])N([H])C(=O)N2C([H])([H])C([H])([H])C([H])([H])C([H])(n3nc(-c4c([H])c([H])c(Oc5c([H])c([H])c(F)c([H])c5F)c([H])c4[H])c(C(=O)N([H])[H])c3N([H])[H])C2([H])[H])c(C([H])(C([H])([H])[H])C([H])([H])[H])c1[H]

$$$$
6:0:0
     RDKit          3D

 92101  0  0  1  0  0  0  0  0999 V2000
  -30.8620  -19.9640   20.8490 C   0  0  0  0  0  3  0  0  0  0  0  0
  -30.9470  -18.5100   20.7760 C   0  0  0  0  0  3  0  0  0  0  0  0
  -28.5790  -19.8780   20.3070 C   0  0  0  0  0  3  0  0  0  0  0  0
  -29.6600  -20.7240   20.6350 C   0  0  0  0  0  0  0  0  0  0  0  0
  -28.6310  -18.4310   20.2470 C   0  0  0  0  0  0  0  0  0  0  0  0
  -29.8270  -17.6520   20.5030 C   0  0  0  0  0  0  0  0  0  0  0  0
  -30.6540  -15.0100   20.3800 C   0  0  0  0  0  0  0  0  0  0  0  0
  -30.5550  -12.6750   19.4010 C   0  0  0  0  0  2  0  0  0  0  0  0
  -29.6180  -12.6690   18.1700 C   0  0  0  0  0  2  0  0  0  0  0  0
  -28.1510  -12.4600   18.5940 C   0  0  0  0  0  2  0  0  0  0  0  0
  -27.7480  -13.3570   19.7930 C   0  0  0  0  0  3  0  0  0  0  0  0
  -28.8040  -13.3290   20.9190 C   0  0  0  0  0  2  0  0  0  0  0  0
  -30.0840  -13.7420   20.3240 N   0  0  0  0  0  0  0  0  0  0  0  0
  -31.8520  -15.1220   20.0950 O   0  0  0  0  0  0  0  0  0  0  0  0
  -29.7920  -16.1200   20.5490 N   0  0  0  0  0  0  0  0  0  0  0  0
  -28.8560  -15.7760   20.6930 H   0  0  0  0  0  0  0  0  0  0  0  0
  -25.3670  -13.9210   20.5460 C   0  0  0  0  0  0  0  0  0  0  0  0
  -24.2970  -13.1600   20.9040 C   0  0  0  0  0  0  0  0  0  0  0  0
  -24.7500  -11.8090   20.8330 C   0  0  0  0  0  0  0  0  0  0  0  0
  -26.4070  -13.0500   20.2810 N   0  0  0  0  0  0  0  0  0  0  0  0
  -26.0420  -11.7650   20.5170 N   0  0  0  0  0  0  0  0  0  0  0  0
  -24.0070  -10.5570   20.9830 C   0  0  0  0  0  0  0  0  0  0  0  0
  -24.3710   -9.6000   21.9540 C   0  0  0  0  0  3  0  0  0  0  0  0
  -23.6270   -8.4090   22.0920 C   0  0  0  0  0  3  0  0  0  0  0  0
  -22.5090   -8.1700   21.2590 C   0  0  0  0  0  0  0  0  0  0  0  0
  -22.1650   -9.1180   20.2790 C   0  0  0  0  0  3  0  0  0  0  0  0
  -22.9090  -10.3010   20.1380 C   0  0  0  0  0  3  0  0  0  0  0  0
  -21.7440   -7.0310   21.3070 O   0  0  0  0  0  0  0  0  0  0  0  0
  -21.5380   -6.3530   22.4810 C   0  0  0  0  0  0  0  0  0  0  0  0
  -20.8650   -6.9420   23.5730 C   0  0  0  0  0  3  0  0  0  0  0  0
  -20.6140   -6.1870   24.7370 C   0  0  0  0  0  3  0  0  0  0  0  0
  -21.0280   -4.8430   24.8060 C   0  0  0  0  0  0  0  0  0  0  0  0
  -21.6940   -4.2540   23.7180 C   0  0  0  0  0  3  0  0  0  0  0  0
  -21.9460   -5.0060   22.5580 C   0  0  0  0  0  0  0  0  0  0  0  0
  -22.5710   -4.4280   21.5040 F   0  0  0  0  0  0  0  0  0  0  0  0
  -20.7790   -4.1150   25.9190 F   0  0  0  0  0  0  0  0  0  0  0  0
  -22.9080  -13.6550   21.1870 C   0  0  0  0  0  0  0  0  0  0  0  0
  -22.1670  -12.9480   22.0320 N   0  0  0  0  0  0  0  0  0  0  0  0
  -22.4910  -14.7050   20.6990 O   0  0  0  0  0  0  0  0  0  0  0  0
  -22.5180  -12.0980   22.4480 H   0  0  0  0  0  0  0  0  0  0  0  0
  -21.2350  -13.2590   22.2650 H   0  0  0  0  0  0  0  0  0  0  0  0
  -25.5240  -15.2790   20.3860 N   0  0  0  0  0  0  0  0  0  0  0  0
  -24.7190  -15.8910   20.4320 H   0  0  0  0  0  0  0  0  0  0  0  0
  -26.2970  -15.6830   19.8790 H   0  0  0  0  0  0  0  0  0  0  0  0
  -27.3130  -17.7190   19.9590 C   0  0  0  0  0  2  0  0  0  0  0  0
  -24.9090  -18.4350   19.0270 C   0  0  0  0  0  2  0  0  0  0  0  0
  -25.7210  -19.6900   19.1130 C   0  0  0  0  0  2  0  0  0  0  0  0
  -26.4220  -18.3600   18.8860 C   0  0  0  0  0  3  0  0  0  0  0  0
  -29.4260  -22.2930   21.0260 C   0  0  0  0  0  2  0  0  0  0  0  0
  -29.0410  -23.5860   20.0640 C   0  0  0  0  0  2  0  0  0  0  0  0
  -28.3410  -24.9580   20.6950 C   0  0  0  0  0  2  0  0  0  0  0  0
  -28.4480  -26.3920   20.1750 O   0  0  0  0  0  0  0  0  0  0  0  0
  -24.5400  -31.8430   23.1510 C   0  0  0  0  0  0  0  0  0  0  0  0
  -27.3290  -27.2790   20.1580 C   0  0  0  0  0  0  0  0  0  0  0  0
  -23.4310  -30.4730   21.4210 C   0  0  0  0  0  3  0  0  0  0  0  0
  -24.9630  -28.9380   20.0450 C   0  0  0  0  0  0  0  0  0  0  0  0
  -25.9800  -30.7840   21.3800 C   0  0  0  0  0  2  0  0  0  0  0  0
  -26.1020  -29.4090   20.7120 C   0  0  0  0  0  0  0  0  0  0  0  0
  -27.2890  -28.5960   20.7470 C   0  0  0  0  0  3  0  0  0  0  0  0
  -26.1630  -26.8810   19.4710 C   0  0  0  0  0  3  0  0  0  0  0  0
  -25.0020  -27.6850   19.4110 C   0  0  0  0  0  3  0  0  0  0  0  0
  -23.7240  -29.8190   20.0430 C   0  0  0  0  0  2  0  0  0  0  0  0
  -24.6660  -31.0530   22.0410 N   0  0  0  0  0  0  0  0  0  0  0  0
  -23.4280  -32.1070   23.6320 O   0  0  0  0  0  0  0  0  0  0  0  0
  -22.7140  -29.4440   22.3290 C   0  0  0  0  0  0  0  0  0  0  0  0
  -21.3780  -29.3480   22.2080 N   0  0  0  0  0  0  0  0  0  0  0  0
  -23.3620  -28.7340   23.1020 O   0  0  0  0  0  0  0  0  0  0  0  0
  -20.9170  -29.9710   21.5610 H   0  0  0  0  0  0  0  0  0  0  0  0
  -17.9350  -28.3780   22.7710 C   0  0  0  0  0  0  0  0  0  0  0  0
  -20.5170  -28.4070   22.9280 C   0  0  0  0  0  3  0  0  0  0  0  0
  -20.4720  -27.0360   22.2150 C   0  0  0  0  0  2  0  0  0  0  0  0
  -19.3030  -26.9050   21.2340 C   0  0  0  0  0  2  0  0  0  0  0  0
  -17.9680  -27.0940   21.9600 C   0  0  0  0  0  2  0  0  0  0  0  0
  -19.1330  -29.0030   23.2120 C   0  0  0  0  0  0  0  0  0  0  0  0
  -19.0470  -30.2120   23.9350 C   0  0  0  0  0  3  0  0  0  0  0  0
  -17.7970  -30.7950   24.2180 C   0  0  0  0  0  3  0  0  0  0  0  0
  -16.6150  -30.1650   23.7910 C   0  0  0  0  0  3  0  0  0  0  0  0
  -16.6860  -28.9570   23.0740 C   0  0  0  0  0  3  0  0  0  0  0  0
  -25.7830  -32.4680   23.8540 C   0  0  0  0  0  3  0  0  0  0  0  0
  -25.4640  -33.8700   24.1630 N   0  0  0  0  0  0  0  0  0  0  0  0
  -25.8300  -34.9200   23.4150 C   0  0  0  0  0  0  0  0  0  0  0  0
  -26.5370  -34.8080   22.4110 O   0  0  0  0  0  0  0  0  0  0  0  0
  -24.8390  -34.0300   24.9400 H   0  0  0  0  0  0  0  0  0  0  0  0
  -24.1250  -36.7210   22.9890 C   0  0  0  0  0  1  0  0  0  0  0  0
  -25.3320  -36.3130   23.8480 C   0  0  0  0  0  3  0  0  0  0  0  0
  -27.4260  -37.2070   24.7700 C   0  0  0  0  0  1  0  0  0  0  0  0
  -26.3740  -37.3600   23.7690 N   0  0  0  0  0  0  0  0  0  0  0  0
  -25.9640  -38.2850   23.8780 H   0  0  0  0  0  0  0  0  0  0  0  0
  -26.2080  -31.6970   25.1640 C   0  0  1  0  0  0  0  0  0  0  0  0
  -25.0510  -31.4970   26.1710 C   0  0  0  0  0  1  0  0  0  0  0  0
  -26.7800  -30.3030   24.8200 C   0  0  0  0  0  1  0  0  0  0  0  0
  -27.3380  -32.4710   25.8840 C   0  0  0  0  0  1  0  0  0  0  0  0
  2  1  1  0
  3  4  1  0
  4  1  2  0
  4 49  1  0
  5  3  2  0
  5  6  1  0
  6 15  1  0
  6  2  2  0
  7 15  1  0
  8 13  1  0
  9 10  1  0
  9  8  1  0
 11 10  1  0
 11 20  1  0
 11 12  1  0
 13  7  1  0
 13 12  1  0
 14  7  2  0
 15 16  1  0
 17 18  2  0
 18 37  1  0
 19 18  1  0
 19 22  1  0
 20 21  1  0
 20 17  1  0
 21 19  2  0
 22 23  1  0
 23 24  2  0
 25 28  1  0
 25 24  1  0
 26 25  2  0
 27 26  1  0
 27 22  2  0
 28 29  1  0
 29 34  2  0
 29 30  1  0
 30 31  2  0
 31 32  1  0
 32 36  1  0
 33 32  2  0
 34 33  1  0
 35 34  1  0
 37 38  1  0
 38 41  1  0
 38 40  1  0
 39 37  2  0
 42 43  1  0
 42 17  1  0
 44 42  1  0
 45  5  1  0
 46 47  1  0
 48 46  1  0
 48 47  1  0
 48 45  1  0
 50 51  1  0
 50 49  1  0
 52 51  1  0
 53 64  2  0
 54 52  1  0
 54 59  1  0
 55 63  1  0
 55 65  1  0
 56 58  1  0
 57 63  1  0
 58 59  2  0
 58 57  1  0
 60 54  2  0
 61 60  1  0
 61 56  2  0
 62 56  1  0
 62 55  1  0
 63 53  1  0
 65 67  2  0
 66 65  1  0
 68 66  1  0
 69 78  2  0
 69 74  1  0
 70 66  1  0
 70 74  1  0
 71 70  1  0
 72 73  1  0
 72 71  1  0
 73 69  1  0
 74 75  2  0
 75 76  1  0
 77 76  2  0
 78 77  1  0
 79 53  1  0
 79 80  1  0
 79 89  1  0
 80 83  1  0
 81 85  1  0
 81 80  1  0
 82 81  2  0
 85 84  1  0
 87 85  1  0
 87 88  1  0
 87 86  1  0
 89 92  1  1
 89 90  1  0
 91 89  1  0
M  ISO  4   7 100  15 100  51 101  52 101
M  END
>  <TORSDO>  (7) 
F 21

>  <SCORE>  (7) 
-12.023

>  <name>  (7) 
6

>  <ligand_id>  (7) 
6

>  <original_smiles>  (7) 
[H]c1c([H])c([H])c2c(c1[H])C([H])([H])C([H])([H])C([H])([H])C2([H])N([H])C(=O)C1([H])N(C(=O)C([H])(N([H])C(=O)C([H])(N([H])C([H])([H])[H])C([H])([H])[H])C(C([H])([H])[H])(C([H])([H])[H])C([H])([H])[H])C([H])([H])c2c([H])c(OC([H])([H])C([H])([H])C([H])([H])c3c([H])c([H])c(N([H])C(=O)N4C([H])([H])C([H])([H])C([H])([H])C([H])(n5nc(-c6c([H])c([H])c(Oc7c([H])c([H])c(F)c([H])c7F)c([H])c6[H])c(C(=O)N([H])[H])c5N([H])[H])C4([H])[H])c(C([H])([H])C4([H])C([H])([H])C4([H])[H])c3[H])c([H])c([H])c2C1([H])[H]

>  <smiles>  (7) 
[H]c1c([H])c([H])c2c(c1[H])C([H])([H])C([H])([H])C([H])([H])C2([H])N([H])C(=O)C1([H])N(C(=O)C([H])(N([H])C(=O)C([H])(N([H])C([H])([H])[H])C([H])([H])[H])C(C([H])([H])[H])(C([H])([H])[H])C([H])([H])[H])C([H])([H])c2c([H])c(OC([H])([H])C([H])([H])C([H])([H])c3c([H])c([H])c(N([H])C(=O)N4C([H])([H])C([H])([H])C([H])([H])C([H])(n5nc(-c6c([H])c([H])c(Oc7c([H])c([H])c(F)c([H])c7F)c([H])c6[H])c(C(=O)N([H])[H])c5N([H])[H])C4([H])[H])c(C([H])([H])C4([H])C([H])([H])C4([H])[H])c3[H])c([H])c([H])c2C1([H])[H]

$$$$
7:0:0
     RDKit          3D

 94103  0  0  1  0  0  0  0  0999 V2000
  -28.3270  -20.6880   20.6800 C   0  0  0  0  0  2  0  0  0  0  0  0
  -30.5480  -21.5470   20.2420 C   0  0  0  0  0  2  0  0  0  0  0  0
  -27.7100  -22.1050   20.6430 C   0  0  0  0  0  2  0  0  0  0  0  0
  -30.0780  -23.0120   20.1560 C   0  0  0  0  0  2  0  0  0  0  0  0
  -29.4850  -20.5990   19.6950 C   0  0  0  0  0  3  0  0  0  0  0  0
  -28.6370  -23.2850   20.4850 N   0  0  1  0  0  4  0  0  0  0  0  0
  -28.6650  -23.7150   21.4000 H   0  0  0  0  0  0  0  0  0  0  0  0
  -31.4430  -17.9160   17.8540 C   0  0  0  0  0  3  0  0  0  0  0  0
  -30.9180  -19.1400   18.2770 C   0  0  0  0  0  3  0  0  0  0  0  0
  -31.1040  -16.7420   18.5450 C   0  0  0  0  0  3  0  0  0  0  0  0
  -29.6940  -18.0210   20.0740 C   0  0  0  0  0  3  0  0  0  0  0  0
  -30.0320  -19.2090   19.3710 C   0  0  0  0  0  0  0  0  0  0  0  0
  -30.2590  -16.7760   19.6880 C   0  0  0  0  0  0  0  0  0  0  0  0
  -30.7070  -14.4690   20.4410 C   0  0  0  0  0  0  0  0  0  0  0  0
  -30.3730  -12.3090   19.3740 C   0  0  0  0  0  2  0  0  0  0  0  0
  -29.4760  -12.6070   18.1540 C   0  0  0  0  0  2  0  0  0  0  0  0
  -27.9880  -12.4880   18.5410 C   0  0  0  0  0  2  0  0  0  0  0  0
  -27.6370  -13.2890   19.8260 C   0  0  0  0  0  3  0  0  0  0  0  0
  -28.6770  -13.0570   20.9490 C   0  0  0  0  0  2  0  0  0  0  0  0
  -30.0150  -13.3030   20.3910 N   0  0  0  0  0  0  0  0  0  0  0  0
  -31.9160  -14.5410   20.2280 O   0  0  0  0  0  0  0  0  0  0  0  0
  -29.9460  -15.5830   20.4220 N   0  0  0  0  0  0  0  0  0  0  0  0
  -29.0000  -15.4830   20.7530 H   0  0  0  0  0  0  0  0  0  0  0  0
  -25.2280  -13.9020   20.4840 C   0  0  0  0  0  0  0  0  0  0  0  0
  -24.1510  -13.1350   20.8410 C   0  0  0  0  0  0  0  0  0  0  0  0
  -24.6100  -11.7830   20.8360 C   0  0  0  0  0  0  0  0  0  0  0  0
  -26.2750  -13.0170   20.2800 N   0  0  0  0  0  0  0  0  0  0  0  0
  -25.9080  -11.7360   20.5490 N   0  0  0  0  0  0  0  0  0  0  0  0
  -23.8780  -10.5230   21.0290 C   0  0  0  0  0  0  0  0  0  0  0  0
  -24.2920   -9.5600   21.9740 C   0  0  0  0  0  3  0  0  0  0  0  0
  -23.5570   -8.3690   22.1560 C   0  0  0  0  0  3  0  0  0  0  0  0
  -22.3930   -8.1310   21.3850 C   0  0  0  0  0  0  0  0  0  0  0  0
  -21.9950   -9.0820   20.4290 C   0  0  0  0  0  3  0  0  0  0  0  0
  -22.7330  -10.2640   20.2470 C   0  0  0  0  0  3  0  0  0  0  0  0
  -21.6300   -6.9950   21.4720 O   0  0  0  0  0  0  0  0  0  0  0  0
  -21.5660   -6.2540   22.6250 C   0  0  0  0  0  0  0  0  0  0  0  0
  -21.1440   -6.8180   23.8490 C   0  0  0  0  0  3  0  0  0  0  0  0
  -21.0310   -6.0080   24.9970 C   0  0  0  0  0  3  0  0  0  0  0  0
  -21.3280   -4.6340   24.9210 C   0  0  0  0  0  0  0  0  0  0  0  0
  -21.7450   -4.0690   23.7030 C   0  0  0  0  0  3  0  0  0  0  0  0
  -21.8640   -4.8780   22.5590 C   0  0  0  0  0  0  0  0  0  0  0  0
  -22.2450   -4.3250   21.3830 F   0  0  0  0  0  0  0  0  0  0  0  0
  -21.2120   -3.8530   26.0190 F   0  0  0  0  0  0  0  0  0  0  0  0
  -22.7510  -13.6200   21.0770 C   0  0  0  0  0  0  0  0  0  0  0  0
  -22.0010  -12.9370   21.9350 N   0  0  0  0  0  0  0  0  0  0  0  0
  -22.3230  -14.6360   20.5320 O   0  0  0  0  0  0  0  0  0  0  0  0
  -22.3520  -12.1110   22.3950 H   0  0  0  0  0  0  0  0  0  0  0  0
  -21.0620  -13.2510   22.1360 H   0  0  0  0  0  0  0  0  0  0  0  0
  -25.3970  -15.2700   20.2990 N   0  0  0  0  0  0  0  0  0  0  0  0
  -24.6260  -15.9230   20.4020 H   0  0  0  0  0  0  0  0  0  0  0  0
  -26.2370  -15.7080   19.9420 H   0  0  0  0  0  0  0  0  0  0  0  0
  -28.0020  -24.2940   19.5690 C   0  0  0  0  0  2  0  0  0  0  0  0
  -28.7300  -25.6540   19.3170 C   0  0  0  0  0  2  0  0  0  0  0  0
  -28.4570  -26.7290   20.2290 O   0  0  0  0  0  0  0  0  0  0  0  0
  -24.6120  -31.9030   23.2390 C   0  0  0  0  0  0  0  0  0  0  0  0
  -27.2760  -27.4470   20.1580 C   0  0  0  0  0  0  0  0  0  0  0  0
  -23.4150  -30.4920   21.5950 C   0  0  0  0  0  3  0  0  0  0  0  0
  -24.8750  -28.9590   20.1680 C   0  0  0  0  0  0  0  0  0  0  0  0
  -25.9420  -30.8430   21.4170 C   0  0  0  0  0  2  0  0  0  0  0  0
  -26.0260  -29.4700   20.7810 C   0  0  0  0  0  0  0  0  0  0  0  0
  -27.2170  -28.7100   20.7950 C   0  0  0  0  0  3  0  0  0  0  0  0
  -26.1160  -26.9740   19.5040 C   0  0  0  0  0  3  0  0  0  0  0  0
  -24.9160  -27.7110   19.5250 C   0  0  0  0  0  3  0  0  0  0  0  0
  -23.6300  -29.8130   20.2150 C   0  0  0  0  0  2  0  0  0  0  0  0
  -24.6740  -31.0970   22.1410 N   0  0  0  0  0  0  0  0  0  0  0  0
  -23.5270  -32.1720   23.7740 O   0  0  0  0  0  0  0  0  0  0  0  0
  -22.7630  -29.4720   22.5560 C   0  0  0  0  0  0  0  0  0  0  0  0
  -21.4380  -29.2930   22.4320 N   0  0  0  0  0  0  0  0  0  0  0  0
  -23.4470  -28.8460   23.3700 O   0  0  0  0  0  0  0  0  0  0  0  0
  -20.9480  -29.8500   21.7460 H   0  0  0  0  0  0  0  0  0  0  0  0
  -18.0610  -28.1110   22.9500 C   0  0  0  0  0  0  0  0  0  0  0  0
  -20.6220  -28.3580   23.2060 C   0  0  0  0  0  3  0  0  0  0  0  0
  -20.7150  -26.9270   22.6260 C   0  0  0  0  0  2  0  0  0  0  0  0
  -19.6050  -26.6140   21.6180 C   0  0  0  0  0  2  0  0  0  0  0  0
  -18.2260  -26.7640   22.2680 C   0  0  0  0  0  2  0  0  0  0  0  0
  -19.1850  -28.8660   23.3770 C   0  0  0  0  0  0  0  0  0  0  0  0
  -18.9760  -30.1290   23.9720 C   0  0  0  0  0  3  0  0  0  0  0  0
  -17.6750  -30.6380   24.1430 C   0  0  0  0  0  3  0  0  0  0  0  0
  -16.5650  -29.8810   23.7300 C   0  0  0  0  0  3  0  0  0  0  0  0
  -16.7580  -28.6180   23.1430 C   0  0  0  0  0  3  0  0  0  0  0  0
  -25.8950  -32.5370   23.8610 C   0  0  0  0  0  3  0  0  0  0  0  0
  -26.4130  -31.7700   25.1380 C   0  0  1  0  0  0  0  0  0  0  0  0
  -25.3230  -31.5320   26.2080 C   0  0  0  0  0  1  0  0  0  0  0  0
  -27.0020  -30.3950   24.7490 C   0  0  0  0  0  1  0  0  0  0  0  0
  -27.5610  -32.5690   25.7980 C   0  0  0  0  0  1  0  0  0  0  0  0
  -25.5790  -33.9340   24.1880 N   0  0  0  0  0  0  0  0  0  0  0  0
  -25.9120  -34.9870   23.4300 C   0  0  0  0  0  0  0  0  0  0  0  0
  -26.5850  -34.8860   22.4000 O   0  0  0  0  0  0  0  0  0  0  0  0
  -24.9750  -34.0870   24.9820 H   0  0  0  0  0  0  0  0  0  0  0  0
  -24.1790  -36.7770   23.0680 C   0  0  0  0  0  1  0  0  0  0  0  0
  -25.4180  -36.3750   23.8840 C   0  0  0  0  0  3  0  0  0  0  0  0
  -27.5500  -37.2650   24.7180 C   0  0  0  0  0  1  0  0  0  0  0  0
  -26.4490  -37.4310   23.7730 N   0  0  0  0  0  0  0  0  0  0  0  0
  -26.0400  -38.3500   23.9230 H   0  0  0  0  0  0  0  0  0  0  0  0
  3  1  1  0
  4  2  1  0
  4  6  1  0
  5 12  1  0
  5  2  1  0
  5  1  1  0
  6  3  1  0
  6  7  1  1
  8  9  2  0
  8 10  1  0
  9 12  1  0
 10 13  2  0
 12 11  2  0
 13 11  1  0
 13 22  1  0
 15 20  1  0
 16 17  1  0
 16 15  1  0
 18 17  1  0
 18 27  1  0
 18 19  1  0
 20 14  1  0
 20 19  1  0
 21 14  2  0
 22 14  1  0
 22 23  1  0
 24 25  2  0
 25 44  1  0
 26 25  1  0
 26 29  1  0
 27 24  1  0
 27 28  1  0
 28 26  2  0
 29 30  1  0
 30 31  2  0
 32 35  1  0
 32 31  1  0
 33 32  2  0
 34 33  1  0
 34 29  2  0
 35 36  1  0
 36 37  1  0
 37 38  2  0
 39 38  1  0
 39 43  1  0
 40 39  2  0
 41 36  2  0
 41 40  1  0
 42 41  1  0
 44 45  1  0
 45 48  1  0
 45 47  1  0
 46 44  2  0
 49 50  1  0
 49 24  1  0
 51 49  1  0
 52  6  1  0
 53 52  1  0
 53 54  1  0
 55 66  2  0
 56 54  1  0
 56 61  1  0
 57 65  1  0
 57 67  1  0
 58 64  1  0
 58 60  1  0
 59 65  1  0
 60 61  2  0
 60 59  1  0
 62 63  1  0
 62 56  2  0
 63 58  2  0
 64 57  1  0
 65 55  1  0
 67 69  2  0
 68 67  1  0
 70 68  1  0
 71 80  2  0
 71 76  1  0
 72 68  1  0
 72 76  1  0
 73 72  1  0
 74 75  1  0
 74 73  1  0
 75 71  1  0
 76 77  2  0
 77 78  1  0
 79 78  2  0
 80 79  1  0
 81 55  1  0
 81 86  1  0
 81 82  1  0
 82 85  1  1
 82 83  1  0
 84 82  1  0
 86 89  1  0
 87 91  1  0
 87 86  1  0
 88 87  2  0
 91 90  1  0
 93 91  1  0
 93 94  1  0
 93 92  1  0
M  ISO  4  14 100  22 100  53 101  54 101
M  END
>  <TORSDO>  (8) 
F 19

>  <SCORE>  (8) 
-14.381

>  <name>  (8) 
7

>  <ligand_id>  (8) 
7

>  <original_smiles>  (8) 
[H]c1c([H])c([H])c2c(c1[H])C([H])([H])C([H])([H])C([H])([H])C2([H])N([H])C(=O)C1([H])N(C(=O)C([H])(N([H])C(=O)C([H])(N([H])C([H])([H])[H])C([H])([H])[H])C(C([H])([H])[H])(C([H])([H])[H])C([H])([H])[H])C([H])([H])c2c([H])c(OC([H])([H])C([H])([H])[N+]3([H])C([H])([H])C([H])([H])C([H])(c4c([H])c([H])c([H])c(N([H])C(=O)N5C([H])([H])C([H])([H])C([H])([H])C([H])(n6nc(-c7c([H])c([H])c(Oc8c([H])c([H])c(F)c([H])c8F)c([H])c7[H])c(C(=O)N([H])[H])c6N([H])[H])C5([H])[H])c4[H])C([H])([H])C3([H])[H])c([H])c([H])c2C1([H])[H]

>  <smiles>  (8) 
[H]c1c([H])c([H])c2c(c1[H])C([H])([H])C([H])([H])C([H])([H])C2([H])N([H])C(=O)C1([H])N(C(=O)C([H])(N([H])C(=O)C([H])(N([H])C([H])([H])[H])C([H])([H])[H])C(C([H])([H])[H])(C([H])([H])[H])C([H])([H])[H])C([H])([H])c2c([H])c(OC([H])([H])C([H])([H])[N+]3([H])C([H])([H])C([H])([H])C([H])(c4c([H])c([H])c([H])c(N([H])C(=O)N5C([H])([H])C([H])([H])C([H])([H])C([H])(n6nc(-c7c([H])c([H])c(Oc8c([H])c([H])c(F)c([H])c8F)c([H])c7[H])c(C(=O)N([H])[H])c6N([H])[H])C5([H])[H])c4[H])C([H])([H])C3([H])[H])c([H])c([H])c2C1([H])[H]

$$$$
8:0:0
     RDKit          3D

 94102  0  0  1  0  0  0  0  0999 V2000
  -28.8220  -21.2410   22.4390 C   0  0  0  0  0  3  0  0  0  0  0  0
  -28.4620  -21.3880   20.0380 C   0  0  0  0  0  3  0  0  0  0  0  0
  -28.8230  -22.6460   22.5290 C   0  0  0  0  0  3  0  0  0  0  0  0
  -28.4830  -22.7950   20.1280 C   0  0  0  0  0  3  0  0  0  0  0  0
  -28.6490  -20.6010   21.1950 C   0  0  0  0  0  0  0  0  0  0  0  0
  -28.6760  -23.4420   21.3670 C   0  0  0  0  0  0  0  0  0  0  0  0
  -28.6870  -19.0820   21.1080 C   0  0  0  0  0  2  0  0  0  0  0  0
  -29.8530  -18.6520   20.3090 N   0  0  0  0  0  4  0  0  0  0  0  0
  -30.3830  -19.4780   20.0950 H   0  0  0  0  0  0  0  0  0  0  0  0
  -29.5110  -18.2740   19.4400 H   0  0  0  0  0  0  0  0  0  0  0  0
  -30.7450  -17.6660   20.9590 C   0  0  0  0  0  2  0  0  0  0  0  0
  -31.5730  -16.9030   19.9080 C   0  0  0  0  0  2  0  0  0  0  0  0
  -32.8380  -14.8280   19.8220 C   0  0  0  0  0  0  0  0  0  0  0  0
  -32.2660  -12.5040   19.2220 C   0  0  0  0  0  2  0  0  0  0  0  0
  -31.3410  -12.4380   17.9920 C   0  0  0  0  0  2  0  0  0  0  0  0
  -29.8640  -12.5540   18.4200 C   0  0  0  0  0  2  0  0  0  0  0  0
  -29.6200  -13.7670   19.3520 C   0  0  0  0  0  3  0  0  0  0  0  0
  -30.6450  -13.7820   20.5100 C   0  0  0  0  0  2  0  0  0  0  0  0
  -32.0000  -13.7630   19.9310 N   0  0  0  0  0  0  0  0  0  0  0  0
  -33.9090  -14.7910   19.2110 O   0  0  0  0  0  0  0  0  0  0  0  0
  -32.4940  -15.9300   20.4990 N   0  0  0  0  0  0  0  0  0  0  0  0
  -33.3190  -16.3920   20.8550 H   0  0  0  0  0  0  0  0  0  0  0  0
  -27.4390  -14.8920   20.1310 C   0  0  0  0  0  0  0  0  0  0  0  0
  -26.2310  -14.3720   20.5080 C   0  0  0  0  0  0  0  0  0  0  0  0
  -26.3700  -12.9520   20.4290 C   0  0  0  0  0  0  0  0  0  0  0  0
  -28.2490  -13.8000   19.8500 N   0  0  0  0  0  0  0  0  0  0  0  0
  -27.6090  -12.6290   20.0870 N   0  0  0  0  0  0  0  0  0  0  0  0
  -25.3820  -11.8800   20.6000 C   0  0  0  0  0  0  0  0  0  0  0  0
  -25.6160  -10.7950   21.4720 C   0  0  0  0  0  3  0  0  0  0  0  0
  -24.6450   -9.7830   21.6320 C   0  0  0  0  0  3  0  0  0  0  0  0
  -23.4250   -9.8530   20.9170 C   0  0  0  0  0  0  0  0  0  0  0  0
  -23.2090  -10.9220   20.0310 C   0  0  0  0  0  3  0  0  0  0  0  0
  -24.1790  -11.9260   19.8700 C   0  0  0  0  0  3  0  0  0  0  0  0
  -22.4360   -8.9020   20.9870 O   0  0  0  0  0  0  0  0  0  0  0  0
  -22.2280   -8.1640   22.1250 C   0  0  0  0  0  0  0  0  0  0  0  0
  -21.9700   -8.7730   23.3730 C   0  0  0  0  0  3  0  0  0  0  0  0
  -21.6920   -7.9770   24.5020 C   0  0  0  0  0  3  0  0  0  0  0  0
  -21.6640   -6.5740   24.3840 C   0  0  0  0  0  0  0  0  0  0  0  0
  -21.9140   -5.9660   23.1410 C   0  0  0  0  0  3  0  0  0  0  0  0
  -22.1920   -6.7590   22.0140 C   0  0  0  0  0  0  0  0  0  0  0  0
  -22.4120   -6.1700   20.8150 F   0  0  0  0  0  0  0  0  0  0  0  0
  -21.3880   -5.8070   25.4650 F   0  0  0  0  0  0  0  0  0  0  0  0
  -24.9810  -15.1420   20.8210 C   0  0  0  0  0  0  0  0  0  0  0  0
  -24.1290  -14.6010   21.6840 N   0  0  0  0  0  0  0  0  0  0  0  0
  -24.7780  -16.2550   20.3340 O   0  0  0  0  0  0  0  0  0  0  0  0
  -24.3070  -13.6970   22.0930 H   0  0  0  0  0  0  0  0  0  0  0  0
  -23.2850  -15.0960   21.9380 H   0  0  0  0  0  0  0  0  0  0  0  0
  -27.9130  -16.1930   19.9770 N   0  0  0  0  0  0  0  0  0  0  0  0
  -27.2090  -16.9230   19.9440 H   0  0  0  0  0  0  0  0  0  0  0  0
  -28.6410  -16.3460   19.2890 H   0  0  0  0  0  0  0  0  0  0  0  0
  -28.6690  -24.8220   21.3500 O   0  0  0  0  0  0  0  0  0  0  0  0
  -29.6350  -25.5520   22.1100 C   0  0  0  0  0  2  0  0  0  0  0  0
  -30.5900  -26.3120   21.1660 C   0  0  0  0  0  2  0  0  0  0  0  0
  -30.3840  -27.7250   21.2330 O   0  0  0  0  0  0  0  0  0  0  0  0
  -25.1890  -31.8750   23.7230 C   0  0  0  0  0  0  0  0  0  0  0  0
  -29.1090  -28.2010   21.0290 C   0  0  0  0  0  0  0  0  0  0  0  0
  -24.5780  -30.4230   21.8160 C   0  0  0  0  0  3  0  0  0  0  0  0
  -26.5190  -29.2590   20.6440 C   0  0  0  0  0  0  0  0  0  0  0  0
  -26.9910  -31.2150   22.1330 C   0  0  0  0  0  2  0  0  0  0  0  0
  -27.4350  -29.9320   21.4640 C   0  0  0  0  0  0  0  0  0  0  0  0
  -28.7320  -29.4100   21.6500 C   0  0  0  0  0  3  0  0  0  0  0  0
  -28.1730  -27.5340   20.2060 C   0  0  0  0  0  3  0  0  0  0  0  0
  -26.8830  -28.0580   20.0120 C   0  0  0  0  0  3  0  0  0  0  0  0
  -25.1570  -29.8930   20.4780 C   0  0  0  0  0  2  0  0  0  0  0  0
  -25.5910  -31.1840   22.6190 N   0  0  0  0  0  0  0  0  0  0  0  0
  -23.9970  -31.9220   24.0530 O   0  0  0  0  0  0  0  0  0  0  0  0
  -23.9540  -29.2370   22.5850 C   0  0  0  0  0  0  0  0  0  0  0  0
  -22.7190  -28.8660   22.2080 N   0  0  0  0  0  0  0  0  0  0  0  0
  -24.5830  -28.6580   23.4720 O   0  0  0  0  0  0  0  0  0  0  0  0
  -22.2700  -29.3980   21.4740 H   0  0  0  0  0  0  0  0  0  0  0  0
  -19.5210  -27.1920   22.0910 C   0  0  0  0  0  0  0  0  0  0  0  0
  -21.9520  -27.7520   22.7630 C   0  0  0  0  0  3  0  0  0  0  0  0
  -22.3400  -26.4150   22.0930 C   0  0  0  0  0  2  0  0  0  0  0  0
  -21.4460  -26.0560   20.9020 C   0  0  0  0  0  2  0  0  0  0  0  0
  -19.9820  -25.9530   21.3420 C   0  0  0  0  0  2  0  0  0  0  0  0
  -20.4470  -28.0450   22.7470 C   0  0  0  0  0  0  0  0  0  0  0  0
  -19.9710  -29.2010   23.4010 C   0  0  0  0  0  3  0  0  0  0  0  0
  -18.5980  -29.5100   23.4080 C   0  0  0  0  0  3  0  0  0  0  0  0
  -17.6820  -28.6530   22.7710 C   0  0  0  0  0  3  0  0  0  0  0  0
  -18.1430  -27.4960   22.1190 C   0  0  0  0  0  3  0  0  0  0  0  0
  -26.2060  -32.6630   24.6090 C   0  0  0  0  0  3  0  0  0  0  0  0
  -25.6860  -34.0260   24.7750 N   0  0  0  0  0  0  0  0  0  0  0  0
  -26.0820  -35.0830   24.0530 C   0  0  0  0  0  0  0  0  0  0  0  0
  -26.9870  -35.0220   23.2180 O   0  0  0  0  0  0  0  0  0  0  0  0
  -24.9050  -34.1380   25.4040 H   0  0  0  0  0  0  0  0  0  0  0  0
  -24.3080  -36.6450   23.1950 C   0  0  0  0  0  1  0  0  0  0  0  0
  -25.3560  -36.4200   24.2970 C   0  0  0  0  0  3  0  0  0  0  0  0
  -27.1500  -37.5580   25.5250 C   0  0  0  0  0  1  0  0  0  0  0  0
  -26.2680  -37.5820   24.3610 N   0  0  0  0  0  0  0  0  0  0  0  0
  -25.7440  -38.4530   24.3760 H   0  0  0  0  0  0  0  0  0  0  0  0
  -26.4600  -31.9870   26.0130 C   0  0  1  0  0  0  0  0  0  0  0  0
  -25.1630  -31.6080   26.7640 C   0  0  0  0  0  1  0  0  0  0  0  0
  -27.3080  -30.7040   25.8570 C   0  0  0  0  0  1  0  0  0  0  0  0
  -27.2750  -32.9430   26.9140 C   0  0  0  0  0  1  0  0  0  0  0  0
  1  3  1  0
  2  4  2  0
  2  5  1  0
  4  6  1  0
  5  1  2  0
  6  3  2  0
  7  5  1  0
  8 11  1  0
  8  7  1  0
  9  8  1  0
 10  8  1  0
 12 21  1  0
 12 11  1  0
 13 19  1  0
 13 21  1  0
 14 19  1  0
 15 16  1  0
 15 14  1  0
 17 16  1  0
 17 26  1  0
 17 18  1  0
 19 18  1  0
 20 13  2  0
 21 22  1  0
 23 24  2  0
 24 43  1  0
 25 24  1  0
 25 28  1  0
 26 27  1  0
 26 23  1  0
 27 25  2  0
 28 29  1  0
 29 30  2  0
 31 34  1  0
 31 30  1  0
 32 31  2  0
 33 32  1  0
 33 28  2  0
 34 35  1  0
 35 36  1  0
 36 37  2  0
 38 37  1  0
 38 42  1  0
 39 38  2  0
 40 35  2  0
 40 39  1  0
 41 40  1  0
 43 44  1  0
 44 47  1  0
 44 46  1  0
 45 43  2  0
 48 23  1  0
 49 48  1  0
 50 48  1  0
 51  6  1  0
 51 52  1  0
 53 54  1  0
 53 52  1  0
 55 66  2  0
 56 54  1  0
 56 61  1  0
 57 67  1  0
 57 65  1  0
 58 60  1  0
 59 65  1  0
 60 61  2  0
 60 59  1  0
 62 56  2  0
 63 62  1  0
 63 58  2  0
 64 58  1  0
 64 57  1  0
 65 55  1  0
 67 69  2  0
 68 67  1  0
 70 68  1  0
 71 80  2  0
 71 76  1  0
 72 68  1  0
 73 72  1  0
 74 75  1  0
 74 73  1  0
 75 71  1  0
 76 72  1  0
 76 77  2  0
 77 78  1  0
 79 78  2  0
 80 79  1  0
 81 55  1  0
 81 82  1  0
 81 91  1  0
 82 85  1  0
 83 87  1  0
 83 82  1  0
 84 83  2  0
 87 86  1  0
 87 89  1  0
 89 90  1  0
 89 88  1  0
 91 92  1  1
 91 94  1  0
 93 91  1  0
M  ISO  4  13 100  21 100  53 101  54 101
M  END
>  <TORSDO>  (9) 
F 23

>  <SCORE>  (9) 
-7.106

>  <name>  (9) 
8

>  <ligand_id>  (9) 
8

>  <original_smiles>  (9) 
[H]c1c([H])c([H])c2c(c1[H])C([H])([H])C([H])([H])C([H])([H])C2([H])N([H])C(=O)C1([H])N(C(=O)C([H])(N([H])C(=O)C([H])(N([H])C([H])([H])[H])C([H])([H])[H])C(C([H])([H])[H])(C([H])([H])[H])C([H])([H])[H])C([H])([H])c2c([H])c(OC([H])([H])C([H])([H])Oc3c([H])c([H])c(C([H])([H])[N+]([H])([H])C([H])([H])C([H])([H])N([H])C(=O)N4C([H])([H])C([H])([H])C([H])([H])C([H])(n5nc(-c6c([H])c([H])c(Oc7c([H])c([H])c(F)c([H])c7F)c([H])c6[H])c(C(=O)N([H])[H])c5N([H])[H])C4([H])[H])c([H])c3[H])c([H])c([H])c2C1([H])[H]

>  <smiles>  (9) 
[H]c1c([H])c([H])c2c(c1[H])C([H])([H])C([H])([H])C([H])([H])C2([H])N([H])C(=O)C1([H])N(C(=O)C([H])(N([H])C(=O)C([H])(N([H])C([H])([H])[H])C([H])([H])[H])C(C([H])([H])[H])(C([H])([H])[H])C([H])([H])[H])C([H])([H])c2c([H])c(OC([H])([H])C([H])([H])Oc3c([H])c([H])c(C([H])([H])[N+]([H])([H])C([H])([H])C([H])([H])N([H])C(=O)N4C([H])([H])C([H])([H])C([H])([H])C([H])(n5nc(-c6c([H])c([H])c(Oc7c([H])c([H])c(F)c([H])c7F)c([H])c6[H])c(C(=O)N([H])[H])c5N([H])[H])C4([H])[H])c([H])c3[H])c([H])c([H])c2C1([H])[H]

$$$$
9:0:0
     RDKit          3D

 96105  0  0  1  0  0  0  0  0999 V2000
  -28.7570  -18.8430   20.7180 C   0  0  0  0  0  2  0  0  0  0  0  0
  -31.0060  -19.2550   21.6650 C   0  0  0  0  0  3  0  0  0  0  0  0
  -32.3950  -19.1630   21.5730 C   0  0  0  0  0  3  0  0  0  0  0  0
  -30.1990  -18.3510   20.9480 C   0  0  0  0  0  0  0  0  0  0  0  0
  -30.8350  -17.2100   20.3370 C   0  0  0  0  0  0  0  0  0  0  0  0
  -32.2190  -17.4440   20.0280 C   0  0  0  0  0  0  0  0  0  0  0  0
  -32.9810  -18.3390   20.6920 N   0  0  0  0  0  0  0  0  0  0  0  0
  -30.7530  -14.6700   20.0710 C   0  0  0  0  0  0  0  0  0  0  0  0
  -30.3460  -12.4270   19.1240 C   0  0  0  0  0  2  0  0  0  0  0  0
  -29.3810  -12.5050   17.9280 C   0  0  0  0  0  2  0  0  0  0  0  0
  -27.9290  -12.3750   18.4210 C   0  0  0  0  0  2  0  0  0  0  0  0
  -27.6110  -13.3090   19.6210 C   0  0  0  0  0  3  0  0  0  0  0  0
  -28.7130  -13.2800   20.7010 C   0  0  0  0  0  2  0  0  0  0  0  0
  -29.9870  -13.5400   20.0260 N   0  0  0  0  0  0  0  0  0  0  0  0
  -31.9430  -14.5670   19.8200 O   0  0  0  0  0  0  0  0  0  0  0  0
  -30.1630  -15.9130   20.1230 N   0  0  0  0  0  0  0  0  0  0  0  0
  -29.1590  -15.9050   20.2130 H   0  0  0  0  0  0  0  0  0  0  0  0
  -25.2660  -13.9170   20.4630 C   0  0  0  0  0  0  0  0  0  0  0  0
  -24.2100  -13.1500   20.8740 C   0  0  0  0  0  0  0  0  0  0  0  0
  -24.6600  -11.7950   20.8200 C   0  0  0  0  0  0  0  0  0  0  0  0
  -26.2910  -13.0300   20.1780 N   0  0  0  0  0  0  0  0  0  0  0  0
  -25.9360  -11.7480   20.4570 N   0  0  0  0  0  0  0  0  0  0  0  0
  -23.9300  -10.5370   21.0340 C   0  0  0  0  0  0  0  0  0  0  0  0
  -24.3900   -9.5620   21.9470 C   0  0  0  0  0  3  0  0  0  0  0  0
  -23.6600   -8.3720   22.1500 C   0  0  0  0  0  3  0  0  0  0  0  0
  -22.4550   -8.1470   21.4420 C   0  0  0  0  0  0  0  0  0  0  0  0
  -22.0140   -9.1110   20.5190 C   0  0  0  0  0  3  0  0  0  0  0  0
  -22.7450  -10.2930   20.3130 C   0  0  0  0  0  3  0  0  0  0  0  0
  -21.6920   -7.0100   21.5570 O   0  0  0  0  0  0  0  0  0  0  0  0
  -21.6820   -6.2650   22.7090 C   0  0  0  0  0  0  0  0  0  0  0  0
  -21.3130   -6.8200   23.9530 C   0  0  0  0  0  3  0  0  0  0  0  0
  -21.2470   -6.0020   25.0990 C   0  0  0  0  0  3  0  0  0  0  0  0
  -21.5400   -4.6290   25.0020 C   0  0  0  0  0  0  0  0  0  0  0  0
  -21.9030   -4.0720   23.7620 C   0  0  0  0  0  3  0  0  0  0  0  0
  -21.9700   -4.8870   22.6180 C   0  0  0  0  0  0  0  0  0  0  0  0
  -22.2980   -4.3420   21.4230 F   0  0  0  0  0  0  0  0  0  0  0  0
  -21.4710   -3.8400   26.1000 F   0  0  0  0  0  0  0  0  0  0  0  0
  -22.8290  -13.6370   21.2020 C   0  0  0  0  0  0  0  0  0  0  0  0
  -22.1300  -12.9450   22.0950 N   0  0  0  0  0  0  0  0  0  0  0  0
  -22.3810  -14.6690   20.7030 O   0  0  0  0  0  0  0  0  0  0  0  0
  -22.5080  -12.1110   22.5200 H   0  0  0  0  0  0  0  0  0  0  0  0
  -21.2060  -13.2550   22.3570 H   0  0  0  0  0  0  0  0  0  0  0  0
  -25.4320  -15.2860   20.2810 N   0  0  0  0  0  0  0  0  0  0  0  0
  -24.6750  -15.9450   20.4240 H   0  0  0  0  0  0  0  0  0  0  0  0
  -26.2660  -15.7180   19.9040 H   0  0  0  0  0  0  0  0  0  0  0  0
  -33.2820  -17.9430   17.6870 C   0  0  0  0  0  2  0  0  0  0  0  0
  -32.2540  -16.8690   17.4480 C   0  0  0  0  0  2  0  0  0  0  0  0
  -32.9450  -16.9650   18.7950 C   0  0  0  0  0  3  0  0  0  0  0  0
  -28.7340  -20.2580   19.9880 C   0  0  0  0  0  2  0  0  0  0  0  0
  -28.0480  -21.5030   20.6760 C   0  0  0  0  0  2  0  0  0  0  0  0
  -28.6320  -22.8370   20.2730 N   0  0  0  0  0  4  0  0  0  0  0  0
  -29.0540  -22.7250   19.3650 H   0  0  0  0  0  0  0  0  0  0  0  0
  -29.3870  -23.0360   20.9120 H   0  0  0  0  0  0  0  0  0  0  0  0
  -27.7360  -24.0520   20.1830 C   0  0  0  0  0  2  0  0  0  0  0  0
  -28.3210  -25.3660   20.8340 C   0  0  0  0  0  2  0  0  0  0  0  0
  -28.2740  -26.6290   20.1020 O   0  0  0  0  0  0  0  0  0  0  0  0
  -24.5730  -31.9300   23.2330 C   0  0  0  0  0  0  0  0  0  0  0  0
  -27.1250  -27.4000   20.1630 C   0  0  0  0  0  0  0  0  0  0  0  0
  -23.3370  -30.5330   21.6100 C   0  0  0  0  0  3  0  0  0  0  0  0
  -24.7600  -28.9690   20.1800 C   0  0  0  0  0  0  0  0  0  0  0  0
  -25.8680  -30.8570   21.3850 C   0  0  0  0  0  2  0  0  0  0  0  0
  -25.9330  -29.4770   20.7520 C   0  0  0  0  0  0  0  0  0  0  0  0
  -27.1230  -28.7030   20.7320 C   0  0  0  0  0  3  0  0  0  0  0  0
  -25.9350  -26.9190   19.5840 C   0  0  0  0  0  3  0  0  0  0  0  0
  -24.7580  -27.6930   19.5890 C   0  0  0  0  0  3  0  0  0  0  0  0
  -23.5280  -29.8460   20.2320 C   0  0  0  0  0  2  0  0  0  0  0  0
  -24.6120  -31.1240   22.1330 N   0  0  0  0  0  0  0  0  0  0  0  0
  -23.4980  -32.2130   23.7840 O   0  0  0  0  0  0  0  0  0  0  0  0
  -22.6870  -29.5230   22.5830 C   0  0  0  0  0  0  0  0  0  0  0  0
  -21.3620  -29.3390   22.4610 N   0  0  0  0  0  0  0  0  0  0  0  0
  -23.3720  -28.9050   23.4030 O   0  0  0  0  0  0  0  0  0  0  0  0
  -20.8690  -29.8890   21.7720 H   0  0  0  0  0  0  0  0  0  0  0  0
  -17.9930  -28.1270   22.9650 C   0  0  0  0  0  0  0  0  0  0  0  0
  -20.5480  -28.4070   23.2420 C   0  0  0  0  0  3  0  0  0  0  0  0
  -20.6630  -26.9680   22.6860 C   0  0  0  0  0  2  0  0  0  0  0  0
  -19.5660  -26.6240   21.6730 C   0  0  0  0  0  2  0  0  0  0  0  0
  -18.1810  -26.7690   22.3090 C   0  0  0  0  0  2  0  0  0  0  0  0
  -19.1050  -28.9030   23.3890 C   0  0  0  0  0  0  0  0  0  0  0  0
  -18.8760  -30.1730   23.9600 C   0  0  0  0  0  3  0  0  0  0  0  0
  -17.5660  -30.6680   24.1130 C   0  0  0  0  0  3  0  0  0  0  0  0
  -16.4690  -29.8900   23.7050 C   0  0  0  0  0  3  0  0  0  0  0  0
  -16.6830  -28.6210   23.1360 C   0  0  0  0  0  3  0  0  0  0  0  0
  -25.8690  -32.5560   23.8370 C   0  0  0  0  0  3  0  0  0  0  0  0
  -25.5690  -33.9530   24.1810 N   0  0  0  0  0  0  0  0  0  0  0  0
  -25.8950  -35.0090   23.4250 C   0  0  0  0  0  0  0  0  0  0  0  0
  -26.5500  -34.9090   22.3840 O   0  0  0  0  0  0  0  0  0  0  0  0
  -24.9870  -34.1040   24.9930 H   0  0  0  0  0  0  0  0  0  0  0  0
  -24.1670  -36.8090   23.1040 C   0  0  0  0  0  1  0  0  0  0  0  0
  -25.4180  -36.3960   23.8980 C   0  0  0  0  0  3  0  0  0  0  0  0
  -27.5670  -37.2670   24.7050 C   0  0  0  0  0  1  0  0  0  0  0  0
  -26.4530  -37.4450   23.7770 N   0  0  0  0  0  0  0  0  0  0  0  0
  -26.0530  -38.3670   23.9360 H   0  0  0  0  0  0  0  0  0  0  0  0
  -26.4050  -31.7750   25.0990 C   0  0  1  0  0  0  0  0  0  0  0  0
  -25.3300  -31.5330   26.1850 C   0  0  0  0  0  1  0  0  0  0  0  0
  -26.9760  -30.3990   24.6880 C   0  0  0  0  0  1  0  0  0  0  0  0
  -27.5690  -32.5610   25.7470 C   0  0  0  0  0  1  0  0  0  0  0  0
  1  4  1  0
  3  2  1  0
  4  2  2  0
  5  4  1  0
  6  5  2  0
  6  7  1  0
  7  3  2  0
  8 16  1  0
  9 14  1  0
 10 11  1  0
 10  9  1  0
 12 11  1  0
 12 21  1  0
 12 13  1  0
 14  8  1  0
 14 13  1  0
 15  8  2  0
 16 17  1  0
 16  5  1  0
 18 19  2  0
 19 38  1  0
 20 19  1  0
 20 23  1  0
 21 22  1  0
 21 18  1  0
 22 20  2  0
 23 24  1  0
 24 25  2  0
 26 29  1  0
 26 25  1  0
 27 26  2  0
 28 27  1  0
 28 23  2  0
 29 30  1  0
 30 31  1  0
 31 32  2  0
 33 32  1  0
 33 37  1  0
 34 33  2  0
 35 30  2  0
 35 34  1  0
 36 35  1  0
 38 39  1  0
 39 42  1  0
 39 41  1  0
 40 38  2  0
 43 44  1  0
 43 18  1  0
 45 43  1  0
 46 48  1  0
 47 46  1  0
 47 48  1  0
 48  6  1  0
 49 50  1  0
 49  1  1  0
 51 50  1  0
 51 53  1  0
 52 51  1  0
 54 51  1  0
 54 55  1  0
 56 58  1  0
 56 55  1  0
 57 68  2  0
 58 63  1  0
 59 67  1  0
 59 69  1  0
 60 66  1  0
 60 62  1  0
 61 67  1  0
 62 61  1  0
 63 62  2  0
 64 65  1  0
 64 58  2  0
 65 60  2  0
 66 59  1  0
 67 57  1  0
 69 71  2  0
 70 69  1  0
 72 70  1  0
 73 82  2  0
 73 78  1  0
 74 70  1  0
 74 78  1  0
 75 74  1  0
 76 77  1  0
 76 75  1  0
 77 73  1  0
 78 79  2  0
 79 80  1  0
 81 80  2  0
 82 81  1  0
 83 57  1  0
 83 84  1  0
 83 93  1  0
 84 87  1  0
 85 89  1  0
 85 84  1  0
 86 85  2  0
 89 88  1  0
 91 89  1  0
 91 92  1  0
 91 90  1  0
 93 96  1  1
 93 94  1  0
 95 93  1  0
M  ISO  4   8 100  16 100  55 101  56 101
M  END
>  <TORSDO>  (10) 
F 23

>  <SCORE>  (10) 
-13.040

>  <name>  (10) 
9

>  <ligand_id>  (10) 
9

>  <original_smiles>  (10) 
[H]c1nc(C2([H])C([H])([H])C2([H])[H])c(N([H])C(=O)N2C([H])([H])C([H])([H])C([H])([H])C([H])(n3nc(-c4c([H])c([H])c(Oc5c([H])c([H])c(F)c([H])c5F)c([H])c4[H])c(C(=O)N([H])[H])c3N([H])[H])C2([H])[H])c(C([H])([H])C([H])([H])C([H])([H])[N+]([H])([H])C([H])([H])C([H])([H])Oc2c([H])c([H])c3c(c2[H])C([H])([H])N(C(=O)C([H])(N([H])C(=O)C([H])(N([H])C([H])([H])[H])C([H])([H])[H])C(C([H])([H])[H])(C([H])([H])[H])C([H])([H])[H])C([H])(C(=O)N([H])C2([H])c4c([H])c([H])c([H])c([H])c4C([H])([H])C([H])([H])C2([H])[H])C3([H])[H])c1[H]

>  <smiles>  (10) 
[H]c1nc(C2([H])C([H])([H])C2([H])[H])c(N([H])C(=O)N2C([H])([H])C([H])([H])C([H])([H])C([H])(n3nc(-c4c([H])c([H])c(Oc5c([H])c([H])c(F)c([H])c5F)c([H])c4[H])c(C(=O)N([H])[H])c3N([H])[H])C2([H])[H])c(C([H])([H])C([H])([H])C([H])([H])[N+]([H])([H])C([H])([H])C([H])([H])Oc2c([H])c([H])c3c(c2[H])C([H])([H])N(C(=O)C([H])(N([H])C(=O)C([H])(N([H])C([H])([H])[H])C([H])([H])[H])C(C([H])([H])[H])(C([H])([H])[H])C([H])([H])[H])C([H])(C(=O)N([H])C2([H])c4c([H])c([H])c([H])c([H])c4C([H])([H])C([H])([H])C2([H])[H])C3([H])[H])c1[H]

$$$$
10:0:0
     RDKit          3D

 93101  0  0  1  0  0  0  0  0999 V2000
  -28.7390  -20.6540   22.1400 C   0  0  0  0  0  3  0  0  0  0  0  0
  -28.8090  -21.4700   19.8480 C   0  0  0  0  0  3  0  0  0  0  0  0
  -28.6010  -21.9760   22.6050 C   0  0  0  0  0  3  0  0  0  0  0  0
  -28.6540  -22.7920   20.3150 C   0  0  0  0  0  3  0  0  0  0  0  0
  -28.8710  -20.3950   20.7590 C   0  0  0  0  0  0  0  0  0  0  0  0
  -28.5920  -23.0610   21.7030 C   0  0  0  0  0  0  0  0  0  0  0  0
  -28.5390  -24.3510   22.2470 N   0  0  0  0  0  0  0  0  0  0  0  0
  -28.7080  -24.4660   23.2430 H   0  0  0  0  0  0  0  0  0  0  0  0
  -28.2070  -25.5630   21.5040 C   0  0  0  0  0  2  0  0  0  0  0  0
  -29.1550  -25.8910   20.3240 C   0  0  0  0  0  2  0  0  0  0  0  0
  -29.0900  -27.2710   19.9900 O   0  0  0  0  0  0  0  0  0  0  0  0
  -24.7540  -31.8120   23.2770 C   0  0  0  0  0  0  0  0  0  0  0  0
  -27.8430  -27.8470   19.9850 C   0  0  0  0  0  0  0  0  0  0  0  0
  -23.7140  -30.4490   21.4950 C   0  0  0  0  0  3  0  0  0  0  0  0
  -25.3280  -29.1220   20.0280 C   0  0  0  0  0  0  0  0  0  0  0  0
  -26.2070  -31.0060   21.4200 C   0  0  0  0  0  2  0  0  0  0  0  0
  -26.4160  -29.6940   20.6970 C   0  0  0  0  0  0  0  0  0  0  0  0
  -27.6740  -29.0620   20.6720 C   0  0  0  0  0  3  0  0  0  0  0  0
  -26.7390  -27.2650   19.3210 C   0  0  0  0  0  3  0  0  0  0  0  0
  -25.4820  -27.9040   19.3410 C   0  0  0  0  0  3  0  0  0  0  0  0
  -24.0210  -29.8830   20.0810 C   0  0  0  0  0  2  0  0  0  0  0  0
  -24.9080  -31.1020   22.1240 N   0  0  0  0  0  0  0  0  0  0  0  0
  -23.6380  -31.9640   23.7920 O   0  0  0  0  0  0  0  0  0  0  0  0
  -23.1090  -29.3170   22.3540 C   0  0  0  0  0  0  0  0  0  0  0  0
  -21.7990  -29.0730   22.1840 N   0  0  0  0  0  0  0  0  0  0  0  0
  -23.8150  -28.6650   23.1280 O   0  0  0  0  0  0  0  0  0  0  0  0
  -21.2870  -29.6520   21.5310 H   0  0  0  0  0  0  0  0  0  0  0  0
  -18.4790  -27.7070   22.5440 C   0  0  0  0  0  0  0  0  0  0  0  0
  -21.0240  -28.0310   22.8560 C   0  0  0  0  0  3  0  0  0  0  0  0
  -21.1830  -26.6690   22.1400 C   0  0  0  0  0  2  0  0  0  0  0  0
  -20.0940  -26.4070   21.0960 C   0  0  0  0  0  2  0  0  0  0  0  0
  -18.7070  -26.4370   21.7450 C   0  0  0  0  0  2  0  0  0  0  0  0
  -19.5670  -28.4640   23.0550 C   0  0  0  0  0  0  0  0  0  0  0  0
  -19.2960  -29.6570   23.7620 C   0  0  0  0  0  3  0  0  0  0  0  0
  -17.9730  -30.0890   23.9650 C   0  0  0  0  0  3  0  0  0  0  0  0
  -16.9020  -29.3240   23.4740 C   0  0  0  0  0  3  0  0  0  0  0  0
  -17.1570  -28.1360   22.7710 C   0  0  0  0  0  3  0  0  0  0  0  0
  -25.9680  -32.4850   23.9920 C   0  0  0  0  0  3  0  0  0  0  0  0
  -25.5760  -33.8600   24.3300 N   0  0  0  0  0  0  0  0  0  0  0  0
  -25.9090  -34.9420   23.6140 C   0  0  0  0  0  0  0  0  0  0  0  0
  -26.6490  -34.8920   22.6260 O   0  0  0  0  0  0  0  0  0  0  0  0
  -24.9250  -33.9730   25.0930 H   0  0  0  0  0  0  0  0  0  0  0  0
  -24.1240  -36.6600   23.1790 C   0  0  0  0  0  1  0  0  0  0  0  0
  -25.3290  -36.2970   24.0620 C   0  0  0  0  0  3  0  0  0  0  0  0
  -27.3710  -37.2510   25.0340 C   0  0  0  0  0  1  0  0  0  0  0  0
  -26.3150  -37.3980   24.0350 N   0  0  0  0  0  0  0  0  0  0  0  0
  -25.8570  -38.2920   24.1870 H   0  0  0  0  0  0  0  0  0  0  0  0
  -26.4430  -31.7050   25.2780 C   0  0  1  0  0  0  0  0  0  0  0  0
  -25.2980  -31.3650   26.2590 C   0  0  0  0  0  1  0  0  0  0  0  0
  -27.1360  -30.3820   24.8810 C   0  0  0  0  0  1  0  0  0  0  0  0
  -27.4920  -32.5470   26.0430 C   0  0  0  0  0  1  0  0  0  0  0  0
  -29.1050  -18.9870   20.2310 C   0  0  0  0  0  2  0  0  0  0  0  0
  -29.4030  -18.0380   21.2510 O   0  0  0  0  0  0  0  0  0  0  0  0
  -30.7210  -17.5040   21.2280 C   0  0  0  0  0  2  0  0  0  0  0  0
  -30.7630  -16.1960   20.4200 C   0  0  0  0  0  2  0  0  0  0  0  0
  -32.3570  -14.3160   20.1300 C   0  0  0  0  0  0  0  0  0  0  0  0
  -31.9260  -11.9960   19.3950 C   0  0  0  0  0  2  0  0  0  0  0  0
  -31.0000  -11.9750   18.1610 C   0  0  0  0  0  2  0  0  0  0  0  0
  -29.5170  -12.0380   18.5720 C   0  0  0  0  0  2  0  0  0  0  0  0
  -29.2340  -13.1730   19.5880 C   0  0  0  0  0  3  0  0  0  0  0  0
  -30.2410  -13.0830   20.7580 C   0  0  0  0  0  2  0  0  0  0  0  0
  -31.5940  -13.1920   20.1880 N   0  0  0  0  0  0  0  0  0  0  0  0
  -33.4580  -14.3500   19.5760 O   0  0  0  0  0  0  0  0  0  0  0  0
  -31.9260  -15.3860   20.8060 N   0  0  0  0  0  0  0  0  0  0  0  0
  -32.7020  -15.9800   21.0620 H   0  0  0  0  0  0  0  0  0  0  0  0
  -26.9740  -14.1880   20.2960 C   0  0  0  0  0  0  0  0  0  0  0  0
  -25.7900  -13.6080   20.6640 C   0  0  0  0  0  0  0  0  0  0  0  0
  -26.0130  -12.1960   20.6150 C   0  0  0  0  0  0  0  0  0  0  0  0
  -27.8530  -13.1430   20.0610 N   0  0  0  0  0  0  0  0  0  0  0  0
  -27.2750  -11.9390   20.3040 N   0  0  0  0  0  0  0  0  0  0  0  0
  -25.0860  -11.0730   20.7870 C   0  0  0  0  0  0  0  0  0  0  0  0
  -25.3300  -10.0540   21.7340 C   0  0  0  0  0  3  0  0  0  0  0  0
  -24.4150   -8.9900   21.8900 C   0  0  0  0  0  3  0  0  0  0  0  0
  -23.2420   -8.9420   21.1020 C   0  0  0  0  0  0  0  0  0  0  0  0
  -23.0180   -9.9470   20.1430 C   0  0  0  0  0  3  0  0  0  0  0  0
  -23.9320  -11.0010   19.9840 C   0  0  0  0  0  3  0  0  0  0  0  0
  -22.3080   -7.9380   21.1650 O   0  0  0  0  0  0  0  0  0  0  0  0
  -22.0560   -7.2670   22.3350 C   0  0  0  0  0  0  0  0  0  0  0  0
  -21.6380   -7.9380   23.5050 C   0  0  0  0  0  3  0  0  0  0  0  0
  -21.3250   -7.2030   24.6650 C   0  0  0  0  0  3  0  0  0  0  0  0
  -21.4180   -5.7980   24.6550 C   0  0  0  0  0  0  0  0  0  0  0  0
  -21.8280   -5.1280   23.4880 C   0  0  0  0  0  3  0  0  0  0  0  0
  -22.1420   -5.8610   22.3310 C   0  0  0  0  0  0  0  0  0  0  0  0
  -22.5170   -5.2090   21.2040 F   0  0  0  0  0  0  0  0  0  0  0  0
  -21.1090   -5.0900   25.7660 F   0  0  0  0  0  0  0  0  0  0  0  0
  -24.4930  -14.3100   20.9500 C   0  0  0  0  0  0  0  0  0  0  0  0
  -23.6720  -13.7430   21.8260 N   0  0  0  0  0  0  0  0  0  0  0  0
  -24.2240  -15.3920   20.4290 O   0  0  0  0  0  0  0  0  0  0  0  0
  -23.9000  -12.8570   22.2560 H   0  0  0  0  0  0  0  0  0  0  0  0
  -22.8020  -14.1930   22.0690 H   0  0  0  0  0  0  0  0  0  0  0  0
  -27.3770  -15.5120   20.1240 N   0  0  0  0  0  0  0  0  0  0  0  0
  -26.7380  -16.2950   20.2190 H   0  0  0  0  0  0  0  0  0  0  0  0
  -28.2740  -15.7850   19.7470 H   0  0  0  0  0  0  0  0  0  0  0  0
  1  3  1  0
  2  4  2  0
  2  5  1  0
  4  6  1  0
  5  1  2  0
  6  7  1  0
  6  3  2  0
  7  8  1  0
  9  7  1  0
 10  9  1  0
 11 10  1  0
 12 23  2  0
 13 11  1  0
 13 18  1  0
 14 22  1  0
 14 24  1  0
 15 21  1  0
 15 17  1  0
 16 22  1  0
 17 16  1  0
 18 17  2  0
 19 20  1  0
 19 13  2  0
 20 15  2  0
 21 14  1  0
 22 12  1  0
 24 26  2  0
 25 24  1  0
 27 25  1  0
 28 37  2  0
 28 33  1  0
 29 25  1  0
 29 33  1  0
 30 29  1  0
 31 32  1  0
 31 30  1  0
 32 28  1  0
 33 34  2  0
 34 35  1  0
 36 35  2  0
 37 36  1  0
 38 12  1  0
 38 39  1  0
 38 48  1  0
 39 42  1  0
 40 44  1  0
 40 39  1  0
 41 40  2  0
 44 43  1  0
 46 44  1  0
 46 47  1  0
 46 45  1  0
 48 51  1  1
 48 49  1  0
 50 48  1  0
 52  5  1  0
 52 53  1  0
 54 53  1  0
 55 64  1  0
 55 54  1  0
 56 62  1  0
 56 64  1  0
 57 62  1  0
 58 59  1  0
 58 57  1  0
 60 59  1  0
 60 69  1  0
 60 61  1  0
 62 61  1  0
 63 56  2  0
 64 65  1  0
 66 67  2  0
 67 86  1  0
 68 67  1  0
 68 71  1  0
 69 66  1  0
 69 70  1  0
 70 68  2  0
 71 72  1  0
 72 73  2  0
 74 77  1  0
 74 73  1  0
 75 74  2  0
 76 75  1  0
 76 71  2  0
 77 78  1  0
 78 79  1  0
 79 80  2  0
 81 80  1  0
 81 85  1  0
 82 81  2  0
 83 78  2  0
 83 82  1  0
 84 83  1  0
 86 87  1  0
 87 90  1  0
 87 89  1  0
 88 86  2  0
 91 92  1  0
 91 66  1  0
 93 91  1  0
M  ISO  4  10 101  11 101  56 100  64 100
M  END
>  <TORSDO>  (11) 
F 23

>  <SCORE>  (11) 
-9.749

>  <name>  (11) 
10

>  <ligand_id>  (11) 
10

>  <original_smiles>  (11) 
[H]c1c([H])c([H])c2c(c1[H])C([H])([H])C([H])([H])C([H])([H])C2([H])N([H])C(=O)C1([H])N(C(=O)C([H])(N([H])C(=O)C([H])(N([H])C([H])([H])[H])C([H])([H])[H])C(C([H])([H])[H])(C([H])([H])[H])C([H])([H])[H])C([H])([H])c2c([H])c(OC([H])([H])C([H])([H])N([H])c3c([H])c([H])c(C([H])([H])OC([H])([H])C([H])([H])N([H])C(=O)N4C([H])([H])C([H])([H])C([H])([H])C([H])(n5nc(-c6c([H])c([H])c(Oc7c([H])c([H])c(F)c([H])c7F)c([H])c6[H])c(C(=O)N([H])[H])c5N([H])[H])C4([H])[H])c([H])c3[H])c([H])c([H])c2C1([H])[H]

>  <smiles>  (11) 
[H]c1c([H])c([H])c2c(c1[H])C([H])([H])C([H])([H])C([H])([H])C2([H])N([H])C(=O)C1([H])N(C(=O)C([H])(N([H])C(=O)C([H])(N([H])C([H])([H])[H])C([H])([H])[H])C(C([H])([H])[H])(C([H])([H])[H])C([H])([H])[H])C([H])([H])c2c([H])c(OC([H])([H])C([H])([H])N([H])c3c([H])c([H])c(C([H])([H])OC([H])([H])C([H])([H])N([H])C(=O)N4C([H])([H])C([H])([H])C([H])([H])C([H])(n5nc(-c6c([H])c([H])c(Oc7c([H])c([H])c(F)c([H])c7F)c([H])c6[H])c(C(=O)N([H])[H])c5N([H])[H])C4([H])[H])c([H])c3[H])c([H])c([H])c2C1([H])[H]

$$$$
11:0:0
     RDKit          3D

 90 98  0  0  1  0  0  0  0  0999 V2000
  -30.1180  -23.7280   21.2560 C   0  0  0  0  0  2  0  0  0  0  0  0
  -29.4070  -23.5140   18.9110 C   0  0  0  0  0  2  0  0  0  0  0  0
  -28.9430  -24.6650   21.6060 C   0  0  0  0  0  2  0  0  0  0  0  0
  -28.1510  -24.3780   19.1150 C   0  0  0  0  0  2  0  0  0  0  0  0
  -29.7220  -22.7020   20.1790 C   0  0  0  0  0  3  0  0  0  0  0  0
  -28.1200  -25.2270   20.4160 C   0  0  0  0  0  3  0  0  0  0  0  0
  -28.3430  -26.6360   20.1720 O   0  0  0  0  0  0  0  0  0  0  0  0
  -24.5980  -31.8750   23.2230 C   0  0  0  0  0  0  0  0  0  0  0  0
  -27.1970  -27.4160   20.1220 C   0  0  0  0  0  0  0  0  0  0  0  0
  -23.3720  -30.4730   21.5990 C   0  0  0  0  0  3  0  0  0  0  0  0
  -24.8080  -28.9410   20.1520 C   0  0  0  0  0  0  0  0  0  0  0  0
  -25.8980  -30.8260   21.3750 C   0  0  0  0  0  2  0  0  0  0  0  0
  -25.9760  -29.4570   20.7300 C   0  0  0  0  0  0  0  0  0  0  0  0
  -27.1750  -28.7030   20.7090 C   0  0  0  0  0  3  0  0  0  0  0  0
  -26.0120  -26.9350   19.5130 C   0  0  0  0  0  3  0  0  0  0  0  0
  -24.8220  -27.6800   19.5390 C   0  0  0  0  0  3  0  0  0  0  0  0
  -23.5640  -29.7970   20.2160 C   0  0  0  0  0  2  0  0  0  0  0  0
  -24.6410  -31.0710   22.1230 N   0  0  0  0  0  0  0  0  0  0  0  0
  -23.5220  -32.1500   23.7740 O   0  0  0  0  0  0  0  0  0  0  0  0
  -22.7300  -29.4510   22.5660 C   0  0  0  0  0  0  0  0  0  0  0  0
  -21.4040  -29.2690   22.4530 N   0  0  0  0  0  0  0  0  0  0  0  0
  -23.4220  -28.8270   23.3750 O   0  0  0  0  0  0  0  0  0  0  0  0
  -20.9060  -29.8260   21.7720 H   0  0  0  0  0  0  0  0  0  0  0  0
  -18.0370  -28.0680   22.9750 C   0  0  0  0  0  0  0  0  0  0  0  0
  -20.5950  -28.3340   23.2330 C   0  0  0  0  0  3  0  0  0  0  0  0
  -20.6990  -26.8990   22.6660 C   0  0  0  0  0  2  0  0  0  0  0  0
  -19.5930  -26.5660   21.6600 C   0  0  0  0  0  2  0  0  0  0  0  0
  -18.2140  -26.7140   22.3080 C   0  0  0  0  0  2  0  0  0  0  0  0
  -19.1560  -28.8350   23.3950 C   0  0  0  0  0  0  0  0  0  0  0  0
  -18.9370  -30.1020   23.9770 C   0  0  0  0  0  3  0  0  0  0  0  0
  -17.6330  -30.6030   24.1440 C   0  0  0  0  0  3  0  0  0  0  0  0
  -16.5270  -29.8330   23.7420 C   0  0  0  0  0  3  0  0  0  0  0  0
  -16.7310  -28.5670   23.1630 C   0  0  0  0  0  3  0  0  0  0  0  0
  -25.8910  -32.5040   23.8260 C   0  0  0  0  0  3  0  0  0  0  0  0
  -25.5840  -33.8980   24.1730 N   0  0  0  0  0  0  0  0  0  0  0  0
  -25.9000  -34.9560   23.4150 C   0  0  0  0  0  0  0  0  0  0  0  0
  -26.5520  -34.8630   22.3720 O   0  0  0  0  0  0  0  0  0  0  0  0
  -25.0030  -34.0450   24.9850 H   0  0  0  0  0  0  0  0  0  0  0  0
  -24.1540  -36.7400   23.1060 C   0  0  0  0  0  1  0  0  0  0  0  0
  -25.4130  -36.3390   23.8900 C   0  0  0  0  0  3  0  0  0  0  0  0
  -27.5620  -37.2270   24.6790 C   0  0  0  0  0  1  0  0  0  0  0  0
  -26.4380  -37.3980   23.7640 N   0  0  0  0  0  0  0  0  0  0  0  0
  -26.0300  -38.3150   23.9290 H   0  0  0  0  0  0  0  0  0  0  0  0
  -26.4360  -31.7230   25.0850 C   0  0  1  0  0  0  0  0  0  0  0  0
  -25.3650  -31.4720   26.1710 C   0  0  0  0  0  1  0  0  0  0  0  0
  -27.0140  -30.3500   24.6670 C   0  0  0  0  0  1  0  0  0  0  0  0
  -27.5970  -32.5120   25.7300 C   0  0  0  0  0  1  0  0  0  0  0  0
  -30.7880  -21.6010   19.9470 C   0  0  0  0  0  2  0  0  0  0  0  0
  -30.7410  -20.4110   20.9430 C   0  0  0  0  0  2  0  0  0  0  0  0
  -30.3830  -19.2120   20.2530 O   0  0  0  0  0  0  0  0  0  0  0  0
  -30.4250  -18.0180   21.0370 C   0  0  0  0  0  2  0  0  0  0  0  0
  -30.0150  -16.8480   20.1200 C   0  0  0  0  0  2  0  0  0  0  0  0
  -30.6660  -14.4770   20.4580 C   0  0  0  0  0  0  0  0  0  0  0  0
  -30.3630  -12.3040   19.3550 C   0  0  0  0  0  2  0  0  0  0  0  0
  -29.4280  -12.5270   18.1460 C   0  0  0  0  0  2  0  0  0  0  0  0
  -27.9510  -12.4030   18.5700 C   0  0  0  0  0  2  0  0  0  0  0  0
  -27.6170  -13.2420   19.8320 C   0  0  0  0  0  3  0  0  0  0  0  0
  -28.6700  -13.0160   20.9450 C   0  0  0  0  0  2  0  0  0  0  0  0
  -30.0010  -13.2950   20.3800 N   0  0  0  0  0  0  0  0  0  0  0  0
  -31.8070  -14.6430   20.0220 O   0  0  0  0  0  0  0  0  0  0  0  0
  -29.8980  -15.5320   20.7710 N   0  0  0  0  0  0  0  0  0  0  0  0
  -28.9920  -15.3060   21.1520 H   0  0  0  0  0  0  0  0  0  0  0  0
  -25.2200  -13.8690   20.5300 C   0  0  0  0  0  0  0  0  0  0  0  0
  -24.1450  -13.1050   20.8960 C   0  0  0  0  0  0  0  0  0  0  0  0
  -24.5960  -11.7500   20.8680 C   0  0  0  0  0  0  0  0  0  0  0  0
  -26.2600  -12.9800   20.3050 N   0  0  0  0  0  0  0  0  0  0  0  0
  -25.8870  -11.7000   20.5670 N   0  0  0  0  0  0  0  0  0  0  0  0
  -23.8610  -10.4930   21.0570 C   0  0  0  0  0  0  0  0  0  0  0  0
  -24.3040   -9.5090   21.9670 C   0  0  0  0  0  3  0  0  0  0  0  0
  -23.5700   -8.3160   22.1460 C   0  0  0  0  0  3  0  0  0  0  0  0
  -22.3790   -8.1000   21.4120 C   0  0  0  0  0  0  0  0  0  0  0  0
  -21.9540   -9.0730   20.4900 C   0  0  0  0  0  3  0  0  0  0  0  0
  -22.6880  -10.2570   20.3110 C   0  0  0  0  0  3  0  0  0  0  0  0
  -21.6150   -6.9600   21.5010 O   0  0  0  0  0  0  0  0  0  0  0  0
  -21.6060   -6.1860   22.6330 C   0  0  0  0  0  0  0  0  0  0  0  0
  -21.2650   -6.7170   23.8960 C   0  0  0  0  0  3  0  0  0  0  0  0
  -21.2010   -5.8700   25.0220 C   0  0  0  0  0  3  0  0  0  0  0  0
  -21.4680   -4.4950   24.8850 C   0  0  0  0  0  0  0  0  0  0  0  0
  -21.8020   -3.9640   23.6270 C   0  0  0  0  0  3  0  0  0  0  0  0
  -21.8680   -4.8070   22.5040 C   0  0  0  0  0  0  0  0  0  0  0  0
  -22.1700   -4.2870   21.2890 F   0  0  0  0  0  0  0  0  0  0  0  0
  -21.3990   -3.6800   25.9630 F   0  0  0  0  0  0  0  0  0  0  0  0
  -22.7500  -13.5920   21.1620 C   0  0  0  0  0  0  0  0  0  0  0  0
  -22.0160  -12.9030   22.0300 N   0  0  0  0  0  0  0  0  0  0  0  0
  -22.3190  -14.6180   20.6370 O   0  0  0  0  0  0  0  0  0  0  0  0
  -22.3770  -12.0730   22.4750 H   0  0  0  0  0  0  0  0  0  0  0  0
  -21.0800  -13.2110   22.2510 H   0  0  0  0  0  0  0  0  0  0  0  0
  -25.3960  -15.2380   20.3490 N   0  0  0  0  0  0  0  0  0  0  0  0
  -24.6310  -15.8980   20.4490 H   0  0  0  0  0  0  0  0  0  0  0  0
  -26.2480  -15.6690   20.0130 H   0  0  0  0  0  0  0  0  0  0  0  0
  1  3  1  0
  2  4  1  0
  2  5  1  0
  4  6  1  0
  5 48  1  0
  5  1  1  0
  6  7  1  0
  6  3  1  0
  8 19  2  0
  9  7  1  0
  9 14  1  0
 10 18  1  0
 10 20  1  0
 11 17  1  0
 11 13  1  0
 12 18  1  0
 13 12  1  0
 14 13  2  0
 15 16  1  0
 15  9  2  0
 16 11  2  0
 17 10  1  0
 18  8  1  0
 20 22  2  0
 21 20  1  0
 23 21  1  0
 24 33  2  0
 24 29  1  0
 25 21  1  0
 25 29  1  0
 26 25  1  0
 27 28  1  0
 27 26  1  0
 28 24  1  0
 29 30  2  0
 30 31  1  0
 32 31  2  0
 33 32  1  0
 34  8  1  0
 34 35  1  0
 34 44  1  0
 35 38  1  0
 36 40  1  0
 36 35  1  0
 37 36  2  0
 40 39  1  0
 42 40  1  0
 42 43  1  0
 42 41  1  0
 44 47  1  1
 44 45  1  0
 46 44  1  0
 48 49  1  0
 50 49  1  0
 50 51  1  0
 52 61  1  0
 52 51  1  0
 53 61  1  0
 54 59  1  0
 55 56  1  0
 55 54  1  0
 57 56  1  0
 57 66  1  0
 57 58  1  0
 59 53  1  0
 59 58  1  0
 60 53  2  0
 61 62  1  0
 63 64  2  0
 64 83  1  0
 65 64  1  0
 65 68  1  0
 66 63  1  0
 66 67  1  0
 67 65  2  0
 68 69  1  0
 69 70  2  0
 71 74  1  0
 71 70  1  0
 72 71  2  0
 73 72  1  0
 73 68  2  0
 74 75  1  0
 75 76  1  0
 76 77  2  0
 78 77  1  0
 78 82  1  0
 79 78  2  0
 80 75  2  0
 80 79  1  0
 81 80  1  0
 83 84  1  0
 84 87  1  0
 84 86  1  0
 85 83  2  0
 88 89  1  0
 88 63  1  0
 90 88  1  0
M  ISO  4   6 101   7 101  53 100  61 100
M  END
>  <TORSDO>  (12) 
F 21

>  <SCORE>  (12) 
-13.385

>  <name>  (12) 
11

>  <ligand_id>  (12) 
11

>  <original_smiles>  (12) 
[H]c1c([H])c([H])c2c(c1[H])C([H])([H])C([H])([H])C([H])([H])C2([H])N([H])C(=O)C1([H])N(C(=O)C([H])(N([H])C(=O)C([H])(N([H])C([H])([H])[H])C([H])([H])[H])C(C([H])([H])[H])(C([H])([H])[H])C([H])([H])[H])C([H])([H])c2c([H])c(OC3([H])C([H])([H])C([H])([H])C([H])(C([H])([H])C([H])([H])OC([H])([H])C([H])([H])N([H])C(=O)N4C([H])([H])C([H])([H])C([H])([H])C([H])(n5nc(-c6c([H])c([H])c(Oc7c([H])c([H])c(F)c([H])c7F)c([H])c6[H])c(C(=O)N([H])[H])c5N([H])[H])C4([H])[H])C([H])([H])C3([H])[H])c([H])c([H])c2C1([H])[H]

>  <smiles>  (12) 
[H]c1c([H])c([H])c2c(c1[H])C([H])([H])C([H])([H])C([H])([H])C2([H])N([H])C(=O)C1([H])N(C(=O)C([H])(N([H])C(=O)C([H])(N([H])C([H])([H])[H])C([H])([H])[H])C(C([H])([H])[H])(C([H])([H])[H])C([H])([H])[H])C([H])([H])c2c([H])c(OC3([H])C([H])([H])C([H])([H])C([H])(C([H])([H])C([H])([H])OC([H])([H])C([H])([H])N([H])C(=O)N4C([H])([H])C([H])([H])C([H])([H])C([H])(n5nc(-c6c([H])c([H])c(Oc7c([H])c([H])c(F)c([H])c7F)c([H])c6[H])c(C(=O)N([H])[H])c5N([H])[H])C4([H])[H])C([H])([H])C3([H])[H])c([H])c([H])c2C1([H])[H]

$$$$
12:0:0
     RDKit          3D

 93102  0  0  1  0  0  0  0  0999 V2000
  -29.6620  -22.6190   18.9160 C   0  0  0  0  0  3  0  0  0  0  0  0
  -30.1040  -21.2360   18.8370 C   0  0  0  0  0  3  0  0  0  0  0  0
  -27.8770  -21.9220   20.2960 C   0  0  0  0  0  3  0  0  0  0  0  0
  -28.4990  -23.0350   19.6410 C   0  0  0  0  0  0  0  0  0  0  0  0
  -29.4310  -20.1140   19.4430 C   0  0  0  0  0  0  0  0  0  0  0  0
  -28.2900  -20.5400   20.1960 C   0  0  0  0  0  0  0  0  0  0  0  0
  -27.4610  -19.5720   20.7700 N   0  0  0  0  0  0  0  0  0  0  0  0
  -26.8300  -19.9810   21.4560 H   0  0  0  0  0  0  0  0  0  0  0  0
  -27.2630  -17.5260   19.2380 C   0  0  0  0  0  2  0  0  0  0  0  0
  -26.0370  -17.5480   20.1200 C   0  0  0  0  0  2  0  0  0  0  0  0
  -26.7230  -18.8390   19.7500 C   0  0  0  0  0  3  0  0  0  0  0  0
  -29.7760  -18.5580   19.0590 C   0  0  0  0  0  2  0  0  0  0  0  0
  -30.6170  -17.4390   19.9360 C   0  0  0  0  0  2  0  0  0  0  0  0
  -31.0770  -14.7420   19.7490 C   0  0  0  0  0  0  0  0  0  0  0  0
  -30.8630  -12.3570   18.9600 C   0  0  0  0  0  2  0  0  0  0  0  0
  -29.8770  -12.2890   17.7720 C   0  0  0  0  0  2  0  0  0  0  0  0
  -28.4300  -12.1390   18.2770 C   0  0  0  0  0  2  0  0  0  0  0  0
  -28.0950  -13.1380   19.4160 C   0  0  0  0  0  3  0  0  0  0  0  0
  -29.1980  -13.1810   20.4950 C   0  0  0  0  0  2  0  0  0  0  0  0
  -30.4560  -13.5040   19.8080 N   0  0  0  0  0  0  0  0  0  0  0  0
  -32.2670  -14.7960   19.4250 O   0  0  0  0  0  0  0  0  0  0  0  0
  -30.2990  -15.9090   19.8650 N   0  0  0  0  0  0  0  0  0  0  0  0
  -29.3280  -15.6980   20.0400 H   0  0  0  0  0  0  0  0  0  0  0  0
  -25.8020  -13.8160   20.3300 C   0  0  0  0  0  0  0  0  0  0  0  0
  -24.7240  -13.0850   20.7450 C   0  0  0  0  0  0  0  0  0  0  0  0
  -25.1100  -11.7140   20.6370 C   0  0  0  0  0  0  0  0  0  0  0  0
  -26.7770  -12.8940   19.9900 N   0  0  0  0  0  0  0  0  0  0  0  0
  -26.3740  -11.6200   20.2390 N   0  0  0  0  0  0  0  0  0  0  0  0
  -24.3290  -10.4840   20.8310 C   0  0  0  0  0  0  0  0  0  0  0  0
  -24.7040   -9.5150   21.7860 C   0  0  0  0  0  3  0  0  0  0  0  0
  -23.9270   -8.3490   21.9650 C   0  0  0  0  0  3  0  0  0  0  0  0
  -22.7610   -8.1490   21.1890 C   0  0  0  0  0  0  0  0  0  0  0  0
  -22.4050   -9.1080   20.2250 C   0  0  0  0  0  3  0  0  0  0  0  0
  -23.1820  -10.2630   20.0430 C   0  0  0  0  0  3  0  0  0  0  0  0
  -21.9580   -7.0350   21.2770 O   0  0  0  0  0  0  0  0  0  0  0  0
  -21.7830   -6.3660   22.4610 C   0  0  0  0  0  0  0  0  0  0  0  0
  -21.2610   -7.0050   23.6080 C   0  0  0  0  0  3  0  0  0  0  0  0
  -21.0320   -6.2640   24.7840 C   0  0  0  0  0  3  0  0  0  0  0  0
  -21.3150   -4.8850   24.8130 C   0  0  0  0  0  0  0  0  0  0  0  0
  -21.8300   -4.2470   23.6720 C   0  0  0  0  0  3  0  0  0  0  0  0
  -22.0600   -4.9850   22.4980 C   0  0  0  0  0  0  0  0  0  0  0  0
  -22.5370   -4.3630   21.3940 F   0  0  0  0  0  0  0  0  0  0  0  0
  -21.0870   -4.1710   25.9410 F   0  0  0  0  0  0  0  0  0  0  0  0
  -23.3760  -13.6250   21.1260 C   0  0  0  0  0  0  0  0  0  0  0  0
  -22.6850  -12.9540   22.0410 N   0  0  0  0  0  0  0  0  0  0  0  0
  -22.9480  -14.6740   20.6460 O   0  0  0  0  0  0  0  0  0  0  0  0
  -23.0420  -12.1000   22.4430 H   0  0  0  0  0  0  0  0  0  0  0  0
  -21.7880  -13.3020   22.3480 H   0  0  0  0  0  0  0  0  0  0  0  0
  -26.0300  -15.1810   20.1830 N   0  0  0  0  0  0  0  0  0  0  0  0
  -25.2980  -15.8660   20.3340 H   0  0  0  0  0  0  0  0  0  0  0  0
  -26.8610  -15.5750   19.7630 H   0  0  0  0  0  0  0  0  0  0  0  0
  -27.6700  -24.4350   19.4980 C   0  0  0  0  0  2  0  0  0  0  0  0
  -28.1210  -25.9060   19.5090 O   0  0  0  0  0  0  0  0  0  0  0  0
  -24.4640  -31.3690   22.8220 C   0  0  0  0  0  0  0  0  0  0  0  0
  -27.0730  -26.8880   19.5200 C   0  0  0  0  0  0  0  0  0  0  0  0
  -23.2630  -30.0350   21.1360 C   0  0  0  0  0  3  0  0  0  0  0  0
  -24.7170  -28.5710   19.6160 C   0  0  0  0  0  0  0  0  0  0  0  0
  -25.8100  -30.3580   20.9520 C   0  0  0  0  0  2  0  0  0  0  0  0
  -25.8970  -29.0060   20.2330 C   0  0  0  0  0  0  0  0  0  0  0  0
  -27.0780  -28.1770   20.1780 C   0  0  0  0  0  3  0  0  0  0  0  0
  -25.8740  -26.5710   18.8430 C   0  0  0  0  0  3  0  0  0  0  0  0
  -24.7140  -27.3620   18.9090 C   0  0  0  0  0  3  0  0  0  0  0  0
  -23.4740  -29.4350   19.7240 C   0  0  0  0  0  2  0  0  0  0  0  0
  -24.5320  -30.6050   21.6920 N   0  0  0  0  0  0  0  0  0  0  0  0
  -23.3800  -31.6090   23.3780 O   0  0  0  0  0  0  0  0  0  0  0  0
  -22.6180  -28.9660   22.0530 C   0  0  0  0  0  0  0  0  0  0  0  0
  -21.2890  -28.7910   21.9490 N   0  0  0  0  0  0  0  0  0  0  0  0
  -23.3150  -28.3000   22.8240 O   0  0  0  0  0  0  0  0  0  0  0  0
  -20.7820  -29.3810   21.3030 H   0  0  0  0  0  0  0  0  0  0  0  0
  -17.9300  -27.5300   22.4480 C   0  0  0  0  0  0  0  0  0  0  0  0
  -20.4900  -27.8090   22.6880 C   0  0  0  0  0  3  0  0  0  0  0  0
  -20.5990  -26.4070   22.0460 C   0  0  0  0  0  2  0  0  0  0  0  0
  -19.4850  -26.1190   21.0340 C   0  0  0  0  0  2  0  0  0  0  0  0
  -18.1120  -26.2170   21.7070 C   0  0  0  0  0  2  0  0  0  0  0  0
  -19.0470  -28.2860   22.8940 C   0  0  0  0  0  0  0  0  0  0  0  0
  -18.8220  -29.5150   23.5510 C   0  0  0  0  0  3  0  0  0  0  0  0
  -17.5140  -29.9900   23.7630 C   0  0  0  0  0  3  0  0  0  0  0  0
  -16.4130  -29.2320   23.3300 C   0  0  0  0  0  3  0  0  0  0  0  0
  -16.6220  -28.0040   22.6780 C   0  0  0  0  0  3  0  0  0  0  0  0
  -25.7400  -31.9930   23.4610 C   0  0  0  0  0  3  0  0  0  0  0  0
  -25.3820  -33.3330   23.9530 N   0  0  0  0  0  0  0  0  0  0  0  0
  -25.7450  -34.4840   23.3690 C   0  0  0  0  0  0  0  0  0  0  0  0
  -26.4810  -34.5270   22.3800 O   0  0  0  0  0  0  0  0  0  0  0  0
  -24.7290  -33.3710   24.7220 H   0  0  0  0  0  0  0  0  0  0  0  0
  -24.0300  -36.3130   23.1370 C   0  0  0  0  0  1  0  0  0  0  0  0
  -25.2080  -35.7940   23.9790 C   0  0  0  0  0  3  0  0  0  0  0  0
  -27.2620  -36.5530   25.0900 C   0  0  0  0  0  1  0  0  0  0  0  0
  -26.2350  -36.8520   24.0970 N   0  0  0  0  0  0  0  0  0  0  0  0
  -25.8080  -37.7430   24.3380 H   0  0  0  0  0  0  0  0  0  0  0  0
  -26.3410  -31.1180   24.6290 C   0  0  1  0  0  0  0  0  0  0  0  0
  -25.3040  -30.7220   25.7060 C   0  0  0  0  0  1  0  0  0  0  0  0
  -26.9630  -29.8140   24.0750 C   0  0  0  0  0  1  0  0  0  0  0  0
  -27.4860  -31.8900   25.3250 C   0  0  0  0  0  1  0  0  0  0  0  0
  1  4  1  0
  2  1  2  0
  2  5  1  0
  4  3  2  0
  5  6  2  0
  6  3  1  0
  6  7  1  0
  7  8  1  0
  9 11  1  0
  9 10  1  0
 11 10  1  0
 11  7  1  0
 12  5  1  0
 12 13  1  0
 14 20  1  0
 14 22  1  0
 15 20  1  0
 16 17  1  0
 16 15  1  0
 18 17  1  0
 18 27  1  0
 18 19  1  0
 20 19  1  0
 21 14  2  0
 22 13  1  0
 22 23  1  0
 24 25  2  0
 25 44  1  0
 26 25  1  0
 26 29  1  0
 27 28  1  0
 27 24  1  0
 28 26  2  0
 29 30  1  0
 30 31  2  0
 32 35  1  0
 32 31  1  0
 33 32  2  0
 34 33  1  0
 34 29  2  0
 35 36  1  0
 36 41  2  0
 36 37  1  0
 37 38  2  0
 38 39  1  0
 39 43  1  0
 40 39  2  0
 41 40  1  0
 42 41  1  0
 44 45  1  0
 45 48  1  0
 45 47  1  0
 46 44  2  0
 49 24  1  0
 49 50  1  0
 51 49  1  0
 52 53  1  0
 52  4  1  0
 53 55  1  0
 54 65  2  0
 55 60  1  0
 56 64  1  0
 56 66  1  0
 57 63  1  0
 57 59  1  0
 58 64  1  0
 59 58  1  0
 60 59  2  0
 61 62  1  0
 61 55  2  0
 62 57  2  0
 63 56  1  0
 64 54  1  0
 66 68  2  0
 67 66  1  0
 69 67  1  0
 70 79  2  0
 70 75  1  0
 71 67  1  0
 71 75  1  0
 72 71  1  0
 73 74  1  0
 73 72  1  0
 74 70  1  0
 75 76  2  0
 76 77  1  0
 78 77  2  0
 79 78  1  0
 80 54  1  0
 80 81  1  0
 80 90  1  0
 81 84  1  0
 82 81  1  0
 82 86  1  0
 83 82  2  0
 86 85  1  0
 86 88  1  0
 88 89  1  0
 88 87  1  0
 90 93  1  1
 90 91  1  0
 92 90  1  0
M  ISO  4  14 100  22 100  52 101  53 101
M  END
>  <TORSDO>  (13) 
F 21

>  <SCORE>  (13) 
-11.847

>  <name>  (13) 
12

>  <ligand_id>  (13) 
12

>  <original_smiles>  (13) 
[H]c1c([H])c([H])c2c(c1[H])C([H])([H])C([H])([H])C([H])([H])C2([H])N([H])C(=O)C1([H])N(C(=O)C([H])(N([H])C(=O)C([H])(N([H])C([H])([H])[H])C([H])([H])[H])C(C([H])([H])[H])(C([H])([H])[H])C([H])([H])[H])C([H])([H])c2c([H])c(OC([H])([H])c3c([H])c([H])c(C([H])([H])C([H])([H])N([H])C(=O)N4C([H])([H])C([H])([H])C([H])([H])C([H])(n5nc(-c6c([H])c([H])c(Oc7c([H])c([H])c(F)c([H])c7F)c([H])c6[H])c(C(=O)N([H])[H])c5N([H])[H])C4([H])[H])c(N([H])C4([H])C([H])([H])C4([H])[H])c3[H])c([H])c([H])c2C1([H])[H]

>  <smiles>  (13) 
[H]c1c([H])c([H])c2c(c1[H])C([H])([H])C([H])([H])C([H])([H])C2([H])N([H])C(=O)C1([H])N(C(=O)C([H])(N([H])C(=O)C([H])(N([H])C([H])([H])[H])C([H])([H])[H])C(C([H])([H])[H])(C([H])([H])[H])C([H])([H])[H])C([H])([H])c2c([H])c(OC([H])([H])c3c([H])c([H])c(C([H])([H])C([H])([H])N([H])C(=O)N4C([H])([H])C([H])([H])C([H])([H])C([H])(n5nc(-c6c([H])c([H])c(Oc7c([H])c([H])c(F)c([H])c7F)c([H])c6[H])c(C(=O)N([H])[H])c5N([H])[H])C4([H])[H])c(N([H])C4([H])C([H])([H])C4([H])[H])c3[H])c([H])c([H])c2C1([H])[H]

$$$$
13:0:0
     RDKit          3D

 95103  0  0  1  0  0  0  0  0999 V2000
  -29.9650  -22.4600   22.2000 C   0  0  0  0  0  3  0  0  0  0  0  0
  -30.5840  -21.2250   22.4760 C   0  0  0  0  0  3  0  0  0  0  0  0
  -29.3180  -22.6340   20.9570 C   0  0  0  0  0  0  0  0  0  0  0  0
  -29.3180  -21.5420   20.0580 C   0  0  0  0  0  0  0  0  0  0  0  0
  -30.5230  -20.1980   21.5200 C   0  0  0  0  0  0  0  0  0  0  0  0
  -29.8980  -20.3530   20.3370 N   0  0  0  0  0  0  0  0  0  0  0  0
  -31.1350  -18.9690   21.7720 N   0  0  0  0  0  0  0  0  0  0  0  0
  -31.5910  -18.8790   22.6720 H   0  0  0  0  0  0  0  0  0  0  0  0
  -27.1430  -21.1640   18.8460 C   0  0  0  0  0  1  0  0  0  0  0  0
  -28.6020  -21.6210   18.7200 C   0  0  0  0  0  2  0  0  0  0  0  0
  -30.4930  -17.7660   21.2480 C   0  0  0  0  0  2  0  0  0  0  0  0
  -31.1290  -16.4260   23.2920 C   0  0  0  0  0  1  0  0  0  0  0  0
  -31.1860  -16.4880   21.7550 C   0  0  0  0  0  3  0  0  0  0  0  0
  -31.0240  -14.4900   20.2120 C   0  0  0  0  0  0  0  0  0  0  0  0
  -30.5990  -12.3960   18.9530 C   0  0  0  0  0  2  0  0  0  0  0  0
  -29.6260  -12.6000   17.7730 C   0  0  0  0  0  2  0  0  0  0  0  0
  -28.1620  -12.5010   18.2440 C   0  0  0  0  0  2  0  0  0  0  0  0
  -27.8830  -13.3630   19.5020 C   0  0  0  0  0  3  0  0  0  0  0  0
  -28.9490  -13.1090   20.5890 C   0  0  0  0  0  2  0  0  0  0  0  0
  -30.2760  -13.3710   20.0020 N   0  0  0  0  0  0  0  0  0  0  0  0
  -32.0510  -14.7450   19.5740 O   0  0  0  0  0  0  0  0  0  0  0  0
  -30.5640  -15.2860   21.1920 N   0  0  0  0  0  0  0  0  0  0  0  0
  -29.7070  -14.9790   21.6250 H   0  0  0  0  0  0  0  0  0  0  0  0
  -25.5320  -14.0670   20.2800 C   0  0  0  0  0  0  0  0  0  0  0  0
  -24.4480  -13.3400   20.6870 C   0  0  0  0  0  0  0  0  0  0  0  0
  -24.8570  -11.9720   20.6530 C   0  0  0  0  0  0  0  0  0  0  0  0
  -26.5350  -13.1470   20.0210 N   0  0  0  0  0  0  0  0  0  0  0  0
  -26.1330  -11.8810   20.3030 N   0  0  0  0  0  0  0  0  0  0  0  0
  -24.0920  -10.7390   20.8750 C   0  0  0  0  0  0  0  0  0  0  0  0
  -24.5070   -9.7720   21.8180 C   0  0  0  0  0  3  0  0  0  0  0  0
  -23.7450   -8.6030   22.0250 C   0  0  0  0  0  3  0  0  0  0  0  0
  -22.5540   -8.3900   21.2880 C   0  0  0  0  0  0  0  0  0  0  0  0
  -22.1590   -9.3460   20.3370 C   0  0  0  0  0  3  0  0  0  0  0  0
  -22.9220  -10.5080   20.1270 C   0  0  0  0  0  3  0  0  0  0  0  0
  -21.7650   -7.2740   21.4030 O   0  0  0  0  0  0  0  0  0  0  0  0
  -21.6880   -6.5620   22.5730 C   0  0  0  0  0  0  0  0  0  0  0  0
  -21.3020   -7.1670   23.7890 C   0  0  0  0  0  3  0  0  0  0  0  0
  -21.1690   -6.3840   24.9540 C   0  0  0  0  0  3  0  0  0  0  0  0
  -21.4170   -4.9990   24.9050 C   0  0  0  0  0  0  0  0  0  0  0  0
  -21.8000   -4.3950   23.6930 C   0  0  0  0  0  3  0  0  0  0  0  0
  -21.9330   -5.1750   22.5310 C   0  0  0  0  0  0  0  0  0  0  0  0
  -22.2790   -4.5840   21.3620 F   0  0  0  0  0  0  0  0  0  0  0  0
  -21.2850   -4.2450   26.0220 F   0  0  0  0  0  0  0  0  0  0  0  0
  -23.0770  -13.8700   20.9940 C   0  0  0  0  0  0  0  0  0  0  0  0
  -22.3530  -13.2130   21.8910 N   0  0  0  0  0  0  0  0  0  0  0  0
  -22.6580  -14.9030   20.4700 O   0  0  0  0  0  0  0  0  0  0  0  0
  -22.7090  -12.3800   22.3400 H   0  0  0  0  0  0  0  0  0  0  0  0
  -21.4300  -13.5460   22.1350 H   0  0  0  0  0  0  0  0  0  0  0  0
  -25.7460  -15.4310   20.0880 N   0  0  0  0  0  0  0  0  0  0  0  0
  -25.0120  -16.1190   20.2120 H   0  0  0  0  0  0  0  0  0  0  0  0
  -26.6120  -15.8300   19.7490 H   0  0  0  0  0  0  0  0  0  0  0  0
  -28.6970  -23.8180   20.6350 O   0  0  0  0  0  0  0  0  0  0  0  0
  -29.5830  -24.7860   20.0770 C   0  0  0  0  0  2  0  0  0  0  0  0
  -28.8140  -25.8880   19.3210 C   0  0  0  0  0  2  0  0  0  0  0  0
  -28.4650  -26.9370   20.2210 O   0  0  0  0  0  0  0  0  0  0  0  0
  -24.5900  -31.9800   23.2590 C   0  0  0  0  0  0  0  0  0  0  0  0
  -27.2470  -27.5790   20.1580 C   0  0  0  0  0  0  0  0  0  0  0  0
  -23.3730  -30.5640   21.6280 C   0  0  0  0  0  3  0  0  0  0  0  0
  -24.8260  -29.0440   20.1830 C   0  0  0  0  0  0  0  0  0  0  0  0
  -25.8860  -30.9620   21.3960 C   0  0  0  0  0  2  0  0  0  0  0  0
  -25.9780  -29.5910   20.7580 C   0  0  0  0  0  0  0  0  0  0  0  0
  -27.1860  -28.8610   20.7480 C   0  0  0  0  0  3  0  0  0  0  0  0
  -26.0700  -27.0330   19.5920 C   0  0  0  0  0  3  0  0  0  0  0  0
  -24.8650  -27.7620   19.6020 C   0  0  0  0  0  3  0  0  0  0  0  0
  -23.5700  -29.8810   20.2460 C   0  0  0  0  0  2  0  0  0  0  0  0
  -24.6360  -31.1820   22.1540 N   0  0  0  0  0  0  0  0  0  0  0  0
  -23.5120  -32.2490   23.8080 O   0  0  0  0  0  0  0  0  0  0  0  0
  -22.7410  -29.5410   22.6000 C   0  0  0  0  0  0  0  0  0  0  0  0
  -21.4210  -29.3380   22.4740 N   0  0  0  0  0  0  0  0  0  0  0  0
  -23.4390  -28.9350   23.4170 O   0  0  0  0  0  0  0  0  0  0  0  0
  -20.9250  -29.8760   21.7800 H   0  0  0  0  0  0  0  0  0  0  0  0
  -18.0710  -28.0710   22.9510 C   0  0  0  0  0  0  0  0  0  0  0  0
  -20.6180  -28.3910   23.2490 C   0  0  0  0  0  3  0  0  0  0  0  0
  -20.7600  -26.9570   22.6920 C   0  0  0  0  0  2  0  0  0  0  0  0
  -19.6760  -26.5970   21.6710 C   0  0  0  0  0  2  0  0  0  0  0  0
  -18.2830  -26.7160   22.2980 C   0  0  0  0  0  2  0  0  0  0  0  0
  -19.1660  -28.8650   23.3810 C   0  0  0  0  0  0  0  0  0  0  0  0
  -18.9160  -30.1330   23.9520 C   0  0  0  0  0  3  0  0  0  0  0  0
  -17.5980  -30.6060   24.0960 C   0  0  0  0  0  3  0  0  0  0  0  0
  -16.5160  -29.8100   23.6830 C   0  0  0  0  0  3  0  0  0  0  0  0
  -16.7530  -28.5450   23.1160 C   0  0  0  0  0  3  0  0  0  0  0  0
  -25.8790  -32.6180   23.8660 C   0  0  0  0  0  3  0  0  0  0  0  0
  -25.5680  -34.0150   24.1960 N   0  0  0  0  0  0  0  0  0  0  0  0
  -25.9020  -35.0670   23.4370 C   0  0  0  0  0  0  0  0  0  0  0  0
  -26.5770  -34.9640   22.4080 O   0  0  0  0  0  0  0  0  0  0  0  0
  -24.9650  -34.1690   24.9930 H   0  0  0  0  0  0  0  0  0  0  0  0
  -24.1750  -36.8570   23.0710 C   0  0  0  0  0  1  0  0  0  0  0  0
  -25.4120  -36.4540   23.8890 C   0  0  0  0  0  3  0  0  0  0  0  0
  -27.5460  -37.3360   24.7240 C   0  0  0  0  0  1  0  0  0  0  0  0
  -26.4450  -37.5070   23.7820 N   0  0  0  0  0  0  0  0  0  0  0  0
  -26.0410  -38.4280   23.9260 H   0  0  0  0  0  0  0  0  0  0  0  0
  -26.4160  -31.8500   25.1380 C   0  0  1  0  0  0  0  0  0  0  0  0
  -25.3330  -31.6030   26.2150 C   0  0  0  0  0  1  0  0  0  0  0  0
  -27.0080  -30.4760   24.7390 C   0  0  0  0  0  1  0  0  0  0  0  0
  -27.5650  -32.6570   25.7920 C   0  0  0  0  0  1  0  0  0  0  0  0
  1  2  1  0
  3  1  2  0
  4  6  2  0
  4  3  1  0
  5  7  1  0
  5  2  2  0
  6  5  1  0
  7  8  1  0
 10  9  1  0
 10  4  1  0
 11 13  1  0
 11  7  1  0
 13 12  1  0
 14 22  1  0
 15 20  1  0
 16 17  1  0
 16 15  1  0
 18 17  1  0
 18 27  1  0
 18 19  1  0
 20 14  1  0
 20 19  1  0
 21 14  2  0
 22 23  1  0
 22 13  1  0
 24 25  2  0
 25 44  1  0
 26 25  1  0
 26 29  1  0
 27 24  1  0
 27 28  1  0
 28 26  2  0
 29 30  1  0
 30 31  2  0
 32 35  1  0
 32 31  1  0
 33 32  2  0
 34 33  1  0
 34 29  2  0
 35 36  1  0
 36 37  1  0
 37 38  2  0
 39 38  1  0
 39 43  1  0
 40 39  2  0
 41 36  2  0
 41 40  1  0
 42 41  1  0
 44 45  1  0
 45 48  1  0
 45 47  1  0
 46 44  2  0
 49 50  1  0
 49 24  1  0
 51 49  1  0
 52  3  1  0
 53 52  1  0
 54 53  1  0
 54 55  1  0
 56 67  2  0
 57 55  1  0
 57 62  1  0
 58 66  1  0
 58 68  1  0
 59 65  1  0
 59 61  1  0
 60 66  1  0
 61 60  1  0
 62 61  2  0
 63 64  1  0
 63 57  2  0
 64 59  2  0
 65 58  1  0
 66 56  1  0
 68 70  2  0
 69 68  1  0
 71 69  1  0
 72 81  2  0
 72 77  1  0
 73 69  1  0
 73 77  1  0
 74 73  1  0
 75 76  1  0
 75 74  1  0
 76 72  1  0
 77 78  2  0
 78 79  1  0
 80 79  2  0
 81 80  1  0
 82 56  1  0
 82 83  1  0
 82 92  1  0
 83 86  1  0
 84 88  1  0
 84 83  1  0
 85 84  2  0
 88 87  1  0
 90 88  1  0
 90 91  1  0
 90 89  1  0
 92 95  1  1
 92 93  1  0
 94 92  1  0
M  ISO  4  14 100  22 100  54 101  55 101
M  END
>  <TORSDO>  (14) 
F 22

>  <SCORE>  (14) 
-12.122

>  <name>  (14) 
13

>  <ligand_id>  (14) 
13

>  <original_smiles>  (14) 
[H]c1c(N([H])C([H])([H])C([H])(N([H])C(=O)N2C([H])([H])C([H])([H])C([H])([H])C([H])(n3nc(-c4c([H])c([H])c(Oc5c([H])c([H])c(F)c([H])c5F)c([H])c4[H])c(C(=O)N([H])[H])c3N([H])[H])C2([H])[H])C([H])([H])[H])nc(C([H])([H])C([H])([H])[H])c(OC([H])([H])C([H])([H])Oc2c([H])c([H])c3c(c2[H])C([H])([H])N(C(=O)C([H])(N([H])C(=O)C([H])(N([H])C([H])([H])[H])C([H])([H])[H])C(C([H])([H])[H])(C([H])([H])[H])C([H])([H])[H])C([H])(C(=O)N([H])C2([H])c4c([H])c([H])c([H])c([H])c4C([H])([H])C([H])([H])C2([H])[H])C3([H])[H])c1[H]

>  <smiles>  (14) 
[H]c1c(N([H])C([H])([H])C([H])(N([H])C(=O)N2C([H])([H])C([H])([H])C([H])([H])C([H])(n3nc(-c4c([H])c([H])c(Oc5c([H])c([H])c(F)c([H])c5F)c([H])c4[H])c(C(=O)N([H])[H])c3N([H])[H])C2([H])[H])C([H])([H])[H])nc(C([H])([H])C([H])([H])[H])c(OC([H])([H])C([H])([H])Oc2c([H])c([H])c3c(c2[H])C([H])([H])N(C(=O)C([H])(N([H])C(=O)C([H])(N([H])C([H])([H])[H])C([H])([H])[H])C(C([H])([H])[H])(C([H])([H])[H])C([H])([H])[H])C([H])(C(=O)N([H])C2([H])c4c([H])c([H])c([H])c([H])c4C([H])([H])C([H])([H])C2([H])[H])C3([H])[H])c1[H]

$$$$
14:0:0
     RDKit          3D

 95104  0  0  1  0  0  0  0  0999 V2000
  -29.2170  -21.9730   20.1260 C   0  0  0  0  0  2  0  0  0  0  0  0
  -30.1070  -25.3920   19.1030 C   0  0  0  0  0  2  0  0  0  0  0  0
  -30.2470  -23.8820   18.8560 C   0  0  0  0  0  2  0  0  0  0  0  0
  -28.2490  -24.3000   20.0920 C   0  0  0  0  0  2  0  0  0  0  0  0
  -28.6200  -25.6030   19.3680 C   0  0  0  0  0  3  0  0  0  0  0  0
  -29.0140  -23.2460   19.3810 N   0  0  2  0  0  4  0  0  0  0  0  0
  -28.4600  -23.0110   18.5690 H   0  0  0  0  0  0  0  0  0  0  0  0
  -28.4360  -26.7870   20.1470 O   0  0  0  0  0  0  0  0  0  0  0  0
  -24.5740  -31.8810   23.2310 C   0  0  0  0  0  0  0  0  0  0  0  0
  -27.2240  -27.4500   20.1400 C   0  0  0  0  0  0  0  0  0  0  0  0
  -23.3660  -30.4830   21.5860 C   0  0  0  0  0  3  0  0  0  0  0  0
  -24.8180  -28.9430   20.1620 C   0  0  0  0  0  0  0  0  0  0  0  0
  -25.8900  -30.8400   21.3890 C   0  0  0  0  0  2  0  0  0  0  0  0
  -25.9730  -29.4690   20.7520 C   0  0  0  0  0  0  0  0  0  0  0  0
  -27.1730  -28.7260   20.7430 C   0  0  0  0  0  3  0  0  0  0  0  0
  -26.0430  -26.9260   19.5610 C   0  0  0  0  0  3  0  0  0  0  0  0
  -24.8470  -27.6690   19.5700 C   0  0  0  0  0  3  0  0  0  0  0  0
  -23.5740  -29.8020   20.2060 C   0  0  0  0  0  2  0  0  0  0  0  0
  -24.6280  -31.0830   22.1270 N   0  0  0  0  0  0  0  0  0  0  0  0
  -23.4930  -32.1550   23.7700 O   0  0  0  0  0  0  0  0  0  0  0  0
  -22.7140  -29.4610   22.5440 C   0  0  0  0  0  0  0  0  0  0  0  0
  -21.3900  -29.2810   22.4150 N   0  0  0  0  0  0  0  0  0  0  0  0
  -23.3970  -28.8330   23.3580 O   0  0  0  0  0  0  0  0  0  0  0  0
  -20.9020  -29.8400   21.7300 H   0  0  0  0  0  0  0  0  0  0  0  0
  -18.0140  -28.0940   22.9040 C   0  0  0  0  0  0  0  0  0  0  0  0
  -20.5700  -28.3440   23.1840 C   0  0  0  0  0  3  0  0  0  0  0  0
  -20.6720  -26.9140   22.6050 C   0  0  0  0  0  2  0  0  0  0  0  0
  -19.5710  -26.5960   21.5880 C   0  0  0  0  0  2  0  0  0  0  0  0
  -18.1890  -26.7440   22.2290 C   0  0  0  0  0  2  0  0  0  0  0  0
  -19.1340  -28.8520   23.3380 C   0  0  0  0  0  0  0  0  0  0  0  0
  -18.9180  -30.1160   23.9280 C   0  0  0  0  0  3  0  0  0  0  0  0
  -17.6140  -30.6220   24.0900 C   0  0  0  0  0  3  0  0  0  0  0  0
  -16.5080  -29.8610   23.6730 C   0  0  0  0  0  3  0  0  0  0  0  0
  -16.7090  -28.5980   23.0870 C   0  0  0  0  0  3  0  0  0  0  0  0
  -25.8610  -32.5090   23.8510 C   0  0  0  0  0  3  0  0  0  0  0  0
  -26.3830  -31.7310   25.1220 C   0  0  1  0  0  0  0  0  0  0  0  0
  -25.2930  -31.4890   26.1920 C   0  0  0  0  0  1  0  0  0  0  0  0
  -26.9630  -30.3550   24.7190 C   0  0  0  0  0  1  0  0  0  0  0  0
  -27.5360  -32.5210   25.7830 C   0  0  0  0  0  1  0  0  0  0  0  0
  -25.5560  -33.9060   24.1850 N   0  0  0  0  0  0  0  0  0  0  0  0
  -25.8930  -34.9590   23.4290 C   0  0  0  0  0  0  0  0  0  0  0  0
  -26.5660  -34.8570   22.4000 O   0  0  0  0  0  0  0  0  0  0  0  0
  -24.9590  -34.0590   24.9850 H   0  0  0  0  0  0  0  0  0  0  0  0
  -24.1700  -36.7550   23.0690 C   0  0  0  0  0  1  0  0  0  0  0  0
  -25.4050  -36.3470   23.8870 C   0  0  0  0  0  3  0  0  0  0  0  0
  -27.5380  -37.2220   24.7320 C   0  0  0  0  0  1  0  0  0  0  0  0
  -26.4420  -37.3980   23.7850 N   0  0  0  0  0  0  0  0  0  0  0  0
  -26.0370  -38.3180   23.9350 H   0  0  0  0  0  0  0  0  0  0  0  0
  -29.6490  -20.8260   19.1790 C   0  0  0  0  0  2  0  0  0  0  0  0
  -31.0950  -17.5840   20.7230 C   0  0  0  0  0  3  0  0  0  0  0  0
  -28.7110  -17.2830   20.3890 C   0  0  0  0  0  3  0  0  0  0  0  0
  -30.9940  -18.9200   20.2710 C   0  0  0  0  0  0  0  0  0  0  0  0
  -28.5960  -18.6030   19.9060 C   0  0  0  0  0  0  0  0  0  0  0  0
  -29.7460  -19.4340   19.8210 C   0  0  0  0  0  0  0  0  0  0  0  0
  -29.9600  -16.7480   20.7510 C   0  0  0  0  0  0  0  0  0  0  0  0
  -32.2580  -19.7660   20.2510 C   0  0  0  0  0  1  0  0  0  0  0  0
  -27.2260  -19.0800   19.4480 C   0  0  0  0  0  1  0  0  0  0  0  0
  -30.6910  -14.4350   20.4630 C   0  0  0  0  0  0  0  0  0  0  0  0
  -30.3710  -12.3110   19.2560 C   0  0  0  0  0  2  0  0  0  0  0  0
  -29.4200  -12.5580   18.0660 C   0  0  0  0  0  2  0  0  0  0  0  0
  -27.9470  -12.4290   18.5010 C   0  0  0  0  0  2  0  0  0  0  0  0
  -27.6290  -13.2390   19.7870 C   0  0  0  0  0  3  0  0  0  0  0  0
  -28.6860  -12.9610   20.8800 C   0  0  0  0  0  2  0  0  0  0  0  0
  -30.0180  -13.2620   20.3190 N   0  0  0  0  0  0  0  0  0  0  0  0
  -31.7920  -14.6480   19.9450 O   0  0  0  0  0  0  0  0  0  0  0  0
  -30.0220  -15.3830   21.1400 N   0  0  0  0  0  0  0  0  0  0  0  0
  -29.1810  -15.0240   21.5650 H   0  0  0  0  0  0  0  0  0  0  0  0
  -25.2290  -13.8570   20.4940 C   0  0  0  0  0  0  0  0  0  0  0  0
  -24.1630  -13.0900   20.8740 C   0  0  0  0  0  0  0  0  0  0  0  0
  -24.6200  -11.7370   20.8450 C   0  0  0  0  0  0  0  0  0  0  0  0
  -26.2740  -12.9730   20.2660 N   0  0  0  0  0  0  0  0  0  0  0  0
  -25.9080  -11.6930   20.5310 N   0  0  0  0  0  0  0  0  0  0  0  0
  -23.8910  -10.4780   21.0420 C   0  0  0  0  0  0  0  0  0  0  0  0
  -24.3330   -9.5040   21.9650 C   0  0  0  0  0  3  0  0  0  0  0  0
  -23.6050   -8.3090   22.1480 C   0  0  0  0  0  3  0  0  0  0  0  0
  -22.4210   -8.0780   21.4090 C   0  0  0  0  0  0  0  0  0  0  0  0
  -21.9970   -9.0390   20.4760 C   0  0  0  0  0  3  0  0  0  0  0  0
  -22.7250  -10.2260   20.2900 C   0  0  0  0  0  3  0  0  0  0  0  0
  -21.6640   -6.9350   21.5040 O   0  0  0  0  0  0  0  0  0  0  0  0
  -21.6370   -6.1820   22.6500 C   0  0  0  0  0  0  0  0  0  0  0  0
  -21.2490   -6.7300   23.8920 C   0  0  0  0  0  3  0  0  0  0  0  0
  -21.1680   -5.9030   25.0310 C   0  0  0  0  0  3  0  0  0  0  0  0
  -21.4660   -4.5310   24.9280 C   0  0  0  0  0  0  0  0  0  0  0  0
  -21.8490   -3.9830   23.6910 C   0  0  0  0  0  3  0  0  0  0  0  0
  -21.9310   -4.8070   22.5550 C   0  0  0  0  0  0  0  0  0  0  0  0
  -22.2790   -4.2700   21.3610 F   0  0  0  0  0  0  0  0  0  0  0  0
  -21.3810   -3.7350   26.0200 F   0  0  0  0  0  0  0  0  0  0  0  0
  -22.7670  -13.5710   21.1520 C   0  0  0  0  0  0  0  0  0  0  0  0
  -22.0420  -12.8810   22.0250 N   0  0  0  0  0  0  0  0  0  0  0  0
  -22.3290  -14.5960   20.6300 O   0  0  0  0  0  0  0  0  0  0  0  0
  -22.4080  -12.0510   22.4690 H   0  0  0  0  0  0  0  0  0  0  0  0
  -21.1070  -13.1860   22.2520 H   0  0  0  0  0  0  0  0  0  0  0  0
  -25.3920  -15.2250   20.3000 N   0  0  0  0  0  0  0  0  0  0  0  0
  -24.6130  -15.8690   20.3760 H   0  0  0  0  0  0  0  0  0  0  0  0
  -26.2050  -15.6350   19.8630 H   0  0  0  0  0  0  0  0  0  0  0  0
  2  5  1  0
  3  2  1  0
  3  6  1  0
  5  4  1  0
  5  8  1  0
  6  4  1  0
  6  1  1  0
  6  7  1  6
  9 20  2  0
 10  8  1  0
 10 15  1  0
 11 19  1  0
 11 21  1  0
 12 18  1  0
 12 14  1  0
 13 19  1  0
 14 13  1  0
 15 14  2  0
 16 17  1  0
 16 10  2  0
 17 12  2  0
 18 11  1  0
 19  9  1  0
 21 23  2  0
 22 21  1  0
 24 22  1  0
 25 34  2  0
 25 30  1  0
 26 22  1  0
 26 30  1  0
 27 26  1  0
 28 29  1  0
 28 27  1  0
 29 25  1  0
 30 31  2  0
 31 32  1  0
 33 32  2  0
 34 33  1  0
 35  9  1  0
 35 40  1  0
 35 36  1  0
 36 39  1  1
 36 37  1  0
 38 36  1  0
 40 43  1  0
 41 45  1  0
 41 40  1  0
 42 41  2  0
 45 44  1  0
 47 45  1  0
 47 48  1  0
 47 46  1  0
 49 54  1  0
 49  1  1  0
 50 55  1  0
 51 55  2  0
 52 50  2  0
 53 51  1  0
 54 53  2  0
 54 52  1  0
 55 66  1  0
 56 52  1  0
 57 53  1  0
 58 66  1  0
 59 64  1  0
 60 61  1  0
 60 59  1  0
 62 61  1  0
 62 71  1  0
 62 63  1  0
 64 58  1  0
 64 63  1  0
 65 58  2  0
 66 67  1  0
 68 69  2  0
 69 88  1  0
 70 69  1  0
 70 73  1  0
 71 68  1  0
 71 72  1  0
 72 70  2  0
 73 74  1  0
 74 75  2  0
 76 79  1  0
 76 75  1  0
 77 76  2  0
 78 77  1  0
 78 73  2  0
 79 80  1  0
 80 81  1  0
 81 82  2  0
 83 82  1  0
 83 87  1  0
 84 83  2  0
 85 80  2  0
 85 84  1  0
 86 85  1  0
 88 89  1  0
 89 92  1  0
 89 91  1  0
 90 88  2  0
 93 94  1  0
 93 68  1  0
 95 93  1  0
M  ISO  4   5 101   8 101  58 100  66 100
M  END
>  <TORSDO>  (15) 
F 19

>  <SCORE>  (15) 
-14.564

>  <name>  (15) 
14

>  <ligand_id>  (15) 
14

>  <original_smiles>  (15) 
[H]c1c([H])c([H])c2c(c1[H])C([H])([H])C([H])([H])C([H])([H])C2([H])N([H])C(=O)C1([H])N(C(=O)C([H])(N([H])C(=O)C([H])(N([H])C([H])([H])[H])C([H])([H])[H])C(C([H])([H])[H])(C([H])([H])[H])C([H])([H])[H])C([H])([H])c2c([H])c(OC3([H])C([H])([H])C([H])([H])[N+]([H])(C([H])([H])C([H])([H])c4c(C([H])([H])[H])c([H])c(N([H])C(=O)N5C([H])([H])C([H])([H])C([H])([H])C([H])(n6nc(-c7c([H])c([H])c(Oc8c([H])c([H])c(F)c([H])c8F)c([H])c7[H])c(C(=O)N([H])[H])c6N([H])[H])C5([H])[H])c([H])c4C([H])([H])[H])C3([H])[H])c([H])c([H])c2C1([H])[H]

>  <smiles>  (15) 
[H]c1c([H])c([H])c2c(c1[H])C([H])([H])C([H])([H])C([H])([H])C2([H])N([H])C(=O)C1([H])N(C(=O)C([H])(N([H])C(=O)C([H])(N([H])C([H])([H])[H])C([H])([H])[H])C(C([H])([H])[H])(C([H])([H])[H])C([H])([H])[H])C([H])([H])c2c([H])c(OC3([H])C([H])([H])C([H])([H])[N+]([H])(C([H])([H])C([H])([H])c4c(C([H])([H])[H])c([H])c(N([H])C(=O)N5C([H])([H])C([H])([H])C([H])([H])C([H])(n6nc(-c7c([H])c([H])c(Oc8c([H])c([H])c(F)c([H])c8F)c([H])c7[H])c(C(=O)N([H])[H])c6N([H])[H])C5([H])[H])c([H])c4C([H])([H])[H])C3([H])[H])c([H])c([H])c2C1([H])[H]

$$$$
15:0:0
     RDKit          3D

100 99  0  0  1  0  0  0  0  0999 V2000
  -19.9910  -26.0270   18.9990 C   0  0  0  0  0  3  0  0  0  0  0  0
  -19.0620  -25.4340   20.2120 C   0  0  0  0  0  3  0  0  0  0  0  0
  -21.1760  -28.2990   20.4250 C   0  0  0  0  0  2  0  0  0  0  0  0
  -20.4880  -27.9260   21.9870 C   0  0  0  0  0  1  0  0  0  0  0  0
  -21.0510  -27.2850   19.0940 C   0  0  0  0  0  3  0  0  0  0  0  0
  -19.1540  -26.1080   21.7430 C   0  0  0  0  0  2  0  0  0  0  0  0
  -18.5290  -25.0510   22.7300 C   0  0  0  0  0  1  0  0  0  0  0  0
  -23.7230  -26.1810   24.0370 C   0  0  0  0  0  2  0  0  0  0  0  0
  -22.3450  -25.3440   24.7990 C   0  0  0  0  0  1  0  0  0  0  0  0
  -24.4620  -24.6990   23.0760 C   0  0  0  0  0  2  0  0  0  0  0  0
  -23.2040  -23.6180   24.2320 C   0  0  0  0  0  1  0  0  0  0  0  0
  -22.0170  -27.2420   24.1950 C   0  0  0  0  0 15  0  0  0  0  0  0
  -24.8080  -22.9230   23.4290 C   0  0  0  0  0  2  0  0  0  0  0  0
  -25.8170  -20.8870   22.7990 C   0  0  0  0  0 15  0  0  0  0  0  0
  -27.2610  -19.3410   21.7890 C   0  0  0  0  0 15  0  0  0  0  0  0
  -29.2910  -16.2250   20.9940 C   0  0  0  0  0  0  0  0  0  0  0  0
  -30.1880  -13.6940   19.8270 C   0  0  0  0  0  2  0  0  0  0  0  0
  -29.5490  -12.9520   18.5600 C   0  0  0  0  0  2  0  0  0  0  0  0
  -28.1840  -12.3460   18.8850 C   0  0  0  0  0  2  0  0  0  0  0  0
  -27.4980  -13.3160   19.8590 C   0  0  0  0  0  3  0  0  0  0  0  0
  -28.3160  -13.6800   21.1140 C   0  0  0  0  0  2  0  0  0  0  0  0
  -29.2610  -14.7000   20.6950 N   0  0  0  0  0  0  0  0  0  0  0  0
  -30.4960  -16.3580   20.5640 O   0  0  0  0  0  0  0  0  0  0  0  0
  -28.1860  -17.4650   21.6450 N   0  0  0  0  0  2  0  0  0  0  0  0
  -28.0470  -17.0790   22.5990 H   0  0  0  0  0  0  0  0  0  0  0  0
  -25.1730  -13.8140   20.5690 C   0  0  0  0  0  0  0  0  0  0  0  0
  -24.1220  -13.0280   20.9240 C   0  0  0  0  0  0  0  0  0  0  0  0
  -24.6000  -11.6820   20.8740 C   0  0  0  0  0  0  0  0  0  0  0  0
  -26.1940  -12.9380   20.2870 N   0  0  0  0  0  0  0  0  0  0  0  0
  -25.8860  -11.6500   20.5490 N   0  0  0  0  0  0  0  0  0  0  0  0
  -23.8860  -10.4180   21.0420 C   0  0  0  0  0  0  0  0  0  0  0  0
  -24.3480   -9.4130   21.9200 C   0  0  0  0  0  3  0  0  0  0  0  0
  -23.6200   -8.2140   22.0750 C   0  0  0  0  0  3  0  0  0  0  0  0
  -22.4170   -8.0170   21.3560 C   0  0  0  0  0  0  0  0  0  0  0  0
  -21.9780   -9.0110   20.4650 C   0  0  0  0  0  3  0  0  0  0  0  0
  -22.7050  -10.2010   20.3060 C   0  0  0  0  0  3  0  0  0  0  0  0
  -21.6550   -6.8780   21.4240 O   0  0  0  0  0  0  0  0  0  0  0  0
  -21.6790   -6.0680   22.5300 C   0  0  0  0  0  0  0  0  0  0  0  0
  -21.3970   -6.5610   23.8230 C   0  0  0  0  0  3  0  0  0  0  0  0
  -21.3640   -5.6780   24.9210 C   0  0  0  0  0  3  0  0  0  0  0  0
  -21.6050   -4.3040   24.7260 C   0  0  0  0  0  0  0  0  0  0  0  0
  -21.8810   -3.8110   23.4380 C   0  0  0  0  0  3  0  0  0  0  0  0
  -21.9180   -4.6920   22.3430 C   0  0  0  0  0  0  0  0  0  0  0  0
  -22.1650   -4.2090   21.1020 F   0  0  0  0  0  0  0  0  0  0  0  0
  -21.5640   -3.4540   25.7790 F   0  0  0  0  0  0  0  0  0  0  0  0
  -22.7320  -13.5070   21.1960 C   0  0  0  0  0  0  0  0  0  0  0  0
  -22.0000  -12.8140   22.0570 N   0  0  0  0  0  0  0  0  0  0  0  0
  -22.3060  -14.5380   20.6780 O   0  0  0  0  0  0  0  0  0  0  0  0
  -22.3620  -11.9820   22.4980 H   0  0  0  0  0  0  0  0  0  0  0  0
  -21.0630  -13.1220   22.2750 H   0  0  0  0  0  0  0  0  0  0  0  0
  -25.3490  -15.1920   20.4340 N   0  0  0  0  0  0  0  0  0  0  0  0
  -24.5960  -15.8540   20.5940 H   0  0  0  0  0  0  0  0  0  0  0  0
  -26.2120  -15.6330   20.1450 H   0  0  0  0  0  0  0  0  0  0  0  0
  -22.4390  -26.8450   18.3440 C   0  0  0  0  0  2  0  0  0  0  0  0
  -23.6660  -26.4000   19.2270 N   0  0  0  0  0  4  0  0  0  0  0  0
  -23.2420  -26.0390   20.0620 H   0  0  0  0  0  0  0  0  0  0  0  0
  -24.1530  -27.2640   19.4560 H   0  0  0  0  0  0  0  0  0  0  0  0
  -24.7940  -25.3600   18.9390 C   0  0  0  0  0  2  0  0  0  0  0  0
  -26.2160  -25.2850   19.8650 C   0  0  0  0  0  2  0  0  0  0  0  0
  -27.4640  -26.1870   19.9610 O   0  0  0  0  0  0  0  0  0  0  0  0
  -24.5480  -31.8070   23.2260 C   0  0  0  0  0  0  0  0  0  0  0  0
  -27.0770  -27.4770   19.8730 C   0  0  0  0  0  0  0  0  0  0  0  0
  -23.4680  -30.1570   21.5670 C   0  0  0  0  0  3  0  0  0  0  0  0
  -25.0270  -29.2920   19.9000 C   0  0  0  0  0  0  0  0  0  0  0  0
  -25.9910  -30.7230   21.5940 C   0  0  0  0  0  2  0  0  0  0  0  0
  -26.0900  -29.4790   20.7700 C   0  0  0  0  0  0  0  0  0  0  0  0
  -27.1270  -28.5100   20.8450 C   0  0  0  0  0  3  0  0  0  0  0  0
  -26.2840  -27.6400   18.7590 C   0  0  0  0  0  3  0  0  0  0  0  0
  -25.1900  -28.4790   18.8130 C   0  0  0  0  0  3  0  0  0  0  0  0
  -23.8240  -30.1340   20.0630 C   0  0  0  0  0  2  0  0  0  0  0  0
  -24.6460  -30.9450   22.1770 N   0  0  0  0  0  0  0  0  0  0  0  0
  -23.4590  -32.0940   23.7350 O   0  0  0  0  0  0  0  0  0  0  0  0
  -23.2800  -28.7090   22.3240 C   0  0  0  0  0  0  0  0  0  0  0  0
  -22.7660  -27.3090   21.9740 N   0  0  0  0  0  2  0  0  0  0  0  0
  -23.7140  -28.9220   23.4440 O   0  0  0  0  0  0  0  0  0  0  0  0
  -22.5880  -27.4020   20.9930 H   0  0  0  0  0  0  0  0  0  0  0  0
  -18.0960  -27.7890   23.1550 C   0  0  0  0  0  0  0  0  0  0  0  0
  -21.3250  -26.0130   22.5790 C   0  0  0  0  0  1  0  0  0  0  0  0
  -21.2340  -25.9850   21.0580 C   0  0  0  0  0  1  0  0  0  0  0  0
  -18.9250  -27.7780   20.3060 C   0  0  0  0  0  1  0  0  0  0  0  0
  -17.8110  -28.0640   21.5580 C   0  0  0  0  0  3  0  0  0  0  0  0
  -19.4760  -27.2980   23.8640 C   0  0  0  0  0  2  0  0  0  0  0  0
  -19.4940  -28.8090   24.3360 C   0  0  0  0  0  3  0  0  0  0  0  0
  -18.4800  -29.9170   24.4160 C   0  0  0  0  0  3  0  0  0  0  0  0
  -17.1240  -29.7170   24.1040 C   0  0  0  0  0  2  0  0  0  0  0  0
  -16.9180  -28.4310   23.6380 C   0  0  0  0  0  2  0  0  0  0  0  0
  -25.8380  -32.4650   23.8390 C   0  0  0  0  0  3  0  0  0  0  0  0
  -25.5200  -33.8500   24.2120 N   0  0  0  0  0  0  0  0  0  0  0  0
  -25.8760  -34.9380   23.5130 C   0  0  0  0  0  0  0  0  0  0  0  0
  -26.5650  -34.8760   22.4900 O   0  0  0  0  0  0  0  0  0  0  0  0
  -24.8980  -33.9780   24.9970 H   0  0  0  0  0  0  0  0  0  0  0  0
  -24.1470  -36.7270   23.2720 C   0  0  0  0  0  1  0  0  0  0  0  0
  -25.4040  -36.3050   24.0440 C   0  0  0  0  0  3  0  0  0  0  0  0
  -27.5580  -37.1730   24.8500 C   0  0  0  0  0  1  0  0  0  0  0  0
  -26.4290  -37.3700   23.9440 N   0  0  0  0  0  0  0  0  0  0  0  0
  -26.0190  -38.2810   24.1220 H   0  0  0  0  0  0  0  0  0  0  0  0
  -26.4210  -31.6680   25.0780 C   0  0  1  0  0  0  0  0  0  0  0  0
  -25.3630  -31.3980   26.1660 C   0  0  0  0  0  1  0  0  0  0  0  0
  -27.0440  -30.3010   24.6980 C   0  0  0  0  0  1  0  0  0  0  0  0
  -27.5750  -32.4700   25.7030 C   0  0  0  0  0  1  0  0  0  0  0  0
  1  5  1  0
  1  2  2  0
  2  6  1  0
  3  4  1  0
  5 54  1  0
  5  3  1  0
  6  7  1  0
  8  9  1  0
 10 13  1  0
 10  8  1  0
 13 11  1  0
 16 24  1  0
 17 22  1  0
 18 19  1  0
 18 17  1  0
 20 19  1  0
 20 29  1  0
 20 21  1  0
 22 16  1  0
 22 21  1  0
 23 16  2  0
 24 25  1  0
 26 27  2  0
 27 46  1  0
 28 27  1  0
 28 31  1  0
 29 30  1  0
 29 26  1  0
 30 28  2  0
 31 32  1  0
 32 33  2  0
 34 37  1  0
 34 33  1  0
 35 34  2  0
 36 35  1  0
 36 31  2  0
 37 38  1  0
 38 39  1  0
 39 40  2  0
 41 40  1  0
 41 45  1  0
 42 41  2  0
 43 38  2  0
 43 42  1  0
 44 43  1  0
 46 47  1  0
 47 50  1  0
 47 49  1  0
 48 46  2  0
 51 26  1  0
 51 52  1  0
 53 51  1  0
 54 55  1  0
 55 57  1  0
 55 56  1  0
 58 55  1  0
 58 59  1  0
 59 60  1  0
 61 72  2  0
 62 60  1  0
 62 67  1  0
 63 71  1  0
 63 73  1  0
 64 70  1  0
 64 66  1  0
 65 71  1  0
 66 67  2  0
 66 65  1  0
 68 69  1  0
 68 62  2  0
 69 64  2  0
 70 63  1  0
 71 61  1  0
 73 75  2  0
 74 73  1  0
 76 74  1  0
 77 86  1  0
 77 82  1  0
 79 78  1  0
 80 81  1  0
 81 77  2  0
 82 83  1  0
 83 84  2  0
 85 84  1  0
 86 85  1  0
 87 61  1  0
 87 88  1  0
 87 97  1  0
 88 91  1  0
 89 93  1  0
 89 88  1  0
 90 89  2  0
 93 92  1  0
 95 93  1  0
 95 96  1  0
 95 94  1  0
 97100  1  1
 97 98  1  0
 99 97  1  0
M  ISO  4  16 100  24 100  59 101  60 101
M  END
>  <TORSDO>  (16) 
F 23

>  <SCORE>  (16) 
10.522

>  <name>  (16) 
15

>  <ligand_id>  (16) 
15

>  <original_smiles>  (16) 
[H]c1c([H])c([H])c2c(c1[H])C([H])([H])C([H])([H])C([H])([H])C2([H])N([H])C(=O)C1([H])N(C(=O)C([H])(N([H])C(=O)C([H])(N([H])C([H])([H])[H])C([H])([H])[H])C(C([H])([H])[H])(C([H])([H])[H])C([H])([H])[H])C([H])([H])c2c([H])c(OC([H])([H])C([H])([H])[N+]([H])([H])C([H])([H])c3c([H])c([H])c(C([H])([H])[H])c(C4([H])C([H])([H])C([H])([H])C([H])(C([H])([H])C([H])([H])N([H])C(=O)N5C([H])([H])C([H])([H])C([H])([H])C([H])(n6nc(-c7c([H])c([H])c(Oc8c([H])c([H])c(F)c([H])c8F)c([H])c7[H])c(C(=O)N([H])[H])c6N([H])[H])C5([H])[H])C([H])([H])C4([H])[H])c3[H])c([H])c([H])c2C1([H])[H]

>  <smiles>  (16) 
[H]c1c([H])c([H])c2c(c1[H])C([H])([H])C([H])([H])C([H])([H])C2([H])N([H])C(=O)C1([H])N(C(=O)C([H])(N([H])C(=O)C([H])(N([H])C([H])([H])[H])C([H])([H])[H])C(C([H])([H])[H])(C([H])([H])[H])C([H])([H])[H])C([H])([H])c2c([H])c(OC([H])([H])C([H])([H])[N+]([H])([H])C([H])([H])c3c([H])c([H])c(C([H])([H])[H])c(C4([H])C([H])([H])C([H])([H])C([H])(C([H])([H])C([H])([H])N([H])C(=O)N5C([H])([H])C([H])([H])C([H])([H])C([H])(n6nc(-c7c([H])c([H])c(Oc8c([H])c([H])c(F)c([H])c8F)c([H])c7[H])c(C(=O)N([H])[H])c6N([H])[H])C5([H])[H])C([H])([H])C4([H])[H])c3[H])c([H])c([H])c2C1([H])[H]

$$$$
16:0:0
     RDKit          3D

 93101  0  0  1  0  0  0  0  0999 V2000
  -29.5680  -20.1260   20.8170 C   0  0  0  0  0  2  0  0  0  0  0  0
  -29.7450  -17.7950   19.7850 C   0  0  0  0  0  0  0  0  0  0  0  0
  -29.7810  -18.6820   20.9190 C   0  0  0  0  0  0  0  0  0  0  0  0
  -29.4640  -18.5360   18.5880 C   0  0  0  0  0  3  0  0  0  0  0  0
  -29.2630  -20.7700   19.5810 C   0  0  0  0  0  0  0  0  0  0  0  0
  -29.2900  -17.8000   17.2740 C   0  0  0  0  0  1  0  0  0  0  0  0
  -29.2340  -19.9090   18.5070 N   0  0  0  0  0  0  0  0  0  0  0  0
  -30.5190  -15.1450   19.5560 C   0  0  0  0  0  0  0  0  0  0  0  0
  -30.3250  -12.7970   18.6220 C   0  0  0  0  0  2  0  0  0  0  0  0
  -29.2680  -12.7920   17.4910 C   0  0  0  0  0  2  0  0  0  0  0  0
  -27.8510  -12.5870   18.0630 C   0  0  0  0  0  2  0  0  0  0  0  0
  -27.5770  -13.4880   19.2980 C   0  0  0  0  0  3  0  0  0  0  0  0
  -28.7450  -13.4500   20.3100 C   0  0  0  0  0  2  0  0  0  0  0  0
  -29.9560  -13.8690   19.5900 N   0  0  0  0  0  0  0  0  0  0  0  0
  -31.6480  -15.2620   19.0670 O   0  0  0  0  0  0  0  0  0  0  0  0
  -29.7500  -16.2640   19.9610 N   0  0  0  0  0  0  0  0  0  0  0  0
  -28.9760  -15.9570   20.5330 H   0  0  0  0  0  0  0  0  0  0  0  0
  -25.2860  -14.0700   20.2820 C   0  0  0  0  0  0  0  0  0  0  0  0
  -24.2590  -13.2990   20.7500 C   0  0  0  0  0  0  0  0  0  0  0  0
  -24.7050  -11.9440   20.6500 C   0  0  0  0  0  0  0  0  0  0  0  0
  -26.2920  -13.1900   19.9220 N   0  0  0  0  0  0  0  0  0  0  0  0
  -25.9570  -11.9040   20.2040 N   0  0  0  0  0  0  0  0  0  0  0  0
  -23.9900  -10.6860   20.8960 C   0  0  0  0  0  0  0  0  0  0  0  0
  -24.4660   -9.7330   21.8230 C   0  0  0  0  0  3  0  0  0  0  0  0
  -23.7500   -8.5400   22.0570 C   0  0  0  0  0  3  0  0  0  0  0  0
  -22.5410   -8.2900   21.3640 C   0  0  0  0  0  0  0  0  0  0  0  0
  -22.0820   -9.2310   20.4260 C   0  0  0  0  0  3  0  0  0  0  0  0
  -22.7990  -10.4160   20.1900 C   0  0  0  0  0  3  0  0  0  0  0  0
  -21.7910   -7.1470   21.5080 O   0  0  0  0  0  0  0  0  0  0  0  0
  -21.7110   -6.4850   22.7070 C   0  0  0  0  0  0  0  0  0  0  0  0
  -21.1960   -7.1020   23.8670 C   0  0  0  0  0  3  0  0  0  0  0  0
  -21.0670   -6.3620   25.0590 C   0  0  0  0  0  3  0  0  0  0  0  0
  -21.4450   -5.0060   25.0920 C   0  0  0  0  0  0  0  0  0  0  0  0
  -21.9540   -4.3880   23.9360 C   0  0  0  0  0  3  0  0  0  0  0  0
  -22.0840   -5.1250   22.7460 C   0  0  0  0  0  0  0  0  0  0  0  0
  -22.5550   -4.5190   21.6290 F   0  0  0  0  0  0  0  0  0  0  0  0
  -21.3140   -4.2940   26.2360 F   0  0  0  0  0  0  0  0  0  0  0  0
  -22.9020  -13.7830   21.1720 C   0  0  0  0  0  0  0  0  0  0  0  0
  -22.2750  -13.1020   22.1240 N   0  0  0  0  0  0  0  0  0  0  0  0
  -22.4120  -14.8030   20.6910 O   0  0  0  0  0  0  0  0  0  0  0  0
  -22.6870  -12.2780   22.5370 H   0  0  0  0  0  0  0  0  0  0  0  0
  -21.3690  -13.4100   22.4450 H   0  0  0  0  0  0  0  0  0  0  0  0
  -25.4380  -15.4440   20.1100 N   0  0  0  0  0  0  0  0  0  0  0  0
  -24.6820  -16.0920   20.3010 H   0  0  0  0  0  0  0  0  0  0  0  0
  -26.2380  -15.8870   19.6770 H   0  0  0  0  0  0  0  0  0  0  0  0
  -30.0010  -18.0420   22.1220 O   0  0  0  0  0  0  0  0  0  0  0  0
  -30.2450  -18.8230   23.2830 C   0  0  0  0  0  2  0  0  0  0  0  0
  -30.5260  -18.5940   25.8100 C   0  0  0  0  0  1  0  0  0  0  0  0
  -30.4640  -17.8660   24.4620 C   0  0  0  0  0  2  0  0  0  0  0  0
  -28.8670  -22.1550   19.3020 O   0  0  0  0  0  0  0  0  0  0  0  0
  -28.9280  -23.4520   20.1370 C   0  0  0  0  0  3  0  0  0  0  0  0
  -28.0290  -24.8400   19.7620 C   0  0  0  0  0  3  0  0  0  0  0  0
  -28.1820  -26.3190   20.2450 O   0  0  0  0  0  0  0  0  0  0  0  0
  -24.5090  -31.9040   23.3550 C   0  0  0  0  0  0  0  0  0  0  0  0
  -27.1200  -27.2990   20.1790 C   0  0  0  0  0  0  0  0  0  0  0  0
  -23.3200  -30.5540   21.6690 C   0  0  0  0  0  3  0  0  0  0  0  0
  -24.7800  -29.0340   20.1970 C   0  0  0  0  0  0  0  0  0  0  0  0
  -25.8730  -30.8330   21.5240 C   0  0  0  0  0  2  0  0  0  0  0  0
  -25.9540  -29.4640   20.8270 C   0  0  0  0  0  0  0  0  0  0  0  0
  -27.1210  -28.6110   20.8050 C   0  0  0  0  0  3  0  0  0  0  0  0
  -25.9230  -26.9820   19.4960 C   0  0  0  0  0  3  0  0  0  0  0  0
  -24.7770  -27.8070   19.5170 C   0  0  0  0  0  3  0  0  0  0  0  0
  -23.5480  -29.9220   20.2710 C   0  0  0  0  0  2  0  0  0  0  0  0
  -24.5860  -31.1170   22.2380 N   0  0  0  0  0  0  0  0  0  0  0  0
  -23.4200  -32.1670   23.8880 O   0  0  0  0  0  0  0  0  0  0  0  0
  -22.6440  -29.5130   22.5970 C   0  0  0  0  0  0  0  0  0  0  0  0
  -21.3230  -29.3150   22.4360 N   0  0  0  0  0  0  0  0  0  0  0  0
  -23.3100  -28.8880   23.4250 O   0  0  0  0  0  0  0  0  0  0  0  0
  -20.8410  -29.8710   21.7450 H   0  0  0  0  0  0  0  0  0  0  0  0
  -17.9570  -28.0440   22.8590 C   0  0  0  0  0  0  0  0  0  0  0  0
  -20.5060  -28.3460   23.1740 C   0  0  0  0  0  3  0  0  0  0  0  0
  -20.6420  -26.9300   22.5700 C   0  0  0  0  0  2  0  0  0  0  0  0
  -19.5640  -26.6100   21.5300 C   0  0  0  0  0  2  0  0  0  0  0  0
  -18.1690  -26.7140   22.1550 C   0  0  0  0  0  2  0  0  0  0  0  0
  -19.0540  -28.8180   23.3240 C   0  0  0  0  0  0  0  0  0  0  0  0
  -18.8010  -30.0610   23.9440 C   0  0  0  0  0  3  0  0  0  0  0  0
  -17.4840  -30.5320   24.1010 C   0  0  0  0  0  3  0  0  0  0  0  0
  -16.4010  -29.7560   23.6510 C   0  0  0  0  0  3  0  0  0  0  0  0
  -16.6390  -28.5130   23.0380 C   0  0  0  0  0  3  0  0  0  0  0  0
  -25.7820  -32.5250   24.0040 C   0  0  0  0  0  3  0  0  0  0  0  0
  -25.4860  -33.9350   24.3070 N   0  0  0  0  0  0  0  0  0  0  0  0
  -25.8130  -34.9710   23.5220 C   0  0  0  0  0  0  0  0  0  0  0  0
  -26.4630  -34.8400   22.4820 O   0  0  0  0  0  0  0  0  0  0  0  0
  -24.9060  -34.1110   25.1140 H   0  0  0  0  0  0  0  0  0  0  0  0
  -24.0730  -36.7600   23.1970 C   0  0  0  0  0  1  0  0  0  0  0  0
  -25.3500  -36.3740   23.9630 C   0  0  0  0  0  3  0  0  0  0  0  0
  -27.5140  -37.2870   24.6820 C   0  0  0  0  0  1  0  0  0  0  0  0
  -26.3770  -37.4220   23.7740 N   0  0  0  0  0  0  0  0  0  0  0  0
  -25.9750  -38.3470   23.9050 H   0  0  0  0  0  0  0  0  0  0  0  0
  -26.2450  -31.7700   25.3110 C   0  0  1  0  0  0  0  0  0  0  0  0
  -25.1120  -31.5580   26.3420 C   0  0  0  0  0  1  0  0  0  0  0  0
  -26.8290  -30.3810   24.9660 C   0  0  0  0  0  1  0  0  0  0  0  0
  -27.3780  -32.5640   26.0020 C   0  0  0  0  0  1  0  0  0  0  0  0
  1  3  1  0
  2 16  1  0
  2  3  2  0
  3 46  1  0
  4  6  1  0
  4  2  1  0
  5  1  1  0
  7  4  1  0
  7  5  2  0
  8 14  1  0
  8 16  1  0
  9 14  1  0
 10 11  1  0
 10  9  1  0
 12 11  1  0
 12 21  1  0
 12 13  1  0
 14 13  1  0
 15  8  2  0
 16 17  1  0
 18 19  2  0
 19 38  1  0
 20 19  1  0
 20 23  1  0
 21 22  1  0
 21 18  1  0
 22 20  2  0
 23 24  1  0
 24 25  2  0
 26 29  1  0
 26 25  1  0
 27 26  2  0
 28 27  1  0
 28 23  2  0
 29 30  1  0
 30 35  2  0
 30 31  1  0
 31 32  2  0
 32 33  1  0
 33 37  1  0
 34 33  2  0
 35 34  1  0
 36 35  1  0
 38 39  1  0
 39 42  1  0
 39 41  1  0
 40 38  2  0
 43 18  1  0
 43 44  1  0
 45 43  1  0
 46 47  1  0
 47 49  1  0
 49 48  1  0
 50  5  1  0
 50 51  1  0
 52 51  2  0
 52 53  1  0
 54 65  2  0
 55 53  1  0
 55 60  1  0
 56 64  1  0
 56 66  1  0
 57 63  1  0
 57 59  1  0
 58 64  1  0
 59 58  1  0
 60 59  2  0
 61 62  1  0
 61 55  2  0
 62 57  2  0
 63 56  1  0
 64 54  1  0
 66 68  2  0
 67 66  1  0
 69 67  1  0
 70 79  2  0
 70 75  1  0
 71 67  1  0
 71 75  1  0
 72 71  1  0
 73 74  1  0
 73 72  1  0
 74 70  1  0
 75 76  2  0
 76 77  1  0
 78 77  2  0
 79 78  1  0
 80 54  1  0
 80 81  1  0
 80 90  1  0
 81 84  1  0
 82 86  1  0
 82 81  1  0
 83 82  2  0
 86 85  1  0
 88 89  1  0
 88 86  1  0
 88 87  1  0
 90 93  1  1
 90 91  1  0
 92 90  1  0
M  ISO  4   8 100  16 100  52 101  53 101
M  END
>  <TORSDO>  (17) 
F 22

>  <SCORE>  (17) 
-7.389

>  <name>  (17) 
16

>  <ligand_id>  (17) 
16

>  <original_smiles>  (17) 
[H]c1c([H])c([H])c2c(c1[H])C([H])([H])C([H])([H])C([H])([H])C2([H])N([H])C(=O)C1([H])N(C(=O)C([H])(N([H])C(=O)C([H])(N([H])C([H])([H])[H])C([H])([H])[H])C(C([H])([H])[H])(C([H])([H])[H])C([H])([H])[H])C([H])([H])c2c([H])c(OC([H])([H])C([H])([H])Oc3nc(C([H])([H])[H])c(N([H])C(=O)N4C([H])([H])C([H])([H])C([H])([H])C([H])(n5nc(-c6c([H])c([H])c(Oc7c([H])c([H])c(F)c([H])c7F)c([H])c6[H])c(C(=O)N([H])[H])c5N([H])[H])C4([H])[H])c(OC([H])([H])C([H])([H])C([H])([H])[H])c3[H])c([H])c([H])c2C1([H])[H]

>  <smiles>  (17) 
[H]c1c([H])c([H])c2c(c1[H])C([H])([H])C([H])([H])C([H])([H])C2([H])N([H])C(=O)C1([H])N(C(=O)C([H])(N([H])C(=O)C([H])(N([H])C([H])([H])[H])C([H])([H])[H])C(C([H])([H])[H])(C([H])([H])[H])C([H])([H])[H])C([H])([H])c2c([H])c(OC([H])([H])C([H])([H])Oc3nc(C([H])([H])[H])c(N([H])C(=O)N4C([H])([H])C([H])([H])C([H])([H])C([H])(n5nc(-c6c([H])c([H])c(Oc7c([H])c([H])c(F)c([H])c7F)c([H])c6[H])c(C(=O)N([H])[H])c5N([H])[H])C4([H])[H])c(OC([H])([H])C([H])([H])C([H])([H])[H])c3[H])c([H])c([H])c2C1([H])[H]

$$$$
17:0:0
     RDKit          3D

 93102  0  0  1  0  0  0  0  0999 V2000
  -28.2970  -22.9410   20.8600 C   0  0  0  0  0  2  0  0  0  0  0  0
  -30.6280  -23.8230   21.0760 C   0  0  0  0  0  2  0  0  0  0  0  0
  -27.8870  -24.2510   20.1200 C   0  0  0  0  0  2  0  0  0  0  0  0
  -30.2110  -25.1150   20.3400 C   0  0  0  0  0  2  0  0  0  0  0  0
  -29.7960  -22.5670   20.7030 C   0  0  0  0  0  3  0  0  0  0  0  0
  -28.7290  -25.4850   20.5470 C   0  0  0  0  0  3  0  0  0  0  0  0
  -28.5240  -26.7160   19.8090 O   0  0  0  0  0  0  0  0  0  0  0  0
  -24.5900  -31.7280   23.1010 C   0  0  0  0  0  0  0  0  0  0  0  0
  -27.3240  -27.3950   19.9210 C   0  0  0  0  0  0  0  0  0  0  0  0
  -23.4050  -30.3150   21.4550 C   0  0  0  0  0  3  0  0  0  0  0  0
  -24.8850  -28.8410   19.9880 C   0  0  0  0  0  0  0  0  0  0  0  0
  -25.9160  -30.7500   21.2270 C   0  0  0  0  0  2  0  0  0  0  0  0
  -26.0360  -29.3870   20.5700 C   0  0  0  0  0  0  0  0  0  0  0  0
  -27.2590  -28.6720   20.5330 C   0  0  0  0  0  3  0  0  0  0  0  0
  -26.1580  -26.8770   19.3190 C   0  0  0  0  0  3  0  0  0  0  0  0
  -24.9410  -27.5840   19.3610 C   0  0  0  0  0  3  0  0  0  0  0  0
  -23.6160  -29.6620   20.0620 C   0  0  0  0  0  2  0  0  0  0  0  0
  -24.6560  -30.9480   21.9850 N   0  0  0  0  0  0  0  0  0  0  0  0
  -23.5100  -31.9570   23.6620 O   0  0  0  0  0  0  0  0  0  0  0  0
  -22.8010  -29.2590   22.4090 C   0  0  0  0  0  0  0  0  0  0  0  0
  -21.4850  -29.0180   22.2820 N   0  0  0  0  0  0  0  0  0  0  0  0
  -23.5130  -28.6580   23.2180 O   0  0  0  0  0  0  0  0  0  0  0  0
  -20.9690  -29.5590   21.6020 H   0  0  0  0  0  0  0  0  0  0  0  0
  -18.1820  -27.6200   22.7250 C   0  0  0  0  0  0  0  0  0  0  0  0
  -20.7130  -28.0380   23.0450 C   0  0  0  0  0  3  0  0  0  0  0  0
  -20.9150  -26.6120   22.4840 C   0  0  0  0  0  2  0  0  0  0  0  0
  -19.8560  -26.2130   21.4510 C   0  0  0  0  0  2  0  0  0  0  0  0
  -18.4550  -26.2780   22.0670 C   0  0  0  0  0  2  0  0  0  0  0  0
  -19.2420  -28.4530   23.1710 C   0  0  0  0  0  0  0  0  0  0  0  0
  -18.9350  -29.7060   23.7440 C   0  0  0  0  0  3  0  0  0  0  0  0
  -17.5990  -30.1270   23.8780 C   0  0  0  0  0  3  0  0  0  0  0  0
  -16.5530  -29.2920   23.4510 C   0  0  0  0  0  3  0  0  0  0  0  0
  -16.8440  -28.0400   22.8800 C   0  0  0  0  0  3  0  0  0  0  0  0
  -25.8650  -32.3910   23.7120 C   0  0  0  0  0  3  0  0  0  0  0  0
  -25.5160  -33.7700   24.0770 N   0  0  0  0  0  0  0  0  0  0  0  0
  -25.8050  -34.8490   23.3370 C   0  0  0  0  0  0  0  0  0  0  0  0
  -26.4660  -34.7900   22.2960 O   0  0  0  0  0  0  0  0  0  0  0  0
  -24.9270  -33.8880   24.8880 H   0  0  0  0  0  0  0  0  0  0  0  0
  -24.0170  -36.5920   23.0380 C   0  0  0  0  0  1  0  0  0  0  0  0
  -25.2780  -36.2100   23.8300 C   0  0  0  0  0  3  0  0  0  0  0  0
  -27.3890  -37.1440   24.6640 C   0  0  0  0  0  1  0  0  0  0  0  0
  -26.2750  -37.2980   23.7330 N   0  0  0  0  0  0  0  0  0  0  0  0
  -25.8400  -38.2010   23.9070 H   0  0  0  0  0  0  0  0  0  0  0  0
  -26.4340  -31.6100   24.9600 C   0  0  1  0  0  0  0  0  0  0  0  0
  -25.3730  -31.3140   26.0450 C   0  0  0  0  0  1  0  0  0  0  0  0
  -27.0540  -30.2620   24.5250 C   0  0  0  0  0  1  0  0  0  0  0  0
  -27.5710  -32.4290   25.6160 C   0  0  0  0  0  1  0  0  0  0  0  0
  -30.2720  -21.3710   21.6050 C   0  0  0  0  0  2  0  0  0  0  0  0
  -30.0880  -17.9330   19.7300 C   0  0  0  0  0  2  0  0  0  0  0  0
  -29.8580  -17.5660   22.1600 C   0  0  0  0  0  2  0  0  0  0  0  0
  -30.4100  -19.4390   19.9910 C   0  0  0  0  0  2  0  0  0  0  0  0
  -30.1920  -19.0560   22.4090 C   0  0  0  0  0  2  0  0  0  0  0  0
  -30.5390  -17.0150   20.8930 C   0  0  0  0  0  3  0  0  0  0  0  0
  -29.8460  -19.9650   21.2730 N   0  0  1  0  0  4  0  0  0  0  0  0
  -28.8400  -19.9680   21.1920 H   0  0  0  0  0  0  0  0  0  0  0  0
  -30.9290  -14.5820   20.1910 C   0  0  0  0  0  0  0  0  0  0  0  0
  -30.6560  -12.3770   19.1000 C   0  0  0  0  0  2  0  0  0  0  0  0
  -29.6740  -12.5220   17.9190 C   0  0  0  0  0  2  0  0  0  0  0  0
  -28.2140  -12.3800   18.3930 C   0  0  0  0  0  2  0  0  0  0  0  0
  -27.9000  -13.2520   19.6380 C   0  0  0  0  0  3  0  0  0  0  0  0
  -28.9870  -13.0650   20.7210 C   0  0  0  0  0  2  0  0  0  0  0  0
  -30.2880  -13.3830   20.1100 N   0  0  0  0  0  0  0  0  0  0  0  0
  -32.0450  -14.7810   19.7020 O   0  0  0  0  0  0  0  0  0  0  0  0
  -30.1900  -15.5860   20.7140 N   0  0  0  0  0  0  0  0  0  0  0  0
  -29.2810  -15.3040   21.0490 H   0  0  0  0  0  0  0  0  0  0  0  0
  -25.5390  -13.8770   20.4490 C   0  0  0  0  0  0  0  0  0  0  0  0
  -24.4740  -13.1110   20.8400 C   0  0  0  0  0  0  0  0  0  0  0  0
  -24.9140  -11.7540   20.7600 C   0  0  0  0  0  0  0  0  0  0  0  0
  -26.5620  -12.9860   20.1600 N   0  0  0  0  0  0  0  0  0  0  0  0
  -26.1910  -11.7040   20.4030 N   0  0  0  0  0  0  0  0  0  0  0  0
  -24.1770  -10.4980   20.9480 C   0  0  0  0  0  0  0  0  0  0  0  0
  -24.5960   -9.5300   21.8870 C   0  0  0  0  0  3  0  0  0  0  0  0
  -23.8610   -8.3370   22.0610 C   0  0  0  0  0  3  0  0  0  0  0  0
  -22.6920   -8.1060   21.2970 C   0  0  0  0  0  0  0  0  0  0  0  0
  -22.2930   -9.0630   20.3480 C   0  0  0  0  0  3  0  0  0  0  0  0
  -23.0280  -10.2460   20.1710 C   0  0  0  0  0  3  0  0  0  0  0  0
  -21.9300   -6.9650   21.3810 O   0  0  0  0  0  0  0  0  0  0  0  0
  -21.8120   -6.2620   22.5530 C   0  0  0  0  0  0  0  0  0  0  0  0
  -21.3130   -6.8580   23.7320 C   0  0  0  0  0  3  0  0  0  0  0  0
  -21.1440   -6.0800   24.8950 C   0  0  0  0  0  3  0  0  0  0  0  0
  -21.4640   -4.7090   24.8800 C   0  0  0  0  0  0  0  0  0  0  0  0
  -21.9570   -4.1140   23.7050 C   0  0  0  0  0  3  0  0  0  0  0  0
  -22.1270   -4.8890   22.5440 C   0  0  0  0  0  0  0  0  0  0  0  0
  -22.5820   -4.3050   21.4090 F   0  0  0  0  0  0  0  0  0  0  0  0
  -21.2940   -3.9600   25.9950 F   0  0  0  0  0  0  0  0  0  0  0  0
  -23.0950  -13.6010   21.1740 C   0  0  0  0  0  0  0  0  0  0  0  0
  -22.3930  -12.8980   22.0560 N   0  0  0  0  0  0  0  0  0  0  0  0
  -22.6510  -14.6410   20.6890 O   0  0  0  0  0  0  0  0  0  0  0  0
  -22.7650  -12.0560   22.4700 H   0  0  0  0  0  0  0  0  0  0  0  0
  -21.4690  -13.2080   22.3230 H   0  0  0  0  0  0  0  0  0  0  0  0
  -25.7190  -15.2490   20.2960 N   0  0  0  0  0  0  0  0  0  0  0  0
  -24.9630  -15.9090   20.4400 H   0  0  0  0  0  0  0  0  0  0  0  0
  -26.5560  -15.6800   19.9220 H   0  0  0  0  0  0  0  0  0  0  0  0
  3  6  1  0
  3  1  1  0
  4  6  1  0
  4  2  1  0
  5  1  1  0
  5  2  1  0
  5 48  1  0
  6  7  1  0
  7  9  1  0
  8 19  2  0
  9 14  1  0
 10 18  1  0
 10 20  1  0
 11 17  1  0
 11 13  1  0
 12 18  1  0
 13 12  1  0
 14 13  2  0
 15 16  1  0
 15  9  2  0
 16 11  2  0
 17 10  1  0
 18  8  1  0
 20 22  2  0
 21 20  1  0
 23 21  1  0
 24 33  2  0
 24 29  1  0
 25 21  1  0
 25 29  1  0
 26 25  1  0
 27 28  1  0
 27 26  1  0
 28 24  1  0
 29 30  2  0
 30 31  1  0
 32 31  2  0
 33 32  1  0
 34  8  1  0
 34 35  1  0
 34 44  1  0
 35 38  1  0
 36 40  1  0
 36 35  1  0
 37 36  2  0
 40 39  1  0
 42 40  1  0
 42 43  1  0
 42 41  1  0
 44 47  1  1
 44 45  1  0
 46 44  1  0
 49 51  1  0
 49 53  1  0
 50 52  1  0
 51 54  1  0
 53 64  1  0
 53 50  1  0
 54 48  1  0
 54 52  1  0
 54 55  1  6
 56 64  1  0
 57 62  1  0
 58 59  1  0
 58 57  1  0
 60 59  1  0
 60 69  1  0
 60 61  1  0
 62 56  1  0
 62 61  1  0
 63 56  2  0
 64 65  1  0
 66 67  2  0
 67 86  1  0
 68 67  1  0
 68 71  1  0
 69 70  1  0
 69 66  1  0
 70 68  2  0
 71 72  1  0
 72 73  2  0
 74 77  1  0
 74 73  1  0
 75 74  2  0
 76 75  1  0
 76 71  2  0
 77 78  1  0
 78 79  1  0
 79 80  2  0
 81 80  1  0
 81 85  1  0
 82 81  2  0
 83 78  2  0
 83 82  1  0
 84 83  1  0
 86 87  1  0
 87 90  1  0
 87 89  1  0
 88 86  2  0
 91 92  1  0
 91 66  1  0
 93 91  1  0
M  ISO  4   6 101   7 101  56 100  64 100
M  END
>  <TORSDO>  (18) 
F 18

>  <SCORE>  (18) 
-13.438

>  <name>  (18) 
17

>  <ligand_id>  (18) 
17

>  <original_smiles>  (18) 
[H]c1c([H])c([H])c2c(c1[H])C([H])([H])C([H])([H])C([H])([H])C2([H])N([H])C(=O)C1([H])N(C(=O)C([H])(N([H])C(=O)C([H])(N([H])C([H])([H])[H])C([H])([H])[H])C(C([H])([H])[H])(C([H])([H])[H])C([H])([H])[H])C([H])([H])c2c([H])c(OC3([H])C([H])([H])C([H])([H])C([H])(C([H])([H])[N+]4([H])C([H])([H])C([H])([H])C([H])(N([H])C(=O)N5C([H])([H])C([H])([H])C([H])([H])C([H])(n6nc(-c7c([H])c([H])c(Oc8c([H])c([H])c(F)c([H])c8F)c([H])c7[H])c(C(=O)N([H])[H])c6N([H])[H])C5([H])[H])C([H])([H])C4([H])[H])C([H])([H])C3([H])[H])c([H])c([H])c2C1([H])[H]

>  <smiles>  (18) 
[H]c1c([H])c([H])c2c(c1[H])C([H])([H])C([H])([H])C([H])([H])C2([H])N([H])C(=O)C1([H])N(C(=O)C([H])(N([H])C(=O)C([H])(N([H])C([H])([H])[H])C([H])([H])[H])C(C([H])([H])[H])(C([H])([H])[H])C([H])([H])[H])C([H])([H])c2c([H])c(OC3([H])C([H])([H])C([H])([H])C([H])(C([H])([H])[N+]4([H])C([H])([H])C([H])([H])C([H])(N([H])C(=O)N5C([H])([H])C([H])([H])C([H])([H])C([H])(n6nc(-c7c([H])c([H])c(Oc8c([H])c([H])c(F)c([H])c8F)c([H])c7[H])c(C(=O)N([H])[H])c6N([H])[H])C5([H])[H])C([H])([H])C4([H])[H])C([H])([H])C3([H])[H])c([H])c([H])c2C1([H])[H]

$$$$
18:0:0
     RDKit          3D

 96104  0  0  1  0  0  0  0  0999 V2000
  -28.0230  -24.2470   21.3760 C   0  0  0  0  0  3  0  0  0  0  0  0
  -28.3620  -23.1530   22.1960 C   0  0  0  0  0  3  0  0  0  0  0  0
  -29.5390  -23.4090   19.6720 C   0  0  0  0  0  3  0  0  0  0  0  0
  -28.6350  -24.4000   20.1140 C   0  0  0  0  0  0  0  0  0  0  0  0
  -29.3220  -22.2000   21.7820 C   0  0  0  0  0  0  0  0  0  0  0  0
  -29.9040  -22.3130   20.4900 C   0  0  0  0  0  0  0  0  0  0  0  0
  -29.7870  -21.1630   22.7950 C   0  0  0  0  0  2  0  0  0  0  0  0
  -31.5350  -20.7420   24.6390 C   0  0  0  0  0  1  0  0  0  0  0  0
  -31.0090  -21.6950   23.5620 C   0  0  0  0  0  2  0  0  0  0  0  0
  -31.0000  -21.3650   19.9840 C   0  0  0  0  0  2  0  0  0  0  0  0
  -30.5480  -20.3150   18.9450 C   0  0  0  0  0  2  0  0  0  0  0  0
  -29.6160  -19.2930   19.4720 N   0  0  0  0  0  4  0  0  0  0  0  0
  -29.1910  -18.8610   18.6670 H   0  0  0  0  0  0  0  0  0  0  0  0
  -28.8710  -19.7380   19.9830 H   0  0  0  0  0  0  0  0  0  0  0  0
  -30.2070  -18.1990   20.2810 C   0  0  0  0  0  2  0  0  0  0  0  0
  -29.7270  -16.8330   19.7590 C   0  0  0  0  0  2  0  0  0  0  0  0
  -30.7790  -14.6990   20.3920 C   0  0  0  0  0  0  0  0  0  0  0  0
  -30.5770  -12.4850   19.3600 C   0  0  0  0  0  2  0  0  0  0  0  0
  -29.6570  -12.6560   18.1310 C   0  0  0  0  0  2  0  0  0  0  0  0
  -28.1720  -12.5180   18.5230 C   0  0  0  0  0  2  0  0  0  0  0  0
  -27.7950  -13.3720   19.7630 C   0  0  0  0  0  3  0  0  0  0  0  0
  -28.8340  -13.1820   20.8970 C   0  0  0  0  0  2  0  0  0  0  0  0
  -30.1710  -13.4840   20.3560 N   0  0  0  0  0  0  0  0  0  0  0  0
  -31.9060  -14.9220   19.9450 O   0  0  0  0  0  0  0  0  0  0  0  0
  -29.9370  -15.7010   20.6680 N   0  0  0  0  0  0  0  0  0  0  0  0
  -29.1050  -15.3940   21.1500 H   0  0  0  0  0  0  0  0  0  0  0  0
  -25.3700  -13.9610   20.4040 C   0  0  0  0  0  0  0  0  0  0  0  0
  -24.3050  -13.1800   20.7650 C   0  0  0  0  0  0  0  0  0  0  0  0
  -24.7830  -11.8350   20.7620 C   0  0  0  0  0  0  0  0  0  0  0  0
  -26.4330  -13.0910   20.2120 N   0  0  0  0  0  0  0  0  0  0  0  0
  -26.0790  -11.8070   20.4780 N   0  0  0  0  0  0  0  0  0  0  0  0
  -24.0690  -10.5660   20.9580 C   0  0  0  0  0  0  0  0  0  0  0  0
  -24.4940   -9.6200   21.9170 C   0  0  0  0  0  3  0  0  0  0  0  0
  -23.7790   -8.4170   22.1020 C   0  0  0  0  0  3  0  0  0  0  0  0
  -22.6280   -8.1500   21.3240 C   0  0  0  0  0  0  0  0  0  0  0  0
  -22.2210   -9.0860   20.3570 C   0  0  0  0  0  3  0  0  0  0  0  0
  -22.9350  -10.2800   20.1710 C   0  0  0  0  0  3  0  0  0  0  0  0
  -21.8870   -6.9970   21.4140 O   0  0  0  0  0  0  0  0  0  0  0  0
  -21.8180   -6.2770   22.5800 C   0  0  0  0  0  0  0  0  0  0  0  0
  -21.3580   -6.8530   23.7850 C   0  0  0  0  0  3  0  0  0  0  0  0
  -21.2370   -6.0600   24.9420 C   0  0  0  0  0  3  0  0  0  0  0  0
  -21.5650   -4.6910   24.8970 C   0  0  0  0  0  0  0  0  0  0  0  0
  -22.0160   -4.1150   23.6970 C   0  0  0  0  0  3  0  0  0  0  0  0
  -22.1410   -4.9060   22.5420 C   0  0  0  0  0  0  0  0  0  0  0  0
  -22.5580   -4.3410   21.3830 F   0  0  0  0  0  0  0  0  0  0  0  0
  -21.4390   -3.9260   26.0070 F   0  0  0  0  0  0  0  0  0  0  0  0
  -22.8970  -13.6450   21.0050 C   0  0  0  0  0  0  0  0  0  0  0  0
  -22.1660  -12.9600   21.8740 N   0  0  0  0  0  0  0  0  0  0  0  0
  -22.4530  -14.6530   20.4590 O   0  0  0  0  0  0  0  0  0  0  0  0
  -22.5350  -12.1420   22.3380 H   0  0  0  0  0  0  0  0  0  0  0  0
  -21.2220  -13.2560   22.0840 H   0  0  0  0  0  0  0  0  0  0  0  0
  -25.5120  -15.3300   20.2100 N   0  0  0  0  0  0  0  0  0  0  0  0
  -24.7160  -15.9560   20.2830 H   0  0  0  0  0  0  0  0  0  0  0  0
  -26.3450  -15.7860   19.8640 H   0  0  0  0  0  0  0  0  0  0  0  0
  -28.3500  -25.6100   19.2250 C   0  0  0  0  0  2  0  0  0  0  0  0
  -28.1980  -26.8460   19.9370 O   0  0  0  0  0  0  0  0  0  0  0  0
  -24.4990  -31.9630   23.1780 C   0  0  0  0  0  0  0  0  0  0  0  0
  -26.9930  -27.5240   19.9650 C   0  0  0  0  0  0  0  0  0  0  0  0
  -23.2210  -30.5830   21.5710 C   0  0  0  0  0  3  0  0  0  0  0  0
  -24.6060  -29.0460   20.0790 C   0  0  0  0  0  0  0  0  0  0  0  0
  -25.7340  -30.9310   21.2690 C   0  0  0  0  0  2  0  0  0  0  0  0
  -25.7880  -29.5580   20.6280 C   0  0  0  0  0  0  0  0  0  0  0  0
  -26.9780  -28.8010   20.5730 C   0  0  0  0  0  3  0  0  0  0  0  0
  -25.7850  -27.0170   19.4300 C   0  0  0  0  0  3  0  0  0  0  0  0
  -24.6000  -27.7750   19.4810 C   0  0  0  0  0  3  0  0  0  0  0  0
  -23.3720  -29.9150   20.1780 C   0  0  0  0  0  2  0  0  0  0  0  0
  -24.5080  -31.1720   22.0680 N   0  0  0  0  0  0  0  0  0  0  0  0
  -23.4410  -32.2400   23.7580 O   0  0  0  0  0  0  0  0  0  0  0  0
  -22.5970  -29.5600   22.5470 C   0  0  0  0  0  0  0  0  0  0  0  0
  -21.2720  -29.3670   22.4430 N   0  0  0  0  0  0  0  0  0  0  0  0
  -23.2990  -28.9410   23.3520 O   0  0  0  0  0  0  0  0  0  0  0  0
  -20.7700  -29.9260   21.7680 H   0  0  0  0  0  0  0  0  0  0  0  0
  -17.9230  -28.1070   22.9520 C   0  0  0  0  0  0  0  0  0  0  0  0
  -20.4730  -28.4220   23.2240 C   0  0  0  0  0  3  0  0  0  0  0  0
  -20.6050  -26.9860   22.6680 C   0  0  0  0  0  2  0  0  0  0  0  0
  -19.5110  -26.6250   21.6570 C   0  0  0  0  0  2  0  0  0  0  0  0
  -18.1270  -26.7500   22.3010 C   0  0  0  0  0  2  0  0  0  0  0  0
  -19.0240  -28.8990   23.3720 C   0  0  0  0  0  0  0  0  0  0  0  0
  -18.7800  -30.1660   23.9430 C   0  0  0  0  0  3  0  0  0  0  0  0
  -17.4650  -30.6460   24.0940 C   0  0  0  0  0  3  0  0  0  0  0  0
  -16.3770  -29.8520   23.6900 C   0  0  0  0  0  3  0  0  0  0  0  0
  -16.6060  -28.5820   23.1280 C   0  0  0  0  0  3  0  0  0  0  0  0
  -25.8120  -32.5750   23.7600 C   0  0  0  0  0  3  0  0  0  0  0  0
  -25.5300  -33.9710   24.1190 N   0  0  0  0  0  0  0  0  0  0  0  0
  -25.8560  -35.0280   23.3640 C   0  0  0  0  0  0  0  0  0  0  0  0
  -26.4990  -34.9290   22.3150 O   0  0  0  0  0  0  0  0  0  0  0  0
  -24.9580  -34.1220   24.9370 H   0  0  0  0  0  0  0  0  0  0  0  0
  -24.1430  -36.8420   23.0620 C   0  0  0  0  0  1  0  0  0  0  0  0
  -25.3950  -36.4180   23.8470 C   0  0  0  0  0  3  0  0  0  0  0  0
  -27.5610  -37.2580   24.6420 C   0  0  0  0  0  1  0  0  0  0  0  0
  -26.4410  -37.4580   23.7250 N   0  0  0  0  0  0  0  0  0  0  0  0
  -26.0540  -38.3810   23.8940 H   0  0  0  0  0  0  0  0  0  0  0  0
  -26.3690  -31.7780   25.0040 C   0  0  1  0  0  0  0  0  0  0  0  0
  -25.3130  -31.5360   26.1080 C   0  0  0  0  0  1  0  0  0  0  0  0
  -26.9170  -30.4020   24.5600 C   0  0  0  0  0  1  0  0  0  0  0  0
  -27.5550  -32.5470   25.6330 C   0  0  0  0  0  1  0  0  0  0  0  0
  1  2  1  0
  3  4  1  0
  3  6  2  0
  4  1  2  0
  5  2  2  0
  5  7  1  0
  6  5  1  0
  7  9  1  0
  9  8  1  0
 10  6  1  0
 11 12  1  0
 11 10  1  0
 12 14  1  0
 12 15  1  0
 13 12  1  0
 16 15  1  0
 16 25  1  0
 17 25  1  0
 18 23  1  0
 19 20  1  0
 19 18  1  0
 21 20  1  0
 21 30  1  0
 21 22  1  0
 23 17  1  0
 23 22  1  0
 24 17  2  0
 25 26  1  0
 27 28  2  0
 28 47  1  0
 29 28  1  0
 29 32  1  0
 30 27  1  0
 30 31  1  0
 31 29  2  0
 32 33  1  0
 33 34  2  0
 35 38  1  0
 35 34  1  0
 36 35  2  0
 37 36  1  0
 37 32  2  0
 38 39  1  0
 39 40  1  0
 40 41  2  0
 42 41  1  0
 42 46  1  0
 43 42  2  0
 44 39  2  0
 44 43  1  0
 45 44  1  0
 47 48  1  0
 48 51  1  0
 48 50  1  0
 49 47  2  0
 52 53  1  0
 52 27  1  0
 54 52  1  0
 55 56  1  0
 55  4  1  0
 56 58  1  0
 57 68  2  0
 58 63  1  0
 59 67  1  0
 59 69  1  0
 60 66  1  0
 60 62  1  0
 61 67  1  0
 62 61  1  0
 63 62  2  0
 64 65  1  0
 64 58  2  0
 65 60  2  0
 66 59  1  0
 67 57  1  0
 69 71  2  0
 70 69  1  0
 72 70  1  0
 73 82  2  0
 73 78  1  0
 74 70  1  0
 74 78  1  0
 75 74  1  0
 76 77  1  0
 76 75  1  0
 77 73  1  0
 78 79  2  0
 79 80  1  0
 81 80  2  0
 82 81  1  0
 83 57  1  0
 83 84  1  0
 83 93  1  0
 84 87  1  0
 85 89  1  0
 85 84  1  0
 86 85  2  0
 89 88  1  0
 91 89  1  0
 91 92  1  0
 91 90  1  0
 93 96  1  1
 93 94  1  0
 95 93  1  0
M  ISO  4  17 100  25 100  55 101  56 101
M  END
>  <TORSDO>  (19) 
F 24

>  <SCORE>  (19) 
-12.296

>  <name>  (19) 
18

>  <ligand_id>  (19) 
18

>  <original_smiles>  (19) 
[H]c1c([H])c([H])c2c(c1[H])C([H])([H])C([H])([H])C([H])([H])C2([H])N([H])C(=O)C1([H])N(C(=O)C([H])(N([H])C(=O)C([H])(N([H])C([H])([H])[H])C([H])([H])[H])C(C([H])([H])[H])(C([H])([H])[H])C([H])([H])[H])C([H])([H])c2c([H])c(OC([H])([H])c3c([H])c([H])c(C([H])([H])C([H])([H])C([H])([H])[H])c(C([H])([H])C([H])([H])[N+]([H])([H])C([H])([H])C([H])([H])N([H])C(=O)N4C([H])([H])C([H])([H])C([H])([H])C([H])(n5nc(-c6c([H])c([H])c(Oc7c([H])c([H])c(F)c([H])c7F)c([H])c6[H])c(C(=O)N([H])[H])c5N([H])[H])C4([H])[H])c3[H])c([H])c([H])c2C1([H])[H]

>  <smiles>  (19) 
[H]c1c([H])c([H])c2c(c1[H])C([H])([H])C([H])([H])C([H])([H])C2([H])N([H])C(=O)C1([H])N(C(=O)C([H])(N([H])C(=O)C([H])(N([H])C([H])([H])[H])C([H])([H])[H])C(C([H])([H])[H])(C([H])([H])[H])C([H])([H])[H])C([H])([H])c2c([H])c(OC([H])([H])c3c([H])c([H])c(C([H])([H])C([H])([H])C([H])([H])[H])c(C([H])([H])C([H])([H])[N+]([H])([H])C([H])([H])C([H])([H])N([H])C(=O)N4C([H])([H])C([H])([H])C([H])([H])C([H])(n5nc(-c6c([H])c([H])c(Oc7c([H])c([H])c(F)c([H])c7F)c([H])c6[H])c(C(=O)N([H])[H])c5N([H])[H])C4([H])[H])c3[H])c([H])c([H])c2C1([H])[H]

$$$$
19:0:0
     RDKit          3D

 96106  0  0  1  0  0  0  0  0999 V2000
  -30.8340  -22.7060   19.8440 C   0  0  0  0  0  3  0  0  0  0  0  0
  -30.5700  -23.9130   19.1230 C   0  0  0  0  0  3  0  0  0  0  0  0
  -28.6710  -22.8220   20.8590 C   0  0  0  0  0  0  0  0  0  0  0  0
  -28.4060  -24.0060   20.1550 C   0  0  0  0  0  0  0  0  0  0  0  0
  -29.8800  -22.1020   20.7150 C   0  0  0  0  0  0  0  0  0  0  0  0
  -29.3300  -24.5930   19.2400 C   0  0  0  0  0  0  0  0  0  0  0  0
  -27.4870  -22.4470   21.7110 C   0  0  0  0  0  2  0  0  0  0  0  0
  -26.9950  -24.4610   20.4630 C   0  0  0  0  0  2  0  0  0  0  0  0
  -26.5390  -23.5800   21.5730 N   0  0  1  0  0  4  0  0  0  0  0  0
  -26.6390  -24.1240   22.4140 H   0  0  0  0  0  0  0  0  0  0  0  0
  -24.3250  -23.3180   22.7220 C   0  0  0  0  0  2  0  0  0  0  0  0
  -24.0970  -24.2390   21.5410 C   0  0  0  0  0  2  0  0  0  0  0  0
  -25.1290  -23.1370   21.4520 C   0  0  0  0  0  3  0  0  0  0  0  0
  -30.2360  -20.7920   21.4950 C   0  0  0  0  0  2  0  0  0  0  0  0
  -29.5630  -19.3980   21.1630 C   0  0  0  0  0  2  0  0  0  0  0  0
  -30.4510  -18.1570   21.5720 C   0  0  0  0  0  2  0  0  0  0  0  0
  -30.6520  -15.6920   21.0470 C   0  0  0  0  0  0  0  0  0  0  0  0
  -30.5580  -13.5260   19.8540 C   0  0  0  0  0  2  0  0  0  0  0  0
  -29.7240  -13.6690   18.5660 C   0  0  0  0  0  2  0  0  0  0  0  0
  -28.2330  -13.4220   18.8620 C   0  0  0  0  0  2  0  0  0  0  0  0
  -27.7240  -14.2150   20.0950 C   0  0  0  0  0  3  0  0  0  0  0  0
  -28.6910  -14.0950   21.2950 C   0  0  0  0  0  2  0  0  0  0  0  0
  -30.0290  -14.4930   20.8360 N   0  0  0  0  0  0  0  0  0  0  0  0
  -31.8400  -15.8530   20.7650 O   0  0  0  0  0  0  0  0  0  0  0  0
  -29.8990  -16.7720   21.4010 N   0  0  0  0  0  0  0  0  0  0  0  0
  -28.9150  -16.6240   21.5720 H   0  0  0  0  0  0  0  0  0  0  0  0
  -25.2370  -14.6310   20.5880 C   0  0  0  0  0  0  0  0  0  0  0  0
  -24.2000  -13.7780   20.8510 C   0  0  0  0  0  0  0  0  0  0  0  0
  -24.7600  -12.4650   20.8620 C   0  0  0  0  0  0  0  0  0  0  0  0
  -26.3610  -13.8320   20.4530 N   0  0  0  0  0  0  0  0  0  0  0  0
  -26.0740  -12.5230   20.6800 N   0  0  0  0  0  0  0  0  0  0  0  0
  -24.1120  -11.1500   20.9790 C   0  0  0  0  0  0  0  0  0  0  0  0
  -24.5240  -10.2060   21.9450 C   0  0  0  0  0  3  0  0  0  0  0  0
  -23.8740   -8.9580   22.0500 C   0  0  0  0  0  3  0  0  0  0  0  0
  -22.7980   -8.6440   21.1860 C   0  0  0  0  0  0  0  0  0  0  0  0
  -22.4070   -9.5780   20.2110 C   0  0  0  0  0  3  0  0  0  0  0  0
  -23.0590  -10.8170   20.1050 C   0  0  0  0  0  3  0  0  0  0  0  0
  -22.1230   -7.4470   21.1980 O   0  0  0  0  0  0  0  0  0  0  0  0
  -21.9950   -6.7040   22.3430 C   0  0  0  0  0  0  0  0  0  0  0  0
  -21.4360   -7.2420   23.5230 C   0  0  0  0  0  3  0  0  0  0  0  0
  -21.2610   -6.4220   24.6560 C   0  0  0  0  0  3  0  0  0  0  0  0
  -21.6330   -5.0660   24.6100 C   0  0  0  0  0  0  0  0  0  0  0  0
  -22.1860   -4.5270   23.4340 C   0  0  0  0  0  3  0  0  0  0  0  0
  -22.3630   -5.3440   22.3040 C   0  0  0  0  0  0  0  0  0  0  0  0
  -22.8750   -4.8130   21.1660 F   0  0  0  0  0  0  0  0  0  0  0  0
  -21.4580   -4.2770   25.6950 F   0  0  0  0  0  0  0  0  0  0  0  0
  -22.7510  -14.1500   20.9850 C   0  0  0  0  0  0  0  0  0  0  0  0
  -22.0020  -13.4150   21.7990 N   0  0  0  0  0  0  0  0  0  0  0  0
  -22.2860  -15.1300   20.4050 O   0  0  0  0  0  0  0  0  0  0  0  0
  -22.3880  -12.6220   22.2920 H   0  0  0  0  0  0  0  0  0  0  0  0
  -21.0270  -13.6450   21.9310 H   0  0  0  0  0  0  0  0  0  0  0  0
  -25.3170  -16.0110   20.4300 N   0  0  0  0  0  0  0  0  0  0  0  0
  -24.4970  -16.6060   20.4700 H   0  0  0  0  0  0  0  0  0  0  0  0
  -26.1570  -16.5110   20.1730 H   0  0  0  0  0  0  0  0  0  0  0  0
  -28.8780  -25.6890   18.2240 C   0  0  0  0  0  2  0  0  0  0  0  0
  -28.9720  -27.1420   18.4630 O   0  0  0  0  0  0  0  0  0  0  0  0
  -24.7070  -30.9850   22.8220 C   0  0  0  0  0  0  0  0  0  0  0  0
  -27.7420  -27.8090   18.6310 C   0  0  0  0  0  0  0  0  0  0  0  0
  -23.6080  -29.7950   20.9620 C   0  0  0  0  0  3  0  0  0  0  0  0
  -25.1550  -28.9230   19.1320 C   0  0  0  0  0  0  0  0  0  0  0  0
  -26.0350  -30.6030   20.7420 C   0  0  0  0  0  2  0  0  0  0  0  0
  -26.2780  -29.4520   19.7780 C   0  0  0  0  0  0  0  0  0  0  0  0
  -27.5720  -28.9000   19.5370 C   0  0  0  0  0  3  0  0  0  0  0  0
  -26.5810  -27.3780   17.9360 C   0  0  0  0  0  3  0  0  0  0  0  0
  -25.3050  -27.8900   18.2050 C   0  0  0  0  0  3  0  0  0  0  0  0
  -23.7990  -29.5130   19.4530 C   0  0  0  0  0  2  0  0  0  0  0  0
  -24.8030  -30.4670   21.5640 N   0  0  0  0  0  0  0  0  0  0  0  0
  -23.6470  -30.9310   23.4620 O   0  0  0  0  0  0  0  0  0  0  0  0
  -23.2220  -28.4770   21.6780 C   0  0  0  0  0  0  0  0  0  0  0  0
  -21.9640  -28.0400   21.4990 N   0  0  0  0  0  0  0  0  0  0  0  0
  -24.0480  -27.8630   22.3560 O   0  0  0  0  0  0  0  0  0  0  0  0
  -21.3420  -28.6050   20.9390 H   0  0  0  0  0  0  0  0  0  0  0  0
  -18.9840  -25.9960   21.6000 C   0  0  0  0  0  0  0  0  0  0  0  0
  -21.3950  -26.8100   22.0550 C   0  0  0  0  0  3  0  0  0  0  0  0
  -21.8560  -25.5710   21.2530 C   0  0  0  0  0  2  0  0  0  0  0  0
  -20.8810  -25.1780   20.1390 C   0  0  0  0  0  2  0  0  0  0  0  0
  -19.4970  -24.8700   20.7180 C   0  0  0  0  0  2  0  0  0  0  0  0
  -19.8740  -26.9150   22.2140 C   0  0  0  0  0  0  0  0  0  0  0  0
  -19.3420  -27.9620   22.9980 C   0  0  0  0  0  3  0  0  0  0  0  0
  -17.9520  -28.0950   23.1750 C   0  0  0  0  0  3  0  0  0  0  0  0
  -17.0770  -27.1710   22.5770 C   0  0  0  0  0  3  0  0  0  0  0  0
  -17.5930  -26.1230   21.7940 C   0  0  0  0  0  3  0  0  0  0  0  0
  -25.9190  -31.6870   23.5060 C   0  0  0  0  0  3  0  0  0  0  0  0
  -25.4430  -32.9690   24.0410 N   0  0  0  0  0  0  0  0  0  0  0  0
  -25.6830  -34.1620   23.4830 C   0  0  0  0  0  0  0  0  0  0  0  0
  -26.3980  -34.3060   22.4890 O   0  0  0  0  0  0  0  0  0  0  0  0
  -24.8080  -32.9240   24.8250 H   0  0  0  0  0  0  0  0  0  0  0  0
  -23.7730  -35.7910   23.3350 C   0  0  0  0  0  1  0  0  0  0  0  0
  -25.0240  -35.3940   24.1340 C   0  0  0  0  0  3  0  0  0  0  0  0
  -27.0150  -36.3480   25.2080 C   0  0  0  0  0  1  0  0  0  0  0  0
  -25.9310  -36.5560   24.2490 N   0  0  0  0  0  0  0  0  0  0  0  0
  -25.4190  -37.3880   24.5290 H   0  0  0  0  0  0  0  0  0  0  0  0
  -26.5780  -30.8190   24.6480 C   0  0  1  0  0  0  0  0  0  0  0  0
  -25.5640  -30.2980   25.6930 C   0  0  0  0  0  1  0  0  0  0  0  0
  -27.3130  -29.5940   24.0540 C   0  0  0  0  0  1  0  0  0  0  0  0
  -27.6460  -31.6540   25.3940 C   0  0  0  0  0  1  0  0  0  0  0  0
  1  5  1  0
  2  6  1  0
  2  1  2  0
  3  7  1  0
  4  8  1  0
  4  3  1  0
  5  3  2  0
  5 14  1  0
  6  4  2  0
  8  9  1  0
  9  7  1  0
  9 10  1  1
 12 11  1  0
 13 12  1  0
 13  9  1  0
 13 11  1  0
 15 14  1  0
 15 16  1  0
 17 25  1  0
 18 23  1  0
 19 20  1  0
 19 18  1  0
 21 20  1  0
 21 30  1  0
 21 22  1  0
 23 17  1  0
 23 22  1  0
 24 17  2  0
 25 16  1  0
 25 26  1  0
 27 28  2  0
 28 29  1  0
 28 47  1  0
 29 32  1  0
 30 27  1  0
 30 31  1  0
 31 29  2  0
 32 33  1  0
 33 34  2  0
 35 38  1  0
 35 34  1  0
 36 35  2  0
 37 36  1  0
 37 32  2  0
 38 39  1  0
 39 40  1  0
 40 41  2  0
 42 41  1  0
 42 46  1  0
 43 42  2  0
 44 39  2  0
 44 43  1  0
 45 44  1  0
 47 48  1  0
 48 51  1  0
 48 50  1  0
 49 47  2  0
 52 53  1  0
 52 27  1  0
 54 52  1  0
 55 56  1  0
 55  6  1  0
 56 58  1  0
 57 68  2  0
 58 63  1  0
 59 67  1  0
 59 69  1  0
 60 66  1  0
 60 62  1  0
 61 67  1  0
 62 61  1  0
 63 62  2  0
 64 65  1  0
 64 58  2  0
 65 60  2  0
 66 59  1  0
 67 57  1  0
 69 71  2  0
 70 69  1  0
 72 70  1  0
 73 82  2  0
 73 78  1  0
 74 70  1  0
 74 78  1  0
 75 74  1  0
 76 77  1  0
 76 75  1  0
 77 73  1  0
 78 79  2  0
 79 80  1  0
 81 80  2  0
 82 81  1  0
 83 57  1  0
 83 84  1  0
 83 93  1  0
 84 87  1  0
 85 84  1  0
 85 89  1  0
 86 85  2  0
 89 88  1  0
 89 91  1  0
 91 92  1  0
 91 90  1  0
 93 96  1  1
 93 94  1  0
 95 93  1  0
M  ISO  4  17 100  25 100  55 101  56 101
M  END
>  <TORSDO>  (20) 
F 21

>  <SCORE>  (20) 
-8.631

>  <name>  (20) 
19

>  <ligand_id>  (20) 
19

>  <original_smiles>  (20) 
[H]c1c([H])c([H])c2c(c1[H])C([H])([H])C([H])([H])C([H])([H])C2([H])N([H])C(=O)C1([H])N(C(=O)C([H])(N([H])C(=O)C([H])(N([H])C([H])([H])[H])C([H])([H])[H])C(C([H])([H])[H])(C([H])([H])[H])C([H])([H])[H])C([H])([H])c2c([H])c(OC([H])([H])c3c([H])c([H])c(C([H])([H])C([H])([H])C([H])([H])N([H])C(=O)N4C([H])([H])C([H])([H])C([H])([H])C([H])(n5nc(-c6c([H])c([H])c(Oc7c([H])c([H])c(F)c([H])c7F)c([H])c6[H])c(C(=O)N([H])[H])c5N([H])[H])C4([H])[H])c4c3C([H])([H])[N+]([H])(C3([H])C([H])([H])C3([H])[H])C4([H])[H])c([H])c([H])c2C1([H])[H]

>  <smiles>  (20) 
[H]c1c([H])c([H])c2c(c1[H])C([H])([H])C([H])([H])C([H])([H])C2([H])N([H])C(=O)C1([H])N(C(=O)C([H])(N([H])C(=O)C([H])(N([H])C([H])([H])[H])C([H])([H])[H])C(C([H])([H])[H])(C([H])([H])[H])C([H])([H])[H])C([H])([H])c2c([H])c(OC([H])([H])c3c([H])c([H])c(C([H])([H])C([H])([H])C([H])([H])N([H])C(=O)N4C([H])([H])C([H])([H])C([H])([H])C([H])(n5nc(-c6c([H])c([H])c(Oc7c([H])c([H])c(F)c([H])c7F)c([H])c6[H])c(C(=O)N([H])[H])c5N([H])[H])C4([H])[H])c4c3C([H])([H])[N+]([H])(C3([H])C([H])([H])C3([H])[H])C4([H])[H])c([H])c([H])c2C1([H])[H]

$$$$
20:0:0
     RDKit          3D

 97105  0  0  1  0  0  0  0  0999 V2000
  -29.6960  -20.4840   19.1430 C   0  0  0  0  0  3  0  0  0  0  0  0
  -29.4570  -21.7650   18.5990 C   0  0  0  0  0  3  0  0  0  0  0  0
  -29.4580  -21.4160   21.3700 C   0  0  0  0  0  3  0  0  0  0  0  0
  -29.7380  -20.3110   20.5420 C   0  0  0  0  0  0  0  0  0  0  0  0
  -29.2380  -22.8850   19.4350 C   0  0  0  0  0  0  0  0  0  0  0  0
  -29.1800  -22.6970   20.8450 C   0  0  0  0  0  0  0  0  0  0  0  0
  -30.0920  -19.1050   21.1680 N   0  0  0  0  0  0  0  0  0  0  0  0
  -30.1970  -19.1230   22.1780 H   0  0  0  0  0  0  0  0  0  0  0  0
  -29.9280  -17.7870   20.5640 C   0  0  0  0  0  2  0  0  0  0  0  0
  -30.5640  -16.7170   21.4800 C   0  0  0  0  0  2  0  0  0  0  0  0
  -30.6860  -14.4300   20.4970 C   0  0  0  0  0  0  0  0  0  0  0  0
  -30.3560  -12.3220   19.2690 C   0  0  0  0  0  2  0  0  0  0  0  0
  -29.4120  -12.5610   18.0740 C   0  0  0  0  0  2  0  0  0  0  0  0
  -27.9360  -12.4310   18.5030 C   0  0  0  0  0  2  0  0  0  0  0  0
  -27.6100  -13.2480   19.7820 C   0  0  0  0  0  3  0  0  0  0  0  0
  -28.6600  -12.9750   20.8820 C   0  0  0  0  0  2  0  0  0  0  0  0
  -29.9930  -13.2730   20.3290 N   0  0  0  0  0  0  0  0  0  0  0  0
  -31.7750  -14.6550   19.9620 O   0  0  0  0  0  0  0  0  0  0  0  0
  -30.0620  -15.3700   21.2210 N   0  0  0  0  0  0  0  0  0  0  0  0
  -29.1750  -15.1160   21.6290 H   0  0  0  0  0  0  0  0  0  0  0  0
  -25.2080  -13.8660   20.4700 C   0  0  0  0  0  0  0  0  0  0  0  0
  -24.1350  -13.0980   20.8350 C   0  0  0  0  0  0  0  0  0  0  0  0
  -24.5930  -11.7460   20.8150 C   0  0  0  0  0  0  0  0  0  0  0  0
  -26.2520  -12.9820   20.2540 N   0  0  0  0  0  0  0  0  0  0  0  0
  -25.8860  -11.7020   20.5160 N   0  0  0  0  0  0  0  0  0  0  0  0
  -23.8660  -10.4850   21.0060 C   0  0  0  0  0  0  0  0  0  0  0  0
  -24.2840   -9.5280   21.9570 C   0  0  0  0  0  3  0  0  0  0  0  0
  -23.5590   -8.3320   22.1350 C   0  0  0  0  0  3  0  0  0  0  0  0
  -22.4010   -8.0830   21.3630 C   0  0  0  0  0  0  0  0  0  0  0  0
  -22.0000   -9.0270   20.4010 C   0  0  0  0  0  3  0  0  0  0  0  0
  -22.7260  -10.2160   20.2210 C   0  0  0  0  0  3  0  0  0  0  0  0
  -21.6460   -6.9370   21.4500 O   0  0  0  0  0  0  0  0  0  0  0  0
  -21.5700   -6.2120   22.6110 C   0  0  0  0  0  0  0  0  0  0  0  0
  -21.0960   -6.7770   23.8150 C   0  0  0  0  0  3  0  0  0  0  0  0
  -20.9720   -5.9760   24.9670 C   0  0  0  0  0  3  0  0  0  0  0  0
  -21.3080   -4.6110   24.9170 C   0  0  0  0  0  0  0  0  0  0  0  0
  -21.7770   -4.0450   23.7180 C   0  0  0  0  0  3  0  0  0  0  0  0
  -21.9040   -4.8420   22.5680 C   0  0  0  0  0  0  0  0  0  0  0  0
  -22.3350   -4.2860   21.4100 F   0  0  0  0  0  0  0  0  0  0  0  0
  -21.1810   -3.8390   26.0230 F   0  0  0  0  0  0  0  0  0  0  0  0
  -22.7360  -13.5780   21.1000 C   0  0  0  0  0  0  0  0  0  0  0  0
  -22.0020  -12.8820   21.9610 N   0  0  0  0  0  0  0  0  0  0  0  0
  -22.3040  -14.6050   20.5770 O   0  0  0  0  0  0  0  0  0  0  0  0
  -22.3670  -12.0540   22.4060 H   0  0  0  0  0  0  0  0  0  0  0  0
  -21.0620  -13.1820   22.1790 H   0  0  0  0  0  0  0  0  0  0  0  0
  -25.3790  -15.2350   20.2850 N   0  0  0  0  0  0  0  0  0  0  0  0
  -24.6230  -15.9020   20.3910 H   0  0  0  0  0  0  0  0  0  0  0  0
  -26.2410  -15.6620   19.9690 H   0  0  0  0  0  0  0  0  0  0  0  0
  -29.1180  -24.1680   18.8860 N   0  0  0  0  0  0  0  0  0  0  0  0
  -28.9710  -24.9100   19.5660 H   0  0  0  0  0  0  0  0  0  0  0  0
  -30.0120  -24.5650   17.8090 C   0  0  0  0  0  2  0  0  0  0  0  0
  -28.1660  -25.8990   16.6340 C   0  0  0  0  0  1  0  0  0  0  0  0
  -29.2480  -24.8180   16.5020 C   0  0  0  0  0  2  0  0  0  0  0  0
  -28.9660  -23.6880   21.7870 O   0  0  0  0  0  0  0  0  0  0  0  0
  -27.9870  -24.7070   21.5740 C   0  0  0  0  0  2  0  0  0  0  0  0
  -28.6740  -26.0890   21.4970 C   0  0  0  0  0  2  0  0  0  0  0  0
  -28.4500  -26.7280   20.2410 O   0  0  0  0  0  0  0  0  0  0  0  0
  -24.5810  -31.8800   23.2300 C   0  0  0  0  0  0  0  0  0  0  0  0
  -27.2940  -27.4620   20.2150 C   0  0  0  0  0  0  0  0  0  0  0  0
  -23.4100  -30.4660   21.5700 C   0  0  0  0  0  3  0  0  0  0  0  0
  -24.8930  -28.9310   20.1770 C   0  0  0  0  0  0  0  0  0  0  0  0
  -25.9330  -30.8450   21.4130 C   0  0  0  0  0  2  0  0  0  0  0  0
  -26.0340  -29.4730   20.7820 C   0  0  0  0  0  0  0  0  0  0  0  0
  -27.2390  -28.7430   20.8040 C   0  0  0  0  0  3  0  0  0  0  0  0
  -26.1430  -26.9260   19.6030 C   0  0  0  0  0  3  0  0  0  0  0  0
  -24.9380  -27.6540   19.5890 C   0  0  0  0  0  3  0  0  0  0  0  0
  -23.6440  -29.7810   20.1970 C   0  0  0  0  0  2  0  0  0  0  0  0
  -24.6590  -31.0800   22.1290 N   0  0  0  0  0  0  0  0  0  0  0  0
  -23.4910  -32.1470   23.7530 O   0  0  0  0  0  0  0  0  0  0  0  0
  -22.7460  -29.4460   22.5220 C   0  0  0  0  0  0  0  0  0  0  0  0
  -21.4220  -29.2770   22.3900 N   0  0  0  0  0  0  0  0  0  0  0  0
  -23.4220  -28.8090   23.3370 O   0  0  0  0  0  0  0  0  0  0  0  0
  -20.9410  -29.8400   21.7010 H   0  0  0  0  0  0  0  0  0  0  0  0
  -18.0270  -28.1550   22.8980 C   0  0  0  0  0  0  0  0  0  0  0  0
  -20.5910  -28.3440   23.1500 C   0  0  0  0  0  3  0  0  0  0  0  0
  -20.6540  -26.9230   22.5450 C   0  0  0  0  0  2  0  0  0  0  0  0
  -19.5350  -26.6470   21.5370 C   0  0  0  0  0  2  0  0  0  0  0  0
  -18.1630  -26.8130   22.1960 C   0  0  0  0  0  2  0  0  0  0  0  0
  -19.1680  -28.8810   23.3300 C   0  0  0  0  0  0  0  0  0  0  0  0
  -18.9860  -30.1370   23.9480 C   0  0  0  0  0  3  0  0  0  0  0  0
  -17.6950  -30.6660   24.1370 C   0  0  0  0  0  3  0  0  0  0  0  0
  -16.5680  -29.9350   23.7220 C   0  0  0  0  0  3  0  0  0  0  0  0
  -16.7350  -28.6810   23.1080 C   0  0  0  0  0  3  0  0  0  0  0  0
  -25.8560  -32.5160   23.8690 C   0  0  0  0  0  3  0  0  0  0  0  0
  -26.3560  -31.7490   25.1560 C   0  0  1  0  0  0  0  0  0  0  0  0
  -25.2480  -31.5030   26.2050 C   0  0  0  0  0  1  0  0  0  0  0  0
  -26.9490  -30.3740   24.7700 C   0  0  0  0  0  1  0  0  0  0  0  0
  -27.4930  -32.5470   25.8330 C   0  0  0  0  0  1  0  0  0  0  0  0
  -25.5410  -33.9160   24.1860 N   0  0  0  0  0  0  0  0  0  0  0  0
  -25.8890  -34.9640   23.4270 C   0  0  0  0  0  0  0  0  0  0  0  0
  -26.5840  -34.8570   22.4130 O   0  0  0  0  0  0  0  0  0  0  0  0
  -24.9300  -34.0770   24.9730 H   0  0  0  0  0  0  0  0  0  0  0  0
  -24.1750  -36.7560   23.0150 C   0  0  0  0  0  1  0  0  0  0  0  0
  -25.3890  -36.3530   23.8660 C   0  0  0  0  0  3  0  0  0  0  0  0
  -27.4910  -37.2400   24.7700 C   0  0  0  0  0  1  0  0  0  0  0  0
  -26.4240  -37.4050   23.7850 N   0  0  0  0  0  0  0  0  0  0  0  0
  -26.0120  -38.3260   23.9120 H   0  0  0  0  0  0  0  0  0  0  0  0
  1  4  1  0
  2  1  2  0
  2  5  1  0
  4  7  1  0
  4  3  2  0
  5  6  2  0
  6  3  1  0
  6 54  1  0
  7  8  1  0
  9  7  1  0
  9 10  1  0
 11 19  1  0
 12 17  1  0
 13 14  1  0
 13 12  1  0
 15 14  1  0
 15 24  1  0
 15 16  1  0
 17 11  1  0
 17 16  1  0
 18 11  2  0
 19 10  1  0
 19 20  1  0
 21 22  2  0
 22 41  1  0
 23 22  1  0
 23 26  1  0
 24 21  1  0
 24 25  1  0
 25 23  2  0
 26 27  1  0
 27 28  2  0
 29 32  1  0
 29 28  1  0
 30 29  2  0
 31 30  1  0
 31 26  2  0
 32 33  1  0
 33 34  1  0
 34 35  2  0
 36 35  1  0
 36 40  1  0
 37 36  2  0
 38 33  2  0
 38 37  1  0
 39 38  1  0
 41 42  1  0
 42 45  1  0
 42 44  1  0
 43 41  2  0
 46 47  1  0
 46 21  1  0
 48 46  1  0
 49  5  1  0
 49 50  1  0
 51 49  1  0
 53 52  1  0
 53 51  1  0
 55 54  1  0
 56 55  1  0
 57 56  1  0
 58 69  2  0
 59 57  1  0
 59 64  1  0
 60 68  1  0
 60 70  1  0
 61 67  1  0
 61 63  1  0
 62 68  1  0
 63 64  2  0
 63 62  1  0
 65 59  2  0
 66 65  1  0
 66 61  2  0
 67 60  1  0
 68 58  1  0
 70 72  2  0
 71 70  1  0
 73 71  1  0
 74 83  2  0
 74 79  1  0
 75 71  1  0
 75 79  1  0
 76 75  1  0
 77 78  1  0
 77 76  1  0
 78 74  1  0
 79 80  2  0
 80 81  1  0
 82 81  2  0
 83 82  1  0
 84 58  1  0
 84 89  1  0
 84 85  1  0
 85 88  1  1
 85 86  1  0
 87 85  1  0
 89 92  1  0
 90 94  1  0
 90 89  1  0
 91 90  2  0
 94 93  1  0
 96 94  1  0
 96 97  1  0
 96 95  1  0
M  ISO  4  11 100  19 100  56 101  57 101
M  END
>  <TORSDO>  (21) 
F 25

>  <SCORE>  (21) 
-12.602

>  <name>  (21) 
20

>  <ligand_id>  (21) 
20

>  <original_smiles>  (21) 
[H]c1c([H])c([H])c2c(c1[H])C([H])([H])C([H])([H])C([H])([H])C2([H])N([H])C(=O)C1([H])N(C(=O)C([H])(N([H])C(=O)C([H])(N([H])C([H])([H])[H])C([H])([H])[H])C(C([H])([H])[H])(C([H])([H])[H])C([H])([H])[H])C([H])([H])c2c([H])c(OC([H])([H])C([H])([H])Oc3c([H])c(N([H])C([H])([H])C([H])([H])N([H])C(=O)N4C([H])([H])C([H])([H])C([H])([H])C([H])(n5nc(-c6c([H])c([H])c(Oc7c([H])c([H])c(F)c([H])c7F)c([H])c6[H])c(C(=O)N([H])[H])c5N([H])[H])C4([H])[H])c([H])c([H])c3N([H])C([H])([H])C([H])([H])C([H])([H])[H])c([H])c([H])c2C1([H])[H]

>  <smiles>  (21) 
[H]c1c([H])c([H])c2c(c1[H])C([H])([H])C([H])([H])C([H])([H])C2([H])N([H])C(=O)C1([H])N(C(=O)C([H])(N([H])C(=O)C([H])(N([H])C([H])([H])[H])C([H])([H])[H])C(C([H])([H])[H])(C([H])([H])[H])C([H])([H])[H])C([H])([H])c2c([H])c(OC([H])([H])C([H])([H])Oc3c([H])c(N([H])C([H])([H])C([H])([H])N([H])C(=O)N4C([H])([H])C([H])([H])C([H])([H])C([H])(n5nc(-c6c([H])c([H])c(Oc7c([H])c([H])c(F)c([H])c7F)c([H])c6[H])c(C(=O)N([H])[H])c5N([H])[H])C4([H])[H])c([H])c([H])c3N([H])C([H])([H])C([H])([H])C([H])([H])[H])c([H])c([H])c2C1([H])[H]

$$$$
21:0:0
     RDKit          3D

 96105  0  0  1  0  0  0  0  0999 V2000
  -27.7630  -24.9300   21.1920 C   0  0  0  0  0  2  0  0  0  0  0  0
  -30.0590  -25.3030   20.6300 C   0  0  0  0  0  2  0  0  0  0  0  0
  -28.7870  -26.0630   21.0120 C   0  0  0  0  0  3  0  0  0  0  0  0
  -28.5970  -23.7700   21.7670 C   0  0  0  0  0  3  0  0  0  0  0  0
  -29.9680  -23.9750   21.2680 N   0  0  0  0  0  4  0  0  0  0  0  0
  -30.6100  -23.9050   22.0440 H   0  0  0  0  0  0  0  0  0  0  0  0
  -30.1950  -23.2430   20.6110 H   0  0  0  0  0  0  0  0  0  0  0  0
  -28.5020  -26.9870   19.9620 O   0  0  0  0  0  0  0  0  0  0  0  0
  -24.6240  -31.9370   23.3250 C   0  0  0  0  0  0  0  0  0  0  0  0
  -27.3280  -27.6830   20.0740 C   0  0  0  0  0  0  0  0  0  0  0  0
  -23.4310  -30.5640   21.6460 C   0  0  0  0  0  3  0  0  0  0  0  0
  -24.9030  -29.1110   20.1580 C   0  0  0  0  0  0  0  0  0  0  0  0
  -25.9420  -30.9950   21.4310 C   0  0  0  0  0  2  0  0  0  0  0  0
  -26.0510  -29.6450   20.7580 C   0  0  0  0  0  0  0  0  0  0  0  0
  -27.2710  -28.9360   20.7200 C   0  0  0  0  0  3  0  0  0  0  0  0
  -26.1730  -27.1580   19.4650 C   0  0  0  0  0  3  0  0  0  0  0  0
  -24.9550  -27.8620   19.5130 C   0  0  0  0  0  3  0  0  0  0  0  0
  -23.6400  -29.9370   20.2410 C   0  0  0  0  0  2  0  0  0  0  0  0
  -24.6850  -31.1800   22.1920 N   0  0  0  0  0  0  0  0  0  0  0  0
  -23.5470  -32.1650   23.8870 O   0  0  0  0  0  0  0  0  0  0  0  0
  -22.8200  -29.4940   22.5790 C   0  0  0  0  0  0  0  0  0  0  0  0
  -21.5110  -29.2390   22.4190 N   0  0  0  0  0  0  0  0  0  0  0  0
  -23.5180  -28.8970   23.4010 O   0  0  0  0  0  0  0  0  0  0  0  0
  -21.0060  -29.7800   21.7330 H   0  0  0  0  0  0  0  0  0  0  0  0
  -18.2210  -27.7860   22.7380 C   0  0  0  0  0  0  0  0  0  0  0  0
  -20.7300  -28.2460   23.1580 C   0  0  0  0  0  3  0  0  0  0  0  0
  -20.9780  -26.8210   22.6110 C   0  0  0  0  0  2  0  0  0  0  0  0
  -19.9660  -26.4030   21.5400 C   0  0  0  0  0  2  0  0  0  0  0  0
  -18.5420  -26.4460   22.1020 C   0  0  0  0  0  2  0  0  0  0  0  0
  -19.2490  -28.6380   23.2210 C   0  0  0  0  0  0  0  0  0  0  0  0
  -18.8990  -29.8890   23.7730 C   0  0  0  0  0  3  0  0  0  0  0  0
  -17.5510  -30.2870   23.8530 C   0  0  0  0  0  3  0  0  0  0  0  0
  -16.5360  -29.4320   23.3910 C   0  0  0  0  0  3  0  0  0  0  0  0
  -16.8720  -28.1840   22.8370 C   0  0  0  0  0  3  0  0  0  0  0  0
  -25.9050  -32.5740   23.9490 C   0  0  0  0  0  3  0  0  0  0  0  0
  -26.4200  -31.8110   25.2310 C   0  0  1  0  0  0  0  0  0  0  0  0
  -25.3210  -31.5740   26.2930 C   0  0  0  0  0  1  0  0  0  0  0  0
  -27.0130  -30.4370   24.8430 C   0  0  0  0  0  1  0  0  0  0  0  0
  -27.5580  -32.6170   25.8990 C   0  0  0  0  0  1  0  0  0  0  0  0
  -25.5920  -33.9730   24.2670 N   0  0  0  0  0  0  0  0  0  0  0  0
  -25.9210  -35.0190   23.4980 C   0  0  0  0  0  0  0  0  0  0  0  0
  -26.5920  -34.9090   22.4680 O   0  0  0  0  0  0  0  0  0  0  0  0
  -24.9860  -34.1320   25.0610 H   0  0  0  0  0  0  0  0  0  0  0  0
  -24.1750  -36.7900   23.1360 C   0  0  0  0  0  1  0  0  0  0  0  0
  -25.4260  -36.4070   23.9430 C   0  0  0  0  0  3  0  0  0  0  0  0
  -27.5580  -37.3170   24.7470 C   0  0  0  0  0  1  0  0  0  0  0  0
  -26.4480  -37.4670   23.8100 N   0  0  0  0  0  0  0  0  0  0  0  0
  -26.0370  -38.3860   23.9490 H   0  0  0  0  0  0  0  0  0  0  0  0
  -28.0890  -22.3530   21.4260 C   0  0  0  0  0  2  0  0  0  0  0  0
  -29.2280  -21.4920   21.4150 O   0  0  0  0  0  0  0  0  0  0  0  0
  -28.9310  -20.1070   21.5350 C   0  0  0  0  0  2  0  0  0  0  0  0
  -32.4000  -18.6320   20.5670 C   0  0  0  0  0  3  0  0  0  0  0  0
  -32.0640  -17.2790   20.3980 C   0  0  0  0  0  3  0  0  0  0  0  0
  -29.7570  -17.7980   20.9670 C   0  0  0  0  0  3  0  0  0  0  0  0
  -31.4260  -19.5840   20.9360 C   0  0  0  0  0  0  0  0  0  0  0  0
  -30.0750  -19.1680   21.1260 C   0  0  0  0  0  0  0  0  0  0  0  0
  -30.7350  -16.8480   20.5960 C   0  0  0  0  0  0  0  0  0  0  0  0
  -31.8930  -21.0170   21.1290 C   0  0  0  0  0  1  0  0  0  0  0  0
  -30.9930  -14.4710   19.8700 C   0  0  0  0  0  0  0  0  0  0  0  0
  -30.6970  -12.1900   18.9770 C   0  0  0  0  0  2  0  0  0  0  0  0
  -29.7240  -12.2170   17.7820 C   0  0  0  0  0  2  0  0  0  0  0  0
  -28.2630  -12.1090   18.2650 C   0  0  0  0  0  2  0  0  0  0  0  0
  -27.9380  -13.1030   19.4110 C   0  0  0  0  0  3  0  0  0  0  0  0
  -29.0180  -13.0390   20.5130 C   0  0  0  0  0  2  0  0  0  0  0  0
  -30.3280  -13.2870   19.8840 N   0  0  0  0  0  0  0  0  0  0  0  0
  -32.0570  -14.6330   19.2640 O   0  0  0  0  0  0  0  0  0  0  0  0
  -30.3520  -15.4800   20.4870 N   0  0  0  0  0  0  0  0  0  0  0  0
  -29.4350  -15.2440   20.8380 H   0  0  0  0  0  0  0  0  0  0  0  0
  -25.5930  -13.7870   20.2230 C   0  0  0  0  0  0  0  0  0  0  0  0
  -24.5240  -13.0470   20.6530 C   0  0  0  0  0  0  0  0  0  0  0  0
  -24.9450  -11.6820   20.6110 C   0  0  0  0  0  0  0  0  0  0  0  0
  -26.6010  -12.8740   19.9530 N   0  0  0  0  0  0  0  0  0  0  0  0
  -26.2160  -11.6040   20.2400 N   0  0  0  0  0  0  0  0  0  0  0  0
  -24.1940  -10.4410   20.8470 C   0  0  0  0  0  0  0  0  0  0  0  0
  -24.5920   -9.5140   21.8330 C   0  0  0  0  0  3  0  0  0  0  0  0
  -23.8440   -8.3380   22.0530 C   0  0  0  0  0  3  0  0  0  0  0  0
  -22.6840   -8.0810   21.2860 C   0  0  0  0  0  0  0  0  0  0  0  0
  -22.3040   -8.9970   20.2880 C   0  0  0  0  0  3  0  0  0  0  0  0
  -23.0530  -10.1650   20.0670 C   0  0  0  0  0  3  0  0  0  0  0  0
  -21.9090   -6.9540   21.4120 O   0  0  0  0  0  0  0  0  0  0  0  0
  -21.7670   -6.3090   22.6150 C   0  0  0  0  0  0  0  0  0  0  0  0
  -21.2570   -6.9660   23.7560 C   0  0  0  0  0  3  0  0  0  0  0  0
  -21.0620   -6.2490   24.9540 C   0  0  0  0  0  3  0  0  0  0  0  0
  -21.3660   -4.8750   25.0090 C   0  0  0  0  0  0  0  0  0  0  0  0
  -21.8690   -4.2180   23.8720 C   0  0  0  0  0  3  0  0  0  0  0  0
  -22.0650   -4.9330   22.6780 C   0  0  0  0  0  0  0  0  0  0  0  0
  -22.5300   -4.2910   21.5790 F   0  0  0  0  0  0  0  0  0  0  0  0
  -21.1730   -4.1820   26.1560 F   0  0  0  0  0  0  0  0  0  0  0  0
  -23.1550  -13.5650   20.9900 C   0  0  0  0  0  0  0  0  0  0  0  0
  -22.4610  -12.9050   21.9110 N   0  0  0  0  0  0  0  0  0  0  0  0
  -22.7120  -14.5890   20.4720 O   0  0  0  0  0  0  0  0  0  0  0  0
  -22.8320  -12.0760   22.3510 H   0  0  0  0  0  0  0  0  0  0  0  0
  -21.5440  -13.2320   22.1800 H   0  0  0  0  0  0  0  0  0  0  0  0
  -25.7900  -15.1500   20.0250 N   0  0  0  0  0  0  0  0  0  0  0  0
  -25.0480  -15.8290   20.1470 H   0  0  0  0  0  0  0  0  0  0  0  0
  -26.6300  -15.5500   19.6260 H   0  0  0  0  0  0  0  0  0  0  0  0
  1  4  1  0
  2  3  1  0
  2  5  1  0
  3  8  1  0
  3  1  1  0
  4 49  1  0
  5  4  1  0
  5  6  1  0
  7  5  1  0
  8 10  1  0
  9 20  2  0
 10 15  1  0
 11 19  1  0
 11 21  1  0
 12 18  1  0
 12 14  1  0
 13 19  1  0
 14 13  1  0
 15 14  2  0
 16 17  1  0
 16 10  2  0
 17 12  2  0
 18 11  1  0
 19  9  1  0
 21 23  2  0
 22 21  1  0
 24 22  1  0
 25 34  2  0
 25 30  1  0
 26 22  1  0
 26 30  1  0
 27 26  1  0
 28 29  1  0
 28 27  1  0
 29 25  1  0
 30 31  2  0
 31 32  1  0
 33 32  2  0
 34 33  1  0
 35  9  1  0
 35 40  1  0
 35 36  1  0
 36 39  1  1
 36 37  1  0
 38 36  1  0
 40 43  1  0
 41 45  1  0
 41 40  1  0
 42 41  2  0
 45 44  1  0
 47 45  1  0
 47 48  1  0
 47 46  1  0
 50 49  1  0
 50 51  1  0
 52 55  1  0
 53 52  2  0
 53 57  1  0
 54 56  1  0
 55 56  2  0
 55 58  1  0
 56 51  1  0
 57 54  2  0
 59 65  1  0
 59 67  1  0
 60 65  1  0
 61 62  1  0
 61 60  1  0
 63 62  1  0
 63 72  1  0
 63 64  1  0
 65 64  1  0
 66 59  2  0
 67 57  1  0
 67 68  1  0
 69 70  2  0
 70 89  1  0
 71 70  1  0
 71 74  1  0
 72 69  1  0
 72 73  1  0
 73 71  2  0
 74 75  1  0
 75 76  2  0
 77 80  1  0
 77 76  1  0
 78 77  2  0
 79 78  1  0
 79 74  2  0
 80 81  1  0
 81 86  2  0
 81 82  1  0
 82 83  2  0
 83 84  1  0
 84 88  1  0
 85 84  2  0
 86 85  1  0
 87 86  1  0
 89 90  1  0
 90 93  1  0
 90 92  1  0
 91 89  2  0
 94 95  1  0
 94 69  1  0
 96 94  1  0
M  ISO  4   3 101   8 101  59 100  67 100
M  END
>  <TORSDO>  (22) 
F 20

>  <SCORE>  (22) 
-13.253

>  <name>  (22) 
21

>  <ligand_id>  (22) 
21

>  <original_smiles>  (22) 
[H]c1c([H])c([H])c2c(c1[H])C([H])([H])C([H])([H])C([H])([H])C2([H])N([H])C(=O)C1([H])N(C(=O)C([H])(N([H])C(=O)C([H])(N([H])C([H])([H])[H])C([H])([H])[H])C(C([H])([H])[H])(C([H])([H])[H])C([H])([H])[H])C([H])([H])c2c([H])c(OC3([H])C([H])([H])C([H])(C([H])([H])OC([H])([H])c4c([H])c(N([H])C(=O)N5C([H])([H])C([H])([H])C([H])([H])C([H])(n6nc(-c7c([H])c([H])c(Oc8c([H])c([H])c(F)c([H])c8F)c([H])c7[H])c(C(=O)N([H])[H])c6N([H])[H])C5([H])[H])c([H])c([H])c4C([H])([H])[H])[N+]([H])([H])C3([H])[H])c([H])c([H])c2C1([H])[H]

>  <smiles>  (22) 
[H]c1c([H])c([H])c2c(c1[H])C([H])([H])C([H])([H])C([H])([H])C2([H])N([H])C(=O)C1([H])N(C(=O)C([H])(N([H])C(=O)C([H])(N([H])C([H])([H])[H])C([H])([H])[H])C(C([H])([H])[H])(C([H])([H])[H])C([H])([H])[H])C([H])([H])c2c([H])c(OC3([H])C([H])([H])C([H])(C([H])([H])OC([H])([H])c4c([H])c(N([H])C(=O)N5C([H])([H])C([H])([H])C([H])([H])C([H])(n6nc(-c7c([H])c([H])c(Oc8c([H])c([H])c(F)c([H])c8F)c([H])c7[H])c(C(=O)N([H])[H])c6N([H])[H])C5([H])[H])c([H])c([H])c4C([H])([H])[H])[N+]([H])([H])C3([H])[H])c([H])c([H])c2C1([H])[H]

$$$$
22:0:0
     RDKit          3D

 95104  0  0  1  0  0  0  0  0999 V2000
  -29.5380  -23.9540   19.6840 C   0  0  0  0  0  3  0  0  0  0  0  0
  -28.9900  -23.3310   21.9580 C   0  0  0  0  0  3  0  0  0  0  0  0
  -30.1140  -22.6740   19.4890 C   0  0  0  0  0  3  0  0  0  0  0  0
  -29.5620  -22.0550   21.7610 C   0  0  0  0  0  3  0  0  0  0  0  0
  -28.9710  -24.2980   20.9280 C   0  0  0  0  0  0  0  0  0  0  0  0
  -30.1410  -21.6990   20.5190 C   0  0  0  0  0  0  0  0  0  0  0  0
  -32.4250  -19.1100   19.1220 C   0  0  0  0  0  2  0  0  0  0  0  0
  -32.1430  -17.9280   20.0620 C   0  0  0  0  0  2  0  0  0  0  0  0
  -30.4070  -19.2950   21.1960 C   0  0  0  0  0  2  0  0  0  0  0  0
  -32.1100  -20.4610   19.7740 C   0  0  0  0  0  3  0  0  0  0  0  0
  -33.1380  -20.8740   20.8460 C   0  0  0  0  0  1  0  0  0  0  0  0
  -30.7430  -20.4280   20.3040 N   0  0  0  0  0  0  0  0  0  0  0  0
  -30.7590  -17.9570   20.6090 N   0  0  2  0  0  4  0  0  0  0  0  0
  -30.1260  -17.8400   19.8340 H   0  0  0  0  0  0  0  0  0  0  0  0
  -30.5130  -16.8190   21.5610 C   0  0  0  0  0  2  0  0  0  0  0  0
  -30.7200  -14.4880   20.5460 C   0  0  0  0  0  0  0  0  0  0  0  0
  -30.4140  -12.3430   19.3550 C   0  0  0  0  0  2  0  0  0  0  0  0
  -29.4770  -12.5420   18.1460 C   0  0  0  0  0  2  0  0  0  0  0  0
  -28.0000  -12.4070   18.5690 C   0  0  0  0  0  2  0  0  0  0  0  0
  -27.6590  -13.2470   19.8290 C   0  0  0  0  0  3  0  0  0  0  0  0
  -28.7060  -13.0200   20.9420 C   0  0  0  0  0  2  0  0  0  0  0  0
  -30.0320  -13.3270   20.3790 N   0  0  0  0  0  0  0  0  0  0  0  0
  -31.8580  -14.6590   20.1080 O   0  0  0  0  0  0  0  0  0  0  0  0
  -30.0260  -15.4970   21.1090 N   0  0  0  0  0  0  0  0  0  0  0  0
  -29.0800  -15.2670   21.3740 H   0  0  0  0  0  0  0  0  0  0  0  0
  -25.2580  -13.8750   20.5100 C   0  0  0  0  0  0  0  0  0  0  0  0
  -24.1820  -13.1120   20.8770 C   0  0  0  0  0  0  0  0  0  0  0  0
  -24.6350  -11.7570   20.8610 C   0  0  0  0  0  0  0  0  0  0  0  0
  -26.2990  -12.9860   20.2990 N   0  0  0  0  0  0  0  0  0  0  0  0
  -25.9280  -11.7080   20.5660 N   0  0  0  0  0  0  0  0  0  0  0  0
  -23.9000  -10.5000   21.0540 C   0  0  0  0  0  0  0  0  0  0  0  0
  -24.3280   -9.5330   21.9900 C   0  0  0  0  0  3  0  0  0  0  0  0
  -23.5970   -8.3400   22.1710 C   0  0  0  0  0  3  0  0  0  0  0  0
  -22.4230   -8.1060   21.4170 C   0  0  0  0  0  0  0  0  0  0  0  0
  -22.0110   -9.0620   20.4720 C   0  0  0  0  0  3  0  0  0  0  0  0
  -22.7430  -10.2480   20.2890 C   0  0  0  0  0  3  0  0  0  0  0  0
  -21.6630   -6.9650   21.5080 O   0  0  0  0  0  0  0  0  0  0  0  0
  -21.6210   -6.2170   22.6570 C   0  0  0  0  0  0  0  0  0  0  0  0
  -21.2250   -6.7720   23.8930 C   0  0  0  0  0  3  0  0  0  0  0  0
  -21.1310   -5.9510   25.0350 C   0  0  0  0  0  3  0  0  0  0  0  0
  -21.4210   -4.5760   24.9410 C   0  0  0  0  0  0  0  0  0  0  0  0
  -21.8110   -4.0220   23.7090 C   0  0  0  0  0  3  0  0  0  0  0  0
  -21.9080   -4.8390   22.5700 C   0  0  0  0  0  0  0  0  0  0  0  0
  -22.2630   -4.2950   21.3810 F   0  0  0  0  0  0  0  0  0  0  0  0
  -21.3230   -3.7860   26.0360 F   0  0  0  0  0  0  0  0  0  0  0  0
  -22.7850  -13.5990   21.1320 C   0  0  0  0  0  0  0  0  0  0  0  0
  -22.0450  -12.9150   21.9980 N   0  0  0  0  0  0  0  0  0  0  0  0
  -22.3580  -14.6230   20.6000 O   0  0  0  0  0  0  0  0  0  0  0  0
  -22.4030  -12.0860   22.4500 H   0  0  0  0  0  0  0  0  0  0  0  0
  -21.1080  -13.2240   22.2130 H   0  0  0  0  0  0  0  0  0  0  0  0
  -25.4330  -15.2420   20.3230 N   0  0  0  0  0  0  0  0  0  0  0  0
  -24.6640  -15.8980   20.3980 H   0  0  0  0  0  0  0  0  0  0  0  0
  -26.2830  -15.6660   19.9700 H   0  0  0  0  0  0  0  0  0  0  0  0
  -28.3000  -25.6530   21.1990 C   0  0  0  0  0  2  0  0  0  0  0  0
  -28.3630  -26.6370   20.1490 O   0  0  0  0  0  0  0  0  0  0  0  0
  -24.5940  -31.8730   23.2080 C   0  0  0  0  0  0  0  0  0  0  0  0
  -27.2360  -27.4300   20.1210 C   0  0  0  0  0  0  0  0  0  0  0  0
  -23.3860  -30.4680   21.5690 C   0  0  0  0  0  3  0  0  0  0  0  0
  -24.8400  -28.9290   20.1410 C   0  0  0  0  0  0  0  0  0  0  0  0
  -25.9100  -30.8320   21.3620 C   0  0  0  0  0  2  0  0  0  0  0  0
  -25.9990  -29.4590   20.7240 C   0  0  0  0  0  0  0  0  0  0  0  0
  -27.2050  -28.7150   20.7150 C   0  0  0  0  0  3  0  0  0  0  0  0
  -26.0650  -26.9210   19.5250 C   0  0  0  0  0  3  0  0  0  0  0  0
  -24.8670  -27.6580   19.5400 C   0  0  0  0  0  3  0  0  0  0  0  0
  -23.5920  -29.7830   20.1910 C   0  0  0  0  0  2  0  0  0  0  0  0
  -24.6490  -31.0720   22.1050 N   0  0  0  0  0  0  0  0  0  0  0  0
  -23.5140  -32.1450   23.7500 O   0  0  0  0  0  0  0  0  0  0  0  0
  -22.7350  -29.4500   22.5340 C   0  0  0  0  0  0  0  0  0  0  0  0
  -21.4100  -29.2710   22.4120 N   0  0  0  0  0  0  0  0  0  0  0  0
  -23.4210  -28.8250   23.3470 O   0  0  0  0  0  0  0  0  0  0  0  0
  -20.9170  -29.8310   21.7300 H   0  0  0  0  0  0  0  0  0  0  0  0
  -18.0350  -28.0750   22.9130 C   0  0  0  0  0  0  0  0  0  0  0  0
  -20.5940  -28.3320   23.1820 C   0  0  0  0  0  3  0  0  0  0  0  0
  -20.6940  -26.9010   22.6060 C   0  0  0  0  0  2  0  0  0  0  0  0
  -19.5910  -26.5770   21.5940 C   0  0  0  0  0  2  0  0  0  0  0  0
  -18.2110  -26.7240   22.2400 C   0  0  0  0  0  2  0  0  0  0  0  0
  -19.1550  -28.8360   23.3420 C   0  0  0  0  0  0  0  0  0  0  0  0
  -18.9390  -30.1020   23.9300 C   0  0  0  0  0  3  0  0  0  0  0  0
  -17.6350  -30.6040   24.0980 C   0  0  0  0  0  3  0  0  0  0  0  0
  -16.5300  -29.8380   23.6890 C   0  0  0  0  0  3  0  0  0  0  0  0
  -16.7300  -28.5760   23.1010 C   0  0  0  0  0  3  0  0  0  0  0  0
  -25.8810  -32.5020   23.8250 C   0  0  0  0  0  3  0  0  0  0  0  0
  -26.4100  -31.7240   25.0930 C   0  0  1  0  0  0  0  0  0  0  0  0
  -25.3260  -31.4790   26.1680 C   0  0  0  0  0  1  0  0  0  0  0  0
  -26.9930  -30.3510   24.6860 C   0  0  0  0  0  1  0  0  0  0  0  0
  -27.5660  -32.5160   25.7480 C   0  0  0  0  0  1  0  0  0  0  0  0
  -25.5720  -33.8990   24.1650 N   0  0  0  0  0  0  0  0  0  0  0  0
  -25.9010  -34.9540   23.4090 C   0  0  0  0  0  0  0  0  0  0  0  0
  -26.5690  -34.8580   22.3750 O   0  0  0  0  0  0  0  0  0  0  0  0
  -24.9780  -34.0500   24.9670 H   0  0  0  0  0  0  0  0  0  0  0  0
  -24.1690  -36.7460   23.0680 C   0  0  0  0  0  1  0  0  0  0  0  0
  -25.4120  -36.3390   23.8750 C   0  0  0  0  0  3  0  0  0  0  0  0
  -27.5500  -37.2180   24.7050 C   0  0  0  0  0  1  0  0  0  0  0  0
  -26.4430  -37.3940   23.7690 N   0  0  0  0  0  0  0  0  0  0  0  0
  -26.0360  -38.3120   23.9270 H   0  0  0  0  0  0  0  0  0  0  0  0
  1  5  1  0
  3  1  2  0
  3  6  1  0
  4  2  1  0
  5 54  1  0
  5  2  2  0
  6  4  2  0
  7 10  1  0
  7  8  1  0
  8 13  1  0
 10 12  1  0
 10 11  1  0
 12  6  1  0
 12  9  1  0
 13  9  1  0
 13 15  1  0
 13 14  1  6
 16 24  1  0
 17 22  1  0
 18 19  1  0
 18 17  1  0
 20 19  1  0
 20 29  1  0
 20 21  1  0
 22 16  1  0
 22 21  1  0
 23 16  2  0
 24 25  1  0
 24 15  1  0
 26 27  2  0
 27 46  1  0
 28 27  1  0
 28 31  1  0
 29 26  1  0
 29 30  1  0
 30 28  2  0
 31 32  1  0
 32 33  2  0
 34 37  1  0
 34 33  1  0
 35 34  2  0
 36 35  1  0
 36 31  2  0
 37 38  1  0
 38 39  1  0
 39 40  2  0
 41 40  1  0
 41 45  1  0
 42 41  2  0
 43 38  2  0
 43 42  1  0
 44 43  1  0
 46 47  1  0
 47 50  1  0
 47 49  1  0
 48 46  2  0
 51 52  1  0
 51 26  1  0
 53 51  1  0
 55 54  1  0
 56 67  2  0
 57 55  1  0
 57 62  1  0
 58 66  1  0
 58 68  1  0
 59 65  1  0
 59 61  1  0
 60 66  1  0
 61 60  1  0
 62 61  2  0
 63 64  1  0
 63 57  2  0
 64 59  2  0
 65 58  1  0
 66 56  1  0
 68 70  2  0
 69 68  1  0
 71 69  1  0
 72 81  2  0
 72 77  1  0
 73 69  1  0
 73 77  1  0
 74 73  1  0
 75 76  1  0
 75 74  1  0
 76 72  1  0
 77 78  2  0
 78 79  1  0
 80 79  2  0
 81 80  1  0
 82 56  1  0
 82 87  1  0
 82 83  1  0
 83 86  1  1
 83 84  1  0
 85 83  1  0
 87 90  1  0
 88 92  1  0
 88 87  1  0
 89 88  2  0
 92 91  1  0
 94 92  1  0
 94 95  1  0
 94 93  1  0
M  ISO  4  16 100  24 100  54 101  55 101
M  END
>  <TORSDO>  (23) 
F 19

>  <SCORE>  (23) 
-14.575

>  <name>  (23) 
22

>  <ligand_id>  (23) 
22

>  <original_smiles>  (23) 
[H]c1c([H])c([H])c2c(c1[H])C([H])([H])C([H])([H])C([H])([H])C2([H])N([H])C(=O)C1([H])N(C(=O)C([H])(N([H])C(=O)C([H])(N([H])C([H])([H])[H])C([H])([H])[H])C(C([H])([H])[H])(C([H])([H])[H])C([H])([H])[H])C([H])([H])c2c([H])c(OC([H])([H])c3c([H])c([H])c(N4C([H])(C([H])([H])[H])C([H])([H])C([H])([H])[N+]([H])(C([H])([H])N([H])C(=O)N5C([H])([H])C([H])([H])C([H])([H])C([H])(n6nc(-c7c([H])c([H])c(Oc8c([H])c([H])c(F)c([H])c8F)c([H])c7[H])c(C(=O)N([H])[H])c6N([H])[H])C5([H])[H])C4([H])[H])c([H])c3[H])c([H])c([H])c2C1([H])[H]

>  <smiles>  (23) 
[H]c1c([H])c([H])c2c(c1[H])C([H])([H])C([H])([H])C([H])([H])C2([H])N([H])C(=O)C1([H])N(C(=O)C([H])(N([H])C(=O)C([H])(N([H])C([H])([H])[H])C([H])([H])[H])C(C([H])([H])[H])(C([H])([H])[H])C([H])([H])[H])C([H])([H])c2c([H])c(OC([H])([H])c3c([H])c([H])c(N4C([H])(C([H])([H])[H])C([H])([H])C([H])([H])[N+]([H])(C([H])([H])N([H])C(=O)N5C([H])([H])C([H])([H])C([H])([H])C([H])(n6nc(-c7c([H])c([H])c(Oc8c([H])c([H])c(F)c([H])c8F)c([H])c7[H])c(C(=O)N([H])[H])c6N([H])[H])C5([H])[H])C4([H])[H])c([H])c3[H])c([H])c([H])c2C1([H])[H]

$$$$
23:0:0
     RDKit          3D

100110  0  0  1  0  0  0  0  0999 V2000
  -28.5620  -20.9470   20.1760 C   0  0  0  0  0  3  0  0  0  0  0  0
  -29.1090  -18.5470   20.0140 C   0  0  0  0  0  3  0  0  0  0  0  0
  -30.5350  -20.0420   21.2750 C   0  0  0  0  0  3  0  0  0  0  0  0
  -28.2700  -19.6350   19.6970 C   0  0  0  0  0  0  0  0  0  0  0  0
  -29.6870  -21.1890   21.0110 C   0  0  0  0  0  0  0  0  0  0  0  0
  -30.2670  -18.7070   20.7900 C   0  0  0  0  0  0  0  0  0  0  0  0
  -27.0220  -19.2940   18.8820 C   0  0  0  0  0  2  0  0  0  0  0  0
  -25.8060  -20.2300   18.9970 C   0  0  0  0  0  2  0  0  0  0  0  0
  -23.1860  -21.0160   16.7040 C   0  0  0  0  0  2  0  0  0  0  0  0
  -24.4360  -20.1480   16.8590 C   0  0  0  0  0  2  0  0  0  0  0  0
  -23.4090  -22.2290   17.6090 C   0  0  0  0  0  2  0  0  0  0  0  0
  -25.6580  -22.8980   16.8760 C   0  0  0  0  0  2  0  0  0  0  0  0
  -26.6190  -21.7300   16.9590 C   0  0  0  0  0  3  0  0  0  0  0  0
  -25.4780  -20.9500   17.6670 C   0  0  2  0  0  0  0  0  0  0  0  0
  -27.2860  -21.2740   15.6620 C   0  0  0  0  0  1  0  0  0  0  0  0
  -24.8510  -22.2620   17.9130 N   0  0  2  0  0  4  0  0  0  0  0  0
  -25.0630  -22.6480   18.8220 H   0  0  0  0  0  0  0  0  0  0  0  0
  -29.8530  -22.5830   21.7720 C   0  0  0  0  0  2  0  0  0  0  0  0
  -30.0710  -24.0330   21.0630 C   0  0  0  0  0  3  0  0  0  0  0  0
  -29.6310  -25.3920   21.8340 C   0  0  0  0  0  3  0  0  0  0  0  0
  -29.7130  -26.7420   21.1820 O   0  0  0  0  0  0  0  0  0  0  0  0
  -25.4670  -32.0730   23.6570 C   0  0  0  0  0  0  0  0  0  0  0  0
  -28.5530  -27.5330   21.0380 C   0  0  0  0  0  0  0  0  0  0  0  0
  -24.4700  -30.5440   21.9920 C   0  0  0  0  0  3  0  0  0  0  0  0
  -26.1120  -29.0130   20.7600 C   0  0  0  0  0  0  0  0  0  0  0  0
  -26.9940  -31.0000   21.9820 C   0  0  0  0  0  2  0  0  0  0  0  0
  -27.2080  -29.6020   21.4050 C   0  0  0  0  0  0  0  0  0  0  0  0
  -28.4370  -28.8800   21.5170 C   0  0  0  0  0  3  0  0  0  0  0  0
  -27.4420  -27.0030   20.3530 C   0  0  0  0  0  3  0  0  0  0  0  0
  -26.2330  -27.7210   20.2230 C   0  0  0  0  0  3  0  0  0  0  0  0
  -24.8310  -29.8180   20.6690 C   0  0  0  0  0  2  0  0  0  0  0  0
  -25.6570  -31.2300   22.6000 N   0  0  0  0  0  0  0  0  0  0  0  0
  -24.3320  -32.3130   24.0980 O   0  0  0  0  0  0  0  0  0  0  0  0
  -23.7900  -29.5380   22.9490 C   0  0  0  0  0  0  0  0  0  0  0  0
  -22.5040  -29.2340   22.6970 N   0  0  0  0  0  0  0  0  0  0  0  0
  -24.4200  -29.0290   23.8790 O   0  0  0  0  0  0  0  0  0  0  0  0
  -22.0440  -29.7040   21.9300 H   0  0  0  0  0  0  0  0  0  0  0  0
  -19.1810  -27.8210   22.9770 C   0  0  0  0  0  0  0  0  0  0  0  0
  -21.6890  -28.2670   23.4350 C   0  0  0  0  0  3  0  0  0  0  0  0
  -21.9320  -26.8280   22.9200 C   0  0  0  0  0  2  0  0  0  0  0  0
  -20.9340  -26.3960   21.8390 C   0  0  0  0  0  2  0  0  0  0  0  0
  -19.5020  -26.4630   22.3770 C   0  0  0  0  0  2  0  0  0  0  0  0
  -20.2110  -28.6740   23.4610 C   0  0  0  0  0  0  0  0  0  0  0  0
  -19.8590  -29.9380   23.9820 C   0  0  0  0  0  3  0  0  0  0  0  0
  -18.5160  -30.3540   24.0260 C   0  0  0  0  0  3  0  0  0  0  0  0
  -17.5000  -29.4990   23.5590 C   0  0  0  0  0  3  0  0  0  0  0  0
  -17.8350  -28.2370   23.0420 C   0  0  0  0  0  3  0  0  0  0  0  0
  -26.6640  -32.8030   24.3450 C   0  0  0  0  0  3  0  0  0  0  0  0
  -26.1570  -34.0670   24.9040 N   0  0  0  0  0  0  0  0  0  0  0  0
  -26.2620  -35.2610   24.3010 C   0  0  0  0  0  0  0  0  0  0  0  0
  -26.8640  -35.4210   23.2360 O   0  0  0  0  0  0  0  0  0  0  0  0
  -25.6120  -34.0050   25.7510 H   0  0  0  0  0  0  0  0  0  0  0  0
  -24.2540  -36.7700   24.3110 C   0  0  0  0  0  1  0  0  0  0  0  0
  -25.5990  -36.4670   24.9900 C   0  0  0  0  0  3  0  0  0  0  0  0
  -27.6400  -37.5530   25.8200 C   0  0  0  0  0  1  0  0  0  0  0  0
  -26.4440  -37.6830   24.9920 N   0  0  0  0  0  0  0  0  0  0  0  0
  -25.9150  -38.4850   25.3260 H   0  0  0  0  0  0  0  0  0  0  0  0
  -27.3570  -31.9390   25.4700 C   0  0  1  0  0  0  0  0  0  0  0  0
  -26.3620  -31.1530   26.3540 C   0  0  0  0  0  1  0  0  0  0  0  0
  -28.3400  -30.9140   24.8570 C   0  0  0  0  0  1  0  0  0  0  0  0
  -28.2000  -32.8550   26.3890 C   0  0  0  0  0  1  0  0  0  0  0  0
  -31.1660  -17.4470   21.1080 C   0  0  0  0  0  2  0  0  0  0  0  0
  -31.3690  -14.9880   20.2810 C   0  0  0  0  0  0  0  0  0  0  0  0
  -31.0550  -12.9190   18.9280 C   0  0  0  0  0  2  0  0  0  0  0  0
  -30.1150  -13.2440   17.7500 C   0  0  0  0  0  2  0  0  0  0  0  0
  -28.6350  -13.1090   18.1670 C   0  0  0  0  0  2  0  0  0  0  0  0
  -28.3230  -13.7640   19.5410 C   0  0  0  0  0  3  0  0  0  0  0  0
  -29.3950  -13.4190   20.5980 C   0  0  0  0  0  2  0  0  0  0  0  0
  -30.6950  -13.8150   20.0460 N   0  0  0  0  0  0  0  0  0  0  0  0
  -32.5200  -15.1460   19.8700 O   0  0  0  0  0  0  0  0  0  0  0  0
  -30.6700  -16.0380   20.8350 N   0  0  0  0  0  0  0  0  0  0  0  0
  -29.7410  -15.8240   21.1540 H   0  0  0  0  0  0  0  0  0  0  0  0
  -25.9050  -14.2950   20.2140 C   0  0  0  0  0  0  0  0  0  0  0  0
  -24.8580  -13.4990   20.5810 C   0  0  0  0  0  0  0  0  0  0  0  0
  -25.3580  -12.1610   20.5720 C   0  0  0  0  0  0  0  0  0  0  0  0
  -26.9790  -13.4440   20.0040 N   0  0  0  0  0  0  0  0  0  0  0  0
  -26.6520  -12.1550   20.2770 N   0  0  0  0  0  0  0  0  0  0  0  0
  -24.6620  -10.8810   20.7650 C   0  0  0  0  0  0  0  0  0  0  0  0
  -24.9490  -10.0440   21.8680 C   0  0  0  0  0  3  0  0  0  0  0  0
  -24.2530   -8.8300   22.0460 C   0  0  0  0  0  3  0  0  0  0  0  0
  -23.2580   -8.4420   21.1160 C   0  0  0  0  0  0  0  0  0  0  0  0
  -22.9940   -9.2630   20.0070 C   0  0  0  0  0  3  0  0  0  0  0  0
  -23.6910  -10.4690   19.8280 C   0  0  0  0  0  3  0  0  0  0  0  0
  -22.5480   -7.2690   21.1950 O   0  0  0  0  0  0  0  0  0  0  0  0
  -22.1920   -6.7220   22.4010 C   0  0  0  0  0  0  0  0  0  0  0  0
  -21.3300   -7.3900   23.2980 C   0  0  0  0  0  3  0  0  0  0  0  0
  -20.9370   -6.7600   24.4950 C   0  0  0  0  0  3  0  0  0  0  0  0
  -21.3930   -5.4620   24.7920 C   0  0  0  0  0  0  0  0  0  0  0  0
  -22.2490   -4.7940   23.8980 C   0  0  0  0  0  3  0  0  0  0  0  0
  -22.6450   -5.4220   22.7050 C   0  0  0  0  0  0  0  0  0  0  0  0
  -23.4540   -4.7670   21.8370 F   0  0  0  0  0  0  0  0  0  0  0  0
  -21.0060   -4.8530   25.9390 F   0  0  0  0  0  0  0  0  0  0  0  0
  -23.4440  -13.9420   20.8320 C   0  0  0  0  0  0  0  0  0  0  0  0
  -22.7370  -13.2810   21.7430 N   0  0  0  0  0  0  0  0  0  0  0  0
  -22.9680  -14.9160   20.2480 O   0  0  0  0  0  0  0  0  0  0  0  0
  -23.1250  -12.4880   22.2330 H   0  0  0  0  0  0  0  0  0  0  0  0
  -21.7920  -13.5710   21.9530 H   0  0  0  0  0  0  0  0  0  0  0  0
  -26.0320  -15.6700   20.0340 N   0  0  0  0  0  0  0  0  0  0  0  0
  -25.2500  -16.2970   20.1770 H   0  0  0  0  0  0  0  0  0  0  0  0
  -26.8830  -16.1420   19.7670 H   0  0  0  0  0  0  0  0  0  0  0  0
  1  5  1  0
  2  6  2  0
  4  2  1  0
  4  1  2  0
  5  3  2  0
  5 18  1  0
  6 62  1  0
  6  3  1  0
  7  8  1  0
  7  4  1  0
  9 10  1  0
  9 11  1  0
 10 14  1  0
 11 16  1  0
 12 13  1  0
 12 16  1  0
 13 15  1  0
 13 14  1  0
 14 16  1  0
 14  8  1  1
 16 17  1  1
 19 18  1  0
 19 20  2  0
 21 20  1  0
 22 33  2  0
 23 21  1  0
 23 28  1  0
 24 32  1  0
 24 34  1  0
 25 27  1  0
 26 32  1  0
 27 28  2  0
 27 26  1  0
 29 23  2  0
 30 29  1  0
 30 25  2  0
 31 25  1  0
 31 24  1  0
 32 22  1  0
 34 36  2  0
 35 34  1  0
 37 35  1  0
 38 47  2  0
 38 43  1  0
 39 35  1  0
 39 43  1  0
 40 39  1  0
 41 42  1  0
 41 40  1  0
 42 38  1  0
 43 44  2  0
 44 45  1  0
 46 45  2  0
 47 46  1  0
 48 22  1  0
 48 49  1  0
 48 58  1  0
 49 52  1  0
 50 49  1  0
 50 54  1  0
 51 50  2  0
 54 53  1  0
 54 56  1  0
 56 57  1  0
 56 55  1  0
 58 59  1  1
 58 61  1  0
 60 58  1  0
 63 71  1  0
 64 69  1  0
 65 66  1  0
 65 64  1  0
 67 66  1  0
 67 76  1  0
 67 68  1  0
 69 63  1  0
 69 68  1  0
 70 63  2  0
 71 62  1  0
 71 72  1  0
 73 74  2  0
 74 93  1  0
 75 74  1  0
 75 78  1  0
 76 73  1  0
 76 77  1  0
 77 75  2  0
 78 79  1  0
 79 80  2  0
 81 84  1  0
 81 80  1  0
 82 81  2  0
 83 82  1  0
 83 78  2  0
 84 85  1  0
 85 90  2  0
 85 86  1  0
 86 87  2  0
 87 88  1  0
 88 92  1  0
 89 88  2  0
 90 89  1  0
 91 90  1  0
 93 94  1  0
 94 97  1  0
 94 96  1  0
 95 93  2  0
 98 99  1  0
 98 73  1  0
100 98  1  0
M  ISO  4  20 101  21 101  63 100  71 100
M  END
>  <TORSDO>  (24) 
F 23

>  <SCORE>  (24) 
-4.604

>  <name>  (24) 
23

>  <ligand_id>  (24) 
23

>  <original_smiles>  (24) 
[H]c1c([H])c([H])c2c(c1[H])C([H])([H])C([H])([H])C([H])([H])C2([H])N([H])C(=O)C1([H])N(C(=O)C([H])(N([H])C(=O)C([H])(N([H])C([H])([H])[H])C([H])([H])[H])C(C([H])([H])[H])(C([H])([H])[H])C([H])([H])[H])C([H])([H])c2c([H])c(OC([H])([H])C([H])([H])C([H])([H])c3c([H])c(C([H])([H])N([H])C(=O)N4C([H])([H])C([H])([H])C([H])([H])C([H])(n5nc(-c6c([H])c([H])c(Oc7c([H])c([H])c(F)c([H])c7F)c([H])c6[H])c(C(=O)N([H])[H])c5N([H])[H])C4([H])[H])c([H])c(C([H])([H])C([H])([H])C45C([H])([H])C([H])([H])C([H])([H])[N+]4([H])C([H])([H])C5([H])C([H])([H])[H])c3[H])c([H])c([H])c2C1([H])[H]

>  <smiles>  (24) 
[H]c1c([H])c([H])c2c(c1[H])C([H])([H])C([H])([H])C([H])([H])C2([H])N([H])C(=O)C1([H])N(C(=O)C([H])(N([H])C(=O)C([H])(N([H])C([H])([H])[H])C([H])([H])[H])C(C([H])([H])[H])(C([H])([H])[H])C([H])([H])[H])C([H])([H])c2c([H])c(OC([H])([H])C([H])([H])C([H])([H])c3c([H])c(C([H])([H])N([H])C(=O)N4C([H])([H])C([H])([H])C([H])([H])C([H])(n5nc(-c6c([H])c([H])c(Oc7c([H])c([H])c(F)c([H])c7F)c([H])c6[H])c(C(=O)N([H])[H])c5N([H])[H])C4([H])[H])c([H])c(C([H])([H])C([H])([H])C45C([H])([H])C([H])([H])C([H])([H])[N+]4([H])C([H])([H])C5([H])C([H])([H])[H])c3[H])c([H])c([H])c2C1([H])[H]

$$$$
24:0:0
     RDKit          3D

 92100  0  0  1  0  0  0  0  0999 V2000
  -29.5300  -23.1550   19.3940 C   0  0  0  0  0  3  0  0  0  0  0  0
  -29.4670  -24.5750   19.3920 C   0  0  0  0  0  3  0  0  0  0  0  0
  -28.5590  -22.3850   20.0830 C   0  0  0  0  0  0  0  0  0  0  0  0
  -27.5660  -23.1630   20.7600 C   0  0  0  0  0  0  0  0  0  0  0  0
  -28.4310  -25.2570   20.0650 C   0  0  0  0  0  0  0  0  0  0  0  0
  -26.4290  -22.4990   21.5110 C   0  0  0  0  0  1  0  0  0  0  0  0
  -27.5120  -24.5340   20.7580 N   0  0  0  0  0  0  0  0  0  0  0  0
  -28.3840  -26.6730   20.0680 O   0  0  0  0  0  0  0  0  0  0  0  0
  -24.6570  -31.9520   23.2710 C   0  0  0  0  0  0  0  0  0  0  0  0
  -27.2230  -27.4540   20.1100 C   0  0  0  0  0  0  0  0  0  0  0  0
  -23.4280  -30.5880   21.6200 C   0  0  0  0  0  3  0  0  0  0  0  0
  -24.8550  -29.0520   20.1530 C   0  0  0  0  0  0  0  0  0  0  0  0
  -25.9620  -30.9040   21.4110 C   0  0  0  0  0  2  0  0  0  0  0  0
  -26.0270  -29.5360   20.7470 C   0  0  0  0  0  0  0  0  0  0  0  0
  -27.2110  -28.7450   20.7210 C   0  0  0  0  0  3  0  0  0  0  0  0
  -26.0320  -27.0190   19.4900 C   0  0  0  0  0  3  0  0  0  0  0  0
  -24.8570  -27.7980   19.5190 C   0  0  0  0  0  3  0  0  0  0  0  0
  -23.6210  -29.9290   20.2270 C   0  0  0  0  0  2  0  0  0  0  0  0
  -24.7020  -31.1650   22.1580 N   0  0  0  0  0  0  0  0  0  0  0  0
  -23.5830  -32.2260   23.8240 O   0  0  0  0  0  0  0  0  0  0  0  0
  -22.7730  -29.5580   22.5710 C   0  0  0  0  0  0  0  0  0  0  0  0
  -21.4490  -29.3710   22.4390 N   0  0  0  0  0  0  0  0  0  0  0  0
  -23.4560  -28.9300   23.3840 O   0  0  0  0  0  0  0  0  0  0  0  0
  -20.9590  -29.9310   21.7550 H   0  0  0  0  0  0  0  0  0  0  0  0
  -18.0810  -28.1450   22.9150 C   0  0  0  0  0  0  0  0  0  0  0  0
  -20.6350  -28.4220   23.1990 C   0  0  0  0  0  3  0  0  0  0  0  0
  -20.7510  -26.9960   22.6130 C   0  0  0  0  0  2  0  0  0  0  0  0
  -19.6580  -26.6730   21.5910 C   0  0  0  0  0  2  0  0  0  0  0  0
  -18.2710  -26.8020   22.2310 C   0  0  0  0  0  2  0  0  0  0  0  0
  -19.1920  -28.9130   23.3560 C   0  0  0  0  0  0  0  0  0  0  0  0
  -18.9590  -30.1700   23.9560 C   0  0  0  0  0  3  0  0  0  0  0  0
  -17.6500  -30.6590   24.1210 C   0  0  0  0  0  3  0  0  0  0  0  0
  -16.5550  -29.8880   23.6960 C   0  0  0  0  0  3  0  0  0  0  0  0
  -16.7710  -28.6330   23.0990 C   0  0  0  0  0  3  0  0  0  0  0  0
  -25.9520  -32.5660   23.8900 C   0  0  0  0  0  3  0  0  0  0  0  0
  -26.4740  -31.7750   25.1520 C   0  0  1  0  0  0  0  0  0  0  0  0
  -25.3880  -31.5310   26.2260 C   0  0  0  0  0  1  0  0  0  0  0  0
  -27.0440  -30.3970   24.7390 C   0  0  0  0  0  1  0  0  0  0  0  0
  -27.6370  -32.5510   25.8130 C   0  0  0  0  0  1  0  0  0  0  0  0
  -25.6560  -33.9630   24.2410 N   0  0  0  0  0  0  0  0  0  0  0  0
  -25.9540  -35.0200   23.4740 C   0  0  0  0  0  0  0  0  0  0  0  0
  -26.5770  -34.9230   22.4130 O   0  0  0  0  0  0  0  0  0  0  0  0
  -25.0950  -34.1130   25.0660 H   0  0  0  0  0  0  0  0  0  0  0  0
  -24.1950  -36.8020   23.2280 C   0  0  0  0  0  1  0  0  0  0  0  0
  -25.4880  -36.4060   23.9600 C   0  0  0  0  0  3  0  0  0  0  0  0
  -27.6600  -37.3090   24.6600 C   0  0  0  0  0  1  0  0  0  0  0  0
  -26.5040  -37.4650   23.7830 N   0  0  0  0  0  0  0  0  0  0  0  0
  -26.1000  -38.3830   23.9500 H   0  0  0  0  0  0  0  0  0  0  0  0
  -28.4730  -20.8120   19.8990 C   0  0  0  0  0  2  0  0  0  0  0  0
  -29.4230  -19.8510   20.5910 N   0  0  0  0  0  4  0  0  0  0  0  0
  -29.4110  -20.0400   21.5800 H   0  0  0  0  0  0  0  0  0  0  0  0
  -30.3550  -20.0330   20.2610 H   0  0  0  0  0  0  0  0  0  0  0  0
  -29.1280  -18.3680   20.3890 C   0  0  0  0  0  3  0  0  0  0  0  0
  -30.1850  -17.3080   20.9390 C   0  0  0  0  0  3  0  0  0  0  0  0
  -30.6060  -14.7720   20.5340 C   0  0  0  0  0  0  0  0  0  0  0  0
  -30.4280  -12.5370   19.4610 C   0  0  0  0  0  2  0  0  0  0  0  0
  -29.5180  -12.6590   18.2190 C   0  0  0  0  0  2  0  0  0  0  0  0
  -28.0360  -12.4900   18.6100 C   0  0  0  0  0  2  0  0  0  0  0  0
  -27.6390  -13.3520   19.8380 C   0  0  0  0  0  3  0  0  0  0  0  0
  -28.6670  -13.2100   20.9810 C   0  0  0  0  0  2  0  0  0  0  0  0
  -29.9860  -13.5570   20.4320 N   0  0  0  0  0  0  0  0  0  0  0  0
  -31.7820  -14.9240   20.1920 O   0  0  0  0  0  0  0  0  0  0  0  0
  -29.8160  -15.8480   20.8430 N   0  0  0  0  0  0  0  0  0  0  0  0
  -28.8590  -15.6170   21.0680 H   0  0  0  0  0  0  0  0  0  0  0  0
  -25.2200  -13.9320   20.4730 C   0  0  0  0  0  0  0  0  0  0  0  0
  -24.1520  -13.1530   20.8260 C   0  0  0  0  0  0  0  0  0  0  0  0
  -24.6330  -11.8070   20.8350 C   0  0  0  0  0  0  0  0  0  0  0  0
  -26.2800  -13.0610   20.2870 N   0  0  0  0  0  0  0  0  0  0  0  0
  -25.9320  -11.7800   20.5650 N   0  0  0  0  0  0  0  0  0  0  0  0
  -23.9170  -10.5400   21.0290 C   0  0  0  0  0  0  0  0  0  0  0  0
  -24.3310   -9.5980   21.9960 C   0  0  0  0  0  3  0  0  0  0  0  0
  -23.6170   -8.3940   22.1760 C   0  0  0  0  0  3  0  0  0  0  0  0
  -22.4730   -8.1250   21.3870 C   0  0  0  0  0  0  0  0  0  0  0  0
  -22.0780   -9.0540   20.4100 C   0  0  0  0  0  3  0  0  0  0  0  0
  -22.7940  -10.2500   20.2290 C   0  0  0  0  0  3  0  0  0  0  0  0
  -21.7320   -6.9710   21.4740 O   0  0  0  0  0  0  0  0  0  0  0  0
  -21.6530   -6.2520   22.6400 C   0  0  0  0  0  0  0  0  0  0  0  0
  -21.1510   -6.8190   23.8320 C   0  0  0  0  0  3  0  0  0  0  0  0
  -21.0210   -6.0240   24.9880 C   0  0  0  0  0  3  0  0  0  0  0  0
  -21.3840   -4.6640   24.9540 C   0  0  0  0  0  0  0  0  0  0  0  0
  -21.8800   -4.0970   23.7660 C   0  0  0  0  0  3  0  0  0  0  0  0
  -22.0110   -4.8890   22.6120 C   0  0  0  0  0  0  0  0  0  0  0  0
  -22.4680   -4.3330   21.4650 F   0  0  0  0  0  0  0  0  0  0  0  0
  -21.2530   -3.8990   26.0620 F   0  0  0  0  0  0  0  0  0  0  0  0
  -22.7420  -13.6170   21.0460 C   0  0  0  0  0  0  0  0  0  0  0  0
  -21.9980  -12.9290   21.9040 N   0  0  0  0  0  0  0  0  0  0  0  0
  -22.3070  -14.6260   20.4910 O   0  0  0  0  0  0  0  0  0  0  0  0
  -22.3630  -12.1150   22.3760 H   0  0  0  0  0  0  0  0  0  0  0  0
  -21.0490  -13.2220   22.0930 H   0  0  0  0  0  0  0  0  0  0  0  0
  -25.3710  -15.3010   20.2700 N   0  0  0  0  0  0  0  0  0  0  0  0
  -24.5840  -15.9380   20.3280 H   0  0  0  0  0  0  0  0  0  0  0  0
  -26.2050  -15.7370   19.9000 H   0  0  0  0  0  0  0  0  0  0  0  0
  1  3  1  0
  2  1  2  0
  2  5  1  0
  3  4  2  0
  4  6  1  0
  5  8  1  0
  5  7  2  0
  7  4  1  0
  8 10  1  0
  9 20  2  0
 10 15  1  0
 11 19  1  0
 11 21  1  0
 12 18  1  0
 12 14  1  0
 13 19  1  0
 14 13  1  0
 15 14  2  0
 16 17  1  0
 16 10  2  0
 17 12  2  0
 18 11  1  0
 19  9  1  0
 21 23  2  0
 22 21  1  0
 24 22  1  0
 25 34  2  0
 25 30  1  0
 26 22  1  0
 26 30  1  0
 27 26  1  0
 28 29  1  0
 28 27  1  0
 29 25  1  0
 30 31  2  0
 31 32  1  0
 33 32  2  0
 34 33  1  0
 35  9  1  0
 35 40  1  0
 35 36  1  0
 36 39  1  1
 36 37  1  0
 38 36  1  0
 40 43  1  0
 41 45  1  0
 41 40  1  0
 42 41  2  0
 45 44  1  0
 47 48  1  0
 47 45  1  0
 47 46  1  0
 49  3  1  0
 49 50  1  0
 50 51  1  0
 52 50  1  0
 53 50  1  0
 53 54  2  0
 55 63  1  0
 56 61  1  0
 57 58  1  0
 57 56  1  0
 59 58  1  0
 59 68  1  0
 59 60  1  0
 61 55  1  0
 61 60  1  0
 62 55  2  0
 63 54  1  0
 63 64  1  0
 65 66  2  0
 66 67  1  0
 66 85  1  0
 67 70  1  0
 68 65  1  0
 68 69  1  0
 69 67  2  0
 70 71  1  0
 71 72  2  0
 73 76  1  0
 73 72  1  0
 74 73  2  0
 75 74  1  0
 75 70  2  0
 76 77  1  0
 77 78  1  0
 78 79  2  0
 80 79  1  0
 80 84  1  0
 81 80  2  0
 82 77  2  0
 82 81  1  0
 83 82  1  0
 85 86  1  0
 86 89  1  0
 86 88  1  0
 87 85  2  0
 90 91  1  0
 90 65  1  0
 92 90  1  0
M  ISO  4   5 101   8 101  55 100  63 100
M  END
>  <TORSDO>  (25) 
F 20

>  <SCORE>  (25) 
-13.350

>  <name>  (25) 
24

>  <ligand_id>  (25) 
24

>  <original_smiles>  (25) 
[H]c1c(Oc2c([H])c([H])c3c(c2[H])C([H])([H])N(C(=O)C([H])(N([H])C(=O)C([H])(N([H])C([H])([H])[H])C([H])([H])[H])C(C([H])([H])[H])(C([H])([H])[H])C([H])([H])[H])C([H])(C(=O)N([H])C2([H])c4c([H])c([H])c([H])c([H])c4C([H])([H])C([H])([H])C2([H])[H])C3([H])[H])nc(C([H])([H])[H])c(C([H])([H])[N+]([H])([H])C([H])([H])C([H])([H])N([H])C(=O)N2C([H])([H])C([H])([H])C([H])([H])C([H])(n3nc(-c4c([H])c([H])c(Oc5c([H])c([H])c(F)c([H])c5F)c([H])c4[H])c(C(=O)N([H])[H])c3N([H])[H])C2([H])[H])c1[H]

>  <smiles>  (25) 
[H]c1c(Oc2c([H])c([H])c3c(c2[H])C([H])([H])N(C(=O)C([H])(N([H])C(=O)C([H])(N([H])C([H])([H])[H])C([H])([H])[H])C(C([H])([H])[H])(C([H])([H])[H])C([H])([H])[H])C([H])(C(=O)N([H])C2([H])c4c([H])c([H])c([H])c([H])c4C([H])([H])C([H])([H])C2([H])[H])C3([H])[H])nc(C([H])([H])[H])c(C([H])([H])[N+]([H])([H])C([H])([H])C([H])([H])N([H])C(=O)N2C([H])([H])C([H])([H])C([H])([H])C([H])(n3nc(-c4c([H])c([H])c(Oc5c([H])c([H])c(F)c([H])c5F)c([H])c4[H])c(C(=O)N([H])[H])c3N([H])[H])C2([H])[H])c1[H]

$$$$
25:0:0
     RDKit          3D

 95104  0  0  1  0  0  0  0  0999 V2000
  -29.5410  -20.8710   20.8400 C   0  0  0  0  0  3  0  0  0  0  0  0
  -27.7810  -22.7060   19.9190 C   0  0  0  0  0  2  0  0  0  0  0  0
  -30.1860  -23.3340   20.2150 C   0  0  0  0  0  2  0  0  0  0  0  0
  -27.5910  -24.1820   20.4680 C   0  0  0  0  0  2  0  0  0  0  0  0
  -29.8610  -24.7330   19.5660 C   0  0  0  0  0  2  0  0  0  0  0  0
  -29.2420  -22.1260   19.8800 C   0  0  0  0  0  3  0  0  0  0  0  0
  -28.3970  -25.2690   19.6840 C   0  0  0  0  0  3  0  0  0  0  0  0
  -28.3670  -26.6780   20.1730 O   0  0  0  0  0  0  0  0  0  0  0  0
  -24.5960  -31.9830   23.2850 C   0  0  0  0  0  0  0  0  0  0  0  0
  -27.2190  -27.4910   20.1320 C   0  0  0  0  0  0  0  0  0  0  0  0
  -23.3910  -30.6070   21.6270 C   0  0  0  0  0  3  0  0  0  0  0  0
  -24.8400  -29.0920   20.1600 C   0  0  0  0  0  0  0  0  0  0  0  0
  -25.9240  -30.9470   21.4300 C   0  0  0  0  0  2  0  0  0  0  0  0
  -26.0090  -29.5790   20.7600 C   0  0  0  0  0  0  0  0  0  0  0  0
  -27.1970  -28.7890   20.7360 C   0  0  0  0  0  3  0  0  0  0  0  0
  -26.0250  -27.0580   19.5130 C   0  0  0  0  0  3  0  0  0  0  0  0
  -24.8530  -27.8400   19.5260 C   0  0  0  0  0  3  0  0  0  0  0  0
  -23.5980  -29.9590   20.2330 C   0  0  0  0  0  2  0  0  0  0  0  0
  -24.6570  -31.1970   22.1710 N   0  0  0  0  0  0  0  0  0  0  0  0
  -23.5140  -32.2430   23.8320 O   0  0  0  0  0  0  0  0  0  0  0  0
  -22.7410  -29.5690   22.5730 C   0  0  0  0  0  0  0  0  0  0  0  0
  -21.4240  -29.3550   22.4230 N   0  0  0  0  0  0  0  0  0  0  0  0
  -23.4240  -28.9620   23.4020 O   0  0  0  0  0  0  0  0  0  0  0  0
  -20.9310  -29.8990   21.7290 H   0  0  0  0  0  0  0  0  0  0  0  0
  -18.0780  -28.0460   22.8430 C   0  0  0  0  0  0  0  0  0  0  0  0
  -20.6190  -28.3910   23.1760 C   0  0  0  0  0  3  0  0  0  0  0  0
  -20.7840  -26.9630   22.6060 C   0  0  0  0  0  2  0  0  0  0  0  0
  -19.7190  -26.6020   21.5660 C   0  0  0  0  0  2  0  0  0  0  0  0
  -18.3180  -26.7020   22.1750 C   0  0  0  0  0  2  0  0  0  0  0  0
  -19.1590  -28.8460   23.2990 C   0  0  0  0  0  0  0  0  0  0  0  0
  -18.8840  -30.1020   23.8800 C   0  0  0  0  0  3  0  0  0  0  0  0
  -17.5580  -30.5590   24.0150 C   0  0  0  0  0  3  0  0  0  0  0  0
  -16.4920  -29.7550   23.5760 C   0  0  0  0  0  3  0  0  0  0  0  0
  -16.7520  -28.5010   22.9950 C   0  0  0  0  0  3  0  0  0  0  0  0
  -25.8790  -32.6140   23.9120 C   0  0  0  0  0  3  0  0  0  0  0  0
  -26.3920  -31.8410   25.1880 C   0  0  1  0  0  0  0  0  0  0  0  0
  -25.2900  -31.5780   26.2410 C   0  0  0  0  0  1  0  0  0  0  0  0
  -27.0010  -30.4760   24.7910 C   0  0  0  0  0  1  0  0  0  0  0  0
  -27.5210  -32.6470   25.8710 C   0  0  0  0  0  1  0  0  0  0  0  0
  -25.5700  -34.0120   24.2440 N   0  0  0  0  0  0  0  0  0  0  0  0
  -25.8990  -35.0670   23.4860 C   0  0  0  0  0  0  0  0  0  0  0  0
  -26.5640  -34.9660   22.4520 O   0  0  0  0  0  0  0  0  0  0  0  0
  -24.9820  -34.1660   25.0500 H   0  0  0  0  0  0  0  0  0  0  0  0
  -24.1710  -36.8630   23.1450 C   0  0  0  0  0  1  0  0  0  0  0  0
  -25.4150  -36.4550   23.9500 C   0  0  0  0  0  3  0  0  0  0  0  0
  -27.5500  -37.3410   24.7790 C   0  0  0  0  0  1  0  0  0  0  0  0
  -26.4480  -37.5080   23.8350 N   0  0  0  0  0  0  0  0  0  0  0  0
  -26.0410  -38.4280   23.9820 H   0  0  0  0  0  0  0  0  0  0  0  0
  -29.4030  -19.2860   20.5320 C   0  0  0  0  0  3  0  0  0  0  0  0
  -30.7720  -15.9730   22.3020 C   0  0  0  0  0  3  0  0  0  0  0  0
  -30.0270  -18.2160   21.5520 C   0  0  0  0  0  0  0  0  0  0  0  0
  -30.1280  -16.7600   21.3130 C   0  0  0  0  0  0  0  0  0  0  0  0
  -31.2920  -16.5370   23.4590 C   0  0  0  0  0  0  0  0  0  0  0  0
  -30.5520  -18.6440   22.8320 C   0  0  0  0  0  0  0  0  0  0  0  0
  -31.9680  -15.6890   24.5170 C   0  0  0  0  0  1  0  0  0  0  0  0
  -30.4430  -20.0230   23.4750 C   0  0  0  0  0  1  0  0  0  0  0  0
  -31.1780  -17.8370   23.7110 N   0  0  0  0  0  0  0  0  0  0  0  0
  -30.1500  -14.8540   19.6430 C   0  0  0  0  0  0  0  0  0  0  0  0
  -29.7300  -12.7140   18.4220 C   0  0  0  0  0  2  0  0  0  0  0  0
  -28.6120  -12.8850   17.3760 C   0  0  0  0  0  2  0  0  0  0  0  0
  -27.2340  -12.6500   18.0190 C   0  0  0  0  0  2  0  0  0  0  0  0
  -27.0560  -13.4250   19.3530 C   0  0  0  0  0  3  0  0  0  0  0  0
  -28.2780  -13.2600   20.2790 C   0  0  0  0  0  2  0  0  0  0  0  0
  -29.4600  -13.6740   19.5140 N   0  0  0  0  0  0  0  0  0  0  0  0
  -31.2390  -14.9970   19.0790 O   0  0  0  0  0  0  0  0  0  0  0  0
  -29.5430  -15.9360   20.2570 N   0  0  0  0  0  0  0  0  0  0  0  0
  -28.5360  -15.8920   20.2850 H   0  0  0  0  0  0  0  0  0  0  0  0
  -24.7760  -13.9010   20.4300 C   0  0  0  0  0  0  0  0  0  0  0  0
  -23.8040  -13.0750   20.9240 C   0  0  0  0  0  0  0  0  0  0  0  0
  -24.3090  -11.7450   20.7870 C   0  0  0  0  0  0  0  0  0  0  0  0
  -25.8080  -13.0720   20.0210 N   0  0  0  0  0  0  0  0  0  0  0  0
  -25.5420  -11.7690   20.2980 N   0  0  0  0  0  0  0  0  0  0  0  0
  -23.6620  -10.4500   21.0370 C   0  0  0  0  0  0  0  0  0  0  0  0
  -24.2030   -9.5200   21.9520 C   0  0  0  0  0  3  0  0  0  0  0  0
  -23.5530   -8.2900   22.1920 C   0  0  0  0  0  3  0  0  0  0  0  0
  -22.3490   -7.9810   21.5170 C   0  0  0  0  0  0  0  0  0  0  0  0
  -21.8260   -8.8990   20.5890 C   0  0  0  0  0  3  0  0  0  0  0  0
  -22.4770  -10.1210   20.3480 C   0  0  0  0  0  3  0  0  0  0  0  0
  -21.6610   -6.8000   21.6670 O   0  0  0  0  0  0  0  0  0  0  0  0
  -21.6670   -6.1090   22.8530 C   0  0  0  0  0  0  0  0  0  0  0  0
  -21.2160   -6.6930   24.0570 C   0  0  0  0  0  3  0  0  0  0  0  0
  -21.1750   -5.9260   25.2390 C   0  0  0  0  0  3  0  0  0  0  0  0
  -21.5720   -4.5760   25.2160 C   0  0  0  0  0  0  0  0  0  0  0  0
  -22.0170   -3.9910   24.0170 C   0  0  0  0  0  3  0  0  0  0  0  0
  -22.0610   -4.7560   22.8380 C   0  0  0  0  0  0  0  0  0  0  0  0
  -22.4700   -4.1830   21.6810 F   0  0  0  0  0  0  0  0  0  0  0  0
  -21.5260   -3.8360   26.3490 F   0  0  0  0  0  0  0  0  0  0  0  0
  -22.4430  -13.4880   21.4030 C   0  0  0  0  0  0  0  0  0  0  0  0
  -21.8720  -12.7470   22.3450 N   0  0  0  0  0  0  0  0  0  0  0  0
  -21.8970  -14.5050   20.9770 O   0  0  0  0  0  0  0  0  0  0  0  0
  -22.3270  -11.9240   22.7100 H   0  0  0  0  0  0  0  0  0  0  0  0
  -20.9650  -13.0070   22.7070 H   0  0  0  0  0  0  0  0  0  0  0  0
  -24.8590  -15.2820   20.2710 N   0  0  0  0  0  0  0  0  0  0  0  0
  -24.0830  -15.8930   20.5050 H   0  0  0  0  0  0  0  0  0  0  0  0
  -25.6200  -15.7690   19.8160 H   0  0  0  0  0  0  0  0  0  0  0  0
  2  4  1  0
  5  7  1  0
  5  3  1  0
  6  2  1  0
  6  3  1  0
  6  1  1  0
  7  8  1  0
  7  4  1  0
  9 20  2  0
 10  8  1  0
 10 15  1  0
 11 19  1  0
 11 21  1  0
 12 18  1  0
 12 14  1  0
 13 19  1  0
 14 13  1  0
 15 14  2  0
 16 17  1  0
 16 10  2  0
 17 12  2  0
 18 11  1  0
 19  9  1  0
 21 23  2  0
 22 21  1  0
 24 22  1  0
 25 34  2  0
 25 30  1  0
 26 22  1  0
 26 30  1  0
 27 26  1  0
 28 29  1  0
 28 27  1  0
 29 25  1  0
 30 31  2  0
 31 32  1  0
 33 32  2  0
 34 33  1  0
 35  9  1  0
 35 40  1  0
 35 36  1  0
 36 39  1  1
 36 37  1  0
 38 36  1  0
 40 43  1  0
 41 45  1  0
 41 40  1  0
 42 41  2  0
 45 44  1  0
 47 45  1  0
 47 48  1  0
 47 46  1  0
 49  1  2  0
 49 51  1  0
 50 53  1  0
 51 54  2  0
 52 51  1  0
 52 50  2  0
 53 57  2  0
 53 55  1  0
 54 56  1  0
 54 57  1  0
 58 66  1  0
 59 64  1  0
 60 61  1  0
 60 59  1  0
 62 61  1  0
 62 71  1  0
 62 63  1  0
 64 58  1  0
 64 63  1  0
 65 58  2  0
 66 67  1  0
 66 52  1  0
 68 69  2  0
 69 88  1  0
 70 69  1  0
 70 73  1  0
 71 72  1  0
 71 68  1  0
 72 70  2  0
 73 74  1  0
 74 75  2  0
 76 79  1  0
 76 75  1  0
 77 76  2  0
 78 77  1  0
 78 73  2  0
 79 80  1  0
 80 81  1  0
 81 82  2  0
 83 82  1  0
 83 87  1  0
 84 83  2  0
 85 80  2  0
 85 84  1  0
 86 85  1  0
 88 89  1  0
 89 92  1  0
 89 91  1  0
 90 88  2  0
 93 68  1  0
 93 94  1  0
 95 93  1  0
M  ISO  4   7 101   8 101  58 100  66 100
M  END
>  <TORSDO>  (26) 
F 19

>  <SCORE>  (26) 
-4.811

>  <name>  (26) 
25

>  <ligand_id>  (26) 
25

>  <original_smiles>  (26) 
[H]c1c([H])c([H])c2c(c1[H])C([H])([H])C([H])([H])C([H])([H])C2([H])N([H])C(=O)C1([H])N(C(=O)C([H])(N([H])C(=O)C([H])(N([H])C([H])([H])[H])C([H])([H])[H])C(C([H])([H])[H])(C([H])([H])[H])C([H])([H])[H])C([H])([H])c2c([H])c(OC3([H])C([H])([H])C([H])([H])C([H])(C([H])([H])C([H])([H])c4c(C([H])([H])[H])nc(C([H])([H])[H])c([H])c4N([H])C(=O)N4C([H])([H])C([H])([H])C([H])([H])C([H])(n5nc(-c6c([H])c([H])c(Oc7c([H])c([H])c(F)c([H])c7F)c([H])c6[H])c(C(=O)N([H])[H])c5N([H])[H])C4([H])[H])C([H])([H])C3([H])[H])c([H])c([H])c2C1([H])[H]

>  <smiles>  (26) 
[H]c1c([H])c([H])c2c(c1[H])C([H])([H])C([H])([H])C([H])([H])C2([H])N([H])C(=O)C1([H])N(C(=O)C([H])(N([H])C(=O)C([H])(N([H])C([H])([H])[H])C([H])([H])[H])C(C([H])([H])[H])(C([H])([H])[H])C([H])([H])[H])C([H])([H])c2c([H])c(OC3([H])C([H])([H])C([H])([H])C([H])(C([H])([H])C([H])([H])c4c(C([H])([H])[H])nc(C([H])([H])[H])c([H])c4N([H])C(=O)N4C([H])([H])C([H])([H])C([H])([H])C([H])(n5nc(-c6c([H])c([H])c(Oc7c([H])c([H])c(F)c([H])c7F)c([H])c6[H])c(C(=O)N([H])[H])c5N([H])[H])C4([H])[H])C([H])([H])C3([H])[H])c([H])c([H])c2C1([H])[H]

$$$$
26:0:0
     RDKit          3D

 93102  0  0  1  0  0  0  0  0999 V2000
  -26.8860  -23.7440   20.9940 C   0  0  0  0  0  3  0  0  0  0  0  0
  -27.3150  -25.0380   20.6900 C   0  0  0  0  0  3  0  0  0  0  0  0
  -29.1690  -24.0450   19.4550 C   0  0  0  0  0  3  0  0  0  0  0  0
  -27.5650  -22.5920   20.5580 C   0  0  0  0  0  0  0  0  0  0  0  0
  -28.7690  -22.6240   19.7880 C   0  0  0  0  0  0  0  0  0  0  0  0
  -28.4330  -25.3090   19.8750 C   0  0  0  0  0  0  0  0  0  0  0  0
  -26.9730  -21.2590   21.0220 C   0  0  0  0  0  2  0  0  0  0  0  0
  -29.3280  -20.4130   21.0760 C   0  0  0  0  0  2  0  0  0  0  0  0
  -29.3500  -21.0250   19.6530 C   0  0  0  0  0  3  0  0  0  0  0  0
  -27.9850  -20.4280   21.6990 N   0  0  0  0  0  4  0  0  0  0  0  0
  -27.6290  -19.4860   21.7310 H   0  0  0  0  0  0  0  0  0  0  0  0
  -28.0780  -20.7430   22.6500 H   0  0  0  0  0  0  0  0  0  0  0  0
  -28.6770  -26.7640   19.6540 O   0  0  0  0  0  0  0  0  0  0  0  0
  -24.9050  -31.9140   23.4570 C   0  0  0  0  0  0  0  0  0  0  0  0
  -27.6330  -27.7790   19.7520 C   0  0  0  0  0  0  0  0  0  0  0  0
  -23.7390  -30.6950   21.6650 C   0  0  0  0  0  3  0  0  0  0  0  0
  -25.2330  -29.4150   20.0030 C   0  0  0  0  0  0  0  0  0  0  0  0
  -26.2760  -31.1030   21.5000 C   0  0  0  0  0  2  0  0  0  0  0  0
  -26.4030  -29.8170   20.6610 C   0  0  0  0  0  0  0  0  0  0  0  0
  -27.6020  -29.0110   20.5340 C   0  0  0  0  0  3  0  0  0  0  0  0
  -26.4480  -27.5260   19.0280 C   0  0  0  0  0  3  0  0  0  0  0  0
  -25.2670  -28.2840   19.1750 C   0  0  0  0  0  3  0  0  0  0  0  0
  -23.9610  -30.2290   20.2030 C   0  0  0  0  0  2  0  0  0  0  0  0
  -24.9930  -31.2540   22.2630 N   0  0  0  0  0  0  0  0  0  0  0  0
  -23.8180  -32.0670   24.0370 O   0  0  0  0  0  0  0  0  0  0  0  0
  -23.1360  -29.5280   22.4900 C   0  0  0  0  0  0  0  0  0  0  0  0
  -21.8260  -29.2760   22.3290 N   0  0  0  0  0  0  0  0  0  0  0  0
  -23.8520  -28.8610   23.2430 O   0  0  0  0  0  0  0  0  0  0  0  0
  -21.2990  -29.8790   21.7120 H   0  0  0  0  0  0  0  0  0  0  0  0
  -18.5840  -27.6580   22.5120 C   0  0  0  0  0  0  0  0  0  0  0  0
  -21.0780  -28.1840   22.9620 C   0  0  0  0  0  3  0  0  0  0  0  0
  -21.3830  -26.8320   22.2800 C   0  0  0  0  0  2  0  0  0  0  0  0
  -20.3800  -26.4680   21.1810 C   0  0  0  0  0  2  0  0  0  0  0  0
  -18.9590  -26.3950   21.7510 C   0  0  0  0  0  2  0  0  0  0  0  0
  -19.5810  -28.5030   23.0680 C   0  0  0  0  0  0  0  0  0  0  0  0
  -19.1860  -29.6770   23.7440 C   0  0  0  0  0  3  0  0  0  0  0  0
  -17.8230  -30.0130   23.8620 C   0  0  0  0  0  3  0  0  0  0  0  0
  -16.8410  -29.1710   23.3190 C   0  0  0  0  0  3  0  0  0  0  0  0
  -17.2200  -27.9910   22.6530 C   0  0  0  0  0  3  0  0  0  0  0  0
  -26.1620  -32.5280   24.1420 C   0  0  0  0  0  3  0  0  0  0  0  0
  -25.8190  -33.8930   24.5720 N   0  0  0  0  0  0  0  0  0  0  0  0
  -26.1990  -35.0120   23.9400 C   0  0  0  0  0  0  0  0  0  0  0  0
  -26.9390  -35.0030   22.9530 O   0  0  0  0  0  0  0  0  0  0  0  0
  -25.1700  -33.9740   25.3410 H   0  0  0  0  0  0  0  0  0  0  0  0
  -24.4930  -36.8390   23.6320 C   0  0  0  0  0  1  0  0  0  0  0  0
  -25.6730  -36.3540   24.4890 C   0  0  0  0  0  3  0  0  0  0  0  0
  -27.7430  -37.1490   25.5450 C   0  0  0  0  0  1  0  0  0  0  0  0
  -26.7070  -37.4100   24.5490 N   0  0  0  0  0  0  0  0  0  0  0  0
  -26.2880  -38.3130   24.7560 H   0  0  0  0  0  0  0  0  0  0  0  0
  -26.6760  -31.6780   25.3700 C   0  0  1  0  0  0  0  0  0  0  0  0
  -25.5690  -31.3370   26.3950 C   0  0  0  0  0  1  0  0  0  0  0  0
  -27.3010  -30.3450   24.8990 C   0  0  0  0  0  1  0  0  0  0  0  0
  -27.7930  -32.4500   26.1100 C   0  0  0  0  0  1  0  0  0  0  0  0
  -30.3970  -20.1100   18.6920 C   0  0  0  0  0  2  0  0  0  0  0  0
  -31.2650  -18.6650   19.0710 C   0  0  0  0  0  2  0  0  0  0  0  0
  -31.6390  -15.9420   19.3780 C   0  0  0  0  0  0  0  0  0  0  0  0
  -31.5800  -13.4340   18.9670 C   0  0  0  0  0  2  0  0  0  0  0  0
  -30.6380  -13.0800   17.7920 C   0  0  0  0  0  2  0  0  0  0  0  0
  -29.1890  -12.9190   18.2900 C   0  0  0  0  0  2  0  0  0  0  0  0
  -28.7600  -14.0680   19.2380 C   0  0  0  0  0  3  0  0  0  0  0  0
  -29.8240  -14.3720   20.3110 C   0  0  0  0  0  2  0  0  0  0  0  0
  -31.0650  -14.6870   19.5930 N   0  0  0  0  0  0  0  0  0  0  0  0
  -32.8510  -15.9590   19.1410 O   0  0  0  0  0  0  0  0  0  0  0  0
  -30.8520  -17.1320   19.2290 N   0  0  0  0  0  0  0  0  0  0  0  0
  -29.8610  -16.9750   19.3430 H   0  0  0  0  0  0  0  0  0  0  0  0
  -26.4870  -14.7810   20.1620 C   0  0  0  0  0  0  0  0  0  0  0  0
  -25.3920  -14.0690   20.5680 C   0  0  0  0  0  0  0  0  0  0  0  0
  -25.7500  -12.6910   20.4500 C   0  0  0  0  0  0  0  0  0  0  0  0
  -27.4420  -13.8420   19.8160 N   0  0  0  0  0  0  0  0  0  0  0  0
  -27.0140  -12.5750   20.0560 N   0  0  0  0  0  0  0  0  0  0  0  0
  -24.9440  -11.4760   20.6330 C   0  0  0  0  0  0  0  0  0  0  0  0
  -25.2760  -10.5080   21.6060 C   0  0  0  0  0  3  0  0  0  0  0  0
  -24.4720   -9.3600   21.7760 C   0  0  0  0  0  3  0  0  0  0  0  0
  -23.3240   -9.1720   20.9710 C   0  0  0  0  0  0  0  0  0  0  0  0
  -23.0100  -10.1270   19.9860 C   0  0  0  0  0  3  0  0  0  0  0  0
  -23.8140  -11.2660   19.8160 C   0  0  0  0  0  3  0  0  0  0  0  0
  -22.4990   -8.0750   21.0480 O   0  0  0  0  0  0  0  0  0  0  0  0
  -22.2220   -7.4660   22.2450 C   0  0  0  0  0  0  0  0  0  0  0  0
  -21.6370   -8.1690   23.3220 C   0  0  0  0  0  3  0  0  0  0  0  0
  -21.3050   -7.4890   24.5090 C   0  0  0  0  0  3  0  0  0  0  0  0
  -21.5480   -6.1060   24.6210 C   0  0  0  0  0  0  0  0  0  0  0  0
  -22.1240   -5.4030   23.5480 C   0  0  0  0  0  3  0  0  0  0  0  0
  -22.4570   -6.0820   22.3630 C   0  0  0  0  0  0  0  0  0  0  0  0
  -22.9940   -5.3960   21.3240 F   0  0  0  0  0  0  0  0  0  0  0  0
  -21.2210   -5.4500   25.7580 F   0  0  0  0  0  0  0  0  0  0  0  0
  -24.0540  -14.6330   20.9440 C   0  0  0  0  0  0  0  0  0  0  0  0
  -23.3350  -13.9620   21.8370 N   0  0  0  0  0  0  0  0  0  0  0  0
  -23.6600  -15.7040   20.4830 O   0  0  0  0  0  0  0  0  0  0  0  0
  -23.6710  -13.0950   22.2290 H   0  0  0  0  0  0  0  0  0  0  0  0
  -22.4380  -14.3170   22.1320 H   0  0  0  0  0  0  0  0  0  0  0  0
  -26.7400  -16.1430   20.0310 N   0  0  0  0  0  0  0  0  0  0  0  0
  -26.0200  -16.8380   20.1940 H   0  0  0  0  0  0  0  0  0  0  0  0
  -27.5670  -16.5250   19.5880 H   0  0  0  0  0  0  0  0  0  0  0  0
  2  1  1  0
  3  5  2  0
  3  6  1  0
  4  1  2  0
  4  7  1  0
  5  4  1  0
  6  2  2  0
  7 10  1  0
  8 10  1  0
  9 54  1  0
  9  5  1  0
  9  8  1  0
 10 11  1  0
 10 12  1  0
 13 15  1  0
 13  6  1  0
 14 25  2  0
 15 20  1  0
 16 24  1  0
 16 26  1  0
 17 23  1  0
 17 19  1  0
 18 24  1  0
 19 18  1  0
 20 19  2  0
 21 22  1  0
 21 15  2  0
 22 17  2  0
 23 16  1  0
 24 14  1  0
 26 28  2  0
 27 26  1  0
 29 27  1  0
 30 39  2  0
 30 35  1  0
 31 27  1  0
 31 35  1  0
 32 31  1  0
 33 34  1  0
 33 32  1  0
 34 30  1  0
 35 36  2  0
 36 37  1  0
 38 37  2  0
 39 38  1  0
 40 14  1  0
 40 41  1  0
 40 50  1  0
 41 44  1  0
 42 46  1  0
 42 41  1  0
 43 42  2  0
 46 45  1  0
 46 48  1  0
 48 49  1  0
 48 47  1  0
 50 53  1  1
 50 51  1  0
 52 50  1  0
 54 55  1  0
 55 64  1  0
 56 62  1  0
 57 62  1  0
 58 59  1  0
 58 57  1  0
 60 59  1  0
 60 69  1  0
 60 61  1  0
 62 61  1  0
 63 56  2  0
 64 65  1  0
 64 56  1  0
 66 67  2  0
 67 86  1  0
 68 67  1  0
 68 71  1  0
 69 70  1  0
 69 66  1  0
 70 68  2  0
 71 72  1  0
 72 73  2  0
 74 77  1  0
 74 73  1  0
 75 74  2  0
 76 75  1  0
 76 71  2  0
 77 78  1  0
 78 83  2  0
 78 79  1  0
 79 80  2  0
 80 81  1  0
 81 85  1  0
 82 81  2  0
 83 82  1  0
 84 83  1  0
 86 87  1  0
 87 90  1  0
 87 89  1  0
 88 86  2  0
 91 66  1  0
 91 92  1  0
 93 91  1  0
M  ISO  4   6 101  13 101  56 100  64 100
M  END
>  <TORSDO>  (27) 
F 18

>  <SCORE>  (27) 
-9.948

>  <name>  (27) 
26

>  <ligand_id>  (27) 
26

>  <original_smiles>  (27) 
[H]c1c([H])c([H])c2c(c1[H])C([H])([H])C([H])([H])C([H])([H])C2([H])N([H])C(=O)C1([H])N(C(=O)C([H])(N([H])C(=O)C([H])(N([H])C([H])([H])[H])C([H])([H])[H])C(C([H])([H])[H])(C([H])([H])[H])C([H])([H])[H])C([H])([H])c2c([H])c(Oc3c([H])c([H])c4c(c3[H])C([H])(C([H])([H])C([H])([H])N([H])C(=O)N3C([H])([H])C([H])([H])C([H])([H])C([H])(n5nc(-c6c([H])c([H])c(Oc7c([H])c([H])c(F)c([H])c7F)c([H])c6[H])c(C(=O)N([H])[H])c5N([H])[H])C3([H])[H])C([H])([H])[N+]([H])([H])C4([H])[H])c([H])c([H])c2C1([H])[H]

>  <smiles>  (27) 
[H]c1c([H])c([H])c2c(c1[H])C([H])([H])C([H])([H])C([H])([H])C2([H])N([H])C(=O)C1([H])N(C(=O)C([H])(N([H])C(=O)C([H])(N([H])C([H])([H])[H])C([H])([H])[H])C(C([H])([H])[H])(C([H])([H])[H])C([H])([H])[H])C([H])([H])c2c([H])c(Oc3c([H])c([H])c4c(c3[H])C([H])(C([H])([H])C([H])([H])N([H])C(=O)N3C([H])([H])C([H])([H])C([H])([H])C([H])(n5nc(-c6c([H])c([H])c(Oc7c([H])c([H])c(F)c([H])c7F)c([H])c6[H])c(C(=O)N([H])[H])c5N([H])[H])C3([H])[H])C([H])([H])[N+]([H])([H])C4([H])[H])c([H])c([H])c2C1([H])[H]

$$$$
27:0:0
     RDKit          3D

 92101  0  0  1  0  0  0  0  0999 V2000
  -28.8200  -19.8620   19.5030 C   0  0  0  0  0  3  0  0  0  0  0  0
  -30.2100  -19.0620   21.6670 C   0  0  0  0  0  3  0  0  0  0  0  0
  -29.1020  -18.4570   19.6800 C   0  0  0  0  0  0  0  0  0  0  0  0
  -29.8210  -17.9590   20.8160 C   0  0  0  0  0  0  0  0  0  0  0  0
  -29.2080  -20.8880   20.4130 C   0  0  0  0  0  0  0  0  0  0  0  0
  -29.9350  -20.4310   21.4820 N   0  0  0  0  0  0  0  0  0  0  0  0
  -28.7470  -22.2800   20.1740 N   0  0  0  0  0  0  0  0  0  0  0  0
  -28.1220  -22.3160   19.3760 H   0  0  0  0  0  0  0  0  0  0  0  0
  -30.7380  -15.3700   21.0500 C   0  0  0  0  0  0  0  0  0  0  0  0
  -30.8150  -12.9710   20.2220 C   0  0  0  0  0  2  0  0  0  0  0  0
  -30.0390  -12.8610   18.8880 C   0  0  0  0  0  2  0  0  0  0  0  0
  -28.5230  -12.6830   19.1260 C   0  0  0  0  0  2  0  0  0  0  0  0
  -27.9680  -13.6110   20.2400 C   0  0  0  0  0  3  0  0  0  0  0  0
  -28.8870  -13.6510   21.4810 C   0  0  0  0  0  2  0  0  0  0  0  0
  -30.2150  -14.0780   21.0190 N   0  0  0  0  0  0  0  0  0  0  0  0
  -31.9460  -15.5140   20.8370 O   0  0  0  0  0  0  0  0  0  0  0  0
  -29.8520  -16.4670   21.1820 N   0  0  0  0  0  0  0  0  0  0  0  0
  -28.9320  -16.1190   21.4060 H   0  0  0  0  0  0  0  0  0  0  0  0
  -25.5030  -14.1430   20.7010 C   0  0  0  0  0  0  0  0  0  0  0  0
  -24.4200  -13.3490   20.9660 C   0  0  0  0  0  0  0  0  0  0  0  0
  -24.9170  -12.0090   21.0150 C   0  0  0  0  0  0  0  0  0  0  0  0
  -26.5860  -13.2880   20.5900 N   0  0  0  0  0  0  0  0  0  0  0  0
  -26.2350  -12.0010   20.8460 N   0  0  0  0  0  0  0  0  0  0  0  0
  -24.2020  -10.7330   21.1530 C   0  0  0  0  0  0  0  0  0  0  0  0
  -24.5560   -9.7890   22.1420 C   0  0  0  0  0  3  0  0  0  0  0  0
  -23.8380   -8.5790   22.2680 C   0  0  0  0  0  3  0  0  0  0  0  0
  -22.7530   -8.3050   21.4020 C   0  0  0  0  0  0  0  0  0  0  0  0
  -22.4190   -9.2380   20.4060 C   0  0  0  0  0  3  0  0  0  0  0  0
  -23.1360  -10.4390   20.2790 C   0  0  0  0  0  3  0  0  0  0  0  0
  -22.0190   -7.1430   21.4310 O   0  0  0  0  0  0  0  0  0  0  0  0
  -21.8660   -6.4160   22.5840 C   0  0  0  0  0  0  0  0  0  0  0  0
  -21.2910   -6.9750   23.7470 C   0  0  0  0  0  3  0  0  0  0  0  0
  -21.0900   -6.1740   24.8880 C   0  0  0  0  0  3  0  0  0  0  0  0
  -21.4520   -4.8130   24.8670 C   0  0  0  0  0  0  0  0  0  0  0  0
  -22.0190   -4.2530   23.7080 C   0  0  0  0  0  3  0  0  0  0  0  0
  -22.2220   -5.0530   22.5700 C   0  0  0  0  0  0  0  0  0  0  0  0
  -22.7500   -4.5030   21.4490 F   0  0  0  0  0  0  0  0  0  0  0  0
  -21.2520   -4.0410   25.9600 F   0  0  0  0  0  0  0  0  0  0  0  0
  -22.9910  -13.7970   21.0710 C   0  0  0  0  0  0  0  0  0  0  0  0
  -22.1890  -13.1160   21.8810 N   0  0  0  0  0  0  0  0  0  0  0  0
  -22.5900  -14.7920   20.4690 O   0  0  0  0  0  0  0  0  0  0  0  0
  -22.5190  -12.3130   22.3950 H   0  0  0  0  0  0  0  0  0  0  0  0
  -21.2270  -13.4080   21.9900 H   0  0  0  0  0  0  0  0  0  0  0  0
  -25.6520  -15.5140   20.5220 N   0  0  0  0  0  0  0  0  0  0  0  0
  -24.8630  -16.1510   20.5670 H   0  0  0  0  0  0  0  0  0  0  0  0
  -26.5190  -15.9780   20.2870 H   0  0  0  0  0  0  0  0  0  0  0  0
  -29.3880  -16.4960   17.9320 C   0  0  0  0  0  2  0  0  0  0  0  0
  -28.8820  -17.7040   17.1840 C   0  0  0  0  0  2  0  0  0  0  0  0
  -28.5420  -17.5210   18.6490 C   0  0  0  0  0  3  0  0  0  0  0  0
  -29.0980  -23.7290   20.6190 C   0  0  0  0  0  3  0  0  0  0  0  0
  -28.1040  -25.0300   20.1930 C   0  0  0  0  0  3  0  0  0  0  0  0
  -28.3450  -26.5610   20.3430 O   0  0  0  0  0  0  0  0  0  0  0  0
  -24.6000  -32.1240   23.3900 C   0  0  0  0  0  0  0  0  0  0  0  0
  -27.2630  -27.5160   20.2850 C   0  0  0  0  0  0  0  0  0  0  0  0
  -23.4200  -30.7340   21.7310 C   0  0  0  0  0  3  0  0  0  0  0  0
  -24.8960  -29.2070   20.2810 C   0  0  0  0  0  0  0  0  0  0  0  0
  -25.9680  -31.0530   21.5620 C   0  0  0  0  0  2  0  0  0  0  0  0
  -26.0670  -29.6710   20.8930 C   0  0  0  0  0  0  0  0  0  0  0  0
  -27.2500  -28.8430   20.8760 C   0  0  0  0  0  3  0  0  0  0  0  0
  -26.0630  -27.1520   19.6340 C   0  0  0  0  0  3  0  0  0  0  0  0
  -24.9060  -27.9620   19.6350 C   0  0  0  0  0  3  0  0  0  0  0  0
  -23.6490  -30.0780   20.3430 C   0  0  0  0  0  2  0  0  0  0  0  0
  -24.6830  -31.3250   22.2830 N   0  0  0  0  0  0  0  0  0  0  0  0
  -23.5110  -32.3820   23.9240 O   0  0  0  0  0  0  0  0  0  0  0  0
  -22.7630  -29.7000   22.6790 C   0  0  0  0  0  0  0  0  0  0  0  0
  -21.4440  -29.4800   22.5260 N   0  0  0  0  0  0  0  0  0  0  0  0
  -23.4400  -29.1000   23.5180 O   0  0  0  0  0  0  0  0  0  0  0  0
  -20.9510  -30.0200   21.8280 H   0  0  0  0  0  0  0  0  0  0  0  0
  -18.1120  -28.1180   22.9300 C   0  0  0  0  0  0  0  0  0  0  0  0
  -20.6430  -28.5130   23.2820 C   0  0  0  0  0  3  0  0  0  0  0  0
  -20.8350  -27.0800   22.7340 C   0  0  0  0  0  2  0  0  0  0  0  0
  -19.7880  -26.6890   21.6850 C   0  0  0  0  0  2  0  0  0  0  0  0
  -18.3790  -26.7720   22.2780 C   0  0  0  0  0  2  0  0  0  0  0  0
  -19.1760  -28.9420   23.3880 C   0  0  0  0  0  0  0  0  0  0  0  0
  -18.8720  -30.1970   23.9580 C   0  0  0  0  0  3  0  0  0  0  0  0
  -17.5380  -30.6320   24.0730 C   0  0  0  0  0  3  0  0  0  0  0  0
  -16.4890  -29.8080   23.6300 C   0  0  0  0  0  3  0  0  0  0  0  0
  -16.7770  -28.5520   23.0660 C   0  0  0  0  0  3  0  0  0  0  0  0
  -25.8680  -32.7720   24.0250 C   0  0  0  0  0  3  0  0  0  0  0  0
  -26.3770  -32.0080   25.3100 C   0  0  1  0  0  0  0  0  0  0  0  0
  -25.2710  -31.7550   26.3620 C   0  0  0  0  0  1  0  0  0  0  0  0
  -26.9860  -30.6380   24.9300 C   0  0  0  0  0  1  0  0  0  0  0  0
  -27.5080  -32.8170   25.9870 C   0  0  0  0  0  1  0  0  0  0  0  0
  -25.5390  -34.1690   24.3560 N   0  0  0  0  0  0  0  0  0  0  0  0
  -25.8960  -35.2320   23.6240 C   0  0  0  0  0  0  0  0  0  0  0  0
  -26.6030  -35.1410   22.6170 O   0  0  0  0  0  0  0  0  0  0  0  0
  -24.9150  -34.3100   25.1360 H   0  0  0  0  0  0  0  0  0  0  0  0
  -24.1930  -37.0390   23.2140 C   0  0  0  0  0  1  0  0  0  0  0  0
  -25.3910  -36.6170   24.0790 C   0  0  0  0  0  3  0  0  0  0  0  0
  -27.4830  -37.4840   25.0270 C   0  0  0  0  0  1  0  0  0  0  0  0
  -26.4300  -37.6680   24.0320 N   0  0  0  0  0  0  0  0  0  0  0  0
  -26.0200  -38.5880   24.1660 H   0  0  0  0  0  0  0  0  0  0  0  0
  1  3  2  0
  1  5  1  0
  3  4  1  0
  4 17  1  0
  4  2  2  0
  5  6  2  0
  6  2  1  0
  7  5  1  0
  7 50  1  0
  8  7  1  0
  9 17  1  0
 10 15  1  0
 11 12  1  0
 11 10  1  0
 13 12  1  0
 13 22  1  0
 13 14  1  0
 15  9  1  0
 15 14  1  0
 16  9  2  0
 17 18  1  0
 19 20  2  0
 20 21  1  0
 20 39  1  0
 21 24  1  0
 22 19  1  0
 22 23  1  0
 23 21  2  0
 24 25  1  0
 25 26  2  0
 27 30  1  0
 27 26  1  0
 28 27  2  0
 29 28  1  0
 29 24  2  0
 30 31  1  0
 31 32  1  0
 32 33  2  0
 34 33  1  0
 34 38  1  0
 35 34  2  0
 36 31  2  0
 36 35  1  0
 37 36  1  0
 39 40  1  0
 40 43  1  0
 40 42  1  0
 41 39  2  0
 44 45  1  0
 44 19  1  0
 46 44  1  0
 47 49  1  0
 48 47  1  0
 48 49  1  0
 49  3  1  0
 51 52  1  0
 51 50  2  0
 53 64  2  0
 54 52  1  0
 54 59  1  0
 55 63  1  0
 55 65  1  0
 56 62  1  0
 56 58  1  0
 57 63  1  0
 58 57  1  0
 59 58  2  0
 60 61  1  0
 60 54  2  0
 61 56  2  0
 62 55  1  0
 63 53  1  0
 65 67  2  0
 66 65  1  0
 68 66  1  0
 69 78  2  0
 69 74  1  0
 70 66  1  0
 70 74  1  0
 71 70  1  0
 72 73  1  0
 72 71  1  0
 73 69  1  0
 74 75  2  0
 75 76  1  0
 77 76  2  0
 78 77  1  0
 79 53  1  0
 79 84  1  0
 79 80  1  0
 80 83  1  1
 80 81  1  0
 82 80  1  0
 84 87  1  0
 85 89  1  0
 85 84  1  0
 86 85  2  0
 89 88  1  0
 91 89  1  0
 91 92  1  0
 91 90  1  0
M  ISO  4   9 100  17 100  51 101  52 101
M  END
>  <TORSDO>  (28) 
F 19

>  <SCORE>  (28) 
-12.051

>  <name>  (28) 
27

>  <ligand_id>  (28) 
27

>  <original_smiles>  (28) 
[H]c1nc(N([H])C([H])([H])C([H])([H])Oc2c([H])c([H])c3c(c2[H])C([H])([H])N(C(=O)C([H])(N([H])C(=O)C([H])(N([H])C([H])([H])[H])C([H])([H])[H])C(C([H])([H])[H])(C([H])([H])[H])C([H])([H])[H])C([H])(C(=O)N([H])C2([H])c4c([H])c([H])c([H])c([H])c4C([H])([H])C([H])([H])C2([H])[H])C3([H])[H])c([H])c(C2([H])C([H])([H])C2([H])[H])c1N([H])C(=O)N1C([H])([H])C([H])([H])C([H])([H])C([H])(n2nc(-c3c([H])c([H])c(Oc4c([H])c([H])c(F)c([H])c4F)c([H])c3[H])c(C(=O)N([H])[H])c2N([H])[H])C1([H])[H]

>  <smiles>  (28) 
[H]c1nc(N([H])C([H])([H])C([H])([H])Oc2c([H])c([H])c3c(c2[H])C([H])([H])N(C(=O)C([H])(N([H])C(=O)C([H])(N([H])C([H])([H])[H])C([H])([H])[H])C(C([H])([H])[H])(C([H])([H])[H])C([H])([H])[H])C([H])(C(=O)N([H])C2([H])c4c([H])c([H])c([H])c([H])c4C([H])([H])C([H])([H])C2([H])[H])C3([H])[H])c([H])c(C2([H])C([H])([H])C2([H])[H])c1N([H])C(=O)N1C([H])([H])C([H])([H])C([H])([H])C([H])(n2nc(-c3c([H])c([H])c(Oc4c([H])c([H])c(F)c([H])c4F)c([H])c3[H])c(C(=O)N([H])[H])c2N([H])[H])C1([H])[H]

$$$$
28:0:0
     RDKit          3D

 92100  0  0  1  0  0  0  0  0999 V2000
  -30.3910  -20.5180   20.1460 C   0  0  0  0  0  3  0  0  0  0  0  0
  -28.0380  -20.1440   20.6060 C   0  0  0  0  0  3  0  0  0  0  0  0
  -30.1300  -21.8890   19.9240 C   0  0  0  0  0  3  0  0  0  0  0  0
  -27.7780  -21.5100   20.3780 C   0  0  0  0  0  3  0  0  0  0  0  0
  -29.3470  -19.6300   20.4980 C   0  0  0  0  0  0  0  0  0  0  0  0
  -28.8140  -22.4040   20.0360 C   0  0  0  0  0  0  0  0  0  0  0  0
  -29.5530  -18.2610   20.7470 N   0  0  0  0  0  0  0  0  0  0  0  0
  -28.7800  -17.6990   21.0940 H   0  0  0  0  0  0  0  0  0  0  0  0
  -30.8940  -17.6890   20.8280 C   0  0  0  0  0  2  0  0  0  0  0  0
  -30.9500  -16.4710   21.7710 C   0  0  0  0  0  2  0  0  0  0  0  0
  -30.7400  -14.4680   20.2990 C   0  0  0  0  0  0  0  0  0  0  0  0
  -30.3270  -12.4130   18.9910 C   0  0  0  0  0  2  0  0  0  0  0  0
  -29.3290  -12.6790   17.8490 C   0  0  0  0  0  2  0  0  0  0  0  0
  -27.8780  -12.5270   18.3440 C   0  0  0  0  0  2  0  0  0  0  0  0
  -27.6100  -13.3120   19.6550 C   0  0  0  0  0  3  0  0  0  0  0  0
  -28.7080  -13.0200   20.7000 C   0  0  0  0  0  2  0  0  0  0  0  0
  -30.0150  -13.3360   20.0930 N   0  0  0  0  0  0  0  0  0  0  0  0
  -31.7710  -14.7340   19.6760 O   0  0  0  0  0  0  0  0  0  0  0  0
  -30.2650  -15.2920   21.2430 N   0  0  0  0  0  0  0  0  0  0  0  0
  -29.4100  -15.0110   21.7000 H   0  0  0  0  0  0  0  0  0  0  0  0
  -25.2400  -13.9080   20.4660 C   0  0  0  0  0  0  0  0  0  0  0  0
  -24.1870  -13.1290   20.8660 C   0  0  0  0  0  0  0  0  0  0  0  0
  -24.6480  -11.7780   20.7960 C   0  0  0  0  0  0  0  0  0  0  0  0
  -26.2750  -13.0310   20.1810 N   0  0  0  0  0  0  0  0  0  0  0  0
  -25.9250  -11.7440   20.4350 N   0  0  0  0  0  0  0  0  0  0  0  0
  -23.9320  -10.5120   20.9970 C   0  0  0  0  0  0  0  0  0  0  0  0
  -24.3830   -9.5460   21.9230 C   0  0  0  0  0  3  0  0  0  0  0  0
  -23.6680   -8.3440   22.1100 C   0  0  0  0  0  3  0  0  0  0  0  0
  -22.4850   -8.1000   21.3720 C   0  0  0  0  0  0  0  0  0  0  0  0
  -22.0530   -9.0550   20.4340 C   0  0  0  0  0  3  0  0  0  0  0  0
  -22.7700  -10.2470   20.2450 C   0  0  0  0  0  3  0  0  0  0  0  0
  -21.7390   -6.9500   21.4680 O   0  0  0  0  0  0  0  0  0  0  0  0
  -21.6940   -6.2170   22.6270 C   0  0  0  0  0  0  0  0  0  0  0  0
  -21.2440   -6.7740   23.8440 C   0  0  0  0  0  3  0  0  0  0  0  0
  -21.1480   -5.9660   24.9960 C   0  0  0  0  0  3  0  0  0  0  0  0
  -21.4920   -4.6030   24.9300 C   0  0  0  0  0  0  0  0  0  0  0  0
  -21.9350   -4.0460   23.7180 C   0  0  0  0  0  3  0  0  0  0  0  0
  -22.0330   -4.8510   22.5690 C   0  0  0  0  0  0  0  0  0  0  0  0
  -22.4400   -4.3030   21.3980 F   0  0  0  0  0  0  0  0  0  0  0  0
  -21.3920   -3.8250   26.0330 F   0  0  0  0  0  0  0  0  0  0  0  0
  -22.8020  -13.5990   21.2030 C   0  0  0  0  0  0  0  0  0  0  0  0
  -22.1080  -12.8830   22.0800 N   0  0  0  0  0  0  0  0  0  0  0  0
  -22.3450  -14.6360   20.7240 O   0  0  0  0  0  0  0  0  0  0  0  0
  -22.4910  -12.0430   22.4870 H   0  0  0  0  0  0  0  0  0  0  0  0
  -21.1800  -13.1790   22.3480 H   0  0  0  0  0  0  0  0  0  0  0  0
  -25.3960  -15.2800   20.3020 N   0  0  0  0  0  0  0  0  0  0  0  0
  -24.6340  -15.9330   20.4480 H   0  0  0  0  0  0  0  0  0  0  0  0
  -26.2370  -15.7240   19.9520 H   0  0  0  0  0  0  0  0  0  0  0  0
  -28.4630  -23.7250   19.8250 O   0  0  0  0  0  0  0  0  0  0  0  0
  -29.4870  -24.6650   19.4950 C   0  0  0  0  0  2  0  0  0  0  0  0
  -28.8820  -26.0150   19.0610 C   0  0  0  0  0  2  0  0  0  0  0  0
  -28.5140  -26.8250   20.1860 O   0  0  0  0  0  0  0  0  0  0  0  0
  -24.5910  -31.9060   23.2520 C   0  0  0  0  0  0  0  0  0  0  0  0
  -27.3160  -27.5090   20.1630 C   0  0  0  0  0  0  0  0  0  0  0  0
  -23.4140  -30.4990   21.5920 C   0  0  0  0  0  3  0  0  0  0  0  0
  -24.8960  -28.9800   20.1790 C   0  0  0  0  0  0  0  0  0  0  0  0
  -25.9370  -30.8810   21.4210 C   0  0  0  0  0  2  0  0  0  0  0  0
  -26.0410  -29.5140   20.7790 C   0  0  0  0  0  0  0  0  0  0  0  0
  -27.2500  -28.7800   20.7780 C   0  0  0  0  0  3  0  0  0  0  0  0
  -26.1400  -26.9740   19.5880 C   0  0  0  0  0  3  0  0  0  0  0  0
  -24.9380  -27.7050   19.5880 C   0  0  0  0  0  3  0  0  0  0  0  0
  -23.6440  -29.8250   20.2120 C   0  0  0  0  0  2  0  0  0  0  0  0
  -24.6650  -31.1100   22.1470 N   0  0  0  0  0  0  0  0  0  0  0  0
  -23.5010  -32.1680   23.7800 O   0  0  0  0  0  0  0  0  0  0  0  0
  -22.7630  -29.4690   22.5410 C   0  0  0  0  0  0  0  0  0  0  0  0
  -21.4380  -29.2900   22.4110 N   0  0  0  0  0  0  0  0  0  0  0  0
  -23.4450  -28.8320   23.3480 O   0  0  0  0  0  0  0  0  0  0  0  0
  -20.9470  -29.8570   21.7340 H   0  0  0  0  0  0  0  0  0  0  0  0
  -18.0570  -28.1200   22.9150 C   0  0  0  0  0  0  0  0  0  0  0  0
  -20.6190  -28.3460   23.1710 C   0  0  0  0  0  3  0  0  0  0  0  0
  -20.7020  -26.9250   22.5650 C   0  0  0  0  0  2  0  0  0  0  0  0
  -19.5890  -26.6350   21.5540 C   0  0  0  0  0  2  0  0  0  0  0  0
  -18.2130  -26.7820   22.2130 C   0  0  0  0  0  2  0  0  0  0  0  0
  -19.1870  -28.8620   23.3500 C   0  0  0  0  0  0  0  0  0  0  0  0
  -18.9880  -30.1170   23.9660 C   0  0  0  0  0  3  0  0  0  0  0  0
  -17.6900  -30.6300   24.1500 C   0  0  0  0  0  3  0  0  0  0  0  0
  -16.5750  -29.8860   23.7320 C   0  0  0  0  0  3  0  0  0  0  0  0
  -16.7580  -28.6320   23.1200 C   0  0  0  0  0  3  0  0  0  0  0  0
  -25.8650  -32.5440   23.8870 C   0  0  0  0  0  3  0  0  0  0  0  0
  -25.5480  -33.9450   24.1960 N   0  0  0  0  0  0  0  0  0  0  0  0
  -25.8980  -34.9900   23.4320 C   0  0  0  0  0  0  0  0  0  0  0  0
  -26.5910  -34.8760   22.4180 O   0  0  0  0  0  0  0  0  0  0  0  0
  -24.9320  -34.1080   24.9800 H   0  0  0  0  0  0  0  0  0  0  0  0
  -24.1830  -36.7810   23.0110 C   0  0  0  0  0  1  0  0  0  0  0  0
  -25.3980  -36.3820   23.8640 C   0  0  0  0  0  3  0  0  0  0  0  0
  -27.5050  -37.2720   24.7550 C   0  0  0  0  0  1  0  0  0  0  0  0
  -26.4350  -37.4330   23.7740 N   0  0  0  0  0  0  0  0  0  0  0  0
  -26.0270  -38.3540   23.8990 H   0  0  0  0  0  0  0  0  0  0  0  0
  -26.3630  -31.7850   25.1770 C   0  0  1  0  0  0  0  0  0  0  0  0
  -25.2530  -31.5480   26.2280 C   0  0  0  0  0  1  0  0  0  0  0  0
  -26.9610  -30.4080   24.8030 C   0  0  0  0  0  1  0  0  0  0  0  0
  -27.4980  -32.5900   25.8530 C   0  0  0  0  0  1  0  0  0  0  0  0
  1  5  1  0
  3  6  1  0
  3  1  2  0
  4  2  1  0
  5  2  2  0
  5  7  1  0
  6  4  2  0
  7  9  1  0
  7  8  1  0
  9 10  1  0
 11 19  1  0
 12 17  1  0
 13 14  1  0
 13 12  1  0
 15 14  1  0
 15 24  1  0
 15 16  1  0
 17 11  1  0
 17 16  1  0
 18 11  2  0
 19 20  1  0
 19 10  1  0
 21 22  2  0
 22 41  1  0
 23 22  1  0
 23 26  1  0
 24 25  1  0
 24 21  1  0
 25 23  2  0
 26 27  1  0
 27 28  2  0
 29 32  1  0
 29 28  1  0
 30 29  2  0
 31 30  1  0
 31 26  2  0
 32 33  1  0
 33 34  1  0
 34 35  2  0
 36 35  1  0
 36 40  1  0
 37 36  2  0
 38 33  2  0
 38 37  1  0
 39 38  1  0
 41 42  1  0
 42 45  1  0
 42 44  1  0
 43 41  2  0
 46 47  1  0
 46 21  1  0
 48 46  1  0
 49  6  1  0
 50 49  1  0
 51 50  1  0
 51 52  1  0
 53 64  2  0
 54 52  1  0
 54 59  1  0
 55 63  1  0
 55 65  1  0
 56 62  1  0
 56 58  1  0
 57 63  1  0
 58 57  1  0
 59 58  2  0
 60 54  2  0
 61 60  1  0
 61 56  2  0
 62 55  1  0
 63 53  1  0
 65 67  2  0
 66 65  1  0
 68 66  1  0
 69 78  2  0
 69 74  1  0
 70 66  1  0
 70 74  1  0
 71 70  1  0
 72 73  1  0
 72 71  1  0
 73 69  1  0
 74 75  2  0
 75 76  1  0
 77 76  2  0
 78 77  1  0
 79 53  1  0
 79 80  1  0
 79 89  1  0
 80 83  1  0
 81 85  1  0
 81 80  1  0
 82 81  2  0
 85 84  1  0
 87 85  1  0
 87 88  1  0
 87 86  1  0
 89 92  1  1
 89 90  1  0
 91 89  1  0
M  ISO  4  11 100  19 100  51 101  52 101
M  END
>  <TORSDO>  (29) 
F 22

>  <SCORE>  (29) 
-13.205

>  <name>  (29) 
28

>  <ligand_id>  (29) 
28

>  <original_smiles>  (29) 
[H]c1c([H])c([H])c2c(c1[H])C([H])([H])C([H])([H])C([H])([H])C2([H])N([H])C(=O)C1([H])N(C(=O)C([H])(N([H])C(=O)C([H])(N([H])C([H])([H])[H])C([H])([H])[H])C(C([H])([H])[H])(C([H])([H])[H])C([H])([H])[H])C([H])([H])c2c([H])c(OC([H])([H])C([H])([H])Oc3c([H])c([H])c(N([H])C([H])([H])C([H])([H])N([H])C(=O)N4C([H])([H])C([H])([H])C([H])([H])C([H])(n5nc(-c6c([H])c([H])c(Oc7c([H])c([H])c(F)c([H])c7F)c([H])c6[H])c(C(=O)N([H])[H])c5N([H])[H])C4([H])[H])c([H])c3[H])c([H])c([H])c2C1([H])[H]

>  <smiles>  (29) 
[H]c1c([H])c([H])c2c(c1[H])C([H])([H])C([H])([H])C([H])([H])C2([H])N([H])C(=O)C1([H])N(C(=O)C([H])(N([H])C(=O)C([H])(N([H])C([H])([H])[H])C([H])([H])[H])C(C([H])([H])[H])(C([H])([H])[H])C([H])([H])[H])C([H])([H])c2c([H])c(OC([H])([H])C([H])([H])Oc3c([H])c([H])c(N([H])C([H])([H])C([H])([H])N([H])C(=O)N4C([H])([H])C([H])([H])C([H])([H])C([H])(n5nc(-c6c([H])c([H])c(Oc7c([H])c([H])c(F)c([H])c7F)c([H])c6[H])c(C(=O)N([H])[H])c5N([H])[H])C4([H])[H])c([H])c3[H])c([H])c([H])c2C1([H])[H]

$$$$
29:0:0
     RDKit          3D

 92101  0  0  1  0  0  0  0  0999 V2000
  -27.9420  -21.9040   18.8920 C   0  0  0  0  0  2  0  0  0  0  0  0
  -28.9650  -21.9140   20.0450 C   0  0  0  0  0  3  0  0  0  0  0  0
  -28.1070  -23.2440   20.6030 C   0  0  0  0  0  3  0  0  0  0  0  0
  -27.1980  -23.0350   19.4820 N   0  0  0  0  0  0  0  0  0  0  0  0
  -24.8480  -23.6260   20.3600 C   0  0  0  0  0  2  0  0  0  0  0  0
  -24.7290  -23.0360   18.9720 C   0  0  0  0  0  2  0  0  0  0  0  0
  -25.8580  -22.6110   19.8810 C   0  0  0  0  0  3  0  0  0  0  0  0
  -29.0650  -20.5010   20.7850 N   0  0  0  0  0  4  0  0  0  0  0  0
  -28.2650  -20.4200   21.3900 H   0  0  0  0  0  0  0  0  0  0  0  0
  -29.8520  -20.5830   21.4070 H   0  0  0  0  0  0  0  0  0  0  0  0
  -29.2090  -19.0720   20.0920 C   0  0  0  0  0  2  0  0  0  0  0  0
  -29.8760  -17.7140   20.8610 C   0  0  0  0  0  2  0  0  0  0  0  0
  -30.4600  -15.0240   20.3510 C   0  0  0  0  0  0  0  0  0  0  0  0
  -30.3790  -12.6880   19.3600 C   0  0  0  0  0  2  0  0  0  0  0  0
  -29.4420  -12.6350   18.1300 C   0  0  0  0  0  2  0  0  0  0  0  0
  -27.9800  -12.4040   18.5610 C   0  0  0  0  0  2  0  0  0  0  0  0
  -27.5620  -13.3120   19.7470 C   0  0  0  0  0  3  0  0  0  0  0  0
  -28.6180  -13.3230   20.8700 C   0  0  0  0  0  2  0  0  0  0  0  0
  -29.8790  -13.7620   20.2600 N   0  0  0  0  0  0  0  0  0  0  0  0
  -31.6740  -15.1110   20.1320 O   0  0  0  0  0  0  0  0  0  0  0  0
  -29.6470  -16.1840   20.4910 N   0  0  0  0  0  0  0  0  0  0  0  0
  -28.6690  -15.9360   20.5070 H   0  0  0  0  0  0  0  0  0  0  0  0
  -25.1690  -13.8550   20.4730 C   0  0  0  0  0  0  0  0  0  0  0  0
  -24.1180  -13.0620   20.8470 C   0  0  0  0  0  0  0  0  0  0  0  0
  -24.6080  -11.7210   20.8300 C   0  0  0  0  0  0  0  0  0  0  0  0
  -26.2280  -12.9930   20.2440 N   0  0  0  0  0  0  0  0  0  0  0  0
  -25.9000  -11.7060   20.5240 N   0  0  0  0  0  0  0  0  0  0  0  0
  -23.9030  -10.4470   21.0250 C   0  0  0  0  0  0  0  0  0  0  0  0
  -24.3420   -9.4980   21.9750 C   0  0  0  0  0  3  0  0  0  0  0  0
  -23.6350   -8.2880   22.1570 C   0  0  0  0  0  3  0  0  0  0  0  0
  -22.4780   -8.0210   21.3900 C   0  0  0  0  0  0  0  0  0  0  0  0
  -22.0580   -8.9590   20.4290 C   0  0  0  0  0  3  0  0  0  0  0  0
  -22.7650  -10.1590   20.2450 C   0  0  0  0  0  3  0  0  0  0  0  0
  -21.7440   -6.8620   21.4800 O   0  0  0  0  0  0  0  0  0  0  0  0
  -21.6890   -6.1350   22.6430 C   0  0  0  0  0  0  0  0  0  0  0  0
  -21.2130   -6.6930   23.8490 C   0  0  0  0  0  3  0  0  0  0  0  0
  -21.1110   -5.8910   25.0030 C   0  0  0  0  0  3  0  0  0  0  0  0
  -21.4710   -4.5320   24.9510 C   0  0  0  0  0  0  0  0  0  0  0  0
  -21.9390   -3.9720   23.7480 C   0  0  0  0  0  3  0  0  0  0  0  0
  -22.0440   -4.7720   22.5970 C   0  0  0  0  0  0  0  0  0  0  0  0
  -22.4760   -4.2230   21.4350 F   0  0  0  0  0  0  0  0  0  0  0  0
  -21.3640   -3.7590   26.0560 F   0  0  0  0  0  0  0  0  0  0  0  0
  -22.7100  -13.5150   21.1050 C   0  0  0  0  0  0  0  0  0  0  0  0
  -21.9870  -12.8100   21.9670 N   0  0  0  0  0  0  0  0  0  0  0  0
  -22.2590  -14.5310   20.5770 O   0  0  0  0  0  0  0  0  0  0  0  0
  -22.3630  -11.9870   22.4150 H   0  0  0  0  0  0  0  0  0  0  0  0
  -21.0420  -13.0950   22.1840 H   0  0  0  0  0  0  0  0  0  0  0  0
  -25.3050  -15.2260   20.2810 N   0  0  0  0  0  0  0  0  0  0  0  0
  -24.5160  -15.8570   20.3630 H   0  0  0  0  0  0  0  0  0  0  0  0
  -26.1240  -15.6690   19.8850 H   0  0  0  0  0  0  0  0  0  0  0  0
  -28.4070  -24.8940   20.8950 C   0  0  0  0  0  2  0  0  0  0  0  0
  -28.2750  -26.2520   20.1420 O   0  0  0  0  0  0  0  0  0  0  0  0
  -24.6090  -31.9170   23.2430 C   0  0  0  0  0  0  0  0  0  0  0  0
  -27.1940  -27.1970   20.2310 C   0  0  0  0  0  0  0  0  0  0  0  0
  -23.4120  -30.5120   21.6060 C   0  0  0  0  0  3  0  0  0  0  0  0
  -24.8640  -28.9360   20.1890 C   0  0  0  0  0  0  0  0  0  0  0  0
  -25.9640  -30.7820   21.4430 C   0  0  0  0  0  2  0  0  0  0  0  0
  -26.0400  -29.3840   20.8050 C   0  0  0  0  0  0  0  0  0  0  0  0
  -27.2070  -28.5300   20.8080 C   0  0  0  0  0  3  0  0  0  0  0  0
  -26.0050  -26.8600   19.5580 C   0  0  0  0  0  3  0  0  0  0  0  0
  -24.8590  -27.6880   19.5470 C   0  0  0  0  0  3  0  0  0  0  0  0
  -23.6360  -29.8320   20.2290 C   0  0  0  0  0  2  0  0  0  0  0  0
  -24.6820  -31.0950   22.1510 N   0  0  0  0  0  0  0  0  0  0  0  0
  -23.5220  -32.1990   23.7710 O   0  0  0  0  0  0  0  0  0  0  0  0
  -22.7390  -29.5050   22.5710 C   0  0  0  0  0  0  0  0  0  0  0  0
  -21.4100  -29.3340   22.4510 N   0  0  0  0  0  0  0  0  0  0  0  0
  -23.4140  -28.8790   23.3910 O   0  0  0  0  0  0  0  0  0  0  0  0
  -20.9200  -29.8930   21.7670 H   0  0  0  0  0  0  0  0  0  0  0  0
  -18.0290  -28.1400   22.9740 C   0  0  0  0  0  0  0  0  0  0  0  0
  -20.5930  -28.3950   23.2250 C   0  0  0  0  0  3  0  0  0  0  0  0
  -20.6850  -26.9640   22.6460 C   0  0  0  0  0  2  0  0  0  0  0  0
  -19.5750  -26.6500   21.6380 C   0  0  0  0  0  2  0  0  0  0  0  0
  -18.1990  -26.7930   22.2920 C   0  0  0  0  0  2  0  0  0  0  0  0
  -19.1540  -28.8990   23.3990 C   0  0  0  0  0  0  0  0  0  0  0  0
  -18.9400  -30.1590   23.9980 C   0  0  0  0  0  3  0  0  0  0  0  0
  -17.6370  -30.6610   24.1770 C   0  0  0  0  0  3  0  0  0  0  0  0
  -16.5290  -29.8990   23.7690 C   0  0  0  0  0  3  0  0  0  0  0  0
  -16.7250  -28.6400   23.1730 C   0  0  0  0  0  3  0  0  0  0  0  0
  -25.8860  -32.5580   23.8670 C   0  0  0  0  0  3  0  0  0  0  0  0
  -25.5750  -33.9610   24.1840 N   0  0  0  0  0  0  0  0  0  0  0  0
  -25.9070  -35.0100   23.4190 C   0  0  0  0  0  0  0  0  0  0  0  0
  -26.5750  -34.8980   22.3890 O   0  0  0  0  0  0  0  0  0  0  0  0
  -24.9840  -34.1200   24.9860 H   0  0  0  0  0  0  0  0  0  0  0  0
  -24.1860  -36.8090   23.0550 C   0  0  0  0  0  1  0  0  0  0  0  0
  -25.4250  -36.4040   23.8700 C   0  0  0  0  0  3  0  0  0  0  0  0
  -27.5590  -37.2900   24.7000 C   0  0  0  0  0  1  0  0  0  0  0  0
  -26.4600  -37.4540   23.7510 N   0  0  0  0  0  0  0  0  0  0  0  0
  -26.0570  -38.3760   23.8910 H   0  0  0  0  0  0  0  0  0  0  0  0
  -26.3900  -31.8030   25.1580 C   0  0  1  0  0  0  0  0  0  0  0  0
  -25.2900  -31.5830   26.2230 C   0  0  0  0  0  1  0  0  0  0  0  0
  -26.9750  -30.4190   24.7930 C   0  0  0  0  0  1  0  0  0  0  0  0
  -27.5380  -32.6050   25.8190 C   0  0  0  0  0  1  0  0  0  0  0  0
  1  4  1  0
  1  2  1  0
  2  3  1  0
  2  8  1  0
  3 51  1  0
  4  7  1  0
  4  3  1  0
  6  7  1  0
  6  5  1  0
  7  5  1  0
  8  9  1  0
  8 10  1  0
 11  8  1  0
 11 12  1  0
 13 21  1  0
 14 19  1  0
 15 16  1  0
 15 14  1  0
 17 16  1  0
 17 26  1  0
 17 18  1  0
 19 13  1  0
 19 18  1  0
 20 13  2  0
 21 22  1  0
 21 12  1  0
 23 24  2  0
 24 43  1  0
 25 24  1  0
 25 28  1  0
 26 23  1  0
 26 27  1  0
 27 25  2  0
 28 29  1  0
 29 30  2  0
 31 34  1  0
 31 30  1  0
 32 31  2  0
 33 32  1  0
 33 28  2  0
 34 35  1  0
 35 36  1  0
 36 37  2  0
 38 37  1  0
 38 42  1  0
 39 38  2  0
 40 35  2  0
 40 39  1  0
 41 40  1  0
 43 44  1  0
 44 47  1  0
 44 46  1  0
 45 43  2  0
 48 49  1  0
 48 23  1  0
 50 48  1  0
 52 54  1  0
 52 51  1  0
 53 64  2  0
 54 59  1  0
 55 63  1  0
 55 65  1  0
 56 62  1  0
 56 58  1  0
 57 63  1  0
 58 59  2  0
 58 57  1  0
 60 54  2  0
 61 60  1  0
 61 56  2  0
 62 55  1  0
 63 53  1  0
 65 67  2  0
 66 65  1  0
 68 66  1  0
 69 78  2  0
 69 74  1  0
 70 66  1  0
 70 74  1  0
 71 70  1  0
 72 73  1  0
 72 71  1  0
 73 69  1  0
 74 75  2  0
 75 76  1  0
 77 76  2  0
 78 77  1  0
 79 53  1  0
 79 80  1  0
 79 89  1  0
 80 83  1  0
 81 85  1  0
 81 80  1  0
 82 81  2  0
 85 84  1  0
 87 85  1  0
 87 88  1  0
 87 86  1  0
 89 92  1  1
 89 90  1  0
 91 89  1  0
M  ISO  4  13 100  21 100  51 101  52 101
M  END
>  <TORSDO>  (30) 
F 21

>  <SCORE>  (30) 
-14.827

>  <name>  (30) 
29

>  <ligand_id>  (30) 
29

>  <original_smiles>  (30) 
[H]c1c([H])c([H])c2c(c1[H])C([H])([H])C([H])([H])C([H])([H])C2([H])N([H])C(=O)C1([H])N(C(=O)C([H])(N([H])C(=O)C([H])(N([H])C([H])([H])[H])C([H])([H])[H])C(C([H])([H])[H])(C([H])([H])[H])C([H])([H])[H])C([H])([H])c2c([H])c(OC([H])([H])C3([H])N(C4([H])C([H])([H])C4([H])[H])C([H])([H])C3([H])[N+]([H])([H])C([H])([H])C([H])([H])N([H])C(=O)N3C([H])([H])C([H])([H])C([H])([H])C([H])(n4nc(-c5c([H])c([H])c(Oc6c([H])c([H])c(F)c([H])c6F)c([H])c5[H])c(C(=O)N([H])[H])c4N([H])[H])C3([H])[H])c([H])c([H])c2C1([H])[H]

>  <smiles>  (30) 
[H]c1c([H])c([H])c2c(c1[H])C([H])([H])C([H])([H])C([H])([H])C2([H])N([H])C(=O)C1([H])N(C(=O)C([H])(N([H])C(=O)C([H])(N([H])C([H])([H])[H])C([H])([H])[H])C(C([H])([H])[H])(C([H])([H])[H])C([H])([H])[H])C([H])([H])c2c([H])c(OC([H])([H])C3([H])N(C4([H])C([H])([H])C4([H])[H])C([H])([H])C3([H])[N+]([H])([H])C([H])([H])C([H])([H])N([H])C(=O)N3C([H])([H])C([H])([H])C([H])([H])C([H])(n4nc(-c5c([H])c([H])c(Oc6c([H])c([H])c(F)c([H])c6F)c([H])c5[H])c(C(=O)N([H])[H])c4N([H])[H])C3([H])[H])c([H])c([H])c2C1([H])[H]

$$$$
30:0:0
     RDKit          3D

 93101  0  0  1  0  0  0  0  0999 V2000
  -26.5400  -23.2420   18.9980 C   0  0  0  0  0  2  0  0  0  0  0  0
  -27.2880  -24.1510   18.0130 C   0  0  0  0  0  2  0  0  0  0  0  0
  -27.3230  -21.9170   19.0400 C   0  0  0  0  0  2  0  0  0  0  0  0
  -29.1610  -23.5440   19.6910 C   0  0  0  0  0  2  0  0  0  0  0  0
  -28.6690  -24.5410   18.5790 C   0  0  0  0  0  3  0  0  0  0  0  0
  -28.7090  -22.1350   19.4870 N   0  0  0  0  0  0  0  0  0  0  0  0
  -28.7920  -26.0890   18.8700 C   0  0  0  0  0  2  0  0  0  0  0  0
  -28.3310  -26.6590   20.1170 O   0  0  0  0  0  0  0  0  0  0  0  0
  -24.5810  -31.9120   23.2390 C   0  0  0  0  0  0  0  0  0  0  0  0
  -27.1830  -27.4370   20.1210 C   0  0  0  0  0  0  0  0  0  0  0  0
  -23.3580  -30.5180   21.6060 C   0  0  0  0  0  3  0  0  0  0  0  0
  -24.7960  -28.9830   20.1700 C   0  0  0  0  0  0  0  0  0  0  0  0
  -25.8900  -30.8610   21.3870 C   0  0  0  0  0  2  0  0  0  0  0  0
  -25.9670  -29.4900   20.7420 C   0  0  0  0  0  0  0  0  0  0  0  0
  -27.1670  -28.7300   20.7100 C   0  0  0  0  0  3  0  0  0  0  0  0
  -25.9660  -26.9340   19.6180 C   0  0  0  0  0  3  0  0  0  0  0  0
  -24.7890  -27.6980   19.6070 C   0  0  0  0  0  3  0  0  0  0  0  0
  -23.5590  -29.8510   20.2230 C   0  0  0  0  0  2  0  0  0  0  0  0
  -24.6310  -31.1080   22.1370 N   0  0  0  0  0  0  0  0  0  0  0  0
  -23.5050  -32.1870   23.7830 O   0  0  0  0  0  0  0  0  0  0  0  0
  -22.7110  -29.4940   22.5670 C   0  0  0  0  0  0  0  0  0  0  0  0
  -21.3840  -29.3150   22.4520 N   0  0  0  0  0  0  0  0  0  0  0  0
  -23.3970  -28.8650   23.3780 O   0  0  0  0  0  0  0  0  0  0  0  0
  -20.8890  -29.8770   21.7730 H   0  0  0  0  0  0  0  0  0  0  0  0
  -18.0120  -28.1210   22.9670 C   0  0  0  0  0  0  0  0  0  0  0  0
  -20.5700  -28.3770   23.2270 C   0  0  0  0  0  3  0  0  0  0  0  0
  -20.6710  -26.9440   22.6560 C   0  0  0  0  0  2  0  0  0  0  0  0
  -19.5650  -26.6170   21.6480 C   0  0  0  0  0  2  0  0  0  0  0  0
  -18.1830  -26.7690   22.2920 C   0  0  0  0  0  2  0  0  0  0  0  0
  -19.1330  -28.8810   23.3920 C   0  0  0  0  0  0  0  0  0  0  0  0
  -18.9180  -30.1480   23.9800 C   0  0  0  0  0  3  0  0  0  0  0  0
  -17.6140  -30.6510   24.1480 C   0  0  0  0  0  3  0  0  0  0  0  0
  -16.5090  -29.8860   23.7410 C   0  0  0  0  0  3  0  0  0  0  0  0
  -16.7060  -28.6230   23.1560 C   0  0  0  0  0  3  0  0  0  0  0  0
  -25.8740  -32.5380   23.8490 C   0  0  0  0  0  3  0  0  0  0  0  0
  -25.5790  -33.9370   24.1810 N   0  0  0  0  0  0  0  0  0  0  0  0
  -25.9050  -34.9850   23.4130 C   0  0  0  0  0  0  0  0  0  0  0  0
  -26.5630  -34.8780   22.3760 O   0  0  0  0  0  0  0  0  0  0  0  0
  -25.0220  -34.0980   25.0040 H   0  0  0  0  0  0  0  0  0  0  0  0
  -24.1840  -36.7800   23.0560 C   0  0  0  0  0  1  0  0  0  0  0  0
  -25.4200  -36.3730   23.8710 C   0  0  0  0  0  3  0  0  0  0  0  0
  -27.5670  -37.2400   24.6950 C   0  0  0  0  0  1  0  0  0  0  0  0
  -26.4530  -37.4270   23.7670 N   0  0  0  0  0  0  0  0  0  0  0  0
  -26.0480  -38.3420   23.9440 H   0  0  0  0  0  0  0  0  0  0  0  0
  -26.3930  -31.7690   25.1240 C   0  0  1  0  0  0  0  0  0  0  0  0
  -25.3040  -31.5450   26.2000 C   0  0  0  0  0  1  0  0  0  0  0  0
  -26.9650  -30.3890   24.7260 C   0  0  0  0  0  1  0  0  0  0  0  0
  -27.5500  -32.5640   25.7780 C   0  0  0  0  0  1  0  0  0  0  0  0
  -29.6730  -21.0350   19.2320 C   0  0  0  0  0  2  0  0  0  0  0  0
  -30.1970  -20.3680   20.5510 C   0  0  0  0  0  2  0  0  0  0  0  0
  -29.7200  -18.9920   20.9140 N   0  0  0  0  0  4  0  0  0  0  0  0
  -28.8140  -18.7830   20.5280 H   0  0  0  0  0  0  0  0  0  0  0  0
  -29.5860  -19.0580   21.9090 H   0  0  0  0  0  0  0  0  0  0  0  0
  -30.6550  -17.8360   20.7400 C   0  0  0  0  0  2  0  0  0  0  0  0
  -30.4810  -16.7210   21.8260 C   0  0  0  0  0  2  0  0  0  0  0  0
  -30.7120  -14.4950   20.6210 C   0  0  0  0  0  0  0  0  0  0  0  0
  -30.4300  -12.3940   19.3440 C   0  0  0  0  0  2  0  0  0  0  0  0
  -29.4810  -12.6100   18.1460 C   0  0  0  0  0  2  0  0  0  0  0  0
  -28.0010  -12.4880   18.5640 C   0  0  0  0  0  2  0  0  0  0  0  0
  -27.6670  -13.2950   19.8470 C   0  0  0  0  0  3  0  0  0  0  0  0
  -28.7090  -13.0010   20.9470 C   0  0  0  0  0  2  0  0  0  0  0  0
  -30.0410  -13.3310   20.4060 N   0  0  0  0  0  0  0  0  0  0  0  0
  -31.8190  -14.7450   20.1320 O   0  0  0  0  0  0  0  0  0  0  0  0
  -30.0360  -15.4050   21.3390 N   0  0  0  0  0  0  0  0  0  0  0  0
  -29.1250  -15.0950   21.6510 H   0  0  0  0  0  0  0  0  0  0  0  0
  -25.2590  -13.9280   20.5090 C   0  0  0  0  0  0  0  0  0  0  0  0
  -24.1790  -13.1640   20.8690 C   0  0  0  0  0  0  0  0  0  0  0  0
  -24.6340  -11.8100   20.8570 C   0  0  0  0  0  0  0  0  0  0  0  0
  -26.3030  -13.0370   20.3070 N   0  0  0  0  0  0  0  0  0  0  0  0
  -25.9280  -11.7590   20.5710 N   0  0  0  0  0  0  0  0  0  0  0  0
  -23.8990  -10.5530   21.0510 C   0  0  0  0  0  0  0  0  0  0  0  0
  -24.3250   -9.5870   21.9880 C   0  0  0  0  0  3  0  0  0  0  0  0
  -23.5930   -8.3920   22.1670 C   0  0  0  0  0  3  0  0  0  0  0  0
  -22.4210   -8.1580   21.4080 C   0  0  0  0  0  0  0  0  0  0  0  0
  -22.0160   -9.1140   20.4610 C   0  0  0  0  0  3  0  0  0  0  0  0
  -22.7470  -10.2990   20.2810 C   0  0  0  0  0  3  0  0  0  0  0  0
  -21.6620   -7.0170   21.4970 O   0  0  0  0  0  0  0  0  0  0  0  0
  -21.6160   -6.2700   22.6450 C   0  0  0  0  0  0  0  0  0  0  0  0
  -21.2090   -6.8240   23.8790 C   0  0  0  0  0  3  0  0  0  0  0  0
  -21.1080   -6.0030   25.0200 C   0  0  0  0  0  3  0  0  0  0  0  0
  -21.4060   -4.6320   24.9300 C   0  0  0  0  0  0  0  0  0  0  0  0
  -21.8040   -4.0760   23.7010 C   0  0  0  0  0  3  0  0  0  0  0  0
  -21.9050   -4.8920   22.5620 C   0  0  0  0  0  0  0  0  0  0  0  0
  -22.2700   -4.3490   21.3750 F   0  0  0  0  0  0  0  0  0  0  0  0
  -21.3020   -3.8410   26.0240 F   0  0  0  0  0  0  0  0  0  0  0  0
  -22.7810  -13.6540   21.1130 C   0  0  0  0  0  0  0  0  0  0  0  0
  -22.0350  -12.9680   21.9770 N   0  0  0  0  0  0  0  0  0  0  0  0
  -22.3550  -14.6730   20.5760 O   0  0  0  0  0  0  0  0  0  0  0  0
  -22.3920  -12.1450   22.4370 H   0  0  0  0  0  0  0  0  0  0  0  0
  -21.0940  -13.2760   22.1790 H   0  0  0  0  0  0  0  0  0  0  0  0
  -25.4330  -15.2940   20.3220 N   0  0  0  0  0  0  0  0  0  0  0  0
  -24.6710  -15.9550   20.4180 H   0  0  0  0  0  0  0  0  0  0  0  0
  -26.2900  -15.7230   19.9950 H   0  0  0  0  0  0  0  0  0  0  0  0
  1  3  1  0
  2  5  1  0
  2  1  1  0
  3  6  1  0
  5  7  1  0
  5  4  1  0
  6  4  1  0
  7  8  1  0
  8 10  1  0
  9 20  2  0
 10 15  1  0
 11 19  1  0
 11 21  1  0
 12 18  1  0
 12 14  1  0
 13 19  1  0
 14 13  1  0
 15 14  2  0
 16 10  2  0
 17 16  1  0
 17 12  2  0
 18 11  1  0
 19  9  1  0
 21 23  2  0
 22 21  1  0
 24 22  1  0
 25 34  2  0
 25 30  1  0
 26 22  1  0
 26 30  1  0
 27 26  1  0
 28 29  1  0
 28 27  1  0
 29 25  1  0
 30 31  2  0
 31 32  1  0
 33 32  2  0
 34 33  1  0
 35  9  1  0
 35 36  1  0
 35 45  1  0
 36 39  1  0
 37 41  1  0
 37 36  1  0
 38 37  2  0
 41 40  1  0
 43 41  1  0
 43 44  1  0
 43 42  1  0
 45 48  1  1
 45 46  1  0
 47 45  1  0
 49  6  1  0
 49 50  1  0
 50 51  1  0
 51 53  1  0
 52 51  1  0
 54 51  1  0
 54 55  1  0
 56 64  1  0
 57 62  1  0
 58 59  1  0
 58 57  1  0
 60 59  1  0
 60 69  1  0
 60 61  1  0
 62 56  1  0
 62 61  1  0
 63 56  2  0
 64 65  1  0
 64 55  1  0
 66 67  2  0
 67 86  1  0
 68 67  1  0
 68 71  1  0
 69 66  1  0
 69 70  1  0
 70 68  2  0
 71 72  1  0
 72 73  2  0
 74 77  1  0
 74 73  1  0
 75 74  2  0
 76 75  1  0
 76 71  2  0
 77 78  1  0
 78 79  1  0
 79 80  2  0
 81 80  1  0
 81 85  1  0
 82 81  2  0
 83 78  2  0
 83 82  1  0
 84 83  1  0
 86 87  1  0
 87 90  1  0
 87 89  1  0
 88 86  2  0
 91 92  1  0
 91 66  1  0
 93 91  1  0
M  ISO  4   7 101   8 101  56 100  64 100
M  END
>  <TORSDO>  (31) 
F 22

>  <SCORE>  (31) 
-13.315

>  <name>  (31) 
30

>  <ligand_id>  (31) 
30

>  <original_smiles>  (31) 
[H]c1c([H])c([H])c2c(c1[H])C([H])([H])C([H])([H])C([H])([H])C2([H])N([H])C(=O)C1([H])N(C(=O)C([H])(N([H])C(=O)C([H])(N([H])C([H])([H])[H])C([H])([H])[H])C(C([H])([H])[H])(C([H])([H])[H])C([H])([H])[H])C([H])([H])c2c([H])c(OC([H])([H])C3([H])C([H])([H])N(C([H])([H])C([H])([H])[N+]([H])([H])C([H])([H])C([H])([H])N([H])C(=O)N4C([H])([H])C([H])([H])C([H])([H])C([H])(n5nc(-c6c([H])c([H])c(Oc7c([H])c([H])c(F)c([H])c7F)c([H])c6[H])c(C(=O)N([H])[H])c5N([H])[H])C4([H])[H])C([H])([H])C([H])([H])C3([H])[H])c([H])c([H])c2C1([H])[H]

>  <smiles>  (31) 
[H]c1c([H])c([H])c2c(c1[H])C([H])([H])C([H])([H])C([H])([H])C2([H])N([H])C(=O)C1([H])N(C(=O)C([H])(N([H])C(=O)C([H])(N([H])C([H])([H])[H])C([H])([H])[H])C(C([H])([H])[H])(C([H])([H])[H])C([H])([H])[H])C([H])([H])c2c([H])c(OC([H])([H])C3([H])C([H])([H])N(C([H])([H])C([H])([H])[N+]([H])([H])C([H])([H])C([H])([H])N([H])C(=O)N4C([H])([H])C([H])([H])C([H])([H])C([H])(n5nc(-c6c([H])c([H])c(Oc7c([H])c([H])c(F)c([H])c7F)c([H])c6[H])c(C(=O)N([H])[H])c5N([H])[H])C4([H])[H])C([H])([H])C([H])([H])C3([H])[H])c([H])c([H])c2C1([H])[H]

$$$$
31:0:0
     RDKit          3D

 93101  0  0  1  0  0  0  0  0999 V2000
  -29.7420  -23.2720   18.6890 C   0  0  0  0  0  3  0  0  0  0  0  0
  -29.8150  -21.9120   19.1210 C   0  0  0  0  0  3  0  0  0  0  0  0
  -28.3740  -23.8400   20.5780 C   0  0  0  0  0  3  0  0  0  0  0  0
  -29.0450  -24.2860   19.4120 C   0  0  0  0  0  0  0  0  0  0  0  0
  -29.1910  -21.4790   20.3180 C   0  0  0  0  0  0  0  0  0  0  0  0
  -28.4390  -22.4740   21.0170 C   0  0  0  0  0  0  0  0  0  0  0  0
  -26.4510  -22.6850   22.3800 C   0  0  0  0  0  1  0  0  0  0  0  0
  -27.7370  -22.0390   22.1480 N   0  0  0  0  0  0  0  0  0  0  0  0
  -27.6690  -21.0250   22.1280 H   0  0  0  0  0  0  0  0  0  0  0  0
  -29.3350  -20.1610   20.8860 N   0  0  0  0  0  0  0  0  0  0  0  0
  -29.2070  -20.1190   21.8940 H   0  0  0  0  0  0  0  0  0  0  0  0
  -29.4130  -18.8280   20.2080 C   0  0  0  0  0  2  0  0  0  0  0  0
  -30.0910  -17.6690   21.0840 C   0  0  0  0  0  2  0  0  0  0  0  0
  -30.5520  -15.1390   20.6850 C   0  0  0  0  0  0  0  0  0  0  0  0
  -30.4770  -12.8700   19.6690 C   0  0  0  0  0  2  0  0  0  0  0  0
  -29.5920  -12.9170   18.4050 C   0  0  0  0  0  2  0  0  0  0  0  0
  -28.1120  -12.6940   18.7730 C   0  0  0  0  0  2  0  0  0  0  0  0
  -27.6510  -13.5750   19.9650 C   0  0  0  0  0  3  0  0  0  0  0  0
  -28.6580  -13.5170   21.1330 C   0  0  0  0  0  2  0  0  0  0  0  0
  -29.9690  -13.9020   20.5950 N   0  0  0  0  0  0  0  0  0  0  0  0
  -31.7500  -15.2960   20.4360 O   0  0  0  0  0  0  0  0  0  0  0  0
  -29.7240  -16.2210   20.8590 N   0  0  0  0  0  0  0  0  0  0  0  0
  -28.7460  -15.9980   20.9680 H   0  0  0  0  0  0  0  0  0  0  0  0
  -25.2010  -14.0760   20.5530 C   0  0  0  0  0  0  0  0  0  0  0  0
  -24.1520  -13.2610   20.8780 C   0  0  0  0  0  0  0  0  0  0  0  0
  -24.6750  -11.9310   20.8980 C   0  0  0  0  0  0  0  0  0  0  0  0
  -26.2960  -13.2400   20.3910 N   0  0  0  0  0  0  0  0  0  0  0  0
  -25.9810  -11.9470   20.6610 N   0  0  0  0  0  0  0  0  0  0  0  0
  -23.9960  -10.6410   21.0720 C   0  0  0  0  0  0  0  0  0  0  0  0
  -24.4150   -9.7110   22.0480 C   0  0  0  0  0  3  0  0  0  0  0  0
  -23.7350   -8.4850   22.2070 C   0  0  0  0  0  3  0  0  0  0  0  0
  -22.6230   -8.1790   21.3880 C   0  0  0  0  0  0  0  0  0  0  0  0
  -22.2240   -9.0980   20.4010 C   0  0  0  0  0  3  0  0  0  0  0  0
  -22.9040  -10.3160   20.2410 C   0  0  0  0  0  3  0  0  0  0  0  0
  -21.9160   -7.0020   21.4540 O   0  0  0  0  0  0  0  0  0  0  0  0
  -21.8260   -6.2810   22.6180 C   0  0  0  0  0  0  0  0  0  0  0  0
  -21.2890   -6.8370   23.7990 C   0  0  0  0  0  3  0  0  0  0  0  0
  -21.1520   -6.0400   24.9520 C   0  0  0  0  0  3  0  0  0  0  0  0
  -21.5410   -4.6880   24.9260 C   0  0  0  0  0  0  0  0  0  0  0  0
  -22.0710   -4.1310   23.7480 C   0  0  0  0  0  3  0  0  0  0  0  0
  -22.2100   -4.9250   22.5970 C   0  0  0  0  0  0  0  0  0  0  0  0
  -22.7030   -4.3790   21.4590 F   0  0  0  0  0  0  0  0  0  0  0  0
  -21.4010   -3.9190   26.0310 F   0  0  0  0  0  0  0  0  0  0  0  0
  -22.7230  -13.6790   21.0630 C   0  0  0  0  0  0  0  0  0  0  0  0
  -21.9810  -12.9660   21.9030 N   0  0  0  0  0  0  0  0  0  0  0  0
  -22.2690  -14.6740   20.4990 O   0  0  0  0  0  0  0  0  0  0  0  0
  -22.3600  -12.1620   22.3810 H   0  0  0  0  0  0  0  0  0  0  0  0
  -21.0200  -13.2300   22.0730 H   0  0  0  0  0  0  0  0  0  0  0  0
  -25.3120  -15.4490   20.3550 N   0  0  0  0  0  0  0  0  0  0  0  0
  -24.5060  -16.0620   20.3980 H   0  0  0  0  0  0  0  0  0  0  0  0
  -26.1490  -15.9220   20.0410 H   0  0  0  0  0  0  0  0  0  0  0  0
  -28.9590  -25.7530   18.8280 C   0  0  0  0  0  2  0  0  0  0  0  0
  -28.8210  -26.9490   19.6900 O   0  0  0  0  0  0  0  0  0  0  0  0
  -24.8530  -31.8790   23.1920 C   0  0  0  0  0  0  0  0  0  0  0  0
  -27.6480  -27.7240   19.7150 C   0  0  0  0  0  0  0  0  0  0  0  0
  -23.6960  -30.5650   21.4520 C   0  0  0  0  0  3  0  0  0  0  0  0
  -25.2010  -29.2080   19.8880 C   0  0  0  0  0  0  0  0  0  0  0  0
  -26.2130  -31.0180   21.2720 C   0  0  0  0  0  2  0  0  0  0  0  0
  -26.3530  -29.7000   20.5140 C   0  0  0  0  0  0  0  0  0  0  0  0
  -27.5730  -28.9640   20.4280 C   0  0  0  0  0  3  0  0  0  0  0  0
  -26.4600  -27.2770   19.0930 C   0  0  0  0  0  3  0  0  0  0  0  0
  -25.2560  -28.0010   19.1740 C   0  0  0  0  0  3  0  0  0  0  0  0
  -23.9240  -30.0130   20.0190 C   0  0  0  0  0  2  0  0  0  0  0  0
  -24.9400  -31.1670   22.0310 N   0  0  0  0  0  0  0  0  0  0  0  0
  -23.7640  -32.0620   23.7560 O   0  0  0  0  0  0  0  0  0  0  0  0
  -23.0920  -29.4430   22.3300 C   0  0  0  0  0  0  0  0  0  0  0  0
  -21.7770  -29.2080   22.1920 N   0  0  0  0  0  0  0  0  0  0  0  0
  -23.8070  -28.7890   23.0940 O   0  0  0  0  0  0  0  0  0  0  0  0
  -21.2550  -29.7950   21.5550 H   0  0  0  0  0  0  0  0  0  0  0  0
  -18.4680  -27.8070   22.5940 C   0  0  0  0  0  0  0  0  0  0  0  0
  -21.0110  -28.1730   22.8870 C   0  0  0  0  0  3  0  0  0  0  0  0
  -21.1830  -26.7970   22.2000 C   0  0  0  0  0  2  0  0  0  0  0  0
  -20.0950  -26.5010   21.1630 C   0  0  0  0  0  2  0  0  0  0  0  0
  -18.7110  -26.5240   21.8140 C   0  0  0  0  0  2  0  0  0  0  0  0
  -19.5470  -28.5880   23.0840 C   0  0  0  0  0  0  0  0  0  0  0  0
  -19.2670  -29.7880   23.7720 C   0  0  0  0  0  3  0  0  0  0  0  0
  -17.9390  -30.2070   23.9770 C   0  0  0  0  0  3  0  0  0  0  0  0
  -16.8740  -29.4200   23.5060 C   0  0  0  0  0  3  0  0  0  0  0  0
  -17.1390  -28.2230   22.8190 C   0  0  0  0  0  3  0  0  0  0  0  0
  -26.1100  -32.5180   23.8560 C   0  0  0  0  0  3  0  0  0  0  0  0
  -25.7290  -33.8530   24.3370 N   0  0  0  0  0  0  0  0  0  0  0  0
  -26.0020  -34.9990   23.7000 C   0  0  0  0  0  0  0  0  0  0  0  0
  -26.6700  -35.0450   22.6630 O   0  0  0  0  0  0  0  0  0  0  0  0
  -25.1300  -33.8890   25.1480 H   0  0  0  0  0  0  0  0  0  0  0  0
  -24.1840  -36.7330   23.5420 C   0  0  0  0  0  1  0  0  0  0  0  0
  -25.4450  -36.3020   24.3070 C   0  0  0  0  0  3  0  0  0  0  0  0
  -27.5350  -37.1970   25.2380 C   0  0  0  0  0  1  0  0  0  0  0  0
  -26.4220  -37.4130   24.3170 N   0  0  0  0  0  0  0  0  0  0  0  0
  -25.9690  -38.2870   24.5690 H   0  0  0  0  0  0  0  0  0  0  0  0
  -26.6980  -31.6510   25.0380 C   0  0  1  0  0  0  0  0  0  0  0  0
  -25.6440  -31.2440   26.0960 C   0  0  0  0  0  1  0  0  0  0  0  0
  -27.3410  -30.3550   24.4920 C   0  0  0  0  0  1  0  0  0  0  0  0
  -27.8220  -32.4350   25.7570 C   0  0  0  0  0  1  0  0  0  0  0  0
  1  2  2  0
  1  4  1  0
  2  5  1  0
  3  6  1  0
  4  3  2  0
  5 10  1  0
  5  6  2  0
  6  8  1  0
  8  7  1  0
  9  8  1  0
 10 11  1  0
 12 10  1  0
 12 13  1  0
 14 22  1  0
 15 20  1  0
 16 17  1  0
 16 15  1  0
 18 17  1  0
 18 27  1  0
 18 19  1  0
 20 14  1  0
 20 19  1  0
 21 14  2  0
 22 23  1  0
 22 13  1  0
 24 25  2  0
 25 26  1  0
 25 44  1  0
 26 29  1  0
 27 24  1  0
 27 28  1  0
 28 26  2  0
 29 30  1  0
 30 31  2  0
 32 35  1  0
 32 31  1  0
 33 32  2  0
 34 33  1  0
 34 29  2  0
 35 36  1  0
 36 37  1  0
 37 38  2  0
 39 38  1  0
 39 43  1  0
 40 39  2  0
 41 36  2  0
 41 40  1  0
 42 41  1  0
 44 45  1  0
 45 48  1  0
 45 47  1  0
 46 44  2  0
 49 50  1  0
 49 24  1  0
 51 49  1  0
 52  4  1  0
 52 53  1  0
 53 55  1  0
 54 65  2  0
 55 60  1  0
 56 64  1  0
 56 66  1  0
 57 63  1  0
 57 59  1  0
 58 64  1  0
 59 58  1  0
 60 59  2  0
 61 62  1  0
 61 55  2  0
 62 57  2  0
 63 56  1  0
 64 54  1  0
 66 68  2  0
 67 66  1  0
 69 67  1  0
 70 79  2  0
 70 75  1  0
 71 67  1  0
 71 75  1  0
 72 71  1  0
 73 74  1  0
 73 72  1  0
 74 70  1  0
 75 76  2  0
 76 77  1  0
 78 77  2  0
 79 78  1  0
 80 54  1  0
 80 81  1  0
 80 90  1  0
 81 84  1  0
 82 86  1  0
 82 81  1  0
 83 82  2  0
 86 85  1  0
 86 88  1  0
 88 89  1  0
 88 87  1  0
 90 93  1  1
 90 91  1  0
 92 90  1  0
M  ISO  4  14 100  22 100  52 101  53 101
M  END
>  <TORSDO>  (32) 
F 21

>  <SCORE>  (32) 
-11.346

>  <name>  (32) 
31

>  <ligand_id>  (32) 
31

>  <original_smiles>  (32) 
[H]c1c([H])c([H])c2c(c1[H])C([H])([H])C([H])([H])C([H])([H])C2([H])N([H])C(=O)C1([H])N(C(=O)C([H])(N([H])C(=O)C([H])(N([H])C([H])([H])[H])C([H])([H])[H])C(C([H])([H])[H])(C([H])([H])[H])C([H])([H])[H])C([H])([H])c2c([H])c(OC([H])([H])c3c([H])c([H])c(N([H])C([H])([H])C([H])([H])N([H])C(=O)N4C([H])([H])C([H])([H])C([H])([H])C([H])(n5nc(-c6c([H])c([H])c(Oc7c([H])c([H])c(F)c([H])c7F)c([H])c6[H])c(C(=O)N([H])[H])c5N([H])[H])C4([H])[H])c(N([H])C([H])([H])[H])c3[H])c([H])c([H])c2C1([H])[H]

>  <smiles>  (32) 
[H]c1c([H])c([H])c2c(c1[H])C([H])([H])C([H])([H])C([H])([H])C2([H])N([H])C(=O)C1([H])N(C(=O)C([H])(N([H])C(=O)C([H])(N([H])C([H])([H])[H])C([H])([H])[H])C(C([H])([H])[H])(C([H])([H])[H])C([H])([H])[H])C([H])([H])c2c([H])c(OC([H])([H])c3c([H])c([H])c(N([H])C([H])([H])C([H])([H])N([H])C(=O)N4C([H])([H])C([H])([H])C([H])([H])C([H])(n5nc(-c6c([H])c([H])c(Oc7c([H])c([H])c(F)c([H])c7F)c([H])c6[H])c(C(=O)N([H])[H])c5N([H])[H])C4([H])[H])c(N([H])C([H])([H])[H])c3[H])c([H])c([H])c2C1([H])[H]

$$$$
32:0:0
     RDKit          3D

 94102  0  0  1  0  0  0  0  0999 V2000
  -30.2300  -20.1250   20.5390 C   0  0  0  0  0  3  0  0  0  0  0  0
  -29.8830  -21.4360   20.1430 C   0  0  0  0  0  3  0  0  0  0  0  0
  -27.5870  -20.9470   20.6940 C   0  0  0  0  0  3  0  0  0  0  0  0
  -29.2740  -19.2180   21.0600 C   0  0  0  0  0  0  0  0  0  0  0  0
  -27.9230  -19.6370   21.1130 C   0  0  0  0  0  0  0  0  0  0  0  0
  -28.5480  -21.8790   20.2590 C   0  0  0  0  0  0  0  0  0  0  0  0
  -29.7320  -17.8620   21.6270 C   0  0  0  0  0  2  0  0  0  0  0  0
  -29.5940  -16.6320   20.6860 C   0  0  0  0  0  2  0  0  0  0  0  0
  -30.7080  -14.4300   20.6470 C   0  0  0  0  0  0  0  0  0  0  0  0
  -30.4310  -12.3110   19.4160 C   0  0  0  0  0  2  0  0  0  0  0  0
  -29.4930  -12.5040   18.2060 C   0  0  0  0  0  2  0  0  0  0  0  0
  -28.0180  -12.3540   18.6280 C   0  0  0  0  0  2  0  0  0  0  0  0
  -27.6660  -13.1970   19.8800 C   0  0  0  0  0  3  0  0  0  0  0  0
  -28.6990  -12.9600   21.0020 C   0  0  0  0  0  2  0  0  0  0  0  0
  -30.0360  -13.2640   20.4650 N   0  0  0  0  0  0  0  0  0  0  0  0
  -31.7950  -14.6770   20.1220 O   0  0  0  0  0  0  0  0  0  0  0  0
  -30.0380  -15.3780   21.3180 N   0  0  0  0  0  0  0  0  0  0  0  0
  -30.3050  -15.4450   22.2900 H   0  0  0  0  0  0  0  0  0  0  0  0
  -25.2590  -13.8140   20.5630 C   0  0  0  0  0  0  0  0  0  0  0  0
  -24.1850  -13.0460   20.9130 C   0  0  0  0  0  0  0  0  0  0  0  0
  -24.6360  -11.6910   20.8700 C   0  0  0  0  0  0  0  0  0  0  0  0
  -26.3040  -12.9300   20.3390 N   0  0  0  0  0  0  0  0  0  0  0  0
  -25.9280  -11.6480   20.5760 N   0  0  0  0  0  0  0  0  0  0  0  0
  -23.9010  -10.4300   21.0420 C   0  0  0  0  0  0  0  0  0  0  0  0
  -24.3570   -9.4220   21.9190 C   0  0  0  0  0  3  0  0  0  0  0  0
  -23.6280   -8.2220   22.0750 C   0  0  0  0  0  3  0  0  0  0  0  0
  -22.4250   -8.0250   21.3540 C   0  0  0  0  0  0  0  0  0  0  0  0
  -21.9890   -9.0210   20.4650 C   0  0  0  0  0  3  0  0  0  0  0  0
  -22.7190  -10.2120   20.3090 C   0  0  0  0  0  3  0  0  0  0  0  0
  -21.6620   -6.8840   21.4210 O   0  0  0  0  0  0  0  0  0  0  0  0
  -21.6850   -6.0730   22.5260 C   0  0  0  0  0  0  0  0  0  0  0  0
  -21.4020   -6.5630   23.8210 C   0  0  0  0  0  3  0  0  0  0  0  0
  -21.3660   -5.6790   24.9170 C   0  0  0  0  0  3  0  0  0  0  0  0
  -21.6070   -4.3050   24.7230 C   0  0  0  0  0  0  0  0  0  0  0  0
  -21.8810   -3.8140   23.4340 C   0  0  0  0  0  3  0  0  0  0  0  0
  -21.9200   -4.6950   22.3410 C   0  0  0  0  0  0  0  0  0  0  0  0
  -22.1660   -4.2150   21.0970 F   0  0  0  0  0  0  0  0  0  0  0  0
  -21.5630   -3.4550   25.7730 F   0  0  0  0  0  0  0  0  0  0  0  0
  -22.7860  -13.5270   21.1810 C   0  0  0  0  0  0  0  0  0  0  0  0
  -22.0500  -12.8260   22.0330 N   0  0  0  0  0  0  0  0  0  0  0  0
  -22.3580  -14.5580   20.6650 O   0  0  0  0  0  0  0  0  0  0  0  0
  -22.4130  -11.9940   22.4760 H   0  0  0  0  0  0  0  0  0  0  0  0
  -21.1170  -13.1380   22.2590 H   0  0  0  0  0  0  0  0  0  0  0  0
  -25.4330  -15.1860   20.4000 N   0  0  0  0  0  0  0  0  0  0  0  0
  -24.6650  -15.8370   20.5170 H   0  0  0  0  0  0  0  0  0  0  0  0
  -26.2850  -15.6170   20.0670 H   0  0  0  0  0  0  0  0  0  0  0  0
  -26.7890  -18.7300   21.5960 C   0  0  0  0  0  2  0  0  0  0  0  0
  -26.4720  -20.4870   23.5500 C   0  0  0  0  0  1  0  0  0  0  0  0
  -24.5770  -18.9760   22.7670 C   0  0  0  0  0  1  0  0  0  0  0  0
  -26.0950  -19.1230   22.9240 C   0  0  0  0  0  3  0  0  0  0  0  0
  -28.0870  -23.1510   19.9650 O   0  0  0  0  0  0  0  0  0  0  0  0
  -28.9780  -24.2840   19.9610 C   0  0  0  0  0  2  0  0  0  0  0  0
  -28.3540  -25.4530   20.7690 C   0  0  0  0  0  2  0  0  0  0  0  0
  -28.4090  -26.7200   20.0880 O   0  0  0  0  0  0  0  0  0  0  0  0
  -24.6120  -31.8680   23.2140 C   0  0  0  0  0  0  0  0  0  0  0  0
  -27.2420  -27.4510   20.1040 C   0  0  0  0  0  0  0  0  0  0  0  0
  -23.4020  -30.4900   21.5530 C   0  0  0  0  0  3  0  0  0  0  0  0
  -24.8510  -28.9560   20.1210 C   0  0  0  0  0  0  0  0  0  0  0  0
  -25.9280  -30.8420   21.3600 C   0  0  0  0  0  2  0  0  0  0  0  0
  -26.0100  -29.4750   20.7130 C   0  0  0  0  0  0  0  0  0  0  0  0
  -27.2100  -28.7310   20.7030 C   0  0  0  0  0  3  0  0  0  0  0  0
  -26.0710  -26.9430   19.5050 C   0  0  0  0  0  3  0  0  0  0  0  0
  -24.8760  -27.6890   19.5130 C   0  0  0  0  0  3  0  0  0  0  0  0
  -23.6110  -29.8210   20.1690 C   0  0  0  0  0  2  0  0  0  0  0  0
  -24.6660  -31.0780   22.1040 N   0  0  0  0  0  0  0  0  0  0  0  0
  -23.5320  -32.1450   23.7550 O   0  0  0  0  0  0  0  0  0  0  0  0
  -22.7390  -29.4670   22.5010 C   0  0  0  0  0  0  0  0  0  0  0  0
  -21.4110  -29.3040   22.3780 N   0  0  0  0  0  0  0  0  0  0  0  0
  -23.4170  -28.8230   23.3080 O   0  0  0  0  0  0  0  0  0  0  0  0
  -20.9290  -29.8730   21.6990 H   0  0  0  0  0  0  0  0  0  0  0  0
  -18.0270  -28.1360   22.8470 C   0  0  0  0  0  0  0  0  0  0  0  0
  -20.5830  -28.3660   23.1330 C   0  0  0  0  0  3  0  0  0  0  0  0
  -20.6750  -26.9400   22.5400 C   0  0  0  0  0  2  0  0  0  0  0  0
  -19.5730  -26.6330   21.5220 C   0  0  0  0  0  2  0  0  0  0  0  0
  -18.1920  -26.7900   22.1620 C   0  0  0  0  0  2  0  0  0  0  0  0
  -19.1500  -28.8840   23.2890 C   0  0  0  0  0  0  0  0  0  0  0  0
  -18.9430  -30.1430   23.8940 C   0  0  0  0  0  3  0  0  0  0  0  0
  -17.6420  -30.6550   24.0570 C   0  0  0  0  0  3  0  0  0  0  0  0
  -16.5330  -29.9070   23.6320 C   0  0  0  0  0  3  0  0  0  0  0  0
  -16.7250  -28.6500   23.0360 C   0  0  0  0  0  3  0  0  0  0  0  0
  -25.9020  -32.4820   23.8420 C   0  0  0  0  0  3  0  0  0  0  0  0
  -25.5880  -33.8610   24.2340 N   0  0  0  0  0  0  0  0  0  0  0  0
  -25.9020  -34.9480   23.5130 C   0  0  0  0  0  0  0  0  0  0  0  0
  -26.5600  -34.8940   22.4690 O   0  0  0  0  0  0  0  0  0  0  0  0
  -25.0070  -33.9790   25.0510 H   0  0  0  0  0  0  0  0  0  0  0  0
  -24.1480  -36.7320   23.2640 C   0  0  0  0  0  1  0  0  0  0  0  0
  -25.4110  -36.3120   24.0340 C   0  0  0  0  0  3  0  0  0  0  0  0
  -27.5580  -37.1820   24.8470 C   0  0  0  0  0  1  0  0  0  0  0  0
  -26.4300  -37.3810   23.9410 N   0  0  0  0  0  0  0  0  0  0  0  0
  -26.0190  -38.2880   24.1400 H   0  0  0  0  0  0  0  0  0  0  0  0
  -26.4470  -31.6570   25.0720 C   0  0  1  0  0  0  0  0  0  0  0  0
  -25.3740  -31.3670   26.1470 C   0  0  0  0  0  1  0  0  0  0  0  0
  -27.0290  -30.3030   24.6030 C   0  0  0  0  0  1  0  0  0  0  0  0
  -27.6050  -32.4300   25.7460 C   0  0  0  0  0  1  0  0  0  0  0  0
  1  4  1  0
  2  6  1  0
  2  1  2  0
  3  5  1  0
  4  5  2  0
  4  7  1  0
  5 47  1  0
  6  3  2  0
  8 17  1  0
  8  7  1  0
  9 17  1  0
 10 15  1  0
 11 12  1  0
 11 10  1  0
 13 12  1  0
 13 22  1  0
 13 14  1  0
 15  9  1  0
 15 14  1  0
 16  9  2  0
 17 18  1  0
 19 20  2  0
 20 39  1  0
 21 20  1  0
 21 24  1  0
 22 19  1  0
 22 23  1  0
 23 21  2  0
 24 25  1  0
 25 26  2  0
 27 30  1  0
 27 26  1  0
 28 27  2  0
 29 28  1  0
 29 24  2  0
 30 31  1  0
 31 32  1  0
 32 33  2  0
 34 33  1  0
 34 38  1  0
 35 34  2  0
 36 31  2  0
 36 35  1  0
 37 36  1  0
 39 40  1  0
 40 43  1  0
 40 42  1  0
 41 39  2  0
 44 45  1  0
 44 19  1  0
 46 44  1  0
 47 50  1  0
 49 50  1  0
 50 48  1  0
 51  6  1  0
 52 51  1  0
 52 53  1  0
 54 56  1  0
 54 53  1  0
 55 66  2  0
 56 61  1  0
 57 65  1  0
 57 67  1  0
 58 64  1  0
 58 60  1  0
 59 65  1  0
 60 59  1  0
 61 60  2  0
 62 63  1  0
 62 56  2  0
 63 58  2  0
 64 57  1  0
 65 55  1  0
 67 69  2  0
 68 67  1  0
 70 68  1  0
 71 80  2  0
 71 76  1  0
 72 68  1  0
 72 76  1  0
 73 72  1  0
 74 75  1  0
 74 73  1  0
 75 71  1  0
 76 77  2  0
 77 78  1  0
 79 78  2  0
 80 79  1  0
 81 55  1  0
 81 82  1  0
 81 91  1  0
 82 85  1  0
 83 87  1  0
 83 82  1  0
 84 83  2  0
 87 86  1  0
 89 87  1  0
 89 90  1  0
 89 88  1  0
 91 94  1  1
 91 92  1  0
 93 91  1  0
M  ISO  4   9 100  17 100  53 101  54 101
M  END
>  <TORSDO>  (33) 
F 23

>  <SCORE>  (33) 
22.947

>  <name>  (33) 
32

>  <ligand_id>  (33) 
32

>  <original_smiles>  (33) 
[H]c1c([H])c([H])c2c(c1[H])C([H])([H])C([H])([H])C([H])([H])C2([H])N([H])C(=O)C1([H])N(C(=O)C([H])(N([H])C(=O)C([H])(N([H])C([H])([H])[H])C([H])([H])[H])C(C([H])([H])[H])(C([H])([H])[H])C([H])([H])[H])C([H])([H])c2c([H])c(OC([H])([H])C([H])([H])Oc3c([H])c([H])c(C([H])([H])C([H])([H])N([H])C(=O)N4C([H])([H])C([H])([H])C([H])([H])C([H])(n5nc(-c6c([H])c([H])c(Oc7c([H])c([H])c(F)c([H])c7F)c([H])c6[H])c(C(=O)N([H])[H])c5N([H])[H])C4([H])[H])c(C([H])([H])C([H])(C([H])([H])[H])C([H])([H])[H])c3[H])c([H])c([H])c2C1([H])[H]

>  <smiles>  (33) 
[H]c1c([H])c([H])c2c(c1[H])C([H])([H])C([H])([H])C([H])([H])C2([H])N([H])C(=O)C1([H])N(C(=O)C([H])(N([H])C(=O)C([H])(N([H])C([H])([H])[H])C([H])([H])[H])C(C([H])([H])[H])(C([H])([H])[H])C([H])([H])[H])C([H])([H])c2c([H])c(OC([H])([H])C([H])([H])Oc3c([H])c([H])c(C([H])([H])C([H])([H])N([H])C(=O)N4C([H])([H])C([H])([H])C([H])([H])C([H])(n5nc(-c6c([H])c([H])c(Oc7c([H])c([H])c(F)c([H])c7F)c([H])c6[H])c(C(=O)N([H])[H])c5N([H])[H])C4([H])[H])c(C([H])([H])C([H])(C([H])([H])[H])C([H])([H])[H])c3[H])c([H])c([H])c2C1([H])[H]

$$$$
33:0:0
     RDKit          3D

 93101  0  0  1  0  0  0  0  0999 V2000
  -29.3510  -19.9510   19.2010 C   0  0  0  0  0  3  0  0  0  0  0  0
  -29.2000  -21.3510   19.3200 C   0  0  0  0  0  3  0  0  0  0  0  0
  -30.0710  -19.8250   21.5160 C   0  0  0  0  0  3  0  0  0  0  0  0
  -29.7600  -19.1710   20.3070 C   0  0  0  0  0  0  0  0  0  0  0  0
  -29.9240  -21.2260   21.6470 C   0  0  0  0  0  0  0  0  0  0  0  0
  -29.4680  -22.0040   20.5480 C   0  0  0  0  0  0  0  0  0  0  0  0
  -31.7800  -21.7270   23.2860 C   0  0  0  0  0  1  0  0  0  0  0  0
  -29.4280  -21.3620   24.1550 C   0  0  0  0  0  1  0  0  0  0  0  0
  -30.2850  -21.8790   22.9850 C   0  0  0  0  0  3  0  0  0  0  0  0
  -29.7300  -17.6410   20.2530 C   0  0  0  0  0  2  0  0  0  0  0  0
  -30.9170  -16.8950   20.9140 C   0  0  0  0  0  2  0  0  0  0  0  0
  -31.1960  -14.5060   20.2070 C   0  0  0  0  0  0  0  0  0  0  0  0
  -30.7620  -12.4120   18.9790 C   0  0  0  0  0  2  0  0  0  0  0  0
  -29.7850  -12.6610   17.8110 C   0  0  0  0  0  2  0  0  0  0  0  0
  -28.3260  -12.5550   18.2970 C   0  0  0  0  0  2  0  0  0  0  0  0
  -28.0560  -13.3890   19.5780 C   0  0  0  0  0  3  0  0  0  0  0  0
  -29.1360  -13.1110   20.6510 C   0  0  0  0  0  2  0  0  0  0  0  0
  -30.4600  -13.3740   20.0520 N   0  0  0  0  0  0  0  0  0  0  0  0
  -32.2600  -14.7090   19.6200 O   0  0  0  0  0  0  0  0  0  0  0  0
  -30.6240  -15.4570   20.9590 N   0  0  0  0  0  0  0  0  0  0  0  0
  -29.7840  -15.1800   21.4480 H   0  0  0  0  0  0  0  0  0  0  0  0
  -25.7070  -14.0570   20.3950 C   0  0  0  0  0  0  0  0  0  0  0  0
  -24.6220  -13.3120   20.7630 C   0  0  0  0  0  0  0  0  0  0  0  0
  -25.0230  -11.9450   20.6540 C   0  0  0  0  0  0  0  0  0  0  0  0
  -26.7090  -13.1480   20.0910 N   0  0  0  0  0  0  0  0  0  0  0  0
  -26.3010  -11.8690   20.3040 N   0  0  0  0  0  0  0  0  0  0  0  0
  -24.2490  -10.7070   20.8130 C   0  0  0  0  0  0  0  0  0  0  0  0
  -24.6770   -9.6790   21.6790 C   0  0  0  0  0  3  0  0  0  0  0  0
  -23.9120   -8.5030   21.8310 C   0  0  0  0  0  3  0  0  0  0  0  0
  -22.7040   -8.3470   21.1110 C   0  0  0  0  0  0  0  0  0  0  0  0
  -22.2910   -9.3640   20.2340 C   0  0  0  0  0  3  0  0  0  0  0  0
  -23.0560  -10.5330   20.0830 C   0  0  0  0  0  3  0  0  0  0  0  0
  -21.9110   -7.2270   21.1710 O   0  0  0  0  0  0  0  0  0  0  0  0
  -21.8710   -6.4330   22.2860 C   0  0  0  0  0  0  0  0  0  0  0  0
  -21.5280   -6.9480   23.5560 C   0  0  0  0  0  3  0  0  0  0  0  0
  -21.4340   -6.0850   24.6650 C   0  0  0  0  0  3  0  0  0  0  0  0
  -21.6680   -4.7060   24.5050 C   0  0  0  0  0  0  0  0  0  0  0  0
  -21.9990   -4.1900   23.2390 C   0  0  0  0  0  3  0  0  0  0  0  0
  -22.0980   -5.0510   22.1340 C   0  0  0  0  0  0  0  0  0  0  0  0
  -22.4000   -4.5450   20.9120 F   0  0  0  0  0  0  0  0  0  0  0  0
  -21.5680   -3.8740   25.5660 F   0  0  0  0  0  0  0  0  0  0  0  0
  -23.2560  -13.8310   21.1070 C   0  0  0  0  0  0  0  0  0  0  0  0
  -22.5330  -13.1340   21.9770 N   0  0  0  0  0  0  0  0  0  0  0  0
  -22.8390  -14.8880   20.6400 O   0  0  0  0  0  0  0  0  0  0  0  0
  -22.8820  -12.2740   22.3750 H   0  0  0  0  0  0  0  0  0  0  0  0
  -21.6180  -13.4680   22.2490 H   0  0  0  0  0  0  0  0  0  0  0  0
  -25.9250  -15.4290   20.2790 N   0  0  0  0  0  0  0  0  0  0  0  0
  -25.1950  -16.1080   20.4600 H   0  0  0  0  0  0  0  0  0  0  0  0
  -26.7880  -15.8470   19.9580 H   0  0  0  0  0  0  0  0  0  0  0  0
  -29.2970  -23.3610   20.7580 O   0  0  0  0  0  0  0  0  0  0  0  0
  -29.2390  -24.3160   19.6880 C   0  0  0  0  0  2  0  0  0  0  0  0
  -29.4360  -25.6930   20.3870 C   0  0  0  0  0  2  0  0  0  0  0  0
  -29.3240  -26.8890   19.5920 O   0  0  0  0  0  0  0  0  0  0  0  0
  -25.0780  -31.4190   23.1620 C   0  0  0  0  0  0  0  0  0  0  0  0
  -28.1050  -27.5250   19.6870 C   0  0  0  0  0  0  0  0  0  0  0  0
  -23.9990  -30.0400   21.4170 C   0  0  0  0  0  3  0  0  0  0  0  0
  -25.5770  -28.7770   19.8690 C   0  0  0  0  0  0  0  0  0  0  0  0
  -26.4760  -30.6640   21.2390 C   0  0  0  0  0  2  0  0  0  0  0  0
  -26.6900  -29.3680   20.4790 C   0  0  0  0  0  0  0  0  0  0  0  0
  -27.9650  -28.7530   20.3800 C   0  0  0  0  0  3  0  0  0  0  0  0
  -26.9730  -26.9450   19.0840 C   0  0  0  0  0  3  0  0  0  0  0  0
  -25.7100  -27.5630   19.1740 C   0  0  0  0  0  3  0  0  0  0  0  0
  -24.2530  -29.4980   19.9900 C   0  0  0  0  0  2  0  0  0  0  0  0
  -25.2010  -30.7200   22.0000 N   0  0  0  0  0  0  0  0  0  0  0  0
  -23.9840  -31.5410   23.7280 O   0  0  0  0  0  0  0  0  0  0  0  0
  -23.4620  -28.8870   22.2940 C   0  0  0  0  0  0  0  0  0  0  0  0
  -22.1870  -28.5150   22.0900 N   0  0  0  0  0  0  0  0  0  0  0  0
  -24.1940  -28.3280   23.1130 O   0  0  0  0  0  0  0  0  0  0  0  0
  -21.6510  -29.0220   21.4000 H   0  0  0  0  0  0  0  0  0  0  0  0
  -19.0590  -26.7160   22.2590 C   0  0  0  0  0  0  0  0  0  0  0  0
  -21.4890  -27.4300   22.7760 C   0  0  0  0  0  3  0  0  0  0  0  0
  -21.9060  -26.0550   22.2070 C   0  0  0  0  0  2  0  0  0  0  0  0
  -20.9840  -25.5600   21.0890 C   0  0  0  0  0  2  0  0  0  0  0  0
  -19.5430  -25.4360   21.5980 C   0  0  0  0  0  2  0  0  0  0  0  0
  -19.9730  -27.6580   22.7980 C   0  0  0  0  0  0  0  0  0  0  0  0
  -19.4780  -28.8490   23.3730 C   0  0  0  0  0  3  0  0  0  0  0  0
  -18.0950  -29.1040   23.4150 C   0  0  0  0  0  3  0  0  0  0  0  0
  -17.1910  -28.1610   22.8950 C   0  0  0  0  0  3  0  0  0  0  0  0
  -17.6720  -26.9690   22.3240 C   0  0  0  0  0  3  0  0  0  0  0  0
  -26.3000  -32.1270   23.8220 C   0  0  0  0  0  3  0  0  0  0  0  0
  -25.8440  -33.4500   24.2740 N   0  0  0  0  0  0  0  0  0  0  0  0
  -26.0670  -34.5970   23.6150 C   0  0  0  0  0  0  0  0  0  0  0  0
  -26.7460  -34.6590   22.5870 O   0  0  0  0  0  0  0  0  0  0  0  0
  -25.2240  -33.4640   25.0710 H   0  0  0  0  0  0  0  0  0  0  0  0
  -24.1590  -36.2270   23.4210 C   0  0  0  0  0  1  0  0  0  0  0  0
  -25.4400  -35.8790   24.1930 C   0  0  0  0  0  3  0  0  0  0  0  0
  -27.4780  -36.9040   25.1070 C   0  0  0  0  0  1  0  0  0  0  0  0
  -26.3560  -37.0390   24.1830 N   0  0  0  0  0  0  0  0  0  0  0  0
  -25.8540  -37.8890   24.4230 H   0  0  0  0  0  0  0  0  0  0  0  0
  -26.9230  -31.3080   25.0160 C   0  0  1  0  0  0  0  0  0  0  0  0
  -25.8830  -30.8600   26.0720 C   0  0  0  0  0  1  0  0  0  0  0  0
  -27.6400  -30.0400   24.4970 C   0  0  0  0  0  1  0  0  0  0  0  0
  -27.9980  -32.1610   25.7310 C   0  0  0  0  0  1  0  0  0  0  0  0
  1  2  2  0
  1  4  1  0
  2  6  1  0
  3  5  1  0
  4  3  2  0
  5  9  1  0
  6 50  1  0
  6  5  2  0
  9  7  1  0
  9  8  1  0
 10  4  1  0
 10 11  1  0
 11 20  1  0
 12 20  1  0
 13 18  1  0
 14 15  1  0
 14 13  1  0
 16 15  1  0
 16 25  1  0
 16 17  1  0
 18 12  1  0
 18 17  1  0
 19 12  2  0
 20 21  1  0
 22 23  2  0
 23 42  1  0
 24 23  1  0
 24 27  1  0
 25 26  1  0
 25 22  1  0
 26 24  2  0
 27 28  1  0
 28 29  2  0
 30 33  1  0
 30 29  1  0
 31 30  2  0
 32 31  1  0
 32 27  2  0
 33 34  1  0
 34 35  1  0
 35 36  2  0
 37 36  1  0
 37 41  1  0
 38 37  2  0
 39 34  2  0
 39 38  1  0
 40 39  1  0
 42 43  1  0
 43 46  1  0
 43 45  1  0
 44 42  2  0
 47 22  1  0
 47 48  1  0
 49 47  1  0
 51 52  1  0
 51 50  1  0
 53 55  1  0
 53 52  1  0
 54 65  2  0
 55 60  1  0
 56 64  1  0
 56 66  1  0
 57 63  1  0
 57 59  1  0
 58 64  1  0
 59 58  1  0
 60 59  2  0
 61 62  1  0
 61 55  2  0
 62 57  2  0
 63 56  1  0
 64 54  1  0
 66 68  2  0
 67 66  1  0
 69 67  1  0
 70 79  2  0
 70 75  1  0
 71 67  1  0
 71 75  1  0
 72 71  1  0
 73 74  1  0
 73 72  1  0
 74 70  1  0
 75 76  2  0
 76 77  1  0
 78 77  2  0
 79 78  1  0
 80 54  1  0
 80 81  1  0
 80 90  1  0
 81 84  1  0
 82 86  1  0
 82 81  1  0
 83 82  2  0
 86 85  1  0
 88 86  1  0
 88 89  1  0
 88 87  1  0
 90 93  1  1
 90 91  1  0
 92 90  1  0
M  ISO  4  12 100  20 100  52 101  53 101
M  END
>  <TORSDO>  (34) 
F 22

>  <SCORE>  (34) 
-10.178

>  <name>  (34) 
33

>  <ligand_id>  (34) 
33

>  <original_smiles>  (34) 
[H]c1c([H])c([H])c2c(c1[H])C([H])([H])C([H])([H])C([H])([H])C2([H])N([H])C(=O)C1([H])N(C(=O)C([H])(N([H])C(=O)C([H])(N([H])C([H])([H])[H])C([H])([H])[H])C(C([H])([H])[H])(C([H])([H])[H])C([H])([H])[H])C([H])([H])c2c([H])c(OC([H])([H])C([H])([H])Oc3c([H])c([H])c(C([H])([H])C([H])([H])N([H])C(=O)N4C([H])([H])C([H])([H])C([H])([H])C([H])(n5nc(-c6c([H])c([H])c(Oc7c([H])c([H])c(F)c([H])c7F)c([H])c6[H])c(C(=O)N([H])[H])c5N([H])[H])C4([H])[H])c([H])c3C([H])(C([H])([H])[H])C([H])([H])[H])c([H])c([H])c2C1([H])[H]

>  <smiles>  (34) 
[H]c1c([H])c([H])c2c(c1[H])C([H])([H])C([H])([H])C([H])([H])C2([H])N([H])C(=O)C1([H])N(C(=O)C([H])(N([H])C(=O)C([H])(N([H])C([H])([H])[H])C([H])([H])[H])C(C([H])([H])[H])(C([H])([H])[H])C([H])([H])[H])C([H])([H])c2c([H])c(OC([H])([H])C([H])([H])Oc3c([H])c([H])c(C([H])([H])C([H])([H])N([H])C(=O)N4C([H])([H])C([H])([H])C([H])([H])C([H])(n5nc(-c6c([H])c([H])c(Oc7c([H])c([H])c(F)c([H])c7F)c([H])c6[H])c(C(=O)N([H])[H])c5N([H])[H])C4([H])[H])c([H])c3C([H])(C([H])([H])[H])C([H])([H])[H])c([H])c([H])c2C1([H])[H]

$$$$
34:0:0
     RDKit          3D

 97105  0  0  1  0  0  0  0  0999 V2000
  -28.1860  -18.7430   21.1320 C   0  0  0  0  0  3  0  0  0  0  0  0
  -28.6680  -17.4290   21.3040 C   0  0  0  0  0  3  0  0  0  0  0  0
  -29.6480  -19.0070   19.2290 C   0  0  0  0  0  3  0  0  0  0  0  0
  -28.6610  -19.5430   20.0780 C   0  0  0  0  0  0  0  0  0  0  0  0
  -30.1510  -17.6900   19.3890 C   0  0  0  0  0  0  0  0  0  0  0  0
  -29.6420  -16.8630   20.4490 C   0  0  0  0  0  0  0  0  0  0  0  0
  -30.6780  -14.5180   20.2110 C   0  0  0  0  0  0  0  0  0  0  0  0
  -30.4130  -12.3470   19.0830 C   0  0  0  0  0  2  0  0  0  0  0  0
  -29.4530  -12.5540   17.8930 C   0  0  0  0  0  2  0  0  0  0  0  0
  -27.9820  -12.4190   18.3380 C   0  0  0  0  0  2  0  0  0  0  0  0
  -27.6580  -13.2410   19.6150 C   0  0  0  0  0  3  0  0  0  0  0  0
  -28.7280  -12.9980   20.7020 C   0  0  0  0  0  2  0  0  0  0  0  0
  -30.0430  -13.3190   20.1220 N   0  0  0  0  0  0  0  0  0  0  0  0
  -31.8150  -14.6830   19.7750 O   0  0  0  0  0  0  0  0  0  0  0  0
  -29.9340  -15.4900   20.7780 N   0  0  0  0  0  0  0  0  0  0  0  0
  -29.2130  -15.0780   21.3470 H   0  0  0  0  0  0  0  0  0  0  0  0
  -25.2630  -13.8320   20.3490 C   0  0  0  0  0  0  0  0  0  0  0  0
  -24.2090  -13.0520   20.7390 C   0  0  0  0  0  0  0  0  0  0  0  0
  -24.6820  -11.7040   20.7120 C   0  0  0  0  0  0  0  0  0  0  0  0
  -26.3130  -12.9590   20.1100 N   0  0  0  0  0  0  0  0  0  0  0  0
  -25.9670  -11.6750   20.3850 N   0  0  0  0  0  0  0  0  0  0  0  0
  -23.9720  -10.4370   20.9240 C   0  0  0  0  0  0  0  0  0  0  0  0
  -24.4110   -9.4980   21.8830 C   0  0  0  0  0  3  0  0  0  0  0  0
  -23.7020   -8.2940   22.0820 C   0  0  0  0  0  3  0  0  0  0  0  0
  -22.5410   -8.0200   21.3210 C   0  0  0  0  0  0  0  0  0  0  0  0
  -22.1210   -8.9470   20.3520 C   0  0  0  0  0  3  0  0  0  0  0  0
  -22.8290  -10.1440   20.1520 C   0  0  0  0  0  3  0  0  0  0  0  0
  -21.8050   -6.8650   21.4260 O   0  0  0  0  0  0  0  0  0  0  0  0
  -21.7290   -6.1630   22.6030 C   0  0  0  0  0  0  0  0  0  0  0  0
  -21.2660   -6.7590   23.7970 C   0  0  0  0  0  3  0  0  0  0  0  0
  -21.1400   -5.9840   24.9670 C   0  0  0  0  0  3  0  0  0  0  0  0
  -21.4660   -4.6140   24.9440 C   0  0  0  0  0  0  0  0  0  0  0  0
  -21.9210   -4.0180   23.7540 C   0  0  0  0  0  3  0  0  0  0  0  0
  -22.0490   -4.7910   22.5870 C   0  0  0  0  0  0  0  0  0  0  0  0
  -22.4680   -4.2070   21.4390 F   0  0  0  0  0  0  0  0  0  0  0  0
  -21.3370   -3.8660   26.0660 F   0  0  0  0  0  0  0  0  0  0  0  0
  -22.8100  -13.5150   21.0280 C   0  0  0  0  0  0  0  0  0  0  0  0
  -22.1080  -12.8290   21.9230 N   0  0  0  0  0  0  0  0  0  0  0  0
  -22.3480  -14.5220   20.4930 O   0  0  0  0  0  0  0  0  0  0  0  0
  -22.4910  -12.0140   22.3790 H   0  0  0  0  0  0  0  0  0  0  0  0
  -21.1700  -13.1240   22.1550 H   0  0  0  0  0  0  0  0  0  0  0  0
  -25.4130  -15.2040   20.1590 N   0  0  0  0  0  0  0  0  0  0  0  0
  -24.6480  -15.8550   20.2980 H   0  0  0  0  0  0  0  0  0  0  0  0
  -26.2590  -15.6540   19.8330 H   0  0  0  0  0  0  0  0  0  0  0  0
  -28.0600  -20.9260   19.8160 C   0  0  0  0  0  2  0  0  0  0  0  0
  -29.0510  -22.1120   19.8880 C   0  0  0  0  0  2  0  0  0  0  0  0
  -28.3930  -23.4160   19.6030 N   0  0  0  0  0  4  0  0  0  0  0  0
  -27.7570  -23.6350   20.3550 H   0  0  0  0  0  0  0  0  0  0  0  0
  -27.8430  -23.3060   18.7650 H   0  0  0  0  0  0  0  0  0  0  0  0
  -29.3320  -24.5540   19.3970 C   0  0  0  0  0  2  0  0  0  0  0  0
  -28.6620  -25.8310   18.8290 C   0  0  0  0  0  2  0  0  0  0  0  0
  -28.3650  -26.7730   19.8700 O   0  0  0  0  0  0  0  0  0  0  0  0
  -24.5950  -31.8530   23.1140 C   0  0  0  0  0  0  0  0  0  0  0  0
  -27.1730  -27.4720   19.8710 C   0  0  0  0  0  0  0  0  0  0  0  0
  -23.3530  -30.4850   21.4710 C   0  0  0  0  0  3  0  0  0  0  0  0
  -24.7720  -28.9750   19.9840 C   0  0  0  0  0  0  0  0  0  0  0  0
  -25.8750  -30.8420   21.2290 C   0  0  0  0  0  2  0  0  0  0  0  0
  -25.9440  -29.4850   20.5570 C   0  0  0  0  0  0  0  0  0  0  0  0
  -27.1410  -28.7370   20.5050 C   0  0  0  0  0  3  0  0  0  0  0  0
  -25.9740  -26.9650   19.3160 C   0  0  0  0  0  3  0  0  0  0  0  0
  -24.7820  -27.7110   19.3690 C   0  0  0  0  0  3  0  0  0  0  0  0
  -23.5330  -29.8340   20.0740 C   0  0  0  0  0  2  0  0  0  0  0  0
  -24.6280  -31.0740   21.9960 N   0  0  0  0  0  0  0  0  0  0  0  0
  -23.5260  -32.1160   23.6820 O   0  0  0  0  0  0  0  0  0  0  0  0
  -22.7210  -29.4440   22.4240 C   0  0  0  0  0  0  0  0  0  0  0  0
  -21.3950  -29.2630   22.3170 N   0  0  0  0  0  0  0  0  0  0  0  0
  -23.4210  -28.8060   23.2150 O   0  0  0  0  0  0  0  0  0  0  0  0
  -20.8920  -29.8320   21.6510 H   0  0  0  0  0  0  0  0  0  0  0  0
  -18.0360  -28.0350   22.8330 C   0  0  0  0  0  0  0  0  0  0  0  0
  -20.5940  -28.3110   23.0850 C   0  0  0  0  0  3  0  0  0  0  0  0
  -20.7020  -26.8860   22.4940 C   0  0  0  0  0  2  0  0  0  0  0  0
  -19.5940  -26.5640   21.4860 C   0  0  0  0  0  2  0  0  0  0  0  0
  -18.2170  -26.6940   22.1430 C   0  0  0  0  0  2  0  0  0  0  0  0
  -19.1520  -28.8020   23.2620 C   0  0  0  0  0  0  0  0  0  0  0  0
  -18.9290  -30.0570   23.8670 C   0  0  0  0  0  3  0  0  0  0  0  0
  -17.6220  -30.5470   24.0470 C   0  0  0  0  0  3  0  0  0  0  0  0
  -16.5200  -29.7790   23.6350 C   0  0  0  0  0  3  0  0  0  0  0  0
  -16.7280  -28.5240   23.0350 C   0  0  0  0  0  3  0  0  0  0  0  0
  -25.8950  -32.4720   23.7180 C   0  0  0  0  0  3  0  0  0  0  0  0
  -26.4470  -31.6690   24.9580 C   0  0  1  0  0  0  0  0  0  0  0  0
  -25.3860  -31.4000   26.0510 C   0  0  0  0  0  1  0  0  0  0  0  0
  -27.0220  -30.3040   24.5130 C   0  0  0  0  0  1  0  0  0  0  0  0
  -27.6140  -32.4470   25.6110 C   0  0  0  0  0  1  0  0  0  0  0  0
  -25.5910  -33.8600   24.0940 N   0  0  0  0  0  0  0  0  0  0  0  0
  -25.9000  -34.9320   23.3530 C   0  0  0  0  0  0  0  0  0  0  0  0
  -26.5420  -34.8580   22.3030 O   0  0  0  0  0  0  0  0  0  0  0  0
  -25.0170  -33.9910   24.9130 H   0  0  0  0  0  0  0  0  0  0  0  0
  -24.1530  -36.7230   23.0960 C   0  0  0  0  0  1  0  0  0  0  0  0
  -25.4200  -36.3060   23.8600 C   0  0  0  0  0  3  0  0  0  0  0  0
  -27.5770  -37.1800   24.6430 C   0  0  0  0  0  1  0  0  0  0  0  0
  -26.4450  -37.3670   23.7400 N   0  0  0  0  0  0  0  0  0  0  0  0
  -26.0400  -38.2820   23.9250 H   0  0  0  0  0  0  0  0  0  0  0  0
  -31.2040  -17.2990   18.3620 C   0  0  0  0  0  2  0  0  0  0  0  0
  -32.4890  -18.1630   18.3950 C   0  0  0  0  0  2  0  0  0  0  0  0
  -33.1690  -18.4160   19.7600 C   0  0  0  0  0  2  0  0  0  0  0  0
  -33.4550  -19.9410   21.7920 C   0  0  0  0  0  1  0  0  0  0  0  0
  -32.5860  -19.5810   20.5810 C   0  0  0  0  0  2  0  0  0  0  0  0
  1  2  1  0
  3  5  2  0
  3  4  1  0
  4  1  2  0
  5  6  1  0
  6 15  1  0
  6  2  2  0
  7 15  1  0
  8 13  1  0
  9 10  1  0
  9  8  1  0
 11 10  1  0
 11 20  1  0
 11 12  1  0
 13  7  1  0
 13 12  1  0
 14  7  2  0
 15 16  1  0
 17 18  2  0
 18 37  1  0
 19 18  1  0
 19 22  1  0
 20 17  1  0
 20 21  1  0
 21 19  2  0
 22 23  1  0
 23 24  2  0
 25 28  1  0
 25 24  1  0
 26 25  2  0
 27 26  1  0
 27 22  2  0
 28 29  1  0
 29 30  1  0
 30 31  2  0
 32 31  1  0
 32 36  1  0
 33 32  2  0
 34 29  2  0
 34 33  1  0
 35 34  1  0
 37 38  1  0
 38 41  1  0
 38 40  1  0
 39 37  2  0
 42 43  1  0
 42 17  1  0
 44 42  1  0
 45 46  1  0
 45  4  1  0
 47 46  1  0
 47 48  1  0
 49 47  1  0
 50 47  1  0
 51 50  1  0
 51 52  1  0
 52 54  1  0
 53 64  2  0
 54 59  1  0
 55 63  1  0
 55 65  1  0
 56 62  1  0
 56 58  1  0
 57 63  1  0
 58 57  1  0
 59 58  2  0
 60 61  1  0
 60 54  2  0
 61 56  2  0
 62 55  1  0
 63 53  1  0
 65 67  2  0
 66 65  1  0
 68 66  1  0
 69 78  2  0
 69 74  1  0
 70 66  1  0
 70 74  1  0
 71 70  1  0
 72 73  1  0
 72 71  1  0
 73 69  1  0
 74 75  2  0
 75 76  1  0
 77 76  2  0
 78 77  1  0
 79 53  1  0
 79 84  1  0
 79 80  1  0
 80 83  1  1
 80 81  1  0
 82 80  1  0
 84 87  1  0
 85 89  1  0
 85 84  1  0
 86 85  2  0
 89 88  1  0
 91 89  1  0
 91 92  1  0
 91 90  1  0
 93 94  1  0
 93  5  1  0
 94 95  1  0
 95 97  1  0
 97 96  1  0
M  ISO  4   7 100  15 100  51 101  52 101
M  END
>  <TORSDO>  (35) 
F 25

>  <SCORE>  (35) 
-11.183

>  <name>  (35) 
34

>  <ligand_id>  (35) 
34

>  <original_smiles>  (35) 
[H]c1c([H])c([H])c2c(c1[H])C([H])([H])C([H])([H])C([H])([H])C2([H])N([H])C(=O)C1([H])N(C(=O)C([H])(N([H])C(=O)C([H])(N([H])C([H])([H])[H])C([H])([H])[H])C(C([H])([H])[H])(C([H])([H])[H])C([H])([H])[H])C([H])([H])c2c([H])c(OC([H])([H])C([H])([H])[N+]([H])([H])C([H])([H])C([H])([H])c3c([H])c([H])c(N([H])C(=O)N4C([H])([H])C([H])([H])C([H])([H])C([H])(n5nc(-c6c([H])c([H])c(Oc7c([H])c([H])c(F)c([H])c7F)c([H])c6[H])c(C(=O)N([H])[H])c5N([H])[H])C4([H])[H])c(C([H])([H])C([H])([H])C([H])([H])C([H])([H])C([H])([H])[H])c3[H])c([H])c([H])c2C1([H])[H]

>  <smiles>  (35) 
[H]c1c([H])c([H])c2c(c1[H])C([H])([H])C([H])([H])C([H])([H])C2([H])N([H])C(=O)C1([H])N(C(=O)C([H])(N([H])C(=O)C([H])(N([H])C([H])([H])[H])C([H])([H])[H])C(C([H])([H])[H])(C([H])([H])[H])C([H])([H])[H])C([H])([H])c2c([H])c(OC([H])([H])C([H])([H])[N+]([H])([H])C([H])([H])C([H])([H])c3c([H])c([H])c(N([H])C(=O)N4C([H])([H])C([H])([H])C([H])([H])C([H])(n5nc(-c6c([H])c([H])c(Oc7c([H])c([H])c(F)c([H])c7F)c([H])c6[H])c(C(=O)N([H])[H])c5N([H])[H])C4([H])[H])c(C([H])([H])C([H])([H])C([H])([H])C([H])([H])C([H])([H])[H])c3[H])c([H])c([H])c2C1([H])[H]

$$$$
35:0:0
     RDKit          3D

 95104  0  0  1  0  0  0  0  0999 V2000
  -28.9480  -23.9310   21.8640 C   0  0  0  0  0  3  0  0  0  0  0  0
  -29.5000  -22.6340   21.7940 C   0  0  0  0  0  3  0  0  0  0  0  0
  -30.8020  -24.7950   20.5510 C   0  0  0  0  0  3  0  0  0  0  0  0
  -29.5910  -25.0190   21.2370 C   0  0  0  0  0  0  0  0  0  0  0  0
  -31.3640  -23.4990   20.4810 C   0  0  0  0  0  0  0  0  0  0  0  0
  -30.7050  -22.4020   21.0930 C   0  0  0  0  0  0  0  0  0  0  0  0
  -32.6750  -23.3060   19.7340 C   0  0  0  0  0  1  0  0  0  0  0  0
  -31.2890  -21.1270   21.0040 N   0  0  0  0  0  0  0  0  0  0  0  0
  -32.1360  -21.0840   20.4480 H   0  0  0  0  0  0  0  0  0  0  0  0
  -30.8920  -19.0210   22.2440 C   0  0  0  0  0  2  0  0  0  0  0  0
  -30.7340  -19.1260   19.7050 C   0  0  0  0  0  2  0  0  0  0  0  0
  -30.2740  -17.6040   22.2030 C   0  0  0  0  0  2  0  0  0  0  0  0
  -30.1040  -17.7220   19.7090 C   0  0  0  0  0  2  0  0  0  0  0  0
  -30.5030  -19.8920   21.0250 C   0  0  0  0  0  3  0  0  0  0  0  0
  -30.6460  -16.8910   20.8890 C   0  0  0  0  0  3  0  0  0  0  0  0
  -30.7820  -14.5170   20.1430 C   0  0  0  0  0  0  0  0  0  0  0  0
  -30.4000  -12.3970   18.9450 C   0  0  0  0  0  2  0  0  0  0  0  0
  -29.3940  -12.6380   17.8010 C   0  0  0  0  0  2  0  0  0  0  0  0
  -27.9490  -12.4780   18.3090 C   0  0  0  0  0  2  0  0  0  0  0  0
  -27.6800  -13.2850   19.6080 C   0  0  0  0  0  3  0  0  0  0  0  0
  -28.7960  -13.0430   20.6510 C   0  0  0  0  0  2  0  0  0  0  0  0
  -30.0890  -13.3540   20.0180 N   0  0  0  0  0  0  0  0  0  0  0  0
  -31.8510  -14.7220   19.5610 O   0  0  0  0  0  0  0  0  0  0  0  0
  -30.1770  -15.4990   20.8360 N   0  0  0  0  0  0  0  0  0  0  0  0
  -29.2940  -15.2770   21.2720 H   0  0  0  0  0  0  0  0  0  0  0  0
  -25.3230  -13.8630   20.4680 C   0  0  0  0  0  0  0  0  0  0  0  0
  -24.2790  -13.0760   20.8760 C   0  0  0  0  0  0  0  0  0  0  0  0
  -24.7410  -11.7280   20.7800 C   0  0  0  0  0  0  0  0  0  0  0  0
  -26.3560  -12.9930   20.1540 N   0  0  0  0  0  0  0  0  0  0  0  0
  -26.0120  -11.7020   20.3980 N   0  0  0  0  0  0  0  0  0  0  0  0
  -24.0290  -10.4580   20.9770 C   0  0  0  0  0  0  0  0  0  0  0  0
  -24.4820   -9.4950   21.9080 C   0  0  0  0  0  3  0  0  0  0  0  0
  -23.7700   -8.2900   22.0930 C   0  0  0  0  0  3  0  0  0  0  0  0
  -22.5930   -8.0390   21.3480 C   0  0  0  0  0  0  0  0  0  0  0  0
  -22.1610   -8.9900   20.4090 C   0  0  0  0  0  3  0  0  0  0  0  0
  -22.8720  -10.1870   20.2210 C   0  0  0  0  0  3  0  0  0  0  0  0
  -21.8540   -6.8850   21.4430 O   0  0  0  0  0  0  0  0  0  0  0  0
  -21.7670   -6.1790   22.6160 C   0  0  0  0  0  0  0  0  0  0  0  0
  -21.2640   -6.7600   23.8000 C   0  0  0  0  0  3  0  0  0  0  0  0
  -21.1280   -5.9780   24.9640 C   0  0  0  0  0  3  0  0  0  0  0  0
  -21.4830   -4.6160   24.9450 C   0  0  0  0  0  0  0  0  0  0  0  0
  -21.9780   -4.0340   23.7640 C   0  0  0  0  0  3  0  0  0  0  0  0
  -22.1170   -4.8130   22.6020 C   0  0  0  0  0  0  0  0  0  0  0  0
  -22.5740   -4.2420   21.4620 F   0  0  0  0  0  0  0  0  0  0  0  0
  -21.3460   -3.8630   26.0600 F   0  0  0  0  0  0  0  0  0  0  0  0
  -22.9000  -13.5410   21.2430 C   0  0  0  0  0  0  0  0  0  0  0  0
  -22.2290  -12.8230   22.1390 N   0  0  0  0  0  0  0  0  0  0  0  0
  -22.4250  -14.5730   20.7720 O   0  0  0  0  0  0  0  0  0  0  0  0
  -22.6260  -11.9870   22.5400 H   0  0  0  0  0  0  0  0  0  0  0  0
  -21.3060  -13.1150   22.4260 H   0  0  0  0  0  0  0  0  0  0  0  0
  -25.4770  -15.2380   20.3180 N   0  0  0  0  0  0  0  0  0  0  0  0
  -24.7190  -15.8910   20.4830 H   0  0  0  0  0  0  0  0  0  0  0  0
  -26.3140  -15.6840   19.9630 H   0  0  0  0  0  0  0  0  0  0  0  0
  -28.9880  -26.4190   21.2930 C   0  0  0  0  0  2  0  0  0  0  0  0
  -28.4450  -26.7980   20.0300 O   0  0  0  0  0  0  0  0  0  0  0  0
  -24.6340  -31.9190   23.2320 C   0  0  0  0  0  0  0  0  0  0  0  0
  -27.3040  -27.5610   20.0820 C   0  0  0  0  0  0  0  0  0  0  0  0
  -23.4320  -30.5400   21.5650 C   0  0  0  0  0  3  0  0  0  0  0  0
  -24.8980  -29.0340   20.1150 C   0  0  0  0  0  0  0  0  0  0  0  0
  -25.9530  -30.9180   21.3740 C   0  0  0  0  0  2  0  0  0  0  0  0
  -26.0490  -29.5570   20.7210 C   0  0  0  0  0  0  0  0  0  0  0  0
  -27.2550  -28.8220   20.7150 C   0  0  0  0  0  3  0  0  0  0  0  0
  -26.1470  -27.0520   19.4610 C   0  0  0  0  0  3  0  0  0  0  0  0
  -24.9390  -27.7780   19.4850 C   0  0  0  0  0  3  0  0  0  0  0  0
  -23.6460  -29.8810   20.1740 C   0  0  0  0  0  2  0  0  0  0  0  0
  -24.6910  -31.1400   22.1150 N   0  0  0  0  0  0  0  0  0  0  0  0
  -23.5530  -32.1770   23.7780 O   0  0  0  0  0  0  0  0  0  0  0  0
  -22.7880  -29.4990   22.5070 C   0  0  0  0  0  0  0  0  0  0  0  0
  -21.4710  -29.2890   22.3550 N   0  0  0  0  0  0  0  0  0  0  0  0
  -23.4710  -28.8850   23.3310 O   0  0  0  0  0  0  0  0  0  0  0  0
  -20.9810  -29.8380   21.6620 H   0  0  0  0  0  0  0  0  0  0  0  0
  -18.1250  -27.9820   22.7400 C   0  0  0  0  0  0  0  0  0  0  0  0
  -20.6610  -28.3300   23.1050 C   0  0  0  0  0  3  0  0  0  0  0  0
  -20.8340  -26.8980   22.5460 C   0  0  0  0  0  2  0  0  0  0  0  0
  -19.7830  -26.5290   21.4940 C   0  0  0  0  0  2  0  0  0  0  0  0
  -18.3730  -26.6340   22.0820 C   0  0  0  0  0  2  0  0  0  0  0  0
  -19.2010  -28.7850   23.2050 C   0  0  0  0  0  0  0  0  0  0  0  0
  -18.9180  -30.0460   23.7730 C   0  0  0  0  0  3  0  0  0  0  0  0
  -17.5920  -30.5040   23.8840 C   0  0  0  0  0  3  0  0  0  0  0  0
  -16.5300  -29.6980   23.4390 C   0  0  0  0  0  3  0  0  0  0  0  0
  -16.7980  -28.4390   22.8720 C   0  0  0  0  0  3  0  0  0  0  0  0
  -25.9200  -32.5430   23.8610 C   0  0  0  0  0  3  0  0  0  0  0  0
  -26.4350  -31.7590   25.1300 C   0  0  1  0  0  0  0  0  0  0  0  0
  -25.3400  -31.5100   26.1940 C   0  0  0  0  0  1  0  0  0  0  0  0
  -27.0190  -30.3850   24.7220 C   0  0  0  0  0  1  0  0  0  0  0  0
  -27.5840  -32.5460   25.8030 C   0  0  0  0  0  1  0  0  0  0  0  0
  -25.6120  -33.9380   24.2010 N   0  0  0  0  0  0  0  0  0  0  0  0
  -25.9300  -34.9940   23.4390 C   0  0  0  0  0  0  0  0  0  0  0  0
  -26.5830  -34.8960   22.3970 O   0  0  0  0  0  0  0  0  0  0  0  0
  -25.0310  -34.0880   25.0120 H   0  0  0  0  0  0  0  0  0  0  0  0
  -24.1780  -36.7700   23.1210 C   0  0  0  0  0  1  0  0  0  0  0  0
  -25.4400  -36.3770   23.9070 C   0  0  0  0  0  3  0  0  0  0  0  0
  -27.5880  -37.2740   24.6880 C   0  0  0  0  0  1  0  0  0  0  0  0
  -26.4590  -37.4420   23.7750 N   0  0  0  0  0  0  0  0  0  0  0  0
  -26.0490  -38.3560   23.9450 H   0  0  0  0  0  0  0  0  0  0  0  0
  2  1  1  0
  3  4  1  0
  4 54  1  0
  4  1  2  0
  5  3  2  0
  5  6  1  0
  6  2  2  0
  7  5  1  0
  8  6  1  0
  9  8  1  0
 11 13  1  0
 11 14  1  0
 12 10  1  0
 13 15  1  0
 14  8  1  0
 14 10  1  0
 15 24  1  0
 15 12  1  0
 16 24  1  0
 17 22  1  0
 18 19  1  0
 18 17  1  0
 20 19  1  0
 20 29  1  0
 20 21  1  0
 22 16  1  0
 22 21  1  0
 23 16  2  0
 24 25  1  0
 26 27  2  0
 27 46  1  0
 28 27  1  0
 28 31  1  0
 29 30  1  0
 29 26  1  0
 30 28  2  0
 31 32  1  0
 32 33  2  0
 34 37  1  0
 34 33  1  0
 35 34  2  0
 36 35  1  0
 36 31  2  0
 37 38  1  0
 38 39  1  0
 39 40  2  0
 41 40  1  0
 41 45  1  0
 42 41  2  0
 43 38  2  0
 43 42  1  0
 44 43  1  0
 46 47  1  0
 47 50  1  0
 47 49  1  0
 48 46  2  0
 51 26  1  0
 51 52  1  0
 53 51  1  0
 55 57  1  0
 55 54  1  0
 56 67  2  0
 57 62  1  0
 58 66  1  0
 58 68  1  0
 59 65  1  0
 59 61  1  0
 60 66  1  0
 61 60  1  0
 62 61  2  0
 63 64  1  0
 63 57  2  0
 64 59  2  0
 65 58  1  0
 66 56  1  0
 68 70  2  0
 69 68  1  0
 71 69  1  0
 72 81  2  0
 72 77  1  0
 73 69  1  0
 73 77  1  0
 74 73  1  0
 75 76  1  0
 75 74  1  0
 76 72  1  0
 77 78  2  0
 78 79  1  0
 80 79  2  0
 81 80  1  0
 82 56  1  0
 82 87  1  0
 82 83  1  0
 83 86  1  1
 83 84  1  0
 85 83  1  0
 87 90  1  0
 88 92  1  0
 88 87  1  0
 89 88  2  0
 92 91  1  0
 94 92  1  0
 94 95  1  0
 94 93  1  0
M  ISO  4  16 100  24 100  54 101  55 101
M  END
>  <TORSDO>  (36) 
F 19

>  <SCORE>  (36) 
-14.196

>  <name>  (36) 
35

>  <ligand_id>  (36) 
35

>  <original_smiles>  (36) 
[H]c1c([H])c([H])c2c(c1[H])C([H])([H])C([H])([H])C([H])([H])C2([H])N([H])C(=O)C1([H])N(C(=O)C([H])(N([H])C(=O)C([H])(N([H])C([H])([H])[H])C([H])([H])[H])C(C([H])([H])[H])(C([H])([H])[H])C([H])([H])[H])C([H])([H])c2c([H])c(OC([H])([H])c3c([H])c([H])c(N([H])C4([H])C([H])([H])C([H])([H])C([H])(N([H])C(=O)N5C([H])([H])C([H])([H])C([H])([H])C([H])(n6nc(-c7c([H])c([H])c(Oc8c([H])c([H])c(F)c([H])c8F)c([H])c7[H])c(C(=O)N([H])[H])c6N([H])[H])C5([H])[H])C([H])([H])C4([H])[H])c(C([H])([H])[H])c3[H])c([H])c([H])c2C1([H])[H]

>  <smiles>  (36) 
[H]c1c([H])c([H])c2c(c1[H])C([H])([H])C([H])([H])C([H])([H])C2([H])N([H])C(=O)C1([H])N(C(=O)C([H])(N([H])C(=O)C([H])(N([H])C([H])([H])[H])C([H])([H])[H])C(C([H])([H])[H])(C([H])([H])[H])C([H])([H])[H])C([H])([H])c2c([H])c(OC([H])([H])c3c([H])c([H])c(N([H])C4([H])C([H])([H])C([H])([H])C([H])(N([H])C(=O)N5C([H])([H])C([H])([H])C([H])([H])C([H])(n6nc(-c7c([H])c([H])c(Oc8c([H])c([H])c(F)c([H])c8F)c([H])c7[H])c(C(=O)N([H])[H])c6N([H])[H])C5([H])[H])C([H])([H])C4([H])[H])c(C([H])([H])[H])c3[H])c([H])c([H])c2C1([H])[H]

$$$$
36:0:0
     RDKit          3D

 96105  0  0  1  0  0  0  0  0999 V2000
  -29.0650  -25.0760   21.5230 C   0  0  0  0  0  3  0  0  0  0  0  0
  -29.5510  -23.7630   21.6500 C   0  0  0  0  0  0  0  0  0  0  0  0
  -29.5240  -22.9180   20.5110 C   0  0  0  0  0  0  0  0  0  0  0  0
  -28.9430  -23.4240   19.3200 C   0  0  0  0  0  0  0  0  0  0  0  0
  -28.5900  -25.5060   20.2760 C   0  0  0  0  0  0  0  0  0  0  0  0
  -30.1820  -23.3410   22.9660 C   0  0  0  0  0  1  0  0  0  0  0  0
  -28.8480  -22.6070   18.0420 C   0  0  0  0  0  1  0  0  0  0  0  0
  -28.5010  -24.6940   19.2040 N   0  0  0  0  0  0  0  0  0  0  0  0
  -28.4380  -26.8390   20.0180 O   0  0  0  0  0  0  0  0  0  0  0  0
  -24.5940  -31.8810   23.2220 C   0  0  0  0  0  0  0  0  0  0  0  0
  -27.2210  -27.4630   20.1270 C   0  0  0  0  0  0  0  0  0  0  0  0
  -23.3730  -30.4780   21.5880 C   0  0  0  0  0  3  0  0  0  0  0  0
  -24.8160  -28.9310   20.1650 C   0  0  0  0  0  0  0  0  0  0  0  0
  -25.8950  -30.8410   21.3720 C   0  0  0  0  0  2  0  0  0  0  0  0
  -25.9720  -29.4670   20.7450 C   0  0  0  0  0  0  0  0  0  0  0  0
  -27.1750  -28.7370   20.7290 C   0  0  0  0  0  3  0  0  0  0  0  0
  -26.0520  -26.9260   19.5490 C   0  0  0  0  0  3  0  0  0  0  0  0
  -24.8460  -27.6550   19.5730 C   0  0  0  0  0  3  0  0  0  0  0  0
  -23.5720  -29.7900   20.2100 C   0  0  0  0  0  2  0  0  0  0  0  0
  -24.6390  -31.0830   22.1180 N   0  0  0  0  0  0  0  0  0  0  0  0
  -23.5180  -32.1510   23.7740 O   0  0  0  0  0  0  0  0  0  0  0  0
  -22.7340  -29.4570   22.5550 C   0  0  0  0  0  0  0  0  0  0  0  0
  -21.4090  -29.2710   22.4360 N   0  0  0  0  0  0  0  0  0  0  0  0
  -23.4240  -28.8330   23.3650 O   0  0  0  0  0  0  0  0  0  0  0  0
  -20.9120  -29.8240   21.7510 H   0  0  0  0  0  0  0  0  0  0  0  0
  -18.0400  -28.0770   22.9510 C   0  0  0  0  0  0  0  0  0  0  0  0
  -20.5980  -28.3330   23.2110 C   0  0  0  0  0  3  0  0  0  0  0  0
  -20.7000  -26.9010   22.6350 C   0  0  0  0  0  2  0  0  0  0  0  0
  -19.5940  -26.5790   21.6280 C   0  0  0  0  0  2  0  0  0  0  0  0
  -18.2130  -26.7260   22.2760 C   0  0  0  0  0  2  0  0  0  0  0  0
  -19.1610  -28.8370   23.3750 C   0  0  0  0  0  0  0  0  0  0  0  0
  -18.9460  -30.1030   23.9630 C   0  0  0  0  0  3  0  0  0  0  0  0
  -17.6420  -30.6070   24.1310 C   0  0  0  0  0  3  0  0  0  0  0  0
  -16.5360  -29.8420   23.7240 C   0  0  0  0  0  3  0  0  0  0  0  0
  -16.7350  -28.5790   23.1390 C   0  0  0  0  0  3  0  0  0  0  0  0
  -25.8860  -32.5110   23.8300 C   0  0  0  0  0  3  0  0  0  0  0  0
  -26.4250  -31.7300   25.0900 C   0  0  1  0  0  0  0  0  0  0  0  0
  -25.3480  -31.4800   26.1730 C   0  0  0  0  0  1  0  0  0  0  0  0
  -27.0050  -30.3590   24.6730 C   0  0  0  0  0  1  0  0  0  0  0  0
  -27.5840  -32.5210   25.7410 C   0  0  0  0  0  1  0  0  0  0  0  0
  -25.5760  -33.9050   24.1740 N   0  0  0  0  0  0  0  0  0  0  0  0
  -25.8910  -34.9640   23.4170 C   0  0  0  0  0  0  0  0  0  0  0  0
  -26.5470  -34.8700   22.3750 O   0  0  0  0  0  0  0  0  0  0  0  0
  -24.9930  -34.0510   24.9850 H   0  0  0  0  0  0  0  0  0  0  0  0
  -24.1470  -36.7450   23.1030 C   0  0  0  0  0  1  0  0  0  0  0  0
  -25.4050  -36.3450   23.8920 C   0  0  0  0  0  3  0  0  0  0  0  0
  -27.5490  -37.2370   24.6880 C   0  0  0  0  0  1  0  0  0  0  0  0
  -26.4280  -37.4060   23.7670 N   0  0  0  0  0  0  0  0  0  0  0  0
  -26.0190  -38.3230   23.9300 H   0  0  0  0  0  0  0  0  0  0  0  0
  -30.2660  -21.5790   20.5090 C   0  0  0  0  0  2  0  0  0  0  0  0
  -29.4860  -20.3980   20.9520 N   0  0  0  0  0  4  0  0  0  0  0  0
  -29.2750  -20.5030   21.9310 H   0  0  0  0  0  0  0  0  0  0  0  0
  -28.6110  -20.3390   20.4560 H   0  0  0  0  0  0  0  0  0  0  0  0
  -30.7860  -17.2760   19.3220 C   0  0  0  0  0  2  0  0  0  0  0  0
  -30.3810  -18.7440   19.2830 C   0  0  0  0  0  2  0  0  0  0  0  0
  -29.7110  -17.8820   21.4300 C   0  0  0  0  0  2  0  0  0  0  0  0
  -30.5880  -16.7960   20.7810 C   0  0  0  0  0  3  0  0  0  0  0  0
  -30.2590  -19.1510   20.7560 C   0  0  0  0  0  3  0  0  0  0  0  0
  -30.7020  -14.3840   20.3420 C   0  0  0  0  0  0  0  0  0  0  0  0
  -30.3090  -12.2740   19.1620 C   0  0  0  0  0  2  0  0  0  0  0  0
  -29.3530  -12.5410   17.9810 C   0  0  0  0  0  2  0  0  0  0  0  0
  -27.8860  -12.4220   18.4380 C   0  0  0  0  0  2  0  0  0  0  0  0
  -27.5910  -13.2350   19.7280 C   0  0  0  0  0  3  0  0  0  0  0  0
  -28.6650  -12.9780   20.8110 C   0  0  0  0  0  2  0  0  0  0  0  0
  -29.9820  -13.2430   20.2160 N   0  0  0  0  0  0  0  0  0  0  0  0
  -31.8280  -14.5230   19.8590 O   0  0  0  0  0  0  0  0  0  0  0  0
  -30.0460  -15.4380   20.8530 N   0  0  0  0  0  0  0  0  0  0  0  0
  -29.1180  -15.2900   21.2230 H   0  0  0  0  0  0  0  0  0  0  0  0
  -25.2100  -13.8490   20.4890 C   0  0  0  0  0  0  0  0  0  0  0  0
  -24.1460  -13.0780   20.8740 C   0  0  0  0  0  0  0  0  0  0  0  0
  -24.5990  -11.7250   20.8240 C   0  0  0  0  0  0  0  0  0  0  0  0
  -26.2470  -12.9650   20.2330 N   0  0  0  0  0  0  0  0  0  0  0  0
  -25.8830  -11.6810   20.4890 N   0  0  0  0  0  0  0  0  0  0  0  0
  -23.8710  -10.4650   21.0190 C   0  0  0  0  0  0  0  0  0  0  0  0
  -24.3160   -9.4920   21.9400 C   0  0  0  0  0  3  0  0  0  0  0  0
  -23.5900   -8.2950   22.1230 C   0  0  0  0  0  3  0  0  0  0  0  0
  -22.4050   -8.0660   21.3860 C   0  0  0  0  0  0  0  0  0  0  0  0
  -21.9790   -9.0270   20.4540 C   0  0  0  0  0  3  0  0  0  0  0  0
  -22.7060  -10.2150   20.2680 C   0  0  0  0  0  3  0  0  0  0  0  0
  -21.6470   -6.9220   21.4800 O   0  0  0  0  0  0  0  0  0  0  0  0
  -21.6040   -6.1790   22.6330 C   0  0  0  0  0  0  0  0  0  0  0  0
  -21.1900   -6.7350   23.8640 C   0  0  0  0  0  3  0  0  0  0  0  0
  -21.0950   -5.9180   25.0080 C   0  0  0  0  0  3  0  0  0  0  0  0
  -21.4040   -4.5480   24.9230 C   0  0  0  0  0  0  0  0  0  0  0  0
  -21.8110   -3.9920   23.6980 C   0  0  0  0  0  3  0  0  0  0  0  0
  -21.9090   -4.8050   22.5560 C   0  0  0  0  0  0  0  0  0  0  0  0
  -22.2810   -4.2600   21.3730 F   0  0  0  0  0  0  0  0  0  0  0  0
  -21.3050   -3.7610   26.0200 F   0  0  0  0  0  0  0  0  0  0  0  0
  -22.7570  -13.5600   21.1790 C   0  0  0  0  0  0  0  0  0  0  0  0
  -22.0460  -12.8630   22.0590 N   0  0  0  0  0  0  0  0  0  0  0  0
  -22.3120  -14.5920   20.6770 O   0  0  0  0  0  0  0  0  0  0  0  0
  -22.4200  -12.0290   22.4880 H   0  0  0  0  0  0  0  0  0  0  0  0
  -21.1150  -13.1650   22.3040 H   0  0  0  0  0  0  0  0  0  0  0  0
  -25.3790  -15.2200   20.3160 N   0  0  0  0  0  0  0  0  0  0  0  0
  -24.6130  -15.8750   20.4330 H   0  0  0  0  0  0  0  0  0  0  0  0
  -26.2230  -15.6540   19.9640 H   0  0  0  0  0  0  0  0  0  0  0  0
  1  2  2  0
  2  6  1  0
  3  2  1  0
  4  3  2  0
  5  1  1  0
  7  4  1  0
  8  4  1  0
  8  5  2  0
  9 11  1  0
  9  5  1  0
 10 21  2  0
 11 16  1  0
 12 20  1  0
 12 22  1  0
 13 19  1  0
 13 15  1  0
 14 20  1  0
 15 14  1  0
 16 15  2  0
 17 18  1  0
 17 11  2  0
 18 13  2  0
 19 12  1  0
 20 10  1  0
 22 24  2  0
 23 22  1  0
 25 23  1  0
 26 35  2  0
 26 31  1  0
 27 23  1  0
 27 31  1  0
 28 27  1  0
 29 30  1  0
 29 28  1  0
 30 26  1  0
 31 32  2  0
 32 33  1  0
 34 33  2  0
 35 34  1  0
 36 10  1  0
 36 41  1  0
 36 37  1  0
 37 40  1  1
 37 38  1  0
 39 37  1  0
 41 44  1  0
 42 46  1  0
 42 41  1  0
 43 42  2  0
 46 45  1  0
 48 46  1  0
 48 49  1  0
 48 47  1  0
 50  3  1  0
 50 51  1  0
 51 52  1  0
 53 51  1  0
 54 57  1  0
 55 54  1  0
 55 58  1  0
 57 67  1  0
 57 56  1  0
 58 51  1  0
 58 56  1  0
 59 67  1  0
 60 65  1  0
 61 62  1  0
 61 60  1  0
 63 62  1  0
 63 72  1  0
 63 64  1  0
 65 59  1  0
 65 64  1  0
 66 59  2  0
 67 68  1  0
 69 70  2  0
 70 89  1  0
 71 70  1  0
 71 74  1  0
 72 69  1  0
 72 73  1  0
 73 71  2  0
 74 75  1  0
 75 76  2  0
 77 80  1  0
 77 76  1  0
 78 77  2  0
 79 78  1  0
 79 74  2  0
 80 81  1  0
 81 82  1  0
 82 83  2  0
 84 83  1  0
 84 88  1  0
 85 84  2  0
 86 81  2  0
 86 85  1  0
 87 86  1  0
 89 90  1  0
 90 93  1  0
 90 92  1  0
 91 89  2  0
 94 95  1  0
 94 69  1  0
 96 94  1  0
M  ISO  4   5 101   9 101  59 100  67 100
M  END
>  <TORSDO>  (37) 
F 19

>  <SCORE>  (37) 
-14.330

>  <name>  (37) 
36

>  <ligand_id>  (37) 
36

>  <original_smiles>  (37) 
[H]c1c([H])c([H])c2c(c1[H])C([H])([H])C([H])([H])C([H])([H])C2([H])N([H])C(=O)C1([H])N(C(=O)C([H])(N([H])C(=O)C([H])(N([H])C([H])([H])[H])C([H])([H])[H])C(C([H])([H])[H])(C([H])([H])[H])C([H])([H])[H])C([H])([H])c2c([H])c(Oc3nc(C([H])([H])[H])c(C([H])([H])[N+]([H])([H])C4([H])C([H])([H])C([H])([H])C([H])(N([H])C(=O)N5C([H])([H])C([H])([H])C([H])([H])C([H])(n6nc(-c7c([H])c([H])c(Oc8c([H])c([H])c(F)c([H])c8F)c([H])c7[H])c(C(=O)N([H])[H])c6N([H])[H])C5([H])[H])C4([H])[H])c(C([H])([H])[H])c3[H])c([H])c([H])c2C1([H])[H]

>  <smiles>  (37) 
[H]c1c([H])c([H])c2c(c1[H])C([H])([H])C([H])([H])C([H])([H])C2([H])N([H])C(=O)C1([H])N(C(=O)C([H])(N([H])C(=O)C([H])(N([H])C([H])([H])[H])C([H])([H])[H])C(C([H])([H])[H])(C([H])([H])[H])C([H])([H])[H])C([H])([H])c2c([H])c(Oc3nc(C([H])([H])[H])c(C([H])([H])[N+]([H])([H])C4([H])C([H])([H])C([H])([H])C([H])(N([H])C(=O)N5C([H])([H])C([H])([H])C([H])([H])C([H])(n6nc(-c7c([H])c([H])c(Oc8c([H])c([H])c(F)c([H])c8F)c([H])c7[H])c(C(=O)N([H])[H])c6N([H])[H])C5([H])[H])C4([H])[H])c(C([H])([H])[H])c3[H])c([H])c([H])c2C1([H])[H]

$$$$
37:0:0
     RDKit          3D

 94103  0  0  1  0  0  0  0  0999 V2000
  -28.5810  -22.3750   19.8270 C   0  0  0  0  0  0  0  0  0  0  0  0
  -30.1650  -20.3110   17.4070 C   0  0  0  0  0  2  0  0  0  0  0  0
  -31.3270  -20.5200   18.3830 C   0  0  0  0  0  2  0  0  0  0  0  0
  -28.8990  -20.5170   18.2490 C   0  0  0  0  0  2  0  0  0  0  0  0
  -30.6670  -20.7530   19.7580 C   0  0  0  0  0  3  0  0  0  0  0  0
  -29.3340  -21.3030   19.4060 N   0  0  0  0  0  0  0  0  0  0  0  0
  -27.3510  -22.2700   19.7460 O   0  0  0  0  0  0  0  0  0  0  0  0
  -30.6210  -18.4360   22.8390 C   0  0  0  0  0  3  0  0  0  0  0  0
  -30.6660  -19.5830   22.0290 C   0  0  0  0  0  3  0  0  0  0  0  0
  -30.5740  -17.1730   22.2280 C   0  0  0  0  0  3  0  0  0  0  0  0
  -30.6490  -19.4460   20.6310 C   0  0  0  0  0  0  0  0  0  0  0  0
  -30.5690  -17.0530   20.8240 C   0  0  0  0  0  0  0  0  0  0  0  0
  -30.5810  -18.1920   20.0520 N   0  0  0  0  0  0  0  0  0  0  0  0
  -31.0770  -14.6540   20.0190 C   0  0  0  0  0  0  0  0  0  0  0  0
  -30.7360  -12.4280   18.9450 C   0  0  0  0  0  2  0  0  0  0  0  0
  -29.7520  -12.5860   17.7620 C   0  0  0  0  0  2  0  0  0  0  0  0
  -28.2870  -12.4990   18.2430 C   0  0  0  0  0  2  0  0  0  0  0  0
  -28.0120  -13.3920   19.4820 C   0  0  0  0  0  3  0  0  0  0  0  0
  -29.0970  -13.1790   20.5620 C   0  0  0  0  0  2  0  0  0  0  0  0
  -30.4040  -13.4610   19.9440 N   0  0  0  0  0  0  0  0  0  0  0  0
  -32.2330  -14.7750   19.6000 O   0  0  0  0  0  0  0  0  0  0  0  0
  -30.2880  -15.7140   20.3640 N   0  0  0  0  0  0  0  0  0  0  0  0
  -29.3580  -15.4080   20.5940 H   0  0  0  0  0  0  0  0  0  0  0  0
  -25.6810  -14.1260   20.2900 C   0  0  0  0  0  0  0  0  0  0  0  0
  -24.5850  -13.4130   20.6860 C   0  0  0  0  0  0  0  0  0  0  0  0
  -24.9630  -12.0360   20.6220 C   0  0  0  0  0  0  0  0  0  0  0  0
  -26.6650  -13.1880   20.0100 N   0  0  0  0  0  0  0  0  0  0  0  0
  -26.2370  -11.9260   20.2680 N   0  0  0  0  0  0  0  0  0  0  0  0
  -24.1720  -10.8170   20.8180 C   0  0  0  0  0  0  0  0  0  0  0  0
  -24.5660   -9.8180   21.7340 C   0  0  0  0  0  3  0  0  0  0  0  0
  -23.7770   -8.6620   21.9170 C   0  0  0  0  0  3  0  0  0  0  0  0
  -22.5790   -8.4970   21.1810 C   0  0  0  0  0  0  0  0  0  0  0  0
  -22.2010   -9.4850   20.2540 C   0  0  0  0  0  3  0  0  0  0  0  0
  -22.9910  -10.6320   20.0710 C   0  0  0  0  0  3  0  0  0  0  0  0
  -21.7620   -7.3970   21.2750 O   0  0  0  0  0  0  0  0  0  0  0  0
  -21.6740   -6.6620   22.4310 C   0  0  0  0  0  0  0  0  0  0  0  0
  -21.3050   -7.2490   23.6600 C   0  0  0  0  0  3  0  0  0  0  0  0
  -21.1580   -6.4450   24.8080 C   0  0  0  0  0  3  0  0  0  0  0  0
  -21.3730   -5.0560   24.7270 C   0  0  0  0  0  0  0  0  0  0  0  0
  -21.7360   -4.4690   23.5030 C   0  0  0  0  0  3  0  0  0  0  0  0
  -21.8840   -5.2700   22.3570 C   0  0  0  0  0  0  0  0  0  0  0  0
  -22.2130   -4.6970   21.1740 F   0  0  0  0  0  0  0  0  0  0  0  0
  -21.2250   -4.2820   25.8260 F   0  0  0  0  0  0  0  0  0  0  0  0
  -23.2290  -13.9680   21.0120 C   0  0  0  0  0  0  0  0  0  0  0  0
  -22.4970  -13.3120   21.9050 N   0  0  0  0  0  0  0  0  0  0  0  0
  -22.8280  -15.0180   20.5100 O   0  0  0  0  0  0  0  0  0  0  0  0
  -22.8340  -12.4610   22.3330 H   0  0  0  0  0  0  0  0  0  0  0  0
  -21.5860  -13.6640   22.1650 H   0  0  0  0  0  0  0  0  0  0  0  0
  -25.9200  -15.4880   20.1210 N   0  0  0  0  0  0  0  0  0  0  0  0
  -25.1800  -16.1710   20.2350 H   0  0  0  0  0  0  0  0  0  0  0  0
  -26.7560  -15.8820   19.7070 H   0  0  0  0  0  0  0  0  0  0  0  0
  -29.1350  -23.7990   20.2290 C   0  0  0  0  0  2  0  0  0  0  0  0
  -28.0990  -24.9720   19.8910 C   0  0  0  0  0  2  0  0  0  0  0  0
  -28.3280  -26.4220   20.1020 O   0  0  0  0  0  0  0  0  0  0  0  0
  -24.4920  -31.7600   23.1160 C   0  0  0  0  0  0  0  0  0  0  0  0
  -27.1950  -27.2590   20.0430 C   0  0  0  0  0  0  0  0  0  0  0  0
  -23.3120  -30.3410   21.4790 C   0  0  0  0  0  3  0  0  0  0  0  0
  -24.7950  -28.8300   20.0440 C   0  0  0  0  0  0  0  0  0  0  0  0
  -25.8470  -30.7060   21.2950 C   0  0  0  0  0  2  0  0  0  0  0  0
  -25.9550  -29.3320   20.6450 C   0  0  0  0  0  0  0  0  0  0  0  0
  -27.1560  -28.5580   20.6410 C   0  0  0  0  0  3  0  0  0  0  0  0
  -26.0070  -26.8170   19.4090 C   0  0  0  0  0  3  0  0  0  0  0  0
  -24.8220  -27.5750   19.4190 C   0  0  0  0  0  3  0  0  0  0  0  0
  -23.5400  -29.6790   20.0950 C   0  0  0  0  0  2  0  0  0  0  0  0
  -24.5690  -30.9510   22.0190 N   0  0  0  0  0  0  0  0  0  0  0  0
  -23.4050  -32.0140   23.6530 O   0  0  0  0  0  0  0  0  0  0  0  0
  -22.6750  -29.3070   22.4350 C   0  0  0  0  0  0  0  0  0  0  0  0
  -21.3540  -29.0900   22.3030 N   0  0  0  0  0  0  0  0  0  0  0  0
  -23.3660  -28.7030   23.2590 O   0  0  0  0  0  0  0  0  0  0  0  0
  -20.8480  -29.6270   21.6130 H   0  0  0  0  0  0  0  0  0  0  0  0
  -18.0140  -27.7830   22.7770 C   0  0  0  0  0  0  0  0  0  0  0  0
  -20.5580  -28.1350   23.0790 C   0  0  0  0  0  3  0  0  0  0  0  0
  -20.7170  -26.6980   22.5290 C   0  0  0  0  0  2  0  0  0  0  0  0
  -19.6420  -26.3250   21.5030 C   0  0  0  0  0  2  0  0  0  0  0  0
  -18.2470  -26.4310   22.1240 C   0  0  0  0  0  2  0  0  0  0  0  0
  -19.0990  -28.5900   23.2100 C   0  0  0  0  0  0  0  0  0  0  0  0
  -18.8260  -29.8550   23.7760 C   0  0  0  0  0  3  0  0  0  0  0  0
  -17.5000  -30.3110   23.9140 C   0  0  0  0  0  3  0  0  0  0  0  0
  -16.4310  -29.5000   23.5000 C   0  0  0  0  0  3  0  0  0  0  0  0
  -16.6880  -28.2390   22.9330 C   0  0  0  0  0  3  0  0  0  0  0  0
  -25.7620  -32.4220   23.7320 C   0  0  0  0  0  3  0  0  0  0  0  0
  -26.3160  -31.6480   24.9900 C   0  0  1  0  0  0  0  0  0  0  0  0
  -25.2450  -31.3640   26.0690 C   0  0  0  0  0  1  0  0  0  0  0  0
  -26.9370  -30.2950   24.5740 C   0  0  0  0  0  1  0  0  0  0  0  0
  -27.4510  -32.4710   25.6450 C   0  0  0  0  0  1  0  0  0  0  0  0
  -25.4140  -33.8050   24.0870 N   0  0  0  0  0  0  0  0  0  0  0  0
  -25.7140  -34.8790   23.3460 C   0  0  0  0  0  0  0  0  0  0  0  0
  -26.3750  -34.8120   22.3050 O   0  0  0  0  0  0  0  0  0  0  0  0
  -24.8270  -33.9270   24.8990 H   0  0  0  0  0  0  0  0  0  0  0  0
  -23.9340  -36.6270   23.0370 C   0  0  0  0  0  1  0  0  0  0  0  0
  -25.1930  -36.2440   23.8330 C   0  0  0  0  0  3  0  0  0  0  0  0
  -27.3120  -37.1680   24.6610 C   0  0  0  0  0  1  0  0  0  0  0  0
  -26.1960  -37.3270   23.7320 N   0  0  0  0  0  0  0  0  0  0  0  0
  -25.7690  -38.2320   23.9090 H   0  0  0  0  0  0  0  0  0  0  0  0
  1 52  1  0
  2  4  1  0
  2  3  1  0
  3  5  1  0
  4  6  1  0
  5 11  1  0
  6  5  1  0
  6  1  1  0
  7  1  2  0
  9  8  2  0
 10  8  1  0
 11  9  1  0
 12 10  2  0
 13 11  2  0
 13 12  1  0
 14 22  1  0
 15 20  1  0
 16 17  1  0
 16 15  1  0
 18 17  1  0
 18 27  1  0
 18 19  1  0
 20 14  1  0
 20 19  1  0
 21 14  2  0
 22 23  1  0
 22 12  1  0
 24 25  2  0
 25 44  1  0
 26 25  1  0
 26 29  1  0
 27 28  1  0
 27 24  1  0
 28 26  2  0
 29 30  1  0
 30 31  2  0
 32 35  1  0
 32 31  1  0
 33 32  2  0
 34 33  1  0
 34 29  2  0
 35 36  1  0
 36 37  1  0
 37 38  2  0
 39 38  1  0
 39 43  1  0
 40 39  2  0
 41 36  2  0
 41 40  1  0
 42 41  1  0
 44 45  1  0
 45 48  1  0
 45 47  1  0
 46 44  2  0
 49 50  1  0
 49 24  1  0
 51 49  1  0
 53 54  1  0
 53 52  1  0
 55 66  2  0
 56 54  1  0
 56 61  1  0
 57 65  1  0
 57 67  1  0
 58 64  1  0
 58 60  1  0
 59 65  1  0
 60 59  1  0
 61 60  2  0
 62 63  1  0
 62 56  2  0
 63 58  2  0
 64 57  1  0
 65 55  1  0
 67 69  2  0
 68 67  1  0
 70 68  1  0
 71 80  2  0
 71 76  1  0
 72 68  1  0
 72 76  1  0
 73 72  1  0
 74 75  1  0
 74 73  1  0
 75 71  1  0
 76 77  2  0
 77 78  1  0
 79 78  2  0
 80 79  1  0
 81 55  1  0
 81 86  1  0
 81 82  1  0
 82 85  1  1
 82 83  1  0
 84 82  1  0
 86 89  1  0
 87 91  1  0
 87 86  1  0
 88 87  2  0
 91 90  1  0
 93 91  1  0
 93 94  1  0
 93 92  1  0
M  ISO  4  14 100  22 100  53 101  54 101
M  END
>  <TORSDO>  (38) 
F 19

>  <SCORE>  (38) 
-13.608

>  <name>  (38) 
37

>  <ligand_id>  (38) 
37

>  <original_smiles>  (38) 
[H]c1c(N([H])C(=O)N2C([H])([H])C([H])([H])C([H])([H])C([H])(n3nc(-c4c([H])c([H])c(Oc5c([H])c([H])c(F)c([H])c5F)c([H])c4[H])c(C(=O)N([H])[H])c3N([H])[H])C2([H])[H])nc(C2([H])N(C(=O)C([H])([H])C([H])([H])Oc3c([H])c([H])c4c(c3[H])C([H])([H])N(C(=O)C([H])(N([H])C(=O)C([H])(N([H])C([H])([H])[H])C([H])([H])[H])C(C([H])([H])[H])(C([H])([H])[H])C([H])([H])[H])C([H])(C(=O)N([H])C3([H])c5c([H])c([H])c([H])c([H])c5C([H])([H])C([H])([H])C3([H])[H])C4([H])[H])C([H])([H])C([H])([H])C2([H])[H])c([H])c1[H]

>  <smiles>  (38) 
[H]c1c(N([H])C(=O)N2C([H])([H])C([H])([H])C([H])([H])C([H])(n3nc(-c4c([H])c([H])c(Oc5c([H])c([H])c(F)c([H])c5F)c([H])c4[H])c(C(=O)N([H])[H])c3N([H])[H])C2([H])[H])nc(C2([H])N(C(=O)C([H])([H])C([H])([H])Oc3c([H])c([H])c4c(c3[H])C([H])([H])N(C(=O)C([H])(N([H])C(=O)C([H])(N([H])C([H])([H])[H])C([H])([H])[H])C(C([H])([H])[H])(C([H])([H])[H])C([H])([H])[H])C([H])(C(=O)N([H])C3([H])c5c([H])c([H])c([H])c([H])c5C([H])([H])C([H])([H])C3([H])[H])C4([H])[H])C([H])([H])C([H])([H])C2([H])[H])c([H])c1[H]

$$$$
38:0:0
     RDKit          3D

 93101  0  0  1  0  0  0  0  0999 V2000
  -30.3860  -23.9950   19.0740 C   0  0  0  0  0  3  0  0  0  0  0  0
  -30.7190  -22.6170   18.8880 C   0  0  0  0  0  3  0  0  0  0  0  0
  -29.4440  -23.4200   21.1950 C   0  0  0  0  0  3  0  0  0  0  0  0
  -29.7240  -24.4330   20.2430 C   0  0  0  0  0  0  0  0  0  0  0  0
  -29.8100  -22.0420   21.0480 C   0  0  0  0  0  0  0  0  0  0  0  0
  -30.4490  -21.5910   19.8440 C   0  0  0  0  0  0  0  0  0  0  0  0
  -28.2110  -20.3800   22.1020 C   0  0  0  0  0  1  0  0  0  0  0  0
  -29.6870  -21.7670   23.6150 C   0  0  0  0  0  1  0  0  0  0  0  0
  -29.5630  -21.1050   22.2320 C   0  0  0  0  0  3  0  0  0  0  0  0
  -30.8970  -20.2550   19.5210 N   0  0  0  0  0  0  0  0  0  0  0  0
  -31.4570  -20.2160   18.6720 H   0  0  0  0  0  0  0  0  0  0  0  0
  -30.4240  -18.9000   19.9670 C   0  0  0  0  0  3  0  0  0  0  0  0
  -31.3870  -17.6940   19.6090 C   0  0  0  0  0  3  0  0  0  0  0  0
  -31.6780  -15.1710   19.7550 C   0  0  0  0  0  0  0  0  0  0  0  0
  -31.4190  -12.8510   18.9250 C   0  0  0  0  0  2  0  0  0  0  0  0
  -30.4340  -12.8560   17.7380 C   0  0  0  0  0  2  0  0  0  0  0  0
  -28.9880  -12.7000   18.2440 C   0  0  0  0  0  2  0  0  0  0  0  0
  -28.6520  -13.6700   19.4090 C   0  0  0  0  0  3  0  0  0  0  0  0
  -29.7580  -13.6770   20.4890 C   0  0  0  0  0  2  0  0  0  0  0  0
  -31.0370  -13.9620   19.8210 N   0  0  0  0  0  0  0  0  0  0  0  0
  -32.8220  -15.2650   19.3030 O   0  0  0  0  0  0  0  0  0  0  0  0
  -30.9480  -16.3030   19.9820 N   0  0  0  0  0  0  0  0  0  0  0  0
  -30.0200  -16.1870   20.3590 H   0  0  0  0  0  0  0  0  0  0  0  0
  -26.3230  -14.2780   20.3070 C   0  0  0  0  0  0  0  0  0  0  0  0
  -25.2690  -13.5080   20.7200 C   0  0  0  0  0  0  0  0  0  0  0  0
  -25.7040  -12.1520   20.6120 C   0  0  0  0  0  0  0  0  0  0  0  0
  -27.3360  -13.3910   19.9770 N   0  0  0  0  0  0  0  0  0  0  0  0
  -26.9720  -12.1060   20.2200 N   0  0  0  0  0  0  0  0  0  0  0  0
  -24.9690  -10.8940   20.8050 C   0  0  0  0  0  0  0  0  0  0  0  0
  -25.3080   -9.9910   21.8380 C   0  0  0  0  0  3  0  0  0  0  0  0
  -24.5720   -8.8000   22.0150 C   0  0  0  0  0  3  0  0  0  0  0  0
  -23.4870   -8.5010   21.1580 C   0  0  0  0  0  0  0  0  0  0  0  0
  -23.1690   -9.3910   20.1180 C   0  0  0  0  0  3  0  0  0  0  0  0
  -23.9030  -10.5740   19.9390 C   0  0  0  0  0  3  0  0  0  0  0  0
  -22.7340   -7.3550   21.2390 O   0  0  0  0  0  0  0  0  0  0  0  0
  -22.3550   -6.8250   22.4460 C   0  0  0  0  0  0  0  0  0  0  0  0
  -21.5810   -7.5590   23.3710 C   0  0  0  0  0  3  0  0  0  0  0  0
  -21.1550   -6.9540   24.5700 C   0  0  0  0  0  3  0  0  0  0  0  0
  -21.4920   -5.6140   24.8420 C   0  0  0  0  0  0  0  0  0  0  0  0
  -22.2570   -4.8800   23.9210 C   0  0  0  0  0  3  0  0  0  0  0  0
  -22.6840   -5.4820   22.7240 C   0  0  0  0  0  0  0  0  0  0  0  0
  -23.4040   -4.7640   21.8280 F   0  0  0  0  0  0  0  0  0  0  0  0
  -21.0770   -5.0290   25.9900 F   0  0  0  0  0  0  0  0  0  0  0  0
  -23.9010  -13.9970   21.0990 C   0  0  0  0  0  0  0  0  0  0  0  0
  -23.2340  -13.2980   22.0110 N   0  0  0  0  0  0  0  0  0  0  0  0
  -23.4370  -15.0340   20.6230 O   0  0  0  0  0  0  0  0  0  0  0  0
  -23.6230  -12.4590   22.4120 H   0  0  0  0  0  0  0  0  0  0  0  0
  -22.3190  -13.6070   22.3100 H   0  0  0  0  0  0  0  0  0  0  0  0
  -26.4990  -15.6520   20.1640 N   0  0  0  0  0  0  0  0  0  0  0  0
  -25.7500  -16.3110   20.3370 H   0  0  0  0  0  0  0  0  0  0  0  0
  -27.3280  -16.0870   19.7810 H   0  0  0  0  0  0  0  0  0  0  0  0
  -29.3810  -25.9220   20.6280 C   0  0  0  0  0  2  0  0  0  0  0  0
  -29.3380  -27.0250   19.6540 O   0  0  0  0  0  0  0  0  0  0  0  0
  -24.8240  -31.5400   23.0180 C   0  0  0  0  0  0  0  0  0  0  0  0
  -28.1270  -27.7240   19.6650 C   0  0  0  0  0  0  0  0  0  0  0  0
  -23.8550  -30.0980   21.2610 C   0  0  0  0  0  3  0  0  0  0  0  0
  -25.5360  -28.9110   19.7410 C   0  0  0  0  0  0  0  0  0  0  0  0
  -26.3070  -30.8380   21.1270 C   0  0  0  0  0  2  0  0  0  0  0  0
  -26.6090  -29.5440   20.3850 C   0  0  0  0  0  0  0  0  0  0  0  0
  -27.9120  -28.9620   20.3400 C   0  0  0  0  0  3  0  0  0  0  0  0
  -27.0280  -27.1310   19.0100 C   0  0  0  0  0  3  0  0  0  0  0  0
  -25.7440  -27.7060   19.0490 C   0  0  0  0  0  3  0  0  0  0  0  0
  -24.1740  -29.5710   19.8370 C   0  0  0  0  0  2  0  0  0  0  0  0
  -25.0110  -30.8390   21.8630 N   0  0  0  0  0  0  0  0  0  0  0  0
  -23.7100  -31.6010   23.5580 O   0  0  0  0  0  0  0  0  0  0  0  0
  -23.3630  -28.9180   22.1330 C   0  0  0  0  0  0  0  0  0  0  0  0
  -22.0950  -28.5190   21.9500 N   0  0  0  0  0  0  0  0  0  0  0  0
  -24.1240  -28.3720   22.9360 O   0  0  0  0  0  0  0  0  0  0  0  0
  -21.5310  -29.0280   21.2840 H   0  0  0  0  0  0  0  0  0  0  0  0
  -18.9830  -26.6950   22.2250 C   0  0  0  0  0  0  0  0  0  0  0  0
  -21.4370  -27.4020   22.6320 C   0  0  0  0  0  3  0  0  0  0  0  0
  -21.8250  -26.0500   21.9900 C   0  0  0  0  0  2  0  0  0  0  0  0
  -20.8420  -25.5890   20.9090 C   0  0  0  0  0  2  0  0  0  0  0  0
  -19.4320  -25.4410   21.4930 C   0  0  0  0  0  2  0  0  0  0  0  0
  -19.9250  -27.6230   22.7440 C   0  0  0  0  0  0  0  0  0  0  0  0
  -19.4530  -28.7880   23.3880 C   0  0  0  0  0  3  0  0  0  0  0  0
  -18.0720  -29.0300   23.5200 C   0  0  0  0  0  3  0  0  0  0  0  0
  -17.1450  -28.1000   23.0160 C   0  0  0  0  0  3  0  0  0  0  0  0
  -17.6010  -26.9350   22.3740 C   0  0  0  0  0  3  0  0  0  0  0  0
  -25.9920  -32.3180   23.7000 C   0  0  0  0  0  3  0  0  0  0  0  0
  -25.4770  -33.6380   24.0860 N   0  0  0  0  0  0  0  0  0  0  0  0
  -25.6640  -34.7640   23.3840 C   0  0  0  0  0  0  0  0  0  0  0  0
  -26.3570  -34.8080   22.3630 O   0  0  0  0  0  0  0  0  0  0  0  0
  -24.8560  -33.6670   24.8820 H   0  0  0  0  0  0  0  0  0  0  0  0
  -23.6970  -36.3010   23.0850 C   0  0  0  0  0  1  0  0  0  0  0  0
  -24.9760  -36.0440   23.8960 C   0  0  0  0  0  3  0  0  0  0  0  0
  -26.9430  -37.1960   24.8080 C   0  0  0  0  0  1  0  0  0  0  0  0
  -25.8440  -37.2400   23.8470 N   0  0  0  0  0  0  0  0  0  0  0  0
  -25.3040  -38.0840   24.0220 H   0  0  0  0  0  0  0  0  0  0  0  0
  -26.5880  -31.5680   24.9540 C   0  0  1  0  0  0  0  0  0  0  0  0
  -25.5190  -31.1230   25.9800 C   0  0  0  0  0  1  0  0  0  0  0  0
  -27.3740  -30.3110   24.5140 C   0  0  0  0  0  1  0  0  0  0  0  0
  -27.5950  -32.4870   25.6850 C   0  0  0  0  0  1  0  0  0  0  0  0
  1  4  1  0
  2  1  2  0
  2  6  1  0
  4 52  1  0
  4  3  2  0
  5  3  1  0
  5  9  1  0
  6  5  2  0
  7  9  1  0
  9  8  1  0
 10  6  1  0
 10 12  1  0
 11 10  1  0
 13 12  2  0
 13 22  1  0
 14 20  1  0
 14 22  1  0
 15 20  1  0
 16 17  1  0
 16 15  1  0
 18 17  1  0
 18 27  1  0
 18 19  1  0
 20 19  1  0
 21 14  2  0
 22 23  1  0
 24 25  2  0
 25 44  1  0
 26 25  1  0
 26 29  1  0
 27 28  1  0
 27 24  1  0
 28 26  2  0
 29 30  1  0
 30 31  2  0
 32 35  1  0
 32 31  1  0
 33 32  2  0
 34 33  1  0
 34 29  2  0
 35 36  1  0
 36 41  2  0
 36 37  1  0
 37 38  2  0
 38 39  1  0
 39 43  1  0
 40 39  2  0
 41 40  1  0
 42 41  1  0
 44 45  1  0
 45 48  1  0
 45 47  1  0
 46 44  2  0
 49 24  1  0
 49 50  1  0
 51 49  1  0
 53 55  1  0
 53 52  1  0
 54 65  2  0
 55 60  1  0
 56 64  1  0
 56 66  1  0
 57 63  1  0
 57 59  1  0
 58 64  1  0
 59 58  1  0
 60 59  2  0
 61 62  1  0
 61 55  2  0
 62 57  2  0
 63 56  1  0
 64 54  1  0
 66 68  2  0
 67 66  1  0
 69 67  1  0
 70 79  2  0
 70 75  1  0
 71 67  1  0
 71 75  1  0
 72 71  1  0
 73 74  1  0
 73 72  1  0
 74 70  1  0
 75 76  2  0
 76 77  1  0
 78 77  2  0
 79 78  1  0
 80 54  1  0
 80 81  1  0
 80 90  1  0
 81 84  1  0
 82 86  1  0
 82 81  1  0
 83 82  2  0
 86 85  1  0
 88 86  1  0
 88 89  1  0
 88 87  1  0
 90 93  1  1
 90 91  1  0
 92 90  1  0
M  ISO  4  14 100  22 100  52 101  53 101
M  END
>  <TORSDO>  (39) 
F 21

>  <SCORE>  (39) 
-7.628

>  <name>  (39) 
38

>  <ligand_id>  (39) 
38

>  <original_smiles>  (39) 
[H]c1c([H])c([H])c2c(c1[H])C([H])([H])C([H])([H])C([H])([H])C2([H])N([H])C(=O)C1([H])N(C(=O)C([H])(N([H])C(=O)C([H])(N([H])C([H])([H])[H])C([H])([H])[H])C(C([H])([H])[H])(C([H])([H])[H])C([H])([H])[H])C([H])([H])c2c([H])c(OC([H])([H])c3c([H])c([H])c(N([H])C([H])([H])C([H])([H])N([H])C(=O)N4C([H])([H])C([H])([H])C([H])([H])C([H])(n5nc(-c6c([H])c([H])c(Oc7c([H])c([H])c(F)c([H])c7F)c([H])c6[H])c(C(=O)N([H])[H])c5N([H])[H])C4([H])[H])c(C([H])(C([H])([H])[H])C([H])([H])[H])c3[H])c([H])c([H])c2C1([H])[H]

>  <smiles>  (39) 
[H]c1c([H])c([H])c2c(c1[H])C([H])([H])C([H])([H])C([H])([H])C2([H])N([H])C(=O)C1([H])N(C(=O)C([H])(N([H])C(=O)C([H])(N([H])C([H])([H])[H])C([H])([H])[H])C(C([H])([H])[H])(C([H])([H])[H])C([H])([H])[H])C([H])([H])c2c([H])c(OC([H])([H])c3c([H])c([H])c(N([H])C([H])([H])C([H])([H])N([H])C(=O)N4C([H])([H])C([H])([H])C([H])([H])C([H])(n5nc(-c6c([H])c([H])c(Oc7c([H])c([H])c(F)c([H])c7F)c([H])c6[H])c(C(=O)N([H])[H])c5N([H])[H])C4([H])[H])c(C([H])(C([H])([H])[H])C([H])([H])[H])c3[H])c([H])c([H])c2C1([H])[H]

$$$$
39:0:0
     RDKit          3D

 92101  0  0  1  0  0  0  0  0999 V2000
  -28.5260  -20.4030   19.7280 C   0  0  0  0  0  3  0  0  0  0  0  0
  -28.5430  -21.8350   19.6640 C   0  0  0  0  0  3  0  0  0  0  0  0
  -30.0420  -20.4660   21.5780 C   0  0  0  0  0  0  0  0  0  0  0  0
  -30.0580  -21.8710   21.5160 C   0  0  0  0  0  0  0  0  0  0  0  0
  -29.2740  -19.6710   20.6920 C   0  0  0  0  0  3  0  0  0  0  0  0
  -29.3040  -22.6200   20.5720 C   0  0  0  0  0  0  0  0  0  0  0  0
  -30.9020  -19.9550   22.7060 C   0  0  0  0  0  3  0  0  0  0  0  0
  -30.9660  -22.4450   22.5770 C   0  0  0  0  0  3  0  0  0  0  0  0
  -31.4570  -21.2250   23.3860 C   0  0  0  0  0  3  0  0  0  0  0  0
  -29.1190  -18.1210   20.8660 C   0  0  0  0  0  3  0  0  0  0  0  0
  -30.2240  -17.1320   20.3270 C   0  0  0  0  0  3  0  0  0  0  0  0
  -30.6590  -14.6080   20.0940 C   0  0  0  0  0  0  0  0  0  0  0  0
  -30.3580  -12.4210   18.9660 C   0  0  0  0  0  2  0  0  0  0  0  0
  -29.3550  -12.6110   17.8050 C   0  0  0  0  0  2  0  0  0  0  0  0
  -27.9040  -12.4550   18.3020 C   0  0  0  0  0  2  0  0  0  0  0  0
  -27.6200  -13.2660   19.5950 C   0  0  0  0  0  3  0  0  0  0  0  0
  -28.7360  -13.0630   20.6460 C   0  0  0  0  0  2  0  0  0  0  0  0
  -30.0160  -13.4050   20.0100 N   0  0  0  0  0  0  0  0  0  0  0  0
  -31.7970  -14.7720   19.6420 O   0  0  0  0  0  0  0  0  0  0  0  0
  -29.9070  -15.6730   20.4910 N   0  0  0  0  0  0  0  0  0  0  0  0
  -28.9800  -15.4460   20.8190 H   0  0  0  0  0  0  0  0  0  0  0  0
  -25.2670  -13.8400   20.4500 C   0  0  0  0  0  0  0  0  0  0  0  0
  -24.2220  -13.0550   20.8570 C   0  0  0  0  0  0  0  0  0  0  0  0
  -24.6840  -11.7050   20.7680 C   0  0  0  0  0  0  0  0  0  0  0  0
  -26.2990  -12.9690   20.1410 N   0  0  0  0  0  0  0  0  0  0  0  0
  -25.9570  -11.6790   20.3920 N   0  0  0  0  0  0  0  0  0  0  0  0
  -23.9700  -10.4370   20.9640 C   0  0  0  0  0  0  0  0  0  0  0  0
  -24.4200   -9.4720   21.8930 C   0  0  0  0  0  3  0  0  0  0  0  0
  -23.7060   -8.2670   22.0750 C   0  0  0  0  0  3  0  0  0  0  0  0
  -22.5290   -8.0190   21.3300 C   0  0  0  0  0  0  0  0  0  0  0  0
  -22.1000   -8.9720   20.3910 C   0  0  0  0  0  3  0  0  0  0  0  0
  -22.8140  -10.1690   20.2050 C   0  0  0  0  0  3  0  0  0  0  0  0
  -21.7870   -6.8670   21.4230 O   0  0  0  0  0  0  0  0  0  0  0  0
  -21.7070   -6.1550   22.5930 C   0  0  0  0  0  0  0  0  0  0  0  0
  -21.1970   -6.7250   23.7810 C   0  0  0  0  0  3  0  0  0  0  0  0
  -21.0690   -5.9370   24.9410 C   0  0  0  0  0  3  0  0  0  0  0  0
  -21.4390   -4.5790   24.9160 C   0  0  0  0  0  0  0  0  0  0  0  0
  -21.9410   -4.0070   23.7330 C   0  0  0  0  0  3  0  0  0  0  0  0
  -22.0720   -4.7930   22.5750 C   0  0  0  0  0  0  0  0  0  0  0  0
  -22.5370   -4.2320   21.4330 F   0  0  0  0  0  0  0  0  0  0  0  0
  -21.3090   -3.8180   26.0280 F   0  0  0  0  0  0  0  0  0  0  0  0
  -22.8390  -13.5190   21.2120 C   0  0  0  0  0  0  0  0  0  0  0  0
  -22.1570  -12.7980   22.0940 N   0  0  0  0  0  0  0  0  0  0  0  0
  -22.3750  -14.5580   20.7430 O   0  0  0  0  0  0  0  0  0  0  0  0
  -22.5460  -11.9570   22.4960 H   0  0  0  0  0  0  0  0  0  0  0  0
  -21.2320  -13.0920   22.3720 H   0  0  0  0  0  0  0  0  0  0  0  0
  -25.4200  -15.2150   20.2940 N   0  0  0  0  0  0  0  0  0  0  0  0
  -24.6580  -15.8640   20.4520 H   0  0  0  0  0  0  0  0  0  0  0  0
  -26.2390  -15.6560   19.8960 H   0  0  0  0  0  0  0  0  0  0  0  0
  -29.3960  -24.1880   20.5250 C   0  0  0  0  0  3  0  0  0  0  0  0
  -28.1670  -25.0640   20.0830 C   0  0  0  0  0  3  0  0  0  0  0  0
  -28.3510  -26.5190   20.2290 O   0  0  0  0  0  0  0  0  0  0  0  0
  -24.5830  -31.8570   23.2280 C   0  0  0  0  0  0  0  0  0  0  0  0
  -27.2180  -27.3360   20.1710 C   0  0  0  0  0  0  0  0  0  0  0  0
  -23.3890  -30.4660   21.5730 C   0  0  0  0  0  3  0  0  0  0  0  0
  -24.8480  -28.9240   20.1510 C   0  0  0  0  0  0  0  0  0  0  0  0
  -25.9280  -30.7930   21.4050 C   0  0  0  0  0  2  0  0  0  0  0  0
  -26.0110  -29.4200   20.7550 C   0  0  0  0  0  0  0  0  0  0  0  0
  -27.2000  -28.6370   20.7540 C   0  0  0  0  0  3  0  0  0  0  0  0
  -26.0320  -26.8850   19.5480 C   0  0  0  0  0  3  0  0  0  0  0  0
  -24.8580  -27.6610   19.5410 C   0  0  0  0  0  3  0  0  0  0  0  0
  -23.6110  -29.7960   20.1920 C   0  0  0  0  0  2  0  0  0  0  0  0
  -24.6520  -31.0550   22.1260 N   0  0  0  0  0  0  0  0  0  0  0  0
  -23.4960  -32.1340   23.7560 O   0  0  0  0  0  0  0  0  0  0  0  0
  -22.7210  -29.4450   22.5240 C   0  0  0  0  0  0  0  0  0  0  0  0
  -21.3960  -29.2750   22.3900 N   0  0  0  0  0  0  0  0  0  0  0  0
  -23.3950  -28.8100   23.3390 O   0  0  0  0  0  0  0  0  0  0  0  0
  -20.9140  -29.8390   21.7040 H   0  0  0  0  0  0  0  0  0  0  0  0
  -18.0050  -28.1240   22.8900 C   0  0  0  0  0  0  0  0  0  0  0  0
  -20.5670  -28.3400   23.1510 C   0  0  0  0  0  3  0  0  0  0  0  0
  -20.6460  -26.9150   22.5540 C   0  0  0  0  0  2  0  0  0  0  0  0
  -19.5330  -26.6250   21.5410 C   0  0  0  0  0  2  0  0  0  0  0  0
  -18.1570  -26.7810   22.1940 C   0  0  0  0  0  2  0  0  0  0  0  0
  -19.1370  -28.8620   23.3250 C   0  0  0  0  0  0  0  0  0  0  0  0
  -18.9400  -30.1200   23.9350 C   0  0  0  0  0  3  0  0  0  0  0  0
  -17.6440  -30.6380   24.1160 C   0  0  0  0  0  3  0  0  0  0  0  0
  -16.5260  -29.8960   23.6980 C   0  0  0  0  0  3  0  0  0  0  0  0
  -16.7070  -28.6410   23.0880 C   0  0  0  0  0  3  0  0  0  0  0  0
  -25.8630  -32.4840   23.8620 C   0  0  0  0  0  3  0  0  0  0  0  0
  -26.3610  -31.7130   25.1460 C   0  0  1  0  0  0  0  0  0  0  0  0
  -25.2550  -31.4790   26.2010 C   0  0  0  0  0  1  0  0  0  0  0  0
  -26.9470  -30.3330   24.7630 C   0  0  0  0  0  1  0  0  0  0  0  0
  -27.5040  -32.5070   25.8230 C   0  0  0  0  0  1  0  0  0  0  0  0
  -25.5570  -33.8840   24.1850 N   0  0  0  0  0  0  0  0  0  0  0  0
  -25.8970  -34.9340   23.4240 C   0  0  0  0  0  0  0  0  0  0  0  0
  -26.5710  -34.8240   22.3970 O   0  0  0  0  0  0  0  0  0  0  0  0
  -24.9570  -34.0420   24.9820 H   0  0  0  0  0  0  0  0  0  0  0  0
  -24.1820  -36.7350   23.0510 C   0  0  0  0  0  1  0  0  0  0  0  0
  -25.4110  -36.3250   23.8760 C   0  0  0  0  0  3  0  0  0  0  0  0
  -27.5370  -37.2060   24.7350 C   0  0  0  0  0  1  0  0  0  0  0  0
  -26.4500  -37.3720   23.7730 N   0  0  0  0  0  0  0  0  0  0  0  0
  -26.0460  -38.2950   23.9080 H   0  0  0  0  0  0  0  0  0  0  0  0
  1  5  1  0
  2  1  2  0
  2  6  1  0
  3  7  2  0
  4  3  1  0
  4  8  1  0
  5 10  1  0
  5  3  1  0
  6  4  2  0
  7  9  1  0
  8  9  2  0
 11 20  1  0
 11 10  2  0
 12 20  1  0
 13 18  1  0
 14 15  1  0
 14 13  1  0
 16 15  1  0
 16 25  1  0
 16 17  1  0
 18 12  1  0
 18 17  1  0
 19 12  2  0
 20 21  1  0
 22 23  2  0
 23 42  1  0
 24 23  1  0
 24 27  1  0
 25 26  1  0
 25 22  1  0
 26 24  2  0
 27 28  1  0
 28 29  2  0
 30 33  1  0
 30 29  1  0
 31 30  2  0
 32 31  1  0
 32 27  2  0
 33 34  1  0
 34 35  1  0
 35 36  2  0
 37 36  1  0
 37 41  1  0
 38 37  2  0
 39 34  2  0
 39 38  1  0
 40 39  1  0
 42 43  1  0
 43 46  1  0
 43 45  1  0
 44 42  2  0
 47 22  1  0
 47 48  1  0
 49 47  1  0
 50  6  1  0
 51 52  1  0
 51 50  2  0
 53 64  2  0
 54 52  1  0
 54 59  1  0
 55 63  1  0
 55 65  1  0
 56 62  1  0
 56 58  1  0
 57 63  1  0
 58 57  1  0
 59 58  2  0
 60 54  2  0
 61 60  1  0
 61 56  2  0
 62 55  1  0
 63 53  1  0
 65 67  2  0
 66 65  1  0
 68 66  1  0
 69 78  2  0
 69 74  1  0
 70 66  1  0
 70 74  1  0
 71 70  1  0
 72 73  1  0
 72 71  1  0
 73 69  1  0
 74 75  2  0
 75 76  1  0
 77 76  2  0
 78 77  1  0
 79 53  1  0
 79 84  1  0
 79 80  1  0
 80 83  1  1
 80 81  1  0
 82 80  1  0
 84 87  1  0
 85 89  1  0
 85 84  1  0
 86 85  2  0
 89 88  1  0
 91 89  1  0
 91 92  1  0
 91 90  1  0
M  ISO  4  12 100  20 100  51 101  52 101
M  END
>  <TORSDO>  (40) 
F 20

>  <SCORE>  (40) 
-13.766

>  <name>  (40) 
39

>  <ligand_id>  (40) 
39

>  <original_smiles>  (40) 
[H]c1c([H])c([H])c2c(c1[H])C([H])([H])C([H])([H])C([H])([H])C2([H])N([H])C(=O)C1([H])N(C(=O)C([H])(N([H])C(=O)C([H])(N([H])C([H])([H])[H])C([H])([H])[H])C(C([H])([H])[H])(C([H])([H])[H])C([H])([H])[H])C([H])([H])c2c([H])c(OC([H])([H])C([H])([H])c3c([H])c([H])c(C([H])([H])C([H])([H])N([H])C(=O)N4C([H])([H])C([H])([H])C([H])([H])C([H])(n5nc(-c6c([H])c([H])c(Oc7c([H])c([H])c(F)c([H])c7F)c([H])c6[H])c(C(=O)N([H])[H])c5N([H])[H])C4([H])[H])c4c3C([H])([H])C([H])([H])C4([H])[H])c([H])c([H])c2C1([H])[H]

>  <smiles>  (40) 
[H]c1c([H])c([H])c2c(c1[H])C([H])([H])C([H])([H])C([H])([H])C2([H])N([H])C(=O)C1([H])N(C(=O)C([H])(N([H])C(=O)C([H])(N([H])C([H])([H])[H])C([H])([H])[H])C(C([H])([H])[H])(C([H])([H])[H])C([H])([H])[H])C([H])([H])c2c([H])c(OC([H])([H])C([H])([H])c3c([H])c([H])c(C([H])([H])C([H])([H])N([H])C(=O)N4C([H])([H])C([H])([H])C([H])([H])C([H])(n5nc(-c6c([H])c([H])c(Oc7c([H])c([H])c(F)c([H])c7F)c([H])c6[H])c(C(=O)N([H])[H])c5N([H])[H])C4([H])[H])c4c3C([H])([H])C([H])([H])C4([H])[H])c([H])c([H])c2C1([H])[H]

$$$$
40:0:0
     RDKit          3D

 98108  0  0  1  0  0  0  0  0999 V2000
  -29.3930  -19.3010   19.1310 C   0  0  0  0  0  3  0  0  0  0  0  0
  -30.3470  -18.3200   19.4480 C   0  0  0  0  0  3  0  0  0  0  0  0
  -30.9030  -18.5660   23.0480 C   0  0  0  0  0  3  0  0  0  0  0  0
  -29.2860  -19.9440   21.4860 C   0  0  0  0  0  3  0  0  0  0  0  0
  -31.7590  -17.5470   22.7200 C   0  0  0  0  0  3  0  0  0  0  0  0
  -30.2560  -18.9710   21.8300 C   0  0  0  0  0  0  0  0  0  0  0  0
  -28.8530  -20.1150   20.1480 C   0  0  0  0  0  0  0  0  0  0  0  0
  -30.7670  -18.1540   20.7800 C   0  0  0  0  0  0  0  0  0  0  0  0
  -31.6750  -17.2820   21.3570 N   0  0  0  0  0  0  0  0  0  0  0  0
  -27.7620  -21.1230   19.7940 C   0  0  0  0  0  2  0  0  0  0  0  0
  -27.9410  -24.6600   18.2810 C   0  0  0  0  0  2  0  0  0  0  0  0
  -28.7110  -24.7840   20.6200 C   0  0  0  0  0  2  0  0  0  0  0  0
  -27.5180  -23.1900   18.4840 C   0  0  0  0  0  2  0  0  0  0  0  0
  -28.3260  -23.3000   20.8370 C   0  0  0  0  0  2  0  0  0  0  0  0
  -27.7710  -25.4340   19.5970 C   0  0  0  0  0  3  0  0  0  0  0  0
  -28.2740  -22.5050   19.5740 N   0  0  1  0  0  4  0  0  0  0  0  0
  -29.2200  -22.3950   19.2440 H   0  0  0  0  0  0  0  0  0  0  0  0
  -27.9930  -26.8560   19.4600 O   0  0  0  0  0  0  0  0  0  0  0  0
  -24.5650  -31.8860   23.1670 C   0  0  0  0  0  0  0  0  0  0  0  0
  -26.8590  -27.6450   19.5590 C   0  0  0  0  0  0  0  0  0  0  0  0
  -23.2030  -30.6200   21.5400 C   0  0  0  0  0  3  0  0  0  0  0  0
  -24.5060  -29.1900   19.8790 C   0  0  0  0  0  0  0  0  0  0  0  0
  -25.7100  -30.9710   21.1460 C   0  0  0  0  0  2  0  0  0  0  0  0
  -25.7220  -29.6490   20.4020 C   0  0  0  0  0  0  0  0  0  0  0  0
  -26.9040  -28.8880   20.2360 C   0  0  0  0  0  3  0  0  0  0  0  0
  -25.6230  -27.2190   19.0170 C   0  0  0  0  0  3  0  0  0  0  0  0
  -24.4540  -27.9770   19.1790 C   0  0  0  0  0  3  0  0  0  0  0  0
  -23.2830  -30.0510   20.0990 C   0  0  0  0  0  2  0  0  0  0  0  0
  -24.5180  -31.1680   22.0090 N   0  0  0  0  0  0  0  0  0  0  0  0
  -23.5390  -32.1240   23.8170 O   0  0  0  0  0  0  0  0  0  0  0  0
  -22.6230  -29.5320   22.4730 C   0  0  0  0  0  0  0  0  0  0  0  0
  -21.3250  -29.2300   22.3090 N   0  0  0  0  0  0  0  0  0  0  0  0
  -23.3400  -28.9620   23.2990 O   0  0  0  0  0  0  0  0  0  0  0  0
  -20.8020  -29.7490   21.6170 H   0  0  0  0  0  0  0  0  0  0  0  0
  -18.0750  -27.6940   22.6590 C   0  0  0  0  0  0  0  0  0  0  0  0
  -20.5760  -28.2150   23.0490 C   0  0  0  0  0  3  0  0  0  0  0  0
  -20.8540  -26.8010   22.4910 C   0  0  0  0  0  2  0  0  0  0  0  0
  -19.8410  -26.3630   21.4290 C   0  0  0  0  0  2  0  0  0  0  0  0
  -18.4230  -26.3680   22.0040 C   0  0  0  0  0  2  0  0  0  0  0  0
  -19.0860  -28.5690   23.1350 C   0  0  0  0  0  0  0  0  0  0  0  0
  -18.7090  -29.8100   23.6970 C   0  0  0  0  0  3  0  0  0  0  0  0
  -17.3520  -30.1730   23.7940 C   0  0  0  0  0  3  0  0  0  0  0  0
  -16.3550  -29.2950   23.3360 C   0  0  0  0  0  3  0  0  0  0  0  0
  -16.7180  -28.0590   22.7720 C   0  0  0  0  0  3  0  0  0  0  0  0
  -25.9080  -32.4580   23.7190 C   0  0  0  0  0  3  0  0  0  0  0  0
  -26.5060  -31.6050   24.9010 C   0  0  1  0  0  0  0  0  0  0  0  0
  -25.4830  -31.2750   26.0120 C   0  0  0  0  0  1  0  0  0  0  0  0
  -27.0750  -30.2710   24.3680 C   0  0  0  0  0  1  0  0  0  0  0  0
  -27.6900  -32.3610   25.5480 C   0  0  0  0  0  1  0  0  0  0  0  0
  -25.6590  -33.8400   24.1480 N   0  0  0  0  0  0  0  0  0  0  0  0
  -25.9050  -34.9240   23.4000 C   0  0  0  0  0  0  0  0  0  0  0  0
  -26.4400  -34.8650   22.2890 O   0  0  0  0  0  0  0  0  0  0  0  0
  -25.1790  -33.9640   25.0280 H   0  0  0  0  0  0  0  0  0  0  0  0
  -24.1680  -36.7370   23.3300 C   0  0  0  0  0  1  0  0  0  0  0  0
  -25.4890  -36.2910   23.9750 C   0  0  0  0  0  3  0  0  0  0  0  0
  -27.7060  -37.1330   24.6100 C   0  0  0  0  0  1  0  0  0  0  0  0
  -26.5140  -37.3420   23.7920 N   0  0  0  0  0  0  0  0  0  0  0  0
  -26.1340  -38.2580   24.0130 H   0  0  0  0  0  0  0  0  0  0  0  0
  -32.4530  -16.2820   20.6470 C   0  0  0  0  0  2  0  0  0  0  0  0
  -32.0750  -14.8330   21.0220 C   0  0  0  0  0  2  0  0  0  0  0  0
  -30.3700  -14.1320   19.3580 C   0  0  0  0  0  0  0  0  0  0  0  0
  -29.6680  -12.1470   18.0930 C   0  0  0  0  0  2  0  0  0  0  0  0
  -28.4630  -12.3330   17.1620 C   0  0  0  0  0  2  0  0  0  0  0  0
  -27.1560  -12.0900   17.9300 C   0  0  0  0  0  2  0  0  0  0  0  0
  -27.0830  -12.9090   19.2440 C   0  0  0  0  0  3  0  0  0  0  0  0
  -28.3770  -12.7690   20.0840 C   0  0  0  0  0  2  0  0  0  0  0  0
  -29.5470  -13.0620   19.2370 N   0  0  0  0  0  0  0  0  0  0  0  0
  -30.9990  -14.6160   18.4120 O   0  0  0  0  0  0  0  0  0  0  0  0
  -30.7290  -14.3970   20.6220 N   0  0  0  0  0  0  0  0  0  0  0  0
  -30.1760  -13.9480   21.3390 H   0  0  0  0  0  0  0  0  0  0  0  0
  -24.9300  -13.3800   20.5770 C   0  0  0  0  0  0  0  0  0  0  0  0
  -23.9850  -12.5490   21.1150 C   0  0  0  0  0  0  0  0  0  0  0  0
  -24.4230  -11.2180   20.8350 C   0  0  0  0  0  0  0  0  0  0  0  0
  -25.8900  -12.5530   20.0130 N   0  0  0  0  0  0  0  0  0  0  0  0
  -25.5980  -11.2420   20.2180 N   0  0  0  0  0  0  0  0  0  0  0  0
  -23.7650   -9.9250   21.0690 C   0  0  0  0  0  0  0  0  0  0  0  0
  -24.2840   -8.9850   21.9870 C   0  0  0  0  0  3  0  0  0  0  0  0
  -23.6230   -7.7590   22.2080 C   0  0  0  0  0  3  0  0  0  0  0  0
  -22.4290   -7.4610   21.5110 C   0  0  0  0  0  0  0  0  0  0  0  0
  -21.9280   -8.3880   20.5810 C   0  0  0  0  0  3  0  0  0  0  0  0
  -22.5900   -9.6070   20.3580 C   0  0  0  0  0  3  0  0  0  0  0  0
  -21.7330   -6.2820   21.6420 O   0  0  0  0  0  0  0  0  0  0  0  0
  -21.6230   -5.6420   22.8500 C   0  0  0  0  0  0  0  0  0  0  0  0
  -21.0030   -6.2510   23.9640 C   0  0  0  0  0  3  0  0  0  0  0  0
  -20.8500   -5.5310   25.1650 C   0  0  0  0  0  3  0  0  0  0  0  0
  -21.3060   -4.2010   25.2530 C   0  0  0  0  0  0  0  0  0  0  0  0
  -21.9180   -3.5920   24.1440 C   0  0  0  0  0  3  0  0  0  0  0  0
  -22.0730   -4.3090   22.9450 C   0  0  0  0  0  0  0  0  0  0  0  0
  -22.6440   -3.7100   21.8720 F   0  0  0  0  0  0  0  0  0  0  0  0
  -21.1520   -3.5060   26.4040 F   0  0  0  0  0  0  0  0  0  0  0  0
  -22.6990  -12.9610   21.7720 C   0  0  0  0  0  0  0  0  0  0  0  0
  -22.2120  -12.1670   22.7210 N   0  0  0  0  0  0  0  0  0  0  0  0
  -22.1420  -14.0180   21.4820 O   0  0  0  0  0  0  0  0  0  0  0  0
  -22.6810  -11.3100   22.9730 H   0  0  0  0  0  0  0  0  0  0  0  0
  -21.3590  -12.4210   23.1990 H   0  0  0  0  0  0  0  0  0  0  0  0
  -25.0460  -14.7650   20.5050 N   0  0  0  0  0  0  0  0  0  0  0  0
  -24.3350  -15.3890   20.8720 H   0  0  0  0  0  0  0  0  0  0  0  0
  -25.8080  -15.2530   20.0520 H   0  0  0  0  0  0  0  0  0  0  0  0
  1  2  2  0
  1  7  1  0
  2  8  1  0
  4  6  1  0
  5  3  2  0
  6  3  1  0
  7  4  2  0
  8  9  1  0
  8  6  2  0
  9  5  1  0
 10  7  1  0
 11 13  1  0
 11 15  1  0
 12 14  1  0
 13 16  1  0
 15 18  1  0
 15 12  1  0
 16 10  1  0
 16 14  1  0
 16 17  1  6
 18 20  1  0
 19 30  2  0
 20 25  1  0
 21 29  1  0
 21 31  1  0
 22 28  1  0
 22 24  1  0
 23 29  1  0
 24 23  1  0
 25 24  2  0
 26 27  1  0
 26 20  2  0
 27 22  2  0
 28 21  1  0
 29 19  1  0
 31 33  2  0
 32 31  1  0
 34 32  1  0
 35 44  2  0
 35 40  1  0
 36 32  1  0
 36 40  1  0
 37 36  1  0
 38 39  1  0
 38 37  1  0
 39 35  1  0
 40 41  2  0
 41 42  1  0
 43 42  2  0
 44 43  1  0
 45 19  1  0
 45 50  1  0
 45 46  1  0
 46 49  1  1
 46 47  1  0
 48 46  1  0
 50 53  1  0
 51 55  1  0
 51 50  1  0
 52 51  2  0
 55 54  1  0
 57 55  1  0
 57 58  1  0
 57 56  1  0
 59 60  1  0
 59  9  1  0
 61 69  1  0
 62 67  1  0
 63 64  1  0
 63 62  1  0
 65 64  1  0
 65 74  1  0
 65 66  1  0
 67 61  1  0
 67 66  1  0
 68 61  2  0
 69 60  1  0
 69 70  1  0
 71 72  2  0
 72 91  1  0
 73 76  1  0
 73 72  1  0
 74 75  1  0
 74 71  1  0
 75 73  2  0
 76 77  1  0
 77 78  2  0
 79 82  1  0
 79 78  1  0
 80 79  2  0
 81 80  1  0
 81 76  2  0
 82 83  1  0
 83 88  2  0
 83 84  1  0
 84 85  2  0
 85 86  1  0
 86 90  1  0
 87 86  2  0
 88 87  1  0
 89 88  1  0
 91 92  1  0
 92 94  1  0
 92 95  1  0
 93 91  2  0
 96 71  1  0
 96 97  1  0
 98 96  1  0
M  ISO  4  15 101  18 101  61 100  69 100
M  END
>  <TORSDO>  (41) 
F 20

>  <SCORE>  (41) 
-8.909

>  <name>  (41) 
40

>  <ligand_id>  (41) 
40

>  <original_smiles>  (41) 
[H]c1c([H])c([H])c2c(c1[H])C([H])([H])C([H])([H])C([H])([H])C2([H])N([H])C(=O)C1([H])N(C(=O)C([H])(N([H])C(=O)C([H])(N([H])C([H])([H])[H])C([H])([H])[H])C(C([H])([H])[H])(C([H])([H])[H])C([H])([H])[H])C([H])([H])c2c([H])c(OC3([H])C([H])([H])C([H])([H])[N+]([H])(C([H])([H])c4c([H])c([H])c5c(c4[H])c([H])c([H])n5C([H])([H])C([H])([H])N([H])C(=O)N4C([H])([H])C([H])([H])C([H])([H])C([H])(n5nc(-c6c([H])c([H])c(Oc7c([H])c([H])c(F)c([H])c7F)c([H])c6[H])c(C(=O)N([H])[H])c5N([H])[H])C4([H])[H])C([H])([H])C3([H])[H])c([H])c([H])c2C1([H])[H]

>  <smiles>  (41) 
[H]c1c([H])c([H])c2c(c1[H])C([H])([H])C([H])([H])C([H])([H])C2([H])N([H])C(=O)C1([H])N(C(=O)C([H])(N([H])C(=O)C([H])(N([H])C([H])([H])[H])C([H])([H])[H])C(C([H])([H])[H])(C([H])([H])[H])C([H])([H])[H])C([H])([H])c2c([H])c(OC3([H])C([H])([H])C([H])([H])[N+]([H])(C([H])([H])c4c([H])c([H])c5c(c4[H])c([H])c([H])n5C([H])([H])C([H])([H])N([H])C(=O)N4C([H])([H])C([H])([H])C([H])([H])C([H])(n5nc(-c6c([H])c([H])c(Oc7c([H])c([H])c(F)c([H])c7F)c([H])c6[H])c(C(=O)N([H])[H])c5N([H])[H])C4([H])[H])C([H])([H])C3([H])[H])c([H])c([H])c2C1([H])[H]

$$$$
41:0:0
     RDKit          3D

 96105  0  0  1  0  0  0  0  0999 V2000
  -29.6970  -19.9210   21.1250 C   0  0  0  0  0  3  0  0  0  0  0  0
  -29.8600  -18.9960   18.5850 C   0  0  0  0  0  3  0  0  0  0  0  0
  -30.0570  -18.5530   20.9320 C   0  0  0  0  0  0  0  0  0  0  0  0
  -30.1060  -18.0340   19.6100 C   0  0  0  0  0  0  0  0  0  0  0  0
  -29.4870  -20.7970   20.0360 C   0  0  0  0  0  0  0  0  0  0  0  0
  -29.5800  -20.3230   18.7770 N   0  0  0  0  0  0  0  0  0  0  0  0
  -29.1250  -22.1540   20.2830 N   0  0  0  0  0  0  0  0  0  0  0  0
  -28.9680  -22.3590   21.2640 H   0  0  0  0  0  0  0  0  0  0  0  0
  -31.8340  -17.9230   22.7160 C   0  0  0  0  0  2  0  0  0  0  0  0
  -31.6440  -18.3210   24.1850 C   0  0  0  0  0  2  0  0  0  0  0  0
  -29.4510  -17.8850   23.3180 C   0  0  0  0  0  2  0  0  0  0  0  0
  -30.4180  -17.6900   22.1420 C   0  0  0  0  0  3  0  0  0  0  0  0
  -30.2990  -17.7090   24.5790 C   0  0  0  0  0  3  0  0  0  0  0  0
  -29.6770  -18.3280   25.8370 C   0  0  0  0  0  1  0  0  0  0  0  0
  -30.5850  -16.5860   19.2010 C   0  0  0  0  0  2  0  0  0  0  0  0
  -30.8050  -14.1910   19.9870 C   0  0  0  0  0  0  0  0  0  0  0  0
  -30.7970  -11.7150   19.8600 C   0  0  0  0  0  2  0  0  0  0  0  0
  -30.0120  -11.2630   18.6120 C   0  0  0  0  0  2  0  0  0  0  0  0
  -28.5160  -11.1140   18.9480 C   0  0  0  0  0  2  0  0  0  0  0  0
  -27.9480  -12.3440   19.7040 C   0  0  0  0  0  3  0  0  0  0  0  0
  -28.8690  -12.7920   20.8610 C   0  0  0  0  0  2  0  0  0  0  0  0
  -30.2130  -12.9980   20.3050 N   0  0  0  0  0  0  0  0  0  0  0  0
  -32.0100  -14.2440   19.7310 O   0  0  0  0  0  0  0  0  0  0  0  0
  -30.0220  -15.2930   19.7410 N   0  0  0  0  0  0  0  0  0  0  0  0
  -29.0280  -15.2120   19.8810 H   0  0  0  0  0  0  0  0  0  0  0  0
  -25.5200  -13.0020   20.2170 C   0  0  0  0  0  0  0  0  0  0  0  0
  -24.4390  -12.2730   20.6310 C   0  0  0  0  0  0  0  0  0  0  0  0
  -24.9040  -10.9320   20.7920 C   0  0  0  0  0  0  0  0  0  0  0  0
  -26.5790  -12.1100   20.1550 N   0  0  0  0  0  0  0  0  0  0  0  0
  -26.2100  -10.8680   20.5600 N   0  0  0  0  0  0  0  0  0  0  0  0
  -24.1690   -9.6970   21.0940 C   0  0  0  0  0  0  0  0  0  0  0  0
  -24.2790   -9.0610   22.3490 C   0  0  0  0  0  3  0  0  0  0  0  0
  -23.5470   -7.8850   22.6230 C   0  0  0  0  0  3  0  0  0  0  0  0
  -22.6900   -7.3370   21.6390 C   0  0  0  0  0  0  0  0  0  0  0  0
  -22.6030   -7.9610   20.3820 C   0  0  0  0  0  3  0  0  0  0  0  0
  -23.3370   -9.1280   20.1090 C   0  0  0  0  0  3  0  0  0  0  0  0
  -21.9600   -6.1850   21.8060 O   0  0  0  0  0  0  0  0  0  0  0  0
  -21.2550   -5.9420   22.9570 C   0  0  0  0  0  0  0  0  0  0  0  0
  -20.2170   -6.7950   23.3900 C   0  0  0  0  0  3  0  0  0  0  0  0
  -19.4720   -6.4710   24.5420 C   0  0  0  0  0  3  0  0  0  0  0  0
  -19.7570   -5.2910   25.2560 C   0  0  0  0  0  0  0  0  0  0  0  0
  -20.7860   -4.4370   24.8230 C   0  0  0  0  0  3  0  0  0  0  0  0
  -21.5310   -4.7610   23.6750 C   0  0  0  0  0  0  0  0  0  0  0  0
  -22.5080   -3.9230   23.2510 F   0  0  0  0  0  0  0  0  0  0  0  0
  -19.0360   -4.9740   26.3570 F   0  0  0  0  0  0  0  0  0  0  0  0
  -23.0290  -12.7710   20.7680 C   0  0  0  0  0  0  0  0  0  0  0  0
  -22.2690  -12.2090   21.7020 N   0  0  0  0  0  0  0  0  0  0  0  0
  -22.6080  -13.6970   20.0760 O   0  0  0  0  0  0  0  0  0  0  0  0
  -22.6220  -11.4630   22.2830 H   0  0  0  0  0  0  0  0  0  0  0  0
  -21.3220  -12.5320   21.8390 H   0  0  0  0  0  0  0  0  0  0  0  0
  -25.6840  -14.3350   19.8600 N   0  0  0  0  0  0  0  0  0  0  0  0
  -24.9040  -14.9810   19.8410 H   0  0  0  0  0  0  0  0  0  0  0  0
  -26.5340  -14.7280   19.4790 H   0  0  0  0  0  0  0  0  0  0  0  0
  -29.4430  -23.3750   19.4800 C   0  0  0  0  0  2  0  0  0  0  0  0
  -28.3330  -24.5060   19.6060 C   0  0  0  0  0  2  0  0  0  0  0  0
  -28.5980  -25.9540   19.4150 O   0  0  0  0  0  0  0  0  0  0  0  0
  -25.0640  -31.2560   22.8200 C   0  0  0  0  0  0  0  0  0  0  0  0
  -27.4750  -26.7980   19.4680 C   0  0  0  0  0  0  0  0  0  0  0  0
  -23.7450  -29.8530   21.2780 C   0  0  0  0  0  3  0  0  0  0  0  0
  -25.0890  -28.3630   19.7020 C   0  0  0  0  0  0  0  0  0  0  0  0
  -26.2510  -30.2300   20.8700 C   0  0  0  0  0  2  0  0  0  0  0  0
  -26.3000  -28.8650   20.1960 C   0  0  0  0  0  0  0  0  0  0  0  0
  -27.4960  -28.0950   20.0710 C   0  0  0  0  0  3  0  0  0  0  0  0
  -26.2330  -26.3600   18.9470 C   0  0  0  0  0  3  0  0  0  0  0  0
  -25.0580  -27.1160   19.0680 C   0  0  0  0  0  3  0  0  0  0  0  0
  -23.8450  -29.2070   19.8740 C   0  0  0  0  0  2  0  0  0  0  0  0
  -25.0440  -30.4620   21.7110 N   0  0  0  0  0  0  0  0  0  0  0  0
  -24.0270  -31.5030   23.4540 O   0  0  0  0  0  0  0  0  0  0  0  0
  -23.1950  -28.8060   22.2770 C   0  0  0  0  0  0  0  0  0  0  0  0
  -21.8950  -28.4840   22.1620 N   0  0  0  0  0  0  0  0  0  0  0  0
  -23.9360  -28.2850   23.1140 O   0  0  0  0  0  0  0  0  0  0  0  0
  -21.3510  -28.9640   21.4580 H   0  0  0  0  0  0  0  0  0  0  0  0
  -18.7000  -26.8510   22.6160 C   0  0  0  0  0  0  0  0  0  0  0  0
  -21.1780  -27.4980   22.9690 C   0  0  0  0  0  3  0  0  0  0  0  0
  -21.5100  -26.0570   22.5170 C   0  0  0  0  0  2  0  0  0  0  0  0
  -20.5200  -25.5030   21.4880 C   0  0  0  0  0  2  0  0  0  0  0  0
  -19.1000  -25.4940   22.0620 C   0  0  0  0  0  2  0  0  0  0  0  0
  -19.6760  -27.7970   23.0280 C   0  0  0  0  0  0  0  0  0  0  0  0
  -19.2500  -29.0560   23.5060 C   0  0  0  0  0  3  0  0  0  0  0  0
  -17.8810  -29.3730   23.5770 C   0  0  0  0  0  3  0  0  0  0  0  0
  -16.9190  -28.4280   23.1830 C   0  0  0  0  0  3  0  0  0  0  0  0
  -17.3280  -27.1690   22.7060 C   0  0  0  0  0  3  0  0  0  0  0  0
  -26.3840  -31.9080   23.3330 C   0  0  0  0  0  3  0  0  0  0  0  0
  -27.1080  -31.0540   24.4450 C   0  0  1  0  0  0  0  0  0  0  0  0
  -26.1710  -30.5970   25.5860 C   0  0  0  0  0  1  0  0  0  0  0  0
  -27.7540  -29.7900   23.8300 C   0  0  0  0  0  1  0  0  0  0  0  0
  -28.2580  -31.8770   25.0690 C   0  0  0  0  0  1  0  0  0  0  0  0
  -26.0480  -33.2450   23.8430 N   0  0  0  0  0  0  0  0  0  0  0  0
  -26.2690  -34.3910   23.1830 C   0  0  0  0  0  0  0  0  0  0  0  0
  -26.8480  -34.4340   22.0940 O   0  0  0  0  0  0  0  0  0  0  0  0
  -25.5220  -33.2820   24.7030 H   0  0  0  0  0  0  0  0  0  0  0  0
  -24.4570  -36.1370   23.1640 C   0  0  0  0  0  1  0  0  0  0  0  0
  -25.7680  -35.6940   23.8340 C   0  0  0  0  0  3  0  0  0  0  0  0
  -27.9210  -36.5720   24.6230 C   0  0  0  0  0  1  0  0  0  0  0  0
  -26.7520  -36.7960   23.7760 N   0  0  0  0  0  0  0  0  0  0  0  0
  -26.3250  -37.6770   24.0540 H   0  0  0  0  0  0  0  0  0  0  0  0
  2  6  2  0
  2  4  1  0
  3  1  1  0
  4  3  2  0
  5  7  1  0
  5  1  2  0
  6  5  1  0
  7  8  1  0
  9 10  1  0
 10 13  1  0
 11 13  1  0
 12  3  1  0
 12  9  1  0
 12 11  1  0
 13 14  1  0
 15  4  1  0
 15 24  1  0
 16 22  1  0
 17 22  1  0
 18 19  1  0
 18 17  1  0
 20 19  1  0
 20 29  1  0
 20 21  1  0
 22 21  1  0
 23 16  2  0
 24 25  1  0
 24 16  1  0
 26 27  2  0
 27 46  1  0
 27 28  1  0
 28 31  1  0
 29 26  1  0
 29 30  1  0
 30 28  2  0
 31 32  1  0
 32 33  2  0
 34 37  1  0
 34 33  1  0
 35 34  2  0
 36 35  1  0
 36 31  2  0
 37 38  1  0
 38 39  2  0
 38 43  1  0
 39 40  1  0
 40 41  2  0
 41 45  1  0
 42 41  1  0
 43 42  2  0
 44 43  1  0
 46 47  1  0
 47 50  1  0
 47 49  1  0
 48 46  2  0
 51 26  1  0
 52 51  1  0
 53 51  1  0
 54 55  1  0
 54  7  1  0
 56 58  1  0
 56 55  1  0
 57 68  2  0
 58 63  1  0
 59 67  1  0
 59 69  1  0
 60 66  1  0
 60 62  1  0
 61 67  1  0
 62 61  1  0
 63 62  2  0
 64 65  1  0
 64 58  2  0
 65 60  2  0
 66 59  1  0
 67 57  1  0
 69 71  2  0
 70 69  1  0
 72 70  1  0
 73 82  2  0
 73 78  1  0
 74 70  1  0
 74 78  1  0
 75 74  1  0
 76 77  1  0
 76 75  1  0
 77 73  1  0
 78 79  2  0
 79 80  1  0
 81 80  2  0
 82 81  1  0
 83 57  1  0
 83 88  1  0
 83 84  1  0
 84 87  1  1
 84 85  1  0
 86 84  1  0
 88 91  1  0
 89 93  1  0
 89 88  1  0
 90 89  2  0
 93 92  1  0
 95 93  1  0
 95 96  1  0
 95 94  1  0
M  ISO  4  16 100  24 100  55 101  56 101
M  END
>  <TORSDO>  (42) 
F 20

>  <SCORE>  (42) 
-0.094

>  <name>  (42) 
41

>  <ligand_id>  (42) 
41

>  <original_smiles>  (42) 
[H]c1nc(N([H])C([H])([H])C([H])([H])Oc2c([H])c([H])c3c(c2[H])C([H])([H])N(C(=O)C([H])(N([H])C(=O)C([H])(N([H])C([H])([H])[H])C([H])([H])[H])C(C([H])([H])[H])(C([H])([H])[H])C([H])([H])[H])C([H])(C(=O)N([H])C2([H])c4c([H])c([H])c([H])c([H])c4C([H])([H])C([H])([H])C2([H])[H])C3([H])[H])c([H])c(C2([H])C([H])([H])C([H])([H])C([H])(C([H])([H])[H])C2([H])[H])c1C([H])([H])N([H])C(=O)N1C([H])([H])C([H])([H])C([H])([H])C([H])(n2nc(-c3c([H])c([H])c(Oc4c([H])c([H])c(F)c([H])c4F)c([H])c3[H])c(C(=O)N([H])[H])c2N([H])[H])C1([H])[H]

>  <smiles>  (42) 
[H]c1nc(N([H])C([H])([H])C([H])([H])Oc2c([H])c([H])c3c(c2[H])C([H])([H])N(C(=O)C([H])(N([H])C(=O)C([H])(N([H])C([H])([H])[H])C([H])([H])[H])C(C([H])([H])[H])(C([H])([H])[H])C([H])([H])[H])C([H])(C(=O)N([H])C2([H])c4c([H])c([H])c([H])c([H])c4C([H])([H])C([H])([H])C2([H])[H])C3([H])[H])c([H])c(C2([H])C([H])([H])C([H])([H])C([H])(C([H])([H])[H])C2([H])[H])c1C([H])([H])N([H])C(=O)N1C([H])([H])C([H])([H])C([H])([H])C([H])(n2nc(-c3c([H])c([H])c(Oc4c([H])c([H])c(F)c([H])c4F)c([H])c3[H])c(C(=O)N([H])[H])c2N([H])[H])C1([H])[H]

$$$$
42:0:0
     RDKit          3D

 91 99  0  0  1  0  0  0  0  0999 V2000
  -29.8740  -23.4580   17.2570 C   0  0  0  0  0  3  0  0  0  0  0  0
  -29.2470  -24.0620   18.3500 C   0  0  0  0  0  3  0  0  0  0  0  0
  -29.8430  -21.3530   18.4380 C   0  0  0  0  0  3  0  0  0  0  0  0
  -30.1740  -22.1000   17.2990 C   0  0  0  0  0  0  0  0  0  0  0  0
  -28.8690  -23.3890   19.5410 C   0  0  0  0  0  0  0  0  0  0  0  0
  -29.1850  -21.8690   19.5890 C   0  0  0  0  0  0  0  0  0  0  0  0
  -30.8590  -21.4430   16.1160 C   0  0  0  0  0  1  0  0  0  0  0  0
  -29.0480  -20.7190   20.5380 N   0  0  0  0  0  0  0  0  0  0  0  0
  -28.7010  -20.9840   21.4590 H   0  0  0  0  0  0  0  0  0  0  0  0
  -28.8980  -19.1530   20.2370 C   0  0  0  0  0  3  0  0  0  0  0  0
  -30.0080  -17.8680   20.5130 C   0  0  0  0  0  3  0  0  0  0  0  0
  -30.4670  -15.0850   20.3130 C   0  0  0  0  0  0  0  0  0  0  0  0
  -30.3720  -12.7170   19.3580 C   0  0  0  0  0  2  0  0  0  0  0  0
  -29.4220  -12.6350   18.1400 C   0  0  0  0  0  2  0  0  0  0  0  0
  -27.9710  -12.3960   18.5970 C   0  0  0  0  0  2  0  0  0  0  0  0
  -27.5660  -13.3160   19.7780 C   0  0  0  0  0  3  0  0  0  0  0  0
  -28.6380  -13.3570   20.8870 C   0  0  0  0  0  2  0  0  0  0  0  0
  -29.8830  -13.8110   20.2530 N   0  0  0  0  0  0  0  0  0  0  0  0
  -31.6730  -15.1370   20.0450 O   0  0  0  0  0  0  0  0  0  0  0  0
  -29.6880  -16.2900   20.4710 N   0  0  0  0  0  0  0  0  0  0  0  0
  -28.7110  -16.0860   20.6180 H   0  0  0  0  0  0  0  0  0  0  0  0
  -25.1980  -13.8660   20.5640 C   0  0  0  0  0  0  0  0  0  0  0  0
  -24.1460  -13.0810   20.9460 C   0  0  0  0  0  0  0  0  0  0  0  0
  -24.6210  -11.7340   20.9000 C   0  0  0  0  0  0  0  0  0  0  0  0
  -26.2430  -12.9980   20.3010 N   0  0  0  0  0  0  0  0  0  0  0  0
  -25.9080  -11.7100   20.5690 N   0  0  0  0  0  0  0  0  0  0  0  0
  -23.9060  -10.4660   21.0890 C   0  0  0  0  0  0  0  0  0  0  0  0
  -24.3590   -9.4900   22.0040 C   0  0  0  0  0  3  0  0  0  0  0  0
  -23.6420   -8.2870   22.1830 C   0  0  0  0  0  3  0  0  0  0  0  0
  -22.4560   -8.0520   21.4480 C   0  0  0  0  0  0  0  0  0  0  0  0
  -22.0210   -9.0170   20.5220 C   0  0  0  0  0  3  0  0  0  0  0  0
  -22.7390  -10.2090   20.3410 C   0  0  0  0  0  3  0  0  0  0  0  0
  -21.7060   -6.9030   21.5390 O   0  0  0  0  0  0  0  0  0  0  0  0
  -21.6900   -6.1430   22.6810 C   0  0  0  0  0  0  0  0  0  0  0  0
  -21.2920   -6.6770   23.9250 C   0  0  0  0  0  3  0  0  0  0  0  0
  -21.2220   -5.8430   25.0600 C   0  0  0  0  0  3  0  0  0  0  0  0
  -21.5420   -4.4770   24.9500 C   0  0  0  0  0  0  0  0  0  0  0  0
  -21.9340   -3.9420   23.7100 C   0  0  0  0  0  3  0  0  0  0  0  0
  -22.0050   -4.7730   22.5780 C   0  0  0  0  0  0  0  0  0  0  0  0
  -22.3630   -4.2480   21.3810 F   0  0  0  0  0  0  0  0  0  0  0  0
  -21.4680   -3.6730   26.0360 F   0  0  0  0  0  0  0  0  0  0  0  0
  -22.7490  -13.5460   21.2360 C   0  0  0  0  0  0  0  0  0  0  0  0
  -22.0360  -12.8400   22.1050 N   0  0  0  0  0  0  0  0  0  0  0  0
  -22.3000  -14.5720   20.7270 O   0  0  0  0  0  0  0  0  0  0  0  0
  -22.4130  -12.0110   22.5400 H   0  0  0  0  0  0  0  0  0  0  0  0
  -21.0990  -13.1340   22.3420 H   0  0  0  0  0  0  0  0  0  0  0  0
  -25.3460  -15.2390   20.3900 N   0  0  0  0  0  0  0  0  0  0  0  0
  -24.5670  -15.8800   20.5020 H   0  0  0  0  0  0  0  0  0  0  0  0
  -26.1660  -15.6820   19.9970 H   0  0  0  0  0  0  0  0  0  0  0  0
  -28.1170  -24.5560   20.4580 C   0  0  0  0  0  2  0  0  0  0  0  0
  -28.2770  -26.1230   20.2020 O   0  0  0  0  0  0  0  0  0  0  0  0
  -24.6550  -31.8840   23.2050 C   0  0  0  0  0  0  0  0  0  0  0  0
  -27.2080  -27.1100   20.1940 C   0  0  0  0  0  0  0  0  0  0  0  0
  -23.4450  -30.4760   21.5840 C   0  0  0  0  0  3  0  0  0  0  0  0
  -24.8820  -28.8830   20.1610 C   0  0  0  0  0  0  0  0  0  0  0  0
  -25.9990  -30.7330   21.3970 C   0  0  0  0  0  2  0  0  0  0  0  0
  -26.0680  -29.3300   20.7550 C   0  0  0  0  0  0  0  0  0  0  0  0
  -27.2330  -28.4630   20.7460 C   0  0  0  0  0  3  0  0  0  0  0  0
  -25.9940  -26.7730   19.5610 C   0  0  0  0  0  3  0  0  0  0  0  0
  -24.8600  -27.6200   19.5460 C   0  0  0  0  0  3  0  0  0  0  0  0
  -23.6560  -29.7850   20.2100 C   0  0  0  0  0  2  0  0  0  0  0  0
  -24.7210  -31.0540   22.1160 N   0  0  0  0  0  0  0  0  0  0  0  0
  -23.5720  -32.1700   23.7390 O   0  0  0  0  0  0  0  0  0  0  0  0
  -22.7710  -29.4770   22.5600 C   0  0  0  0  0  0  0  0  0  0  0  0
  -21.4440  -29.2960   22.4370 N   0  0  0  0  0  0  0  0  0  0  0  0
  -23.4480  -28.8670   23.3910 O   0  0  0  0  0  0  0  0  0  0  0  0
  -20.9540  -29.8400   21.7410 H   0  0  0  0  0  0  0  0  0  0  0  0
  -18.0780  -28.0530   22.9430 C   0  0  0  0  0  0  0  0  0  0  0  0
  -20.6310  -28.3600   23.2200 C   0  0  0  0  0  3  0  0  0  0  0  0
  -20.7570  -26.9200   22.6710 C   0  0  0  0  0  2  0  0  0  0  0  0
  -19.6660  -26.5630   21.6560 C   0  0  0  0  0  2  0  0  0  0  0  0
  -18.2800  -26.6960   22.2890 C   0  0  0  0  0  2  0  0  0  0  0  0
  -19.1810  -28.8410   23.3650 C   0  0  0  0  0  0  0  0  0  0  0  0
  -18.9380  -30.1080   23.9380 C   0  0  0  0  0  3  0  0  0  0  0  0
  -17.6240  -30.5880   24.0920 C   0  0  0  0  0  3  0  0  0  0  0  0
  -16.5350  -29.7990   23.6840 C   0  0  0  0  0  3  0  0  0  0  0  0
  -16.7620  -28.5330   23.1150 C   0  0  0  0  0  3  0  0  0  0  0  0
  -25.9350  -32.5270   23.8190 C   0  0  0  0  0  3  0  0  0  0  0  0
  -26.4620  -31.7610   25.0960 C   0  0  1  0  0  0  0  0  0  0  0  0
  -25.3770  -31.5270   26.1730 C   0  0  0  0  0  1  0  0  0  0  0  0
  -27.0440  -30.3820   24.7090 C   0  0  0  0  0  1  0  0  0  0  0  0
  -27.6170  -32.5590   25.7460 C   0  0  0  0  0  1  0  0  0  0  0  0
  -25.6190  -33.9240   24.1570 N   0  0  0  0  0  0  0  0  0  0  0  0
  -25.9440  -34.9860   23.4080 C   0  0  0  0  0  0  0  0  0  0  0  0
  -26.6080  -34.8930   22.3720 O   0  0  0  0  0  0  0  0  0  0  0  0
  -25.0270  -34.0700   24.9620 H   0  0  0  0  0  0  0  0  0  0  0  0
  -24.2140  -36.7860   23.0810 C   0  0  0  0  0  1  0  0  0  0  0  0
  -25.4590  -36.3710   23.8820 C   0  0  0  0  0  3  0  0  0  0  0  0
  -27.5970  -37.2520   24.7120 C   0  0  0  0  0  1  0  0  0  0  0  0
  -26.4920  -37.4260   23.7740 N   0  0  0  0  0  0  0  0  0  0  0  0
  -26.0850  -38.3450   23.9290 H   0  0  0  0  0  0  0  0  0  0  0  0
  1  4  2  0
  1  2  1  0
  2  5  2  0
  3  6  2  0
  4  3  1  0
  5  6  1  0
  5 50  1  0
  6  8  1  0
  7  4  1  0
  8  9  1  0
 10 11  2  0
 10  8  1  0
 12 20  1  0
 13 18  1  0
 14 15  1  0
 14 13  1  0
 16 15  1  0
 16 25  1  0
 16 17  1  0
 18 12  1  0
 18 17  1  0
 19 12  2  0
 20 11  1  0
 20 21  1  0
 22 23  2  0
 23 42  1  0
 24 23  1  0
 24 27  1  0
 25 22  1  0
 25 26  1  0
 26 24  2  0
 27 28  1  0
 28 29  2  0
 30 33  1  0
 30 29  1  0
 31 30  2  0
 32 31  1  0
 32 27  2  0
 33 34  1  0
 34 35  1  0
 35 36  2  0
 37 36  1  0
 37 41  1  0
 38 37  2  0
 39 34  2  0
 39 38  1  0
 40 39  1  0
 42 43  1  0
 43 46  1  0
 43 45  1  0
 44 42  2  0
 47 48  1  0
 47 22  1  0
 49 47  1  0
 51 50  1  0
 52 63  2  0
 53 51  1  0
 53 58  1  0
 54 62  1  0
 54 64  1  0
 55 61  1  0
 55 57  1  0
 56 62  1  0
 57 56  1  0
 58 57  2  0
 59 53  2  0
 60 59  1  0
 60 55  2  0
 61 54  1  0
 62 52  1  0
 64 66  2  0
 65 64  1  0
 67 65  1  0
 68 77  2  0
 68 73  1  0
 69 65  1  0
 69 73  1  0
 70 69  1  0
 71 72  1  0
 71 70  1  0
 72 68  1  0
 73 74  2  0
 74 75  1  0
 76 75  2  0
 77 76  1  0
 78 52  1  0
 78 83  1  0
 78 79  1  0
 79 82  1  1
 79 80  1  0
 81 79  1  0
 83 86  1  0
 84 88  1  0
 84 83  1  0
 85 84  2  0
 88 87  1  0
 90 88  1  0
 90 91  1  0
 90 89  1  0
M  ISO  4  12 100  20 100  50 101  51 101
M  END
>  <TORSDO>  (43) 
F 20

>  <SCORE>  (43) 
-14.496

>  <name>  (43) 
42

>  <ligand_id>  (43) 
42

>  <original_smiles>  (43) 
[H]c1c([H])c([H])c2c(c1[H])C([H])([H])C([H])([H])C([H])([H])C2([H])N([H])C(=O)C1([H])N(C(=O)C([H])(N([H])C(=O)C([H])(N([H])C([H])([H])[H])C([H])([H])[H])C(C([H])([H])[H])(C([H])([H])[H])C([H])([H])[H])C([H])([H])c2c([H])c(OC([H])([H])c3c([H])c([H])c(C([H])([H])[H])c([H])c3N([H])C([H])([H])C([H])([H])N([H])C(=O)N3C([H])([H])C([H])([H])C([H])([H])C([H])(n4nc(-c5c([H])c([H])c(Oc6c([H])c([H])c(F)c([H])c6F)c([H])c5[H])c(C(=O)N([H])[H])c4N([H])[H])C3([H])[H])c([H])c([H])c2C1([H])[H]

>  <smiles>  (43) 
[H]c1c([H])c([H])c2c(c1[H])C([H])([H])C([H])([H])C([H])([H])C2([H])N([H])C(=O)C1([H])N(C(=O)C([H])(N([H])C(=O)C([H])(N([H])C([H])([H])[H])C([H])([H])[H])C(C([H])([H])[H])(C([H])([H])[H])C([H])([H])[H])C([H])([H])c2c([H])c(OC([H])([H])c3c([H])c([H])c(C([H])([H])[H])c([H])c3N([H])C([H])([H])C([H])([H])N([H])C(=O)N3C([H])([H])C([H])([H])C([H])([H])C([H])(n4nc(-c5c([H])c([H])c(Oc6c([H])c([H])c(F)c([H])c6F)c([H])c5[H])c(C(=O)N([H])[H])c4N([H])[H])C3([H])[H])c([H])c([H])c2C1([H])[H]

$$$$
43:0:0
     RDKit          3D

 94103  0  0  1  0  0  0  0  0999 V2000
  -28.2420  -20.2870   19.7420 C   0  0  0  0  0  3  0  0  0  0  0  0
  -28.4030  -18.8110   19.7310 C   0  0  0  0  0  3  0  0  0  0  0  0
  -30.3610  -18.9730   20.9250 C   0  0  0  0  0  3  0  0  0  0  0  0
  -29.1210  -21.2580   20.3710 C   0  0  0  0  0  0  0  0  0  0  0  0
  -30.1950  -20.4520   20.9740 C   0  0  0  0  0  0  0  0  0  0  0  0
  -29.4830  -18.0060   20.3000 C   0  0  0  0  0  0  0  0  0  0  0  0
  -30.1890  -23.4840   21.3240 C   0  0  0  0  0  2  0  0  0  0  0  0
  -31.4780  -22.6450   21.3240 C   0  0  0  0  0  2  0  0  0  0  0  0
  -29.1350  -23.0060   20.3120 C   0  0  0  0  0  3  0  0  0  0  0  0
  -31.2720  -21.1850   21.7680 C   0  0  0  0  0  3  0  0  0  0  0  0
  -30.3800  -15.2220   20.2520 C   0  0  0  0  0  0  0  0  0  0  0  0
  -30.3750  -12.8020   19.3430 C   0  0  0  0  0  2  0  0  0  0  0  0
  -29.4250  -12.6350   18.1310 C   0  0  0  0  0  2  0  0  0  0  0  0
  -27.9790  -12.3680   18.5940 C   0  0  0  0  0  2  0  0  0  0  0  0
  -27.5540  -13.3090   19.7500 C   0  0  0  0  0  3  0  0  0  0  0  0
  -28.6260  -13.4090   20.8550 C   0  0  0  0  0  2  0  0  0  0  0  0
  -29.8480  -13.9110   20.2070 N   0  0  0  0  0  0  0  0  0  0  0  0
  -31.5950  -15.2880   20.0230 O   0  0  0  0  0  0  0  0  0  0  0  0
  -29.5100  -16.4030   20.3180 N   0  0  0  0  0  0  0  0  0  0  0  0
  -28.5660  -16.0490   20.3250 H   0  0  0  0  0  0  0  0  0  0  0  0
  -25.1920  -13.8520   20.5550 C   0  0  0  0  0  0  0  0  0  0  0  0
  -24.1420  -13.0660   20.9360 C   0  0  0  0  0  0  0  0  0  0  0  0
  -24.6150  -11.7190   20.8780 C   0  0  0  0  0  0  0  0  0  0  0  0
  -26.2350  -12.9850   20.2790 N   0  0  0  0  0  0  0  0  0  0  0  0
  -25.9000  -11.6960   20.5420 N   0  0  0  0  0  0  0  0  0  0  0  0
  -23.8970  -10.4500   21.0630 C   0  0  0  0  0  0  0  0  0  0  0  0
  -24.3470   -9.4730   21.9790 C   0  0  0  0  0  3  0  0  0  0  0  0
  -23.6270   -8.2720   22.1550 C   0  0  0  0  0  3  0  0  0  0  0  0
  -22.4450   -8.0380   21.4150 C   0  0  0  0  0  0  0  0  0  0  0  0
  -22.0130   -9.0030   20.4880 C   0  0  0  0  0  3  0  0  0  0  0  0
  -22.7330  -10.1970   20.3100 C   0  0  0  0  0  3  0  0  0  0  0  0
  -21.6940   -6.8900   21.5020 O   0  0  0  0  0  0  0  0  0  0  0  0
  -21.6580   -6.1390   22.6480 C   0  0  0  0  0  0  0  0  0  0  0  0
  -21.2230   -6.6790   23.8790 C   0  0  0  0  0  3  0  0  0  0  0  0
  -21.1350   -5.8540   25.0180 C   0  0  0  0  0  3  0  0  0  0  0  0
  -21.4710   -4.4890   24.9280 C   0  0  0  0  0  0  0  0  0  0  0  0
  -21.8980   -3.9480   23.7020 C   0  0  0  0  0  3  0  0  0  0  0  0
  -21.9880   -4.7710   22.5660 C   0  0  0  0  0  0  0  0  0  0  0  0
  -22.3800   -4.2410   21.3830 F   0  0  0  0  0  0  0  0  0  0  0  0
  -21.3790   -3.6950   26.0190 F   0  0  0  0  0  0  0  0  0  0  0  0
  -22.7460  -13.5320   21.2340 C   0  0  0  0  0  0  0  0  0  0  0  0
  -22.0380  -12.8270   22.1080 N   0  0  0  0  0  0  0  0  0  0  0  0
  -22.2950  -14.5580   20.7280 O   0  0  0  0  0  0  0  0  0  0  0  0
  -22.4170  -11.9980   22.5400 H   0  0  0  0  0  0  0  0  0  0  0  0
  -21.1020  -13.1230   22.3500 H   0  0  0  0  0  0  0  0  0  0  0  0
  -25.3410  -15.2260   20.3890 N   0  0  0  0  0  0  0  0  0  0  0  0
  -24.5650  -15.8670   20.5200 H   0  0  0  0  0  0  0  0  0  0  0  0
  -26.1580  -15.6740   19.9980 H   0  0  0  0  0  0  0  0  0  0  0  0
  -30.9700  -21.0940   23.2050 N   0  0  0  0  0  4  0  0  0  0  0  0
  -30.0880  -21.5240   23.4120 H   0  0  0  0  0  0  0  0  0  0  0  0
  -31.6890  -21.5380   23.7470 H   0  0  0  0  0  0  0  0  0  0  0  0
  -30.9210  -20.1310   23.4820 H   0  0  0  0  0  0  0  0  0  0  0  0
  -27.9610  -24.3330   20.2960 C   0  0  0  0  0  2  0  0  0  0  0  0
  -28.1920  -25.9510   20.3110 O   0  0  0  0  0  0  0  0  0  0  0  0
  -24.6350  -31.8850   23.2520 C   0  0  0  0  0  0  0  0  0  0  0  0
  -27.1640  -27.0140   20.2600 C   0  0  0  0  0  0  0  0  0  0  0  0
  -23.4290  -30.4880   21.6210 C   0  0  0  0  0  3  0  0  0  0  0  0
  -24.8660  -28.8720   20.2080 C   0  0  0  0  0  0  0  0  0  0  0  0
  -25.9940  -30.6970   21.4660 C   0  0  0  0  0  2  0  0  0  0  0  0
  -26.0570  -29.2870   20.8190 C   0  0  0  0  0  0  0  0  0  0  0  0
  -27.2030  -28.3800   20.8170 C   0  0  0  0  0  3  0  0  0  0  0  0
  -25.9430  -26.7350   19.6080 C   0  0  0  0  0  3  0  0  0  0  0  0
  -24.8330  -27.6150   19.5820 C   0  0  0  0  0  3  0  0  0  0  0  0
  -23.6520  -29.7950   20.2490 C   0  0  0  0  0  2  0  0  0  0  0  0
  -24.7070  -31.0500   22.1660 N   0  0  0  0  0  0  0  0  0  0  0  0
  -23.5480  -32.1840   23.7730 O   0  0  0  0  0  0  0  0  0  0  0  0
  -22.7330  -29.4990   22.5920 C   0  0  0  0  0  0  0  0  0  0  0  0
  -21.4030  -29.3380   22.4660 N   0  0  0  0  0  0  0  0  0  0  0  0
  -23.3960  -28.8780   23.4260 O   0  0  0  0  0  0  0  0  0  0  0  0
  -20.9230  -29.8910   21.7700 H   0  0  0  0  0  0  0  0  0  0  0  0
  -18.0150  -28.1430   22.9710 C   0  0  0  0  0  0  0  0  0  0  0  0
  -20.5740  -28.4100   23.2430 C   0  0  0  0  0  3  0  0  0  0  0  0
  -20.6760  -26.9720   22.6830 C   0  0  0  0  0  2  0  0  0  0  0  0
  -19.5790  -26.6400   21.6670 C   0  0  0  0  0  2  0  0  0  0  0  0
  -18.1940  -26.7900   22.3050 C   0  0  0  0  0  2  0  0  0  0  0  0
  -19.1330  -28.9110   23.3970 C   0  0  0  0  0  0  0  0  0  0  0  0
  -18.9090  -30.1760   23.9820 C   0  0  0  0  0  3  0  0  0  0  0  0
  -17.6020  -30.6750   24.1430 C   0  0  0  0  0  3  0  0  0  0  0  0
  -16.5000  -29.9050   23.7320 C   0  0  0  0  0  3  0  0  0  0  0  0
  -16.7080  -28.6410   23.1520 C   0  0  0  0  0  3  0  0  0  0  0  0
  -25.9120  -32.5220   23.8790 C   0  0  0  0  0  3  0  0  0  0  0  0
  -26.4130  -31.7600   25.1680 C   0  0  1  0  0  0  0  0  0  0  0  0
  -25.3120  -31.5420   26.2320 C   0  0  0  0  0  1  0  0  0  0  0  0
  -26.9880  -30.3730   24.8000 C   0  0  0  0  0  1  0  0  0  0  0  0
  -27.5670  -32.5520   25.8280 C   0  0  0  0  0  1  0  0  0  0  0  0
  -25.6030  -33.9240   24.2070 N   0  0  0  0  0  0  0  0  0  0  0  0
  -25.9210  -34.9790   23.4460 C   0  0  0  0  0  0  0  0  0  0  0  0
  -26.5700  -34.8740   22.4020 O   0  0  0  0  0  0  0  0  0  0  0  0
  -25.0210  -34.0780   25.0190 H   0  0  0  0  0  0  0  0  0  0  0  0
  -24.1830  -36.7760   23.1460 C   0  0  0  0  0  1  0  0  0  0  0  0
  -25.4500  -36.3710   23.9150 C   0  0  0  0  0  3  0  0  0  0  0  0
  -27.6080  -37.2670   24.6720 C   0  0  0  0  0  1  0  0  0  0  0  0
  -26.4770  -37.4250   23.7630 N   0  0  0  0  0  0  0  0  0  0  0  0
  -26.0740  -38.3460   23.9130 H   0  0  0  0  0  0  0  0  0  0  0  0
  1  4  1  0
  2  1  2  0
  2  6  1  0
  3  5  1  0
  4  5  2  0
  5 10  1  0
  6 19  1  0
  6  3  2  0
  8  7  1  0
  8 10  1  0
  9 53  1  0
  9  4  1  0
  9  7  1  0
 10 49  1  0
 11 19  1  0
 12 17  1  0
 13 14  1  0
 13 12  1  0
 15 14  1  0
 15 24  1  0
 15 16  1  0
 17 11  1  0
 17 16  1  0
 18 11  2  0
 19 20  1  0
 21 22  2  0
 22 41  1  0
 23 22  1  0
 23 26  1  0
 24 25  1  0
 24 21  1  0
 25 23  2  0
 26 27  1  0
 27 28  2  0
 29 32  1  0
 29 28  1  0
 30 29  2  0
 31 30  1  0
 31 26  2  0
 32 33  1  0
 33 34  1  0
 34 35  2  0
 36 35  1  0
 36 40  1  0
 37 36  2  0
 38 33  2  0
 38 37  1  0
 39 38  1  0
 41 42  1  0
 42 45  1  0
 42 44  1  0
 43 41  2  0
 46 47  1  0
 46 21  1  0
 48 46  1  0
 49 50  1  0
 49 52  1  0
 49 51  1  0
 53 54  1  0
 55 66  2  0
 56 54  1  0
 56 61  1  0
 57 65  1  0
 57 67  1  0
 58 64  1  0
 58 60  1  0
 59 65  1  0
 60 59  1  0
 61 60  2  0
 62 56  2  0
 63 62  1  0
 63 58  2  0
 64 57  1  0
 65 55  1  0
 67 69  2  0
 68 67  1  0
 70 68  1  0
 71 80  2  0
 71 76  1  0
 72 68  1  0
 72 76  1  0
 73 72  1  0
 74 75  1  0
 74 73  1  0
 75 71  1  0
 76 77  2  0
 77 78  1  0
 79 78  2  0
 80 79  1  0
 81 55  1  0
 81 86  1  0
 81 82  1  0
 82 85  1  1
 82 83  1  0
 84 82  1  0
 86 89  1  0
 87 91  1  0
 87 86  1  0
 88 87  2  0
 91 90  1  0
 93 94  1  0
 93 91  1  0
 93 92  1  0
M  ISO  4  11 100  19 100  53 101  54 101
M  END
>  <TORSDO>  (44) 
F 18

>  <SCORE>  (44) 
-15.785

>  <name>  (44) 
43

>  <ligand_id>  (44) 
43

>  <original_smiles>  (44) 
[H]c1c([H])c([H])c2c(c1[H])C([H])([H])C([H])([H])C([H])([H])C2([H])N([H])C(=O)C1([H])N(C(=O)C([H])(N([H])C(=O)C([H])(N([H])C([H])([H])[H])C([H])([H])[H])C(C([H])([H])[H])(C([H])([H])[H])C([H])([H])[H])C([H])([H])c2c([H])c(OC([H])([H])C3([H])c4c([H])c([H])c(N([H])C(=O)N5C([H])([H])C([H])([H])C([H])([H])C([H])(n6nc(-c7c([H])c([H])c(Oc8c([H])c([H])c(F)c([H])c8F)c([H])c7[H])c(C(=O)N([H])[H])c6N([H])[H])C5([H])[H])c([H])c4C([H])([N+]([H])([H])[H])C([H])([H])C3([H])[H])c([H])c([H])c2C1([H])[H]

>  <smiles>  (44) 
[H]c1c([H])c([H])c2c(c1[H])C([H])([H])C([H])([H])C([H])([H])C2([H])N([H])C(=O)C1([H])N(C(=O)C([H])(N([H])C(=O)C([H])(N([H])C([H])([H])[H])C([H])([H])[H])C(C([H])([H])[H])(C([H])([H])[H])C([H])([H])[H])C([H])([H])c2c([H])c(OC([H])([H])C3([H])c4c([H])c([H])c(N([H])C(=O)N5C([H])([H])C([H])([H])C([H])([H])C([H])(n6nc(-c7c([H])c([H])c(Oc8c([H])c([H])c(F)c([H])c8F)c([H])c7[H])c(C(=O)N([H])[H])c6N([H])[H])C5([H])[H])c([H])c4C([H])([N+]([H])([H])[H])C([H])([H])C3([H])[H])c([H])c([H])c2C1([H])[H]

$$$$
44:0:0
     RDKit          3D

 96105  0  0  1  0  0  0  0  0999 V2000
  -28.0720  -22.2680   22.4850 C   0  0  0  0  0  2  0  0  0  0  0  0
  -27.2140  -23.5380   22.4240 C   0  0  0  0  0  2  0  0  0  0  0  0
  -29.0280  -22.4170   21.3030 C   0  0  0  0  0  3  0  0  0  0  0  0
  -28.1470  -23.1260   20.2560 C   0  0  0  0  0  3  0  0  0  0  0  0
  -27.3460  -24.0770   21.0550 N   0  0  0  0  0  4  0  0  0  0  0  0
  -27.8260  -24.9610   21.1180 H   0  0  0  0  0  0  0  0  0  0  0  0
  -26.4330  -24.2210   20.6540 H   0  0  0  0  0  0  0  0  0  0  0  0
  -30.9400  -20.8020   21.6230 C   0  0  0  0  0  3  0  0  0  0  0  0
  -29.3060  -20.2480   19.9040 C   0  0  0  0  0  3  0  0  0  0  0  0
  -31.6820  -19.6520   21.2940 C   0  0  0  0  0  3  0  0  0  0  0  0
  -30.0460  -19.0920   19.5770 C   0  0  0  0  0  3  0  0  0  0  0  0
  -29.7590  -21.1250   20.9200 C   0  0  0  0  0  0  0  0  0  0  0  0
  -31.2490  -18.8000   20.2570 C   0  0  0  0  0  0  0  0  0  0  0  0
  -32.1230  -17.6330   19.8250 C   0  0  0  0  0  2  0  0  0  0  0  0
  -32.0660  -15.1910   19.4910 C   0  0  0  0  0  0  0  0  0  0  0  0
  -31.8260  -12.7670   19.1140 C   0  0  0  0  0  2  0  0  0  0  0  0
  -30.8560  -12.4960   17.9500 C   0  0  0  0  0  2  0  0  0  0  0  0
  -29.4030  -12.4390   18.4570 C   0  0  0  0  0  2  0  0  0  0  0  0
  -29.0390  -13.6420   19.3700 C   0  0  0  0  0  3  0  0  0  0  0  0
  -30.1250  -13.8800   20.4430 C   0  0  0  0  0  2  0  0  0  0  0  0
  -31.4210  -14.0260   19.7590 N   0  0  0  0  0  0  0  0  0  0  0  0
  -33.1060  -15.2420   18.8290 O   0  0  0  0  0  0  0  0  0  0  0  0
  -31.5040  -16.3140   19.9650 N   0  0  0  0  0  0  0  0  0  0  0  0
  -30.6460  -16.2400   20.4890 H   0  0  0  0  0  0  0  0  0  0  0  0
  -26.7970  -14.4380   20.3550 C   0  0  0  0  0  0  0  0  0  0  0  0
  -25.6920  -13.7540   20.7860 C   0  0  0  0  0  0  0  0  0  0  0  0
  -26.0010  -12.3660   20.6290 C   0  0  0  0  0  0  0  0  0  0  0  0
  -27.7150  -13.4740   19.9680 N   0  0  0  0  0  0  0  0  0  0  0  0
  -27.2440  -12.2180   20.1880 N   0  0  0  0  0  0  0  0  0  0  0  0
  -25.1650  -11.1730   20.8190 C   0  0  0  0  0  0  0  0  0  0  0  0
  -25.4340  -10.2410   21.8440 C   0  0  0  0  0  3  0  0  0  0  0  0
  -24.6050   -9.1110   22.0190 C   0  0  0  0  0  3  0  0  0  0  0  0
  -23.4930   -8.9070   21.1680 C   0  0  0  0  0  0  0  0  0  0  0  0
  -23.2440   -9.8280   20.1350 C   0  0  0  0  0  3  0  0  0  0  0  0
  -24.0720  -10.9490   19.9580 C   0  0  0  0  0  3  0  0  0  0  0  0
  -22.6480   -7.8270   21.2470 O   0  0  0  0  0  0  0  0  0  0  0  0
  -22.1150   -7.4160   22.4430 C   0  0  0  0  0  0  0  0  0  0  0  0
  -21.3560   -8.2840   23.2590 C   0  0  0  0  0  3  0  0  0  0  0  0
  -20.7690   -7.8010   24.4450 C   0  0  0  0  0  3  0  0  0  0  0  0
  -20.9300   -6.4510   24.8130 C   0  0  0  0  0  0  0  0  0  0  0  0
  -21.6800   -5.5850   23.9990 C   0  0  0  0  0  3  0  0  0  0  0  0
  -22.2700   -6.0660   22.8160 C   0  0  0  0  0  0  0  0  0  0  0  0
  -22.9740   -5.2210   22.0240 F   0  0  0  0  0  0  0  0  0  0  0  0
  -20.3600   -5.9850   25.9490 F   0  0  0  0  0  0  0  0  0  0  0  0
  -24.3880  -14.3490   21.2290 C   0  0  0  0  0  0  0  0  0  0  0  0
  -23.6870  -13.6820   22.1400 N   0  0  0  0  0  0  0  0  0  0  0  0
  -24.0020  -15.4370   20.8030 O   0  0  0  0  0  0  0  0  0  0  0  0
  -24.0120  -12.7990   22.5050 H   0  0  0  0  0  0  0  0  0  0  0  0
  -22.8110  -14.0560   22.4750 H   0  0  0  0  0  0  0  0  0  0  0  0
  -27.0940  -15.7920   20.2400 N   0  0  0  0  0  0  0  0  0  0  0  0
  -26.4290  -16.5200   20.4750 H   0  0  0  0  0  0  0  0  0  0  0  0
  -27.9660  -16.1550   19.8710 H   0  0  0  0  0  0  0  0  0  0  0  0
  -29.1130  -24.0110   18.9770 S   0  0  0  0  0  0  0  0  0  0  0  0
  -27.8440  -25.0790   18.2160 C   0  0  0  0  0  2  0  0  0  0  0  0
  -28.4360  -26.1370   17.2480 C   0  0  0  0  0  2  0  0  0  0  0  0
  -28.3000  -27.4860   17.7170 O   0  0  0  0  0  0  0  0  0  0  0  0
  -24.4760  -30.7370   22.7340 C   0  0  0  0  0  0  0  0  0  0  0  0
  -27.0460  -27.9510   18.0630 C   0  0  0  0  0  0  0  0  0  0  0  0
  -23.1770  -29.6880   20.9110 C   0  0  0  0  0  3  0  0  0  0  0  0
  -24.5200  -28.9300   18.8830 C   0  0  0  0  0  0  0  0  0  0  0  0
  -25.5550  -30.5360   20.4970 C   0  0  0  0  0  2  0  0  0  0  0  0
  -25.6910  -29.4570   19.4440 C   0  0  0  0  0  0  0  0  0  0  0  0
  -26.9520  -28.9700   19.0360 C   0  0  0  0  0  3  0  0  0  0  0  0
  -25.8530  -27.4420   17.4970 C   0  0  0  0  0  3  0  0  0  0  0  0
  -24.5970  -27.9180   17.9120 C   0  0  0  0  0  3  0  0  0  0  0  0
  -23.2090  -29.4970   19.3710 C   0  0  0  0  0  2  0  0  0  0  0  0
  -24.4310  -30.3190   21.4370 N   0  0  0  0  0  0  0  0  0  0  0  0
  -23.4880  -30.6340   23.4740 O   0  0  0  0  0  0  0  0  0  0  0  0
  -22.8530  -28.3260   21.5660 C   0  0  0  0  0  0  0  0  0  0  0  0
  -21.5940  -27.8780   21.4260 N   0  0  0  0  0  0  0  0  0  0  0  0
  -23.7260  -27.6920   22.1620 O   0  0  0  0  0  0  0  0  0  0  0  0
  -20.9320  -28.4650   20.9380 H   0  0  0  0  0  0  0  0  0  0  0  0
  -18.6640  -25.7700   21.4990 C   0  0  0  0  0  0  0  0  0  0  0  0
  -21.0690  -26.6070   21.9280 C   0  0  0  0  0  3  0  0  0  0  0  0
  -21.5310  -25.4250   21.0450 C   0  0  0  0  0  2  0  0  0  0  0  0
  -20.5320  -25.0720   19.9400 C   0  0  0  0  0  2  0  0  0  0  0  0
  -19.1720  -24.7040   20.5420 C   0  0  0  0  0  2  0  0  0  0  0  0
  -19.5540  -26.6740   22.1370 C   0  0  0  0  0  0  0  0  0  0  0  0
  -19.0290  -27.6690   22.9900 C   0  0  0  0  0  3  0  0  0  0  0  0
  -17.6430  -27.7650   23.2130 C   0  0  0  0  0  3  0  0  0  0  0  0
  -16.7670  -26.8540   22.5960 C   0  0  0  0  0  3  0  0  0  0  0  0
  -17.2770  -25.8590   21.7440 C   0  0  0  0  0  3  0  0  0  0  0  0
  -25.7610  -31.3810   23.3390 C   0  0  0  0  0  3  0  0  0  0  0  0
  -25.3770  -32.6770   23.9160 N   0  0  0  0  0  0  0  0  0  0  0  0
  -25.6140  -33.8620   23.3400 C   0  0  0  0  0  0  0  0  0  0  0  0
  -26.2510  -33.9800   22.2880 O   0  0  0  0  0  0  0  0  0  0  0  0
  -24.8040  -32.6500   24.7450 H   0  0  0  0  0  0  0  0  0  0  0  0
  -23.7800  -35.5830   23.3210 C   0  0  0  0  0  1  0  0  0  0  0  0
  -25.0560  -35.1160   24.0400 C   0  0  0  0  0  3  0  0  0  0  0  0
  -27.1500  -35.9650   24.9990 C   0  0  0  0  0  1  0  0  0  0  0  0
  -26.0240  -36.2340   24.1110 N   0  0  0  0  0  0  0  0  0  0  0  0
  -25.5690  -37.0880   24.4270 H   0  0  0  0  0  0  0  0  0  0  0  0
  -26.4570  -30.4720   24.4260 C   0  0  1  0  0  0  0  0  0  0  0  0
  -25.4960  -29.9720   25.5290 C   0  0  0  0  0  1  0  0  0  0  0  0
  -27.1050  -29.2350   23.7620 C   0  0  0  0  0  1  0  0  0  0  0  0
  -27.5980  -31.2580   25.1120 C   0  0  0  0  0  1  0  0  0  0  0  0
  2  1  1  0
  3 12  1  0
  3  1  1  0
  4 53  1  0
  4  5  1  0
  4  3  1  0
  5  6  1  0
  5  2  1  0
  7  5  1  0
  9 12  1  0
 10  8  1  0
 11  9  2  0
 11 13  1  0
 12  8  2  0
 13 10  2  0
 14 23  1  0
 14 13  1  0
 15 21  1  0
 15 23  1  0
 16 21  1  0
 17 18  1  0
 17 16  1  0
 19 18  1  0
 19 28  1  0
 19 20  1  0
 21 20  1  0
 22 15  2  0
 23 24  1  0
 25 26  2  0
 26 45  1  0
 27 26  1  0
 27 30  1  0
 28 29  1  0
 28 25  1  0
 29 27  2  0
 30 31  1  0
 31 32  2  0
 33 36  1  0
 33 32  1  0
 34 33  2  0
 35 34  1  0
 35 30  2  0
 36 37  1  0
 37 42  2  0
 37 38  1  0
 38 39  2  0
 39 40  1  0
 40 44  1  0
 41 40  2  0
 42 41  1  0
 43 42  1  0
 45 46  1  0
 46 49  1  0
 46 48  1  0
 47 45  2  0
 50 25  1  0
 50 51  1  0
 52 50  1  0
 54 53  1  0
 55 56  1  0
 55 54  1  0
 56 58  1  0
 57 68  2  0
 58 63  1  0
 59 67  1  0
 59 69  1  0
 60 66  1  0
 60 62  1  0
 61 67  1  0
 62 61  1  0
 63 62  2  0
 64 65  1  0
 64 58  2  0
 65 60  2  0
 66 59  1  0
 67 57  1  0
 69 71  2  0
 70 69  1  0
 72 70  1  0
 73 82  2  0
 73 78  1  0
 74 70  1  0
 74 78  1  0
 75 74  1  0
 76 77  1  0
 76 75  1  0
 77 73  1  0
 78 79  2  0
 79 80  1  0
 81 80  2  0
 82 81  1  0
 83 57  1  0
 83 84  1  0
 83 93  1  0
 84 87  1  0
 85 84  1  0
 85 89  1  0
 86 85  2  0
 89 88  1  0
 89 91  1  0
 91 92  1  0
 91 90  1  0
 93 96  1  1
 93 94  1  0
 95 93  1  0
M  ISO  4  15 100  23 100  55 101  56 101
M  END
>  <TORSDO>  (45) 
F 21

>  <SCORE>  (45) 
-6.786

>  <name>  (45) 
44

>  <ligand_id>  (45) 
44

>  <original_smiles>  (45) 
[H]c1c([H])c([H])c2c(c1[H])C([H])([H])C([H])([H])C([H])([H])C2([H])N([H])C(=O)C1([H])N(C(=O)C([H])(N([H])C(=O)C([H])(N([H])C([H])([H])[H])C([H])([H])[H])C(C([H])([H])[H])(C([H])([H])[H])C([H])([H])[H])C([H])([H])c2c([H])c(OC([H])([H])C([H])([H])SC3([H])C([H])(c4c([H])c([H])c(C([H])([H])N([H])C(=O)N5C([H])([H])C([H])([H])C([H])([H])C([H])(n6nc(-c7c([H])c([H])c(Oc8c([H])c([H])c(F)c([H])c8F)c([H])c7[H])c(C(=O)N([H])[H])c6N([H])[H])C5([H])[H])c([H])c4[H])C([H])([H])C([H])([H])[N+]3([H])[H])c([H])c([H])c2C1([H])[H]

>  <smiles>  (45) 
[H]c1c([H])c([H])c2c(c1[H])C([H])([H])C([H])([H])C([H])([H])C2([H])N([H])C(=O)C1([H])N(C(=O)C([H])(N([H])C(=O)C([H])(N([H])C([H])([H])[H])C([H])([H])[H])C(C([H])([H])[H])(C([H])([H])[H])C([H])([H])[H])C([H])([H])c2c([H])c(OC([H])([H])C([H])([H])SC3([H])C([H])(c4c([H])c([H])c(C([H])([H])N([H])C(=O)N5C([H])([H])C([H])([H])C([H])([H])C([H])(n6nc(-c7c([H])c([H])c(Oc8c([H])c([H])c(F)c([H])c8F)c([H])c7[H])c(C(=O)N([H])[H])c6N([H])[H])C5([H])[H])c([H])c4[H])C([H])([H])C([H])([H])[N+]3([H])[H])c([H])c([H])c2C1([H])[H]

$$$$
45:0:0
     RDKit          3D

 95104  0  0  1  0  0  0  0  0999 V2000
  -28.7870  -22.8740   21.3730 C   0  0  0  0  0  3  0  0  0  0  0  0
  -31.0650  -23.7070   21.2880 C   0  0  0  0  0  3  0  0  0  0  0  0
  -28.3050  -24.1600   21.0500 C   0  0  0  0  0  3  0  0  0  0  0  0
  -30.5850  -24.9910   20.9580 C   0  0  0  0  0  3  0  0  0  0  0  0
  -30.1730  -22.6330   21.5080 C   0  0  0  0  0  0  0  0  0  0  0  0
  -29.2000  -25.2310   20.8410 C   0  0  0  0  0  0  0  0  0  0  0  0
  -30.1720  -20.6930   23.1950 C   0  0  0  0  0  2  0  0  0  0  0  0
  -30.7220  -21.2890   21.9200 C   0  0  0  0  0  3  0  0  0  0  0  0
  -29.9470  -19.9770   21.8810 C   0  0  0  0  0  3  0  0  0  0  0  0
  -30.7520  -18.7340   21.8330 N   0  0  0  0  0  4  0  0  0  0  0  0
  -30.6040  -18.2480   22.7030 H   0  0  0  0  0  0  0  0  0  0  0  0
  -31.7300  -18.9620   21.7740 H   0  0  0  0  0  0  0  0  0  0  0  0
  -30.3910  -17.8020   20.7410 C   0  0  0  0  0  2  0  0  0  0  0  0
  -30.3930  -16.3190   21.1910 C   0  0  0  0  0  2  0  0  0  0  0  0
  -31.7510  -15.5860   21.1020 C   0  0  0  0  0  2  0  0  0  0  0  0
  -32.4090  -13.7570   19.5200 C   0  0  0  0  0  0  0  0  0  0  0  0
  -31.7210  -11.4440   19.0140 C   0  0  0  0  0  2  0  0  0  0  0  0
  -30.7010  -11.4370   17.8570 C   0  0  0  0  0  2  0  0  0  0  0  0
  -29.2660  -11.6350   18.3860 C   0  0  0  0  0  2  0  0  0  0  0  0
  -29.1510  -12.8250   19.3740 C   0  0  0  0  0  3  0  0  0  0  0  0
  -30.2640  -12.7480   20.4400 C   0  0  0  0  0  2  0  0  0  0  0  0
  -31.5640  -12.7120   19.7470 N   0  0  0  0  0  0  0  0  0  0  0  0
  -33.4440  -13.6480   18.8610 O   0  0  0  0  0  0  0  0  0  0  0  0
  -31.9560  -14.9930   19.7800 N   0  0  0  0  0  0  0  0  0  0  0  0
  -32.4150  -15.6450   19.1590 H   0  0  0  0  0  0  0  0  0  0  0  0
  -27.0940  -13.9980   20.3900 C   0  0  0  0  0  0  0  0  0  0  0  0
  -25.8920  -13.5140   20.8320 C   0  0  0  0  0  0  0  0  0  0  0  0
  -25.9480  -12.0980   20.6590 C   0  0  0  0  0  0  0  0  0  0  0  0
  -27.8250  -12.8900   19.9840 N   0  0  0  0  0  0  0  0  0  0  0  0
  -27.1390  -11.7380   20.1990 N   0  0  0  0  0  0  0  0  0  0  0  0
  -24.9180  -11.0700   20.8520 C   0  0  0  0  0  0  0  0  0  0  0  0
  -25.1830   -9.8860   21.5760 C   0  0  0  0  0  3  0  0  0  0  0  0
  -24.1730   -8.9200   21.7620 C   0  0  0  0  0  3  0  0  0  0  0  0
  -22.8800   -9.1320   21.2260 C   0  0  0  0  0  0  0  0  0  0  0  0
  -22.6260  -10.3020   20.4880 C   0  0  0  0  0  3  0  0  0  0  0  0
  -23.6350  -11.2610   20.3000 C   0  0  0  0  0  3  0  0  0  0  0  0
  -21.8430   -8.2370   21.3350 O   0  0  0  0  0  0  0  0  0  0  0  0
  -21.7530   -7.3640   22.3890 C   0  0  0  0  0  0  0  0  0  0  0  0
  -21.7290   -7.8120   23.7270 C   0  0  0  0  0  3  0  0  0  0  0  0
  -21.5660   -6.8850   24.7760 C   0  0  0  0  0  3  0  0  0  0  0  0
  -21.4180   -5.5150   24.4900 C   0  0  0  0  0  0  0  0  0  0  0  0
  -21.4360   -5.0690   23.1570 C   0  0  0  0  0  3  0  0  0  0  0  0
  -21.6010   -5.9910   22.1100 C   0  0  0  0  0  0  0  0  0  0  0  0
  -21.5960   -5.5580   20.8260 F   0  0  0  0  0  0  0  0  0  0  0  0
  -21.2530   -4.6250   25.4960 F   0  0  0  0  0  0  0  0  0  0  0  0
  -24.7180  -14.3270   21.2960 C   0  0  0  0  0  0  0  0  0  0  0  0
  -23.9480  -13.8080   22.2450 N   0  0  0  0  0  0  0  0  0  0  0  0
  -24.5050  -15.4560   20.8520 O   0  0  0  0  0  0  0  0  0  0  0  0
  -24.1380  -12.8930   22.6280 H   0  0  0  0  0  0  0  0  0  0  0  0
  -23.1590  -14.3320   22.5950 H   0  0  0  0  0  0  0  0  0  0  0  0
  -27.6160  -15.2820   20.2800 N   0  0  0  0  0  0  0  0  0  0  0  0
  -27.0420  -16.0970   20.4630 H   0  0  0  0  0  0  0  0  0  0  0  0
  -28.4840  -15.5030   19.8090 H   0  0  0  0  0  0  0  0  0  0  0  0
  -28.6960  -26.6410   20.5500 C   0  0  0  0  0  2  0  0  0  0  0  0
  -27.7020  -26.6830   19.5220 O   0  0  0  0  0  0  0  0  0  0  0  0
  -24.5610  -31.8860   23.2780 C   0  0  0  0  0  0  0  0  0  0  0  0
  -26.6170  -27.5020   19.7320 C   0  0  0  0  0  0  0  0  0  0  0  0
  -23.1120  -30.6480   21.6980 C   0  0  0  0  0  3  0  0  0  0  0  0
  -24.3220  -29.1150   20.0580 C   0  0  0  0  0  0  0  0  0  0  0  0
  -25.6180  -30.8850   21.2590 C   0  0  0  0  0  2  0  0  0  0  0  0
  -25.5590  -29.5480   20.5550 C   0  0  0  0  0  0  0  0  0  0  0  0
  -26.7100  -28.7470   20.3940 C   0  0  0  0  0  3  0  0  0  0  0  0
  -25.3710  -27.0860   19.2220 C   0  0  0  0  0  3  0  0  0  0  0  0
  -24.2210  -27.8820   19.3900 C   0  0  0  0  0  3  0  0  0  0  0  0
  -23.1400  -30.0350   20.2720 C   0  0  0  0  0  2  0  0  0  0  0  0
  -24.4540  -31.1500   22.1350 N   0  0  0  0  0  0  0  0  0  0  0  0
  -23.5580  -32.1870   23.9410 O   0  0  0  0  0  0  0  0  0  0  0  0
  -22.5000  -29.6120   22.6680 C   0  0  0  0  0  0  0  0  0  0  0  0
  -21.1810  -29.3850   22.5450 N   0  0  0  0  0  0  0  0  0  0  0  0
  -23.2070  -29.0140   23.4840 O   0  0  0  0  0  0  0  0  0  0  0  0
  -20.6730  -29.9210   21.8570 H   0  0  0  0  0  0  0  0  0  0  0  0
  -17.8940  -27.9370   22.9180 C   0  0  0  0  0  0  0  0  0  0  0  0
  -20.3980  -28.4270   23.3230 C   0  0  0  0  0  3  0  0  0  0  0  0
  -20.6540  -26.9790   22.8430 C   0  0  0  0  0  2  0  0  0  0  0  0
  -19.6490  -26.5070   21.7880 C   0  0  0  0  0  2  0  0  0  0  0  0
  -18.2220  -26.5710   22.3400 C   0  0  0  0  0  2  0  0  0  0  0  0
  -18.9160  -28.8150   23.3650 C   0  0  0  0  0  0  0  0  0  0  0  0
  -18.5580  -30.0870   23.8610 C   0  0  0  0  0  3  0  0  0  0  0  0
  -17.2100  -30.4850   23.9150 C   0  0  0  0  0  3  0  0  0  0  0  0
  -16.2000  -29.6070   23.4870 C   0  0  0  0  0  3  0  0  0  0  0  0
  -16.5430  -28.3350   22.9930 C   0  0  0  0  0  3  0  0  0  0  0  0
  -25.9400  -32.4060   23.7910 C   0  0  0  0  0  3  0  0  0  0  0  0
  -25.7570  -33.7990   24.2180 N   0  0  0  0  0  0  0  0  0  0  0  0
  -26.1230  -34.8690   23.4980 C   0  0  0  0  0  0  0  0  0  0  0  0
  -26.7240  -34.7780   22.4240 O   0  0  0  0  0  0  0  0  0  0  0  0
  -25.2240  -33.9480   25.0630 H   0  0  0  0  0  0  0  0  0  0  0  0
  -24.5220  -36.8000   23.3360 C   0  0  0  0  0  1  0  0  0  0  0  0
  -25.7660  -36.2580   24.0590 C   0  0  0  0  0  3  0  0  0  0  0  0
  -28.0020  -36.9250   24.8210 C   0  0  0  0  0  1  0  0  0  0  0  0
  -26.8690  -37.2360   23.9520 N   0  0  0  0  0  0  0  0  0  0  0  0
  -26.5450  -38.1730   24.1790 H   0  0  0  0  0  0  0  0  0  0  0  0
  -26.5350  -31.5350   24.9650 C   0  0  1  0  0  0  0  0  0  0  0  0
  -25.5330  -31.2710   26.1130 C   0  0  0  0  0  1  0  0  0  0  0  0
  -27.0190  -30.1640   24.4350 C   0  0  0  0  0  1  0  0  0  0  0  0
  -27.7750  -32.2400   25.5650 C   0  0  0  0  0  1  0  0  0  0  0  0
  1  5  1  0
  2  5  2  0
  3  1  2  0
  4  2  1  0
  6  4  2  0
  6  3  1  0
  8  5  1  0
  8  7  1  0
  9 10  1  0
  9  8  1  0
  9  7  1  0
 10 11  1  0
 12 10  1  0
 13 14  1  0
 13 10  1  0
 15 14  1  0
 16 22  1  0
 16 24  1  0
 17 22  1  0
 18 19  1  0
 18 17  1  0
 20 19  1  0
 20 29  1  0
 20 21  1  0
 22 21  1  0
 23 16  2  0
 24 15  1  0
 25 24  1  0
 26 27  2  0
 27 46  1  0
 28 27  1  0
 28 31  1  0
 29 30  1  0
 29 26  1  0
 30 28  2  0
 31 32  1  0
 32 33  2  0
 34 37  1  0
 34 33  1  0
 35 34  2  0
 36 35  1  0
 36 31  2  0
 37 38  1  0
 38 39  1  0
 39 40  2  0
 41 40  1  0
 41 45  1  0
 42 41  2  0
 43 38  2  0
 43 42  1  0
 44 43  1  0
 46 47  1  0
 47 50  1  0
 47 49  1  0
 48 46  2  0
 51 26  1  0
 51 52  1  0
 53 51  1  0
 54  6  1  0
 55 57  1  0
 55 54  1  0
 56 67  2  0
 57 62  1  0
 58 66  1  0
 58 68  1  0
 59 65  1  0
 59 61  1  0
 60 66  1  0
 61 60  1  0
 62 61  2  0
 63 64  1  0
 63 57  2  0
 64 59  2  0
 65 58  1  0
 66 56  1  0
 68 70  2  0
 69 68  1  0
 71 69  1  0
 72 81  2  0
 72 77  1  0
 73 69  1  0
 73 77  1  0
 74 73  1  0
 75 76  1  0
 75 74  1  0
 76 72  1  0
 77 78  2  0
 78 79  1  0
 80 79  2  0
 81 80  1  0
 82 56  1  0
 82 83  1  0
 82 92  1  0
 83 86  1  0
 84 88  1  0
 84 83  1  0
 85 84  2  0
 88 87  1  0
 90 88  1  0
 90 91  1  0
 90 89  1  0
 92 95  1  1
 92 93  1  0
 94 92  1  0
M  ISO  4  16 100  24 100  54 101  55 101
M  END
>  <TORSDO>  (46) 
F 22

>  <SCORE>  (46) 
-11.135

>  <name>  (46) 
45

>  <ligand_id>  (46) 
45

>  <original_smiles>  (46) 
[H]c1c([H])c([H])c2c(c1[H])C([H])([H])C([H])([H])C([H])([H])C2([H])N([H])C(=O)C1([H])N(C(=O)C([H])(N([H])C(=O)C([H])(N([H])C([H])([H])[H])C([H])([H])[H])C(C([H])([H])[H])(C([H])([H])[H])C([H])([H])[H])C([H])([H])c2c([H])c(OC([H])([H])c3c([H])c([H])c(C4([H])C([H])([H])C4([H])[N+]([H])([H])C([H])([H])C([H])([H])C([H])([H])N([H])C(=O)N4C([H])([H])C([H])([H])C([H])([H])C([H])(n5nc(-c6c([H])c([H])c(Oc7c([H])c([H])c(F)c([H])c7F)c([H])c6[H])c(C(=O)N([H])[H])c5N([H])[H])C4([H])[H])c([H])c3[H])c([H])c([H])c2C1([H])[H]

>  <smiles>  (46) 
[H]c1c([H])c([H])c2c(c1[H])C([H])([H])C([H])([H])C([H])([H])C2([H])N([H])C(=O)C1([H])N(C(=O)C([H])(N([H])C(=O)C([H])(N([H])C([H])([H])[H])C([H])([H])[H])C(C([H])([H])[H])(C([H])([H])[H])C([H])([H])[H])C([H])([H])c2c([H])c(OC([H])([H])c3c([H])c([H])c(C4([H])C([H])([H])C4([H])[N+]([H])([H])C([H])([H])C([H])([H])C([H])([H])N([H])C(=O)N4C([H])([H])C([H])([H])C([H])([H])C([H])(n5nc(-c6c([H])c([H])c(Oc7c([H])c([H])c(F)c([H])c7F)c([H])c6[H])c(C(=O)N([H])[H])c5N([H])[H])C4([H])[H])c([H])c3[H])c([H])c([H])c2C1([H])[H]

$$$$
46:0:0
     RDKit          3D

 99108  0  0  1  0  0  0  0  0999 V2000
  -27.5670  -21.0640   20.8390 N   0  0  0  0  0  0  0  0  0  0  0  0
  -27.4230  -20.5150   21.6830 H   0  0  0  0  0  0  0  0  0  0  0  0
  -29.1710  -24.0400   22.3670 C   0  0  0  0  0  3  0  0  0  0  0  0
  -29.1010  -24.9830   21.3250 C   0  0  0  0  0  3  0  0  0  0  0  0
  -28.6540  -22.7430   22.1830 C   0  0  0  0  0  3  0  0  0  0  0  0
  -27.9650  -23.3420   19.9280 C   0  0  0  0  0  3  0  0  0  0  0  0
  -28.4950  -24.6380   20.0990 C   0  0  0  0  0  0  0  0  0  0  0  0
  -28.0540  -22.3760   20.9600 C   0  0  0  0  0  0  0  0  0  0  0  0
  -29.8450  -25.5530   18.1990 C   0  0  0  0  0  1  0  0  0  0  0  0
  -28.5010  -25.6200   18.9330 C   0  0  0  0  0  3  0  0  0  0  0  0
  -28.3650  -26.9760   19.3530 O   0  0  0  0  0  0  0  0  0  0  0  0
  -24.5790  -31.6830   23.0680 C   0  0  0  0  0  0  0  0  0  0  0  0
  -27.1290  -27.5730   19.4930 C   0  0  0  0  0  0  0  0  0  0  0  0
  -23.3020  -30.3870   21.3890 C   0  0  0  0  0  3  0  0  0  0  0  0
  -24.6980  -28.9930   19.7740 C   0  0  0  0  0  0  0  0  0  0  0  0
  -25.8010  -30.8230   21.0740 C   0  0  0  0  0  2  0  0  0  0  0  0
  -25.8740  -29.5060   20.3300 C   0  0  0  0  0  0  0  0  0  0  0  0
  -27.0880  -28.8030   20.1860 C   0  0  0  0  0  3  0  0  0  0  0  0
  -25.9270  -27.0550   18.9550 C   0  0  0  0  0  3  0  0  0  0  0  0
  -24.7170  -27.7640   19.0900 C   0  0  0  0  0  3  0  0  0  0  0  0
  -23.4420  -29.8160   19.9510 C   0  0  0  0  0  2  0  0  0  0  0  0
  -24.5830  -30.9740   21.9030 N   0  0  0  0  0  0  0  0  0  0  0  0
  -23.5270  -31.8880   23.6900 O   0  0  0  0  0  0  0  0  0  0  0  0
  -22.7270  -29.2820   22.3010 C   0  0  0  0  0  0  0  0  0  0  0  0
  -21.4070  -29.0520   22.2000 N   0  0  0  0  0  0  0  0  0  0  0  0
  -23.4610  -28.6360   23.0530 O   0  0  0  0  0  0  0  0  0  0  0  0
  -20.8740  -29.6270   21.5640 H   0  0  0  0  0  0  0  0  0  0  0  0
  -18.1110  -27.6530   22.6680 C   0  0  0  0  0  0  0  0  0  0  0  0
  -20.6540  -28.0330   22.9300 C   0  0  0  0  0  3  0  0  0  0  0  0
  -20.8270  -26.6420   22.2790 C   0  0  0  0  0  2  0  0  0  0  0  0
  -19.7310  -26.3120   21.2610 C   0  0  0  0  0  2  0  0  0  0  0  0
  -18.3520  -26.3500   21.9240 C   0  0  0  0  0  2  0  0  0  0  0  0
  -19.1920  -28.4510   23.1260 C   0  0  0  0  0  0  0  0  0  0  0  0
  -18.9140  -29.6710   23.7800 C   0  0  0  0  0  3  0  0  0  0  0  0
  -17.5870  -30.0940   23.9820 C   0  0  0  0  0  3  0  0  0  0  0  0
  -16.5200  -29.2920   23.5410 C   0  0  0  0  0  3  0  0  0  0  0  0
  -16.7820  -28.0730   22.8900 C   0  0  0  0  0  3  0  0  0  0  0  0
  -25.8900  -32.2890   23.6610 C   0  0  0  0  0  3  0  0  0  0  0  0
  -25.5890  -33.6600   24.0930 N   0  0  0  0  0  0  0  0  0  0  0  0
  -25.8980  -34.7610   23.3950 C   0  0  0  0  0  0  0  0  0  0  0  0
  -26.5390  -34.7280   22.3420 O   0  0  0  0  0  0  0  0  0  0  0  0
  -25.0180  -33.7590   24.9190 H   0  0  0  0  0  0  0  0  0  0  0  0
  -24.1670  -36.5720   23.1910 C   0  0  0  0  0  1  0  0  0  0  0  0
  -25.4190  -36.1130   23.9550 C   0  0  0  0  0  3  0  0  0  0  0  0
  -27.5600  -36.9410   24.8230 C   0  0  0  0  0  1  0  0  0  0  0  0
  -26.4500  -37.1720   23.9040 N   0  0  0  0  0  0  0  0  0  0  0  0
  -26.0440  -38.0790   24.1180 H   0  0  0  0  0  0  0  0  0  0  0  0
  -26.4790  -31.4430   24.8570 C   0  0  1  0  0  0  0  0  0  0  0  0
  -25.4490  -31.1300   25.9650 C   0  0  0  0  0  1  0  0  0  0  0  0
  -27.0430  -30.0970   24.3420 C   0  0  0  0  0  1  0  0  0  0  0  0
  -27.6590  -32.2040   25.5080 C   0  0  0  0  0  1  0  0  0  0  0  0
  -27.3270  -20.4090   19.5560 C   0  0  0  0  0  2  0  0  0  0  0  0
  -28.7880  -18.3450   19.3160 C   0  0  0  0  0  3  0  0  0  0  0  0
  -30.6350  -18.3720   17.7610 C   0  0  0  0  0  3  0  0  0  0  0  0
  -29.8440  -17.6600   18.6810 C   0  0  0  0  0  0  0  0  0  0  0  0
  -28.5370  -19.6900   18.9680 C   0  0  0  0  0  0  0  0  0  0  0  0
  -29.3620  -20.2970   17.9970 C   0  0  0  0  0  0  0  0  0  0  0  0
  -30.4060  -19.6550   17.4260 N   0  0  0  0  0  0  0  0  0  0  0  0
  -29.8510  -22.1160   16.4910 C   0  0  0  0  0  1  0  0  0  0  0  0
  -29.0880  -21.5770   17.5670 O   0  0  0  0  0  0  0  0  0  0  0  0
  -30.0560  -16.1580   18.8410 C   0  0  0  0  0  2  0  0  0  0  0  0
  -30.9420  -14.5530   20.3750 C   0  0  0  0  0  0  0  0  0  0  0  0
  -30.6470  -12.3320   19.3930 C   0  0  0  0  0  2  0  0  0  0  0  0
  -29.7320  -12.4810   18.1610 C   0  0  0  0  0  2  0  0  0  0  0  0
  -28.2470  -12.3850   18.5690 C   0  0  0  0  0  2  0  0  0  0  0  0
  -27.8850  -13.2880   19.7800 C   0  0  0  0  0  3  0  0  0  0  0  0
  -28.9270  -13.1550   20.9150 C   0  0  0  0  0  2  0  0  0  0  0  0
  -30.2600  -13.3820   20.3390 N   0  0  0  0  0  0  0  0  0  0  0  0
  -32.1460  -14.6530   20.1400 O   0  0  0  0  0  0  0  0  0  0  0  0
  -30.1700  -15.6370   20.2120 N   0  0  0  0  0  0  0  0  0  0  0  0
  -30.4190  -16.3680   20.8610 H   0  0  0  0  0  0  0  0  0  0  0  0
  -25.4950  -13.9450   20.4640 C   0  0  0  0  0  0  0  0  0  0  0  0
  -24.4080  -13.1950   20.8170 C   0  0  0  0  0  0  0  0  0  0  0  0
  -24.8440  -11.8350   20.7960 C   0  0  0  0  0  0  0  0  0  0  0  0
  -26.5260  -13.0420   20.2500 N   0  0  0  0  0  0  0  0  0  0  0  0
  -26.1360  -11.7690   20.5090 N   0  0  0  0  0  0  0  0  0  0  0  0
  -24.0930  -10.5870   20.9760 C   0  0  0  0  0  0  0  0  0  0  0  0
  -24.4810   -9.6260   21.9360 C   0  0  0  0  0  3  0  0  0  0  0  0
  -23.7320   -8.4420   22.1040 C   0  0  0  0  0  3  0  0  0  0  0  0
  -22.5830   -8.2100   21.3130 C   0  0  0  0  0  0  0  0  0  0  0  0
  -22.2140   -9.1590   20.3440 C   0  0  0  0  0  3  0  0  0  0  0  0
  -22.9640  -10.3350   20.1730 C   0  0  0  0  0  3  0  0  0  0  0  0
  -21.8100   -7.0770   21.3890 O   0  0  0  0  0  0  0  0  0  0  0  0
  -21.7000   -6.3590   22.5530 C   0  0  0  0  0  0  0  0  0  0  0  0
  -21.1910   -6.9340   23.7380 C   0  0  0  0  0  3  0  0  0  0  0  0
  -21.0290   -6.1410   24.8910 C   0  0  0  0  0  3  0  0  0  0  0  0
  -21.3650   -4.7740   24.8600 C   0  0  0  0  0  0  0  0  0  0  0  0
  -21.8660   -4.1980   23.6800 C   0  0  0  0  0  3  0  0  0  0  0  0
  -22.0300   -4.9890   22.5280 C   0  0  0  0  0  0  0  0  0  0  0  0
  -22.4930   -4.4240   21.3870 F   0  0  0  0  0  0  0  0  0  0  0  0
  -21.2020   -4.0100   25.9660 F   0  0  0  0  0  0  0  0  0  0  0  0
  -23.0150  -13.6990   21.0670 C   0  0  0  0  0  0  0  0  0  0  0  0
  -22.2630  -13.0210   21.9260 N   0  0  0  0  0  0  0  0  0  0  0  0
  -22.6030  -14.7300   20.5360 O   0  0  0  0  0  0  0  0  0  0  0  0
  -22.6080  -12.1860   22.3760 H   0  0  0  0  0  0  0  0  0  0  0  0
  -21.3280  -13.3400   22.1360 H   0  0  0  0  0  0  0  0  0  0  0  0
  -25.6900  -15.3120   20.2840 N   0  0  0  0  0  0  0  0  0  0  0  0
  -24.9430  -15.9890   20.3890 H   0  0  0  0  0  0  0  0  0  0  0  0
  -26.5700  -15.7260   20.0040 H   0  0  0  0  0  0  0  0  0  0  0  0
  1  8  1  0
  1  2  1  0
  4  3  2  0
  5  3  1  0
  6  7  2  0
  6  8  1  0
  7  4  1  0
  8  5  2  0
 10  9  1  0
 10 11  1  0
 10  7  1  0
 11 13  1  0
 12 23  2  0
 13 18  1  0
 14 22  1  0
 14 24  1  0
 15 21  1  0
 15 17  1  0
 16 22  1  0
 17 16  1  0
 18 17  2  0
 19 20  1  0
 19 13  2  0
 20 15  2  0
 21 14  1  0
 22 12  1  0
 24 26  2  0
 25 24  1  0
 27 25  1  0
 28 37  2  0
 28 33  1  0
 29 25  1  0
 29 33  1  0
 30 29  1  0
 31 32  1  0
 31 30  1  0
 32 28  1  0
 33 34  2  0
 34 35  1  0
 36 35  2  0
 37 36  1  0
 38 12  1  0
 38 39  1  0
 38 48  1  0
 39 42  1  0
 40 44  1  0
 40 39  1  0
 41 40  2  0
 44 43  1  0
 46 44  1  0
 46 47  1  0
 46 45  1  0
 48 51  1  1
 48 49  1  0
 50 48  1  0
 52  1  1  0
 54 55  2  0
 55 61  1  0
 55 53  1  0
 56 53  2  0
 56 52  1  0
 57 56  1  0
 58 54  1  0
 58 57  2  0
 59 60  1  0
 60 57  1  0
 61 70  1  0
 63 68  1  0
 64 65  1  0
 64 63  1  0
 66 65  1  0
 66 75  1  0
 66 67  1  0
 68 62  1  0
 68 67  1  0
 69 62  2  0
 70 62  1  0
 70 71  1  0
 72 73  2  0
 73 92  1  0
 74 73  1  0
 74 77  1  0
 75 72  1  0
 75 76  1  0
 76 74  2  0
 77 78  1  0
 78 79  2  0
 80 83  1  0
 80 79  1  0
 81 80  2  0
 82 81  1  0
 82 77  2  0
 83 84  1  0
 84 85  1  0
 85 86  2  0
 87 86  1  0
 87 91  1  0
 88 87  2  0
 89 84  2  0
 89 88  1  0
 90 89  1  0
 92 93  1  0
 93 96  1  0
 93 95  1  0
 94 92  2  0
 97 98  1  0
 97 72  1  0
 99 97  1  0
M  ISO  4  10 101  11 101  62 100  70 100
M  END
>  <TORSDO>  (47) 
F 22

>  <SCORE>  (47) 
-12.564

>  <name>  (47) 
46

>  <ligand_id>  (47) 
46

>  <original_smiles>  (47) 
[H]c1nc(OC([H])([H])[H])c(C([H])([H])N([H])c2c([H])c([H])c([H])c(C([H])(Oc3c([H])c([H])c4c(c3[H])C([H])([H])N(C(=O)C([H])(N([H])C(=O)C([H])(N([H])C([H])([H])[H])C([H])([H])[H])C(C([H])([H])[H])(C([H])([H])[H])C([H])([H])[H])C([H])(C(=O)N([H])C3([H])c5c([H])c([H])c([H])c([H])c5C([H])([H])C([H])([H])C3([H])[H])C4([H])[H])C([H])([H])[H])c2[H])c([H])c1C([H])([H])N([H])C(=O)N1C([H])([H])C([H])([H])C([H])([H])C([H])(n2nc(-c3c([H])c([H])c(Oc4c([H])c([H])c(F)c([H])c4F)c([H])c3[H])c(C(=O)N([H])[H])c2N([H])[H])C1([H])[H]

>  <smiles>  (47) 
[H]c1nc(OC([H])([H])[H])c(C([H])([H])N([H])c2c([H])c([H])c([H])c(C([H])(Oc3c([H])c([H])c4c(c3[H])C([H])([H])N(C(=O)C([H])(N([H])C(=O)C([H])(N([H])C([H])([H])[H])C([H])([H])[H])C(C([H])([H])[H])(C([H])([H])[H])C([H])([H])[H])C([H])(C(=O)N([H])C3([H])c5c([H])c([H])c([H])c([H])c5C([H])([H])C([H])([H])C3([H])[H])C4([H])[H])C([H])([H])[H])c2[H])c([H])c1C([H])([H])N([H])C(=O)N1C([H])([H])C([H])([H])C([H])([H])C([H])(n2nc(-c3c([H])c([H])c(Oc4c([H])c([H])c(F)c([H])c4F)c([H])c3[H])c(C(=O)N([H])[H])c2N([H])[H])C1([H])[H]

$$$$
47:0:0
     RDKit          3D

 92101  0  0  1  0  0  0  0  0999 V2000
  -29.3010  -22.2060   21.1040 C   0  0  0  0  0  0  0  0  0  0  0  0
  -28.9020  -23.5970   20.9380 C   0  0  0  0  0  0  0  0  0  0  0  0
  -29.8060  -21.8090   22.5110 C   0  0  0  0  0  2  0  0  0  0  0  0
  -28.9330  -24.5430   22.1560 C   0  0  0  0  0  2  0  0  0  0  0  0
  -30.2220  -22.9240   23.4610 C   0  0  0  0  0  2  0  0  0  0  0  0
  -29.0960  -23.9170   23.5320 C   0  0  0  0  0  2  0  0  0  0  0  0
  -30.6260  -20.0530   20.1580 C   0  0  0  0  0  3  0  0  0  0  0  0
  -28.3200  -19.8020   20.4940 C   0  0  0  0  0  3  0  0  0  0  0  0
  -30.7950  -18.5980   20.0940 C   0  0  0  0  0  3  0  0  0  0  0  0
  -28.4840  -18.3560   20.4200 C   0  0  0  0  0  3  0  0  0  0  0  0
  -29.3830  -20.7630   20.3860 C   0  0  0  0  0  0  0  0  0  0  0  0
  -29.7280  -17.6460   20.2560 C   0  0  0  0  0  0  0  0  0  0  0  0
  -30.5950  -14.9980   19.9430 C   0  0  0  0  0  0  0  0  0  0  0  0
  -30.4520  -12.6680   18.9320 C   0  0  0  0  0  2  0  0  0  0  0  0
  -29.4300  -12.6680   17.7690 C   0  0  0  0  0  2  0  0  0  0  0  0
  -27.9970  -12.4470   18.2910 C   0  0  0  0  0  2  0  0  0  0  0  0
  -27.6780  -13.3260   19.5280 C   0  0  0  0  0  3  0  0  0  0  0  0
  -28.8080  -13.2740   20.5790 C   0  0  0  0  0  2  0  0  0  0  0  0
  -30.0390  -13.7180   19.9080 N   0  0  0  0  0  0  0  0  0  0  0  0
  -31.7610  -15.1230   19.5490 O   0  0  0  0  0  0  0  0  0  0  0  0
  -29.7530  -16.1000   20.2660 N   0  0  0  0  0  0  0  0  0  0  0  0
  -28.8720  -15.7270   20.5880 H   0  0  0  0  0  0  0  0  0  0  0  0
  -25.3610  -13.8950   20.4570 C   0  0  0  0  0  0  0  0  0  0  0  0
  -24.3170  -13.1140   20.8690 C   0  0  0  0  0  0  0  0  0  0  0  0
  -24.7620  -11.7610   20.7440 C   0  0  0  0  0  0  0  0  0  0  0  0
  -26.3740  -13.0190   20.1040 N   0  0  0  0  0  0  0  0  0  0  0  0
  -26.0270  -11.7270   20.3410 N   0  0  0  0  0  0  0  0  0  0  0  0
  -24.0340  -10.4980   20.9280 C   0  0  0  0  0  0  0  0  0  0  0  0
  -24.4540   -9.5350   21.8710 C   0  0  0  0  0  3  0  0  0  0  0  0
  -23.7280   -8.3370   22.0440 C   0  0  0  0  0  3  0  0  0  0  0  0
  -22.5660   -8.0950   21.2720 C   0  0  0  0  0  0  0  0  0  0  0  0
  -22.1650   -9.0470   20.3190 C   0  0  0  0  0  3  0  0  0  0  0  0
  -22.8930  -10.2350   20.1440 C   0  0  0  0  0  3  0  0  0  0  0  0
  -21.8110   -6.9490   21.3540 O   0  0  0  0  0  0  0  0  0  0  0  0
  -21.6680   -6.2640   22.5340 C   0  0  0  0  0  0  0  0  0  0  0  0
  -21.0760   -6.8560   23.6720 C   0  0  0  0  0  3  0  0  0  0  0  0
  -20.8850   -6.0950   24.8420 C   0  0  0  0  0  3  0  0  0  0  0  0
  -21.2730   -4.7420   24.8750 C   0  0  0  0  0  0  0  0  0  0  0  0
  -21.8560   -4.1490   23.7410 C   0  0  0  0  0  3  0  0  0  0  0  0
  -22.0490   -4.9080   22.5720 C   0  0  0  0  0  0  0  0  0  0  0  0
  -22.5920   -4.3260   21.4760 F   0  0  0  0  0  0  0  0  0  0  0  0
  -21.0820   -4.0080   25.9950 F   0  0  0  0  0  0  0  0  0  0  0  0
  -22.9480  -13.5900   21.2570 C   0  0  0  0  0  0  0  0  0  0  0  0
  -22.2690  -12.8570   22.1330 N   0  0  0  0  0  0  0  0  0  0  0  0
  -22.4910  -14.6470   20.8200 O   0  0  0  0  0  0  0  0  0  0  0  0
  -22.6540  -12.0020   22.5070 H   0  0  0  0  0  0  0  0  0  0  0  0
  -21.3520  -13.1560   22.4340 H   0  0  0  0  0  0  0  0  0  0  0  0
  -25.5270  -15.2710   20.3260 N   0  0  0  0  0  0  0  0  0  0  0  0
  -24.7660  -15.9170   20.5050 H   0  0  0  0  0  0  0  0  0  0  0  0
  -26.3210  -15.7120   19.8820 H   0  0  0  0  0  0  0  0  0  0  0  0
  -28.3350  -24.6300   19.7960 C   0  0  0  0  0  2  0  0  0  0  0  0
  -28.4180  -26.1860   20.0310 O   0  0  0  0  0  0  0  0  0  0  0  0
  -24.6170  -31.7520   23.0180 C   0  0  0  0  0  0  0  0  0  0  0  0
  -27.3210  -27.1240   19.9600 C   0  0  0  0  0  0  0  0  0  0  0  0
  -23.4600  -30.3510   21.3520 C   0  0  0  0  0  3  0  0  0  0  0  0
  -24.9530  -28.8190   19.9220 C   0  0  0  0  0  0  0  0  0  0  0  0
  -26.0070  -30.6700   21.2110 C   0  0  0  0  0  2  0  0  0  0  0  0
  -26.1160  -29.2870   20.5460 C   0  0  0  0  0  0  0  0  0  0  0  0
  -27.2980  -28.4560   20.5460 C   0  0  0  0  0  3  0  0  0  0  0  0
  -26.1310  -26.7570   19.2950 C   0  0  0  0  0  3  0  0  0  0  0  0
  -24.9740  -27.5690   19.2810 C   0  0  0  0  0  3  0  0  0  0  0  0
  -23.7070  -29.6900   19.9690 C   0  0  0  0  0  2  0  0  0  0  0  0
  -24.7140  -30.9470   21.9170 N   0  0  0  0  0  0  0  0  0  0  0  0
  -23.5200  -32.0080   23.5400 O   0  0  0  0  0  0  0  0  0  0  0  0
  -22.7940  -29.3200   22.2990 C   0  0  0  0  0  0  0  0  0  0  0  0
  -21.4630  -29.1560   22.1900 N   0  0  0  0  0  0  0  0  0  0  0  0
  -23.4770  -28.6700   23.0950 O   0  0  0  0  0  0  0  0  0  0  0  0
  -20.9680  -29.7330   21.5250 H   0  0  0  0  0  0  0  0  0  0  0  0
  -18.0780  -28.0140   22.7840 C   0  0  0  0  0  0  0  0  0  0  0  0
  -20.6520  -28.2000   22.9490 C   0  0  0  0  0  3  0  0  0  0  0  0
  -20.6900  -26.7980   22.2980 C   0  0  0  0  0  2  0  0  0  0  0  0
  -19.5360  -26.5560   21.3180 C   0  0  0  0  0  2  0  0  0  0  0  0
  -18.1890  -26.6990   22.0310 C   0  0  0  0  0  2  0  0  0  0  0  0
  -19.2330  -28.7270   23.2010 C   0  0  0  0  0  0  0  0  0  0  0  0
  -19.0720  -29.9600   23.8690 C   0  0  0  0  0  3  0  0  0  0  0  0
  -17.7890  -30.4810   24.1220 C   0  0  0  0  0  3  0  0  0  0  0  0
  -16.6490  -29.7640   23.7190 C   0  0  0  0  0  3  0  0  0  0  0  0
  -16.7940  -28.5330   23.0560 C   0  0  0  0  0  3  0  0  0  0  0  0
  -25.8750  -32.4080   23.6640 C   0  0  0  0  0  3  0  0  0  0  0  0
  -25.5230  -33.7880   24.0340 N   0  0  0  0  0  0  0  0  0  0  0  0
  -25.8350  -34.8750   23.3160 C   0  0  0  0  0  0  0  0  0  0  0  0
  -26.5150  -34.8240   22.2870 O   0  0  0  0  0  0  0  0  0  0  0  0
  -24.9170  -33.9000   24.8330 H   0  0  0  0  0  0  0  0  0  0  0  0
  -24.0830  -36.6540   22.9920 C   0  0  0  0  0  1  0  0  0  0  0  0
  -25.3110  -36.2360   23.8160 C   0  0  0  0  0  3  0  0  0  0  0  0
  -27.3980  -37.1370   24.7470 C   0  0  0  0  0  1  0  0  0  0  0  0
  -26.3260  -37.3120   23.7700 N   0  0  0  0  0  0  0  0  0  0  0  0
  -25.8980  -38.2200   23.9290 H   0  0  0  0  0  0  0  0  0  0  0  0
  -26.4060  -31.6200   24.9260 C   0  0  1  0  0  0  0  0  0  0  0  0
  -25.3130  -31.3210   25.9790 C   0  0  0  0  0  1  0  0  0  0  0  0
  -27.0360  -30.2720   24.5080 C   0  0  0  0  0  1  0  0  0  0  0  0
  -27.5250  -32.4340   25.6180 C   0  0  0  0  0  1  0  0  0  0  0  0
  1  3  1  0
  2  1  2  0
  2  4  1  0
  3  5  1  0
  4  6  1  0
  5  6  1  0
  7 11  1  0
  9  7  2  0
  9 12  1  0
 10  8  1  0
 11  8  2  0
 11  1  1  0
 12 21  1  0
 12 10  2  0
 13 21  1  0
 14 19  1  0
 15 16  1  0
 15 14  1  0
 17 16  1  0
 17 26  1  0
 17 18  1  0
 19 13  1  0
 19 18  1  0
 20 13  2  0
 21 22  1  0
 23 24  2  0
 24 43  1  0
 25 24  1  0
 25 28  1  0
 26 27  1  0
 26 23  1  0
 27 25  2  0
 28 29  1  0
 29 30  2  0
 31 34  1  0
 31 30  1  0
 32 31  2  0
 33 32  1  0
 33 28  2  0
 34 35  1  0
 35 40  2  0
 35 36  1  0
 36 37  2  0
 37 38  1  0
 38 42  1  0
 39 38  2  0
 40 39  1  0
 41 40  1  0
 43 44  1  0
 44 47  1  0
 44 46  1  0
 45 43  2  0
 48 23  1  0
 48 49  1  0
 50 48  1  0
 51 52  1  0
 51  2  1  0
 53 64  2  0
 54 52  1  0
 54 59  1  0
 55 63  1  0
 55 65  1  0
 56 62  1  0
 56 58  1  0
 57 63  1  0
 58 57  1  0
 59 58  2  0
 60 54  2  0
 61 60  1  0
 61 56  2  0
 62 55  1  0
 63 53  1  0
 65 67  2  0
 66 65  1  0
 68 66  1  0
 69 78  2  0
 69 74  1  0
 70 66  1  0
 70 74  1  0
 71 70  1  0
 72 73  1  0
 72 71  1  0
 73 69  1  0
 74 75  2  0
 75 76  1  0
 77 76  2  0
 78 77  1  0
 79 53  1  0
 79 80  1  0
 79 89  1  0
 80 83  1  0
 81 85  1  0
 81 80  1  0
 82 81  2  0
 85 84  1  0
 87 85  1  0
 87 88  1  0
 87 86  1  0
 89 92  1  1
 89 90  1  0
 91 89  1  0
M  ISO  4  13 100  21 100  51 101  52 101
M  END
>  <TORSDO>  (48) 
F 18

>  <SCORE>  (48) 
-14.301

>  <name>  (48) 
47

>  <ligand_id>  (48) 
47

>  <original_smiles>  (48) 
[H]c1c([H])c([H])c2c(c1[H])C([H])([H])C([H])([H])C([H])([H])C2([H])N([H])C(=O)C1([H])N(C(=O)C([H])(N([H])C(=O)C([H])(N([H])C([H])([H])[H])C([H])([H])[H])C(C([H])([H])[H])(C([H])([H])[H])C([H])([H])[H])C([H])([H])c2c([H])c(OC([H])([H])C3=C(c4c([H])c([H])c(N([H])C(=O)N5C([H])([H])C([H])([H])C([H])([H])C([H])(n6nc(-c7c([H])c([H])c(Oc8c([H])c([H])c(F)c([H])c8F)c([H])c7[H])c(C(=O)N([H])[H])c6N([H])[H])C5([H])[H])c([H])c4[H])C([H])([H])C([H])([H])C([H])([H])C3([H])[H])c([H])c([H])c2C1([H])[H]

>  <smiles>  (48) 
[H]c1c([H])c([H])c2c(c1[H])C([H])([H])C([H])([H])C([H])([H])C2([H])N([H])C(=O)C1([H])N(C(=O)C([H])(N([H])C(=O)C([H])(N([H])C([H])([H])[H])C([H])([H])[H])C(C([H])([H])[H])(C([H])([H])[H])C([H])([H])[H])C([H])([H])c2c([H])c(OC([H])([H])C3=C(c4c([H])c([H])c(N([H])C(=O)N5C([H])([H])C([H])([H])C([H])([H])C([H])(n6nc(-c7c([H])c([H])c(Oc8c([H])c([H])c(F)c([H])c8F)c([H])c7[H])c(C(=O)N([H])[H])c6N([H])[H])C5([H])[H])c([H])c4[H])C([H])([H])C([H])([H])C([H])([H])C3([H])[H])c([H])c([H])c2C1([H])[H]

$$$$
48:0:0
     RDKit          3D

 95104  0  0  1  0  0  0  0  0999 V2000
  -28.7830  -23.0460   19.9500 N   0  0  0  0  0  0  0  0  0  0  0  0
  -28.4760  -23.4080   19.0480 H   0  0  0  0  0  0  0  0  0  0  0  0
  -29.2790  -24.2470   23.4070 C   0  0  0  0  0  3  0  0  0  0  0  0
  -29.1930  -25.6380   23.3420 C   0  0  0  0  0  3  0  0  0  0  0  0
  -29.1170  -23.4870   22.2420 C   0  0  0  0  0  3  0  0  0  0  0  0
  -28.9170  -26.2590   22.1160 C   0  0  0  0  0  3  0  0  0  0  0  0
  -28.8560  -24.0630   20.9700 C   0  0  0  0  0  0  0  0  0  0  0  0
  -28.6920  -25.5450   20.9090 C   0  0  0  0  0  0  0  0  0  0  0  0
  -28.4140  -26.4290   19.8290 O   0  0  0  0  0  0  0  0  0  0  0  0
  -24.5960  -31.7510   23.0720 C   0  0  0  0  0  0  0  0  0  0  0  0
  -27.3080  -27.3140   19.8800 C   0  0  0  0  0  0  0  0  0  0  0  0
  -23.4160  -30.3500   21.4190 C   0  0  0  0  0  3  0  0  0  0  0  0
  -24.8930  -28.8700   19.9400 C   0  0  0  0  0  0  0  0  0  0  0  0
  -25.9420  -30.7480   21.2040 C   0  0  0  0  0  2  0  0  0  0  0  0
  -26.0580  -29.3810   20.5280 C   0  0  0  0  0  0  0  0  0  0  0  0
  -27.2690  -28.6180   20.4860 C   0  0  0  0  0  3  0  0  0  0  0  0
  -26.1210  -26.8680   19.2650 C   0  0  0  0  0  3  0  0  0  0  0  0
  -24.9290  -27.6230   19.2940 C   0  0  0  0  0  3  0  0  0  0  0  0
  -23.6320  -29.7050   20.0240 C   0  0  0  0  0  2  0  0  0  0  0  0
  -24.6710  -30.9700   21.9530 N   0  0  0  0  0  0  0  0  0  0  0  0
  -23.5130  -31.9780   23.6320 O   0  0  0  0  0  0  0  0  0  0  0  0
  -22.8000  -29.2960   22.3720 C   0  0  0  0  0  0  0  0  0  0  0  0
  -21.4830  -29.0620   22.2500 N   0  0  0  0  0  0  0  0  0  0  0  0
  -23.5100  -28.6890   23.1790 O   0  0  0  0  0  0  0  0  0  0  0  0
  -20.9660  -29.5990   21.5680 H   0  0  0  0  0  0  0  0  0  0  0  0
  -18.1750  -27.6820   22.7330 C   0  0  0  0  0  0  0  0  0  0  0  0
  -20.7140  -28.0780   23.0140 C   0  0  0  0  0  3  0  0  0  0  0  0
  -20.8970  -26.6590   22.4310 C   0  0  0  0  0  2  0  0  0  0  0  0
  -19.8170  -26.2840   21.4110 C   0  0  0  0  0  2  0  0  0  0  0  0
  -18.4280  -26.3480   22.0490 C   0  0  0  0  0  2  0  0  0  0  0  0
  -19.2480  -28.5000   23.1720 C   0  0  0  0  0  0  0  0  0  0  0  0
  -18.9580  -29.7440   23.7750 C   0  0  0  0  0  3  0  0  0  0  0  0
  -17.6290  -30.1710   23.9420 C   0  0  0  0  0  3  0  0  0  0  0  0
  -16.5690  -29.3510   23.5170 C   0  0  0  0  0  3  0  0  0  0  0  0
  -16.8420  -28.1090   22.9200 C   0  0  0  0  0  3  0  0  0  0  0  0
  -25.8640  -32.4160   23.6910 C   0  0  0  0  0  3  0  0  0  0  0  0
  -25.5090  -33.7950   24.0600 N   0  0  0  0  0  0  0  0  0  0  0  0
  -25.8150  -34.8790   23.3360 C   0  0  0  0  0  0  0  0  0  0  0  0
  -26.4890  -34.8250   22.3030 O   0  0  0  0  0  0  0  0  0  0  0  0
  -24.9020  -33.9070   24.8590 H   0  0  0  0  0  0  0  0  0  0  0  0
  -24.0480  -36.6430   23.0180 C   0  0  0  0  0  1  0  0  0  0  0  0
  -25.2870  -36.2390   23.8340 C   0  0  0  0  0  3  0  0  0  0  0  0
  -27.3830  -37.1500   24.7330 C   0  0  0  0  0  1  0  0  0  0  0  0
  -26.2940  -37.3220   23.7750 N   0  0  0  0  0  0  0  0  0  0  0  0
  -25.8610  -38.2250   23.9450 H   0  0  0  0  0  0  0  0  0  0  0  0
  -26.4250  -31.6380   24.9430 C   0  0  1  0  0  0  0  0  0  0  0  0
  -25.3580  -31.3490   26.0240 C   0  0  0  0  0  1  0  0  0  0  0  0
  -27.0410  -30.2860   24.5150 C   0  0  0  0  0  1  0  0  0  0  0  0
  -27.5610  -32.4540   25.6020 C   0  0  0  0  0  1  0  0  0  0  0  0
  -29.8600  -21.9700   19.8400 C   0  0  0  0  0  2  0  0  0  0  0  0
  -30.6190  -14.8710   20.2150 C   0  0  0  0  0  0  0  0  0  0  0  0
  -30.4630  -12.5660   19.2470 C   0  0  0  0  0  2  0  0  0  0  0  0
  -29.5010  -12.6240   18.0380 C   0  0  0  0  0  2  0  0  0  0  0  0
  -28.0340  -12.4570   18.4860 C   0  0  0  0  0  2  0  0  0  0  0  0
  -27.6800  -13.3400   19.7100 C   0  0  0  0  0  3  0  0  0  0  0  0
  -28.7580  -13.2460   20.8110 C   0  0  0  0  0  2  0  0  0  0  0  0
  -30.0410  -13.6190   20.2010 N   0  0  0  0  0  0  0  0  0  0  0  0
  -31.7990  -14.9960   19.8660 O   0  0  0  0  0  0  0  0  0  0  0  0
  -28.5870  -19.6250   20.3480 C   0  0  0  0  0  3  0  0  0  0  0  0
  -28.6370  -18.1950   20.4880 C   0  0  0  0  0  3  0  0  0  0  0  0
  -29.7390  -20.3680   19.9750 C   0  0  0  0  0  0  0  0  0  0  0  0
  -30.8760  -19.5210   19.7480 C   0  0  0  0  0  0  0  0  0  0  0  0
  -29.8200  -17.4240   20.2580 C   0  0  0  0  0  0  0  0  0  0  0  0
  -32.2180  -20.1160   19.3600 C   0  0  0  0  0  1  0  0  0  0  0  0
  -30.9060  -18.1490   19.8780 N   0  0  0  0  0  0  0  0  0  0  0  0
  -29.7680  -15.9480   20.4540 N   0  0  0  0  0  0  0  0  0  0  0  0
  -28.8680  -15.6270   20.7690 H   0  0  0  0  0  0  0  0  0  0  0  0
  -25.3170  -13.9390   20.5050 C   0  0  0  0  0  0  0  0  0  0  0  0
  -24.2540  -13.1690   20.8880 C   0  0  0  0  0  0  0  0  0  0  0  0
  -24.7020  -11.8140   20.8200 C   0  0  0  0  0  0  0  0  0  0  0  0
  -26.3460  -13.0540   20.2260 N   0  0  0  0  0  0  0  0  0  0  0  0
  -25.9840  -11.7690   20.4790 N   0  0  0  0  0  0  0  0  0  0  0  0
  -23.9670  -10.5570   21.0030 C   0  0  0  0  0  0  0  0  0  0  0  0
  -24.3990   -9.5760   21.9220 C   0  0  0  0  0  3  0  0  0  0  0  0
  -23.6650   -8.3820   22.0920 C   0  0  0  0  0  3  0  0  0  0  0  0
  -22.4840   -8.1630   21.3450 C   0  0  0  0  0  0  0  0  0  0  0  0
  -22.0700   -9.1320   20.4150 C   0  0  0  0  0  3  0  0  0  0  0  0
  -22.8050  -10.3170   20.2420 C   0  0  0  0  0  3  0  0  0  0  0  0
  -21.7190   -7.0250   21.4270 O   0  0  0  0  0  0  0  0  0  0  0  0
  -21.6640   -6.2760   22.5750 C   0  0  0  0  0  0  0  0  0  0  0  0
  -21.2230   -6.8210   23.8010 C   0  0  0  0  0  3  0  0  0  0  0  0
  -21.1160   -5.9990   24.9400 C   0  0  0  0  0  3  0  0  0  0  0  0
  -21.4390   -4.6320   24.8540 C   0  0  0  0  0  0  0  0  0  0  0  0
  -21.8730   -4.0860   23.6330 C   0  0  0  0  0  3  0  0  0  0  0  0
  -21.9820   -4.9050   22.4960 C   0  0  0  0  0  0  0  0  0  0  0  0
  -22.3800   -4.3690   21.3180 F   0  0  0  0  0  0  0  0  0  0  0  0
  -21.3280   -3.8390   25.9450 F   0  0  0  0  0  0  0  0  0  0  0  0
  -22.8690  -13.6550   21.2000 C   0  0  0  0  0  0  0  0  0  0  0  0
  -22.1520  -12.9450   22.0640 N   0  0  0  0  0  0  0  0  0  0  0  0
  -22.4320  -14.6990   20.7150 O   0  0  0  0  0  0  0  0  0  0  0  0
  -22.5220  -12.1010   22.4750 H   0  0  0  0  0  0  0  0  0  0  0  0
  -21.2240  -13.2490   22.3190 H   0  0  0  0  0  0  0  0  0  0  0  0
  -25.4850  -15.3110   20.3420 N   0  0  0  0  0  0  0  0  0  0  0  0
  -24.6920  -15.9370   20.4240 H   0  0  0  0  0  0  0  0  0  0  0  0
  -26.2640  -15.7250   19.8480 H   0  0  0  0  0  0  0  0  0  0  0  0
  1  7  1  0
  2  1  1  0
  4  3  1  0
  5  3  2  0
  6  4  2  0
  7  5  1  0
  8  7  2  0
  8  6  1  0
  9 11  1  0
  9  8  1  0
 10 21  2  0
 11 16  1  0
 12 20  1  0
 12 22  1  0
 13 19  1  0
 13 15  1  0
 14 20  1  0
 15 14  1  0
 16 15  2  0
 17 18  1  0
 17 11  2  0
 18 13  2  0
 19 12  1  0
 20 10  1  0
 22 24  2  0
 23 22  1  0
 25 23  1  0
 26 35  2  0
 26 31  1  0
 27 23  1  0
 27 31  1  0
 28 27  1  0
 29 30  1  0
 29 28  1  0
 30 26  1  0
 31 32  2  0
 32 33  1  0
 34 33  2  0
 35 34  1  0
 36 10  1  0
 36 37  1  0
 36 46  1  0
 37 40  1  0
 38 42  1  0
 38 37  1  0
 39 38  2  0
 42 41  1  0
 44 42  1  0
 44 45  1  0
 44 43  1  0
 46 49  1  1
 46 47  1  0
 48 46  1  0
 50  1  1  0
 50 61  1  0
 51 66  1  0
 52 57  1  0
 53 54  1  0
 53 52  1  0
 55 54  1  0
 55 71  1  0
 55 56  1  0
 57 51  1  0
 57 56  1  0
 58 51  2  0
 59 60  1  0
 61 59  2  0
 62 65  2  0
 62 61  1  0
 63 66  1  0
 63 60  2  0
 64 62  1  0
 65 63  1  0
 66 67  1  0
 68 69  2  0
 69 88  1  0
 70 69  1  0
 70 73  1  0
 71 72  1  0
 71 68  1  0
 72 70  2  0
 73 74  1  0
 74 75  2  0
 76 79  1  0
 76 75  1  0
 77 76  2  0
 78 77  1  0
 78 73  2  0
 79 80  1  0
 80 81  1  0
 81 82  2  0
 83 82  1  0
 83 87  1  0
 84 83  2  0
 85 80  2  0
 85 84  1  0
 86 85  1  0
 88 89  1  0
 89 92  1  0
 89 91  1  0
 90 88  2  0
 93 94  1  0
 93 68  1  0
 95 93  1  0
M  ISO  4   8 101   9 101  51 100  66 100
M  END
>  <TORSDO>  (49) 
F 18

>  <SCORE>  (49) 
-14.601

>  <name>  (49) 
48

>  <ligand_id>  (49) 
48

>  <original_smiles>  (49) 
[H]c1c(N([H])C(=O)N2C([H])([H])C([H])([H])C([H])([H])C([H])(n3nc(-c4c([H])c([H])c(Oc5c([H])c([H])c(F)c([H])c5F)c([H])c4[H])c(C(=O)N([H])[H])c3N([H])[H])C2([H])[H])nc(C([H])([H])[H])c(C([H])([H])N([H])c2c([H])c([H])c([H])c([H])c2Oc2c([H])c([H])c3c(c2[H])C([H])([H])N(C(=O)C([H])(N([H])C(=O)C([H])(N([H])C([H])([H])[H])C([H])([H])[H])C(C([H])([H])[H])(C([H])([H])[H])C([H])([H])[H])C([H])(C(=O)N([H])C2([H])c4c([H])c([H])c([H])c([H])c4C([H])([H])C([H])([H])C2([H])[H])C3([H])[H])c1[H]

>  <smiles>  (49) 
[H]c1c(N([H])C(=O)N2C([H])([H])C([H])([H])C([H])([H])C([H])(n3nc(-c4c([H])c([H])c(Oc5c([H])c([H])c(F)c([H])c5F)c([H])c4[H])c(C(=O)N([H])[H])c3N([H])[H])C2([H])[H])nc(C([H])([H])[H])c(C([H])([H])N([H])c2c([H])c([H])c([H])c([H])c2Oc2c([H])c([H])c3c(c2[H])C([H])([H])N(C(=O)C([H])(N([H])C(=O)C([H])(N([H])C([H])([H])[H])C([H])([H])[H])C(C([H])([H])[H])(C([H])([H])[H])C([H])([H])[H])C([H])(C(=O)N([H])C2([H])c4c([H])c([H])c([H])c([H])c4C([H])([H])C([H])([H])C2([H])[H])C3([H])[H])c1[H]

$$$$
49:0:0
     RDKit          3D

 98107  0  0  1  0  0  0  0  0999 V2000
  -30.0850  -21.0970   20.4070 N   0  0  0  0  0  4  0  0  0  0  0  0
  -30.5560  -20.8170   19.5630 H   0  0  0  0  0  0  0  0  0  0  0  0
  -29.2070  -20.6080   20.4380 H   0  0  0  0  0  0  0  0  0  0  0  0
  -28.3280  -24.2410   19.1370 C   0  0  0  0  0  2  0  0  0  0  0  0
  -30.6660  -24.8660   19.9340 C   0  0  0  0  0  2  0  0  0  0  0  0
  -28.7080  -22.7610   19.2320 C   0  0  0  0  0  2  0  0  0  0  0  0
  -31.0220  -23.3770   20.0340 C   0  0  0  0  0  2  0  0  0  0  0  0
  -29.5590  -25.1330   18.8910 C   0  0  0  0  0  3  0  0  0  0  0  0
  -29.7650  -22.5320   20.3270 C   0  0  0  0  0  3  0  0  0  0  0  0
  -29.1640  -26.6120   18.8840 C   0  0  0  0  0  2  0  0  0  0  0  0
  -28.6240  -26.9190   20.1660 O   0  0  0  0  0  0  0  0  0  0  0  0
  -24.5830  -31.8450   23.2490 C   0  0  0  0  0  0  0  0  0  0  0  0
  -27.4050  -27.5390   20.1810 C   0  0  0  0  0  0  0  0  0  0  0  0
  -23.4370  -30.4090   21.5880 C   0  0  0  0  0  3  0  0  0  0  0  0
  -24.9530  -28.9150   20.1870 C   0  0  0  0  0  0  0  0  0  0  0  0
  -25.9440  -30.8510   21.4230 C   0  0  0  0  0  2  0  0  0  0  0  0
  -26.0770  -29.4830   20.7980 C   0  0  0  0  0  0  0  0  0  0  0  0
  -27.3010  -28.7890   20.8160 C   0  0  0  0  0  3  0  0  0  0  0  0
  -26.2630  -26.9600   19.5840 C   0  0  0  0  0  3  0  0  0  0  0  0
  -25.0350  -27.6440   19.5890 C   0  0  0  0  0  3  0  0  0  0  0  0
  -23.6810  -29.7300   20.2120 C   0  0  0  0  0  2  0  0  0  0  0  0
  -24.6710  -31.0490   22.1460 N   0  0  0  0  0  0  0  0  0  0  0  0
  -23.4870  -32.0880   23.7730 O   0  0  0  0  0  0  0  0  0  0  0  0
  -22.8020  -29.3730   22.5390 C   0  0  0  0  0  0  0  0  0  0  0  0
  -21.4950  -29.1230   22.3570 N   0  0  0  0  0  0  0  0  0  0  0  0
  -23.4810  -28.7930   23.3910 O   0  0  0  0  0  0  0  0  0  0  0  0
  -21.0090  -29.6470   21.6420 H   0  0  0  0  0  0  0  0  0  0  0  0
  -18.1790  -27.7370   22.6900 C   0  0  0  0  0  0  0  0  0  0  0  0
  -20.6950  -28.1550   23.1030 C   0  0  0  0  0  3  0  0  0  0  0  0
  -20.9170  -26.7200   22.5740 C   0  0  0  0  0  2  0  0  0  0  0  0
  -19.8970  -26.3060   21.5080 C   0  0  0  0  0  2  0  0  0  0  0  0
  -18.4740  -26.3840   22.0660 C   0  0  0  0  0  2  0  0  0  0  0  0
  -19.2230  -28.5760   23.1620 C   0  0  0  0  0  0  0  0  0  0  0  0
  -18.8960  -29.8400   23.7010 C   0  0  0  0  0  3  0  0  0  0  0  0
  -17.5570  -30.2670   23.7730 C   0  0  0  0  0  3  0  0  0  0  0  0
  -16.5270  -29.4260   23.3160 C   0  0  0  0  0  3  0  0  0  0  0  0
  -16.8380  -28.1630   22.7830 C   0  0  0  0  0  3  0  0  0  0  0  0
  -25.8440  -32.5050   23.8900 C   0  0  0  0  0  3  0  0  0  0  0  0
  -26.3420  -31.7600   25.1880 C   0  0  1  0  0  0  0  0  0  0  0  0
  -25.2270  -31.5100   26.2280 C   0  0  0  0  0  1  0  0  0  0  0  0
  -26.9600  -30.3880   24.8250 C   0  0  0  0  0  1  0  0  0  0  0  0
  -27.4560  -32.5840   25.8750 C   0  0  0  0  0  1  0  0  0  0  0  0
  -25.5060  -33.9050   24.1820 N   0  0  0  0  0  0  0  0  0  0  0  0
  -25.8360  -34.9440   23.4060 C   0  0  0  0  0  0  0  0  0  0  0  0
  -26.5310  -34.8270   22.3910 O   0  0  0  0  0  0  0  0  0  0  0  0
  -24.8860  -34.0670   24.9630 H   0  0  0  0  0  0  0  0  0  0  0  0
  -24.0860  -36.6980   22.9690 C   0  0  0  0  0  1  0  0  0  0  0  0
  -25.3150  -36.3350   23.8170 C   0  0  0  0  0  3  0  0  0  0  0  0
  -27.4160  -37.2760   24.6740 C   0  0  0  0  0  1  0  0  0  0  0  0
  -26.3320  -37.4010   23.7020 N   0  0  0  0  0  0  0  0  0  0  0  0
  -25.9070  -38.3180   23.8210 H   0  0  0  0  0  0  0  0  0  0  0  0
  -30.8610  -20.6690   21.5870 C   0  0  0  0  0  2  0  0  0  0  0  0
  -30.9660  -14.3770   19.8660 C   0  0  0  0  0  0  0  0  0  0  0  0
  -30.4200  -12.3970   18.5020 C   0  0  0  0  0  2  0  0  0  0  0  0
  -29.3660  -12.7420   17.4340 C   0  0  0  0  0  2  0  0  0  0  0  0
  -27.9420  -12.5960   18.0050 C   0  0  0  0  0  2  0  0  0  0  0  0
  -27.7670  -13.3370   19.3560 C   0  0  0  0  0  3  0  0  0  0  0  0
  -28.9170  -12.9790   20.3250 C   0  0  0  0  0  2  0  0  0  0  0  0
  -30.2040  -13.2730   19.6610 N   0  0  0  0  0  0  0  0  0  0  0  0
  -31.8860  -14.7060   19.1080 O   0  0  0  0  0  0  0  0  0  0  0  0
  -29.8200  -18.4290   22.0700 C   0  0  0  0  0  3  0  0  0  0  0  0
  -29.7840  -17.0380   21.9010 C   0  0  0  0  0  3  0  0  0  0  0  0
  -30.9300  -19.1490   21.5900 C   0  0  0  0  0  0  0  0  0  0  0  0
  -32.0180  -18.4190   21.0570 C   0  0  0  0  0  0  0  0  0  0  0  0
  -30.8560  -16.3960   21.2550 C   0  0  0  0  0  0  0  0  0  0  0  0
  -31.9640  -17.0820   20.8930 N   0  0  0  0  0  0  0  0  0  0  0  0
  -30.6750  -15.0250   21.0030 N   0  0  0  0  0  0  0  0  0  0  0  0
  -29.9600  -14.5740   21.5490 H   0  0  0  0  0  0  0  0  0  0  0  0
  -25.4560  -13.9360   20.3300 C   0  0  0  0  0  0  0  0  0  0  0  0
  -24.4210  -13.1570   20.7720 C   0  0  0  0  0  0  0  0  0  0  0  0
  -24.8590  -11.8040   20.6320 C   0  0  0  0  0  0  0  0  0  0  0  0
  -26.4610  -13.0570   19.9530 N   0  0  0  0  0  0  0  0  0  0  0  0
  -26.1090  -11.7670   20.1880 N   0  0  0  0  0  0  0  0  0  0  0  0
  -24.1410  -10.5390   20.8420 C   0  0  0  0  0  0  0  0  0  0  0  0
  -24.6050   -9.5700   21.7580 C   0  0  0  0  0  3  0  0  0  0  0  0
  -23.8890   -8.3700   21.9570 C   0  0  0  0  0  3  0  0  0  0  0  0
  -22.6930   -8.1310   21.2390 C   0  0  0  0  0  0  0  0  0  0  0  0
  -22.2460   -9.0890   20.3110 C   0  0  0  0  0  3  0  0  0  0  0  0
  -22.9640  -10.2810   20.1110 C   0  0  0  0  0  3  0  0  0  0  0  0
  -21.9450   -6.9840   21.3440 O   0  0  0  0  0  0  0  0  0  0  0  0
  -21.8520   -6.2930   22.5260 C   0  0  0  0  0  0  0  0  0  0  0  0
  -21.3690   -6.8980   23.7070 C   0  0  0  0  0  3  0  0  0  0  0  0
  -21.2240   -6.1310   24.8810 C   0  0  0  0  0  3  0  0  0  0  0  0
  -21.5520   -4.7630   24.8750 C   0  0  0  0  0  0  0  0  0  0  0  0
  -22.0290   -4.1580   23.6970 C   0  0  0  0  0  3  0  0  0  0  0  0
  -22.1750   -4.9220   22.5270 C   0  0  0  0  0  0  0  0  0  0  0  0
  -22.6140   -4.3310   21.3890 F   0  0  0  0  0  0  0  0  0  0  0  0
  -21.4070   -4.0240   26.0000 F   0  0  0  0  0  0  0  0  0  0  0  0
  -23.0650  -13.6320   21.2120 C   0  0  0  0  0  0  0  0  0  0  0  0
  -22.4330  -12.9120   22.1320 N   0  0  0  0  0  0  0  0  0  0  0  0
  -22.5800  -14.6760   20.7760 O   0  0  0  0  0  0  0  0  0  0  0  0
  -22.8370  -12.0650   22.5030 H   0  0  0  0  0  0  0  0  0  0  0  0
  -21.5260  -13.2070   22.4680 H   0  0  0  0  0  0  0  0  0  0  0  0
  -25.6200  -15.3120   20.2010 N   0  0  0  0  0  0  0  0  0  0  0  0
  -24.8830  -15.9660   20.4440 H   0  0  0  0  0  0  0  0  0  0  0  0
  -26.4390  -15.7600   19.8090 H   0  0  0  0  0  0  0  0  0  0  0  0
  -33.2190  -19.4470   19.0590 C   0  0  0  0  0  1  0  0  0  0  0  0
  -33.2990  -19.0640   20.5430 C   0  0  0  0  0  2  0  0  0  0  0  0
  1  3  1  0
  1 52  1  0
  2  1  1  0
  4  6  1  0
  5  7  1  0
  6  9  1  0
  7  9  1  0
  8 10  1  0
  8  4  1  0
  8  5  1  0
  9  1  1  0
 10 11  1  0
 11 13  1  0
 12 23  2  0
 13 18  1  0
 14 22  1  0
 14 24  1  0
 15 21  1  0
 15 17  1  0
 16 22  1  0
 17 18  2  0
 17 16  1  0
 19 20  1  0
 19 13  2  0
 20 15  2  0
 21 14  1  0
 22 12  1  0
 24 26  2  0
 25 24  1  0
 27 25  1  0
 28 37  2  0
 28 33  1  0
 29 25  1  0
 29 33  1  0
 30 29  1  0
 31 32  1  0
 31 30  1  0
 32 28  1  0
 33 34  2  0
 34 35  1  0
 36 35  2  0
 37 36  1  0
 38 12  1  0
 38 43  1  0
 38 39  1  0
 39 42  1  1
 39 40  1  0
 41 39  1  0
 43 46  1  0
 44 48  1  0
 44 43  1  0
 45 44  2  0
 48 47  1  0
 50 48  1  0
 50 51  1  0
 50 49  1  0
 52 63  1  0
 53 67  1  0
 54 59  1  0
 55 56  1  0
 55 54  1  0
 57 56  1  0
 57 72  1  0
 57 58  1  0
 59 53  1  0
 59 58  1  0
 60 53  2  0
 62 61  1  0
 63 61  2  0
 64 63  1  0
 65 62  2  0
 66 64  2  0
 66 65  1  0
 67 65  1  0
 67 68  1  0
 69 70  2  0
 70 89  1  0
 71 70  1  0
 71 74  1  0
 72 73  1  0
 72 69  1  0
 73 71  2  0
 74 75  1  0
 75 76  2  0
 77 80  1  0
 77 76  1  0
 78 77  2  0
 79 78  1  0
 79 74  2  0
 80 81  1  0
 81 86  2  0
 81 82  1  0
 82 83  2  0
 84 83  1  0
 84 88  1  0
 85 84  2  0
 86 85  1  0
 87 86  1  0
 89 90  1  0
 90 93  1  0
 90 92  1  0
 91 89  2  0
 94 69  1  0
 94 95  1  0
 96 94  1  0
 97 98  1  0
 98 64  1  0
M  ISO  4  10 101  11 101  53 100  67 100
M  END
>  <TORSDO>  (50) 
F 20

>  <SCORE>  (50) 
-12.688

>  <name>  (50) 
49

>  <ligand_id>  (50) 
49

>  <original_smiles>  (50) 
[H]c1c(N([H])C(=O)N2C([H])([H])C([H])([H])C([H])([H])C([H])(n3nc(-c4c([H])c([H])c(Oc5c([H])c([H])c(F)c([H])c5F)c([H])c4[H])c(C(=O)N([H])[H])c3N([H])[H])C2([H])[H])nc(C([H])([H])C([H])([H])[H])c(C([H])([H])[N+]([H])([H])C2([H])C([H])([H])C([H])([H])C([H])(C([H])([H])Oc3c([H])c([H])c4c(c3[H])C([H])([H])N(C(=O)C([H])(N([H])C(=O)C([H])(N([H])C([H])([H])[H])C([H])([H])[H])C(C([H])([H])[H])(C([H])([H])[H])C([H])([H])[H])C([H])(C(=O)N([H])C3([H])c5c([H])c([H])c([H])c([H])c5C([H])([H])C([H])([H])C3([H])[H])C4([H])[H])C([H])([H])C2([H])[H])c1[H]

>  <smiles>  (50) 
[H]c1c(N([H])C(=O)N2C([H])([H])C([H])([H])C([H])([H])C([H])(n3nc(-c4c([H])c([H])c(Oc5c([H])c([H])c(F)c([H])c5F)c([H])c4[H])c(C(=O)N([H])[H])c3N([H])[H])C2([H])[H])nc(C([H])([H])C([H])([H])[H])c(C([H])([H])[N+]([H])([H])C2([H])C([H])([H])C([H])([H])C([H])(C([H])([H])Oc3c([H])c([H])c4c(c3[H])C([H])([H])N(C(=O)C([H])(N([H])C(=O)C([H])(N([H])C([H])([H])[H])C([H])([H])[H])C(C([H])([H])[H])(C([H])([H])[H])C([H])([H])[H])C([H])(C(=O)N([H])C3([H])c5c([H])c([H])c([H])c([H])c5C([H])([H])C([H])([H])C3([H])[H])C4([H])[H])C([H])([H])C2([H])[H])c1[H]

$$$$
50:0:0
     RDKit          3D

 92101  0  0  1  0  0  0  0  0999 V2000
  -30.9230  -20.6890   18.9070 C   0  0  0  0  0  3  0  0  0  0  0  0
  -30.6860  -22.8850   19.0870 C   0  0  0  0  0  3  0  0  0  0  0  0
  -31.4170  -21.9310   18.4510 C   0  0  0  0  0  0  0  0  0  0  0  0
  -29.8880  -20.8560   19.7900 C   0  0  0  0  0  0  0  0  0  0  0  0
  -32.5490  -22.1540   17.4820 C   0  0  0  0  0  1  0  0  0  0  0  0
  -29.6630  -22.3300   19.8470 N   0  0  0  0  0  0  0  0  0  0  0  0
  -30.6450  -14.8930   20.3140 C   0  0  0  0  0  0  0  0  0  0  0  0
  -30.3730  -12.5830   19.3510 C   0  0  0  0  0  2  0  0  0  0  0  0
  -29.4400  -12.5740   18.1230 C   0  0  0  0  0  2  0  0  0  0  0  0
  -27.9840  -12.3650   18.5740 C   0  0  0  0  0  2  0  0  0  0  0  0
  -27.5930  -13.2890   19.7570 C   0  0  0  0  0  3  0  0  0  0  0  0
  -28.6630  -13.3330   20.8700 C   0  0  0  0  0  2  0  0  0  0  0  0
  -29.9340  -13.6990   20.2350 N   0  0  0  0  0  0  0  0  0  0  0  0
  -31.8550  -14.8270   20.0730 O   0  0  0  0  0  0  0  0  0  0  0  0
  -28.8770  -18.3300   19.4880 C   0  0  0  0  0  2  0  0  0  0  0  0
  -30.3100  -18.7290   21.4100 C   0  0  0  0  0  2  0  0  0  0  0  0
  -28.8270  -16.7950   20.0020 C   0  0  0  0  0  2  0  0  0  0  0  0
  -30.9680  -17.3380   20.9430 C   0  0  0  0  0  2  0  0  0  0  0  0
  -29.3140  -19.5120   20.4650 C   0  0  0  0  0  3  0  0  0  0  0  0
  -30.0820  -16.1820   20.5550 N   0  0  0  0  0  0  0  0  0  0  0  0
  -25.2230  -13.8680   20.5210 C   0  0  0  0  0  0  0  0  0  0  0  0
  -24.1620  -13.0920   20.8960 C   0  0  0  0  0  0  0  0  0  0  0  0
  -24.6280  -11.7410   20.8620 C   0  0  0  0  0  0  0  0  0  0  0  0
  -26.2640  -12.9900   20.2740 N   0  0  0  0  0  0  0  0  0  0  0  0
  -25.9170  -11.7070   20.5470 N   0  0  0  0  0  0  0  0  0  0  0  0
  -23.9040  -10.4790   21.0530 C   0  0  0  0  0  0  0  0  0  0  0  0
  -24.3400   -9.5110   21.9830 C   0  0  0  0  0  3  0  0  0  0  0  0
  -23.6150   -8.3130   22.1640 C   0  0  0  0  0  3  0  0  0  0  0  0
  -22.4380   -8.0760   21.4140 C   0  0  0  0  0  0  0  0  0  0  0  0
  -22.0200   -9.0340   20.4710 C   0  0  0  0  0  3  0  0  0  0  0  0
  -22.7470  -10.2220   20.2890 C   0  0  0  0  0  3  0  0  0  0  0  0
  -21.6840   -6.9320   21.5040 O   0  0  0  0  0  0  0  0  0  0  0  0
  -21.6410   -6.1860   22.6550 C   0  0  0  0  0  0  0  0  0  0  0  0
  -21.2230   -6.7390   23.8860 C   0  0  0  0  0  3  0  0  0  0  0  0
  -21.1280   -5.9210   25.0290 C   0  0  0  0  0  3  0  0  0  0  0  0
  -21.4410   -4.5500   24.9430 C   0  0  0  0  0  0  0  0  0  0  0  0
  -21.8530   -3.9970   23.7160 C   0  0  0  0  0  3  0  0  0  0  0  0
  -21.9500   -4.8130   22.5760 C   0  0  0  0  0  0  0  0  0  0  0  0
  -22.3260   -4.2720   21.3930 F   0  0  0  0  0  0  0  0  0  0  0  0
  -21.3430   -3.7620   26.0380 F   0  0  0  0  0  0  0  0  0  0  0  0
  -22.7660  -13.5680   21.1700 C   0  0  0  0  0  0  0  0  0  0  0  0
  -22.0380  -12.8700   22.0340 N   0  0  0  0  0  0  0  0  0  0  0  0
  -22.3290  -14.5970   20.6540 O   0  0  0  0  0  0  0  0  0  0  0  0
  -22.4040  -12.0390   22.4730 H   0  0  0  0  0  0  0  0  0  0  0  0
  -21.1000  -13.1720   22.2610 H   0  0  0  0  0  0  0  0  0  0  0  0
  -25.3820  -15.2380   20.3420 N   0  0  0  0  0  0  0  0  0  0  0  0
  -24.6110  -15.8890   20.4570 H   0  0  0  0  0  0  0  0  0  0  0  0
  -26.2280  -15.6800   20.0070 H   0  0  0  0  0  0  0  0  0  0  0  0
  -28.7580  -23.3700   20.5680 C   0  0  0  0  0  2  0  0  0  0  0  0
  -28.2960  -24.7340   18.2910 C   0  0  0  0  0  1  0  0  0  0  0  0
  -28.1220  -24.7460   19.8250 C   0  0  0  0  0  3  0  0  0  0  0  0
  -28.2750  -26.2270   20.2490 O   0  0  0  0  0  0  0  0  0  0  0  0
  -24.6400  -31.8680   23.2280 C   0  0  0  0  0  0  0  0  0  0  0  0
  -27.2010  -27.1830   20.1710 C   0  0  0  0  0  0  0  0  0  0  0  0
  -23.4270  -30.4700   21.6020 C   0  0  0  0  0  3  0  0  0  0  0  0
  -24.8640  -28.9060   20.1670 C   0  0  0  0  0  0  0  0  0  0  0  0
  -25.9780  -30.7470   21.4140 C   0  0  0  0  0  2  0  0  0  0  0  0
  -26.0480  -29.3570   20.7640 C   0  0  0  0  0  0  0  0  0  0  0  0
  -27.2160  -28.5100   20.7550 C   0  0  0  0  0  3  0  0  0  0  0  0
  -25.9860  -26.8320   19.5370 C   0  0  0  0  0  3  0  0  0  0  0  0
  -24.8440  -27.6540   19.5420 C   0  0  0  0  0  3  0  0  0  0  0  0
  -23.6350  -29.7960   20.2220 C   0  0  0  0  0  2  0  0  0  0  0  0
  -24.7030  -31.0490   22.1360 N   0  0  0  0  0  0  0  0  0  0  0  0
  -23.5580  -32.1510   23.7650 O   0  0  0  0  0  0  0  0  0  0  0  0
  -22.7610  -29.4590   22.5690 C   0  0  0  0  0  0  0  0  0  0  0  0
  -21.4330  -29.2830   22.4510 N   0  0  0  0  0  0  0  0  0  0  0  0
  -23.4420  -28.8360   23.3890 O   0  0  0  0  0  0  0  0  0  0  0  0
  -20.9410  -29.8370   21.7640 H   0  0  0  0  0  0  0  0  0  0  0  0
  -18.0600  -28.0720   22.9710 C   0  0  0  0  0  0  0  0  0  0  0  0
  -20.6180  -28.3470   23.2310 C   0  0  0  0  0  3  0  0  0  0  0  0
  -20.7250  -26.9120   22.6660 C   0  0  0  0  0  2  0  0  0  0  0  0
  -19.6220  -26.5770   21.6570 C   0  0  0  0  0  2  0  0  0  0  0  0
  -18.2420  -26.7200   22.3030 C   0  0  0  0  0  2  0  0  0  0  0  0
  -19.1770  -28.8430   23.3930 C   0  0  0  0  0  0  0  0  0  0  0  0
  -18.9530  -30.1070   23.9800 C   0  0  0  0  0  3  0  0  0  0  0  0
  -17.6460  -30.6030   24.1480 C   0  0  0  0  0  3  0  0  0  0  0  0
  -16.5450  -29.8300   23.7420 C   0  0  0  0  0  3  0  0  0  0  0  0
  -16.7520  -28.5670   23.1590 C   0  0  0  0  0  3  0  0  0  0  0  0
  -25.9230  -32.5040   23.8440 C   0  0  0  0  0  3  0  0  0  0  0  0
  -25.6080  -33.8990   24.1880 N   0  0  0  0  0  0  0  0  0  0  0  0
  -25.9190  -34.9610   23.4310 C   0  0  0  0  0  0  0  0  0  0  0  0
  -26.5720  -34.8690   22.3890 O   0  0  0  0  0  0  0  0  0  0  0  0
  -25.0290  -34.0460   25.0010 H   0  0  0  0  0  0  0  0  0  0  0  0
  -24.1760  -36.7480   23.1240 C   0  0  0  0  0  1  0  0  0  0  0  0
  -25.4330  -36.3430   23.9100 C   0  0  0  0  0  3  0  0  0  0  0  0
  -27.5770  -37.2340   24.7100 C   0  0  0  0  0  1  0  0  0  0  0  0
  -26.4580  -37.4030   23.7860 N   0  0  0  0  0  0  0  0  0  0  0  0
  -26.0490  -38.3190   23.9480 H   0  0  0  0  0  0  0  0  0  0  0  0
  -26.4510  -31.7300   25.1140 C   0  0  1  0  0  0  0  0  0  0  0  0
  -25.3680  -31.4880   26.1910 C   0  0  0  0  0  1  0  0  0  0  0  0
  -27.0330  -30.3530   24.7160 C   0  0  0  0  0  1  0  0  0  0  0  0
  -27.6050  -32.5240   25.7690 C   0  0  0  0  0  1  0  0  0  0  0  0
  1  4  2  0
  2  6  1  0
  3  1  1  0
  3  2  2  0
  4  6  1  0
  5  3  1  0
  6 49  1  0
  7 20  1  0
  8 13  1  0
  9 10  1  0
  9  8  1  0
 11 10  1  0
 11 24  1  0
 11 12  1  0
 13  7  1  0
 13 12  1  0
 14  7  2  0
 15 17  1  0
 15 19  1  0
 17 20  1  0
 18 16  1  0
 19  4  1  0
 19 16  1  0
 20 18  1  0
 21 22  2  0
 22 41  1  0
 23 22  1  0
 23 26  1  0
 24 21  1  0
 24 25  1  0
 25 23  2  0
 26 27  1  0
 27 28  2  0
 29 32  1  0
 29 28  1  0
 30 29  2  0
 31 30  1  0
 31 26  2  0
 32 33  1  0
 33 34  1  0
 34 35  2  0
 36 35  1  0
 36 40  1  0
 37 36  2  0
 38 33  2  0
 38 37  1  0
 39 38  1  0
 41 42  1  0
 42 45  1  0
 42 44  1  0
 43 41  2  0
 46 47  1  0
 46 21  1  0
 48 46  1  0
 51 50  1  0
 51 52  1  0
 51 49  1  0
 53 64  2  0
 54 52  1  0
 54 59  1  0
 55 63  1  0
 55 65  1  0
 56 62  1  0
 56 58  1  0
 57 63  1  0
 58 57  1  0
 59 58  2  0
 60 61  1  0
 60 54  2  0
 61 56  2  0
 62 55  1  0
 63 53  1  0
 65 67  2  0
 66 65  1  0
 68 66  1  0
 69 78  2  0
 69 74  1  0
 70 66  1  0
 70 74  1  0
 71 70  1  0
 72 73  1  0
 72 71  1  0
 73 69  1  0
 74 75  2  0
 75 76  1  0
 77 76  2  0
 78 77  1  0
 79 53  1  0
 79 80  1  0
 79 89  1  0
 80 83  1  0
 81 85  1  0
 81 80  1  0
 82 81  2  0
 85 84  1  0
 87 85  1  0
 87 88  1  0
 87 86  1  0
 89 92  1  1
 89 90  1  0
 91 89  1  0
M  ISO  4   7 100  20 100  51 101  52 101
M  END
>  <TORSDO>  (51) 
F 18

>  <SCORE>  (51) 
-14.643

>  <name>  (51) 
50

>  <ligand_id>  (51) 
50

>  <original_smiles>  (51) 
[H]c1c([H])c([H])c2c(c1[H])C([H])([H])C([H])([H])C([H])([H])C2([H])N([H])C(=O)C1([H])N(C(=O)C([H])(N([H])C(=O)C([H])(N([H])C([H])([H])[H])C([H])([H])[H])C(C([H])([H])[H])(C([H])([H])[H])C([H])([H])[H])C([H])([H])c2c([H])c(OC([H])(C([H])([H])[H])C([H])([H])n3c([H])c(C([H])([H])[H])c([H])c3C3([H])C([H])([H])C([H])([H])N(C(=O)N4C([H])([H])C([H])([H])C([H])([H])C([H])(n5nc(-c6c([H])c([H])c(Oc7c([H])c([H])c(F)c([H])c7F)c([H])c6[H])c(C(=O)N([H])[H])c5N([H])[H])C4([H])[H])C([H])([H])C3([H])[H])c([H])c([H])c2C1([H])[H]

>  <smiles>  (51) 
[H]c1c([H])c([H])c2c(c1[H])C([H])([H])C([H])([H])C([H])([H])C2([H])N([H])C(=O)C1([H])N(C(=O)C([H])(N([H])C(=O)C([H])(N([H])C([H])([H])[H])C([H])([H])[H])C(C([H])([H])[H])(C([H])([H])[H])C([H])([H])[H])C([H])([H])c2c([H])c(OC([H])(C([H])([H])[H])C([H])([H])n3c([H])c(C([H])([H])[H])c([H])c3C3([H])C([H])([H])C([H])([H])N(C(=O)N4C([H])([H])C([H])([H])C([H])([H])C([H])(n5nc(-c6c([H])c([H])c(Oc7c([H])c([H])c(F)c([H])c7F)c([H])c6[H])c(C(=O)N([H])[H])c5N([H])[H])C4([H])[H])C([H])([H])C3([H])[H])c([H])c([H])c2C1([H])[H]

$$$$
51:0:0
     RDKit          3D

 97106  0  0  1  0  0  0  0  0999 V2000
  -30.6070  -20.8480   21.8980 C   0  0  0  0  0  3  0  0  0  0  0  0
  -30.1450  -21.3270   20.6740 C   0  0  0  0  0  3  0  0  0  0  0  0
  -30.6530  -19.4580   22.1460 C   0  0  0  0  0  0  0  0  0  0  0  0
  -29.6920  -20.4280   19.7070 C   0  0  0  0  0  0  0  0  0  0  0  0
  -30.1930  -18.5680   21.1180 C   0  0  0  0  0  0  0  0  0  0  0  0
  -29.7120  -19.0620   19.9240 N   0  0  0  0  0  0  0  0  0  0  0  0
  -30.3180  -20.2190   25.4230 C   0  0  0  0  0  2  0  0  0  0  0  0
  -31.5530  -20.0880   24.5190 C   0  0  0  0  0  2  0  0  0  0  0  0
  -29.4950  -18.9440   25.1760 C   0  0  0  0  0  2  0  0  0  0  0  0
  -31.2160  -18.9700   23.5060 C   0  0  0  0  0  3  0  0  0  0  0  0
  -30.2740  -18.1030   24.2470 N   0  0  0  0  0  4  0  0  0  0  0  0
  -29.6640  -17.5500   23.6670 H   0  0  0  0  0  0  0  0  0  0  0  0
  -30.8190  -17.4610   24.8050 H   0  0  0  0  0  0  0  0  0  0  0  0
  -29.1640  -21.0390   18.3820 C   0  0  0  0  0  2  0  0  0  0  0  0
  -28.2880  -22.3680   18.4680 C   0  0  0  0  0  2  0  0  0  0  0  0
  -28.9340  -23.8240   18.4910 C   0  0  0  0  0  2  0  0  0  0  0  0
  -27.8710  -24.9970   18.4070 C   0  0  0  0  0  2  0  0  0  0  0  0
  -28.1520  -26.3810   18.8450 O   0  0  0  0  0  0  0  0  0  0  0  0
  -24.5840  -31.0490   23.0580 C   0  0  0  0  0  0  0  0  0  0  0  0
  -27.0370  -27.2170   19.0260 C   0  0  0  0  0  0  0  0  0  0  0  0
  -23.3030  -30.0010   21.2290 C   0  0  0  0  0  3  0  0  0  0  0  0
  -24.6810  -28.7830   19.4550 C   0  0  0  0  0  0  0  0  0  0  0  0
  -25.8380  -30.3530   21.0080 C   0  0  0  0  0  2  0  0  0  0  0  0
  -25.8760  -29.1380   20.0920 C   0  0  0  0  0  0  0  0  0  0  0  0
  -27.0550  -28.3630   19.8770 C   0  0  0  0  0  3  0  0  0  0  0  0
  -25.8100  -26.9260   18.3770 C   0  0  0  0  0  3  0  0  0  0  0  0
  -24.6490  -27.6800   18.5920 C   0  0  0  0  0  3  0  0  0  0  0  0
  -23.4500  -29.6180   19.7330 C   0  0  0  0  0  2  0  0  0  0  0  0
  -24.5970  -30.4740   21.8210 N   0  0  0  0  0  0  0  0  0  0  0  0
  -23.5250  -31.2080   23.6830 O   0  0  0  0  0  0  0  0  0  0  0  0
  -22.6800  -28.8060   21.9920 C   0  0  0  0  0  0  0  0  0  0  0  0
  -21.3490  -28.6540   21.8960 N   0  0  0  0  0  0  0  0  0  0  0  0
  -23.3940  -28.0270   22.6290 O   0  0  0  0  0  0  0  0  0  0  0  0
  -20.8330  -29.3320   21.3530 H   0  0  0  0  0  0  0  0  0  0  0  0
  -17.9970  -27.3460   22.2700 C   0  0  0  0  0  0  0  0  0  0  0  0
  -20.5620  -27.5840   22.5070 C   0  0  0  0  0  3  0  0  0  0  0  0
  -20.6590  -26.2830   21.6760 C   0  0  0  0  0  2  0  0  0  0  0  0
  -19.5260  -26.1370   20.6560 C   0  0  0  0  0  2  0  0  0  0  0  0
  -18.1620  -26.1470   21.3520 C   0  0  0  0  0  2  0  0  0  0  0  0
  -19.1220  -28.0320   22.8000 C   0  0  0  0  0  0  0  0  0  0  0  0
  -18.9120  -29.1620   23.6190 C   0  0  0  0  0  3  0  0  0  0  0  0
  -17.6070  -29.6050   23.9120 C   0  0  0  0  0  3  0  0  0  0  0  0
  -16.4980  -28.9150   23.3970 C   0  0  0  0  0  3  0  0  0  0  0  0
  -16.6930  -27.7850   22.5810 C   0  0  0  0  0  3  0  0  0  0  0  0
  -25.8970  -31.5530   23.7350 C   0  0  0  0  0  3  0  0  0  0  0  0
  -25.6430  -32.9080   24.2480 N   0  0  0  0  0  0  0  0  0  0  0  0
  -26.0920  -34.0340   23.6780 C   0  0  0  0  0  0  0  0  0  0  0  0
  -26.8320  -34.0360   22.6900 O   0  0  0  0  0  0  0  0  0  0  0  0
  -25.0210  -32.9840   25.0380 H   0  0  0  0  0  0  0  0  0  0  0  0
  -24.5340  -35.9860   23.4420 C   0  0  0  0  0  1  0  0  0  0  0  0
  -25.6460  -35.3680   24.3030 C   0  0  0  0  0  3  0  0  0  0  0  0
  -27.7180  -35.9310   25.4830 C   0  0  0  0  0  1  0  0  0  0  0  0
  -26.7500  -36.3380   24.4690 N   0  0  0  0  0  0  0  0  0  0  0  0
  -26.3890  -37.2530   24.7260 H   0  0  0  0  0  0  0  0  0  0  0  0
  -26.4020  -30.6110   24.8960 C   0  0  1  0  0  0  0  0  0  0  0  0
  -25.3160  -30.2940   25.9500 C   0  0  0  0  0  1  0  0  0  0  0  0
  -26.9160  -29.2690   24.3280 C   0  0  0  0  0  1  0  0  0  0  0  0
  -27.6030  -31.2630   25.6210 C   0  0  0  0  0  1  0  0  0  0  0  0
  -30.1360  -17.0370   21.4650 C   0  0  0  0  0  2  0  0  0  0  0  0
  -30.5600  -14.8380   20.3620 C   0  0  0  0  0  0  0  0  0  0  0  0
  -30.4470  -12.4710   19.6210 C   0  0  0  0  0  2  0  0  0  0  0  0
  -29.5530  -12.3510   18.3710 C   0  0  0  0  0  2  0  0  0  0  0  0
  -28.0670  -12.2070   18.7610 C   0  0  0  0  0  2  0  0  0  0  0  0
  -27.6190  -13.2520   19.8190 C   0  0  0  0  0  3  0  0  0  0  0  0
  -28.6300  -13.3310   20.9830 C   0  0  0  0  0  2  0  0  0  0  0  0
  -29.9450  -13.6200   20.3930 N   0  0  0  0  0  0  0  0  0  0  0  0
  -31.7490  -14.9630   20.0580 O   0  0  0  0  0  0  0  0  0  0  0  0
  -29.7740  -15.9330   20.5470 N   0  0  0  0  0  0  0  0  0  0  0  0
  -28.7850  -15.7630   20.4860 H   0  0  0  0  0  0  0  0  0  0  0  0
  -25.2790  -13.9120   20.6510 C   0  0  0  0  0  0  0  0  0  0  0  0
  -24.1620  -13.1700   20.9320 C   0  0  0  0  0  0  0  0  0  0  0  0
  -24.5310  -11.8080   20.7180 C   0  0  0  0  0  0  0  0  0  0  0  0
  -26.2590  -13.0000   20.2890 N   0  0  0  0  0  0  0  0  0  0  0  0
  -25.8140  -11.7210   20.3880 N   0  0  0  0  0  0  0  0  0  0  0  0
  -23.7210  -10.5850   20.7530 C   0  0  0  0  0  0  0  0  0  0  0  0
  -23.9750   -9.5590   21.6880 C   0  0  0  0  0  3  0  0  0  0  0  0
  -23.1720   -8.3980   21.7140 C   0  0  0  0  0  3  0  0  0  0  0  0
  -22.0980   -8.2580   20.8030 C   0  0  0  0  0  0  0  0  0  0  0  0
  -21.8640   -9.2720   19.8580 C   0  0  0  0  0  3  0  0  0  0  0  0
  -22.6670  -10.4240   19.8300 C   0  0  0  0  0  3  0  0  0  0  0  0
  -21.2800   -7.1560   20.7360 O   0  0  0  0  0  0  0  0  0  0  0  0
  -20.9090   -6.4690   21.8650 C   0  0  0  0  0  0  0  0  0  0  0  0
  -20.1880   -7.0870   22.9100 C   0  0  0  0  0  3  0  0  0  0  0  0
  -19.7650   -6.3250   24.0190 C   0  0  0  0  0  3  0  0  0  0  0  0
  -20.0520   -4.9480   24.0790 C   0  0  0  0  0  0  0  0  0  0  0  0
  -20.7640   -4.3310   23.0350 C   0  0  0  0  0  3  0  0  0  0  0  0
  -21.1880   -5.0890   21.9300 C   0  0  0  0  0  0  0  0  0  0  0  0
  -21.8550   -4.4850   20.9170 F   0  0  0  0  0  0  0  0  0  0  0  0
  -19.6400   -4.2140   25.1390 F   0  0  0  0  0  0  0  0  0  0  0  0
  -22.8030  -13.7040   21.2810 C   0  0  0  0  0  0  0  0  0  0  0  0
  -22.0420  -12.9640   22.0800 N   0  0  0  0  0  0  0  0  0  0  0  0
  -22.4280  -14.8080   20.8870 O   0  0  0  0  0  0  0  0  0  0  0  0
  -22.3570  -12.0710   22.4260 H   0  0  0  0  0  0  0  0  0  0  0  0
  -21.1280  -13.2980   22.3500 H   0  0  0  0  0  0  0  0  0  0  0  0
  -25.5350  -15.2800   20.6500 N   0  0  0  0  0  0  0  0  0  0  0  0
  -24.8100  -15.9570   20.8600 H   0  0  0  0  0  0  0  0  0  0  0  0
  -26.4040  -15.7120   20.3650 H   0  0  0  0  0  0  0  0  0  0  0  0
  1  3  1  0
  2  1  2  0
  4  6  2  0
  4  2  1  0
  5 59  1  0
  5  3  2  0
  6  5  1  0
  8  7  1  0
  9  7  1  0
 10  3  1  0
 10 11  1  0
 10  8  1  0
 11 13  1  0
 11  9  1  0
 12 11  1  0
 14 15  1  0
 14  4  1  0
 15 16  1  0
 17 16  1  0
 17 18  1  0
 18 20  1  0
 19 30  2  0
 20 25  1  0
 21 29  1  0
 21 31  1  0
 22 28  1  0
 22 24  1  0
 23 29  1  0
 24 23  1  0
 25 24  2  0
 26 27  1  0
 26 20  2  0
 27 22  2  0
 28 21  1  0
 29 19  1  0
 31 33  2  0
 32 31  1  0
 34 32  1  0
 35 44  2  0
 35 40  1  0
 36 32  1  0
 36 40  1  0
 37 36  1  0
 38 39  1  0
 38 37  1  0
 39 35  1  0
 40 41  2  0
 41 42  1  0
 43 42  2  0
 44 43  1  0
 45 19  1  0
 45 46  1  0
 45 55  1  0
 46 49  1  0
 47 46  1  0
 47 51  1  0
 48 47  2  0
 51 50  1  0
 51 53  1  0
 53 54  1  0
 53 52  1  0
 55 58  1  1
 55 56  1  0
 57 55  1  0
 60 66  1  0
 60 68  1  0
 61 66  1  0
 62 63  1  0
 62 61  1  0
 64 63  1  0
 64 73  1  0
 64 65  1  0
 66 65  1  0
 67 60  2  0
 68 59  1  0
 69 68  1  0
 70 71  2  0
 71 90  1  0
 72 75  1  0
 72 71  1  0
 73 74  1  0
 73 70  1  0
 74 72  2  0
 75 76  1  0
 76 77  2  0
 78 77  1  0
 79 78  2  0
 80 79  1  0
 80 75  2  0
 81 78  1  0
 81 82  1  0
 82 87  2  0
 82 83  1  0
 83 84  2  0
 84 85  1  0
 85 89  1  0
 86 85  2  0
 87 86  1  0
 88 87  1  0
 90 91  1  0
 91 94  1  0
 91 93  1  0
 92 90  2  0
 95 70  1  0
 95 96  1  0
 97 95  1  0
M  ISO  4  17 101  18 101  60 100  68 100
M  END
>  <TORSDO>  (52) 
F 22

>  <SCORE>  (52) 
-6.309

>  <name>  (52) 
51

>  <ligand_id>  (52) 
51

>  <original_smiles>  (52) 
[H]c1c(C([H])([H])C([H])([H])C([H])([H])C([H])([H])Oc2c([H])c([H])c3c(c2[H])C([H])([H])N(C(=O)C([H])(N([H])C(=O)C([H])(N([H])C([H])([H])[H])C([H])([H])[H])C(C([H])([H])[H])(C([H])([H])[H])C([H])([H])[H])C([H])(C(=O)N([H])C2([H])c4c([H])c([H])c([H])c([H])c4C([H])([H])C([H])([H])C2([H])[H])C3([H])[H])nc(C([H])([H])N([H])C(=O)N2C([H])([H])C([H])([H])C([H])([H])C([H])(n3nc(-c4c([H])c([H])c(Oc5c([H])c([H])c(F)c([H])c5F)c([H])c4[H])c(C(=O)N([H])[H])c3N([H])[H])C2([H])[H])c(C2([H])C([H])([H])C([H])([H])C([H])([H])[N+]2([H])[H])c1[H]

>  <smiles>  (52) 
[H]c1c(C([H])([H])C([H])([H])C([H])([H])C([H])([H])Oc2c([H])c([H])c3c(c2[H])C([H])([H])N(C(=O)C([H])(N([H])C(=O)C([H])(N([H])C([H])([H])[H])C([H])([H])[H])C(C([H])([H])[H])(C([H])([H])[H])C([H])([H])[H])C([H])(C(=O)N([H])C2([H])c4c([H])c([H])c([H])c([H])c4C([H])([H])C([H])([H])C2([H])[H])C3([H])[H])nc(C([H])([H])N([H])C(=O)N2C([H])([H])C([H])([H])C([H])([H])C([H])(n3nc(-c4c([H])c([H])c(Oc5c([H])c([H])c(F)c([H])c5F)c([H])c4[H])c(C(=O)N([H])[H])c3N([H])[H])C2([H])[H])c(C2([H])C([H])([H])C([H])([H])C([H])([H])[N+]2([H])[H])c1[H]

$$$$
52:0:0
     RDKit          3D

 92100  0  0  1  0  0  0  0  0999 V2000
  -28.3130  -21.4980   18.2620 C   0  0  0  0  0  1  0  0  0  0  0  0
  -29.3490  -21.4980   19.4020 C   0  0  0  0  0  3  0  0  0  0  0  0
  -30.7760  -19.3150   19.7280 C   0  0  0  0  0  3  0  0  0  0  0  0
  -28.4560  -19.2120   20.3530 C   0  0  0  0  0  3  0  0  0  0  0  0
  -30.9130  -17.9080   19.9500 C   0  0  0  0  0  3  0  0  0  0  0  0
  -28.5920  -17.8120   20.5810 C   0  0  0  0  0  3  0  0  0  0  0  0
  -29.5400  -20.0080   19.9010 C   0  0  0  0  0  0  0  0  0  0  0  0
  -29.8110  -17.1100   20.3600 C   0  0  0  0  0  0  0  0  0  0  0  0
  -30.6190  -14.6460   20.1050 C   0  0  0  0  0  0  0  0  0  0  0  0
  -30.3540  -12.4460   18.9860 C   0  0  0  0  0  2  0  0  0  0  0  0
  -29.3390  -12.6350   17.8330 C   0  0  0  0  0  2  0  0  0  0  0  0
  -27.8900  -12.4740   18.3350 C   0  0  0  0  0  2  0  0  0  0  0  0
  -27.6130  -13.2760   19.6310 C   0  0  0  0  0  3  0  0  0  0  0  0
  -28.7350  -13.0560   20.6740 C   0  0  0  0  0  2  0  0  0  0  0  0
  -30.0120  -13.4190   20.0410 N   0  0  0  0  0  0  0  0  0  0  0  0
  -31.7510  -14.8300   19.6480 O   0  0  0  0  0  0  0  0  0  0  0  0
  -29.8230  -15.6620   20.5680 N   0  0  0  0  0  0  0  0  0  0  0  0
  -28.9680  -15.2970   20.9610 H   0  0  0  0  0  0  0  0  0  0  0  0
  -25.2600  -13.8650   20.4850 C   0  0  0  0  0  0  0  0  0  0  0  0
  -24.2120  -13.0850   20.8960 C   0  0  0  0  0  0  0  0  0  0  0  0
  -24.6680  -11.7340   20.8050 C   0  0  0  0  0  0  0  0  0  0  0  0
  -26.2890  -12.9880   20.1760 N   0  0  0  0  0  0  0  0  0  0  0  0
  -25.9400  -11.7010   20.4250 N   0  0  0  0  0  0  0  0  0  0  0  0
  -23.9470  -10.4710   21.0020 C   0  0  0  0  0  0  0  0  0  0  0  0
  -24.3940   -9.5040   21.9280 C   0  0  0  0  0  3  0  0  0  0  0  0
  -23.6760   -8.3040   22.1160 C   0  0  0  0  0  3  0  0  0  0  0  0
  -22.4920   -8.0630   21.3760 C   0  0  0  0  0  0  0  0  0  0  0  0
  -22.0630   -9.0200   20.4370 C   0  0  0  0  0  3  0  0  0  0  0  0
  -22.7850  -10.2100   20.2500 C   0  0  0  0  0  3  0  0  0  0  0  0
  -21.7440   -6.9170   21.4730 O   0  0  0  0  0  0  0  0  0  0  0  0
  -21.6770   -6.1950   22.6380 C   0  0  0  0  0  0  0  0  0  0  0  0
  -21.1720   -6.7510   23.8330 C   0  0  0  0  0  3  0  0  0  0  0  0
  -21.0600   -5.9530   24.9890 C   0  0  0  0  0  3  0  0  0  0  0  0
  -21.4410   -4.5990   24.9500 C   0  0  0  0  0  0  0  0  0  0  0  0
  -21.9370   -4.0410   23.7590 C   0  0  0  0  0  3  0  0  0  0  0  0
  -22.0520   -4.8360   22.6050 C   0  0  0  0  0  0  0  0  0  0  0  0
  -22.5100   -4.2870   21.4530 F   0  0  0  0  0  0  0  0  0  0  0  0
  -21.3280   -3.8300   26.0590 F   0  0  0  0  0  0  0  0  0  0  0  0
  -22.8330  -13.5570   21.2530 C   0  0  0  0  0  0  0  0  0  0  0  0
  -22.1510  -12.8450   22.1420 N   0  0  0  0  0  0  0  0  0  0  0  0
  -22.3690  -14.5920   20.7790 O   0  0  0  0  0  0  0  0  0  0  0  0
  -22.5370  -12.0040   22.5460 H   0  0  0  0  0  0  0  0  0  0  0  0
  -21.2270  -13.1420   22.4210 H   0  0  0  0  0  0  0  0  0  0  0  0
  -25.4130  -15.2400   20.3230 N   0  0  0  0  0  0  0  0  0  0  0  0
  -24.6490  -15.8870   20.4820 H   0  0  0  0  0  0  0  0  0  0  0  0
  -26.1940  -15.6660   19.8420 H   0  0  0  0  0  0  0  0  0  0  0  0
  -29.0100  -22.5860   20.4000 N   0  0  0  0  0  4  0  0  0  0  0  0
  -28.0520  -22.4560   20.6770 H   0  0  0  0  0  0  0  0  0  0  0  0
  -29.5730  -22.4360   21.2220 H   0  0  0  0  0  0  0  0  0  0  0  0
  -29.1950  -24.0400   19.9630 C   0  0  0  0  0  3  0  0  0  0  0  0
  -28.2100  -25.1100   20.5940 C   0  0  0  0  0  3  0  0  0  0  0  0
  -28.3950  -26.5240   20.2010 O   0  0  0  0  0  0  0  0  0  0  0  0
  -24.5390  -31.8400   23.1740 C   0  0  0  0  0  0  0  0  0  0  0  0
  -27.2600  -27.3400   20.1590 C   0  0  0  0  0  0  0  0  0  0  0  0
  -23.3780  -30.4350   21.5070 C   0  0  0  0  0  3  0  0  0  0  0  0
  -24.8740  -28.9030   20.1050 C   0  0  0  0  0  0  0  0  0  0  0  0
  -25.9140  -30.7870   21.3680 C   0  0  0  0  0  2  0  0  0  0  0  0
  -26.0230  -29.4100   20.7290 C   0  0  0  0  0  0  0  0  0  0  0  0
  -27.2200  -28.6380   20.7510 C   0  0  0  0  0  3  0  0  0  0  0  0
  -26.1000  -26.8880   19.4940 C   0  0  0  0  0  3  0  0  0  0  0  0
  -24.9130  -27.6470   19.4820 C   0  0  0  0  0  3  0  0  0  0  0  0
  -23.6240  -29.7590   20.1320 C   0  0  0  0  0  2  0  0  0  0  0  0
  -24.6290  -31.0380   22.0730 N   0  0  0  0  0  0  0  0  0  0  0  0
  -23.4420  -32.1050   23.6890 O   0  0  0  0  0  0  0  0  0  0  0  0
  -22.7070  -29.4100   22.4500 C   0  0  0  0  0  0  0  0  0  0  0  0
  -21.3800  -29.2530   22.3210 N   0  0  0  0  0  0  0  0  0  0  0  0
  -23.3800  -28.7590   23.2530 O   0  0  0  0  0  0  0  0  0  0  0  0
  -20.8980  -29.8290   21.6460 H   0  0  0  0  0  0  0  0  0  0  0  0
  -17.9760  -28.1510   22.8590 C   0  0  0  0  0  0  0  0  0  0  0  0
  -20.5470  -28.3110   23.0740 C   0  0  0  0  0  3  0  0  0  0  0  0
  -20.5870  -26.9020   22.4380 C   0  0  0  0  0  2  0  0  0  0  0  0
  -19.4500  -26.6590   21.4410 C   0  0  0  0  0  2  0  0  0  0  0  0
  -18.0890  -26.8240   22.1240 C   0  0  0  0  0  2  0  0  0  0  0  0
  -19.1300  -28.8570   23.2890 C   0  0  0  0  0  0  0  0  0  0  0  0
  -18.9680  -30.1030   23.9330 C   0  0  0  0  0  3  0  0  0  0  0  0
  -17.6850  -30.6400   24.1490 C   0  0  0  0  0  3  0  0  0  0  0  0
  -16.5460  -29.9280   23.7340 C   0  0  0  0  0  3  0  0  0  0  0  0
  -16.6930  -28.6840   23.0950 C   0  0  0  0  0  3  0  0  0  0  0  0
  -25.8020  -32.4800   23.8260 C   0  0  0  0  0  3  0  0  0  0  0  0
  -26.2960  -31.7050   25.1100 C   0  0  1  0  0  0  0  0  0  0  0  0
  -25.1800  -31.4450   26.1490 C   0  0  0  0  0  1  0  0  0  0  0  0
  -26.8990  -30.3360   24.7190 C   0  0  0  0  0  1  0  0  0  0  0  0
  -27.4230  -32.5050   25.8030 C   0  0  0  0  0  1  0  0  0  0  0  0
  -25.4720  -33.8740   24.1560 N   0  0  0  0  0  0  0  0  0  0  0  0
  -25.8100  -34.9320   23.4070 C   0  0  0  0  0  0  0  0  0  0  0  0
  -26.5010  -34.8400   22.3880 O   0  0  0  0  0  0  0  0  0  0  0  0
  -24.8600  -34.0200   24.9450 H   0  0  0  0  0  0  0  0  0  0  0  0
  -24.0840  -36.7210   23.0170 C   0  0  0  0  0  1  0  0  0  0  0  0
  -25.3020  -36.3140   23.8610 C   0  0  0  0  0  3  0  0  0  0  0  0
  -27.3990  -37.2100   24.7730 C   0  0  0  0  0  1  0  0  0  0  0  0
  -26.3320  -37.3730   23.7880 N   0  0  0  0  0  0  0  0  0  0  0  0
  -25.9140  -38.2910   23.9220 H   0  0  0  0  0  0  0  0  0  0  0  0
  2  1  1  0
  2  7  1  0
  2 47  1  0
  3  7  2  0
  3  5  1  0
  4  6  2  0
  5  8  2  0
  7  4  1  0
  8 17  1  0
  8  6  1  0
  9 17  1  0
 10 15  1  0
 11 12  1  0
 11 10  1  0
 13 12  1  0
 13 22  1  0
 13 14  1  0
 15  9  1  0
 15 14  1  0
 16  9  2  0
 17 18  1  0
 19 20  2  0
 20 39  1  0
 21 20  1  0
 21 24  1  0
 22 23  1  0
 22 19  1  0
 23 21  2  0
 24 25  1  0
 25 26  2  0
 27 30  1  0
 27 26  1  0
 28 27  2  0
 29 28  1  0
 29 24  2  0
 30 31  1  0
 31 32  1  0
 32 33  2  0
 34 33  1  0
 34 38  1  0
 35 34  2  0
 36 31  2  0
 36 35  1  0
 37 36  1  0
 39 40  1  0
 40 43  1  0
 40 42  1  0
 41 39  2  0
 44 45  1  0
 44 19  1  0
 46 44  1  0
 47 48  1  0
 47 49  1  0
 50 47  1  0
 50 51  2  0
 52 51  1  0
 53 64  2  0
 54 52  1  0
 54 59  1  0
 55 63  1  0
 55 65  1  0
 56 62  1  0
 56 58  1  0
 57 63  1  0
 58 59  2  0
 58 57  1  0
 60 54  2  0
 61 60  1  0
 61 56  2  0
 62 55  1  0
 63 53  1  0
 65 67  2  0
 66 65  1  0
 68 66  1  0
 69 78  2  0
 69 74  1  0
 70 66  1  0
 70 74  1  0
 71 70  1  0
 72 73  1  0
 72 71  1  0
 73 69  1  0
 74 75  2  0
 75 76  1  0
 77 76  2  0
 78 77  1  0
 79 53  1  0
 79 84  1  0
 79 80  1  0
 80 83  1  1
 80 81  1  0
 82 80  1  0
 84 87  1  0
 85 89  1  0
 85 84  1  0
 86 85  2  0
 89 88  1  0
 91 89  1  0
 91 92  1  0
 91 90  1  0
M  ISO  4   9 100  17 100  51 101  52 101
M  END
>  <TORSDO>  (53) 
F 20

>  <SCORE>  (53) 
-13.897

>  <name>  (53) 
52

>  <ligand_id>  (53) 
52

>  <original_smiles>  (53) 
[H]c1c([H])c([H])c2c(c1[H])C([H])([H])C([H])([H])C([H])([H])C2([H])N([H])C(=O)C1([H])N(C(=O)C([H])(N([H])C(=O)C([H])(N([H])C([H])([H])[H])C([H])([H])[H])C(C([H])([H])[H])(C([H])([H])[H])C([H])([H])[H])C([H])([H])c2c([H])c(OC([H])([H])C([H])([H])[N+]([H])([H])C([H])(c3c([H])c([H])c(N([H])C(=O)N4C([H])([H])C([H])([H])C([H])([H])C([H])(n5nc(-c6c([H])c([H])c(Oc7c([H])c([H])c(F)c([H])c7F)c([H])c6[H])c(C(=O)N([H])[H])c5N([H])[H])C4([H])[H])c([H])c3[H])C([H])([H])[H])c([H])c([H])c2C1([H])[H]

>  <smiles>  (53) 
[H]c1c([H])c([H])c2c(c1[H])C([H])([H])C([H])([H])C([H])([H])C2([H])N([H])C(=O)C1([H])N(C(=O)C([H])(N([H])C(=O)C([H])(N([H])C([H])([H])[H])C([H])([H])[H])C(C([H])([H])[H])(C([H])([H])[H])C([H])([H])[H])C([H])([H])c2c([H])c(OC([H])([H])C([H])([H])[N+]([H])([H])C([H])(c3c([H])c([H])c(N([H])C(=O)N4C([H])([H])C([H])([H])C([H])([H])C([H])(n5nc(-c6c([H])c([H])c(Oc7c([H])c([H])c(F)c([H])c7F)c([H])c6[H])c(C(=O)N([H])[H])c5N([H])[H])C4([H])[H])c([H])c3[H])C([H])([H])[H])c([H])c([H])c2C1([H])[H]

$$$$
53:0:0
     RDKit          3D

 89 97  0  0  1  0  0  0  0  0999 V2000
  -28.1180  -22.6500   19.1580 C   0  0  0  0  0  3  0  0  0  0  0  0
  -29.3490  -23.4540   21.0520 C   0  0  0  0  0  3  0  0  0  0  0  0
  -28.4460  -21.2950   19.4900 C   0  0  0  0  0  3  0  0  0  0  0  0
  -29.6730  -22.1020   21.3840 C   0  0  0  0  0  3  0  0  0  0  0  0
  -28.5810  -23.7750   19.9080 C   0  0  0  0  0  0  0  0  0  0  0  0
  -29.2640  -20.9810   20.6090 C   0  0  0  0  0  0  0  0  0  0  0  0
  -28.4300  -25.2440   19.3380 C   0  0  0  0  0  2  0  0  0  0  0  0
  -28.3130  -26.4480   20.1960 O   0  0  0  0  0  0  0  0  0  0  0  0
  -24.6250  -31.8730   23.2310 C   0  0  0  0  0  0  0  0  0  0  0  0
  -27.1910  -27.2970   20.1420 C   0  0  0  0  0  0  0  0  0  0  0  0
  -23.4050  -30.4770   21.6040 C   0  0  0  0  0  3  0  0  0  0  0  0
  -24.8350  -28.9280   20.1600 C   0  0  0  0  0  0  0  0  0  0  0  0
  -25.9440  -30.7880   21.3950 C   0  0  0  0  0  2  0  0  0  0  0  0
  -26.0120  -29.4100   20.7450 C   0  0  0  0  0  0  0  0  0  0  0  0
  -27.1910  -28.6040   20.7290 C   0  0  0  0  0  3  0  0  0  0  0  0
  -25.9770  -26.8620   19.5640 C   0  0  0  0  0  3  0  0  0  0  0  0
  -24.8200  -27.6600   19.5640 C   0  0  0  0  0  3  0  0  0  0  0  0
  -23.6000  -29.8050   20.2190 C   0  0  0  0  0  2  0  0  0  0  0  0
  -24.6790  -31.0650   22.1310 N   0  0  0  0  0  0  0  0  0  0  0  0
  -23.5470  -32.1530   23.7720 O   0  0  0  0  0  0  0  0  0  0  0  0
  -22.7540  -29.4600   22.5700 C   0  0  0  0  0  0  0  0  0  0  0  0
  -21.4280  -29.2760   22.4470 N   0  0  0  0  0  0  0  0  0  0  0  0
  -23.4380  -28.8380   23.3880 O   0  0  0  0  0  0  0  0  0  0  0  0
  -20.9360  -29.8250   21.7590 H   0  0  0  0  0  0  0  0  0  0  0  0
  -18.0590  -28.0620   22.9490 C   0  0  0  0  0  0  0  0  0  0  0  0
  -20.6150  -28.3390   23.2220 C   0  0  0  0  0  3  0  0  0  0  0  0
  -20.7270  -26.9050   22.6560 C   0  0  0  0  0  2  0  0  0  0  0  0
  -19.6280  -26.5690   21.6440 C   0  0  0  0  0  2  0  0  0  0  0  0
  -18.2440  -26.7110   22.2830 C   0  0  0  0  0  2  0  0  0  0  0  0
  -19.1710  -28.8340   23.3740 C   0  0  0  0  0  0  0  0  0  0  0  0
  -18.9430  -30.1040   23.9520 C   0  0  0  0  0  3  0  0  0  0  0  0
  -17.6330  -30.5950   24.1170 C   0  0  0  0  0  3  0  0  0  0  0  0
  -16.5350  -29.8190   23.7080 C   0  0  0  0  0  3  0  0  0  0  0  0
  -16.7490  -28.5550   23.1280 C   0  0  0  0  0  3  0  0  0  0  0  0
  -25.9140  -32.5050   23.8420 C   0  0  0  0  0  3  0  0  0  0  0  0
  -26.4410  -31.7340   25.1160 C   0  0  1  0  0  0  0  0  0  0  0  0
  -25.3560  -31.5000   26.1920 C   0  0  0  0  0  1  0  0  0  0  0  0
  -27.0190  -30.3550   24.7210 C   0  0  0  0  0  1  0  0  0  0  0  0
  -27.5970  -32.5280   25.7680 C   0  0  0  0  0  1  0  0  0  0  0  0
  -25.6080  -33.9040   24.1770 N   0  0  0  0  0  0  0  0  0  0  0  0
  -25.9290  -34.9590   23.4160 C   0  0  0  0  0  0  0  0  0  0  0  0
  -26.5900  -34.8600   22.3790 O   0  0  0  0  0  0  0  0  0  0  0  0
  -25.0290  -34.0600   24.9880 H   0  0  0  0  0  0  0  0  0  0  0  0
  -24.1930  -36.7480   23.0930 C   0  0  0  0  0  1  0  0  0  0  0  0
  -25.4440  -36.3430   23.8860 C   0  0  0  0  0  3  0  0  0  0  0  0
  -27.5880  -37.2290   24.6910 C   0  0  0  0  0  1  0  0  0  0  0  0
  -26.4720  -37.4000   23.7650 N   0  0  0  0  0  0  0  0  0  0  0  0
  -26.0640  -38.3170   23.9250 H   0  0  0  0  0  0  0  0  0  0  0  0
  -29.7190  -19.6960   20.9950 O   0  0  0  0  0  0  0  0  0  0  0  0
  -29.3600  -18.4180   20.3610 C   0  0  0  0  0  2  0  0  0  0  0  0
  -30.1990  -17.1850   20.9540 C   0  0  0  0  0  2  0  0  0  0  0  0
  -30.5810  -14.6650   20.4250 C   0  0  0  0  0  0  0  0  0  0  0  0
  -30.3850  -12.4200   19.3630 C   0  0  0  0  0  2  0  0  0  0  0  0
  -29.4380  -12.5170   18.1480 C   0  0  0  0  0  2  0  0  0  0  0  0
  -27.9680  -12.3570   18.5860 C   0  0  0  0  0  2  0  0  0  0  0  0
  -27.6050  -13.2320   19.8140 C   0  0  0  0  0  3  0  0  0  0  0  0
  -28.6630  -13.1060   20.9310 C   0  0  0  0  0  2  0  0  0  0  0  0
  -29.9600  -13.4490   20.3350 N   0  0  0  0  0  0  0  0  0  0  0  0
  -31.7670  -14.8030   20.1130 O   0  0  0  0  0  0  0  0  0  0  0  0
  -29.7880  -15.7550   20.6860 N   0  0  0  0  0  0  0  0  0  0  0  0
  -28.8140  -15.5400   20.8380 H   0  0  0  0  0  0  0  0  0  0  0  0
  -25.2100  -13.8250   20.5240 C   0  0  0  0  0  0  0  0  0  0  0  0
  -24.1440  -13.0500   20.8900 C   0  0  0  0  0  0  0  0  0  0  0  0
  -24.6120  -11.7000   20.8700 C   0  0  0  0  0  0  0  0  0  0  0  0
  -26.2580  -12.9470   20.2990 N   0  0  0  0  0  0  0  0  0  0  0  0
  -25.9040  -11.6650   20.5700 N   0  0  0  0  0  0  0  0  0  0  0  0
  -23.8910  -10.4360   21.0610 C   0  0  0  0  0  0  0  0  0  0  0  0
  -24.3320   -9.4680   21.9900 C   0  0  0  0  0  3  0  0  0  0  0  0
  -23.6100   -8.2690   22.1700 C   0  0  0  0  0  3  0  0  0  0  0  0
  -22.4340   -8.0290   21.4190 C   0  0  0  0  0  0  0  0  0  0  0  0
  -22.0110   -8.9870   20.4820 C   0  0  0  0  0  3  0  0  0  0  0  0
  -22.7320  -10.1780   20.2990 C   0  0  0  0  0  3  0  0  0  0  0  0
  -21.6810   -6.8810   21.5090 O   0  0  0  0  0  0  0  0  0  0  0  0
  -21.6530   -6.1280   22.6550 C   0  0  0  0  0  0  0  0  0  0  0  0
  -21.2540   -6.6740   23.8950 C   0  0  0  0  0  3  0  0  0  0  0  0
  -21.1720   -5.8470   25.0340 C   0  0  0  0  0  3  0  0  0  0  0  0
  -21.4760   -4.4770   24.9320 C   0  0  0  0  0  0  0  0  0  0  0  0
  -21.8680   -3.9310   23.6980 C   0  0  0  0  0  3  0  0  0  0  0  0
  -21.9520   -4.7550   22.5610 C   0  0  0  0  0  0  0  0  0  0  0  0
  -22.3090   -4.2190   21.3700 F   0  0  0  0  0  0  0  0  0  0  0  0
  -21.3890   -3.6800   26.0250 F   0  0  0  0  0  0  0  0  0  0  0  0
  -22.7430  -13.5230   21.1480 C   0  0  0  0  0  0  0  0  0  0  0  0
  -22.0150  -12.8270   22.0140 N   0  0  0  0  0  0  0  0  0  0  0  0
  -22.3050  -14.5430   20.6210 O   0  0  0  0  0  0  0  0  0  0  0  0
  -22.3850  -12.0000   22.4590 H   0  0  0  0  0  0  0  0  0  0  0  0
  -21.0760  -13.1250   22.2340 H   0  0  0  0  0  0  0  0  0  0  0  0
  -25.3710  -15.1960   20.3410 N   0  0  0  0  0  0  0  0  0  0  0  0
  -24.5990  -15.8460   20.4530 H   0  0  0  0  0  0  0  0  0  0  0  0
  -26.2120  -15.6390   19.9930 H   0  0  0  0  0  0  0  0  0  0  0  0
  1  3  2  0
  1  5  1  0
  2  4  1  0
  3  6  1  0
  5  2  2  0
  6 49  1  0
  6  4  2  0
  7  5  1  0
  7  8  1  0
  9 20  2  0
 10  8  1  0
 10 15  1  0
 11 19  1  0
 11 21  1  0
 12 18  1  0
 12 14  1  0
 13 19  1  0
 14 13  1  0
 15 14  2  0
 16 10  2  0
 17 16  1  0
 17 12  2  0
 18 11  1  0
 19  9  1  0
 21 23  2  0
 22 21  1  0
 24 22  1  0
 25 34  2  0
 25 30  1  0
 26 22  1  0
 26 30  1  0
 27 26  1  0
 28 29  1  0
 28 27  1  0
 29 25  1  0
 30 31  2  0
 31 32  1  0
 33 32  2  0
 34 33  1  0
 35  9  1  0
 35 40  1  0
 35 36  1  0
 36 39  1  1
 36 37  1  0
 38 36  1  0
 40 43  1  0
 41 45  1  0
 41 40  1  0
 42 41  2  0
 45 44  1  0
 47 45  1  0
 47 48  1  0
 47 46  1  0
 50 51  1  0
 50 49  1  0
 52 60  1  0
 53 58  1  0
 54 55  1  0
 54 53  1  0
 56 55  1  0
 56 65  1  0
 56 57  1  0
 58 52  1  0
 58 57  1  0
 59 52  2  0
 60 61  1  0
 60 51  1  0
 62 63  2  0
 63 82  1  0
 64 63  1  0
 64 67  1  0
 65 62  1  0
 65 66  1  0
 66 64  2  0
 67 68  1  0
 68 69  2  0
 70 73  1  0
 70 69  1  0
 71 70  2  0
 72 71  1  0
 72 67  2  0
 73 74  1  0
 74 75  1  0
 75 76  2  0
 77 76  1  0
 77 81  1  0
 78 77  2  0
 79 74  2  0
 79 78  1  0
 80 79  1  0
 82 83  1  0
 83 86  1  0
 83 85  1  0
 84 82  2  0
 87 88  1  0
 87 62  1  0
 89 87  1  0
M  ISO  4   7 101   8 101  52 100  60 100
M  END
>  <TORSDO>  (54) 
F 20

>  <SCORE>  (54) 
-13.802

>  <name>  (54) 
53

>  <ligand_id>  (54) 
53

>  <original_smiles>  (54) 
[H]c1c([H])c([H])c2c(c1[H])C([H])([H])C([H])([H])C([H])([H])C2([H])N([H])C(=O)C1([H])N(C(=O)C([H])(N([H])C(=O)C([H])(N([H])C([H])([H])[H])C([H])([H])[H])C(C([H])([H])[H])(C([H])([H])[H])C([H])([H])[H])C([H])([H])c2c([H])c(OC([H])([H])c3c([H])c([H])c(OC([H])([H])C([H])([H])N([H])C(=O)N4C([H])([H])C([H])([H])C([H])([H])C([H])(n5nc(-c6c([H])c([H])c(Oc7c([H])c([H])c(F)c([H])c7F)c([H])c6[H])c(C(=O)N([H])[H])c5N([H])[H])C4([H])[H])c([H])c3[H])c([H])c([H])c2C1([H])[H]

>  <smiles>  (54) 
[H]c1c([H])c([H])c2c(c1[H])C([H])([H])C([H])([H])C([H])([H])C2([H])N([H])C(=O)C1([H])N(C(=O)C([H])(N([H])C(=O)C([H])(N([H])C([H])([H])[H])C([H])([H])[H])C(C([H])([H])[H])(C([H])([H])[H])C([H])([H])[H])C([H])([H])c2c([H])c(OC([H])([H])c3c([H])c([H])c(OC([H])([H])C([H])([H])N([H])C(=O)N4C([H])([H])C([H])([H])C([H])([H])C([H])(n5nc(-c6c([H])c([H])c(Oc7c([H])c([H])c(F)c([H])c7F)c([H])c6[H])c(C(=O)N([H])[H])c5N([H])[H])C4([H])[H])c([H])c3[H])c([H])c([H])c2C1([H])[H]

$$$$
54:0:0
     RDKit          3D

 92 98  0  0  1  0  0  0  0  0999 V2000
  -27.7680  -19.5940   18.1370 C   0  0  0  0  0  3  0  0  0  0  0  0
  -29.1780  -20.7810   19.6200 C   0  0  0  0  0  3  0  0  0  0  0  0
  -28.4110  -21.0860   18.4720 C   0  0  0  0  0  0  0  0  0  0  0  0
  -27.8390  -18.0890   18.8320 C   0  0  0  0  0  0  0  0  0  0  0  0
  -28.5930  -18.4210   19.9920 C   0  0  0  0  0  0  0  0  0  0  0  0
  -29.2090  -19.5960   20.3160 N   0  0  0  0  0  0  0  0  0  0  0  0
  -28.6630  -17.5160   21.0350 N   0  0  0  0  0  0  0  0  0  0  0  0
  -28.9510  -16.5980   20.6840 H   0  0  0  0  0  0  0  0  0  0  0  0
  -29.2250  -17.7900   21.8240 H   0  0  0  0  0  0  0  0  0  0  0  0
  -27.0540  -16.2900   18.8590 C   0  0  0  0  0  1  0  0  0  0  0  0
  -27.1840  -14.2820   19.3460 C   0  0  0  0  0  1  0  0  0  0  0  0
  -28.9270  -14.6640   18.9490 C   0  0  0  0  0  2  0  0  0  0  0  0
  -31.5350  -13.8410   19.9920 C   0  0  0  0  0  0  0  0  0  0  0  0
  -31.9060  -11.4780   19.3430 C   0  0  0  0  0  2  0  0  0  0  0  0
  -30.8770  -11.2930   18.2000 C   0  0  0  0  0  2  0  0  0  0  0  0
  -29.4670  -11.0990   18.8320 C   0  0  0  0  0  2  0  0  0  0  0  0
  -29.3320  -12.0730   20.0500 C   0  0  0  0  0  3  0  0  0  0  0  0
  -30.3530  -12.0850   21.0970 C   0  0  0  0  0  2  0  0  0  0  0  0
  -31.4180  -12.5240   20.2730 N   0  0  0  0  0  0  0  0  0  0  0  0
  -32.7160  -14.2030   19.8640 O   0  0  0  0  0  0  0  0  0  0  0  0
  -30.3160  -14.6470   19.8430 N   0  0  0  0  0  0  0  0  0  0  0  0
  -30.6120  -15.6060   19.9660 H   0  0  0  0  0  0  0  0  0  0  0  0
  -27.1030  -14.0280   21.5030 C   0  0  0  0  0  2  0  0  0  0  0  0
  -25.5170  -13.6230   20.8580 C   0  0  0  0  0  3  0  0  0  0  0  0
  -25.5390  -12.1820   19.9170 C   0  0  0  0  0  3  0  0  0  0  0  0
  -28.1830  -12.6430   20.4910 N   0  0  0  0  0  2  0  0  0  0  0  0
  -27.0350  -11.8100   19.5860 N   0  0  0  0  0  2  0  0  0  0  0  0
  -24.8080  -10.8180   20.4750 C   0  0  0  0  0  0  0  0  0  0  0  0
  -25.2570   -9.7860   21.4290 C   0  0  0  0  0  3  0  0  0  0  0  0
  -24.4780   -8.6170   21.8170 C   0  0  0  0  0  3  0  0  0  0  0  0
  -23.1780   -8.4020   21.2850 C   0  0  0  0  0  0  0  0  0  0  0  0
  -22.7360   -9.3950   20.3920 C   0  0  0  0  0  3  0  0  0  0  0  0
  -23.5060  -10.5320   20.0210 C   0  0  0  0  0  3  0  0  0  0  0  0
  -22.3330   -7.2950   21.4330 O   0  0  0  0  0  0  0  0  0  0  0  0
  -22.0870   -6.5830   22.5980 C   0  0  0  0  0  0  0  0  0  0  0  0
  -21.7260   -7.2120   23.8090 C   0  0  0  0  0  3  0  0  0  0  0  0
  -21.4070   -6.4420   24.9500 C   0  0  0  0  0  3  0  0  0  0  0  0
  -21.4450   -5.0340   24.8930 C   0  0  0  0  0  0  0  0  0  0  0  0
  -21.7710   -4.3980   23.6830 C   0  0  0  0  0  3  0  0  0  0  0  0
  -22.0780   -5.1660   22.5430 C   0  0  0  0  0  0  0  0  0  0  0  0
  -22.3510   -4.5270   21.3800 F   0  0  0  0  0  0  0  0  0  0  0  0
  -21.1660   -4.2940   25.9940 F   0  0  0  0  0  0  0  0  0  0  0  0
  -24.1590  -14.0560   21.1850 C   0  0  0  0  0  0  0  0  0  0  0  0
  -23.4790  -13.3240   22.0690 N   0  0  0  0  0  0  0  0  0  0  0  0
  -23.6400  -14.9200   20.5030 O   0  0  0  0  0  0  0  0  0  0  0  0
  -23.9210  -12.5770   22.5840 H   0  0  0  0  0  0  0  0  0  0  0  0
  -22.5170  -13.5560   22.2630 H   0  0  0  0  0  0  0  0  0  0  0  0
  -27.6210  -15.2270   21.8120 N   0  0  0  0  0  0  0  0  0  0  0  0
  -28.3060  -15.3660   21.0780 H   0  0  0  0  0  0  0  0  0  0  0  0
  -28.1850  -15.0980   22.6450 H   0  0  0  0  0  0  0  0  0  0  0  0
  -28.3310  -22.9640   17.9310 C   0  0  0  0  0  2  0  0  0  0  0  0
  -28.9090  -24.6930   18.2820 O   0  0  0  0  0  0  0  0  0  0  0  0
  -26.0000  -30.3970   22.8580 C   0  0  0  0  0  0  0  0  0  0  0  0
  -28.2390  -26.0910   18.5640 C   0  0  0  0  0  0  0  0  0  0  0  0
  -24.7710  -29.3340   21.0330 C   0  0  0  0  0  3  0  0  0  0  0  0
  -26.1300  -28.1670   19.1590 C   0  0  0  0  0  0  0  0  0  0  0  0
  -27.3320  -29.5800   20.7890 C   0  0  0  0  0  2  0  0  0  0  0  0
  -27.3580  -28.3350   19.8000 C   0  0  0  0  0  0  0  0  0  0  0  0
  -28.4170  -27.3080   19.4960 C   0  0  0  0  0  3  0  0  0  0  0  0
  -27.0450  -26.2620   17.8690 C   0  0  0  0  0  3  0  0  0  0  0  0
  -26.0230  -27.1830   18.1810 C   0  0  0  0  0  3  0  0  0  0  0  0
  -24.9260  -29.0380   19.5200 C   0  0  0  0  0  2  0  0  0  0  0  0
  -26.0670  -29.8000   21.6150 N   0  0  0  0  0  0  0  0  0  0  0  0
  -24.9270  -30.5050   23.4780 O   0  0  0  0  0  0  0  0  0  0  0  0
  -24.1890  -28.0990   21.7740 C   0  0  0  0  0  0  0  0  0  0  0  0
  -22.8960  -27.7900   21.5670 N   0  0  0  0  0  0  0  0  0  0  0  0
  -24.9110  -27.4310   22.5170 O   0  0  0  0  0  0  0  0  0  0  0  0
  -22.3530  -28.3880   20.9590 H   0  0  0  0  0  0  0  0  0  0  0  0
  -19.7530  -25.9660   21.6050 C   0  0  0  0  0  0  0  0  0  0  0  0
  -22.1990  -26.6280   22.1350 C   0  0  0  0  0  3  0  0  0  0  0  0
  -22.5970  -25.3280   21.4000 C   0  0  0  0  0  2  0  0  0  0  0  0
  -21.6470  -24.9660   20.2540 C   0  0  0  0  0  2  0  0  0  0  0  0
  -20.2200  -24.7790   20.7760 C   0  0  0  0  0  2  0  0  0  0  0  0
  -20.6820  -26.8420   22.2290 C   0  0  0  0  0  0  0  0  0  0  0  0
  -20.1960  -27.9440   22.9630 C   0  0  0  0  0  3  0  0  0  0  0  0
  -18.8140  -28.1820   23.0780 C   0  0  0  0  0  3  0  0  0  0  0  0
  -17.8980  -27.3060   22.4720 C   0  0  0  0  0  3  0  0  0  0  0  0
  -18.3660  -26.1990   21.7410 C   0  0  0  0  0  3  0  0  0  0  0  0
  -27.2590  -30.9890   23.5590 C   0  0  0  0  0  3  0  0  0  0  0  0
  -26.8350  -32.1650   24.3500 N   0  0  0  0  0  0  0  0  0  0  0  0
  -27.0370  -33.4440   24.0100 C   0  0  0  0  0  0  0  0  0  0  0  0
  -27.6580  -33.7660   22.9950 O   0  0  0  0  0  0  0  0  0  0  0  0
  -26.2800  -31.9760   25.1700 H   0  0  0  0  0  0  0  0  0  0  0  0
  -25.1580  -35.0910   24.3540 C   0  0  0  0  0  1  0  0  0  0  0  0
  -26.4690  -34.5410   24.9400 C   0  0  0  0  0  3  0  0  0  0  0  0
  -28.5650  -35.2790   25.9940 C   0  0  0  0  0  1  0  0  0  0  0  0
  -27.4100  -35.6590   25.1850 N   0  0  0  0  0  0  0  0  0  0  0  0
  -26.9400  -36.4340   25.6450 H   0  0  0  0  0  0  0  0  0  0  0  0
  -27.9780  -29.9510   24.5090 C   0  0  1  0  0  0  0  0  0  0  0  0
  -27.0320  -29.2770   25.5320 C   0  0  0  0  0  1  0  0  0  0  0  0
  -28.6610  -28.8300   23.6960 C   0  0  0  0  0  1  0  0  0  0  0  0
  -29.1060  -30.6560   25.3000 C   0  0  0  0  0  1  0  0  0  0  0  0
  1  3  2  0
  1  4  1  0
  2  6  2  0
  3  2  1  0
  4 10  1  0
  4  5  2  0
  5  6  1  0
  5  7  1  0
  7  9  1  0
  8  7  1  0
 12 11  1  0
 12 21  1  0
 13 19  1  0
 14 19  1  0
 15 16  1  0
 15 14  1  0
 16 17  1  0
 17 26  1  0
 17 18  1  0
 19 18  1  0
 20 13  2  0
 21 22  1  0
 21 13  1  0
 23 48  1  0
 24 43  1  0
 24 23  1  0
 25 27  1  0
 25 28  1  0
 25 24  1  0
 27 26  1  0
 28 29  1  0
 29 30  2  0
 31 34  1  0
 31 30  1  0
 32 31  2  0
 33 32  1  0
 33 28  2  0
 34 35  1  0
 35 36  1  0
 36 37  2  0
 38 37  1  0
 38 42  1  0
 39 38  2  0
 40 35  2  0
 40 39  1  0
 41 40  1  0
 43 44  1  0
 44 47  1  0
 44 46  1  0
 45 43  2  0
 48 50  1  0
 49 48  1  0
 51 52  1  0
 51  3  1  0
 52 54  1  0
 53 64  2  0
 54 59  1  0
 55 63  1  0
 55 65  1  0
 56 62  1  0
 56 58  1  0
 57 63  1  0
 58 57  1  0
 59 58  2  0
 60 61  1  0
 60 54  2  0
 61 56  2  0
 62 55  1  0
 63 53  1  0
 65 67  2  0
 66 65  1  0
 68 66  1  0
 69 78  2  0
 69 74  1  0
 70 66  1  0
 70 74  1  0
 71 70  1  0
 72 73  1  0
 72 71  1  0
 73 69  1  0
 74 75  2  0
 75 76  1  0
 77 76  2  0
 78 77  1  0
 79 53  1  0
 79 80  1  0
 79 89  1  0
 80 83  1  0
 81 80  1  0
 81 85  1  0
 82 81  2  0
 85 84  1  0
 85 87  1  0
 87 88  1  0
 87 86  1  0
 89 92  1  1
 89 90  1  0
 91 89  1  0
M  ISO  4  13 100  21 100  51 101  52 101
M  END
>  <TORSDO>  (55) 
F 21

>  <SCORE>  (55) 
-8.497

>  <name>  (55) 
54

>  <ligand_id>  (55) 
54

>  <original_smiles>  (55) 
[H]c1nc(N([H])[H])c(C([H])([H])C([H])([H])C([H])([H])N([H])C(=O)N2C([H])([H])C([H])([H])C([H])([H])C([H])(n3nc(-c4c([H])c([H])c(Oc5c([H])c([H])c(F)c([H])c5F)c([H])c4[H])c(C(=O)N([H])[H])c3N([H])[H])C2([H])[H])c([H])c1C([H])([H])Oc1c([H])c([H])c2c(c1[H])C([H])([H])N(C(=O)C([H])(N([H])C(=O)C([H])(N([H])C([H])([H])[H])C([H])([H])[H])C(C([H])([H])[H])(C([H])([H])[H])C([H])([H])[H])C([H])(C(=O)N([H])C1([H])c3c([H])c([H])c([H])c([H])c3C([H])([H])C([H])([H])C1([H])[H])C2([H])[H]

>  <smiles>  (55) 
[H]c1nc(N([H])[H])c(C([H])([H])C([H])([H])C([H])([H])N([H])C(=O)N2C([H])([H])C([H])([H])C([H])([H])C([H])(n3nc(-c4c([H])c([H])c(Oc5c([H])c([H])c(F)c([H])c5F)c([H])c4[H])c(C(=O)N([H])[H])c3N([H])[H])C2([H])[H])c([H])c1C([H])([H])Oc1c([H])c([H])c2c(c1[H])C([H])([H])N(C(=O)C([H])(N([H])C(=O)C([H])(N([H])C([H])([H])[H])C([H])([H])[H])C(C([H])([H])[H])(C([H])([H])[H])C([H])([H])[H])C([H])(C(=O)N([H])C1([H])c3c([H])c([H])c([H])c([H])c3C([H])([H])C([H])([H])C1([H])[H])C2([H])[H]

$$$$
55:0:0
     RDKit          3D

104113  0  0  1  0  0  0  0  0999 V2000
  -30.0280  -20.7310   19.1730 C   0  0  0  0  0  3  0  0  0  0  0  0
  -31.1660  -19.1830   15.7670 C   0  0  0  0  0  2  0  0  0  0  0  0
  -29.8680  -18.4570   15.3770 C   0  0  0  0  0  2  0  0  0  0  0  0
  -28.7290  -19.5350   17.2360 C   0  0  0  0  0  2  0  0  0  0  0  0
  -30.0550  -20.2450   17.6620 C   0  0  0  0  0  3  0  0  0  0  0  0
  -31.2300  -19.4380   17.2240 N   0  0  0  0  0  0  0  0  0  0  0  0
  -28.7040  -19.2580   15.7880 N   0  0  0  0  0  4  0  0  0  0  0  0
  -27.8610  -18.7570   15.5590 H   0  0  0  0  0  0  0  0  0  0  0  0
  -28.6960  -20.1250   15.2760 H   0  0  0  0  0  0  0  0  0  0  0  0
  -32.9310  -21.3160   17.0150 C   0  0  0  0  0  1  0  0  0  0  0  0
  -33.6580  -18.8980   17.3540 C   0  0  0  0  0  1  0  0  0  0  0  0
  -32.5630  -19.9480   17.6190 C   0  0  0  0  0  3  0  0  0  0  0  0
  -29.1490  -22.6390   20.8620 C   0  0  0  0  0  2  0  0  0  0  0  0
  -29.2230  -24.2000   21.0690 C   0  0  0  0  0  2  0  0  0  0  0  0
  -28.5060  -24.6050   18.7200 C   0  0  0  0  0  2  0  0  0  0  0  0
  -29.1380  -22.0870   19.3920 C   0  0  0  0  0  3  0  0  0  0  0  0
  -28.2500  -25.0330   20.1890 C   0  0  0  0  0  3  0  0  0  0  0  0
  -29.4000  -23.3330   18.4430 C   0  0  0  0  0  3  0  0  0  0  0  0
  -29.5830  -23.9120   16.0890 C   0  0  0  0  0  1  0  0  0  0  0  0
  -29.1530  -22.9750   17.0790 O   0  0  0  0  0  0  0  0  0  0  0  0
  -28.3350  -26.4970   20.4320 O   0  0  0  0  0  0  0  0  0  0  0  0
  -24.5840  -31.9560   23.3160 C   0  0  0  0  0  0  0  0  0  0  0  0
  -27.1940  -27.3140   20.3780 C   0  0  0  0  0  0  0  0  0  0  0  0
  -23.3870  -30.5430   21.6820 C   0  0  0  0  0  3  0  0  0  0  0  0
  -24.8390  -28.9420   20.3170 C   0  0  0  0  0  0  0  0  0  0  0  0
  -25.9340  -30.8240   21.5340 C   0  0  0  0  0  2  0  0  0  0  0  0
  -26.0050  -29.4340   20.9130 C   0  0  0  0  0  0  0  0  0  0  0  0
  -27.1850  -28.6330   20.9310 C   0  0  0  0  0  3  0  0  0  0  0  0
  -25.9970  -26.8640   19.7800 C   0  0  0  0  0  3  0  0  0  0  0  0
  -24.8360  -27.6600   19.7440 C   0  0  0  0  0  3  0  0  0  0  0  0
  -23.6130  -29.8310   20.3240 C   0  0  0  0  0  2  0  0  0  0  0  0
  -24.6520  -31.1260   22.2330 N   0  0  0  0  0  0  0  0  0  0  0  0
  -23.4950  -32.2610   23.8250 O   0  0  0  0  0  0  0  0  0  0  0  0
  -22.6920  -29.5580   22.6500 C   0  0  0  0  0  0  0  0  0  0  0  0
  -21.3680  -29.3900   22.4960 N   0  0  0  0  0  0  0  0  0  0  0  0
  -23.3440  -28.9460   23.5010 O   0  0  0  0  0  0  0  0  0  0  0  0
  -20.9030  -29.9310   21.7810 H   0  0  0  0  0  0  0  0  0  0  0  0
  -17.9600  -28.2770   22.9700 C   0  0  0  0  0  0  0  0  0  0  0  0
  -20.5200  -28.4800   23.2680 C   0  0  0  0  0  3  0  0  0  0  0  0
  -20.5970  -27.0400   22.7100 C   0  0  0  0  0  2  0  0  0  0  0  0
  -19.4980  -26.7310   21.6880 C   0  0  0  0  0  2  0  0  0  0  0  0
  -18.1120  -26.9170   22.3120 C   0  0  0  0  0  2  0  0  0  0  0  0
  -19.0910  -29.0180   23.4050 C   0  0  0  0  0  0  0  0  0  0  0  0
  -18.8940  -30.2930   23.9790 C   0  0  0  0  0  3  0  0  0  0  0  0
  -17.5990  -30.8230   24.1280 C   0  0  0  0  0  3  0  0  0  0  0  0
  -16.4830  -30.0780   23.7140 C   0  0  0  0  0  3  0  0  0  0  0  0
  -16.6650  -28.8080   23.1370 C   0  0  0  0  0  3  0  0  0  0  0  0
  -25.8650  -32.5820   23.9480 C   0  0  0  0  0  3  0  0  0  0  0  0
  -25.5730  -33.9900   24.2460 N   0  0  0  0  0  0  0  0  0  0  0  0
  -25.9250  -35.0220   23.4690 C   0  0  0  0  0  0  0  0  0  0  0  0
  -26.6000  -34.8880   22.4450 O   0  0  0  0  0  0  0  0  0  0  0  0
  -24.9790  -34.1740   25.0410 H   0  0  0  0  0  0  0  0  0  0  0  0
  -24.2260  -36.8340   23.0640 C   0  0  0  0  0  1  0  0  0  0  0  0
  -25.4520  -36.4260   23.8960 C   0  0  0  0  0  3  0  0  0  0  0  0
  -27.5830  -37.3040   24.7410 C   0  0  0  0  0  1  0  0  0  0  0  0
  -26.5000  -37.4630   23.7750 N   0  0  0  0  0  0  0  0  0  0  0  0
  -26.1050  -38.3910   23.8950 H   0  0  0  0  0  0  0  0  0  0  0  0
  -26.3470  -31.8300   25.2490 C   0  0  1  0  0  0  0  0  0  0  0  0
  -25.2250  -31.6070   26.2900 C   0  0  0  0  0  1  0  0  0  0  0  0
  -26.9410  -30.4470   24.8940 C   0  0  0  0  0  1  0  0  0  0  0  0
  -27.4810  -32.6320   25.9270 C   0  0  0  0  0  1  0  0  0  0  0  0
  -29.7430  -19.6020   20.1730 N   0  0  0  0  0  4  0  0  0  0  0  0
  -30.2110  -19.8600   21.0290 H   0  0  0  0  0  0  0  0  0  0  0  0
  -28.7580  -19.6090   20.3780 H   0  0  0  0  0  0  0  0  0  0  0  0
  -30.1190  -18.1440   19.8970 C   0  0  0  0  0  2  0  0  0  0  0  0
  -30.0200  -17.1560   21.1240 C   0  0  0  0  0  2  0  0  0  0  0  0
  -30.6800  -14.6750   20.5310 C   0  0  0  0  0  0  0  0  0  0  0  0
  -30.5060  -12.4540   19.4330 C   0  0  0  0  0  2  0  0  0  0  0  0
  -29.5670  -12.5840   18.2110 C   0  0  0  0  0  2  0  0  0  0  0  0
  -28.0910  -12.4160   18.6260 C   0  0  0  0  0  2  0  0  0  0  0  0
  -27.7140  -13.2730   19.8620 C   0  0  0  0  0  3  0  0  0  0  0  0
  -28.7610  -13.1000   20.9870 C   0  0  0  0  0  2  0  0  0  0  0  0
  -30.0770  -13.4530   20.4270 N   0  0  0  0  0  0  0  0  0  0  0  0
  -31.8460  -14.8730   20.1870 O   0  0  0  0  0  0  0  0  0  0  0  0
  -29.8380  -15.6920   20.8590 N   0  0  0  0  0  0  0  0  0  0  0  0
  -28.9050  -15.3560   21.0510 H   0  0  0  0  0  0  0  0  0  0  0  0
  -25.3040  -13.8670   20.5380 C   0  0  0  0  0  0  0  0  0  0  0  0
  -24.2340  -13.0890   20.8890 C   0  0  0  0  0  0  0  0  0  0  0  0
  -24.7050  -11.7400   20.8670 C   0  0  0  0  0  0  0  0  0  0  0  0
  -26.3580  -12.9910   20.3250 N   0  0  0  0  0  0  0  0  0  0  0  0
  -26.0010  -11.7070   20.5830 N   0  0  0  0  0  0  0  0  0  0  0  0
  -23.9840  -10.4720   21.0440 C   0  0  0  0  0  0  0  0  0  0  0  0
  -24.3850   -9.5230   22.0080 C   0  0  0  0  0  3  0  0  0  0  0  0
  -23.6650   -8.3200   22.1700 C   0  0  0  0  0  3  0  0  0  0  0  0
  -22.5290   -8.0590   21.3680 C   0  0  0  0  0  0  0  0  0  0  0  0
  -22.1480   -8.9980   20.3920 C   0  0  0  0  0  3  0  0  0  0  0  0
  -22.8700  -10.1920   20.2290 C   0  0  0  0  0  3  0  0  0  0  0  0
  -21.7830   -6.9070   21.4390 O   0  0  0  0  0  0  0  0  0  0  0  0
  -21.6740   -6.1910   22.6040 C   0  0  0  0  0  0  0  0  0  0  0  0
  -21.1350   -6.7560   23.7800 C   0  0  0  0  0  3  0  0  0  0  0  0
  -20.9780   -5.9630   24.9330 C   0  0  0  0  0  3  0  0  0  0  0  0
  -21.3510   -4.6060   24.9130 C   0  0  0  0  0  0  0  0  0  0  0  0
  -21.8840   -4.0400   23.7410 C   0  0  0  0  0  3  0  0  0  0  0  0
  -22.0430   -4.8290   22.5890 C   0  0  0  0  0  0  0  0  0  0  0  0
  -22.5360   -4.2740   21.4560 F   0  0  0  0  0  0  0  0  0  0  0  0
  -21.1940   -3.8420   26.0180 F   0  0  0  0  0  0  0  0  0  0  0  0
  -22.8280  -13.5560   21.1350 C   0  0  0  0  0  0  0  0  0  0  0  0
  -22.0870  -12.8480   21.9800 N   0  0  0  0  0  0  0  0  0  0  0  0
  -22.3970  -14.5850   20.6150 O   0  0  0  0  0  0  0  0  0  0  0  0
  -22.4510  -12.0150   22.4210 H   0  0  0  0  0  0  0  0  0  0  0  0
  -21.1440  -13.1400   22.1880 H   0  0  0  0  0  0  0  0  0  0  0  0
  -25.4630  -15.2370   20.3570 N   0  0  0  0  0  0  0  0  0  0  0  0
  -24.6870  -15.8830   20.4520 H   0  0  0  0  0  0  0  0  0  0  0  0
  -26.3010  -15.6780   20.0040 H   0  0  0  0  0  0  0  0  0  0  0  0
  1 62  1  0
  2  6  1  0
  3  2  1  0
  3  7  1  0
  4  5  1  0
  5  1  1  0
  6 12  1  0
  6  5  1  0
  7  4  1  0
  8  7  1  0
  9  7  1  0
 10 12  1  0
 11 12  1  0
 13 14  1  0
 15 17  1  0
 16  1  1  0
 16 13  1  0
 17 21  1  0
 17 14  1  0
 18 20  1  0
 18 15  1  0
 18 16  1  0
 19 20  1  0
 22 33  2  0
 23 21  1  0
 23 28  1  0
 24 32  1  0
 24 34  1  0
 25 31  1  0
 25 27  1  0
 26 32  1  0
 27 28  2  0
 27 26  1  0
 29 23  2  0
 30 29  1  0
 30 25  2  0
 31 24  1  0
 32 22  1  0
 34 36  2  0
 35 34  1  0
 37 35  1  0
 38 47  2  0
 38 43  1  0
 39 35  1  0
 39 43  1  0
 40 39  1  0
 41 42  1  0
 41 40  1  0
 42 38  1  0
 43 44  2  0
 44 45  1  0
 46 45  2  0
 47 46  1  0
 48 22  1  0
 48 49  1  0
 48 58  1  0
 49 52  1  0
 50 54  1  0
 50 49  1  0
 51 50  2  0
 54 53  1  0
 56 57  1  0
 56 54  1  0
 56 55  1  0
 58 61  1  1
 58 59  1  0
 60 58  1  0
 62 64  1  0
 62 63  1  0
 65 62  1  0
 65 66  1  0
 67 75  1  0
 68 73  1  0
 69 70  1  0
 69 68  1  0
 71 70  1  0
 71 80  1  0
 71 72  1  0
 73 67  1  0
 73 72  1  0
 74 67  2  0
 75 76  1  0
 75 66  1  0
 77 78  2  0
 78 97  1  0
 79 78  1  0
 79 82  1  0
 80 77  1  0
 80 81  1  0
 81 79  2  0
 82 83  1  0
 83 84  2  0
 85 88  1  0
 85 84  1  0
 86 85  2  0
 87 86  1  0
 87 82  2  0
 88 89  1  0
 89 90  1  0
 90 91  2  0
 92 91  1  0
 92 96  1  0
 93 92  2  0
 94 89  2  0
 94 93  1  0
 95 94  1  0
 97 98  1  0
 98101  1  0
 98100  1  0
 99 97  2  0
102103  1  0
102 77  1  0
104102  1  0
M  ISO  4  17 101  21 101  67 100  75 100
M  END
>  <TORSDO>  (56) 
F 23

>  <SCORE>  (56) 
-13.022

>  <name>  (56) 
55

>  <ligand_id>  (56) 
55

>  <original_smiles>  (56) 
[H]c1c([H])c([H])c2c(c1[H])C([H])([H])C([H])([H])C([H])([H])C2([H])N([H])C(=O)C1([H])N(C(=O)C([H])(N([H])C(=O)C([H])(N([H])C([H])([H])[H])C([H])([H])[H])C(C([H])([H])[H])(C([H])([H])[H])C([H])([H])[H])C([H])([H])c2c([H])c(OC3([H])C([H])([H])C([H])([H])C([H])(C([H])(C4([H])N(C([H])(C([H])([H])[H])C([H])([H])[H])C([H])([H])C([H])([H])[N+]([H])([H])C4([H])[H])[N+]([H])([H])C([H])([H])C([H])([H])N([H])C(=O)N4C([H])([H])C([H])([H])C([H])([H])C([H])(n5nc(-c6c([H])c([H])c(Oc7c([H])c([H])c(F)c([H])c7F)c([H])c6[H])c(C(=O)N([H])[H])c5N([H])[H])C4([H])[H])C([H])(OC([H])([H])[H])C3([H])[H])c([H])c([H])c2C1([H])[H]

>  <smiles>  (56) 
[H]c1c([H])c([H])c2c(c1[H])C([H])([H])C([H])([H])C([H])([H])C2([H])N([H])C(=O)C1([H])N(C(=O)C([H])(N([H])C(=O)C([H])(N([H])C([H])([H])[H])C([H])([H])[H])C(C([H])([H])[H])(C([H])([H])[H])C([H])([H])[H])C([H])([H])c2c([H])c(OC3([H])C([H])([H])C([H])([H])C([H])(C([H])(C4([H])N(C([H])(C([H])([H])[H])C([H])([H])[H])C([H])([H])C([H])([H])[N+]([H])([H])C4([H])[H])[N+]([H])([H])C([H])([H])C([H])([H])N([H])C(=O)N4C([H])([H])C([H])([H])C([H])([H])C([H])(n5nc(-c6c([H])c([H])c(Oc7c([H])c([H])c(F)c([H])c7F)c([H])c6[H])c(C(=O)N([H])[H])c5N([H])[H])C4([H])[H])C([H])(OC([H])([H])[H])C3([H])[H])c([H])c([H])c2C1([H])[H]

$$$$
56:0:0
     RDKit          3D

 91 99  0  0  1  0  0  0  0  0999 V2000
  -30.6010  -20.5420   19.2970 C   0  0  0  0  0  3  0  0  0  0  0  0
  -31.3760  -19.4600   18.8360 C   0  0  0  0  0  3  0  0  0  0  0  0
  -29.2570  -18.9080   20.4960 C   0  0  0  0  0  3  0  0  0  0  0  0
  -29.4880  -20.3400   20.1300 C   0  0  0  0  0  0  0  0  0  0  0  0
  -31.1350  -18.1110   19.1940 C   0  0  0  0  0  0  0  0  0  0  0  0
  -30.0710  -17.7260   20.0680 C   0  0  0  0  0  0  0  0  0  0  0  0
  -30.5440  -14.9990   20.2970 C   0  0  0  0  0  0  0  0  0  0  0  0
  -30.3920  -12.6460   19.3710 C   0  0  0  0  0  2  0  0  0  0  0  0
  -29.4660  -12.5960   18.1360 C   0  0  0  0  0  2  0  0  0  0  0  0
  -28.0050  -12.3740   18.5690 C   0  0  0  0  0  2  0  0  0  0  0  0
  -27.5890  -13.3010   19.7430 C   0  0  0  0  0  3  0  0  0  0  0  0
  -28.6460  -13.3500   20.8660 C   0  0  0  0  0  2  0  0  0  0  0  0
  -29.9160  -13.7540   20.2500 N   0  0  0  0  0  0  0  0  0  0  0  0
  -31.7630  -14.9830   20.0930 O   0  0  0  0  0  0  0  0  0  0  0  0
  -29.8090  -16.2280   20.3940 N   0  0  0  0  0  0  0  0  0  0  0  0
  -28.8530  -16.0560   20.6630 H   0  0  0  0  0  0  0  0  0  0  0  0
  -25.2080  -13.8610   20.4950 C   0  0  0  0  0  0  0  0  0  0  0  0
  -24.1500  -13.0780   20.8670 C   0  0  0  0  0  0  0  0  0  0  0  0
  -24.6240  -11.7310   20.8360 C   0  0  0  0  0  0  0  0  0  0  0  0
  -26.2560  -12.9900   20.2500 N   0  0  0  0  0  0  0  0  0  0  0  0
  -25.9150  -11.7040   20.5260 N   0  0  0  0  0  0  0  0  0  0  0  0
  -23.9050  -10.4630   21.0240 C   0  0  0  0  0  0  0  0  0  0  0  0
  -24.3380   -9.4990   21.9610 C   0  0  0  0  0  3  0  0  0  0  0  0
  -23.6150   -8.3000   22.1410 C   0  0  0  0  0  3  0  0  0  0  0  0
  -22.4470   -8.0540   21.3800 C   0  0  0  0  0  0  0  0  0  0  0  0
  -22.0350   -9.0050   20.4300 C   0  0  0  0  0  3  0  0  0  0  0  0
  -22.7580  -10.1970   20.2500 C   0  0  0  0  0  3  0  0  0  0  0  0
  -21.6960   -6.9050   21.4660 O   0  0  0  0  0  0  0  0  0  0  0  0
  -21.6400   -6.1660   22.6190 C   0  0  0  0  0  0  0  0  0  0  0  0
  -21.1790   -6.7180   23.8340 C   0  0  0  0  0  3  0  0  0  0  0  0
  -21.0730   -5.9040   24.9800 C   0  0  0  0  0  3  0  0  0  0  0  0
  -21.4150   -4.5410   24.9110 C   0  0  0  0  0  0  0  0  0  0  0  0
  -21.8650   -3.9890   23.6990 C   0  0  0  0  0  3  0  0  0  0  0  0
  -21.9750   -4.7990   22.5560 C   0  0  0  0  0  0  0  0  0  0  0  0
  -22.3900   -4.2570   21.3850 F   0  0  0  0  0  0  0  0  0  0  0  0
  -21.3050   -3.7580   26.0090 F   0  0  0  0  0  0  0  0  0  0  0  0
  -22.7490  -13.5460   21.1310 C   0  0  0  0  0  0  0  0  0  0  0  0
  -22.0200  -12.8490   21.9970 N   0  0  0  0  0  0  0  0  0  0  0  0
  -22.3080  -14.5650   20.6030 O   0  0  0  0  0  0  0  0  0  0  0  0
  -22.3910  -12.0320   22.4570 H   0  0  0  0  0  0  0  0  0  0  0  0
  -21.0760  -13.1410   22.2020 H   0  0  0  0  0  0  0  0  0  0  0  0
  -25.3620  -15.2330   20.3170 N   0  0  0  0  0  0  0  0  0  0  0  0
  -24.5860  -15.8760   20.4140 H   0  0  0  0  0  0  0  0  0  0  0  0
  -26.2000  -15.6760   19.9620 H   0  0  0  0  0  0  0  0  0  0  0  0
  -31.9900  -17.1870   18.6080 N   0  0  0  0  0  0  0  0  0  0  0  0
  -32.9070  -17.5300   18.3450 H   0  0  0  0  0  0  0  0  0  0  0  0
  -32.0590  -16.2980   19.1160 H   0  0  0  0  0  0  0  0  0  0  0  0
  -28.5950  -21.6790   20.5020 C   0  0  0  0  0  2  0  0  0  0  0  0
  -29.0090  -23.3020   20.2270 C   0  0  0  0  0  3  0  0  0  0  0  0
  -27.9640  -24.6230   20.4020 C   0  0  0  0  0  3  0  0  0  0  0  0
  -28.2450  -26.1590   20.2610 O   0  0  0  0  0  0  0  0  0  0  0  0
  -24.6120  -31.8760   23.2430 C   0  0  0  0  0  0  0  0  0  0  0  0
  -27.1820  -27.1410   20.2210 C   0  0  0  0  0  0  0  0  0  0  0  0
  -23.4090  -30.4720   21.6120 C   0  0  0  0  0  3  0  0  0  0  0  0
  -24.8550  -28.8950   20.1890 C   0  0  0  0  0  0  0  0  0  0  0  0
  -25.9620  -30.7360   21.4410 C   0  0  0  0  0  2  0  0  0  0  0  0
  -26.0370  -29.3400   20.7970 C   0  0  0  0  0  0  0  0  0  0  0  0
  -27.2010  -28.4800   20.7940 C   0  0  0  0  0  3  0  0  0  0  0  0
  -25.9750  -26.8080   19.5660 C   0  0  0  0  0  3  0  0  0  0  0  0
  -24.8390  -27.6440   19.5560 C   0  0  0  0  0  3  0  0  0  0  0  0
  -23.6270  -29.7920   20.2340 C   0  0  0  0  0  2  0  0  0  0  0  0
  -24.6820  -31.0510   22.1530 N   0  0  0  0  0  0  0  0  0  0  0  0
  -23.5260  -32.1610   23.7720 O   0  0  0  0  0  0  0  0  0  0  0  0
  -22.7320  -29.4670   22.5790 C   0  0  0  0  0  0  0  0  0  0  0  0
  -21.4050  -29.2920   22.4560 N   0  0  0  0  0  0  0  0  0  0  0  0
  -23.4050  -28.8470   23.4050 O   0  0  0  0  0  0  0  0  0  0  0  0
  -20.9150  -29.8460   21.7680 H   0  0  0  0  0  0  0  0  0  0  0  0
  -18.0260  -28.0820   22.9660 C   0  0  0  0  0  0  0  0  0  0  0  0
  -20.5850  -28.3560   23.2300 C   0  0  0  0  0  3  0  0  0  0  0  0
  -20.6890  -26.9190   22.6620 C   0  0  0  0  0  2  0  0  0  0  0  0
  -19.5870  -26.5900   21.6500 C   0  0  0  0  0  2  0  0  0  0  0  0
  -18.2060  -26.7320   22.2940 C   0  0  0  0  0  2  0  0  0  0  0  0
  -19.1420  -28.8520   23.3900 C   0  0  0  0  0  0  0  0  0  0  0  0
  -18.9170  -30.1160   23.9770 C   0  0  0  0  0  3  0  0  0  0  0  0
  -17.6090  -30.6130   24.1410 C   0  0  0  0  0  3  0  0  0  0  0  0
  -16.5090  -29.8400   23.7330 C   0  0  0  0  0  3  0  0  0  0  0  0
  -16.7160  -28.5770   23.1530 C   0  0  0  0  0  3  0  0  0  0  0  0
  -25.8910  -32.5160   23.8630 C   0  0  0  0  0  3  0  0  0  0  0  0
  -26.4100  -31.7470   25.1410 C   0  0  1  0  0  0  0  0  0  0  0  0
  -25.3180  -31.5080   26.2110 C   0  0  0  0  0  1  0  0  0  0  0  0
  -26.9960  -30.3700   24.7530 C   0  0  0  0  0  1  0  0  0  0  0  0
  -27.5620  -32.5420   25.7990 C   0  0  0  0  0  1  0  0  0  0  0  0
  -25.5770  -33.9140   24.2000 N   0  0  0  0  0  0  0  0  0  0  0  0
  -25.8880  -34.9730   23.4400 C   0  0  0  0  0  0  0  0  0  0  0  0
  -26.5380  -34.8750   22.3960 O   0  0  0  0  0  0  0  0  0  0  0  0
  -24.9970  -34.0630   25.0140 H   0  0  0  0  0  0  0  0  0  0  0  0
  -24.1440  -36.7600   23.1280 C   0  0  0  0  0  1  0  0  0  0  0  0
  -25.4040  -36.3590   23.9100 C   0  0  0  0  0  3  0  0  0  0  0  0
  -27.5500  -37.2580   24.6970 C   0  0  0  0  0  1  0  0  0  0  0  0
  -26.4280  -37.4180   23.7760 N   0  0  0  0  0  0  0  0  0  0  0  0
  -26.0210  -38.3370   23.9290 H   0  0  0  0  0  0  0  0  0  0  0  0
  1  4  1  0
  2  5  1  0
  2  1  2  0
  4  3  2  0
  4 48  1  0
  5  6  2  0
  6 15  1  0
  6  3  1  0
  7 15  1  0
  8 13  1  0
  9 10  1  0
  9  8  1  0
 11 10  1  0
 11 20  1  0
 11 12  1  0
 13  7  1  0
 13 12  1  0
 14  7  2  0
 15 16  1  0
 17 18  2  0
 18 37  1  0
 19 18  1  0
 19 22  1  0
 20 17  1  0
 20 21  1  0
 21 19  2  0
 22 23  1  0
 23 24  2  0
 25 28  1  0
 25 24  1  0
 26 25  2  0
 27 26  1  0
 27 22  2  0
 28 29  1  0
 29 30  1  0
 30 31  2  0
 32 31  1  0
 32 36  1  0
 33 32  2  0
 34 29  2  0
 34 33  1  0
 35 34  1  0
 37 38  1  0
 38 41  1  0
 38 40  1  0
 39 37  2  0
 42 43  1  0
 42 17  1  0
 44 42  1  0
 45 47  1  0
 45  5  1  0
 46 45  1  0
 49 50  2  0
 49 48  1  0
 51 50  1  0
 52 63  2  0
 53 51  1  0
 53 58  1  0
 54 62  1  0
 54 64  1  0
 55 61  1  0
 55 57  1  0
 56 62  1  0
 57 56  1  0
 58 57  2  0
 59 53  2  0
 60 59  1  0
 60 55  2  0
 61 54  1  0
 62 52  1  0
 64 66  2  0
 65 64  1  0
 67 65  1  0
 68 77  2  0
 68 73  1  0
 69 65  1  0
 69 73  1  0
 70 69  1  0
 71 72  1  0
 71 70  1  0
 72 68  1  0
 73 74  2  0
 74 75  1  0
 76 75  2  0
 77 76  1  0
 78 52  1  0
 78 83  1  0
 78 79  1  0
 79 82  1  1
 79 80  1  0
 81 79  1  0
 83 86  1  0
 84 88  1  0
 84 83  1  0
 85 84  2  0
 88 87  1  0
 90 88  1  0
 90 91  1  0
 90 89  1  0
M  ISO  4   7 100  15 100  50 101  51 101
M  END
>  <TORSDO>  (57) 
F 20

>  <SCORE>  (57) 
-14.763

>  <name>  (57) 
56

>  <ligand_id>  (57) 
56

>  <original_smiles>  (57) 
[H]c1c([H])c([H])c2c(c1[H])C([H])([H])C([H])([H])C([H])([H])C2([H])N([H])C(=O)C1([H])N(C(=O)C([H])(N([H])C(=O)C([H])(N([H])C([H])([H])[H])C([H])([H])[H])C(C([H])([H])[H])(C([H])([H])[H])C([H])([H])[H])C([H])([H])c2c([H])c(OC([H])([H])C([H])([H])C([H])([H])c3c([H])c([H])c(N([H])[H])c(N([H])C(=O)N4C([H])([H])C([H])([H])C([H])([H])C([H])(n5nc(-c6c([H])c([H])c(Oc7c([H])c([H])c(F)c([H])c7F)c([H])c6[H])c(C(=O)N([H])[H])c5N([H])[H])C4([H])[H])c3[H])c([H])c([H])c2C1([H])[H]

>  <smiles>  (57) 
[H]c1c([H])c([H])c2c(c1[H])C([H])([H])C([H])([H])C([H])([H])C2([H])N([H])C(=O)C1([H])N(C(=O)C([H])(N([H])C(=O)C([H])(N([H])C([H])([H])[H])C([H])([H])[H])C(C([H])([H])[H])(C([H])([H])[H])C([H])([H])[H])C([H])([H])c2c([H])c(OC([H])([H])C([H])([H])C([H])([H])c3c([H])c([H])c(N([H])[H])c(N([H])C(=O)N4C([H])([H])C([H])([H])C([H])([H])C([H])(n5nc(-c6c([H])c([H])c(Oc7c([H])c([H])c(F)c([H])c7F)c([H])c6[H])c(C(=O)N([H])[H])c5N([H])[H])C4([H])[H])c3[H])c([H])c([H])c2C1([H])[H]

$$$$
57:0:0
     RDKit          3D

 92100  0  0  1  0  0  0  0  0999 V2000
  -27.7270  -23.5400   18.6740 C   0  0  0  0  0  2  0  0  0  0  0  0
  -27.0430  -22.1450   20.4840 C   0  0  0  0  0  2  0  0  0  0  0  0
  -28.6700  -23.7840   19.8540 C   0  0  0  0  0  3  0  0  0  0  0  0
  -28.5560  -22.3700   20.5960 C   0  0  0  0  0  3  0  0  0  0  0  0
  -26.6280  -22.7270   19.2030 N   0  0  0  0  0  0  0  0  0  0  0  0
  -26.3350  -22.0220   18.5280 H   0  0  0  0  0  0  0  0  0  0  0  0
  -29.2550  -21.1520   19.9850 N   0  0  0  0  0  4  0  0  0  0  0  0
  -30.1510  -21.4470   19.6310 H   0  0  0  0  0  0  0  0  0  0  0  0
  -28.7020  -20.8780   19.1890 H   0  0  0  0  0  0  0  0  0  0  0  0
  -29.5030  -19.9160   20.8520 C   0  0  0  0  0  3  0  0  0  0  0  0
  -29.5710  -18.4590   20.1600 C   0  0  0  0  0  3  0  0  0  0  0  0
  -30.2150  -17.2420   20.9910 C   0  0  0  0  0  2  0  0  0  0  0  0
  -30.6210  -14.7040   20.4120 C   0  0  0  0  0  0  0  0  0  0  0  0
  -30.4000  -12.4500   19.3670 C   0  0  0  0  0  2  0  0  0  0  0  0
  -29.4570  -12.5470   18.1480 C   0  0  0  0  0  2  0  0  0  0  0  0
  -27.9860  -12.3940   18.5800 C   0  0  0  0  0  2  0  0  0  0  0  0
  -27.6240  -13.2830   19.8000 C   0  0  0  0  0  3  0  0  0  0  0  0
  -28.6810  -13.1590   20.9180 C   0  0  0  0  0  2  0  0  0  0  0  0
  -29.9830  -13.4920   20.3270 N   0  0  0  0  0  0  0  0  0  0  0  0
  -31.8060  -14.8230   20.0920 O   0  0  0  0  0  0  0  0  0  0  0  0
  -29.8390  -15.8060   20.6820 N   0  0  0  0  0  0  0  0  0  0  0  0
  -28.8670  -15.5800   20.8350 H   0  0  0  0  0  0  0  0  0  0  0  0
  -25.2360  -13.9030   20.5140 C   0  0  0  0  0  0  0  0  0  0  0  0
  -24.1640  -13.1410   20.8870 C   0  0  0  0  0  0  0  0  0  0  0  0
  -24.6170  -11.7860   20.8680 C   0  0  0  0  0  0  0  0  0  0  0  0
  -26.2740  -13.0130   20.2880 N   0  0  0  0  0  0  0  0  0  0  0  0
  -25.9090  -11.7360   20.5640 N   0  0  0  0  0  0  0  0  0  0  0  0
  -23.8820  -10.5300   21.0640 C   0  0  0  0  0  0  0  0  0  0  0  0
  -24.3170   -9.5540   21.9890 C   0  0  0  0  0  3  0  0  0  0  0  0
  -23.5810   -8.3640   22.1720 C   0  0  0  0  0  3  0  0  0  0  0  0
  -22.3960   -8.1400   21.4320 C   0  0  0  0  0  0  0  0  0  0  0  0
  -21.9790   -9.1030   20.4980 C   0  0  0  0  0  3  0  0  0  0  0  0
  -22.7160  -10.2850   20.3110 C   0  0  0  0  0  3  0  0  0  0  0  0
  -21.6320   -7.0030   21.5280 O   0  0  0  0  0  0  0  0  0  0  0  0
  -21.6060   -6.2460   22.6710 C   0  0  0  0  0  0  0  0  0  0  0  0
  -21.2380   -6.7940   23.9190 C   0  0  0  0  0  3  0  0  0  0  0  0
  -21.1580   -5.9650   25.0570 C   0  0  0  0  0  3  0  0  0  0  0  0
  -21.4360   -4.5890   24.9470 C   0  0  0  0  0  0  0  0  0  0  0  0
  -21.7970   -4.0410   23.7030 C   0  0  0  0  0  3  0  0  0  0  0  0
  -21.8780   -4.8660   22.5680 C   0  0  0  0  0  0  0  0  0  0  0  0
  -22.2060   -4.3290   21.3680 F   0  0  0  0  0  0  0  0  0  0  0  0
  -21.3510   -3.7910   26.0360 F   0  0  0  0  0  0  0  0  0  0  0  0
  -22.7690  -13.6290   21.1490 C   0  0  0  0  0  0  0  0  0  0  0  0
  -22.0350  -12.9450   22.0200 N   0  0  0  0  0  0  0  0  0  0  0  0
  -22.3390  -14.6520   20.6180 O   0  0  0  0  0  0  0  0  0  0  0  0
  -22.3940  -12.1170   22.4700 H   0  0  0  0  0  0  0  0  0  0  0  0
  -21.0980  -13.2550   22.2400 H   0  0  0  0  0  0  0  0  0  0  0  0
  -25.4100  -15.2710   20.3240 N   0  0  0  0  0  0  0  0  0  0  0  0
  -24.6410  -15.9260   20.4160 H   0  0  0  0  0  0  0  0  0  0  0  0
  -26.2500  -15.7000   19.9560 H   0  0  0  0  0  0  0  0  0  0  0  0
  -28.2080  -25.1060   20.6580 C   0  0  0  0  0  2  0  0  0  0  0  0
  -28.3620  -26.4820   20.1050 O   0  0  0  0  0  0  0  0  0  0  0  0
  -24.6430  -31.8830   23.1820 C   0  0  0  0  0  0  0  0  0  0  0  0
  -27.2420  -27.3300   20.1120 C   0  0  0  0  0  0  0  0  0  0  0  0
  -23.4290  -30.4800   21.5530 C   0  0  0  0  0  3  0  0  0  0  0  0
  -24.8730  -28.9310   20.1180 C   0  0  0  0  0  0  0  0  0  0  0  0
  -25.9660  -30.8090   21.3450 C   0  0  0  0  0  2  0  0  0  0  0  0
  -26.0460  -29.4290   20.6990 C   0  0  0  0  0  0  0  0  0  0  0  0
  -27.2380  -28.6420   20.6790 C   0  0  0  0  0  3  0  0  0  0  0  0
  -26.0440  -26.8790   19.5190 C   0  0  0  0  0  3  0  0  0  0  0  0
  -24.8740  -27.6620   19.5180 C   0  0  0  0  0  3  0  0  0  0  0  0
  -23.6330  -29.8010   20.1730 C   0  0  0  0  0  2  0  0  0  0  0  0
  -24.6990  -31.0740   22.0830 N   0  0  0  0  0  0  0  0  0  0  0  0
  -23.5630  -32.1570   23.7250 O   0  0  0  0  0  0  0  0  0  0  0  0
  -22.7770  -29.4630   22.5200 C   0  0  0  0  0  0  0  0  0  0  0  0
  -21.4500  -29.2840   22.4050 N   0  0  0  0  0  0  0  0  0  0  0  0
  -23.4640  -28.8360   23.3310 O   0  0  0  0  0  0  0  0  0  0  0  0
  -20.9550  -29.8410   21.7230 H   0  0  0  0  0  0  0  0  0  0  0  0
  -18.0810  -28.0740   22.9240 C   0  0  0  0  0  0  0  0  0  0  0  0
  -20.6380  -28.3460   23.1830 C   0  0  0  0  0  3  0  0  0  0  0  0
  -20.7440  -26.9120   22.6120 C   0  0  0  0  0  2  0  0  0  0  0  0
  -19.6400  -26.5810   21.6030 C   0  0  0  0  0  2  0  0  0  0  0  0
  -18.2600  -26.7230   22.2520 C   0  0  0  0  0  2  0  0  0  0  0  0
  -19.1980  -28.8420   23.3460 C   0  0  0  0  0  0  0  0  0  0  0  0
  -18.9760  -30.1060   23.9350 C   0  0  0  0  0  3  0  0  0  0  0  0
  -17.6690  -30.6030   24.1040 C   0  0  0  0  0  3  0  0  0  0  0  0
  -16.5670  -29.8310   23.6980 C   0  0  0  0  0  3  0  0  0  0  0  0
  -16.7730  -28.5690   23.1150 C   0  0  0  0  0  3  0  0  0  0  0  0
  -25.9290  -32.5200   23.7940 C   0  0  0  0  0  3  0  0  0  0  0  0
  -25.6120  -33.9120   24.1450 N   0  0  0  0  0  0  0  0  0  0  0  0
  -25.9240  -34.9770   23.3960 C   0  0  0  0  0  0  0  0  0  0  0  0
  -26.5790  -34.8920   22.3540 O   0  0  0  0  0  0  0  0  0  0  0  0
  -25.0300  -34.0510   24.9590 H   0  0  0  0  0  0  0  0  0  0  0  0
  -24.1740  -36.7580   23.0940 C   0  0  0  0  0  1  0  0  0  0  0  0
  -25.4320  -36.3550   23.8790 C   0  0  0  0  0  3  0  0  0  0  0  0
  -27.5750  -37.2470   24.6820 C   0  0  0  0  0  1  0  0  0  0  0  0
  -26.4540  -37.4180   23.7620 N   0  0  0  0  0  0  0  0  0  0  0  0
  -26.0430  -38.3330   23.9310 H   0  0  0  0  0  0  0  0  0  0  0  0
  -26.4680  -31.7400   25.0550 C   0  0  1  0  0  0  0  0  0  0  0  0
  -25.3910  -31.4860   26.1370 C   0  0  0  0  0  1  0  0  0  0  0  0
  -27.0520  -30.3690   24.6410 C   0  0  0  0  0  1  0  0  0  0  0  0
  -27.6240  -32.5340   25.7080 C   0  0  0  0  0  1  0  0  0  0  0  0
  1  5  1  0
  1  3  1  0
  2  4  1  0
  3  4  1  0
  3 51  1  0
  4  7  1  0
  5  2  1  0
  6  5  1  0
  7 10  1  0
  8  7  1  0
  9  7  1  0
 11 10  2  0
 11 12  1  0
 13 21  1  0
 14 19  1  0
 15 16  1  0
 15 14  1  0
 17 16  1  0
 17 26  1  0
 17 18  1  0
 19 13  1  0
 19 18  1  0
 20 13  2  0
 21 22  1  0
 21 12  1  0
 23 24  2  0
 24 43  1  0
 25 24  1  0
 25 28  1  0
 26 23  1  0
 26 27  1  0
 27 25  2  0
 28 29  1  0
 29 30  2  0
 31 34  1  0
 31 30  1  0
 32 31  2  0
 33 32  1  0
 33 28  2  0
 34 35  1  0
 35 36  1  0
 36 37  2  0
 38 37  1  0
 38 42  1  0
 39 38  2  0
 40 35  2  0
 40 39  1  0
 41 40  1  0
 43 44  1  0
 44 47  1  0
 44 46  1  0
 45 43  2  0
 48 49  1  0
 48 23  1  0
 50 48  1  0
 52 54  1  0
 52 51  1  0
 53 64  2  0
 54 59  1  0
 55 63  1  0
 55 65  1  0
 56 62  1  0
 56 58  1  0
 57 63  1  0
 58 57  1  0
 59 58  2  0
 60 54  2  0
 61 60  1  0
 61 56  2  0
 62 55  1  0
 63 53  1  0
 65 67  2  0
 66 65  1  0
 68 66  1  0
 69 78  2  0
 69 74  1  0
 70 66  1  0
 70 74  1  0
 71 70  1  0
 72 73  1  0
 72 71  1  0
 73 69  1  0
 74 75  2  0
 75 76  1  0
 77 76  2  0
 78 77  1  0
 79 53  1  0
 79 80  1  0
 79 89  1  0
 80 83  1  0
 81 85  1  0
 81 80  1  0
 82 81  2  0
 85 84  1  0
 87 85  1  0
 87 88  1  0
 87 86  1  0
 89 92  1  1
 89 90  1  0
 91 89  1  0
M  ISO  4  13 100  21 100  51 101  52 101
M  END
>  <TORSDO>  (58) 
F 21

>  <SCORE>  (58) 
-13.213

>  <name>  (58) 
57

>  <ligand_id>  (58) 
57

>  <original_smiles>  (58) 
[H]c1c([H])c([H])c2c(c1[H])C([H])([H])C([H])([H])C([H])([H])C2([H])N([H])C(=O)C1([H])N(C(=O)C([H])(N([H])C(=O)C([H])(N([H])C([H])([H])[H])C([H])([H])[H])C(C([H])([H])[H])(C([H])([H])[H])C([H])([H])[H])C([H])([H])c2c([H])c(OC([H])([H])C3([H])C([H])([H])N([H])C([H])([H])C3([H])[N+]([H])([H])C([H])([H])C([H])([H])C([H])([H])N([H])C(=O)N3C([H])([H])C([H])([H])C([H])([H])C([H])(n4nc(-c5c([H])c([H])c(Oc6c([H])c([H])c(F)c([H])c6F)c([H])c5[H])c(C(=O)N([H])[H])c4N([H])[H])C3([H])[H])c([H])c([H])c2C1([H])[H]

>  <smiles>  (58) 
[H]c1c([H])c([H])c2c(c1[H])C([H])([H])C([H])([H])C([H])([H])C2([H])N([H])C(=O)C1([H])N(C(=O)C([H])(N([H])C(=O)C([H])(N([H])C([H])([H])[H])C([H])([H])[H])C(C([H])([H])[H])(C([H])([H])[H])C([H])([H])[H])C([H])([H])c2c([H])c(OC([H])([H])C3([H])C([H])([H])N([H])C([H])([H])C3([H])[N+]([H])([H])C([H])([H])C([H])([H])C([H])([H])N([H])C(=O)N3C([H])([H])C([H])([H])C([H])([H])C([H])(n4nc(-c5c([H])c([H])c(Oc6c([H])c([H])c(F)c([H])c6F)c([H])c5[H])c(C(=O)N([H])[H])c4N([H])[H])C3([H])[H])c([H])c([H])c2C1([H])[H]

$$$$
58:0:0
     RDKit          3D

 99108  0  0  1  0  0  0  0  0999 V2000
  -31.0680  -18.5020   20.7250 C   0  0  0  0  0  3  0  0  0  0  0  0
  -30.9390  -20.8680   20.1640 C   0  0  0  0  0  0  0  0  0  0  0  0
  -31.6060  -19.8000   20.8270 C   0  0  0  0  0  0  0  0  0  0  0  0
  -29.8730  -18.3010   20.0180 C   0  0  0  0  0  0  0  0  0  0  0  0
  -29.6470  -20.6160   19.6400 C   0  0  0  0  0  0  0  0  0  0  0  0
  -29.1510  -19.3530   19.5390 N   0  0  0  0  0  0  0  0  0  0  0  0
  -31.7030  -22.7640   18.5020 C   0  0  0  0  0  2  0  0  0  0  0  0
  -32.9390  -22.2290   19.1730 C   0  0  0  0  0  2  0  0  0  0  0  0
  -31.6100  -22.1890   19.9020 C   0  0  0  0  0  3  0  0  0  0  0  0
  -28.8610  -21.6130   19.0660 O   0  0  0  0  0  0  0  0  0  0  0  0
  -28.3170  -22.6440   19.9330 C   0  0  0  0  0  2  0  0  0  0  0  0
  -28.3050  -24.0880   19.3200 C   0  0  0  0  0  2  0  0  0  0  0  0
  -27.8490  -25.2090   20.3180 C   0  0  0  0  0  2  0  0  0  0  0  0
  -28.0080  -26.5920   19.8850 O   0  0  0  0  0  0  0  0  0  0  0  0
  -24.5360  -31.9030   23.2310 C   0  0  0  0  0  0  0  0  0  0  0  0
  -26.8850  -27.4040   19.9600 C   0  0  0  0  0  0  0  0  0  0  0  0
  -23.2190  -30.5770   21.6140 C   0  0  0  0  0  3  0  0  0  0  0  0
  -24.5570  -29.0210   20.1030 C   0  0  0  0  0  0  0  0  0  0  0  0
  -25.7500  -30.8480   21.3200 C   0  0  0  0  0  2  0  0  0  0  0  0
  -25.7610  -29.4890   20.6420 C   0  0  0  0  0  0  0  0  0  0  0  0
  -26.9340  -28.6920   20.5590 C   0  0  0  0  0  3  0  0  0  0  0  0
  -25.6610  -26.9620   19.4160 C   0  0  0  0  0  3  0  0  0  0  0  0
  -24.5020  -27.7580   19.4890 C   0  0  0  0  0  3  0  0  0  0  0  0
  -23.3530  -29.9290   20.2110 C   0  0  0  0  0  2  0  0  0  0  0  0
  -24.5240  -31.1220   22.1130 N   0  0  0  0  0  0  0  0  0  0  0  0
  -23.4870  -32.1980   23.8220 O   0  0  0  0  0  0  0  0  0  0  0  0
  -22.5750  -29.5570   22.5800 C   0  0  0  0  0  0  0  0  0  0  0  0
  -21.2570  -29.3400   22.4320 N   0  0  0  0  0  0  0  0  0  0  0  0
  -23.2550  -28.9660   23.4220 O   0  0  0  0  0  0  0  0  0  0  0  0
  -20.7710  -29.8690   21.7220 H   0  0  0  0  0  0  0  0  0  0  0  0
  -17.9220  -27.9970   22.8260 C   0  0  0  0  0  0  0  0  0  0  0  0
  -20.4500  -28.3970   23.2050 C   0  0  0  0  0  3  0  0  0  0  0  0
  -20.6510  -26.9500   22.6990 C   0  0  0  0  0  2  0  0  0  0  0  0
  -19.6160  -26.5280   21.6490 C   0  0  0  0  0  2  0  0  0  0  0  0
  -18.1990  -26.6290   22.2200 C   0  0  0  0  0  2  0  0  0  0  0  0
  -18.9810  -28.8300   23.2740 C   0  0  0  0  0  0  0  0  0  0  0  0
  -18.6720  -30.1040   23.8000 C   0  0  0  0  0  3  0  0  0  0  0  0
  -17.3400  -30.5440   23.8840 C   0  0  0  0  0  3  0  0  0  0  0  0
  -16.2950  -29.7100   23.4500 C   0  0  0  0  0  3  0  0  0  0  0  0
  -16.5870  -28.4370   22.9270 C   0  0  0  0  0  3  0  0  0  0  0  0
  -25.8660  -32.4820   23.8060 C   0  0  0  0  0  3  0  0  0  0  0  0
  -26.4260  -31.6560   25.0270 C   0  0  1  0  0  0  0  0  0  0  0  0
  -25.3950  -31.4500   26.1600 C   0  0  0  0  0  1  0  0  0  0  0  0
  -26.9190  -30.2650   24.5670 C   0  0  0  0  0  1  0  0  0  0  0  0
  -27.6540  -32.3790   25.6280 C   0  0  0  0  0  1  0  0  0  0  0  0
  -25.6100  -33.8760   24.1990 N   0  0  0  0  0  0  0  0  0  0  0  0
  -25.8820  -34.9430   23.4370 C   0  0  0  0  0  0  0  0  0  0  0  0
  -26.4460  -34.8550   22.3430 O   0  0  0  0  0  0  0  0  0  0  0  0
  -25.1000  -34.0190   25.0590 H   0  0  0  0  0  0  0  0  0  0  0  0
  -24.1470  -36.7550   23.2960 C   0  0  0  0  0  1  0  0  0  0  0  0
  -25.4590  -36.3250   23.9710 C   0  0  0  0  0  3  0  0  0  0  0  0
  -27.6540  -37.1960   24.6390 C   0  0  0  0  0  1  0  0  0  0  0  0
  -26.4870  -37.3710   23.7770 N   0  0  0  0  0  0  0  0  0  0  0  0
  -26.1000  -38.2950   23.9500 H   0  0  0  0  0  0  0  0  0  0  0  0
  -32.8020  -19.9070   21.5060 O   0  0  0  0  0  0  0  0  0  0  0  0
  -32.9890  -20.7770   22.5470 C   0  0  0  0  0  3  0  0  0  0  0  0
  -34.2510  -20.6180   23.0180 F   0  0  0  0  0  0  0  0  0  0  0  0
  -32.0480  -20.6210   23.7720 C   0  0  0  0  0  2  0  0  0  0  0  0
  -30.1940  -21.7500   24.7710 C   0  0  0  0  0  1  0  0  0  0  0  0
  -31.3850  -21.8610   24.0050 O   0  0  0  0  0  0  0  0  0  0  0  0
  -29.3520  -16.8890   19.6790 C   0  0  0  0  0  2  0  0  0  0  0  0
  -30.4740  -14.7120   20.2300 C   0  0  0  0  0  0  0  0  0  0  0  0
  -30.3280  -12.4130   19.3340 C   0  0  0  0  0  2  0  0  0  0  0  0
  -29.3660  -12.4550   18.1250 C   0  0  0  0  0  2  0  0  0  0  0  0
  -27.9060  -12.2660   18.5830 C   0  0  0  0  0  2  0  0  0  0  0  0
  -27.5320  -13.2000   19.7660 C   0  0  0  0  0  3  0  0  0  0  0  0
  -28.6070  -13.1430   20.8780 C   0  0  0  0  0  2  0  0  0  0  0  0
  -29.9120  -13.4680   20.2760 N   0  0  0  0  0  0  0  0  0  0  0  0
  -31.5760  -14.9200   19.7140 O   0  0  0  0  0  0  0  0  0  0  0  0
  -29.6550  -15.7340   20.5620 N   0  0  0  0  0  0  0  0  0  0  0  0
  -28.8820  -15.4680   21.1520 H   0  0  0  0  0  0  0  0  0  0  0  0
  -25.1560  -13.7810   20.5720 C   0  0  0  0  0  0  0  0  0  0  0  0
  -24.1030  -12.9970   20.9620 C   0  0  0  0  0  0  0  0  0  0  0  0
  -24.5690  -11.6470   20.8900 C   0  0  0  0  0  0  0  0  0  0  0  0
  -26.1950  -12.9090   20.2850 N   0  0  0  0  0  0  0  0  0  0  0  0
  -25.8470  -11.6210   20.5350 N   0  0  0  0  0  0  0  0  0  0  0  0
  -23.8530  -10.3800   21.0840 C   0  0  0  0  0  0  0  0  0  0  0  0
  -24.3000   -9.4150   22.0160 C   0  0  0  0  0  3  0  0  0  0  0  0
  -23.5860   -8.2090   22.1940 C   0  0  0  0  0  3  0  0  0  0  0  0
  -22.4140   -7.9620   21.4400 C   0  0  0  0  0  0  0  0  0  0  0  0
  -21.9890   -8.9130   20.4970 C   0  0  0  0  0  3  0  0  0  0  0  0
  -22.7020  -10.1090   20.3190 C   0  0  0  0  0  3  0  0  0  0  0  0
  -21.6720   -6.8080   21.5300 O   0  0  0  0  0  0  0  0  0  0  0  0
  -21.6400   -6.0580   22.6780 C   0  0  0  0  0  0  0  0  0  0  0  0
  -21.0180   -6.5280   23.8560 C   0  0  0  0  0  3  0  0  0  0  0  0
  -20.9480   -5.6990   24.9930 C   0  0  0  0  0  3  0  0  0  0  0  0
  -21.4860   -4.3980   24.9510 C   0  0  0  0  0  0  0  0  0  0  0  0
  -22.0980   -3.9250   23.7770 C   0  0  0  0  0  3  0  0  0  0  0  0
  -22.1710   -4.7530   22.6420 C   0  0  0  0  0  0  0  0  0  0  0  0
  -22.7440   -4.2880   21.5060 F   0  0  0  0  0  0  0  0  0  0  0  0
  -21.4110   -3.5970   26.0400 F   0  0  0  0  0  0  0  0  0  0  0  0
  -22.7140  -13.4630   21.2940 C   0  0  0  0  0  0  0  0  0  0  0  0
  -22.0190  -12.7520   22.1770 N   0  0  0  0  0  0  0  0  0  0  0  0
  -22.2510  -14.4920   20.8030 O   0  0  0  0  0  0  0  0  0  0  0  0
  -22.4040  -11.9220   22.6000 H   0  0  0  0  0  0  0  0  0  0  0  0
  -21.0900  -13.0470   22.4370 H   0  0  0  0  0  0  0  0  0  0  0  0
  -25.3050  -15.1560   20.4150 N   0  0  0  0  0  0  0  0  0  0  0  0
  -24.5340  -15.7990   20.5580 H   0  0  0  0  0  0  0  0  0  0  0  0
  -26.1310  -15.6040   20.0350 H   0  0  0  0  0  0  0  0  0  0  0  0
  1  3  1  0
  2  3  2  0
  3 55  1  0
  4  1  2  0
  5  2  1  0
  6  5  2  0
  6  4  1  0
  7  8  1  0
  7  9  1  0
  8  9  1  0
  9  2  1  0
 10  5  1  0
 10 11  1  0
 12 11  1  0
 12 13  1  0
 14 16  1  0
 14 13  1  0
 15 26  2  0
 16 21  1  0
 17 25  1  0
 17 27  1  0
 18 24  1  0
 18 20  1  0
 19 25  1  0
 20 19  1  0
 21 20  2  0
 22 23  1  0
 22 16  2  0
 23 18  2  0
 24 17  1  0
 25 15  1  0
 27 29  2  0
 28 27  1  0
 30 28  1  0
 31 40  2  0
 31 36  1  0
 32 28  1  0
 32 36  1  0
 33 32  1  0
 34 35  1  0
 34 33  1  0
 35 31  1  0
 36 37  2  0
 37 38  1  0
 39 38  2  0
 40 39  1  0
 41 15  1  0
 41 46  1  0
 41 42  1  0
 42 45  1  1
 42 43  1  0
 44 42  1  0
 46 49  1  0
 47 51  1  0
 47 46  1  0
 48 47  2  0
 51 50  1  0
 53 54  1  0
 53 51  1  0
 53 52  1  0
 55 56  1  0
 56 57  1  0
 56 58  1  0
 58 60  1  0
 60 59  1  0
 61  4  1  0
 61 70  1  0
 62 68  1  0
 62 70  1  0
 63 68  1  0
 64 65  1  0
 64 63  1  0
 66 65  1  0
 66 75  1  0
 66 67  1  0
 68 67  1  0
 69 62  2  0
 70 71  1  0
 72 73  2  0
 73 92  1  0
 74 73  1  0
 74 77  1  0
 75 76  1  0
 75 72  1  0
 76 74  2  0
 77 78  1  0
 78 79  2  0
 80 83  1  0
 80 79  1  0
 81 80  2  0
 82 81  1  0
 82 77  2  0
 83 84  1  0
 84 85  1  0
 85 86  2  0
 87 86  1  0
 87 91  1  0
 88 87  2  0
 89 84  2  0
 89 88  1  0
 90 89  1  0
 92 93  1  0
 93 96  1  0
 93 95  1  0
 94 92  2  0
 97 98  1  0
 97 72  1  0
 99 97  1  0
M  ISO  4  13 101  14 101  62 100  70 100
M  END
>  <TORSDO>  (59) 
F 26

>  <SCORE>  (59) 
-12.565

>  <name>  (59) 
58

>  <ligand_id>  (59) 
58

>  <original_smiles>  (59) 
[H]c1c([H])c([H])c2c(c1[H])C([H])([H])C([H])([H])C([H])([H])C2([H])N([H])C(=O)C1([H])N(C(=O)C([H])(N([H])C(=O)C([H])(N([H])C([H])([H])[H])C([H])([H])[H])C(C([H])([H])[H])(C([H])([H])[H])C([H])([H])[H])C([H])([H])c2c([H])c(OC([H])([H])C([H])([H])C([H])([H])Oc3nc(C([H])([H])N([H])C(=O)N4C([H])([H])C([H])([H])C([H])([H])C([H])(n5nc(-c6c([H])c([H])c(Oc7c([H])c([H])c(F)c([H])c7F)c([H])c6[H])c(C(=O)N([H])[H])c5N([H])[H])C4([H])[H])c([H])c(OC([H])(F)C([H])([H])OC([H])([H])[H])c3C3([H])C([H])([H])C3([H])[H])c([H])c([H])c2C1([H])[H]

>  <smiles>  (59) 
[H]c1c([H])c([H])c2c(c1[H])C([H])([H])C([H])([H])C([H])([H])C2([H])N([H])C(=O)C1([H])N(C(=O)C([H])(N([H])C(=O)C([H])(N([H])C([H])([H])[H])C([H])([H])[H])C(C([H])([H])[H])(C([H])([H])[H])C([H])([H])[H])C([H])([H])c2c([H])c(OC([H])([H])C([H])([H])C([H])([H])Oc3nc(C([H])([H])N([H])C(=O)N4C([H])([H])C([H])([H])C([H])([H])C([H])(n5nc(-c6c([H])c([H])c(Oc7c([H])c([H])c(F)c([H])c7F)c([H])c6[H])c(C(=O)N([H])[H])c5N([H])[H])C4([H])[H])c([H])c(OC([H])(F)C([H])([H])OC([H])([H])[H])c3C3([H])C([H])([H])C3([H])[H])c([H])c([H])c2C1([H])[H]

$$$$
59:0:0
     RDKit          3D

 94102  0  0  1  0  0  0  0  0999 V2000
  -27.8790  -22.1430   20.3000 C   0  0  0  0  0  2  0  0  0  0  0  0
  -30.2860  -22.6580   20.7900 C   0  0  0  0  0  2  0  0  0  0  0  0
  -27.8780  -21.0400   21.3770 C   0  0  0  0  0  2  0  0  0  0  0  0
  -30.3360  -21.5320   21.8490 C   0  0  0  0  0  2  0  0  0  0  0  0
  -28.8700  -23.2700   20.6550 C   0  0  0  0  0  3  0  0  0  0  0  0
  -29.2700  -20.4280   21.6390 C   0  0  0  0  0  3  0  0  0  0  0  0
  -29.6450  -19.4680   20.5740 N   0  0  0  0  0  4  0  0  0  0  0  0
  -30.3380  -19.8860   19.9740 H   0  0  0  0  0  0  0  0  0  0  0  0
  -28.8230  -19.3000   20.0160 H   0  0  0  0  0  0  0  0  0  0  0  0
  -30.1210  -18.1420   21.0450 C   0  0  0  0  0  2  0  0  0  0  0  0
  -31.3810  -17.5240   18.8880 C   0  0  0  0  0  1  0  0  0  0  0  0
  -30.2590  -17.1320   19.8790 C   0  0  0  0  0  3  0  0  0  0  0  0
  -31.0790  -14.7050   20.0340 C   0  0  0  0  0  0  0  0  0  0  0  0
  -30.7290  -12.5320   18.9540 C   0  0  0  0  0  2  0  0  0  0  0  0
  -29.7580  -12.7650   17.7760 C   0  0  0  0  0  2  0  0  0  0  0  0
  -28.2910  -12.6710   18.2390 C   0  0  0  0  0  2  0  0  0  0  0  0
  -28.0060  -13.5160   19.5090 C   0  0  0  0  0  3  0  0  0  0  0  0
  -29.0860  -13.2670   20.5880 C   0  0  0  0  0  2  0  0  0  0  0  0
  -30.4050  -13.5280   19.9850 N   0  0  0  0  0  0  0  0  0  0  0  0
  -32.2110  -14.8520   19.5700 O   0  0  0  0  0  0  0  0  0  0  0  0
  -30.3060  -15.7450   20.3930 N   0  0  0  0  0  0  0  0  0  0  0  0
  -29.4510  -15.4410   20.8390 H   0  0  0  0  0  0  0  0  0  0  0  0
  -25.6420  -14.1840   20.2870 C   0  0  0  0  0  0  0  0  0  0  0  0
  -24.5650  -13.4380   20.6820 C   0  0  0  0  0  0  0  0  0  0  0  0
  -24.9860  -12.0750   20.6240 C   0  0  0  0  0  0  0  0  0  0  0  0
  -26.6560  -13.2760   20.0210 N   0  0  0  0  0  0  0  0  0  0  0  0
  -26.2650  -12.0030   20.2770 N   0  0  0  0  0  0  0  0  0  0  0  0
  -24.2300  -10.8320   20.8250 C   0  0  0  0  0  0  0  0  0  0  0  0
  -24.6230   -9.8760   21.7870 C   0  0  0  0  0  3  0  0  0  0  0  0
  -23.8720   -8.6940   21.9710 C   0  0  0  0  0  3  0  0  0  0  0  0
  -22.7140   -8.4630   21.1930 C   0  0  0  0  0  0  0  0  0  0  0  0
  -22.3420   -9.4060   20.2180 C   0  0  0  0  0  3  0  0  0  0  0  0
  -23.0930  -10.5790   20.0320 C   0  0  0  0  0  3  0  0  0  0  0  0
  -21.9340   -7.3350   21.2860 O   0  0  0  0  0  0  0  0  0  0  0  0
  -21.7850   -6.6630   22.4730 C   0  0  0  0  0  0  0  0  0  0  0  0
  -21.2670   -7.2900   23.6260 C   0  0  0  0  0  3  0  0  0  0  0  0
  -21.0670   -6.5430   24.8050 C   0  0  0  0  0  3  0  0  0  0  0  0
  -21.3750   -5.1700   24.8270 C   0  0  0  0  0  0  0  0  0  0  0  0
  -21.8860   -4.5420   23.6780 C   0  0  0  0  0  3  0  0  0  0  0  0
  -22.0910   -5.2870   22.5030 C   0  0  0  0  0  0  0  0  0  0  0  0
  -22.5660   -4.6750   21.3910 F   0  0  0  0  0  0  0  0  0  0  0  0
  -21.1740   -4.4460   25.9540 F   0  0  0  0  0  0  0  0  0  0  0  0
  -23.1900  -13.9510   20.9960 C   0  0  0  0  0  0  0  0  0  0  0  0
  -22.4710  -13.2740   21.8850 N   0  0  0  0  0  0  0  0  0  0  0  0
  -22.7630  -14.9880   20.4880 O   0  0  0  0  0  0  0  0  0  0  0  0
  -22.8340  -12.4420   22.3280 H   0  0  0  0  0  0  0  0  0  0  0  0
  -21.5430  -13.5910   22.1320 H   0  0  0  0  0  0  0  0  0  0  0  0
  -25.8350  -15.5510   20.1100 N   0  0  0  0  0  0  0  0  0  0  0  0
  -25.0680  -16.2070   20.2000 H   0  0  0  0  0  0  0  0  0  0  0  0
  -26.6610  -15.9590   19.6930 H   0  0  0  0  0  0  0  0  0  0  0  0
  -29.8900  -24.6650   18.7010 C   0  0  0  0  0  1  0  0  0  0  0  0
  -28.7310  -24.5080   19.7070 C   0  0  0  0  0  3  0  0  0  0  0  0
  -28.5050  -25.8200   20.4950 C   0  0  0  0  0  2  0  0  0  0  0  0
  -28.3630  -26.9430   19.6190 O   0  0  0  0  0  0  0  0  0  0  0  0
  -24.6110  -31.8820   23.0960 C   0  0  0  0  0  0  0  0  0  0  0  0
  -27.1770  -27.6320   19.7250 C   0  0  0  0  0  0  0  0  0  0  0  0
  -23.3480  -30.5480   21.4320 C   0  0  0  0  0  3  0  0  0  0  0  0
  -24.7620  -29.0840   19.8910 C   0  0  0  0  0  0  0  0  0  0  0  0
  -25.8590  -30.9460   21.1550 C   0  0  0  0  0  2  0  0  0  0  0  0
  -25.9340  -29.6050   20.4550 C   0  0  0  0  0  0  0  0  0  0  0  0
  -27.1470  -28.8880   20.3640 C   0  0  0  0  0  3  0  0  0  0  0  0
  -25.9920  -27.1110   19.1650 C   0  0  0  0  0  3  0  0  0  0  0  0
  -24.7860  -27.8350   19.2400 C   0  0  0  0  0  3  0  0  0  0  0  0
  -23.5110  -29.9250   20.0170 C   0  0  0  0  0  2  0  0  0  0  0  0
  -24.6260  -31.1380   21.9530 N   0  0  0  0  0  0  0  0  0  0  0  0
  -23.5510  -32.1170   23.6920 O   0  0  0  0  0  0  0  0  0  0  0  0
  -22.7440  -29.4790   22.3710 C   0  0  0  0  0  0  0  0  0  0  0  0
  -21.4170  -29.2920   22.2860 N   0  0  0  0  0  0  0  0  0  0  0  0
  -23.4630  -28.8240   23.1310 O   0  0  0  0  0  0  0  0  0  0  0  0
  -20.8980  -29.8720   21.6410 H   0  0  0  0  0  0  0  0  0  0  0  0
  -18.0780  -28.0270   22.8310 C   0  0  0  0  0  0  0  0  0  0  0  0
  -20.6390  -28.3130   23.0420 C   0  0  0  0  0  3  0  0  0  0  0  0
  -20.7450  -26.9080   22.4060 C   0  0  0  0  0  2  0  0  0  0  0  0
  -19.6200  -26.6080   21.4110 C   0  0  0  0  0  2  0  0  0  0  0  0
  -18.2540  -26.7080   22.0990 C   0  0  0  0  0  2  0  0  0  0  0  0
  -19.1980  -28.7890   23.2610 C   0  0  0  0  0  0  0  0  0  0  0  0
  -18.9780  -30.0250   23.9050 C   0  0  0  0  0  3  0  0  0  0  0  0
  -17.6720  -30.5000   24.1260 C   0  0  0  0  0  3  0  0  0  0  0  0
  -16.5670  -29.7360   23.7120 C   0  0  0  0  0  3  0  0  0  0  0  0
  -16.7710  -28.5020   23.0710 C   0  0  0  0  0  3  0  0  0  0  0  0
  -25.9180  -32.4910   23.6930 C   0  0  0  0  0  3  0  0  0  0  0  0
  -25.6120  -33.8640   24.1180 N   0  0  0  0  0  0  0  0  0  0  0  0
  -25.9060  -34.9620   23.4110 C   0  0  0  0  0  0  0  0  0  0  0  0
  -26.5360  -34.9280   22.3500 O   0  0  0  0  0  0  0  0  0  0  0  0
  -25.0500  -33.9640   24.9500 H   0  0  0  0  0  0  0  0  0  0  0  0
  -24.1540  -36.7560   23.2190 C   0  0  0  0  0  1  0  0  0  0  0  0
  -25.4230  -36.3140   23.9680 C   0  0  0  0  0  3  0  0  0  0  0  0
  -27.5740  -37.1680   24.7860 C   0  0  0  0  0  1  0  0  0  0  0  0
  -26.4430  -37.3830   23.8870 N   0  0  0  0  0  0  0  0  0  0  0  0
  -26.0340  -38.2880   24.1020 H   0  0  0  0  0  0  0  0  0  0  0  0
  -26.5030  -31.6520   24.8940 C   0  0  1  0  0  0  0  0  0  0  0  0
  -25.4670  -31.3390   25.9980 C   0  0  0  0  0  1  0  0  0  0  0  0
  -27.0810  -30.3090   24.3920 C   0  0  0  0  0  1  0  0  0  0  0  0
  -27.6760  -32.4220   25.5480 C   0  0  0  0  0  1  0  0  0  0  0  0
  1  5  1  0
  1  3  1  0
  2  4  1  0
  3  6  1  0
  5 52  1  0
  5  2  1  0
  6  7  1  0
  6  4  1  0
  7 10  1  0
  8  7  1  0
  9  7  1  0
 12 11  1  0
 12 21  1  0
 12 10  1  0
 13 21  1  0
 14 19  1  0
 15 16  1  0
 15 14  1  0
 17 16  1  0
 17 26  1  0
 17 18  1  0
 19 13  1  0
 19 18  1  0
 20 13  2  0
 21 22  1  0
 23 24  2  0
 24 43  1  0
 25 24  1  0
 25 28  1  0
 26 27  1  0
 26 23  1  0
 27 25  2  0
 28 29  1  0
 29 30  2  0
 31 34  1  0
 31 30  1  0
 32 31  2  0
 33 32  1  0
 33 28  2  0
 34 35  1  0
 35 40  2  0
 35 36  1  0
 36 37  2  0
 37 38  1  0
 38 42  1  0
 39 38  2  0
 40 39  1  0
 41 40  1  0
 43 44  1  0
 44 47  1  0
 44 46  1  0
 45 43  2  0
 48 49  1  0
 48 23  1  0
 50 48  1  0
 52 51  1  0
 52 53  1  0
 54 56  1  0
 54 53  1  0
 55 66  2  0
 56 61  1  0
 57 65  1  0
 57 67  1  0
 58 64  1  0
 58 60  1  0
 59 65  1  0
 60 59  1  0
 61 60  2  0
 62 63  1  0
 62 56  2  0
 63 58  2  0
 64 57  1  0
 65 55  1  0
 67 69  2  0
 68 67  1  0
 70 68  1  0
 71 80  2  0
 71 76  1  0
 72 68  1  0
 72 76  1  0
 73 72  1  0
 74 75  1  0
 74 73  1  0
 75 71  1  0
 76 77  2  0
 77 78  1  0
 79 78  2  0
 80 79  1  0
 81 55  1  0
 81 82  1  0
 81 91  1  0
 82 85  1  0
 83 87  1  0
 83 82  1  0
 84 83  2  0
 87 86  1  0
 89 87  1  0
 89 90  1  0
 89 88  1  0
 91 94  1  1
 91 92  1  0
 93 91  1  0
M  ISO  4  13 100  21 100  53 101  54 101
M  END
>  <TORSDO>  (60) 
F 21

>  <SCORE>  (60) 
-12.222

>  <name>  (60) 
59

>  <ligand_id>  (60) 
59

>  <original_smiles>  (60) 
[H]c1c([H])c([H])c2c(c1[H])C([H])([H])C([H])([H])C([H])([H])C2([H])N([H])C(=O)C1([H])N(C(=O)C([H])(N([H])C(=O)C([H])(N([H])C([H])([H])[H])C([H])([H])[H])C(C([H])([H])[H])(C([H])([H])[H])C([H])([H])[H])C([H])([H])c2c([H])c(OC([H])([H])C([H])(C([H])([H])[H])C3([H])C([H])([H])C([H])([H])C([H])([N+]([H])([H])C([H])([H])C([H])(N([H])C(=O)N4C([H])([H])C([H])([H])C([H])([H])C([H])(n5nc(-c6c([H])c([H])c(Oc7c([H])c([H])c(F)c([H])c7F)c([H])c6[H])c(C(=O)N([H])[H])c5N([H])[H])C4([H])[H])C([H])([H])[H])C([H])([H])C3([H])[H])c([H])c([H])c2C1([H])[H]

>  <smiles>  (60) 
[H]c1c([H])c([H])c2c(c1[H])C([H])([H])C([H])([H])C([H])([H])C2([H])N([H])C(=O)C1([H])N(C(=O)C([H])(N([H])C(=O)C([H])(N([H])C([H])([H])[H])C([H])([H])[H])C(C([H])([H])[H])(C([H])([H])[H])C([H])([H])[H])C([H])([H])c2c([H])c(OC([H])([H])C([H])(C([H])([H])[H])C3([H])C([H])([H])C([H])([H])C([H])([N+]([H])([H])C([H])([H])C([H])(N([H])C(=O)N4C([H])([H])C([H])([H])C([H])([H])C([H])(n5nc(-c6c([H])c([H])c(Oc7c([H])c([H])c(F)c([H])c7F)c([H])c6[H])c(C(=O)N([H])[H])c5N([H])[H])C4([H])[H])C([H])([H])[H])C([H])([H])C3([H])[H])c([H])c([H])c2C1([H])[H]

$$$$
60:0:0
     RDKit          3D

 94103  0  0  1  0  0  0  0  0999 V2000
  -31.3720  -21.6430   18.1710 C   0  0  0  0  0  3  0  0  0  0  0  0
  -31.1750  -20.2790   18.4800 C   0  0  0  0  0  3  0  0  0  0  0  0
  -29.5220  -20.8660   20.1860 C   0  0  0  0  0  3  0  0  0  0  0  0
  -30.6330  -22.6030   18.8780 C   0  0  0  0  0  0  0  0  0  0  0  0
  -29.7220  -22.2300   19.8560 C   0  0  0  0  0  0  0  0  0  0  0  0
  -30.2650  -19.8720   19.4870 C   0  0  0  0  0  0  0  0  0  0  0  0
  -30.6930  -24.0990   18.6930 C   0  0  0  0  0  2  0  0  0  0  0  0
  -29.0320  -23.4470   20.4420 C   0  0  0  0  0  2  0  0  0  0  0  0
  -29.7340  -24.6760   19.7760 C   0  0  0  0  0  3  0  0  0  0  0  0
  -28.7530  -25.7450   19.2390 C   0  0  0  0  0  0  0  0  0  0  0  0
  -28.3240  -25.6950   18.0820 O   0  0  0  0  0  0  0  0  0  0  0  0
  -28.4060  -26.6850   20.1740 O   0  0  0  0  0  0  0  0  0  0  0  0
  -24.6240  -31.8870   23.2290 C   0  0  0  0  0  0  0  0  0  0  0  0
  -27.2380  -27.4290   20.1240 C   0  0  0  0  0  0  0  0  0  0  0  0
  -23.4020  -30.4880   21.5960 C   0  0  0  0  0  3  0  0  0  0  0  0
  -24.8410  -28.9500   20.1600 C   0  0  0  0  0  0  0  0  0  0  0  0
  -25.9290  -30.8400   21.3790 C   0  0  0  0  0  2  0  0  0  0  0  0
  -26.0060  -29.4680   20.7360 C   0  0  0  0  0  0  0  0  0  0  0  0
  -27.2050  -28.7160   20.7160 C   0  0  0  0  0  3  0  0  0  0  0  0
  -26.0410  -26.9240   19.5600 C   0  0  0  0  0  3  0  0  0  0  0  0
  -24.8530  -27.6760   19.5690 C   0  0  0  0  0  3  0  0  0  0  0  0
  -23.5990  -29.8090   20.2150 C   0  0  0  0  0  2  0  0  0  0  0  0
  -24.6700  -31.0850   22.1270 N   0  0  0  0  0  0  0  0  0  0  0  0
  -23.5460  -32.1610   23.7750 O   0  0  0  0  0  0  0  0  0  0  0  0
  -22.7540  -29.4680   22.5600 C   0  0  0  0  0  0  0  0  0  0  0  0
  -21.4280  -29.2890   22.4420 N   0  0  0  0  0  0  0  0  0  0  0  0
  -23.4420  -28.8390   23.3690 O   0  0  0  0  0  0  0  0  0  0  0  0
  -20.9340  -29.8520   21.7630 H   0  0  0  0  0  0  0  0  0  0  0  0
  -18.0540  -28.1060   22.9590 C   0  0  0  0  0  0  0  0  0  0  0  0
  -20.6140  -28.3530   23.2160 C   0  0  0  0  0  3  0  0  0  0  0  0
  -20.7060  -26.9220   22.6380 C   0  0  0  0  0  2  0  0  0  0  0  0
  -19.5970  -26.6040   21.6300 C   0  0  0  0  0  2  0  0  0  0  0  0
  -18.2190  -26.7550   22.2820 C   0  0  0  0  0  2  0  0  0  0  0  0
  -19.1770  -28.8630   23.3820 C   0  0  0  0  0  0  0  0  0  0  0  0
  -18.9690  -30.1270   23.9740 C   0  0  0  0  0  3  0  0  0  0  0  0
  -17.6670  -30.6350   24.1470 C   0  0  0  0  0  3  0  0  0  0  0  0
  -16.5570  -29.8750   23.7390 C   0  0  0  0  0  3  0  0  0  0  0  0
  -16.7510  -28.6120   23.1530 C   0  0  0  0  0  3  0  0  0  0  0  0
  -25.9150  -32.5130   23.8410 C   0  0  0  0  0  3  0  0  0  0  0  0
  -26.4440  -31.7350   25.1090 C   0  0  1  0  0  0  0  0  0  0  0  0
  -25.3610  -31.4940   26.1870 C   0  0  0  0  0  1  0  0  0  0  0  0
  -27.0200  -30.3590   24.7020 C   0  0  0  0  0  1  0  0  0  0  0  0
  -27.6020  -32.5250   25.7620 C   0  0  0  0  0  1  0  0  0  0  0  0
  -25.6120  -33.9100   24.1780 N   0  0  0  0  0  0  0  0  0  0  0  0
  -25.9400  -34.9640   23.4180 C   0  0  0  0  0  0  0  0  0  0  0  0
  -26.6000  -34.8600   22.3810 O   0  0  0  0  0  0  0  0  0  0  0  0
  -25.0270  -34.0650   24.9860 H   0  0  0  0  0  0  0  0  0  0  0  0
  -24.2150  -36.7610   23.0740 C   0  0  0  0  0  1  0  0  0  0  0  0
  -25.4580  -36.3520   23.8810 C   0  0  0  0  0  3  0  0  0  0  0  0
  -27.5980  -37.2280   24.7050 C   0  0  0  0  0  1  0  0  0  0  0  0
  -26.4930  -37.4010   23.7660 N   0  0  0  0  0  0  0  0  0  0  0  0
  -26.0910  -38.3230   23.9160 H   0  0  0  0  0  0  0  0  0  0  0  0
  -30.1480  -18.4850   19.7110 N   0  0  0  0  0  0  0  0  0  0  0  0
  -30.7260  -17.8690   19.1450 H   0  0  0  0  0  0  0  0  0  0  0  0
  -29.6020  -17.8950   20.9320 C   0  0  0  0  0  2  0  0  0  0  0  0
  -30.5110  -16.7650   21.4780 C   0  0  0  0  0  2  0  0  0  0  0  0
  -30.6410  -14.4570   20.4990 C   0  0  0  0  0  0  0  0  0  0  0  0
  -30.3190  -12.3300   19.2930 C   0  0  0  0  0  2  0  0  0  0  0  0
  -29.3760  -12.5690   18.0990 C   0  0  0  0  0  2  0  0  0  0  0  0
  -27.9010  -12.4260   18.5260 C   0  0  0  0  0  2  0  0  0  0  0  0
  -27.5710  -13.2440   19.8060 C   0  0  0  0  0  3  0  0  0  0  0  0
  -28.6280  -12.9900   20.9070 C   0  0  0  0  0  2  0  0  0  0  0  0
  -29.9540  -13.2940   20.3410 N   0  0  0  0  0  0  0  0  0  0  0  0
  -31.7430  -14.6640   19.9790 O   0  0  0  0  0  0  0  0  0  0  0  0
  -30.0040  -15.4180   21.1890 N   0  0  0  0  0  0  0  0  0  0  0  0
  -29.1030  -15.1730   21.5710 H   0  0  0  0  0  0  0  0  0  0  0  0
  -25.1700  -13.8600   20.5010 C   0  0  0  0  0  0  0  0  0  0  0  0
  -24.0980  -13.0920   20.8710 C   0  0  0  0  0  0  0  0  0  0  0  0
  -24.5560  -11.7390   20.8470 C   0  0  0  0  0  0  0  0  0  0  0  0
  -26.2150  -12.9750   20.2820 N   0  0  0  0  0  0  0  0  0  0  0  0
  -25.8480  -11.6940   20.5430 N   0  0  0  0  0  0  0  0  0  0  0  0
  -23.8280  -10.4800   21.0410 C   0  0  0  0  0  0  0  0  0  0  0  0
  -24.2610   -9.5120   21.9750 C   0  0  0  0  0  3  0  0  0  0  0  0
  -23.5320   -8.3170   22.1560 C   0  0  0  0  0  3  0  0  0  0  0  0
  -22.3570   -8.0800   21.4060 C   0  0  0  0  0  0  0  0  0  0  0  0
  -21.9420   -9.0360   20.4620 C   0  0  0  0  0  3  0  0  0  0  0  0
  -22.6710  -10.2240   20.2780 C   0  0  0  0  0  3  0  0  0  0  0  0
  -21.6010   -6.9360   21.4950 O   0  0  0  0  0  0  0  0  0  0  0  0
  -21.5600   -6.1890   22.6440 C   0  0  0  0  0  0  0  0  0  0  0  0
  -21.1410   -6.7370   23.8750 C   0  0  0  0  0  3  0  0  0  0  0  0
  -21.0480   -5.9170   25.0180 C   0  0  0  0  0  3  0  0  0  0  0  0
  -21.3620   -4.5480   24.9300 C   0  0  0  0  0  0  0  0  0  0  0  0
  -21.7740   -3.9980   23.7040 C   0  0  0  0  0  3  0  0  0  0  0  0
  -21.8690   -4.8160   22.5640 C   0  0  0  0  0  0  0  0  0  0  0  0
  -22.2460   -4.2750   21.3790 F   0  0  0  0  0  0  0  0  0  0  0  0
  -21.2650   -3.7580   26.0250 F   0  0  0  0  0  0  0  0  0  0  0  0
  -22.7020  -13.5750   21.1400 C   0  0  0  0  0  0  0  0  0  0  0  0
  -21.9700  -12.8830   22.0050 N   0  0  0  0  0  0  0  0  0  0  0  0
  -22.2670  -14.6000   20.6150 O   0  0  0  0  0  0  0  0  0  0  0  0
  -22.3340  -12.0530   22.4500 H   0  0  0  0  0  0  0  0  0  0  0  0
  -21.0340  -13.1910   22.2300 H   0  0  0  0  0  0  0  0  0  0  0  0
  -25.3360  -15.2300   20.3180 N   0  0  0  0  0  0  0  0  0  0  0  0
  -24.5580  -15.8780   20.3880 H   0  0  0  0  0  0  0  0  0  0  0  0
  -26.1870  -15.6690   19.9900 H   0  0  0  0  0  0  0  0  0  0  0  0
  1  2  2  0
  1  4  1  0
  2  6  1  0
  4  5  2  0
  5  3  1  0
  5  8  1  0
  6 53  1  0
  6  3  2  0
  7  4  1  0
  7  9  1  0
  9 10  1  0
  9  8  1  0
 10 12  1  0
 11 10  2  0
 13 24  2  0
 14 12  1  0
 14 19  1  0
 15 23  1  0
 15 25  1  0
 16 22  1  0
 16 18  1  0
 17 23  1  0
 18 17  1  0
 19 18  2  0
 20 21  1  0
 20 14  2  0
 21 16  2  0
 22 15  1  0
 23 13  1  0
 25 27  2  0
 26 25  1  0
 28 26  1  0
 29 38  2  0
 29 34  1  0
 30 26  1  0
 30 34  1  0
 31 30  1  0
 32 33  1  0
 32 31  1  0
 33 29  1  0
 34 35  2  0
 35 36  1  0
 37 36  2  0
 38 37  1  0
 39 13  1  0
 39 44  1  0
 39 40  1  0
 40 43  1  1
 40 41  1  0
 42 40  1  0
 44 47  1  0
 45 49  1  0
 45 44  1  0
 46 45  2  0
 49 48  1  0
 51 49  1  0
 51 52  1  0
 51 50  1  0
 53 55  1  0
 54 53  1  0
 55 56  1  0
 57 65  1  0
 58 63  1  0
 59 60  1  0
 59 58  1  0
 61 60  1  0
 61 70  1  0
 61 62  1  0
 63 57  1  0
 63 62  1  0
 64 57  2  0
 65 56  1  0
 65 66  1  0
 67 68  2  0
 68 87  1  0
 69 68  1  0
 69 72  1  0
 70 67  1  0
 70 71  1  0
 71 69  2  0
 72 73  1  0
 73 74  2  0
 75 78  1  0
 75 74  1  0
 76 75  2  0
 77 76  1  0
 77 72  2  0
 78 79  1  0
 79 80  1  0
 80 81  2  0
 82 81  1  0
 82 86  1  0
 83 82  2  0
 84 79  2  0
 84 83  1  0
 85 84  1  0
 87 88  1  0
 88 91  1  0
 88 90  1  0
 89 87  2  0
 92 93  1  0
 92 67  1  0
 94 92  1  0
M  ISO  4  10 101  12 101  57 100  65 100
M  END
>  <TORSDO>  (61) 
F 20

>  <SCORE>  (61) 
-13.832

>  <name>  (61) 
60

>  <ligand_id>  (61) 
60

>  <original_smiles>  (61) 
[H]c1c([H])c([H])c2c(c1[H])C([H])([H])C([H])([H])C([H])([H])C2([H])N([H])C(=O)C1([H])N(C(=O)C([H])(N([H])C(=O)C([H])(N([H])C([H])([H])[H])C([H])([H])[H])C(C([H])([H])[H])(C([H])([H])[H])C([H])([H])[H])C([H])([H])c2c([H])c(OC(=O)C3([H])C([H])([H])c4c([H])c([H])c(N([H])C([H])([H])C([H])([H])N([H])C(=O)N5C([H])([H])C([H])([H])C([H])([H])C([H])(n6nc(-c7c([H])c([H])c(Oc8c([H])c([H])c(F)c([H])c8F)c([H])c7[H])c(C(=O)N([H])[H])c6N([H])[H])C5([H])[H])c([H])c4C3([H])[H])c([H])c([H])c2C1([H])[H]

>  <smiles>  (61) 
[H]c1c([H])c([H])c2c(c1[H])C([H])([H])C([H])([H])C([H])([H])C2([H])N([H])C(=O)C1([H])N(C(=O)C([H])(N([H])C(=O)C([H])(N([H])C([H])([H])[H])C([H])([H])[H])C(C([H])([H])[H])(C([H])([H])[H])C([H])([H])[H])C([H])([H])c2c([H])c(OC(=O)C3([H])C([H])([H])c4c([H])c([H])c(N([H])C([H])([H])C([H])([H])N([H])C(=O)N5C([H])([H])C([H])([H])C([H])([H])C([H])(n6nc(-c7c([H])c([H])c(Oc8c([H])c([H])c(F)c([H])c8F)c([H])c7[H])c(C(=O)N([H])[H])c6N([H])[H])C5([H])[H])c([H])c4C3([H])[H])c([H])c([H])c2C1([H])[H]

$$$$
61:0:0
     RDKit          3D

103113  0  0  1  0  0  0  0  0999 V2000
  -26.4360  -21.0560   21.0340 C   0  0  0  0  0  3  0  0  0  0  0  0
  -27.0450  -19.9490   20.4170 C   0  0  0  0  0  3  0  0  0  0  0  0
  -28.5430  -21.4510   19.2320 C   0  0  0  0  0  3  0  0  0  0  0  0
  -26.8620  -22.3740   20.7520 C   0  0  0  0  0  0  0  0  0  0  0  0
  -27.9470  -22.5760   19.8480 C   0  0  0  0  0  0  0  0  0  0  0  0
  -28.0950  -20.1440   19.5030 C   0  0  0  0  0  0  0  0  0  0  0  0
  -26.1050  -23.5050   21.4460 C   0  0  0  0  0  2  0  0  0  0  0  0
  -28.4940  -23.9510   19.4570 C   0  0  0  0  0  2  0  0  0  0  0  0
  -25.9940  -24.8020   20.6340 C   0  0  0  0  0  2  0  0  0  0  0  0
  -27.2480  -25.6850   20.7300 C   0  0  0  0  0  2  0  0  0  0  0  0
  -28.5150  -24.9250   20.5740 N   0  0  2  0  0  4  0  0  0  0  0  0
  -28.5750  -24.3430   21.3970 H   0  0  0  0  0  0  0  0  0  0  0  0
  -28.7020  -18.9540   18.7780 C   0  0  0  0  0  2  0  0  0  0  0  0
  -29.7540  -18.1730   19.5940 C   0  0  0  0  0  2  0  0  0  0  0  0
  -31.9420  -15.1860   19.0720 C   0  0  0  0  0  0  0  0  0  0  0  0
  -31.6060  -12.7860   18.6400 C   0  0  0  0  0  2  0  0  0  0  0  0
  -30.5830  -12.5860   17.5080 C   0  0  0  0  0  2  0  0  0  0  0  0
  -29.1590  -12.5220   18.0890 C   0  0  0  0  0  2  0  0  0  0  0  0
  -28.8540  -13.6930   19.0600 C   0  0  0  0  0  3  0  0  0  0  0  0
  -29.9980  -13.9090   20.0790 C   0  0  0  0  0  2  0  0  0  0  0  0
  -31.2680  -14.0360   19.3430 N   0  0  0  0  0  0  0  0  0  0  0  0
  -32.9260  -15.2050   18.3300 O   0  0  0  0  0  0  0  0  0  0  0  0
  -33.4250  -17.9390   19.7240 C   0  0  0  0  0  2  0  0  0  0  0  0
  -32.7460  -18.8390   18.6760 C   0  0  0  0  0  2  0  0  0  0  0  0
  -32.4060  -17.0850   20.5160 C   0  0  0  0  0  2  0  0  0  0  0  0
  -31.7080  -18.0610   17.8350 C   0  0  0  0  0  3  0  0  0  0  0  0
  -30.7160  -17.2670   18.7580 C   0  0  0  0  0  3  0  0  0  0  0  0
  -31.4870  -16.3420   19.6270 N   0  0  0  0  0  0  0  0  0  0  0  0
  -26.6720  -14.4630   20.1870 C   0  0  0  0  0  0  0  0  0  0  0  0
  -25.5940  -13.7750   20.6710 C   0  0  0  0  0  0  0  0  0  0  0  0
  -25.8800  -12.3960   20.4480 C   0  0  0  0  0  0  0  0  0  0  0  0
  -27.5640  -13.5100   19.7230 N   0  0  0  0  0  0  0  0  0  0  0  0
  -27.0950  -12.2520   19.9320 N   0  0  0  0  0  0  0  0  0  0  0  0
  -25.0390  -11.2080   20.6420 C   0  0  0  0  0  0  0  0  0  0  0  0
  -25.3570  -10.2310   21.6110 C   0  0  0  0  0  3  0  0  0  0  0  0
  -24.5220   -9.1070   21.7920 C   0  0  0  0  0  3  0  0  0  0  0  0
  -23.3560   -8.9540   21.0050 C   0  0  0  0  0  0  0  0  0  0  0  0
  -23.0570   -9.9180   20.0270 C   0  0  0  0  0  3  0  0  0  0  0  0
  -23.8910  -11.0330   19.8440 C   0  0  0  0  0  3  0  0  0  0  0  0
  -22.5030   -7.8820   21.0930 O   0  0  0  0  0  0  0  0  0  0  0  0
  -22.1540   -7.3370   22.3030 C   0  0  0  0  0  0  0  0  0  0  0  0
  -21.4910   -8.0910   23.2960 C   0  0  0  0  0  3  0  0  0  0  0  0
  -21.0870   -7.4730   24.4950 C   0  0  0  0  0  3  0  0  0  0  0  0
  -21.3390   -6.1030   24.7030 C   0  0  0  0  0  0  0  0  0  0  0  0
  -21.9960   -5.3500   23.7160 C   0  0  0  0  0  3  0  0  0  0  0  0
  -22.3990   -5.9660   22.5170 C   0  0  0  0  0  0  0  0  0  0  0  0
  -23.0140   -5.2300   21.5580 F   0  0  0  0  0  0  0  0  0  0  0  0
  -20.9440   -5.5080   25.8520 F   0  0  0  0  0  0  0  0  0  0  0  0
  -24.3280  -14.3730   21.2150 C   0  0  0  0  0  0  0  0  0  0  0  0
  -23.6920  -13.7000   22.1680 N   0  0  0  0  0  0  0  0  0  0  0  0
  -23.9210  -15.4680   20.8290 O   0  0  0  0  0  0  0  0  0  0  0  0
  -24.0360  -12.8120   22.5020 H   0  0  0  0  0  0  0  0  0  0  0  0
  -22.8450  -14.0790   22.5680 H   0  0  0  0  0  0  0  0  0  0  0  0
  -26.9440  -15.8160   20.0750 N   0  0  0  0  0  0  0  0  0  0  0  0
  -26.2460  -16.5100   20.3160 H   0  0  0  0  0  0  0  0  0  0  0  0
  -27.7250  -16.1970   19.5610 H   0  0  0  0  0  0  0  0  0  0  0  0
  -30.3690  -18.2580   15.7380 C   0  0  0  0  0  1  0  0  0  0  0  0
  -31.0370  -18.9520   16.8610 N   0  0  0  0  0  4  0  0  0  0  0  0
  -31.7450  -19.5400   16.4490 H   0  0  0  0  0  0  0  0  0  0  0  0
  -30.3900  -19.5570   17.3370 H   0  0  0  0  0  0  0  0  0  0  0  0
  -29.7300  -25.7870   20.6430 C   0  0  0  0  0  2  0  0  0  0  0  0
  -30.0730  -26.5650   19.3500 C   0  0  0  0  0  2  0  0  0  0  0  0
  -29.7200  -27.9410   19.4790 O   0  0  0  0  0  0  0  0  0  0  0  0
  -24.6830  -31.1810   23.2860 C   0  0  0  0  0  0  0  0  0  0  0  0
  -28.3890  -28.2860   19.5420 C   0  0  0  0  0  0  0  0  0  0  0  0
  -23.8850  -29.9300   21.3070 C   0  0  0  0  0  3  0  0  0  0  0  0
  -25.6950  -29.1240   19.7060 C   0  0  0  0  0  0  0  0  0  0  0  0
  -26.2480  -30.9050   21.3700 C   0  0  0  0  0  2  0  0  0  0  0  0
  -26.6760  -29.7650   20.4710 C   0  0  0  0  0  0  0  0  0  0  0  0
  -28.0230  -29.3500   20.3910 C   0  0  0  0  0  3  0  0  0  0  0  0
  -27.3860  -27.6570   18.7630 C   0  0  0  0  0  3  0  0  0  0  0  0
  -26.0430  -28.0640   18.8550 C   0  0  0  0  0  3  0  0  0  0  0  0
  -24.2800  -29.6370   19.8360 C   0  0  0  0  0  2  0  0  0  0  0  0
  -24.9520  -30.6750   22.0500 N   0  0  0  0  0  0  0  0  0  0  0  0
  -23.5570  -31.0690   23.7940 O   0  0  0  0  0  0  0  0  0  0  0  0
  -23.4880  -28.5960   21.9810 C   0  0  0  0  0  0  0  0  0  0  0  0
  -22.3610  -28.0180   21.5380 N   0  0  0  0  0  0  0  0  0  0  0  0
  -24.1970  -28.0940   22.8560 O   0  0  0  0  0  0  0  0  0  0  0  0
  -21.8270  -28.5020   20.8300 H   0  0  0  0  0  0  0  0  0  0  0  0
  -19.7210  -25.6200   20.9670 C   0  0  0  0  0  0  0  0  0  0  0  0
  -21.8060  -26.7460   22.0000 C   0  0  0  0  0  3  0  0  0  0  0  0
  -22.6080  -25.5500   21.4330 C   0  0  0  0  0  2  0  0  0  0  0  0
  -22.0270  -25.0030   20.1230 C   0  0  0  0  0  2  0  0  0  0  0  0
  -20.5830  -24.5380   20.3350 C   0  0  0  0  0  2  0  0  0  0  0  0
  -20.2990  -26.6640   21.7360 C   0  0  0  0  0  0  0  0  0  0  0  0
  -19.4580  -27.6670   22.2710 C   0  0  0  0  0  3  0  0  0  0  0  0
  -18.0670  -27.6290   22.0540 C   0  0  0  0  0  3  0  0  0  0  0  0
  -17.5000  -26.5810   21.3100 C   0  0  0  0  0  3  0  0  0  0  0  0
  -18.3250  -25.5770   20.7720 C   0  0  0  0  0  3  0  0  0  0  0  0
  -25.7670  -31.9390   24.1130 C   0  0  0  0  0  3  0  0  0  0  0  0
  -25.3130  -33.3270   24.2680 N   0  0  0  0  0  0  0  0  0  0  0  0
  -25.7830  -34.3630   23.5600 C   0  0  0  0  0  0  0  0  0  0  0  0
  -26.7070  -34.2580   22.7500 O   0  0  0  0  0  0  0  0  0  0  0  0
  -24.5220  -33.4770   24.8760 H   0  0  0  0  0  0  0  0  0  0  0  0
  -24.1610  -36.0410   22.6230 C   0  0  0  0  0  1  0  0  0  0  0  0
  -25.1190  -35.7350   23.7850 C   0  0  0  0  0  3  0  0  0  0  0  0
  -26.8670  -36.7640   25.1690 C   0  0  0  0  0  1  0  0  0  0  0  0
  -26.0910  -36.8400   23.9350 N   0  0  0  0  0  0  0  0  0  0  0  0
  -25.6200  -37.7410   23.9120 H   0  0  0  0  0  0  0  0  0  0  0  0
  -26.0490  -31.2840   25.5210 C   0  0  1  0  0  0  0  0  0  0  0  0
  -24.7700  -31.0230   26.3520 C   0  0  0  0  0  1  0  0  0  0  0  0
  -26.7880  -29.9350   25.3550 C   0  0  0  0  0  1  0  0  0  0  0  0
  -26.9810  -32.1980   26.3500 C   0  0  0  0  0  1  0  0  0  0  0  0
  2  1  2  0
  3  6  2  0
  3  5  1  0
  4  1  1  0
  4  7  1  0
  5  4  2  0
  6  2  1  0
  8  5  1  0
  8 11  1  0
  9 10  1  0
  9  7  1  0
 11 61  1  0
 11 10  1  0
 11 12  1  1
 13  6  1  0
 13 14  1  0
 15 21  1  0
 15 28  1  0
 16 21  1  0
 17 18  1  0
 17 16  1  0
 19 18  1  0
 19 32  1  0
 19 20  1  0
 21 20  1  0
 22 15  2  0
 23 25  1  0
 24 23  1  0
 26 58  1  0
 26 24  1  0
 26 27  1  0
 27 14  1  0
 27 28  1  0
 28 25  1  0
 29 30  2  0
 30 49  1  0
 31 34  1  0
 31 30  1  0
 32 33  1  0
 32 29  1  0
 33 31  2  0
 34 35  1  0
 35 36  2  0
 37 40  1  0
 37 36  1  0
 38 37  2  0
 39 38  1  0
 39 34  2  0
 40 41  1  0
 41 46  2  0
 41 42  1  0
 42 43  2  0
 43 44  1  0
 44 48  1  0
 45 44  2  0
 46 45  1  0
 47 46  1  0
 49 50  1  0
 50 52  1  0
 50 53  1  0
 51 49  2  0
 54 29  1  0
 54 55  1  0
 56 54  1  0
 57 58  1  0
 58 60  1  0
 59 58  1  0
 62 63  1  0
 62 61  1  0
 63 65  1  0
 64 75  2  0
 65 70  1  0
 66 76  1  0
 66 74  1  0
 67 73  1  0
 67 69  1  0
 68 74  1  0
 69 68  1  0
 70 69  2  0
 71 72  1  0
 71 65  2  0
 72 67  2  0
 73 66  1  0
 74 64  1  0
 76 78  2  0
 77 76  1  0
 79 77  1  0
 80 85  1  0
 81 77  1  0
 82 81  1  0
 83 84  1  0
 83 82  1  0
 84 80  1  0
 85 81  1  0
 85 86  2  0
 87 86  1  0
 88 87  2  0
 89 80  2  0
 89 88  1  0
 90 64  1  0
 90 91  1  0
 90100  1  0
 91 94  1  0
 92 96  1  0
 92 91  1  0
 93 92  2  0
 96 95  1  0
 96 98  1  0
 98 97  1  0
 99 98  1  0
100103  1  1
100101  1  0
102100  1  0
M  ISO  4  15 100  28 100  62 101  63 101
M  END
>  <TORSDO>  (62) 
F 21

>  <SCORE>  (62) 
-4.284

>  <name>  (62) 
61

>  <ligand_id>  (62) 
61

>  <original_smiles>  (62) 
[H]c1c([H])c([H])c2c(c1[H])C([H])([H])C([H])([H])C([H])([H])C2([H])N([H])C(=O)C1([H])N(C(=O)C([H])(N([H])C(=O)C([H])(N([H])C([H])([H])[H])C([H])([H])[H])C(C([H])([H])[H])(C([H])([H])[H])C([H])([H])[H])C([H])([H])c2c([H])c(OC([H])([H])C([H])([H])[N+]3([H])C([H])([H])c4c([H])c(C([H])([H])C([H])([H])C5([H])N(C(=O)N6C([H])([H])C([H])([H])C([H])([H])C([H])(n7nc(-c8c([H])c([H])c(Oc9c([H])c([H])c(F)c([H])c9F)c([H])c8[H])c(C(=O)N([H])[H])c7N([H])[H])C6([H])[H])C([H])([H])C([H])([H])C([H])([H])C5([H])[N+]([H])([H])C([H])([H])[H])c([H])c([H])c4C([H])([H])C([H])([H])C3([H])[H])c([H])c([H])c2C1([H])[H]

>  <smiles>  (62) 
[H]c1c([H])c([H])c2c(c1[H])C([H])([H])C([H])([H])C([H])([H])C2([H])N([H])C(=O)C1([H])N(C(=O)C([H])(N([H])C(=O)C([H])(N([H])C([H])([H])[H])C([H])([H])[H])C(C([H])([H])[H])(C([H])([H])[H])C([H])([H])[H])C([H])([H])c2c([H])c(OC([H])([H])C([H])([H])[N+]3([H])C([H])([H])c4c([H])c(C([H])([H])C([H])([H])C5([H])N(C(=O)N6C([H])([H])C([H])([H])C([H])([H])C([H])(n7nc(-c8c([H])c([H])c(Oc9c([H])c([H])c(F)c([H])c9F)c([H])c8[H])c(C(=O)N([H])[H])c7N([H])[H])C6([H])[H])C([H])([H])C([H])([H])C([H])([H])C5([H])[N+]([H])([H])C([H])([H])[H])c([H])c([H])c4C([H])([H])C([H])([H])C3([H])[H])c([H])c([H])c2C1([H])[H]

$$$$
62:0:0
     RDKit          3D

 95105  0  0  1  0  0  0  0  0999 V2000
  -30.7100  -23.5570   21.7700 C   0  0  0  0  0  3  0  0  0  0  0  0
  -30.6860  -22.3100   21.1120 C   0  0  0  0  0  3  0  0  0  0  0  0
  -30.0960  -24.6860   21.1840 C   0  0  0  0  0  3  0  0  0  0  0  0
  -29.4500  -23.3280   19.2750 C   0  0  0  0  0  3  0  0  0  0  0  0
  -30.0430  -22.1880   19.8590 C   0  0  0  0  0  0  0  0  0  0  0  0
  -29.4570  -24.5780   19.9280 C   0  0  0  0  0  0  0  0  0  0  0  0
  -30.6990  -14.4980   20.2470 C   0  0  0  0  0  0  0  0  0  0  0  0
  -30.3520  -12.3680   19.0710 C   0  0  0  0  0  2  0  0  0  0  0  0
  -29.3880  -12.6100   17.8900 C   0  0  0  0  0  2  0  0  0  0  0  0
  -27.9250  -12.4680   18.3460 C   0  0  0  0  0  2  0  0  0  0  0  0
  -27.6130  -13.2810   19.6300 C   0  0  0  0  0  3  0  0  0  0  0  0
  -28.6900  -13.0360   20.7140 C   0  0  0  0  0  2  0  0  0  0  0  0
  -30.0090  -13.3320   20.1290 N   0  0  0  0  0  0  0  0  0  0  0  0
  -31.8260  -14.6430   19.7660 O   0  0  0  0  0  0  0  0  0  0  0  0
  -29.2010  -19.1510   20.9510 C   0  0  0  0  0  3  0  0  0  0  0  0
  -29.2860  -17.7750   21.2780 C   0  0  0  0  0  3  0  0  0  0  0  0
  -29.9750  -19.5780   19.8620 C   0  0  0  0  0  0  0  0  0  0  0  0
  -30.1130  -16.8990   20.5220 C   0  0  0  0  0  0  0  0  0  0  0  0
  -30.7820  -18.6840   19.2040 C   0  0  0  0  0  0  0  0  0  0  0  0
  -31.1840  -20.6280   18.1410 C   0  0  0  0  0  2  0  0  0  0  0  0
  -29.9850  -20.8680   19.0970 C   0  0  0  0  0  3  0  0  0  0  0  0
  -30.8710  -17.3780   19.4960 N   0  0  0  0  0  0  0  0  0  0  0  0
  -30.0320  -15.5110   20.8380 N   0  0  0  0  0  0  0  0  0  0  0  0
  -31.4410  -19.2100   18.1310 O   0  0  0  0  0  0  0  0  0  0  0  0
  -29.2140  -15.2330   21.3550 H   0  0  0  0  0  0  0  0  0  0  0  0
  -25.2190  -13.8720   20.3650 C   0  0  0  0  0  0  0  0  0  0  0  0
  -24.1620  -13.0930   20.7520 C   0  0  0  0  0  0  0  0  0  0  0  0
  -24.6340  -11.7460   20.7280 C   0  0  0  0  0  0  0  0  0  0  0  0
  -26.2690  -12.9990   20.1280 N   0  0  0  0  0  0  0  0  0  0  0  0
  -25.9210  -11.7140   20.4030 N   0  0  0  0  0  0  0  0  0  0  0  0
  -23.9210  -10.4790   20.9390 C   0  0  0  0  0  0  0  0  0  0  0  0
  -24.3760   -9.5260   21.8760 C   0  0  0  0  0  3  0  0  0  0  0  0
  -23.6650   -8.3220   22.0760 C   0  0  0  0  0  3  0  0  0  0  0  0
  -22.4850   -8.0650   21.3370 C   0  0  0  0  0  0  0  0  0  0  0  0
  -22.0490   -9.0080   20.3900 C   0  0  0  0  0  3  0  0  0  0  0  0
  -22.7610  -10.2020   20.1900 C   0  0  0  0  0  3  0  0  0  0  0  0
  -21.7460   -6.9120   21.4450 O   0  0  0  0  0  0  0  0  0  0  0  0
  -21.7140   -6.1830   22.6060 C   0  0  0  0  0  0  0  0  0  0  0  0
  -21.2890   -6.7460   23.8290 C   0  0  0  0  0  3  0  0  0  0  0  0
  -21.2050   -5.9430   24.9840 C   0  0  0  0  0  3  0  0  0  0  0  0
  -21.5360   -4.5760   24.9170 C   0  0  0  0  0  0  0  0  0  0  0  0
  -21.9540   -4.0110   23.6990 C   0  0  0  0  0  3  0  0  0  0  0  0
  -22.0400   -4.8120   22.5470 C   0  0  0  0  0  0  0  0  0  0  0  0
  -22.4220   -4.2590   21.3710 F   0  0  0  0  0  0  0  0  0  0  0  0
  -21.4470   -3.8010   26.0230 F   0  0  0  0  0  0  0  0  0  0  0  0
  -22.7630  -13.5610   21.0360 C   0  0  0  0  0  0  0  0  0  0  0  0
  -22.0540  -12.8720   21.9240 N   0  0  0  0  0  0  0  0  0  0  0  0
  -22.3060  -14.5730   20.5070 O   0  0  0  0  0  0  0  0  0  0  0  0
  -22.4350  -12.0560   22.3790 H   0  0  0  0  0  0  0  0  0  0  0  0
  -21.1180  -13.1710   22.1570 H   0  0  0  0  0  0  0  0  0  0  0  0
  -25.3720  -15.2440   20.1760 N   0  0  0  0  0  0  0  0  0  0  0  0
  -24.6070  -15.8980   20.3010 H   0  0  0  0  0  0  0  0  0  0  0  0
  -26.2170  -15.6860   19.8370 H   0  0  0  0  0  0  0  0  0  0  0  0
  -28.7980  -25.7750   19.2490 C   0  0  0  0  0  2  0  0  0  0  0  0
  -28.4920  -26.8430   20.1530 O   0  0  0  0  0  0  0  0  0  0  0  0
  -24.6360  -31.9090   23.2600 C   0  0  0  0  0  0  0  0  0  0  0  0
  -27.2810  -27.5100   20.1150 C   0  0  0  0  0  0  0  0  0  0  0  0
  -23.4200  -30.5180   21.6140 C   0  0  0  0  0  3  0  0  0  0  0  0
  -24.8670  -28.9980   20.1650 C   0  0  0  0  0  0  0  0  0  0  0  0
  -25.9430  -30.8880   21.4010 C   0  0  0  0  0  2  0  0  0  0  0  0
  -26.0260  -29.5230   20.7470 C   0  0  0  0  0  0  0  0  0  0  0  0
  -27.2280  -28.7830   20.7250 C   0  0  0  0  0  3  0  0  0  0  0  0
  -26.0940  -26.9870   19.5470 C   0  0  0  0  0  3  0  0  0  0  0  0
  -24.8950  -27.7260   19.5670 C   0  0  0  0  0  3  0  0  0  0  0  0
  -23.6200  -29.8520   20.2260 C   0  0  0  0  0  2  0  0  0  0  0  0
  -24.6850  -31.1190   22.1500 N   0  0  0  0  0  0  0  0  0  0  0  0
  -23.5580  -32.1760   23.8100 O   0  0  0  0  0  0  0  0  0  0  0  0
  -22.7800  -29.4870   22.5690 C   0  0  0  0  0  0  0  0  0  0  0  0
  -21.4560  -29.2990   22.4440 N   0  0  0  0  0  0  0  0  0  0  0  0
  -23.4690  -28.8600   23.3790 O   0  0  0  0  0  0  0  0  0  0  0  0
  -20.9620  -29.8600   21.7640 H   0  0  0  0  0  0  0  0  0  0  0  0
  -18.0910  -28.0790   22.9330 C   0  0  0  0  0  0  0  0  0  0  0  0
  -20.6450  -28.3520   23.2100 C   0  0  0  0  0  3  0  0  0  0  0  0
  -20.7590  -26.9250   22.6260 C   0  0  0  0  0  2  0  0  0  0  0  0
  -19.6600  -26.5990   21.6100 C   0  0  0  0  0  2  0  0  0  0  0  0
  -18.2770  -26.7320   22.2540 C   0  0  0  0  0  2  0  0  0  0  0  0
  -19.2030  -28.8470   23.3680 C   0  0  0  0  0  0  0  0  0  0  0  0
  -18.9760  -30.1060   23.9630 C   0  0  0  0  0  3  0  0  0  0  0  0
  -17.6680  -30.6000   24.1270 C   0  0  0  0  0  3  0  0  0  0  0  0
  -16.5700  -29.8290   23.7090 C   0  0  0  0  0  3  0  0  0  0  0  0
  -16.7820  -28.5700   23.1190 C   0  0  0  0  0  3  0  0  0  0  0  0
  -25.9260  -32.5350   23.8770 C   0  0  0  0  0  3  0  0  0  0  0  0
  -25.6210  -33.9320   24.2120 N   0  0  0  0  0  0  0  0  0  0  0  0
  -25.9490  -34.9840   23.4490 C   0  0  0  0  0  0  0  0  0  0  0  0
  -26.6110  -34.8800   22.4130 O   0  0  0  0  0  0  0  0  0  0  0  0
  -25.0360  -34.0880   25.0190 H   0  0  0  0  0  0  0  0  0  0  0  0
  -24.2150  -36.7750   23.1090 C   0  0  0  0  0  1  0  0  0  0  0  0
  -25.4650  -36.3720   23.9090 C   0  0  0  0  0  3  0  0  0  0  0  0
  -27.6070  -37.2580   24.7190 C   0  0  0  0  0  1  0  0  0  0  0  0
  -26.4960  -37.4260   23.7870 N   0  0  0  0  0  0  0  0  0  0  0  0
  -26.0900  -38.3450   23.9380 H   0  0  0  0  0  0  0  0  0  0  0  0
  -26.4490  -31.7590   25.1480 C   0  0  1  0  0  0  0  0  0  0  0  0
  -25.3640  -31.5260   26.2250 C   0  0  0  0  0  1  0  0  0  0  0  0
  -27.0200  -30.3780   24.7460 C   0  0  0  0  0  1  0  0  0  0  0  0
  -27.6100  -32.5450   25.8030 C   0  0  0  0  0  1  0  0  0  0  0  0
  2  1  2  0
  3  1  1  0
  4  5  2  0
  4  6  1  0
  5  2  1  0
  6  3  2  0
  7 23  1  0
  8 13  1  0
  9 10  1  0
  9  8  1  0
 11 10  1  0
 11 29  1  0
 11 12  1  0
 13  7  1  0
 13 12  1  0
 14  7  2  0
 15 16  1  0
 17 15  2  0
 18 23  1  0
 18 16  2  0
 19 22  2  0
 19 17  1  0
 20 21  1  0
 21  5  1  0
 21 17  1  0
 22 18  1  0
 23 25  1  0
 24 20  1  0
 24 19  1  0
 26 27  2  0
 27 46  1  0
 28 27  1  0
 28 31  1  0
 29 26  1  0
 29 30  1  0
 30 28  2  0
 31 32  1  0
 32 33  2  0
 34 37  1  0
 34 33  1  0
 35 34  2  0
 36 35  1  0
 36 31  2  0
 37 38  1  0
 38 39  1  0
 39 40  2  0
 41 40  1  0
 41 45  1  0
 42 41  2  0
 43 38  2  0
 43 42  1  0
 44 43  1  0
 46 47  1  0
 47 50  1  0
 47 49  1  0
 48 46  2  0
 51 52  1  0
 51 26  1  0
 53 51  1  0
 54  6  1  0
 54 55  1  0
 56 67  2  0
 57 55  1  0
 57 62  1  0
 58 66  1  0
 58 68  1  0
 59 65  1  0
 59 61  1  0
 60 66  1  0
 61 60  1  0
 62 61  2  0
 63 64  1  0
 63 57  2  0
 64 59  2  0
 65 58  1  0
 66 56  1  0
 68 70  2  0
 69 68  1  0
 71 69  1  0
 72 81  2  0
 72 77  1  0
 73 69  1  0
 73 77  1  0
 74 73  1  0
 75 76  1  0
 75 74  1  0
 76 72  1  0
 77 78  2  0
 78 79  1  0
 80 79  2  0
 81 80  1  0
 82 56  1  0
 82 83  1  0
 82 92  1  0
 83 86  1  0
 84 88  1  0
 84 83  1  0
 85 84  2  0
 88 87  1  0
 90 88  1  0
 90 91  1  0
 90 89  1  0
 92 95  1  1
 92 93  1  0
 94 92  1  0
M  ISO  4   7 100  23 100  54 101  55 101
M  END
>  <TORSDO>  (63) 
F 17

>  <SCORE>  (63) 
-14.780

>  <name>  (63) 
62

>  <ligand_id>  (63) 
62

>  <original_smiles>  (63) 
[H]c1c(N([H])C(=O)N2C([H])([H])C([H])([H])C([H])([H])C([H])(n3nc(-c4c([H])c([H])c(Oc5c([H])c([H])c(F)c([H])c5F)c([H])c4[H])c(C(=O)N([H])[H])c3N([H])[H])C2([H])[H])nc2c(c1[H])C([H])(c1c([H])c([H])c([H])c(C([H])([H])Oc3c([H])c([H])c4c(c3[H])C([H])([H])N(C(=O)C([H])(N([H])C(=O)C([H])(N([H])C([H])([H])[H])C([H])([H])[H])C(C([H])([H])[H])(C([H])([H])[H])C([H])([H])[H])C([H])(C(=O)N([H])C3([H])c5c([H])c([H])c([H])c([H])c5C([H])([H])C([H])([H])C3([H])[H])C4([H])[H])c1[H])C([H])([H])O2

>  <smiles>  (63) 
[H]c1c(N([H])C(=O)N2C([H])([H])C([H])([H])C([H])([H])C([H])(n3nc(-c4c([H])c([H])c(Oc5c([H])c([H])c(F)c([H])c5F)c([H])c4[H])c(C(=O)N([H])[H])c3N([H])[H])C2([H])[H])nc2c(c1[H])C([H])(c1c([H])c([H])c([H])c(C([H])([H])Oc3c([H])c([H])c4c(c3[H])C([H])([H])N(C(=O)C([H])(N([H])C(=O)C([H])(N([H])C([H])([H])[H])C([H])([H])[H])C(C([H])([H])[H])(C([H])([H])[H])C([H])([H])[H])C([H])(C(=O)N([H])C3([H])c5c([H])c([H])c([H])c([H])c5C([H])([H])C([H])([H])C3([H])[H])C4([H])[H])c1[H])C([H])([H])O2

$$$$
63:0:0
     RDKit          3D

 93101  0  0  1  0  0  0  0  0999 V2000
  -29.0220  -22.2930   21.2270 C   0  0  0  0  0  3  0  0  0  0  0  0
  -29.8500  -23.2860   20.6650 C   0  0  0  0  0  0  0  0  0  0  0  0
  -29.3080  -20.9260   21.0030 C   0  0  0  0  0  0  0  0  0  0  0  0
  -30.9470  -22.8540   19.8900 C   0  0  0  0  0  0  0  0  0  0  0  0
  -30.4470  -20.5950   20.2280 C   0  0  0  0  0  0  0  0  0  0  0  0
  -28.3480  -19.8940   21.5740 C   0  0  0  0  0  1  0  0  0  0  0  0
  -31.9110  -23.8270   19.2350 C   0  0  0  0  0  1  0  0  0  0  0  0
  -31.2250  -21.5480   19.6860 N   0  0  0  0  0  0  0  0  0  0  0  0
  -30.8740  -19.3130   19.8520 N   0  0  0  0  0  0  0  0  0  0  0  0
  -31.6120  -19.3360   19.1560 H   0  0  0  0  0  0  0  0  0  0  0  0
  -30.8980  -18.1140   20.6920 C   0  0  0  0  0  2  0  0  0  0  0  0
  -30.1960  -16.9560   19.9540 C   0  0  0  0  0  2  0  0  0  0  0  0
  -31.0160  -14.6260   20.1600 C   0  0  0  0  0  0  0  0  0  0  0  0
  -30.6820  -12.4820   19.0050 C   0  0  0  0  0  2  0  0  0  0  0  0
  -29.7210  -12.7380   17.8240 C   0  0  0  0  0  2  0  0  0  0  0  0
  -28.2510  -12.6280   18.2750 C   0  0  0  0  0  2  0  0  0  0  0  0
  -27.9570  -13.4460   19.5610 C   0  0  0  0  0  3  0  0  0  0  0  0
  -29.0250  -13.1640   20.6450 C   0  0  0  0  0  2  0  0  0  0  0  0
  -30.3520  -13.4430   20.0670 N   0  0  0  0  0  0  0  0  0  0  0  0
  -32.1270  -14.8240   19.6590 O   0  0  0  0  0  0  0  0  0  0  0  0
  -30.2620  -15.6430   20.6070 N   0  0  0  0  0  0  0  0  0  0  0  0
  -29.4150  -15.3550   21.0740 H   0  0  0  0  0  0  0  0  0  0  0  0
  -25.5760  -14.1060   20.2890 C   0  0  0  0  0  0  0  0  0  0  0  0
  -24.5010  -13.3550   20.6820 C   0  0  0  0  0  0  0  0  0  0  0  0
  -24.9400  -11.9960   20.6600 C   0  0  0  0  0  0  0  0  0  0  0  0
  -26.6040  -13.2040   20.0560 N   0  0  0  0  0  0  0  0  0  0  0  0
  -26.2240  -11.9320   20.3330 N   0  0  0  0  0  0  0  0  0  0  0  0
  -24.1980  -10.7470   20.8730 C   0  0  0  0  0  0  0  0  0  0  0  0
  -24.6040   -9.8040   21.8430 C   0  0  0  0  0  3  0  0  0  0  0  0
  -23.8640   -8.6180   22.0410 C   0  0  0  0  0  3  0  0  0  0  0  0
  -22.7030   -8.3690   21.2720 C   0  0  0  0  0  0  0  0  0  0  0  0
  -22.3160   -9.3000   20.2920 C   0  0  0  0  0  3  0  0  0  0  0  0
  -23.0580  -10.4780   20.0910 C   0  0  0  0  0  3  0  0  0  0  0  0
  -21.9360   -7.2340   21.3770 O   0  0  0  0  0  0  0  0  0  0  0  0
  -21.8200   -6.5530   22.5620 C   0  0  0  0  0  0  0  0  0  0  0  0
  -21.3270   -7.1700   23.7330 C   0  0  0  0  0  3  0  0  0  0  0  0
  -21.1590   -6.4150   24.9110 C   0  0  0  0  0  3  0  0  0  0  0  0
  -21.4730   -5.0430   24.9180 C   0  0  0  0  0  0  0  0  0  0  0  0
  -21.9590   -4.4250   23.7520 C   0  0  0  0  0  3  0  0  0  0  0  0
  -22.1290   -5.1780   22.5770 C   0  0  0  0  0  0  0  0  0  0  0  0
  -22.5770   -4.5720   21.4510 F   0  0  0  0  0  0  0  0  0  0  0  0
  -21.3040   -4.3150   26.0470 F   0  0  0  0  0  0  0  0  0  0  0  0
  -23.1160  -13.8580   20.9700 C   0  0  0  0  0  0  0  0  0  0  0  0
  -22.3920  -13.1870   21.8590 N   0  0  0  0  0  0  0  0  0  0  0  0
  -22.6830  -14.8810   20.4410 O   0  0  0  0  0  0  0  0  0  0  0  0
  -22.7540  -12.3600   22.3110 H   0  0  0  0  0  0  0  0  0  0  0  0
  -21.4630  -13.5060   22.0940 H   0  0  0  0  0  0  0  0  0  0  0  0
  -25.7610  -15.4710   20.0940 N   0  0  0  0  0  0  0  0  0  0  0  0
  -25.0040  -16.1370   20.1970 H   0  0  0  0  0  0  0  0  0  0  0  0
  -26.6080  -15.8900   19.7300 H   0  0  0  0  0  0  0  0  0  0  0  0
  -29.5710  -24.7700   20.9330 C   0  0  0  0  0  2  0  0  0  0  0  0
  -28.4850  -25.4030   20.0350 C   0  0  0  0  0  2  0  0  0  0  0  0
  -28.5020  -26.8290   20.2100 O   0  0  0  0  0  0  0  0  0  0  0  0
  -24.6300  -31.9500   23.2460 C   0  0  0  0  0  0  0  0  0  0  0  0
  -27.3100  -27.5250   20.1740 C   0  0  0  0  0  0  0  0  0  0  0  0
  -23.4340  -30.5420   21.6000 C   0  0  0  0  0  3  0  0  0  0  0  0
  -24.9000  -29.0140   20.1760 C   0  0  0  0  0  0  0  0  0  0  0  0
  -25.9570  -30.9180   21.4050 C   0  0  0  0  0  2  0  0  0  0  0  0
  -26.0520  -29.5480   20.7660 C   0  0  0  0  0  0  0  0  0  0  0  0
  -27.2580  -28.8110   20.7590 C   0  0  0  0  0  3  0  0  0  0  0  0
  -26.1390  -27.0100   19.5670 C   0  0  0  0  0  3  0  0  0  0  0  0
  -24.9390  -27.7440   19.5740 C   0  0  0  0  0  3  0  0  0  0  0  0
  -23.6500  -29.8630   20.2210 C   0  0  0  0  0  2  0  0  0  0  0  0
  -24.6920  -31.1520   22.1420 N   0  0  0  0  0  0  0  0  0  0  0  0
  -23.5470  -32.2150   23.7850 O   0  0  0  0  0  0  0  0  0  0  0  0
  -22.7900  -29.5150   22.5600 C   0  0  0  0  0  0  0  0  0  0  0  0
  -21.4690  -29.3140   22.4210 N   0  0  0  0  0  0  0  0  0  0  0  0
  -23.4750  -28.9040   23.3840 O   0  0  0  0  0  0  0  0  0  0  0  0
  -20.9780  -29.8620   21.7280 H   0  0  0  0  0  0  0  0  0  0  0  0
  -18.1080  -28.0740   22.8880 C   0  0  0  0  0  0  0  0  0  0  0  0
  -20.6590  -28.3680   23.1870 C   0  0  0  0  0  3  0  0  0  0  0  0
  -20.7880  -26.9360   22.6200 C   0  0  0  0  0  2  0  0  0  0  0  0
  -19.7020  -26.5930   21.5950 C   0  0  0  0  0  2  0  0  0  0  0  0
  -18.3120  -26.7240   22.2230 C   0  0  0  0  0  2  0  0  0  0  0  0
  -19.2110  -28.8540   23.3270 C   0  0  0  0  0  0  0  0  0  0  0  0
  -18.9690  -30.1170   23.9080 C   0  0  0  0  0  3  0  0  0  0  0  0
  -17.6570  -30.6020   24.0540 C   0  0  0  0  0  3  0  0  0  0  0  0
  -16.5680  -29.8200   23.6310 C   0  0  0  0  0  3  0  0  0  0  0  0
  -16.7940  -28.5570   23.0550 C   0  0  0  0  0  3  0  0  0  0  0  0
  -25.9130  -32.5880   23.8670 C   0  0  0  0  0  3  0  0  0  0  0  0
  -25.5980  -33.9860   24.1890 N   0  0  0  0  0  0  0  0  0  0  0  0
  -25.9360  -35.0360   23.4290 C   0  0  0  0  0  0  0  0  0  0  0  0
  -26.6160  -34.9300   22.4040 O   0  0  0  0  0  0  0  0  0  0  0  0
  -24.9960  -34.1430   24.9840 H   0  0  0  0  0  0  0  0  0  0  0  0
  -24.2120  -36.8240   23.0430 C   0  0  0  0  0  1  0  0  0  0  0  0
  -25.4410  -36.4250   23.8750 C   0  0  0  0  0  3  0  0  0  0  0  0
  -27.5610  -37.3150   24.7350 C   0  0  0  0  0  1  0  0  0  0  0  0
  -26.4740  -37.4780   23.7740 N   0  0  0  0  0  0  0  0  0  0  0  0
  -26.0640  -38.3980   23.9110 H   0  0  0  0  0  0  0  0  0  0  0  0
  -26.4310  -31.8230   25.1450 C   0  0  1  0  0  0  0  0  0  0  0  0
  -25.3370  -31.5750   26.2090 C   0  0  0  0  0  1  0  0  0  0  0  0
  -27.0300  -30.4530   24.7550 C   0  0  0  0  0  1  0  0  0  0  0  0
  -27.5710  -32.6300   25.8140 C   0  0  0  0  0  1  0  0  0  0  0  0
  2 51  1  0
  2  1  2  0
  3  1  1  0
  3  6  1  0
  4  2  1  0
  5  3  2  0
  7  4  1  0
  8  4  2  0
  8  5  1  0
  9  5  1  0
  9 11  1  0
 10  9  1  0
 12 21  1  0
 12 11  1  0
 13 21  1  0
 14 19  1  0
 15 16  1  0
 15 14  1  0
 17 16  1  0
 17 26  1  0
 17 18  1  0
 19 13  1  0
 19 18  1  0
 20 13  2  0
 21 22  1  0
 23 24  2  0
 24 43  1  0
 25 24  1  0
 25 28  1  0
 26 23  1  0
 26 27  1  0
 27 25  2  0
 28 29  1  0
 29 30  2  0
 31 34  1  0
 31 30  1  0
 32 31  2  0
 33 32  1  0
 33 28  2  0
 34 35  1  0
 35 40  2  0
 35 36  1  0
 36 37  2  0
 37 38  1  0
 38 42  1  0
 39 38  2  0
 40 39  1  0
 41 40  1  0
 43 44  1  0
 44 47  1  0
 44 46  1  0
 45 43  2  0
 48 49  1  0
 48 23  1  0
 50 48  1  0
 52 53  1  0
 52 51  1  0
 54 65  2  0
 55 53  1  0
 55 60  1  0
 56 64  1  0
 56 66  1  0
 57 63  1  0
 57 59  1  0
 58 64  1  0
 59 58  1  0
 60 59  2  0
 61 62  1  0
 61 55  2  0
 62 57  2  0
 63 56  1  0
 64 54  1  0
 66 68  2  0
 67 66  1  0
 69 67  1  0
 70 79  2  0
 70 75  1  0
 71 67  1  0
 71 75  1  0
 72 71  1  0
 73 74  1  0
 73 72  1  0
 74 70  1  0
 75 76  2  0
 76 77  1  0
 78 77  2  0
 79 78  1  0
 80 54  1  0
 80 81  1  0
 80 90  1  0
 81 84  1  0
 82 86  1  0
 82 81  1  0
 83 82  2  0
 86 85  1  0
 88 86  1  0
 88 89  1  0
 88 87  1  0
 90 93  1  1
 90 91  1  0
 92 90  1  0
M  ISO  4  13 100  21 100  52 101  53 101
M  END
>  <TORSDO>  (64) 
F 21

>  <SCORE>  (64) 
-12.165

>  <name>  (64) 
63

>  <ligand_id>  (64) 
63

>  <original_smiles>  (64) 
[H]c1c([H])c([H])c2c(c1[H])C([H])([H])C([H])([H])C([H])([H])C2([H])N([H])C(=O)C1([H])N(C(=O)C([H])(N([H])C(=O)C([H])(N([H])C([H])([H])[H])C([H])([H])[H])C(C([H])([H])[H])(C([H])([H])[H])C([H])([H])[H])C([H])([H])c2c([H])c(OC([H])([H])C([H])([H])c3c(C([H])([H])[H])nc(N([H])C([H])([H])C([H])([H])N([H])C(=O)N4C([H])([H])C([H])([H])C([H])([H])C([H])(n5nc(-c6c([H])c([H])c(Oc7c([H])c([H])c(F)c([H])c7F)c([H])c6[H])c(C(=O)N([H])[H])c5N([H])[H])C4([H])[H])c(C([H])([H])[H])c3[H])c([H])c([H])c2C1([H])[H]

>  <smiles>  (64) 
[H]c1c([H])c([H])c2c(c1[H])C([H])([H])C([H])([H])C([H])([H])C2([H])N([H])C(=O)C1([H])N(C(=O)C([H])(N([H])C(=O)C([H])(N([H])C([H])([H])[H])C([H])([H])[H])C(C([H])([H])[H])(C([H])([H])[H])C([H])([H])[H])C([H])([H])c2c([H])c(OC([H])([H])C([H])([H])c3c(C([H])([H])[H])nc(N([H])C([H])([H])C([H])([H])N([H])C(=O)N4C([H])([H])C([H])([H])C([H])([H])C([H])(n5nc(-c6c([H])c([H])c(Oc7c([H])c([H])c(F)c([H])c7F)c([H])c6[H])c(C(=O)N([H])[H])c5N([H])[H])C4([H])[H])c(C([H])([H])[H])c3[H])c([H])c([H])c2C1([H])[H]

$$$$
64:0:0
     RDKit          3D

100109  0  0  1  0  0  0  0  0999 V2000
  -34.2560  -13.9850   19.4580 C   0  0  0  0  0  0  0  0  0  0  0  0
  -33.4450  -11.9330   20.6480 C   0  0  0  0  0  2  0  0  0  0  0  0
  -32.5280  -11.1260   19.6980 C   0  0  0  0  0  2  0  0  0  0  0  0
  -31.0760  -11.6480   19.7390 C   0  0  0  0  0  2  0  0  0  0  0  0
  -30.9940  -13.1930   19.6290 C   0  0  0  0  0  3  0  0  0  0  0  0
  -31.9920  -13.8660   20.6010 C   0  0  0  0  0  2  0  0  0  0  0  0
  -33.3400  -13.3620   20.2780 N   0  0  0  0  0  0  0  0  0  0  0  0
  -35.4080  -13.5360   19.3470 O   0  0  0  0  0  0  0  0  0  0  0  0
  -34.7180  -17.8050   15.4710 C   0  0  0  0  0  0  0  0  0  0  0  0
  -33.9250  -17.3300   17.7780 C   0  0  0  0  0  0  0  0  0  0  0  0
  -34.2020  -18.2620   16.7180 C   0  0  0  0  0  0  0  0  0  0  0  0
  -34.9530  -16.4260   15.3470 C   0  0  0  0  0  3  0  0  0  0  0  0
  -34.2030  -15.9300   17.6310 C   0  0  0  0  0  0  0  0  0  0  0  0
  -35.0860  -18.7440   14.2670 C   0  0  0  0  0  2  0  0  0  0  0  0
  -35.4890  -15.9700   13.9870 C   0  0  0  0  0  2  0  0  0  0  0  0
  -34.8730  -16.7480   12.7640 C   0  0  0  0  0  2  0  0  0  0  0  0
  -34.7100  -15.5580   16.3980 N   0  0  0  0  0  0  0  0  0  0  0  0
  -33.7380  -15.0060   18.6890 N   0  0  0  0  0  0  0  0  0  0  0  0
  -34.8390  -18.2510   12.8580 N   0  0  2  0  0  4  0  0  0  0  0  0
  -34.8850  -14.5610   16.2380 H   0  0  0  0  0  0  0  0  0  0  0  0
  -32.8140  -15.2200   19.0180 H   0  0  0  0  0  0  0  0  0  0  0  0
  -33.8620  -18.4720   12.7160 H   0  0  0  0  0  0  0  0  0  0  0  0
  -29.1350  -14.9640   19.6340 C   0  0  0  0  0  0  0  0  0  0  0  0
  -27.7890  -14.8790   19.8640 C   0  0  0  0  0  0  0  0  0  0  0  0
  -27.5290  -13.5090   20.1730 C   0  0  0  0  0  0  0  0  0  0  0  0
  -29.6330  -13.6840   19.8110 N   0  0  0  0  0  0  0  0  0  0  0  0
  -28.6620  -12.8180   20.1960 N   0  0  0  0  0  0  0  0  0  0  0  0
  -26.2600  -12.8030   20.3900 C   0  0  0  0  0  0  0  0  0  0  0  0
  -25.9480  -12.2120   21.6340 C   0  0  0  0  0  3  0  0  0  0  0  0
  -24.7140  -11.5540   21.8240 C   0  0  0  0  0  3  0  0  0  0  0  0
  -23.7760  -11.4860   20.7670 C   0  0  0  0  0  0  0  0  0  0  0  0
  -24.1010  -12.0550   19.5230 C   0  0  0  0  0  3  0  0  0  0  0  0
  -25.3320  -12.7050   19.3340 C   0  0  0  0  0  3  0  0  0  0  0  0
  -22.5630  -10.8460   20.8520 O   0  0  0  0  0  0  0  0  0  0  0  0
  -21.6780  -11.1130   21.8650 C   0  0  0  0  0  0  0  0  0  0  0  0
  -22.0830  -11.7460   23.0600 C   0  0  0  0  0  3  0  0  0  0  0  0
  -21.1280  -12.0630   24.0470 C   0  0  0  0  0  3  0  0  0  0  0  0
  -19.7690  -11.7590   23.8370 C   0  0  0  0  0  0  0  0  0  0  0  0
  -19.3650  -11.1320   22.6450 C   0  0  0  0  0  3  0  0  0  0  0  0
  -20.3160  -10.8140   21.6610 C   0  0  0  0  0  0  0  0  0  0  0  0
  -19.9170  -10.2300   20.5050 F   0  0  0  0  0  0  0  0  0  0  0  0
  -18.8510  -12.0700   24.7810 F   0  0  0  0  0  0  0  0  0  0  0  0
  -26.7830  -15.9810   19.7030 C   0  0  0  0  0  0  0  0  0  0  0  0
  -25.5160  -15.7010   19.9870 N   0  0  0  0  0  0  0  0  0  0  0  0
  -27.1260  -17.1160   19.3720 O   0  0  0  0  0  0  0  0  0  0  0  0
  -25.2380  -14.7750   20.2790 H   0  0  0  0  0  0  0  0  0  0  0  0
  -24.8140  -16.4230   19.9110 H   0  0  0  0  0  0  0  0  0  0  0  0
  -29.9700  -16.0150   19.2630 N   0  0  0  0  0  0  0  0  0  0  0  0
  -29.5800  -16.9210   19.0310 H   0  0  0  0  0  0  0  0  0  0  0  0
  -30.9060  -15.8910   18.9020 H   0  0  0  0  0  0  0  0  0  0  0  0
  -31.8070  -17.5820   19.2140 C   0  0  0  0  0  1  0  0  0  0  0  0
  -33.3180  -17.8440   19.0950 C   0  0  0  0  0  2  0  0  0  0  0  0
  -33.9140  -19.6280   16.9060 N   0  0  0  0  0  0  0  0  0  0  0  0
  -33.2770  -19.7770   17.6820 H   0  0  0  0  0  0  0  0  0  0  0  0
  -35.6400  -20.7040   18.3220 C   0  0  0  0  0  1  0  0  0  0  0  0
  -34.5830  -21.9270   16.3820 C   0  0  0  0  0  1  0  0  0  0  0  0
  -35.0370  -20.5620   16.9180 C   0  0  0  0  0  3  0  0  0  0  0  0
  -35.5730  -19.0370   11.7480 C   0  0  0  0  0  2  0  0  0  0  0  0
  -34.9340  -20.4060   11.2040 C   0  0  0  0  0  2  0  0  0  0  0  0
  -35.7730  -21.6400   11.0920 O   0  0  0  0  0  0  0  0  0  0  0  0
  -36.4480  -25.9200   16.8920 C   0  0  0  0  0  0  0  0  0  0  0  0
  -35.3650  -22.8090   11.7690 C   0  0  0  0  0  0  0  0  0  0  0  0
  -34.3910  -26.1810   15.5540 C   0  0  0  0  0  3  0  0  0  0  0  0
  -34.4050  -25.0740   13.2480 C   0  0  0  0  0  0  0  0  0  0  0  0
  -36.5690  -25.4030   14.4410 C   0  0  0  0  0  2  0  0  0  0  0  0
  -35.7260  -24.6410   13.4240 C   0  0  0  0  0  0  0  0  0  0  0  0
  -36.2130  -23.5230   12.6780 C   0  0  0  0  0  3  0  0  0  0  0  0
  -34.0550  -23.3150   11.5970 C   0  0  0  0  0  3  0  0  0  0  0  0
  -33.5750  -24.4180   12.3270 C   0  0  0  0  0  3  0  0  0  0  0  0
  -33.9270  -26.2490   14.0760 C   0  0  0  0  0  2  0  0  0  0  0  0
  -35.8380  -25.8120   15.6750 N   0  0  0  0  0  0  0  0  0  0  0  0
  -35.8370  -26.3400   17.8850 O   0  0  0  0  0  0  0  0  0  0  0  0
  -33.4490  -25.2300   16.3330 C   0  0  0  0  0  0  0  0  0  0  0  0
  -32.1290  -25.4540   16.2170 N   0  0  0  0  0  0  0  0  0  0  0  0
  -33.9080  -24.3020   17.0050 O   0  0  0  0  0  0  0  0  0  0  0  0
  -31.8300  -26.2400   15.6560 H   0  0  0  0  0  0  0  0  0  0  0  0
  -28.6940  -24.3840   15.8300 C   0  0  0  0  0  0  0  0  0  0  0  0
  -31.0640  -24.6570   16.8280 C   0  0  0  0  0  3  0  0  0  0  0  0
  -31.2510  -23.1520   16.5310 C   0  0  0  0  0  2  0  0  0  0  0  0
  -30.4890  -22.6830   15.2870 C   0  0  0  0  0  2  0  0  0  0  0  0
  -28.9880  -22.9440   15.4470 C   0  0  0  0  0  2  0  0  0  0  0  0
  -29.6740  -25.1930   16.4640 C   0  0  0  0  0  0  0  0  0  0  0  0
  -29.3610  -26.5360   16.7660 C   0  0  0  0  0  3  0  0  0  0  0  0
  -28.0990  -27.0710   16.4490 C   0  0  0  0  0  3  0  0  0  0  0  0
  -27.1270  -26.2610   15.8360 C   0  0  0  0  0  3  0  0  0  0  0  0
  -27.4230  -24.9200   15.5310 C   0  0  0  0  0  3  0  0  0  0  0  0
  -37.9480  -25.5390   17.0880 C   0  0  0  0  0  3  0  0  0  0  0  0
  -38.1570  -24.0330   17.5100 C   0  0  1  0  0  0  0  0  0  0  0  0
  -37.3290  -23.6140   18.7480 C   0  0  0  0  0  1  0  0  0  0  0  0
  -37.7830  -23.0820   16.3490 C   0  0  0  0  0  1  0  0  0  0  0  0
  -39.6490  -23.7800   17.8260 C   0  0  0  0  0  1  0  0  0  0  0  0
  -38.5060  -26.4430   18.1040 N   0  0  0  0  0  0  0  0  0  0  0  0
  -39.2120  -27.5490   17.8350 C   0  0  0  0  0  0  0  0  0  0  0  0
  -39.5230  -27.8820   16.6880 O   0  0  0  0  0  0  0  0  0  0  0  0
  -38.2470  -26.2610   19.0630 H   0  0  0  0  0  0  0  0  0  0  0  0
  -38.6830  -29.6200   19.1610 C   0  0  0  0  0  1  0  0  0  0  0  0
  -39.6430  -28.4260   19.0280 C   0  0  0  0  0  3  0  0  0  0  0  0
  -42.0310  -27.8590   19.0960 C   0  0  0  0  0  1  0  0  0  0  0  0
  -41.0340  -28.9140   18.9260 N   0  0  0  0  0  0  0  0  0  0  0  0
  -41.2150  -29.6350   19.6210 H   0  0  0  0  0  0  0  0  0  0  0  0
  1  7  1  0
  3  4  1  0
  3  2  1  0
  5  4  1  0
  5 26  1  0
  5  6  1  0
  7  6  1  0
  7  2  1  0
  8  1  2  0
  9 11  2  0
 10 52  1  0
 11 53  1  0
 11 10  1  0
 12 15  1  0
 12  9  1  0
 12 17  1  0
 13 10  2  0
 13 18  1  0
 14  9  1  0
 16 19  1  0
 16 15  1  0
 17 13  1  0
 18 21  1  0
 18  1  1  0
 19 14  1  0
 20 17  1  0
 19 22  1  6
 23 26  1  0
 23 24  2  0
 24 25  1  0
 25 27  2  0
 25 28  1  0
 26 27  1  0
 28 29  1  0
 29 30  2  0
 31 34  1  0
 31 30  1  0
 32 31  2  0
 33 32  1  0
 33 28  2  0
 34 35  1  0
 35 36  1  0
 36 37  2  0
 38 37  1  0
 38 42  1  0
 39 38  2  0
 40 35  2  0
 40 39  1  0
 41 40  1  0
 43 24  1  0
 43 44  1  0
 44 46  1  0
 45 43  2  0
 47 44  1  0
 48 23  1  0
 49 48  1  0
 50 48  1  0
 52 51  1  0
 53 57  1  0
 53 54  1  0
 56 57  1  0
 57 55  1  0
 58 19  1  0
 59 58  1  0
 60 59  1  0
 60 62  1  0
 61 72  2  0
 62 67  1  0
 63 71  1  0
 63 73  1  0
 64 66  1  0
 64 70  1  0
 65 71  1  0
 66 65  1  0
 67 66  2  0
 68 62  2  0
 68 69  1  0
 69 64  2  0
 70 63  1  0
 71 61  1  0
 73 75  2  0
 74 73  1  0
 76 74  1  0
 77 82  1  0
 78 74  1  0
 79 78  1  0
 80 81  1  0
 80 79  1  0
 81 77  1  0
 82 83  2  0
 82 78  1  0
 84 83  1  0
 85 84  2  0
 86 77  2  0
 86 85  1  0
 87 61  1  0
 87 88  1  0
 87 92  1  0
 88 91  1  1
 88 89  1  0
 90 88  1  0
 92 95  1  0
 93 92  1  0
 93 97  1  0
 94 93  2  0
 97 96  1  0
 99 97  1  0
 99 98  1  0
 99100  1  0
M  ISO  4   1 100  18 100  59 101  60 101
M  END
>  <TORSDO>  (65) 
F 20

>  <SCORE>  (65) 
10.926

>  <name>  (65) 
64

>  <ligand_id>  (65) 
64

>  <original_smiles>  (65) 
[H]c1c([H])c([H])c2c(c1[H])C([H])([H])C([H])([H])C([H])([H])C2([H])N([H])C(=O)C1([H])N(C(=O)C([H])(N([H])C(=O)C([H])(N([H])C([H])([H])[H])C([H])([H])[H])C(C([H])([H])[H])(C([H])([H])[H])C([H])([H])[H])C([H])([H])c2c([H])c(OC([H])([H])C([H])([H])[N+]3([H])C([H])([H])c4c(N([H])C([H])(C([H])([H])[H])C([H])([H])[H])c(C([H])([H])C([H])([H])[H])c(N([H])C(=O)N5C([H])([H])C([H])([H])C([H])([H])C([H])(n6nc(-c7c([H])c([H])c(Oc8c([H])c([H])c(F)c([H])c8F)c([H])c7[H])c(C(=O)N([H])[H])c6N([H])[H])C5([H])[H])[n+]([H])c4C([H])([H])C3([H])[H])c([H])c([H])c2C1([H])[H]

>  <smiles>  (65) 
[H]c1c([H])c([H])c2c(c1[H])C([H])([H])C([H])([H])C([H])([H])C2([H])N([H])C(=O)C1([H])N(C(=O)C([H])(N([H])C(=O)C([H])(N([H])C([H])([H])[H])C([H])([H])[H])C(C([H])([H])[H])(C([H])([H])[H])C([H])([H])[H])C([H])([H])c2c([H])c(OC([H])([H])C([H])([H])[N+]3([H])C([H])([H])c4c(N([H])C([H])(C([H])([H])[H])C([H])([H])[H])c(C([H])([H])C([H])([H])[H])c(N([H])C(=O)N5C([H])([H])C([H])([H])C([H])([H])C([H])(n6nc(-c7c([H])c([H])c(Oc8c([H])c([H])c(F)c([H])c8F)c([H])c7[H])c(C(=O)N([H])[H])c6N([H])[H])C5([H])[H])[n+]([H])c4C([H])([H])C3([H])[H])c([H])c([H])c2C1([H])[H]

$$$$
65:0:0
     RDKit          3D

 95104  0  0  1  0  0  0  0  0999 V2000
  -29.4020  -23.6520   20.2030 N   0  0  0  0  0  0  0  0  0  0  0  0
  -29.7540  -23.9870   19.3100 H   0  0  0  0  0  0  0  0  0  0  0  0
  -29.6830  -20.1190   21.4380 C   0  0  0  0  0  3  0  0  0  0  0  0
  -28.8630  -20.0950   19.1540 C   0  0  0  0  0  3  0  0  0  0  0  0
  -29.7420  -21.5330   21.3950 C   0  0  0  0  0  3  0  0  0  0  0  0
  -28.9170  -21.5070   19.1150 C   0  0  0  0  0  3  0  0  0  0  0  0
  -29.2390  -19.3800   20.3160 C   0  0  0  0  0  0  0  0  0  0  0  0
  -29.3470  -22.2430   20.2390 C   0  0  0  0  0  0  0  0  0  0  0  0
  -29.0710  -17.8520   20.3560 C   0  0  0  0  0  2  0  0  0  0  0  0
  -30.1990  -17.0290   21.0370 C   0  0  0  0  0  2  0  0  0  0  0  0
  -30.6400  -14.5860   20.5240 C   0  0  0  0  0  0  0  0  0  0  0  0
  -30.3790  -12.4280   19.3610 C   0  0  0  0  0  2  0  0  0  0  0  0
  -29.4310  -12.6300   18.1600 C   0  0  0  0  0  2  0  0  0  0  0  0
  -27.9580  -12.4780   18.5900 C   0  0  0  0  0  2  0  0  0  0  0  0
  -27.6170  -13.2990   19.8620 C   0  0  0  0  0  3  0  0  0  0  0  0
  -28.6740  -13.0740   20.9660 C   0  0  0  0  0  2  0  0  0  0  0  0
  -29.9950  -13.3950   20.4000 N   0  0  0  0  0  0  0  0  0  0  0  0
  -31.7650  -14.7920   20.0580 O   0  0  0  0  0  0  0  0  0  0  0  0
  -29.8970  -15.5840   21.0390 N   0  0  0  0  0  0  0  0  0  0  0  0
  -28.9950  -15.3130   21.4040 H   0  0  0  0  0  0  0  0  0  0  0  0
  -25.2120  -13.8810   20.5690 C   0  0  0  0  0  0  0  0  0  0  0  0
  -24.1510  -13.0980   20.9360 C   0  0  0  0  0  0  0  0  0  0  0  0
  -24.6250  -11.7510   20.9000 C   0  0  0  0  0  0  0  0  0  0  0  0
  -26.2650  -13.0120   20.3360 N   0  0  0  0  0  0  0  0  0  0  0  0
  -25.9160  -11.7250   20.5930 N   0  0  0  0  0  0  0  0  0  0  0  0
  -23.9110  -10.4800   21.0840 C   0  0  0  0  0  0  0  0  0  0  0  0
  -24.3600   -9.5080   22.0050 C   0  0  0  0  0  3  0  0  0  0  0  0
  -23.6460   -8.3030   22.1770 C   0  0  0  0  0  3  0  0  0  0  0  0
  -22.4700   -8.0610   21.4280 C   0  0  0  0  0  0  0  0  0  0  0  0
  -22.0390   -9.0230   20.4970 C   0  0  0  0  0  3  0  0  0  0  0  0
  -22.7530  -10.2200   20.3230 C   0  0  0  0  0  3  0  0  0  0  0  0
  -21.7260   -6.9090   21.5100 O   0  0  0  0  0  0  0  0  0  0  0  0
  -21.7000   -6.1490   22.6530 C   0  0  0  0  0  0  0  0  0  0  0  0
  -21.2940   -6.6840   23.8950 C   0  0  0  0  0  3  0  0  0  0  0  0
  -21.2170   -5.8510   25.0280 C   0  0  0  0  0  3  0  0  0  0  0  0
  -21.5350   -4.4830   24.9210 C   0  0  0  0  0  0  0  0  0  0  0  0
  -21.9350   -3.9490   23.6840 C   0  0  0  0  0  3  0  0  0  0  0  0
  -22.0160   -4.7790   22.5530 C   0  0  0  0  0  0  0  0  0  0  0  0
  -22.3810   -4.2540   21.3580 F   0  0  0  0  0  0  0  0  0  0  0  0
  -21.4540   -3.6810   26.0080 F   0  0  0  0  0  0  0  0  0  0  0  0
  -22.7500  -13.5610   21.2110 C   0  0  0  0  0  0  0  0  0  0  0  0
  -22.0300  -12.8550   22.0760 N   0  0  0  0  0  0  0  0  0  0  0  0
  -22.3020  -14.5840   20.6930 O   0  0  0  0  0  0  0  0  0  0  0  0
  -22.4050  -12.0280   22.5160 H   0  0  0  0  0  0  0  0  0  0  0  0
  -21.0900  -13.1480   22.3050 H   0  0  0  0  0  0  0  0  0  0  0  0
  -25.3640  -15.2540   20.3940 N   0  0  0  0  0  0  0  0  0  0  0  0
  -24.5870  -15.8970   20.4950 H   0  0  0  0  0  0  0  0  0  0  0  0
  -26.2020  -15.6960   20.0390 H   0  0  0  0  0  0  0  0  0  0  0  0
  -28.2080  -24.4430   20.5650 C   0  0  0  0  0  3  0  0  0  0  0  0
  -27.3400  -23.7830   21.6640 C   0  0  0  0  0  2  0  0  0  0  0  0
  -24.9200  -24.4140   20.8280 C   0  0  0  0  0  2  0  0  0  0  0  0
  -24.7570  -23.6550   22.1250 C   0  0  0  0  0  2  0  0  0  0  0  0
  -26.0030  -24.4710   21.8800 C   0  0  0  0  0  3  0  0  0  0  0  0
  -28.6040  -25.9060   20.9510 C   0  0  0  0  0  2  0  0  0  0  0  0
  -28.3540  -26.8590   19.9120 O   0  0  0  0  0  0  0  0  0  0  0  0
  -24.5170  -31.9090   23.2370 C   0  0  0  0  0  0  0  0  0  0  0  0
  -27.1790  -27.5710   20.0180 C   0  0  0  0  0  0  0  0  0  0  0  0
  -23.3100  -30.5410   21.5640 C   0  0  0  0  0  3  0  0  0  0  0  0
  -24.7670  -29.0480   20.0970 C   0  0  0  0  0  0  0  0  0  0  0  0
  -25.8320  -30.9230   21.3620 C   0  0  0  0  0  2  0  0  0  0  0  0
  -25.9250  -29.5670   20.6930 C   0  0  0  0  0  0  0  0  0  0  0  0
  -27.1340  -28.8330   20.6550 C   0  0  0  0  0  3  0  0  0  0  0  0
  -26.0060  -27.0620   19.4250 C   0  0  0  0  0  3  0  0  0  0  0  0
  -24.8020  -27.7900   19.4690 C   0  0  0  0  0  3  0  0  0  0  0  0
  -23.5190  -29.8980   20.1680 C   0  0  0  0  0  2  0  0  0  0  0  0
  -24.5710  -31.1380   22.1140 N   0  0  0  0  0  0  0  0  0  0  0  0
  -23.4380  -32.1610   23.7910 O   0  0  0  0  0  0  0  0  0  0  0  0
  -22.6710  -29.4930   22.5020 C   0  0  0  0  0  0  0  0  0  0  0  0
  -21.3460  -29.3090   22.3790 N   0  0  0  0  0  0  0  0  0  0  0  0
  -23.3620  -28.8490   23.2950 O   0  0  0  0  0  0  0  0  0  0  0  0
  -20.8500  -29.8820   21.7120 H   0  0  0  0  0  0  0  0  0  0  0  0
  -17.9780  -28.1040   22.8810 C   0  0  0  0  0  0  0  0  0  0  0  0
  -20.5380  -28.3480   23.1300 C   0  0  0  0  0  3  0  0  0  0  0  0
  -20.6310  -26.9380   22.5050 C   0  0  0  0  0  2  0  0  0  0  0  0
  -19.5170  -26.6500   21.4950 C   0  0  0  0  0  2  0  0  0  0  0  0
  -18.1430  -26.7770   22.1600 C   0  0  0  0  0  2  0  0  0  0  0  0
  -19.1020  -28.8490   23.3220 C   0  0  0  0  0  0  0  0  0  0  0  0
  -18.8950  -30.0920   23.9570 C   0  0  0  0  0  3  0  0  0  0  0  0
  -17.5940  -30.5910   24.1540 C   0  0  0  0  0  3  0  0  0  0  0  0
  -16.4820  -29.8420   23.7320 C   0  0  0  0  0  3  0  0  0  0  0  0
  -16.6750  -28.6000   23.1010 C   0  0  0  0  0  3  0  0  0  0  0  0
  -25.8050  -32.5310   23.8650 C   0  0  0  0  0  3  0  0  0  0  0  0
  -25.5070  -33.9330   24.1880 N   0  0  0  0  0  0  0  0  0  0  0  0
  -25.8550  -34.9780   23.4270 C   0  0  0  0  0  0  0  0  0  0  0  0
  -26.5310  -34.8650   22.4000 O   0  0  0  0  0  0  0  0  0  0  0  0
  -24.9090  -34.0970   24.9840 H   0  0  0  0  0  0  0  0  0  0  0  0
  -24.1410  -36.7820   23.0550 C   0  0  0  0  0  1  0  0  0  0  0  0
  -25.3750  -36.3730   23.8740 C   0  0  0  0  0  3  0  0  0  0  0  0
  -27.5130  -37.2430   24.7110 C   0  0  0  0  0  1  0  0  0  0  0  0
  -26.4170  -37.4170   23.7620 N   0  0  0  0  0  0  0  0  0  0  0  0
  -26.0170  -38.3400   23.9060 H   0  0  0  0  0  0  0  0  0  0  0  0
  -26.3110  -31.7580   25.1440 C   0  0  1  0  0  0  0  0  0  0  0  0
  -25.2110  -31.5300   26.2070 C   0  0  0  0  0  1  0  0  0  0  0  0
  -26.8830  -30.3730   24.7550 C   0  0  0  0  0  1  0  0  0  0  0  0
  -27.4630  -32.5440   25.8130 C   0  0  0  0  0  1  0  0  0  0  0  0
  1  8  1  0
  1 49  1  0
  2  1  1  0
  4  7  1  0
  5  3  1  0
  6  4  2  0
  6  8  1  0
  7  9  1  0
  7  3  2  0
  8  5  2  0
  9 10  1  0
 10 19  1  0
 11 19  1  0
 12 17  1  0
 13 14  1  0
 13 12  1  0
 15 14  1  0
 15 24  1  0
 15 16  1  0
 17 11  1  0
 17 16  1  0
 18 11  2  0
 19 20  1  0
 21 22  2  0
 22 41  1  0
 23 22  1  0
 23 26  1  0
 24 21  1  0
 24 25  1  0
 25 23  2  0
 26 27  1  0
 27 28  2  0
 29 32  1  0
 29 28  1  0
 30 29  2  0
 31 30  1  0
 31 26  2  0
 32 33  1  0
 33 34  1  0
 34 35  2  0
 36 35  1  0
 36 40  1  0
 37 36  2  0
 38 33  2  0
 38 37  1  0
 39 38  1  0
 41 42  1  0
 42 45  1  0
 42 44  1  0
 43 41  2  0
 46 47  1  0
 46 21  1  0
 48 46  1  0
 49 54  1  0
 49 50  1  0
 50 53  1  0
 51 53  1  0
 51 52  1  0
 53 52  1  0
 55 57  1  0
 55 54  1  0
 56 67  2  0
 57 62  1  0
 58 66  1  0
 58 68  1  0
 59 65  1  0
 59 61  1  0
 60 66  1  0
 61 60  1  0
 62 61  2  0
 63 64  1  0
 63 57  2  0
 64 59  2  0
 65 58  1  0
 66 56  1  0
 68 70  2  0
 69 68  1  0
 71 69  1  0
 72 81  2  0
 72 77  1  0
 73 69  1  0
 73 77  1  0
 74 73  1  0
 75 76  1  0
 75 74  1  0
 76 72  1  0
 77 78  2  0
 78 79  1  0
 80 79  2  0
 81 80  1  0
 82 56  1  0
 82 83  1  0
 82 92  1  0
 83 86  1  0
 84 88  1  0
 84 83  1  0
 85 84  2  0
 88 87  1  0
 90 88  1  0
 90 91  1  0
 90 89  1  0
 92 95  1  1
 92 93  1  0
 94 92  1  0
M  ISO  4  11 100  19 100  54 101  55 101
M  END
>  <TORSDO>  (66) 
F 23

>  <SCORE>  (66) 
-13.114

>  <name>  (66) 
65

>  <ligand_id>  (66) 
65

>  <original_smiles>  (66) 
[H]c1c([H])c([H])c2c(c1[H])C([H])([H])C([H])([H])C([H])([H])C2([H])N([H])C(=O)C1([H])N(C(=O)C([H])(N([H])C(=O)C([H])(N([H])C([H])([H])[H])C([H])([H])[H])C(C([H])([H])[H])(C([H])([H])[H])C([H])([H])[H])C([H])([H])c2c([H])c(OC([H])([H])C([H])(N([H])c3c([H])c([H])c(C([H])([H])C([H])([H])N([H])C(=O)N4C([H])([H])C([H])([H])C([H])([H])C([H])(n5nc(-c6c([H])c([H])c(Oc7c([H])c([H])c(F)c([H])c7F)c([H])c6[H])c(C(=O)N([H])[H])c5N([H])[H])C4([H])[H])c([H])c3[H])C([H])([H])C3([H])C([H])([H])C3([H])[H])c([H])c([H])c2C1([H])[H]

>  <smiles>  (66) 
[H]c1c([H])c([H])c2c(c1[H])C([H])([H])C([H])([H])C([H])([H])C2([H])N([H])C(=O)C1([H])N(C(=O)C([H])(N([H])C(=O)C([H])(N([H])C([H])([H])[H])C([H])([H])[H])C(C([H])([H])[H])(C([H])([H])[H])C([H])([H])[H])C([H])([H])c2c([H])c(OC([H])([H])C([H])(N([H])c3c([H])c([H])c(C([H])([H])C([H])([H])N([H])C(=O)N4C([H])([H])C([H])([H])C([H])([H])C([H])(n5nc(-c6c([H])c([H])c(Oc7c([H])c([H])c(F)c([H])c7F)c([H])c6[H])c(C(=O)N([H])[H])c5N([H])[H])C4([H])[H])c([H])c3[H])C([H])([H])C3([H])C([H])([H])C3([H])[H])c([H])c([H])c2C1([H])[H]

$$$$
66:0:0
     RDKit          3D

 95104  0  0  1  0  0  0  0  0999 V2000
  -30.1690  -21.6420   19.2430 C   0  0  0  0  0  3  0  0  0  0  0  0
  -30.2520  -20.2500   19.4470 C   0  0  0  0  0  3  0  0  0  0  0  0
  -28.9930  -20.4880   21.5180 C   0  0  0  0  0  3  0  0  0  0  0  0
  -29.5110  -22.4700   20.1790 C   0  0  0  0  0  0  0  0  0  0  0  0
  -28.9290  -21.8860   21.3330 C   0  0  0  0  0  0  0  0  0  0  0  0
  -29.6600  -19.6640   20.5870 C   0  0  0  0  0  0  0  0  0  0  0  0
  -29.4520  -23.9760   19.9390 C   0  0  0  0  0  2  0  0  0  0  0  0
  -28.6940  -24.0740   22.3570 C   0  0  0  0  0  2  0  0  0  0  0  0
  -28.6060  -24.7480   20.9770 C   0  0  0  0  0  3  0  0  0  0  0  0
  -28.2950  -22.6740   22.3040 N   0  0  0  0  0  0  0  0  0  0  0  0
  -28.0630  -22.2260   23.1880 H   0  0  0  0  0  0  0  0  0  0  0  0
  -29.7280  -18.2840   20.8240 N   0  0  0  0  0  0  0  0  0  0  0  0
  -29.2330  -17.9710   21.6540 H   0  0  0  0  0  0  0  0  0  0  0  0
  -31.0460  -17.6820   20.6670 C   0  0  0  0  0  2  0  0  0  0  0  0
  -31.2190  -16.4840   21.6160 C   0  0  0  0  0  2  0  0  0  0  0  0
  -30.8430  -14.5050   20.1730 C   0  0  0  0  0  0  0  0  0  0  0  0
  -30.3900  -12.4360   18.9130 C   0  0  0  0  0  2  0  0  0  0  0  0
  -29.3810  -12.6860   17.7770 C   0  0  0  0  0  2  0  0  0  0  0  0
  -27.9390  -12.5320   18.2950 C   0  0  0  0  0  2  0  0  0  0  0  0
  -27.6820  -13.3430   19.5930 C   0  0  0  0  0  3  0  0  0  0  0  0
  -28.7980  -13.0910   20.6320 C   0  0  0  0  0  2  0  0  0  0  0  0
  -30.0980  -13.3820   20.0000 N   0  0  0  0  0  0  0  0  0  0  0  0
  -31.8350  -14.7690   19.4890 O   0  0  0  0  0  0  0  0  0  0  0  0
  -30.4670  -15.3120   21.1730 N   0  0  0  0  0  0  0  0  0  0  0  0
  -29.6420  -15.0560   21.6920 H   0  0  0  0  0  0  0  0  0  0  0  0
  -25.3270  -13.9350   20.4540 C   0  0  0  0  0  0  0  0  0  0  0  0
  -24.2800  -13.1530   20.8610 C   0  0  0  0  0  0  0  0  0  0  0  0
  -24.7340  -11.8020   20.7660 C   0  0  0  0  0  0  0  0  0  0  0  0
  -26.3560  -13.0590   20.1390 N   0  0  0  0  0  0  0  0  0  0  0  0
  -26.0040  -11.7690   20.3820 N   0  0  0  0  0  0  0  0  0  0  0  0
  -24.0150  -10.5370   20.9600 C   0  0  0  0  0  0  0  0  0  0  0  0
  -24.4530   -9.5750   21.8970 C   0  0  0  0  0  3  0  0  0  0  0  0
  -23.7330   -8.3740   22.0800 C   0  0  0  0  0  3  0  0  0  0  0  0
  -22.5630   -8.1270   21.3240 C   0  0  0  0  0  0  0  0  0  0  0  0
  -22.1460   -9.0760   20.3750 C   0  0  0  0  0  3  0  0  0  0  0  0
  -22.8660  -10.2690   20.1910 C   0  0  0  0  0  3  0  0  0  0  0  0
  -21.8150   -6.9760   21.4160 O   0  0  0  0  0  0  0  0  0  0  0  0
  -21.7240   -6.2680   22.5870 C   0  0  0  0  0  0  0  0  0  0  0  0
  -21.1990   -6.8430   23.7660 C   0  0  0  0  0  3  0  0  0  0  0  0
  -21.0580   -6.0600   24.9290 C   0  0  0  0  0  3  0  0  0  0  0  0
  -21.4310   -4.7020   24.9130 C   0  0  0  0  0  0  0  0  0  0  0  0
  -21.9480   -4.1270   23.7390 C   0  0  0  0  0  3  0  0  0  0  0  0
  -22.0910   -4.9080   22.5790 C   0  0  0  0  0  0  0  0  0  0  0  0
  -22.5700   -4.3430   21.4440 F   0  0  0  0  0  0  0  0  0  0  0  0
  -21.2890   -3.9470   26.0270 F   0  0  0  0  0  0  0  0  0  0  0  0
  -22.9020  -13.6240   21.2280 C   0  0  0  0  0  0  0  0  0  0  0  0
  -22.2170  -12.8960   22.1050 N   0  0  0  0  0  0  0  0  0  0  0  0
  -22.4420  -14.6720   20.7770 O   0  0  0  0  0  0  0  0  0  0  0  0
  -22.6010  -12.0460   22.4890 H   0  0  0  0  0  0  0  0  0  0  0  0
  -21.2960  -13.1940   22.3930 H   0  0  0  0  0  0  0  0  0  0  0  0
  -25.4880  -15.3090   20.3050 N   0  0  0  0  0  0  0  0  0  0  0  0
  -24.7370  -15.9690   20.4780 H   0  0  0  0  0  0  0  0  0  0  0  0
  -26.3320  -15.7500   19.9590 H   0  0  0  0  0  0  0  0  0  0  0  0
  -29.0000  -26.2380   21.0630 C   0  0  0  0  0  2  0  0  0  0  0  0
  -28.6750  -26.9160   19.8520 O   0  0  0  0  0  0  0  0  0  0  0  0
  -24.6860  -31.7700   23.1920 C   0  0  0  0  0  0  0  0  0  0  0  0
  -27.4970  -27.6120   19.9040 C   0  0  0  0  0  0  0  0  0  0  0  0
  -23.5420  -30.4440   21.4440 C   0  0  0  0  0  3  0  0  0  0  0  0
  -25.0610  -29.0270   19.9620 C   0  0  0  0  0  0  0  0  0  0  0  0
  -26.0580  -30.8800   21.3140 C   0  0  0  0  0  2  0  0  0  0  0  0
  -26.1900  -29.5510   20.6040 C   0  0  0  0  0  0  0  0  0  0  0  0
  -27.4120  -28.8470   20.5790 C   0  0  0  0  0  3  0  0  0  0  0  0
  -26.3580  -27.0910   19.2580 C   0  0  0  0  0  3  0  0  0  0  0  0
  -25.1360  -27.7920   19.2900 C   0  0  0  0  0  3  0  0  0  0  0  0
  -23.7920  -29.8500   20.0320 C   0  0  0  0  0  2  0  0  0  0  0  0
  -24.7790  -31.0410   22.0450 N   0  0  0  0  0  0  0  0  0  0  0  0
  -23.5890  -31.9850   23.7260 O   0  0  0  0  0  0  0  0  0  0  0  0
  -22.9000  -29.3540   22.3290 C   0  0  0  0  0  0  0  0  0  0  0  0
  -21.5780  -29.1720   22.1830 N   0  0  0  0  0  0  0  0  0  0  0  0
  -23.5870  -28.6760   23.0960 O   0  0  0  0  0  0  0  0  0  0  0  0
  -21.0880  -29.7720   21.5350 H   0  0  0  0  0  0  0  0  0  0  0  0
  -18.2030  -27.9570   22.6180 C   0  0  0  0  0  0  0  0  0  0  0  0
  -20.7650  -28.1790   22.8840 C   0  0  0  0  0  3  0  0  0  0  0  0
  -20.8530  -26.8000   22.1880 C   0  0  0  0  0  2  0  0  0  0  0  0
  -19.7380  -26.5690   21.1630 C   0  0  0  0  0  2  0  0  0  0  0  0
  -18.3650  -26.6660   21.8320 C   0  0  0  0  0  2  0  0  0  0  0  0
  -19.3310  -28.6750   23.0990 C   0  0  0  0  0  0  0  0  0  0  0  0
  -19.1270  -29.8850   23.7960 C   0  0  0  0  0  3  0  0  0  0  0  0
  -17.8270  -30.3780   24.0170 C   0  0  0  0  0  3  0  0  0  0  0  0
  -16.7140  -29.6570   23.5480 C   0  0  0  0  0  3  0  0  0  0  0  0
  -16.9040  -28.4480   22.8570 C   0  0  0  0  0  3  0  0  0  0  0  0
  -25.9450  -32.3890   23.8750 C   0  0  0  0  0  3  0  0  0  0  0  0
  -26.4540  -31.5560   25.1140 C   0  0  1  0  0  0  0  0  0  0  0  0
  -25.3450  -31.2240   26.1390 C   0  0  0  0  0  1  0  0  0  0  0  0
  -27.0830  -30.2210   24.6510 C   0  0  0  0  0  1  0  0  0  0  0  0
  -27.5710  -32.3380   25.8460 C   0  0  0  0  0  1  0  0  0  0  0  0
  -25.6010  -33.7590   24.2730 N   0  0  0  0  0  0  0  0  0  0  0  0
  -25.9290  -34.8570   23.5800 C   0  0  0  0  0  0  0  0  0  0  0  0
  -26.6230  -34.8260   22.5600 O   0  0  0  0  0  0  0  0  0  0  0  0
  -24.9770  -33.8540   25.0620 H   0  0  0  0  0  0  0  0  0  0  0  0
  -24.1780  -36.6370   23.2790 C   0  0  0  0  0  1  0  0  0  0  0  0
  -25.4040  -36.2080   24.1000 C   0  0  0  0  0  3  0  0  0  0  0  0
  -27.4920  -37.0870   25.0480 C   0  0  0  0  0  1  0  0  0  0  0  0
  -26.4210  -37.2840   24.0750 N   0  0  0  0  0  0  0  0  0  0  0  0
  -25.9920  -38.1870   24.2560 H   0  0  0  0  0  0  0  0  0  0  0  0
  1  2  2  0
  1  4  1  0
  2  6  1  0
  4  5  2  0
  5  3  1  0
  5 10  1  0
  6 12  1  0
  6  3  2  0
  7  4  1  0
  7  9  1  0
  9 54  1  0
  9  8  1  0
 10  8  1  0
 10 11  1  0
 12 13  1  0
 14 12  1  0
 14 15  1  0
 16 24  1  0
 17 22  1  0
 18 19  1  0
 18 17  1  0
 20 19  1  0
 20 29  1  0
 20 21  1  0
 22 16  1  0
 22 21  1  0
 23 16  2  0
 24 15  1  0
 24 25  1  0
 26 27  2  0
 27 46  1  0
 28 27  1  0
 28 31  1  0
 29 30  1  0
 29 26  1  0
 30 28  2  0
 31 32  1  0
 32 33  2  0
 34 37  1  0
 34 33  1  0
 35 34  2  0
 36 35  1  0
 36 31  2  0
 37 38  1  0
 38 39  1  0
 39 40  2  0
 41 40  1  0
 41 45  1  0
 42 41  2  0
 43 38  2  0
 43 42  1  0
 44 43  1  0
 46 47  1  0
 47 50  1  0
 47 49  1  0
 48 46  2  0
 51 26  1  0
 51 52  1  0
 53 51  1  0
 55 57  1  0
 55 54  1  0
 56 67  2  0
 57 62  1  0
 58 66  1  0
 58 68  1  0
 59 65  1  0
 59 61  1  0
 60 66  1  0
 61 60  1  0
 62 61  2  0
 63 64  1  0
 63 57  2  0
 64 59  2  0
 65 58  1  0
 66 56  1  0
 68 70  2  0
 69 68  1  0
 71 69  1  0
 72 81  2  0
 72 77  1  0
 73 69  1  0
 73 77  1  0
 74 73  1  0
 75 76  1  0
 75 74  1  0
 76 72  1  0
 77 78  2  0
 78 79  1  0
 80 79  2  0
 81 80  1  0
 82 56  1  0
 82 87  1  0
 82 83  1  0
 83 86  1  1
 83 84  1  0
 85 83  1  0
 87 90  1  0
 88 92  1  0
 88 87  1  0
 89 88  2  0
 92 91  1  0
 94 92  1  0
 94 95  1  0
 94 93  1  0
M  ISO  4  16 100  24 100  54 101  55 101
M  END
>  <TORSDO>  (67) 
F 20

>  <SCORE>  (67) 
-13.558

>  <name>  (67) 
66

>  <ligand_id>  (67) 
66

>  <original_smiles>  (67) 
[H]c1c([H])c([H])c2c(c1[H])C([H])([H])C([H])([H])C([H])([H])C2([H])N([H])C(=O)C1([H])N(C(=O)C([H])(N([H])C(=O)C([H])(N([H])C([H])([H])[H])C([H])([H])[H])C(C([H])([H])[H])(C([H])([H])[H])C([H])([H])[H])C([H])([H])c2c([H])c(OC([H])([H])C3([H])C([H])([H])c4c([H])c([H])c(N([H])C([H])([H])C([H])([H])N([H])C(=O)N5C([H])([H])C([H])([H])C([H])([H])C([H])(n6nc(-c7c([H])c([H])c(Oc8c([H])c([H])c(F)c([H])c8F)c([H])c7[H])c(C(=O)N([H])[H])c6N([H])[H])C5([H])[H])c([H])c4N([H])C3([H])[H])c([H])c([H])c2C1([H])[H]

>  <smiles>  (67) 
[H]c1c([H])c([H])c2c(c1[H])C([H])([H])C([H])([H])C([H])([H])C2([H])N([H])C(=O)C1([H])N(C(=O)C([H])(N([H])C(=O)C([H])(N([H])C([H])([H])[H])C([H])([H])[H])C(C([H])([H])[H])(C([H])([H])[H])C([H])([H])[H])C([H])([H])c2c([H])c(OC([H])([H])C3([H])C([H])([H])c4c([H])c([H])c(N([H])C([H])([H])C([H])([H])N([H])C(=O)N5C([H])([H])C([H])([H])C([H])([H])C([H])(n6nc(-c7c([H])c([H])c(Oc8c([H])c([H])c(F)c([H])c8F)c([H])c7[H])c(C(=O)N([H])[H])c6N([H])[H])C5([H])[H])c([H])c4N([H])C3([H])[H])c([H])c([H])c2C1([H])[H]

$$$$
67:0:0
     RDKit          3D

 96105  0  0  1  0  0  0  0  0999 V2000
  -28.7840  -23.8470   19.6650 C   0  0  0  0  0  3  0  0  0  0  0  0
  -30.2440  -23.9160   21.6050 C   0  0  0  0  0  3  0  0  0  0  0  0
  -29.2160  -24.4900   20.8390 C   0  0  0  0  0  0  0  0  0  0  0  0
  -29.3970  -22.6570   19.2270 C   0  0  0  0  0  0  0  0  0  0  0  0
  -30.8720  -22.7240   21.1880 C   0  0  0  0  0  0  0  0  0  0  0  0
  -30.4530  -22.0830   19.9870 C   0  0  0  0  0  0  0  0  0  0  0  0
  -28.9180  -22.0480   17.9160 C   0  0  0  0  0  1  0  0  0  0  0  0
  -32.0210  -22.1930   22.0310 C   0  0  0  0  0  1  0  0  0  0  0  0
  -31.1690  -20.8320   19.4720 C   0  0  0  0  0  2  0  0  0  0  0  0
  -30.1470  -17.1830   19.0000 C   0  0  0  0  0  2  0  0  0  0  0  0
  -29.8770  -17.7240   21.4020 C   0  0  0  0  0  2  0  0  0  0  0  0
  -30.8360  -18.5290   18.7530 C   0  0  0  0  0  2  0  0  0  0  0  0
  -30.5340  -19.1080   21.1550 C   0  0  0  0  0  2  0  0  0  0  0  0
  -30.4590  -16.6930   20.4250 C   0  0  0  0  0  3  0  0  0  0  0  0
  -30.4330  -19.5680   19.7370 N   0  0  1  0  0  4  0  0  0  0  0  0
  -29.4600  -19.7700   19.5650 H   0  0  0  0  0  0  0  0  0  0  0  0
  -30.6240  -14.2630   20.0920 C   0  0  0  0  0  0  0  0  0  0  0  0
  -30.1810  -12.1680   18.9020 C   0  0  0  0  0  2  0  0  0  0  0  0
  -29.1760  -12.4510   17.7680 C   0  0  0  0  0  2  0  0  0  0  0  0
  -27.7320  -12.3190   18.2860 C   0  0  0  0  0  2  0  0  0  0  0  0
  -27.4900  -13.1100   19.6000 C   0  0  0  0  0  3  0  0  0  0  0  0
  -28.6110  -12.8440   20.6320 C   0  0  0  0  0  2  0  0  0  0  0  0
  -29.9030  -13.1210   19.9840 N   0  0  0  0  0  0  0  0  0  0  0  0
  -31.7230  -14.4150   19.5520 O   0  0  0  0  0  0  0  0  0  0  0  0
  -29.9880  -15.3170   20.6310 N   0  0  0  0  0  0  0  0  0  0  0  0
  -29.0810  -15.1610   21.0470 H   0  0  0  0  0  0  0  0  0  0  0  0
  -25.1410  -13.7040   20.4670 C   0  0  0  0  0  0  0  0  0  0  0  0
  -24.0980  -12.9260   20.8870 C   0  0  0  0  0  0  0  0  0  0  0  0
  -24.5530  -11.5740   20.8000 C   0  0  0  0  0  0  0  0  0  0  0  0
  -26.1680  -12.8270   20.1550 N   0  0  0  0  0  0  0  0  0  0  0  0
  -25.8220  -11.5400   20.4120 N   0  0  0  0  0  0  0  0  0  0  0  0
  -23.8390  -10.3090   21.0100 C   0  0  0  0  0  0  0  0  0  0  0  0
  -24.3160   -9.3290   21.9090 C   0  0  0  0  0  3  0  0  0  0  0  0
  -23.6020   -8.1290   22.1060 C   0  0  0  0  0  3  0  0  0  0  0  0
  -22.3940   -7.8990   21.4050 C   0  0  0  0  0  0  0  0  0  0  0  0
  -21.9350   -8.8660   20.4930 C   0  0  0  0  0  3  0  0  0  0  0  0
  -22.6510  -10.0580   20.2930 C   0  0  0  0  0  3  0  0  0  0  0  0
  -21.6460   -6.7520   21.5130 O   0  0  0  0  0  0  0  0  0  0  0  0
  -21.6460   -5.9970   22.6590 C   0  0  0  0  0  0  0  0  0  0  0  0
  -21.2550   -6.5340   23.9050 C   0  0  0  0  0  3  0  0  0  0  0  0
  -21.2040   -5.7060   25.0430 C   0  0  0  0  0  3  0  0  0  0  0  0
  -21.5340   -4.3420   24.9380 C   0  0  0  0  0  0  0  0  0  0  0  0
  -21.9180   -3.8040   23.6980 C   0  0  0  0  0  3  0  0  0  0  0  0
  -21.9710   -4.6290   22.5610 C   0  0  0  0  0  0  0  0  0  0  0  0
  -22.3210   -4.1010   21.3640 F   0  0  0  0  0  0  0  0  0  0  0  0
  -21.4780   -3.5440   26.0310 F   0  0  0  0  0  0  0  0  0  0  0  0
  -22.7210  -13.3980   21.2570 C   0  0  0  0  0  0  0  0  0  0  0  0
  -22.0480  -12.6830   22.1520 N   0  0  0  0  0  0  0  0  0  0  0  0
  -22.2530  -14.4350   20.7880 O   0  0  0  0  0  0  0  0  0  0  0  0
  -22.4400  -11.8440   22.5510 H   0  0  0  0  0  0  0  0  0  0  0  0
  -21.1280  -12.9810   22.4450 H   0  0  0  0  0  0  0  0  0  0  0  0
  -25.2990  -15.0780   20.3050 N   0  0  0  0  0  0  0  0  0  0  0  0
  -24.5410  -15.7320   20.4690 H   0  0  0  0  0  0  0  0  0  0  0  0
  -26.1270  -15.5190   19.9260 H   0  0  0  0  0  0  0  0  0  0  0  0
  -28.5600  -25.7880   21.2640 C   0  0  0  0  0  2  0  0  0  0  0  0
  -28.4710  -26.6970   20.1720 O   0  0  0  0  0  0  0  0  0  0  0  0
  -24.6140  -31.8050   23.2520 C   0  0  0  0  0  0  0  0  0  0  0  0
  -27.3160  -27.4280   20.1790 C   0  0  0  0  0  0  0  0  0  0  0  0
  -23.4350  -30.4130   21.5770 C   0  0  0  0  0  3  0  0  0  0  0  0
  -24.9160  -28.8930   20.1650 C   0  0  0  0  0  0  0  0  0  0  0  0
  -25.9590  -30.7880   21.4220 C   0  0  0  0  0  2  0  0  0  0  0  0
  -26.0580  -29.4250   20.7780 C   0  0  0  0  0  0  0  0  0  0  0  0
  -27.2660  -28.6960   20.7890 C   0  0  0  0  0  3  0  0  0  0  0  0
  -26.1670  -26.8970   19.5630 C   0  0  0  0  0  3  0  0  0  0  0  0
  -24.9620  -27.6250   19.5580 C   0  0  0  0  0  3  0  0  0  0  0  0
  -23.6660  -29.7430   20.1960 C   0  0  0  0  0  2  0  0  0  0  0  0
  -24.6870  -31.0160   22.1430 N   0  0  0  0  0  0  0  0  0  0  0  0
  -23.5240  -32.0710   23.7780 O   0  0  0  0  0  0  0  0  0  0  0  0
  -22.7720  -29.3840   22.5200 C   0  0  0  0  0  0  0  0  0  0  0  0
  -21.4520  -29.1920   22.3580 N   0  0  0  0  0  0  0  0  0  0  0  0
  -23.4410  -28.7620   23.3480 O   0  0  0  0  0  0  0  0  0  0  0  0
  -20.9760  -29.7490   21.6620 H   0  0  0  0  0  0  0  0  0  0  0  0
  -18.0820  -27.9530   22.7390 C   0  0  0  0  0  0  0  0  0  0  0  0
  -20.6230  -28.2480   23.1040 C   0  0  0  0  0  3  0  0  0  0  0  0
  -20.7680  -26.8150   22.5400 C   0  0  0  0  0  2  0  0  0  0  0  0
  -19.7090  -26.4720   21.4880 C   0  0  0  0  0  2  0  0  0  0  0  0
  -18.3020  -26.6030   22.0770 C   0  0  0  0  0  2  0  0  0  0  0  0
  -19.1730  -28.7330   23.2060 C   0  0  0  0  0  0  0  0  0  0  0  0
  -18.9160  -29.9980   23.7790 C   0  0  0  0  0  3  0  0  0  0  0  0
  -17.6010  -30.4820   23.8950 C   0  0  0  0  0  3  0  0  0  0  0  0
  -16.5230  -29.6990   23.4460 C   0  0  0  0  0  3  0  0  0  0  0  0
  -16.7650  -28.4370   22.8740 C   0  0  0  0  0  3  0  0  0  0  0  0
  -25.8920  -32.4280   23.8990 C   0  0  0  0  0  3  0  0  0  0  0  0
  -26.3830  -31.6530   25.1820 C   0  0  1  0  0  0  0  0  0  0  0  0
  -25.2700  -31.4120   26.2280 C   0  0  0  0  0  1  0  0  0  0  0  0
  -26.9720  -30.2750   24.7950 C   0  0  0  0  0  1  0  0  0  0  0  0
  -27.5220  -32.4430   25.8690 C   0  0  0  0  0  1  0  0  0  0  0  0
  -25.5850  -33.8280   24.2210 N   0  0  0  0  0  0  0  0  0  0  0  0
  -25.9170  -34.8750   23.4530 C   0  0  0  0  0  0  0  0  0  0  0  0
  -26.5850  -34.7650   22.4220 O   0  0  0  0  0  0  0  0  0  0  0  0
  -24.9940  -33.9880   25.0240 H   0  0  0  0  0  0  0  0  0  0  0  0
  -24.1740  -36.6530   23.1000 C   0  0  0  0  0  1  0  0  0  0  0  0
  -25.4280  -36.2660   23.9000 C   0  0  0  0  0  3  0  0  0  0  0  0
  -27.5670  -37.1720   24.6950 C   0  0  0  0  0  1  0  0  0  0  0  0
  -26.4540  -37.3230   23.7620 N   0  0  0  0  0  0  0  0  0  0  0  0
  -26.0440  -38.2420   23.9040 H   0  0  0  0  0  0  0  0  0  0  0  0
  1  3  1  0
  3 55  1  0
  3  2  2  0
  4  1  2  0
  4  6  1  0
  5  2  1  0
  5  8  1  0
  6  5  2  0
  7  4  1  0
  9 15  1  0
  9  6  1  0
 10 14  1  0
 12 10  1  0
 12 15  1  0
 13 11  1  0
 14 25  1  0
 14 11  1  0
 15 13  1  0
 15 16  1  6
 17 25  1  0
 18 23  1  0
 19 20  1  0
 19 18  1  0
 21 20  1  0
 21 30  1  0
 21 22  1  0
 23 17  1  0
 23 22  1  0
 24 17  2  0
 25 26  1  0
 27 28  2  0
 28 47  1  0
 29 28  1  0
 29 32  1  0
 30 31  1  0
 30 27  1  0
 31 29  2  0
 32 33  1  0
 33 34  2  0
 35 38  1  0
 35 34  1  0
 36 35  2  0
 37 36  1  0
 37 32  2  0
 38 39  1  0
 39 40  1  0
 40 41  2  0
 42 41  1  0
 42 46  1  0
 43 42  2  0
 44 39  2  0
 44 43  1  0
 45 44  1  0
 47 48  1  0
 48 51  1  0
 48 50  1  0
 49 47  2  0
 52 27  1  0
 52 53  1  0
 54 52  1  0
 56 58  1  0
 56 55  1  0
 57 68  2  0
 58 63  1  0
 59 67  1  0
 59 69  1  0
 60 66  1  0
 60 62  1  0
 61 67  1  0
 62 63  2  0
 62 61  1  0
 64 58  2  0
 65 64  1  0
 65 60  2  0
 66 59  1  0
 67 57  1  0
 69 71  2  0
 70 69  1  0
 72 70  1  0
 73 82  2  0
 73 78  1  0
 74 70  1  0
 74 78  1  0
 75 74  1  0
 76 77  1  0
 76 75  1  0
 77 73  1  0
 78 79  2  0
 79 80  1  0
 81 80  2  0
 82 81  1  0
 83 57  1  0
 83 88  1  0
 83 84  1  0
 84 87  1  1
 84 85  1  0
 86 84  1  0
 88 91  1  0
 89 93  1  0
 89 88  1  0
 90 89  2  0
 93 92  1  0
 95 93  1  0
 95 96  1  0
 95 94  1  0
M  ISO  4  17 100  25 100  55 101  56 101
M  END
>  <TORSDO>  (68) 
F 19

>  <SCORE>  (68) 
-13.689

>  <name>  (68) 
67

>  <ligand_id>  (68) 
67

>  <original_smiles>  (68) 
[H]c1c([H])c([H])c2c(c1[H])C([H])([H])C([H])([H])C([H])([H])C2([H])N([H])C(=O)C1([H])N(C(=O)C([H])(N([H])C(=O)C([H])(N([H])C([H])([H])[H])C([H])([H])[H])C(C([H])([H])[H])(C([H])([H])[H])C([H])([H])[H])C([H])([H])c2c([H])c(OC([H])([H])c3c([H])c(C([H])([H])[H])c(C([H])([H])[N+]4([H])C([H])([H])C([H])([H])C([H])(N([H])C(=O)N5C([H])([H])C([H])([H])C([H])([H])C([H])(n6nc(-c7c([H])c([H])c(Oc8c([H])c([H])c(F)c([H])c8F)c([H])c7[H])c(C(=O)N([H])[H])c6N([H])[H])C5([H])[H])C([H])([H])C4([H])[H])c(C([H])([H])[H])c3[H])c([H])c([H])c2C1([H])[H]

>  <smiles>  (68) 
[H]c1c([H])c([H])c2c(c1[H])C([H])([H])C([H])([H])C([H])([H])C2([H])N([H])C(=O)C1([H])N(C(=O)C([H])(N([H])C(=O)C([H])(N([H])C([H])([H])[H])C([H])([H])[H])C(C([H])([H])[H])(C([H])([H])[H])C([H])([H])[H])C([H])([H])c2c([H])c(OC([H])([H])c3c([H])c(C([H])([H])[H])c(C([H])([H])[N+]4([H])C([H])([H])C([H])([H])C([H])(N([H])C(=O)N5C([H])([H])C([H])([H])C([H])([H])C([H])(n6nc(-c7c([H])c([H])c(Oc8c([H])c([H])c(F)c([H])c8F)c([H])c7[H])c(C(=O)N([H])[H])c6N([H])[H])C5([H])[H])C([H])([H])C4([H])[H])c(C([H])([H])[H])c3[H])c([H])c([H])c2C1([H])[H]

$$$$
68:0:0
     RDKit          3D

 91100  0  0  1  0  0  0  0  0999 V2000
  -28.6130  -19.1510   19.4260 C   0  0  0  0  0  3  0  0  0  0  0  0
  -30.1350  -20.8520   20.1460 C   0  0  0  0  0  3  0  0  0  0  0  0
  -28.8450  -20.6060   19.6610 C   0  0  0  0  0  0  0  0  0  0  0  0
  -29.5930  -18.0570   19.6850 C   0  0  0  0  0  0  0  0  0  0  0  0
  -30.8040  -18.5640   20.2410 C   0  0  0  0  0  0  0  0  0  0  0  0
  -31.0440  -19.8900   20.4270 N   0  0  0  0  0  0  0  0  0  0  0  0
  -30.1850  -15.3690   19.4170 C   0  0  0  0  0  0  0  0  0  0  0  0
  -30.0660  -12.9680   18.5810 C   0  0  0  0  0  2  0  0  0  0  0  0
  -29.0090  -12.8180   17.4610 C   0  0  0  0  0  2  0  0  0  0  0  0
  -27.6080  -12.5720   18.0580 C   0  0  0  0  0  2  0  0  0  0  0  0
  -27.2890  -13.5300   19.2360 C   0  0  0  0  0  3  0  0  0  0  0  0
  -28.4620  -13.6480   20.2340 C   0  0  0  0  0  2  0  0  0  0  0  0
  -29.6330  -14.0870   19.4660 N   0  0  0  0  0  0  0  0  0  0  0  0
  -31.3530  -15.4570   19.0280 O   0  0  0  0  0  0  0  0  0  0  0  0
  -29.3610  -16.5310   19.5530 N   0  0  0  0  0  0  0  0  0  0  0  0
  -28.3850  -16.2730   19.6010 H   0  0  0  0  0  0  0  0  0  0  0  0
  -25.0170  -14.0560   20.2830 C   0  0  0  0  0  0  0  0  0  0  0  0
  -24.0150  -13.2600   20.7650 C   0  0  0  0  0  0  0  0  0  0  0  0
  -24.4850  -11.9160   20.6430 C   0  0  0  0  0  0  0  0  0  0  0  0
  -26.0300  -13.1980   19.8920 N   0  0  0  0  0  0  0  0  0  0  0  0
  -25.7290  -11.9040   20.1740 N   0  0  0  0  0  0  0  0  0  0  0  0
  -23.7970  -10.6410   20.8900 C   0  0  0  0  0  0  0  0  0  0  0  0
  -24.2680   -9.7250   21.8570 C   0  0  0  0  0  3  0  0  0  0  0  0
  -23.5790   -8.5150   22.0910 C   0  0  0  0  0  3  0  0  0  0  0  0
  -22.4060   -8.2140   21.3620 C   0  0  0  0  0  0  0  0  0  0  0  0
  -21.9540   -9.1190   20.3850 C   0  0  0  0  0  3  0  0  0  0  0  0
  -22.6430  -10.3200   20.1490 C   0  0  0  0  0  3  0  0  0  0  0  0
  -21.6840   -7.0530   21.5060 O   0  0  0  0  0  0  0  0  0  0  0  0
  -21.5820   -6.4130   22.7150 C   0  0  0  0  0  0  0  0  0  0  0  0
  -21.0050   -7.0390   23.8420 C   0  0  0  0  0  3  0  0  0  0  0  0
  -20.8570   -6.3220   25.0460 C   0  0  0  0  0  3  0  0  0  0  0  0
  -21.2760   -4.9800   25.1220 C   0  0  0  0  0  0  0  0  0  0  0  0
  -21.8450   -4.3530   24.0000 C   0  0  0  0  0  3  0  0  0  0  0  0
  -21.9950   -5.0690   22.7980 C   0  0  0  0  0  0  0  0  0  0  0  0
  -22.5260   -4.4540   21.7130 F   0  0  0  0  0  0  0  0  0  0  0  0
  -21.1270   -4.2880   26.2760 F   0  0  0  0  0  0  0  0  0  0  0  0
  -22.6580  -13.7130   21.2180 C   0  0  0  0  0  0  0  0  0  0  0  0
  -22.0630  -13.0090   22.1750 N   0  0  0  0  0  0  0  0  0  0  0  0
  -22.1390  -14.7300   20.7570 O   0  0  0  0  0  0  0  0  0  0  0  0
  -22.5000  -12.1880   22.5700 H   0  0  0  0  0  0  0  0  0  0  0  0
  -21.1580  -13.2950   22.5190 H   0  0  0  0  0  0  0  0  0  0  0  0
  -25.1420  -15.4330   20.1140 N   0  0  0  0  0  0  0  0  0  0  0  0
  -24.3760  -16.0670   20.3150 H   0  0  0  0  0  0  0  0  0  0  0  0
  -25.9130  -15.8880   19.6430 H   0  0  0  0  0  0  0  0  0  0  0  0
  -33.1870  -18.2350   21.4050 C   0  0  0  0  0  2  0  0  0  0  0  0
  -33.2180  -17.4900   20.0910 C   0  0  0  0  0  2  0  0  0  0  0  0
  -31.9000  -17.6830   20.8090 C   0  0  0  0  0  3  0  0  0  0  0  0
  -27.8160  -21.8940   19.4560 C   0  0  0  0  0  2  0  0  0  0  0  0
  -28.2020  -23.5550   19.4370 C   0  0  0  0  0  3  0  0  0  0  0  0
  -27.1310  -24.8430   19.1400 C   0  0  0  0  0  3  0  0  0  0  0  0
  -27.4180  -26.3810   19.0270 O   0  0  0  0  0  0  0  0  0  0  0  0
  -24.5080  -31.8120   23.1010 C   0  0  0  0  0  0  0  0  0  0  0  0
  -26.3970  -27.3870   19.2280 C   0  0  0  0  0  0  0  0  0  0  0  0
  -23.0080  -30.5950   21.5700 C   0  0  0  0  0  3  0  0  0  0  0  0
  -24.1460  -29.1580   19.7660 C   0  0  0  0  0  0  0  0  0  0  0  0
  -25.5010  -30.8490   20.9900 C   0  0  0  0  0  2  0  0  0  0  0  0
  -25.4240  -29.5270   20.2040 C   0  0  0  0  0  0  0  0  0  0  0  0
  -26.5460  -28.6580   19.9210 C   0  0  0  0  0  3  0  0  0  0  0  0
  -25.0890  -27.1310   18.7600 C   0  0  0  0  0  3  0  0  0  0  0  0
  -23.9900  -27.9760   19.0260 C   0  0  0  0  0  3  0  0  0  0  0  0
  -22.9700  -30.0580   20.1150 C   0  0  0  0  0  2  0  0  0  0  0  0
  -24.3690  -31.1020   21.9400 N   0  0  0  0  0  0  0  0  0  0  0  0
  -23.5360  -32.0520   23.8340 O   0  0  0  0  0  0  0  0  0  0  0  0
  -22.4800  -29.5020   22.5360 C   0  0  0  0  0  0  0  0  0  0  0  0
  -21.1770  -29.1770   22.4430 N   0  0  0  0  0  0  0  0  0  0  0  0
  -23.2440  -28.9510   23.3310 O   0  0  0  0  0  0  0  0  0  0  0  0
  -20.6090  -29.6820   21.7780 H   0  0  0  0  0  0  0  0  0  0  0  0
  -18.0600  -27.3690   22.8150 C   0  0  0  0  0  0  0  0  0  0  0  0
  -20.4940  -28.1410   23.2230 C   0  0  0  0  0  3  0  0  0  0  0  0
  -20.9100  -26.7270   22.7550 C   0  0  0  0  0  2  0  0  0  0  0  0
  -19.9700  -26.1410   21.6980 C   0  0  0  0  0  2  0  0  0  0  0  0
  -18.5410  -26.0470   22.2420 C   0  0  0  0  0  2  0  0  0  0  0  0
  -18.9760  -28.3580   23.2610 C   0  0  0  0  0  0  0  0  0  0  0  0
  -18.4750  -29.5820   23.7560 C   0  0  0  0  0  3  0  0  0  0  0  0
  -17.0890  -29.8240   23.8070 C   0  0  0  0  0  3  0  0  0  0  0  0
  -16.1860  -28.8370   23.3760 C   0  0  0  0  0  3  0  0  0  0  0  0
  -16.6720  -27.6110   22.8870 C   0  0  0  0  0  3  0  0  0  0  0  0
  -25.8900  -32.3730   23.5540 C   0  0  0  0  0  3  0  0  0  0  0  0
  -26.5790  -31.4940   24.6710 C   0  0  1  0  0  0  0  0  0  0  0  0
  -25.6520  -31.1620   25.8630 C   0  0  0  0  0  1  0  0  0  0  0  0
  -27.0840  -30.1560   24.0830 C   0  0  0  0  0  1  0  0  0  0  0  0
  -27.8240  -32.2280   25.2200 C   0  0  0  0  0  1  0  0  0  0  0  0
  -25.6780  -33.7450   24.0420 N   0  0  0  0  0  0  0  0  0  0  0  0
  -25.9920  -34.8560   23.3620 C   0  0  0  0  0  0  0  0  0  0  0  0
  -26.5570  -34.8280   22.2650 O   0  0  0  0  0  0  0  0  0  0  0  0
  -25.1660  -33.8420   24.9070 H   0  0  0  0  0  0  0  0  0  0  0  0
  -24.3510  -36.7640   23.3340 C   0  0  0  0  0  1  0  0  0  0  0  0
  -25.6230  -36.2110   23.9980 C   0  0  0  0  0  3  0  0  0  0  0  0
  -27.8580  -36.9000   24.7460 C   0  0  0  0  0  1  0  0  0  0  0  0
  -26.7030  -37.2180   23.9100 N   0  0  0  0  0  0  0  0  0  0  0  0
  -26.3620  -38.1380   24.1770 H   0  0  0  0  0  0  0  0  0  0  0  0
  1  3  2  0
  1  4  1  0
  2  6  2  0
  3  2  1  0
  4  5  2  0
  5  6  1  0
  5 47  1  0
  7 13  1  0
  7 15  1  0
  8 13  1  0
  9 10  1  0
  9  8  1  0
 11 10  1  0
 11 20  1  0
 11 12  1  0
 13 12  1  0
 14  7  2  0
 15 16  1  0
 15  4  1  0
 17 18  2  0
 18 37  1  0
 19 18  1  0
 19 22  1  0
 20 21  1  0
 20 17  1  0
 21 19  2  0
 22 23  1  0
 23 24  2  0
 25 28  1  0
 25 24  1  0
 26 25  2  0
 27 26  1  0
 27 22  2  0
 28 29  1  0
 29 34  2  0
 29 30  1  0
 30 31  2  0
 31 32  1  0
 32 36  1  0
 33 32  2  0
 34 33  1  0
 35 34  1  0
 37 38  1  0
 38 41  1  0
 38 40  1  0
 39 37  2  0
 42 17  1  0
 42 43  1  0
 44 42  1  0
 46 47  1  0
 46 45  1  0
 47 45  1  0
 48  3  1  0
 49 48  1  0
 50 49  2  0
 51 50  1  0
 51 53  1  0
 52 63  2  0
 53 58  1  0
 54 62  1  0
 54 64  1  0
 55 61  1  0
 55 57  1  0
 56 62  1  0
 57 56  1  0
 58 57  2  0
 59 60  1  0
 59 53  2  0
 60 55  2  0
 61 54  1  0
 62 52  1  0
 64 66  2  0
 65 64  1  0
 67 65  1  0
 68 77  2  0
 68 73  1  0
 69 65  1  0
 69 73  1  0
 70 69  1  0
 71 72  1  0
 71 70  1  0
 72 68  1  0
 73 74  2  0
 74 75  1  0
 76 75  2  0
 77 76  1  0
 78 52  1  0
 78 83  1  0
 78 79  1  0
 79 82  1  1
 79 80  1  0
 81 79  1  0
 83 86  1  0
 84 88  1  0
 84 83  1  0
 85 84  2  0
 88 87  1  0
 90 88  1  0
 90 91  1  0
 90 89  1  0
M  ISO  4   7 100  15 100  50 101  51 101
M  END
>  <TORSDO>  (69) 
F 20

>  <SCORE>  (69) 
-12.223

>  <name>  (69) 
68

>  <ligand_id>  (69) 
68

>  <original_smiles>  (69) 
[H]c1nc(C2([H])C([H])([H])C2([H])[H])c(N([H])C(=O)N2C([H])([H])C([H])([H])C([H])([H])C([H])(n3nc(-c4c([H])c([H])c(Oc5c([H])c([H])c(F)c([H])c5F)c([H])c4[H])c(C(=O)N([H])[H])c3N([H])[H])C2([H])[H])c([H])c1C([H])([H])C([H])([H])C([H])([H])Oc1c([H])c([H])c2c(c1[H])C([H])([H])N(C(=O)C([H])(N([H])C(=O)C([H])(N([H])C([H])([H])[H])C([H])([H])[H])C(C([H])([H])[H])(C([H])([H])[H])C([H])([H])[H])C([H])(C(=O)N([H])C1([H])c3c([H])c([H])c([H])c([H])c3C([H])([H])C([H])([H])C1([H])[H])C2([H])[H]

>  <smiles>  (69) 
[H]c1nc(C2([H])C([H])([H])C2([H])[H])c(N([H])C(=O)N2C([H])([H])C([H])([H])C([H])([H])C([H])(n3nc(-c4c([H])c([H])c(Oc5c([H])c([H])c(F)c([H])c5F)c([H])c4[H])c(C(=O)N([H])[H])c3N([H])[H])C2([H])[H])c([H])c1C([H])([H])C([H])([H])C([H])([H])Oc1c([H])c([H])c2c(c1[H])C([H])([H])N(C(=O)C([H])(N([H])C(=O)C([H])(N([H])C([H])([H])[H])C([H])([H])[H])C(C([H])([H])[H])(C([H])([H])[H])C([H])([H])[H])C([H])(C(=O)N([H])C1([H])c3c([H])c([H])c([H])c([H])c3C([H])([H])C([H])([H])C1([H])[H])C2([H])[H]

$$$$
69:0:0
     RDKit          3D

 93102  0  0  1  0  0  0  0  0999 V2000
  -30.7440  -14.8510   20.5400 C   0  0  0  0  0  0  0  0  0  0  0  0
  -30.4920  -12.5790   19.5080 C   0  0  0  0  0  2  0  0  0  0  0  0
  -29.5990  -12.6490   18.2510 C   0  0  0  0  0  2  0  0  0  0  0  0
  -28.1250  -12.4610   18.6480 C   0  0  0  0  0  2  0  0  0  0  0  0
  -27.7130  -13.3770   19.8290 C   0  0  0  0  0  3  0  0  0  0  0  0
  -28.7350  -13.3330   20.9870 C   0  0  0  0  0  2  0  0  0  0  0  0
  -30.0550  -13.6580   20.4290 N   0  0  0  0  0  0  0  0  0  0  0  0
  -31.9200  -14.8970   20.1650 O   0  0  0  0  0  0  0  0  0  0  0  0
  -28.7620  -17.1070   19.3590 C   0  0  0  0  0  3  0  0  0  0  0  0
  -28.2840  -19.5050   19.3890 C   0  0  0  0  0  0  0  0  0  0  0  0
  -28.0480  -18.2140   18.8540 C   0  0  0  0  0  0  0  0  0  0  0  0
  -29.2940  -19.6630   20.3610 C   0  0  0  0  0  0  0  0  0  0  0  0
  -29.6660  -17.2380   20.4300 C   0  0  0  0  0  0  0  0  0  0  0  0
  -27.4720  -20.7190   18.9190 C   0  0  0  0  0  2  0  0  0  0  0  0
  -29.6450  -21.1470   20.8410 C   0  0  0  0  0  2  0  0  0  0  0  0
  -27.5620  -21.9590   19.8400 C   0  0  0  0  0  2  0  0  0  0  0  0
  -27.0270  -17.9920   17.7510 C   0  0  0  0  0  1  0  0  0  0  0  0
  -29.9230  -18.5320   20.8890 N   0  0  0  0  0  0  0  0  0  0  0  0
  -30.1510  -15.9910   21.0660 N   0  0  0  0  0  0  0  0  0  0  0  0
  -28.9740  -22.3200   20.0970 N   0  0  1  0  0  4  0  0  0  0  0  0
  -30.6370  -16.2210   21.9190 H   0  0  0  0  0  0  0  0  0  0  0  0
  -29.3970  -22.2850   19.1810 H   0  0  0  0  0  0  0  0  0  0  0  0
  -25.3120  -14.0140   20.4500 C   0  0  0  0  0  0  0  0  0  0  0  0
  -24.2260  -13.2600   20.7930 C   0  0  0  0  0  0  0  0  0  0  0  0
  -24.6770  -11.9030   20.8150 C   0  0  0  0  0  0  0  0  0  0  0  0
  -26.3530  -13.1170   20.2780 N   0  0  0  0  0  0  0  0  0  0  0  0
  -25.9770  -11.8450   20.5610 N   0  0  0  0  0  0  0  0  0  0  0  0
  -23.9350  -10.6520   21.0050 C   0  0  0  0  0  0  0  0  0  0  0  0
  -24.3350   -9.7000   21.9680 C   0  0  0  0  0  3  0  0  0  0  0  0
  -23.5960   -8.5100   22.1460 C   0  0  0  0  0  3  0  0  0  0  0  0
  -22.4440   -8.2680   21.3610 C   0  0  0  0  0  0  0  0  0  0  0  0
  -22.0650   -9.2080   20.3880 C   0  0  0  0  0  3  0  0  0  0  0  0
  -22.8040  -10.3890   20.2080 C   0  0  0  0  0  3  0  0  0  0  0  0
  -21.6770   -7.1300   21.4480 O   0  0  0  0  0  0  0  0  0  0  0  0
  -21.5980   -6.4030   22.6100 C   0  0  0  0  0  0  0  0  0  0  0  0
  -21.1490   -6.9770   23.8190 C   0  0  0  0  0  3  0  0  0  0  0  0
  -21.0180   -6.1770   24.9710 C   0  0  0  0  0  3  0  0  0  0  0  0
  -21.3240   -4.8040   24.9140 C   0  0  0  0  0  0  0  0  0  0  0  0
  -21.7660   -4.2300   23.7090 C   0  0  0  0  0  3  0  0  0  0  0  0
  -21.8990   -5.0280   22.5590 C   0  0  0  0  0  0  0  0  0  0  0  0
  -22.3050   -4.4660   21.3930 F   0  0  0  0  0  0  0  0  0  0  0  0
  -21.1910   -4.0320   26.0180 F   0  0  0  0  0  0  0  0  0  0  0  0
  -22.8220  -13.7530   20.9920 C   0  0  0  0  0  0  0  0  0  0  0  0
  -22.0570  -13.0900   21.8510 N   0  0  0  0  0  0  0  0  0  0  0  0
  -22.4110  -14.7610   20.4190 O   0  0  0  0  0  0  0  0  0  0  0  0
  -22.4010  -12.2720   22.3320 H   0  0  0  0  0  0  0  0  0  0  0  0
  -21.1150  -13.4040   22.0310 H   0  0  0  0  0  0  0  0  0  0  0  0
  -25.4970  -15.3790   20.2450 N   0  0  0  0  0  0  0  0  0  0  0  0
  -24.7300  -16.0390   20.3070 H   0  0  0  0  0  0  0  0  0  0  0  0
  -26.3750  -15.8090   19.9820 H   0  0  0  0  0  0  0  0  0  0  0  0
  -29.2130  -23.7770   20.6000 C   0  0  0  0  0  3  0  0  0  0  0  0
  -28.3120  -25.0080   20.0280 C   0  0  0  0  0  3  0  0  0  0  0  0
  -28.4890  -26.4600   20.4210 O   0  0  0  0  0  0  0  0  0  0  0  0
  -24.6360  -31.9140   23.3220 C   0  0  0  0  0  0  0  0  0  0  0  0
  -27.3920  -27.3560   20.3150 C   0  0  0  0  0  0  0  0  0  0  0  0
  -23.5090  -30.5120   21.6320 C   0  0  0  0  0  3  0  0  0  0  0  0
  -25.0220  -28.9930   20.2340 C   0  0  0  0  0  0  0  0  0  0  0  0
  -26.0550  -30.8420   21.5460 C   0  0  0  0  0  2  0  0  0  0  0  0
  -26.1690  -29.4680   20.8860 C   0  0  0  0  0  0  0  0  0  0  0  0
  -27.3550  -28.6620   20.9200 C   0  0  0  0  0  3  0  0  0  0  0  0
  -26.2250  -26.9660   19.6180 C   0  0  0  0  0  3  0  0  0  0  0  0
  -25.0570  -27.7500   19.5900 C   0  0  0  0  0  3  0  0  0  0  0  0
  -23.7790  -29.8600   20.2520 C   0  0  0  0  0  2  0  0  0  0  0  0
  -24.7490  -31.1090   22.2230 N   0  0  0  0  0  0  0  0  0  0  0  0
  -23.5290  -32.1750   23.8180 O   0  0  0  0  0  0  0  0  0  0  0  0
  -22.8220  -29.4820   22.5600 C   0  0  0  0  0  0  0  0  0  0  0  0
  -21.4970  -29.3090   22.4030 N   0  0  0  0  0  0  0  0  0  0  0  0
  -23.4810  -28.8410   23.3820 O   0  0  0  0  0  0  0  0  0  0  0  0
  -21.0240  -29.8690   21.7070 H   0  0  0  0  0  0  0  0  0  0  0  0
  -18.1010  -28.1410   22.8630 C   0  0  0  0  0  0  0  0  0  0  0  0
  -20.6630  -28.3600   23.1420 C   0  0  0  0  0  3  0  0  0  0  0  0
  -20.7490  -26.9470   22.5200 C   0  0  0  0  0  2  0  0  0  0  0  0
  -19.6380  -26.6690   21.5000 C   0  0  0  0  0  2  0  0  0  0  0  0
  -18.2620  -26.8060   22.1560 C   0  0  0  0  0  2  0  0  0  0  0  0
  -19.2300  -28.8760   23.3150 C   0  0  0  0  0  0  0  0  0  0  0  0
  -19.0250  -30.1230   23.9460 C   0  0  0  0  0  3  0  0  0  0  0  0
  -17.7260  -30.6340   24.1250 C   0  0  0  0  0  3  0  0  0  0  0  0
  -16.6120  -29.8990   23.6820 C   0  0  0  0  0  3  0  0  0  0  0  0
  -16.8010  -28.6530   23.0570 C   0  0  0  0  0  3  0  0  0  0  0  0
  -25.8860  -32.5580   23.9920 C   0  0  0  0  0  3  0  0  0  0  0  0
  -25.5640  -33.9670   24.2730 N   0  0  0  0  0  0  0  0  0  0  0  0
  -25.9220  -34.9970   23.4950 C   0  0  0  0  0  0  0  0  0  0  0  0
  -26.6230  -34.8630   22.4890 O   0  0  0  0  0  0  0  0  0  0  0  0
  -24.9420  -34.1430   25.0470 H   0  0  0  0  0  0  0  0  0  0  0  0
  -24.1950  -36.7720   23.0480 C   0  0  0  0  0  1  0  0  0  0  0  0
  -25.4230  -36.4000   23.8950 C   0  0  0  0  0  3  0  0  0  0  0  0
  -27.5360  -37.3210   24.7400 C   0  0  0  0  0  1  0  0  0  0  0  0
  -26.4560  -37.4510   23.7660 N   0  0  0  0  0  0  0  0  0  0  0  0
  -26.0450  -38.3750   23.8690 H   0  0  0  0  0  0  0  0  0  0  0  0
  -26.3300  -31.8180   25.3140 C   0  0  1  0  0  0  0  0  0  0  0  0
  -25.1790  -31.6100   26.3280 C   0  0  0  0  0  1  0  0  0  0  0  0
  -26.9290  -30.4290   24.9930 C   0  0  0  0  0  1  0  0  0  0  0  0
  -27.4460  -32.6280   26.0140 C   0  0  0  0  0  1  0  0  0  0  0  0
  1 19  1  0
  2  7  1  0
  3  4  1  0
  3  2  1  0
  5  4  1  0
  5 26  1  0
  5  6  1  0
  7  1  1  0
  7  6  1  0
  8  1  2  0
  9 13  1  0
 10 12  2  0
 11  9  2  0
 11 10  1  0
 12 15  1  0
 12 18  1  0
 13 18  2  0
 13 19  1  0
 14 10  1  0
 14 16  1  0
 16 20  1  0
 17 11  1  0
 19 21  1  0
 20 51  1  0
 20 15  1  0
 20 22  1  6
 23 24  2  0
 24 25  1  0
 24 43  1  0
 25 28  1  0
 26 23  1  0
 26 27  1  0
 27 25  2  0
 28 29  1  0
 29 30  2  0
 31 34  1  0
 31 30  1  0
 32 31  2  0
 33 32  1  0
 33 28  2  0
 34 35  1  0
 35 36  1  0
 36 37  2  0
 38 37  1  0
 38 42  1  0
 39 38  2  0
 40 35  2  0
 40 39  1  0
 41 40  1  0
 43 44  1  0
 44 47  1  0
 44 46  1  0
 45 43  2  0
 48 49  1  0
 48 23  1  0
 50 48  1  0
 52 53  1  0
 52 51  2  0
 54 65  2  0
 55 53  1  0
 55 60  1  0
 56 64  1  0
 56 66  1  0
 57 63  1  0
 57 59  1  0
 58 64  1  0
 59 60  2  0
 59 58  1  0
 61 55  2  0
 62 61  1  0
 62 57  2  0
 63 56  1  0
 64 54  1  0
 66 68  2  0
 67 66  1  0
 69 67  1  0
 70 79  2  0
 70 75  1  0
 71 67  1  0
 71 75  1  0
 72 71  1  0
 73 74  1  0
 73 72  1  0
 74 70  1  0
 75 76  2  0
 76 77  1  0
 78 77  2  0
 79 78  1  0
 80 54  1  0
 80 81  1  0
 80 90  1  0
 81 84  1  0
 82 86  1  0
 82 81  1  0
 83 82  2  0
 86 85  1  0
 88 89  1  0
 88 86  1  0
 88 87  1  0
 90 93  1  1
 90 91  1  0
 92 90  1  0
M  ISO  4   1 100  19 100  52 101  53 101
M  END
>  <TORSDO>  (70) 
F 17

>  <SCORE>  (70) 
-14.510

>  <name>  (70) 
69

>  <ligand_id>  (70) 
69

>  <original_smiles>  (70) 
[H]c1c([H])c([H])c2c(c1[H])C([H])([H])C([H])([H])C([H])([H])C2([H])N([H])C(=O)C1([H])N(C(=O)C([H])(N([H])C(=O)C([H])(N([H])C([H])([H])[H])C([H])([H])[H])C(C([H])([H])[H])(C([H])([H])[H])C([H])([H])[H])C([H])([H])c2c([H])c(OC([H])([H])C([H])([H])[N+]3([H])C([H])([H])c4nc(N([H])C(=O)N5C([H])([H])C([H])([H])C([H])([H])C([H])(n6nc(-c7c([H])c([H])c(Oc8c([H])c([H])c(F)c([H])c8F)c([H])c7[H])c(C(=O)N([H])[H])c6N([H])[H])C5([H])[H])c([H])c(C([H])([H])[H])c4C([H])([H])C3([H])[H])c([H])c([H])c2C1([H])[H]

>  <smiles>  (70) 
[H]c1c([H])c([H])c2c(c1[H])C([H])([H])C([H])([H])C([H])([H])C2([H])N([H])C(=O)C1([H])N(C(=O)C([H])(N([H])C(=O)C([H])(N([H])C([H])([H])[H])C([H])([H])[H])C(C([H])([H])[H])(C([H])([H])[H])C([H])([H])[H])C([H])([H])c2c([H])c(OC([H])([H])C([H])([H])[N+]3([H])C([H])([H])c4nc(N([H])C(=O)N5C([H])([H])C([H])([H])C([H])([H])C([H])(n6nc(-c7c([H])c([H])c(Oc8c([H])c([H])c(F)c([H])c8F)c([H])c7[H])c(C(=O)N([H])[H])c6N([H])[H])C5([H])[H])c([H])c(C([H])([H])[H])c4C([H])([H])C3([H])[H])c([H])c([H])c2C1([H])[H]

$$$$
70:0:0
     RDKit          3D

100109  0  0  1  0  0  0  0  0999 V2000
  -31.8810  -18.8970   20.1340 C   0  0  0  0  0  3  0  0  0  0  0  0
  -31.6230  -17.5140   20.2270 C   0  0  0  0  0  3  0  0  0  0  0  0
  -29.5050  -19.3170   20.0240 C   0  0  0  0  0  3  0  0  0  0  0  0
  -29.2270  -17.9240   20.0070 C   0  0  0  0  0  0  0  0  0  0  0  0
  -30.8210  -19.8190   20.0540 C   0  0  0  0  0  0  0  0  0  0  0  0
  -30.2990  -16.9890   20.1900 C   0  0  0  0  0  0  0  0  0  0  0  0
  -30.7640  -14.4900   19.9520 C   0  0  0  0  0  0  0  0  0  0  0  0
  -30.4480  -12.2570   18.9550 C   0  0  0  0  0  2  0  0  0  0  0  0
  -29.4650  -12.3740   17.7700 C   0  0  0  0  0  2  0  0  0  0  0  0
  -28.0120  -12.2530   18.2620 C   0  0  0  0  0  2  0  0  0  0  0  0
  -27.7070  -13.1600   19.4840 C   0  0  0  0  0  3  0  0  0  0  0  0
  -28.8020  -13.0250   20.5670 C   0  0  0  0  0  2  0  0  0  0  0  0
  -30.0970  -13.3030   19.9310 N   0  0  0  0  0  0  0  0  0  0  0  0
  -31.9100  -14.5870   19.5140 O   0  0  0  0  0  0  0  0  0  0  0  0
  -30.0250  -15.5720   20.3180 N   0  0  0  0  0  0  0  0  0  0  0  0
  -29.1200  -15.3320   20.6900 H   0  0  0  0  0  0  0  0  0  0  0  0
  -25.3540  -13.7870   20.2970 C   0  0  0  0  0  0  0  0  0  0  0  0
  -24.2940  -13.0300   20.7160 C   0  0  0  0  0  0  0  0  0  0  0  0
  -24.7380  -11.6730   20.6580 C   0  0  0  0  0  0  0  0  0  0  0  0
  -26.3760  -12.8970   20.0230 N   0  0  0  0  0  0  0  0  0  0  0  0
  -26.0140  -11.6190   20.2970 N   0  0  0  0  0  0  0  0  0  0  0  0
  -24.0020  -10.4210   20.8630 C   0  0  0  0  0  0  0  0  0  0  0  0
  -24.3790   -9.5000   21.8640 C   0  0  0  0  0  3  0  0  0  0  0  0
  -23.6470   -8.3100   22.0550 C   0  0  0  0  0  3  0  0  0  0  0  0
  -22.5210   -8.0330   21.2430 C   0  0  0  0  0  0  0  0  0  0  0  0
  -22.1630   -8.9410   20.2300 C   0  0  0  0  0  3  0  0  0  0  0  0
  -22.8980  -10.1230   20.0390 C   0  0  0  0  0  3  0  0  0  0  0  0
  -21.7620   -6.8910   21.3430 O   0  0  0  0  0  0  0  0  0  0  0  0
  -21.5460   -6.2730   22.5500 C   0  0  0  0  0  0  0  0  0  0  0  0
  -20.9090   -6.9370   23.6220 C   0  0  0  0  0  3  0  0  0  0  0  0
  -20.6400   -6.2420   24.8180 C   0  0  0  0  0  3  0  0  0  0  0  0
  -21.0020   -4.8870   24.9450 C   0  0  0  0  0  0  0  0  0  0  0  0
  -21.6320   -4.2260   23.8770 C   0  0  0  0  0  3  0  0  0  0  0  0
  -21.9010   -4.9160   22.6820 C   0  0  0  0  0  0  0  0  0  0  0  0
  -22.4900   -4.2670   21.6470 F   0  0  0  0  0  0  0  0  0  0  0  0
  -20.7380   -4.2180   26.0920 F   0  0  0  0  0  0  0  0  0  0  0  0
  -22.9170  -13.5260   21.0460 C   0  0  0  0  0  0  0  0  0  0  0  0
  -22.2210  -12.8390   21.9470 N   0  0  0  0  0  0  0  0  0  0  0  0
  -22.4690  -14.5570   20.5470 O   0  0  0  0  0  0  0  0  0  0  0  0
  -22.6010  -12.0050   22.3720 H   0  0  0  0  0  0  0  0  0  0  0  0
  -21.2970  -13.1460   22.2140 H   0  0  0  0  0  0  0  0  0  0  0  0
  -25.5300  -15.1480   20.0910 N   0  0  0  0  0  0  0  0  0  0  0  0
  -24.6970  -15.7200   20.0190 H   0  0  0  0  0  0  0  0  0  0  0  0
  -26.2840  -15.4840   19.5090 H   0  0  0  0  0  0  0  0  0  0  0  0
  -26.8810  -17.5810   20.9950 C   0  0  0  0  0  2  0  0  0  0  0  0
  -27.1210  -18.3070   18.5790 C   0  0  0  0  0  2  0  0  0  0  0  0
  -25.4270  -17.1840   20.6710 C   0  0  0  0  0  2  0  0  0  0  0  0
  -25.6240  -18.0030   18.3560 C   0  0  0  0  0  2  0  0  0  0  0  0
  -27.7710  -17.4950   19.7380 C   0  0  0  0  0  3  0  0  0  0  0  0
  -24.8590  -18.0510   19.6180 N   0  0  0  0  0  4  0  0  0  0  0  0
  -24.8120  -19.0000   19.9500 H   0  0  0  0  0  0  0  0  0  0  0  0
  -23.9120  -17.7650   19.4290 H   0  0  0  0  0  0  0  0  0  0  0  0
  -31.1170  -21.3280   20.0510 C   0  0  0  0  0  2  0  0  0  0  0  0
  -30.0550  -22.1820   19.4570 N   0  0  0  0  0  4  0  0  0  0  0  0
  -29.2110  -22.0410   19.9870 H   0  0  0  0  0  0  0  0  0  0  0  0
  -29.8880  -21.8760   18.5140 H   0  0  0  0  0  0  0  0  0  0  0  0
  -30.3800  -23.6350   19.4490 C   0  0  0  0  0  2  0  0  0  0  0  0
  -29.3640  -24.5440   20.1950 C   0  0  0  0  0  2  0  0  0  0  0  0
  -28.2960  -25.2800   19.3420 C   0  0  0  0  0  2  0  0  0  0  0  0
  -28.2600  -26.6610   19.7360 O   0  0  0  0  0  0  0  0  0  0  0  0
  -24.6160  -31.6630   23.2080 C   0  0  0  0  0  0  0  0  0  0  0  0
  -27.0750  -27.3720   19.7700 C   0  0  0  0  0  0  0  0  0  0  0  0
  -23.3380  -30.4190   21.4870 C   0  0  0  0  0  3  0  0  0  0  0  0
  -24.7200  -28.9430   19.9290 C   0  0  0  0  0  0  0  0  0  0  0  0
  -25.8690  -30.7100   21.2770 C   0  0  0  0  0  2  0  0  0  0  0  0
  -25.9000  -29.3880   20.5350 C   0  0  0  0  0  0  0  0  0  0  0  0
  -27.0750  -28.6100   20.4540 C   0  0  0  0  0  3  0  0  0  0  0  0
  -25.8780  -26.9410   19.1530 C   0  0  0  0  0  3  0  0  0  0  0  0
  -24.7040  -27.7190   19.2330 C   0  0  0  0  0  3  0  0  0  0  0  0
  -23.5050  -29.8340   20.0570 C   0  0  0  0  0  2  0  0  0  0  0  0
  -24.6260  -30.9400   22.0500 N   0  0  0  0  0  0  0  0  0  0  0  0
  -23.5550  -31.9310   23.7870 O   0  0  0  0  0  0  0  0  0  0  0  0
  -22.6690  -29.3540   22.3850 C   0  0  0  0  0  0  0  0  0  0  0  0
  -21.3370  -29.2380   22.2860 N   0  0  0  0  0  0  0  0  0  0  0  0
  -23.3460  -28.6350   23.1240 O   0  0  0  0  0  0  0  0  0  0  0  0
  -20.8520  -29.8640   21.6610 H   0  0  0  0  0  0  0  0  0  0  0  0
  -17.9330  -28.1300   22.7640 C   0  0  0  0  0  0  0  0  0  0  0  0
  -20.5020  -28.2780   23.0070 C   0  0  0  0  0  3  0  0  0  0  0  0
  -20.5450  -26.8910   22.3270 C   0  0  0  0  0  2  0  0  0  0  0  0
  -19.4170  -26.6790   21.3130 C   0  0  0  0  0  2  0  0  0  0  0  0
  -18.0510  -26.8260   21.9930 C   0  0  0  0  0  2  0  0  0  0  0  0
  -19.0840  -28.8200   23.2260 C   0  0  0  0  0  0  0  0  0  0  0  0
  -18.9260  -30.0460   23.9050 C   0  0  0  0  0  3  0  0  0  0  0  0
  -17.6450  -30.5820   24.1340 C   0  0  0  0  0  3  0  0  0  0  0  0
  -16.5040  -29.8840   23.6940 C   0  0  0  0  0  3  0  0  0  0  0  0
  -16.6490  -28.6630   23.0130 C   0  0  0  0  0  3  0  0  0  0  0  0
  -25.9360  -32.2070   23.8410 C   0  0  0  0  0  3  0  0  0  0  0  0
  -25.6830  -33.5840   24.2840 N   0  0  0  0  0  0  0  0  0  0  0  0
  -26.0440  -34.6790   23.6020 C   0  0  0  0  0  0  0  0  0  0  0  0
  -26.7010  -34.6340   22.5580 O   0  0  0  0  0  0  0  0  0  0  0  0
  -25.1060  -33.6960   25.1050 H   0  0  0  0  0  0  0  0  0  0  0  0
  -24.3770  -36.5490   23.4010 C   0  0  0  0  0  1  0  0  0  0  0  0
  -25.6070  -36.0430   24.1700 C   0  0  0  0  0  3  0  0  0  0  0  0
  -27.7710  -36.7920   25.0530 C   0  0  0  0  0  1  0  0  0  0  0  0
  -26.6740  -37.0640   24.1290 N   0  0  0  0  0  0  0  0  0  0  0  0
  -26.3010  -37.9830   24.3530 H   0  0  0  0  0  0  0  0  0  0  0  0
  -26.4580  -31.3250   25.0400 C   0  0  1  0  0  0  0  0  0  0  0  0
  -25.3870  -31.0500   26.1200 C   0  0  0  0  0  1  0  0  0  0  0  0
  -26.9760  -29.9620   24.5300 C   0  0  0  0  0  1  0  0  0  0  0  0
  -27.6560  -32.0210   25.7230 C   0  0  0  0  0  1  0  0  0  0  0  0
  1  2  1  0
  3  5  1  0
  4  3  2  0
  4  6  1  0
  5  1  2  0
  6  2  2  0
  6 15  1  0
  7 15  1  0
  8 13  1  0
  9 10  1  0
  9  8  1  0
 11 10  1  0
 11 20  1  0
 11 12  1  0
 13  7  1  0
 13 12  1  0
 14  7  2  0
 15 16  1  0
 17 18  2  0
 18 37  1  0
 19 18  1  0
 19 22  1  0
 20 17  1  0
 20 21  1  0
 21 19  2  0
 22 23  1  0
 23 24  2  0
 25 28  1  0
 25 24  1  0
 26 25  2  0
 27 26  1  0
 27 22  2  0
 28 29  1  0
 29 34  2  0
 29 30  1  0
 30 31  2  0
 31 32  1  0
 32 36  1  0
 33 32  2  0
 34 33  1  0
 35 34  1  0
 37 38  1  0
 38 41  1  0
 38 40  1  0
 39 37  2  0
 42 17  1  0
 43 42  1  0
 44 42  1  0
 46 49  1  0
 47 45  1  0
 48 46  1  0
 48 50  1  0
 49  4  1  0
 49 45  1  0
 50 51  1  0
 50 47  1  0
 52 50  1  0
 53  5  1  0
 54 55  1  0
 54 53  1  0
 56 54  1  0
 57 54  1  0
 57 58  1  0
 59 60  1  0
 59 58  1  0
 60 62  1  0
 61 72  2  0
 62 67  1  0
 63 71  1  0
 63 73  1  0
 64 70  1  0
 64 66  1  0
 65 71  1  0
 66 65  1  0
 67 66  2  0
 68 69  1  0
 68 62  2  0
 69 64  2  0
 70 63  1  0
 71 61  1  0
 73 75  2  0
 74 73  1  0
 76 74  1  0
 77 86  2  0
 77 82  1  0
 78 74  1  0
 78 82  1  0
 79 78  1  0
 80 81  1  0
 80 79  1  0
 81 77  1  0
 82 83  2  0
 83 84  1  0
 85 84  2  0
 86 85  1  0
 87 61  1  0
 87 88  1  0
 87 97  1  0
 88 91  1  0
 89 93  1  0
 89 88  1  0
 90 89  2  0
 93 92  1  0
 95 93  1  0
 95 96  1  0
 95 94  1  0
 97100  1  1
 97 98  1  0
 99 97  1  0
M  ISO  4   7 100  15 100  59 101  60 101
M  END
>  <TORSDO>  (71) 
F 22

>  <SCORE>  (71) 
-9.199

>  <name>  (71) 
70

>  <ligand_id>  (71) 
70

>  <original_smiles>  (71) 
[H]c1c([H])c([H])c2c(c1[H])C([H])([H])C([H])([H])C([H])([H])C2([H])N([H])C(=O)C1([H])N(C(=O)C([H])(N([H])C(=O)C([H])(N([H])C([H])([H])[H])C([H])([H])[H])C(C([H])([H])[H])(C([H])([H])[H])C([H])([H])[H])C([H])([H])c2c([H])c(OC([H])([H])C([H])([H])C([H])([H])[N+]([H])([H])C([H])([H])c3c([H])c([H])c(N([H])C(=O)N4C([H])([H])C([H])([H])C([H])([H])C([H])(n5nc(-c6c([H])c([H])c(Oc7c([H])c([H])c(F)c([H])c7F)c([H])c6[H])c(C(=O)N([H])[H])c5N([H])[H])C4([H])[H])c(C4([H])C([H])([H])C([H])([H])[N+]([H])([H])C([H])([H])C4([H])[H])c3[H])c([H])c([H])c2C1([H])[H]

>  <smiles>  (71) 
[H]c1c([H])c([H])c2c(c1[H])C([H])([H])C([H])([H])C([H])([H])C2([H])N([H])C(=O)C1([H])N(C(=O)C([H])(N([H])C(=O)C([H])(N([H])C([H])([H])[H])C([H])([H])[H])C(C([H])([H])[H])(C([H])([H])[H])C([H])([H])[H])C([H])([H])c2c([H])c(OC([H])([H])C([H])([H])C([H])([H])[N+]([H])([H])C([H])([H])c3c([H])c([H])c(N([H])C(=O)N4C([H])([H])C([H])([H])C([H])([H])C([H])(n5nc(-c6c([H])c([H])c(Oc7c([H])c([H])c(F)c([H])c7F)c([H])c6[H])c(C(=O)N([H])[H])c5N([H])[H])C4([H])[H])c(C4([H])C([H])([H])C([H])([H])[N+]([H])([H])C([H])([H])C4([H])[H])c3[H])c([H])c([H])c2C1([H])[H]

$$$$
71:0:0
     RDKit          3D

 96105  0  0  1  0  0  0  0  0999 V2000
  -29.1880  -19.1390   21.8200 C   0  0  0  0  0  2  0  0  0  0  0  0
  -30.2230  -18.1290   21.2600 C   0  0  0  0  0  2  0  0  0  0  0  0
  -29.1920  -19.1750   19.1340 C   0  0  0  0  0  2  0  0  0  0  0  0
  -29.3830  -20.6080   21.3330 C   0  0  0  0  0  3  0  0  0  0  0  0
  -30.0830  -17.8700   19.7380 C   0  0  0  0  0  3  0  0  0  0  0  0
  -29.3420  -20.7440   19.7670 C   0  0  0  0  0  3  0  0  0  0  0  0
  -30.5790  -15.1470   19.4130 C   0  0  0  0  0  0  0  0  0  0  0  0
  -30.4210  -12.7420   18.6030 C   0  0  0  0  0  2  0  0  0  0  0  0
  -29.3710  -12.6050   17.4760 C   0  0  0  0  0  2  0  0  0  0  0  0
  -27.9680  -12.3900   18.0700 C   0  0  0  0  0  2  0  0  0  0  0  0
  -27.6550  -13.3780   19.2240 C   0  0  0  0  0  3  0  0  0  0  0  0
  -28.8150  -13.4740   20.2330 C   0  0  0  0  0  2  0  0  0  0  0  0
  -30.0020  -13.8780   19.4700 N   0  0  0  0  0  0  0  0  0  0  0  0
  -31.7650  -15.2150   19.0750 O   0  0  0  0  0  0  0  0  0  0  0  0
  -29.7760  -16.3200   19.5420 N   0  0  0  0  0  0  0  0  0  0  0  0
  -28.8010  -16.0900   19.6540 H   0  0  0  0  0  0  0  0  0  0  0  0
  -25.4040  -13.9840   20.2670 C   0  0  0  0  0  0  0  0  0  0  0  0
  -24.3680  -13.2200   20.7320 C   0  0  0  0  0  0  0  0  0  0  0  0
  -24.7860  -11.8600   20.5900 C   0  0  0  0  0  0  0  0  0  0  0  0
  -26.3820  -13.0900   19.8680 N   0  0  0  0  0  0  0  0  0  0  0  0
  -26.0300  -11.8050   20.1270 N   0  0  0  0  0  0  0  0  0  0  0  0
  -24.0500  -10.6100   20.8140 C   0  0  0  0  0  0  0  0  0  0  0  0
  -24.5180   -9.6300   21.7160 C   0  0  0  0  0  3  0  0  0  0  0  0
  -23.7840   -8.4430   21.9290 C   0  0  0  0  0  3  0  0  0  0  0  0
  -22.5680   -8.2300   21.2390 C   0  0  0  0  0  0  0  0  0  0  0  0
  -22.1180   -9.1980   20.3250 C   0  0  0  0  0  3  0  0  0  0  0  0
  -22.8510  -10.3760   20.1110 C   0  0  0  0  0  3  0  0  0  0  0  0
  -21.8010   -7.0980   21.3630 O   0  0  0  0  0  0  0  0  0  0  0  0
  -21.7490   -6.3870   22.5330 C   0  0  0  0  0  0  0  0  0  0  0  0
  -21.2910   -6.9660   23.7370 C   0  0  0  0  0  3  0  0  0  0  0  0
  -21.1920   -6.1800   24.9030 C   0  0  0  0  0  3  0  0  0  0  0  0
  -21.5380   -4.8170   24.8660 C   0  0  0  0  0  0  0  0  0  0  0  0
  -21.9850   -4.2370   23.6670 C   0  0  0  0  0  3  0  0  0  0  0  0
  -22.0880   -5.0190   22.5030 C   0  0  0  0  0  0  0  0  0  0  0  0
  -22.5010   -4.4500   21.3450 F   0  0  0  0  0  0  0  0  0  0  0  0
  -21.4330   -4.0600   25.9830 F   0  0  0  0  0  0  0  0  0  0  0  0
  -23.0290  -13.7190   21.1870 C   0  0  0  0  0  0  0  0  0  0  0  0
  -22.3890  -13.0040   22.1070 N   0  0  0  0  0  0  0  0  0  0  0  0
  -22.5620  -14.7760   20.7640 O   0  0  0  0  0  0  0  0  0  0  0  0
  -22.7840  -12.1480   22.4630 H   0  0  0  0  0  0  0  0  0  0  0  0
  -21.4930  -13.3160   22.4560 H   0  0  0  0  0  0  0  0  0  0  0  0
  -25.5840  -15.3570   20.1250 N   0  0  0  0  0  0  0  0  0  0  0  0
  -24.8480  -16.0210   20.3440 H   0  0  0  0  0  0  0  0  0  0  0  0
  -26.3830  -15.7880   19.6810 H   0  0  0  0  0  0  0  0  0  0  0  0
  -30.8550  -22.7230   22.1390 C   0  0  0  0  0  2  0  0  0  0  0  0
  -31.5660  -22.4640   23.4650 C   0  0  0  0  0  2  0  0  0  0  0  0
  -30.6600  -21.2070   21.9760 C   0  0  0  0  0  3  0  0  0  0  0  0
  -30.8900  -21.0860   23.5020 C   0  0  0  0  0  3  0  0  0  0  0  0
  -31.6710  -19.8990   24.0640 C   0  0  0  0  0  1  0  0  0  0  0  0
  -28.4820  -21.9850   19.2090 N   0  0  0  0  0  4  0  0  0  0  0  0
  -27.5540  -21.6260   19.0420 H   0  0  0  0  0  0  0  0  0  0  0  0
  -28.8630  -22.1540   18.2910 H   0  0  0  0  0  0  0  0  0  0  0  0
  -27.0890  -23.4330   20.8350 C   0  0  0  0  0  1  0  0  0  0  0  0
  -28.2860  -23.4440   19.8550 C   0  0  0  0  0  3  0  0  0  0  0  0
  -28.0330  -24.8390   18.9460 C   0  0  0  0  0  2  0  0  0  0  0  0
  -28.0420  -26.3130   19.4670 O   0  0  0  0  0  0  0  0  0  0  0  0
  -24.4840  -31.6830   23.0190 C   0  0  0  0  0  0  0  0  0  0  0  0
  -26.9450  -27.2470   19.5080 C   0  0  0  0  0  0  0  0  0  0  0  0
  -23.2090  -30.3910   21.3490 C   0  0  0  0  0  3  0  0  0  0  0  0
  -24.5920  -28.9420   19.7370 C   0  0  0  0  0  0  0  0  0  0  0  0
  -25.7450  -30.7030   21.0680 C   0  0  0  0  0  2  0  0  0  0  0  0
  -25.7960  -29.3650   20.3130 C   0  0  0  0  0  0  0  0  0  0  0  0
  -26.9680  -28.5300   20.1900 C   0  0  0  0  0  3  0  0  0  0  0  0
  -25.7070  -26.9220   18.9060 C   0  0  0  0  0  3  0  0  0  0  0  0
  -24.5590  -27.7340   19.0240 C   0  0  0  0  0  3  0  0  0  0  0  0
  -23.3590  -29.8130   19.9170 C   0  0  0  0  0  2  0  0  0  0  0  0
  -24.5020  -30.9440   21.8670 N   0  0  0  0  0  0  0  0  0  0  0  0
  -23.4260  -31.9130   23.6260 O   0  0  0  0  0  0  0  0  0  0  0  0
  -22.5940  -29.3100   22.2740 C   0  0  0  0  0  0  0  0  0  0  0  0
  -21.2670  -29.1010   22.1770 N   0  0  0  0  0  0  0  0  0  0  0  0
  -23.3100  -28.6630   23.0410 O   0  0  0  0  0  0  0  0  0  0  0  0
  -20.7430  -29.6800   21.5370 H   0  0  0  0  0  0  0  0  0  0  0  0
  -17.9530  -27.7320   22.6800 C   0  0  0  0  0  0  0  0  0  0  0  0
  -20.5020  -28.0960   22.9190 C   0  0  0  0  0  3  0  0  0  0  0  0
  -20.6560  -26.6970   22.2780 C   0  0  0  0  0  2  0  0  0  0  0  0
  -19.5530  -26.3700   21.2670 C   0  0  0  0  0  2  0  0  0  0  0  0
  -18.1770  -26.4250   21.9390 C   0  0  0  0  0  2  0  0  0  0  0  0
  -19.0440  -28.5250   23.1270 C   0  0  0  0  0  0  0  0  0  0  0  0
  -18.7820  -29.7450   23.7820 C   0  0  0  0  0  3  0  0  0  0  0  0
  -17.4600  -30.1780   23.9980 C   0  0  0  0  0  3  0  0  0  0  0  0
  -16.3830  -29.3830   23.5690 C   0  0  0  0  0  3  0  0  0  0  0  0
  -16.6300  -28.1630   22.9140 C   0  0  0  0  0  3  0  0  0  0  0  0
  -25.7880  -32.2900   23.6170 C   0  0  0  0  0  3  0  0  0  0  0  0
  -26.3520  -31.4670   24.8420 C   0  0  1  0  0  0  0  0  0  0  0  0
  -25.2980  -31.1950   25.9410 C   0  0  0  0  0  1  0  0  0  0  0  0
  -26.9100  -30.1020   24.3800 C   0  0  0  0  0  1  0  0  0  0  0  0
  -27.5300  -32.2320   25.4890 C   0  0  0  0  0  1  0  0  0  0  0  0
  -25.4910  -33.6730   24.0270 N   0  0  0  0  0  0  0  0  0  0  0  0
  -25.8100  -34.7650   23.3210 C   0  0  0  0  0  0  0  0  0  0  0  0
  -26.4490  -34.7130   22.2650 O   0  0  0  0  0  0  0  0  0  0  0  0
  -24.9170  -33.7870   24.8490 H   0  0  0  0  0  0  0  0  0  0  0  0
  -24.0770  -36.5830   23.1260 C   0  0  0  0  0  1  0  0  0  0  0  0
  -25.3450  -36.1310   23.8670 C   0  0  0  0  0  3  0  0  0  0  0  0
  -27.5060  -36.9730   24.6730 C   0  0  0  0  0  1  0  0  0  0  0  0
  -26.3770  -37.1860   23.7710 N   0  0  0  0  0  0  0  0  0  0  0  0
  -25.9790  -38.0990   23.9730 H   0  0  0  0  0  0  0  0  0  0  0  0
  2  1  1  0
  3  5  1  0
  3  6  1  0
  4  1  1  0
  4 47  1  0
  5 15  1  0
  5  2  1  0
  6 50  1  0
  6  4  1  0
  7 13  1  0
  7 15  1  0
  8 13  1  0
  9 10  1  0
  9  8  1  0
 11 10  1  0
 11 20  1  0
 11 12  1  0
 13 12  1  0
 14  7  2  0
 15 16  1  0
 17 18  2  0
 18 37  1  0
 19 18  1  0
 19 22  1  0
 20 21  1  0
 20 17  1  0
 21 19  2  0
 22 23  1  0
 23 24  2  0
 25 28  1  0
 25 24  1  0
 26 25  2  0
 27 26  1  0
 27 22  2  0
 28 29  1  0
 29 30  1  0
 30 31  2  0
 32 31  1  0
 32 36  1  0
 33 32  2  0
 34 29  2  0
 34 33  1  0
 35 34  1  0
 37 38  1  0
 38 41  1  0
 38 40  1  0
 39 37  2  0
 42 17  1  0
 42 43  1  0
 44 42  1  0
 45 46  1  0
 46 48  1  0
 47 45  1  0
 47 48  1  0
 48 49  1  0
 50 54  1  0
 51 50  1  0
 52 50  1  0
 54 53  1  0
 55 56  1  0
 55 54  1  0
 56 58  1  0
 57 68  2  0
 58 63  1  0
 59 67  1  0
 59 69  1  0
 60 66  1  0
 60 62  1  0
 61 67  1  0
 62 61  1  0
 63 62  2  0
 64 65  1  0
 64 58  2  0
 65 60  2  0
 66 59  1  0
 67 57  1  0
 69 71  2  0
 70 69  1  0
 72 70  1  0
 73 82  2  0
 73 78  1  0
 74 70  1  0
 74 78  1  0
 75 74  1  0
 76 77  1  0
 76 75  1  0
 77 73  1  0
 78 79  2  0
 79 80  1  0
 81 80  2  0
 82 81  1  0
 83 57  1  0
 83 88  1  0
 83 84  1  0
 84 87  1  1
 84 85  1  0
 86 84  1  0
 88 91  1  0
 89 93  1  0
 89 88  1  0
 90 89  2  0
 93 92  1  0
 95 93  1  0
 95 96  1  0
 95 94  1  0
M  ISO  4   7 100  15 100  55 101  56 101
M  END
>  <TORSDO>  (72) 
F 20

>  <SCORE>  (72) 
-10.819

>  <name>  (72) 
71

>  <ligand_id>  (72) 
71

>  <original_smiles>  (72) 
[H]c1c([H])c([H])c2c(c1[H])C([H])([H])C([H])([H])C([H])([H])C2([H])N([H])C(=O)C1([H])N(C(=O)C([H])(N([H])C(=O)C([H])(N([H])C([H])([H])[H])C([H])([H])[H])C(C([H])([H])[H])(C([H])([H])[H])C([H])([H])[H])C([H])([H])c2c([H])c(OC([H])([H])C([H])(C([H])([H])[H])[N+]([H])([H])C3([H])C([H])([H])C([H])(N([H])C(=O)N4C([H])([H])C([H])([H])C([H])([H])C([H])(n5nc(-c6c([H])c([H])c(Oc7c([H])c([H])c(F)c([H])c7F)c([H])c6[H])c(C(=O)N([H])[H])c5N([H])[H])C4([H])[H])C([H])([H])C([H])([H])C3([H])C3([H])C([H])([H])C([H])([H])C3([H])C([H])([H])[H])c([H])c([H])c2C1([H])[H]

>  <smiles>  (72) 
[H]c1c([H])c([H])c2c(c1[H])C([H])([H])C([H])([H])C([H])([H])C2([H])N([H])C(=O)C1([H])N(C(=O)C([H])(N([H])C(=O)C([H])(N([H])C([H])([H])[H])C([H])([H])[H])C(C([H])([H])[H])(C([H])([H])[H])C([H])([H])[H])C([H])([H])c2c([H])c(OC([H])([H])C([H])(C([H])([H])[H])[N+]([H])([H])C3([H])C([H])([H])C([H])(N([H])C(=O)N4C([H])([H])C([H])([H])C([H])([H])C([H])(n5nc(-c6c([H])c([H])c(Oc7c([H])c([H])c(F)c([H])c7F)c([H])c6[H])c(C(=O)N([H])[H])c5N([H])[H])C4([H])[H])C([H])([H])C([H])([H])C3([H])C3([H])C([H])([H])C([H])([H])C3([H])C([H])([H])[H])c([H])c([H])c2C1([H])[H]

$$$$
72:0:0
     RDKit          3D

 97105  0  0  1  0  0  0  0  0999 V2000
  -29.8800  -20.0950   20.6130 C   0  0  0  0  0  3  0  0  0  0  0  0
  -32.3170  -20.5280   20.6390 C   0  0  0  0  0  3  0  0  0  0  0  0
  -31.2010  -20.3680   19.8900 C   0  0  0  0  0  0  0  0  0  0  0  0
  -33.7120  -20.7620   20.2060 C   0  0  0  0  0  0  0  0  0  0  0  0
  -31.1060  -20.4410   18.3590 C   0  0  0  0  0  2  0  0  0  0  0  0
  -32.3120  -21.0210   17.5950 C   0  0  0  0  0  2  0  0  0  0  0  0
  -33.0880  -22.1010   18.3620 C   0  0  0  0  0  2  0  0  0  0  0  0
  -34.7570  -20.0950   21.0710 C   0  0  0  0  0  1  0  0  0  0  0  0
  -34.0770  -21.4800   19.2190 N   0  0  0  0  0  0  0  0  0  0  0  0
  -28.8890  -21.2230   20.4080 N   0  0  0  0  0  0  0  0  0  0  0  0
  -28.3750  -21.0500   19.5470 H   0  0  0  0  0  0  0  0  0  0  0  0
  -29.3720  -22.6550   20.3780 C   0  0  0  0  0  2  0  0  0  0  0  0
  -28.3140  -23.8610   20.5120 C   0  0  0  0  0  2  0  0  0  0  0  0
  -28.5820  -25.2230   19.7060 C   0  0  0  0  0  2  0  0  0  0  0  0
  -28.3910  -26.5640   20.3050 O   0  0  0  0  0  0  0  0  0  0  0  0
  -24.5780  -31.8980   23.2340 C   0  0  0  0  0  0  0  0  0  0  0  0
  -27.2270  -27.3400   20.2090 C   0  0  0  0  0  0  0  0  0  0  0  0
  -23.3770  -30.4760   21.6060 C   0  0  0  0  0  3  0  0  0  0  0  0
  -24.8370  -28.9160   20.1880 C   0  0  0  0  0  0  0  0  0  0  0  0
  -25.9090  -30.8120   21.4100 C   0  0  0  0  0  2  0  0  0  0  0  0
  -25.9970  -29.4280   20.7780 C   0  0  0  0  0  0  0  0  0  0  0  0
  -27.1900  -28.6490   20.7810 C   0  0  0  0  0  3  0  0  0  0  0  0
  -26.0460  -26.8690   19.5960 C   0  0  0  0  0  3  0  0  0  0  0  0
  -24.8640  -27.6410   19.5900 C   0  0  0  0  0  3  0  0  0  0  0  0
  -23.5910  -29.7790   20.2330 C   0  0  0  0  0  2  0  0  0  0  0  0
  -24.6400  -31.0810   22.1400 N   0  0  0  0  0  0  0  0  0  0  0  0
  -23.4950  -32.1750   23.7700 O   0  0  0  0  0  0  0  0  0  0  0  0
  -22.7230  -29.4680   22.5790 C   0  0  0  0  0  0  0  0  0  0  0  0
  -21.3990  -29.2770   22.4520 N   0  0  0  0  0  0  0  0  0  0  0  0
  -23.4060  -28.8600   23.4060 O   0  0  0  0  0  0  0  0  0  0  0  0
  -20.9080  -29.8250   21.7590 H   0  0  0  0  0  0  0  0  0  0  0  0
  -18.0350  -28.0430   22.9430 C   0  0  0  0  0  0  0  0  0  0  0  0
  -20.5870  -28.3390   23.2270 C   0  0  0  0  0  3  0  0  0  0  0  0
  -20.7110  -26.9000   22.6710 C   0  0  0  0  0  2  0  0  0  0  0  0
  -19.6210  -26.5510   21.6520 C   0  0  0  0  0  2  0  0  0  0  0  0
  -18.2330  -26.6870   22.2840 C   0  0  0  0  0  2  0  0  0  0  0  0
  -19.1410  -28.8250   23.3700 C   0  0  0  0  0  0  0  0  0  0  0  0
  -18.9020  -30.0940   23.9420 C   0  0  0  0  0  3  0  0  0  0  0  0
  -17.5890  -30.5800   24.0930 C   0  0  0  0  0  3  0  0  0  0  0  0
  -16.4990  -29.7950   23.6830 C   0  0  0  0  0  3  0  0  0  0  0  0
  -16.7220  -28.5280   23.1140 C   0  0  0  0  0  3  0  0  0  0  0  0
  -25.8600  -32.5390   23.8490 C   0  0  0  0  0  3  0  0  0  0  0  0
  -25.5420  -33.9370   24.1780 N   0  0  0  0  0  0  0  0  0  0  0  0
  -25.8700  -34.9930   23.4200 C   0  0  0  0  0  0  0  0  0  0  0  0
  -26.5410  -34.8920   22.3890 O   0  0  0  0  0  0  0  0  0  0  0  0
  -24.9480  -34.0890   24.9800 H   0  0  0  0  0  0  0  0  0  0  0  0
  -24.1340  -36.7780   23.0600 C   0  0  0  0  0  1  0  0  0  0  0  0
  -25.3740  -36.3780   23.8760 C   0  0  0  0  0  3  0  0  0  0  0  0
  -27.5060  -37.2670   24.7100 C   0  0  0  0  0  1  0  0  0  0  0  0
  -26.4000  -37.4380   23.7710 N   0  0  0  0  0  0  0  0  0  0  0  0
  -25.9880  -38.3540   23.9290 H   0  0  0  0  0  0  0  0  0  0  0  0
  -26.3870  -31.7770   25.1280 C   0  0  1  0  0  0  0  0  0  0  0  0
  -25.2990  -31.5340   26.2030 C   0  0  0  0  0  1  0  0  0  0  0  0
  -26.9800  -30.4030   24.7380 C   0  0  0  0  0  1  0  0  0  0  0  0
  -27.5360  -32.5820   25.7820 C   0  0  0  0  0  1  0  0  0  0  0  0
  -29.3470  -18.5790   20.4040 C   0  0  0  0  0  2  0  0  0  0  0  0
  -30.3530  -17.4300   20.2410 N   0  0  0  0  0  4  0  0  0  0  0  0
  -31.2350  -17.6960   20.6460 H   0  0  0  0  0  0  0  0  0  0  0  0
  -30.5230  -17.3150   19.2530 H   0  0  0  0  0  0  0  0  0  0  0  0
  -30.2970  -16.0190   22.3090 C   0  0  0  0  0  1  0  0  0  0  0  0
  -30.0140  -16.0420   20.7930 C   0  0  0  0  0  3  0  0  0  0  0  0
  -30.7120  -14.7740   20.1020 C   0  0  0  0  0  0  0  0  0  0  0  0
  -30.4380  -12.5750   18.9360 C   0  0  0  0  0  2  0  0  0  0  0  0
  -29.4340  -12.7410   17.7690 C   0  0  0  0  0  2  0  0  0  0  0  0
  -27.9790  -12.5760   18.2530 C   0  0  0  0  0  2  0  0  0  0  0  0
  -27.6860  -13.3900   19.5390 C   0  0  0  0  0  3  0  0  0  0  0  0
  -28.7930  -13.1840   20.5930 C   0  0  0  0  0  2  0  0  0  0  0  0
  -30.0790  -13.5570   19.9830 N   0  0  0  0  0  0  0  0  0  0  0  0
  -31.8310  -14.9340   19.6020 O   0  0  0  0  0  0  0  0  0  0  0  0
  -25.3300  -13.9780   20.3800 C   0  0  0  0  0  0  0  0  0  0  0  0
  -24.2820  -13.1980   20.7880 C   0  0  0  0  0  0  0  0  0  0  0  0
  -24.7440  -11.8480   20.7170 C   0  0  0  0  0  0  0  0  0  0  0  0
  -26.3620  -13.1010   20.0820 N   0  0  0  0  0  0  0  0  0  0  0  0
  -26.0190  -11.8140   20.3500 N   0  0  0  0  0  0  0  0  0  0  0  0
  -24.0270  -10.5830   20.9220 C   0  0  0  0  0  0  0  0  0  0  0  0
  -24.4730   -9.6220   21.8570 C   0  0  0  0  0  3  0  0  0  0  0  0
  -23.7550   -8.4230   22.0480 C   0  0  0  0  0  3  0  0  0  0  0  0
  -22.5780   -8.1740   21.3020 C   0  0  0  0  0  0  0  0  0  0  0  0
  -22.1520   -9.1230   20.3570 C   0  0  0  0  0  3  0  0  0  0  0  0
  -22.8700  -10.3150   20.1640 C   0  0  0  0  0  3  0  0  0  0  0  0
  -21.8290   -7.0260   21.4030 O   0  0  0  0  0  0  0  0  0  0  0  0
  -21.7590   -6.3140   22.5740 C   0  0  0  0  0  0  0  0  0  0  0  0
  -21.3070   -6.9000   23.7770 C   0  0  0  0  0  3  0  0  0  0  0  0
  -21.1830   -6.1140   24.9400 C   0  0  0  0  0  3  0  0  0  0  0  0
  -21.5010   -4.7430   24.9010 C   0  0  0  0  0  0  0  0  0  0  0  0
  -21.9460   -4.1580   23.7040 C   0  0  0  0  0  3  0  0  0  0  0  0
  -22.0720   -4.9410   22.5430 C   0  0  0  0  0  0  0  0  0  0  0  0
  -22.4810   -4.3660   21.3850 F   0  0  0  0  0  0  0  0  0  0  0  0
  -21.3770   -3.9870   26.0170 F   0  0  0  0  0  0  0  0  0  0  0  0
  -22.8960  -13.6690   21.1260 C   0  0  0  0  0  0  0  0  0  0  0  0
  -22.2100  -12.9680   22.0210 N   0  0  0  0  0  0  0  0  0  0  0  0
  -22.4320  -14.6960   20.6320 O   0  0  0  0  0  0  0  0  0  0  0  0
  -22.5990  -12.1390   22.4420 H   0  0  0  0  0  0  0  0  0  0  0  0
  -21.2830  -13.2650   22.2900 H   0  0  0  0  0  0  0  0  0  0  0  0
  -25.4830  -15.3520   20.2130 N   0  0  0  0  0  0  0  0  0  0  0  0
  -24.7170  -15.9960   20.3750 H   0  0  0  0  0  0  0  0  0  0  0  0
  -26.2920  -15.7980   19.8010 H   0  0  0  0  0  0  0  0  0  0  0  0
  1 56  1  0
  3  1  1  0
  3  2  2  0
  4  2  1  0
  4  8  1  0
  5  3  1  0
  6  5  1  0
  6  7  1  0
  7  9  1  0
  9  4  2  0
 10  1  1  0
 11 10  1  0
 12 10  1  0
 12 13  1  0
 14 15  1  0
 14 13  1  0
 16 27  2  0
 17 15  1  0
 17 22  1  0
 18 26  1  0
 18 28  1  0
 19 25  1  0
 19 21  1  0
 20 26  1  0
 21 22  2  0
 21 20  1  0
 23 17  2  0
 24 23  1  0
 24 19  2  0
 25 18  1  0
 26 16  1  0
 28 30  2  0
 29 28  1  0
 31 29  1  0
 32 41  2  0
 32 37  1  0
 33 29  1  0
 33 37  1  0
 34 33  1  0
 35 36  1  0
 35 34  1  0
 36 32  1  0
 37 38  2  0
 38 39  1  0
 40 39  2  0
 41 40  1  0
 42 16  1  0
 42 43  1  0
 42 52  1  0
 43 46  1  0
 44 48  1  0
 44 43  1  0
 45 44  2  0
 48 47  1  0
 50 48  1  0
 50 51  1  0
 50 49  1  0
 52 55  1  1
 52 53  1  0
 54 52  1  0
 57 56  1  0
 57 58  1  0
 57 61  1  0
 59 57  1  0
 61 60  1  0
 62 61  1  0
 63 68  1  0
 64 65  1  0
 64 63  1  0
 66 65  1  0
 66 73  1  0
 66 67  1  0
 68 62  1  0
 68 67  1  0
 69 62  2  0
 70 71  2  0
 71 90  1  0
 72 71  1  0
 72 75  1  0
 73 74  1  0
 73 70  1  0
 74 72  2  0
 75 76  1  0
 76 77  2  0
 78 81  1  0
 78 77  1  0
 79 78  2  0
 80 79  1  0
 80 75  2  0
 81 82  1  0
 82 83  1  0
 83 84  2  0
 85 84  1  0
 85 89  1  0
 86 85  2  0
 87 82  2  0
 87 86  1  0
 88 87  1  0
 90 91  1  0
 91 94  1  0
 91 93  1  0
 92 90  2  0
 95 96  1  0
 95 70  1  0
 97 95  1  0
M  ISO  4  14 101  15 101  61 100  62 100
M  END
>  <TORSDO>  (73) 
F 24

>  <SCORE>  (73) 
-12.268

>  <name>  (73) 
72

>  <ligand_id>  (73) 
72

>  <original_smiles>  (73) 
[H]C1=C(C([H])(N([H])C([H])([H])C([H])([H])C([H])([H])Oc2c([H])c([H])c3c(c2[H])C([H])([H])N(C(=O)C([H])(N([H])C(=O)C([H])(N([H])C([H])([H])[H])C([H])([H])[H])C(C([H])([H])[H])(C([H])([H])[H])C([H])([H])[H])C([H])(C(=O)N([H])C2([H])c4c([H])c([H])c([H])c([H])c4C([H])([H])C([H])([H])C2([H])[H])C3([H])[H])C([H])([H])[N+]([H])([H])C([H])(C(=O)N2C([H])([H])C([H])([H])C([H])([H])C([H])(n3nc(-c4c([H])c([H])c(Oc5c([H])c([H])c(F)c([H])c5F)c([H])c4[H])c(C(=O)N([H])[H])c3N([H])[H])C2([H])[H])C([H])([H])[H])C([H])([H])C([H])([H])C([H])([H])N=C1C([H])([H])[H]

>  <smiles>  (73) 
[H]C1=C(C([H])(N([H])C([H])([H])C([H])([H])C([H])([H])Oc2c([H])c([H])c3c(c2[H])C([H])([H])N(C(=O)C([H])(N([H])C(=O)C([H])(N([H])C([H])([H])[H])C([H])([H])[H])C(C([H])([H])[H])(C([H])([H])[H])C([H])([H])[H])C([H])(C(=O)N([H])C2([H])c4c([H])c([H])c([H])c([H])c4C([H])([H])C([H])([H])C2([H])[H])C3([H])[H])C([H])([H])[N+]([H])([H])C([H])(C(=O)N2C([H])([H])C([H])([H])C([H])([H])C([H])(n3nc(-c4c([H])c([H])c(Oc5c([H])c([H])c(F)c([H])c5F)c([H])c4[H])c(C(=O)N([H])[H])c3N([H])[H])C2([H])[H])C([H])([H])[H])C([H])([H])C([H])([H])C([H])([H])N=C1C([H])([H])[H]

$$$$
73:0:0
     RDKit          3D

 92100  0  0  1  0  0  0  0  0999 V2000
  -30.3910  -20.5180   20.1460 C   0  0  0  0  0  3  0  0  0  0  0  0
  -28.0380  -20.1440   20.6060 C   0  0  0  0  0  3  0  0  0  0  0  0
  -30.1300  -21.8890   19.9240 C   0  0  0  0  0  3  0  0  0  0  0  0
  -27.7780  -21.5100   20.3780 C   0  0  0  0  0  3  0  0  0  0  0  0
  -29.3470  -19.6300   20.4980 C   0  0  0  0  0  0  0  0  0  0  0  0
  -28.8140  -22.4040   20.0360 C   0  0  0  0  0  0  0  0  0  0  0  0
  -29.5530  -18.2610   20.7470 N   0  0  0  0  0  0  0  0  0  0  0  0
  -28.7800  -17.6990   21.0940 H   0  0  0  0  0  0  0  0  0  0  0  0
  -30.8940  -17.6890   20.8280 C   0  0  0  0  0  2  0  0  0  0  0  0
  -30.9500  -16.4710   21.7710 C   0  0  0  0  0  2  0  0  0  0  0  0
  -30.7400  -14.4680   20.2990 C   0  0  0  0  0  0  0  0  0  0  0  0
  -30.3270  -12.4130   18.9910 C   0  0  0  0  0  2  0  0  0  0  0  0
  -29.3290  -12.6790   17.8490 C   0  0  0  0  0  2  0  0  0  0  0  0
  -27.8780  -12.5270   18.3440 C   0  0  0  0  0  2  0  0  0  0  0  0
  -27.6100  -13.3120   19.6550 C   0  0  0  0  0  3  0  0  0  0  0  0
  -28.7080  -13.0200   20.7000 C   0  0  0  0  0  2  0  0  0  0  0  0
  -30.0150  -13.3360   20.0930 N   0  0  0  0  0  0  0  0  0  0  0  0
  -31.7710  -14.7340   19.6760 O   0  0  0  0  0  0  0  0  0  0  0  0
  -30.2650  -15.2920   21.2430 N   0  0  0  0  0  0  0  0  0  0  0  0
  -29.4100  -15.0110   21.7000 H   0  0  0  0  0  0  0  0  0  0  0  0
  -25.2400  -13.9080   20.4660 C   0  0  0  0  0  0  0  0  0  0  0  0
  -24.1870  -13.1290   20.8660 C   0  0  0  0  0  0  0  0  0  0  0  0
  -24.6480  -11.7780   20.7960 C   0  0  0  0  0  0  0  0  0  0  0  0
  -26.2750  -13.0310   20.1810 N   0  0  0  0  0  0  0  0  0  0  0  0
  -25.9250  -11.7440   20.4350 N   0  0  0  0  0  0  0  0  0  0  0  0
  -23.9320  -10.5120   20.9970 C   0  0  0  0  0  0  0  0  0  0  0  0
  -24.3830   -9.5460   21.9230 C   0  0  0  0  0  3  0  0  0  0  0  0
  -23.6680   -8.3440   22.1100 C   0  0  0  0  0  3  0  0  0  0  0  0
  -22.4850   -8.1000   21.3720 C   0  0  0  0  0  0  0  0  0  0  0  0
  -22.0530   -9.0550   20.4340 C   0  0  0  0  0  3  0  0  0  0  0  0
  -22.7700  -10.2470   20.2450 C   0  0  0  0  0  3  0  0  0  0  0  0
  -21.7390   -6.9500   21.4680 O   0  0  0  0  0  0  0  0  0  0  0  0
  -21.6940   -6.2170   22.6270 C   0  0  0  0  0  0  0  0  0  0  0  0
  -21.2440   -6.7740   23.8440 C   0  0  0  0  0  3  0  0  0  0  0  0
  -21.1480   -5.9660   24.9960 C   0  0  0  0  0  3  0  0  0  0  0  0
  -21.4920   -4.6030   24.9300 C   0  0  0  0  0  0  0  0  0  0  0  0
  -21.9350   -4.0460   23.7180 C   0  0  0  0  0  3  0  0  0  0  0  0
  -22.0330   -4.8510   22.5690 C   0  0  0  0  0  0  0  0  0  0  0  0
  -22.4400   -4.3030   21.3980 F   0  0  0  0  0  0  0  0  0  0  0  0
  -21.3920   -3.8250   26.0330 F   0  0  0  0  0  0  0  0  0  0  0  0
  -22.8020  -13.5990   21.2030 C   0  0  0  0  0  0  0  0  0  0  0  0
  -22.1080  -12.8830   22.0800 N   0  0  0  0  0  0  0  0  0  0  0  0
  -22.3450  -14.6360   20.7240 O   0  0  0  0  0  0  0  0  0  0  0  0
  -22.4910  -12.0430   22.4870 H   0  0  0  0  0  0  0  0  0  0  0  0
  -21.1800  -13.1790   22.3480 H   0  0  0  0  0  0  0  0  0  0  0  0
  -25.3960  -15.2800   20.3020 N   0  0  0  0  0  0  0  0  0  0  0  0
  -24.6340  -15.9330   20.4480 H   0  0  0  0  0  0  0  0  0  0  0  0
  -26.2370  -15.7240   19.9520 H   0  0  0  0  0  0  0  0  0  0  0  0
  -28.4630  -23.7250   19.8250 O   0  0  0  0  0  0  0  0  0  0  0  0
  -29.4870  -24.6650   19.4950 C   0  0  0  0  0  2  0  0  0  0  0  0
  -28.8820  -26.0150   19.0610 C   0  0  0  0  0  2  0  0  0  0  0  0
  -28.5140  -26.8250   20.1860 O   0  0  0  0  0  0  0  0  0  0  0  0
  -24.5910  -31.9060   23.2520 C   0  0  0  0  0  0  0  0  0  0  0  0
  -27.3160  -27.5090   20.1630 C   0  0  0  0  0  0  0  0  0  0  0  0
  -23.4140  -30.4990   21.5920 C   0  0  0  0  0  3  0  0  0  0  0  0
  -24.8960  -28.9800   20.1790 C   0  0  0  0  0  0  0  0  0  0  0  0
  -25.9370  -30.8810   21.4210 C   0  0  0  0  0  2  0  0  0  0  0  0
  -26.0410  -29.5140   20.7790 C   0  0  0  0  0  0  0  0  0  0  0  0
  -27.2500  -28.7800   20.7780 C   0  0  0  0  0  3  0  0  0  0  0  0
  -26.1400  -26.9740   19.5880 C   0  0  0  0  0  3  0  0  0  0  0  0
  -24.9380  -27.7050   19.5880 C   0  0  0  0  0  3  0  0  0  0  0  0
  -23.6440  -29.8250   20.2120 C   0  0  0  0  0  2  0  0  0  0  0  0
  -24.6650  -31.1100   22.1470 N   0  0  0  0  0  0  0  0  0  0  0  0
  -23.5010  -32.1680   23.7800 O   0  0  0  0  0  0  0  0  0  0  0  0
  -22.7630  -29.4690   22.5410 C   0  0  0  0  0  0  0  0  0  0  0  0
  -21.4380  -29.2900   22.4110 N   0  0  0  0  0  0  0  0  0  0  0  0
  -23.4450  -28.8320   23.3480 O   0  0  0  0  0  0  0  0  0  0  0  0
  -20.9470  -29.8570   21.7340 H   0  0  0  0  0  0  0  0  0  0  0  0
  -18.0570  -28.1200   22.9150 C   0  0  0  0  0  0  0  0  0  0  0  0
  -20.6190  -28.3460   23.1710 C   0  0  0  0  0  3  0  0  0  0  0  0
  -20.7020  -26.9250   22.5650 C   0  0  0  0  0  2  0  0  0  0  0  0
  -19.5890  -26.6350   21.5540 C   0  0  0  0  0  2  0  0  0  0  0  0
  -18.2130  -26.7820   22.2130 C   0  0  0  0  0  2  0  0  0  0  0  0
  -19.1870  -28.8620   23.3500 C   0  0  0  0  0  0  0  0  0  0  0  0
  -18.9880  -30.1170   23.9660 C   0  0  0  0  0  3  0  0  0  0  0  0
  -17.6900  -30.6300   24.1500 C   0  0  0  0  0  3  0  0  0  0  0  0
  -16.5750  -29.8860   23.7320 C   0  0  0  0  0  3  0  0  0  0  0  0
  -16.7580  -28.6320   23.1200 C   0  0  0  0  0  3  0  0  0  0  0  0
  -25.8650  -32.5440   23.8870 C   0  0  0  0  0  3  0  0  0  0  0  0
  -25.5480  -33.9450   24.1960 N   0  0  0  0  0  0  0  0  0  0  0  0
  -25.8980  -34.9900   23.4320 C   0  0  0  0  0  0  0  0  0  0  0  0
  -26.5910  -34.8760   22.4180 O   0  0  0  0  0  0  0  0  0  0  0  0
  -24.9320  -34.1080   24.9800 H   0  0  0  0  0  0  0  0  0  0  0  0
  -24.1830  -36.7810   23.0110 C   0  0  0  0  0  1  0  0  0  0  0  0
  -25.3980  -36.3820   23.8640 C   0  0  0  0  0  3  0  0  0  0  0  0
  -27.5050  -37.2720   24.7550 C   0  0  0  0  0  1  0  0  0  0  0  0
  -26.4350  -37.4330   23.7740 N   0  0  0  0  0  0  0  0  0  0  0  0
  -26.0270  -38.3540   23.8990 H   0  0  0  0  0  0  0  0  0  0  0  0
  -26.3630  -31.7850   25.1770 C   0  0  1  0  0  0  0  0  0  0  0  0
  -25.2530  -31.5480   26.2280 C   0  0  0  0  0  1  0  0  0  0  0  0
  -26.9610  -30.4080   24.8030 C   0  0  0  0  0  1  0  0  0  0  0  0
  -27.4980  -32.5900   25.8530 C   0  0  0  0  0  1  0  0  0  0  0  0
  1  5  1  0
  3  6  1  0
  3  1  2  0
  4  2  1  0
  5  2  2  0
  5  7  1  0
  6  4  2  0
  7  9  1  0
  7  8  1  0
  9 10  1  0
 11 19  1  0
 12 17  1  0
 13 14  1  0
 13 12  1  0
 15 14  1  0
 15 24  1  0
 15 16  1  0
 17 11  1  0
 17 16  1  0
 18 11  2  0
 19 20  1  0
 19 10  1  0
 21 22  2  0
 22 41  1  0
 23 22  1  0
 23 26  1  0
 24 25  1  0
 24 21  1  0
 25 23  2  0
 26 27  1  0
 27 28  2  0
 29 32  1  0
 29 28  1  0
 30 29  2  0
 31 30  1  0
 31 26  2  0
 32 33  1  0
 33 34  1  0
 34 35  2  0
 36 35  1  0
 36 40  1  0
 37 36  2  0
 38 33  2  0
 38 37  1  0
 39 38  1  0
 41 42  1  0
 42 45  1  0
 42 44  1  0
 43 41  2  0
 46 47  1  0
 46 21  1  0
 48 46  1  0
 49  6  1  0
 50 49  1  0
 51 50  1  0
 51 52  1  0
 53 64  2  0
 54 52  1  0
 54 59  1  0
 55 63  1  0
 55 65  1  0
 56 62  1  0
 56 58  1  0
 57 63  1  0
 58 57  1  0
 59 58  2  0
 60 54  2  0
 61 60  1  0
 61 56  2  0
 62 55  1  0
 63 53  1  0
 65 67  2  0
 66 65  1  0
 68 66  1  0
 69 78  2  0
 69 74  1  0
 70 66  1  0
 70 74  1  0
 71 70  1  0
 72 73  1  0
 72 71  1  0
 73 69  1  0
 74 75  2  0
 75 76  1  0
 77 76  2  0
 78 77  1  0
 79 53  1  0
 79 80  1  0
 79 89  1  0
 80 83  1  0
 81 85  1  0
 81 80  1  0
 82 81  2  0
 85 84  1  0
 87 85  1  0
 87 88  1  0
 87 86  1  0
 89 92  1  1
 89 90  1  0
 91 89  1  0
M  ISO  4  11 100  19 100  51 101  52 101
M  END
>  <TORSDO>  (74) 
F 22

>  <SCORE>  (74) 
-13.205

>  <name>  (74) 
73

>  <ligand_id>  (74) 
73

>  <original_smiles>  (74) 
[H]c1c([H])c([H])c2c(c1[H])C([H])([H])C([H])([H])C([H])([H])C2([H])N([H])C(=O)C1([H])N(C(=O)C([H])(N([H])C(=O)C([H])(N([H])C([H])([H])[H])C([H])([H])[H])C(C([H])([H])[H])(C([H])([H])[H])C([H])([H])[H])C([H])([H])c2c([H])c(OC([H])([H])C([H])([H])Oc3c([H])c([H])c(N([H])C([H])([H])C([H])([H])N([H])C(=O)N4C([H])([H])C([H])([H])C([H])([H])C([H])(n5nc(-c6c([H])c([H])c(Oc7c([H])c([H])c(F)c([H])c7F)c([H])c6[H])c(C(=O)N([H])[H])c5N([H])[H])C4([H])[H])c([H])c3[H])c([H])c([H])c2C1([H])[H]

>  <smiles>  (74) 
[H]c1c([H])c([H])c2c(c1[H])C([H])([H])C([H])([H])C([H])([H])C2([H])N([H])C(=O)C1([H])N(C(=O)C([H])(N([H])C(=O)C([H])(N([H])C([H])([H])[H])C([H])([H])[H])C(C([H])([H])[H])(C([H])([H])[H])C([H])([H])[H])C([H])([H])c2c([H])c(OC([H])([H])C([H])([H])Oc3c([H])c([H])c(N([H])C([H])([H])C([H])([H])N([H])C(=O)N4C([H])([H])C([H])([H])C([H])([H])C([H])(n5nc(-c6c([H])c([H])c(Oc7c([H])c([H])c(F)c([H])c7F)c([H])c6[H])c(C(=O)N([H])[H])c5N([H])[H])C4([H])[H])c([H])c3[H])c([H])c([H])c2C1([H])[H]

$$$$
74:0:0
     RDKit          3D

 94103  0  0  1  0  0  0  0  0999 V2000
  -29.1640  -21.9760   20.1600 C   0  0  0  0  0  2  0  0  0  0  0  0
  -31.0980  -21.8670   21.7140 C   0  0  0  0  0  2  0  0  0  0  0  0
  -29.3990  -23.4980   19.9760 C   0  0  0  0  0  2  0  0  0  0  0  0
  -31.3390  -23.3760   21.5090 C   0  0  0  0  0  2  0  0  0  0  0  0
  -30.4850  -21.2440   20.4540 C   0  0  0  0  0  3  0  0  0  0  0  0
  -30.1040  -24.1250   21.1330 N   0  0  1  0  0  4  0  0  0  0  0  0
  -29.4840  -24.0640   21.9290 H   0  0  0  0  0  0  0  0  0  0  0  0
  -31.0980  -18.9170   19.6320 C   0  0  0  0  0  3  0  0  0  0  0  0
  -29.5680  -19.0780   21.5100 C   0  0  0  0  0  3  0  0  0  0  0  0
  -31.0330  -17.5100   19.6960 C   0  0  0  0  0  3  0  0  0  0  0  0
  -29.5060  -17.6670   21.5750 C   0  0  0  0  0  3  0  0  0  0  0  0
  -30.3680  -19.7180   20.5370 C   0  0  0  0  0  0  0  0  0  0  0  0
  -30.2410  -16.8610   20.6750 C   0  0  0  0  0  0  0  0  0  0  0  0
  -30.7500  -14.4650   20.1000 C   0  0  0  0  0  0  0  0  0  0  0  0
  -30.3810  -12.3400   18.9120 C   0  0  0  0  0  2  0  0  0  0  0  0
  -29.3720  -12.5870   17.7730 C   0  0  0  0  0  2  0  0  0  0  0  0
  -27.9250  -12.4350   18.2840 C   0  0  0  0  0  2  0  0  0  0  0  0
  -27.6650  -13.2340   19.5890 C   0  0  0  0  0  3  0  0  0  0  0  0
  -28.7810  -12.9740   20.6250 C   0  0  0  0  0  2  0  0  0  0  0  0
  -30.0750  -13.2900   19.9930 N   0  0  0  0  0  0  0  0  0  0  0  0
  -31.8390  -14.6530   19.5490 O   0  0  0  0  0  0  0  0  0  0  0  0
  -30.1020  -15.4380   20.7740 N   0  0  0  0  0  0  0  0  0  0  0  0
  -29.3030  -15.1150   21.2980 H   0  0  0  0  0  0  0  0  0  0  0  0
  -25.3130  -13.8170   20.4570 C   0  0  0  0  0  0  0  0  0  0  0  0
  -24.2670  -13.0320   20.8660 C   0  0  0  0  0  0  0  0  0  0  0  0
  -24.7250  -11.6820   20.7660 C   0  0  0  0  0  0  0  0  0  0  0  0
  -26.3410  -12.9440   20.1380 N   0  0  0  0  0  0  0  0  0  0  0  0
  -25.9930  -11.6540   20.3780 N   0  0  0  0  0  0  0  0  0  0  0  0
  -24.0110  -10.4140   20.9610 C   0  0  0  0  0  0  0  0  0  0  0  0
  -24.4570   -9.4520   21.8930 C   0  0  0  0  0  3  0  0  0  0  0  0
  -23.7440   -8.2470   22.0750 C   0  0  0  0  0  3  0  0  0  0  0  0
  -22.5700   -7.9980   21.3260 C   0  0  0  0  0  0  0  0  0  0  0  0
  -22.1430   -8.9490   20.3820 C   0  0  0  0  0  3  0  0  0  0  0  0
  -22.8580  -10.1440   20.1980 C   0  0  0  0  0  3  0  0  0  0  0  0
  -21.8270   -6.8450   21.4170 O   0  0  0  0  0  0  0  0  0  0  0  0
  -21.7270   -6.1450   22.5930 C   0  0  0  0  0  0  0  0  0  0  0  0
  -21.2180   -6.7350   23.7700 C   0  0  0  0  0  3  0  0  0  0  0  0
  -21.0680   -5.9590   24.9380 C   0  0  0  0  0  3  0  0  0  0  0  0
  -21.4150   -4.5950   24.9270 C   0  0  0  0  0  0  0  0  0  0  0  0
  -21.9160   -4.0040   23.7530 C   0  0  0  0  0  3  0  0  0  0  0  0
  -22.0690   -4.7770   22.5890 C   0  0  0  0  0  0  0  0  0  0  0  0
  -22.5320   -4.1990   21.4550 F   0  0  0  0  0  0  0  0  0  0  0  0
  -21.2640   -3.8470   26.0440 F   0  0  0  0  0  0  0  0  0  0  0  0
  -22.8900  -13.4990   21.2390 C   0  0  0  0  0  0  0  0  0  0  0  0
  -22.2180  -12.7770   22.1280 N   0  0  0  0  0  0  0  0  0  0  0  0
  -22.4200  -14.5380   20.7770 O   0  0  0  0  0  0  0  0  0  0  0  0
  -22.6120  -11.9360   22.5230 H   0  0  0  0  0  0  0  0  0  0  0  0
  -21.2960  -13.0690   22.4190 H   0  0  0  0  0  0  0  0  0  0  0  0
  -25.4690  -15.1920   20.3140 N   0  0  0  0  0  0  0  0  0  0  0  0
  -24.7110  -15.8440   20.4880 H   0  0  0  0  0  0  0  0  0  0  0  0
  -26.3030  -15.6410   19.9580 H   0  0  0  0  0  0  0  0  0  0  0  0
  -30.4090  -25.5760   20.9200 C   0  0  0  0  0  2  0  0  0  0  0  0
  -29.2210  -26.5450   21.1160 C   0  0  0  0  0  2  0  0  0  0  0  0
  -28.4430  -26.6450   19.9250 O   0  0  0  0  0  0  0  0  0  0  0  0
  -24.5860  -31.7560   23.1370 C   0  0  0  0  0  0  0  0  0  0  0  0
  -27.2990  -27.4090   19.9950 C   0  0  0  0  0  0  0  0  0  0  0  0
  -23.3970  -30.3620   21.4720 C   0  0  0  0  0  3  0  0  0  0  0  0
  -24.8740  -28.8650   20.0260 C   0  0  0  0  0  0  0  0  0  0  0  0
  -25.9120  -30.7630   21.2770 C   0  0  0  0  0  2  0  0  0  0  0  0
  -26.0190  -29.4000   20.6280 C   0  0  0  0  0  0  0  0  0  0  0  0
  -27.2330  -28.6790   20.6200 C   0  0  0  0  0  3  0  0  0  0  0  0
  -26.1410  -26.8930   19.3790 C   0  0  0  0  0  3  0  0  0  0  0  0
  -24.9280  -27.6070   19.4010 C   0  0  0  0  0  3  0  0  0  0  0  0
  -23.6150  -29.7030   20.0830 C   0  0  0  0  0  2  0  0  0  0  0  0
  -24.6500  -30.9750   22.0210 N   0  0  0  0  0  0  0  0  0  0  0  0
  -23.5030  -32.0050   23.6840 O   0  0  0  0  0  0  0  0  0  0  0  0
  -22.7610  -29.3190   22.4180 C   0  0  0  0  0  0  0  0  0  0  0  0
  -21.4370  -29.1290   22.2960 N   0  0  0  0  0  0  0  0  0  0  0  0
  -23.4550  -28.6830   23.2150 O   0  0  0  0  0  0  0  0  0  0  0  0
  -20.9380  -29.6950   21.6240 H   0  0  0  0  0  0  0  0  0  0  0  0
  -18.0740  -27.9070   22.7910 C   0  0  0  0  0  0  0  0  0  0  0  0
  -20.6320  -28.1710   23.0530 C   0  0  0  0  0  3  0  0  0  0  0  0
  -20.7380  -26.7530   22.4450 C   0  0  0  0  0  2  0  0  0  0  0  0
  -19.6320  -26.4470   21.4320 C   0  0  0  0  0  2  0  0  0  0  0  0
  -18.2540  -26.5720   22.0880 C   0  0  0  0  0  2  0  0  0  0  0  0
  -19.1910  -28.6640   23.2310 C   0  0  0  0  0  0  0  0  0  0  0  0
  -18.9720  -29.9150   23.8470 C   0  0  0  0  0  3  0  0  0  0  0  0
  -17.6660  -30.4080   24.0310 C   0  0  0  0  0  3  0  0  0  0  0  0
  -16.5620  -29.6460   23.6090 C   0  0  0  0  0  3  0  0  0  0  0  0
  -16.7670  -28.3970   22.9950 C   0  0  0  0  0  3  0  0  0  0  0  0
  -25.8660  -32.3920   23.7640 C   0  0  0  0  0  3  0  0  0  0  0  0
  -26.4090  -31.5940   25.0130 C   0  0  1  0  0  0  0  0  0  0  0  0
  -25.3310  -31.3070   26.0840 C   0  0  0  0  0  1  0  0  0  0  0  0
  -27.0130  -30.2390   24.5740 C   0  0  0  0  0  1  0  0  0  0  0  0
  -27.5520  -32.3900   25.6860 C   0  0  0  0  0  1  0  0  0  0  0  0
  -25.5380  -33.7750   24.1320 N   0  0  0  0  0  0  0  0  0  0  0  0
  -25.8370  -34.8500   23.3910 C   0  0  0  0  0  0  0  0  0  0  0  0
  -26.4910  -34.7820   22.3450 O   0  0  0  0  0  0  0  0  0  0  0  0
  -24.9530  -33.9010   24.9450 H   0  0  0  0  0  0  0  0  0  0  0  0
  -24.0640  -36.6110   23.1050 C   0  0  0  0  0  1  0  0  0  0  0  0
  -25.3280  -36.2170   23.8860 C   0  0  0  0  0  3  0  0  0  0  0  0
  -27.4610  -37.1290   24.6930 C   0  0  0  0  0  1  0  0  0  0  0  0
  -26.3360  -37.2950   23.7770 N   0  0  0  0  0  0  0  0  0  0  0  0
  -25.9130  -38.2010   23.9580 H   0  0  0  0  0  0  0  0  0  0  0  0
  1  5  1  0
  3  1  1  0
  3  6  1  0
  4  2  1  0
  5 12  1  0
  5  2  1  0
  6  4  1  0
  6  7  1  1
  8 10  2  0
  8 12  1  0
  9 11  1  0
 10 13  1  0
 12  9  2  0
 13 22  1  0
 13 11  2  0
 14 22  1  0
 15 20  1  0
 16 17  1  0
 16 15  1  0
 18 17  1  0
 18 27  1  0
 18 19  1  0
 20 14  1  0
 20 19  1  0
 21 14  2  0
 22 23  1  0
 24 25  2  0
 25 44  1  0
 26 25  1  0
 26 29  1  0
 27 28  1  0
 27 24  1  0
 28 26  2  0
 29 30  1  0
 30 31  2  0
 32 35  1  0
 32 31  1  0
 33 32  2  0
 34 33  1  0
 34 29  2  0
 35 36  1  0
 36 37  1  0
 37 38  2  0
 39 38  1  0
 39 43  1  0
 40 39  2  0
 41 36  2  0
 41 40  1  0
 42 41  1  0
 44 45  1  0
 45 48  1  0
 45 47  1  0
 46 44  2  0
 49 24  1  0
 49 50  1  0
 51 49  1  0
 52 53  1  0
 52  6  1  0
 54 56  1  0
 54 53  1  0
 55 66  2  0
 56 61  1  0
 57 65  1  0
 57 67  1  0
 58 64  1  0
 58 60  1  0
 59 65  1  0
 60 59  1  0
 61 60  2  0
 62 63  1  0
 62 56  2  0
 63 58  2  0
 64 57  1  0
 65 55  1  0
 67 69  2  0
 68 67  1  0
 70 68  1  0
 71 80  2  0
 71 76  1  0
 72 68  1  0
 72 76  1  0
 73 72  1  0
 74 75  1  0
 74 73  1  0
 75 71  1  0
 76 77  2  0
 77 78  1  0
 79 78  2  0
 80 79  1  0
 81 55  1  0
 81 86  1  0
 81 82  1  0
 82 85  1  1
 82 83  1  0
 84 82  1  0
 86 89  1  0
 87 91  1  0
 87 86  1  0
 88 87  2  0
 91 90  1  0
 93 91  1  0
 93 94  1  0
 93 92  1  0
M  ISO  4  14 100  22 100  53 101  54 101
M  END
>  <TORSDO>  (75) 
F 19

>  <SCORE>  (75) 
-13.133

>  <name>  (75) 
74

>  <ligand_id>  (75) 
74

>  <original_smiles>  (75) 
[H]c1c([H])c([H])c2c(c1[H])C([H])([H])C([H])([H])C([H])([H])C2([H])N([H])C(=O)C1([H])N(C(=O)C([H])(N([H])C(=O)C([H])(N([H])C([H])([H])[H])C([H])([H])[H])C(C([H])([H])[H])(C([H])([H])[H])C([H])([H])[H])C([H])([H])c2c([H])c(OC([H])([H])C([H])([H])[N+]3([H])C([H])([H])C([H])([H])C([H])(c4c([H])c([H])c(N([H])C(=O)N5C([H])([H])C([H])([H])C([H])([H])C([H])(n6nc(-c7c([H])c([H])c(Oc8c([H])c([H])c(F)c([H])c8F)c([H])c7[H])c(C(=O)N([H])[H])c6N([H])[H])C5([H])[H])c([H])c4[H])C([H])([H])C3([H])[H])c([H])c([H])c2C1([H])[H]

>  <smiles>  (75) 
[H]c1c([H])c([H])c2c(c1[H])C([H])([H])C([H])([H])C([H])([H])C2([H])N([H])C(=O)C1([H])N(C(=O)C([H])(N([H])C(=O)C([H])(N([H])C([H])([H])[H])C([H])([H])[H])C(C([H])([H])[H])(C([H])([H])[H])C([H])([H])[H])C([H])([H])c2c([H])c(OC([H])([H])C([H])([H])[N+]3([H])C([H])([H])C([H])([H])C([H])(c4c([H])c([H])c(N([H])C(=O)N5C([H])([H])C([H])([H])C([H])([H])C([H])(n6nc(-c7c([H])c([H])c(Oc8c([H])c([H])c(F)c([H])c8F)c([H])c7[H])c(C(=O)N([H])[H])c6N([H])[H])C5([H])[H])c([H])c4[H])C([H])([H])C3([H])[H])c([H])c([H])c2C1([H])[H]

$$$$
75:0:0
     RDKit          3D

 94102  0  0  1  0  0  0  0  0999 V2000
  -28.5010  -20.3920   18.9850 C   0  0  0  0  0  2  0  0  0  0  0  0
  -30.2610  -21.5520   20.2300 C   0  0  0  0  0  2  0  0  0  0  0  0
  -28.4720  -21.7260   18.1780 C   0  0  0  0  0  2  0  0  0  0  0  0
  -29.2080  -22.7290   20.3220 C   0  0  0  0  0  3  0  0  0  0  0  0
  -29.7490  -20.2430   19.7550 N   0  0  0  0  0  0  0  0  0  0  0  0
  -28.3870  -22.9230   19.0710 N   0  0  1  0  0  4  0  0  0  0  0  0
  -27.4360  -22.8940   19.4060 H   0  0  0  0  0  0  0  0  0  0  0  0
  -28.3160  -22.5400   21.5740 C   0  0  0  0  0  2  0  0  0  0  0  0
  -26.2210  -23.1800   22.8850 C   0  0  0  0  0  1  0  0  0  0  0  0
  -27.1150  -23.4970   21.6770 C   0  0  0  0  0  2  0  0  0  0  0  0
  -29.8120  -19.0630   20.6720 C   0  0  0  0  0  2  0  0  0  0  0  0
  -31.0860  -17.9550   18.7480 C   0  0  0  0  0  1  0  0  0  0  0  0
  -30.8640  -17.9500   20.2770 C   0  0  0  0  0  3  0  0  0  0  0  0
  -31.3150  -15.4570   20.6740 C   0  0  0  0  0  0  0  0  0  0  0  0
  -31.1770  -13.1640   19.7590 C   0  0  0  0  0  2  0  0  0  0  0  0
  -30.3340  -13.2120   18.4670 C   0  0  0  0  0  2  0  0  0  0  0  0
  -28.8330  -13.0660   18.7850 C   0  0  0  0  0  2  0  0  0  0  0  0
  -28.3710  -13.9950   19.9410 C   0  0  0  0  0  3  0  0  0  0  0  0
  -29.3430  -13.9410   21.1430 C   0  0  0  0  0  2  0  0  0  0  0  0
  -30.6900  -14.2420   20.6410 N   0  0  0  0  0  0  0  0  0  0  0  0
  -32.5140  -15.5710   20.4160 O   0  0  0  0  0  0  0  0  0  0  0  0
  -30.5120  -16.5590   20.7270 N   0  0  0  0  0  0  0  0  0  0  0  0
  -29.5420  -16.3850   20.9380 H   0  0  0  0  0  0  0  0  0  0  0  0
  -25.9450  -14.5950   20.5400 C   0  0  0  0  0  0  0  0  0  0  0  0
  -24.8530  -13.8230   20.8290 C   0  0  0  0  0  0  0  0  0  0  0  0
  -25.3060  -12.4690   20.7870 C   0  0  0  0  0  0  0  0  0  0  0  0
  -26.9950  -13.7120   20.3420 N   0  0  0  0  0  0  0  0  0  0  0  0
  -26.6120  -12.4260   20.5520 N   0  0  0  0  0  0  0  0  0  0  0  0
  -24.5600  -11.2080   20.9000 C   0  0  0  0  0  0  0  0  0  0  0  0
  -24.9080  -10.2300   21.8580 C   0  0  0  0  0  3  0  0  0  0  0  0
  -24.1660   -9.0330   21.9610 C   0  0  0  0  0  3  0  0  0  0  0  0
  -23.0610   -8.8070   21.1050 C   0  0  0  0  0  0  0  0  0  0  0  0
  -22.7330   -9.7750   20.1390 C   0  0  0  0  0  3  0  0  0  0  0  0
  -23.4750  -10.9640   20.0340 C   0  0  0  0  0  3  0  0  0  0  0  0
  -22.2960   -7.6660   21.1160 O   0  0  0  0  0  0  0  0  0  0  0  0
  -22.0850   -6.9510   22.2690 C   0  0  0  0  0  0  0  0  0  0  0  0
  -21.4840   -7.5330   23.4070 C   0  0  0  0  0  3  0  0  0  0  0  0
  -21.2220   -6.7440   24.5450 C   0  0  0  0  0  3  0  0  0  0  0  0
  -21.5520   -5.3750   24.5440 C   0  0  0  0  0  0  0  0  0  0  0  0
  -22.1440   -4.7930   23.4090 C   0  0  0  0  0  3  0  0  0  0  0  0
  -22.4080   -5.5800   22.2750 C   0  0  0  0  0  0  0  0  0  0  0  0
  -22.9590   -5.0090   21.1760 F   0  0  0  0  0  0  0  0  0  0  0  0
  -21.2950   -4.6150   25.6350 F   0  0  0  0  0  0  0  0  0  0  0  0
  -23.4460  -14.3060   21.0350 C   0  0  0  0  0  0  0  0  0  0  0  0
  -22.6660  -13.5960   21.8440 N   0  0  0  0  0  0  0  0  0  0  0  0
  -23.0430  -15.3450   20.5140 O   0  0  0  0  0  0  0  0  0  0  0  0
  -23.0050  -12.7570   22.2910 H   0  0  0  0  0  0  0  0  0  0  0  0
  -21.7170  -13.8970   22.0220 H   0  0  0  0  0  0  0  0  0  0  0  0
  -26.1320  -15.9680   20.4070 N   0  0  0  0  0  0  0  0  0  0  0  0
  -25.3660  -16.6270   20.4830 H   0  0  0  0  0  0  0  0  0  0  0  0
  -26.9940  -16.3980   20.1000 H   0  0  0  0  0  0  0  0  0  0  0  0
  -28.5100  -24.2590   18.3420 C   0  0  0  0  0  3  0  0  0  0  0  0
  -27.6200  -25.4230   18.9190 C   0  0  0  0  0  3  0  0  0  0  0  0
  -27.5730  -26.7040   18.1920 O   0  0  0  0  0  0  0  0  0  0  0  0
  -24.5320  -31.4600   22.6530 C   0  0  0  0  0  0  0  0  0  0  0  0
  -26.4900  -27.5370   18.4790 C   0  0  0  0  0  0  0  0  0  0  0  0
  -23.0440  -30.3960   20.9940 C   0  0  0  0  0  3  0  0  0  0  0  0
  -24.2080  -29.1220   19.1110 C   0  0  0  0  0  0  0  0  0  0  0  0
  -25.5350  -30.7250   20.4840 C   0  0  0  0  0  2  0  0  0  0  0  0
  -25.4660  -29.4880   19.6050 C   0  0  0  0  0  0  0  0  0  0  0  0
  -26.6130  -28.7060   19.2840 C   0  0  0  0  0  3  0  0  0  0  0  0
  -25.2110  -27.2320   17.9580 C   0  0  0  0  0  3  0  0  0  0  0  0
  -24.0780  -28.0000   18.2800 C   0  0  0  0  0  3  0  0  0  0  0  0
  -23.0240  -29.9820   19.4990 C   0  0  0  0  0  2  0  0  0  0  0  0
  -24.3980  -30.8670   21.4320 N   0  0  0  0  0  0  0  0  0  0  0  0
  -23.5530  -31.6480   23.3880 O   0  0  0  0  0  0  0  0  0  0  0  0
  -22.4950  -29.2280   21.8460 C   0  0  0  0  0  0  0  0  0  0  0  0
  -21.1610  -29.0630   21.8540 N   0  0  0  0  0  0  0  0  0  0  0  0
  -23.2630  -28.4800   22.4590 O   0  0  0  0  0  0  0  0  0  0  0  0
  -20.6000  -29.7220   21.3330 H   0  0  0  0  0  0  0  0  0  0  0  0
  -17.8550  -27.7780   22.5560 C   0  0  0  0  0  0  0  0  0  0  0  0
  -20.4310  -28.0060   22.5560 C   0  0  0  0  0  3  0  0  0  0  0  0
  -20.4450  -26.6890   21.7470 C   0  0  0  0  0  2  0  0  0  0  0  0
  -19.2250  -26.5270   20.8340 C   0  0  0  0  0  2  0  0  0  0  0  0
  -17.9330  -26.5570   21.6550 C   0  0  0  0  0  2  0  0  0  0  0  0
  -19.0270  -28.4670   22.9670 C   0  0  0  0  0  0  0  0  0  0  0  0
  -18.8960  -29.6150   23.7780 C   0  0  0  0  0  3  0  0  0  0  0  0
  -17.6270  -30.0750   24.1770 C   0  0  0  0  0  3  0  0  0  0  0  0
  -16.4730  -29.3800   23.7810 C   0  0  0  0  0  3  0  0  0  0  0  0
  -16.5880  -28.2330   22.9760 C   0  0  0  0  0  3  0  0  0  0  0  0
  -25.9190  -31.9520   23.1730 C   0  0  0  0  0  3  0  0  0  0  0  0
  -25.7000  -33.2180   23.8870 N   0  0  0  0  0  0  0  0  0  0  0  0
  -25.9270  -34.4330   23.3690 C   0  0  0  0  0  0  0  0  0  0  0  0
  -26.4160  -34.6020   22.2500 O   0  0  0  0  0  0  0  0  0  0  0  0
  -25.2460  -33.1570   24.7870 H   0  0  0  0  0  0  0  0  0  0  0  0
  -24.2110  -36.2320   23.7540 C   0  0  0  0  0  1  0  0  0  0  0  0
  -25.5530  -35.6540   24.2320 C   0  0  0  0  0  3  0  0  0  0  0  0
  -27.8120  -36.3320   24.9150 C   0  0  0  0  0  1  0  0  0  0  0  0
  -26.5820  -36.7160   24.2270 N   0  0  0  0  0  0  0  0  0  0  0  0
  -26.2270  -37.5630   24.6620 H   0  0  0  0  0  0  0  0  0  0  0  0
  -26.6390  -30.9030   24.1060 C   0  0  1  0  0  0  0  0  0  0  0  0
  -25.7530  -30.3850   25.2620 C   0  0  0  0  0  1  0  0  0  0  0  0
  -27.1100  -29.6780   23.2890 C   0  0  0  0  0  1  0  0  0  0  0  0
  -27.9090  -31.5360   24.7230 C   0  0  0  0  0  1  0  0  0  0  0  0
  1  5  1  0
  2  4  1  0
  3  1  1  0
  3  6  1  0
  4  8  1  0
  5  2  1  0
  5 11  1  0
  6  7  1  1
  6  4  1  0
  8 10  1  0
 10  9  1  0
 13 12  1  0
 13 11  1  0
 13 22  1  0
 14 22  1  0
 15 20  1  0
 16 17  1  0
 16 15  1  0
 18 17  1  0
 18 27  1  0
 18 19  1  0
 20 14  1  0
 20 19  1  0
 21 14  2  0
 22 23  1  0
 24 25  2  0
 25 44  1  0
 26 25  1  0
 26 29  1  0
 27 24  1  0
 27 28  1  0
 28 26  2  0
 29 30  1  0
 30 31  2  0
 32 35  1  0
 32 31  1  0
 33 32  2  0
 34 33  1  0
 34 29  2  0
 35 36  1  0
 36 41  2  0
 36 37  1  0
 37 38  2  0
 39 38  1  0
 39 43  1  0
 40 39  2  0
 41 40  1  0
 42 41  1  0
 44 45  1  0
 45 48  1  0
 45 47  1  0
 46 44  2  0
 49 50  1  0
 49 24  1  0
 51 49  1  0
 52 53  2  0
 52  6  1  0
 54 56  1  0
 54 53  1  0
 55 66  2  0
 56 61  1  0
 57 65  1  0
 57 67  1  0
 58 64  1  0
 58 60  1  0
 59 65  1  0
 60 59  1  0
 61 60  2  0
 62 63  1  0
 62 56  2  0
 63 58  2  0
 64 57  1  0
 65 55  1  0
 67 68  1  0
 67 69  2  0
 70 68  1  0
 71 76  2  0
 71 80  1  0
 72 68  1  0
 72 76  1  0
 73 72  1  0
 74 75  1  0
 74 73  1  0
 75 71  1  0
 76 77  1  0
 77 78  2  0
 79 78  1  0
 80 79  2  0
 81 55  1  0
 81 82  1  0
 81 91  1  0
 82 85  1  0
 83 82  1  0
 83 87  1  0
 84 83  2  0
 87 86  1  0
 89 87  1  0
 89 90  1  0
 89 88  1  0
 91 94  1  1
 91 92  1  0
 93 91  1  0
M  ISO  4  14 100  22 100  53 101  54 101
M  END
>  <TORSDO>  (76) 
F 22

>  <SCORE>  (76) 
-8.682

>  <name>  (76) 
75

>  <ligand_id>  (76) 
75

>  <original_smiles>  (76) 
[H]c1c([H])c([H])c2c(c1[H])C([H])([H])C([H])([H])C([H])([H])C2([H])N([H])C(=O)C1([H])N(C(=O)C([H])(N([H])C(=O)C([H])(N([H])C([H])([H])[H])C([H])([H])[H])C(C([H])([H])[H])(C([H])([H])[H])C([H])([H])[H])C([H])([H])c2c([H])c(OC([H])([H])C([H])([H])[N+]3([H])C([H])([H])C([H])([H])N(C([H])([H])C([H])(N([H])C(=O)N4C([H])([H])C([H])([H])C([H])([H])C([H])(n5nc(-c6c([H])c([H])c(Oc7c([H])c([H])c(F)c([H])c7F)c([H])c6[H])c(C(=O)N([H])[H])c5N([H])[H])C4([H])[H])C([H])([H])[H])C([H])([H])C3([H])C([H])([H])C([H])([H])C([H])([H])[H])c([H])c([H])c2C1([H])[H]

>  <smiles>  (76) 
[H]c1c([H])c([H])c2c(c1[H])C([H])([H])C([H])([H])C([H])([H])C2([H])N([H])C(=O)C1([H])N(C(=O)C([H])(N([H])C(=O)C([H])(N([H])C([H])([H])[H])C([H])([H])[H])C(C([H])([H])[H])(C([H])([H])[H])C([H])([H])[H])C([H])([H])c2c([H])c(OC([H])([H])C([H])([H])[N+]3([H])C([H])([H])C([H])([H])N(C([H])([H])C([H])(N([H])C(=O)N4C([H])([H])C([H])([H])C([H])([H])C([H])(n5nc(-c6c([H])c([H])c(Oc7c([H])c([H])c(F)c([H])c7F)c([H])c6[H])c(C(=O)N([H])[H])c5N([H])[H])C4([H])[H])C([H])([H])[H])C([H])([H])C3([H])C([H])([H])C([H])([H])C([H])([H])[H])c([H])c([H])c2C1([H])[H]

$$$$
76:0:0
     RDKit          3D

 95104  0  0  1  0  0  0  0  0999 V2000
  -29.5190  -20.4360   19.8780 C   0  0  0  0  0  2  0  0  0  0  0  0
  -29.5610  -17.8730   20.0740 C   0  0  0  0  0  3  0  0  0  0  0  0
  -30.7160  -19.1400   21.7700 C   0  0  0  0  0  3  0  0  0  0  0  0
  -29.9540  -19.1350   20.5850 C   0  0  0  0  0  0  0  0  0  0  0  0
  -29.9040  -16.6910   20.7740 C   0  0  0  0  0  0  0  0  0  0  0  0
  -30.6250  -16.8210   21.9830 C   0  0  0  0  0  0  0  0  0  0  0  0
  -31.0280  -18.0210   22.4540 N   0  0  0  0  0  0  0  0  0  0  0  0
  -29.9580  -14.5860   19.4430 C   0  0  0  0  0  0  0  0  0  0  0  0
  -29.4010  -12.6630   17.9890 C   0  0  0  0  0  2  0  0  0  0  0  0
  -28.2130  -13.0400   17.0790 C   0  0  0  0  0  2  0  0  0  0  0  0
  -26.8670  -12.7920   17.7920 C   0  0  0  0  0  2  0  0  0  0  0  0
  -26.8300  -13.3800   19.2290 C   0  0  0  0  0  3  0  0  0  0  0  0
  -28.1000  -12.9780   20.0120 C   0  0  0  0  0  2  0  0  0  0  0  0
  -29.2670  -13.4320   19.2350 N   0  0  0  0  0  0  0  0  0  0  0  0
  -30.9400  -14.9150   18.7710 O   0  0  0  0  0  0  0  0  0  0  0  0
  -29.4070  -15.4200   20.3490 N   0  0  0  0  0  0  0  0  0  0  0  0
  -28.5490  -15.0980   20.7770 H   0  0  0  0  0  0  0  0  0  0  0  0
  -24.6030  -13.7990   20.4510 C   0  0  0  0  0  0  0  0  0  0  0  0
  -23.6610  -12.9440   20.9540 C   0  0  0  0  0  0  0  0  0  0  0  0
  -24.1550  -11.6270   20.7100 C   0  0  0  0  0  0  0  0  0  0  0  0
  -25.6110  -12.9970   19.9390 N   0  0  0  0  0  0  0  0  0  0  0  0
  -25.3540  -11.6800   20.1460 N   0  0  0  0  0  0  0  0  0  0  0  0
  -23.5290  -10.3160   20.9290 C   0  0  0  0  0  0  0  0  0  0  0  0
  -24.1120   -9.3520   21.7820 C   0  0  0  0  0  3  0  0  0  0  0  0
  -23.4830   -8.1050   21.9880 C   0  0  0  0  0  3  0  0  0  0  0  0
  -22.2580   -7.8120   21.3440 C   0  0  0  0  0  0  0  0  0  0  0  0
  -21.6940   -8.7660   20.4780 C   0  0  0  0  0  3  0  0  0  0  0  0
  -22.3240  -10.0040   20.2680 C   0  0  0  0  0  3  0  0  0  0  0  0
  -21.5890   -6.6180   21.4650 O   0  0  0  0  0  0  0  0  0  0  0  0
  -21.6260   -5.8870   22.6250 C   0  0  0  0  0  0  0  0  0  0  0  0
  -21.1820   -6.4190   23.8560 C   0  0  0  0  0  3  0  0  0  0  0  0
  -21.1720   -5.6080   25.0090 C   0  0  0  0  0  3  0  0  0  0  0  0
  -21.5970   -4.2690   24.9330 C   0  0  0  0  0  0  0  0  0  0  0  0
  -22.0350   -3.7370   23.7080 C   0  0  0  0  0  3  0  0  0  0  0  0
  -22.0470   -4.5450   22.5570 C   0  0  0  0  0  0  0  0  0  0  0  0
  -22.4510   -4.0210   21.3750 F   0  0  0  0  0  0  0  0  0  0  0  0
  -21.5810   -3.4890   26.0400 F   0  0  0  0  0  0  0  0  0  0  0  0
  -22.3320  -13.3210   21.5450 C   0  0  0  0  0  0  0  0  0  0  0  0
  -21.8370  -12.5380   22.4980 N   0  0  0  0  0  0  0  0  0  0  0  0
  -21.7470  -14.3460   21.1980 O   0  0  0  0  0  0  0  0  0  0  0  0
  -22.3280  -11.7100   22.8040 H   0  0  0  0  0  0  0  0  0  0  0  0
  -20.9550  -12.7740   22.9310 H   0  0  0  0  0  0  0  0  0  0  0  0
  -24.6780  -15.1870   20.3680 N   0  0  0  0  0  0  0  0  0  0  0  0
  -23.9220  -15.7870   20.6820 H   0  0  0  0  0  0  0  0  0  0  0  0
  -25.4230  -15.6970   19.9110 H   0  0  0  0  0  0  0  0  0  0  0  0
  -32.1900  -15.4960   23.6550 C   0  0  0  0  0  2  0  0  0  0  0  0
  -31.8620  -14.5690   22.5180 C   0  0  0  0  0  2  0  0  0  0  0  0
  -30.8830  -15.6570   22.9030 C   0  0  0  0  0  3  0  0  0  0  0  0
  -29.7220  -21.7940   20.6280 C   0  0  0  0  0  2  0  0  0  0  0  0
  -29.1100  -22.9410   19.8990 N   0  0  0  0  0  4  0  0  0  0  0  0
  -28.1410  -22.7040   19.7460 H   0  0  0  0  0  0  0  0  0  0  0  0
  -29.5440  -23.0110   18.9900 H   0  0  0  0  0  0  0  0  0  0  0  0
  -29.1590  -24.2850   20.5610 C   0  0  0  0  0  2  0  0  0  0  0  0
  -28.1600  -25.2850   19.9120 C   0  0  0  0  0  2  0  0  0  0  0  0
  -28.2350  -26.6510   20.3880 O   0  0  0  0  0  0  0  0  0  0  0  0
  -24.4800  -31.9680   23.3140 C   0  0  0  0  0  0  0  0  0  0  0  0
  -27.0800  -27.4210   20.3170 C   0  0  0  0  0  0  0  0  0  0  0  0
  -23.2640  -30.5510   21.6940 C   0  0  0  0  0  3  0  0  0  0  0  0
  -24.7040  -28.9810   20.2930 C   0  0  0  0  0  0  0  0  0  0  0  0
  -25.7990  -30.8730   21.4990 C   0  0  0  0  0  2  0  0  0  0  0  0
  -25.8700  -29.4910   20.8780 C   0  0  0  0  0  0  0  0  0  0  0  0
  -27.0580  -28.7200   20.8860 C   0  0  0  0  0  3  0  0  0  0  0  0
  -25.8920  -26.9460   19.7040 C   0  0  0  0  0  3  0  0  0  0  0  0
  -24.7130  -27.7090   19.7040 C   0  0  0  0  0  3  0  0  0  0  0  0
  -23.4690  -29.8530   20.3250 C   0  0  0  0  0  2  0  0  0  0  0  0
  -24.5330  -31.1470   22.2260 N   0  0  0  0  0  0  0  0  0  0  0  0
  -23.4010  -32.2600   23.8450 O   0  0  0  0  0  0  0  0  0  0  0  0
  -22.6010  -29.5510   22.6680 C   0  0  0  0  0  0  0  0  0  0  0  0
  -21.2790  -29.3610   22.5250 N   0  0  0  0  0  0  0  0  0  0  0  0
  -23.2720  -28.9480   23.5100 O   0  0  0  0  0  0  0  0  0  0  0  0
  -20.7980  -29.9020   21.8200 H   0  0  0  0  0  0  0  0  0  0  0  0
  -17.8960  -28.1840   23.0100 C   0  0  0  0  0  0  0  0  0  0  0  0
  -20.4510  -28.4400   23.3040 C   0  0  0  0  0  3  0  0  0  0  0  0
  -20.5540  -26.9970   22.7570 C   0  0  0  0  0  2  0  0  0  0  0  0
  -19.4620  -26.6580   21.7380 C   0  0  0  0  0  2  0  0  0  0  0  0
  -18.0740  -26.8200   22.3650 C   0  0  0  0  0  2  0  0  0  0  0  0
  -19.0120  -28.9510   23.4370 C   0  0  0  0  0  0  0  0  0  0  0  0
  -18.7920  -30.2260   24.0000 C   0  0  0  0  0  3  0  0  0  0  0  0
  -17.4880  -30.7360   24.1410 C   0  0  0  0  0  3  0  0  0  0  0  0
  -16.3850  -29.9670   23.7300 C   0  0  0  0  0  3  0  0  0  0  0  0
  -16.5900  -28.6930   23.1720 C   0  0  0  0  0  3  0  0  0  0  0  0
  -25.7720  -32.5950   23.9260 C   0  0  0  0  0  3  0  0  0  0  0  0
  -25.4870  -34.0110   24.1940 N   0  0  0  0  0  0  0  0  0  0  0  0
  -25.8240  -35.0210   23.3800 C   0  0  0  0  0  0  0  0  0  0  0  0
  -26.4770  -34.8590   22.3460 O   0  0  0  0  0  0  0  0  0  0  0  0
  -24.9050  -34.2130   24.9930 H   0  0  0  0  0  0  0  0  0  0  0  0
  -24.1130  -36.8190   22.9720 C   0  0  0  0  0  1  0  0  0  0  0  0
  -25.3630  -36.4360   23.7800 C   0  0  0  0  0  3  0  0  0  0  0  0
  -27.5220  -37.3330   24.5340 C   0  0  0  0  0  1  0  0  0  0  0  0
  -26.4070  -37.4680   23.5990 N   0  0  0  0  0  0  0  0  0  0  0  0
  -26.0160  -38.4000   23.7040 H   0  0  0  0  0  0  0  0  0  0  0  0
  -26.2560  -31.8650   25.2380 C   0  0  1  0  0  0  0  0  0  0  0  0
  -25.1400  -31.6750   26.2920 C   0  0  0  0  0  1  0  0  0  0  0  0
  -26.8350  -30.4700   24.9050 C   0  0  0  0  0  1  0  0  0  0  0  0
  -27.3980  -32.6750   25.8950 C   0  0  0  0  0  1  0  0  0  0  0  0
  1  4  1  0
  1 49  1  0
  2  4  2  0
  2  5  1  0
  3  7  2  0
  4  3  1  0
  5  6  2  0
  6  7  1  0
  6 48  1  0
  8 16  1  0
  9 14  1  0
 10 11  1  0
 10  9  1  0
 12 11  1  0
 12 21  1  0
 12 13  1  0
 14  8  1  0
 14 13  1  0
 15  8  2  0
 16  5  1  0
 16 17  1  0
 18 19  2  0
 19 38  1  0
 20 23  1  0
 20 19  1  0
 21 22  1  0
 21 18  1  0
 22 20  2  0
 23 24  1  0
 24 25  2  0
 26 29  1  0
 26 25  1  0
 27 26  2  0
 28 27  1  0
 28 23  2  0
 29 30  1  0
 30 31  1  0
 31 32  2  0
 33 32  1  0
 33 37  1  0
 34 33  2  0
 35 30  2  0
 35 34  1  0
 36 35  1  0
 38 39  1  0
 39 41  1  0
 39 42  1  0
 40 38  2  0
 43 18  1  0
 43 44  1  0
 45 43  1  0
 47 48  1  0
 47 46  1  0
 48 46  1  0
 50 53  1  0
 50 49  1  0
 51 50  1  0
 52 50  1  0
 54 55  1  0
 54 53  1  0
 56 67  2  0
 57 55  1  0
 57 62  1  0
 58 66  1  0
 58 68  1  0
 59 65  1  0
 59 61  1  0
 60 66  1  0
 61 62  2  0
 61 60  1  0
 63 57  2  0
 64 63  1  0
 64 59  2  0
 65 58  1  0
 66 56  1  0
 68 70  2  0
 69 68  1  0
 71 69  1  0
 72 81  2  0
 72 77  1  0
 73 69  1  0
 73 77  1  0
 74 73  1  0
 75 76  1  0
 75 74  1  0
 76 72  1  0
 77 78  2  0
 78 79  1  0
 80 79  2  0
 81 80  1  0
 82 56  1  0
 82 83  1  0
 82 92  1  0
 83 86  1  0
 84 88  1  0
 84 83  1  0
 85 84  2  0
 88 87  1  0
 90 91  1  0
 90 88  1  0
 90 89  1  0
 92 95  1  1
 92 93  1  0
 94 92  1  0
M  ISO  4   8 100  16 100  54 101  55 101
M  END
>  <TORSDO>  (77) 
F 22

>  <SCORE>  (77) 
-4.064

>  <name>  (77) 
76

>  <ligand_id>  (77) 
76

>  <original_smiles>  (77) 
[H]c1nc(C2([H])C([H])([H])C2([H])[H])c(N([H])C(=O)N2C([H])([H])C([H])([H])C([H])([H])C([H])(n3nc(-c4c([H])c([H])c(Oc5c([H])c([H])c(F)c([H])c5F)c([H])c4[H])c(C(=O)N([H])[H])c3N([H])[H])C2([H])[H])c([H])c1C([H])([H])C([H])([H])[N+]([H])([H])C([H])([H])C([H])([H])Oc1c([H])c([H])c2c(c1[H])C([H])([H])N(C(=O)C([H])(N([H])C(=O)C([H])(N([H])C([H])([H])[H])C([H])([H])[H])C(C([H])([H])[H])(C([H])([H])[H])C([H])([H])[H])C([H])(C(=O)N([H])C1([H])c3c([H])c([H])c([H])c([H])c3C([H])([H])C([H])([H])C1([H])[H])C2([H])[H]

>  <smiles>  (77) 
[H]c1nc(C2([H])C([H])([H])C2([H])[H])c(N([H])C(=O)N2C([H])([H])C([H])([H])C([H])([H])C([H])(n3nc(-c4c([H])c([H])c(Oc5c([H])c([H])c(F)c([H])c5F)c([H])c4[H])c(C(=O)N([H])[H])c3N([H])[H])C2([H])[H])c([H])c1C([H])([H])C([H])([H])[N+]([H])([H])C([H])([H])C([H])([H])Oc1c([H])c([H])c2c(c1[H])C([H])([H])N(C(=O)C([H])(N([H])C(=O)C([H])(N([H])C([H])([H])[H])C([H])([H])[H])C(C([H])([H])[H])(C([H])([H])[H])C([H])([H])[H])C([H])(C(=O)N([H])C1([H])c3c([H])c([H])c([H])c([H])c3C([H])([H])C([H])([H])C1([H])[H])C2([H])[H]

$$$$
77:0:0
     RDKit          3D

 90 98  0  0  1  0  0  0  0  0999 V2000
  -28.3290  -22.6340   21.2790 C   0  0  0  0  0  3  0  0  0  0  0  0
  -28.5860  -21.2150   21.3770 C   0  0  0  0  0  3  0  0  0  0  0  0
  -29.4790  -22.6780   19.2140 C   0  0  0  0  0  3  0  0  0  0  0  0
  -28.7150  -23.4400   20.1640 C   0  0  0  0  0  0  0  0  0  0  0  0
  -29.2530  -20.4280   20.3780 C   0  0  0  0  0  0  0  0  0  0  0  0
  -29.7410  -21.2500   19.3010 C   0  0  0  0  0  0  0  0  0  0  0  0
  -32.0120  -20.8130   18.2420 C   0  0  0  0  0  1  0  0  0  0  0  0
  -30.4940  -20.6090   18.1410 C   0  0  0  0  0  2  0  0  0  0  0  0
  -29.1290  -18.7940   20.3940 C   0  0  0  0  0  3  0  0  0  0  0  0
  -30.2880  -17.6220   20.4160 C   0  0  0  0  0  3  0  0  0  0  0  0
  -30.6170  -14.9380   20.3040 C   0  0  0  0  0  0  0  0  0  0  0  0
  -30.4130  -12.6310   19.3280 C   0  0  0  0  0  2  0  0  0  0  0  0
  -29.4620  -12.6400   18.1100 C   0  0  0  0  0  2  0  0  0  0  0  0
  -27.9990  -12.4520   18.5530 C   0  0  0  0  0  2  0  0  0  0  0  0
  -27.6210  -13.3560   19.7570 C   0  0  0  0  0  3  0  0  0  0  0  0
  -28.6960  -13.3380   20.8680 C   0  0  0  0  0  2  0  0  0  0  0  0
  -29.9760  -13.7100   20.2500 N   0  0  0  0  0  0  0  0  0  0  0  0
  -31.8040  -15.0020   19.9770 O   0  0  0  0  0  0  0  0  0  0  0  0
  -29.8850  -16.1150   20.5170 N   0  0  0  0  0  0  0  0  0  0  0  0
  -28.9160  -15.9530   20.7450 H   0  0  0  0  0  0  0  0  0  0  0  0
  -25.2470  -13.9290   20.5380 C   0  0  0  0  0  0  0  0  0  0  0  0
  -24.1850  -13.1510   20.9090 C   0  0  0  0  0  0  0  0  0  0  0  0
  -24.6450  -11.8000   20.8490 C   0  0  0  0  0  0  0  0  0  0  0  0
  -26.2860  -13.0530   20.2690 N   0  0  0  0  0  0  0  0  0  0  0  0
  -25.9320  -11.7650   20.5220 N   0  0  0  0  0  0  0  0  0  0  0  0
  -23.9170  -10.5360   21.0280 C   0  0  0  0  0  0  0  0  0  0  0  0
  -24.3400   -9.5640   21.9630 C   0  0  0  0  0  3  0  0  0  0  0  0
  -23.6110   -8.3680   22.1310 C   0  0  0  0  0  3  0  0  0  0  0  0
  -22.4450   -8.1320   21.3660 C   0  0  0  0  0  0  0  0  0  0  0  0
  -22.0420   -9.0920   20.4210 C   0  0  0  0  0  3  0  0  0  0  0  0
  -22.7710  -10.2800   20.2500 C   0  0  0  0  0  3  0  0  0  0  0  0
  -21.6880   -6.9870   21.4430 O   0  0  0  0  0  0  0  0  0  0  0  0
  -21.6040   -6.2570   22.6010 C   0  0  0  0  0  0  0  0  0  0  0  0
  -21.1020   -6.8150   23.7980 C   0  0  0  0  0  3  0  0  0  0  0  0
  -20.9630   -6.0090   24.9470 C   0  0  0  0  0  3  0  0  0  0  0  0
  -21.3190   -4.6470   24.9000 C   0  0  0  0  0  0  0  0  0  0  0  0
  -21.8180   -4.0900   23.7080 C   0  0  0  0  0  3  0  0  0  0  0  0
  -21.9570   -4.8930   22.5610 C   0  0  0  0  0  0  0  0  0  0  0  0
  -22.4130   -4.3450   21.4090 F   0  0  0  0  0  0  0  0  0  0  0  0
  -21.1830   -3.8720   26.0000 F   0  0  0  0  0  0  0  0  0  0  0  0
  -22.7910  -13.6270   21.2010 C   0  0  0  0  0  0  0  0  0  0  0  0
  -22.0710  -12.9190   22.0640 N   0  0  0  0  0  0  0  0  0  0  0  0
  -22.3500  -14.6610   20.7020 O   0  0  0  0  0  0  0  0  0  0  0  0
  -22.4430  -12.0850   22.4940 H   0  0  0  0  0  0  0  0  0  0  0  0
  -21.1340  -13.2120   22.2950 H   0  0  0  0  0  0  0  0  0  0  0  0
  -25.4080  -15.3030   20.3770 N   0  0  0  0  0  0  0  0  0  0  0  0
  -24.6410  -15.9550   20.5030 H   0  0  0  0  0  0  0  0  0  0  0  0
  -26.2410  -15.7460   20.0150 H   0  0  0  0  0  0  0  0  0  0  0  0
  -27.9970  -24.8590   19.7960 C   0  0  0  0  0  2  0  0  0  0  0  0
  -28.2730  -26.2940   20.2710 O   0  0  0  0  0  0  0  0  0  0  0  0
  -24.6420  -31.9380   23.2420 C   0  0  0  0  0  0  0  0  0  0  0  0
  -27.2210  -27.2710   20.1790 C   0  0  0  0  0  0  0  0  0  0  0  0
  -23.4340  -30.5470   21.6030 C   0  0  0  0  0  3  0  0  0  0  0  0
  -24.8790  -28.9910   20.1650 C   0  0  0  0  0  0  0  0  0  0  0  0
  -25.9870  -30.8230   21.4300 C   0  0  0  0  0  2  0  0  0  0  0  0
  -26.0580  -29.4380   20.7750 C   0  0  0  0  0  0  0  0  0  0  0  0
  -27.2260  -28.5910   20.7750 C   0  0  0  0  0  3  0  0  0  0  0  0
  -26.0160  -26.9330   19.5100 C   0  0  0  0  0  3  0  0  0  0  0  0
  -24.8680  -27.7480   19.5200 C   0  0  0  0  0  3  0  0  0  0  0  0
  -23.6500  -29.8790   20.2210 C   0  0  0  0  0  2  0  0  0  0  0  0
  -24.7080  -31.1230   22.1460 N   0  0  0  0  0  0  0  0  0  0  0  0
  -23.5580  -32.2210   23.7740 O   0  0  0  0  0  0  0  0  0  0  0  0
  -22.7610  -29.5340   22.5620 C   0  0  0  0  0  0  0  0  0  0  0  0
  -21.4340  -29.3580   22.4370 N   0  0  0  0  0  0  0  0  0  0  0  0
  -23.4340  -28.9080   23.3850 O   0  0  0  0  0  0  0  0  0  0  0  0
  -20.9460  -29.9140   21.7480 H   0  0  0  0  0  0  0  0  0  0  0  0
  -18.0520  -28.1640   22.9500 C   0  0  0  0  0  0  0  0  0  0  0  0
  -20.6130  -28.4220   23.2090 C   0  0  0  0  0  3  0  0  0  0  0  0
  -20.7110  -26.9900   22.6340 C   0  0  0  0  0  2  0  0  0  0  0  0
  -19.6050  -26.6700   21.6220 C   0  0  0  0  0  2  0  0  0  0  0  0
  -18.2250  -26.8160   22.2700 C   0  0  0  0  0  2  0  0  0  0  0  0
  -19.1730  -28.9250   23.3780 C   0  0  0  0  0  0  0  0  0  0  0  0
  -18.9560  -30.1850   23.9750 C   0  0  0  0  0  3  0  0  0  0  0  0
  -17.6510  -30.6860   24.1450 C   0  0  0  0  0  3  0  0  0  0  0  0
  -16.5450  -29.9210   23.7350 C   0  0  0  0  0  3  0  0  0  0  0  0
  -16.7460  -28.6620   23.1430 C   0  0  0  0  0  3  0  0  0  0  0  0
  -25.9230  -32.5700   23.8630 C   0  0  0  0  0  3  0  0  0  0  0  0
  -26.4370  -31.8000   25.1410 C   0  0  1  0  0  0  0  0  0  0  0  0
  -25.3400  -31.5650   26.2070 C   0  0  0  0  0  1  0  0  0  0  0  0
  -27.0210  -30.4210   24.7570 C   0  0  0  0  0  1  0  0  0  0  0  0
  -27.5850  -32.5960   25.8060 C   0  0  0  0  0  1  0  0  0  0  0  0
  -25.6150  -33.9690   24.1950 N   0  0  0  0  0  0  0  0  0  0  0  0
  -25.9320  -35.0240   23.4330 C   0  0  0  0  0  0  0  0  0  0  0  0
  -26.5820  -34.9210   22.3900 O   0  0  0  0  0  0  0  0  0  0  0  0
  -25.0360  -34.1240   25.0080 H   0  0  0  0  0  0  0  0  0  0  0  0
  -24.1960  -36.8170   23.1150 C   0  0  0  0  0  1  0  0  0  0  0  0
  -25.4530  -36.4120   23.9020 C   0  0  0  0  0  3  0  0  0  0  0  0
  -27.5970  -37.3050   24.6980 C   0  0  0  0  0  1  0  0  0  0  0  0
  -26.4810  -37.4660   23.7690 N   0  0  0  0  0  0  0  0  0  0  0  0
  -26.0770  -38.3880   23.9180 H   0  0  0  0  0  0  0  0  0  0  0  0
  1  2  1  0
  3  6  2  0
  3  4  1  0
  4  1  2  0
  5  9  1  0
  5  2  2  0
  6  5  1  0
  8  7  1  0
  8  6  1  0
  9 10  2  0
 10 19  1  0
 11 19  1  0
 12 17  1  0
 13 14  1  0
 13 12  1  0
 15 14  1  0
 15 24  1  0
 15 16  1  0
 17 11  1  0
 17 16  1  0
 18 11  2  0
 19 20  1  0
 21 22  2  0
 22 41  1  0
 23 22  1  0
 23 26  1  0
 24 25  1  0
 24 21  1  0
 25 23  2  0
 26 27  1  0
 27 28  2  0
 29 32  1  0
 29 28  1  0
 30 29  2  0
 31 30  1  0
 31 26  2  0
 32 33  1  0
 33 34  1  0
 34 35  2  0
 36 35  1  0
 36 40  1  0
 37 36  2  0
 38 33  2  0
 38 37  1  0
 39 38  1  0
 41 42  1  0
 42 45  1  0
 42 44  1  0
 43 41  2  0
 46 47  1  0
 46 21  1  0
 48 46  1  0
 49  4  1  0
 49 50  1  0
 51 62  2  0
 52 50  1  0
 52 57  1  0
 53 61  1  0
 53 63  1  0
 54 60  1  0
 54 56  1  0
 55 61  1  0
 56 55  1  0
 57 56  2  0
 58 59  1  0
 58 52  2  0
 59 54  2  0
 60 53  1  0
 61 51  1  0
 63 65  2  0
 64 63  1  0
 66 64  1  0
 67 76  2  0
 67 72  1  0
 68 64  1  0
 68 72  1  0
 69 68  1  0
 70 71  1  0
 70 69  1  0
 71 67  1  0
 72 73  2  0
 73 74  1  0
 75 74  2  0
 76 75  1  0
 77 51  1  0
 77 82  1  0
 77 78  1  0
 78 81  1  1
 78 79  1  0
 80 78  1  0
 82 85  1  0
 83 87  1  0
 83 82  1  0
 84 83  2  0
 87 86  1  0
 89 87  1  0
 89 90  1  0
 89 88  1  0
M  ISO  4  11 100  19 100  49 101  50 101
M  END
>  <TORSDO>  (78) 
F 20

>  <SCORE>  (78) 
-13.890

>  <name>  (78) 
77

>  <ligand_id>  (78) 
77

>  <original_smiles>  (78) 
[H]c1c([H])c([H])c2c(c1[H])C([H])([H])C([H])([H])C([H])([H])C2([H])N([H])C(=O)C1([H])N(C(=O)C([H])(N([H])C(=O)C([H])(N([H])C([H])([H])[H])C([H])([H])[H])C(C([H])([H])[H])(C([H])([H])[H])C([H])([H])[H])C([H])([H])c2c([H])c(OC([H])([H])c3c([H])c([H])c(C([H])([H])C([H])([H])N([H])C(=O)N4C([H])([H])C([H])([H])C([H])([H])C([H])(n5nc(-c6c([H])c([H])c(Oc7c([H])c([H])c(F)c([H])c7F)c([H])c6[H])c(C(=O)N([H])[H])c5N([H])[H])C4([H])[H])c(C([H])([H])C([H])([H])[H])c3[H])c([H])c([H])c2C1([H])[H]

>  <smiles>  (78) 
[H]c1c([H])c([H])c2c(c1[H])C([H])([H])C([H])([H])C([H])([H])C2([H])N([H])C(=O)C1([H])N(C(=O)C([H])(N([H])C(=O)C([H])(N([H])C([H])([H])[H])C([H])([H])[H])C(C([H])([H])[H])(C([H])([H])[H])C([H])([H])[H])C([H])([H])c2c([H])c(OC([H])([H])c3c([H])c([H])c(C([H])([H])C([H])([H])N([H])C(=O)N4C([H])([H])C([H])([H])C([H])([H])C([H])(n5nc(-c6c([H])c([H])c(Oc7c([H])c([H])c(F)c([H])c7F)c([H])c6[H])c(C(=O)N([H])[H])c5N([H])[H])C4([H])[H])c(C([H])([H])C([H])([H])[H])c3[H])c([H])c([H])c2C1([H])[H]

$$$$
78:0:0
     RDKit          3D

 97106  0  0  1  0  0  0  0  0999 V2000
  -30.6210  -18.7350   21.9160 C   0  0  0  0  0  3  0  0  0  0  0  0
  -30.5580  -19.7440   22.8740 C   0  0  0  0  0  0  0  0  0  0  0  0
  -30.1580  -21.0230   22.5380 C   0  0  0  0  0  0  0  0  0  0  0  0
  -30.2380  -18.9910   20.5800 C   0  0  0  0  0  0  0  0  0  0  0  0
  -29.7510  -21.3490   21.2250 C   0  0  0  0  0  0  0  0  0  0  0  0
  -29.7300  -20.3210   20.2180 C   0  0  0  0  0  0  0  0  0  0  0  0
  -30.9750  -19.6310   24.3150 C   0  0  0  0  0  2  0  0  0  0  0  0
  -30.2820  -21.9420   23.7340 C   0  0  0  0  0  2  0  0  0  0  0  0
  -31.0080  -21.0940   24.8030 C   0  0  0  0  0  2  0  0  0  0  0  0
  -30.5760  -17.8210   19.6130 C   0  0  0  0  0  2  0  0  0  0  0  0
  -29.7560  -16.4560   19.6440 C   0  0  0  0  0  2  0  0  0  0  0  0
  -30.6710  -14.3650   20.8160 C   0  0  0  0  0  0  0  0  0  0  0  0
  -30.6170  -11.9220   20.4200 C   0  0  0  0  0  2  0  0  0  0  0  0
  -29.8380  -11.6880   19.1080 C   0  0  0  0  0  2  0  0  0  0  0  0
  -28.3260  -11.5780   19.3810 C   0  0  0  0  0  2  0  0  0  0  0  0
  -27.7970  -12.7180   20.2940 C   0  0  0  0  0  3  0  0  0  0  0  0
  -28.7110  -12.9250   21.5270 C   0  0  0  0  0  2  0  0  0  0  0  0
  -30.0830  -13.1490   21.0430 N   0  0  0  0  0  0  0  0  0  0  0  0
  -31.8490  -14.4630   20.4660 O   0  0  0  0  0  0  0  0  0  0  0  0
  -29.8330  -15.4360   20.7480 N   0  0  0  0  0  0  0  0  0  0  0  0
  -28.9430  -15.2510   21.1880 H   0  0  0  0  0  0  0  0  0  0  0  0
  -25.3930  -13.4330   20.8570 C   0  0  0  0  0  0  0  0  0  0  0  0
  -24.2630  -12.7110   21.1330 C   0  0  0  0  0  0  0  0  0  0  0  0
  -24.6530  -11.3370   21.0990 C   0  0  0  0  0  0  0  0  0  0  0  0
  -26.4040  -12.5010   20.6750 N   0  0  0  0  0  0  0  0  0  0  0  0
  -25.9580  -11.2350   20.8800 N   0  0  0  0  0  0  0  0  0  0  0  0
  -23.8470  -10.1140   21.2090 C   0  0  0  0  0  0  0  0  0  0  0  0
  -24.1770   -9.0910   22.1260 C   0  0  0  0  0  3  0  0  0  0  0  0
  -23.3770   -7.9330   22.2260 C   0  0  0  0  0  3  0  0  0  0  0  0
  -22.2320   -7.7880   21.4050 C   0  0  0  0  0  0  0  0  0  0  0  0
  -21.9210   -8.7980   20.4790 C   0  0  0  0  0  3  0  0  0  0  0  0
  -22.7210   -9.9490   20.3770 C   0  0  0  0  0  3  0  0  0  0  0  0
  -21.4120   -6.6860   21.4150 O   0  0  0  0  0  0  0  0  0  0  0  0
  -21.2880   -5.8900   22.5250 C   0  0  0  0  0  0  0  0  0  0  0  0
  -20.7880   -6.3870   23.7470 C   0  0  0  0  0  3  0  0  0  0  0  0
  -20.6120   -5.5180   24.8430 C   0  0  0  0  0  3  0  0  0  0  0  0
  -20.9270   -4.1510   24.7160 C   0  0  0  0  0  0  0  0  0  0  0  0
  -21.4200   -3.6530   23.4960 C   0  0  0  0  0  3  0  0  0  0  0  0
  -21.5980   -4.5200   22.4040 C   0  0  0  0  0  0  0  0  0  0  0  0
  -22.0520   -4.0300   21.2260 F   0  0  0  0  0  0  0  0  0  0  0  0
  -20.7520   -3.3150   25.7650 F   0  0  0  0  0  0  0  0  0  0  0  0
  -22.8770  -13.2590   21.3240 C   0  0  0  0  0  0  0  0  0  0  0  0
  -22.0570  -12.5890   22.1260 N   0  0  0  0  0  0  0  0  0  0  0  0
  -22.5290  -14.3150   20.7980 O   0  0  0  0  0  0  0  0  0  0  0  0
  -22.3520  -11.7340   22.5760 H   0  0  0  0  0  0  0  0  0  0  0  0
  -21.1250  -12.9380   22.2960 H   0  0  0  0  0  0  0  0  0  0  0  0
  -25.6410  -14.7950   20.7250 N   0  0  0  0  0  0  0  0  0  0  0  0
  -24.9030  -15.4870   20.7950 H   0  0  0  0  0  0  0  0  0  0  0  0
  -26.5320  -15.1940   20.4570 H   0  0  0  0  0  0  0  0  0  0  0  0
  -29.4220  -22.8160   20.9230 C   0  0  0  0  0  2  0  0  0  0  0  0
  -29.9500  -24.6830   19.5610 C   0  0  0  0  0  1  0  0  0  0  0  0
  -30.2930  -23.3560   19.9350 O   0  0  0  0  0  0  0  0  0  0  0  0
  -29.2730  -20.7550   18.7790 C   0  0  0  0  0  2  0  0  0  0  0  0
  -28.2270  -21.7770   18.7110 O   0  0  0  0  0  0  0  0  0  0  0  0
  -28.4400  -22.9670   17.8840 C   0  0  0  0  0  2  0  0  0  0  0  0
  -27.3220  -24.0740   18.0540 C   0  0  0  0  0  2  0  0  0  0  0  0
  -27.6680  -25.5090   17.9980 O   0  0  0  0  0  0  0  0  0  0  0  0
  -24.9010  -30.4290   22.4870 C   0  0  0  0  0  0  0  0  0  0  0  0
  -26.6420  -26.4300   18.2680 C   0  0  0  0  0  0  0  0  0  0  0  0
  -23.3800  -29.5410   20.7560 C   0  0  0  0  0  3  0  0  0  0  0  0
  -24.4870  -28.2080   18.8810 C   0  0  0  0  0  0  0  0  0  0  0  0
  -25.9080  -29.6510   20.3330 C   0  0  0  0  0  2  0  0  0  0  0  0
  -25.7590  -28.4470   19.4140 C   0  0  0  0  0  0  0  0  0  0  0  0
  -26.8400  -27.5710   19.1000 C   0  0  0  0  0  3  0  0  0  0  0  0
  -25.3450  -26.2440   17.7290 C   0  0  0  0  0  3  0  0  0  0  0  0
  -24.2800  -27.1110   18.0330 C   0  0  0  0  0  3  0  0  0  0  0  0
  -23.3730  -29.1620   19.2530 C   0  0  0  0  0  2  0  0  0  0  0  0
  -24.7550  -29.8760   21.2480 N   0  0  0  0  0  0  0  0  0  0  0  0
  -23.9160  -30.6880   23.1950 O   0  0  0  0  0  0  0  0  0  0  0  0
  -22.6980  -28.4090   21.5610 C   0  0  0  0  0  0  0  0  0  0  0  0
  -21.3550  -28.3720   21.5330 N   0  0  0  0  0  0  0  0  0  0  0  0
  -23.3740  -27.5760   22.1710 O   0  0  0  0  0  0  0  0  0  0  0  0
  -20.8730  -29.0940   21.0160 H   0  0  0  0  0  0  0  0  0  0  0  0
  -17.9270  -27.3550   22.0660 C   0  0  0  0  0  0  0  0  0  0  0  0
  -20.5090  -27.3720   22.1850 C   0  0  0  0  0  3  0  0  0  0  0  0
  -20.4540  -26.0660   21.3570 C   0  0  0  0  0  2  0  0  0  0  0  0
  -19.2670  -26.0170   20.3890 C   0  0  0  0  0  2  0  0  0  0  0  0
  -17.9450  -26.1420   21.1510 C   0  0  0  0  0  2  0  0  0  0  0  0
  -19.1310  -27.9410   22.5390 C   0  0  0  0  0  0  0  0  0  0  0  0
  -19.0560  -29.0880   23.3600 C   0  0  0  0  0  3  0  0  0  0  0  0
  -17.8120  -29.6440   23.7110 C   0  0  0  0  0  3  0  0  0  0  0  0
  -16.6240  -29.0500   23.2530 C   0  0  0  0  0  3  0  0  0  0  0  0
  -16.6810  -27.9060   22.4370 C   0  0  0  0  0  3  0  0  0  0  0  0
  -26.3060  -30.7830   23.0630 C   0  0  0  0  0  3  0  0  0  0  0  0
  -26.1970  -32.0880   23.7300 N   0  0  0  0  0  0  0  0  0  0  0  0
  -26.6600  -33.2410   23.2280 C   0  0  0  0  0  0  0  0  0  0  0  0
  -27.2950  -33.3020   22.1710 O   0  0  0  0  0  0  0  0  0  0  0  0
  -25.6410  -32.1200   24.5730 H   0  0  0  0  0  0  0  0  0  0  0  0
  -25.2230  -35.3000   23.3600 C   0  0  0  0  0  1  0  0  0  0  0  0
  -26.3750  -34.5290   24.0240 C   0  0  0  0  0  3  0  0  0  0  0  0
  -28.5940  -34.8620   25.0190 C   0  0  0  0  0  1  0  0  0  0  0  0
  -27.5550  -35.4120   24.1540 N   0  0  0  0  0  0  0  0  0  0  0  0
  -27.2840  -36.3210   24.5230 H   0  0  0  0  0  0  0  0  0  0  0  0
  -26.8580  -29.6930   24.0610 C   0  0  1  0  0  0  0  0  0  0  0  0
  -25.8660  -29.3210   25.1870 C   0  0  0  0  0  1  0  0  0  0  0  0
  -27.2220  -28.3940   23.3070 C   0  0  0  0  0  1  0  0  0  0  0  0
  -28.1630  -30.1990   24.7200 C   0  0  0  0  0  1  0  0  0  0  0  0
  1  2  1  0
  2  7  1  0
  3  2  2  0
  3  8  1  0
  4  1  2  0
  5  3  1  0
  6  4  1  0
  6  5  2  0
  7  9  1  0
  8  9  1  0
 10 11  1  0
 10  4  1  0
 11 20  1  0
 12 18  1  0
 13 18  1  0
 14 15  1  0
 14 13  1  0
 16 15  1  0
 16 25  1  0
 16 17  1  0
 18 17  1  0
 19 12  2  0
 20 12  1  0
 20 21  1  0
 22 23  2  0
 23 42  1  0
 24 23  1  0
 24 27  1  0
 25 22  1  0
 25 26  1  0
 26 24  2  0
 27 28  1  0
 28 29  2  0
 30 33  1  0
 30 29  1  0
 31 30  2  0
 32 31  1  0
 32 27  2  0
 33 34  1  0
 34 35  1  0
 35 36  2  0
 37 36  1  0
 37 41  1  0
 38 37  2  0
 39 34  2  0
 39 38  1  0
 40 39  1  0
 42 43  1  0
 43 46  1  0
 43 45  1  0
 44 42  2  0
 47 48  1  0
 47 22  1  0
 49 47  1  0
 50  5  1  0
 51 52  1  0
 52 50  1  0
 53  6  1  0
 54 53  1  0
 55 56  1  0
 55 54  1  0
 57 56  1  0
 57 59  1  0
 58 69  2  0
 59 64  1  0
 60 68  1  0
 60 70  1  0
 61 67  1  0
 61 63  1  0
 62 68  1  0
 63 62  1  0
 64 63  2  0
 65 66  1  0
 65 59  2  0
 66 61  2  0
 67 60  1  0
 68 58  1  0
 70 72  2  0
 71 70  1  0
 73 71  1  0
 74 83  2  0
 74 79  1  0
 75 71  1  0
 75 79  1  0
 76 75  1  0
 77 78  1  0
 77 76  1  0
 78 74  1  0
 79 80  2  0
 80 81  1  0
 82 81  2  0
 83 82  1  0
 84 58  1  0
 84 85  1  0
 84 94  1  0
 85 88  1  0
 86 85  1  0
 86 90  1  0
 87 86  2  0
 90 89  1  0
 90 92  1  0
 92 93  1  0
 92 91  1  0
 94 97  1  1
 94 95  1  0
 96 94  1  0
M  ISO  4  12 100  20 100  56 101  57 101
M  END
>  <TORSDO>  (79) 
F 24

>  <SCORE>  (79) 
-8.980

>  <name>  (79) 
78

>  <ligand_id>  (79) 
78

>  <original_smiles>  (79) 
[H]c1c([H])c([H])c2c(c1[H])C([H])([H])C([H])([H])C([H])([H])C2([H])N([H])C(=O)C1([H])N(C(=O)C([H])(N([H])C(=O)C([H])(N([H])C([H])([H])[H])C([H])([H])[H])C(C([H])([H])[H])(C([H])([H])[H])C([H])([H])[H])C([H])([H])c2c([H])c(OC([H])([H])C([H])([H])OC([H])([H])c3c(C([H])([H])OC([H])([H])[H])c4c(c([H])c3C([H])([H])C([H])([H])N([H])C(=O)N3C([H])([H])C([H])([H])C([H])([H])C([H])(n5nc(-c6c([H])c([H])c(Oc7c([H])c([H])c(F)c([H])c7F)c([H])c6[H])c(C(=O)N([H])[H])c5N([H])[H])C3([H])[H])C([H])([H])C([H])([H])C4([H])[H])c([H])c([H])c2C1([H])[H]

>  <smiles>  (79) 
[H]c1c([H])c([H])c2c(c1[H])C([H])([H])C([H])([H])C([H])([H])C2([H])N([H])C(=O)C1([H])N(C(=O)C([H])(N([H])C(=O)C([H])(N([H])C([H])([H])[H])C([H])([H])[H])C(C([H])([H])[H])(C([H])([H])[H])C([H])([H])[H])C([H])([H])c2c([H])c(OC([H])([H])C([H])([H])OC([H])([H])c3c(C([H])([H])OC([H])([H])[H])c4c(c([H])c3C([H])([H])C([H])([H])N([H])C(=O)N3C([H])([H])C([H])([H])C([H])([H])C([H])(n5nc(-c6c([H])c([H])c(Oc7c([H])c([H])c(F)c([H])c7F)c([H])c6[H])c(C(=O)N([H])[H])c5N([H])[H])C3([H])[H])C([H])([H])C([H])([H])C4([H])[H])c([H])c([H])c2C1([H])[H]

$$$$
79:0:0
     RDKit          3D

 88 96  0  0  1  0  0  0  0  0999 V2000
  -28.3300  -21.0430   20.1060 C   0  0  0  0  0  2  0  0  0  0  0  0
  -30.2200  -22.3250   20.2670 C   0  0  0  0  0  2  0  0  0  0  0  0
  -28.7120  -22.6690   20.5100 C   0  0  0  0  0  3  0  0  0  0  0  0
  -29.4490  -19.8520   20.6050 C   0  0  0  0  0  3  0  0  0  0  0  0
  -30.5790  -20.8510   20.5310 N   0  0  0  0  0  4  0  0  0  0  0  0
  -31.0850  -20.7990   21.4010 H   0  0  0  0  0  0  0  0  0  0  0  0
  -31.2230  -20.5660   19.8110 H   0  0  0  0  0  0  0  0  0  0  0  0
  -28.0010  -24.2570   19.9850 C   0  0  0  0  0  2  0  0  0  0  0  0
  -28.1780  -25.8650   20.3240 O   0  0  0  0  0  0  0  0  0  0  0  0
  -24.6210  -31.8620   23.2130 C   0  0  0  0  0  0  0  0  0  0  0  0
  -27.1720  -26.9650   20.2230 C   0  0  0  0  0  0  0  0  0  0  0  0
  -23.4260  -30.4580   21.5820 C   0  0  0  0  0  3  0  0  0  0  0  0
  -24.8740  -28.8460   20.1640 C   0  0  0  0  0  0  0  0  0  0  0  0
  -25.9920  -30.6660   21.4360 C   0  0  0  0  0  2  0  0  0  0  0  0
  -26.0610  -29.2530   20.7860 C   0  0  0  0  0  0  0  0  0  0  0  0
  -27.2020  -28.3320   20.7930 C   0  0  0  0  0  3  0  0  0  0  0  0
  -25.9590  -26.7140   19.5420 C   0  0  0  0  0  3  0  0  0  0  0  0
  -24.8490  -27.5980   19.5210 C   0  0  0  0  0  3  0  0  0  0  0  0
  -23.6550  -29.7670   20.2090 C   0  0  0  0  0  2  0  0  0  0  0  0
  -24.7020  -31.0230   22.1300 N   0  0  0  0  0  0  0  0  0  0  0  0
  -23.5330  -32.1550   23.7340 O   0  0  0  0  0  0  0  0  0  0  0  0
  -22.7320  -29.4680   22.5540 C   0  0  0  0  0  0  0  0  0  0  0  0
  -21.3990  -29.3090   22.4340 N   0  0  0  0  0  0  0  0  0  0  0  0
  -23.3960  -28.8430   23.3830 O   0  0  0  0  0  0  0  0  0  0  0  0
  -20.9160  -29.8640   21.7420 H   0  0  0  0  0  0  0  0  0  0  0  0
  -18.0150  -28.1100   22.9540 C   0  0  0  0  0  0  0  0  0  0  0  0
  -20.5750  -28.3770   23.2120 C   0  0  0  0  0  3  0  0  0  0  0  0
  -20.6750  -26.9410   22.6460 C   0  0  0  0  0  2  0  0  0  0  0  0
  -19.5710  -26.6130   21.6350 C   0  0  0  0  0  2  0  0  0  0  0  0
  -18.1910  -26.7590   22.2810 C   0  0  0  0  0  2  0  0  0  0  0  0
  -19.1340  -28.8770   23.3760 C   0  0  0  0  0  0  0  0  0  0  0  0
  -18.9130  -30.1390   23.9700 C   0  0  0  0  0  3  0  0  0  0  0  0
  -17.6060  -30.6360   24.1420 C   0  0  0  0  0  3  0  0  0  0  0  0
  -16.5040  -29.8670   23.7330 C   0  0  0  0  0  3  0  0  0  0  0  0
  -16.7080  -28.6060   23.1450 C   0  0  0  0  0  3  0  0  0  0  0  0
  -25.8930  -32.5070   23.8430 C   0  0  0  0  0  3  0  0  0  0  0  0
  -25.5750  -33.9080   24.1730 N   0  0  0  0  0  0  0  0  0  0  0  0
  -25.9060  -34.9690   23.4240 C   0  0  0  0  0  0  0  0  0  0  0  0
  -26.5730  -34.8700   22.3910 O   0  0  0  0  0  0  0  0  0  0  0  0
  -24.9800  -34.0570   24.9750 H   0  0  0  0  0  0  0  0  0  0  0  0
  -24.1770  -36.7710   23.0930 C   0  0  0  0  0  1  0  0  0  0  0  0
  -25.4230  -36.3580   23.8930 C   0  0  0  0  0  3  0  0  0  0  0  0
  -27.5630  -37.2410   24.7150 C   0  0  0  0  0  1  0  0  0  0  0  0
  -26.4560  -37.4110   23.7780 N   0  0  0  0  0  0  0  0  0  0  0  0
  -26.0510  -38.3310   23.9290 H   0  0  0  0  0  0  0  0  0  0  0  0
  -26.3990  -31.7480   25.1320 C   0  0  1  0  0  0  0  0  0  0  0  0
  -25.2980  -31.5260   26.1970 C   0  0  0  0  0  1  0  0  0  0  0  0
  -26.9800  -30.3640   24.7670 C   0  0  0  0  0  1  0  0  0  0  0  0
  -27.5470  -32.5460   25.7930 C   0  0  0  0  0  1  0  0  0  0  0  0
  -29.9770  -18.2030   20.0410 C   0  0  0  0  0  2  0  0  0  0  0  0
  -30.4190  -15.3100   20.2530 C   0  0  0  0  0  0  0  0  0  0  0  0
  -30.3710  -12.8680   19.3720 C   0  0  0  0  0  2  0  0  0  0  0  0
  -29.4450  -12.6790   18.1420 C   0  0  0  0  0  2  0  0  0  0  0  0
  -27.9980  -12.4110   18.5880 C   0  0  0  0  0  2  0  0  0  0  0  0
  -27.5580  -13.3680   19.7240 C   0  0  0  0  0  3  0  0  0  0  0  0
  -28.6110  -13.5050   20.8450 C   0  0  0  0  0  2  0  0  0  0  0  0
  -29.8420  -14.0070   20.2130 N   0  0  0  0  0  0  0  0  0  0  0  0
  -31.6270  -15.3020   19.9770 O   0  0  0  0  0  0  0  0  0  0  0  0
  -29.6820  -16.5930   20.3900 N   0  0  0  0  0  0  0  0  0  0  0  0
  -28.7170  -16.4320   20.6410 H   0  0  0  0  0  0  0  0  0  0  0  0
  -25.1890  -13.9240   20.4860 C   0  0  0  0  0  0  0  0  0  0  0  0
  -24.1300  -13.1460   20.8600 C   0  0  0  0  0  0  0  0  0  0  0  0
  -24.5990  -11.7960   20.8270 C   0  0  0  0  0  0  0  0  0  0  0  0
  -26.2320  -13.0500   20.2380 N   0  0  0  0  0  0  0  0  0  0  0  0
  -25.8890  -11.7630   20.5110 N   0  0  0  0  0  0  0  0  0  0  0  0
  -23.8720  -10.5340   21.0190 C   0  0  0  0  0  0  0  0  0  0  0  0
  -24.3070   -9.5630   21.9480 C   0  0  0  0  0  3  0  0  0  0  0  0
  -23.5770   -8.3680   22.1300 C   0  0  0  0  0  3  0  0  0  0  0  0
  -22.3990   -8.1340   21.3810 C   0  0  0  0  0  0  0  0  0  0  0  0
  -21.9840   -9.0920   20.4390 C   0  0  0  0  0  3  0  0  0  0  0  0
  -22.7140  -10.2790   20.2570 C   0  0  0  0  0  3  0  0  0  0  0  0
  -21.6430   -6.9900   21.4710 O   0  0  0  0  0  0  0  0  0  0  0  0
  -21.5970   -6.2470   22.6230 C   0  0  0  0  0  0  0  0  0  0  0  0
  -21.1810   -6.8020   23.8520 C   0  0  0  0  0  3  0  0  0  0  0  0
  -21.0810   -5.9850   24.9960 C   0  0  0  0  0  3  0  0  0  0  0  0
  -21.3880   -4.6140   24.9110 C   0  0  0  0  0  0  0  0  0  0  0  0
  -21.7970   -4.0580   23.6860 C   0  0  0  0  0  3  0  0  0  0  0  0
  -21.8970   -4.8710   22.5450 C   0  0  0  0  0  0  0  0  0  0  0  0
  -22.2720   -4.3270   21.3630 F   0  0  0  0  0  0  0  0  0  0  0  0
  -21.2860   -3.8270   26.0080 F   0  0  0  0  0  0  0  0  0  0  0  0
  -22.7330  -13.6220   21.1290 C   0  0  0  0  0  0  0  0  0  0  0  0
  -22.0060  -12.9290   21.9970 N   0  0  0  0  0  0  0  0  0  0  0  0
  -22.2960  -14.6470   20.6060 O   0  0  0  0  0  0  0  0  0  0  0  0
  -22.3730  -12.1010   22.4430 H   0  0  0  0  0  0  0  0  0  0  0  0
  -21.0680  -13.2310   22.2200 H   0  0  0  0  0  0  0  0  0  0  0  0
  -25.3470  -15.2950   20.3060 N   0  0  0  0  0  0  0  0  0  0  0  0
  -24.5740  -15.9420   20.4140 H   0  0  0  0  0  0  0  0  0  0  0  0
  -26.1790  -15.7330   19.9310 H   0  0  0  0  0  0  0  0  0  0  0  0
  1  3  1  0
  1  4  1  0
  2  3  1  0
  2  5  1  0
  3  8  1  0
  4 50  1  0
  5  4  1  0
  5  6  1  0
  7  5  1  0
  8  9  1  0
 10 21  2  0
 11  9  1  0
 11 16  1  0
 12 20  1  0
 12 22  1  0
 13 19  1  0
 13 15  1  0
 14 20  1  0
 15 16  2  0
 15 14  1  0
 17 11  2  0
 18 17  1  0
 18 13  2  0
 19 12  1  0
 20 10  1  0
 22 24  2  0
 23 22  1  0
 25 23  1  0
 26 35  2  0
 26 31  1  0
 27 23  1  0
 27 31  1  0
 28 27  1  0
 29 30  1  0
 29 28  1  0
 30 26  1  0
 31 32  2  0
 32 33  1  0
 34 33  2  0
 35 34  1  0
 36 10  1  0
 36 37  1  0
 36 46  1  0
 37 40  1  0
 38 42  1  0
 38 37  1  0
 39 38  2  0
 42 41  1  0
 44 42  1  0
 44 45  1  0
 44 43  1  0
 46 49  1  1
 46 47  1  0
 48 46  1  0
 50 59  1  0
 51 59  1  0
 52 57  1  0
 53 54  1  0
 53 52  1  0
 55 54  1  0
 55 64  1  0
 55 56  1  0
 57 51  1  0
 57 56  1  0
 58 51  2  0
 59 60  1  0
 61 62  2  0
 62 81  1  0
 63 62  1  0
 63 66  1  0
 64 61  1  0
 64 65  1  0
 65 63  2  0
 66 67  1  0
 67 68  2  0
 69 72  1  0
 69 68  1  0
 70 69  2  0
 71 70  1  0
 71 66  2  0
 72 73  1  0
 73 74  1  0
 74 75  2  0
 76 75  1  0
 76 80  1  0
 77 76  2  0
 78 73  2  0
 78 77  1  0
 79 78  1  0
 81 82  1  0
 82 85  1  0
 82 84  1  0
 83 81  2  0
 86 87  1  0
 86 61  1  0
 88 86  1  0
M  ISO  4   8 101   9 101  51 100  59 100
M  END
>  <TORSDO>  (80) 
F 18

>  <SCORE>  (80) 
-16.521

>  <name>  (80) 
79

>  <ligand_id>  (80) 
79

>  <original_smiles>  (80) 
[H]c1c([H])c([H])c2c(c1[H])C([H])([H])C([H])([H])C([H])([H])C2([H])N([H])C(=O)C1([H])N(C(=O)C([H])(N([H])C(=O)C([H])(N([H])C([H])([H])[H])C([H])([H])[H])C(C([H])([H])[H])(C([H])([H])[H])C([H])([H])[H])C([H])([H])c2c([H])c(OC([H])([H])C3([H])C([H])([H])C([H])(C([H])([H])N([H])C(=O)N4C([H])([H])C([H])([H])C([H])([H])C([H])(n5nc(-c6c([H])c([H])c(Oc7c([H])c([H])c(F)c([H])c7F)c([H])c6[H])c(C(=O)N([H])[H])c5N([H])[H])C4([H])[H])[N+]([H])([H])C3([H])[H])c([H])c([H])c2C1([H])[H]

>  <smiles>  (80) 
[H]c1c([H])c([H])c2c(c1[H])C([H])([H])C([H])([H])C([H])([H])C2([H])N([H])C(=O)C1([H])N(C(=O)C([H])(N([H])C(=O)C([H])(N([H])C([H])([H])[H])C([H])([H])[H])C(C([H])([H])[H])(C([H])([H])[H])C([H])([H])[H])C([H])([H])c2c([H])c(OC([H])([H])C3([H])C([H])([H])C([H])(C([H])([H])N([H])C(=O)N4C([H])([H])C([H])([H])C([H])([H])C([H])(n5nc(-c6c([H])c([H])c(Oc7c([H])c([H])c(F)c([H])c7F)c([H])c6[H])c(C(=O)N([H])[H])c5N([H])[H])C4([H])[H])[N+]([H])([H])C3([H])[H])c([H])c([H])c2C1([H])[H]

$$$$
80:0:0
     RDKit          3D

 91 99  0  0  1  0  0  0  0  0999 V2000
  -28.0670  -22.3390   18.1100 C   0  0  0  0  0  3  0  0  0  0  0  0
  -28.0180  -23.5760   18.7890 C   0  0  0  0  0  3  0  0  0  0  0  0
  -28.4950  -21.1560   18.7520 C   0  0  0  0  0  3  0  0  0  0  0  0
  -28.3940  -23.6770   20.1440 C   0  0  0  0  0  0  0  0  0  0  0  0
  -28.8350  -22.4410   20.7910 C   0  0  0  0  0  0  0  0  0  0  0  0
  -28.9060  -21.1520   20.1040 C   0  0  0  0  0  0  0  0  0  0  0  0
  -29.2440  -22.5130   22.2550 C   0  0  0  0  0  1  0  0  0  0  0  0
  -29.3830  -19.9180   20.7100 N   0  0  0  0  0  0  0  0  0  0  0  0
  -29.6840  -19.9950   21.6770 H   0  0  0  0  0  0  0  0  0  0  0  0
  -29.1980  -18.4960   20.2040 C   0  0  0  0  0  3  0  0  0  0  0  0
  -30.1430  -17.3270   20.8170 C   0  0  0  0  0  3  0  0  0  0  0  0
  -30.5690  -14.7430   20.4100 C   0  0  0  0  0  0  0  0  0  0  0  0
  -30.3940  -12.4740   19.3690 C   0  0  0  0  0  2  0  0  0  0  0  0
  -29.4520  -12.5470   18.1450 C   0  0  0  0  0  2  0  0  0  0  0  0
  -27.9840  -12.3570   18.5770 C   0  0  0  0  0  2  0  0  0  0  0  0
  -27.6040  -13.2340   19.8000 C   0  0  0  0  0  3  0  0  0  0  0  0
  -28.6640  -13.1450   20.9200 C   0  0  0  0  0  2  0  0  0  0  0  0
  -29.9540  -13.5160   20.3240 N   0  0  0  0  0  0  0  0  0  0  0  0
  -31.7570  -14.8630   20.1000 O   0  0  0  0  0  0  0  0  0  0  0  0
  -29.7750  -15.8510   20.6570 N   0  0  0  0  0  0  0  0  0  0  0  0
  -28.8050  -15.6300   20.8320 H   0  0  0  0  0  0  0  0  0  0  0  0
  -25.2090  -13.8010   20.5330 C   0  0  0  0  0  0  0  0  0  0  0  0
  -24.1500  -13.0160   20.9010 C   0  0  0  0  0  0  0  0  0  0  0  0
  -24.6280  -11.6690   20.8700 C   0  0  0  0  0  0  0  0  0  0  0  0
  -26.2620  -12.9330   20.2930 N   0  0  0  0  0  0  0  0  0  0  0  0
  -25.9200  -11.6470   20.5620 N   0  0  0  0  0  0  0  0  0  0  0  0
  -23.9140  -10.3990   21.0580 C   0  0  0  0  0  0  0  0  0  0  0  0
  -24.3600   -9.4340   21.9880 C   0  0  0  0  0  3  0  0  0  0  0  0
  -23.6460   -8.2300   22.1660 C   0  0  0  0  0  3  0  0  0  0  0  0
  -22.4730   -7.9820   21.4160 C   0  0  0  0  0  0  0  0  0  0  0  0
  -22.0460   -8.9370   20.4770 C   0  0  0  0  0  3  0  0  0  0  0  0
  -22.7590  -10.1330   20.2950 C   0  0  0  0  0  3  0  0  0  0  0  0
  -21.7290   -6.8300   21.5030 O   0  0  0  0  0  0  0  0  0  0  0  0
  -21.6980   -6.0790   22.6500 C   0  0  0  0  0  0  0  0  0  0  0  0
  -21.2750   -6.6200   23.8840 C   0  0  0  0  0  3  0  0  0  0  0  0
  -21.1930   -5.7960   25.0240 C   0  0  0  0  0  3  0  0  0  0  0  0
  -21.5210   -4.4300   24.9300 C   0  0  0  0  0  0  0  0  0  0  0  0
  -21.9350   -3.8870   23.7010 C   0  0  0  0  0  3  0  0  0  0  0  0
  -22.0200   -4.7100   22.5640 C   0  0  0  0  0  0  0  0  0  0  0  0
  -22.4010   -4.1780   21.3770 F   0  0  0  0  0  0  0  0  0  0  0  0
  -21.4350   -3.6350   26.0220 F   0  0  0  0  0  0  0  0  0  0  0  0
  -22.7480  -13.4790   21.1700 C   0  0  0  0  0  0  0  0  0  0  0  0
  -22.0240  -12.7750   22.0320 N   0  0  0  0  0  0  0  0  0  0  0  0
  -22.3030  -14.5000   20.6490 O   0  0  0  0  0  0  0  0  0  0  0  0
  -22.3970  -11.9500   22.4780 H   0  0  0  0  0  0  0  0  0  0  0  0
  -21.0830  -13.0690   22.2540 H   0  0  0  0  0  0  0  0  0  0  0  0
  -25.3570  -15.1720   20.3550 N   0  0  0  0  0  0  0  0  0  0  0  0
  -24.5720  -15.8070   20.4510 H   0  0  0  0  0  0  0  0  0  0  0  0
  -26.1830  -15.6210   19.9790 H   0  0  0  0  0  0  0  0  0  0  0  0
  -28.2000  -25.0780   20.8870 C   0  0  0  0  0  2  0  0  0  0  0  0
  -28.3120  -26.3970   20.1880 O   0  0  0  0  0  0  0  0  0  0  0  0
  -24.6010  -31.8600   23.2370 C   0  0  0  0  0  0  0  0  0  0  0  0
  -27.2070  -27.2700   20.2030 C   0  0  0  0  0  0  0  0  0  0  0  0
  -23.4010  -30.4610   21.5960 C   0  0  0  0  0  3  0  0  0  0  0  0
  -24.8510  -28.8990   20.1810 C   0  0  0  0  0  0  0  0  0  0  0  0
  -25.9420  -30.7710   21.4180 C   0  0  0  0  0  2  0  0  0  0  0  0
  -26.0220  -29.3880   20.7770 C   0  0  0  0  0  0  0  0  0  0  0  0
  -27.2080  -28.5870   20.7720 C   0  0  0  0  0  3  0  0  0  0  0  0
  -26.0160  -26.8360   19.5930 C   0  0  0  0  0  3  0  0  0  0  0  0
  -24.8500  -27.6300   19.5790 C   0  0  0  0  0  3  0  0  0  0  0  0
  -23.6180  -29.7810   20.2190 C   0  0  0  0  0  2  0  0  0  0  0  0
  -24.6680  -31.0500   22.1400 N   0  0  0  0  0  0  0  0  0  0  0  0
  -23.5160  -32.1380   23.7700 O   0  0  0  0  0  0  0  0  0  0  0  0
  -22.7330  -29.4490   22.5570 C   0  0  0  0  0  0  0  0  0  0  0  0
  -21.4070  -29.2720   22.4280 N   0  0  0  0  0  0  0  0  0  0  0  0
  -23.4070  -28.8250   23.3800 O   0  0  0  0  0  0  0  0  0  0  0  0
  -20.9210  -29.8270   21.7380 H   0  0  0  0  0  0  0  0  0  0  0  0
  -18.0290  -28.0740   22.9230 C   0  0  0  0  0  0  0  0  0  0  0  0
  -20.5860  -28.3370   23.1990 C   0  0  0  0  0  3  0  0  0  0  0  0
  -20.6910  -26.9030   22.6270 C   0  0  0  0  0  2  0  0  0  0  0  0
  -19.5920  -26.5780   21.6110 C   0  0  0  0  0  2  0  0  0  0  0  0
  -18.2080  -26.7230   22.2500 C   0  0  0  0  0  2  0  0  0  0  0  0
  -19.1460  -28.8380   23.3550 C   0  0  0  0  0  0  0  0  0  0  0  0
  -18.9240  -30.1030   23.9420 C   0  0  0  0  0  3  0  0  0  0  0  0
  -17.6170  -30.6000   24.1070 C   0  0  0  0  0  3  0  0  0  0  0  0
  -16.5160  -29.8340   23.6910 C   0  0  0  0  0  3  0  0  0  0  0  0
  -16.7230  -28.5730   23.1030 C   0  0  0  0  0  3  0  0  0  0  0  0
  -25.8810  -32.4940   23.8620 C   0  0  0  0  0  3  0  0  0  0  0  0
  -26.3920  -31.7250   25.1430 C   0  0  1  0  0  0  0  0  0  0  0  0
  -25.2960  -31.4970   26.2090 C   0  0  0  0  0  1  0  0  0  0  0  0
  -26.9750  -30.3450   24.7610 C   0  0  0  0  0  1  0  0  0  0  0  0
  -27.5420  -32.5200   25.8070 C   0  0  0  0  0  1  0  0  0  0  0  0
  -25.5730  -33.8940   24.1910 N   0  0  0  0  0  0  0  0  0  0  0  0
  -25.9030  -34.9460   23.4300 C   0  0  0  0  0  0  0  0  0  0  0  0
  -26.5700  -34.8410   22.3970 O   0  0  0  0  0  0  0  0  0  0  0  0
  -24.9820  -34.0500   24.9950 H   0  0  0  0  0  0  0  0  0  0  0  0
  -24.1780  -36.7440   23.0700 C   0  0  0  0  0  1  0  0  0  0  0  0
  -25.4170  -36.3360   23.8860 C   0  0  0  0  0  3  0  0  0  0  0  0
  -27.5520  -37.2190   24.7190 C   0  0  0  0  0  1  0  0  0  0  0  0
  -26.4520  -37.3870   23.7730 N   0  0  0  0  0  0  0  0  0  0  0  0
  -26.0470  -38.3080   23.9180 H   0  0  0  0  0  0  0  0  0  0  0  0
  1  3  2  0
  1  2  1  0
  2  4  2  0
  3  6  1  0
  4  5  1  0
  4 50  1  0
  5  7  1  0
  6  8  1  0
  6  5  2  0
  8  9  1  0
 10  8  1  0
 10 11  2  0
 12 20  1  0
 13 18  1  0
 14 15  1  0
 14 13  1  0
 16 15  1  0
 16 25  1  0
 16 17  1  0
 18 12  1  0
 18 17  1  0
 19 12  2  0
 20 11  1  0
 20 21  1  0
 22 23  2  0
 23 42  1  0
 24 23  1  0
 24 27  1  0
 25 22  1  0
 25 26  1  0
 26 24  2  0
 27 28  1  0
 28 29  2  0
 30 33  1  0
 30 29  1  0
 31 30  2  0
 32 31  1  0
 32 27  2  0
 33 34  1  0
 34 35  1  0
 35 36  2  0
 37 36  1  0
 37 41  1  0
 38 37  2  0
 39 34  2  0
 39 38  1  0
 40 39  1  0
 42 43  1  0
 43 46  1  0
 43 45  1  0
 44 42  2  0
 47 48  1  0
 47 22  1  0
 49 47  1  0
 51 53  1  0
 51 50  1  0
 52 63  2  0
 53 58  1  0
 54 62  1  0
 54 64  1  0
 55 61  1  0
 55 57  1  0
 56 62  1  0
 57 56  1  0
 58 57  2  0
 59 53  2  0
 60 59  1  0
 60 55  2  0
 61 54  1  0
 62 52  1  0
 64 66  2  0
 65 64  1  0
 67 65  1  0
 68 77  2  0
 68 73  1  0
 69 65  1  0
 69 73  1  0
 70 69  1  0
 71 72  1  0
 71 70  1  0
 72 68  1  0
 73 74  2  0
 74 75  1  0
 76 75  2  0
 77 76  1  0
 78 52  1  0
 78 83  1  0
 78 79  1  0
 79 82  1  1
 79 80  1  0
 81 79  1  0
 83 86  1  0
 84 88  1  0
 84 83  1  0
 85 84  2  0
 88 87  1  0
 90 88  1  0
 90 91  1  0
 90 89  1  0
M  ISO  4  12 100  20 100  50 101  51 101
M  END
>  <TORSDO>  (81) 
F 20

>  <SCORE>  (81) 
-13.957

>  <name>  (81) 
80

>  <ligand_id>  (81) 
80

>  <original_smiles>  (81) 
[H]c1c([H])c(N([H])C([H])([H])C([H])([H])N([H])C(=O)N2C([H])([H])C([H])([H])C([H])([H])C([H])(n3nc(-c4c([H])c([H])c(Oc5c([H])c([H])c(F)c([H])c5F)c([H])c4[H])c(C(=O)N([H])[H])c3N([H])[H])C2([H])[H])c(C([H])([H])[H])c(C([H])([H])Oc2c([H])c([H])c3c(c2[H])C([H])([H])N(C(=O)C([H])(N([H])C(=O)C([H])(N([H])C([H])([H])[H])C([H])([H])[H])C(C([H])([H])[H])(C([H])([H])[H])C([H])([H])[H])C([H])(C(=O)N([H])C2([H])c4c([H])c([H])c([H])c([H])c4C([H])([H])C([H])([H])C2([H])[H])C3([H])[H])c1[H]

>  <smiles>  (81) 
[H]c1c([H])c(N([H])C([H])([H])C([H])([H])N([H])C(=O)N2C([H])([H])C([H])([H])C([H])([H])C([H])(n3nc(-c4c([H])c([H])c(Oc5c([H])c([H])c(F)c([H])c5F)c([H])c4[H])c(C(=O)N([H])[H])c3N([H])[H])C2([H])[H])c(C([H])([H])[H])c(C([H])([H])Oc2c([H])c([H])c3c(c2[H])C([H])([H])N(C(=O)C([H])(N([H])C(=O)C([H])(N([H])C([H])([H])[H])C([H])([H])[H])C(C([H])([H])[H])(C([H])([H])[H])C([H])([H])[H])C([H])(C(=O)N([H])C2([H])c4c([H])c([H])c([H])c([H])c4C([H])([H])C([H])([H])C2([H])[H])C3([H])[H])c1[H]

$$$$
81:0:0
     RDKit          3D

 91100  0  0  1  0  0  0  0  0999 V2000
  -29.1250  -22.7040   21.2720 C   0  0  0  0  0  3  0  0  0  0  0  0
  -29.4900  -21.2880   21.3230 C   0  0  0  0  0  3  0  0  0  0  0  0
  -28.3040  -22.3850   19.0820 C   0  0  0  0  0  3  0  0  0  0  0  0
  -28.4460  -19.9280   18.1390 C   0  0  0  0  0  3  0  0  0  0  0  0
  -28.6270  -20.9700   19.1020 C   0  0  0  0  0  0  0  0  0  0  0  0
  -28.5060  -23.3370   20.1390 C   0  0  0  0  0  0  0  0  0  0  0  0
  -29.2370  -20.3600   20.2530 C   0  0  0  0  0  0  0  0  0  0  0  0
  -28.9280  -18.7480   18.6530 C   0  0  0  0  0  0  0  0  0  0  0  0
  -28.9570  -17.4480   17.9120 C   0  0  0  0  0  1  0  0  0  0  0  0
  -29.4210  -18.9140   19.9590 N   0  0  0  0  0  0  0  0  0  0  0  0
  -27.7470  -24.8020   20.0460 C   0  0  0  0  0  2  0  0  0  0  0  0
  -28.1780  -26.2610   20.3420 O   0  0  0  0  0  0  0  0  0  0  0  0
  -24.6430  -32.0220   23.3260 C   0  0  0  0  0  0  0  0  0  0  0  0
  -27.1550  -27.2850   20.2750 C   0  0  0  0  0  0  0  0  0  0  0  0
  -23.4220  -30.6390   21.6970 C   0  0  0  0  0  3  0  0  0  0  0  0
  -24.8470  -29.0620   20.2640 C   0  0  0  0  0  0  0  0  0  0  0  0
  -25.9800  -30.8790   21.5200 C   0  0  0  0  0  2  0  0  0  0  0  0
  -26.0370  -29.4880   20.8680 C   0  0  0  0  0  0  0  0  0  0  0  0
  -27.1920  -28.6160   20.8610 C   0  0  0  0  0  3  0  0  0  0  0  0
  -25.9340  -26.9760   19.6250 C   0  0  0  0  0  3  0  0  0  0  0  0
  -24.8090  -27.8180   19.6290 C   0  0  0  0  0  3  0  0  0  0  0  0
  -23.6290  -29.9680   20.3160 C   0  0  0  0  0  2  0  0  0  0  0  0
  -24.7030  -31.2000   22.2360 N   0  0  0  0  0  0  0  0  0  0  0  0
  -23.5620  -32.3170   23.8590 O   0  0  0  0  0  0  0  0  0  0  0  0
  -22.7400  -29.6340   22.6600 C   0  0  0  0  0  0  0  0  0  0  0  0
  -21.4150  -29.4500   22.5180 N   0  0  0  0  0  0  0  0  0  0  0  0
  -23.4050  -29.0220   23.4990 O   0  0  0  0  0  0  0  0  0  0  0  0
  -20.9350  -29.9940   21.8160 H   0  0  0  0  0  0  0  0  0  0  0  0
  -18.0360  -28.2260   22.9840 C   0  0  0  0  0  0  0  0  0  0  0  0
  -20.5890  -28.5180   23.2910 C   0  0  0  0  0  3  0  0  0  0  0  0
  -20.7140  -27.0770   22.7440 C   0  0  0  0  0  2  0  0  0  0  0  0
  -19.6320  -26.7250   21.7180 C   0  0  0  0  0  2  0  0  0  0  0  0
  -18.2380  -26.8680   22.3340 C   0  0  0  0  0  2  0  0  0  0  0  0
  -19.1400  -29.0080   23.4180 C   0  0  0  0  0  0  0  0  0  0  0  0
  -18.8980  -30.2770   23.9870 C   0  0  0  0  0  3  0  0  0  0  0  0
  -17.5850  -30.7670   24.1250 C   0  0  0  0  0  3  0  0  0  0  0  0
  -16.4960  -29.9830   23.7050 C   0  0  0  0  0  3  0  0  0  0  0  0
  -16.7230  -28.7150   23.1410 C   0  0  0  0  0  3  0  0  0  0  0  0
  -25.9300  -32.6460   23.9450 C   0  0  0  0  0  3  0  0  0  0  0  0
  -25.6360  -34.0520   24.2660 N   0  0  0  0  0  0  0  0  0  0  0  0
  -25.9450  -35.0950   23.4840 C   0  0  0  0  0  0  0  0  0  0  0  0
  -26.5780  -34.9770   22.4320 O   0  0  0  0  0  0  0  0  0  0  0  0
  -25.0730  -34.2190   25.0870 H   0  0  0  0  0  0  0  0  0  0  0  0
  -24.2070  -36.8890   23.1810 C   0  0  0  0  0  1  0  0  0  0  0  0
  -25.4810  -36.4920   23.9440 C   0  0  0  0  0  3  0  0  0  0  0  0
  -27.6470  -37.3880   24.6750 C   0  0  0  0  0  1  0  0  0  0  0  0
  -26.5100  -37.5410   23.7720 N   0  0  0  0  0  0  0  0  0  0  0  0
  -26.1100  -38.4650   23.9180 H   0  0  0  0  0  0  0  0  0  0  0  0
  -26.4310  -31.8830   25.2320 C   0  0  1  0  0  0  0  0  0  0  0  0
  -25.3280  -31.6620   26.2940 C   0  0  0  0  0  1  0  0  0  0  0  0
  -27.0080  -30.4980   24.8590 C   0  0  0  0  0  1  0  0  0  0  0  0
  -27.5810  -32.6760   25.8950 C   0  0  0  0  0  1  0  0  0  0  0  0
  -30.1170  -17.7310   20.7290 C   0  0  0  0  0  2  0  0  0  0  0  0
  -30.5230  -15.0380   20.3970 C   0  0  0  0  0  0  0  0  0  0  0  0
  -30.3940  -12.7110   19.4180 C   0  0  0  0  0  2  0  0  0  0  0  0
  -29.4600  -12.6890   18.1870 C   0  0  0  0  0  2  0  0  0  0  0  0
  -27.9950  -12.4740   18.6190 C   0  0  0  0  0  2  0  0  0  0  0  0
  -27.5870  -13.3840   19.8070 C   0  0  0  0  0  3  0  0  0  0  0  0
  -28.6430  -13.3800   20.9310 C   0  0  0  0  0  2  0  0  0  0  0  0
  -29.9150  -13.7900   20.3230 N   0  0  0  0  0  0  0  0  0  0  0  0
  -31.7280  -15.1090   20.1420 O   0  0  0  0  0  0  0  0  0  0  0  0
  -29.7460  -16.2110   20.5530 N   0  0  0  0  0  0  0  0  0  0  0  0
  -28.7630  -16.0190   20.6740 H   0  0  0  0  0  0  0  0  0  0  0  0
  -25.1990  -13.9440   20.5440 C   0  0  0  0  0  0  0  0  0  0  0  0
  -24.1390  -13.1610   20.9090 C   0  0  0  0  0  0  0  0  0  0  0  0
  -24.6140  -11.8130   20.8730 C   0  0  0  0  0  0  0  0  0  0  0  0
  -26.2490  -13.0750   20.3020 N   0  0  0  0  0  0  0  0  0  0  0  0
  -25.9060  -11.7880   20.5660 N   0  0  0  0  0  0  0  0  0  0  0  0
  -23.8960  -10.5440   21.0530 C   0  0  0  0  0  0  0  0  0  0  0  0
  -24.3200   -9.5830   21.9970 C   0  0  0  0  0  3  0  0  0  0  0  0
  -23.5990   -8.3810   22.1670 C   0  0  0  0  0  3  0  0  0  0  0  0
  -22.4420   -8.1300   21.3910 C   0  0  0  0  0  0  0  0  0  0  0  0
  -22.0380   -9.0800   20.4370 C   0  0  0  0  0  3  0  0  0  0  0  0
  -22.7590  -10.2740   20.2650 C   0  0  0  0  0  3  0  0  0  0  0  0
  -21.6960   -6.9790   21.4690 O   0  0  0  0  0  0  0  0  0  0  0  0
  -21.6180   -6.2490   22.6280 C   0  0  0  0  0  0  0  0  0  0  0  0
  -21.1060   -6.8010   23.8230 C   0  0  0  0  0  3  0  0  0  0  0  0
  -20.9790   -5.9950   24.9720 C   0  0  0  0  0  3  0  0  0  0  0  0
  -21.3510   -4.6380   24.9270 C   0  0  0  0  0  0  0  0  0  0  0  0
  -21.8550   -4.0860   23.7360 C   0  0  0  0  0  3  0  0  0  0  0  0
  -21.9850   -4.8890   22.5890 C   0  0  0  0  0  0  0  0  0  0  0  0
  -22.4500   -4.3460   21.4380 F   0  0  0  0  0  0  0  0  0  0  0  0
  -21.2230   -3.8620   26.0280 F   0  0  0  0  0  0  0  0  0  0  0  0
  -22.7370  -13.6250   21.1750 C   0  0  0  0  0  0  0  0  0  0  0  0
  -22.0080  -12.9150   22.0280 N   0  0  0  0  0  0  0  0  0  0  0  0
  -22.2970  -14.6550   20.6630 O   0  0  0  0  0  0  0  0  0  0  0  0
  -22.3780  -12.0840   22.4640 H   0  0  0  0  0  0  0  0  0  0  0  0
  -21.0650  -13.2050   22.2470 H   0  0  0  0  0  0  0  0  0  0  0  0
  -25.3500  -15.3170   20.3710 N   0  0  0  0  0  0  0  0  0  0  0  0
  -24.5700  -15.9570   20.4730 H   0  0  0  0  0  0  0  0  0  0  0  0
  -26.1810  -15.7650   20.0090 H   0  0  0  0  0  0  0  0  0  0  0  0
  1  2  1  0
  3  5  2  0
  3  6  1  0
  4  8  2  0
  4  5  1  0
  5  7  1  0
  6  1  2  0
  7  2  2  0
  8 10  1  0
  9  8  1  0
 10  7  1  0
 10 53  1  0
 11  6  1  0
 11 12  1  0
 13 24  2  0
 14 12  1  0
 14 19  1  0
 15 23  1  0
 15 25  1  0
 16 22  1  0
 16 18  1  0
 17 23  1  0
 18 17  1  0
 19 18  2  0
 20 21  1  0
 20 14  2  0
 21 16  2  0
 22 15  1  0
 23 13  1  0
 25 27  2  0
 26 25  1  0
 28 26  1  0
 29 38  2  0
 29 34  1  0
 30 26  1  0
 30 34  1  0
 31 30  1  0
 32 33  1  0
 32 31  1  0
 33 29  1  0
 34 35  2  0
 35 36  1  0
 37 36  2  0
 38 37  1  0
 39 13  1  0
 39 40  1  0
 39 49  1  0
 40 43  1  0
 41 45  1  0
 41 40  1  0
 42 41  2  0
 45 44  1  0
 47 48  1  0
 47 45  1  0
 47 46  1  0
 49 52  1  1
 49 50  1  0
 51 49  1  0
 54 62  1  0
 55 60  1  0
 56 57  1  0
 56 55  1  0
 58 57  1  0
 58 67  1  0
 58 59  1  0
 60 54  1  0
 60 59  1  0
 61 54  2  0
 62 63  1  0
 62 53  1  0
 64 65  2  0
 65 84  1  0
 66 65  1  0
 66 69  1  0
 67 64  1  0
 67 68  1  0
 68 66  2  0
 69 70  1  0
 70 71  2  0
 72 75  1  0
 72 71  1  0
 73 72  2  0
 74 73  1  0
 74 69  2  0
 75 76  1  0
 76 77  1  0
 77 78  2  0
 79 78  1  0
 79 83  1  0
 80 79  2  0
 81 76  2  0
 81 80  1  0
 82 81  1  0
 84 85  1  0
 85 88  1  0
 85 87  1  0
 86 84  2  0
 89 90  1  0
 89 64  1  0
 91 89  1  0
M  ISO  4  11 101  12 101  54 100  62 100
M  END
>  <TORSDO>  (82) 
F 18

>  <SCORE>  (82) 
-14.500

>  <name>  (82) 
81

>  <ligand_id>  (82) 
81

>  <original_smiles>  (82) 
[H]c1c([H])c([H])c2c(c1[H])C([H])([H])C([H])([H])C([H])([H])C2([H])N([H])C(=O)C1([H])N(C(=O)C([H])(N([H])C(=O)C([H])(N([H])C([H])([H])[H])C([H])([H])[H])C(C([H])([H])[H])(C([H])([H])[H])C([H])([H])[H])C([H])([H])c2c([H])c(OC([H])([H])c3c([H])c([H])c4c(c3[H])c([H])c(C([H])([H])[H])n4C([H])([H])N([H])C(=O)N3C([H])([H])C([H])([H])C([H])([H])C([H])(n4nc(-c5c([H])c([H])c(Oc6c([H])c([H])c(F)c([H])c6F)c([H])c5[H])c(C(=O)N([H])[H])c4N([H])[H])C3([H])[H])c([H])c([H])c2C1([H])[H]

>  <smiles>  (82) 
[H]c1c([H])c([H])c2c(c1[H])C([H])([H])C([H])([H])C([H])([H])C2([H])N([H])C(=O)C1([H])N(C(=O)C([H])(N([H])C(=O)C([H])(N([H])C([H])([H])[H])C([H])([H])[H])C(C([H])([H])[H])(C([H])([H])[H])C([H])([H])[H])C([H])([H])c2c([H])c(OC([H])([H])c3c([H])c([H])c4c(c3[H])c([H])c(C([H])([H])[H])n4C([H])([H])N([H])C(=O)N3C([H])([H])C([H])([H])C([H])([H])C([H])(n4nc(-c5c([H])c([H])c(Oc6c([H])c([H])c(F)c([H])c6F)c([H])c5[H])c(C(=O)N([H])[H])c4N([H])[H])C3([H])[H])c([H])c([H])c2C1([H])[H]

$$$$
82:0:0
     RDKit          3D

 92100  0  0  1  0  0  0  0  0999 V2000
  -28.7280  -24.3130   19.6070 C   0  0  0  0  0  0  0  0  0  0  0  0
  -29.5950  -22.0730   19.0280 C   0  0  0  0  0  2  0  0  0  0  0  0
  -29.0100  -22.6090   21.4110 C   0  0  0  0  0  2  0  0  0  0  0  0
  -29.3310  -20.5780   19.3370 C   0  0  0  0  0  2  0  0  0  0  0  0
  -28.7400  -21.1020   21.6270 C   0  0  0  0  0  2  0  0  0  0  0  0
  -29.0210  -23.0360   19.9970 N   0  0  0  0  0  0  0  0  0  0  0  0
  -29.5800  -20.2440   20.7580 N   0  0  1  0  0  4  0  0  0  0  0  0
  -28.7840  -24.6600   18.4220 O   0  0  0  0  0  0  0  0  0  0  0  0
  -30.5350  -20.5000   20.9600 H   0  0  0  0  0  0  0  0  0  0  0  0
  -28.3420  -25.3770   20.6650 C   0  0  0  0  0  2  0  0  0  0  0  0
  -28.4400  -26.7220   20.1490 O   0  0  0  0  0  0  0  0  0  0  0  0
  -24.5930  -31.8770   23.2090 C   0  0  0  0  0  0  0  0  0  0  0  0
  -27.2700  -27.4480   20.1450 C   0  0  0  0  0  0  0  0  0  0  0  0
  -23.4010  -30.4720   21.5590 C   0  0  0  0  0  3  0  0  0  0  0  0
  -24.8690  -28.9400   20.1430 C   0  0  0  0  0  0  0  0  0  0  0  0
  -25.9260  -30.8420   21.3740 C   0  0  0  0  0  2  0  0  0  0  0  0
  -26.0220  -29.4720   20.7330 C   0  0  0  0  0  0  0  0  0  0  0  0
  -27.2280  -28.7360   20.7260 C   0  0  0  0  0  3  0  0  0  0  0  0
  -26.1020  -26.9270   19.5490 C   0  0  0  0  0  3  0  0  0  0  0  0
  -24.9030  -27.6660   19.5470 C   0  0  0  0  0  3  0  0  0  0  0  0
  -23.6210  -29.7920   20.1800 C   0  0  0  0  0  2  0  0  0  0  0  0
  -24.6580  -31.0780   22.1060 N   0  0  0  0  0  0  0  0  0  0  0  0
  -23.5090  -32.1440   23.7450 O   0  0  0  0  0  0  0  0  0  0  0  0
  -22.7490  -29.4480   22.5150 C   0  0  0  0  0  0  0  0  0  0  0  0
  -21.4210  -29.2800   22.3960 N   0  0  0  0  0  0  0  0  0  0  0  0
  -23.4320  -28.8070   23.3180 O   0  0  0  0  0  0  0  0  0  0  0  0
  -20.9310  -29.8490   21.7200 H   0  0  0  0  0  0  0  0  0  0  0  0
  -18.0370  -28.1270   22.9180 C   0  0  0  0  0  0  0  0  0  0  0  0
  -20.6010  -28.3430   23.1630 C   0  0  0  0  0  3  0  0  0  0  0  0
  -20.6760  -26.9190   22.5640 C   0  0  0  0  0  2  0  0  0  0  0  0
  -19.5570  -26.6280   21.5590 C   0  0  0  0  0  2  0  0  0  0  0  0
  -18.1850  -26.7840   22.2210 C   0  0  0  0  0  2  0  0  0  0  0  0
  -19.1720  -28.8660   23.3460 C   0  0  0  0  0  0  0  0  0  0  0  0
  -18.9790  -30.1240   23.9560 C   0  0  0  0  0  3  0  0  0  0  0  0
  -17.6840  -30.6440   24.1430 C   0  0  0  0  0  3  0  0  0  0  0  0
  -16.5640  -29.9010   23.7320 C   0  0  0  0  0  3  0  0  0  0  0  0
  -16.7410  -28.6440   23.1250 C   0  0  0  0  0  3  0  0  0  0  0  0
  -25.8740  -32.5100   23.8380 C   0  0  0  0  0  3  0  0  0  0  0  0
  -26.3980  -31.7290   25.1050 C   0  0  1  0  0  0  0  0  0  0  0  0
  -25.3080  -31.4690   26.1700 C   0  0  0  0  0  1  0  0  0  0  0  0
  -26.9930  -30.3610   24.6940 C   0  0  0  0  0  1  0  0  0  0  0  0
  -27.5420  -32.5250   25.7760 C   0  0  0  0  0  1  0  0  0  0  0  0
  -25.5560  -33.9030   24.1810 N   0  0  0  0  0  0  0  0  0  0  0  0
  -25.8690  -34.9630   23.4240 C   0  0  0  0  0  0  0  0  0  0  0  0
  -26.5300  -34.8710   22.3850 O   0  0  0  0  0  0  0  0  0  0  0  0
  -24.9690  -34.0470   24.9900 H   0  0  0  0  0  0  0  0  0  0  0  0
  -24.1150  -36.7340   23.1030 C   0  0  0  0  0  1  0  0  0  0  0  0
  -25.3730  -36.3430   23.8950 C   0  0  0  0  0  3  0  0  0  0  0  0
  -27.5060  -37.2510   24.7010 C   0  0  0  0  0  1  0  0  0  0  0  0
  -26.3910  -37.4090   23.7710 N   0  0  0  0  0  0  0  0  0  0  0  0
  -25.9760  -38.3240   23.9250 H   0  0  0  0  0  0  0  0  0  0  0  0
  -29.4650  -18.7890   21.0890 C   0  0  0  0  0  2  0  0  0  0  0  0
  -30.6630  -17.9330   20.5890 C   0  0  0  0  0  2  0  0  0  0  0  0
  -30.9790  -16.6650   21.4340 C   0  0  0  0  0  2  0  0  0  0  0  0
  -30.8950  -14.4740   20.2180 C   0  0  0  0  0  0  0  0  0  0  0  0
  -30.5100  -12.3480   19.0210 C   0  0  0  0  0  2  0  0  0  0  0  0
  -29.5250  -12.5670   17.8560 C   0  0  0  0  0  2  0  0  0  0  0  0
  -28.0680  -12.4370   18.3410 C   0  0  0  0  0  2  0  0  0  0  0  0
  -27.7870  -13.2740   19.6180 C   0  0  0  0  0  3  0  0  0  0  0  0
  -28.8760  -13.0300   20.6850 C   0  0  0  0  0  2  0  0  0  0  0  0
  -30.1840  -13.3240   20.0740 N   0  0  0  0  0  0  0  0  0  0  0  0
  -31.9680  -14.6770   19.6430 O   0  0  0  0  0  0  0  0  0  0  0  0
  -30.3310  -15.4200   20.9910 N   0  0  0  0  0  0  0  0  0  0  0  0
  -29.4400  -15.1850   21.4050 H   0  0  0  0  0  0  0  0  0  0  0  0
  -25.4250  -13.9060   20.4240 C   0  0  0  0  0  0  0  0  0  0  0  0
  -24.3600  -13.1440   20.8230 C   0  0  0  0  0  0  0  0  0  0  0  0
  -24.8000  -11.7870   20.7570 C   0  0  0  0  0  0  0  0  0  0  0  0
  -26.4490  -13.0130   20.1430 N   0  0  0  0  0  0  0  0  0  0  0  0
  -26.0770  -11.7330   20.4000 N   0  0  0  0  0  0  0  0  0  0  0  0
  -24.0630  -10.5320   20.9570 C   0  0  0  0  0  0  0  0  0  0  0  0
  -24.5020   -9.5580   21.8810 C   0  0  0  0  0  3  0  0  0  0  0  0
  -23.7660   -8.3680   22.0690 C   0  0  0  0  0  3  0  0  0  0  0  0
  -22.5780   -8.1440   21.3340 C   0  0  0  0  0  0  0  0  0  0  0  0
  -22.1580   -9.1070   20.4000 C   0  0  0  0  0  3  0  0  0  0  0  0
  -22.8950  -10.2880   20.2090 C   0  0  0  0  0  3  0  0  0  0  0  0
  -21.8130   -7.0080   21.4320 O   0  0  0  0  0  0  0  0  0  0  0  0
  -21.7560   -6.2750   22.5910 C   0  0  0  0  0  0  0  0  0  0  0  0
  -21.3200   -6.8420   23.8090 C   0  0  0  0  0  3  0  0  0  0  0  0
  -21.2110   -6.0370   24.9600 C   0  0  0  0  0  3  0  0  0  0  0  0
  -21.5280   -4.6660   24.8950 C   0  0  0  0  0  0  0  0  0  0  0  0
  -21.9560   -4.1000   23.6820 C   0  0  0  0  0  3  0  0  0  0  0  0
  -22.0670   -4.9020   22.5330 C   0  0  0  0  0  0  0  0  0  0  0  0
  -22.4600   -4.3470   21.3610 F   0  0  0  0  0  0  0  0  0  0  0  0
  -21.4150   -3.8910   25.9990 F   0  0  0  0  0  0  0  0  0  0  0  0
  -22.9820  -13.6380   21.1550 C   0  0  0  0  0  0  0  0  0  0  0  0
  -22.2770  -12.9380   22.0370 N   0  0  0  0  0  0  0  0  0  0  0  0
  -22.5400  -14.6770   20.6680 O   0  0  0  0  0  0  0  0  0  0  0  0
  -22.6470  -12.0960   22.4530 H   0  0  0  0  0  0  0  0  0  0  0  0
  -21.3530  -13.2500   22.3030 H   0  0  0  0  0  0  0  0  0  0  0  0
  -25.6050  -15.2770   20.2580 N   0  0  0  0  0  0  0  0  0  0  0  0
  -24.8520  -15.9410   20.3960 H   0  0  0  0  0  0  0  0  0  0  0  0
  -26.4490  -15.7030   19.8940 H   0  0  0  0  0  0  0  0  0  0  0  0
  1  6  1  0
  1 10  1  0
  2  4  1  0
  2  6  1  0
  3  5  1  0
  4  7  1  0
  6  3  1  0
  7  9  1  1
  7 52  1  0
  7  5  1  0
  8  1  2  0
 11 10  1  0
 12 23  2  0
 13 11  1  0
 13 18  1  0
 14 22  1  0
 14 24  1  0
 15 21  1  0
 15 17  1  0
 16 22  1  0
 17 16  1  0
 18 17  2  0
 19 13  2  0
 20 19  1  0
 20 15  2  0
 21 14  1  0
 22 12  1  0
 24 26  2  0
 25 24  1  0
 27 25  1  0
 28 37  2  0
 28 33  1  0
 29 25  1  0
 29 33  1  0
 30 29  1  0
 31 32  1  0
 31 30  1  0
 32 28  1  0
 33 34  2  0
 34 35  1  0
 36 35  2  0
 37 36  1  0
 38 12  1  0
 38 43  1  0
 38 39  1  0
 39 42  1  1
 39 40  1  0
 41 39  1  0
 43 46  1  0
 44 48  1  0
 44 43  1  0
 45 44  2  0
 48 47  1  0
 50 48  1  0
 50 51  1  0
 50 49  1  0
 53 52  1  0
 53 54  1  0
 55 63  1  0
 56 61  1  0
 57 58  1  0
 57 56  1  0
 59 58  1  0
 59 68  1  0
 59 60  1  0
 61 55  1  0
 61 60  1  0
 62 55  2  0
 63 64  1  0
 63 54  1  0
 65 66  2  0
 66 85  1  0
 67 66  1  0
 67 70  1  0
 68 69  1  0
 68 65  1  0
 69 67  2  0
 70 71  1  0
 71 72  2  0
 73 76  1  0
 73 72  1  0
 74 73  2  0
 75 74  1  0
 75 70  2  0
 76 77  1  0
 77 78  1  0
 78 79  2  0
 80 79  1  0
 80 84  1  0
 81 80  2  0
 82 77  2  0
 82 81  1  0
 83 82  1  0
 85 86  1  0
 86 89  1  0
 86 88  1  0
 87 85  2  0
 90 91  1  0
 90 65  1  0
 92 90  1  0
M  ISO  4  10 101  11 101  55 100  63 100
M  END
>  <TORSDO>  (83) 
F 20

>  <SCORE>  (83) 
-13.613

>  <name>  (83) 
82

>  <ligand_id>  (83) 
82

>  <original_smiles>  (83) 
[H]c1c([H])c([H])c2c(c1[H])C([H])([H])C([H])([H])C([H])([H])C2([H])N([H])C(=O)C1([H])N(C(=O)C([H])(N([H])C(=O)C([H])(N([H])C([H])([H])[H])C([H])([H])[H])C(C([H])([H])[H])(C([H])([H])[H])C([H])([H])[H])C([H])([H])c2c([H])c(OC([H])([H])C(=O)N3C([H])([H])C([H])([H])[N+]([H])(C([H])([H])C([H])([H])C([H])([H])N([H])C(=O)N4C([H])([H])C([H])([H])C([H])([H])C([H])(n5nc(-c6c([H])c([H])c(Oc7c([H])c([H])c(F)c([H])c7F)c([H])c6[H])c(C(=O)N([H])[H])c5N([H])[H])C4([H])[H])C([H])([H])C3([H])[H])c([H])c([H])c2C1([H])[H]

>  <smiles>  (83) 
[H]c1c([H])c([H])c2c(c1[H])C([H])([H])C([H])([H])C([H])([H])C2([H])N([H])C(=O)C1([H])N(C(=O)C([H])(N([H])C(=O)C([H])(N([H])C([H])([H])[H])C([H])([H])[H])C(C([H])([H])[H])(C([H])([H])[H])C([H])([H])[H])C([H])([H])c2c([H])c(OC([H])([H])C(=O)N3C([H])([H])C([H])([H])[N+]([H])(C([H])([H])C([H])([H])C([H])([H])N([H])C(=O)N4C([H])([H])C([H])([H])C([H])([H])C([H])(n5nc(-c6c([H])c([H])c(Oc7c([H])c([H])c(F)c([H])c7F)c([H])c6[H])c(C(=O)N([H])[H])c5N([H])[H])C4([H])[H])C([H])([H])C3([H])[H])c([H])c([H])c2C1([H])[H]

$$$$
83:0:0
     RDKit          3D

 93101  0  0  1  0  0  0  0  0999 V2000
  -29.9580  -19.8760   18.5220 C   0  0  0  0  0  3  0  0  0  0  0  0
  -30.0370  -21.1970   18.0140 C   0  0  0  0  0  3  0  0  0  0  0  0
  -27.6500  -21.4340   18.2470 C   0  0  0  0  0  3  0  0  0  0  0  0
  -28.7270  -19.3250   18.9560 C   0  0  0  0  0  0  0  0  0  0  0  0
  -27.5450  -20.1120   18.7590 C   0  0  0  0  0  0  0  0  0  0  0  0
  -28.8890  -22.0120   17.8920 C   0  0  0  0  0  0  0  0  0  0  0  0
  -28.6960  -17.8970   19.5810 C   0  0  0  0  0  2  0  0  0  0  0  0
  -29.9980  -17.3700   20.2860 C   0  0  0  0  0  2  0  0  0  0  0  0
  -30.8030  -14.9740   20.6160 C   0  0  0  0  0  0  0  0  0  0  0  0
  -30.7440  -12.6880   19.6930 C   0  0  0  0  0  2  0  0  0  0  0  0
  -29.8920  -12.7510   18.4110 C   0  0  0  0  0  2  0  0  0  0  0  0
  -28.3910  -12.5780   18.7400 C   0  0  0  0  0  2  0  0  0  0  0  0
  -27.9270  -13.4950   19.9030 C   0  0  0  0  0  3  0  0  0  0  0  0
  -28.9030  -13.4040   21.1010 C   0  0  0  0  0  2  0  0  0  0  0  0
  -30.2460  -13.7300   20.6050 N   0  0  0  0  0  0  0  0  0  0  0  0
  -31.9580  -15.1910   20.2550 O   0  0  0  0  0  0  0  0  0  0  0  0
  -29.9010  -15.9720   20.7910 N   0  0  0  0  0  0  0  0  0  0  0  0
  -29.0000  -15.6660   21.1240 H   0  0  0  0  0  0  0  0  0  0  0  0
  -25.5090  -14.0930   20.5530 C   0  0  0  0  0  0  0  0  0  0  0  0
  -24.4260  -13.3100   20.8480 C   0  0  0  0  0  0  0  0  0  0  0  0
  -24.8790  -11.9600   20.7550 C   0  0  0  0  0  0  0  0  0  0  0  0
  -26.5540  -13.2130   20.3140 N   0  0  0  0  0  0  0  0  0  0  0  0
  -26.1780  -11.9230   20.4930 N   0  0  0  0  0  0  0  0  0  0  0  0
  -24.1380  -10.6940   20.8480 C   0  0  0  0  0  0  0  0  0  0  0  0
  -24.5670   -9.6450   21.6930 C   0  0  0  0  0  3  0  0  0  0  0  0
  -23.8290   -8.4430   21.7750 C   0  0  0  0  0  3  0  0  0  0  0  0
  -22.6460   -8.2830   21.0140 C   0  0  0  0  0  0  0  0  0  0  0  0
  -22.2390   -9.3180   20.1560 C   0  0  0  0  0  3  0  0  0  0  0  0
  -22.9770  -10.5120   20.0720 C   0  0  0  0  0  3  0  0  0  0  0  0
  -21.8790   -7.1430   21.0090 O   0  0  0  0  0  0  0  0  0  0  0  0
  -21.8900   -6.2660   22.0640 C   0  0  0  0  0  0  0  0  0  0  0  0
  -21.5850   -6.6800   23.3790 C   0  0  0  0  0  3  0  0  0  0  0  0
  -21.5430   -5.7340   24.4220 C   0  0  0  0  0  3  0  0  0  0  0  0
  -21.7960   -4.3750   24.1510 C   0  0  0  0  0  0  0  0  0  0  0  0
  -22.0940   -3.9610   22.8410 C   0  0  0  0  0  3  0  0  0  0  0  0
  -22.1390   -4.9050   21.8000 C   0  0  0  0  0  0  0  0  0  0  0  0
  -22.4090   -4.5000   20.5350 F   0  0  0  0  0  0  0  0  0  0  0  0
  -21.7440   -3.4610   25.1490 F   0  0  0  0  0  0  0  0  0  0  0  0
  -23.0220  -13.7870   21.0830 C   0  0  0  0  0  0  0  0  0  0  0  0
  -22.2620  -13.0700   21.9060 N   0  0  0  0  0  0  0  0  0  0  0  0
  -22.6120  -14.8300   20.5790 O   0  0  0  0  0  0  0  0  0  0  0  0
  -22.6050  -12.2300   22.3470 H   0  0  0  0  0  0  0  0  0  0  0  0
  -21.3180  -13.3730   22.1030 H   0  0  0  0  0  0  0  0  0  0  0  0
  -25.6980  -15.4670   20.4640 N   0  0  0  0  0  0  0  0  0  0  0  0
  -24.9180  -16.1110   20.5240 H   0  0  0  0  0  0  0  0  0  0  0  0
  -26.5510  -15.9020   20.1370 H   0  0  0  0  0  0  0  0  0  0  0  0
  -26.1620  -19.5440   19.1070 C   0  0  0  0  0  2  0  0  0  0  0  0
  -24.5150  -21.2970   18.1990 C   0  0  0  0  0  1  0  0  0  0  0  0
  -25.0190  -19.8450   18.1130 C   0  0  0  0  0  2  0  0  0  0  0  0
  -29.0600  -23.3010   17.4020 O   0  0  0  0  0  0  0  0  0  0  0  0
  -28.0520  -24.3180   17.5620 C   0  0  0  0  0  2  0  0  0  0  0  0
  -28.1590  -25.1360   18.8850 C   0  0  0  0  0  2  0  0  0  0  0  0
  -28.2750  -26.5770   18.7620 O   0  0  0  0  0  0  0  0  0  0  0  0
  -24.8220  -31.1380   23.0710 C   0  0  0  0  0  0  0  0  0  0  0  0
  -27.1440  -27.3430   18.9910 C   0  0  0  0  0  0  0  0  0  0  0  0
  -23.4980  -30.1420   21.2390 C   0  0  0  0  0  3  0  0  0  0  0  0
  -24.8270  -28.9040   19.4580 C   0  0  0  0  0  0  0  0  0  0  0  0
  -26.0330  -30.4580   21.0010 C   0  0  0  0  0  2  0  0  0  0  0  0
  -26.0350  -29.2570   20.0710 C   0  0  0  0  0  0  0  0  0  0  0  0
  -27.2020  -28.4900   19.8240 C   0  0  0  0  0  3  0  0  0  0  0  0
  -25.9120  -27.0180   18.3840 C   0  0  0  0  0  3  0  0  0  0  0  0
  -24.7610  -27.7900   18.6130 C   0  0  0  0  0  3  0  0  0  0  0  0
  -23.6210  -29.7640   19.7430 C   0  0  0  0  0  2  0  0  0  0  0  0
  -24.8040  -30.5830   21.8260 N   0  0  0  0  0  0  0  0  0  0  0  0
  -23.7710  -31.3180   23.7060 O   0  0  0  0  0  0  0  0  0  0  0  0
  -22.8490  -28.9640   21.9980 C   0  0  0  0  0  0  0  0  0  0  0  0
  -21.5180  -28.8370   21.8820 N   0  0  0  0  0  0  0  0  0  0  0  0
  -23.5390  -28.1650   22.6360 O   0  0  0  0  0  0  0  0  0  0  0  0
  -21.0180  -29.5270   21.3410 H   0  0  0  0  0  0  0  0  0  0  0  0
  -18.1330  -27.6100   22.2200 C   0  0  0  0  0  0  0  0  0  0  0  0
  -20.7010  -27.7820   22.4780 C   0  0  0  0  0  3  0  0  0  0  0  0
  -20.7720  -26.4870   21.6360 C   0  0  0  0  0  2  0  0  0  0  0  0
  -19.6410  -26.3790   20.6060 C   0  0  0  0  0  2  0  0  0  0  0  0
  -18.2760  -26.4150   21.2930 C   0  0  0  0  0  2  0  0  0  0  0  0
  -19.2750  -28.2640   22.7630 C   0  0  0  0  0  0  0  0  0  0  0  0
  -19.0850  -29.3940   23.5900 C   0  0  0  0  0  3  0  0  0  0  0  0
  -17.7870  -29.8640   23.8780 C   0  0  0  0  0  3  0  0  0  0  0  0
  -16.6670  -29.2070   23.3440 C   0  0  0  0  0  3  0  0  0  0  0  0
  -16.8390  -28.0790   22.5220 C   0  0  0  0  0  3  0  0  0  0  0  0
  -26.1530  -31.5920   23.7440 C   0  0  0  0  0  3  0  0  0  0  0  0
  -25.9250  -32.9200   24.3260 N   0  0  0  0  0  0  0  0  0  0  0  0
  -26.3650  -34.0690   23.7960 C   0  0  0  0  0  0  0  0  0  0  0  0
  -27.0790  -34.1130   22.7900 O   0  0  0  0  0  0  0  0  0  0  0  0
  -25.3040  -32.9610   25.1210 H   0  0  0  0  0  0  0  0  0  0  0  0
  -24.8110  -36.0410   23.6980 C   0  0  0  0  0  1  0  0  0  0  0  0
  -25.9500  -35.3780   24.4900 C   0  0  0  0  0  3  0  0  0  0  0  0
  -28.0710  -35.8840   25.6180 C   0  0  0  0  0  1  0  0  0  0  0  0
  -27.0650  -36.3360   24.6610 N   0  0  0  0  0  0  0  0  0  0  0  0
  -26.7190  -37.2410   24.9690 H   0  0  0  0  0  0  0  0  0  0  0  0
  -26.6710  -30.5840   24.8410 C   0  0  1  0  0  0  0  0  0  0  0  0
  -25.6060  -30.2090   25.8990 C   0  0  0  0  0  1  0  0  0  0  0  0
  -27.1670  -29.2700   24.1910 C   0  0  0  0  0  1  0  0  0  0  0  0
  -27.8870  -31.1970   25.5760 C   0  0  0  0  0  1  0  0  0  0  0  0
  1  4  1  0
  2  1  2  0
  3  5  1  0
  4  7  1  0
  5  4  2  0
  5 47  1  0
  6  2  1  0
  6  3  2  0
  7  8  1  0
  8 17  1  0
  9 17  1  0
 10 15  1  0
 11 12  1  0
 11 10  1  0
 13 12  1  0
 13 22  1  0
 13 14  1  0
 15  9  1  0
 15 14  1  0
 16  9  2  0
 17 18  1  0
 19 20  2  0
 20 39  1  0
 21 24  1  0
 21 20  1  0
 22 23  1  0
 22 19  1  0
 23 21  2  0
 24 25  1  0
 25 26  2  0
 27 26  1  0
 28 27  2  0
 29 28  1  0
 29 24  2  0
 30 27  1  0
 30 31  1  0
 31 32  1  0
 32 33  2  0
 34 33  1  0
 34 38  1  0
 35 34  2  0
 36 31  2  0
 36 35  1  0
 37 36  1  0
 39 40  1  0
 40 43  1  0
 40 42  1  0
 41 39  2  0
 44 45  1  0
 44 19  1  0
 46 44  1  0
 49 48  1  0
 49 47  1  0
 50 51  1  0
 50  6  1  0
 51 52  1  0
 53 52  1  0
 53 55  1  0
 54 65  2  0
 55 60  1  0
 56 64  1  0
 56 66  1  0
 57 63  1  0
 57 59  1  0
 58 64  1  0
 59 58  1  0
 60 59  2  0
 61 62  1  0
 61 55  2  0
 62 57  2  0
 63 56  1  0
 64 54  1  0
 66 68  2  0
 67 66  1  0
 69 67  1  0
 70 79  2  0
 70 75  1  0
 71 67  1  0
 71 75  1  0
 72 71  1  0
 73 74  1  0
 73 72  1  0
 74 70  1  0
 75 76  2  0
 76 77  1  0
 78 77  2  0
 79 78  1  0
 80 54  1  0
 80 81  1  0
 80 90  1  0
 81 84  1  0
 82 81  1  0
 82 86  1  0
 83 82  2  0
 86 85  1  0
 86 88  1  0
 88 89  1  0
 88 87  1  0
 90 93  1  1
 90 91  1  0
 92 90  1  0
M  ISO  4   9 100  17 100  52 101  53 101
M  END
>  <TORSDO>  (84) 
F 23

>  <SCORE>  (84) 
-10.099

>  <name>  (84) 
83

>  <ligand_id>  (84) 
83

>  <original_smiles>  (84) 
[H]c1c([H])c([H])c2c(c1[H])C([H])([H])C([H])([H])C([H])([H])C2([H])N([H])C(=O)C1([H])N(C(=O)C([H])(N([H])C(=O)C([H])(N([H])C([H])([H])[H])C([H])([H])[H])C(C([H])([H])[H])(C([H])([H])[H])C([H])([H])[H])C([H])([H])c2c([H])c(OC([H])([H])C([H])([H])Oc3c([H])c([H])c(C([H])([H])C([H])([H])N([H])C(=O)N4C([H])([H])C([H])([H])C([H])([H])C([H])(n5nc(-c6c([H])c([H])c(Oc7c([H])c([H])c(F)c([H])c7F)c([H])c6[H])c(C(=O)N([H])[H])c5N([H])[H])C4([H])[H])c(C([H])([H])C([H])([H])C([H])([H])[H])c3[H])c([H])c([H])c2C1([H])[H]

>  <smiles>  (84) 
[H]c1c([H])c([H])c2c(c1[H])C([H])([H])C([H])([H])C([H])([H])C2([H])N([H])C(=O)C1([H])N(C(=O)C([H])(N([H])C(=O)C([H])(N([H])C([H])([H])[H])C([H])([H])[H])C(C([H])([H])[H])(C([H])([H])[H])C([H])([H])[H])C([H])([H])c2c([H])c(OC([H])([H])C([H])([H])Oc3c([H])c([H])c(C([H])([H])C([H])([H])N([H])C(=O)N4C([H])([H])C([H])([H])C([H])([H])C([H])(n5nc(-c6c([H])c([H])c(Oc7c([H])c([H])c(F)c([H])c7F)c([H])c6[H])c(C(=O)N([H])[H])c5N([H])[H])C4([H])[H])c(C([H])([H])C([H])([H])C([H])([H])[H])c3[H])c([H])c([H])c2C1([H])[H]

$$$$
84:0:0
     RDKit          3D

 88 96  0  0  1  0  0  0  0  0999 V2000
  -28.6300  -22.0040   21.2260 C   0  0  0  0  0  3  0  0  0  0  0  0
  -29.0710  -20.5860   21.2100 C   0  0  0  0  0  3  0  0  0  0  0  0
  -29.0600  -22.1600   18.9710 C   0  0  0  0  0  3  0  0  0  0  0  0
  -28.6010  -22.9400   20.1100 C   0  0  0  0  0  0  0  0  0  0  0  0
  -29.5320  -19.8090   20.0670 C   0  0  0  0  0  0  0  0  0  0  0  0
  -29.4840  -20.7350   18.9400 C   0  0  0  0  0  0  0  0  0  0  0  0
  -29.9120  -20.1840   17.5910 C   0  0  0  0  0  1  0  0  0  0  0  0
  -30.2800  -18.2380   20.0570 C   0  0  0  0  0  2  0  0  0  0  0  0
  -30.4980  -15.3750   20.0330 C   0  0  0  0  0  0  0  0  0  0  0  0
  -30.4050  -12.9710   19.0690 C   0  0  0  0  0  2  0  0  0  0  0  0
  -29.4180  -12.7750   17.8940 C   0  0  0  0  0  2  0  0  0  0  0  0
  -28.0000  -12.4720   18.4070 C   0  0  0  0  0  2  0  0  0  0  0  0
  -27.5970  -13.4070   19.5720 C   0  0  0  0  0  3  0  0  0  0  0  0
  -28.7130  -13.5220   20.6410 C   0  0  0  0  0  2  0  0  0  0  0  0
  -29.9000  -14.0790   19.9600 N   0  0  0  0  0  0  0  0  0  0  0  0
  -31.6940  -15.3600   19.7050 O   0  0  0  0  0  0  0  0  0  0  0  0
  -28.4930  -16.7080   20.8600 C   0  0  0  0  0  1  0  0  0  0  0  0
  -29.8010  -16.6780   20.2240 N   0  0  0  0  0  0  0  0  0  0  0  0
  -25.2570  -13.9340   20.4660 C   0  0  0  0  0  0  0  0  0  0  0  0
  -24.2250  -13.1380   20.8790 C   0  0  0  0  0  0  0  0  0  0  0  0
  -24.7000  -11.7960   20.7780 C   0  0  0  0  0  0  0  0  0  0  0  0
  -26.2970  -13.0760   20.1440 N   0  0  0  0  0  0  0  0  0  0  0  0
  -25.9740  -11.7810   20.3960 N   0  0  0  0  0  0  0  0  0  0  0  0
  -23.9920  -10.5230   20.9620 C   0  0  0  0  0  0  0  0  0  0  0  0
  -24.4330   -9.5620   21.8970 C   0  0  0  0  0  3  0  0  0  0  0  0
  -23.7230   -8.3540   22.0700 C   0  0  0  0  0  3  0  0  0  0  0  0
  -22.5560   -8.1010   21.3100 C   0  0  0  0  0  0  0  0  0  0  0  0
  -22.1340   -9.0530   20.3670 C   0  0  0  0  0  3  0  0  0  0  0  0
  -22.8440  -10.2520   20.1910 C   0  0  0  0  0  3  0  0  0  0  0  0
  -21.8180   -6.9450   21.3960 O   0  0  0  0  0  0  0  0  0  0  0  0
  -21.7110   -6.2450   22.5720 C   0  0  0  0  0  0  0  0  0  0  0  0
  -21.1730   -6.8270   23.7400 C   0  0  0  0  0  3  0  0  0  0  0  0
  -21.0170   -6.0530   24.9060 C   0  0  0  0  0  3  0  0  0  0  0  0
  -21.3870   -4.6940   24.9040 C   0  0  0  0  0  0  0  0  0  0  0  0
  -21.9170   -4.1100   23.7410 C   0  0  0  0  0  3  0  0  0  0  0  0
  -22.0750   -4.8840   22.5770 C   0  0  0  0  0  0  0  0  0  0  0  0
  -22.5670   -4.3100   21.4520 F   0  0  0  0  0  0  0  0  0  0  0  0
  -21.2310   -3.9470   26.0230 F   0  0  0  0  0  0  0  0  0  0  0  0
  -22.8410  -13.5980   21.2360 C   0  0  0  0  0  0  0  0  0  0  0  0
  -22.1600  -12.8730   22.1180 N   0  0  0  0  0  0  0  0  0  0  0  0
  -22.3720  -14.6360   20.7710 O   0  0  0  0  0  0  0  0  0  0  0  0
  -22.5530  -12.0390   22.5300 H   0  0  0  0  0  0  0  0  0  0  0  0
  -21.2300  -13.1570   22.3910 H   0  0  0  0  0  0  0  0  0  0  0  0
  -25.3750  -15.3080   20.3060 N   0  0  0  0  0  0  0  0  0  0  0  0
  -24.5930  -15.9330   20.4740 H   0  0  0  0  0  0  0  0  0  0  0  0
  -26.1700  -15.7720   19.8880 H   0  0  0  0  0  0  0  0  0  0  0  0
  -27.7930  -24.4700   20.0320 C   0  0  0  0  0  2  0  0  0  0  0  0
  -28.1660  -26.0250   20.2880 O   0  0  0  0  0  0  0  0  0  0  0  0
  -24.6510  -31.9570   23.2890 C   0  0  0  0  0  0  0  0  0  0  0  0
  -27.1630  -27.1170   20.2310 C   0  0  0  0  0  0  0  0  0  0  0  0
  -23.4360  -30.5770   21.6530 C   0  0  0  0  0  3  0  0  0  0  0  0
  -24.8660  -28.9780   20.2140 C   0  0  0  0  0  0  0  0  0  0  0  0
  -26.0010  -30.7810   21.4900 C   0  0  0  0  0  2  0  0  0  0  0  0
  -26.0580  -29.3800   20.8290 C   0  0  0  0  0  0  0  0  0  0  0  0
  -27.2020  -28.4690   20.8170 C   0  0  0  0  0  3  0  0  0  0  0  0
  -25.9380  -26.8580   19.5710 C   0  0  0  0  0  3  0  0  0  0  0  0
  -24.8260  -27.7340   19.5690 C   0  0  0  0  0  3  0  0  0  0  0  0
  -23.6520  -29.9020   20.2710 C   0  0  0  0  0  2  0  0  0  0  0  0
  -24.7170  -31.1300   22.1970 N   0  0  0  0  0  0  0  0  0  0  0  0
  -23.5680  -32.2510   23.8190 O   0  0  0  0  0  0  0  0  0  0  0  0
  -22.7440  -29.5780   22.6160 C   0  0  0  0  0  0  0  0  0  0  0  0
  -21.4160  -29.4040   22.4820 N   0  0  0  0  0  0  0  0  0  0  0  0
  -23.4080  -28.9610   23.4520 O   0  0  0  0  0  0  0  0  0  0  0  0
  -20.9310  -29.9560   21.7880 H   0  0  0  0  0  0  0  0  0  0  0  0
  -18.0390  -28.1690   22.9660 C   0  0  0  0  0  0  0  0  0  0  0  0
  -20.5930  -28.4640   23.2530 C   0  0  0  0  0  3  0  0  0  0  0  0
  -20.7150  -27.0280   22.6950 C   0  0  0  0  0  2  0  0  0  0  0  0
  -19.6280  -26.6830   21.6720 C   0  0  0  0  0  2  0  0  0  0  0  0
  -18.2370  -26.8180   22.2990 C   0  0  0  0  0  2  0  0  0  0  0  0
  -19.1450  -28.9490   23.3980 C   0  0  0  0  0  0  0  0  0  0  0  0
  -18.9040  -30.2110   23.9830 C   0  0  0  0  0  3  0  0  0  0  0  0
  -17.5930  -30.6970   24.1350 C   0  0  0  0  0  3  0  0  0  0  0  0
  -16.5010  -29.9160   23.7170 C   0  0  0  0  0  3  0  0  0  0  0  0
  -16.7250  -28.6540   23.1400 C   0  0  0  0  0  3  0  0  0  0  0  0
  -25.9320  -32.5880   23.9140 C   0  0  0  0  0  3  0  0  0  0  0  0
  -25.6280  -33.9910   24.2430 N   0  0  0  0  0  0  0  0  0  0  0  0
  -25.9360  -35.0440   23.4750 C   0  0  0  0  0  0  0  0  0  0  0  0
  -26.5700  -34.9370   22.4220 O   0  0  0  0  0  0  0  0  0  0  0  0
  -25.0580  -34.1440   25.0630 H   0  0  0  0  0  0  0  0  0  0  0  0
  -24.1850  -36.8390   23.2040 C   0  0  0  0  0  1  0  0  0  0  0  0
  -25.4700  -36.4370   23.9480 C   0  0  0  0  0  3  0  0  0  0  0  0
  -27.6400  -37.3440   24.6610 C   0  0  0  0  0  1  0  0  0  0  0  0
  -26.4910  -37.4930   23.7710 N   0  0  0  0  0  0  0  0  0  0  0  0
  -26.0860  -38.4120   23.9270 H   0  0  0  0  0  0  0  0  0  0  0  0
  -26.4310  -31.8240   25.2040 C   0  0  1  0  0  0  0  0  0  0  0  0
  -25.3270  -31.6080   26.2650 C   0  0  0  0  0  1  0  0  0  0  0  0
  -27.0100  -30.4380   24.8380 C   0  0  0  0  0  1  0  0  0  0  0  0
  -27.5790  -32.6200   25.8680 C   0  0  0  0  0  1  0  0  0  0  0  0
  2  1  1  0
  3  4  1  0
  4  1  2  0
  5  2  2  0
  6  3  2  0
  6  5  1  0
  7  6  1  0
  8  5  1  0
  8 18  1  0
  9 18  1  0
 10 15  1  0
 11 12  1  0
 11 10  1  0
 13 12  1  0
 13 22  1  0
 13 14  1  0
 15  9  1  0
 15 14  1  0
 16  9  2  0
 18 17  1  0
 19 20  2  0
 20 39  1  0
 21 20  1  0
 21 24  1  0
 22 23  1  0
 22 19  1  0
 23 21  2  0
 24 25  1  0
 25 26  2  0
 27 30  1  0
 27 26  1  0
 28 27  2  0
 29 28  1  0
 29 24  2  0
 30 31  1  0
 31 36  2  0
 31 32  1  0
 32 33  2  0
 34 33  1  0
 34 38  1  0
 35 34  2  0
 36 35  1  0
 37 36  1  0
 39 40  1  0
 40 43  1  0
 40 42  1  0
 41 39  2  0
 44 19  1  0
 44 45  1  0
 46 44  1  0
 47  4  1  0
 47 48  1  0
 49 60  2  0
 50 48  1  0
 50 55  1  0
 51 59  1  0
 51 61  1  0
 52 58  1  0
 52 54  1  0
 53 59  1  0
 54 53  1  0
 55 54  2  0
 56 50  2  0
 57 56  1  0
 57 52  2  0
 58 51  1  0
 59 49  1  0
 61 63  2  0
 62 61  1  0
 64 62  1  0
 65 74  2  0
 65 70  1  0
 66 62  1  0
 66 70  1  0
 67 66  1  0
 68 69  1  0
 68 67  1  0
 69 65  1  0
 70 71  2  0
 71 72  1  0
 73 72  2  0
 74 73  1  0
 75 49  1  0
 75 76  1  0
 75 85  1  0
 76 79  1  0
 77 81  1  0
 77 76  1  0
 78 77  2  0
 81 80  1  0
 83 84  1  0
 83 81  1  0
 83 82  1  0
 85 88  1  1
 85 86  1  0
 87 85  1  0
M  ISO  4   9 100  18 100  47 101  48 101
M  END
>  <TORSDO>  (85) 
F 18

>  <SCORE>  (85) 
-15.788

>  <name>  (85) 
84

>  <ligand_id>  (85) 
84

>  <original_smiles>  (85) 
[H]c1c([H])c([H])c2c(c1[H])C([H])([H])C([H])([H])C([H])([H])C2([H])N([H])C(=O)C1([H])N(C(=O)C([H])(N([H])C(=O)C([H])(N([H])C([H])([H])[H])C([H])([H])[H])C(C([H])([H])[H])(C([H])([H])[H])C([H])([H])[H])C([H])([H])c2c([H])c(OC([H])([H])c3c([H])c([H])c(C([H])([H])N(C(=O)N4C([H])([H])C([H])([H])C([H])([H])C([H])(n5nc(-c6c([H])c([H])c(Oc7c([H])c([H])c(F)c([H])c7F)c([H])c6[H])c(C(=O)N([H])[H])c5N([H])[H])C4([H])[H])C([H])([H])[H])c(C([H])([H])[H])c3[H])c([H])c([H])c2C1([H])[H]

>  <smiles>  (85) 
[H]c1c([H])c([H])c2c(c1[H])C([H])([H])C([H])([H])C([H])([H])C2([H])N([H])C(=O)C1([H])N(C(=O)C([H])(N([H])C(=O)C([H])(N([H])C([H])([H])[H])C([H])([H])[H])C(C([H])([H])[H])(C([H])([H])[H])C([H])([H])[H])C([H])([H])c2c([H])c(OC([H])([H])c3c([H])c([H])c(C([H])([H])N(C(=O)N4C([H])([H])C([H])([H])C([H])([H])C([H])(n5nc(-c6c([H])c([H])c(Oc7c([H])c([H])c(F)c([H])c7F)c([H])c6[H])c(C(=O)N([H])[H])c5N([H])[H])C4([H])[H])C([H])([H])[H])c(C([H])([H])[H])c3[H])c([H])c([H])c2C1([H])[H]

$$$$
85:0:0
     RDKit          3D

 95104  0  0  1  0  0  0  0  0999 V2000
  -29.9310  -23.4490   20.4520 C   0  0  0  0  0  3  0  0  0  0  0  0
  -30.4500  -22.1170   20.4970 C   0  0  0  0  0  3  0  0  0  0  0  0
  -27.8370  -22.5340   19.6950 C   0  0  0  0  0  3  0  0  0  0  0  0
  -28.6030  -23.6820   20.0250 C   0  0  0  0  0  0  0  0  0  0  0  0
  -29.6890  -20.9710   20.1130 C   0  0  0  0  0  0  0  0  0  0  0  0
  -28.3470  -21.2120   19.7210 C   0  0  0  0  0  0  0  0  0  0  0  0
  -27.4320  -20.0890   19.2630 C   0  0  0  0  0  1  0  0  0  0  0  0
  -30.3750  -19.5660   19.9660 C   0  0  0  0  0  2  0  0  0  0  0  0
  -31.7570  -17.0720   21.8940 C   0  0  0  0  0  2  0  0  0  0  0  0
  -31.3410  -18.3100   22.6950 C   0  0  0  0  0  2  0  0  0  0  0  0
  -30.8380  -17.0330   20.6530 C   0  0  0  0  0  3  0  0  0  0  0  0
  -29.9040  -18.3050   20.8090 C   0  0  0  0  0  3  0  0  0  0  0  0
  -29.9830  -18.6400   22.2400 N   0  0  0  0  0  4  0  0  0  0  0  0
  -29.7510  -19.6050   22.4100 H   0  0  0  0  0  0  0  0  0  0  0  0
  -29.3300  -18.0620   22.7440 H   0  0  0  0  0  0  0  0  0  0  0  0
  -30.7970  -14.5730   20.0290 C   0  0  0  0  0  0  0  0  0  0  0  0
  -30.3930  -12.3880   18.9360 C   0  0  0  0  0  2  0  0  0  0  0  0
  -29.3940  -12.5640   17.7750 C   0  0  0  0  0  2  0  0  0  0  0  0
  -27.9450  -12.4320   18.2850 C   0  0  0  0  0  2  0  0  0  0  0  0
  -27.6760  -13.2870   19.5530 C   0  0  0  0  0  3  0  0  0  0  0  0
  -28.7960  -13.1200   20.6060 C   0  0  0  0  0  2  0  0  0  0  0  0
  -30.0790  -13.4130   19.9510 N   0  0  0  0  0  0  0  0  0  0  0  0
  -31.9190  -14.6680   19.5320 O   0  0  0  0  0  0  0  0  0  0  0  0
  -30.1890  -15.6810   20.5380 N   0  0  0  0  0  0  0  0  0  0  0  0
  -29.2460  -15.5680   20.8790 H   0  0  0  0  0  0  0  0  0  0  0  0
  -25.3390  -13.9060   20.4250 C   0  0  0  0  0  0  0  0  0  0  0  0
  -24.2810  -13.1410   20.8360 C   0  0  0  0  0  0  0  0  0  0  0  0
  -24.7150  -11.7830   20.7420 C   0  0  0  0  0  0  0  0  0  0  0  0
  -26.3520  -13.0150   20.1090 N   0  0  0  0  0  0  0  0  0  0  0  0
  -25.9850  -11.7310   20.3590 N   0  0  0  0  0  0  0  0  0  0  0  0
  -23.9750  -10.5290   20.9400 C   0  0  0  0  0  0  0  0  0  0  0  0
  -24.4190   -9.5460   21.8520 C   0  0  0  0  0  3  0  0  0  0  0  0
  -23.6800   -8.3570   22.0390 C   0  0  0  0  0  3  0  0  0  0  0  0
  -22.4830   -8.1440   21.3150 C   0  0  0  0  0  0  0  0  0  0  0  0
  -22.0580   -9.1160   20.3920 C   0  0  0  0  0  3  0  0  0  0  0  0
  -22.7970  -10.2950   20.2020 C   0  0  0  0  0  3  0  0  0  0  0  0
  -21.7140   -7.0090   21.4130 O   0  0  0  0  0  0  0  0  0  0  0  0
  -21.6600   -6.2750   22.5710 C   0  0  0  0  0  0  0  0  0  0  0  0
  -21.2370   -6.8400   23.7930 C   0  0  0  0  0  3  0  0  0  0  0  0
  -21.1300   -6.0320   24.9430 C   0  0  0  0  0  3  0  0  0  0  0  0
  -21.4340   -4.6590   24.8700 C   0  0  0  0  0  0  0  0  0  0  0  0
  -21.8490   -4.0940   23.6520 C   0  0  0  0  0  3  0  0  0  0  0  0
  -21.9580   -4.8980   22.5050 C   0  0  0  0  0  0  0  0  0  0  0  0
  -22.3380   -4.3430   21.3290 F   0  0  0  0  0  0  0  0  0  0  0  0
  -21.3230   -3.8810   25.9720 F   0  0  0  0  0  0  0  0  0  0  0  0
  -22.9120  -13.6360   21.2010 C   0  0  0  0  0  0  0  0  0  0  0  0
  -22.2220  -12.9290   22.0900 N   0  0  0  0  0  0  0  0  0  0  0  0
  -22.4640  -14.6820   20.7350 O   0  0  0  0  0  0  0  0  0  0  0  0
  -22.5980  -12.0810   22.4880 H   0  0  0  0  0  0  0  0  0  0  0  0
  -21.3040  -13.2410   22.3770 H   0  0  0  0  0  0  0  0  0  0  0  0
  -25.5190  -15.2770   20.2720 N   0  0  0  0  0  0  0  0  0  0  0  0
  -24.7650  -15.9380   20.4220 H   0  0  0  0  0  0  0  0  0  0  0  0
  -26.3420  -15.7020   19.8630 H   0  0  0  0  0  0  0  0  0  0  0  0
  -27.8890  -25.0430   19.7590 C   0  0  0  0  0  2  0  0  0  0  0  0
  -28.2780  -26.4020   20.1960 O   0  0  0  0  0  0  0  0  0  0  0  0
  -24.6730  -31.8850   23.2370 C   0  0  0  0  0  0  0  0  0  0  0  0
  -27.2140  -27.3310   20.1140 C   0  0  0  0  0  0  0  0  0  0  0  0
  -23.4480  -30.5160   21.5950 C   0  0  0  0  0  3  0  0  0  0  0  0
  -24.8750  -28.9890   20.1400 C   0  0  0  0  0  0  0  0  0  0  0  0
  -25.9950  -30.8070   21.4090 C   0  0  0  0  0  2  0  0  0  0  0  0
  -26.0550  -29.4390   20.7440 C   0  0  0  0  0  0  0  0  0  0  0  0
  -27.2270  -28.6200   20.7350 C   0  0  0  0  0  3  0  0  0  0  0  0
  -26.0100  -26.9750   19.4440 C   0  0  0  0  0  3  0  0  0  0  0  0
  -24.8540  -27.7600   19.4820 C   0  0  0  0  0  3  0  0  0  0  0  0
  -23.6470  -29.8680   20.2040 C   0  0  0  0  0  2  0  0  0  0  0  0
  -24.7240  -31.0850   22.1350 N   0  0  0  0  0  0  0  0  0  0  0  0
  -23.5950  -32.1670   23.7790 O   0  0  0  0  0  0  0  0  0  0  0  0
  -22.7850  -29.4880   22.5440 C   0  0  0  0  0  0  0  0  0  0  0  0
  -21.4570  -29.3230   22.4230 N   0  0  0  0  0  0  0  0  0  0  0  0
  -23.4640  -28.8450   23.3490 O   0  0  0  0  0  0  0  0  0  0  0  0
  -20.9690  -29.8920   21.7450 H   0  0  0  0  0  0  0  0  0  0  0  0
  -18.0690  -28.1620   22.9380 C   0  0  0  0  0  0  0  0  0  0  0  0
  -20.6310  -28.3890   23.1920 C   0  0  0  0  0  3  0  0  0  0  0  0
  -20.7140  -26.9600   22.6060 C   0  0  0  0  0  2  0  0  0  0  0  0
  -19.6010  -26.6570   21.5980 C   0  0  0  0  0  2  0  0  0  0  0  0
  -18.2250  -26.8140   22.2510 C   0  0  0  0  0  2  0  0  0  0  0  0
  -19.1990  -28.9080   23.3650 C   0  0  0  0  0  0  0  0  0  0  0  0
  -18.9980  -30.1690   23.9660 C   0  0  0  0  0  3  0  0  0  0  0  0
  -17.7000  -30.6840   24.1460 C   0  0  0  0  0  3  0  0  0  0  0  0
  -16.5840  -29.9350   23.7340 C   0  0  0  0  0  3  0  0  0  0  0  0
  -16.7700  -28.6760   23.1350 C   0  0  0  0  0  3  0  0  0  0  0  0
  -25.9650  -32.5020   23.8550 C   0  0  0  0  0  3  0  0  0  0  0  0
  -26.4790  -31.7190   25.1240 C   0  0  1  0  0  0  0  0  0  0  0  0
  -25.3870  -31.4840   26.1950 C   0  0  0  0  0  1  0  0  0  0  0  0
  -27.0500  -30.3390   24.7260 C   0  0  0  0  0  1  0  0  0  0  0  0
  -27.6380  -32.5010   25.7850 C   0  0  0  0  0  1  0  0  0  0  0  0
  -25.6710  -33.9010   24.1910 N   0  0  0  0  0  0  0  0  0  0  0  0
  -25.9860  -34.9510   23.4220 C   0  0  0  0  0  0  0  0  0  0  0  0
  -26.6300  -34.8450   22.3730 O   0  0  0  0  0  0  0  0  0  0  0  0
  -25.1030  -34.0590   25.0100 H   0  0  0  0  0  0  0  0  0  0  0  0
  -24.2500  -36.7450   23.1180 C   0  0  0  0  0  1  0  0  0  0  0  0
  -25.5170  -36.3420   23.8900 C   0  0  0  0  0  3  0  0  0  0  0  0
  -27.6760  -37.2270   24.6510 C   0  0  0  0  0  1  0  0  0  0  0  0
  -26.5460  -37.3920   23.7400 N   0  0  0  0  0  0  0  0  0  0  0  0
  -26.1450  -38.3140   23.8970 H   0  0  0  0  0  0  0  0  0  0  0  0
  1  2  1  0
  3  6  2  0
  3  4  1  0
  4  1  2  0
  5  2  2  0
  6  5  1  0
  7  6  1  0
  8  5  1  0
  9 10  1  0
 11 24  1  0
 11 12  1  0
 11  9  1  0
 12  8  1  0
 12 13  1  0
 13 14  1  0
 13 10  1  0
 13 15  1  0
 16 24  1  0
 17 22  1  0
 18 19  1  0
 18 17  1  0
 20 19  1  0
 20 29  1  0
 20 21  1  0
 22 16  1  0
 22 21  1  0
 23 16  2  0
 24 25  1  0
 26 27  2  0
 27 46  1  0
 28 27  1  0
 28 31  1  0
 29 30  1  0
 29 26  1  0
 30 28  2  0
 31 32  1  0
 32 33  2  0
 34 37  1  0
 34 33  1  0
 35 34  2  0
 36 35  1  0
 36 31  2  0
 37 38  1  0
 38 39  1  0
 39 40  2  0
 41 40  1  0
 41 45  1  0
 42 41  2  0
 43 38  2  0
 43 42  1  0
 44 43  1  0
 46 47  1  0
 47 50  1  0
 47 49  1  0
 48 46  2  0
 51 52  1  0
 51 26  1  0
 53 51  1  0
 54  4  1  0
 54 55  1  0
 56 67  2  0
 57 55  1  0
 57 62  1  0
 58 66  1  0
 58 68  1  0
 59 65  1  0
 59 61  1  0
 60 66  1  0
 61 60  1  0
 62 61  2  0
 63 64  1  0
 63 57  2  0
 64 59  2  0
 65 58  1  0
 66 56  1  0
 68 70  2  0
 69 68  1  0
 71 69  1  0
 72 81  2  0
 72 77  1  0
 73 69  1  0
 73 77  1  0
 74 73  1  0
 75 76  1  0
 75 74  1  0
 76 72  1  0
 77 78  2  0
 78 79  1  0
 80 79  2  0
 81 80  1  0
 82 56  1  0
 82 87  1  0
 82 83  1  0
 83 86  1  1
 83 84  1  0
 85 83  1  0
 87 90  1  0
 88 92  1  0
 88 87  1  0
 89 88  2  0
 92 91  1  0
 94 92  1  0
 94 95  1  0
 94 93  1  0
M  ISO  4  16 100  24 100  54 101  55 101
M  END
>  <TORSDO>  (86) 
F 19

>  <SCORE>  (86) 
-13.088

>  <name>  (86) 
85

>  <ligand_id>  (86) 
85

>  <original_smiles>  (86) 
[H]c1c([H])c([H])c2c(c1[H])C([H])([H])C([H])([H])C([H])([H])C2([H])N([H])C(=O)C1([H])N(C(=O)C([H])(N([H])C(=O)C([H])(N([H])C([H])([H])[H])C([H])([H])[H])C(C([H])([H])[H])(C([H])([H])[H])C([H])([H])[H])C([H])([H])c2c([H])c(OC([H])([H])c3c([H])c([H])c(C([H])([H])C4([H])C([H])(N([H])C(=O)N5C([H])([H])C([H])([H])C([H])([H])C([H])(n6nc(-c7c([H])c([H])c(Oc8c([H])c([H])c(F)c([H])c8F)c([H])c7[H])c(C(=O)N([H])[H])c6N([H])[H])C5([H])[H])C([H])([H])C([H])([H])[N+]4([H])[H])c(C([H])([H])[H])c3[H])c([H])c([H])c2C1([H])[H]

>  <smiles>  (86) 
[H]c1c([H])c([H])c2c(c1[H])C([H])([H])C([H])([H])C([H])([H])C2([H])N([H])C(=O)C1([H])N(C(=O)C([H])(N([H])C(=O)C([H])(N([H])C([H])([H])[H])C([H])([H])[H])C(C([H])([H])[H])(C([H])([H])[H])C([H])([H])[H])C([H])([H])c2c([H])c(OC([H])([H])c3c([H])c([H])c(C([H])([H])C4([H])C([H])(N([H])C(=O)N5C([H])([H])C([H])([H])C([H])([H])C([H])(n6nc(-c7c([H])c([H])c(Oc8c([H])c([H])c(F)c([H])c8F)c([H])c7[H])c(C(=O)N([H])[H])c6N([H])[H])C5([H])[H])C([H])([H])C([H])([H])[N+]4([H])[H])c(C([H])([H])[H])c3[H])c([H])c([H])c2C1([H])[H]

$$$$
86:0:0
     RDKit          3D

 95104  0  0  1  0  0  0  0  0999 V2000
  -28.8320  -22.0010   21.7750 C   0  0  0  0  0  0  0  0  0  0  0  0
  -29.4080  -23.2890   22.3410 C   0  0  0  0  0  2  0  0  0  0  0  0
  -30.0690  -23.9060   21.1080 C   0  0  0  0  0  2  0  0  0  0  0  0
  -29.1000  -23.5190   19.9840 C   0  0  0  0  0  3  0  0  0  0  0  0
  -28.8310  -22.0090   20.4320 N   0  0  0  0  0  0  0  0  0  0  0  0
  -28.5240  -21.0480   22.4950 O   0  0  0  0  0  0  0  0  0  0  0  0
  -28.8680  -20.5790   19.7270 C   0  0  0  0  0  2  0  0  0  0  0  0
  -31.3760  -20.0660   20.1710 C   0  0  0  0  0  2  0  0  0  0  0  0
  -32.3580  -19.3810   21.1300 C   0  0  0  0  0  2  0  0  0  0  0  0
  -30.9370  -17.5780   21.8720 C   0  0  0  0  0  2  0  0  0  0  0  0
  -30.0230  -19.3230   19.9070 C   0  0  0  0  0  3  0  0  0  0  0  0
  -29.9040  -17.7970   20.7120 C   0  0  0  0  0  3  0  0  0  0  0  0
  -31.6520  -18.7870   22.2840 N   0  0  0  0  0  4  0  0  0  0  0  0
  -31.0260  -19.4360   22.7360 H   0  0  0  0  0  0  0  0  0  0  0  0
  -32.3350  -18.5010   22.9710 H   0  0  0  0  0  0  0  0  0  0  0  0
  -30.4670  -15.1480   19.9760 C   0  0  0  0  0  0  0  0  0  0  0  0
  -30.3080  -12.8090   18.9950 C   0  0  0  0  0  2  0  0  0  0  0  0
  -29.3010  -12.7740   17.8250 C   0  0  0  0  0  2  0  0  0  0  0  0
  -27.8640  -12.5680   18.3350 C   0  0  0  0  0  2  0  0  0  0  0  0
  -27.5310  -13.4610   19.5590 C   0  0  0  0  0  3  0  0  0  0  0  0
  -28.6530  -13.4550   20.6140 C   0  0  0  0  0  2  0  0  0  0  0  0
  -29.8710  -13.8920   19.9210 N   0  0  0  0  0  0  0  0  0  0  0  0
  -31.6750  -15.2090   19.7300 O   0  0  0  0  0  0  0  0  0  0  0  0
  -29.6800  -16.3350   20.1180 N   0  0  0  0  0  0  0  0  0  0  0  0
  -28.6960  -16.1220   20.0540 H   0  0  0  0  0  0  0  0  0  0  0  0
  -25.1990  -14.0070   20.4550 C   0  0  0  0  0  0  0  0  0  0  0  0
  -24.1570  -13.2120   20.8530 C   0  0  0  0  0  0  0  0  0  0  0  0
  -24.6220  -11.8680   20.7470 C   0  0  0  0  0  0  0  0  0  0  0  0
  -26.2260  -13.1420   20.1260 N   0  0  0  0  0  0  0  0  0  0  0  0
  -25.8930  -11.8480   20.3670 N   0  0  0  0  0  0  0  0  0  0  0  0
  -23.9090  -10.5940   20.9240 C   0  0  0  0  0  0  0  0  0  0  0  0
  -24.3600   -9.6080   21.8280 C   0  0  0  0  0  3  0  0  0  0  0  0
  -23.6400   -8.4060   21.9940 C   0  0  0  0  0  3  0  0  0  0  0  0
  -22.4530   -8.1810   21.2520 C   0  0  0  0  0  0  0  0  0  0  0  0
  -22.0230   -9.1560   20.3330 C   0  0  0  0  0  3  0  0  0  0  0  0
  -22.7470  -10.3490   20.1680 C   0  0  0  0  0  3  0  0  0  0  0  0
  -21.7020   -7.0320   21.3300 O   0  0  0  0  0  0  0  0  0  0  0  0
  -21.6430   -6.2860   22.4800 C   0  0  0  0  0  0  0  0  0  0  0  0
  -21.1670   -6.8250   23.6960 C   0  0  0  0  0  3  0  0  0  0  0  0
  -21.0600   -6.0040   24.8370 C   0  0  0  0  0  3  0  0  0  0  0  0
  -21.4200   -4.6460   24.7630 C   0  0  0  0  0  0  0  0  0  0  0  0
  -21.8930   -4.1070   23.5530 C   0  0  0  0  0  3  0  0  0  0  0  0
  -22.0020   -4.9240   22.4150 C   0  0  0  0  0  0  0  0  0  0  0  0
  -22.4350   -4.3930   21.2460 F   0  0  0  0  0  0  0  0  0  0  0  0
  -21.3100   -3.8560   25.8560 F   0  0  0  0  0  0  0  0  0  0  0  0
  -22.7770  -13.6760   21.2180 C   0  0  0  0  0  0  0  0  0  0  0  0
  -22.0970  -12.9310   22.0830 N   0  0  0  0  0  0  0  0  0  0  0  0
  -22.3150  -14.7260   20.7760 O   0  0  0  0  0  0  0  0  0  0  0  0
  -22.4860  -12.0730   22.4490 H   0  0  0  0  0  0  0  0  0  0  0  0
  -21.1790  -13.2210   22.3890 H   0  0  0  0  0  0  0  0  0  0  0  0
  -25.3520  -15.3830   20.3220 N   0  0  0  0  0  0  0  0  0  0  0  0
  -24.5920  -16.0300   20.5030 H   0  0  0  0  0  0  0  0  0  0  0  0
  -26.1640  -15.8380   19.9250 H   0  0  0  0  0  0  0  0  0  0  0  0
  -27.9500  -24.7820   19.9390 C   0  0  0  0  0  2  0  0  0  0  0  0
  -28.1870  -26.3300   20.0720 O   0  0  0  0  0  0  0  0  0  0  0  0
  -24.5610  -31.9560   23.2680 C   0  0  0  0  0  0  0  0  0  0  0  0
  -27.1110  -27.3020   20.0720 C   0  0  0  0  0  0  0  0  0  0  0  0
  -23.3390  -30.5760   21.6360 C   0  0  0  0  0  3  0  0  0  0  0  0
  -24.7660  -29.0410   20.1450 C   0  0  0  0  0  0  0  0  0  0  0  0
  -25.8900  -30.8550   21.4270 C   0  0  0  0  0  2  0  0  0  0  0  0
  -25.9590  -29.4790   20.7340 C   0  0  0  0  0  0  0  0  0  0  0  0
  -27.1310  -28.6280   20.6810 C   0  0  0  0  0  3  0  0  0  0  0  0
  -25.8840  -26.9670   19.4580 C   0  0  0  0  0  3  0  0  0  0  0  0
  -24.7440  -27.7980   19.4930 C   0  0  0  0  0  3  0  0  0  0  0  0
  -23.5310  -29.9260   20.2420 C   0  0  0  0  0  2  0  0  0  0  0  0
  -24.6170  -31.1540   22.1610 N   0  0  0  0  0  0  0  0  0  0  0  0
  -23.4850  -32.2250   23.8230 O   0  0  0  0  0  0  0  0  0  0  0  0
  -22.6930  -29.5460   22.5960 C   0  0  0  0  0  0  0  0  0  0  0  0
  -21.3700  -29.3350   22.4700 N   0  0  0  0  0  0  0  0  0  0  0  0
  -23.3830  -28.9360   23.4180 O   0  0  0  0  0  0  0  0  0  0  0  0
  -20.8740  -29.8710   21.7710 H   0  0  0  0  0  0  0  0  0  0  0  0
  -18.0210  -28.0340   22.9430 C   0  0  0  0  0  0  0  0  0  0  0  0
  -20.5670  -28.3740   23.2340 C   0  0  0  0  0  3  0  0  0  0  0  0
  -20.7200  -26.9460   22.6570 C   0  0  0  0  0  2  0  0  0  0  0  0
  -19.6360  -26.5920   21.6360 C   0  0  0  0  0  2  0  0  0  0  0  0
  -18.2440  -26.6910   22.2670 C   0  0  0  0  0  2  0  0  0  0  0  0
  -19.1110  -28.8330   23.3770 C   0  0  0  0  0  0  0  0  0  0  0  0
  -18.8460  -30.0900   23.9650 C   0  0  0  0  0  3  0  0  0  0  0  0
  -17.5230  -30.5440   24.1300 C   0  0  0  0  0  3  0  0  0  0  0  0
  -16.4460  -29.7400   23.7160 C   0  0  0  0  0  3  0  0  0  0  0  0
  -16.6990  -28.4880   23.1240 C   0  0  0  0  0  3  0  0  0  0  0  0
  -25.8490  -32.5900   23.8800 C   0  0  0  0  0  3  0  0  0  0  0  0
  -26.3680  -31.8270   25.1610 C   0  0  1  0  0  0  0  0  0  0  0  0
  -25.2660  -31.5920   26.2220 C   0  0  0  0  0  1  0  0  0  0  0  0
  -26.9670  -30.4520   24.7850 C   0  0  0  0  0  1  0  0  0  0  0  0
  -27.5100  -32.6350   25.8200 C   0  0  0  0  0  1  0  0  0  0  0  0
  -25.5420  -33.9890   24.2090 N   0  0  0  0  0  0  0  0  0  0  0  0
  -25.8520  -35.0450   23.4420 C   0  0  0  0  0  0  0  0  0  0  0  0
  -26.4910  -34.9400   22.3930 O   0  0  0  0  0  0  0  0  0  0  0  0
  -24.9710  -34.1440   25.0270 H   0  0  0  0  0  0  0  0  0  0  0  0
  -24.1020  -36.8290   23.1620 C   0  0  0  0  0  1  0  0  0  0  0  0
  -25.3810  -36.4340   23.9160 C   0  0  0  0  0  3  0  0  0  0  0  0
  -27.5460  -37.3410   24.6440 C   0  0  0  0  0  1  0  0  0  0  0  0
  -26.4050  -37.4900   23.7460 N   0  0  0  0  0  0  0  0  0  0  0  0
  -26.0030  -38.4130   23.8970 H   0  0  0  0  0  0  0  0  0  0  0  0
  1  2  1  0
  1  6  2  0
  3  2  1  0
  4 54  1  0
  4  5  1  0
  4  3  1  0
  5  1  1  0
  7  5  1  0
  8  9  1  0
  9 13  1  0
 10 13  1  0
 11  7  1  0
 11  8  1  0
 11 12  1  0
 12 24  1  0
 12 10  1  0
 13 14  1  0
 13 15  1  0
 16 24  1  0
 17 22  1  0
 18 19  1  0
 18 17  1  0
 20 19  1  0
 20 29  1  0
 20 21  1  0
 22 16  1  0
 22 21  1  0
 23 16  2  0
 25 24  1  0
 26 27  2  0
 27 46  1  0
 28 27  1  0
 28 31  1  0
 29 30  1  0
 29 26  1  0
 30 28  2  0
 31 32  1  0
 32 33  2  0
 34 37  1  0
 34 33  1  0
 35 34  2  0
 36 35  1  0
 36 31  2  0
 37 38  1  0
 38 39  1  0
 39 40  2  0
 41 40  1  0
 41 45  1  0
 42 41  2  0
 43 38  2  0
 43 42  1  0
 44 43  1  0
 46 47  1  0
 47 50  1  0
 47 49  1  0
 48 46  2  0
 51 26  1  0
 51 52  1  0
 53 51  1  0
 54 55  1  0
 55 57  1  0
 56 67  2  0
 57 62  1  0
 58 66  1  0
 58 68  1  0
 59 65  1  0
 59 61  1  0
 60 66  1  0
 61 60  1  0
 62 61  2  0
 63 64  1  0
 63 57  2  0
 64 59  2  0
 65 58  1  0
 66 56  1  0
 68 70  2  0
 69 68  1  0
 71 69  1  0
 72 81  2  0
 72 77  1  0
 73 69  1  0
 73 77  1  0
 74 73  1  0
 75 76  1  0
 75 74  1  0
 76 72  1  0
 77 78  2  0
 78 79  1  0
 80 79  2  0
 81 80  1  0
 82 56  1  0
 82 87  1  0
 82 83  1  0
 83 86  1  1
 83 84  1  0
 85 83  1  0
 87 90  1  0
 88 92  1  0
 88 87  1  0
 89 88  2  0
 92 91  1  0
 94 95  1  0
 94 92  1  0
 94 93  1  0
M  ISO  4  16 100  24 100  54 101  55 101
M  END
>  <TORSDO>  (87) 
F 19

>  <SCORE>  (87) 
-14.986

>  <name>  (87) 
86

>  <ligand_id>  (87) 
86

>  <original_smiles>  (87) 
[H]c1c([H])c([H])c2c(c1[H])C([H])([H])C([H])([H])C([H])([H])C2([H])N([H])C(=O)C1([H])N(C(=O)C([H])(N([H])C(=O)C([H])(N([H])C([H])([H])[H])C([H])([H])[H])C(C([H])([H])[H])(C([H])([H])[H])C([H])([H])[H])C([H])([H])c2c([H])c(OC([H])([H])C3([H])N(C([H])([H])C4([H])C([H])([H])C([H])([H])[N+]([H])([H])C([H])([H])C4([H])N([H])C(=O)N4C([H])([H])C([H])([H])C([H])([H])C([H])(n5nc(-c6c([H])c([H])c(Oc7c([H])c([H])c(F)c([H])c7F)c([H])c6[H])c(C(=O)N([H])[H])c5N([H])[H])C4([H])[H])C(=O)C([H])([H])C3([H])[H])c([H])c([H])c2C1([H])[H]

>  <smiles>  (87) 
[H]c1c([H])c([H])c2c(c1[H])C([H])([H])C([H])([H])C([H])([H])C2([H])N([H])C(=O)C1([H])N(C(=O)C([H])(N([H])C(=O)C([H])(N([H])C([H])([H])[H])C([H])([H])[H])C(C([H])([H])[H])(C([H])([H])[H])C([H])([H])[H])C([H])([H])c2c([H])c(OC([H])([H])C3([H])N(C([H])([H])C4([H])C([H])([H])C([H])([H])[N+]([H])([H])C([H])([H])C4([H])N([H])C(=O)N4C([H])([H])C([H])([H])C([H])([H])C([H])(n5nc(-c6c([H])c([H])c(Oc7c([H])c([H])c(F)c([H])c7F)c([H])c6[H])c(C(=O)N([H])[H])c5N([H])[H])C4([H])[H])C(=O)C([H])([H])C3([H])[H])c([H])c([H])c2C1([H])[H]

$$$$
87:0:0
     RDKit          3D

 94100  0  0  1  0  0  0  0  0999 V2000
  -26.2730  -24.1360   18.9680 C   0  0  0  0  0  3  0  0  0  0  0  0
  -28.5830  -23.5960   19.1840 C   0  0  0  0  0  3  0  0  0  0  0  0
  -26.0050  -22.7910   18.5830 C   0  0  0  0  0  3  0  0  0  0  0  0
  -28.3160  -22.2300   18.8430 C   0  0  0  0  0  3  0  0  0  0  0  0
  -27.5880  -24.6190   19.2370 C   0  0  0  0  0  0  0  0  0  0  0  0
  -27.0100  -21.7910   18.5160 C   0  0  0  0  0  0  0  0  0  0  0  0
  -28.0080  -26.0590   19.8010 C   0  0  0  0  0  2  0  0  0  0  0  0
  -28.1180  -27.3350   19.0350 O   0  0  0  0  0  0  0  0  0  0  0  0
  -24.6000  -31.5580   23.7220 C   0  0  0  0  0  0  0  0  0  0  0  0
  -27.1270  -28.2600   19.3120 C   0  0  0  0  0  0  0  0  0  0  0  0
  -23.3550  -30.6590   21.7900 C   0  0  0  0  0  3  0  0  0  0  0  0
  -24.7730  -29.7080   19.8900 C   0  0  0  0  0  0  0  0  0  0  0  0
  -25.8750  -31.1070   21.6270 C   0  0  0  0  0  2  0  0  0  0  0  0
  -25.9510  -29.9950   20.5960 C   0  0  0  0  0  0  0  0  0  0  0  0
  -27.1390  -29.2530   20.3360 C   0  0  0  0  0  3  0  0  0  0  0  0
  -25.9970  -28.1530   18.5060 C   0  0  0  0  0  3  0  0  0  0  0  0
  -24.7960  -28.7950   18.8290 C   0  0  0  0  0  3  0  0  0  0  0  0
  -23.5160  -30.4640   20.2600 C   0  0  0  0  0  2  0  0  0  0  0  0
  -24.6290  -31.1100   22.4360 N   0  0  0  0  0  0  0  0  0  0  0  0
  -23.5370  -31.6180   24.3570 O   0  0  0  0  0  0  0  0  0  0  0  0
  -22.7880  -29.3620   22.4160 C   0  0  0  0  0  0  0  0  0  0  0  0
  -21.4820  -29.1190   22.2190 N   0  0  0  0  0  0  0  0  0  0  0  0
  -23.5240  -28.5930   23.0420 O   0  0  0  0  0  0  0  0  0  0  0  0
  -20.9460  -29.8020   21.7010 H   0  0  0  0  0  0  0  0  0  0  0  0
  -18.2480  -27.5030   22.1910 C   0  0  0  0  0  0  0  0  0  0  0  0
  -20.7450  -27.9470   22.6940 C   0  0  0  0  0  3  0  0  0  0  0  0
  -21.0390  -26.7110   21.8170 C   0  0  0  0  0  2  0  0  0  0  0  0
  -20.0300  -26.5220   20.6790 C   0  0  0  0  0  2  0  0  0  0  0  0
  -18.6110  -26.3730   21.2400 C   0  0  0  0  0  2  0  0  0  0  0  0
  -19.2510  -28.2510   22.8610 C   0  0  0  0  0  0  0  0  0  0  0  0
  -18.8670  -29.3140   23.7070 C   0  0  0  0  0  3  0  0  0  0  0  0
  -17.5090  -29.6310   23.8910 C   0  0  0  0  0  3  0  0  0  0  0  0
  -16.5180  -28.8770   23.2390 C   0  0  0  0  0  3  0  0  0  0  0  0
  -16.8860  -27.8130   22.3960 C   0  0  0  0  0  3  0  0  0  0  0  0
  -25.8950  -32.0380   24.4480 C   0  0  0  0  0  3  0  0  0  0  0  0
  -25.6880  -33.4400   24.8300 N   0  0  0  0  0  0  0  0  0  0  0  0
  -26.2350  -34.4890   24.2010 C   0  0  0  0  0  0  0  0  0  0  0  0
  -27.0350  -34.3680   23.2700 O   0  0  0  0  0  0  0  0  0  0  0  0
  -25.0040  -33.6180   25.5520 H   0  0  0  0  0  0  0  0  0  0  0  0
  -24.7950  -36.4960   23.7130 C   0  0  0  0  0  1  0  0  0  0  0  0
  -25.8270  -35.8940   24.6810 C   0  0  0  0  0  3  0  0  0  0  0  0
  -27.8550  -36.4780   25.9350 C   0  0  0  0  0  1  0  0  0  0  0  0
  -26.9690  -36.8220   24.8270 N   0  0  0  0  0  0  0  0  0  0  0  0
  -26.6430  -37.7750   24.9640 H   0  0  0  0  0  0  0  0  0  0  0  0
  -26.2590  -31.1660   25.7130 C   0  0  1  0  0  0  0  0  0  0  0  0
  -25.0940  -31.0110   26.7180 C   0  0  0  0  0  1  0  0  0  0  0  0
  -26.7180  -29.7490   25.2950 C   0  0  0  0  0  1  0  0  0  0  0  0
  -27.4450  -31.8100   26.4700 C   0  0  0  0  0  1  0  0  0  0  0  0
  -26.6340  -20.4750   18.1720 O   0  0  0  0  0  0  0  0  0  0  0  0
  -27.3930  -19.2760   18.5300 C   0  0  0  0  0  2  0  0  0  0  0  0
  -26.5150  -18.0880   19.1500 C   0  0  0  0  0  2  0  0  0  0  0  0
  -27.1100  -16.6890   19.0180 N   0  0  0  0  0  4  0  0  0  0  0  0
  -27.7470  -16.6310   18.2370 H   0  0  0  0  0  0  0  0  0  0  0  0
  -27.6980  -16.6330   19.8660 H   0  0  0  0  0  0  0  0  0  0  0  0
  -26.2220  -15.4590   19.0830 C   0  0  0  0  0  2  0  0  0  0  0  0
  -26.8080  -13.9500   18.9140 C   0  0  0  0  0  2  0  0  0  0  0  0
  -29.8810  -12.6020   21.6540 C   0  0  0  0  0  2  0  0  0  0  0  0
  -32.5860  -12.1160   20.3970 C   0  0  0  0  0  3  0  0  0  0  0  0
  -32.5110  -12.0490   18.6940 C   0  0  0  0  0  3  0  0  0  0  0  0
  -31.0450  -12.0120   18.0710 C   0  0  0  0  0  2  0  0  0  0  0  0
  -30.4890  -12.4200   19.2660 C   0  0  0  0  0  3  0  0  0  0  0  0
  -30.8760  -11.1300   20.2560 C   0  0  0  0  0  2  0  0  0  0  0  0
  -31.1680  -11.9220   21.1920 N   0  0  2  0  0  4  0  0  0  0  0  0
  -30.9140  -13.4740   21.7480 O   0  0  0  0  0  0  0  0  0  0  0  0
  -27.2580  -12.9600   20.0380 N   0  0  0  0  0  2  0  0  0  0  0  0
  -26.8830  -12.0360   19.8990 H   0  0  0  0  0  0  0  0  0  0  0  0
  -28.5260  -14.2080   21.1390 C   0  0  0  0  0  2  0  0  0  0  0  0
  -27.4650  -13.1640   22.1430 C   0  0  0  0  0  3  0  0  0  0  0  0
  -27.4480  -11.4190   21.5530 C   0  0  0  0  0  3  0  0  0  0  0  0
  -29.2930  -12.9210   19.5330 N   0  0  0  0  0  1  0  0  0  0  0  0
  -28.4330  -11.1740   20.1250 N   0  0  0  0  0  1  0  0  0  0  0  0
  -26.1860  -10.4660   21.3810 C   0  0  0  0  0  0  0  0  0  0  0  0
  -25.9740   -9.4580   22.3510 C   0  0  0  0  0  3  0  0  0  0  0  0
  -24.9170   -8.5060   22.2830 C   0  0  0  0  0  3  0  0  0  0  0  0
  -23.9960   -8.4730   21.2150 C   0  0  0  0  0  0  0  0  0  0  0  0
  -24.1880   -9.4320   20.1940 C   0  0  0  0  0  3  0  0  0  0  0  0
  -25.2510  -10.4000   20.2760 C   0  0  0  0  0  3  0  0  0  0  0  0
  -22.9790   -7.5190   21.1160 O   0  0  0  0  0  0  0  0  0  0  0  0
  -22.2390   -7.1150   22.2170 C   0  0  0  0  0  0  0  0  0  0  0  0
  -21.3750   -8.0110   22.8840 C   0  0  0  0  0  3  0  0  0  0  0  0
  -20.5970   -7.5830   23.9790 C   0  0  0  0  0  3  0  0  0  0  0  0
  -20.6690   -6.2460   24.4220 C   0  0  0  0  0  0  0  0  0  0  0  0
  -21.5140   -5.3450   23.7570 C   0  0  0  0  0  3  0  0  0  0  0  0
  -22.2900   -5.7680   22.6610 C   0  0  0  0  0  0  0  0  0  0  0  0
  -23.0800   -4.8720   22.0240 F   0  0  0  0  0  0  0  0  0  0  0  0
  -19.9250   -5.8360   25.4800 F   0  0  0  0  0  0  0  0  0  0  0  0
  -25.9570  -13.6760   22.3370 C   0  0  0  0  0  0  0  0  0  0  0  0
  -25.0130  -12.8950   22.8660 N   0  0  0  0  0  0  0  0  0  0  0  0
  -25.5360  -14.7560   21.8980 O   0  0  0  0  0  0  0  0  0  0  0  0
  -25.2540  -12.0120   23.2930 H   0  0  0  0  0  0  0  0  0  0  0  0
  -24.0680  -13.2430   22.9590 H   0  0  0  0  0  0  0  0  0  0  0  0
  -29.0150  -15.4160   21.4540 N   0  0  0  0  0  0  0  0  0  0  0  0
  -28.9680  -15.5970   22.4490 H   0  0  0  0  0  0  0  0  0  0  0  0
  -30.0040  -15.3380   21.2280 H   0  0  0  0  0  0  0  0  0  0  0  0
  1  5  1  0
  2  5  2  0
  3  1  2  0
  4  2  1  0
  5  7  1  0
  6  3  1  0
  6  4  2  0
  8 10  1  0
  8  7  1  0
  9 20  2  0
 10 15  1  0
 11 21  1  0
 11 19  1  0
 12 18  1  0
 12 14  1  0
 13 19  1  0
 14 13  1  0
 15 14  2  0
 16 17  1  0
 16 10  2  0
 17 12  2  0
 18 11  1  0
 19  9  1  0
 21 23  2  0
 22 21  1  0
 24 22  1  0
 25 34  2  0
 25 30  1  0
 26 22  1  0
 26 30  1  0
 27 26  1  0
 28 29  1  0
 28 27  1  0
 29 25  1  0
 30 31  2  0
 31 32  1  0
 33 32  2  0
 34 33  1  0
 35  9  1  0
 35 36  1  0
 35 45  1  0
 36 39  1  0
 37 41  1  0
 37 36  1  0
 38 37  2  0
 41 40  1  0
 41 43  1  0
 43 44  1  0
 43 42  1  0
 45 48  1  1
 45 46  1  0
 47 45  1  0
 49  6  1  0
 49 50  1  0
 50 51  1  0
 52 55  1  0
 52 51  1  0
 52 54  1  0
 53 52  1  0
 56 55  1  0
 56 65  1  0
 57 64  1  0
 58 63  1  0
 59 58  2  0
 60 59  1  0
 60 61  1  0
 61 70  1  0
 61 62  1  0
 63 62  1  1
 63 57  1  0
 63 64  1  0
 66 65  1  0
 67 92  1  0
 68 67  1  0
 68 87  1  0
 69 71  1  0
 69 68  1  0
 72 69  1  0
 72 73  1  0
 74 73  2  0
 75 74  1  0
 76 77  1  0
 76 75  2  0
 77 72  2  0
 78 75  1  0
 78 79  1  0
 79 84  2  0
 79 80  1  0
 80 81  2  0
 81 82  1  0
 82 86  1  0
 83 82  2  0
 84 83  1  0
 85 84  1  0
 87 88  1  0
 88 91  1  0
 88 90  1  0
 89 87  2  0
 92 93  1  0
 94 92  1  0
M  ISO  4   7 101   8 101  57 100  65 100
M  END
>  <TORSDO>  (88) 
F 23

>  <SCORE>  (88) 
-4.390

>  <name>  (88) 
87

>  <ligand_id>  (88) 
87

>  <original_smiles>  (88) 
[H]c1c([H])c([H])c2c(c1[H])C([H])([H])C([H])([H])C([H])([H])C2([H])N([H])C(=O)C1([H])N(C(=O)C([H])(N([H])C(=O)C([H])(N([H])C([H])([H])[H])C([H])([H])[H])C(C([H])([H])[H])(C([H])([H])[H])C([H])([H])[H])C([H])([H])c2c([H])c(OC([H])([H])c3c([H])c([H])c(OC([H])([H])C([H])([H])[N+]([H])([H])C([H])([H])C([H])([H])N([H])C(=O)N4C([H])([H])C([H])([H])C([H])([H])C([H])(n5nc(-c6c([H])c([H])c(Oc7c([H])c([H])c(F)c([H])c7F)c([H])c6[H])c(C(=O)N([H])[H])c5N([H])[H])C4([H])[H])c([H])c3[H])c([H])c([H])c2C1([H])[H]

>  <smiles>  (88) 
[H]c1c([H])c([H])c2c(c1[H])C([H])([H])C([H])([H])C([H])([H])C2([H])N([H])C(=O)C1([H])N(C(=O)C([H])(N([H])C(=O)C([H])(N([H])C([H])([H])[H])C([H])([H])[H])C(C([H])([H])[H])(C([H])([H])[H])C([H])([H])[H])C([H])([H])c2c([H])c(OC([H])([H])c3c([H])c([H])c(OC([H])([H])C([H])([H])[N+]([H])([H])C([H])([H])C([H])([H])N([H])C(=O)N4C([H])([H])C([H])([H])C([H])([H])C([H])(n5nc(-c6c([H])c([H])c(Oc7c([H])c([H])c(F)c([H])c7F)c([H])c6[H])c(C(=O)N([H])[H])c5N([H])[H])C4([H])[H])c([H])c3[H])c([H])c([H])c2C1([H])[H]

$$$$
88:0:0
     RDKit          3D

 93101  0  0  1  0  0  0  0  0999 V2000
  -29.4670  -21.5150   19.8880 N   0  0  0  0  0  4  0  0  0  0  0  0
  -28.8800  -21.3180   19.0940 H   0  0  0  0  0  0  0  0  0  0  0  0
  -30.3170  -21.9110   19.5210 H   0  0  0  0  0  0  0  0  0  0  0  0
  -29.1090  -17.8180   21.2950 C   0  0  0  0  0  2  0  0  0  0  0  0
  -28.6860  -19.2510   20.8330 C   0  0  0  0  0  2  0  0  0  0  0  0
  -30.9210  -19.4380   19.6810 C   0  0  0  0  0  2  0  0  0  0  0  0
  -30.0360  -17.0860   20.2860 C   0  0  0  0  0  3  0  0  0  0  0  0
  -29.8740  -20.2110   20.5470 C   0  0  0  0  0  3  0  0  0  0  0  0
  -31.2970  -17.9940   20.1650 C   0  0  0  0  0  3  0  0  0  0  0  0
  -30.8510  -14.6050   20.0230 C   0  0  0  0  0  0  0  0  0  0  0  0
  -30.5160  -12.4280   18.8850 C   0  0  0  0  0  2  0  0  0  0  0  0
  -29.4970  -12.6250   17.7420 C   0  0  0  0  0  2  0  0  0  0  0  0
  -28.0540  -12.4640   18.2650 C   0  0  0  0  0  2  0  0  0  0  0  0
  -27.7920  -13.2810   19.5600 C   0  0  0  0  0  3  0  0  0  0  0  0
  -28.9230  -13.0690   20.5960 C   0  0  0  0  0  2  0  0  0  0  0  0
  -30.2040  -13.4030   19.9520 N   0  0  0  0  0  0  0  0  0  0  0  0
  -31.9150  -14.8030   19.4330 O   0  0  0  0  0  0  0  0  0  0  0  0
  -30.1830  -15.6250   20.6290 N   0  0  0  0  0  0  0  0  0  0  0  0
  -29.4370  -15.2800   21.2150 H   0  0  0  0  0  0  0  0  0  0  0  0
  -25.4500  -13.8650   20.4560 C   0  0  0  0  0  0  0  0  0  0  0  0
  -24.4080  -13.0850   20.8740 C   0  0  0  0  0  0  0  0  0  0  0  0
  -24.8550  -11.7330   20.7600 C   0  0  0  0  0  0  0  0  0  0  0  0
  -26.4720  -12.9910   20.1200 N   0  0  0  0  0  0  0  0  0  0  0  0
  -26.1210  -11.7010   20.3600 N   0  0  0  0  0  0  0  0  0  0  0  0
  -24.1370  -10.4670   20.9580 C   0  0  0  0  0  0  0  0  0  0  0  0
  -24.5800   -9.5030   21.8920 C   0  0  0  0  0  3  0  0  0  0  0  0
  -23.8600   -8.3010   22.0750 C   0  0  0  0  0  3  0  0  0  0  0  0
  -22.6840   -8.0550   21.3280 C   0  0  0  0  0  0  0  0  0  0  0  0
  -22.2600   -9.0090   20.3860 C   0  0  0  0  0  3  0  0  0  0  0  0
  -22.9790  -10.2020   20.1990 C   0  0  0  0  0  3  0  0  0  0  0  0
  -21.9360   -6.9060   21.4200 O   0  0  0  0  0  0  0  0  0  0  0  0
  -21.8320   -6.2080   22.5990 C   0  0  0  0  0  0  0  0  0  0  0  0
  -21.3070   -6.7990   23.7690 C   0  0  0  0  0  3  0  0  0  0  0  0
  -21.1470   -6.0280   24.9370 C   0  0  0  0  0  3  0  0  0  0  0  0
  -21.5040   -4.6650   24.9360 C   0  0  0  0  0  0  0  0  0  0  0  0
  -22.0250   -4.0750   23.7690 C   0  0  0  0  0  3  0  0  0  0  0  0
  -22.1840   -4.8440   22.6060 C   0  0  0  0  0  0  0  0  0  0  0  0
  -22.6620   -4.2660   21.4770 F   0  0  0  0  0  0  0  0  0  0  0  0
  -21.3500   -3.9200   26.0540 F   0  0  0  0  0  0  0  0  0  0  0  0
  -23.0360  -13.5560   21.2570 C   0  0  0  0  0  0  0  0  0  0  0  0
  -22.3610  -12.8410   22.1500 N   0  0  0  0  0  0  0  0  0  0  0  0
  -22.5710  -14.5990   20.8020 O   0  0  0  0  0  0  0  0  0  0  0  0
  -22.7490  -12.0000   22.5500 H   0  0  0  0  0  0  0  0  0  0  0  0
  -21.4400  -13.1430   22.4350 H   0  0  0  0  0  0  0  0  0  0  0  0
  -25.6190  -15.2420   20.3180 N   0  0  0  0  0  0  0  0  0  0  0  0
  -24.8650  -15.8970   20.4880 H   0  0  0  0  0  0  0  0  0  0  0  0
  -26.4430  -15.6800   19.9240 H   0  0  0  0  0  0  0  0  0  0  0  0
  -32.1730  -17.4690   19.1940 O   0  0  0  0  0  0  0  0  0  0  0  0
  -32.2220  -16.5180   19.3580 H   0  0  0  0  0  0  0  0  0  0  0  0
  -28.8330  -22.6200   20.6930 C   0  0  0  0  0  2  0  0  0  0  0  0
  -28.8220  -24.0340   19.9670 C   0  0  0  0  0  3  0  0  0  0  0  0
  -28.3320  -25.2740   20.8050 C   0  0  0  0  0  3  0  0  0  0  0  0
  -28.4540  -26.5930   20.1830 O   0  0  0  0  0  0  0  0  0  0  0  0
  -24.6510  -31.8830   23.1820 C   0  0  0  0  0  0  0  0  0  0  0  0
  -27.3100  -27.3840   20.1640 C   0  0  0  0  0  0  0  0  0  0  0  0
  -23.4520  -30.4640   21.5510 C   0  0  0  0  0  3  0  0  0  0  0  0
  -24.9170  -28.9170   20.1400 C   0  0  0  0  0  0  0  0  0  0  0  0
  -25.9800  -30.8270   21.3470 C   0  0  0  0  0  2  0  0  0  0  0  0
  -26.0770  -29.4450   20.7210 C   0  0  0  0  0  0  0  0  0  0  0  0
  -27.2800  -28.6920   20.7200 C   0  0  0  0  0  3  0  0  0  0  0  0
  -26.1360  -26.8850   19.5650 C   0  0  0  0  0  3  0  0  0  0  0  0
  -24.9430  -27.6370   19.5550 C   0  0  0  0  0  3  0  0  0  0  0  0
  -23.6670  -29.7760   20.1770 C   0  0  0  0  0  2  0  0  0  0  0  0
  -24.7140  -31.0730   22.0850 N   0  0  0  0  0  0  0  0  0  0  0  0
  -23.5680  -32.1540   23.7200 O   0  0  0  0  0  0  0  0  0  0  0  0
  -22.8020  -29.4490   22.5210 C   0  0  0  0  0  0  0  0  0  0  0  0
  -21.4780  -29.2630   22.4000 N   0  0  0  0  0  0  0  0  0  0  0  0
  -23.4910  -28.8300   23.3370 O   0  0  0  0  0  0  0  0  0  0  0  0
  -20.9820  -29.8200   21.7160 H   0  0  0  0  0  0  0  0  0  0  0  0
  -18.1090  -28.0620   22.9220 C   0  0  0  0  0  0  0  0  0  0  0  0
  -20.6670  -28.3270   23.1790 C   0  0  0  0  0  3  0  0  0  0  0  0
  -20.7700  -26.8930   22.6110 C   0  0  0  0  0  2  0  0  0  0  0  0
  -19.6650  -26.5610   21.6040 C   0  0  0  0  0  2  0  0  0  0  0  0
  -18.2860  -26.7090   22.2520 C   0  0  0  0  0  2  0  0  0  0  0  0
  -19.2290  -28.8270   23.3430 C   0  0  0  0  0  0  0  0  0  0  0  0
  -19.0100  -30.0930   23.9270 C   0  0  0  0  0  3  0  0  0  0  0  0
  -17.7060  -30.5940   24.0950 C   0  0  0  0  0  3  0  0  0  0  0  0
  -16.6010  -29.8260   23.6890 C   0  0  0  0  0  3  0  0  0  0  0  0
  -16.8040  -28.5610   23.1090 C   0  0  0  0  0  3  0  0  0  0  0  0
  -25.9350  -32.5250   23.7970 C   0  0  0  0  0  3  0  0  0  0  0  0
  -25.6110  -33.9150   24.1420 N   0  0  0  0  0  0  0  0  0  0  0  0
  -25.9260  -34.9790   23.3910 C   0  0  0  0  0  0  0  0  0  0  0  0
  -26.5920  -34.8950   22.3560 O   0  0  0  0  0  0  0  0  0  0  0  0
  -25.0210  -34.0550   24.9470 H   0  0  0  0  0  0  0  0  0  0  0  0
  -24.1820  -36.7620   23.0510 C   0  0  0  0  0  1  0  0  0  0  0  0
  -25.4220  -36.3570   23.8640 C   0  0  0  0  0  3  0  0  0  0  0  0
  -27.5410  -37.2550   24.7180 C   0  0  0  0  0  1  0  0  0  0  0  0
  -26.4450  -37.4220   23.7690 N   0  0  0  0  0  0  0  0  0  0  0  0
  -26.0280  -38.3360   23.9230 H   0  0  0  0  0  0  0  0  0  0  0  0
  -26.4750  -31.7480   25.0590 C   0  0  1  0  0  0  0  0  0  0  0  0
  -25.3980  -31.4800   26.1350 C   0  0  0  0  0  1  0  0  0  0  0  0
  -27.0790  -30.3860   24.6420 C   0  0  0  0  0  1  0  0  0  0  0  0
  -27.6190  -32.5520   25.7190 C   0  0  0  0  0  1  0  0  0  0  0  0
  1 50  1  0
  2  1  1  0
  3  1  1  0
  5  4  1  0
  6  9  1  0
  6  8  1  0
  7 18  1  0
  7  4  1  0
  8  1  1  0
  8  5  1  0
  9 48  1  0
  9  7  1  0
 10 18  1  0
 11 16  1  0
 12 13  1  0
 12 11  1  0
 14 13  1  0
 14 23  1  0
 14 15  1  0
 16 10  1  0
 16 15  1  0
 17 10  2  0
 18 19  1  0
 20 21  2  0
 21 40  1  0
 22 21  1  0
 22 25  1  0
 23 24  1  0
 23 20  1  0
 24 22  2  0
 25 26  1  0
 26 27  2  0
 28 31  1  0
 28 27  1  0
 29 28  2  0
 30 29  1  0
 30 25  2  0
 31 32  1  0
 32 37  2  0
 32 33  1  0
 33 34  2  0
 35 34  1  0
 35 39  1  0
 36 35  2  0
 37 36  1  0
 38 37  1  0
 40 41  1  0
 41 44  1  0
 41 43  1  0
 42 40  2  0
 45 20  1  0
 45 46  1  0
 47 45  1  0
 48 49  1  0
 51 50  1  0
 51 52  2  0
 53 52  1  0
 54 65  2  0
 55 53  1  0
 55 60  1  0
 56 64  1  0
 56 66  1  0
 57 63  1  0
 57 59  1  0
 58 64  1  0
 59 58  1  0
 60 59  2  0
 61 55  2  0
 62 61  1  0
 62 57  2  0
 63 56  1  0
 64 54  1  0
 66 68  2  0
 67 66  1  0
 69 67  1  0
 70 79  2  0
 70 75  1  0
 71 67  1  0
 71 75  1  0
 72 71  1  0
 73 74  1  0
 73 72  1  0
 74 70  1  0
 75 76  2  0
 76 77  1  0
 78 77  2  0
 79 78  1  0
 80 54  1  0
 80 81  1  0
 80 90  1  0
 81 84  1  0
 82 86  1  0
 82 81  1  0
 83 82  2  0
 86 85  1  0
 88 86  1  0
 88 89  1  0
 88 87  1  0
 90 93  1  1
 90 91  1  0
 92 90  1  0
M  ISO  4  10 100  18 100  52 101  53 101
M  END
>  <TORSDO>  (89) 
F 21

>  <SCORE>  (89) 
-12.864

>  <name>  (89) 
88

>  <ligand_id>  (89) 
88

>  <original_smiles>  (89) 
[H]OC1([H])C([H])([H])C([H])([N+]([H])([H])C([H])([H])C([H])([H])C([H])([H])Oc2c([H])c([H])c3c(c2[H])C([H])([H])N(C(=O)C([H])(N([H])C(=O)C([H])(N([H])C([H])([H])[H])C([H])([H])[H])C(C([H])([H])[H])(C([H])([H])[H])C([H])([H])[H])C([H])(C(=O)N([H])C2([H])c4c([H])c([H])c([H])c([H])c4C([H])([H])C([H])([H])C2([H])[H])C3([H])[H])C([H])([H])C([H])([H])C1([H])N([H])C(=O)N1C([H])([H])C([H])([H])C([H])([H])C([H])(n2nc(-c3c([H])c([H])c(Oc4c([H])c([H])c(F)c([H])c4F)c([H])c3[H])c(C(=O)N([H])[H])c2N([H])[H])C1([H])[H]

>  <smiles>  (89) 
[H]OC1([H])C([H])([H])C([H])([N+]([H])([H])C([H])([H])C([H])([H])C([H])([H])Oc2c([H])c([H])c3c(c2[H])C([H])([H])N(C(=O)C([H])(N([H])C(=O)C([H])(N([H])C([H])([H])[H])C([H])([H])[H])C(C([H])([H])[H])(C([H])([H])[H])C([H])([H])[H])C([H])(C(=O)N([H])C2([H])c4c([H])c([H])c([H])c([H])c4C([H])([H])C([H])([H])C2([H])[H])C3([H])[H])C([H])([H])C([H])([H])C1([H])N([H])C(=O)N1C([H])([H])C([H])([H])C([H])([H])C([H])(n2nc(-c3c([H])c([H])c(Oc4c([H])c([H])c(F)c([H])c4F)c([H])c3[H])c(C(=O)N([H])[H])c2N([H])[H])C1([H])[H]

$$$$
89:0:0
     RDKit          3D

 96105  0  0  1  0  0  0  0  0999 V2000
  -29.6540  -18.8950   19.9350 C   0  0  0  0  0  3  0  0  0  0  0  0
  -30.3060  -18.7250   22.6040 C   0  0  0  0  0  3  0  0  0  0  0  0
  -29.6570  -20.1840   20.7100 C   0  0  0  0  0  0  0  0  0  0  0  0
  -30.2930  -17.5270   21.8520 C   0  0  0  0  0  0  0  0  0  0  0  0
  -30.0320  -19.9980   22.0620 C   0  0  0  0  0  0  0  0  0  0  0  0
  -29.9960  -17.5250   20.4630 C   0  0  0  0  0  0  0  0  0  0  0  0
  -30.9270  -22.3460   20.8170 C   0  0  0  0  0  2  0  0  0  0  0  0
  -29.6130  -21.7950   20.2430 C   0  0  0  0  0  3  0  0  0  0  0  0
  -30.9670  -22.2420   22.3630 C   0  0  0  0  0  3  0  0  0  0  0  0
  -30.5700  -16.2370   22.6110 C   0  0  0  0  0  1  0  0  0  0  0  0
  -30.2260  -21.1020   22.9000 N   0  0  0  0  0  0  0  0  0  0  0  0
  -30.5860  -20.8830   23.8280 H   0  0  0  0  0  0  0  0  0  0  0  0
  -30.6460  -14.9280   19.7070 C   0  0  0  0  0  0  0  0  0  0  0  0
  -30.3910  -12.6340   18.6170 C   0  0  0  0  0  2  0  0  0  0  0  0
  -29.3290  -12.6430   17.4910 C   0  0  0  0  0  2  0  0  0  0  0  0
  -27.9130  -12.4350   18.0650 C   0  0  0  0  0  2  0  0  0  0  0  0
  -27.6490  -13.3070   19.3200 C   0  0  0  0  0  3  0  0  0  0  0  0
  -28.8160  -13.2420   20.3240 C   0  0  0  0  0  2  0  0  0  0  0  0
  -30.0120  -13.6880   19.5980 N   0  0  0  0  0  0  0  0  0  0  0  0
  -31.8460  -14.9620   19.4140 O   0  0  0  0  0  0  0  0  0  0  0  0
  -29.8700  -16.1330   19.7980 N   0  0  0  0  0  0  0  0  0  0  0  0
  -28.9100  -15.9250   19.5750 H   0  0  0  0  0  0  0  0  0  0  0  0
  -25.3670  -13.8980   20.3110 C   0  0  0  0  0  0  0  0  0  0  0  0
  -24.3300  -13.1270   20.7560 C   0  0  0  0  0  0  0  0  0  0  0  0
  -24.7660  -11.7710   20.6410 C   0  0  0  0  0  0  0  0  0  0  0  0
  -26.3660  -13.0120   19.9420 N   0  0  0  0  0  0  0  0  0  0  0  0
  -26.0210  -11.7260   20.2090 N   0  0  0  0  0  0  0  0  0  0  0  0
  -24.0370  -10.5150   20.8600 C   0  0  0  0  0  0  0  0  0  0  0  0
  -24.5160   -9.5280   21.7490 C   0  0  0  0  0  3  0  0  0  0  0  0
  -23.7860   -8.3390   21.9580 C   0  0  0  0  0  3  0  0  0  0  0  0
  -22.5630   -8.1280   21.2770 C   0  0  0  0  0  0  0  0  0  0  0  0
  -22.1020   -9.1040   20.3760 C   0  0  0  0  0  3  0  0  0  0  0  0
  -22.8340  -10.2850   20.1660 C   0  0  0  0  0  3  0  0  0  0  0  0
  -21.7990   -6.9920   21.3980 O   0  0  0  0  0  0  0  0  0  0  0  0
  -21.7800   -6.2580   22.5570 C   0  0  0  0  0  0  0  0  0  0  0  0
  -21.4060   -6.8260   23.7940 C   0  0  0  0  0  3  0  0  0  0  0  0
  -21.3330   -6.0190   24.9470 C   0  0  0  0  0  3  0  0  0  0  0  0
  -21.6250   -4.6440   24.8640 C   0  0  0  0  0  0  0  0  0  0  0  0
  -21.9930   -4.0750   23.6320 C   0  0  0  0  0  3  0  0  0  0  0  0
  -22.0670   -4.8800   22.4810 C   0  0  0  0  0  0  0  0  0  0  0  0
  -22.4010   -4.3220   21.2920 F   0  0  0  0  0  0  0  0  0  0  0  0
  -21.5480   -3.8660   25.9690 F   0  0  0  0  0  0  0  0  0  0  0  0
  -22.9720  -13.6170   21.1690 C   0  0  0  0  0  0  0  0  0  0  0  0
  -22.3200  -12.9110   22.0860 N   0  0  0  0  0  0  0  0  0  0  0  0
  -22.5040  -14.6600   20.7140 O   0  0  0  0  0  0  0  0  0  0  0  0
  -22.7150  -12.0660   22.4720 H   0  0  0  0  0  0  0  0  0  0  0  0
  -21.4140  -13.2200   22.4070 H   0  0  0  0  0  0  0  0  0  0  0  0
  -25.5340  -15.2720   20.1640 N   0  0  0  0  0  0  0  0  0  0  0  0
  -24.7910  -15.9260   20.3860 H   0  0  0  0  0  0  0  0  0  0  0  0
  -26.3460  -15.7220   19.7640 H   0  0  0  0  0  0  0  0  0  0  0  0
  -28.4240  -22.9930   20.5110 C   0  0  0  0  0  2  0  0  0  0  0  0
  -28.5220  -24.6200   21.0670 C   0  0  0  0  0  2  0  0  0  0  0  0
  -28.6200  -26.0480   20.4290 O   0  0  0  0  0  0  0  0  0  0  0  0
  -24.8280  -31.7420   23.3110 C   0  0  0  0  0  0  0  0  0  0  0  0
  -27.5460  -27.0150   20.4180 C   0  0  0  0  0  0  0  0  0  0  0  0
  -23.7050  -30.3410   21.6230 C   0  0  0  0  0  3  0  0  0  0  0  0
  -25.2180  -28.7600   20.2710 C   0  0  0  0  0  0  0  0  0  0  0  0
  -26.2630  -30.6120   21.5670 C   0  0  0  0  0  2  0  0  0  0  0  0
  -26.3700  -29.2150   20.9270 C   0  0  0  0  0  0  0  0  0  0  0  0
  -27.5390  -28.3610   20.9740 C   0  0  0  0  0  3  0  0  0  0  0  0
  -26.3670  -26.6580   19.7350 C   0  0  0  0  0  3  0  0  0  0  0  0
  -25.2310  -27.4960   19.6580 C   0  0  0  0  0  3  0  0  0  0  0  0
  -23.9880  -29.6570   20.2590 C   0  0  0  0  0  2  0  0  0  0  0  0
  -24.9500  -30.9210   22.2230 N   0  0  0  0  0  0  0  0  0  0  0  0
  -23.7190  -32.0250   23.7900 O   0  0  0  0  0  0  0  0  0  0  0  0
  -22.9850  -29.3360   22.5570 C   0  0  0  0  0  0  0  0  0  0  0  0
  -21.6630  -29.1660   22.3760 N   0  0  0  0  0  0  0  0  0  0  0  0
  -23.6210  -28.7100   23.4100 O   0  0  0  0  0  0  0  0  0  0  0  0
  -21.2070  -29.7230   21.6670 H   0  0  0  0  0  0  0  0  0  0  0  0
  -18.2650  -27.9590   22.7300 C   0  0  0  0  0  0  0  0  0  0  0  0
  -20.8090  -28.2280   23.1110 C   0  0  0  0  0  3  0  0  0  0  0  0
  -20.9390  -26.7940   22.5440 C   0  0  0  0  0  2  0  0  0  0  0  0
  -19.8840  -26.4670   21.4830 C   0  0  0  0  0  2  0  0  0  0  0  0
  -18.4740  -26.6090   22.0630 C   0  0  0  0  0  2  0  0  0  0  0  0
  -19.3620  -28.7250   23.2070 C   0  0  0  0  0  0  0  0  0  0  0  0
  -19.1130  -29.9860   23.7900 C   0  0  0  0  0  3  0  0  0  0  0  0
  -17.8010  -30.4830   23.9000 C   0  0  0  0  0  3  0  0  0  0  0  0
  -16.7180  -29.7140   23.4400 C   0  0  0  0  0  3  0  0  0  0  0  0
  -16.9510  -28.4540   22.8610 C   0  0  0  0  0  3  0  0  0  0  0  0
  -26.0750  -32.3830   23.9940 C   0  0  0  0  0  3  0  0  0  0  0  0
  -26.5330  -31.6150   25.2950 C   0  0  1  0  0  0  0  0  0  0  0  0
  -25.3900  -31.3750   26.3100 C   0  0  0  0  0  1  0  0  0  0  0  0
  -27.1380  -30.2380   24.9360 C   0  0  0  0  0  1  0  0  0  0  0  0
  -27.6460  -32.4150   26.0120 C   0  0  0  0  0  1  0  0  0  0  0  0
  -25.7420  -33.7800   24.3170 N   0  0  0  0  0  0  0  0  0  0  0  0
  -26.0920  -34.8410   23.5780 C   0  0  0  0  0  0  0  0  0  0  0  0
  -26.7960  -34.7470   22.5680 O   0  0  0  0  0  0  0  0  0  0  0  0
  -25.1220  -33.9260   25.1000 H   0  0  0  0  0  0  0  0  0  0  0  0
  -24.3580  -36.6260   23.1920 C   0  0  0  0  0  1  0  0  0  0  0  0
  -25.5850  -36.2260   24.0280 C   0  0  0  0  0  3  0  0  0  0  0  0
  -27.6910  -37.1270   24.9100 C   0  0  0  0  0  1  0  0  0  0  0  0
  -26.6120  -37.2870   23.9410 N   0  0  0  0  0  0  0  0  0  0  0  0
  -26.1940  -38.2040   24.0810 H   0  0  0  0  0  0  0  0  0  0  0  0
  -32.4060  -22.2130   22.9070 C   0  0  0  0  0  2  0  0  0  0  0  0
  -32.3600  -21.9970   24.3090 O   0  0  0  0  0  0  0  0  0  0  0  0
  -33.2550  -22.0130   24.6330 H   0  0  0  0  0  0  0  0  0  0  0  0
  1  6  2  0
  1  3  1  0
  3  5  2  0
  4  2  2  0
  4 10  1  0
  5  2  1  0
  5 11  1  0
  6  4  1  0
  7  9  1  0
  8 51  1  0
  8  3  1  0
  8  7  1  0
  9 11  1  0
  9 94  1  0
 11 12  1  0
 13 21  1  0
 14 19  1  0
 15 16  1  0
 15 14  1  0
 17 16  1  0
 17 26  1  0
 17 18  1  0
 19 13  1  0
 19 18  1  0
 20 13  2  0
 21  6  1  0
 22 21  1  0
 23 24  2  0
 24 43  1  0
 25 24  1  0
 25 28  1  0
 26 27  1  0
 26 23  1  0
 27 25  2  0
 28 29  1  0
 29 30  2  0
 31 34  1  0
 31 30  1  0
 32 31  2  0
 33 32  1  0
 33 28  2  0
 34 35  1  0
 35 36  1  0
 36 37  2  0
 38 37  1  0
 38 42  1  0
 39 38  2  0
 40 35  2  0
 40 39  1  0
 41 40  1  0
 43 44  1  0
 44 47  1  0
 44 46  1  0
 45 43  2  0
 48 23  1  0
 48 49  1  0
 50 48  1  0
 51 52  1  0
 53 52  1  0
 54 65  2  0
 55 53  1  0
 55 60  1  0
 56 64  1  0
 56 66  1  0
 57 59  1  0
 58 64  1  0
 59 60  2  0
 59 58  1  0
 61 55  2  0
 62 61  1  0
 62 57  2  0
 63 57  1  0
 63 56  1  0
 64 54  1  0
 66 68  2  0
 67 66  1  0
 69 67  1  0
 70 79  2  0
 70 75  1  0
 71 67  1  0
 71 75  1  0
 72 71  1  0
 73 74  1  0
 73 72  1  0
 74 70  1  0
 75 76  2  0
 76 77  1  0
 78 77  2  0
 79 78  1  0
 80 54  1  0
 80 85  1  0
 80 81  1  0
 81 84  1  1
 81 82  1  0
 83 81  1  0
 85 88  1  0
 86 90  1  0
 86 85  1  0
 87 86  2  0
 90 89  1  0
 92 90  1  0
 92 93  1  0
 92 91  1  0
 94 95  1  0
 95 96  1  0
M  ISO  4  13 100  21 100  52 101  53 101
M  END
>  <TORSDO>  (90) 
F 20

>  <SCORE>  (90) 
-11.548

>  <name>  (90) 
89

>  <ligand_id>  (90) 
89

>  <original_smiles>  (90) 
[H]OC([H])([H])C1([H])N([H])c2c([H])c(C([H])([H])[H])c(N([H])C(=O)N3C([H])([H])C([H])([H])C([H])([H])C([H])(n4nc(-c5c([H])c([H])c(Oc6c([H])c([H])c(F)c([H])c6F)c([H])c5[H])c(C(=O)N([H])[H])c4N([H])[H])C3([H])[H])c([H])c2C([H])(C([H])([H])C([H])([H])Oc2c([H])c([H])c3c(c2[H])C([H])([H])N(C(=O)C([H])(N([H])C(=O)C([H])(N([H])C([H])([H])[H])C([H])([H])[H])C(C([H])([H])[H])(C([H])([H])[H])C([H])([H])[H])C([H])(C(=O)N([H])C2([H])c4c([H])c([H])c([H])c([H])c4C([H])([H])C([H])([H])C2([H])[H])C3([H])[H])C1([H])[H]

>  <smiles>  (90) 
[H]OC([H])([H])C1([H])N([H])c2c([H])c(C([H])([H])[H])c(N([H])C(=O)N3C([H])([H])C([H])([H])C([H])([H])C([H])(n4nc(-c5c([H])c([H])c(Oc6c([H])c([H])c(F)c([H])c6F)c([H])c5[H])c(C(=O)N([H])[H])c4N([H])[H])C3([H])[H])c([H])c2C([H])(C([H])([H])C([H])([H])Oc2c([H])c([H])c3c(c2[H])C([H])([H])N(C(=O)C([H])(N([H])C(=O)C([H])(N([H])C([H])([H])[H])C([H])([H])[H])C(C([H])([H])[H])(C([H])([H])[H])C([H])([H])[H])C([H])(C(=O)N([H])C2([H])c4c([H])c([H])c([H])c([H])c4C([H])([H])C([H])([H])C2([H])[H])C3([H])[H])C1([H])[H]

$$$$
90:0:0
     RDKit          3D

 98107  0  0  1  0  0  0  0  0999 V2000
  -29.8640  -21.7700   21.7670 N   0  0  0  0  0  4  0  0  0  0  0  0
  -30.1630  -21.6200   20.8180 H   0  0  0  0  0  0  0  0  0  0  0  0
  -28.9470  -21.3590   21.8520 H   0  0  0  0  0  0  0  0  0  0  0  0
  -30.4790  -24.0230   20.8630 C   0  0  0  0  0  2  0  0  0  0  0  0
  -28.3130  -23.7110   22.2050 C   0  0  0  0  0  2  0  0  0  0  0  0
  -30.3920  -25.5360   21.1370 C   0  0  0  0  0  2  0  0  0  0  0  0
  -27.9060  -24.8940   21.3020 C   0  0  0  0  0  2  0  0  0  0  0  0
  -29.7730  -23.2360   21.9840 C   0  0  0  0  0  3  0  0  0  0  0  0
  -28.9400  -26.0500   21.2790 C   0  0  0  0  0  3  0  0  0  0  0  0
  -28.6920  -26.9210   20.1750 O   0  0  0  0  0  0  0  0  0  0  0  0
  -24.6820  -31.8880   23.3430 C   0  0  0  0  0  0  0  0  0  0  0  0
  -27.5080  -27.6120   20.2220 C   0  0  0  0  0  0  0  0  0  0  0  0
  -23.5370  -30.4670   21.6730 C   0  0  0  0  0  3  0  0  0  0  0  0
  -25.0570  -29.0040   20.2390 C   0  0  0  0  0  0  0  0  0  0  0  0
  -26.0450  -30.9230   21.4990 C   0  0  0  0  0  2  0  0  0  0  0  0
  -26.1870  -29.5650   20.8490 C   0  0  0  0  0  0  0  0  0  0  0  0
  -27.4160  -28.8740   20.8470 C   0  0  0  0  0  3  0  0  0  0  0  0
  -26.3720  -27.0630   19.5950 C   0  0  0  0  0  3  0  0  0  0  0  0
  -25.1410  -27.7480   19.6120 C   0  0  0  0  0  3  0  0  0  0  0  0
  -23.7830  -29.8170   20.2840 C   0  0  0  0  0  2  0  0  0  0  0  0
  -24.7710  -31.1070   22.2310 N   0  0  0  0  0  0  0  0  0  0  0  0
  -23.5910  -32.1160   23.8830 O   0  0  0  0  0  0  0  0  0  0  0  0
  -22.9180  -29.4100   22.6130 C   0  0  0  0  0  0  0  0  0  0  0  0
  -21.6170  -29.1340   22.4300 N   0  0  0  0  0  0  0  0  0  0  0  0
  -23.6070  -28.8390   23.4640 O   0  0  0  0  0  0  0  0  0  0  0  0
  -21.1220  -29.6530   21.7180 H   0  0  0  0  0  0  0  0  0  0  0  0
  -18.3350  -27.6550   22.7190 C   0  0  0  0  0  0  0  0  0  0  0  0
  -20.8330  -28.1470   23.1700 C   0  0  0  0  0  3  0  0  0  0  0  0
  -21.1050  -26.7160   22.6500 C   0  0  0  0  0  2  0  0  0  0  0  0
  -20.1150  -26.2680   21.5700 C   0  0  0  0  0  2  0  0  0  0  0  0
  -18.6810  -26.3070   22.1070 C   0  0  0  0  0  2  0  0  0  0  0  0
  -19.3480  -28.5260   23.2020 C   0  0  0  0  0  0  0  0  0  0  0  0
  -18.9770  -29.7810   23.7300 C   0  0  0  0  0  3  0  0  0  0  0  0
  -17.6250  -30.1690   23.7830 C   0  0  0  0  0  3  0  0  0  0  0  0
  -16.6260  -29.2960   23.3200 C   0  0  0  0  0  3  0  0  0  0  0  0
  -16.9810  -28.0420   22.7930 C   0  0  0  0  0  3  0  0  0  0  0  0
  -25.9460  -32.5520   23.9780 C   0  0  0  0  0  3  0  0  0  0  0  0
  -26.4450  -31.8160   25.2810 C   0  0  1  0  0  0  0  0  0  0  0  0
  -25.3290  -31.5780   26.3240 C   0  0  0  0  0  1  0  0  0  0  0  0
  -27.0670  -30.4440   24.9260 C   0  0  0  0  0  1  0  0  0  0  0  0
  -27.5590  -32.6470   25.9610 C   0  0  0  0  0  1  0  0  0  0  0  0
  -25.6110  -33.9520   24.2680 N   0  0  0  0  0  0  0  0  0  0  0  0
  -25.9410  -34.9900   23.4870 C   0  0  0  0  0  0  0  0  0  0  0  0
  -26.6320  -34.8700   22.4710 O   0  0  0  0  0  0  0  0  0  0  0  0
  -25.0010  -34.1150   25.0570 H   0  0  0  0  0  0  0  0  0  0  0  0
  -24.1920  -36.7400   23.0460 C   0  0  0  0  0  1  0  0  0  0  0  0
  -25.4210  -36.3790   23.8960 C   0  0  0  0  0  3  0  0  0  0  0  0
  -27.5190  -37.3230   24.7490 C   0  0  0  0  0  1  0  0  0  0  0  0
  -26.4360  -37.4460   23.7780 N   0  0  0  0  0  0  0  0  0  0  0  0
  -26.0110  -38.3620   23.8930 H   0  0  0  0  0  0  0  0  0  0  0  0
  -30.8110  -21.0780   22.6730 C   0  0  0  0  0  2  0  0  0  0  0  0
  -31.3000  -17.2530   22.7300 C   0  0  0  0  0  3  0  0  0  0  0  0
  -30.8760  -18.5360   23.1250 C   0  0  0  0  0  0  0  0  0  0  0  0
  -31.1340  -19.6330   22.2600 C   0  0  0  0  0  0  0  0  0  0  0  0
  -31.9780  -17.1000   21.5110 C   0  0  0  0  0  0  0  0  0  0  0  0
  -31.7870  -19.3600   21.0290 C   0  0  0  0  0  0  0  0  0  0  0  0
  -30.2050  -18.6930   24.4780 C   0  0  0  0  0  1  0  0  0  0  0  0
  -32.1080  -20.4430   20.0130 C   0  0  0  0  0  1  0  0  0  0  0  0
  -32.1930  -18.1260   20.6680 N   0  0  0  0  0  0  0  0  0  0  0  0
  -32.5310  -15.7530   21.0990 C   0  0  0  0  0  2  0  0  0  0  0  0
  -31.3630  -14.4430   19.3490 C   0  0  0  0  0  0  0  0  0  0  0  0
  -30.6430  -12.4070   18.1690 C   0  0  0  0  0  2  0  0  0  0  0  0
  -29.5390  -12.6260   17.1260 C   0  0  0  0  0  2  0  0  0  0  0  0
  -28.1530  -12.5590   17.7870 C   0  0  0  0  0  2  0  0  0  0  0  0
  -28.0490  -13.4820   19.0270 C   0  0  0  0  0  3  0  0  0  0  0  0
  -29.2390  -13.2630   19.9860 C   0  0  0  0  0  2  0  0  0  0  0  0
  -30.5010  -13.4060   19.2330 N   0  0  0  0  0  0  0  0  0  0  0  0
  -32.1380  -14.8010   18.4560 O   0  0  0  0  0  0  0  0  0  0  0  0
  -31.4890  -14.8660   20.6070 N   0  0  0  0  0  0  0  0  0  0  0  0
  -30.8740  -14.4590   21.2950 H   0  0  0  0  0  0  0  0  0  0  0  0
  -25.8710  -14.2680   20.1580 C   0  0  0  0  0  0  0  0  0  0  0  0
  -24.7990  -13.5780   20.6570 C   0  0  0  0  0  0  0  0  0  0  0  0
  -25.1020  -12.1940   20.4740 C   0  0  0  0  0  0  0  0  0  0  0  0
  -26.7660  -13.3100   19.7080 N   0  0  0  0  0  0  0  0  0  0  0  0
  -26.3130  -12.0530   19.9510 N   0  0  0  0  0  0  0  0  0  0  0  0
  -24.2840  -10.9980   20.7130 C   0  0  0  0  0  0  0  0  0  0  0  0
  -24.7280   -9.9560   21.5580 C   0  0  0  0  0  3  0  0  0  0  0  0
  -23.9180   -8.8240   21.7870 C   0  0  0  0  0  3  0  0  0  0  0  0
  -22.6470   -8.7250   21.1710 C   0  0  0  0  0  0  0  0  0  0  0  0
  -22.2200   -9.7540   20.3130 C   0  0  0  0  0  3  0  0  0  0  0  0
  -23.0310  -10.8780   20.0820 C   0  0  0  0  0  3  0  0  0  0  0  0
  -21.8020   -7.6510   21.3140 O   0  0  0  0  0  0  0  0  0  0  0  0
  -21.7680   -6.9110   22.4690 C   0  0  0  0  0  0  0  0  0  0  0  0
  -21.4870   -7.4970   23.7220 C   0  0  0  0  0  3  0  0  0  0  0  0
  -21.3930   -6.6890   24.8730 C   0  0  0  0  0  3  0  0  0  0  0  0
  -21.5710   -5.2960   24.7720 C   0  0  0  0  0  0  0  0  0  0  0  0
  -21.8460   -4.7100   23.5240 C   0  0  0  0  0  3  0  0  0  0  0  0
  -21.9430   -5.5150   22.3750 C   0  0  0  0  0  0  0  0  0  0  0  0
  -22.1860   -4.9430   21.1720 F   0  0  0  0  0  0  0  0  0  0  0  0
  -21.4730   -4.5180   25.8750 F   0  0  0  0  0  0  0  0  0  0  0  0
  -23.5240  -14.1660   21.1880 C   0  0  0  0  0  0  0  0  0  0  0  0
  -22.8870  -13.4930   22.1420 N   0  0  0  0  0  0  0  0  0  0  0  0
  -23.1090  -15.2550   20.7940 O   0  0  0  0  0  0  0  0  0  0  0  0
  -23.2380  -12.6080   22.4790 H   0  0  0  0  0  0  0  0  0  0  0  0
  -22.0380  -13.8690   22.5380 H   0  0  0  0  0  0  0  0  0  0  0  0
  -26.1530  -15.6270   20.0310 N   0  0  0  0  0  0  0  0  0  0  0  0
  -25.4940  -16.3470   20.3020 H   0  0  0  0  0  0  0  0  0  0  0  0
  -26.9960  -15.9970   19.6100 H   0  0  0  0  0  0  0  0  0  0  0  0
  1  3  1  0
  1 51  1  0
  2  1  1  0
  4  6  1  0
  4  8  1  0
  6  9  1  0
  7  5  1  0
  8  1  1  0
  8  5  1  0
  9 10  1  0
  9  7  1  0
 10 12  1  0
 11 22  2  0
 12 17  1  0
 13 21  1  0
 13 23  1  0
 14 20  1  0
 14 16  1  0
 15 21  1  0
 16 15  1  0
 17 16  2  0
 18 19  1  0
 18 12  2  0
 19 14  2  0
 20 13  1  0
 21 11  1  0
 23 25  2  0
 24 23  1  0
 26 24  1  0
 27 36  2  0
 27 32  1  0
 28 24  1  0
 28 32  1  0
 29 28  1  0
 30 31  1  0
 30 29  1  0
 31 27  1  0
 32 33  2  0
 33 34  1  0
 35 34  2  0
 36 35  1  0
 37 11  1  0
 37 42  1  0
 37 38  1  0
 38 41  1  1
 38 39  1  0
 40 38  1  0
 42 45  1  0
 43 47  1  0
 43 42  1  0
 44 43  2  0
 47 46  1  0
 49 50  1  0
 49 47  1  0
 49 48  1  0
 52 53  1  0
 53 57  1  0
 54 51  1  0
 54 53  2  0
 55 52  2  0
 56 54  1  0
 58 56  1  0
 59 56  2  0
 59 55  1  0
 60 55  1  0
 61 69  1  0
 62 67  1  0
 63 64  1  0
 63 62  1  0
 65 64  1  0
 65 74  1  0
 65 66  1  0
 67 61  1  0
 67 66  1  0
 68 61  2  0
 69 60  1  0
 69 70  1  0
 71 72  2  0
 72 91  1  0
 73 72  1  0
 73 76  1  0
 74 75  1  0
 74 71  1  0
 75 73  2  0
 76 77  1  0
 77 78  2  0
 79 82  1  0
 79 78  1  0
 80 79  2  0
 81 80  1  0
 81 76  2  0
 82 83  1  0
 83 84  1  0
 84 85  2  0
 86 85  1  0
 86 90  1  0
 87 86  2  0
 88 83  2  0
 88 87  1  0
 89 88  1  0
 91 92  1  0
 92 94  1  0
 92 95  1  0
 93 91  2  0
 96 71  1  0
 96 97  1  0
 98 96  1  0
M  ISO  4   9 101  10 101  61 100  69 100
M  END
>  <TORSDO>  (91) 
F 20

>  <SCORE>  (91) 
-9.026

>  <name>  (91) 
90

>  <ligand_id>  (91) 
90

>  <original_smiles>  (91) 
[H]c1c([H])c([H])c2c(c1[H])C([H])([H])C([H])([H])C([H])([H])C2([H])N([H])C(=O)C1([H])N(C(=O)C([H])(N([H])C(=O)C([H])(N([H])C([H])([H])[H])C([H])([H])[H])C(C([H])([H])[H])(C([H])([H])[H])C([H])([H])[H])C([H])([H])c2c([H])c(OC3([H])C([H])([H])C([H])([H])C([H])([N+]([H])([H])C([H])([H])c4c(C([H])([H])[H])nc(C([H])([H])N([H])C(=O)N5C([H])([H])C([H])([H])C([H])([H])C([H])(n6nc(-c7c([H])c([H])c(Oc8c([H])c([H])c(F)c([H])c8F)c([H])c7[H])c(C(=O)N([H])[H])c6N([H])[H])C5([H])[H])c([H])c4C([H])([H])[H])C([H])([H])C3([H])[H])c([H])c([H])c2C1([H])[H]

>  <smiles>  (91) 
[H]c1c([H])c([H])c2c(c1[H])C([H])([H])C([H])([H])C([H])([H])C2([H])N([H])C(=O)C1([H])N(C(=O)C([H])(N([H])C(=O)C([H])(N([H])C([H])([H])[H])C([H])([H])[H])C(C([H])([H])[H])(C([H])([H])[H])C([H])([H])[H])C([H])([H])c2c([H])c(OC3([H])C([H])([H])C([H])([H])C([H])([N+]([H])([H])C([H])([H])c4c(C([H])([H])[H])nc(C([H])([H])N([H])C(=O)N5C([H])([H])C([H])([H])C([H])([H])C([H])(n6nc(-c7c([H])c([H])c(Oc8c([H])c([H])c(F)c([H])c8F)c([H])c7[H])c(C(=O)N([H])[H])c6N([H])[H])C5([H])[H])c([H])c4C([H])([H])[H])C([H])([H])C3([H])[H])c([H])c([H])c2C1([H])[H]

$$$$
91:0:0
     RDKit          3D

 91100  0  0  1  0  0  0  0  0999 V2000
  -29.7650  -21.5680   21.7210 C   0  0  0  0  0  3  0  0  0  0  0  0
  -29.4710  -22.9320   21.6630 C   0  0  0  0  0  3  0  0  0  0  0  0
  -29.0380  -20.7920   20.7490 C   0  0  0  0  0  0  0  0  0  0  0  0
  -28.3610  -21.8740   20.0890 C   0  0  0  0  0  0  0  0  0  0  0  0
  -28.5450  -23.2160   20.6640 N   0  0  0  0  0  0  0  0  0  0  0  0
  -26.4290  -22.3810   18.5300 C   0  0  0  0  0  2  0  0  0  0  0  0
  -27.5230  -21.7250   18.9350 C   0  0  0  0  0  3  0  0  0  0  0  0
  -26.5820  -21.9070   17.0930 C   0  0  0  0  0  2  0  0  0  0  0  0
  -27.8010  -21.0940   17.5880 C   0  0  0  0  0  2  0  0  0  0  0  0
  -28.9350  -19.1040   20.5690 C   0  0  0  0  0  3  0  0  0  0  0  0
  -30.0120  -17.8240   20.9410 C   0  0  0  0  0  3  0  0  0  0  0  0
  -30.4870  -15.0560   20.6460 C   0  0  0  0  0  0  0  0  0  0  0  0
  -30.4330  -12.7210   19.6180 C   0  0  0  0  0  2  0  0  0  0  0  0
  -29.5040  -12.6450   18.3830 C   0  0  0  0  0  2  0  0  0  0  0  0
  -28.0510  -12.3710   18.8130 C   0  0  0  0  0  2  0  0  0  0  0  0
  -27.6060  -13.2630   20.0020 C   0  0  0  0  0  3  0  0  0  0  0  0
  -28.6590  -13.2930   21.1290 C   0  0  0  0  0  2  0  0  0  0  0  0
  -29.9070  -13.7830   20.5290 N   0  0  0  0  0  0  0  0  0  0  0  0
  -31.7000  -15.1230   20.4290 O   0  0  0  0  0  0  0  0  0  0  0  0
  -29.7000  -16.2490   20.7950 N   0  0  0  0  0  0  0  0  0  0  0  0
  -28.7160  -16.0370   20.8650 H   0  0  0  0  0  0  0  0  0  0  0  0
  -25.2010  -13.7500   20.7190 C   0  0  0  0  0  0  0  0  0  0  0  0
  -24.1570  -12.9350   21.0590 C   0  0  0  0  0  0  0  0  0  0  0  0
  -24.6660  -11.6000   21.0140 C   0  0  0  0  0  0  0  0  0  0  0  0
  -26.2760  -12.9110   20.4820 N   0  0  0  0  0  0  0  0  0  0  0  0
  -25.9620  -11.6120   20.7250 N   0  0  0  0  0  0  0  0  0  0  0  0
  -23.9770  -10.3120   21.1680 C   0  0  0  0  0  0  0  0  0  0  0  0
  -24.4040   -9.3510   22.1120 C   0  0  0  0  0  3  0  0  0  0  0  0
  -23.7090   -8.1300   22.2540 C   0  0  0  0  0  3  0  0  0  0  0  0
  -22.5760   -7.8610   21.4510 C   0  0  0  0  0  0  0  0  0  0  0  0
  -22.1680   -8.8100   20.4990 C   0  0  0  0  0  3  0  0  0  0  0  0
  -22.8630  -10.0240   20.3540 C   0  0  0  0  0  3  0  0  0  0  0  0
  -21.8560   -6.6900   21.5030 O   0  0  0  0  0  0  0  0  0  0  0  0
  -21.7730   -5.9470   22.6530 C   0  0  0  0  0  0  0  0  0  0  0  0
  -21.2100   -6.4700   23.8370 C   0  0  0  0  0  3  0  0  0  0  0  0
  -21.0800   -5.6500   24.9770 C   0  0  0  0  0  3  0  0  0  0  0  0
  -21.5030   -4.3070   24.9310 C   0  0  0  0  0  0  0  0  0  0  0  0
  -22.0590   -3.7850   23.7500 C   0  0  0  0  0  3  0  0  0  0  0  0
  -22.1910   -4.6020   22.6140 C   0  0  0  0  0  0  0  0  0  0  0  0
  -22.7070   -4.0870   21.4720 F   0  0  0  0  0  0  0  0  0  0  0  0
  -21.3710   -3.5170   26.0210 F   0  0  0  0  0  0  0  0  0  0  0  0
  -22.7410  -13.3630   21.3120 C   0  0  0  0  0  0  0  0  0  0  0  0
  -22.0160  -12.6300   22.1490 N   0  0  0  0  0  0  0  0  0  0  0  0
  -22.2830  -14.3860   20.8030 O   0  0  0  0  0  0  0  0  0  0  0  0
  -22.3940  -11.7990   22.5780 H   0  0  0  0  0  0  0  0  0  0  0  0
  -21.0690  -12.9080   22.3660 H   0  0  0  0  0  0  0  0  0  0  0  0
  -25.3200  -15.1270   20.5660 N   0  0  0  0  0  0  0  0  0  0  0  0
  -24.5270  -15.7510   20.6730 H   0  0  0  0  0  0  0  0  0  0  0  0
  -26.1440  -15.5960   20.2140 H   0  0  0  0  0  0  0  0  0  0  0  0
  -27.7900  -24.5960   20.2880 C   0  0  0  0  0  2  0  0  0  0  0  0
  -28.1180  -26.0380   20.7580 O   0  0  0  0  0  0  0  0  0  0  0  0
  -24.6680  -32.0410   23.4620 C   0  0  0  0  0  0  0  0  0  0  0  0
  -27.1330  -27.1120   20.6060 C   0  0  0  0  0  0  0  0  0  0  0  0
  -23.4530  -30.6380   21.8430 C   0  0  0  0  0  3  0  0  0  0  0  0
  -24.8750  -28.9800   20.4790 C   0  0  0  0  0  0  0  0  0  0  0  0
  -26.0180  -30.7960   21.7300 C   0  0  0  0  0  2  0  0  0  0  0  0
  -26.0560  -29.3810   21.1170 C   0  0  0  0  0  0  0  0  0  0  0  0
  -27.1810  -28.4610   21.1720 C   0  0  0  0  0  3  0  0  0  0  0  0
  -25.9380  -26.8520   19.8910 C   0  0  0  0  0  3  0  0  0  0  0  0
  -24.8350  -27.7330   19.8470 C   0  0  0  0  0  3  0  0  0  0  0  0
  -23.6750  -29.9180   20.4880 C   0  0  0  0  0  2  0  0  0  0  0  0
  -24.7320  -31.1830   22.3980 N   0  0  0  0  0  0  0  0  0  0  0  0
  -23.5830  -32.3800   23.9610 O   0  0  0  0  0  0  0  0  0  0  0  0
  -22.7210  -29.6830   22.8200 C   0  0  0  0  0  0  0  0  0  0  0  0
  -21.4040  -29.4940   22.6240 N   0  0  0  0  0  0  0  0  0  0  0  0
  -23.3430  -29.1140   23.7210 O   0  0  0  0  0  0  0  0  0  0  0  0
  -20.9590  -29.9990   21.8690 H   0  0  0  0  0  0  0  0  0  0  0  0
  -18.0230  -28.2240   22.9440 C   0  0  0  0  0  0  0  0  0  0  0  0
  -20.5420  -28.5970   23.3980 C   0  0  0  0  0  3  0  0  0  0  0  0
  -20.7320  -27.1260   22.9590 C   0  0  0  0  0  2  0  0  0  0  0  0
  -19.7320  -26.6840   21.8870 C   0  0  0  0  0  2  0  0  0  0  0  0
  -18.2950  -26.8320   22.3990 C   0  0  0  0  0  2  0  0  0  0  0  0
  -19.0790  -29.0580   23.3980 C   0  0  0  0  0  0  0  0  0  0  0  0
  -18.7750  -30.3550   23.8670 C   0  0  0  0  0  3  0  0  0  0  0  0
  -17.4480  -30.8210   23.8860 C   0  0  0  0  0  3  0  0  0  0  0  0
  -16.4050  -29.9880   23.4510 C   0  0  0  0  0  3  0  0  0  0  0  0
  -16.6910  -28.6920   22.9840 C   0  0  0  0  0  3  0  0  0  0  0  0
  -25.9550  -32.6550   24.0930 C   0  0  0  0  0  3  0  0  0  0  0  0
  -26.4160  -31.9120   25.4090 C   0  0  1  0  0  0  0  0  0  0  0  0
  -25.2840  -31.7280   26.4470 C   0  0  0  0  0  1  0  0  0  0  0  0
  -26.9830  -30.5090   25.0850 C   0  0  0  0  0  1  0  0  0  0  0  0
  -27.5630  -32.7040   26.0820 C   0  0  0  0  0  1  0  0  0  0  0  0
  -25.6830  -34.0740   24.3760 N   0  0  0  0  0  0  0  0  0  0  0  0
  -26.0210  -35.0930   23.5750 C   0  0  0  0  0  0  0  0  0  0  0  0
  -26.6620  -34.9370   22.5320 O   0  0  0  0  0  0  0  0  0  0  0  0
  -25.1080  -34.2680   25.1820 H   0  0  0  0  0  0  0  0  0  0  0  0
  -24.3090  -36.9090   23.2340 C   0  0  0  0  0  1  0  0  0  0  0  0
  -25.5820  -36.5100   23.9970 C   0  0  0  0  0  3  0  0  0  0  0  0
  -27.7640  -37.3980   24.6920 C   0  0  0  0  0  1  0  0  0  0  0  0
  -26.6270  -37.5360   23.7870 N   0  0  0  0  0  0  0  0  0  0  0  0
  -26.2440  -38.4700   23.9070 H   0  0  0  0  0  0  0  0  0  0  0  0
  2  1  2  0
  3  1  1  0
  4  5  1  0
  4  3  2  0
  5  2  1  0
  6  7  1  0
  7  4  1  0
  8  9  1  0
  8  6  1  0
  9  7  1  0
 10  3  1  0
 10 11  2  0
 12 20  1  0
 13 18  1  0
 14 15  1  0
 14 13  1  0
 16 15  1  0
 16 25  1  0
 16 17  1  0
 18 12  1  0
 18 17  1  0
 19 12  2  0
 20 21  1  0
 20 11  1  0
 22 23  2  0
 23 42  1  0
 24 23  1  0
 24 27  1  0
 25 22  1  0
 25 26  1  0
 26 24  2  0
 27 28  1  0
 28 29  2  0
 30 33  1  0
 30 29  1  0
 31 30  2  0
 32 31  1  0
 32 27  2  0
 33 34  1  0
 34 35  1  0
 35 36  2  0
 37 36  1  0
 37 41  1  0
 38 37  2  0
 39 34  2  0
 39 38  1  0
 40 39  1  0
 42 43  1  0
 43 46  1  0
 43 45  1  0
 44 42  2  0
 47 48  1  0
 47 22  1  0
 49 47  1  0
 50  5  1  0
 50 51  1  0
 52 63  2  0
 53 51  1  0
 53 58  1  0
 54 62  1  0
 54 64  1  0
 55 61  1  0
 55 57  1  0
 56 62  1  0
 57 58  2  0
 57 56  1  0
 59 53  2  0
 60 59  1  0
 60 55  2  0
 61 54  1  0
 62 52  1  0
 64 66  2  0
 65 64  1  0
 67 65  1  0
 68 77  2  0
 68 73  1  0
 69 65  1  0
 70 69  1  0
 71 72  1  0
 71 70  1  0
 72 68  1  0
 73 69  1  0
 73 74  2  0
 74 75  1  0
 76 75  2  0
 77 76  1  0
 78 52  1  0
 78 83  1  0
 78 79  1  0
 79 82  1  1
 79 80  1  0
 81 79  1  0
 83 86  1  0
 84 88  1  0
 84 83  1  0
 85 84  2  0
 88 87  1  0
 90 91  1  0
 90 88  1  0
 90 89  1  0
M  ISO  4  12 100  20 100  50 101  51 101
M  END
>  <TORSDO>  (92) 
F 20

>  <SCORE>  (92) 
-13.841

>  <name>  (92) 
91

>  <ligand_id>  (92) 
91

>  <original_smiles>  (92) 
[H]C1=C(c2c(C([H])([H])C([H])([H])N([H])C(=O)N3C([H])([H])C([H])([H])C([H])([H])C([H])(n4nc(-c5c([H])c([H])c(Oc6c([H])c([H])c(F)c([H])c6F)c([H])c5[H])c(C(=O)N([H])[H])c4N([H])[H])C3([H])[H])c([H])c([H])n2C([H])([H])Oc2c([H])c([H])c3c(c2[H])C([H])([H])N(C(=O)C([H])(N([H])C(=O)C([H])(N([H])C([H])([H])[H])C([H])([H])[H])C(C([H])([H])[H])(C([H])([H])[H])C([H])([H])[H])C([H])(C(=O)N([H])C2([H])c4c([H])c([H])c([H])c([H])c4C([H])([H])C([H])([H])C2([H])[H])C3([H])[H])C([H])([H])C1([H])[H]

>  <smiles>  (92) 
[H]C1=C(c2c(C([H])([H])C([H])([H])N([H])C(=O)N3C([H])([H])C([H])([H])C([H])([H])C([H])(n4nc(-c5c([H])c([H])c(Oc6c([H])c([H])c(F)c([H])c6F)c([H])c5[H])c(C(=O)N([H])[H])c4N([H])[H])C3([H])[H])c([H])c([H])n2C([H])([H])Oc2c([H])c([H])c3c(c2[H])C([H])([H])N(C(=O)C([H])(N([H])C(=O)C([H])(N([H])C([H])([H])[H])C([H])([H])[H])C(C([H])([H])[H])(C([H])([H])[H])C([H])([H])[H])C([H])(C(=O)N([H])C2([H])c4c([H])c([H])c([H])c([H])c4C([H])([H])C([H])([H])C2([H])[H])C3([H])[H])C([H])([H])C1([H])[H]

$$$$
92:0:0
     RDKit          3D

 91 99  0  0  1  0  0  0  0  0999 V2000
  -27.3920  -19.5130   20.9510 C   0  0  0  0  0  2  0  0  0  0  0  0
  -28.2590  -20.7480   21.2320 C   0  0  0  0  0  2  0  0  0  0  0  0
  -27.8830  -19.0110   19.5930 C   0  0  0  0  0  2  0  0  0  0  0  0
  -29.3800  -20.7410   20.1620 C   0  0  0  0  0  3  0  0  0  0  0  0
  -29.3200  -19.3760   19.5350 N   0  0  1  0  0  4  0  0  0  0  0  0
  -29.6160  -19.4410   18.5710 H   0  0  0  0  0  0  0  0  0  0  0  0
  -29.1890  -21.9090   19.1280 C   0  0  0  0  0  2  0  0  0  0  0  0
  -29.0640  -23.1860   19.7810 O   0  0  0  0  0  0  0  0  0  0  0  0
  -28.7090  -24.2930   18.9280 C   0  0  0  0  0  2  0  0  0  0  0  0
  -28.3990  -25.5630   19.7750 C   0  0  0  0  0  2  0  0  0  0  0  0
  -28.2960  -26.8060   19.0420 O   0  0  0  0  0  0  0  0  0  0  0  0
  -24.4760  -31.4690   22.8850 C   0  0  0  0  0  0  0  0  0  0  0  0
  -27.1120  -27.4990   19.1960 C   0  0  0  0  0  0  0  0  0  0  0  0
  -23.2330  -30.1940   21.1680 C   0  0  0  0  0  3  0  0  0  0  0  0
  -24.6640  -28.8880   19.5040 C   0  0  0  0  0  0  0  0  0  0  0  0
  -25.7270  -30.6940   20.8680 C   0  0  0  0  0  2  0  0  0  0  0  0
  -25.8330  -29.4030   20.0780 C   0  0  0  0  0  0  0  0  0  0  0  0
  -27.0630  -28.7180   19.9160 C   0  0  0  0  0  3  0  0  0  0  0  0
  -25.9260  -27.0010   18.6210 C   0  0  0  0  0  3  0  0  0  0  0  0
  -24.7050  -27.6870   18.7720 C   0  0  0  0  0  3  0  0  0  0  0  0
  -23.3890  -29.6740   19.7120 C   0  0  0  0  0  2  0  0  0  0  0  0
  -24.5000  -30.7950   21.6990 N   0  0  0  0  0  0  0  0  0  0  0  0
  -23.4190  -31.6270   23.5120 O   0  0  0  0  0  0  0  0  0  0  0  0
  -22.6850  -29.0450   22.0460 C   0  0  0  0  0  0  0  0  0  0  0  0
  -21.3680  -28.8000   21.9600 N   0  0  0  0  0  0  0  0  0  0  0  0
  -23.4420  -28.3830   22.7620 O   0  0  0  0  0  0  0  0  0  0  0  0
  -20.8160  -29.3920   21.3560 H   0  0  0  0  0  0  0  0  0  0  0  0
  -18.1000  -27.3310   22.4380 C   0  0  0  0  0  0  0  0  0  0  0  0
  -20.6420  -27.7420   22.6640 C   0  0  0  0  0  3  0  0  0  0  0  0
  -20.8220  -26.3790   21.9570 C   0  0  0  0  0  2  0  0  0  0  0  0
  -19.7110  -26.0720   20.9480 C   0  0  0  0  0  2  0  0  0  0  0  0
  -18.3450  -26.0620   21.6390 C   0  0  0  0  0  2  0  0  0  0  0  0
  -19.1790  -28.1290   22.9070 C   0  0  0  0  0  0  0  0  0  0  0  0
  -18.8940  -29.3160   23.6150 C   0  0  0  0  0  3  0  0  0  0  0  0
  -17.5650  -29.7080   23.8610 C   0  0  0  0  0  3  0  0  0  0  0  0
  -16.5010  -28.9070   23.4090 C   0  0  0  0  0  3  0  0  0  0  0  0
  -16.7710  -27.7210   22.7030 C   0  0  0  0  0  3  0  0  0  0  0  0
  -25.7690  -32.0930   23.4970 C   0  0  0  0  0  3  0  0  0  0  0  0
  -25.4320  -33.4460   23.9570 N   0  0  0  0  0  0  0  0  0  0  0  0
  -25.7090  -34.5700   23.2800 C   0  0  0  0  0  0  0  0  0  0  0  0
  -26.3440  -34.5750   22.2220 O   0  0  0  0  0  0  0  0  0  0  0  0
  -24.8660  -33.5140   24.7890 H   0  0  0  0  0  0  0  0  0  0  0  0
  -23.9100  -36.3210   23.1450 C   0  0  0  0  0  1  0  0  0  0  0  0
  -25.1980  -35.8970   23.8690 C   0  0  0  0  0  3  0  0  0  0  0  0
  -27.3310  -36.7950   24.6920 C   0  0  0  0  0  1  0  0  0  0  0  0
  -26.1910  -36.9920   23.8000 N   0  0  0  0  0  0  0  0  0  0  0  0
  -25.7610  -37.8840   24.0280 H   0  0  0  0  0  0  0  0  0  0  0  0
  -26.3730  -31.2380   24.6780 C   0  0  1  0  0  0  0  0  0  0  0  0
  -25.3450  -30.8820   25.7770 C   0  0  0  0  0  1  0  0  0  0  0  0
  -26.9670  -29.9140   24.1450 C   0  0  0  0  0  1  0  0  0  0  0  0
  -27.5390  -32.0090   25.3400 C   0  0  0  0  0  1  0  0  0  0  0  0
  -30.2000  -18.3380   20.1860 C   0  0  0  0  0  2  0  0  0  0  0  0
  -30.1460  -16.9090   19.5420 C   0  0  0  0  0  2  0  0  0  0  0  0
  -31.3590  -14.7630   19.8730 C   0  0  0  0  0  0  0  0  0  0  0  0
  -31.0060  -12.5000   18.9470 C   0  0  0  0  0  2  0  0  0  0  0  0
  -29.9920  -12.5720   17.7860 C   0  0  0  0  0  2  0  0  0  0  0  0
  -28.5470  -12.4810   18.3150 C   0  0  0  0  0  2  0  0  0  0  0  0
  -28.2790  -13.4380   19.5060 C   0  0  0  0  0  3  0  0  0  0  0  0
  -29.3980  -13.3350   20.5670 C   0  0  0  0  0  2  0  0  0  0  0  0
  -30.6840  -13.5800   19.8940 N   0  0  0  0  0  0  0  0  0  0  0  0
  -32.4390  -14.9080   19.2970 O   0  0  0  0  0  0  0  0  0  0  0  0
  -30.7150  -15.8310   20.3840 N   0  0  0  0  0  0  0  0  0  0  0  0
  -31.1690  -16.1810   21.2150 H   0  0  0  0  0  0  0  0  0  0  0  0
  -26.0050  -14.1370   20.4800 C   0  0  0  0  0  0  0  0  0  0  0  0
  -24.9180  -13.4090   20.8850 C   0  0  0  0  0  0  0  0  0  0  0  0
  -25.2740  -12.0380   20.7020 C   0  0  0  0  0  0  0  0  0  0  0  0
  -26.9570  -13.2130   20.0830 N   0  0  0  0  0  0  0  0  0  0  0  0
  -26.5260  -11.9390   20.2740 N   0  0  0  0  0  0  0  0  0  0  0  0
  -24.4740  -10.8160   20.8550 C   0  0  0  0  0  0  0  0  0  0  0  0
  -24.8420   -9.8030   21.7660 C   0  0  0  0  0  3  0  0  0  0  0  0
  -24.0470   -8.6460   21.9110 C   0  0  0  0  0  3  0  0  0  0  0  0
  -22.8710   -8.4940   21.1410 C   0  0  0  0  0  0  0  0  0  0  0  0
  -22.5200   -9.4950   20.2190 C   0  0  0  0  0  3  0  0  0  0  0  0
  -23.3140  -10.6450   20.0720 C   0  0  0  0  0  3  0  0  0  0  0  0
  -22.0550   -7.3910   21.1930 O   0  0  0  0  0  0  0  0  0  0  0  0
  -21.8640   -6.6880   22.3560 C   0  0  0  0  0  0  0  0  0  0  0  0
  -21.3010   -7.2870   23.5040 C   0  0  0  0  0  3  0  0  0  0  0  0
  -21.0610   -6.5130   24.6560 C   0  0  0  0  0  3  0  0  0  0  0  0
  -21.3730   -5.1400   24.6610 C   0  0  0  0  0  0  0  0  0  0  0  0
  -21.9280   -4.5400   23.5160 C   0  0  0  0  0  3  0  0  0  0  0  0
  -22.1690   -5.3130   22.3670 C   0  0  0  0  0  0  0  0  0  0  0  0
  -22.6840   -4.7240   21.2600 F   0  0  0  0  0  0  0  0  0  0  0  0
  -21.1350   -4.3940   25.7650 F   0  0  0  0  0  0  0  0  0  0  0  0
  -23.5900  -13.9540   21.3230 C   0  0  0  0  0  0  0  0  0  0  0  0
  -22.8980  -13.2460   22.2090 N   0  0  0  0  0  0  0  0  0  0  0  0
  -23.1780  -15.0390   20.9160 O   0  0  0  0  0  0  0  0  0  0  0  0
  -23.2480  -12.3670   22.5630 H   0  0  0  0  0  0  0  0  0  0  0  0
  -22.0100  -13.5930   22.5420 H   0  0  0  0  0  0  0  0  0  0  0  0
  -26.2560  -15.5020   20.3920 N   0  0  0  0  0  0  0  0  0  0  0  0
  -25.5470  -16.1890   20.6160 H   0  0  0  0  0  0  0  0  0  0  0  0
  -27.0820  -15.8950   19.9650 H   0  0  0  0  0  0  0  0  0  0  0  0
  1  2  1  0
  3  1  1  0
  4  7  1  0
  4  2  1  0
  5  3  1  0
  5  4  1  0
  5 52  1  0
  5  6  1  6
  7  8  1  0
  9 10  1  0
  9  8  1  0
 11 13  1  0
 11 10  1  0
 12 23  2  0
 13 18  1  0
 14 22  1  0
 14 24  1  0
 15 21  1  0
 15 17  1  0
 16 22  1  0
 17 16  1  0
 18 17  2  0
 19 20  1  0
 19 13  2  0
 20 15  2  0
 21 14  1  0
 22 12  1  0
 24 26  2  0
 25 24  1  0
 27 25  1  0
 28 37  2  0
 28 33  1  0
 29 25  1  0
 29 33  1  0
 30 29  1  0
 31 32  1  0
 31 30  1  0
 32 28  1  0
 33 34  2  0
 34 35  1  0
 36 35  2  0
 37 36  1  0
 38 12  1  0
 38 39  1  0
 38 48  1  0
 39 42  1  0
 40 44  1  0
 40 39  1  0
 41 40  2  0
 44 43  1  0
 46 44  1  0
 46 47  1  0
 46 45  1  0
 48 51  1  1
 48 49  1  0
 50 48  1  0
 53 52  1  0
 53 62  1  0
 54 60  1  0
 54 62  1  0
 55 60  1  0
 56 57  1  0
 56 55  1  0
 58 57  1  0
 58 67  1  0
 58 59  1  0
 60 59  1  0
 61 54  2  0
 62 63  1  0
 64 65  2  0
 65 84  1  0
 66 69  1  0
 66 65  1  0
 67 68  1  0
 67 64  1  0
 68 66  2  0
 69 70  1  0
 70 71  2  0
 72 75  1  0
 72 71  1  0
 73 72  2  0
 74 73  1  0
 74 69  2  0
 75 76  1  0
 76 81  2  0
 76 77  1  0
 77 78  2  0
 78 79  1  0
 79 83  1  0
 80 79  2  0
 81 80  1  0
 82 81  1  0
 84 85  1  0
 85 88  1  0
 85 87  1  0
 86 84  2  0
 89 64  1  0
 89 90  1  0
 91 89  1  0
M  ISO  4  10 101  11 101  54 100  62 100
M  END
>  <TORSDO>  (93) 
F 22

>  <SCORE>  (93) 
-9.811

>  <name>  (93) 
92

>  <ligand_id>  (93) 
92

>  <original_smiles>  (93) 
[H]c1c([H])c([H])c2c(c1[H])C([H])([H])C([H])([H])C([H])([H])C2([H])N([H])C(=O)C1([H])N(C(=O)C([H])(N([H])C(=O)C([H])(N([H])C([H])([H])[H])C([H])([H])[H])C(C([H])([H])[H])(C([H])([H])[H])C([H])([H])[H])C([H])([H])c2c([H])c(OC([H])([H])C([H])([H])OC([H])([H])C3([H])C([H])([H])C([H])([H])C([H])([H])[N+]3([H])C([H])([H])C([H])([H])N([H])C(=O)N3C([H])([H])C([H])([H])C([H])([H])C([H])(n4nc(-c5c([H])c([H])c(Oc6c([H])c([H])c(F)c([H])c6F)c([H])c5[H])c(C(=O)N([H])[H])c4N([H])[H])C3([H])[H])c([H])c([H])c2C1([H])[H]

>  <smiles>  (93) 
[H]c1c([H])c([H])c2c(c1[H])C([H])([H])C([H])([H])C([H])([H])C2([H])N([H])C(=O)C1([H])N(C(=O)C([H])(N([H])C(=O)C([H])(N([H])C([H])([H])[H])C([H])([H])[H])C(C([H])([H])[H])(C([H])([H])[H])C([H])([H])[H])C([H])([H])c2c([H])c(OC([H])([H])C([H])([H])OC([H])([H])C3([H])C([H])([H])C([H])([H])C([H])([H])[N+]3([H])C([H])([H])C([H])([H])N([H])C(=O)N3C([H])([H])C([H])([H])C([H])([H])C([H])(n4nc(-c5c([H])c([H])c(Oc6c([H])c([H])c(F)c([H])c6F)c([H])c5[H])c(C(=O)N([H])[H])c4N([H])[H])C3([H])[H])c([H])c([H])c2C1([H])[H]

$$$$
93:0:0
     RDKit          3D

 89 97  0  0  1  0  0  0  0  0999 V2000
  -29.8430  -20.5380   19.2740 C   0  0  0  0  0  3  0  0  0  0  0  0
  -28.7770  -20.4840   21.4350 C   0  0  0  0  0  3  0  0  0  0  0  0
  -29.8400  -21.9640   19.3090 C   0  0  0  0  0  3  0  0  0  0  0  0
  -28.7750  -21.9080   21.4700 C   0  0  0  0  0  3  0  0  0  0  0  0
  -29.3040  -19.7600   20.3330 C   0  0  0  0  0  0  0  0  0  0  0  0
  -29.2970  -22.6850   20.4040 C   0  0  0  0  0  0  0  0  0  0  0  0
  -29.1290  -18.2050   20.2220 C   0  0  0  0  0  3  0  0  0  0  0  0
  -30.2040  -17.2120   20.8250 C   0  0  0  0  0  3  0  0  0  0  0  0
  -30.6120  -14.6630   20.4970 C   0  0  0  0  0  0  0  0  0  0  0  0
  -30.4050  -12.4250   19.4420 C   0  0  0  0  0  2  0  0  0  0  0  0
  -29.4950  -12.5470   18.2000 C   0  0  0  0  0  2  0  0  0  0  0  0
  -28.0120  -12.3960   18.5920 C   0  0  0  0  0  2  0  0  0  0  0  0
  -27.6260  -13.2670   19.8190 C   0  0  0  0  0  3  0  0  0  0  0  0
  -28.6560  -13.1280   20.9610 C   0  0  0  0  0  2  0  0  0  0  0  0
  -29.9750  -13.4560   20.4060 N   0  0  0  0  0  0  0  0  0  0  0  0
  -31.7910  -14.7960   20.1590 O   0  0  0  0  0  0  0  0  0  0  0  0
  -29.8330  -15.7500   20.7860 N   0  0  0  0  0  0  0  0  0  0  0  0
  -28.8730  -15.5330   21.0050 H   0  0  0  0  0  0  0  0  0  0  0  0
  -25.2140  -13.8700   20.4580 C   0  0  0  0  0  0  0  0  0  0  0  0
  -24.1400  -13.0990   20.8100 C   0  0  0  0  0  0  0  0  0  0  0  0
  -24.6070  -11.7490   20.8190 C   0  0  0  0  0  0  0  0  0  0  0  0
  -26.2670  -12.9890   20.2700 N   0  0  0  0  0  0  0  0  0  0  0  0
  -25.9060  -11.7080   20.5500 N   0  0  0  0  0  0  0  0  0  0  0  0
  -23.8780  -10.4880   21.0120 C   0  0  0  0  0  0  0  0  0  0  0  0
  -24.2980   -9.5340   21.9640 C   0  0  0  0  0  3  0  0  0  0  0  0
  -23.5690   -8.3370   22.1460 C   0  0  0  0  0  3  0  0  0  0  0  0
  -22.4100   -8.0890   21.3740 C   0  0  0  0  0  0  0  0  0  0  0  0
  -22.0100   -9.0340   20.4120 C   0  0  0  0  0  3  0  0  0  0  0  0
  -22.7360  -10.2210   20.2300 C   0  0  0  0  0  3  0  0  0  0  0  0
  -21.6550   -6.9450   21.4610 O   0  0  0  0  0  0  0  0  0  0  0  0
  -21.5960   -6.2080   22.6170 C   0  0  0  0  0  0  0  0  0  0  0  0
  -21.1580   -6.7690   23.8350 C   0  0  0  0  0  3  0  0  0  0  0  0
  -21.0470   -5.9610   24.9840 C   0  0  0  0  0  3  0  0  0  0  0  0
  -21.3630   -4.5890   24.9130 C   0  0  0  0  0  0  0  0  0  0  0  0
  -21.7930   -4.0280   23.6980 C   0  0  0  0  0  3  0  0  0  0  0  0
  -21.9070   -4.8340   22.5530 C   0  0  0  0  0  0  0  0  0  0  0  0
  -22.3020   -4.2830   21.3790 F   0  0  0  0  0  0  0  0  0  0  0  0
  -21.2490   -3.8090   26.0140 F   0  0  0  0  0  0  0  0  0  0  0  0
  -22.7350  -13.5780   21.0300 C   0  0  0  0  0  0  0  0  0  0  0  0
  -21.9870  -12.9000   21.8910 N   0  0  0  0  0  0  0  0  0  0  0  0
  -22.3090  -14.5890   20.4740 O   0  0  0  0  0  0  0  0  0  0  0  0
  -22.3450  -12.0800   22.3590 H   0  0  0  0  0  0  0  0  0  0  0  0
  -21.0430  -13.2050   22.0870 H   0  0  0  0  0  0  0  0  0  0  0  0
  -25.3750  -15.2370   20.2610 N   0  0  0  0  0  0  0  0  0  0  0  0
  -24.5900  -15.8760   20.3340 H   0  0  0  0  0  0  0  0  0  0  0  0
  -26.2150  -15.6800   19.9110 H   0  0  0  0  0  0  0  0  0  0  0  0
  -29.3970  -24.2460   20.4920 C   0  0  0  0  0  3  0  0  0  0  0  0
  -28.1770  -25.1270   20.0330 C   0  0  0  0  0  3  0  0  0  0  0  0
  -28.3520  -26.5820   20.1750 O   0  0  0  0  0  0  0  0  0  0  0  0
  -24.6280  -31.8930   23.2570 C   0  0  0  0  0  0  0  0  0  0  0  0
  -27.2120  -27.3910   20.1380 C   0  0  0  0  0  0  0  0  0  0  0  0
  -23.4030  -30.5080   21.6200 C   0  0  0  0  0  3  0  0  0  0  0  0
  -24.8360  -28.9720   20.1670 C   0  0  0  0  0  0  0  0  0  0  0  0
  -25.9350  -30.8420   21.4010 C   0  0  0  0  0  2  0  0  0  0  0  0
  -26.0090  -29.4690   20.7490 C   0  0  0  0  0  0  0  0  0  0  0  0
  -27.2000  -28.6910   20.7220 C   0  0  0  0  0  3  0  0  0  0  0  0
  -26.0150  -26.9370   19.5380 C   0  0  0  0  0  3  0  0  0  0  0  0
  -24.8390  -27.7100   19.5520 C   0  0  0  0  0  3  0  0  0  0  0  0
  -23.5990  -29.8420   20.2320 C   0  0  0  0  0  2  0  0  0  0  0  0
  -24.6750  -31.0960   22.1500 N   0  0  0  0  0  0  0  0  0  0  0  0
  -23.5510  -32.1650   23.8080 O   0  0  0  0  0  0  0  0  0  0  0  0
  -22.7520  -29.4830   22.5790 C   0  0  0  0  0  0  0  0  0  0  0  0
  -21.4260  -29.3010   22.4610 N   0  0  0  0  0  0  0  0  0  0  0  0
  -23.4390  -28.8560   23.3910 O   0  0  0  0  0  0  0  0  0  0  0  0
  -20.9310  -29.8630   21.7820 H   0  0  0  0  0  0  0  0  0  0  0  0
  -18.0560  -28.0870   22.9620 C   0  0  0  0  0  0  0  0  0  0  0  0
  -20.6130  -28.3600   23.2320 C   0  0  0  0  0  3  0  0  0  0  0  0
  -20.7230  -26.9280   22.6580 C   0  0  0  0  0  2  0  0  0  0  0  0
  -19.6220  -26.5990   21.6440 C   0  0  0  0  0  2  0  0  0  0  0  0
  -18.2400  -26.7380   22.2880 C   0  0  0  0  0  2  0  0  0  0  0  0
  -19.1720  -28.8550   23.3910 C   0  0  0  0  0  0  0  0  0  0  0  0
  -18.9470  -30.1180   23.9820 C   0  0  0  0  0  3  0  0  0  0  0  0
  -17.6400  -30.6120   24.1490 C   0  0  0  0  0  3  0  0  0  0  0  0
  -16.5390  -29.8420   23.7360 C   0  0  0  0  0  3  0  0  0  0  0  0
  -16.7480  -28.5810   23.1460 C   0  0  0  0  0  3  0  0  0  0  0  0
  -25.9190  -32.5170   23.8700 C   0  0  0  0  0  3  0  0  0  0  0  0
  -26.4440  -31.7370   25.1380 C   0  0  1  0  0  0  0  0  0  0  0  0
  -25.3620  -31.5020   26.2160 C   0  0  0  0  0  1  0  0  0  0  0  0
  -27.0180  -30.3590   24.7350 C   0  0  0  0  0  1  0  0  0  0  0  0
  -27.6030  -32.5250   25.7940 C   0  0  0  0  0  1  0  0  0  0  0  0
  -25.6160  -33.9150   24.2090 N   0  0  0  0  0  0  0  0  0  0  0  0
  -25.9310  -34.9700   23.4460 C   0  0  0  0  0  0  0  0  0  0  0  0
  -26.5790  -34.8670   22.4000 O   0  0  0  0  0  0  0  0  0  0  0  0
  -25.0350  -34.0670   25.0200 H   0  0  0  0  0  0  0  0  0  0  0  0
  -24.1870  -36.7590   23.1430 C   0  0  0  0  0  1  0  0  0  0  0  0
  -25.4540  -36.3570   23.9160 C   0  0  0  0  0  3  0  0  0  0  0  0
  -27.6100  -37.2500   24.6790 C   0  0  0  0  0  1  0  0  0  0  0  0
  -26.4790  -37.4130   23.7690 N   0  0  0  0  0  0  0  0  0  0  0  0
  -26.0750  -38.3320   23.9270 H   0  0  0  0  0  0  0  0  0  0  0  0
  1  3  2  0
  1  5  1  0
  2  4  1  0
  3  6  1  0
  5  2  2  0
  6 47  1  0
  6  4  2  0
  7  5  1  0
  7  8  2  0
  9 17  1  0
 10 15  1  0
 11 12  1  0
 11 10  1  0
 13 12  1  0
 13 22  1  0
 13 14  1  0
 15  9  1  0
 15 14  1  0
 16  9  2  0
 17  8  1  0
 17 18  1  0
 19 20  2  0
 20 21  1  0
 20 39  1  0
 21 24  1  0
 22 19  1  0
 22 23  1  0
 23 21  2  0
 24 25  1  0
 25 26  2  0
 27 30  1  0
 27 26  1  0
 28 27  2  0
 29 28  1  0
 29 24  2  0
 30 31  1  0
 31 32  1  0
 32 33  2  0
 34 33  1  0
 34 38  1  0
 35 34  2  0
 36 31  2  0
 36 35  1  0
 37 36  1  0
 39 40  1  0
 40 43  1  0
 40 42  1  0
 41 39  2  0
 44 45  1  0
 44 19  1  0
 46 44  1  0
 48 49  1  0
 48 47  2  0
 50 61  2  0
 51 49  1  0
 51 56  1  0
 52 60  1  0
 52 62  1  0
 53 59  1  0
 53 55  1  0
 54 60  1  0
 55 54  1  0
 56 55  2  0
 57 58  1  0
 57 51  2  0
 58 53  2  0
 59 52  1  0
 60 50  1  0
 62 64  2  0
 63 62  1  0
 65 63  1  0
 66 75  2  0
 66 71  1  0
 67 63  1  0
 67 71  1  0
 68 67  1  0
 69 70  1  0
 69 68  1  0
 70 66  1  0
 71 72  2  0
 72 73  1  0
 74 73  2  0
 75 74  1  0
 76 50  1  0
 76 81  1  0
 76 77  1  0
 77 80  1  1
 77 78  1  0
 79 77  1  0
 81 84  1  0
 82 86  1  0
 82 81  1  0
 83 82  2  0
 86 85  1  0
 88 86  1  0
 88 89  1  0
 88 87  1  0
M  ISO  4   9 100  17 100  48 101  49 101
M  END
>  <TORSDO>  (94) 
F 20

>  <SCORE>  (94) 
-13.487

>  <name>  (94) 
93

>  <ligand_id>  (94) 
93

>  <original_smiles>  (94) 
[H]c1c([H])c([H])c2c(c1[H])C([H])([H])C([H])([H])C([H])([H])C2([H])N([H])C(=O)C1([H])N(C(=O)C([H])(N([H])C(=O)C([H])(N([H])C([H])([H])[H])C([H])([H])[H])C(C([H])([H])[H])(C([H])([H])[H])C([H])([H])[H])C([H])([H])c2c([H])c(OC([H])([H])C([H])([H])c3c([H])c([H])c(C([H])([H])C([H])([H])N([H])C(=O)N4C([H])([H])C([H])([H])C([H])([H])C([H])(n5nc(-c6c([H])c([H])c(Oc7c([H])c([H])c(F)c([H])c7F)c([H])c6[H])c(C(=O)N([H])[H])c5N([H])[H])C4([H])[H])c([H])c3[H])c([H])c([H])c2C1([H])[H]

>  <smiles>  (94) 
[H]c1c([H])c([H])c2c(c1[H])C([H])([H])C([H])([H])C([H])([H])C2([H])N([H])C(=O)C1([H])N(C(=O)C([H])(N([H])C(=O)C([H])(N([H])C([H])([H])[H])C([H])([H])[H])C(C([H])([H])[H])(C([H])([H])[H])C([H])([H])[H])C([H])([H])c2c([H])c(OC([H])([H])C([H])([H])c3c([H])c([H])c(C([H])([H])C([H])([H])N([H])C(=O)N4C([H])([H])C([H])([H])C([H])([H])C([H])(n5nc(-c6c([H])c([H])c(Oc7c([H])c([H])c(F)c([H])c7F)c([H])c6[H])c(C(=O)N([H])[H])c5N([H])[H])C4([H])[H])c([H])c3[H])c([H])c([H])c2C1([H])[H]

$$$$
94:0:0
     RDKit          3D

 98107  0  0  1  0  0  0  0  0999 V2000
  -29.0490  -19.1250   21.0320 C   0  0  0  0  0  3  0  0  0  0  0  0
  -30.2580  -21.5640   21.6890 C   0  0  0  0  0  3  0  0  0  0  0  0
  -30.3970  -19.1310   21.4560 C   0  0  0  0  0  0  0  0  0  0  0  0
  -28.3170  -20.3240   20.8900 C   0  0  0  0  0  0  0  0  0  0  0  0
  -30.9910  -20.3660   21.8280 C   0  0  0  0  0  0  0  0  0  0  0  0
  -28.9440  -21.5630   21.1770 C   0  0  0  0  0  0  0  0  0  0  0  0
  -26.8850  -20.2510   20.3850 C   0  0  0  0  0  1  0  0  0  0  0  0
  -32.4310  -20.4530   22.3100 C   0  0  0  0  0  1  0  0  0  0  0  0
  -31.6500  -14.4650   18.8180 C   0  0  0  0  0  0  0  0  0  0  0  0
  -30.8840  -12.2820   17.9700 C   0  0  0  0  0  2  0  0  0  0  0  0
  -29.6900  -12.4060   17.0040 C   0  0  0  0  0  2  0  0  0  0  0  0
  -28.3750  -12.3020   17.7900 C   0  0  0  0  0  2  0  0  0  0  0  0
  -28.3470  -13.2740   18.9910 C   0  0  0  0  0  3  0  0  0  0  0  0
  -29.6400  -13.2200   19.8260 C   0  0  0  0  0  2  0  0  0  0  0  0
  -30.8340  -13.3740   18.9710 N   0  0  0  0  0  0  0  0  0  0  0  0
  -32.2900  -14.5970   17.7690 O   0  0  0  0  0  0  0  0  0  0  0  0
  -30.5510  -16.5090   21.6000 C   0  0  0  0  0  2  0  0  0  0  0  0
  -31.8110  -17.8730   19.8690 C   0  0  0  0  0  2  0  0  0  0  0  0
  -31.5100  -15.3400   21.2510 C   0  0  0  0  0  2  0  0  0  0  0  0
  -31.2450  -17.8620   21.2980 C   0  0  0  0  0  3  0  0  0  0  0  0
  -32.6240  -16.6240   19.5080 C   0  0  0  0  0  3  0  0  0  0  0  0
  -34.0580  -16.6070   20.0790 C   0  0  0  0  0  1  0  0  0  0  0  0
  -31.8480  -15.3890   19.8130 N   0  0  0  0  0  0  0  0  0  0  0  0
  -26.4740  -13.9560   20.6210 C   0  0  0  0  0  0  0  0  0  0  0  0
  -25.4300  -13.2560   21.1620 C   0  0  0  0  0  0  0  0  0  0  0  0
  -25.5560  -11.9190   20.6730 C   0  0  0  0  0  0  0  0  0  0  0  0
  -27.1750  -13.0520   19.8400 N   0  0  0  0  0  0  0  0  0  0  0  0
  -26.6470  -11.8040   19.9260 N   0  0  0  0  0  0  0  0  0  0  0  0
  -24.6670  -10.7600   20.8220 C   0  0  0  0  0  0  0  0  0  0  0  0
  -25.0610   -9.6100   21.5420 C   0  0  0  0  0  3  0  0  0  0  0  0
  -24.1800   -8.5170   21.6830 C   0  0  0  0  0  3  0  0  0  0  0  0
  -22.8890   -8.5650   21.1060 C   0  0  0  0  0  0  0  0  0  0  0  0
  -22.5100   -9.7030   20.3710 C   0  0  0  0  0  3  0  0  0  0  0  0
  -23.3900  -10.7870   20.2260 C   0  0  0  0  0  3  0  0  0  0  0  0
  -21.9750   -7.5410   21.1700 O   0  0  0  0  0  0  0  0  0  0  0  0
  -21.8130   -6.7900   22.3070 C   0  0  0  0  0  0  0  0  0  0  0  0
  -21.4440   -7.3750   23.5380 C   0  0  0  0  0  3  0  0  0  0  0  0
  -21.2190   -6.5610   24.6660 C   0  0  0  0  0  3  0  0  0  0  0  0
  -21.3540   -5.1630   24.5630 C   0  0  0  0  0  0  0  0  0  0  0  0
  -21.7160   -4.5780   23.3360 C   0  0  0  0  0  3  0  0  0  0  0  0
  -21.9420   -5.3900   22.2110 C   0  0  0  0  0  0  0  0  0  0  0  0
  -22.2700   -4.8200   21.0270 F   0  0  0  0  0  0  0  0  0  0  0  0
  -21.1300   -4.3780   25.6440 F   0  0  0  0  0  0  0  0  0  0  0  0
  -24.3210  -13.8130   22.0060 C   0  0  0  0  0  0  0  0  0  0  0  0
  -23.7740  -13.0080   22.9120 N   0  0  0  0  0  0  0  0  0  0  0  0
  -23.9640  -14.9850   21.8980 O   0  0  0  0  0  0  0  0  0  0  0  0
  -24.0810  -12.0530   23.0140 H   0  0  0  0  0  0  0  0  0  0  0  0
  -23.0390  -13.3550   23.5130 H   0  0  0  0  0  0  0  0  0  0  0  0
  -26.8750  -15.2860   20.7090 N   0  0  0  0  0  0  0  0  0  0  0  0
  -26.3470  -15.9780   21.2290 H   0  0  0  0  0  0  0  0  0  0  0  0
  -27.6610  -15.6800   20.2090 H   0  0  0  0  0  0  0  0  0  0  0  0
  -28.2750  -22.9040   20.8880 C   0  0  0  0  0  2  0  0  0  0  0  0
  -28.7610  -23.4400   19.5970 N   0  0  0  0  0  4  0  0  0  0  0  0
  -28.4410  -22.8240   18.8680 H   0  0  0  0  0  0  0  0  0  0  0  0
  -29.7670  -23.3900   19.6110 H   0  0  0  0  0  0  0  0  0  0  0  0
  -28.3510  -24.8370   19.2990 C   0  0  0  0  0  2  0  0  0  0  0  0
  -28.7400  -25.2760   17.8660 C   0  0  0  0  0  2  0  0  0  0  0  0
  -28.5700  -26.6830   17.6570 O   0  0  0  0  0  0  0  0  0  0  0  0
  -24.8010  -30.5050   22.2790 C   0  0  0  0  0  0  0  0  0  0  0  0
  -27.3430  -27.2520   17.9170 C   0  0  0  0  0  0  0  0  0  0  0  0
  -23.5010  -29.4590   20.4530 C   0  0  0  0  0  3  0  0  0  0  0  0
  -24.8720  -28.4710   18.5440 C   0  0  0  0  0  0  0  0  0  0  0  0
  -25.9560  -30.0910   20.1110 C   0  0  0  0  0  2  0  0  0  0  0  0
  -26.0520  -28.9410   19.1320 C   0  0  0  0  0  0  0  0  0  0  0  0
  -27.2900  -28.3410   18.8140 C   0  0  0  0  0  3  0  0  0  0  0  0
  -26.1440  -26.7950   17.3230 C   0  0  0  0  0  3  0  0  0  0  0  0
  -24.9110  -27.3980   17.6370 C   0  0  0  0  0  3  0  0  0  0  0  0
  -23.5890  -29.1700   18.9300 C   0  0  0  0  0  2  0  0  0  0  0  0
  -24.7770  -30.0190   21.0070 N   0  0  0  0  0  0  0  0  0  0  0  0
  -23.7750  -30.5330   22.9730 O   0  0  0  0  0  0  0  0  0  0  0  0
  -23.0350  -28.1720   21.1720 C   0  0  0  0  0  0  0  0  0  0  0  0
  -21.7210  -27.8990   21.1130 N   0  0  0  0  0  0  0  0  0  0  0  0
  -23.8460  -27.4340   21.7350 O   0  0  0  0  0  0  0  0  0  0  0  0
  -21.1220  -28.5590   20.6370 H   0  0  0  0  0  0  0  0  0  0  0  0
  -18.5150  -26.2920   21.5460 C   0  0  0  0  0  0  0  0  0  0  0  0
  -21.0590  -26.7270   21.6840 C   0  0  0  0  0  3  0  0  0  0  0  0
  -21.2160  -25.4960   20.7620 C   0  0  0  0  0  2  0  0  0  0  0  0
  -20.0510  -25.3220   19.7830 C   0  0  0  0  0  2  0  0  0  0  0  0
  -18.7300  -25.1700   20.5450 C   0  0  0  0  0  2  0  0  0  0  0  0
  -19.6080  -27.0340   22.0690 C   0  0  0  0  0  0  0  0  0  0  0  0
  -19.3500  -28.0910   22.9690 C   0  0  0  0  0  3  0  0  0  0  0  0
  -18.0330  -28.4070   23.3510 C   0  0  0  0  0  3  0  0  0  0  0  0
  -16.9570  -27.6590   22.8450 C   0  0  0  0  0  3  0  0  0  0  0  0
  -17.1980  -26.6030   21.9480 C   0  0  0  0  0  3  0  0  0  0  0  0
  -26.1080  -31.0720   22.9150 C   0  0  0  0  0  3  0  0  0  0  0  0
  -26.8250  -30.0510   23.8810 C   0  0  1  0  0  0  0  0  0  0  0  0
  -25.8890  -29.4530   24.9580 C   0  0  0  0  0  1  0  0  0  0  0  0
  -27.4320  -28.8780   23.0780 C   0  0  0  0  0  1  0  0  0  0  0  0
  -28.0000  -30.7500   24.6040 C   0  0  0  0  0  1  0  0  0  0  0  0
  -25.7530  -32.3050   23.6310 N   0  0  0  0  0  0  0  0  0  0  0  0
  -25.9950  -33.5420   23.1780 C   0  0  0  0  0  0  0  0  0  0  0  0
  -26.6140  -33.7650   22.1330 O   0  0  0  0  0  0  0  0  0  0  0  0
  -25.1930  -32.1990   24.4640 H   0  0  0  0  0  0  0  0  0  0  0  0
  -24.1830  -35.2730   23.3800 C   0  0  0  0  0  1  0  0  0  0  0  0
  -25.4670  -34.7210   24.0180 C   0  0  0  0  0  3  0  0  0  0  0  0
  -27.5900  -35.4410   25.0180 C   0  0  0  0  0  1  0  0  0  0  0  0
  -26.4510  -35.8130   24.1840 N   0  0  0  0  0  0  0  0  0  0  0  0
  -26.0130  -36.6340   24.5930 H   0  0  0  0  0  0  0  0  0  0  0  0
  1  3  1  0
  2  5  1  0
  3  5  2  0
  4  1  2  0
  4  6  1  0
  5  8  1  0
  6  2  2  0
  7  4  1  0
  9 15  1  0
  9 23  1  0
 10 15  1  0
 11 12  1  0
 11 10  1  0
 13 12  1  0
 13 14  1  0
 13 27  1  0
 15 14  1  0
 16  9  2  0
 18 20  1  0
 19 17  1  0
 20  3  1  0
 20 17  1  0
 21 23  1  0
 21 18  1  0
 21 22  1  0
 23 19  1  0
 24 49  1  0
 24 25  2  0
 25 44  1  0
 26 29  1  0
 26 25  1  0
 27 28  1  0
 27 24  1  0
 28 26  2  0
 29 30  1  0
 30 31  2  0
 32 35  1  0
 32 31  1  0
 33 32  2  0
 34 33  1  0
 34 29  2  0
 35 36  1  0
 36 37  1  0
 37 38  2  0
 39 38  1  0
 39 43  1  0
 40 39  2  0
 41 36  2  0
 41 40  1  0
 42 41  1  0
 44 45  1  0
 45 47  1  0
 45 48  1  0
 46 44  2  0
 49 50  1  0
 51 49  1  0
 52  6  1  0
 53 55  1  0
 53 52  1  0
 54 53  1  0
 56 53  1  0
 57 56  1  0
 58 57  1  0
 58 60  1  0
 59 70  2  0
 60 65  1  0
 61 69  1  0
 61 71  1  0
 62 68  1  0
 62 64  1  0
 63 69  1  0
 64 63  1  0
 65 64  2  0
 66 67  1  0
 66 60  2  0
 67 62  2  0
 68 61  1  0
 69 59  1  0
 71 73  2  0
 72 71  1  0
 74 72  1  0
 75 84  2  0
 75 80  1  0
 76 72  1  0
 76 80  1  0
 77 76  1  0
 78 79  1  0
 78 77  1  0
 79 75  1  0
 80 81  2  0
 81 82  1  0
 83 82  2  0
 84 83  1  0
 85 59  1  0
 85 90  1  0
 85 86  1  0
 86 89  1  1
 86 87  1  0
 88 86  1  0
 90 93  1  0
 91 90  1  0
 91 95  1  0
 92 91  2  0
 95 94  1  0
 95 97  1  0
 97 98  1  0
 97 96  1  0
M  ISO  4   9 100  23 100  57 101  58 101
M  END
>  <TORSDO>  (95) 
F 20

>  <SCORE>  (95) 
-4.793

>  <name>  (95) 
94

>  <ligand_id>  (95) 
94

>  <original_smiles>  (95) 
[H]c1c([H])c([H])c2c(c1[H])C([H])([H])C([H])([H])C([H])([H])C2([H])N([H])C(=O)C1([H])N(C(=O)C([H])(N([H])C(=O)C([H])(N([H])C([H])([H])[H])C([H])([H])[H])C(C([H])([H])[H])(C([H])([H])[H])C([H])([H])[H])C([H])([H])c2c([H])c(OC([H])([H])C([H])([H])[N+]([H])([H])C([H])([H])c3c([H])c(C([H])([H])[H])c(C4([H])C([H])([H])C([H])([H])N(C(=O)N5C([H])([H])C([H])([H])C([H])([H])C([H])(n6nc(-c7c([H])c([H])c(Oc8c([H])c([H])c(F)c([H])c8F)c([H])c7[H])c(C(=O)N([H])[H])c6N([H])[H])C5([H])[H])C([H])(C([H])([H])[H])C4([H])[H])c([H])c3C([H])([H])[H])c([H])c([H])c2C1([H])[H]

>  <smiles>  (95) 
[H]c1c([H])c([H])c2c(c1[H])C([H])([H])C([H])([H])C([H])([H])C2([H])N([H])C(=O)C1([H])N(C(=O)C([H])(N([H])C(=O)C([H])(N([H])C([H])([H])[H])C([H])([H])[H])C(C([H])([H])[H])(C([H])([H])[H])C([H])([H])[H])C([H])([H])c2c([H])c(OC([H])([H])C([H])([H])[N+]([H])([H])C([H])([H])c3c([H])c(C([H])([H])[H])c(C4([H])C([H])([H])C([H])([H])N(C(=O)N5C([H])([H])C([H])([H])C([H])([H])C([H])(n6nc(-c7c([H])c([H])c(Oc8c([H])c([H])c(F)c([H])c8F)c([H])c7[H])c(C(=O)N([H])[H])c6N([H])[H])C5([H])[H])C([H])(C([H])([H])[H])C4([H])[H])c([H])c3C([H])([H])[H])c([H])c([H])c2C1([H])[H]

$$$$
95:0:0
     RDKit          3D

 97102  0  0  1  0  0  0  0  0999 V2000
  -27.5060  -21.4340   17.1610 C   0  0  0  0  0  3  0  0  0  0  0  0
  -27.5370  -19.9510   17.2310 C   0  0  0  0  0  3  0  0  0  0  0  0
  -26.1440  -21.4360   18.9640 C   0  0  0  0  0  3  0  0  0  0  0  0
  -26.9760  -22.3680   18.1430 C   0  0  0  0  0  0  0  0  0  0  0  0
  -26.9540  -18.9780   18.1460 C   0  0  0  0  0  0  0  0  0  0  0  0
  -26.0710  -19.9030   18.9120 C   0  0  0  0  0  0  0  0  0  0  0  0
  -24.7140  -19.3690   19.4380 C   0  0  0  0  0  1  0  0  0  0  0  0
  -26.9870  -17.2010   17.8360 C   0  0  0  0  0  2  0  0  0  0  0  0
  -27.5300  -15.4990   18.4450 C   0  0  0  0  0  2  0  0  0  0  0  0
  -28.4040  -13.8140   18.0560 C   0  0  0  0  0  2  0  0  0  0  0  0
  -28.6020  -12.0760   18.5480 N   0  0  0  0  0  4  0  0  0  0  0  0
  -27.9260  -12.0770   19.2980 H   0  0  0  0  0  0  0  0  0  0  0  0
  -28.1540  -11.4920   17.8430 H   0  0  0  0  0  0  0  0  0  0  0  0
  -33.8950  -12.5590   21.1220 C   0  0  2  0  0  0  0  0  0  0  0  0
  -33.7650  -11.5530   18.6610 C   0  0  0  0  0  2  0  0  0  0  0  0
  -32.7300  -12.7260   17.6730 C   0  0  0  0  0  2  0  0  0  0  0  0
  -31.0770  -13.5490   18.3120 C   0  0  0  0  0  1  0  0  0  0  0  0
  -30.5130  -12.9800   20.1720 C   0  0  0  0  0  1  0  0  0  0  0  0
  -32.3620  -11.1320   20.6520 C   0  0  0  0  0  1  0  0  0  0  0  0
  -33.6800  -11.4300   20.2890 N   0  0  0  0  0  0  0  0  0  0  0  0
  -34.9550  -13.2120   20.9880 O   0  0  0  0  0  1  0  0  0  0  0  0
  -31.1930  -11.3090   18.7290 C   0  0  0  0  0  1  0  0  0  0  0  0
  -30.1700  -10.8240   21.4190 C   0  0  0  0  0 15  0  0  0  0  0  0
  -32.6780  -13.3610   19.9810 C   0  0  0  0  0  2  0  0  0  0  0  0
  -31.2320  -12.2590   22.3930 C   0  0  0  0  0  1  0  0  0  0  0  0
  -29.7170  -10.9210   19.4140 C   0  0  0  0  0  2  0  0  0  0  0  0
  -32.6670  -13.1350   21.5860 N   0  0  0  0  0  0  0  0  0  0  0  0
  -28.2280  -14.1330   21.0890 C   0  0  0  0  0  0  0  0  0  0  0  0
  -26.9420  -13.5970   21.1350 C   0  0  0  0  0  0  0  0  0  0  0  0
  -27.0230  -12.1870   21.1530 C   0  0  0  0  0  0  0  0  0  0  0  0
  -29.0530  -13.0950   20.8050 N   0  0  0  0  0  0  0  0  0  0  0  0
  -28.2170  -12.0530   21.0720 N   0  0  0  0  0  0  0  0  0  0  0  0
  -26.2600  -10.8880   21.2680 C   0  0  0  0  0  0  0  0  0  0  0  0
  -26.3660  -10.0050   22.4090 C   0  0  0  0  0  3  0  0  0  0  0  0
  -25.5210   -8.8730   22.5170 C   0  0  0  0  0  3  0  0  0  0  0  0
  -24.5500   -8.6240   21.5090 C   0  0  0  0  0  0  0  0  0  0  0  0
  -24.4910   -9.4800   20.4010 C   0  0  0  0  0  3  0  0  0  0  0  0
  -25.3620  -10.5460   20.2520 C   0  0  0  0  0  3  0  0  0  0  0  0
  -23.6430   -7.5970   21.5330 O   0  0  0  0  0  0  0  0  0  0  0  0
  -22.7470   -7.4370   22.5570 C   0  0  0  0  0  0  0  0  0  0  0  0
  -21.8390   -8.4510   22.9270 C   0  0  0  0  0  3  0  0  0  0  0  0
  -20.9040   -8.2050   23.9430 C   0  0  0  0  0  3  0  0  0  0  0  0
  -20.8610   -6.9450   24.5820 C   0  0  0  0  0  0  0  0  0  0  0  0
  -21.7670   -5.9410   24.1990 C   0  0  0  0  0  3  0  0  0  0  0  0
  -22.6980   -6.1780   23.1870 C   0  0  0  0  0  0  0  0  0  0  0  0
  -23.5540   -5.1980   22.8020 F   0  0  0  0  0  0  0  0  0  0  0  0
  -19.9630   -6.7090   25.5640 F   0  0  0  0  0  0  0  0  0  0  0  0
  -25.6600  -14.2830   21.2130 C   0  0  0  0  0  0  0  0  0  0  0  0
  -24.8370  -13.6210   21.9960 N   0  0  0  0  0  0  0  0  0  0  0  0
  -25.3720  -15.3200   20.6470 O   0  0  0  0  0  0  0  0  0  0  0  0
  -23.9110  -13.9780   22.1830 H   0  0  0  0  0  0  0  0  0  0  0  0
  -25.1860  -12.7680   22.3810 H   0  0  0  0  0  0  0  0  0  0  0  0
  -28.7850  -15.3880   21.1750 N   0  0  0  0  0  0  0  0  0  0  0  0
  -28.2340  -16.2290   21.3180 H   0  0  0  0  0  0  0  0  0  0  0  0
  -29.7210  -15.6550   20.9280 H   0  0  0  0  0  0  0  0  0  0  0  0
  -26.8420  -24.1530   17.9700 C   0  0  0  0  0  2  0  0  0  0  0  0
  -27.7490  -25.6300   18.0970 O   0  0  0  0  0  0  0  0  0  0  0  0
  -24.6660  -30.7760   22.6670 C   0  0  0  0  0  0  0  0  0  0  0  0
  -27.0350  -26.8870   18.3590 C   0  0  0  0  0  0  0  0  0  0  0  0
  -23.4470  -29.3990   21.0600 C   0  0  0  0  0  3  0  0  0  0  0  0
  -24.7500  -28.4720   19.0720 C   0  0  0  0  0  0  0  0  0  0  0  0
  -25.8770  -30.1080   20.5260 C   0  0  0  0  0  2  0  0  0  0  0  0
  -25.9780  -28.8830   19.5880 C   0  0  0  0  0  0  0  0  0  0  0  0
  -27.1610  -28.0630   19.2590 C   0  0  0  0  0  3  0  0  0  0  0  0
  -25.8420  -26.8530   17.6440 C   0  0  0  0  0  3  0  0  0  0  0  0
  -24.7100  -27.5200   18.0680 C   0  0  0  0  0  3  0  0  0  0  0  0
  -23.4590  -29.0950   19.5500 C   0  0  0  0  0  2  0  0  0  0  0  0
  -24.6890  -30.1310   21.4580 N   0  0  0  0  0  0  0  0  0  0  0  0
  -23.6740  -30.7310   23.4110 O   0  0  0  0  0  0  0  0  0  0  0  0
  -23.2220  -28.1100   21.8930 C   0  0  0  0  0  0  0  0  0  0  0  0
  -22.0400  -27.4780   21.7540 N   0  0  0  0  0  0  0  0  0  0  0  0
  -24.1110  -27.6980   22.6440 O   0  0  0  0  0  0  0  0  0  0  0  0
  -21.3590  -27.8860   21.1260 H   0  0  0  0  0  0  0  0  0  0  0  0
  -19.5530  -24.8390   21.8240 C   0  0  0  0  0  0  0  0  0  0  0  0
  -21.6420  -26.2410   22.4340 C   0  0  0  0  0  3  0  0  0  0  0  0
  -22.4690  -25.0340   21.9310 C   0  0  0  0  0  2  0  0  0  0  0  0
  -21.7900  -24.2740   20.7860 C   0  0  0  0  0  2  0  0  0  0  0  0
  -20.4230  -23.7470   21.2250 C   0  0  0  0  0  2  0  0  0  0  0  0
  -20.1240  -26.0160   22.3790 C   0  0  0  0  0  0  0  0  0  0  0  0
  -19.2690  -27.0160   22.8960 C   0  0  0  0  0  3  0  0  0  0  0  0
  -17.8710  -26.8500   22.8730 C   0  0  0  0  0  3  0  0  0  0  0  0
  -17.3110  -25.6780   22.3390 C   0  0  0  0  0  3  0  0  0  0  0  0
  -18.1510  -24.6760   21.8220 C   0  0  0  0  0  3  0  0  0  0  0  0
  -25.8770  -31.6230   23.1560 C   0  0  0  0  0  3  0  0  0  0  0  0
  -25.3320  -32.8570   23.7570 N   0  0  0  0  0  0  0  0  0  0  0  0
  -25.6360  -34.1060   23.3820 C   0  0  0  0  0  0  0  0  0  0  0  0
  -26.4710  -34.3530   22.5090 O   0  0  0  0  0  0  0  0  0  0  0  0
  -24.6000  -32.7300   24.4380 H   0  0  0  0  0  0  0  0  0  0  0  0
  -23.8940  -35.9120   23.1300 C   0  0  0  0  0  1  0  0  0  0  0  0
  -24.9080  -35.2660   24.0890 C   0  0  0  0  0  3  0  0  0  0  0  0
  -26.6850  -35.8310   25.6900 C   0  0  0  0  0  1  0  0  0  0  0  0
  -25.8180  -36.3080   24.6160 N   0  0  0  0  0  0  0  0  0  0  0  0
  -25.2920  -37.1040   24.9630 H   0  0  0  0  0  0  0  0  0  0  0  0
  -26.7730  -30.8650   24.2130 C   0  0  1  0  0  0  0  0  0  0  0  0
  -25.9710  -30.2580   25.3880 C   0  0  0  0  0  1  0  0  0  0  0  0
  -27.5730  -29.7200   23.5570 C   0  0  0  0  0  1  0  0  0  0  0  0
  -27.8150  -31.8450   24.7990 C   0  0  0  0  0  1  0  0  0  0  0  0
  1  2  2  0
  1  4  1  0
  2  5  1  0
  4  3  2  0
  5  6  2  0
  6  3  1  0
  6  7  1  0
  8  5  1  0
  8  9  1  0
 10  9  1  0
 10 11  1  0
 11 12  1  0
 11 26  1  0
 13 11  1  0
 14 21  1  6
 14 27  1  0
 15 20  1  0
 16 17  1  0
 16 15  1  0
 18 31  1  0
 20 19  1  0
 20 14  1  0
 22 26  1  0
 24 14  1  0
 24 27  1  0
 27 25  1  0
 28 29  2  0
 28 53  1  0
 29 30  1  0
 29 48  1  0
 30 33  1  0
 31 32  1  0
 31 28  1  0
 32 30  2  0
 33 34  1  0
 34 35  2  0
 36 39  1  0
 36 35  1  0
 37 36  2  0
 38 37  1  0
 38 33  2  0
 39 40  1  0
 40 41  2  0
 40 45  1  0
 41 42  1  0
 42 43  2  0
 43 47  1  0
 44 43  1  0
 45 44  2  0
 46 45  1  0
 48 49  1  0
 49 51  1  0
 49 52  1  0
 50 48  2  0
 53 54  1  0
 55 53  1  0
 56 57  1  0
 56  4  1  0
 57 59  1  0
 58 69  2  0
 59 64  1  0
 60 68  1  0
 60 70  1  0
 61 67  1  0
 61 63  1  0
 62 68  1  0
 63 62  1  0
 64 63  2  0
 65 66  1  0
 65 59  2  0
 66 61  2  0
 67 60  1  0
 68 58  1  0
 70 72  2  0
 71 70  1  0
 73 71  1  0
 74 79  1  0
 75 71  1  0
 76 75  1  0
 77 78  1  0
 77 76  1  0
 78 74  1  0
 79 75  1  0
 79 80  2  0
 81 80  1  0
 82 81  2  0
 83 74  2  0
 83 82  1  0
 84 58  1  0
 84 85  1  0
 84 94  1  0
 85 88  1  0
 86 85  1  0
 86 90  1  0
 87 86  2  0
 90 89  1  0
 90 92  1  0
 92 93  1  0
 92 91  1  0
 94 97  1  1
 94 95  1  0
 96 94  1  0
M  ISO  4  14 100  27 100  56 101  57 101
M  END
>  <TORSDO>  (96) 
F 21

>  <SCORE>  (96) 
-3.124

>  <name>  (96) 
95

>  <ligand_id>  (96) 
95

>  <original_smiles>  (96) 
[H]c1c([H])c([H])c2c(c1[H])C([H])([H])C([H])([H])C([H])([H])C2([H])N([H])C(=O)C1([H])N(C(=O)C([H])(N([H])C(=O)C([H])(N([H])C([H])([H])[H])C([H])([H])[H])C(C([H])([H])[H])(C([H])([H])[H])C([H])([H])[H])C([H])([H])c2c([H])c(OC([H])([H])c3c([H])c([H])c(C([H])([H])C([H])([H])C([H])([H])[N+]([H])([H])C4([H])C([H])([H])C([H])([H])N(C(=O)N5C([H])([H])C([H])([H])C([H])([H])C([H])(n6nc(-c7c([H])c([H])c(Oc8c([H])c([H])c(F)c([H])c8F)c([H])c7[H])c(C(=O)N([H])[H])c6N([H])[H])C5([H])[H])C([H])([H])C4([H])[H])c(C([H])([H])[H])c3[H])c([H])c([H])c2C1([H])[H]

>  <smiles>  (96) 
[H]c1c([H])c([H])c2c(c1[H])C([H])([H])C([H])([H])C([H])([H])C2([H])N([H])C(=O)C1([H])N(C(=O)C([H])(N([H])C(=O)C([H])(N([H])C([H])([H])[H])C([H])([H])[H])C(C([H])([H])[H])(C([H])([H])[H])C([H])([H])[H])C([H])([H])c2c([H])c(OC([H])([H])c3c([H])c([H])c(C([H])([H])C([H])([H])C([H])([H])[N+]([H])([H])C4([H])C([H])([H])C([H])([H])N(C(=O)N5C([H])([H])C([H])([H])C([H])([H])C([H])(n6nc(-c7c([H])c([H])c(Oc8c([H])c([H])c(F)c([H])c8F)c([H])c7[H])c(C(=O)N([H])[H])c6N([H])[H])C5([H])[H])C([H])([H])C4([H])[H])c(C([H])([H])[H])c3[H])c([H])c([H])c2C1([H])[H]

$$$$
