0:0:0
     RDKit          3D

 88 96  0  0  1  0  0  0  0  0999 V2000
  -27.7360  -23.4720   21.1070 C   0  0  0  0  0  2  0  0  0  0  0  0
  -28.1420  -24.3790   19.9550 C   0  0  0  0  0  3  0  0  0  0  0  0
  -29.0060  -22.9350   20.4550 C   0  0  1  0  0  0  0  0  0  0  0  0
  -30.9870  -22.3810   22.0380 C   0  0  0  0  0  1  0  0  0  0  0  0
  -31.3880  -23.6260   19.8580 C   0  0  0  0  0  1  0  0  0  0  0  0
  -30.3890  -23.3350   20.9920 C   0  0  0  0  0  3  0  0  0  0  0  0
  -28.2450  -25.9670   20.3110 O   0  0  0  0  0  0  0  0  0  0  0  0
  -24.6250  -31.8720   23.1940 C   0  0  0  0  0  0  0  0  0  0  0  0
  -27.2070  -27.0210   20.2130 C   0  0  0  0  0  0  0  0  0  0  0  0
  -23.4370  -30.4700   21.5520 C   0  0  0  0  0  3  0  0  0  0  0  0
  -24.8950  -28.8650   20.1420 C   0  0  0  0  0  0  0  0  0  0  0  0
  -26.0010  -30.6910   21.4200 C   0  0  0  0  0  2  0  0  0  0  0  0
  -26.0740  -29.2830   20.7710 C   0  0  0  0  0  0  0  0  0  0  0  0
  -27.2230  -28.3800   20.7840 C   0  0  0  0  0  3  0  0  0  0  0  0
  -25.9950  -26.7370   19.5410 C   0  0  0  0  0  3  0  0  0  0  0  0
  -24.8750  -27.6090   19.5100 C   0  0  0  0  0  3  0  0  0  0  0  0
  -23.6760  -29.7820   20.1790 C   0  0  0  0  0  2  0  0  0  0  0  0
  -24.7080  -31.0370   22.1090 N   0  0  0  0  0  0  0  0  0  0  0  0
  -23.5320  -32.1680   23.7060 O   0  0  0  0  0  0  0  0  0  0  0  0
  -22.7390  -29.4780   22.5180 C   0  0  0  0  0  0  0  0  0  0  0  0
  -21.4070  -29.3240   22.3930 N   0  0  0  0  0  0  0  0  0  0  0  0
  -23.3990  -28.8460   23.3450 O   0  0  0  0  0  0  0  0  0  0  0  0
  -20.9280  -29.8900   21.7070 H   0  0  0  0  0  0  0  0  0  0  0  0
  -18.0140  -28.1480   22.9020 C   0  0  0  0  0  0  0  0  0  0  0  0
  -20.5760  -28.3930   23.1640 C   0  0  0  0  0  3  0  0  0  0  0  0
  -20.6650  -26.9600   22.5900 C   0  0  0  0  0  2  0  0  0  0  0  0
  -19.5600  -26.6470   21.5760 C   0  0  0  0  0  2  0  0  0  0  0  0
  -18.1800  -26.8010   22.2210 C   0  0  0  0  0  2  0  0  0  0  0  0
  -19.1390  -28.9030   23.3310 C   0  0  0  0  0  0  0  0  0  0  0  0
  -18.9280  -30.1640   23.9300 C   0  0  0  0  0  3  0  0  0  0  0  0
  -17.6250  -30.6690   24.1060 C   0  0  0  0  0  3  0  0  0  0  0  0
  -16.5160  -29.9130   23.6900 C   0  0  0  0  0  3  0  0  0  0  0  0
  -16.7110  -28.6550   23.0940 C   0  0  0  0  0  3  0  0  0  0  0  0
  -25.8940  -32.5120   23.8310 C   0  0  0  0  0  3  0  0  0  0  0  0
  -26.3940  -31.7440   25.1170 C   0  0  1  0  0  0  0  0  0  0  0  0
  -25.2900  -31.5190   26.1770 C   0  0  0  0  0  1  0  0  0  0  0  0
  -26.9770  -30.3620   24.7440 C   0  0  0  0  0  1  0  0  0  0  0  0
  -27.5400  -32.5400   25.7860 C   0  0  0  0  0  1  0  0  0  0  0  0
  -25.5770  -33.9110   24.1670 N   0  0  0  0  0  0  0  0  0  0  0  0
  -25.9110  -34.9730   23.4220 C   0  0  0  0  0  0  0  0  0  0  0  0
  -26.5800  -34.8790   22.3890 O   0  0  0  0  0  0  0  0  0  0  0  0
  -24.9800  -34.0580   24.9670 H   0  0  0  0  0  0  0  0  0  0  0  0
  -24.1790  -36.7750   23.0920 C   0  0  0  0  0  1  0  0  0  0  0  0
  -25.4240  -36.3600   23.8920 C   0  0  0  0  0  3  0  0  0  0  0  0
  -27.5630  -37.2450   24.7190 C   0  0  0  0  0  1  0  0  0  0  0  0
  -26.4550  -37.4160   23.7820 N   0  0  0  0  0  0  0  0  0  0  0  0
  -26.0490  -38.3340   23.9370 H   0  0  0  0  0  0  0  0  0  0  0  0
  -29.1180  -21.2710   19.8510 C   0  0  0  0  0  2  0  0  0  0  0  0
  -29.3140  -19.6540   20.5950 C   0  0  0  0  0  2  0  0  0  0  0  0
  -29.9230  -18.1080   19.9410 C   0  0  0  0  0  2  0  0  0  0  0  0
  -30.4740  -15.2540   20.2160 C   0  0  0  0  0  0  0  0  0  0  0  0
  -30.4000  -12.8240   19.3420 C   0  0  0  0  0  2  0  0  0  0  0  0
  -29.4720  -12.6750   18.1110 C   0  0  0  0  0  2  0  0  0  0  0  0
  -28.0230  -12.4130   18.5560 C   0  0  0  0  0  2  0  0  0  0  0  0
  -27.5930  -13.3550   19.7080 C   0  0  0  0  0  3  0  0  0  0  0  0
  -28.6500  -13.4780   20.8270 C   0  0  0  0  0  2  0  0  0  0  0  0
  -29.8920  -13.9580   20.1980 N   0  0  0  0  0  0  0  0  0  0  0  0
  -31.6700  -15.2590   19.8970 O   0  0  0  0  0  0  0  0  0  0  0  0
  -29.7360  -16.5190   20.3810 N   0  0  0  0  0  0  0  0  0  0  0  0
  -28.7950  -16.3340   20.6930 H   0  0  0  0  0  0  0  0  0  0  0  0
  -25.2230  -13.9080   20.4730 C   0  0  0  0  0  0  0  0  0  0  0  0
  -24.1650  -13.1300   20.8480 C   0  0  0  0  0  0  0  0  0  0  0  0
  -24.6350  -11.7800   20.8150 C   0  0  0  0  0  0  0  0  0  0  0  0
  -26.2670  -13.0350   20.2230 N   0  0  0  0  0  0  0  0  0  0  0  0
  -25.9240  -11.7490   20.4940 N   0  0  0  0  0  0  0  0  0  0  0  0
  -23.9110  -10.5160   21.0110 C   0  0  0  0  0  0  0  0  0  0  0  0
  -24.3530   -9.5460   21.9380 C   0  0  0  0  0  3  0  0  0  0  0  0
  -23.6280   -8.3480   22.1230 C   0  0  0  0  0  3  0  0  0  0  0  0
  -22.4470   -8.1110   21.3790 C   0  0  0  0  0  0  0  0  0  0  0  0
  -22.0250   -9.0700   20.4400 C   0  0  0  0  0  3  0  0  0  0  0  0
  -22.7500  -10.2580   20.2550 C   0  0  0  0  0  3  0  0  0  0  0  0
  -21.6900   -6.9680   21.4730 O   0  0  0  0  0  0  0  0  0  0  0  0
  -21.6560   -6.2200   22.6240 C   0  0  0  0  0  0  0  0  0  0  0  0
  -21.2540   -6.7720   23.8600 C   0  0  0  0  0  3  0  0  0  0  0  0
  -21.1680   -5.9520   25.0020 C   0  0  0  0  0  3  0  0  0  0  0  0
  -21.4710   -4.5800   24.9110 C   0  0  0  0  0  0  0  0  0  0  0  0
  -21.8660   -4.0270   23.6790 C   0  0  0  0  0  3  0  0  0  0  0  0
  -21.9560   -4.8460   22.5400 C   0  0  0  0  0  0  0  0  0  0  0  0
  -22.3160   -4.3030   21.3520 F   0  0  0  0  0  0  0  0  0  0  0  0
  -21.3810   -3.7910   26.0070 F   0  0  0  0  0  0  0  0  0  0  0  0
  -22.7680  -13.6020   21.1250 C   0  0  0  0  0  0  0  0  0  0  0  0
  -22.0490  -12.9050   21.9970 N   0  0  0  0  0  0  0  0  0  0  0  0
  -22.3260  -14.6250   20.6040 O   0  0  0  0  0  0  0  0  0  0  0  0
  -22.4260  -12.0800   22.4410 H   0  0  0  0  0  0  0  0  0  0  0  0
  -21.1070  -13.1940   22.2210 H   0  0  0  0  0  0  0  0  0  0  0  0
  -25.3840  -15.2790   20.2900 N   0  0  0  0  0  0  0  0  0  0  0  0
  -24.6170  -15.9360   20.3730 H   0  0  0  0  0  0  0  0  0  0  0  0
  -26.2260  -15.7040   19.9250 H   0  0  0  0  0  0  0  0  0  0  0  0
  2  7  1  0
  2  3  1  0
  2  1  1  0
  3 48  1  6
  3  6  1  0
  3  1  1  0
  5  6  1  0
  6  4  1  0
  8 19  2  0
  9  7  1  0
  9 14  1  0
 10 18  1  0
 10 20  1  0
 11 17  1  0
 11 13  1  0
 12 18  1  0
 13 14  2  0
 13 12  1  0
 15  9  2  0
 16 15  1  0
 16 11  2  0
 17 10  1  0
 18  8  1  0
 20 22  2  0
 21 20  1  0
 23 21  1  0
 24 33  2  0
 24 29  1  0
 25 21  1  0
 25 29  1  0
 26 25  1  0
 27 28  1  0
 27 26  1  0
 28 24  1  0
 29 30  2  0
 30 31  1  0
 32 31  2  0
 33 32  1  0
 34  8  1  0
 34 39  1  0
 34 35  1  0
 35 38  1  1
 35 36  1  0
 37 35  1  0
 39 42  1  0
 40 44  1  0
 40 39  1  0
 41 40  2  0
 44 43  1  0
 46 44  1  0
 46 47  1  0
 46 45  1  0
 48 49  1  0
 50 59  1  0
 50 49  1  0
 51 59  1  0
 52 57  1  0
 53 54  1  0
 53 52  1  0
 55 54  1  0
 55 64  1  0
 55 56  1  0
 57 51  1  0
 57 56  1  0
 58 51  2  0
 59 60  1  0
 61 62  2  0
 62 81  1  0
 63 62  1  0
 63 66  1  0
 64 61  1  0
 64 65  1  0
 65 63  2  0
 66 67  1  0
 67 68  2  0
 69 72  1  0
 69 68  1  0
 70 69  2  0
 71 70  1  0
 71 66  2  0
 72 73  1  0
 73 74  1  0
 74 75  2  0
 76 75  1  0
 76 80  1  0
 77 76  2  0
 78 73  2  0
 78 77  1  0
 79 78  1  0
 81 82  1  0
 82 85  1  0
 82 84  1  0
 83 81  2  0
 86 87  1  0
 86 61  1  0
 88 86  1  0
M  ISO  4   2 101   7 101  51 100  59 100
M  END
>  <TORSDO>  (1) 
F 20

>  <SCORE>  (1) 
-15.145

>  <name>  (1) 
0

>  <ligand_id>  (1) 
0

>  <original_smiles>  (1) 
[H]c1c([H])c([H])c2c(c1[H])C([H])([H])C([H])([H])C([H])([H])C2([H])N([H])C(=O)C1([H])N(C(=O)C([H])(N([H])C(=O)C([H])(N([H])C([H])([H])[H])C([H])([H])[H])C(C([H])([H])[H])(C([H])([H])[H])C([H])([H])[H])C([H])([H])c2c([H])c(OC3([H])C([H])([H])C3(C([H])([H])C([H])([H])C([H])([H])N([H])C(=O)N3C([H])([H])C([H])([H])C([H])([H])C([H])(n4nc(-c5c([H])c([H])c(Oc6c([H])c([H])c(F)c([H])c6F)c([H])c5[H])c(C(=O)N([H])[H])c4N([H])[H])C3([H])[H])C([H])(C([H])([H])[H])C([H])([H])[H])c([H])c([H])c2C1([H])[H]

>  <smiles>  (1) 
[H]c1c([H])c([H])c2c(c1[H])C([H])([H])C([H])([H])C([H])([H])C2([H])N([H])C(=O)C1([H])N(C(=O)C([H])(N([H])C(=O)C([H])(N([H])C([H])([H])[H])C([H])([H])[H])C(C([H])([H])[H])(C([H])([H])[H])C([H])([H])[H])C([H])([H])c2c([H])c(OC3([H])C([H])([H])C3(C([H])([H])C([H])([H])C([H])([H])N([H])C(=O)N3C([H])([H])C([H])([H])C([H])([H])C([H])(n4nc(-c5c([H])c([H])c(Oc6c([H])c([H])c(F)c([H])c6F)c([H])c5[H])c(C(=O)N([H])[H])c4N([H])[H])C3([H])[H])C([H])(C([H])([H])[H])C([H])([H])[H])c([H])c([H])c2C1([H])[H]

$$$$
1:0:0
     RDKit          3D

 93102  0  0  1  0  0  0  0  0999 V2000
  -27.6690  -23.9160   20.0820 C   0  0  0  0  0  3  0  0  0  0  0  0
  -30.2380  -23.1140   20.2920 C   0  0  0  0  0  3  0  0  0  0  0  0
  -28.0070  -22.4880   20.0060 C   0  0  0  0  0  0  0  0  0  0  0  0
  -29.3640  -21.9890   20.1220 C   0  0  0  0  0  0  0  0  0  0  0  0
  -28.6470  -24.9510   20.2630 C   0  0  0  0  0  0  0  0  0  0  0  0
  -29.9220  -24.4640   20.3590 N   0  0  0  0  0  0  0  0  0  0  0  0
  -26.8910  -21.5260   19.8680 C   0  0  0  0  0  0  0  0  0  0  0  0
  -26.6500  -20.6440   20.6970 O   0  0  0  0  0  0  0  0  0  0  0  0
  -26.6800  -21.5880   17.2770 C   0  0  0  0  0  2  0  0  0  0  0  0
  -25.8300  -20.4480   17.7790 C   0  0  0  0  0  2  0  0  0  0  0  0
  -26.0280  -21.6790   18.6430 C   0  0  0  0  0  3  0  0  0  0  0  0
  -28.5280  -26.4150   20.4010 O   0  0  0  0  0  0  0  0  0  0  0  0
  -24.7160  -31.9790   23.3740 C   0  0  0  0  0  0  0  0  0  0  0  0
  -27.3980  -27.3050   20.3820 C   0  0  0  0  0  0  0  0  0  0  0  0
  -23.5620  -30.5850   21.6970 C   0  0  0  0  0  3  0  0  0  0  0  0
  -25.0510  -29.0190   20.3020 C   0  0  0  0  0  0  0  0  0  0  0  0
  -26.1130  -30.8690   21.5930 C   0  0  0  0  0  2  0  0  0  0  0  0
  -26.2090  -29.4770   20.9440 C   0  0  0  0  0  0  0  0  0  0  0  0
  -27.3790  -28.6340   20.9680 C   0  0  0  0  0  3  0  0  0  0  0  0
  -26.2190  -26.9430   19.6970 C   0  0  0  0  0  3  0  0  0  0  0  0
  -25.0690  -27.7640   19.6660 C   0  0  0  0  0  3  0  0  0  0  0  0
  -23.8190  -29.9100   20.3220 C   0  0  0  0  0  2  0  0  0  0  0  0
  -24.8150  -31.1660   22.2770 N   0  0  0  0  0  0  0  0  0  0  0  0
  -23.6150  -32.2540   23.8780 O   0  0  0  0  0  0  0  0  0  0  0  0
  -22.8670  -29.5700   22.6390 C   0  0  0  0  0  0  0  0  0  0  0  0
  -21.5430  -29.3970   22.4830 N   0  0  0  0  0  0  0  0  0  0  0  0
  -23.5240  -28.9400   23.4720 O   0  0  0  0  0  0  0  0  0  0  0  0
  -21.0700  -29.9590   21.7880 H   0  0  0  0  0  0  0  0  0  0  0  0
  -18.1510  -28.2050   22.9210 C   0  0  0  0  0  0  0  0  0  0  0  0
  -20.7070  -28.4510   23.2260 C   0  0  0  0  0  3  0  0  0  0  0  0
  -20.8120  -27.0280   22.6310 C   0  0  0  0  0  2  0  0  0  0  0  0
  -19.7230  -26.7260   21.5970 C   0  0  0  0  0  2  0  0  0  0  0  0
  -18.3320  -26.8660   22.2240 C   0  0  0  0  0  2  0  0  0  0  0  0
  -19.2670  -28.9560   23.3770 C   0  0  0  0  0  0  0  0  0  0  0  0
  -19.0440  -30.2090   23.9880 C   0  0  0  0  0  3  0  0  0  0  0  0
  -17.7390  -30.7100   24.1480 C   0  0  0  0  0  3  0  0  0  0  0  0
  -16.6370  -29.9560   23.7070 C   0  0  0  0  0  3  0  0  0  0  0  0
  -16.8440  -28.7050   23.1000 C   0  0  0  0  0  3  0  0  0  0  0  0
  -25.9750  -32.6170   24.0360 C   0  0  0  0  0  3  0  0  0  0  0  0
  -25.6630  -34.0250   24.3300 N   0  0  0  0  0  0  0  0  0  0  0  0
  -26.0190  -35.0630   23.5610 C   0  0  0  0  0  0  0  0  0  0  0  0
  -26.7110  -34.9370   22.5480 O   0  0  0  0  0  0  0  0  0  0  0  0
  -25.0520  -34.1980   25.1140 H   0  0  0  0  0  0  0  0  0  0  0  0
  -24.3010  -36.8570   23.1510 C   0  0  0  0  0  1  0  0  0  0  0  0
  -25.5320  -36.4640   23.9830 C   0  0  0  0  0  3  0  0  0  0  0  0
  -27.6600  -37.3650   24.8160 C   0  0  0  0  0  1  0  0  0  0  0  0
  -26.5690  -37.5120   23.8560 N   0  0  0  0  0  0  0  0  0  0  0  0
  -26.1630  -38.4350   23.9760 H   0  0  0  0  0  0  0  0  0  0  0  0
  -26.4310  -31.8710   25.3510 C   0  0  1  0  0  0  0  0  0  0  0  0
  -25.2900  -31.6570   26.3730 C   0  0  0  0  0  1  0  0  0  0  0  0
  -27.0280  -30.4840   25.0170 C   0  0  0  0  0  1  0  0  0  0  0  0
  -27.5530  -32.6770   26.0490 C   0  0  0  0  0  1  0  0  0  0  0  0
  -29.9590  -20.6380   20.0880 O   0  0  0  0  0  0  0  0  0  0  0  0
  -29.4090  -19.1960   20.0650 C   0  0  0  0  0  3  0  0  0  0  0  0
  -30.4510  -17.8600   20.0750 C   0  0  0  0  0  3  0  0  0  0  0  0
  -30.8510  -15.1510   20.1260 C   0  0  0  0  0  0  0  0  0  0  0  0
  -30.7440  -12.7760   19.2560 C   0  0  0  0  0  2  0  0  0  0  0  0
  -29.7960  -12.6870   18.0390 C   0  0  0  0  0  2  0  0  0  0  0  0
  -28.3420  -12.4700   18.4990 C   0  0  0  0  0  2  0  0  0  0  0  0
  -27.9380  -13.4250   19.6530 C   0  0  0  0  0  3  0  0  0  0  0  0
  -29.0080  -13.4820   20.7640 C   0  0  0  0  0  2  0  0  0  0  0  0
  -30.2640  -13.8880   20.1250 N   0  0  0  0  0  0  0  0  0  0  0  0
  -32.0450  -15.2220   19.8200 O   0  0  0  0  0  0  0  0  0  0  0  0
  -30.0720  -16.3330   20.2560 N   0  0  0  0  0  0  0  0  0  0  0  0
  -29.1010  -16.1630   20.4720 H   0  0  0  0  0  0  0  0  0  0  0  0
  -25.5780  -13.9970   20.4580 C   0  0  0  0  0  0  0  0  0  0  0  0
  -24.5210  -13.2180   20.8410 C   0  0  0  0  0  0  0  0  0  0  0  0
  -24.9820  -11.8660   20.7780 C   0  0  0  0  0  0  0  0  0  0  0  0
  -26.6120  -13.1200   20.1790 N   0  0  0  0  0  0  0  0  0  0  0  0
  -26.2650  -11.8330   20.4360 N   0  0  0  0  0  0  0  0  0  0  0  0
  -24.2570  -10.6020   20.9630 C   0  0  0  0  0  0  0  0  0  0  0  0
  -24.6690   -9.6470   21.9180 C   0  0  0  0  0  3  0  0  0  0  0  0
  -23.9410   -8.4500   22.0910 C   0  0  0  0  0  3  0  0  0  0  0  0
  -22.7890   -8.1990   21.3080 C   0  0  0  0  0  0  0  0  0  0  0  0
  -22.3970   -9.1430   20.3430 C   0  0  0  0  0  3  0  0  0  0  0  0
  -23.1240  -10.3320   20.1680 C   0  0  0  0  0  3  0  0  0  0  0  0
  -22.0360   -7.0520   21.3900 O   0  0  0  0  0  0  0  0  0  0  0  0
  -21.8970   -6.3640   22.5700 C   0  0  0  0  0  0  0  0  0  0  0  0
  -21.3650   -6.9720   23.7280 C   0  0  0  0  0  3  0  0  0  0  0  0
  -21.1750   -6.2100   24.8980 C   0  0  0  0  0  3  0  0  0  0  0  0
  -21.5050   -4.8420   24.9100 C   0  0  0  0  0  0  0  0  0  0  0  0
  -22.0280   -4.2330   23.7550 C   0  0  0  0  0  3  0  0  0  0  0  0
  -22.2200   -4.9930   22.5870 C   0  0  0  0  0  0  0  0  0  0  0  0
  -22.7040   -4.3970   21.4710 F   0  0  0  0  0  0  0  0  0  0  0  0
  -21.3150   -4.1070   26.0300 F   0  0  0  0  0  0  0  0  0  0  0  0
  -23.1310  -13.6920   21.1510 C   0  0  0  0  0  0  0  0  0  0  0  0
  -22.4250  -12.9910   22.0290 N   0  0  0  0  0  0  0  0  0  0  0  0
  -22.6830  -14.7240   20.6500 O   0  0  0  0  0  0  0  0  0  0  0  0
  -22.8000  -12.1570   22.4560 H   0  0  0  0  0  0  0  0  0  0  0  0
  -21.4940  -13.2920   22.2800 H   0  0  0  0  0  0  0  0  0  0  0  0
  -25.7380  -15.3700   20.2980 N   0  0  0  0  0  0  0  0  0  0  0  0
  -24.9690  -16.0170   20.4330 H   0  0  0  0  0  0  0  0  0  0  0  0
  -26.5660  -15.8140   19.9240 H   0  0  0  0  0  0  0  0  0  0  0  0
  1  5  1  0
  2  6  1  0
  3  1  2  0
  3  4  1  0
  4  2  2  0
  5  6  2  0
  5 12  1  0
  7  3  1  0
  7  8  2  0
  9 10  1  0
  9 11  1  0
 10 11  1  0
 11  7  1  0
 13 24  2  0
 14 12  1  0
 14 19  1  0
 15 23  1  0
 15 25  1  0
 16 22  1  0
 16 18  1  0
 17 23  1  0
 18 19  2  0
 18 17  1  0
 20 14  2  0
 21 20  1  0
 21 16  2  0
 22 15  1  0
 23 13  1  0
 25 27  2  0
 26 25  1  0
 28 26  1  0
 29 38  2  0
 29 34  1  0
 30 26  1  0
 30 34  1  0
 31 30  1  0
 32 33  1  0
 32 31  1  0
 33 29  1  0
 34 35  2  0
 35 36  1  0
 37 36  2  0
 38 37  1  0
 39 13  1  0
 39 40  1  0
 39 49  1  0
 40 43  1  0
 41 45  1  0
 41 40  1  0
 42 41  2  0
 45 44  1  0
 47 48  1  0
 47 45  1  0
 47 46  1  0
 49 52  1  1
 49 50  1  0
 51 49  1  0
 53  4  1  0
 54 55  2  0
 54 53  1  0
 55 64  1  0
 56 64  1  0
 57 62  1  0
 58 59  1  0
 58 57  1  0
 60 59  1  0
 60 69  1  0
 60 61  1  0
 62 56  1  0
 62 61  1  0
 63 56  2  0
 64 65  1  0
 66 67  2  0
 67 86  1  0
 68 67  1  0
 68 71  1  0
 69 70  1  0
 69 66  1  0
 70 68  2  0
 71 72  1  0
 72 73  2  0
 74 77  1  0
 74 73  1  0
 75 74  2  0
 76 75  1  0
 76 71  2  0
 77 78  1  0
 78 83  2  0
 78 79  1  0
 79 80  2  0
 80 81  1  0
 81 85  1  0
 82 81  2  0
 83 82  1  0
 84 83  1  0
 86 87  1  0
 87 90  1  0
 87 89  1  0
 88 86  2  0
 91 92  1  0
 91 66  1  0
 93 91  1  0
M  ISO  4   5 101  12 101  56 100  64 100
M  END
>  <TORSDO>  (2) 
F 21

>  <SCORE>  (2) 
-12.043

>  <name>  (2) 
1

>  <ligand_id>  (2) 
1

>  <original_smiles>  (2) 
[H]c1nc(Oc2c([H])c([H])c3c(c2[H])C([H])([H])N(C(=O)C([H])(N([H])C(=O)C([H])(N([H])C([H])([H])[H])C([H])([H])[H])C(C([H])([H])[H])(C([H])([H])[H])C([H])([H])[H])C([H])(C(=O)N([H])C2([H])c4c([H])c([H])c([H])c([H])c4C([H])([H])C([H])([H])C2([H])[H])C3([H])[H])c([H])c(C(=O)C2([H])C([H])([H])C2([H])[H])c1OC([H])([H])C([H])([H])N([H])C(=O)N1C([H])([H])C([H])([H])C([H])([H])C([H])(n2nc(-c3c([H])c([H])c(Oc4c([H])c([H])c(F)c([H])c4F)c([H])c3[H])c(C(=O)N([H])[H])c2N([H])[H])C1([H])[H]

>  <smiles>  (2) 
[H]c1nc(Oc2c([H])c([H])c3c(c2[H])C([H])([H])N(C(=O)C([H])(N([H])C(=O)C([H])(N([H])C([H])([H])[H])C([H])([H])[H])C(C([H])([H])[H])(C([H])([H])[H])C([H])([H])[H])C([H])(C(=O)N([H])C2([H])c4c([H])c([H])c([H])c([H])c4C([H])([H])C([H])([H])C2([H])[H])C3([H])[H])c([H])c(C(=O)C2([H])C([H])([H])C2([H])[H])c1OC([H])([H])C([H])([H])N([H])C(=O)N1C([H])([H])C([H])([H])C([H])([H])C([H])(n2nc(-c3c([H])c([H])c(Oc4c([H])c([H])c(F)c([H])c4F)c([H])c3[H])c(C(=O)N([H])[H])c2N([H])[H])C1([H])[H]

$$$$
2:0:0
     RDKit          3D

 94103  0  0  1  0  0  0  0  0999 V2000
  -29.7260  -21.4020   21.1090 C   0  0  0  0  0  3  0  0  0  0  0  0
  -29.3120  -22.7970   21.1010 C   0  0  0  0  0  3  0  0  0  0  0  0
  -27.9790  -22.3420   19.2040 C   0  0  0  0  0  3  0  0  0  0  0  0
  -29.2940  -20.4080   20.1560 C   0  0  0  0  0  0  0  0  0  0  0  0
  -28.4290  -23.3450   20.1170 C   0  0  0  0  0  0  0  0  0  0  0  0
  -28.3710  -20.9570   19.2090 C   0  0  0  0  0  0  0  0  0  0  0  0
  -27.7800  -20.0710   18.1250 C   0  0  0  0  0  1  0  0  0  0  0  0
  -31.7740  -17.7360   20.2600 C   0  0  0  0  0  2  0  0  0  0  0  0
  -29.9610  -18.9230   19.9440 C   0  0  0  0  0  3  0  0  0  0  0  0
  -31.4880  -19.1880   19.9300 C   0  0  0  0  0  3  0  0  0  0  0  0
  -30.3490  -17.5560   20.8140 C   0  0  0  0  0  3  0  0  0  0  0  0
  -30.5760  -14.8680   20.3990 C   0  0  0  0  0  0  0  0  0  0  0  0
  -30.3580  -12.5660   19.4090 C   0  0  0  0  0  2  0  0  0  0  0  0
  -29.4290  -12.5710   18.1760 C   0  0  0  0  0  2  0  0  0  0  0  0
  -27.9630  -12.3850   18.6060 C   0  0  0  0  0  2  0  0  0  0  0  0
  -27.5670  -13.3010   19.7950 C   0  0  0  0  0  3  0  0  0  0  0  0
  -28.6240  -13.2900   20.9200 C   0  0  0  0  0  2  0  0  0  0  0  0
  -29.9060  -13.6600   20.3080 N   0  0  0  0  0  0  0  0  0  0  0  0
  -31.7870  -14.8570   20.1760 O   0  0  0  0  0  0  0  0  0  0  0  0
  -29.8760  -16.0860   20.5320 N   0  0  0  0  0  0  0  0  0  0  0  0
  -28.8750  -15.9640   20.5850 H   0  0  0  0  0  0  0  0  0  0  0  0
  -25.1800  -13.8750   20.5250 C   0  0  0  0  0  0  0  0  0  0  0  0
  -24.1160  -13.0960   20.8910 C   0  0  0  0  0  0  0  0  0  0  0  0
  -24.5860  -11.7470   20.8640 C   0  0  0  0  0  0  0  0  0  0  0  0
  -26.2280  -13.0010   20.2910 N   0  0  0  0  0  0  0  0  0  0  0  0
  -25.8790  -11.7160   20.5610 N   0  0  0  0  0  0  0  0  0  0  0  0
  -23.8620  -10.4820   21.0490 C   0  0  0  0  0  0  0  0  0  0  0  0
  -24.2890   -9.5170   21.9870 C   0  0  0  0  0  3  0  0  0  0  0  0
  -23.5640   -8.3190   22.1620 C   0  0  0  0  0  3  0  0  0  0  0  0
  -22.3980   -8.0760   21.3970 C   0  0  0  0  0  0  0  0  0  0  0  0
  -21.9910   -9.0300   20.4470 C   0  0  0  0  0  3  0  0  0  0  0  0
  -22.7170  -10.2190   20.2710 C   0  0  0  0  0  3  0  0  0  0  0  0
  -21.6450   -6.9290   21.4810 O   0  0  0  0  0  0  0  0  0  0  0  0
  -21.5870   -6.1890   22.6340 C   0  0  0  0  0  0  0  0  0  0  0  0
  -21.1310   -6.7400   23.8510 C   0  0  0  0  0  3  0  0  0  0  0  0
  -21.0220   -5.9250   24.9960 C   0  0  0  0  0  3  0  0  0  0  0  0
  -21.3580   -4.5610   24.9250 C   0  0  0  0  0  0  0  0  0  0  0  0
  -21.8070   -4.0090   23.7120 C   0  0  0  0  0  3  0  0  0  0  0  0
  -21.9180   -4.8200   22.5690 C   0  0  0  0  0  0  0  0  0  0  0  0
  -22.3300   -4.2790   21.3980 F   0  0  0  0  0  0  0  0  0  0  0  0
  -21.2460   -3.7750   26.0210 F   0  0  0  0  0  0  0  0  0  0  0  0
  -22.7160  -13.5680   21.1510 C   0  0  0  0  0  0  0  0  0  0  0  0
  -21.9850  -12.8730   22.0140 N   0  0  0  0  0  0  0  0  0  0  0  0
  -22.2790  -14.5900   20.6240 O   0  0  0  0  0  0  0  0  0  0  0  0
  -22.3520  -12.0470   22.4640 H   0  0  0  0  0  0  0  0  0  0  0  0
  -21.0440  -13.1700   22.2290 H   0  0  0  0  0  0  0  0  0  0  0  0
  -25.3370  -15.2450   20.3460 N   0  0  0  0  0  0  0  0  0  0  0  0
  -24.5640  -15.8930   20.4540 H   0  0  0  0  0  0  0  0  0  0  0  0
  -26.1760  -15.6890   19.9950 H   0  0  0  0  0  0  0  0  0  0  0  0
  -32.1050  -19.7110   18.6600 C   0  0  0  0  0  0  0  0  0  0  0  0
  -33.5700  -20.1050   18.7850 C   0  0  0  0  0  1  0  0  0  0  0  0
  -31.5510  -19.8430   17.5660 O   0  0  0  0  0  0  0  0  0  0  0  0
  -27.6950  -24.7940   20.0440 C   0  0  0  0  0  2  0  0  0  0  0  0
  -28.1570  -26.2290   20.3190 O   0  0  0  0  0  0  0  0  0  0  0  0
  -24.6080  -31.9300   23.3000 C   0  0  0  0  0  0  0  0  0  0  0  0
  -27.1320  -27.2370   20.2420 C   0  0  0  0  0  0  0  0  0  0  0  0
  -23.3920  -30.5510   21.6640 C   0  0  0  0  0  3  0  0  0  0  0  0
  -24.8220  -28.9890   20.2290 C   0  0  0  0  0  0  0  0  0  0  0  0
  -25.9490  -30.8020   21.4950 C   0  0  0  0  0  2  0  0  0  0  0  0
  -26.0080  -29.4170   20.8390 C   0  0  0  0  0  0  0  0  0  0  0  0
  -27.1660  -28.5570   20.8360 C   0  0  0  0  0  3  0  0  0  0  0  0
  -25.9170  -26.9210   19.5810 C   0  0  0  0  0  3  0  0  0  0  0  0
  -24.7870  -27.7500   19.5880 C   0  0  0  0  0  3  0  0  0  0  0  0
  -23.6030  -29.8890   20.2810 C   0  0  0  0  0  2  0  0  0  0  0  0
  -24.6690  -31.1130   22.2070 N   0  0  0  0  0  0  0  0  0  0  0  0
  -23.5250  -32.2230   23.8290 O   0  0  0  0  0  0  0  0  0  0  0  0
  -22.7110  -29.5390   22.6200 C   0  0  0  0  0  0  0  0  0  0  0  0
  -21.3840  -29.3670   22.4850 N   0  0  0  0  0  0  0  0  0  0  0  0
  -23.3780  -28.9120   23.4470 O   0  0  0  0  0  0  0  0  0  0  0  0
  -20.9030  -29.9240   21.7910 H   0  0  0  0  0  0  0  0  0  0  0  0
  -17.9990  -28.1730   22.9650 C   0  0  0  0  0  0  0  0  0  0  0  0
  -20.5550  -28.4370   23.2560 C   0  0  0  0  0  3  0  0  0  0  0  0
  -20.6630  -27.0000   22.6960 C   0  0  0  0  0  2  0  0  0  0  0  0
  -19.5710  -26.6670   21.6740 C   0  0  0  0  0  2  0  0  0  0  0  0
  -18.1820  -26.8180   22.3020 C   0  0  0  0  0  2  0  0  0  0  0  0
  -19.1130  -28.9390   23.3980 C   0  0  0  0  0  0  0  0  0  0  0  0
  -18.8870  -30.2070   23.9770 C   0  0  0  0  0  3  0  0  0  0  0  0
  -17.5800  -30.7080   24.1280 C   0  0  0  0  0  3  0  0  0  0  0  0
  -16.4810  -29.9380   23.7090 C   0  0  0  0  0  3  0  0  0  0  0  0
  -16.6900  -28.6740   23.1330 C   0  0  0  0  0  3  0  0  0  0  0  0
  -25.8940  -32.5530   23.9220 C   0  0  0  0  0  3  0  0  0  0  0  0
  -26.3950  -31.7840   25.2070 C   0  0  1  0  0  0  0  0  0  0  0  0
  -25.2920  -31.5680   26.2700 C   0  0  0  0  0  1  0  0  0  0  0  0
  -26.9640  -30.3960   24.8320 C   0  0  0  0  0  1  0  0  0  0  0  0
  -27.5500  -32.5700   25.8680 C   0  0  0  0  0  1  0  0  0  0  0  0
  -25.5990  -33.9570   24.2450 N   0  0  0  0  0  0  0  0  0  0  0  0
  -25.9180  -35.0020   23.4690 C   0  0  0  0  0  0  0  0  0  0  0  0
  -26.5610  -34.8850   22.4230 O   0  0  0  0  0  0  0  0  0  0  0  0
  -25.0260  -34.1220   25.0590 H   0  0  0  0  0  0  0  0  0  0  0  0
  -24.1840  -36.7980   23.1540 C   0  0  0  0  0  1  0  0  0  0  0  0
  -25.4500  -36.3970   23.9270 C   0  0  0  0  0  3  0  0  0  0  0  0
  -27.6130  -37.2880   24.6770 C   0  0  0  0  0  1  0  0  0  0  0  0
  -26.4820  -37.4460   23.7670 N   0  0  0  0  0  0  0  0  0  0  0  0
  -26.0830  -38.3680   23.9150 H   0  0  0  0  0  0  0  0  0  0  0  0
  2  1  1  0
  3  6  2  0
  3  5  1  0
  4  1  2  0
  5  2  2  0
  6  4  1  0
  7  6  1  0
  8 11  1  0
  9  4  1  0
  9 11  1  0
 10 50  1  0
 10  9  1  0
 10  8  1  0
 11 20  1  0
 12 20  1  0
 13 18  1  0
 14 15  1  0
 14 13  1  0
 16 15  1  0
 16 25  1  0
 16 17  1  0
 18 12  1  0
 18 17  1  0
 19 12  2  0
 20 21  1  0
 22 23  2  0
 23 42  1  0
 24 23  1  0
 24 27  1  0
 25 22  1  0
 25 26  1  0
 26 24  2  0
 27 28  1  0
 28 29  2  0
 30 33  1  0
 30 29  1  0
 31 30  2  0
 32 31  1  0
 32 27  2  0
 33 34  1  0
 34 35  1  0
 35 36  2  0
 37 36  1  0
 37 41  1  0
 38 37  2  0
 39 34  2  0
 39 38  1  0
 40 39  1  0
 42 43  1  0
 43 46  1  0
 43 45  1  0
 44 42  2  0
 47 48  1  0
 47 22  1  0
 49 47  1  0
 50 51  1  0
 52 50  2  0
 53  5  1  0
 53 54  1  0
 55 66  2  0
 56 54  1  0
 56 61  1  0
 57 65  1  0
 57 67  1  0
 58 64  1  0
 58 60  1  0
 59 65  1  0
 60 59  1  0
 61 60  2  0
 62 63  1  0
 62 56  2  0
 63 58  2  0
 64 57  1  0
 65 55  1  0
 67 69  2  0
 68 67  1  0
 70 68  1  0
 71 80  2  0
 71 76  1  0
 72 68  1  0
 72 76  1  0
 73 72  1  0
 74 75  1  0
 74 73  1  0
 75 71  1  0
 76 77  2  0
 77 78  1  0
 79 78  2  0
 80 79  1  0
 81 55  1  0
 81 86  1  0
 81 82  1  0
 82 85  1  1
 82 83  1  0
 84 82  1  0
 86 89  1  0
 87 91  1  0
 87 86  1  0
 88 87  2  0
 91 90  1  0
 93 94  1  0
 93 91  1  0
 93 92  1  0
M  ISO  4  12 100  20 100  53 101  54 101
M  END
>  <TORSDO>  (3) 
F 19

>  <SCORE>  (3) 
-14.514

>  <name>  (3) 
2

>  <ligand_id>  (3) 
2

>  <original_smiles>  (3) 
[H]c1c([H])c([H])c2c(c1[H])C([H])([H])C([H])([H])C([H])([H])C2([H])N([H])C(=O)C1([H])N(C(=O)C([H])(N([H])C(=O)C([H])(N([H])C([H])([H])[H])C([H])([H])[H])C(C([H])([H])[H])(C([H])([H])[H])C([H])([H])[H])C([H])([H])c2c([H])c(OC([H])([H])c3c([H])c([H])c(C4([H])C([H])(C(=O)C([H])([H])[H])C([H])([H])C4([H])N([H])C(=O)N4C([H])([H])C([H])([H])C([H])([H])C([H])(n5nc(-c6c([H])c([H])c(Oc7c([H])c([H])c(F)c([H])c7F)c([H])c6[H])c(C(=O)N([H])[H])c5N([H])[H])C4([H])[H])c(C([H])([H])[H])c3[H])c([H])c([H])c2C1([H])[H]

>  <smiles>  (3) 
[H]c1c([H])c([H])c2c(c1[H])C([H])([H])C([H])([H])C([H])([H])C2([H])N([H])C(=O)C1([H])N(C(=O)C([H])(N([H])C(=O)C([H])(N([H])C([H])([H])[H])C([H])([H])[H])C(C([H])([H])[H])(C([H])([H])[H])C([H])([H])[H])C([H])([H])c2c([H])c(OC([H])([H])c3c([H])c([H])c(C4([H])C([H])(C(=O)C([H])([H])[H])C([H])([H])C4([H])N([H])C(=O)N4C([H])([H])C([H])([H])C([H])([H])C([H])(n5nc(-c6c([H])c([H])c(Oc7c([H])c([H])c(F)c([H])c7F)c([H])c6[H])c(C(=O)N([H])[H])c5N([H])[H])C4([H])[H])c(C([H])([H])[H])c3[H])c([H])c([H])c2C1([H])[H]

$$$$
3:0:0
     RDKit          3D

 90 99  0  0  1  0  0  0  0  0999 V2000
  -28.2350  -20.3650   19.8910 C   0  0  0  0  0  3  0  0  0  0  0  0
  -28.3990  -18.8650   19.8910 C   0  0  0  0  0  3  0  0  0  0  0  0
  -30.2520  -20.5410   20.8570 C   0  0  0  0  0  0  0  0  0  0  0  0
  -30.4270  -19.0360   20.8370 C   0  0  0  0  0  0  0  0  0  0  0  0
  -29.1630  -21.3840   20.3940 C   0  0  0  0  0  0  0  0  0  0  0  0
  -29.5250  -18.0260   20.3600 C   0  0  0  0  0  0  0  0  0  0  0  0
  -31.5880  -20.7100   21.5490 C   0  0  0  0  0  2  0  0  0  0  0  0
  -31.7630  -19.1210   21.5290 C   0  0  0  0  0  2  0  0  0  0  0  0
  -30.4190  -15.2540   20.3340 C   0  0  0  0  0  0  0  0  0  0  0  0
  -30.4200  -12.8330   19.4390 C   0  0  0  0  0  2  0  0  0  0  0  0
  -29.4890  -12.6680   18.2100 C   0  0  0  0  0  2  0  0  0  0  0  0
  -28.0360  -12.4080   18.6510 C   0  0  0  0  0  2  0  0  0  0  0  0
  -27.5920  -13.3540   19.7950 C   0  0  0  0  0  3  0  0  0  0  0  0
  -28.6470  -13.4560   20.9170 C   0  0  0  0  0  2  0  0  0  0  0  0
  -29.8840  -13.9450   20.2910 N   0  0  0  0  0  0  0  0  0  0  0  0
  -31.6350  -15.3220   20.1080 O   0  0  0  0  0  0  0  0  0  0  0  0
  -29.5500  -16.4290   20.4070 N   0  0  0  0  0  0  0  0  0  0  0  0
  -28.6070  -16.0780   20.4550 H   0  0  0  0  0  0  0  0  0  0  0  0
  -25.2170  -13.9000   20.5600 C   0  0  0  0  0  0  0  0  0  0  0  0
  -24.1610  -13.1140   20.9280 C   0  0  0  0  0  0  0  0  0  0  0  0
  -24.6350  -11.7670   20.8830 C   0  0  0  0  0  0  0  0  0  0  0  0
  -26.2640  -13.0320   20.3030 N   0  0  0  0  0  0  0  0  0  0  0  0
  -25.9260  -11.7440   20.5660 N   0  0  0  0  0  0  0  0  0  0  0  0
  -23.9160  -10.4990   21.0610 C   0  0  0  0  0  0  0  0  0  0  0  0
  -24.3450   -9.5300   21.9960 C   0  0  0  0  0  3  0  0  0  0  0  0
  -23.6220   -8.3280   22.1630 C   0  0  0  0  0  3  0  0  0  0  0  0
  -22.4580   -8.0870   21.3950 C   0  0  0  0  0  0  0  0  0  0  0  0
  -22.0500   -9.0440   20.4500 C   0  0  0  0  0  3  0  0  0  0  0  0
  -22.7730  -10.2370   20.2790 C   0  0  0  0  0  3  0  0  0  0  0  0
  -21.7080   -6.9390   21.4730 O   0  0  0  0  0  0  0  0  0  0  0  0
  -21.6300   -6.2060   22.6310 C   0  0  0  0  0  0  0  0  0  0  0  0
  -21.1270   -6.7580   23.8300 C   0  0  0  0  0  3  0  0  0  0  0  0
  -21.0010   -5.9500   24.9780 C   0  0  0  0  0  3  0  0  0  0  0  0
  -21.3650   -4.5910   24.9270 C   0  0  0  0  0  0  0  0  0  0  0  0
  -21.8600   -4.0380   23.7330 C   0  0  0  0  0  3  0  0  0  0  0  0
  -21.9890   -4.8430   22.5880 C   0  0  0  0  0  0  0  0  0  0  0  0
  -22.4470   -4.3000   21.4330 F   0  0  0  0  0  0  0  0  0  0  0  0
  -21.2360   -3.8120   26.0270 F   0  0  0  0  0  0  0  0  0  0  0  0
  -22.7610  -13.5800   21.2030 C   0  0  0  0  0  0  0  0  0  0  0  0
  -22.0340  -12.8690   22.0570 N   0  0  0  0  0  0  0  0  0  0  0  0
  -22.3200  -14.6120   20.6970 O   0  0  0  0  0  0  0  0  0  0  0  0
  -22.4010  -12.0360   22.4910 H   0  0  0  0  0  0  0  0  0  0  0  0
  -21.0940  -13.1660   22.2830 H   0  0  0  0  0  0  0  0  0  0  0  0
  -25.3660  -15.2740   20.3930 N   0  0  0  0  0  0  0  0  0  0  0  0
  -24.5890  -15.9150   20.5170 H   0  0  0  0  0  0  0  0  0  0  0  0
  -26.1900  -15.7230   20.0170 H   0  0  0  0  0  0  0  0  0  0  0  0
  -30.4030  -23.5740   19.6860 C   0  0  0  0  0  1  0  0  0  0  0  0
  -29.1560  -23.1200   20.4590 C   0  0  0  0  0  3  0  0  0  0  0  0
  -28.0050  -24.4260   20.1890 C   0  0  0  0  0  2  0  0  0  0  0  0
  -28.2000  -26.0290   20.3700 O   0  0  0  0  0  0  0  0  0  0  0  0
  -24.6050  -31.9250   23.2790 C   0  0  0  0  0  0  0  0  0  0  0  0
  -27.1660  -27.0780   20.2950 C   0  0  0  0  0  0  0  0  0  0  0  0
  -23.4090  -30.5240   21.6430 C   0  0  0  0  0  3  0  0  0  0  0  0
  -24.8560  -28.9140   20.2340 C   0  0  0  0  0  0  0  0  0  0  0  0
  -25.9720  -30.7450   21.4970 C   0  0  0  0  0  2  0  0  0  0  0  0
  -26.0410  -29.3370   20.8500 C   0  0  0  0  0  0  0  0  0  0  0  0
  -27.1920  -28.4390   20.8550 C   0  0  0  0  0  3  0  0  0  0  0  0
  -25.9510  -26.7840   19.6380 C   0  0  0  0  0  3  0  0  0  0  0  0
  -24.8320  -27.6560   19.6090 C   0  0  0  0  0  3  0  0  0  0  0  0
  -23.6380  -29.8310   20.2720 C   0  0  0  0  0  2  0  0  0  0  0  0
  -24.6830  -31.0910   22.1930 N   0  0  0  0  0  0  0  0  0  0  0  0
  -23.5160  -32.2200   23.7970 O   0  0  0  0  0  0  0  0  0  0  0  0
  -22.7130  -29.5340   22.6120 C   0  0  0  0  0  0  0  0  0  0  0  0
  -21.3870  -29.3560   22.4710 N   0  0  0  0  0  0  0  0  0  0  0  0
  -23.3720  -28.9260   23.4590 O   0  0  0  0  0  0  0  0  0  0  0  0
  -20.9080  -29.8980   21.7630 H   0  0  0  0  0  0  0  0  0  0  0  0
  -18.0080  -28.1190   22.9330 C   0  0  0  0  0  0  0  0  0  0  0  0
  -20.5590  -28.4230   23.2430 C   0  0  0  0  0  3  0  0  0  0  0  0
  -20.6910  -26.9820   22.6980 C   0  0  0  0  0  2  0  0  0  0  0  0
  -19.6130  -26.6250   21.6680 C   0  0  0  0  0  2  0  0  0  0  0  0
  -18.2170  -26.7610   22.2830 C   0  0  0  0  0  2  0  0  0  0  0  0
  -19.1080  -28.9060   23.3690 C   0  0  0  0  0  0  0  0  0  0  0  0
  -18.8590  -30.1730   23.9390 C   0  0  0  0  0  3  0  0  0  0  0  0
  -17.5430  -30.6560   24.0760 C   0  0  0  0  0  3  0  0  0  0  0  0
  -16.4590  -29.8680   23.6550 C   0  0  0  0  0  3  0  0  0  0  0  0
  -16.6920  -28.6020   23.0900 C   0  0  0  0  0  3  0  0  0  0  0  0
  -25.8790  -32.5640   23.9100 C   0  0  0  0  0  3  0  0  0  0  0  0
  -25.5720  -33.9710   24.2220 N   0  0  0  0  0  0  0  0  0  0  0  0
  -25.9050  -35.0180   23.4550 C   0  0  0  0  0  0  0  0  0  0  0  0
  -26.5670  -34.9010   22.4200 O   0  0  0  0  0  0  0  0  0  0  0  0
  -24.9830  -34.1350   25.0260 H   0  0  0  0  0  0  0  0  0  0  0  0
  -24.1820  -36.8210   23.1090 C   0  0  0  0  0  1  0  0  0  0  0  0
  -25.4320  -36.4150   23.9060 C   0  0  0  0  0  3  0  0  0  0  0  0
  -27.5770  -37.3070   24.7060 C   0  0  0  0  0  1  0  0  0  0  0  0
  -26.4680  -37.4620   23.7670 N   0  0  0  0  0  0  0  0  0  0  0  0
  -26.0680  -38.3870   23.9010 H   0  0  0  0  0  0  0  0  0  0  0  0
  -26.3700  -31.8130   25.2100 C   0  0  1  0  0  0  0  0  0  0  0  0
  -25.2590  -31.6020   26.2650 C   0  0  0  0  0  1  0  0  0  0  0  0
  -26.9500  -30.4250   24.8570 C   0  0  0  0  0  1  0  0  0  0  0  0
  -27.5170  -32.6110   25.8750 C   0  0  0  0  0  1  0  0  0  0  0  0
  1  5  1  0
  2  1  2  0
  2  6  1  0
  3  7  1  0
  4  3  1  0
  4  8  1  0
  5 48  1  0
  5  3  2  0
  6 17  1  0
  6  4  2  0
  8  7  1  0
  9 17  1  0
 10 15  1  0
 11 12  1  0
 11 10  1  0
 13 12  1  0
 13 22  1  0
 13 14  1  0
 15  9  1  0
 15 14  1  0
 16  9  2  0
 17 18  1  0
 19 20  2  0
 20 39  1  0
 21 20  1  0
 21 24  1  0
 22 19  1  0
 22 23  1  0
 23 21  2  0
 24 25  1  0
 25 26  2  0
 27 30  1  0
 27 26  1  0
 28 27  2  0
 29 28  1  0
 29 24  2  0
 30 31  1  0
 31 32  1  0
 32 33  2  0
 34 33  1  0
 34 38  1  0
 35 34  2  0
 36 31  2  0
 36 35  1  0
 37 36  1  0
 39 40  1  0
 40 43  1  0
 40 42  1  0
 41 39  2  0
 44 45  1  0
 44 19  1  0
 46 44  1  0
 48 47  1  0
 49 50  1  0
 49 48  1  0
 51 62  2  0
 52 50  1  0
 52 57  1  0
 53 61  1  0
 53 63  1  0
 54 60  1  0
 54 56  1  0
 55 61  1  0
 56 57  2  0
 56 55  1  0
 58 52  2  0
 59 58  1  0
 59 54  2  0
 60 53  1  0
 61 51  1  0
 63 65  2  0
 64 63  1  0
 66 64  1  0
 67 76  2  0
 67 72  1  0
 68 64  1  0
 68 72  1  0
 69 68  1  0
 70 71  1  0
 70 69  1  0
 71 67  1  0
 72 73  2  0
 73 74  1  0
 75 74  2  0
 76 75  1  0
 77 51  1  0
 77 78  1  0
 77 87  1  0
 78 81  1  0
 79 83  1  0
 79 78  1  0
 80 79  2  0
 83 82  1  0
 85 86  1  0
 85 83  1  0
 85 84  1  0
 87 90  1  1
 87 88  1  0
 89 87  1  0
M  ISO  4   9 100  17 100  49 101  50 101
M  END
>  <TORSDO>  (4) 
F 18

>  <SCORE>  (4) 
-16.031

>  <name>  (4) 
3

>  <ligand_id>  (4) 
3

>  <original_smiles>  (4) 
[H]c1c([H])c([H])c2c(c1[H])C([H])([H])C([H])([H])C([H])([H])C2([H])N([H])C(=O)C1([H])N(C(=O)C([H])(N([H])C(=O)C([H])(N([H])C([H])([H])[H])C([H])([H])[H])C(C([H])([H])[H])(C([H])([H])[H])C([H])([H])[H])C([H])([H])c2c([H])c(OC([H])([H])C([H])(c3c([H])c([H])c(N([H])C(=O)N4C([H])([H])C([H])([H])C([H])([H])C([H])(n5nc(-c6c([H])c([H])c(Oc7c([H])c([H])c(F)c([H])c7F)c([H])c6[H])c(C(=O)N([H])[H])c5N([H])[H])C4([H])[H])c4c3C([H])([H])C4([H])[H])C([H])([H])[H])c([H])c([H])c2C1([H])[H]

>  <smiles>  (4) 
[H]c1c([H])c([H])c2c(c1[H])C([H])([H])C([H])([H])C([H])([H])C2([H])N([H])C(=O)C1([H])N(C(=O)C([H])(N([H])C(=O)C([H])(N([H])C([H])([H])[H])C([H])([H])[H])C(C([H])([H])[H])(C([H])([H])[H])C([H])([H])[H])C([H])([H])c2c([H])c(OC([H])([H])C([H])(c3c([H])c([H])c(N([H])C(=O)N4C([H])([H])C([H])([H])C([H])([H])C([H])(n5nc(-c6c([H])c([H])c(Oc7c([H])c([H])c(F)c([H])c7F)c([H])c6[H])c(C(=O)N([H])[H])c5N([H])[H])C4([H])[H])c4c3C([H])([H])C4([H])[H])C([H])([H])[H])c([H])c([H])c2C1([H])[H]

$$$$
4:0:0
     RDKit          3D

 94103  0  0  1  0  0  0  0  0999 V2000
  -28.3550  -24.3330   19.0720 C   0  0  0  0  0  3  0  0  0  0  0  0
  -28.7430  -24.5350   21.4270 C   0  0  0  0  0  3  0  0  0  0  0  0
  -28.4370  -22.9100   19.1700 C   0  0  0  0  0  0  0  0  0  0  0  0
  -28.8290  -23.1110   21.5470 C   0  0  0  0  0  0  0  0  0  0  0  0
  -28.6500  -22.2480   20.4200 C   0  0  0  0  0  0  0  0  0  0  0  0
  -28.4790  -25.1890   20.1960 C   0  0  0  0  0  0  0  0  0  0  0  0
  -28.2560  -22.1040   17.8920 C   0  0  0  0  0  1  0  0  0  0  0  0
  -29.1130  -22.5270   22.9220 C   0  0  0  0  0  1  0  0  0  0  0  0
  -28.4810  -26.5960   20.0730 O   0  0  0  0  0  0  0  0  0  0  0  0
  -24.7240  -31.8870   23.2170 C   0  0  0  0  0  0  0  0  0  0  0  0
  -27.3200  -27.3760   20.1030 C   0  0  0  0  0  0  0  0  0  0  0  0
  -23.5020  -30.4930   21.5820 C   0  0  0  0  0  3  0  0  0  0  0  0
  -24.9360  -28.9500   20.1330 C   0  0  0  0  0  0  0  0  0  0  0  0
  -26.0310  -30.8260   21.3660 C   0  0  0  0  0  2  0  0  0  0  0  0
  -26.1060  -29.4520   20.7160 C   0  0  0  0  0  0  0  0  0  0  0  0
  -27.3000  -28.6750   20.6920 C   0  0  0  0  0  3  0  0  0  0  0  0
  -26.1280  -26.9130   19.5050 C   0  0  0  0  0  3  0  0  0  0  0  0
  -24.9470  -27.6850   19.5200 C   0  0  0  0  0  3  0  0  0  0  0  0
  -23.6970  -29.8180   20.1990 C   0  0  0  0  0  2  0  0  0  0  0  0
  -24.7720  -31.0880   22.1100 N   0  0  0  0  0  0  0  0  0  0  0  0
  -23.6480  -32.1530   23.7710 O   0  0  0  0  0  0  0  0  0  0  0  0
  -22.8570  -29.4700   22.5480 C   0  0  0  0  0  0  0  0  0  0  0  0
  -21.5310  -29.2850   22.4310 N   0  0  0  0  0  0  0  0  0  0  0  0
  -23.5480  -28.8470   23.3580 O   0  0  0  0  0  0  0  0  0  0  0  0
  -21.0360  -29.8310   21.7400 H   0  0  0  0  0  0  0  0  0  0  0  0
  -18.1680  -28.0640   22.9490 C   0  0  0  0  0  0  0  0  0  0  0  0
  -20.7250  -28.3400   23.2060 C   0  0  0  0  0  3  0  0  0  0  0  0
  -20.8350  -26.9100   22.6280 C   0  0  0  0  0  2  0  0  0  0  0  0
  -19.7320  -26.5870   21.6160 C   0  0  0  0  0  2  0  0  0  0  0  0
  -18.3520  -26.7200   22.2660 C   0  0  0  0  0  2  0  0  0  0  0  0
  -19.2820  -28.8340   23.3750 C   0  0  0  0  0  0  0  0  0  0  0  0
  -19.0600  -30.0920   23.9720 C   0  0  0  0  0  3  0  0  0  0  0  0
  -17.7520  -30.5820   24.1500 C   0  0  0  0  0  3  0  0  0  0  0  0
  -16.6510  -29.8100   23.7420 C   0  0  0  0  0  3  0  0  0  0  0  0
  -16.8590  -28.5530   23.1460 C   0  0  0  0  0  3  0  0  0  0  0  0
  -26.0150  -32.5170   23.8230 C   0  0  0  0  0  3  0  0  0  0  0  0
  -25.7000  -33.9060   24.1870 N   0  0  0  0  0  0  0  0  0  0  0  0
  -25.9810  -34.9740   23.4300 C   0  0  0  0  0  0  0  0  0  0  0  0
  -26.6030  -34.8960   22.3670 O   0  0  0  0  0  0  0  0  0  0  0  0
  -25.1410  -34.0390   25.0170 H   0  0  0  0  0  0  0  0  0  0  0  0
  -24.2010  -36.7370   23.1960 C   0  0  0  0  0  1  0  0  0  0  0  0
  -25.4960  -36.3490   23.9290 C   0  0  0  0  0  3  0  0  0  0  0  0
  -27.6570  -37.2700   24.6450 C   0  0  0  0  0  1  0  0  0  0  0  0
  -26.5010  -37.4240   23.7670 N   0  0  0  0  0  0  0  0  0  0  0  0
  -26.0860  -38.3350   23.9430 H   0  0  0  0  0  0  0  0  0  0  0  0
  -26.5640  -31.7250   25.0740 C   0  0  1  0  0  0  0  0  0  0  0  0
  -25.4950  -31.4600   26.1600 C   0  0  0  0  0  1  0  0  0  0  0  0
  -27.1520  -30.3600   24.6460 C   0  0  0  0  0  1  0  0  0  0  0  0
  -27.7210  -32.5190   25.7270 C   0  0  0  0  0  1  0  0  0  0  0  0
  -28.4900  -20.6760   20.5680 C   0  0  0  0  0  2  0  0  0  0  0  0
  -29.6810  -19.7410   20.5860 N   0  0  0  0  0  4  0  0  0  0  0  0
  -30.3540  -20.0470   19.9030 H   0  0  0  0  0  0  0  0  0  0  0  0
  -30.1140  -19.8450   21.4880 H   0  0  0  0  0  0  0  0  0  0  0  0
  -30.7980  -14.7200   20.3550 C   0  0  0  0  0  0  0  0  0  0  0  0
  -30.5600  -12.4500   19.3960 C   0  0  0  0  0  2  0  0  0  0  0  0
  -29.6310  -12.5380   18.1680 C   0  0  0  0  0  2  0  0  0  0  0  0
  -28.1590  -12.3770   18.5960 C   0  0  0  0  0  2  0  0  0  0  0  0
  -27.7780  -13.2750   19.8030 C   0  0  0  0  0  3  0  0  0  0  0  0
  -28.8350  -13.2200   20.9260 C   0  0  0  0  0  2  0  0  0  0  0  0
  -30.1400  -13.5190   20.3220 N   0  0  0  0  0  0  0  0  0  0  0  0
  -32.0130  -14.7870   20.1670 O   0  0  0  0  0  0  0  0  0  0  0  0
  -29.3270  -17.8320   18.9060 C   0  0  0  0  0  2  0  0  0  0  0  0
  -29.6550  -16.3170   18.8970 C   0  0  0  0  0  2  0  0  0  0  0  0
  -30.3360  -17.1630   20.9460 C   0  0  0  0  0  2  0  0  0  0  0  0
  -29.3720  -18.2620   20.3680 C   0  0  0  0  0  3  0  0  0  0  0  0
  -30.0320  -15.8680   20.2580 N   0  0  0  0  0  0  0  0  0  0  0  0
  -25.3920  -13.8940   20.4980 C   0  0  0  0  0  0  0  0  0  0  0  0
  -24.3170  -13.1280   20.8550 C   0  0  0  0  0  0  0  0  0  0  0  0
  -24.7750  -11.7750   20.8370 C   0  0  0  0  0  0  0  0  0  0  0  0
  -26.4320  -13.0040   20.2830 N   0  0  0  0  0  0  0  0  0  0  0  0
  -26.0680  -11.7270   20.5480 N   0  0  0  0  0  0  0  0  0  0  0  0
  -24.0430  -10.5180   21.0220 C   0  0  0  0  0  0  0  0  0  0  0  0
  -24.4600   -9.5570   21.9690 C   0  0  0  0  0  3  0  0  0  0  0  0
  -23.7300   -8.3620   22.1420 C   0  0  0  0  0  3  0  0  0  0  0  0
  -22.5680   -8.1210   21.3700 C   0  0  0  0  0  0  0  0  0  0  0  0
  -22.1710   -9.0710   20.4120 C   0  0  0  0  0  3  0  0  0  0  0  0
  -22.9020  -10.2580   20.2370 C   0  0  0  0  0  3  0  0  0  0  0  0
  -21.8110   -6.9780   21.4510 O   0  0  0  0  0  0  0  0  0  0  0  0
  -21.7290   -6.2510   22.6120 C   0  0  0  0  0  0  0  0  0  0  0  0
  -21.2530   -6.8180   23.8140 C   0  0  0  0  0  3  0  0  0  0  0  0
  -21.1210   -6.0170   24.9660 C   0  0  0  0  0  3  0  0  0  0  0  0
  -21.4540   -4.6500   24.9170 C   0  0  0  0  0  0  0  0  0  0  0  0
  -21.9220   -4.0830   23.7170 C   0  0  0  0  0  3  0  0  0  0  0  0
  -22.0560   -4.8810   22.5680 C   0  0  0  0  0  0  0  0  0  0  0  0
  -22.4880   -4.3260   21.4100 F   0  0  0  0  0  0  0  0  0  0  0  0
  -21.3200   -3.8780   26.0200 F   0  0  0  0  0  0  0  0  0  0  0  0
  -22.9180  -13.6110   21.1040 C   0  0  0  0  0  0  0  0  0  0  0  0
  -22.1810  -12.9270   21.9720 N   0  0  0  0  0  0  0  0  0  0  0  0
  -22.4870  -14.6280   20.5640 O   0  0  0  0  0  0  0  0  0  0  0  0
  -22.5420  -12.1010   22.4240 H   0  0  0  0  0  0  0  0  0  0  0  0
  -21.2410  -13.2290   22.1850 H   0  0  0  0  0  0  0  0  0  0  0  0
  -25.5710  -15.2640   20.3150 N   0  0  0  0  0  0  0  0  0  0  0  0
  -24.8070  -15.9250   20.3980 H   0  0  0  0  0  0  0  0  0  0  0  0
  -26.4360  -15.6890   20.0090 H   0  0  0  0  0  0  0  0  0  0  0  0
  1  3  2  0
  1  6  1  0
  2  4  1  0
  3  5  1  0
  4  8  1  0
  5 50  1  0
  5  4  2  0
  6  2  2  0
  7  3  1  0
  9 11  1  0
  9  6  1  0
 10 21  2  0
 11 16  1  0
 12 20  1  0
 12 22  1  0
 13 19  1  0
 13 15  1  0
 14 20  1  0
 15 14  1  0
 16 15  2  0
 17 18  1  0
 17 11  2  0
 18 13  2  0
 19 12  1  0
 20 10  1  0
 22 24  2  0
 23 22  1  0
 25 23  1  0
 26 35  2  0
 26 31  1  0
 27 23  1  0
 27 31  1  0
 28 27  1  0
 29 30  1  0
 29 28  1  0
 30 26  1  0
 31 32  2  0
 32 33  1  0
 34 33  2  0
 35 34  1  0
 36 10  1  0
 36 37  1  0
 36 46  1  0
 37 40  1  0
 38 42  1  0
 38 37  1  0
 39 38  2  0
 42 41  1  0
 44 42  1  0
 44 45  1  0
 44 43  1  0
 46 49  1  1
 46 47  1  0
 48 46  1  0
 50 51  1  0
 51 53  1  0
 52 51  1  0
 55 60  1  0
 56 57  1  0
 56 55  1  0
 58 57  1  0
 58 70  1  0
 58 59  1  0
 60 54  1  0
 60 59  1  0
 61 54  2  0
 62 65  1  0
 63 62  1  0
 63 66  1  0
 65 51  1  0
 65 64  1  0
 66 54  1  0
 66 64  1  0
 67 68  2  0
 68 87  1  0
 69 68  1  0
 69 72  1  0
 70 67  1  0
 70 71  1  0
 71 69  2  0
 72 73  1  0
 73 74  2  0
 75 78  1  0
 75 74  1  0
 76 75  2  0
 77 76  1  0
 77 72  2  0
 78 79  1  0
 79 80  1  0
 80 81  2  0
 82 81  1  0
 82 86  1  0
 83 82  2  0
 84 79  2  0
 84 83  1  0
 85 84  1  0
 87 88  1  0
 88 91  1  0
 88 90  1  0
 89 87  2  0
 92 93  1  0
 92 67  1  0
 94 92  1  0
M  ISO  4   6 101   9 101  54 100  66 100
M  END
>  <TORSDO>  (5) 
F 18

>  <SCORE>  (5) 
-14.590

>  <name>  (5) 
4

>  <ligand_id>  (5) 
4

>  <original_smiles>  (5) 
[H]c1c([H])c([H])c2c(c1[H])C([H])([H])C([H])([H])C([H])([H])C2([H])N([H])C(=O)C1([H])N(C(=O)C([H])(N([H])C(=O)C([H])(N([H])C([H])([H])[H])C([H])([H])[H])C(C([H])([H])[H])(C([H])([H])[H])C([H])([H])[H])C([H])([H])c2c([H])c(Oc3c([H])c(C([H])([H])[H])c(C([H])([H])[N+]([H])([H])C4([H])C([H])([H])N(C(=O)N5C([H])([H])C([H])([H])C([H])([H])C([H])(n6nc(-c7c([H])c([H])c(Oc8c([H])c([H])c(F)c([H])c8F)c([H])c7[H])c(C(=O)N([H])[H])c6N([H])[H])C5([H])[H])C([H])([H])C4([H])[H])c(C([H])([H])[H])c3[H])c([H])c([H])c2C1([H])[H]

>  <smiles>  (5) 
[H]c1c([H])c([H])c2c(c1[H])C([H])([H])C([H])([H])C([H])([H])C2([H])N([H])C(=O)C1([H])N(C(=O)C([H])(N([H])C(=O)C([H])(N([H])C([H])([H])[H])C([H])([H])[H])C(C([H])([H])[H])(C([H])([H])[H])C([H])([H])[H])C([H])([H])c2c([H])c(Oc3c([H])c(C([H])([H])[H])c(C([H])([H])[N+]([H])([H])C4([H])C([H])([H])N(C(=O)N5C([H])([H])C([H])([H])C([H])([H])C([H])(n6nc(-c7c([H])c([H])c(Oc8c([H])c([H])c(F)c([H])c8F)c([H])c7[H])c(C(=O)N([H])[H])c6N([H])[H])C5([H])[H])C([H])([H])C4([H])[H])c(C([H])([H])[H])c3[H])c([H])c([H])c2C1([H])[H]

$$$$
5:0:0
     RDKit          3D

 99110  0  0  1  0  0  0  0  0999 V2000
  -29.7980  -20.5300   19.9410 C   0  0  0  0  0  3  0  0  0  0  0  0
  -28.0000  -22.3510   20.7370 C   0  0  0  0  0  2  0  0  0  0  0  0
  -28.8130  -23.4290   20.0570 C   0  0  0  0  0  3  0  0  0  0  0  0
  -28.8140  -21.8190   19.5870 C   0  0  0  0  0  3  0  0  0  0  0  0
  -27.9440  -24.7640   19.5940 C   0  0  0  0  0  2  0  0  0  0  0  0
  -28.1600  -26.2560   19.9500 O   0  0  0  0  0  0  0  0  0  0  0  0
  -24.5230  -31.8540   23.0570 C   0  0  0  0  0  0  0  0  0  0  0  0
  -27.0860  -27.2160   19.9080 C   0  0  0  0  0  0  0  0  0  0  0  0
  -23.3020  -30.4610   21.4330 C   0  0  0  0  0  3  0  0  0  0  0  0
  -24.7340  -28.9210   19.9580 C   0  0  0  0  0  0  0  0  0  0  0  0
  -25.8470  -30.7590   21.2130 C   0  0  0  0  0  2  0  0  0  0  0  0
  -25.9210  -29.3750   20.5460 C   0  0  0  0  0  0  0  0  0  0  0  0
  -27.0960  -28.5360   20.5120 C   0  0  0  0  0  3  0  0  0  0  0  0
  -25.8730  -26.8680   19.2720 C   0  0  0  0  0  3  0  0  0  0  0  0
  -24.7200  -27.6790   19.3080 C   0  0  0  0  0  3  0  0  0  0  0  0
  -23.4990  -29.8010   20.0440 C   0  0  0  0  0  2  0  0  0  0  0  0
  -24.5790  -31.0460   21.9550 N   0  0  0  0  0  0  0  0  0  0  0  0
  -23.4470  -32.1220   23.6120 O   0  0  0  0  0  0  0  0  0  0  0  0
  -22.6600  -29.4350   22.4000 C   0  0  0  0  0  0  0  0  0  0  0  0
  -21.3330  -29.2440   22.2950 N   0  0  0  0  0  0  0  0  0  0  0  0
  -23.3560  -28.8140   23.2060 O   0  0  0  0  0  0  0  0  0  0  0  0
  -20.8280  -29.7950   21.6150 H   0  0  0  0  0  0  0  0  0  0  0  0
  -17.9800  -27.9890   22.8470 C   0  0  0  0  0  0  0  0  0  0  0  0
  -20.5390  -28.2930   23.0770 C   0  0  0  0  0  3  0  0  0  0  0  0
  -20.6540  -26.8650   22.4970 C   0  0  0  0  0  2  0  0  0  0  0  0
  -19.5430  -26.5270   21.4980 C   0  0  0  0  0  2  0  0  0  0  0  0
  -18.1680  -26.6470   22.1610 C   0  0  0  0  0  2  0  0  0  0  0  0
  -19.0920  -28.7690   23.2620 C   0  0  0  0  0  0  0  0  0  0  0  0
  -18.8600  -30.0240   23.8660 C   0  0  0  0  0  3  0  0  0  0  0  0
  -17.5500  -30.5020   24.0540 C   0  0  0  0  0  3  0  0  0  0  0  0
  -16.4520  -29.7220   23.6530 C   0  0  0  0  0  3  0  0  0  0  0  0
  -16.6680  -28.4650   23.0570 C   0  0  0  0  0  3  0  0  0  0  0  0
  -25.8100  -32.4970   23.6610 C   0  0  0  0  0  3  0  0  0  0  0  0
  -25.4800  -33.8770   24.0490 N   0  0  0  0  0  0  0  0  0  0  0  0
  -25.7720  -34.9640   23.3240 C   0  0  0  0  0  0  0  0  0  0  0  0
  -26.4180  -34.9100   22.2730 O   0  0  0  0  0  0  0  0  0  0  0  0
  -24.9000  -33.9890   24.8680 H   0  0  0  0  0  0  0  0  0  0  0  0
  -24.0050  -36.7370   23.0830 C   0  0  0  0  0  1  0  0  0  0  0  0
  -25.2740  -36.3270   23.8450 C   0  0  0  0  0  3  0  0  0  0  0  0
  -27.4160  -37.2170   24.6530 C   0  0  0  0  0  1  0  0  0  0  0  0
  -26.2850  -37.4020   23.7470 N   0  0  0  0  0  0  0  0  0  0  0  0
  -25.8680  -38.3090   23.9420 H   0  0  0  0  0  0  0  0  0  0  0  0
  -26.3790  -31.6990   24.8980 C   0  0  1  0  0  0  0  0  0  0  0  0
  -25.3190  -31.4010   25.9840 C   0  0  0  0  0  1  0  0  0  0  0  0
  -26.9860  -30.3500   24.4520 C   0  0  0  0  0  1  0  0  0  0  0  0
  -27.5310  -32.5000   25.5510 C   0  0  0  0  0  1  0  0  0  0  0  0
  -31.2700  -20.9570   19.7480 C   0  0  0  0  0  2  0  0  0  0  0  0
  -31.7800  -22.8300   17.9600 C   0  0  0  0  0  2  0  0  0  0  0  0
  -32.9900  -21.9300   18.0050 C   0  0  0  0  0  2  0  0  0  0  0  0
  -31.6210  -21.3710   18.3270 C   0  0  0  0  0  3  0  0  0  0  0  0
  -29.6300  -18.9500   19.3720 C   0  0  0  0  0  2  0  0  0  0  0  0
  -30.6560  -14.9980   19.4690 C   0  0  0  0  0  0  0  0  0  0  0  0
  -30.3290  -12.7260   18.3940 C   0  0  0  0  0  2  0  0  0  0  0  0
  -29.2140  -12.8010   17.3270 C   0  0  0  0  0  2  0  0  0  0  0  0
  -27.8250  -12.6020   17.9660 C   0  0  0  0  0  2  0  0  0  0  0  0
  -27.6430  -13.4470   19.2540 C   0  0  0  0  0  3  0  0  0  0  0  0
  -28.8560  -13.3290   20.1990 C   0  0  0  0  0  2  0  0  0  0  0  0
  -30.0370  -13.7500   19.4330 N   0  0  0  0  0  0  0  0  0  0  0  0
  -31.7280  -15.1290   18.8700 O   0  0  0  0  0  0  0  0  0  0  0  0
  -30.6000  -16.1260   21.5260 C   0  0  0  0  0  2  0  0  0  0  0  0
  -31.1840  -17.5120   21.1910 C   0  0  0  0  0  3  0  0  0  0  0  0
  -29.9300  -17.6580   20.3670 C   0  0  0  0  0  3  0  0  0  0  0  0
  -30.0260  -16.0730   20.1500 N   0  0  0  0  0  0  0  0  0  0  0  0
  -32.6870  -19.3060   22.1730 C   0  0  0  0  0  3  0  0  0  0  0  0
  -30.5610  -18.8300   23.2730 C   0  0  0  0  0  3  0  0  0  0  0  0
  -31.9690  -20.6480   24.0780 C   0  0  0  0  0  3  0  0  0  0  0  0
  -31.4990  -18.5490   22.2550 C   0  0  0  0  0  0  0  0  0  0  0  0
  -32.9180  -20.3590   23.0780 C   0  0  0  0  0  0  0  0  0  0  0  0
  -30.7900  -19.8850   24.1770 C   0  0  0  0  0  0  0  0  0  0  0  0
  -34.1790  -21.1920   22.9620 C   0  0  0  0  0  1  0  0  0  0  0  0
  -29.7580  -20.2120   25.2370 C   0  0  0  0  0  1  0  0  0  0  0  0
  -25.4030  -14.0260   20.3510 C   0  0  0  0  0  0  0  0  0  0  0  0
  -24.3890  -13.2500   20.8430 C   0  0  0  0  0  0  0  0  0  0  0  0
  -24.8210  -11.8950   20.6950 C   0  0  0  0  0  0  0  0  0  0  0  0
  -26.3850  -13.1460   19.9300 N   0  0  0  0  0  0  0  0  0  0  0  0
  -26.0540  -11.8570   20.1990 N   0  0  0  0  0  0  0  0  0  0  0  0
  -24.1080  -10.6360   20.9420 C   0  0  0  0  0  0  0  0  0  0  0  0
  -24.5820   -9.6900   21.8790 C   0  0  0  0  0  3  0  0  0  0  0  0
  -23.8680   -8.4950   22.1140 C   0  0  0  0  0  3  0  0  0  0  0  0
  -22.6660   -8.2380   21.4140 C   0  0  0  0  0  0  0  0  0  0  0  0
  -22.2110   -9.1710   20.4660 C   0  0  0  0  0  3  0  0  0  0  0  0
  -22.9260  -10.3570   20.2280 C   0  0  0  0  0  3  0  0  0  0  0  0
  -21.9180   -7.0930   21.5580 O   0  0  0  0  0  0  0  0  0  0  0  0
  -21.8240   -6.4430   22.7620 C   0  0  0  0  0  0  0  0  0  0  0  0
  -21.3270   -7.0840   23.9180 C   0  0  0  0  0  3  0  0  0  0  0  0
  -21.1820   -6.3600   25.1180 C   0  0  0  0  0  3  0  0  0  0  0  0
  -21.5220   -4.9940   25.1610 C   0  0  0  0  0  0  0  0  0  0  0  0
  -22.0100   -4.3520   24.0100 C   0  0  0  0  0  3  0  0  0  0  0  0
  -22.1580   -5.0750   22.8130 C   0  0  0  0  0  0  0  0  0  0  0  0
  -22.6090   -4.4460   21.6990 F   0  0  0  0  0  0  0  0  0  0  0  0
  -21.3750   -4.2940   26.3110 F   0  0  0  0  0  0  0  0  0  0  0  0
  -23.0560  -13.7300   21.3340 C   0  0  0  0  0  0  0  0  0  0  0  0
  -22.4660  -13.0270   22.2950 N   0  0  0  0  0  0  0  0  0  0  0  0
  -22.5490  -14.7640   20.8990 O   0  0  0  0  0  0  0  0  0  0  0  0
  -22.8920  -12.1900   22.6640 H   0  0  0  0  0  0  0  0  0  0  0  0
  -21.5780  -13.3320   22.6670 H   0  0  0  0  0  0  0  0  0  0  0  0
  -25.5640  -15.4020   20.2060 N   0  0  0  0  0  0  0  0  0  0  0  0
  -24.8420  -16.0650   20.4630 H   0  0  0  0  0  0  0  0  0  0  0  0
  -26.3830  -15.8420   19.8060 H   0  0  0  0  0  0  0  0  0  0  0  0
  1 51  1  0
  3  5  1  0
  3  2  1  0
  4  1  1  0
  4  3  1  0
  4  2  1  0
  5  6  1  0
  7 18  2  0
  8  6  1  0
  8 13  1  0
  9 17  1  0
  9 19  1  0
 10 16  1  0
 10 12  1  0
 11 17  1  0
 12 11  1  0
 13 12  2  0
 14 15  1  0
 14  8  2  0
 15 10  2  0
 16  9  1  0
 17  7  1  0
 19 21  2  0
 20 19  1  0
 22 20  1  0
 23 32  2  0
 23 28  1  0
 24 20  1  0
 24 28  1  0
 25 24  1  0
 26 27  1  0
 26 25  1  0
 27 23  1  0
 28 29  2  0
 29 30  1  0
 31 30  2  0
 32 31  1  0
 33  7  1  0
 33 34  1  0
 33 43  1  0
 34 37  1  0
 35 39  1  0
 35 34  1  0
 36 35  2  0
 39 38  1  0
 41 39  1  0
 41 42  1  0
 41 40  1  0
 43 46  1  1
 43 44  1  0
 45 43  1  0
 47  1  1  0
 48 49  1  0
 48 50  1  0
 49 50  1  0
 50 47  1  0
 52 63  1  0
 53 58  1  0
 54 55  1  0
 54 53  1  0
 56 55  1  0
 56 75  1  0
 56 57  1  0
 58 52  1  0
 58 57  1  0
 59 52  2  0
 61 60  1  0
 61 67  1  0
 62 51  1  0
 62 61  1  0
 63 62  1  0
 63 60  1  0
 64 67  2  0
 64 68  1  0
 65 69  2  0
 66 69  1  0
 67 65  1  0
 68 66  2  0
 69 71  1  0
 70 68  1  0
 72 73  2  0
 73 92  1  0
 74 73  1  0
 74 77  1  0
 75 76  1  0
 75 72  1  0
 76 74  2  0
 77 78  1  0
 78 79  2  0
 80 83  1  0
 80 79  1  0
 81 80  2  0
 82 81  1  0
 82 77  2  0
 83 84  1  0
 84 89  2  0
 84 85  1  0
 85 86  2  0
 86 87  1  0
 87 91  1  0
 88 87  2  0
 89 88  1  0
 90 89  1  0
 92 93  1  0
 93 95  1  0
 93 96  1  0
 94 92  2  0
 97 72  1  0
 97 98  1  0
 99 97  1  0
M  ISO  4   5 101   6 101  52 100  63 100
M  END
>  <TORSDO>  (6) 
F 22

>  <SCORE>  (6) 
-10.494

>  <name>  (6) 
5

>  <ligand_id>  (6) 
5

>  <original_smiles>  (6) 
[H]c1c([H])c([H])c2c(c1[H])C([H])([H])C([H])([H])C([H])([H])C2([H])N([H])C(=O)C1([H])N(C(=O)C([H])(N([H])C(=O)C([H])(N([H])C([H])([H])[H])C([H])([H])[H])C(C([H])([H])[H])(C([H])([H])[H])C([H])([H])[H])C([H])([H])c2c([H])c(OC([H])([H])C3([H])C([H])([H])C3([H])C([H])(C([H])([H])C3([H])N(C(=O)N4C([H])([H])C([H])([H])C([H])([H])C([H])(n5nc(-c6c([H])c([H])c(Oc7c([H])c([H])c(F)c([H])c7F)c([H])c6[H])c(C(=O)N([H])[H])c5N([H])[H])C4([H])[H])C([H])([H])C3([H])c3c([H])c(C([H])([H])[H])c([H])c(C([H])([H])[H])c3[H])C([H])([H])C3([H])C([H])([H])C3([H])[H])c([H])c([H])c2C1([H])[H]

>  <smiles>  (6) 
[H]c1c([H])c([H])c2c(c1[H])C([H])([H])C([H])([H])C([H])([H])C2([H])N([H])C(=O)C1([H])N(C(=O)C([H])(N([H])C(=O)C([H])(N([H])C([H])([H])[H])C([H])([H])[H])C(C([H])([H])[H])(C([H])([H])[H])C([H])([H])[H])C([H])([H])c2c([H])c(OC([H])([H])C3([H])C([H])([H])C3([H])C([H])(C([H])([H])C3([H])N(C(=O)N4C([H])([H])C([H])([H])C([H])([H])C([H])(n5nc(-c6c([H])c([H])c(Oc7c([H])c([H])c(F)c([H])c7F)c([H])c6[H])c(C(=O)N([H])[H])c5N([H])[H])C4([H])[H])C([H])([H])C3([H])c3c([H])c(C([H])([H])[H])c([H])c(C([H])([H])[H])c3[H])C([H])([H])C3([H])C([H])([H])C3([H])[H])c([H])c([H])c2C1([H])[H]

$$$$
6:0:0
     RDKit          3D

 93102  0  0  1  0  0  0  0  0999 V2000
  -29.2250  -19.9450   20.7420 C   0  0  0  0  0  3  0  0  0  0  0  0
  -30.0050  -18.8030   18.7740 C   0  0  0  0  0  3  0  0  0  0  0  0
  -29.5820  -21.1080   18.6760 C   0  0  0  0  0  3  0  0  0  0  0  0
  -29.6500  -18.6970   20.1280 C   0  0  0  0  0  0  0  0  0  0  0  0
  -29.1730  -21.2100   20.0250 C   0  0  0  0  0  0  0  0  0  0  0  0
  -29.9730  -19.9610   18.0720 N   0  0  0  0  0  0  0  0  0  0  0  0
  -28.7090  -22.4670   20.5880 N   0  0  0  0  0  0  0  0  0  0  0  0
  -28.3290  -22.4090   21.5330 H   0  0  0  0  0  0  0  0  0  0  0  0
  -29.0700  -23.8870   20.1620 C   0  0  0  0  0  3  0  0  0  0  0  0
  -27.9030  -25.0080   20.0990 C   0  0  0  0  0  3  0  0  0  0  0  0
  -28.1800  -26.4900   20.0400 O   0  0  0  0  0  0  0  0  0  0  0  0
  -24.5560  -31.9410   23.2040 C   0  0  0  0  0  0  0  0  0  0  0  0
  -27.0810  -27.3860   20.0250 C   0  0  0  0  0  0  0  0  0  0  0  0
  -23.3150  -30.5710   21.5720 C   0  0  0  0  0  3  0  0  0  0  0  0
  -24.7280  -29.0420   20.0860 C   0  0  0  0  0  0  0  0  0  0  0  0
  -25.8530  -30.8780   21.3360 C   0  0  0  0  0  2  0  0  0  0  0  0
  -25.9160  -29.5080   20.6640 C   0  0  0  0  0  0  0  0  0  0  0  0
  -27.0960  -28.6950   20.6170 C   0  0  0  0  0  3  0  0  0  0  0  0
  -25.8670  -26.9940   19.4160 C   0  0  0  0  0  3  0  0  0  0  0  0
  -24.7090  -27.7940   19.4500 C   0  0  0  0  0  3  0  0  0  0  0  0
  -23.4950  -29.9200   20.1770 C   0  0  0  0  0  2  0  0  0  0  0  0
  -24.5970  -31.1470   22.0930 N   0  0  0  0  0  0  0  0  0  0  0  0
  -23.4850  -32.2130   23.7660 O   0  0  0  0  0  0  0  0  0  0  0  0
  -22.6710  -29.5390   22.5310 C   0  0  0  0  0  0  0  0  0  0  0  0
  -21.3470  -29.3410   22.4110 N   0  0  0  0  0  0  0  0  0  0  0  0
  -23.3620  -28.9220   23.3460 O   0  0  0  0  0  0  0  0  0  0  0  0
  -20.8460  -29.8920   21.7280 H   0  0  0  0  0  0  0  0  0  0  0  0
  -17.9910  -28.0910   22.9310 C   0  0  0  0  0  0  0  0  0  0  0  0
  -20.5470  -28.3880   23.1830 C   0  0  0  0  0  3  0  0  0  0  0  0
  -20.6640  -26.9600   22.6010 C   0  0  0  0  0  2  0  0  0  0  0  0
  -19.5620  -26.6270   21.5910 C   0  0  0  0  0  2  0  0  0  0  0  0
  -18.1820  -26.7480   22.2470 C   0  0  0  0  0  2  0  0  0  0  0  0
  -19.1000  -28.8680   23.3570 C   0  0  0  0  0  0  0  0  0  0  0  0
  -18.8670  -30.1240   23.9570 C   0  0  0  0  0  3  0  0  0  0  0  0
  -17.5560  -30.6040   24.1340 C   0  0  0  0  0  3  0  0  0  0  0  0
  -16.4610  -29.8230   23.7230 C   0  0  0  0  0  3  0  0  0  0  0  0
  -16.6790  -28.5690   23.1280 C   0  0  0  0  0  3  0  0  0  0  0  0
  -25.8530  -32.5630   23.8040 C   0  0  0  0  0  3  0  0  0  0  0  0
  -25.5550  -33.9600   24.1520 N   0  0  0  0  0  0  0  0  0  0  0  0
  -25.8840  -35.0190   23.4000 C   0  0  0  0  0  0  0  0  0  0  0  0
  -26.5410  -34.9220   22.3590 O   0  0  0  0  0  0  0  0  0  0  0  0
  -24.9650  -34.1080   24.9570 H   0  0  0  0  0  0  0  0  0  0  0  0
  -24.1720  -36.8350   23.0740 C   0  0  0  0  0  1  0  0  0  0  0  0
  -25.4120  -36.4070   23.8760 C   0  0  0  0  0  3  0  0  0  0  0  0
  -27.5560  -37.2660   24.7150 C   0  0  0  0  0  1  0  0  0  0  0  0
  -26.4550  -37.4510   23.7710 N   0  0  0  0  0  0  0  0  0  0  0  0
  -26.0590  -38.3740   23.9220 H   0  0  0  0  0  0  0  0  0  0  0  0
  -26.3890  -31.7810   25.0660 C   0  0  1  0  0  0  0  0  0  0  0  0
  -25.3090  -31.5210   26.1430 C   0  0  0  0  0  1  0  0  0  0  0  0
  -26.9800  -30.4130   24.6520 C   0  0  0  0  0  1  0  0  0  0  0  0
  -27.5410  -32.5770   25.7230 C   0  0  0  0  0  1  0  0  0  0  0  0
  -29.8550  -17.3260   20.9200 C   0  0  0  0  0  0  0  0  0  0  0  0
  -30.4480  -14.8730   19.9760 C   0  0  0  0  0  0  0  0  0  0  0  0
  -30.2410  -12.6220   18.8920 C   0  0  0  0  0  2  0  0  0  0  0  0
  -29.2010  -12.6920   17.7520 C   0  0  0  0  0  2  0  0  0  0  0  0
  -27.7750  -12.4700   18.2940 C   0  0  0  0  0  2  0  0  0  0  0  0
  -27.4760  -13.3160   19.5600 C   0  0  0  0  0  3  0  0  0  0  0  0
  -28.6230  -13.2250   20.5870 C   0  0  0  0  0  2  0  0  0  0  0  0
  -29.8560  -13.6330   19.9000 N   0  0  0  0  0  0  0  0  0  0  0  0
  -31.6040  -15.0390   19.5830 O   0  0  0  0  0  0  0  0  0  0  0  0
  -29.6280  -15.9330   20.3320 N   0  0  0  0  0  4  0  0  0  0  0  0
  -28.6790  -15.6210   20.4670 H   0  0  0  0  0  0  0  0  0  0  0  0
  -25.1450  -13.8260   20.5010 C   0  0  0  0  0  0  0  0  0  0  0  0
  -24.1330  -13.0140   20.9370 C   0  0  0  0  0  0  0  0  0  0  0  0
  -24.6240  -11.6770   20.8240 C   0  0  0  0  0  0  0  0  0  0  0  0
  -26.1840  -12.9810   20.1500 N   0  0  0  0  0  0  0  0  0  0  0  0
  -25.8820  -11.6830   20.4040 N   0  0  0  0  0  0  0  0  0  0  0  0
  -23.9440  -10.3920   21.0310 C   0  0  0  0  0  0  0  0  0  0  0  0
  -24.4090   -9.4570   21.9820 C   0  0  0  0  0  3  0  0  0  0  0  0
  -23.7290   -8.2360   22.1770 C   0  0  0  0  0  3  0  0  0  0  0  0
  -22.5680   -7.9420   21.4210 C   0  0  0  0  0  0  0  0  0  0  0  0
  -22.1220   -8.8670   20.4610 C   0  0  0  0  0  3  0  0  0  0  0  0
  -22.8040  -10.0790   20.2640 C   0  0  0  0  0  3  0  0  0  0  0  0
  -21.8570   -6.7710   21.5240 O   0  0  0  0  0  0  0  0  0  0  0  0
  -21.7590   -6.0910   22.7120 C   0  0  0  0  0  0  0  0  0  0  0  0
  -21.1870   -6.6770   23.8620 C   0  0  0  0  0  3  0  0  0  0  0  0
  -21.0420   -5.9180   25.0410 C   0  0  0  0  0  3  0  0  0  0  0  0
  -21.4600   -4.5740   25.0690 C   0  0  0  0  0  0  0  0  0  0  0  0
  -22.0240   -3.9870   23.9230 C   0  0  0  0  0  3  0  0  0  0  0  0
  -22.1700   -4.7430   22.7470 C   0  0  0  0  0  0  0  0  0  0  0  0
  -22.6950   -4.1660   21.6390 F   0  0  0  0  0  0  0  0  0  0  0  0
  -21.3130   -3.8430   26.1980 F   0  0  0  0  0  0  0  0  0  0  0  0
  -22.7530  -13.4480   21.3400 C   0  0  0  0  0  0  0  0  0  0  0  0
  -22.1110  -12.6980   22.2280 N   0  0  0  0  0  0  0  0  0  0  0  0
  -22.2560  -14.4840   20.9030 O   0  0  0  0  0  0  0  0  0  0  0  0
  -22.5270  -11.8580   22.6010 H   0  0  0  0  0  0  0  0  0  0  0  0
  -21.1880  -12.9670   22.5390 H   0  0  0  0  0  0  0  0  0  0  0  0
  -25.2580  -15.2050   20.3520 N   0  0  0  0  0  0  0  0  0  0  0  0
  -24.4720  -15.8220   20.5230 H   0  0  0  0  0  0  0  0  0  0  0  0
  -26.0400  -15.6750   19.9130 H   0  0  0  0  0  0  0  0  0  0  0  0
  -31.0610  -18.1320   23.1070 C   0  0  0  0  0  2  0  0  0  0  0  0
  -31.2390  -16.6350   23.0500 C   0  0  0  0  0  2  0  0  0  0  0  0
  -31.1110  -17.4270   21.7670 C   0  0  0  0  0  3  0  0  0  0  0  0
  2  4  2  0
  3  5  1  0
  4  1  1  0
  4 52  1  0
  5  7  1  0
  5  1  2  0
  6  3  2  0
  6  2  1  0
  7  8  1  0
  9  7  1  0
 10  9  2  0
 11 10  1  0
 12 23  2  0
 13 11  1  0
 13 18  1  0
 14 22  1  0
 14 24  1  0
 15 21  1  0
 15 17  1  0
 16 22  1  0
 17 16  1  0
 18 17  2  0
 19 20  1  0
 19 13  2  0
 20 15  2  0
 21 14  1  0
 22 12  1  0
 24 26  2  0
 25 24  1  0
 27 25  1  0
 28 37  2  0
 28 33  1  0
 29 25  1  0
 29 33  1  0
 30 29  1  0
 31 32  1  0
 31 30  1  0
 32 28  1  0
 33 34  2  0
 34 35  1  0
 36 35  2  0
 37 36  1  0
 38 12  1  0
 38 39  1  0
 38 48  1  0
 39 42  1  0
 40 44  1  0
 40 39  1  0
 41 40  2  0
 44 43  1  0
 46 44  1  0
 46 47  1  0
 46 45  1  0
 48 51  1  1
 48 49  1  0
 50 48  1  0
 52 93  1  0
 53 61  1  0
 54 59  1  0
 55 56  1  0
 55 54  1  0
 57 56  1  0
 57 66  1  0
 57 58  1  0
 59 53  1  0
 59 58  1  0
 60 53  2  0
 61 62  1  0
 61 52  2  0
 63 64  2  0
 64 83  1  0
 65 64  1  0
 65 68  1  0
 66 67  1  0
 66 63  1  0
 67 65  2  0
 68 69  1  0
 69 70  2  0
 71 74  1  0
 71 70  1  0
 72 71  2  0
 73 72  1  0
 73 68  2  0
 74 75  1  0
 75 80  2  0
 75 76  1  0
 76 77  2  0
 77 78  1  0
 78 82  1  0
 79 78  2  0
 80 79  1  0
 81 80  1  0
 83 84  1  0
 84 87  1  0
 84 86  1  0
 85 83  2  0
 88 63  1  0
 88 89  1  0
 90 88  1  0
 92 91  1  0
 93 92  1  0
 93 91  1  0
M  ISO  4  10 101  11 101  53 100  61 100
M  END
>  <TORSDO>  (7) 
F 21

>  <SCORE>  (7) 
-12.367

>  <name>  (7) 
6

>  <ligand_id>  (7) 
6

>  <original_smiles>  (7) 
[H]c1nc([H])c(C([H])(N([H])C(=O)N2C([H])([H])C([H])([H])C([H])([H])C([H])(n3nc(-c4c([H])c([H])c(Oc5c([H])c([H])c(F)c([H])c5F)c([H])c4[H])c(C(=O)N([H])[H])c3N([H])[H])C2([H])[H])C2([H])C([H])([H])C2([H])[H])c([H])c1N([H])C([H])([H])C([H])([H])Oc1c([H])c([H])c2c(c1[H])C([H])([H])N(C(=O)C([H])(N([H])C(=O)C([H])(N([H])C([H])([H])[H])C([H])([H])[H])C(C([H])([H])[H])(C([H])([H])[H])C([H])([H])[H])C([H])(C(=O)N([H])C1([H])c3c([H])c([H])c([H])c([H])c3C([H])([H])C([H])([H])C1([H])[H])C2([H])[H]

>  <smiles>  (7) 
[H]c1nc([H])c(C([H])(N([H])C(=O)N2C([H])([H])C([H])([H])C([H])([H])C([H])(n3nc(-c4c([H])c([H])c(Oc5c([H])c([H])c(F)c([H])c5F)c([H])c4[H])c(C(=O)N([H])[H])c3N([H])[H])C2([H])[H])C2([H])C([H])([H])C2([H])[H])c([H])c1N([H])C([H])([H])C([H])([H])Oc1c([H])c([H])c2c(c1[H])C([H])([H])N(C(=O)C([H])(N([H])C(=O)C([H])(N([H])C([H])([H])[H])C([H])([H])[H])C(C([H])([H])[H])(C([H])([H])[H])C([H])([H])[H])C([H])(C(=O)N([H])C1([H])c3c([H])c([H])c([H])c([H])c3C([H])([H])C([H])([H])C1([H])[H])C2([H])[H]

$$$$
7:0:0
     RDKit          3D

 92101  0  0  1  0  0  0  0  0999 V2000
  -28.2650  -22.6030   21.0080 C   0  0  0  0  0  3  0  0  0  0  0  0
  -29.0930  -21.9940   20.0040 C   0  0  0  0  0  0  0  0  0  0  0  0
  -27.9260  -24.0190   21.0450 C   0  0  0  0  0  0  0  0  0  0  0  0
  -29.4790  -22.9950   19.0440 C   0  0  0  0  0  0  0  0  0  0  0  0
  -28.3810  -24.9400   20.0470 C   0  0  0  0  0  0  0  0  0  0  0  0
  -27.1240  -24.5470   22.2220 C   0  0  0  0  0  1  0  0  0  0  0  0
  -30.3860  -22.6070   17.8920 C   0  0  0  0  0  1  0  0  0  0  0  0
  -29.1550  -24.3510   19.0770 N   0  0  0  0  0  0  0  0  0  0  0  0
  -30.0330  -19.8870   21.4930 C   0  0  0  0  0  2  0  0  0  0  0  0
  -30.5510  -18.4050   21.3540 C   0  0  0  0  0  2  0  0  0  0  0  0
  -29.2740  -19.0500   19.4230 C   0  0  0  0  0  2  0  0  0  0  0  0
  -29.7490  -20.4650   20.0890 C   0  0  0  0  0  3  0  0  0  0  0  0
  -30.2520  -17.8320   19.9380 C   0  0  0  0  0  3  0  0  0  0  0  0
  -30.7000  -15.1150   19.7870 C   0  0  0  0  0  0  0  0  0  0  0  0
  -30.5450  -12.7310   18.9450 C   0  0  0  0  0  2  0  0  0  0  0  0
  -29.5370  -12.6350   17.7760 C   0  0  0  0  0  2  0  0  0  0  0  0
  -28.1050  -12.4390   18.3050 C   0  0  0  0  0  2  0  0  0  0  0  0
  -27.7650  -13.4070   19.4680 C   0  0  0  0  0  3  0  0  0  0  0  0
  -28.8860  -13.4660   20.5260 C   0  0  0  0  0  2  0  0  0  0  0  0
  -30.1140  -13.8540   19.8210 N   0  0  0  0  0  0  0  0  0  0  0  0
  -31.8850  -15.1820   19.4430 O   0  0  0  0  0  0  0  0  0  0  0  0
  -29.9150  -16.2880   19.9430 N   0  0  0  0  0  0  0  0  0  0  0  0
  -28.9470  -16.0820   20.1410 H   0  0  0  0  0  0  0  0  0  0  0  0
  -25.4650  -14.0120   20.4130 C   0  0  0  0  0  0  0  0  0  0  0  0
  -24.4130  -13.2490   20.8380 C   0  0  0  0  0  0  0  0  0  0  0  0
  -24.8390  -11.8890   20.7200 C   0  0  0  0  0  0  0  0  0  0  0  0
  -26.4630  -13.1210   20.0590 N   0  0  0  0  0  0  0  0  0  0  0  0
  -26.1010  -11.8350   20.3080 N   0  0  0  0  0  0  0  0  0  0  0  0
  -24.0970  -10.6370   20.9180 C   0  0  0  0  0  0  0  0  0  0  0  0
  -24.5190   -9.6670   21.8520 C   0  0  0  0  0  3  0  0  0  0  0  0
  -23.7760   -8.4820   22.0390 C   0  0  0  0  0  3  0  0  0  0  0  0
  -22.5960   -8.2580   21.2900 C   0  0  0  0  0  0  0  0  0  0  0  0
  -22.1930   -9.2170   20.3440 C   0  0  0  0  0  3  0  0  0  0  0  0
  -22.9370  -10.3940   20.1550 C   0  0  0  0  0  3  0  0  0  0  0  0
  -21.8250   -7.1260   21.3870 O   0  0  0  0  0  0  0  0  0  0  0  0
  -21.7070   -6.4330   22.5650 C   0  0  0  0  0  0  0  0  0  0  0  0
  -21.1480   -7.0180   23.7220 C   0  0  0  0  0  3  0  0  0  0  0  0
  -20.9830   -6.2490   24.8900 C   0  0  0  0  0  3  0  0  0  0  0  0
  -21.3660   -4.8940   24.9030 C   0  0  0  0  0  0  0  0  0  0  0  0
  -21.9170   -4.3080   23.7500 C   0  0  0  0  0  3  0  0  0  0  0  0
  -22.0830   -5.0750   22.5830 C   0  0  0  0  0  0  0  0  0  0  0  0
  -22.5960   -4.4980   21.4680 F   0  0  0  0  0  0  0  0  0  0  0  0
  -21.2000   -4.1510   26.0220 F   0  0  0  0  0  0  0  0  0  0  0  0
  -23.0540  -13.7460   21.2330 C   0  0  0  0  0  0  0  0  0  0  0  0
  -22.3820  -13.0410   22.1350 N   0  0  0  0  0  0  0  0  0  0  0  0
  -22.6000  -14.7950   20.7780 O   0  0  0  0  0  0  0  0  0  0  0  0
  -22.7660  -12.1920   22.5260 H   0  0  0  0  0  0  0  0  0  0  0  0
  -21.4730  -13.3530   22.4430 H   0  0  0  0  0  0  0  0  0  0  0  0
  -25.6470  -15.3860   20.2730 N   0  0  0  0  0  0  0  0  0  0  0  0
  -24.9000  -16.0460   20.4590 H   0  0  0  0  0  0  0  0  0  0  0  0
  -26.4600  -15.8200   19.8560 H   0  0  0  0  0  0  0  0  0  0  0  0
  -28.3310  -26.4090   20.0650 O   0  0  0  0  0  0  0  0  0  0  0  0
  -24.5400  -31.9360   23.1190 C   0  0  0  0  0  0  0  0  0  0  0  0
  -27.1990  -27.2930   20.0820 C   0  0  0  0  0  0  0  0  0  0  0  0
  -23.3550  -30.5140   21.4890 C   0  0  0  0  0  3  0  0  0  0  0  0
  -24.8240  -28.9620   20.0600 C   0  0  0  0  0  0  0  0  0  0  0  0
  -25.8970  -30.8380   21.3040 C   0  0  0  0  0  2  0  0  0  0  0  0
  -25.9940  -29.4450   20.6600 C   0  0  0  0  0  0  0  0  0  0  0  0
  -27.1790  -28.6240   20.6560 C   0  0  0  0  0  3  0  0  0  0  0  0
  -26.0040  -26.8980   19.4440 C   0  0  0  0  0  3  0  0  0  0  0  0
  -24.8390  -27.7010   19.4390 C   0  0  0  0  0  3  0  0  0  0  0  0
  -23.5790  -29.8340   20.1110 C   0  0  0  0  0  2  0  0  0  0  0  0
  -24.6170  -31.1190   22.0250 N   0  0  0  0  0  0  0  0  0  0  0  0
  -23.4520  -32.1990   23.6560 O   0  0  0  0  0  0  0  0  0  0  0  0
  -22.7070  -29.4940   22.4580 C   0  0  0  0  0  0  0  0  0  0  0  0
  -21.3890  -29.2680   22.3180 N   0  0  0  0  0  0  0  0  0  0  0  0
  -23.3940  -28.9070   23.2990 O   0  0  0  0  0  0  0  0  0  0  0  0
  -20.8910  -29.7960   21.6140 H   0  0  0  0  0  0  0  0  0  0  0  0
  -18.0590  -27.9170   22.7680 C   0  0  0  0  0  0  0  0  0  0  0  0
  -20.5950  -28.3090   23.0900 C   0  0  0  0  0  3  0  0  0  0  0  0
  -20.7800  -26.8710   22.5520 C   0  0  0  0  0  2  0  0  0  0  0  0
  -19.7200  -26.4720   21.5200 C   0  0  0  0  0  2  0  0  0  0  0  0
  -18.3170  -26.5630   22.1280 C   0  0  0  0  0  2  0  0  0  0  0  0
  -19.1290  -28.7440   23.2050 C   0  0  0  0  0  0  0  0  0  0  0  0
  -18.8330  -30.0060   23.7630 C   0  0  0  0  0  3  0  0  0  0  0  0
  -17.5010  -30.4440   23.8910 C   0  0  0  0  0  3  0  0  0  0  0  0
  -16.4460  -29.6150   23.4700 C   0  0  0  0  0  3  0  0  0  0  0  0
  -16.7260  -28.3550   22.9130 C   0  0  0  0  0  3  0  0  0  0  0  0
  -25.8110  -32.5970   23.7350 C   0  0  0  0  0  3  0  0  0  0  0  0
  -25.4690  -33.9840   24.0880 N   0  0  0  0  0  0  0  0  0  0  0  0
  -25.7770  -35.0590   23.3500 C   0  0  0  0  0  0  0  0  0  0  0  0
  -26.4470  -34.9890   22.3160 O   0  0  0  0  0  0  0  0  0  0  0  0
  -24.8750  -34.1100   24.8940 H   0  0  0  0  0  0  0  0  0  0  0  0
  -24.0300  -36.8410   23.0110 C   0  0  0  0  0  1  0  0  0  0  0  0
  -25.2610  -36.4290   23.8340 C   0  0  0  0  0  3  0  0  0  0  0  0
  -27.3580  -37.3320   24.7410 C   0  0  0  0  0  1  0  0  0  0  0  0
  -26.2810  -37.4990   23.7700 N   0  0  0  0  0  0  0  0  0  0  0  0
  -25.8560  -38.4100   23.9220 H   0  0  0  0  0  0  0  0  0  0  0  0
  -26.3590  -31.8290   25.0010 C   0  0  1  0  0  0  0  0  0  0  0  0
  -25.2750  -31.5210   26.0610 C   0  0  0  0  0  1  0  0  0  0  0  0
  -27.0090  -30.4860   24.5920 C   0  0  0  0  0  1  0  0  0  0  0  0
  -27.4690  -32.6650   25.6820 C   0  0  0  0  0  1  0  0  0  0  0  0
  1  3  2  0
  2  1  1  0
  3  6  1  0
  4  8  1  0
  4  2  2  0
  5 52  1  0
  5  3  1  0
  7  4  1  0
  8  5  2  0
 10  9  1  0
 11 13  1  0
 11 12  1  0
 12  2  1  0
 12  9  1  0
 13 22  1  0
 13 10  1  0
 14 20  1  0
 14 22  1  0
 15 20  1  0
 16 17  1  0
 16 15  1  0
 18 17  1  0
 18 27  1  0
 18 19  1  0
 20 19  1  0
 21 14  2  0
 22 23  1  0
 24 25  2  0
 25 44  1  0
 26 25  1  0
 26 29  1  0
 27 28  1  0
 27 24  1  0
 28 26  2  0
 29 30  1  0
 30 31  2  0
 32 35  1  0
 32 31  1  0
 33 32  2  0
 34 33  1  0
 34 29  2  0
 35 36  1  0
 36 41  2  0
 36 37  1  0
 37 38  2  0
 38 39  1  0
 39 43  1  0
 40 39  2  0
 41 40  1  0
 42 41  1  0
 44 45  1  0
 45 48  1  0
 45 47  1  0
 46 44  2  0
 49 24  1  0
 49 50  1  0
 51 49  1  0
 52 54  1  0
 53 64  2  0
 54 59  1  0
 55 63  1  0
 55 65  1  0
 56 62  1  0
 56 58  1  0
 57 63  1  0
 58 57  1  0
 59 58  2  0
 60 54  2  0
 61 60  1  0
 61 56  2  0
 62 55  1  0
 63 53  1  0
 65 67  2  0
 66 65  1  0
 68 66  1  0
 69 78  2  0
 69 74  1  0
 70 66  1  0
 70 74  1  0
 71 70  1  0
 72 73  1  0
 72 71  1  0
 73 69  1  0
 74 75  2  0
 75 76  1  0
 77 76  2  0
 78 77  1  0
 79 53  1  0
 79 80  1  0
 79 89  1  0
 80 83  1  0
 81 85  1  0
 81 80  1  0
 82 81  2  0
 85 84  1  0
 87 85  1  0
 87 88  1  0
 87 86  1  0
 89 92  1  1
 89 90  1  0
 91 89  1  0
M  ISO  4   5 101  14 100  22 100  52 101
M  END
>  <TORSDO>  (8) 
F 17

>  <SCORE>  (8) 
-14.590

>  <name>  (8) 
7

>  <ligand_id>  (8) 
7

>  <original_smiles>  (8) 
[H]c1c([H])c([H])c2c(c1[H])C([H])([H])C([H])([H])C([H])([H])C2([H])N([H])C(=O)C1([H])N(C(=O)C([H])(N([H])C(=O)C([H])(N([H])C([H])([H])[H])C([H])([H])[H])C(C([H])([H])[H])(C([H])([H])[H])C([H])([H])[H])C([H])([H])c2c([H])c(Oc3nc(C([H])([H])[H])c(C4([H])C([H])([H])C([H])([H])C([H])(N([H])C(=O)N5C([H])([H])C([H])([H])C([H])([H])C([H])(n6nc(-c7c([H])c([H])c(Oc8c([H])c([H])c(F)c([H])c8F)c([H])c7[H])c(C(=O)N([H])[H])c6N([H])[H])C5([H])[H])C4([H])[H])c([H])c3C([H])([H])[H])c([H])c([H])c2C1([H])[H]

>  <smiles>  (8) 
[H]c1c([H])c([H])c2c(c1[H])C([H])([H])C([H])([H])C([H])([H])C2([H])N([H])C(=O)C1([H])N(C(=O)C([H])(N([H])C(=O)C([H])(N([H])C([H])([H])[H])C([H])([H])[H])C(C([H])([H])[H])(C([H])([H])[H])C([H])([H])[H])C([H])([H])c2c([H])c(Oc3nc(C([H])([H])[H])c(C4([H])C([H])([H])C([H])([H])C([H])(N([H])C(=O)N5C([H])([H])C([H])([H])C([H])([H])C([H])(n6nc(-c7c([H])c([H])c(Oc8c([H])c([H])c(F)c([H])c8F)c([H])c7[H])c(C(=O)N([H])[H])c6N([H])[H])C5([H])[H])C4([H])[H])c([H])c3C([H])([H])[H])c([H])c([H])c2C1([H])[H]

$$$$
8:0:0
     RDKit          3D

 94102  0  0  1  0  0  0  0  0999 V2000
  -28.5860  -20.8000   19.3300 C   0  0  0  0  0  2  0  0  0  0  0  0
  -30.8330  -14.4670   19.6930 C   0  0  0  0  0  0  0  0  0  0  0  0
  -30.4060  -12.3410   18.5270 C   0  0  0  0  0  2  0  0  0  0  0  0
  -29.3430  -12.6280   17.4450 C   0  0  0  0  0  2  0  0  0  0  0  0
  -27.9210  -12.5070   18.0270 C   0  0  0  0  0  2  0  0  0  0  0  0
  -27.7440  -13.3060   19.3450 C   0  0  0  0  0  3  0  0  0  0  0  0
  -28.8990  -12.9850   20.3220 C   0  0  0  0  0  2  0  0  0  0  0  0
  -30.1720  -13.2800   19.6340 N   0  0  0  0  0  0  0  0  0  0  0  0
  -31.8760  -14.6880   19.0640 O   0  0  0  0  0  0  0  0  0  0  0  0
  -30.1320  -17.2920   18.8480 C   0  0  0  0  0  3  0  0  0  0  0  0
  -29.7270  -18.6110   18.5530 C   0  0  0  0  0  0  0  0  0  0  0  0
  -29.0820  -19.3640   19.5640 C   0  0  0  0  0  0  0  0  0  0  0  0
  -28.8710  -18.7310   20.8130 C   0  0  0  0  0  0  0  0  0  0  0  0
  -29.8980  -16.7390   20.1270 C   0  0  0  0  0  0  0  0  0  0  0  0
  -29.9710  -19.1700   17.1620 C   0  0  0  0  0  1  0  0  0  0  0  0
  -28.1590  -19.4140   21.9700 C   0  0  0  0  0  1  0  0  0  0  0  0
  -29.2650  -17.4650   21.0700 N   0  0  0  0  0  0  0  0  0  0  0  0
  -30.2290  -15.3970   20.4530 N   0  0  0  0  0  0  0  0  0  0  0  0
  -29.6330  -15.0070   21.1650 H   0  0  0  0  0  0  0  0  0  0  0  0
  -25.4670  -13.9650   20.3530 C   0  0  0  0  0  0  0  0  0  0  0  0
  -24.4120  -13.2120   20.7960 C   0  0  0  0  0  0  0  0  0  0  0  0
  -24.8050  -11.8500   20.6360 C   0  0  0  0  0  0  0  0  0  0  0  0
  -26.4390  -13.0590   19.9550 N   0  0  0  0  0  0  0  0  0  0  0  0
  -26.0490  -11.7780   20.1780 N   0  0  0  0  0  0  0  0  0  0  0  0
  -24.0500  -10.6070   20.8410 C   0  0  0  0  0  0  0  0  0  0  0  0
  -24.4640   -9.6370   21.7810 C   0  0  0  0  0  3  0  0  0  0  0  0
  -23.7130   -8.4580   21.9700 C   0  0  0  0  0  3  0  0  0  0  0  0
  -22.5340   -8.2390   21.2210 C   0  0  0  0  0  0  0  0  0  0  0  0
  -22.1370   -9.1970   20.2710 C   0  0  0  0  0  3  0  0  0  0  0  0
  -22.8880  -10.3690   20.0790 C   0  0  0  0  0  3  0  0  0  0  0  0
  -21.7540   -7.1120   21.3190 O   0  0  0  0  0  0  0  0  0  0  0  0
  -21.5950   -6.4500   22.5100 C   0  0  0  0  0  0  0  0  0  0  0  0
  -21.0450   -7.0830   23.6460 C   0  0  0  0  0  3  0  0  0  0  0  0
  -20.8330   -6.3470   24.8300 C   0  0  0  0  0  3  0  0  0  0  0  0
  -21.1590   -4.9780   24.8770 C   0  0  0  0  0  0  0  0  0  0  0  0
  -21.7020   -4.3440   23.7440 C   0  0  0  0  0  3  0  0  0  0  0  0
  -21.9170   -5.0780   22.5640 C   0  0  0  0  0  0  0  0  0  0  0  0
  -22.4200   -4.4590   21.4690 F   0  0  0  0  0  0  0  0  0  0  0  0
  -20.9500   -4.2670   26.0110 F   0  0  0  0  0  0  0  0  0  0  0  0
  -23.0790  -13.7240   21.2570 C   0  0  0  0  0  0  0  0  0  0  0  0
  -22.4430  -13.0260   22.1900 N   0  0  0  0  0  0  0  0  0  0  0  0
  -22.6130  -14.7790   20.8250 O   0  0  0  0  0  0  0  0  0  0  0  0
  -22.8320  -12.1700   22.5550 H   0  0  0  0  0  0  0  0  0  0  0  0
  -21.5520  -13.3500   22.5410 H   0  0  0  0  0  0  0  0  0  0  0  0
  -25.6720  -15.3380   20.2350 N   0  0  0  0  0  0  0  0  0  0  0  0
  -24.9490  -16.0120   20.4650 H   0  0  0  0  0  0  0  0  0  0  0  0
  -26.5100  -15.7670   19.8600 H   0  0  0  0  0  0  0  0  0  0  0  0
  -29.5010  -21.8870   19.9380 C   0  0  0  0  0  2  0  0  0  0  0  0
  -28.7300  -23.1040   20.2770 N   0  0  0  0  0  4  0  0  0  0  0  0
  -28.5940  -23.0930   21.2760 H   0  0  0  0  0  0  0  0  0  0  0  0
  -27.8200  -23.0290   19.8530 H   0  0  0  0  0  0  0  0  0  0  0  0
  -29.3050  -24.4200   19.8980 C   0  0  0  0  0  2  0  0  0  0  0  0
  -28.5940  -25.5550   20.6630 C   0  0  0  0  0  2  0  0  0  0  0  0
  -28.6080  -26.7860   19.9360 O   0  0  0  0  0  0  0  0  0  0  0  0
  -24.5360  -31.6640   23.1260 C   0  0  0  0  0  0  0  0  0  0  0  0
  -27.4050  -27.4490   19.9560 C   0  0  0  0  0  0  0  0  0  0  0  0
  -23.3990  -30.2330   21.4560 C   0  0  0  0  0  3  0  0  0  0  0  0
  -24.9290  -28.7990   20.0040 C   0  0  0  0  0  0  0  0  0  0  0  0
  -25.8990  -30.7310   21.2630 C   0  0  0  0  0  2  0  0  0  0  0  0
  -26.0560  -29.3820   20.5970 C   0  0  0  0  0  0  0  0  0  0  0  0
  -27.3000  -28.7160   20.5670 C   0  0  0  0  0  3  0  0  0  0  0  0
  -26.2640  -26.8710   19.3600 C   0  0  0  0  0  3  0  0  0  0  0  0
  -25.0250  -27.5390   19.3870 C   0  0  0  0  0  3  0  0  0  0  0  0
  -23.6400  -29.5860   20.0660 C   0  0  0  0  0  2  0  0  0  0  0  0
  -24.6280  -30.8900   22.0080 N   0  0  0  0  0  0  0  0  0  0  0  0
  -23.4440  -31.8720   23.6720 O   0  0  0  0  0  0  0  0  0  0  0  0
  -22.8000  -29.1640   22.3990 C   0  0  0  0  0  0  0  0  0  0  0  0
  -21.4790  -28.9500   22.2940 N   0  0  0  0  0  0  0  0  0  0  0  0
  -23.5190  -28.5320   23.1760 O   0  0  0  0  0  0  0  0  0  0  0  0
  -20.9590  -29.5140   21.6360 H   0  0  0  0  0  0  0  0  0  0  0  0
  -18.1400  -27.6990   22.8740 C   0  0  0  0  0  0  0  0  0  0  0  0
  -20.7050  -27.9670   23.0500 C   0  0  0  0  0  3  0  0  0  0  0  0
  -20.7950  -26.5680   22.3980 C   0  0  0  0  0  2  0  0  0  0  0  0
  -19.6530  -26.2860   21.4160 C   0  0  0  0  0  2  0  0  0  0  0  0
  -18.2980  -26.3860   22.1240 C   0  0  0  0  0  2  0  0  0  0  0  0
  -19.2700  -28.4490   23.2930 C   0  0  0  0  0  0  0  0  0  0  0  0
  -19.0670  -29.6810   23.9520 C   0  0  0  0  0  3  0  0  0  0  0  0
  -17.7680  -30.1610   24.1970 C   0  0  0  0  0  3  0  0  0  0  0  0
  -16.6530  -29.4060   23.7950 C   0  0  0  0  0  3  0  0  0  0  0  0
  -16.8390  -28.1760   23.1380 C   0  0  0  0  0  3  0  0  0  0  0  0
  -25.7900  -32.3430   23.7580 C   0  0  0  0  0  3  0  0  0  0  0  0
  -26.3370  -31.5850   25.0310 C   0  0  1  0  0  0  0  0  0  0  0  0
  -25.2520  -31.2900   26.0910 C   0  0  0  0  0  1  0  0  0  0  0  0
  -26.9840  -30.2400   24.6280 C   0  0  0  0  0  1  0  0  0  0  0  0
  -27.4480  -32.4270   25.7020 C   0  0  0  0  0  1  0  0  0  0  0  0
  -25.4240  -33.7250   24.0910 N   0  0  0  0  0  0  0  0  0  0  0  0
  -25.7200  -34.7930   23.3380 C   0  0  0  0  0  0  0  0  0  0  0  0
  -26.4010  -34.7210   22.3100 O   0  0  0  0  0  0  0  0  0  0  0  0
  -24.8210  -33.8530   24.8900 H   0  0  0  0  0  0  0  0  0  0  0  0
  -23.9230  -36.5120   22.9700 C   0  0  0  0  0  1  0  0  0  0  0  0
  -25.1700  -36.1580   23.7940 C   0  0  0  0  0  3  0  0  0  0  0  0
  -27.2540  -37.1270   24.6570 C   0  0  0  0  0  1  0  0  0  0  0  0
  -26.1600  -37.2520   23.6970 N   0  0  0  0  0  0  0  0  0  0  0  0
  -25.7150  -38.1550   23.8390 H   0  0  0  0  0  0  0  0  0  0  0  0
  1 12  1  0
  1 48  1  0
  2 18  1  0
  3  8  1  0
  4  5  1  0
  4  3  1  0
  6  5  1  0
  6 23  1  0
  6  7  1  0
  8  2  1  0
  8  7  1  0
  9  2  2  0
 10 14  1  0
 11 10  2  0
 11 12  1  0
 12 13  2  0
 13 17  1  0
 13 16  1  0
 14 18  1  0
 14 17  2  0
 15 11  1  0
 18 19  1  0
 20 21  2  0
 21 40  1  0
 22 21  1  0
 22 25  1  0
 23 24  1  0
 23 20  1  0
 24 22  2  0
 25 26  1  0
 26 27  2  0
 28 31  1  0
 28 27  1  0
 29 28  2  0
 30 29  1  0
 30 25  2  0
 31 32  1  0
 32 37  2  0
 32 33  1  0
 33 34  2  0
 34 35  1  0
 35 39  1  0
 36 35  2  0
 37 36  1  0
 38 37  1  0
 40 41  1  0
 41 44  1  0
 41 43  1  0
 42 40  2  0
 45 20  1  0
 45 46  1  0
 47 45  1  0
 48 49  1  0
 49 50  1  0
 51 49  1  0
 52 49  1  0
 52 53  1  0
 54 56  1  0
 54 53  1  0
 55 66  2  0
 56 61  1  0
 57 65  1  0
 57 67  1  0
 58 64  1  0
 58 60  1  0
 59 65  1  0
 60 59  1  0
 61 60  2  0
 62 63  1  0
 62 56  2  0
 63 58  2  0
 64 57  1  0
 65 55  1  0
 67 69  2  0
 68 67  1  0
 70 68  1  0
 71 80  2  0
 71 76  1  0
 72 68  1  0
 72 76  1  0
 73 72  1  0
 74 75  1  0
 74 73  1  0
 75 71  1  0
 76 77  2  0
 77 78  1  0
 79 78  2  0
 80 79  1  0
 81 55  1  0
 81 86  1  0
 81 82  1  0
 82 85  1  1
 82 83  1  0
 84 82  1  0
 86 89  1  0
 87 91  1  0
 87 86  1  0
 88 87  2  0
 91 90  1  0
 93 91  1  0
 93 94  1  0
 93 92  1  0
M  ISO  4   2 100  18 100  53 101  54 101
M  END
>  <TORSDO>  (9) 
F 20

>  <SCORE>  (9) 
-9.751

>  <name>  (9) 
8

>  <ligand_id>  (9) 
8

>  <original_smiles>  (9) 
[H]c1c([H])c([H])c2c(c1[H])C([H])([H])C([H])([H])C([H])([H])C2([H])N([H])C(=O)C1([H])N(C(=O)C([H])(N([H])C(=O)C([H])(N([H])C([H])([H])[H])C([H])([H])[H])C(C([H])([H])[H])(C([H])([H])[H])C([H])([H])[H])C([H])([H])c2c([H])c(OC([H])([H])C([H])([H])[N+]([H])([H])C([H])([H])C([H])([H])c3c(C([H])([H])[H])nc(N([H])C(=O)N4C([H])([H])C([H])([H])C([H])([H])C([H])(n5nc(-c6c([H])c([H])c(Oc7c([H])c([H])c(F)c([H])c7F)c([H])c6[H])c(C(=O)N([H])[H])c5N([H])[H])C4([H])[H])c([H])c3C([H])([H])[H])c([H])c([H])c2C1([H])[H]

>  <smiles>  (9) 
[H]c1c([H])c([H])c2c(c1[H])C([H])([H])C([H])([H])C([H])([H])C2([H])N([H])C(=O)C1([H])N(C(=O)C([H])(N([H])C(=O)C([H])(N([H])C([H])([H])[H])C([H])([H])[H])C(C([H])([H])[H])(C([H])([H])[H])C([H])([H])[H])C([H])([H])c2c([H])c(OC([H])([H])C([H])([H])[N+]([H])([H])C([H])([H])C([H])([H])c3c(C([H])([H])[H])nc(N([H])C(=O)N4C([H])([H])C([H])([H])C([H])([H])C([H])(n5nc(-c6c([H])c([H])c(Oc7c([H])c([H])c(F)c([H])c7F)c([H])c6[H])c(C(=O)N([H])[H])c5N([H])[H])C4([H])[H])c([H])c3C([H])([H])[H])c([H])c([H])c2C1([H])[H]

$$$$
9:0:0
     RDKit          3D

 90 99  0  0  1  0  0  0  0  0999 V2000
  -26.7190  -23.3800   22.0550 C   0  0  0  0  0  3  0  0  0  0  0  0
  -27.3980  -22.1480   21.8710 C   0  0  0  0  0  3  0  0  0  0  0  0
  -27.0760  -24.6070   21.4030 C   0  0  0  0  0  3  0  0  0  0  0  0
  -28.4340  -22.1830   20.9410 C   0  0  0  0  0  0  0  0  0  0  0  0
  -28.7940  -23.4310   20.2270 C   0  0  0  0  0  0  0  0  0  0  0  0
  -28.1350  -24.7950   20.4570 C   0  0  0  0  0  0  0  0  0  0  0  0
  -29.5890  -21.2950   20.4010 C   0  0  0  0  0  3  0  0  0  0  0  0
  -29.7940  -22.6290   19.5680 O   0  0  0  0  0  0  0  0  0  0  0  0
  -27.9630  -19.1790   20.1850 C   0  0  0  0  0  1  0  0  0  0  0  0
  -29.4060  -19.6190   19.9060 C   0  0  0  0  0  3  0  0  0  0  0  0
  -30.4130  -18.2490   20.3260 C   0  0  0  0  0  2  0  0  0  0  0  0
  -30.8370  -15.4150   20.1990 C   0  0  0  0  0  0  0  0  0  0  0  0
  -30.7690  -12.9860   19.3710 C   0  0  0  0  0  2  0  0  0  0  0  0
  -29.8580  -12.8090   18.1320 C   0  0  0  0  0  2  0  0  0  0  0  0
  -28.3970  -12.5810   18.5570 C   0  0  0  0  0  2  0  0  0  0  0  0
  -27.9490  -13.5720   19.6620 C   0  0  0  0  0  3  0  0  0  0  0  0
  -28.9860  -13.7060   20.7990 C   0  0  0  0  0  2  0  0  0  0  0  0
  -30.2450  -14.1390   20.1750 N   0  0  0  0  0  0  0  0  0  0  0  0
  -32.0520  -15.4320   19.9760 O   0  0  0  0  0  0  0  0  0  0  0  0
  -30.0750  -16.6520   20.2770 N   0  0  0  0  0  0  0  0  0  0  0  0
  -29.0890  -16.4660   20.3820 H   0  0  0  0  0  0  0  0  0  0  0  0
  -25.5810  -14.1730   20.4070 C   0  0  0  0  0  0  0  0  0  0  0  0
  -24.5050  -13.4110   20.7670 C   0  0  0  0  0  0  0  0  0  0  0  0
  -24.9510  -12.0530   20.7300 C   0  0  0  0  0  0  0  0  0  0  0  0
  -26.6120  -13.2810   20.1610 N   0  0  0  0  0  0  0  0  0  0  0  0
  -26.2430  -12.0000   20.4240 N   0  0  0  0  0  0  0  0  0  0  0  0
  -24.2030  -10.8020   20.9110 C   0  0  0  0  0  0  0  0  0  0  0  0
  -24.5880   -9.8440   21.8740 C   0  0  0  0  0  3  0  0  0  0  0  0
  -23.8410   -8.6580   22.0410 C   0  0  0  0  0  3  0  0  0  0  0  0
  -22.6950   -8.4210   21.2440 C   0  0  0  0  0  0  0  0  0  0  0  0
  -22.3320   -9.3660   20.2690 C   0  0  0  0  0  3  0  0  0  0  0  0
  -23.0800  -10.5450   20.1010 C   0  0  0  0  0  3  0  0  0  0  0  0
  -21.9240   -7.2870   21.3180 O   0  0  0  0  0  0  0  0  0  0  0  0
  -21.7830   -6.5890   22.4910 C   0  0  0  0  0  0  0  0  0  0  0  0
  -21.2670   -7.1900   23.6600 C   0  0  0  0  0  3  0  0  0  0  0  0
  -21.0730   -6.4180   24.8230 C   0  0  0  0  0  3  0  0  0  0  0  0
  -21.3850   -5.0450   24.8180 C   0  0  0  0  0  0  0  0  0  0  0  0
  -21.8940   -4.4440   23.6530 C   0  0  0  0  0  3  0  0  0  0  0  0
  -22.0900   -5.2130   22.4940 C   0  0  0  0  0  0  0  0  0  0  0  0
  -22.5610   -4.6230   21.3680 F   0  0  0  0  0  0  0  0  0  0  0  0
  -21.1930   -4.3010   25.9330 F   0  0  0  0  0  0  0  0  0  0  0  0
  -23.1140  -13.9090   21.0320 C   0  0  0  0  0  0  0  0  0  0  0  0
  -22.3750  -13.2270   21.8990 N   0  0  0  0  0  0  0  0  0  0  0  0
  -22.6920  -14.9370   20.5030 O   0  0  0  0  0  0  0  0  0  0  0  0
  -22.7320  -12.3970   22.3480 H   0  0  0  0  0  0  0  0  0  0  0  0
  -21.4400  -13.5400   22.1200 H   0  0  0  0  0  0  0  0  0  0  0  0
  -25.7660  -15.5420   20.2390 N   0  0  0  0  0  0  0  0  0  0  0  0
  -25.0040  -16.2040   20.3450 H   0  0  0  0  0  0  0  0  0  0  0  0
  -26.6100  -15.9630   19.8780 H   0  0  0  0  0  0  0  0  0  0  0  0
  -28.3450  -26.2260   20.0430 O   0  0  0  0  0  0  0  0  0  0  0  0
  -24.6760  -31.9490   23.1960 C   0  0  0  0  0  0  0  0  0  0  0  0
  -27.3150  -27.2770   20.0540 C   0  0  0  0  0  0  0  0  0  0  0  0
  -23.4950  -30.5640   21.5350 C   0  0  0  0  0  3  0  0  0  0  0  0
  -24.9680  -29.0410   20.0640 C   0  0  0  0  0  0  0  0  0  0  0  0
  -26.0480  -30.8600   21.3670 C   0  0  0  0  0  2  0  0  0  0  0  0
  -26.1450  -29.4750   20.6870 C   0  0  0  0  0  0  0  0  0  0  0  0
  -27.3190  -28.6100   20.6680 C   0  0  0  0  0  3  0  0  0  0  0  0
  -26.1130  -26.9770   19.3770 C   0  0  0  0  0  3  0  0  0  0  0  0
  -24.9680  -27.8080   19.3920 C   0  0  0  0  0  3  0  0  0  0  0  0
  -23.7250  -29.9210   20.1400 C   0  0  0  0  0  2  0  0  0  0  0  0
  -24.7600  -31.1490   22.0870 N   0  0  0  0  0  0  0  0  0  0  0  0
  -23.5870  -32.2010   23.7360 O   0  0  0  0  0  0  0  0  0  0  0  0
  -22.8390  -29.5260   22.4820 C   0  0  0  0  0  0  0  0  0  0  0  0
  -21.5120  -29.3350   22.3680 N   0  0  0  0  0  0  0  0  0  0  0  0
  -23.5280  -28.8940   23.2870 O   0  0  0  0  0  0  0  0  0  0  0  0
  -21.0090  -29.8950   21.6950 H   0  0  0  0  0  0  0  0  0  0  0  0
  -18.1640  -28.0400   22.8750 C   0  0  0  0  0  0  0  0  0  0  0  0
  -20.7180  -28.3620   23.1260 C   0  0  0  0  0  3  0  0  0  0  0  0
  -20.8490  -26.9440   22.5220 C   0  0  0  0  0  2  0  0  0  0  0  0
  -19.7480  -26.6140   21.5100 C   0  0  0  0  0  2  0  0  0  0  0  0
  -18.3680  -26.7110   22.1670 C   0  0  0  0  0  2  0  0  0  0  0  0
  -19.2670  -28.8230   23.3100 C   0  0  0  0  0  0  0  0  0  0  0  0
  -19.0200  -30.0640   23.9340 C   0  0  0  0  0  3  0  0  0  0  0  0
  -17.7030  -30.5260   24.1230 C   0  0  0  0  0  3  0  0  0  0  0  0
  -16.6150  -29.7420   23.7010 C   0  0  0  0  0  3  0  0  0  0  0  0
  -16.8470  -28.5010   23.0830 C   0  0  0  0  0  3  0  0  0  0  0  0
  -25.9430  -32.6010   23.8270 C   0  0  0  0  0  3  0  0  0  0  0  0
  -25.6090  -33.9950   24.1680 N   0  0  0  0  0  0  0  0  0  0  0  0
  -25.9270  -35.0630   23.4240 C   0  0  0  0  0  0  0  0  0  0  0  0
  -26.5990  -34.9790   22.3930 O   0  0  0  0  0  0  0  0  0  0  0  0
  -25.0110  -34.1310   24.9680 H   0  0  0  0  0  0  0  0  0  0  0  0
  -24.1780  -36.8440   23.0940 C   0  0  0  0  0  1  0  0  0  0  0  0
  -25.4240  -36.4410   23.8990 C   0  0  0  0  0  3  0  0  0  0  0  0
  -27.5460  -37.3470   24.7410 C   0  0  0  0  0  1  0  0  0  0  0  0
  -26.4440  -37.5080   23.7980 N   0  0  0  0  0  0  0  0  0  0  0  0
  -26.0250  -38.4230   23.9520 H   0  0  0  0  0  0  0  0  0  0  0  0
  -26.4600  -31.8370   25.1090 C   0  0  1  0  0  0  0  0  0  0  0  0
  -25.3600  -31.5730   26.1640 C   0  0  0  0  0  1  0  0  0  0  0  0
  -27.0770  -30.4720   24.7270 C   0  0  0  0  0  1  0  0  0  0  0  0
  -27.5850  -32.6530   25.7880 C   0  0  0  0  0  1  0  0  0  0  0  0
  2  1  1  0
  3  1  2  0
  4  2  2  0
  5  6  2  0
  5  4  1  0
  6  3  1  0
  7 10  1  0
  7  4  1  0
  8  5  1  0
  8  7  1  0
 10  9  1  0
 10 11  1  0
 12 20  1  0
 13 18  1  0
 14 15  1  0
 14 13  1  0
 16 15  1  0
 16 25  1  0
 16 17  1  0
 18 12  1  0
 18 17  1  0
 19 12  2  0
 20 11  1  0
 20 21  1  0
 22 23  2  0
 23 42  1  0
 24 23  1  0
 24 27  1  0
 25 22  1  0
 25 26  1  0
 26 24  2  0
 27 28  1  0
 28 29  2  0
 30 33  1  0
 30 29  1  0
 31 30  2  0
 32 31  1  0
 32 27  2  0
 33 34  1  0
 34 39  2  0
 34 35  1  0
 35 36  2  0
 37 36  1  0
 37 41  1  0
 38 37  2  0
 39 38  1  0
 40 39  1  0
 42 43  1  0
 43 46  1  0
 43 45  1  0
 44 42  2  0
 47 48  1  0
 47 22  1  0
 49 47  1  0
 50 52  1  0
 50  6  1  0
 51 62  2  0
 52 57  1  0
 53 61  1  0
 53 63  1  0
 54 60  1  0
 54 56  1  0
 55 61  1  0
 56 55  1  0
 57 56  2  0
 58 59  1  0
 58 52  2  0
 59 54  2  0
 60 53  1  0
 61 51  1  0
 63 65  2  0
 64 63  1  0
 66 64  1  0
 67 76  2  0
 67 72  1  0
 68 64  1  0
 68 72  1  0
 69 68  1  0
 70 71  1  0
 70 69  1  0
 71 67  1  0
 72 73  2  0
 73 74  1  0
 75 74  2  0
 76 75  1  0
 77 51  1  0
 77 78  1  0
 77 87  1  0
 78 81  1  0
 79 83  1  0
 79 78  1  0
 80 79  2  0
 83 82  1  0
 85 83  1  0
 85 86  1  0
 85 84  1  0
 87 90  1  1
 87 88  1  0
 89 87  1  0
M  ISO  4   6 101  12 100  20 100  50 101
M  END
>  <TORSDO>  (10) 
F 18

>  <SCORE>  (10) 
-14.914

>  <name>  (10) 
9

>  <ligand_id>  (10) 
9

>  <original_smiles>  (10) 
[H]c1c([H])c([H])c2c(c1[H])C([H])([H])C([H])([H])C([H])([H])C2([H])N([H])C(=O)C1([H])N(C(=O)C([H])(N([H])C(=O)C([H])(N([H])C([H])([H])[H])C([H])([H])[H])C(C([H])([H])[H])(C([H])([H])[H])C([H])([H])[H])C([H])([H])c2c([H])c(Oc3c([H])c([H])c([H])c4c3OC4([H])C([H])(C([H])([H])[H])C([H])([H])N([H])C(=O)N3C([H])([H])C([H])([H])C([H])([H])C([H])(n4nc(-c5c([H])c([H])c(Oc6c([H])c([H])c(F)c([H])c6F)c([H])c5[H])c(C(=O)N([H])[H])c4N([H])[H])C3([H])[H])c([H])c([H])c2C1([H])[H]

>  <smiles>  (10) 
[H]c1c([H])c([H])c2c(c1[H])C([H])([H])C([H])([H])C([H])([H])C2([H])N([H])C(=O)C1([H])N(C(=O)C([H])(N([H])C(=O)C([H])(N([H])C([H])([H])[H])C([H])([H])[H])C(C([H])([H])[H])(C([H])([H])[H])C([H])([H])[H])C([H])([H])c2c([H])c(Oc3c([H])c([H])c([H])c4c3OC4([H])C([H])(C([H])([H])[H])C([H])([H])N([H])C(=O)N3C([H])([H])C([H])([H])C([H])([H])C([H])(n4nc(-c5c([H])c([H])c(Oc6c([H])c([H])c(F)c([H])c6F)c([H])c5[H])c(C(=O)N([H])[H])c4N([H])[H])C3([H])[H])c([H])c([H])c2C1([H])[H]

$$$$
10:0:0
     RDKit          3D

101110  0  0  1  0  0  0  0  0999 V2000
  -29.9240  -18.8840   22.4810 C   0  0  0  0  0  2  0  0  0  0  0  0
  -30.8540  -17.6610   22.3890 C   0  0  0  0  0  2  0  0  0  0  0  0
  -29.9730  -18.2470   20.1750 C   0  0  0  0  0  3  0  0  0  0  0  0
  -29.9390  -19.5170   21.0870 C   0  0  0  0  0  3  0  0  0  0  0  0
  -30.8110  -17.1530   20.9310 C   0  0  0  0  0  3  0  0  0  0  0  0
  -30.9800  -14.6620   20.4070 C   0  0  0  0  0  0  0  0  0  0  0  0
  -30.6560  -12.5090   19.2380 C   0  0  0  0  0  2  0  0  0  0  0  0
  -29.7260  -12.7280   18.0250 C   0  0  0  0  0  2  0  0  0  0  0  0
  -28.2500  -12.5870   18.4430 C   0  0  0  0  0  2  0  0  0  0  0  0
  -27.9090  -13.4100   19.7140 C   0  0  0  0  0  3  0  0  0  0  0  0
  -28.9560  -13.1970   20.8310 C   0  0  0  0  0  2  0  0  0  0  0  0
  -30.2820  -13.4980   20.2650 N   0  0  0  0  0  0  0  0  0  0  0  0
  -32.1400  -14.7770   19.9940 O   0  0  0  0  0  0  0  0  0  0  0  0
  -30.2970  -15.7490   20.8520 N   0  0  0  0  0  0  0  0  0  0  0  0
  -29.3420  -15.5920   21.1330 H   0  0  0  0  0  0  0  0  0  0  0  0
  -25.5070  -14.0270   20.3910 C   0  0  0  0  0  0  0  0  0  0  0  0
  -24.4300  -13.2620   20.7490 C   0  0  0  0  0  0  0  0  0  0  0  0
  -24.8880  -11.9080   20.7450 C   0  0  0  0  0  0  0  0  0  0  0  0
  -26.5510  -13.1390   20.1800 N   0  0  0  0  0  0  0  0  0  0  0  0
  -26.1810  -11.8610   20.4510 N   0  0  0  0  0  0  0  0  0  0  0  0
  -24.1550  -10.6500   20.9370 C   0  0  0  0  0  0  0  0  0  0  0  0
  -24.5310   -9.7160   21.9270 C   0  0  0  0  0  3  0  0  0  0  0  0
  -23.7960   -8.5250   22.1050 C   0  0  0  0  0  3  0  0  0  0  0  0
  -22.6700   -8.2570   21.2910 C   0  0  0  0  0  0  0  0  0  0  0  0
  -22.3110   -9.1790   20.2920 C   0  0  0  0  0  3  0  0  0  0  0  0
  -23.0490  -10.3620   20.1130 C   0  0  0  0  0  3  0  0  0  0  0  0
  -21.9170   -7.1110   21.3740 O   0  0  0  0  0  0  0  0  0  0  0  0
  -21.7620   -6.4360   22.5590 C   0  0  0  0  0  0  0  0  0  0  0  0
  -21.2050   -7.0520   23.7020 C   0  0  0  0  0  3  0  0  0  0  0  0
  -20.9990   -6.3020   24.8790 C   0  0  0  0  0  3  0  0  0  0  0  0
  -21.3430   -4.9370   24.9110 C   0  0  0  0  0  0  0  0  0  0  0  0
  -21.8930   -4.3200   23.7730 C   0  0  0  0  0  3  0  0  0  0  0  0
  -22.0990   -5.0700   22.6010 C   0  0  0  0  0  0  0  0  0  0  0  0
  -22.6100   -4.4670   21.5020 F   0  0  0  0  0  0  0  0  0  0  0  0
  -21.1380   -4.2140   26.0360 F   0  0  0  0  0  0  0  0  0  0  0  0
  -23.0320  -13.7520   20.9950 C   0  0  0  0  0  0  0  0  0  0  0  0
  -22.2900  -13.0790   21.8670 N   0  0  0  0  0  0  0  0  0  0  0  0
  -22.6070  -14.7670   20.4490 O   0  0  0  0  0  0  0  0  0  0  0  0
  -22.6430  -12.2510   22.3230 H   0  0  0  0  0  0  0  0  0  0  0  0
  -21.3530  -13.3940   22.0770 H   0  0  0  0  0  0  0  0  0  0  0  0
  -25.6810  -15.3930   20.2040 N   0  0  0  0  0  0  0  0  0  0  0  0
  -24.9210  -16.0550   20.3270 H   0  0  0  0  0  0  0  0  0  0  0  0
  -26.5370  -15.8240   19.8870 H   0  0  0  0  0  0  0  0  0  0  0  0
  -31.8500  -19.0250   18.6550 C   0  0  0  0  0  3  0  0  0  0  0  0
  -31.5120  -19.5590   16.3120 C   0  0  0  0  0  3  0  0  0  0  0  0
  -30.5060  -18.6010   18.7750 C   0  0  0  0  0  0  0  0  0  0  0  0
  -32.3510  -19.5130   17.4390 C   0  0  0  0  0  0  0  0  0  0  0  0
  -30.1800  -19.1040   16.3940 C   0  0  0  0  0  0  0  0  0  0  0  0
  -29.6700  -18.6050   17.6230 C   0  0  0  0  0  0  0  0  0  0  0  0
  -33.7770  -20.0210   17.3630 C   0  0  0  0  0  1  0  0  0  0  0  0
  -29.3110  -19.1960   15.1520 C   0  0  0  0  0  1  0  0  0  0  0  0
  -28.2350  -18.0860   17.7110 C   0  0  0  0  0  1  0  0  0  0  0  0
  -28.7940  -20.5500   20.7770 C   0  0  0  0  0  2  0  0  0  0  0  0
  -28.8390  -21.8380   21.5460 N   0  0  0  0  0  4  0  0  0  0  0  0
  -29.3200  -21.6850   22.4190 H   0  0  0  0  0  0  0  0  0  0  0  0
  -27.8890  -22.0710   21.7890 H   0  0  0  0  0  0  0  0  0  0  0  0
  -29.3940  -23.0750   20.8990 C   0  0  0  0  0  2  0  0  0  0  0  0
  -26.9530  -23.9440   21.1920 C   0  0  0  0  0  1  0  0  0  0  0  0
  -28.3570  -24.2450   20.6270 C   0  0  0  0  0  3  0  0  0  0  0  0
  -28.8350  -25.6760   21.0870 C   0  0  0  0  0  2  0  0  0  0  0  0
  -28.6780  -26.7790   20.1590 O   0  0  0  0  0  0  0  0  0  0  0  0
  -24.6110  -31.8320   23.2240 C   0  0  0  0  0  0  0  0  0  0  0  0
  -27.4980  -27.4960   20.1840 C   0  0  0  0  0  0  0  0  0  0  0  0
  -23.5190  -30.4450   21.4910 C   0  0  0  0  0  3  0  0  0  0  0  0
  -25.0760  -28.9700   20.1050 C   0  0  0  0  0  0  0  0  0  0  0  0
  -26.0450  -30.8600   21.4250 C   0  0  0  0  0  2  0  0  0  0  0  0
  -26.1950  -29.5000   20.7620 C   0  0  0  0  0  0  0  0  0  0  0  0
  -27.4120  -28.7760   20.7930 C   0  0  0  0  0  3  0  0  0  0  0  0
  -26.3680  -26.9900   19.5120 C   0  0  0  0  0  3  0  0  0  0  0  0
  -25.1590  -27.7140   19.4770 C   0  0  0  0  0  3  0  0  0  0  0  0
  -23.8150  -29.8060   20.1050 C   0  0  0  0  0  2  0  0  0  0  0  0
  -24.7400  -31.0600   22.1060 N   0  0  0  0  0  0  0  0  0  0  0  0
  -23.4990  -32.0670   23.7180 O   0  0  0  0  0  0  0  0  0  0  0  0
  -22.8470  -29.3860   22.3940 C   0  0  0  0  0  0  0  0  0  0  0  0
  -21.5260  -29.2090   22.2300 N   0  0  0  0  0  0  0  0  0  0  0  0
  -23.5120  -28.7280   23.1980 O   0  0  0  0  0  0  0  0  0  0  0  0
  -21.0500  -29.8020   21.5640 H   0  0  0  0  0  0  0  0  0  0  0  0
  -18.1370  -28.0200   22.6480 C   0  0  0  0  0  0  0  0  0  0  0  0
  -20.6970  -28.2360   22.9400 C   0  0  0  0  0  3  0  0  0  0  0  0
  -20.7880  -26.8390   22.2850 C   0  0  0  0  0  2  0  0  0  0  0  0
  -19.6840  -26.5750   21.2570 C   0  0  0  0  0  2  0  0  0  0  0  0
  -18.2990  -26.7070   21.9000 C   0  0  0  0  0  2  0  0  0  0  0  0
  -19.2630  -28.7430   23.1250 C   0  0  0  0  0  0  0  0  0  0  0  0
  -19.0590  -29.9710   23.7900 C   0  0  0  0  0  3  0  0  0  0  0  0
  -17.7610  -30.4790   23.9810 C   0  0  0  0  0  3  0  0  0  0  0  0
  -16.6480  -29.7550   23.5170 C   0  0  0  0  0  3  0  0  0  0  0  0
  -16.8370  -28.5260   22.8590 C   0  0  0  0  0  3  0  0  0  0  0  0
  -25.8500  -32.4760   23.9190 C   0  0  0  0  0  3  0  0  0  0  0  0
  -25.5020  -33.8650   24.2510 N   0  0  0  0  0  0  0  0  0  0  0  0
  -25.8510  -34.9320   23.5200 C   0  0  0  0  0  0  0  0  0  0  0  0
  -26.5760  -34.8510   22.5230 O   0  0  0  0  0  0  0  0  0  0  0  0
  -24.8680  -33.9990   25.0240 H   0  0  0  0  0  0  0  0  0  0  0  0
  -24.1180  -36.7010   23.0820 C   0  0  0  0  0  1  0  0  0  0  0  0
  -25.3140  -36.3070   23.9640 C   0  0  0  0  0  3  0  0  0  0  0  0
  -27.3770  -37.2140   24.9390 C   0  0  0  0  0  1  0  0  0  0  0  0
  -26.3340  -37.3750   23.9290 N   0  0  0  0  0  0  0  0  0  0  0  0
  -25.9050  -38.2870   24.0610 H   0  0  0  0  0  0  0  0  0  0  0  0
  -26.3160  -31.6980   25.2100 C   0  0  1  0  0  0  0  0  0  0  0  0
  -25.1720  -31.4170   26.2100 C   0  0  0  0  0  1  0  0  0  0  0  0
  -26.9530  -30.3400   24.8300 C   0  0  0  0  0  1  0  0  0  0  0  0
  -27.4060  -32.5080   25.9500 C   0  0  0  0  0  1  0  0  0  0  0  0
  2  1  1  0
  3 46  1  0
  3  5  1  0
  3  4  1  0
  4 53  1  0
  4  1  1  0
  5 14  1  0
  5  2  1  0
  6 14  1  0
  7 12  1  0
  8  9  1  0
  8  7  1  0
 10  9  1  0
 10 19  1  0
 10 11  1  0
 12  6  1  0
 12 11  1  0
 13  6  2  0
 14 15  1  0
 16 17  2  0
 17 36  1  0
 18 17  1  0
 18 21  1  0
 19 16  1  0
 19 20  1  0
 20 18  2  0
 21 22  1  0
 22 23  2  0
 24 27  1  0
 24 23  1  0
 25 24  2  0
 26 25  1  0
 26 21  2  0
 27 28  1  0
 28 33  2  0
 28 29  1  0
 29 30  2  0
 30 31  1  0
 31 35  1  0
 32 31  2  0
 33 32  1  0
 34 33  1  0
 36 37  1  0
 37 40  1  0
 37 39  1  0
 38 36  2  0
 41 42  1  0
 41 16  1  0
 43 41  1  0
 44 46  1  0
 45 48  2  0
 45 47  1  0
 47 44  2  0
 48 49  1  0
 49 52  1  0
 49 46  2  0
 50 47  1  0
 51 48  1  0
 53 54  1  0
 54 56  1  0
 54 55  1  0
 57 54  1  0
 59 57  1  0
 59 60  1  0
 59 58  1  0
 61 63  1  0
 61 60  1  0
 62 73  2  0
 63 68  1  0
 64 72  1  0
 64 74  1  0
 65 71  1  0
 65 67  1  0
 66 72  1  0
 67 68  2  0
 67 66  1  0
 69 63  2  0
 70 69  1  0
 70 65  2  0
 71 64  1  0
 72 62  1  0
 74 76  2  0
 75 74  1  0
 77 75  1  0
 78 87  2  0
 78 83  1  0
 79 75  1  0
 79 83  1  0
 80 79  1  0
 81 82  1  0
 81 80  1  0
 82 78  1  0
 83 84  2  0
 84 85  1  0
 86 85  2  0
 87 86  1  0
 88 62  1  0
 88 89  1  0
 88 98  1  0
 89 92  1  0
 90 94  1  0
 90 89  1  0
 91 90  2  0
 94 93  1  0
 96 94  1  0
 96 97  1  0
 96 95  1  0
 98101  1  1
 98 99  1  0
100 98  1  0
M  ISO  4   6 100  14 100  60 101  61 101
M  END
>  <TORSDO>  (11) 
F 22

>  <SCORE>  (11) 
-12.547

>  <name>  (11) 
10

>  <ligand_id>  (11) 
10

>  <original_smiles>  (11) 
[H]c1c([H])c([H])c2c(c1[H])C([H])([H])C([H])([H])C([H])([H])C2([H])N([H])C(=O)C1([H])N(C(=O)C([H])(N([H])C(=O)C([H])(N([H])C([H])([H])[H])C([H])([H])[H])C(C([H])([H])[H])(C([H])([H])[H])C([H])([H])[H])C([H])([H])c2c([H])c(OC([H])([H])C([H])(C([H])([H])[H])C([H])([H])[N+]([H])([H])C([H])([H])C3([H])C([H])([H])C([H])([H])C([H])(N([H])C(=O)N4C([H])([H])C([H])([H])C([H])([H])C([H])(n5nc(-c6c([H])c([H])c(Oc7c([H])c([H])c(F)c([H])c7F)c([H])c6[H])c(C(=O)N([H])[H])c5N([H])[H])C4([H])[H])C3([H])c3c([H])c(C([H])([H])[H])c([H])c(C([H])([H])[H])c3C([H])([H])[H])c([H])c([H])c2C1([H])[H]

>  <smiles>  (11) 
[H]c1c([H])c([H])c2c(c1[H])C([H])([H])C([H])([H])C([H])([H])C2([H])N([H])C(=O)C1([H])N(C(=O)C([H])(N([H])C(=O)C([H])(N([H])C([H])([H])[H])C([H])([H])[H])C(C([H])([H])[H])(C([H])([H])[H])C([H])([H])[H])C([H])([H])c2c([H])c(OC([H])([H])C([H])(C([H])([H])[H])C([H])([H])[N+]([H])([H])C([H])([H])C3([H])C([H])([H])C([H])([H])C([H])(N([H])C(=O)N4C([H])([H])C([H])([H])C([H])([H])C([H])(n5nc(-c6c([H])c([H])c(Oc7c([H])c([H])c(F)c([H])c7F)c([H])c6[H])c(C(=O)N([H])[H])c5N([H])[H])C4([H])[H])C3([H])c3c([H])c(C([H])([H])[H])c([H])c(C([H])([H])[H])c3C([H])([H])[H])c([H])c([H])c2C1([H])[H]

$$$$
11:0:0
     RDKit          3D

 92101  0  0  1  0  0  0  0  0999 V2000
  -28.9830  -22.6010   18.9320 C   0  0  0  0  0  3  0  0  0  0  0  0
  -29.0150  -23.0110   21.2540 C   0  0  0  0  0  3  0  0  0  0  0  0
  -29.5060  -20.6310   20.4480 C   0  0  0  0  0  0  0  0  0  0  0  0
  -28.8100  -23.5770   19.9680 C   0  0  0  0  0  0  0  0  0  0  0  0
  -29.3170  -21.2050   19.1440 C   0  0  0  0  0  0  0  0  0  0  0  0
  -29.3330  -21.6180   21.4910 C   0  0  0  0  0  0  0  0  0  0  0  0
  -29.3970  -20.3180   17.9140 C   0  0  0  0  0  1  0  0  0  0  0  0
  -29.4280  -21.2000   22.9520 C   0  0  0  0  0  1  0  0  0  0  0  0
  -31.1050  -18.8900   21.6530 C   0  0  0  0  0  2  0  0  0  0  0  0
  -31.7870  -18.1890   20.4780 C   0  0  0  0  0  2  0  0  0  0  0  0
  -29.8240  -19.0520   20.8050 C   0  0  0  0  0  3  0  0  0  0  0  0
  -30.4030  -17.7090   20.0200 C   0  0  0  0  0  3  0  0  0  0  0  0
  -30.8700  -15.0690   20.3040 C   0  0  0  0  0  0  0  0  0  0  0  0
  -30.7060  -12.7190   19.4270 C   0  0  0  0  0  2  0  0  0  0  0  0
  -29.7840  -12.6840   18.1870 C   0  0  0  0  0  2  0  0  0  0  0  0
  -28.3220  -12.4790   18.6180 C   0  0  0  0  0  2  0  0  0  0  0  0
  -27.9100  -13.4310   19.7740 C   0  0  0  0  0  3  0  0  0  0  0  0
  -28.9580  -13.4710   20.9100 C   0  0  0  0  0  2  0  0  0  0  0  0
  -30.2510  -13.8280   20.3100 N   0  0  0  0  0  0  0  0  0  0  0  0
  -32.0420  -15.1290   19.9230 O   0  0  0  0  0  0  0  0  0  0  0  0
  -30.1320  -16.2480   20.5090 N   0  0  0  0  0  0  0  0  0  0  0  0
  -29.2020  -16.0950   20.8690 H   0  0  0  0  0  0  0  0  0  0  0  0
  -25.5280  -13.9970   20.5270 C   0  0  0  0  0  0  0  0  0  0  0  0
  -24.4660  -13.2140   20.8880 C   0  0  0  0  0  0  0  0  0  0  0  0
  -24.9320  -11.8640   20.8290 C   0  0  0  0  0  0  0  0  0  0  0  0
  -26.5720  -13.1250   20.2690 N   0  0  0  0  0  0  0  0  0  0  0  0
  -26.2220  -11.8350   20.5150 N   0  0  0  0  0  0  0  0  0  0  0  0
  -24.2070  -10.5970   20.9980 C   0  0  0  0  0  0  0  0  0  0  0  0
  -24.6010   -9.6440   21.9640 C   0  0  0  0  0  3  0  0  0  0  0  0
  -23.8740   -8.4440   22.1220 C   0  0  0  0  0  3  0  0  0  0  0  0
  -22.7410   -8.1890   21.3140 C   0  0  0  0  0  0  0  0  0  0  0  0
  -22.3670   -9.1290   20.3390 C   0  0  0  0  0  3  0  0  0  0  0  0
  -23.0940  -10.3220   20.1790 C   0  0  0  0  0  3  0  0  0  0  0  0
  -21.9910   -7.0400   21.3790 O   0  0  0  0  0  0  0  0  0  0  0  0
  -21.7970   -6.3720   22.5620 C   0  0  0  0  0  0  0  0  0  0  0  0
  -21.1690   -6.9840   23.6680 C   0  0  0  0  0  3  0  0  0  0  0  0
  -20.9290   -6.2400   24.8410 C   0  0  0  0  0  3  0  0  0  0  0  0
  -21.3060   -4.8850   24.9060 C   0  0  0  0  0  0  0  0  0  0  0  0
  -21.9260   -4.2730   23.8030 C   0  0  0  0  0  3  0  0  0  0  0  0
  -22.1700   -5.0150   22.6330 C   0  0  0  0  0  0  0  0  0  0  0  0
  -22.7480   -4.4150   21.5650 F   0  0  0  0  0  0  0  0  0  0  0  0
  -21.0690   -4.1680   26.0290 F   0  0  0  0  0  0  0  0  0  0  0  0
  -23.0710  -13.6840   21.1770 C   0  0  0  0  0  0  0  0  0  0  0  0
  -22.3560  -12.9750   22.0440 N   0  0  0  0  0  0  0  0  0  0  0  0
  -22.6240  -14.7130   20.6740 O   0  0  0  0  0  0  0  0  0  0  0  0
  -22.7330  -12.1410   22.4680 H   0  0  0  0  0  0  0  0  0  0  0  0
  -21.4190  -13.2680   22.2870 H   0  0  0  0  0  0  0  0  0  0  0  0
  -25.6880  -15.3700   20.3700 N   0  0  0  0  0  0  0  0  0  0  0  0
  -24.9120  -16.0130   20.4750 H   0  0  0  0  0  0  0  0  0  0  0  0
  -26.5230  -15.8160   20.0130 H   0  0  0  0  0  0  0  0  0  0  0  0
  -28.0630  -24.9950   19.6980 C   0  0  0  0  0  2  0  0  0  0  0  0
  -28.4180  -26.4160   20.1510 O   0  0  0  0  0  0  0  0  0  0  0  0
  -24.6990  -31.8650   23.3680 C   0  0  0  0  0  0  0  0  0  0  0  0
  -27.3740  -27.4020   20.1000 C   0  0  0  0  0  0  0  0  0  0  0  0
  -23.5440  -30.5620   21.6290 C   0  0  0  0  0  3  0  0  0  0  0  0
  -25.0320  -29.1070   20.1390 C   0  0  0  0  0  0  0  0  0  0  0  0
  -26.0980  -30.8660   21.5300 C   0  0  0  0  0  2  0  0  0  0  0  0
  -26.1950  -29.5230   20.7980 C   0  0  0  0  0  0  0  0  0  0  0  0
  -27.3690  -28.6830   20.7730 C   0  0  0  0  0  3  0  0  0  0  0  0
  -26.1850  -27.0990   19.3920 C   0  0  0  0  0  3  0  0  0  0  0  0
  -25.0360  -27.9050   19.4240 C   0  0  0  0  0  3  0  0  0  0  0  0
  -23.7950  -29.9810   20.2140 C   0  0  0  0  0  2  0  0  0  0  0  0
  -24.7990  -31.1130   22.2320 N   0  0  0  0  0  0  0  0  0  0  0  0
  -23.6010  -32.1040   23.8910 O   0  0  0  0  0  0  0  0  0  0  0  0
  -22.8620  -29.4850   22.5090 C   0  0  0  0  0  0  0  0  0  0  0  0
  -21.5420  -29.2950   22.3330 N   0  0  0  0  0  0  0  0  0  0  0  0
  -23.5230  -28.8250   23.3160 O   0  0  0  0  0  0  0  0  0  0  0  0
  -21.0630  -29.8880   21.6680 H   0  0  0  0  0  0  0  0  0  0  0  0
  -18.1690  -28.0160   22.6680 C   0  0  0  0  0  0  0  0  0  0  0  0
  -20.7150  -28.3040   23.0250 C   0  0  0  0  0  3  0  0  0  0  0  0
  -20.8590  -26.9050   22.3810 C   0  0  0  0  0  2  0  0  0  0  0  0
  -19.7910  -26.6150   21.3220 C   0  0  0  0  0  2  0  0  0  0  0  0
  -18.3880  -26.7090   21.9270 C   0  0  0  0  0  2  0  0  0  0  0  0
  -19.2620  -28.7740   23.1690 C   0  0  0  0  0  0  0  0  0  0  0  0
  -19.0030  -30.0000   23.8190 C   0  0  0  0  0  3  0  0  0  0  0  0
  -17.6840  -30.4700   23.9730 C   0  0  0  0  0  3  0  0  0  0  0  0
  -16.6060  -29.7080   23.4890 C   0  0  0  0  0  3  0  0  0  0  0  0
  -16.8490  -28.4830   22.8430 C   0  0  0  0  0  3  0  0  0  0  0  0
  -25.9590  -32.4770   24.0540 C   0  0  0  0  0  3  0  0  0  0  0  0
  -25.6510  -33.8720   24.3960 N   0  0  0  0  0  0  0  0  0  0  0  0
  -25.9730  -34.9330   23.6440 C   0  0  0  0  0  0  0  0  0  0  0  0
  -26.6330  -34.8380   22.6060 O   0  0  0  0  0  0  0  0  0  0  0  0
  -25.0810  -34.0200   25.2160 H   0  0  0  0  0  0  0  0  0  0  0  0
  -24.2290  -36.7180   23.3420 C   0  0  0  0  0  1  0  0  0  0  0  0
  -25.4910  -36.3170   24.1210 C   0  0  0  0  0  3  0  0  0  0  0  0
  -27.6340  -37.2170   24.9130 C   0  0  0  0  0  1  0  0  0  0  0  0
  -26.5160  -37.3770   23.9890 N   0  0  0  0  0  0  0  0  0  0  0  0
  -26.1060  -38.2950   24.1440 H   0  0  0  0  0  0  0  0  0  0  0  0
  -26.4070  -31.6830   25.3420 C   0  0  1  0  0  0  0  0  0  0  0  0
  -25.2620  -31.4410   26.3530 C   0  0  0  0  0  1  0  0  0  0  0  0
  -27.0050  -30.3110   24.9580 C   0  0  0  0  0  1  0  0  0  0  0  0
  -27.5270  -32.4630   26.0720 C   0  0  0  0  0  1  0  0  0  0  0  0
  1  5  2  0
  1  4  1  0
  2  6  1  0
  3  6  2  0
  4  2  2  0
  5  3  1  0
  6  8  1  0
  7  5  1  0
 10  9  1  0
 11  3  1  0
 11  9  1  0
 12 10  1  0
 12 21  1  0
 12 11  1  0
 13 19  1  0
 13 21  1  0
 14 19  1  0
 15 16  1  0
 15 14  1  0
 17 16  1  0
 17 26  1  0
 17 18  1  0
 19 18  1  0
 20 13  2  0
 21 22  1  0
 23 24  2  0
 24 43  1  0
 25 24  1  0
 25 28  1  0
 26 27  1  0
 26 23  1  0
 27 25  2  0
 28 29  1  0
 29 30  2  0
 31 34  1  0
 31 30  1  0
 32 31  2  0
 33 32  1  0
 33 28  2  0
 34 35  1  0
 35 40  2  0
 35 36  1  0
 36 37  2  0
 37 38  1  0
 38 42  1  0
 39 38  2  0
 40 39  1  0
 41 40  1  0
 43 44  1  0
 44 47  1  0
 44 46  1  0
 45 43  2  0
 48 49  1  0
 48 23  1  0
 50 48  1  0
 51  4  1  0
 51 52  1  0
 53 64  2  0
 54 52  1  0
 54 59  1  0
 55 63  1  0
 55 65  1  0
 56 62  1  0
 56 58  1  0
 57 63  1  0
 58 57  1  0
 59 58  2  0
 60 61  1  0
 60 54  2  0
 61 56  2  0
 62 55  1  0
 63 53  1  0
 65 67  2  0
 66 65  1  0
 68 66  1  0
 69 78  2  0
 69 74  1  0
 70 66  1  0
 70 74  1  0
 71 70  1  0
 72 73  1  0
 72 71  1  0
 73 69  1  0
 74 75  2  0
 75 76  1  0
 77 76  2  0
 78 77  1  0
 79 53  1  0
 79 80  1  0
 79 89  1  0
 80 83  1  0
 81 85  1  0
 81 80  1  0
 82 81  2  0
 85 84  1  0
 87 85  1  0
 87 88  1  0
 87 86  1  0
 89 92  1  1
 89 90  1  0
 91 89  1  0
M  ISO  4  13 100  21 100  51 101  52 101
M  END
>  <TORSDO>  (12) 
F 18

>  <SCORE>  (12) 
-14.188

>  <name>  (12) 
11

>  <ligand_id>  (12) 
11

>  <original_smiles>  (12) 
[H]c1c([H])c([H])c2c(c1[H])C([H])([H])C([H])([H])C([H])([H])C2([H])N([H])C(=O)C1([H])N(C(=O)C([H])(N([H])C(=O)C([H])(N([H])C([H])([H])[H])C([H])([H])[H])C(C([H])([H])[H])(C([H])([H])[H])C([H])([H])[H])C([H])([H])c2c([H])c(OC([H])([H])c3c([H])c(C([H])([H])[H])c(C4([H])C([H])([H])C([H])([H])C4([H])N([H])C(=O)N4C([H])([H])C([H])([H])C([H])([H])C([H])(n5nc(-c6c([H])c([H])c(Oc7c([H])c([H])c(F)c([H])c7F)c([H])c6[H])c(C(=O)N([H])[H])c5N([H])[H])C4([H])[H])c(C([H])([H])[H])c3[H])c([H])c([H])c2C1([H])[H]

>  <smiles>  (12) 
[H]c1c([H])c([H])c2c(c1[H])C([H])([H])C([H])([H])C([H])([H])C2([H])N([H])C(=O)C1([H])N(C(=O)C([H])(N([H])C(=O)C([H])(N([H])C([H])([H])[H])C([H])([H])[H])C(C([H])([H])[H])(C([H])([H])[H])C([H])([H])[H])C([H])([H])c2c([H])c(OC([H])([H])c3c([H])c(C([H])([H])[H])c(C4([H])C([H])([H])C([H])([H])C4([H])N([H])C(=O)N4C([H])([H])C([H])([H])C([H])([H])C([H])(n5nc(-c6c([H])c([H])c(Oc7c([H])c([H])c(F)c([H])c7F)c([H])c6[H])c(C(=O)N([H])[H])c5N([H])[H])C4([H])[H])c(C([H])([H])[H])c3[H])c([H])c([H])c2C1([H])[H]

$$$$
12:0:0
     RDKit          3D

 95104  0  0  1  0  0  0  0  0999 V2000
  -29.1280  -22.3580   21.8440 C   0  0  0  0  0  3  0  0  0  0  0  0
  -28.1140  -22.7410   19.6690 C   0  0  0  0  0  3  0  0  0  0  0  0
  -29.1980  -23.7490   22.0570 C   0  0  0  0  0  3  0  0  0  0  0  0
  -28.1930  -24.1340   19.8770 C   0  0  0  0  0  3  0  0  0  0  0  0
  -28.5830  -21.8410   20.6500 C   0  0  0  0  0  0  0  0  0  0  0  0
  -28.7330  -24.6490   21.0750 C   0  0  0  0  0  0  0  0  0  0  0  0
  -28.6310  -19.7650   19.0580 C   0  0  0  0  0  2  0  0  0  0  0  0
  -28.4970  -20.3540   20.4480 C   0  0  0  0  0  3  0  0  0  0  0  0
  -29.7240  -19.5390   20.0800 C   0  0  0  0  0  3  0  0  0  0  0  0
  -29.7410  -18.1530   20.6030 N   0  0  0  0  0  4  0  0  0  0  0  0
  -29.1340  -17.5730   20.0480 H   0  0  0  0  0  0  0  0  0  0  0  0
  -29.3900  -18.1570   21.5460 H   0  0  0  0  0  0  0  0  0  0  0  0
  -31.0930  -17.5520   20.6220 C   0  0  0  0  0  2  0  0  0  0  0  0
  -30.8850  -16.4500   22.9390 C   0  0  0  0  0  1  0  0  0  0  0  0
  -31.1890  -16.2410   21.4440 C   0  0  0  0  0  3  0  0  0  0  0  0
  -30.7460  -14.2910   19.9590 C   0  0  0  0  0  0  0  0  0  0  0  0
  -30.3460  -12.0980   18.9060 C   0  0  0  0  0  2  0  0  0  0  0  0
  -29.3530  -12.1940   17.7340 C   0  0  0  0  0  2  0  0  0  0  0  0
  -27.9030  -12.0830   18.2400 C   0  0  0  0  0  2  0  0  0  0  0  0
  -27.6140  -13.0370   19.4300 C   0  0  0  0  0  3  0  0  0  0  0  0
  -28.7090  -12.9080   20.5120 C   0  0  0  0  0  2  0  0  0  0  0  0
  -30.0190  -13.1480   19.8780 N   0  0  0  0  0  0  0  0  0  0  0  0
  -31.7280  -14.5280   19.2480 O   0  0  0  0  0  0  0  0  0  0  0  0
  -30.3670  -15.1440   20.9220 N   0  0  0  0  0  0  0  0  0  0  0  0
  -29.5670  -14.8560   21.4670 H   0  0  0  0  0  0  0  0  0  0  0  0
  -25.2800  -13.7260   20.2720 C   0  0  0  0  0  0  0  0  0  0  0  0
  -24.2110  -12.9900   20.7030 C   0  0  0  0  0  0  0  0  0  0  0  0
  -24.6230  -11.6240   20.6480 C   0  0  0  0  0  0  0  0  0  0  0  0
  -26.2810  -12.8100   19.9830 N   0  0  0  0  0  0  0  0  0  0  0  0
  -25.8910  -11.5420   20.2640 N   0  0  0  0  0  0  0  0  0  0  0  0
  -23.8690  -10.3870   20.8840 C   0  0  0  0  0  0  0  0  0  0  0  0
  -24.2890   -9.4350   21.8410 C   0  0  0  0  0  3  0  0  0  0  0  0
  -23.5370   -8.2620   22.0620 C   0  0  0  0  0  3  0  0  0  0  0  0
  -22.3500   -8.0310   21.3260 C   0  0  0  0  0  0  0  0  0  0  0  0
  -21.9500   -8.9680   20.3580 C   0  0  0  0  0  3  0  0  0  0  0  0
  -22.7020  -10.1340   20.1360 C   0  0  0  0  0  3  0  0  0  0  0  0
  -21.5700   -6.9080   21.4550 O   0  0  0  0  0  0  0  0  0  0  0  0
  -21.4820   -6.2250   22.6420 C   0  0  0  0  0  0  0  0  0  0  0  0
  -21.0300   -6.8470   23.8270 C   0  0  0  0  0  3  0  0  0  0  0  0
  -20.8880   -6.0910   25.0080 C   0  0  0  0  0  3  0  0  0  0  0  0
  -21.1880   -4.7160   25.0050 C   0  0  0  0  0  0  0  0  0  0  0  0
  -21.6320   -4.0930   23.8240 C   0  0  0  0  0  3  0  0  0  0  0  0
  -21.7760   -4.8460   22.6450 C   0  0  0  0  0  0  0  0  0  0  0  0
  -22.1840   -4.2390   21.5060 F   0  0  0  0  0  0  0  0  0  0  0  0
  -21.0420   -3.9870   26.1360 F   0  0  0  0  0  0  0  0  0  0  0  0
  -22.8480  -13.5130   21.0570 C   0  0  0  0  0  0  0  0  0  0  0  0
  -22.1560  -12.8500   21.9760 N   0  0  0  0  0  0  0  0  0  0  0  0
  -22.4090  -14.5450   20.5510 O   0  0  0  0  0  0  0  0  0  0  0  0
  -22.5260  -12.0150   22.4050 H   0  0  0  0  0  0  0  0  0  0  0  0
  -21.2430  -13.1830   22.2550 H   0  0  0  0  0  0  0  0  0  0  0  0
  -25.4810  -15.0920   20.0840 N   0  0  0  0  0  0  0  0  0  0  0  0
  -24.7410  -15.7690   20.2330 H   0  0  0  0  0  0  0  0  0  0  0  0
  -26.3190  -15.4980   19.6890 H   0  0  0  0  0  0  0  0  0  0  0  0
  -28.8150  -26.1500   21.3350 C   0  0  0  0  0  2  0  0  0  0  0  0
  -28.5360  -26.9400   20.1820 O   0  0  0  0  0  0  0  0  0  0  0  0
  -24.6420  -32.0060   23.3370 C   0  0  0  0  0  0  0  0  0  0  0  0
  -27.3590  -27.6410   20.2400 C   0  0  0  0  0  0  0  0  0  0  0  0
  -23.4560  -30.5930   21.6890 C   0  0  0  0  0  3  0  0  0  0  0  0
  -24.9360  -29.0780   20.2620 C   0  0  0  0  0  0  0  0  0  0  0  0
  -25.9720  -30.9950   21.4920 C   0  0  0  0  0  2  0  0  0  0  0  0
  -26.0820  -29.6270   20.8540 C   0  0  0  0  0  0  0  0  0  0  0  0
  -27.2980  -28.9130   20.8470 C   0  0  0  0  0  3  0  0  0  0  0  0
  -26.2030  -27.0950   19.6470 C   0  0  0  0  0  3  0  0  0  0  0  0
  -24.9880  -27.8080   19.6610 C   0  0  0  0  0  3  0  0  0  0  0  0
  -23.6750  -29.9140   20.3090 C   0  0  0  0  0  2  0  0  0  0  0  0
  -24.7090  -31.2110   22.2330 N   0  0  0  0  0  0  0  0  0  0  0  0
  -23.5580  -32.2600   23.8780 O   0  0  0  0  0  0  0  0  0  0  0  0
  -22.8200  -29.5600   22.6460 C   0  0  0  0  0  0  0  0  0  0  0  0
  -21.5030  -29.3450   22.5000 N   0  0  0  0  0  0  0  0  0  0  0  0
  -23.5090  -28.9540   23.4720 O   0  0  0  0  0  0  0  0  0  0  0  0
  -21.0120  -29.8860   21.8040 H   0  0  0  0  0  0  0  0  0  0  0  0
  -18.1510  -28.0770   22.9570 C   0  0  0  0  0  0  0  0  0  0  0  0
  -20.6980  -28.3900   23.2600 C   0  0  0  0  0  3  0  0  0  0  0  0
  -20.8410  -26.9620   22.6850 C   0  0  0  0  0  2  0  0  0  0  0  0
  -19.7580  -26.6120   21.6600 C   0  0  0  0  0  2  0  0  0  0  0  0
  -18.3660  -26.7310   22.2860 C   0  0  0  0  0  2  0  0  0  0  0  0
  -19.2470  -28.8630   23.3990 C   0  0  0  0  0  0  0  0  0  0  0  0
  -18.9950  -30.1240   23.9830 C   0  0  0  0  0  3  0  0  0  0  0  0
  -17.6780  -30.5980   24.1310 C   0  0  0  0  0  3  0  0  0  0  0  0
  -16.5960  -29.8090   23.7060 C   0  0  0  0  0  3  0  0  0  0  0  0
  -16.8330  -28.5500   23.1250 C   0  0  0  0  0  3  0  0  0  0  0  0
  -25.9200  -32.6490   23.9620 C   0  0  0  0  0  3  0  0  0  0  0  0
  -25.6010  -34.0490   24.2690 N   0  0  0  0  0  0  0  0  0  0  0  0
  -25.9350  -35.0920   23.4940 C   0  0  0  0  0  0  0  0  0  0  0  0
  -26.6160  -34.9770   22.4730 O   0  0  0  0  0  0  0  0  0  0  0  0
  -25.0010  -34.2120   25.0620 H   0  0  0  0  0  0  0  0  0  0  0  0
  -24.2100  -36.8740   23.0830 C   0  0  0  0  0  1  0  0  0  0  0  0
  -25.4350  -36.4820   23.9260 C   0  0  0  0  0  3  0  0  0  0  0  0
  -27.5480  -37.3840   24.7930 C   0  0  0  0  0  1  0  0  0  0  0  0
  -26.4670  -37.5370   23.8220 N   0  0  0  0  0  0  0  0  0  0  0  0
  -26.0560  -38.4580   23.9480 H   0  0  0  0  0  0  0  0  0  0  0  0
  -26.4300  -31.8960   25.2500 C   0  0  1  0  0  0  0  0  0  0  0  0
  -25.3250  -31.6360   26.3000 C   0  0  0  0  0  1  0  0  0  0  0  0
  -27.0540  -30.5330   24.8720 C   0  0  0  0  0  1  0  0  0  0  0  0
  -27.5520  -32.7200   25.9270 C   0  0  0  0  0  1  0  0  0  0  0  0
  1  3  1  0
  2  4  2  0
  2  5  1  0
  4  6  1  0
  5  1  2  0
  6 54  1  0
  6  3  2  0
  7  9  1  0
  7  8  1  0
  8  5  1  0
  9  8  1  0
  9 10  1  0
 10 13  1  0
 10 12  1  0
 11 10  1  0
 13 15  1  0
 15 14  1  0
 16 24  1  0
 17 22  1  0
 18 19  1  0
 18 17  1  0
 20 19  1  0
 20 29  1  0
 20 21  1  0
 22 16  1  0
 22 21  1  0
 23 16  2  0
 24 15  1  0
 24 25  1  0
 26 27  2  0
 27 46  1  0
 28 27  1  0
 28 31  1  0
 29 30  1  0
 29 26  1  0
 30 28  2  0
 31 32  1  0
 32 33  2  0
 34 37  1  0
 34 33  1  0
 35 34  2  0
 36 35  1  0
 36 31  2  0
 37 38  1  0
 38 43  2  0
 38 39  1  0
 39 40  2  0
 41 40  1  0
 41 45  1  0
 42 41  2  0
 43 42  1  0
 44 43  1  0
 46 47  1  0
 47 50  1  0
 47 49  1  0
 48 46  2  0
 51 52  1  0
 51 26  1  0
 53 51  1  0
 55 57  1  0
 55 54  1  0
 56 67  2  0
 57 62  1  0
 58 66  1  0
 58 68  1  0
 59 65  1  0
 59 61  1  0
 60 66  1  0
 61 60  1  0
 62 61  2  0
 63 64  1  0
 63 57  2  0
 64 59  2  0
 65 58  1  0
 66 56  1  0
 68 70  2  0
 69 68  1  0
 71 69  1  0
 72 81  2  0
 72 77  1  0
 73 69  1  0
 73 77  1  0
 74 73  1  0
 75 76  1  0
 75 74  1  0
 76 72  1  0
 77 78  2  0
 78 79  1  0
 80 79  2  0
 81 80  1  0
 82 56  1  0
 82 83  1  0
 82 92  1  0
 83 86  1  0
 84 88  1  0
 84 83  1  0
 85 84  2  0
 88 87  1  0
 90 88  1  0
 90 91  1  0
 90 89  1  0
 92 95  1  1
 92 93  1  0
 94 92  1  0
M  ISO  4  16 100  24 100  54 101  55 101
M  END
>  <TORSDO>  (13) 
F 21

>  <SCORE>  (13) 
-12.874

>  <name>  (13) 
12

>  <ligand_id>  (13) 
12

>  <original_smiles>  (13) 
[H]c1c([H])c([H])c2c(c1[H])C([H])([H])C([H])([H])C([H])([H])C2([H])N([H])C(=O)C1([H])N(C(=O)C([H])(N([H])C(=O)C([H])(N([H])C([H])([H])[H])C([H])([H])[H])C(C([H])([H])[H])(C([H])([H])[H])C([H])([H])[H])C([H])([H])c2c([H])c(OC([H])([H])c3c([H])c([H])c(C4([H])C([H])([H])C4([H])[N+]([H])([H])C([H])([H])C([H])(N([H])C(=O)N4C([H])([H])C([H])([H])C([H])([H])C([H])(n5nc(-c6c([H])c([H])c(Oc7c([H])c([H])c(F)c([H])c7F)c([H])c6[H])c(C(=O)N([H])[H])c5N([H])[H])C4([H])[H])C([H])([H])[H])c([H])c3[H])c([H])c([H])c2C1([H])[H]

>  <smiles>  (13) 
[H]c1c([H])c([H])c2c(c1[H])C([H])([H])C([H])([H])C([H])([H])C2([H])N([H])C(=O)C1([H])N(C(=O)C([H])(N([H])C(=O)C([H])(N([H])C([H])([H])[H])C([H])([H])[H])C(C([H])([H])[H])(C([H])([H])[H])C([H])([H])[H])C([H])([H])c2c([H])c(OC([H])([H])c3c([H])c([H])c(C4([H])C([H])([H])C4([H])[N+]([H])([H])C([H])([H])C([H])(N([H])C(=O)N4C([H])([H])C([H])([H])C([H])([H])C([H])(n5nc(-c6c([H])c([H])c(Oc7c([H])c([H])c(F)c([H])c7F)c([H])c6[H])c(C(=O)N([H])[H])c5N([H])[H])C4([H])[H])C([H])([H])[H])c([H])c3[H])c([H])c([H])c2C1([H])[H]

$$$$
13:0:0
     RDKit          3D

 96106  0  0  1  0  0  0  0  0999 V2000
  -30.2420  -23.3680   20.4390 C   0  0  0  0  0  3  0  0  0  0  0  0
  -30.0260  -24.7740   20.2120 C   0  0  0  0  0  3  0  0  0  0  0  0
  -27.9330  -24.3010   19.2230 C   0  0  0  0  0  3  0  0  0  0  0  0
  -28.1570  -22.8850   19.3760 C   0  0  0  0  0  0  0  0  0  0  0  0
  -29.3050  -22.3580   20.0650 C   0  0  0  0  0  0  0  0  0  0  0  0
  -28.8450  -25.3220   19.6250 C   0  0  0  0  0  0  0  0  0  0  0  0
  -25.1630  -21.5450   17.9760 C   0  0  0  0  0  2  0  0  0  0  0  0
  -25.6530  -21.9830   19.3590 C   0  0  0  0  0  2  0  0  0  0  0  0
  -26.4870  -22.0650   17.4070 C   0  0  0  0  0  2  0  0  0  0  0  0
  -27.0900  -21.9380   18.8220 C   0  0  0  0  0  3  0  0  0  0  0  0
  -28.7000  -26.7520   19.4790 O   0  0  0  0  0  0  0  0  0  0  0  0
  -24.5820  -31.6840   22.9140 C   0  0  0  0  0  0  0  0  0  0  0  0
  -27.5060  -27.5180   19.5320 C   0  0  0  0  0  0  0  0  0  0  0  0
  -23.4750  -30.3090   21.1870 C   0  0  0  0  0  3  0  0  0  0  0  0
  -25.0280  -28.9790   19.6450 C   0  0  0  0  0  0  0  0  0  0  0  0
  -25.9820  -30.8250   21.0190 C   0  0  0  0  0  2  0  0  0  0  0  0
  -26.1610  -29.4940   20.2870 C   0  0  0  0  0  0  0  0  0  0  0  0
  -27.3960  -28.7670   20.2360 C   0  0  0  0  0  3  0  0  0  0  0  0
  -26.3630  -27.1160   18.8080 C   0  0  0  0  0  3  0  0  0  0  0  0
  -25.1350  -27.7980   18.8970 C   0  0  0  0  0  3  0  0  0  0  0  0
  -23.7300  -29.7530   19.7610 C   0  0  0  0  0  2  0  0  0  0  0  0
  -24.6980  -30.9570   21.7650 N   0  0  0  0  0  0  0  0  0  0  0  0
  -23.4860  -31.8360   23.4730 O   0  0  0  0  0  0  0  0  0  0  0  0
  -22.9060  -29.1770   22.0770 C   0  0  0  0  0  0  0  0  0  0  0  0
  -21.5840  -28.9430   21.9920 N   0  0  0  0  0  0  0  0  0  0  0  0
  -23.6510  -28.5170   22.8070 O   0  0  0  0  0  0  0  0  0  0  0  0
  -21.0390  -29.5320   21.3770 H   0  0  0  0  0  0  0  0  0  0  0  0
  -18.2860  -27.5900   22.6040 C   0  0  0  0  0  0  0  0  0  0  0  0
  -20.8510  -27.8990   22.7100 C   0  0  0  0  0  3  0  0  0  0  0  0
  -20.9400  -26.5450   21.9680 C   0  0  0  0  0  2  0  0  0  0  0  0
  -19.7710  -26.3070   21.0080 C   0  0  0  0  0  2  0  0  0  0  0  0
  -18.4400  -26.3340   21.7650 C   0  0  0  0  0  2  0  0  0  0  0  0
  -19.4160  -28.3340   23.0360 C   0  0  0  0  0  0  0  0  0  0  0  0
  -19.2150  -29.5120   23.7870 C   0  0  0  0  0  3  0  0  0  0  0  0
  -17.9160  -29.9500   24.1050 C   0  0  0  0  0  3  0  0  0  0  0  0
  -16.8010  -29.2020   23.6890 C   0  0  0  0  0  3  0  0  0  0  0  0
  -16.9870  -28.0230   22.9460 C   0  0  0  0  0  3  0  0  0  0  0  0
  -25.8170  -32.3740   23.5700 C   0  0  0  0  0  3  0  0  0  0  0  0
  -26.3990  -31.5690   24.7980 C   0  0  1  0  0  0  0  0  0  0  0  0
  -25.3350  -31.1960   25.8560 C   0  0  0  0  0  1  0  0  0  0  0  0
  -27.0730  -30.2600   24.3260 C   0  0  0  0  0  1  0  0  0  0  0  0
  -27.4980  -32.4020   25.5010 C   0  0  0  0  0  1  0  0  0  0  0  0
  -25.4050  -33.7220   23.9900 N   0  0  0  0  0  0  0  0  0  0  0  0
  -25.6600  -34.8440   23.3010 C   0  0  0  0  0  0  0  0  0  0  0  0
  -26.3350  -34.8560   22.2690 O   0  0  0  0  0  0  0  0  0  0  0  0
  -24.8050  -33.7820   24.7980 H   0  0  0  0  0  0  0  0  0  0  0  0
  -23.7990  -36.5200   23.0540 C   0  0  0  0  0  1  0  0  0  0  0  0
  -25.0700  -36.1610   23.8430 C   0  0  0  0  0  3  0  0  0  0  0  0
  -27.1360  -37.1500   24.7310 C   0  0  0  0  0  1  0  0  0  0  0  0
  -26.0210  -37.2930   23.7980 N   0  0  0  0  0  0  0  0  0  0  0  0
  -25.5470  -38.1680   24.0060 H   0  0  0  0  0  0  0  0  0  0  0  0
  -29.3270  -20.8800   20.7230 C   0  0  0  0  0  3  0  0  0  0  0  0
  -31.2060  -15.0860   19.6140 C   0  0  0  0  0  0  0  0  0  0  0  0
  -30.7980  -12.8040   18.6850 C   0  0  0  0  0  2  0  0  0  0  0  0
  -29.7370  -12.8680   17.5670 C   0  0  0  0  0  2  0  0  0  0  0  0
  -28.3240  -12.7280   18.1630 C   0  0  0  0  0  2  0  0  0  0  0  0
  -28.1000  -13.6460   19.3960 C   0  0  0  0  0  3  0  0  0  0  0  0
  -29.2790  -13.5960   20.3920 C   0  0  0  0  0  2  0  0  0  0  0  0
  -30.5010  -13.9020   19.6390 N   0  0  0  0  0  0  0  0  0  0  0  0
  -32.3470  -15.0910   19.1440 O   0  0  0  0  0  0  0  0  0  0  0  0
  -29.3370  -18.5460   19.2500 C   0  0  0  0  0  2  0  0  0  0  0  0
  -30.6790  -18.5690   21.2360 C   0  0  0  0  0  2  0  0  0  0  0  0
  -30.0400  -17.1630   18.8580 C   0  0  0  0  0  2  0  0  0  0  0  0
  -31.4140  -17.2610   20.7590 C   0  0  0  0  0  2  0  0  0  0  0  0
  -30.1410  -19.5640   20.1420 C   0  0  0  0  0  3  0  0  0  0  0  0
  -30.6040  -16.3060   19.9510 N   0  0  0  0  0  0  0  0  0  0  0  0
  -25.8910  -14.2830   20.5280 C   0  0  0  0  0  0  0  0  0  0  0  0
  -24.8270  -13.5370   20.9570 C   0  0  0  0  0  0  0  0  0  0  0  0
  -25.1730  -12.1730   20.7070 C   0  0  0  0  0  0  0  0  0  0  0  0
  -26.8190  -13.3780   20.0440 N   0  0  0  0  0  0  0  0  0  0  0  0
  -26.4030  -12.0940   20.2120 N   0  0  0  0  0  0  0  0  0  0  0  0
  -24.3810  -10.9450   20.8560 C   0  0  0  0  0  0  0  0  0  0  0  0
  -24.7850   -9.9040   21.7210 C   0  0  0  0  0  3  0  0  0  0  0  0
  -23.9940   -8.7440   21.8630 C   0  0  0  0  0  3  0  0  0  0  0  0
  -22.7840   -8.6160   21.1390 C   0  0  0  0  0  0  0  0  0  0  0  0
  -22.3980   -9.6450   20.2630 C   0  0  0  0  0  3  0  0  0  0  0  0
  -23.1900  -10.7970   20.1190 C   0  0  0  0  0  3  0  0  0  0  0  0
  -21.9680   -7.5110   21.1940 O   0  0  0  0  0  0  0  0  0  0  0  0
  -21.8130   -6.7840   22.3480 C   0  0  0  0  0  0  0  0  0  0  0  0
  -21.3370   -7.3720   23.5400 C   0  0  0  0  0  3  0  0  0  0  0  0
  -21.1280   -6.5740   24.6840 C   0  0  0  0  0  3  0  0  0  0  0  0
  -21.3840   -5.1910   24.6340 C   0  0  0  0  0  0  0  0  0  0  0  0
  -21.8540   -4.6030   23.4460 C   0  0  0  0  0  3  0  0  0  0  0  0
  -22.0640   -5.3970   22.3060 C   0  0  0  0  0  0  0  0  0  0  0  0
  -22.4960   -4.8220   21.1570 F   0  0  0  0  0  0  0  0  0  0  0  0
  -21.1770   -4.4230   25.7290 F   0  0  0  0  0  0  0  0  0  0  0  0
  -23.5230  -14.0650   21.4790 C   0  0  0  0  0  0  0  0  0  0  0  0
  -22.8760  -13.3250   22.3740 N   0  0  0  0  0  0  0  0  0  0  0  0
  -23.0930  -15.1640   21.1330 O   0  0  0  0  0  0  0  0  0  0  0  0
  -23.2390  -12.4340   22.6780 H   0  0  0  0  0  0  0  0  0  0  0  0
  -22.0040  -13.6570   22.7600 H   0  0  0  0  0  0  0  0  0  0  0  0
  -26.1390  -15.6520   20.4870 N   0  0  0  0  0  0  0  0  0  0  0  0
  -25.4540  -16.3360   20.7870 H   0  0  0  0  0  0  0  0  0  0  0  0
  -26.9870  -16.0710   20.1280 H   0  0  0  0  0  0  0  0  0  0  0  0
  -28.9680  -20.3040   23.2970 C   0  0  0  0  0  1  0  0  0  0  0  0
  -29.6460  -21.1780   22.2250 C   0  0  0  0  0  2  0  0  0  0  0  0
  2  1  1  0
  3  4  2  0
  3  6  1  0
  4  5  1  0
  5  1  2  0
  5 52  1  0
  6  2  2  0
  7  8  1  0
  9  7  1  0
  9 10  1  0
 10  8  1  0
 10  4  1  0
 11 13  1  0
 11  6  1  0
 12 23  2  0
 13 18  1  0
 14 22  1  0
 14 24  1  0
 15 21  1  0
 15 17  1  0
 16 22  1  0
 17 16  1  0
 18 17  2  0
 19 20  1  0
 19 13  2  0
 20 15  2  0
 21 14  1  0
 22 12  1  0
 24 26  2  0
 25 24  1  0
 27 25  1  0
 28 37  2  0
 28 33  1  0
 29 25  1  0
 29 33  1  0
 30 29  1  0
 31 32  1  0
 31 30  1  0
 32 28  1  0
 33 34  2  0
 34 35  1  0
 36 35  2  0
 37 36  1  0
 38 12  1  0
 38 43  1  0
 38 39  1  0
 39 42  1  1
 39 40  1  0
 41 39  1  0
 43 46  1  0
 44 48  1  0
 44 43  1  0
 45 44  2  0
 48 47  1  0
 50 48  1  0
 50 51  1  0
 50 49  1  0
 52 96  1  0
 53 59  1  0
 53 66  1  0
 54 59  1  0
 55 56  1  0
 55 54  1  0
 57 56  1  0
 57 70  1  0
 57 58  1  0
 59 58  1  0
 60 53  2  0
 61 65  1  0
 63 61  1  0
 63 66  1  0
 64 62  1  0
 65 52  1  0
 65 62  1  0
 66 64  1  0
 67 68  2  0
 68 87  1  0
 69 72  1  0
 69 68  1  0
 70 71  1  0
 70 67  1  0
 71 69  2  0
 72 73  1  0
 73 74  2  0
 75 78  1  0
 75 74  1  0
 76 75  2  0
 77 76  1  0
 77 72  2  0
 78 79  1  0
 79 80  1  0
 80 81  2  0
 82 81  1  0
 82 86  1  0
 83 82  2  0
 84 79  2  0
 84 83  1  0
 85 84  1  0
 87 88  1  0
 88 90  1  0
 88 91  1  0
 89 87  2  0
 92 67  1  0
 92 93  1  0
 94 92  1  0
 96 95  1  0
M  ISO  4   6 101  11 101  53 100  66 100
M  END
>  <TORSDO>  (14) 
F 19

>  <SCORE>  (14) 
-8.937

>  <name>  (14) 
13

>  <ligand_id>  (14) 
13

>  <original_smiles>  (14) 
[H]c1c([H])c([H])c2c(c1[H])C([H])([H])C([H])([H])C([H])([H])C2([H])N([H])C(=O)C1([H])N(C(=O)C([H])(N([H])C(=O)C([H])(N([H])C([H])([H])[H])C([H])([H])[H])C(C([H])([H])[H])(C([H])([H])[H])C([H])([H])[H])C([H])([H])c2c([H])c(Oc3c([H])c([H])c(C([H])(C([H])([H])C([H])([H])[H])C4([H])C([H])([H])C([H])([H])N(C(=O)N5C([H])([H])C([H])([H])C([H])([H])C([H])(n6nc(-c7c([H])c([H])c(Oc8c([H])c([H])c(F)c([H])c8F)c([H])c7[H])c(C(=O)N([H])[H])c6N([H])[H])C5([H])[H])C([H])([H])C4([H])[H])c(C4([H])C([H])([H])C([H])([H])C4([H])[H])c3[H])c([H])c([H])c2C1([H])[H]

>  <smiles>  (14) 
[H]c1c([H])c([H])c2c(c1[H])C([H])([H])C([H])([H])C([H])([H])C2([H])N([H])C(=O)C1([H])N(C(=O)C([H])(N([H])C(=O)C([H])(N([H])C([H])([H])[H])C([H])([H])[H])C(C([H])([H])[H])(C([H])([H])[H])C([H])([H])[H])C([H])([H])c2c([H])c(Oc3c([H])c([H])c(C([H])(C([H])([H])C([H])([H])[H])C4([H])C([H])([H])C([H])([H])N(C(=O)N5C([H])([H])C([H])([H])C([H])([H])C([H])(n6nc(-c7c([H])c([H])c(Oc8c([H])c([H])c(F)c([H])c8F)c([H])c7[H])c(C(=O)N([H])[H])c6N([H])[H])C5([H])[H])C([H])([H])C4([H])[H])c(C4([H])C([H])([H])C([H])([H])C4([H])[H])c3[H])c([H])c([H])c2C1([H])[H]

$$$$
14:0:0
     RDKit          3D

100109  0  0  1  0  0  0  0  0999 V2000
  -29.9760  -19.5680   24.0840 C   0  0  0  0  0  3  0  0  0  0  0  0
  -29.9770  -18.2240   23.6680 C   0  0  0  0  0  3  0  0  0  0  0  0
  -30.5180  -20.2630   21.8140 C   0  0  0  0  0  3  0  0  0  0  0  0
  -30.2410  -20.5990   23.1580 C   0  0  0  0  0  0  0  0  0  0  0  0
  -30.4990  -18.9200   21.3860 C   0  0  0  0  0  0  0  0  0  0  0  0
  -30.2280  -17.8960   22.3210 C   0  0  0  0  0  0  0  0  0  0  0  0
  -30.7880  -18.5970   19.9290 C   0  0  0  0  0  1  0  0  0  0  0  0
  -31.3990  -22.8610   23.0170 C   0  0  0  0  0  2  0  0  0  0  0  0
  -28.8680  -22.7520   23.4350 C   0  0  0  0  0  2  0  0  0  0  0  0
  -31.0000  -24.3080   22.6840 C   0  0  0  0  0  2  0  0  0  0  0  0
  -28.6990  -23.5200   22.1030 C   0  0  0  0  0  2  0  0  0  0  0  0
  -30.2330  -22.0530   23.6220 C   0  0  0  0  0  3  0  0  0  0  0  0
  -29.9000  -24.3060   21.6840 N   0  0  1  0  0  4  0  0  0  0  0  0
  -30.2720  -23.7990   20.8930 H   0  0  0  0  0  0  0  0  0  0  0  0
  -29.5260  -25.6430   21.1530 C   0  0  0  0  0  2  0  0  0  0  0  0
  -30.7020  -26.4740   20.5820 C   0  0  0  0  0  2  0  0  0  0  0  0
  -30.2600  -27.4510   19.6380 O   0  0  0  0  0  0  0  0  0  0  0  0
  -25.2650  -30.8130   23.4490 C   0  0  0  0  0  0  0  0  0  0  0  0
  -28.9510  -27.8330   19.7690 C   0  0  0  0  0  0  0  0  0  0  0  0
  -24.4520  -29.4140   21.5760 C   0  0  0  0  0  3  0  0  0  0  0  0
  -26.2430  -28.5770   19.9660 C   0  0  0  0  0  0  0  0  0  0  0  0
  -26.7760  -30.4770   21.5020 C   0  0  0  0  0  2  0  0  0  0  0  0
  -27.2210  -29.2990   20.6640 C   0  0  0  0  0  0  0  0  0  0  0  0
  -28.5790  -28.9280   20.5760 C   0  0  0  0  0  3  0  0  0  0  0  0
  -27.9630  -27.1250   19.0560 C   0  0  0  0  0  3  0  0  0  0  0  0
  -26.6070  -27.4800   19.1640 C   0  0  0  0  0  3  0  0  0  0  0  0
  -24.8130  -29.0430   20.1130 C   0  0  0  0  0  2  0  0  0  0  0  0
  -25.5120  -30.2440   22.2360 N   0  0  0  0  0  0  0  0  0  0  0  0
  -24.1620  -30.6930   23.9990 O   0  0  0  0  0  0  0  0  0  0  0  0
  -24.1250  -28.1150   22.3470 C   0  0  0  0  0  0  0  0  0  0  0  0
  -22.9620  -27.5160   22.0400 N   0  0  0  0  0  0  0  0  0  0  0  0
  -24.9160  -27.6540   23.1740 O   0  0  0  0  0  0  0  0  0  0  0  0
  -22.3660  -27.9620   21.3560 H   0  0  0  0  0  0  0  0  0  0  0  0
  -20.2490  -25.1380   21.9020 C   0  0  0  0  0  0  0  0  0  0  0  0
  -22.4640  -26.2670   22.6100 C   0  0  0  0  0  3  0  0  0  0  0  0
  -23.1690  -25.0450   21.9780 C   0  0  0  0  0  2  0  0  0  0  0  0
  -22.4140  -24.4660   20.7780 C   0  0  0  0  0  2  0  0  0  0  0  0
  -21.0050  -24.0300   21.1910 C   0  0  0  0  0  2  0  0  0  0  0  0
  -20.9330  -26.1970   22.5560 C   0  0  0  0  0  0  0  0  0  0  0  0
  -20.1820  -27.2220   23.1720 C   0  0  0  0  0  3  0  0  0  0  0  0
  -18.7750  -27.2000   23.1440 C   0  0  0  0  0  3  0  0  0  0  0  0
  -18.1020  -26.1400   22.5090 C   0  0  0  0  0  3  0  0  0  0  0  0
  -18.8380  -25.1110   21.8950 C   0  0  0  0  0  3  0  0  0  0  0  0
  -26.3470  -31.6610   24.1910 C   0  0  0  0  0  3  0  0  0  0  0  0
  -25.8140  -33.0200   24.3440 N   0  0  0  0  0  0  0  0  0  0  0  0
  -26.1330  -34.0540   23.5540 C   0  0  0  0  0  0  0  0  0  0  0  0
  -26.9740  -33.9760   22.6540 O   0  0  0  0  0  0  0  0  0  0  0  0
  -25.0780  -33.1430   25.0250 H   0  0  0  0  0  0  0  0  0  0  0  0
  -24.2810  -35.5620   22.7640 C   0  0  0  0  0  1  0  0  0  0  0  0
  -25.4010  -35.3860   23.8020 C   0  0  0  0  0  3  0  0  0  0  0  0
  -27.2520  -36.5920   24.8750 C   0  0  0  0  0  1  0  0  0  0  0  0
  -26.2960  -36.5630   23.7710 N   0  0  0  0  0  0  0  0  0  0  0  0
  -25.7600  -37.4260   23.7940 H   0  0  0  0  0  0  0  0  0  0  0  0
  -26.7590  -31.0580   25.5900 C   0  0  1  0  0  0  0  0  0  0  0  0
  -25.5550  -30.7170   26.4970 C   0  0  0  0  0  1  0  0  0  0  0  0
  -27.5930  -29.7690   25.4050 C   0  0  0  0  0  1  0  0  0  0  0  0
  -27.6580  -32.0630   26.3480 C   0  0  0  0  0  1  0  0  0  0  0  0
  -30.2190  -16.5630   21.9120 N   0  0  0  0  0  0  0  0  0  0  0  0
  -29.7870  -16.4580   21.0010 H   0  0  0  0  0  0  0  0  0  0  0  0
  -31.5380  -15.9440   21.9110 C   0  0  0  0  0  2  0  0  0  0  0  0
  -33.3480  -14.9480   20.4340 C   0  0  0  0  0  1  0  0  0  0  0  0
  -31.8830  -15.4050   20.5120 C   0  0  0  0  0  3  0  0  0  0  0  0
  -30.8390  -13.6980   19.0040 C   0  0  0  0  0  0  0  0  0  0  0  0
  -30.2550  -11.4670   18.1480 C   0  0  0  0  0  2  0  0  0  0  0  0
  -29.0930  -11.4500   17.1450 C   0  0  0  0  0  2  0  0  0  0  0  0
  -27.7460  -11.3650   17.8810 C   0  0  0  0  0  2  0  0  0  0  0  0
  -27.6120  -12.4360   18.9920 C   0  0  0  0  0  3  0  0  0  0  0  0
  -28.8580  -12.4450   19.9060 C   0  0  0  0  0  2  0  0  0  0  0  0
  -30.0710  -12.5870   19.0760 N   0  0  0  0  0  0  0  0  0  0  0  0
  -31.5360  -13.9970   18.0300 O   0  0  0  0  0  0  0  0  0  0  0  0
  -30.9650  -14.3180   20.1800 N   0  0  0  0  0  0  0  0  0  0  0  0
  -30.4200  -13.9440   20.9440 H   0  0  0  0  0  0  0  0  0  0  0  0
  -25.5130  -13.2010   20.2760 C   0  0  0  0  0  0  0  0  0  0  0  0
  -24.4800  -12.5020   20.8400 C   0  0  0  0  0  0  0  0  0  0  0  0
  -24.7740  -11.1210   20.6230 C   0  0  0  0  0  0  0  0  0  0  0  0
  -26.3800  -12.2510   19.7580 N   0  0  0  0  0  0  0  0  0  0  0  0
  -25.9480  -10.9900   20.0180 N   0  0  0  0  0  0  0  0  0  0  0  0
  -23.9790   -9.9180   20.9030 C   0  0  0  0  0  0  0  0  0  0  0  0
  -24.4570   -8.9000   21.7590 C   0  0  0  0  0  3  0  0  0  0  0  0
  -23.6680   -7.7620   22.0270 C   0  0  0  0  0  3  0  0  0  0  0  0
  -22.3850   -7.6330   21.4430 C   0  0  0  0  0  0  0  0  0  0  0  0
  -21.9240   -8.6380   20.5750 C   0  0  0  0  0  3  0  0  0  0  0  0
  -22.7130   -9.7680   20.3040 C   0  0  0  0  0  3  0  0  0  0  0  0
  -21.5590   -6.5510   21.6270 O   0  0  0  0  0  0  0  0  0  0  0  0
  -21.5180   -5.8700   22.8170 C   0  0  0  0  0  0  0  0  0  0  0  0
  -21.1820   -6.5090   24.0300 C   0  0  0  0  0  3  0  0  0  0  0  0
  -21.0850   -5.7580   25.2180 C   0  0  0  0  0  3  0  0  0  0  0  0
  -21.3120   -4.3690   25.1950 C   0  0  0  0  0  0  0  0  0  0  0  0
  -21.6420   -3.7300   23.9870 C   0  0  0  0  0  3  0  0  0  0  0  0
  -21.7410   -4.4780   22.8010 C   0  0  0  0  0  0  0  0  0  0  0  0
  -22.0380   -3.8540   21.6360 F   0  0  0  0  0  0  0  0  0  0  0  0
  -21.2110   -3.6460   26.3350 F   0  0  0  0  0  0  0  0  0  0  0  0
  -23.2400  -13.0780   21.4600 C   0  0  0  0  0  0  0  0  0  0  0  0
  -22.6990  -12.4170   22.4770 N   0  0  0  0  0  0  0  0  0  0  0  0
  -22.7710  -14.1490   21.0780 O   0  0  0  0  0  0  0  0  0  0  0  0
  -23.0950  -11.5480   22.8060 H   0  0  0  0  0  0  0  0  0  0  0  0
  -21.8770  -12.7850   22.9350 H   0  0  0  0  0  0  0  0  0  0  0  0
  -25.7780  -14.5620   20.1430 N   0  0  0  0  0  0  0  0  0  0  0  0
  -25.1330  -15.2740   20.4690 H   0  0  0  0  0  0  0  0  0  0  0  0
  -26.5760  -14.9430   19.6510 H   0  0  0  0  0  0  0  0  0  0  0  0
  2  1  1  0
  3  4  1  0
  4  1  2  0
  5  3  2  0
  5  6  1  0
  6  2  2  0
  7  5  1  0
  8 12  1  0
  9 12  1  0
 10  8  1  0
 11  9  1  0
 12  4  1  0
 13 11  1  0
 13 10  1  0
 13 14  1  6
 15 13  1  0
 16 15  1  0
 17 19  1  0
 17 16  1  0
 18 29  2  0
 19 24  1  0
 20 28  1  0
 20 30  1  0
 21 27  1  0
 21 23  1  0
 22 28  1  0
 23 22  1  0
 24 23  2  0
 25 26  1  0
 25 19  2  0
 26 21  2  0
 27 20  1  0
 28 18  1  0
 30 32  2  0
 31 30  1  0
 33 31  1  0
 34 39  1  0
 35 31  1  0
 36 35  1  0
 37 38  1  0
 37 36  1  0
 38 34  1  0
 39 35  1  0
 39 40  2  0
 41 40  1  0
 42 41  2  0
 43 34  2  0
 43 42  1  0
 44 18  1  0
 44 45  1  0
 44 54  1  0
 45 48  1  0
 46 50  1  0
 46 45  1  0
 47 46  2  0
 50 49  1  0
 52 53  1  0
 52 50  1  0
 52 51  1  0
 54 57  1  1
 54 55  1  0
 56 54  1  0
 58  6  1  0
 59 58  1  0
 60 58  1  0
 62 61  1  0
 62 60  1  0
 63 69  1  0
 63 71  1  0
 64 69  1  0
 65 66  1  0
 65 64  1  0
 67 66  1  0
 67 76  1  0
 67 68  1  0
 69 68  1  0
 70 63  2  0
 71 62  1  0
 71 72  1  0
 73 74  2  0
 74 93  1  0
 75 74  1  0
 75 78  1  0
 76 77  1  0
 76 73  1  0
 77 75  2  0
 78 79  1  0
 79 80  2  0
 81 84  1  0
 81 80  1  0
 82 81  2  0
 83 82  1  0
 83 78  2  0
 84 85  1  0
 85 86  1  0
 86 87  2  0
 88 87  1  0
 88 92  1  0
 89 88  2  0
 90 85  2  0
 90 89  1  0
 91 90  1  0
 93 94  1  0
 94 96  1  0
 94 97  1  0
 95 93  2  0
 98 73  1  0
 98 99  1  0
100 98  1  0
M  ISO  4  16 101  17 101  63 100  71 100
M  END
>  <TORSDO>  (15) 
F 22

>  <SCORE>  (15) 
-0.725

>  <name>  (15) 
14

>  <ligand_id>  (15) 
14

>  <original_smiles>  (15) 
[H]c1c([H])c([H])c2c(c1[H])C([H])([H])C([H])([H])C([H])([H])C2([H])N([H])C(=O)C1([H])N(C(=O)C([H])(N([H])C(=O)C([H])(N([H])C([H])([H])[H])C([H])([H])[H])C(C([H])([H])[H])(C([H])([H])[H])C([H])([H])[H])C([H])([H])c2c([H])c(OC([H])([H])C([H])([H])[N+]3([H])C([H])([H])C([H])([H])C([H])(c4c([H])c([H])c(N([H])C([H])([H])C([H])(N([H])C(=O)N5C([H])([H])C([H])([H])C([H])([H])C([H])(n6nc(-c7c([H])c([H])c(Oc8c([H])c([H])c(F)c([H])c8F)c([H])c7[H])c(C(=O)N([H])[H])c6N([H])[H])C5([H])[H])C([H])([H])[H])c(C([H])([H])[H])c4[H])C([H])([H])C3([H])[H])c([H])c([H])c2C1([H])[H]

>  <smiles>  (15) 
[H]c1c([H])c([H])c2c(c1[H])C([H])([H])C([H])([H])C([H])([H])C2([H])N([H])C(=O)C1([H])N(C(=O)C([H])(N([H])C(=O)C([H])(N([H])C([H])([H])[H])C([H])([H])[H])C(C([H])([H])[H])(C([H])([H])[H])C([H])([H])[H])C([H])([H])c2c([H])c(OC([H])([H])C([H])([H])[N+]3([H])C([H])([H])C([H])([H])C([H])(c4c([H])c([H])c(N([H])C([H])([H])C([H])(N([H])C(=O)N5C([H])([H])C([H])([H])C([H])([H])C([H])(n6nc(-c7c([H])c([H])c(Oc8c([H])c([H])c(F)c([H])c8F)c([H])c7[H])c(C(=O)N([H])[H])c6N([H])[H])C5([H])[H])C([H])([H])[H])c(C([H])([H])[H])c4[H])C([H])([H])C3([H])[H])c([H])c([H])c2C1([H])[H]

$$$$
15:0:0
     RDKit          3D

 95104  0  0  1  0  0  0  0  0999 V2000
  -27.8470  -22.8080   20.6830 C   0  0  0  0  0  2  0  0  0  0  0  0
  -27.4130  -24.2690   20.9350 C   0  0  0  0  0  2  0  0  0  0  0  0
  -29.3820  -22.8370   20.5620 C   0  0  0  0  0  3  0  0  0  0  0  0
  -28.2760  -25.0990   19.9730 C   0  0  0  0  0  3  0  0  0  0  0  0
  -29.6320  -24.3170   20.0340 C   0  0  0  0  0  3  0  0  0  0  0  0
  -30.4580  -24.9990   20.9620 O   0  0  0  0  0  0  0  0  0  0  0  0
  -30.2440  -25.9240   20.8680 H   0  0  0  0  0  0  0  0  0  0  0  0
  -28.3640  -26.5540   20.2130 O   0  0  0  0  0  0  0  0  0  0  0  0
  -24.6000  -31.8730   23.2400 C   0  0  0  0  0  0  0  0  0  0  0  0
  -27.2140  -27.3510   20.1620 C   0  0  0  0  0  0  0  0  0  0  0  0
  -23.3900  -30.4780   21.5990 C   0  0  0  0  0  3  0  0  0  0  0  0
  -24.8370  -28.9350   20.1660 C   0  0  0  0  0  0  0  0  0  0  0  0
  -25.9250  -30.8070   21.4070 C   0  0  0  0  0  2  0  0  0  0  0  0
  -26.0040  -29.4320   20.7590 C   0  0  0  0  0  0  0  0  0  0  0  0
  -27.1930  -28.6510   20.7480 C   0  0  0  0  0  3  0  0  0  0  0  0
  -26.0240  -26.9000   19.5450 C   0  0  0  0  0  3  0  0  0  0  0  0
  -24.8470  -27.6730   19.5520 C   0  0  0  0  0  3  0  0  0  0  0  0
  -23.5980  -29.8040   20.2180 C   0  0  0  0  0  2  0  0  0  0  0  0
  -24.6580  -31.0700   22.1390 N   0  0  0  0  0  0  0  0  0  0  0  0
  -23.5180  -32.1500   23.7790 O   0  0  0  0  0  0  0  0  0  0  0  0
  -22.7320  -29.4590   22.5590 C   0  0  0  0  0  0  0  0  0  0  0  0
  -21.4080  -29.2770   22.4280 N   0  0  0  0  0  0  0  0  0  0  0  0
  -23.4110  -28.8370   23.3780 O   0  0  0  0  0  0  0  0  0  0  0  0
  -20.9190  -29.8320   21.7380 H   0  0  0  0  0  0  0  0  0  0  0  0
  -18.0330  -28.0740   22.9160 C   0  0  0  0  0  0  0  0  0  0  0  0
  -20.5890  -28.3400   23.1970 C   0  0  0  0  0  3  0  0  0  0  0  0
  -20.6960  -26.9080   22.6240 C   0  0  0  0  0  2  0  0  0  0  0  0
  -19.6000  -26.5800   21.6060 C   0  0  0  0  0  2  0  0  0  0  0  0
  -18.2150  -26.7230   22.2430 C   0  0  0  0  0  2  0  0  0  0  0  0
  -19.1480  -28.8400   23.3480 C   0  0  0  0  0  0  0  0  0  0  0  0
  -18.9230  -30.1030   23.9370 C   0  0  0  0  0  3  0  0  0  0  0  0
  -17.6160  -30.6010   24.0960 C   0  0  0  0  0  3  0  0  0  0  0  0
  -16.5160  -29.8330   23.6800 C   0  0  0  0  0  3  0  0  0  0  0  0
  -16.7240  -28.5710   23.0950 C   0  0  0  0  0  3  0  0  0  0  0  0
  -25.8860  -32.5030   23.8610 C   0  0  0  0  0  3  0  0  0  0  0  0
  -26.4020  -31.7300   25.1370 C   0  0  1  0  0  0  0  0  0  0  0  0
  -25.3080  -31.4950   26.2050 C   0  0  0  0  0  1  0  0  0  0  0  0
  -26.9810  -30.3510   24.7440 C   0  0  0  0  0  1  0  0  0  0  0  0
  -27.5540  -32.5210   25.7980 C   0  0  0  0  0  1  0  0  0  0  0  0
  -25.5810  -33.9020   24.1900 N   0  0  0  0  0  0  0  0  0  0  0  0
  -25.9150  -34.9530   23.4300 C   0  0  0  0  0  0  0  0  0  0  0  0
  -26.5820  -34.8470   22.3980 O   0  0  0  0  0  0  0  0  0  0  0  0
  -24.9880  -34.0590   24.9920 H   0  0  0  0  0  0  0  0  0  0  0  0
  -24.1930  -36.7520   23.0760 C   0  0  0  0  0  1  0  0  0  0  0  0
  -25.4320  -36.3430   23.8870 C   0  0  0  0  0  3  0  0  0  0  0  0
  -27.5680  -37.2230   24.7220 C   0  0  0  0  0  1  0  0  0  0  0  0
  -26.4690  -37.3920   23.7740 N   0  0  0  0  0  0  0  0  0  0  0  0
  -26.0660  -38.3150   23.9190 H   0  0  0  0  0  0  0  0  0  0  0  0
  -30.0480  -21.6270   19.7610 C   0  0  0  0  0  3  0  0  0  0  0  0
  -30.6670  -19.4570   21.2650 C   0  0  0  0  0  2  0  0  0  0  0  0
  -29.5230  -19.1360   19.0080 C   0  0  0  0  0  2  0  0  0  0  0  0
  -30.3220  -17.9820   21.6890 C   0  0  0  0  0  2  0  0  0  0  0  0
  -30.0750  -17.6810   19.1860 C   0  0  0  0  0  2  0  0  0  0  0  0
  -29.7110  -20.1200   20.2180 C   0  0  0  0  0  3  0  0  0  0  0  0
  -29.7090  -17.1010   20.5660 C   0  0  0  0  0  3  0  0  0  0  0  0
  -30.5970  -14.6150   20.2950 C   0  0  0  0  0  0  0  0  0  0  0  0
  -30.3680  -12.4190   19.1590 C   0  0  0  0  0  2  0  0  0  0  0  0
  -29.3930  -12.6010   17.9730 C   0  0  0  0  0  2  0  0  0  0  0  0
  -27.9270  -12.4430   18.4290 C   0  0  0  0  0  2  0  0  0  0  0  0
  -27.6080  -13.2650   19.7050 C   0  0  0  0  0  3  0  0  0  0  0  0
  -28.6880  -13.0390   20.7900 C   0  0  0  0  0  2  0  0  0  0  0  0
  -29.9930  -13.3910   20.2030 N   0  0  0  0  0  0  0  0  0  0  0  0
  -31.7230  -14.8280   19.8320 O   0  0  0  0  0  0  0  0  0  0  0  0
  -29.7820  -15.6120   20.7420 N   0  0  0  0  0  0  0  0  0  0  0  0
  -28.9340  -15.2300   21.1340 H   0  0  0  0  0  0  0  0  0  0  0  0
  -25.2260  -13.8720   20.4630 C   0  0  0  0  0  0  0  0  0  0  0  0
  -24.1620  -13.1000   20.8460 C   0  0  0  0  0  0  0  0  0  0  0  0
  -24.6180  -11.7480   20.7960 C   0  0  0  0  0  0  0  0  0  0  0  0
  -26.2640  -12.9890   20.2060 N   0  0  0  0  0  0  0  0  0  0  0  0
  -25.9030  -11.7070   20.4640 N   0  0  0  0  0  0  0  0  0  0  0  0
  -23.8920  -10.4860   20.9890 C   0  0  0  0  0  0  0  0  0  0  0  0
  -24.3210   -9.5250   21.9300 C   0  0  0  0  0  3  0  0  0  0  0  0
  -23.5950   -8.3270   22.1110 C   0  0  0  0  0  3  0  0  0  0  0  0
  -22.4280   -8.0830   21.3510 C   0  0  0  0  0  0  0  0  0  0  0  0
  -22.0170   -9.0340   20.4000 C   0  0  0  0  0  3  0  0  0  0  0  0
  -22.7440  -10.2230   20.2180 C   0  0  0  0  0  3  0  0  0  0  0  0
  -21.6750   -6.9370   21.4400 O   0  0  0  0  0  0  0  0  0  0  0  0
  -21.5980   -6.2150   22.6040 C   0  0  0  0  0  0  0  0  0  0  0  0
  -21.1210   -6.7860   23.8040 C   0  0  0  0  0  3  0  0  0  0  0  0
  -20.9930   -5.9890   24.9600 C   0  0  0  0  0  3  0  0  0  0  0  0
  -21.3320   -4.6230   24.9160 C   0  0  0  0  0  0  0  0  0  0  0  0
  -21.8020   -4.0520   23.7190 C   0  0  0  0  0  3  0  0  0  0  0  0
  -21.9310   -4.8460   22.5660 C   0  0  0  0  0  0  0  0  0  0  0  0
  -22.3650   -4.2870   21.4100 F   0  0  0  0  0  0  0  0  0  0  0  0
  -21.2030   -3.8560   26.0230 F   0  0  0  0  0  0  0  0  0  0  0  0
  -22.7720  -13.5800   21.1480 C   0  0  0  0  0  0  0  0  0  0  0  0
  -22.0570  -12.8790   22.0220 N   0  0  0  0  0  0  0  0  0  0  0  0
  -22.3270  -14.6110   20.6440 O   0  0  0  0  0  0  0  0  0  0  0  0
  -22.4290  -12.0450   22.4510 H   0  0  0  0  0  0  0  0  0  0  0  0
  -21.1250  -13.1820   22.2650 H   0  0  0  0  0  0  0  0  0  0  0  0
  -25.3920  -15.2440   20.2920 N   0  0  0  0  0  0  0  0  0  0  0  0
  -24.6260  -15.8980   20.4170 H   0  0  0  0  0  0  0  0  0  0  0  0
  -26.2300  -15.6810   19.9330 H   0  0  0  0  0  0  0  0  0  0  0  0
  -32.3060  -21.0550   18.5610 C   0  0  0  0  0  1  0  0  0  0  0  0
  -31.5810  -21.8670   19.6470 C   0  0  0  0  0  2  0  0  0  0  0  0
  1  2  1  0
  3 49  1  0
  3  1  1  0
  4  5  1  0
  4  8  1  0
  4  2  1  0
  5  3  1  0
  5  6  1  0
  7  6  1  0
  9 20  2  0
 10  8  1  0
 10 15  1  0
 11 19  1  0
 11 21  1  0
 12 18  1  0
 12 14  1  0
 13 19  1  0
 14 13  1  0
 15 14  2  0
 16 17  1  0
 16 10  2  0
 17 12  2  0
 18 11  1  0
 19  9  1  0
 21 23  2  0
 22 21  1  0
 24 22  1  0
 25 34  2  0
 25 30  1  0
 26 22  1  0
 26 30  1  0
 27 26  1  0
 28 29  1  0
 28 27  1  0
 29 25  1  0
 30 31  2  0
 31 32  1  0
 33 32  2  0
 34 33  1  0
 35  9  1  0
 35 40  1  0
 35 36  1  0
 36 39  1  1
 36 37  1  0
 38 36  1  0
 40 43  1  0
 41 45  1  0
 41 40  1  0
 42 41  2  0
 45 44  1  0
 47 45  1  0
 47 48  1  0
 47 46  1  0
 49 95  1  0
 50 52  1  0
 51 53  1  0
 51 54  1  0
 53 55  1  0
 54 49  1  0
 54 50  1  0
 55 64  1  0
 55 52  1  0
 56 64  1  0
 57 62  1  0
 58 59  1  0
 58 57  1  0
 60 59  1  0
 60 69  1  0
 60 61  1  0
 62 56  1  0
 62 61  1  0
 63 56  2  0
 64 65  1  0
 66 67  2  0
 67 86  1  0
 68 67  1  0
 68 71  1  0
 69 66  1  0
 69 70  1  0
 70 68  2  0
 71 72  1  0
 72 73  2  0
 74 77  1  0
 74 73  1  0
 75 74  2  0
 76 75  1  0
 76 71  2  0
 77 78  1  0
 78 79  1  0
 79 80  2  0
 81 80  1  0
 81 85  1  0
 82 81  2  0
 83 78  2  0
 83 82  1  0
 84 83  1  0
 86 87  1  0
 87 90  1  0
 87 89  1  0
 88 86  2  0
 91 92  1  0
 91 66  1  0
 93 91  1  0
 94 95  1  0
M  ISO  4   4 101   8 101  56 100  64 100
M  END
>  <TORSDO>  (16) 
F 20

>  <SCORE>  (16) 
-14.243

>  <name>  (16) 
15

>  <ligand_id>  (16) 
15

>  <original_smiles>  (16) 
[H]OC1([H])C([H])(Oc2c([H])c([H])c3c(c2[H])C([H])([H])N(C(=O)C([H])(N([H])C(=O)C([H])(N([H])C([H])([H])[H])C([H])([H])[H])C(C([H])([H])[H])(C([H])([H])[H])C([H])([H])[H])C([H])(C(=O)N([H])C2([H])c4c([H])c([H])c([H])c([H])c4C([H])([H])C([H])([H])C2([H])[H])C3([H])[H])C([H])([H])C([H])([H])C1([H])C([H])(C([H])([H])C([H])([H])[H])C1([H])C([H])([H])C([H])([H])C([H])(N([H])C(=O)N2C([H])([H])C([H])([H])C([H])([H])C([H])(n3nc(-c4c([H])c([H])c(Oc5c([H])c([H])c(F)c([H])c5F)c([H])c4[H])c(C(=O)N([H])[H])c3N([H])[H])C2([H])[H])C([H])([H])C1([H])[H]

>  <smiles>  (16) 
[H]OC1([H])C([H])(Oc2c([H])c([H])c3c(c2[H])C([H])([H])N(C(=O)C([H])(N([H])C(=O)C([H])(N([H])C([H])([H])[H])C([H])([H])[H])C(C([H])([H])[H])(C([H])([H])[H])C([H])([H])[H])C([H])(C(=O)N([H])C2([H])c4c([H])c([H])c([H])c([H])c4C([H])([H])C([H])([H])C2([H])[H])C3([H])[H])C([H])([H])C([H])([H])C1([H])C([H])(C([H])([H])C([H])([H])[H])C1([H])C([H])([H])C([H])([H])C([H])(N([H])C(=O)N2C([H])([H])C([H])([H])C([H])([H])C([H])(n3nc(-c4c([H])c([H])c(Oc5c([H])c([H])c(F)c([H])c5F)c([H])c4[H])c(C(=O)N([H])[H])c3N([H])[H])C2([H])[H])C([H])([H])C1([H])[H]

$$$$
16:0:0
     RDKit          3D

 93102  0  0  1  0  0  0  0  0999 V2000
  -28.9520  -19.0660   19.9330 C   0  0  0  0  0  2  0  0  0  0  0  0
  -31.2120  -18.4970   19.3440 C   0  0  0  0  0  0  0  0  0  0  0  0
  -29.9220  -17.9490   19.6720 C   0  0  0  0  0  0  0  0  0  0  0  0
  -29.2340  -20.5340   19.8300 C   0  0  0  0  0  0  0  0  0  0  0  0
  -31.3980  -19.9090   19.2030 C   0  0  0  0  0  0  0  0  0  0  0  0
  -30.4720  -20.8700   19.4500 N   0  0  0  0  0  4  0  0  0  0  0  0
  -30.3760  -15.1540   19.6150 C   0  0  0  0  0  0  0  0  0  0  0  0
  -30.2060  -12.7090   18.8970 C   0  0  0  0  0  2  0  0  0  0  0  0
  -29.1940  -12.5090   17.7480 C   0  0  0  0  0  2  0  0  0  0  0  0
  -27.7820  -12.2900   18.3150 C   0  0  0  0  0  2  0  0  0  0  0  0
  -27.4310  -13.3020   19.4370 C   0  0  0  0  0  3  0  0  0  0  0  0
  -28.5710  -13.4900   20.4650 C   0  0  0  0  0  2  0  0  0  0  0  0
  -29.7690  -13.8890   19.7130 N   0  0  0  0  0  0  0  0  0  0  0  0
  -31.5290  -15.1220   19.1860 O   0  0  0  0  0  0  0  0  0  0  0  0
  -29.6510  -16.4020   19.7850 N   0  0  0  0  0  0  0  0  0  0  0  0
  -28.6900  -16.1990   20.0090 H   0  0  0  0  0  0  0  0  0  0  0  0
  -25.1680  -13.8860   20.4710 C   0  0  0  0  0  0  0  0  0  0  0  0
  -24.1310  -13.1170   20.9200 C   0  0  0  0  0  0  0  0  0  0  0  0
  -24.5550  -11.7590   20.7790 C   0  0  0  0  0  0  0  0  0  0  0  0
  -26.1540  -13.0000   20.0710 N   0  0  0  0  0  0  0  0  0  0  0  0
  -25.8040  -11.7130   20.3250 N   0  0  0  0  0  0  0  0  0  0  0  0
  -23.8220  -10.5050   20.9920 C   0  0  0  0  0  0  0  0  0  0  0  0
  -24.2860   -9.5150   21.8890 C   0  0  0  0  0  3  0  0  0  0  0  0
  -23.5440   -8.3300   22.0910 C   0  0  0  0  0  3  0  0  0  0  0  0
  -22.3270   -8.1220   21.4000 C   0  0  0  0  0  0  0  0  0  0  0  0
  -21.8820   -9.1000   20.4920 C   0  0  0  0  0  3  0  0  0  0  0  0
  -22.6220  -10.2780   20.2860 C   0  0  0  0  0  3  0  0  0  0  0  0
  -21.5570   -6.9890   21.5120 O   0  0  0  0  0  0  0  0  0  0  0  0
  -21.5290   -6.2520   22.6680 C   0  0  0  0  0  0  0  0  0  0  0  0
  -21.1150   -6.8120   23.8970 C   0  0  0  0  0  3  0  0  0  0  0  0
  -21.0310   -6.0000   25.0470 C   0  0  0  0  0  3  0  0  0  0  0  0
  -21.3530   -4.6320   24.9710 C   0  0  0  0  0  0  0  0  0  0  0  0
  -21.7640   -4.0740   23.7460 C   0  0  0  0  0  3  0  0  0  0  0  0
  -21.8460   -4.8810   22.5990 C   0  0  0  0  0  0  0  0  0  0  0  0
  -22.2200   -4.3350   21.4180 F   0  0  0  0  0  0  0  0  0  0  0  0
  -21.2670   -3.8510   26.0730 F   0  0  0  0  0  0  0  0  0  0  0  0
  -22.7860  -13.6120   21.3620 C   0  0  0  0  0  0  0  0  0  0  0  0
  -22.1470  -12.9030   22.2860 N   0  0  0  0  0  0  0  0  0  0  0  0
  -22.3140  -14.6600   20.9250 O   0  0  0  0  0  0  0  0  0  0  0  0
  -22.5440  -12.0530   22.6610 H   0  0  0  0  0  0  0  0  0  0  0  0
  -21.2540  -13.2190   22.6330 H   0  0  0  0  0  0  0  0  0  0  0  0
  -25.3520  -15.2590   20.3440 N   0  0  0  0  0  0  0  0  0  0  0  0
  -24.6290  -15.9270   20.5850 H   0  0  0  0  0  0  0  0  0  0  0  0
  -26.1620  -15.6940   19.9230 H   0  0  0  0  0  0  0  0  0  0  0  0
  -33.1160  -16.9140   20.2720 C   0  0  0  0  0  2  0  0  0  0  0  0
  -33.8410  -18.0070   19.5440 C   0  0  0  0  0  2  0  0  0  0  0  0
  -32.4300  -17.6290   19.1200 C   0  0  0  0  0  3  0  0  0  0  0  0
  -32.9370  -21.7520   18.7900 C   0  0  0  0  0  1  0  0  0  0  0  0
  -32.6220  -20.3610   18.7390 O   0  0  0  0  0  0  0  0  0  0  0  0
  -28.3490  -21.7000   20.0610 O   0  0  0  0  0  0  0  0  0  0  0  0
  -28.7120  -23.2340   19.9800 C   0  0  0  0  0  3  0  0  0  0  0  0
  -27.6490  -24.5920   19.9460 C   0  0  0  0  0  3  0  0  0  0  0  0
  -27.9340  -26.1540   19.9360 O   0  0  0  0  0  0  0  0  0  0  0  0
  -24.4940  -31.9050   23.1420 C   0  0  0  0  0  0  0  0  0  0  0  0
  -26.8840  -27.1660   19.9460 C   0  0  0  0  0  0  0  0  0  0  0  0
  -23.2050  -30.5180   21.5700 C   0  0  0  0  0  3  0  0  0  0  0  0
  -24.5640  -28.9470   20.0550 C   0  0  0  0  0  0  0  0  0  0  0  0
  -25.7500  -30.7740   21.2590 C   0  0  0  0  0  2  0  0  0  0  0  0
  -25.7830  -29.3820   20.5920 C   0  0  0  0  0  0  0  0  0  0  0  0
  -26.9420  -28.5110   20.5130 C   0  0  0  0  0  3  0  0  0  0  0  0
  -25.6310  -26.8400   19.3860 C   0  0  0  0  0  3  0  0  0  0  0  0
  -24.5020  -27.6880   19.4390 C   0  0  0  0  0  3  0  0  0  0  0  0
  -23.3460  -29.8540   20.1760 C   0  0  0  0  0  2  0  0  0  0  0  0
  -24.5070  -31.0870   22.0440 N   0  0  0  0  0  0  0  0  0  0  0  0
  -23.4370  -32.1880   23.7290 O   0  0  0  0  0  0  0  0  0  0  0  0
  -22.5790  -29.5050   22.5630 C   0  0  0  0  0  0  0  0  0  0  0  0
  -21.2630  -29.2520   22.4420 N   0  0  0  0  0  0  0  0  0  0  0  0
  -23.2830  -28.9470   23.4090 O   0  0  0  0  0  0  0  0  0  0  0  0
  -20.7490  -29.7570   21.7340 H   0  0  0  0  0  0  0  0  0  0  0  0
  -17.9830  -27.7870   22.9140 C   0  0  0  0  0  0  0  0  0  0  0  0
  -20.4970  -28.2950   23.2440 C   0  0  0  0  0  3  0  0  0  0  0  0
  -20.7460  -26.8440   22.7690 C   0  0  0  0  0  2  0  0  0  0  0  0
  -19.7180  -26.3610   21.7420 C   0  0  0  0  0  2  0  0  0  0  0  0
  -18.3030  -26.4200   22.3300 C   0  0  0  0  0  2  0  0  0  0  0  0
  -19.0130  -28.6730   23.3280 C   0  0  0  0  0  0  0  0  0  0  0  0
  -18.6590  -29.9400   23.8380 C   0  0  0  0  0  3  0  0  0  0  0  0
  -17.3090  -30.3280   23.9310 C   0  0  0  0  0  3  0  0  0  0  0  0
  -16.2950  -29.4430   23.5270 C   0  0  0  0  0  3  0  0  0  0  0  0
  -16.6310  -28.1740   23.0260 C   0  0  0  0  0  3  0  0  0  0  0  0
  -25.8010  -32.5430   23.7010 C   0  0  0  0  0  3  0  0  0  0  0  0
  -25.5020  -33.9390   24.0580 N   0  0  0  0  0  0  0  0  0  0  0  0
  -25.8160  -35.0050   23.3080 C   0  0  0  0  0  0  0  0  0  0  0  0
  -26.4480  -34.9140   22.2520 O   0  0  0  0  0  0  0  0  0  0  0  0
  -24.9320  -34.0840   24.8790 H   0  0  0  0  0  0  0  0  0  0  0  0
  -24.0980  -36.8240   23.0340 C   0  0  0  0  0  1  0  0  0  0  0  0
  -25.3570  -36.3910   23.8040 C   0  0  0  0  0  3  0  0  0  0  0  0
  -27.5190  -37.2410   24.5970 C   0  0  0  0  0  1  0  0  0  0  0  0
  -26.3980  -37.4360   23.6820 N   0  0  0  0  0  0  0  0  0  0  0  0
  -26.0060  -38.3580   23.8510 H   0  0  0  0  0  0  0  0  0  0  0  0
  -26.3810  -31.7730   24.9510 C   0  0  1  0  0  0  0  0  0  0  0  0
  -25.3300  -31.4980   26.0540 C   0  0  0  0  0  1  0  0  0  0  0  0
  -26.9810  -30.4140   24.5280 C   0  0  0  0  0  1  0  0  0  0  0  0
  -27.5370  -32.5870   25.5750 C   0  0  0  0  0  1  0  0  0  0  0  0
  2  3  2  0
  3 15  1  0
  3  1  1  0
  4  1  1  0
  4 50  1  0
  5  2  1  0
  5  6  2  0
  6  4  2  0
  7 13  1  0
  7 15  1  0
  8 13  1  0
  9 10  1  0
  9  8  1  0
 11 10  1  0
 11 20  1  0
 11 12  1  0
 13 12  1  0
 14  7  2  0
 15 16  1  0
 17 18  2  0
 18 37  1  0
 19 18  1  0
 19 22  1  0
 20 21  1  0
 20 17  1  0
 21 19  2  0
 22 23  1  0
 23 24  2  0
 25 28  1  0
 25 24  1  0
 26 25  2  0
 27 26  1  0
 27 22  2  0
 28 29  1  0
 29 30  1  0
 30 31  2  0
 32 31  1  0
 32 36  1  0
 33 32  2  0
 34 29  2  0
 34 33  1  0
 35 34  1  0
 37 38  1  0
 38 41  1  0
 38 40  1  0
 39 37  2  0
 42 17  1  0
 42 43  1  0
 44 42  1  0
 46 45  1  0
 47  2  1  0
 47 46  1  0
 47 45  1  0
 49 48  1  0
 49  5  1  0
 51 50  1  0
 52 51  2  0
 53 52  1  0
 53 55  1  0
 54 65  2  0
 55 60  1  0
 56 64  1  0
 56 66  1  0
 57 63  1  0
 57 59  1  0
 58 64  1  0
 59 58  1  0
 60 59  2  0
 61 62  1  0
 61 55  2  0
 62 57  2  0
 63 56  1  0
 64 54  1  0
 66 68  2  0
 67 66  1  0
 69 67  1  0
 70 79  2  0
 70 75  1  0
 71 67  1  0
 71 75  1  0
 72 71  1  0
 73 74  1  0
 73 72  1  0
 74 70  1  0
 75 76  2  0
 76 77  1  0
 78 77  2  0
 79 78  1  0
 80 54  1  0
 80 81  1  0
 80 90  1  0
 81 84  1  0
 82 86  1  0
 82 81  1  0
 83 82  2  0
 86 85  1  0
 88 86  1  0
 88 89  1  0
 88 87  1  0
 90 93  1  1
 90 91  1  0
 92 90  1  0
M  ISO  4   7 100  15 100  52 101  53 101
M  END
>  <TORSDO>  (17) 
F 21

>  <SCORE>  (17) 
-13.461

>  <name>  (17) 
16

>  <ligand_id>  (17) 
16

>  <original_smiles>  (17) 
[H]c1c([H])c([H])c2c(c1[H])C([H])([H])C([H])([H])C([H])([H])C2([H])N([H])C(=O)C1([H])N(C(=O)C([H])(N([H])C(=O)C([H])(N([H])C([H])([H])[H])C([H])([H])[H])C(C([H])([H])[H])(C([H])([H])[H])C([H])([H])[H])C([H])([H])c2c([H])c(OC([H])([H])C([H])([H])Oc3nc(OC([H])([H])[H])c(C4([H])C([H])([H])C4([H])[H])c(N([H])C(=O)N4C([H])([H])C([H])([H])C([H])([H])C([H])(n5nc(-c6c([H])c([H])c(Oc7c([H])c([H])c(F)c([H])c7F)c([H])c6[H])c(C(=O)N([H])[H])c5N([H])[H])C4([H])[H])c3[H])c([H])c([H])c2C1([H])[H]

>  <smiles>  (17) 
[H]c1c([H])c([H])c2c(c1[H])C([H])([H])C([H])([H])C([H])([H])C2([H])N([H])C(=O)C1([H])N(C(=O)C([H])(N([H])C(=O)C([H])(N([H])C([H])([H])[H])C([H])([H])[H])C(C([H])([H])[H])(C([H])([H])[H])C([H])([H])[H])C([H])([H])c2c([H])c(OC([H])([H])C([H])([H])Oc3nc(OC([H])([H])[H])c(C4([H])C([H])([H])C4([H])[H])c(N([H])C(=O)N4C([H])([H])C([H])([H])C([H])([H])C([H])(n5nc(-c6c([H])c([H])c(Oc7c([H])c([H])c(F)c([H])c7F)c([H])c6[H])c(C(=O)N([H])[H])c5N([H])[H])C4([H])[H])c3[H])c([H])c([H])c2C1([H])[H]

$$$$
17:0:0
     RDKit          3D

 91100  0  0  1  0  0  0  0  0999 V2000
  -27.9100  -23.6580   22.4440 C   0  0  0  0  0  3  0  0  0  0  0  0
  -28.0890  -24.9650   21.9300 C   0  0  0  0  0  3  0  0  0  0  0  0
  -29.5570  -24.0070   20.2350 C   0  0  0  0  0  3  0  0  0  0  0  0
  -28.5060  -22.5320   21.8280 C   0  0  0  0  0  0  0  0  0  0  0  0
  -29.4180  -22.6080   20.7670 C   0  0  0  0  0  0  0  0  0  0  0  0
  -28.8480  -25.2290   20.7600 C   0  0  0  0  0  0  0  0  0  0  0  0
  -28.0250  -21.1260   22.0670 C   0  0  0  0  0  2  0  0  0  0  0  0
  -28.4090  -20.3980   20.7570 C   0  0  0  0  0  2  0  0  0  0  0  0
  -29.7110  -21.0540   20.1870 C   0  0  1  0  0  0  0  0  0  0  0  0
  -29.6650  -21.0980   18.6520 C   0  0  0  0  0  1  0  0  0  0  0  0
  -28.8640  -26.6390   20.3040 O   0  0  0  0  0  0  0  0  0  0  0  0
  -24.7210  -31.9540   23.3220 C   0  0  0  0  0  0  0  0  0  0  0  0
  -27.7330  -27.5490   20.2720 C   0  0  0  0  0  0  0  0  0  0  0  0
  -23.6740  -30.5550   21.5760 C   0  0  0  0  0  3  0  0  0  0  0  0
  -25.2880  -29.1390   20.1500 C   0  0  0  0  0  0  0  0  0  0  0  0
  -26.2070  -31.0050   21.5230 C   0  0  0  0  0  2  0  0  0  0  0  0
  -26.4070  -29.6420   20.8370 C   0  0  0  0  0  0  0  0  0  0  0  0
  -27.6250  -28.8680   20.8740 C   0  0  0  0  0  3  0  0  0  0  0  0
  -26.5910  -27.1470   19.5470 C   0  0  0  0  0  3  0  0  0  0  0  0
  -25.4020  -27.9100   19.4790 C   0  0  0  0  0  3  0  0  0  0  0  0
  -23.9960  -29.9470   20.1790 C   0  0  0  0  0  2  0  0  0  0  0  0
  -24.8810  -31.1950   22.1960 N   0  0  0  0  0  0  0  0  0  0  0  0
  -23.6000  -32.1320   23.8320 O   0  0  0  0  0  0  0  0  0  0  0  0
  -23.0320  -29.4670   22.4760 C   0  0  0  0  0  0  0  0  0  0  0  0
  -21.7250  -29.2030   22.2920 N   0  0  0  0  0  0  0  0  0  0  0  0
  -23.7180  -28.8620   23.3040 O   0  0  0  0  0  0  0  0  0  0  0  0
  -21.2190  -29.7510   21.6100 H   0  0  0  0  0  0  0  0  0  0  0  0
  -18.4290  -27.7460   22.6270 C   0  0  0  0  0  0  0  0  0  0  0  0
  -20.9520  -28.1810   23.0010 C   0  0  0  0  0  3  0  0  0  0  0  0
  -21.1800  -26.7860   22.3760 C   0  0  0  0  0  2  0  0  0  0  0  0
  -20.1410  -26.4290   21.3090 C   0  0  0  0  0  2  0  0  0  0  0  0
  -18.7300  -26.4450   21.9040 C   0  0  0  0  0  2  0  0  0  0  0  0
  -19.4730  -28.5690   23.1300 C   0  0  0  0  0  0  0  0  0  0  0  0
  -19.1410  -29.7860   23.7680 C   0  0  0  0  0  3  0  0  0  0  0  0
  -17.7970  -30.1760   23.9110 C   0  0  0  0  0  3  0  0  0  0  0  0
  -16.7680  -29.3560   23.4220 C   0  0  0  0  0  3  0  0  0  0  0  0
  -17.0830  -28.1430   22.7850 C   0  0  0  0  0  3  0  0  0  0  0  0
  -25.9280  -32.6470   24.0220 C   0  0  0  0  0  3  0  0  0  0  0  0
  -25.5570  -34.0420   24.2950 N   0  0  0  0  0  0  0  0  0  0  0  0
  -25.9270  -35.0920   23.5480 C   0  0  0  0  0  0  0  0  0  0  0  0
  -26.6780  -34.9900   22.5740 O   0  0  0  0  0  0  0  0  0  0  0  0
  -24.8970  -34.1940   25.0440 H   0  0  0  0  0  0  0  0  0  0  0  0
  -24.1800  -36.8280   23.0380 C   0  0  0  0  0  1  0  0  0  0  0  0
  -25.3730  -36.4760   23.9420 C   0  0  0  0  0  3  0  0  0  0  0  0
  -27.4270  -37.4240   24.8950 C   0  0  0  0  0  1  0  0  0  0  0  0
  -26.3820  -37.5590   23.8830 N   0  0  0  0  0  0  0  0  0  0  0  0
  -25.9460  -38.4700   24.0000 H   0  0  0  0  0  0  0  0  0  0  0  0
  -26.3700  -31.9270   25.3560 C   0  0  1  0  0  0  0  0  0  0  0  0
  -25.1960  -31.6700   26.3300 C   0  0  0  0  0  1  0  0  0  0  0  0
  -27.0460  -30.5730   25.0530 C   0  0  0  0  0  1  0  0  0  0  0  0
  -27.4230  -32.7870   26.0930 C   0  0  0  0  0  1  0  0  0  0  0  0
  -30.8900  -19.8880   20.6620 C   0  0  0  0  0  2  0  0  0  0  0  0
  -31.2010  -18.2960   20.0340 C   0  0  0  0  0  2  0  0  0  0  0  0
  -31.6850  -15.5760   20.4070 C   0  0  0  0  0  0  0  0  0  0  0  0
  -31.5540  -13.1380   19.6450 C   0  0  0  0  0  2  0  0  0  0  0  0
  -30.7150  -13.0070   18.3520 C   0  0  0  0  0  2  0  0  0  0  0  0
  -29.2320  -12.8190   18.7020 C   0  0  0  0  0  2  0  0  0  0  0  0
  -28.7630  -13.8530   19.7610 C   0  0  0  0  0  3  0  0  0  0  0  0
  -29.7330  -13.9690   20.9600 C   0  0  0  0  0  2  0  0  0  0  0  0
  -31.0570  -14.3210   20.4290 N   0  0  0  0  0  0  0  0  0  0  0  0
  -32.8650  -15.5820   20.0390 O   0  0  0  0  0  0  0  0  0  0  0  0
  -30.9820  -16.8160   20.6220 N   0  0  0  0  0  0  0  0  0  0  0  0
  -30.0880  -16.6790   21.0720 H   0  0  0  0  0  0  0  0  0  0  0  0
  -26.3930  -14.5420   20.4150 C   0  0  0  0  0  0  0  0  0  0  0  0
  -25.2810  -13.8210   20.7430 C   0  0  0  0  0  0  0  0  0  0  0  0
  -25.6720  -12.4490   20.7010 C   0  0  0  0  0  0  0  0  0  0  0  0
  -27.3940  -13.6140   20.1940 N   0  0  0  0  0  0  0  0  0  0  0  0
  -26.9680  -12.3460   20.4280 N   0  0  0  0  0  0  0  0  0  0  0  0
  -24.8720  -11.2270   20.8510 C   0  0  0  0  0  0  0  0  0  0  0  0
  -25.1670  -10.2640   21.8410 C   0  0  0  0  0  3  0  0  0  0  0  0
  -24.3720   -9.1070   21.9710 C   0  0  0  0  0  3  0  0  0  0  0  0
  -23.2640   -8.9040   21.1130 C   0  0  0  0  0  0  0  0  0  0  0  0
  -22.9910   -9.8540   20.1140 C   0  0  0  0  0  3  0  0  0  0  0  0
  -23.7850  -11.0030   19.9800 C   0  0  0  0  0  3  0  0  0  0  0  0
  -22.4440   -7.8040   21.1590 O   0  0  0  0  0  0  0  0  0  0  0  0
  -22.1450   -7.1720   22.3410 C   0  0  0  0  0  0  0  0  0  0  0  0
  -21.5380   -7.8550   23.4190 C   0  0  0  0  0  3  0  0  0  0  0  0
  -21.1870   -7.1500   24.5870 C   0  0  0  0  0  3  0  0  0  0  0  0
  -21.4290   -5.7680   24.6770 C   0  0  0  0  0  0  0  0  0  0  0  0
  -22.0280   -5.0860   23.6030 C   0  0  0  0  0  3  0  0  0  0  0  0
  -22.3820   -5.7870   22.4370 C   0  0  0  0  0  0  0  0  0  0  0  0
  -22.9400   -5.1200   21.3980 F   0  0  0  0  0  0  0  0  0  0  0  0
  -21.0820   -5.0910   25.7960 F   0  0  0  0  0  0  0  0  0  0  0  0
  -23.9050  -14.3750   20.9810 C   0  0  0  0  0  0  0  0  0  0  0  0
  -23.1210  -13.7190   21.8300 N   0  0  0  0  0  0  0  0  0  0  0  0
  -23.5370  -15.4200   20.4480 O   0  0  0  0  0  0  0  0  0  0  0  0
  -23.4320  -12.8750   22.2850 H   0  0  0  0  0  0  0  0  0  0  0  0
  -22.1940  -14.0650   22.0310 H   0  0  0  0  0  0  0  0  0  0  0  0
  -26.6410  -15.9030   20.2700 N   0  0  0  0  0  0  0  0  0  0  0  0
  -25.8950  -16.5900   20.3090 H   0  0  0  0  0  0  0  0  0  0  0  0
  -27.5360  -16.3000   20.0120 H   0  0  0  0  0  0  0  0  0  0  0  0
  2  1  1  0
  3  6  1  0
  3  5  2  0
  4  7  1  0
  4  1  2  0
  5  4  1  0
  6  2  2  0
  8  7  1  0
  9 10  1  6
  9 52  1  0
  9  8  1  0
  9  5  1  0
 11  6  1  0
 12 23  2  0
 13 11  1  0
 13 18  1  0
 14 22  1  0
 14 24  1  0
 15 21  1  0
 15 17  1  0
 16 22  1  0
 17 18  2  0
 17 16  1  0
 19 13  2  0
 20 19  1  0
 20 15  2  0
 21 14  1  0
 22 12  1  0
 24 26  2  0
 25 24  1  0
 27 25  1  0
 28 37  2  0
 28 33  1  0
 29 25  1  0
 29 33  1  0
 30 29  1  0
 31 32  1  0
 31 30  1  0
 32 28  1  0
 33 34  2  0
 34 35  1  0
 36 35  2  0
 37 36  1  0
 38 12  1  0
 38 39  1  0
 38 48  1  0
 39 42  1  0
 40 44  1  0
 40 39  1  0
 41 40  2  0
 44 43  1  0
 46 44  1  0
 46 47  1  0
 46 45  1  0
 48 51  1  1
 48 49  1  0
 50 48  1  0
 53 62  1  0
 53 52  1  0
 54 60  1  0
 54 62  1  0
 55 60  1  0
 56 57  1  0
 56 55  1  0
 58 57  1  0
 58 67  1  0
 58 59  1  0
 60 59  1  0
 61 54  2  0
 62 63  1  0
 64 65  2  0
 65 84  1  0
 66 65  1  0
 66 69  1  0
 67 64  1  0
 67 68  1  0
 68 66  2  0
 69 70  1  0
 70 71  2  0
 72 75  1  0
 72 71  1  0
 73 72  2  0
 74 73  1  0
 74 69  2  0
 75 76  1  0
 76 81  2  0
 76 77  1  0
 77 78  2  0
 78 79  1  0
 79 83  1  0
 80 79  2  0
 81 80  1  0
 82 81  1  0
 84 85  1  0
 85 88  1  0
 85 87  1  0
 86 84  2  0
 89 90  1  0
 89 64  1  0
 91 89  1  0
M  ISO  4   6 101  11 101  54 100  62 100
M  END
>  <TORSDO>  (18) 
F 18

>  <SCORE>  (18) 
-12.184

>  <name>  (18) 
17

>  <ligand_id>  (18) 
17

>  <original_smiles>  (18) 
[H]c1c([H])c([H])c2c(c1[H])C([H])([H])C([H])([H])C([H])([H])C2([H])N([H])C(=O)C1([H])N(C(=O)C([H])(N([H])C(=O)C([H])(N([H])C([H])([H])[H])C([H])([H])[H])C(C([H])([H])[H])(C([H])([H])[H])C([H])([H])[H])C([H])([H])c2c([H])c(Oc3c([H])c([H])c4c(c3[H])C(C([H])([H])[H])(C([H])([H])C([H])([H])N([H])C(=O)N3C([H])([H])C([H])([H])C([H])([H])C([H])(n5nc(-c6c([H])c([H])c(Oc7c([H])c([H])c(F)c([H])c7F)c([H])c6[H])c(C(=O)N([H])[H])c5N([H])[H])C3([H])[H])C([H])([H])C4([H])[H])c([H])c([H])c2C1([H])[H]

>  <smiles>  (18) 
[H]c1c([H])c([H])c2c(c1[H])C([H])([H])C([H])([H])C([H])([H])C2([H])N([H])C(=O)C1([H])N(C(=O)C([H])(N([H])C(=O)C([H])(N([H])C([H])([H])[H])C([H])([H])[H])C(C([H])([H])[H])(C([H])([H])[H])C([H])([H])[H])C([H])([H])c2c([H])c(Oc3c([H])c([H])c4c(c3[H])C(C([H])([H])[H])(C([H])([H])C([H])([H])N([H])C(=O)N3C([H])([H])C([H])([H])C([H])([H])C([H])(n5nc(-c6c([H])c([H])c(Oc7c([H])c([H])c(F)c([H])c7F)c([H])c6[H])c(C(=O)N([H])[H])c5N([H])[H])C3([H])[H])C([H])([H])C4([H])[H])c([H])c([H])c2C1([H])[H]

$$$$
18:0:0
     RDKit          3D

 94102  0  0  1  0  0  0  0  0999 V2000
  -29.1870  -19.6000   19.4140 C   0  0  0  0  0  2  0  0  0  0  0  0
  -28.4410  -21.0330   19.6000 C   0  0  0  0  0  2  0  0  0  0  0  0
  -30.5050  -21.6300   20.7020 C   0  0  0  0  0  2  0  0  0  0  0  0
  -29.7880  -18.9380   20.7060 C   0  0  0  0  0  3  0  0  0  0  0  0
  -30.6730  -20.1470   21.2910 C   0  0  0  0  0  3  0  0  0  0  0  0
  -32.1930  -19.8700   21.2060 C   0  0  0  0  0  1  0  0  0  0  0  0
  -29.1310  -22.1400   20.3930 N   0  0  1  0  0  4  0  0  0  0  0  0
  -28.6570  -22.1660   21.2850 H   0  0  0  0  0  0  0  0  0  0  0  0
  -29.1000  -23.6220   19.8360 C   0  0  0  0  0  3  0  0  0  0  0  0
  -28.2280  -24.8480   20.5200 C   0  0  0  0  0  3  0  0  0  0  0  0
  -28.4460  -26.3400   20.2200 O   0  0  0  0  0  0  0  0  0  0  0  0
  -24.6710  -31.8930   23.1570 C   0  0  0  0  0  0  0  0  0  0  0  0
  -27.3530  -27.2560   20.1800 C   0  0  0  0  0  0  0  0  0  0  0  0
  -23.5110  -30.4850   21.4990 C   0  0  0  0  0  3  0  0  0  0  0  0
  -24.9990  -28.9300   20.1030 C   0  0  0  0  0  0  0  0  0  0  0  0
  -26.0590  -30.7940   21.3700 C   0  0  0  0  0  2  0  0  0  0  0  0
  -26.1590  -29.4060   20.7270 C   0  0  0  0  0  0  0  0  0  0  0  0
  -27.3410  -28.5860   20.7470 C   0  0  0  0  0  3  0  0  0  0  0  0
  -26.1700  -26.8670   19.5140 C   0  0  0  0  0  3  0  0  0  0  0  0
  -25.0130  -27.6720   19.4830 C   0  0  0  0  0  3  0  0  0  0  0  0
  -23.7600  -29.8090   20.1240 C   0  0  0  0  0  2  0  0  0  0  0  0
  -24.7650  -31.0780   22.0640 N   0  0  0  0  0  0  0  0  0  0  0  0
  -23.5740  -32.1650   23.6700 O   0  0  0  0  0  0  0  0  0  0  0  0
  -22.8310  -29.4680   22.4480 C   0  0  0  0  0  0  0  0  0  0  0  0
  -21.5070  -29.2850   22.3010 N   0  0  0  0  0  0  0  0  0  0  0  0
  -23.4970  -28.8470   23.2800 O   0  0  0  0  0  0  0  0  0  0  0  0
  -21.0260  -29.8390   21.6070 H   0  0  0  0  0  0  0  0  0  0  0  0
  -18.1300  -28.0510   22.7370 C   0  0  0  0  0  0  0  0  0  0  0  0
  -20.6800  -28.3420   23.0590 C   0  0  0  0  0  3  0  0  0  0  0  0
  -20.8120  -26.9090   22.4960 C   0  0  0  0  0  2  0  0  0  0  0  0
  -19.7360  -26.5680   21.4590 C   0  0  0  0  0  2  0  0  0  0  0  0
  -18.3380  -26.7010   22.0710 C   0  0  0  0  0  2  0  0  0  0  0  0
  -19.2310  -28.8290   23.1860 C   0  0  0  0  0  0  0  0  0  0  0  0
  -18.9830  -30.0910   23.7680 C   0  0  0  0  0  3  0  0  0  0  0  0
  -17.6690  -30.5770   23.9040 C   0  0  0  0  0  3  0  0  0  0  0  0
  -16.5840  -29.7970   23.4710 C   0  0  0  0  0  3  0  0  0  0  0  0
  -16.8150  -28.5350   22.8930 C   0  0  0  0  0  3  0  0  0  0  0  0
  -25.9330  -32.5400   23.8040 C   0  0  0  0  0  3  0  0  0  0  0  0
  -25.6010  -33.9340   24.1380 N   0  0  0  0  0  0  0  0  0  0  0  0
  -25.9310  -34.9970   23.3920 C   0  0  0  0  0  0  0  0  0  0  0  0
  -26.6130  -34.9080   22.3670 O   0  0  0  0  0  0  0  0  0  0  0  0
  -24.9970  -34.0750   24.9340 H   0  0  0  0  0  0  0  0  0  0  0  0
  -24.1840  -36.7720   23.0350 C   0  0  0  0  0  1  0  0  0  0  0  0
  -25.4230  -36.3770   23.8530 C   0  0  0  0  0  3  0  0  0  0  0  0
  -27.5410  -37.2830   24.7060 C   0  0  0  0  0  1  0  0  0  0  0  0
  -26.4450  -37.4430   23.7550 N   0  0  0  0  0  0  0  0  0  0  0  0
  -26.0260  -38.3580   23.9050 H   0  0  0  0  0  0  0  0  0  0  0  0
  -26.4350  -31.7710   25.0880 C   0  0  1  0  0  0  0  0  0  0  0  0
  -25.3270  -31.5210   26.1370 C   0  0  0  0  0  1  0  0  0  0  0  0
  -27.0390  -30.4000   24.7060 C   0  0  0  0  0  1  0  0  0  0  0  0
  -27.5670  -32.5740   25.7720 C   0  0  0  0  0  1  0  0  0  0  0  0
  -30.4800  -17.3990   20.8180 C   0  0  0  0  0  3  0  0  0  0  0  0
  -30.6290  -14.8870   19.9380 C   0  0  0  0  0  0  0  0  0  0  0  0
  -30.3500  -12.6110   18.8980 C   0  0  0  0  0  2  0  0  0  0  0  0
  -29.3310  -12.6690   17.7400 C   0  0  0  0  0  2  0  0  0  0  0  0
  -27.8950  -12.4880   18.2700 C   0  0  0  0  0  2  0  0  0  0  0  0
  -27.6040  -13.3720   19.5130 C   0  0  0  0  0  3  0  0  0  0  0  0
  -28.7360  -13.2920   20.5570 C   0  0  0  0  0  2  0  0  0  0  0  0
  -29.9770  -13.6690   19.8710 N   0  0  0  0  0  0  0  0  0  0  0  0
  -31.8030  -14.9490   19.5620 O   0  0  0  0  0  0  0  0  0  0  0  0
  -29.9290  -16.0550   20.2740 N   0  0  0  0  0  0  0  0  0  0  0  0
  -28.9660  -15.8920   20.5250 H   0  0  0  0  0  0  0  0  0  0  0  0
  -25.2850  -13.9690   20.4220 C   0  0  0  0  0  0  0  0  0  0  0  0
  -24.2370  -13.1980   20.8460 C   0  0  0  0  0  0  0  0  0  0  0  0
  -24.6810  -11.8430   20.7550 C   0  0  0  0  0  0  0  0  0  0  0  0
  -26.2970  -13.0840   20.0930 N   0  0  0  0  0  0  0  0  0  0  0  0
  -25.9470  -11.7980   20.3580 N   0  0  0  0  0  0  0  0  0  0  0  0
  -23.9510  -10.5850   20.9660 C   0  0  0  0  0  0  0  0  0  0  0  0
  -24.4220   -9.5980   21.8600 C   0  0  0  0  0  3  0  0  0  0  0  0
  -23.6920   -8.4070   22.0600 C   0  0  0  0  0  3  0  0  0  0  0  0
  -22.4780   -8.1930   21.3660 C   0  0  0  0  0  0  0  0  0  0  0  0
  -22.0250   -9.1680   20.4590 C   0  0  0  0  0  3  0  0  0  0  0  0
  -22.7550  -10.3510   20.2580 C   0  0  0  0  0  3  0  0  0  0  0  0
  -21.7150   -7.0560   21.4770 O   0  0  0  0  0  0  0  0  0  0  0  0
  -21.7060   -6.3050   22.6250 C   0  0  0  0  0  0  0  0  0  0  0  0
  -21.3410   -6.8560   23.8740 C   0  0  0  0  0  3  0  0  0  0  0  0
  -21.2790   -6.0320   25.0160 C   0  0  0  0  0  3  0  0  0  0  0  0
  -21.5700   -4.6600   24.9110 C   0  0  0  0  0  0  0  0  0  0  0  0
  -21.9280   -4.1080   23.6680 C   0  0  0  0  0  3  0  0  0  0  0  0
  -21.9920   -4.9290   22.5280 C   0  0  0  0  0  0  0  0  0  0  0  0
  -22.3170   -4.3880   21.3290 F   0  0  0  0  0  0  0  0  0  0  0  0
  -21.5030   -3.8660   26.0050 F   0  0  0  0  0  0  0  0  0  0  0  0
  -22.8680  -13.6850   21.2210 C   0  0  0  0  0  0  0  0  0  0  0  0
  -22.1970  -12.9870   22.1290 N   0  0  0  0  0  0  0  0  0  0  0  0
  -22.4050  -14.7210   20.7430 O   0  0  0  0  0  0  0  0  0  0  0  0
  -22.5850  -12.1490   22.5350 H   0  0  0  0  0  0  0  0  0  0  0  0
  -21.2800  -13.2960   22.4230 H   0  0  0  0  0  0  0  0  0  0  0  0
  -25.4530  -15.3400   20.2620 N   0  0  0  0  0  0  0  0  0  0  0  0
  -24.7030  -15.9990   20.4410 H   0  0  0  0  0  0  0  0  0  0  0  0
  -26.2830  -15.7800   19.8860 H   0  0  0  0  0  0  0  0  0  0  0  0
  -31.7390  -16.1020   22.7370 C   0  0  0  0  0  1  0  0  0  0  0  0
  -30.6440  -17.1110   22.3520 C   0  0  0  0  0  3  0  0  0  0  0  0
  -29.4100  -16.6470   22.8800 O   0  0  0  0  0  0  0  0  0  0  0  0
  -29.4780  -16.6460   23.8290 H   0  0  0  0  0  0  0  0  0  0  0  0
  1  2  1  0
  1  4  1  0
  2  7  1  0
  3  5  1  0
  4 52  1  0
  4  5  1  0
  5  6  1  0
  7  3  1  0
  7  8  1  1
  9  7  1  0
  9 10  2  0
 11 10  1  0
 12 23  2  0
 13 11  1  0
 13 18  1  0
 14 22  1  0
 14 24  1  0
 15 21  1  0
 15 17  1  0
 16 22  1  0
 17 18  2  0
 17 16  1  0
 19 13  2  0
 20 19  1  0
 20 15  2  0
 21 14  1  0
 22 12  1  0
 24 26  2  0
 25 24  1  0
 27 25  1  0
 28 37  2  0
 28 33  1  0
 29 25  1  0
 29 33  1  0
 30 29  1  0
 31 32  1  0
 31 30  1  0
 32 28  1  0
 33 34  2  0
 34 35  1  0
 36 35  2  0
 37 36  1  0
 38 12  1  0
 38 39  1  0
 38 48  1  0
 39 42  1  0
 40 44  1  0
 40 39  1  0
 41 40  2  0
 44 43  1  0
 46 44  1  0
 46 47  1  0
 46 45  1  0
 48 51  1  1
 48 49  1  0
 50 48  1  0
 52 61  1  0
 52 92  1  0
 53 61  1  0
 54 59  1  0
 55 56  1  0
 55 54  1  0
 57 56  1  0
 57 66  1  0
 57 58  1  0
 59 53  1  0
 59 58  1  0
 60 53  2  0
 61 62  1  0
 63 64  2  0
 64 83  1  0
 65 64  1  0
 65 68  1  0
 66 67  1  0
 66 63  1  0
 67 65  2  0
 68 69  1  0
 69 70  2  0
 71 74  1  0
 71 70  1  0
 72 71  2  0
 73 72  1  0
 73 68  2  0
 74 75  1  0
 75 76  1  0
 76 77  2  0
 78 77  1  0
 78 82  1  0
 79 78  2  0
 80 75  2  0
 80 79  1  0
 81 80  1  0
 83 84  1  0
 84 87  1  0
 84 86  1  0
 85 83  2  0
 88 63  1  0
 88 89  1  0
 90 88  1  0
 92 91  1  0
 92 93  1  0
 93 94  1  0
M  ISO  4  10 101  11 101  53 100  61 100
M  END
>  <TORSDO>  (19) 
F 21

>  <SCORE>  (19) 
-11.221

>  <name>  (19) 
18

>  <ligand_id>  (19) 
18

>  <original_smiles>  (19) 
[H]OC([H])(C([H])([H])[H])C([H])(N([H])C(=O)N1C([H])([H])C([H])([H])C([H])([H])C([H])(n2nc(-c3c([H])c([H])c(Oc4c([H])c([H])c(F)c([H])c4F)c([H])c3[H])c(C(=O)N([H])[H])c2N([H])[H])C1([H])[H])C1([H])C([H])([H])C([H])([H])[N+]([H])(C([H])([H])C([H])([H])Oc2c([H])c([H])c3c(c2[H])C([H])([H])N(C(=O)C([H])(N([H])C(=O)C([H])(N([H])C([H])([H])[H])C([H])([H])[H])C(C([H])([H])[H])(C([H])([H])[H])C([H])([H])[H])C([H])(C(=O)N([H])C2([H])c4c([H])c([H])c([H])c([H])c4C([H])([H])C([H])([H])C2([H])[H])C3([H])[H])C([H])([H])C1([H])C([H])([H])[H]

>  <smiles>  (19) 
[H]OC([H])(C([H])([H])[H])C([H])(N([H])C(=O)N1C([H])([H])C([H])([H])C([H])([H])C([H])(n2nc(-c3c([H])c([H])c(Oc4c([H])c([H])c(F)c([H])c4F)c([H])c3[H])c(C(=O)N([H])[H])c2N([H])[H])C1([H])[H])C1([H])C([H])([H])C([H])([H])[N+]([H])(C([H])([H])C([H])([H])Oc2c([H])c([H])c3c(c2[H])C([H])([H])N(C(=O)C([H])(N([H])C(=O)C([H])(N([H])C([H])([H])[H])C([H])([H])[H])C(C([H])([H])[H])(C([H])([H])[H])C([H])([H])[H])C([H])(C(=O)N([H])C2([H])c4c([H])c([H])c([H])c([H])c4C([H])([H])C([H])([H])C2([H])[H])C3([H])[H])C([H])([H])C1([H])C([H])([H])[H]

$$$$
19:0:0
     RDKit          3D

 97102  0  0  1  0  0  0  0  0999 V2000
  -23.7890  -24.0090   19.7170 C   0  0  0  0  0  3  0  0  0  0  0  0
  -25.3030  -24.7830   21.2930 C   0  0  0  0  0  3  0  0  0  0  0  0
  -24.0750  -25.1100   20.5900 C   0  0  0  0  0  0  0  0  0  0  0  0
  -24.6390  -22.8260   19.5750 C   0  0  0  0  0  0  0  0  0  0  0  0
  -25.8990  -22.6520   20.2510 C   0  0  0  0  0  0  0  0  0  0  0  0
  -24.1690  -21.7300   18.6330 C   0  0  0  0  0  1  0  0  0  0  0  0
  -26.1590  -23.6700   21.1330 N   0  0  0  0  0  0  0  0  0  0  0  0
  -26.7880  -21.4800   19.9450 N   0  0  0  0  0  0  0  0  0  0  0  0
  -26.2910  -20.8460   19.3350 H   0  0  0  0  0  0  0  0  0  0  0  0
  -28.1380  -20.8090   20.4070 C   0  0  0  0  0  2  0  0  0  0  0  0
  -28.7170  -19.3840   19.6530 C   0  0  0  0  0  3  0  0  0  0  0  0
  -28.9740  -19.8210   18.2640 N   0  0  0  0  0  4  0  0  0  0  0  0
  -29.7750  -20.4300   18.2450 H   0  0  0  0  0  0  0  0  0  0  0  0
  -28.1950  -20.3600   17.9260 H   0  0  0  0  0  0  0  0  0  0  0  0
  -29.1340  -19.0540   17.6330 H   0  0  0  0  0  0  0  0  0  0  0  0
  -30.0030  -18.3230   20.1170 C   0  0  0  0  0  2  0  0  0  0  0  0
  -30.0790  -16.7660   19.9850 O   0  0  0  0  0  0  0  0  0  0  0  0
  -31.2540  -15.7110   19.8990 C   0  0  0  0  0  0  0  0  0  0  0  0
  -31.3530  -13.2450   19.1870 C   0  0  0  0  0  2  0  0  0  0  0  0
  -30.4320  -13.0970   17.9500 C   0  0  0  0  0  2  0  0  0  0  0  0
  -28.9540  -12.9440   18.3660 C   0  0  0  0  0  2  0  0  0  0  0  0
  -28.5460  -13.9710   19.4560 C   0  0  0  0  0  3  0  0  0  0  0  0
  -29.5460  -14.0010   20.6180 C   0  0  0  0  0  2  0  0  0  0  0  0
  -30.8160  -14.3540   20.0220 N   0  0  0  0  0  0  0  0  0  0  0  0
  -32.4400  -15.9270   19.5990 O   0  0  0  0  0  0  0  0  0  0  0  0
  -26.2290  -14.7400   20.2000 C   0  0  0  0  0  0  0  0  0  0  0  0
  -25.1140  -14.0460   20.5710 C   0  0  0  0  0  0  0  0  0  0  0  0
  -25.4720  -12.6630   20.5190 C   0  0  0  0  0  0  0  0  0  0  0  0
  -27.1920  -13.7820   19.9360 N   0  0  0  0  0  0  0  0  0  0  0  0
  -26.7510  -12.5270   20.1940 N   0  0  0  0  0  0  0  0  0  0  0  0
  -24.6570  -11.4580   20.6960 C   0  0  0  0  0  0  0  0  0  0  0  0
  -25.0080  -10.4560   21.6260 C   0  0  0  0  0  3  0  0  0  0  0  0
  -24.1920   -9.3160   21.7890 C   0  0  0  0  0  3  0  0  0  0  0  0
  -23.0140   -9.1710   21.0190 C   0  0  0  0  0  0  0  0  0  0  0  0
  -22.6840  -10.1600   20.0760 C   0  0  0  0  0  3  0  0  0  0  0  0
  -23.5010  -11.2910   19.9100 C   0  0  0  0  0  3  0  0  0  0  0  0
  -22.1740   -8.0860   21.0920 O   0  0  0  0  0  0  0  0  0  0  0  0
  -22.0140   -7.3780   22.2570 C   0  0  0  0  0  0  0  0  0  0  0  0
  -21.5890   -7.9970   23.4540 C   0  0  0  0  0  3  0  0  0  0  0  0
  -21.3690   -7.2190   24.6080 C   0  0  0  0  0  3  0  0  0  0  0  0
  -21.5650   -5.8250   24.5680 C   0  0  0  0  0  0  0  0  0  0  0  0
  -21.9830   -5.2080   23.3760 C   0  0  0  0  0  3  0  0  0  0  0  0
  -22.2040   -5.9830   22.2240 C   0  0  0  0  0  0  0  0  0  0  0  0
  -22.5860   -5.3790   21.0730 F   0  0  0  0  0  0  0  0  0  0  0  0
  -21.3450   -5.0770   25.6760 F   0  0  0  0  0  0  0  0  0  0  0  0
  -23.7600  -14.6230   20.8660 C   0  0  0  0  0  0  0  0  0  0  0  0
  -22.9990  -13.9870   21.7480 N   0  0  0  0  0  0  0  0  0  0  0  0
  -23.3910  -15.6770   20.3460 O   0  0  0  0  0  0  0  0  0  0  0  0
  -23.3160  -13.1360   22.1910 H   0  0  0  0  0  0  0  0  0  0  0  0
  -22.0910  -14.3570   21.9930 H   0  0  0  0  0  0  0  0  0  0  0  0
  -26.5020  -16.0970   20.0470 N   0  0  0  0  0  0  0  0  0  0  0  0
  -25.7930  -16.8040   20.2160 H   0  0  0  0  0  0  0  0  0  0  0  0
  -27.3840  -16.4780   19.7320 H   0  0  0  0  0  0  0  0  0  0  0  0
  -23.4000  -26.6610   20.5290 C   0  0  0  0  0  2  0  0  0  0  0  0
  -19.5820  -26.1260   23.0260 C   0  0  0  0  0  1  0  0  0  0  0  0
  -21.2740  -27.0890   20.8390 C   0  0  0  0  0  1  0  0  0  0  0  0
  -25.0350  -27.3780   20.7440 O   0  0  0  0  0  0  0  0  0  0  0  0
  -24.8090  -32.0380   23.4410 C   0  0  0  0  0  0  0  0  0  0  0  0
  -26.2130  -27.7270   19.9720 C   0  0  0  0  0  3  0  0  0  0  0  0
  -23.5630  -30.9880   21.6390 C   0  0  0  0  0  3  0  0  0  0  0  0
  -24.8250  -29.8840   19.7150 C   0  0  0  0  0  3  0  0  0  0  0  0
  -26.0810  -31.2040   21.4460 C   0  0  0  0  0  2  0  0  0  0  0  0
  -25.9700  -30.0040   20.5190 C   0  0  0  0  0  3  0  0  0  0  0  0
  -26.8420  -28.8940   20.5170 C   0  0  0  0  0  2  0  0  0  0  0  0
  -25.7530  -27.8810   18.6900 C   0  0  0  0  0  2  0  0  0  0  0  0
  -24.7920  -28.9060   18.6860 C   0  0  0  0  0  2  0  0  0  0  0  0
  -23.6320  -30.7000   20.1050 C   0  0  0  0  0  2  0  0  0  0  0  0
  -24.8400  -31.4650   22.2060 N   0  0  0  0  0  0  0  0  0  0  0  0
  -23.7410  -32.2410   24.0400 O   0  0  0  0  0  0  0  0  0  0  0  0
  -23.1340  -29.7690   22.4690 C   0  0  0  0  0  0  0  0  0  0  0  0
  -21.8860  -29.7190   22.7860 N   0  0  0  0  0  0  0  0  0  0  0  0
  -23.8950  -28.9170   22.9100 O   0  0  0  0  0  0  0  0  0  0  0  0
  -21.2790  -30.4670   22.4810 H   0  0  0  0  0  0  0  0  0  0  0  0
  -18.4710  -28.9130   22.2700 C   0  0  0  0  0  0  0  0  0  0  0  0
  -21.2250  -28.5660   23.3480 C   0  0  0  0  0  2  0  0  0  0  0  0
  -21.5430  -26.5550   22.7460 C   0  0  0  0  0 15  0  0  0  0  0  0
  -19.8970  -25.9850   21.4160 C   0  0  0  0  0  2  0  0  0  0  0  0
  -18.5270  -27.4270   21.2370 C   0  0  0  0  0  1  0  0  0  0  0  0
  -19.6700  -29.4090   23.1190 C   0  0  0  0  0  0  0  0  0  0  0  0
  -19.4070  -30.3860   24.1360 C   0  0  0  0  0  3  0  0  0  0  0  0
  -18.1200  -30.8340   24.5040 C   0  0  0  0  0  3  0  0  0  0  0  0
  -17.0040  -30.2620   23.8850 C   0  0  0  0  0  3  0  0  0  0  0  0
  -17.1840  -29.3280   22.8210 C   0  0  0  0  0  3  0  0  0  0  0  0
  -26.1160  -32.4810   24.1430 C   0  0  0  0  0  3  0  0  0  0  0  0
  -25.8850  -33.8510   24.6190 N   0  0  0  0  0  0  0  0  0  0  0  0
  -26.2770  -34.9520   23.9690 C   0  0  0  0  0  0  0  0  0  0  0  0
  -26.9510  -34.9120   22.9380 O   0  0  0  0  0  0  0  0  0  0  0  0
  -25.2930  -33.9540   25.4300 H   0  0  0  0  0  0  0  0  0  0  0  0
  -24.6660  -36.8740   23.7730 C   0  0  0  0  0  1  0  0  0  0  0  0
  -25.8590  -36.3100   24.5610 C   0  0  0  0  0  3  0  0  0  0  0  0
  -28.0250  -36.9580   25.5160 C   0  0  0  0  0  1  0  0  0  0  0  0
  -26.9550  -37.3020   24.5820 N   0  0  0  0  0  0  0  0  0  0  0  0
  -26.6040  -38.2230   24.8280 H   0  0  0  0  0  0  0  0  0  0  0  0
  -26.5340  -31.5370   25.3360 C   0  0  1  0  0  0  0  0  0  0  0  0
  -25.3990  -31.2560   26.3460 C   0  0  0  0  0  1  0  0  0  0  0  0
  -27.0370  -30.1740   24.8100 C   0  0  0  0  0  1  0  0  0  0  0  0
  -27.7120  -32.1770   26.1030 C   0  0  0  0  0  1  0  0  0  0  0  0
  1  3  1  0
  3  2  2  0
  4  1  2  0
  4  5  1  0
  5  7  2  0
  6  4  1  0
  7  2  1  0
  8  5  1  0
  8 10  1  0
  9  8  1  0
 11 16  1  0
 11 10  1  0
 12 11  1  0
 13 12  1  0
 14 12  1  0
 15 12  1  0
 17 16  1  0
 18 17  1  0
 18 24  1  0
 19 24  1  0
 20 21  1  0
 20 19  1  0
 22 21  1  0
 22 29  1  0
 22 23  1  0
 24 23  1  0
 25 18  2  0
 26 27  2  0
 27 46  1  0
 28 27  1  0
 28 31  1  0
 29 30  1  0
 29 26  1  0
 30 28  2  0
 31 32  1  0
 32 33  2  0
 34 37  1  0
 34 33  1  0
 35 34  2  0
 36 35  1  0
 36 31  2  0
 37 38  1  0
 38 39  1  0
 39 40  2  0
 41 40  1  0
 41 45  1  0
 42 41  2  0
 43 38  2  0
 43 42  1  0
 44 43  1  0
 46 47  1  0
 47 50  1  0
 47 49  1  0
 48 46  2  0
 51 26  1  0
 51 52  1  0
 53 51  1  0
 54  3  1  0
 54 57  1  0
 56 77  1  0
 58 69  2  0
 59 64  1  0
 59 57  1  0
 60 68  1  0
 60 70  1  0
 61 66  1  0
 61 67  1  0
 61 63  1  0
 62 68  1  0
 63 64  1  0
 63 62  1  0
 65 59  1  0
 66 65  1  0
 67 60  1  0
 68 58  1  0
 70 71  1  0
 70 72  2  0
 71 75  1  0
 73 71  1  0
 74 83  2  0
 74 79  1  0
 77 55  1  0
 78 74  1  0
 79 75  1  0
 79 80  2  0
 80 81  1  0
 82 81  2  0
 83 82  1  0
 84 58  1  0
 84 85  1  0
 84 94  1  0
 85 88  1  0
 86 90  1  0
 86 85  1  0
 87 86  2  0
 90 89  1  0
 90 92  1  0
 92 93  1  0
 92 91  1  0
 94 97  1  1
 94 95  1  0
 96 94  1  0
M  ISO  4  17 100  18 100  54 101  57 101
M  END
>  <TORSDO>  (20) 
F 24

>  <SCORE>  (20) 
-11.159

>  <name>  (20) 
19

>  <ligand_id>  (20) 
19

>  <original_smiles>  (20) 
[H]c1nc(N([H])C([H])([H])C([H])(C([H])([H])OC(=O)N2C([H])([H])C([H])([H])C([H])([H])C([H])(n3nc(-c4c([H])c([H])c(Oc5c([H])c([H])c(F)c([H])c5F)c([H])c4[H])c(C(=O)N([H])[H])c3N([H])[H])C2([H])[H])[N+]([H])([H])[H])c(C([H])([H])[H])c([H])c1C([H])(Oc1c([H])c([H])c2c(c1[H])C([H])([H])N(C(=O)C([H])(N([H])C(=O)C([H])(N([H])C([H])([H])[H])C([H])([H])[H])C(C([H])([H])[H])(C([H])([H])[H])C([H])([H])[H])C([H])(C(=O)N([H])C1([H])c3c([H])c([H])c([H])c([H])c3C([H])([H])C([H])([H])C1([H])[H])C2([H])[H])C([H])([H])C([H])([H])[H]

>  <smiles>  (20) 
[H]c1nc(N([H])C([H])([H])C([H])(C([H])([H])OC(=O)N2C([H])([H])C([H])([H])C([H])([H])C([H])(n3nc(-c4c([H])c([H])c(Oc5c([H])c([H])c(F)c([H])c5F)c([H])c4[H])c(C(=O)N([H])[H])c3N([H])[H])C2([H])[H])[N+]([H])([H])[H])c(C([H])([H])[H])c([H])c1C([H])(Oc1c([H])c([H])c2c(c1[H])C([H])([H])N(C(=O)C([H])(N([H])C(=O)C([H])(N([H])C([H])([H])[H])C([H])([H])[H])C(C([H])([H])[H])(C([H])([H])[H])C([H])([H])[H])C([H])(C(=O)N([H])C1([H])c3c([H])c([H])c([H])c([H])c3C([H])([H])C([H])([H])C1([H])[H])C2([H])[H])C([H])([H])C([H])([H])[H]

$$$$
20:0:0
     RDKit          3D

 96105  0  0  1  0  0  0  0  0999 V2000
  -28.8980  -19.8590   21.4500 C   0  0  0  0  0  3  0  0  0  0  0  0
  -28.4080  -21.1700   21.3610 C   0  0  0  0  0  3  0  0  0  0  0  0
  -30.3790  -21.8260   20.1060 C   0  0  0  0  0  3  0  0  0  0  0  0
  -30.1360  -19.5070   20.8760 C   0  0  0  0  0  0  0  0  0  0  0  0
  -30.8750  -20.4950   20.1600 C   0  0  0  0  0  0  0  0  0  0  0  0
  -29.1440  -22.1750   20.7090 C   0  0  0  0  0  0  0  0  0  0  0  0
  -30.6210  -18.0710   21.1020 C   0  0  0  0  0  2  0  0  0  0  0  0
  -30.1730  -17.0800   20.0130 C   0  0  0  0  0  2  0  0  0  0  0  0
  -30.9080  -14.6880   20.1170 C   0  0  0  0  0  0  0  0  0  0  0  0
  -30.5940  -12.5140   19.0280 C   0  0  0  0  0  2  0  0  0  0  0  0
  -29.5920  -12.7290   17.8720 C   0  0  0  0  0  2  0  0  0  0  0  0
  -28.1400  -12.5860   18.3750 C   0  0  0  0  0  2  0  0  0  0  0  0
  -27.8640  -13.4210   19.6540 C   0  0  0  0  0  3  0  0  0  0  0  0
  -28.9740  -13.1890   20.7080 C   0  0  0  0  0  2  0  0  0  0  0  0
  -30.2710  -13.4880   20.0780 N   0  0  0  0  0  0  0  0  0  0  0  0
  -32.0160  -14.8920   19.6190 O   0  0  0  0  0  0  0  0  0  0  0  0
  -30.1140  -15.6990   20.5010 N   0  0  0  0  0  0  0  0  0  0  0  0
  -29.2380  -15.4200   20.9120 H   0  0  0  0  0  0  0  0  0  0  0  0
  -25.5190  -14.0380   20.5210 C   0  0  0  0  0  0  0  0  0  0  0  0
  -24.4600  -13.2690   20.9230 C   0  0  0  0  0  0  0  0  0  0  0  0
  -24.8970  -11.9130   20.8120 C   0  0  0  0  0  0  0  0  0  0  0  0
  -26.5340  -13.1520   20.1970 N   0  0  0  0  0  0  0  0  0  0  0  0
  -26.1640  -11.8670   20.4240 N   0  0  0  0  0  0  0  0  0  0  0  0
  -24.1640  -10.6540   20.9970 C   0  0  0  0  0  0  0  0  0  0  0  0
  -24.5900   -9.6830   21.9290 C   0  0  0  0  0  3  0  0  0  0  0  0
  -23.8590   -8.4870   22.1010 C   0  0  0  0  0  3  0  0  0  0  0  0
  -22.6890   -8.2560   21.3390 C   0  0  0  0  0  0  0  0  0  0  0  0
  -22.2830   -9.2170   20.3970 C   0  0  0  0  0  3  0  0  0  0  0  0
  -23.0140  -10.4040   20.2240 C   0  0  0  0  0  3  0  0  0  0  0  0
  -21.9300   -7.1130   21.4180 O   0  0  0  0  0  0  0  0  0  0  0  0
  -21.8140   -6.4060   22.5870 C   0  0  0  0  0  0  0  0  0  0  0  0
  -21.2560   -6.9780   23.7510 C   0  0  0  0  0  3  0  0  0  0  0  0
  -21.0900   -6.1940   24.9100 C   0  0  0  0  0  3  0  0  0  0  0  0
  -21.4730   -4.8400   24.9070 C   0  0  0  0  0  0  0  0  0  0  0  0
  -22.0260   -4.2680   23.7480 C   0  0  0  0  0  3  0  0  0  0  0  0
  -22.1930   -5.0490   22.5900 C   0  0  0  0  0  0  0  0  0  0  0  0
  -22.7060   -4.4870   21.4690 F   0  0  0  0  0  0  0  0  0  0  0  0
  -21.3100   -4.0850   26.0190 F   0  0  0  0  0  0  0  0  0  0  0  0
  -23.0890  -13.7540   21.2970 C   0  0  0  0  0  0  0  0  0  0  0  0
  -22.4020  -13.0360   22.1800 N   0  0  0  0  0  0  0  0  0  0  0  0
  -22.6360  -14.8040   20.8420 O   0  0  0  0  0  0  0  0  0  0  0  0
  -22.7820  -12.1890   22.5740 H   0  0  0  0  0  0  0  0  0  0  0  0
  -21.4830  -13.3410   22.4680 H   0  0  0  0  0  0  0  0  0  0  0  0
  -25.6970  -15.4120   20.3840 N   0  0  0  0  0  0  0  0  0  0  0  0
  -24.9480  -16.0740   20.5530 H   0  0  0  0  0  0  0  0  0  0  0  0
  -26.5290  -15.8480   20.0130 H   0  0  0  0  0  0  0  0  0  0  0  0
  -32.1980  -20.1500   19.4650 C   0  0  0  0  0  3  0  0  0  0  0  0
  -32.6800  -19.8900   16.8660 C   0  0  0  0  0  2  0  0  0  0  0  0
  -31.2630  -20.3910   17.0040 C   0  0  0  0  0  2  0  0  0  0  0  0
  -32.2880  -20.7400   18.0580 C   0  0  0  0  0  3  0  0  0  0  0  0
  -34.7070  -19.8240   19.9280 C   0  0  0  0  0  1  0  0  0  0  0  0
  -33.4110  -20.5460   20.3280 C   0  0  0  0  0  2  0  0  0  0  0  0
  -28.5780  -23.4300   20.7340 O   0  0  0  0  0  0  0  0  0  0  0  0
  -29.2150  -24.5510   20.1240 C   0  0  0  0  0  2  0  0  0  0  0  0
  -28.6260  -25.8010   20.8100 C   0  0  0  0  0  2  0  0  0  0  0  0
  -28.6280  -26.9600   19.9680 O   0  0  0  0  0  0  0  0  0  0  0  0
  -24.5720  -31.8550   23.1710 C   0  0  0  0  0  0  0  0  0  0  0  0
  -27.4410  -27.6520   19.9780 C   0  0  0  0  0  0  0  0  0  0  0  0
  -23.4480  -30.4700   21.4550 C   0  0  0  0  0  3  0  0  0  0  0  0
  -24.9860  -29.0450   20.0000 C   0  0  0  0  0  0  0  0  0  0  0  0
  -25.9580  -30.9360   21.3170 C   0  0  0  0  0  2  0  0  0  0  0  0
  -26.1100  -29.5970   20.6280 C   0  0  0  0  0  0  0  0  0  0  0  0
  -27.3430  -28.9080   20.6120 C   0  0  0  0  0  3  0  0  0  0  0  0
  -26.3020  -27.1060   19.3480 C   0  0  0  0  0  3  0  0  0  0  0  0
  -25.0760  -27.7980   19.3570 C   0  0  0  0  0  3  0  0  0  0  0  0
  -23.7060  -29.8490   20.0570 C   0  0  0  0  0  2  0  0  0  0  0  0
  -24.6770  -31.0990   22.0400 N   0  0  0  0  0  0  0  0  0  0  0  0
  -23.4730  -32.0650   23.7010 O   0  0  0  0  0  0  0  0  0  0  0  0
  -22.8200  -29.3900   22.3650 C   0  0  0  0  0  0  0  0  0  0  0  0
  -21.5020  -29.1760   22.2200 N   0  0  0  0  0  0  0  0  0  0  0  0
  -23.5150  -28.7480   23.1570 O   0  0  0  0  0  0  0  0  0  0  0  0
  -21.0020  -29.7470   21.5520 H   0  0  0  0  0  0  0  0  0  0  0  0
  -18.1480  -27.9160   22.6810 C   0  0  0  0  0  0  0  0  0  0  0  0
  -20.7060  -28.1860   22.9410 C   0  0  0  0  0  3  0  0  0  0  0  0
  -20.8170  -26.7930   22.2790 C   0  0  0  0  0  2  0  0  0  0  0  0
  -19.7080  -26.5200   21.2590 C   0  0  0  0  0  2  0  0  0  0  0  0
  -18.3320  -26.6110   21.9240 C   0  0  0  0  0  2  0  0  0  0  0  0
  -19.2640  -28.6630   23.1450 C   0  0  0  0  0  0  0  0  0  0  0  0
  -19.0380  -29.8860   23.8120 C   0  0  0  0  0  3  0  0  0  0  0  0
  -17.7300  -30.3630   24.0180 C   0  0  0  0  0  3  0  0  0  0  0  0
  -16.6300  -29.6120   23.5700 C   0  0  0  0  0  3  0  0  0  0  0  0
  -16.8400  -28.3890   22.9080 C   0  0  0  0  0  3  0  0  0  0  0  0
  -25.8250  -32.5070   23.8370 C   0  0  0  0  0  3  0  0  0  0  0  0
  -25.4770  -33.8950   24.1660 N   0  0  0  0  0  0  0  0  0  0  0  0
  -25.8060  -34.9570   23.4170 C   0  0  0  0  0  0  0  0  0  0  0  0
  -26.5060  -34.8730   22.4040 O   0  0  0  0  0  0  0  0  0  0  0  0
  -24.8670  -34.0340   24.9580 H   0  0  0  0  0  0  0  0  0  0  0  0
  -24.0550  -36.7140   23.0090 C   0  0  0  0  0  1  0  0  0  0  0  0
  -25.2740  -36.3320   23.8640 C   0  0  0  0  0  3  0  0  0  0  0  0
  -27.3530  -37.2620   24.7820 C   0  0  0  0  0  1  0  0  0  0  0  0
  -26.2880  -37.4070   23.7930 N   0  0  0  0  0  0  0  0  0  0  0  0
  -25.8570  -38.3190   23.9230 H   0  0  0  0  0  0  0  0  0  0  0  0
  -26.3190  -31.7360   25.1230 C   0  0  1  0  0  0  0  0  0  0  0  0
  -25.1960  -31.4570   26.1510 C   0  0  0  0  0  1  0  0  0  0  0  0
  -26.9530  -30.3800   24.7360 C   0  0  0  0  0  1  0  0  0  0  0  0
  -27.4260  -32.5530   25.8290 C   0  0  0  0  0  1  0  0  0  0  0  0
  2  1  1  0
  3  5  2  0
  3  6  1  0
  4  7  1  0
  4  1  2  0
  5  4  1  0
  6 53  1  0
  6  2  2  0
  8 17  1  0
  8  7  1  0
  9 17  1  0
 10 15  1  0
 11 12  1  0
 11 10  1  0
 13 12  1  0
 13 22  1  0
 13 14  1  0
 15  9  1  0
 15 14  1  0
 16  9  2  0
 17 18  1  0
 19 20  2  0
 20 39  1  0
 21 20  1  0
 21 24  1  0
 22 23  1  0
 22 19  1  0
 23 21  2  0
 24 25  1  0
 25 26  2  0
 27 30  1  0
 27 26  1  0
 28 27  2  0
 29 28  1  0
 29 24  2  0
 30 31  1  0
 31 36  2  0
 31 32  1  0
 32 33  2  0
 34 33  1  0
 34 38  1  0
 35 34  2  0
 36 35  1  0
 37 36  1  0
 39 40  1  0
 40 43  1  0
 40 42  1  0
 41 39  2  0
 44 19  1  0
 44 45  1  0
 46 44  1  0
 47  5  1  0
 47 52  1  0
 48 49  1  0
 48 50  1  0
 49 50  1  0
 50 47  1  0
 51 52  1  0
 54 53  1  0
 54 55  1  0
 56 58  1  0
 56 55  1  0
 57 68  2  0
 58 63  1  0
 59 67  1  0
 59 69  1  0
 60 66  1  0
 60 62  1  0
 61 67  1  0
 62 61  1  0
 63 62  2  0
 64 65  1  0
 64 58  2  0
 65 60  2  0
 66 59  1  0
 67 57  1  0
 69 71  2  0
 70 69  1  0
 72 70  1  0
 73 82  2  0
 73 78  1  0
 74 70  1  0
 74 78  1  0
 75 74  1  0
 76 77  1  0
 76 75  1  0
 77 73  1  0
 78 79  2  0
 79 80  1  0
 81 80  2  0
 82 81  1  0
 83 57  1  0
 83 84  1  0
 83 93  1  0
 84 87  1  0
 85 89  1  0
 85 84  1  0
 86 85  2  0
 89 88  1  0
 91 89  1  0
 91 92  1  0
 91 90  1  0
 93 96  1  1
 93 94  1  0
 95 93  1  0
M  ISO  4   9 100  17 100  55 101  56 101
M  END
>  <TORSDO>  (21) 
F 24

>  <SCORE>  (21) 
-11.822

>  <name>  (21) 
20

>  <ligand_id>  (21) 
20

>  <original_smiles>  (21) 
[H]c1c([H])c([H])c2c(c1[H])C([H])([H])C([H])([H])C([H])([H])C2([H])N([H])C(=O)C1([H])N(C(=O)C([H])(N([H])C(=O)C([H])(N([H])C([H])([H])[H])C([H])([H])[H])C(C([H])([H])[H])(C([H])([H])[H])C([H])([H])[H])C([H])([H])c2c([H])c(OC([H])([H])C([H])([H])Oc3c([H])c([H])c(C([H])([H])C([H])([H])N([H])C(=O)N4C([H])([H])C([H])([H])C([H])([H])C([H])(n5nc(-c6c([H])c([H])c(Oc7c([H])c([H])c(F)c([H])c7F)c([H])c6[H])c(C(=O)N([H])[H])c5N([H])[H])C4([H])[H])c(C([H])(C([H])([H])C([H])([H])[H])C4([H])C([H])([H])C4([H])[H])c3[H])c([H])c([H])c2C1([H])[H]

>  <smiles>  (21) 
[H]c1c([H])c([H])c2c(c1[H])C([H])([H])C([H])([H])C([H])([H])C2([H])N([H])C(=O)C1([H])N(C(=O)C([H])(N([H])C(=O)C([H])(N([H])C([H])([H])[H])C([H])([H])[H])C(C([H])([H])[H])(C([H])([H])[H])C([H])([H])[H])C([H])([H])c2c([H])c(OC([H])([H])C([H])([H])Oc3c([H])c([H])c(C([H])([H])C([H])([H])N([H])C(=O)N4C([H])([H])C([H])([H])C([H])([H])C([H])(n5nc(-c6c([H])c([H])c(Oc7c([H])c([H])c(F)c([H])c7F)c([H])c6[H])c(C(=O)N([H])[H])c5N([H])[H])C4([H])[H])c(C([H])(C([H])([H])C([H])([H])[H])C4([H])C([H])([H])C4([H])[H])c3[H])c([H])c([H])c2C1([H])[H]

$$$$
21:0:0
     RDKit          3D

 97106  0  0  1  0  0  0  0  0999 V2000
  -30.7290  -22.5680   20.4850 C   0  0  0  0  0  3  0  0  0  0  0  0
  -28.7850  -23.6130   21.4560 C   0  0  0  0  0  3  0  0  0  0  0  0
  -29.9830  -23.7420   20.7370 C   0  0  0  0  0  0  0  0  0  0  0  0
  -30.2440  -21.3240   20.9550 C   0  0  0  0  0  0  0  0  0  0  0  0
  -28.3670  -22.3380   21.8730 C   0  0  0  0  0  0  0  0  0  0  0  0
  -27.0790  -22.1560   22.6450 C   0  0  0  0  0  1  0  0  0  0  0  0
  -29.0800  -21.2180   21.6360 N   0  0  0  0  0  0  0  0  0  0  0  0
  -31.6810  -19.5610   22.1140 C   0  0  0  0  0  2  0  0  0  0  0  0
  -32.1370  -18.1250   21.8520 C   0  0  0  0  0  2  0  0  0  0  0  0
  -31.0700  -20.0420   20.7930 C   0  0  0  0  0  3  0  0  0  0  0  0
  -30.3720  -18.7750   20.2230 C   0  0  0  0  0  3  0  0  0  0  0  0
  -31.4070  -17.6630   20.5780 C   0  0  0  0  0  3  0  0  0  0  0  0
  -31.5120  -15.1950   20.3040 C   0  0  0  0  0  0  0  0  0  0  0  0
  -31.1720  -12.9500   19.3520 C   0  0  0  0  0  2  0  0  0  0  0  0
  -30.2780  -13.0590   18.1010 C   0  0  0  0  0  2  0  0  0  0  0  0
  -28.7920  -12.9780   18.4980 C   0  0  0  0  0  2  0  0  0  0  0  0
  -28.4310  -13.9410   19.6610 C   0  0  0  0  0  3  0  0  0  0  0  0
  -29.4480  -13.8320   20.8200 C   0  0  0  0  0  2  0  0  0  0  0  0
  -30.7950  -14.0400   20.2670 N   0  0  0  0  0  0  0  0  0  0  0  0
  -32.6510  -15.2800   19.8400 O   0  0  0  0  0  0  0  0  0  0  0  0
  -30.8650  -16.2970   20.7310 N   0  0  0  0  0  0  0  0  0  0  0  0
  -29.9230  -16.1880   21.0760 H   0  0  0  0  0  0  0  0  0  0  0  0
  -26.0620  -14.6680   20.3560 C   0  0  0  0  0  0  0  0  0  0  0  0
  -24.9480  -13.9490   20.6980 C   0  0  0  0  0  0  0  0  0  0  0  0
  -25.3340  -12.5750   20.6460 C   0  0  0  0  0  0  0  0  0  0  0  0
  -27.0600  -13.7340   20.1200 N   0  0  0  0  0  0  0  0  0  0  0  0
  -26.6240  -12.4690   20.3510 N   0  0  0  0  0  0  0  0  0  0  0  0
  -24.5370  -11.3520   20.8030 C   0  0  0  0  0  0  0  0  0  0  0  0
  -24.8870  -10.3590   21.7430 C   0  0  0  0  0  3  0  0  0  0  0  0
  -24.0950   -9.2000   21.8880 C   0  0  0  0  0  3  0  0  0  0  0  0
  -22.9380   -9.0270   21.0920 C   0  0  0  0  0  0  0  0  0  0  0  0
  -22.6070  -10.0080   20.1400 C   0  0  0  0  0  3  0  0  0  0  0  0
  -23.3990  -11.1590   19.9940 C   0  0  0  0  0  3  0  0  0  0  0  0
  -22.1230   -7.9210   21.1460 O   0  0  0  0  0  0  0  0  0  0  0  0
  -21.9920   -7.1800   22.2920 C   0  0  0  0  0  0  0  0  0  0  0  0
  -21.5220   -7.7460   23.4970 C   0  0  0  0  0  3  0  0  0  0  0  0
  -21.3350   -6.9330   24.6320 C   0  0  0  0  0  3  0  0  0  0  0  0
  -21.6100   -5.5530   24.5630 C   0  0  0  0  0  0  0  0  0  0  0  0
  -22.0740   -4.9860   23.3610 C   0  0  0  0  0  3  0  0  0  0  0  0
  -22.2610   -5.7980   22.2290 C   0  0  0  0  0  0  0  0  0  0  0  0
  -22.6880   -5.2430   21.0690 F   0  0  0  0  0  0  0  0  0  0  0  0
  -21.4250   -4.7690   25.6500 F   0  0  0  0  0  0  0  0  0  0  0  0
  -23.5770  -14.4990   20.9650 C   0  0  0  0  0  0  0  0  0  0  0  0
  -22.8060  -13.8340   21.8180 N   0  0  0  0  0  0  0  0  0  0  0  0
  -23.2010  -15.5530   20.4530 O   0  0  0  0  0  0  0  0  0  0  0  0
  -23.1230  -12.9790   22.2530 H   0  0  0  0  0  0  0  0  0  0  0  0
  -21.8840  -14.1840   22.0380 H   0  0  0  0  0  0  0  0  0  0  0  0
  -26.3040  -16.0290   20.2090 N   0  0  0  0  0  0  0  0  0  0  0  0
  -25.5750  -16.7250   20.3170 H   0  0  0  0  0  0  0  0  0  0  0  0
  -27.1830  -16.4220   19.9020 H   0  0  0  0  0  0  0  0  0  0  0  0
  -29.4760  -17.5190   18.1530 C   0  0  0  0  0  1  0  0  0  0  0  0
  -28.9770  -19.9490   18.3860 C   0  0  0  0  0  1  0  0  0  0  0  0
  -30.0100  -18.8500   18.7060 C   0  0  0  0  0  3  0  0  0  0  0  0
  -30.4080  -25.0090   20.3990 O   0  0  0  0  0  0  0  0  0  0  0  0
  -30.5100  -25.3320   19.0110 C   0  0  0  0  0  2  0  0  0  0  0  0
  -29.1950  -25.9700   18.5200 C   0  0  0  0  0  2  0  0  0  0  0  0
  -29.0480  -27.3310   18.9620 O   0  0  0  0  0  0  0  0  0  0  0  0
  -24.6390  -31.2820   22.9040 C   0  0  0  0  0  0  0  0  0  0  0  0
  -27.7660  -27.8370   19.0810 C   0  0  0  0  0  0  0  0  0  0  0  0
  -23.5720  -29.9450   21.1170 C   0  0  0  0  0  3  0  0  0  0  0  0
  -25.1590  -28.9000   19.4170 C   0  0  0  0  0  0  0  0  0  0  0  0
  -25.9890  -30.7520   20.8760 C   0  0  0  0  0  2  0  0  0  0  0  0
  -26.2540  -29.5220   20.0320 C   0  0  0  0  0  0  0  0  0  0  0  0
  -27.5560  -28.9990   19.8620 C   0  0  0  0  0  3  0  0  0  0  0  0
  -26.6470  -27.2350   18.4570 C   0  0  0  0  0  3  0  0  0  0  0  0
  -25.3510  -27.7560   18.6270 C   0  0  0  0  0  3  0  0  0  0  0  0
  -23.7990  -29.5170   19.6420 C   0  0  0  0  0  2  0  0  0  0  0  0
  -24.7530  -30.6690   21.6910 N   0  0  0  0  0  0  0  0  0  0  0  0
  -23.5650  -31.2840   23.5220 O   0  0  0  0  0  0  0  0  0  0  0  0
  -23.1600  -28.6990   21.9350 C   0  0  0  0  0  0  0  0  0  0  0  0
  -21.8960  -28.2730   21.7800 N   0  0  0  0  0  0  0  0  0  0  0  0
  -23.9730  -28.1260   22.6660 O   0  0  0  0  0  0  0  0  0  0  0  0
  -21.2900  -28.8040   21.1710 H   0  0  0  0  0  0  0  0  0  0  0  0
  -18.8490  -26.3540   22.0760 C   0  0  0  0  0  0  0  0  0  0  0  0
  -21.3000  -27.1000   22.4190 C   0  0  0  0  0  3  0  0  0  0  0  0
  -21.6920  -25.8010   21.6780 C   0  0  0  0  0  2  0  0  0  0  0  0
  -20.6730  -25.3810   20.6140 C   0  0  0  0  0  2  0  0  0  0  0  0
  -19.2950  -25.1610   21.2460 C   0  0  0  0  0  2  0  0  0  0  0  0
  -19.7890  -27.2720   22.6130 C   0  0  0  0  0  0  0  0  0  0  0  0
  -19.3190  -28.3830   23.3460 C   0  0  0  0  0  3  0  0  0  0  0  0
  -17.9400  -28.5810   23.5460 C   0  0  0  0  0  3  0  0  0  0  0  0
  -17.0140  -27.6590   23.0280 C   0  0  0  0  0  3  0  0  0  0  0  0
  -17.4700  -26.5470   22.2990 C   0  0  0  0  0  3  0  0  0  0  0  0
  -25.8430  -32.0260   23.5600 C   0  0  0  0  0  3  0  0  0  0  0  0
  -25.3700  -33.3520   23.9780 N   0  0  0  0  0  0  0  0  0  0  0  0
  -25.5770  -34.4850   23.2950 C   0  0  0  0  0  0  0  0  0  0  0  0
  -26.2610  -34.5320   22.2690 O   0  0  0  0  0  0  0  0  0  0  0  0
  -24.7630  -33.3810   24.7840 H   0  0  0  0  0  0  0  0  0  0  0  0
  -23.6430  -36.0710   23.0330 C   0  0  0  0  0  1  0  0  0  0  0  0
  -24.9200  -35.7690   23.8350 C   0  0  0  0  0  3  0  0  0  0  0  0
  -26.9250  -36.8470   24.7530 C   0  0  0  0  0  1  0  0  0  0  0  0
  -25.8120  -36.9480   23.8120 N   0  0  0  0  0  0  0  0  0  0  0  0
  -25.2930  -37.7950   24.0280 H   0  0  0  0  0  0  0  0  0  0  0  0
  -26.4660  -31.2470   24.7810 C   0  0  1  0  0  0  0  0  0  0  0  0
  -25.4230  -30.8120   25.8370 C   0  0  0  0  0  1  0  0  0  0  0  0
  -27.2060  -29.9780   24.2970 C   0  0  0  0  0  1  0  0  0  0  0  0
  -27.5200  -32.1330   25.4860 C   0  0  0  0  0  1  0  0  0  0  0  0
  1  3  2  0
  1  4  1  0
  2  5  2  0
  3  2  1  0
  4  7  2  0
  5  6  1  0
  7  5  1  0
  9  8  1  0
 10  4  1  0
 10  8  1  0
 11 53  1  0
 11 12  1  0
 11 10  1  0
 12 21  1  0
 12  9  1  0
 13 21  1  0
 14 19  1  0
 15 16  1  0
 15 14  1  0
 17 16  1  0
 17 26  1  0
 17 18  1  0
 19 13  1  0
 19 18  1  0
 20 13  2  0
 21 22  1  0
 23 24  2  0
 24 43  1  0
 25 24  1  0
 25 28  1  0
 26 27  1  0
 26 23  1  0
 27 25  2  0
 28 29  1  0
 29 30  2  0
 31 34  1  0
 31 30  1  0
 32 31  2  0
 33 32  1  0
 33 28  2  0
 34 35  1  0
 35 36  1  0
 36 37  2  0
 38 37  1  0
 38 42  1  0
 39 38  2  0
 40 35  2  0
 40 39  1  0
 41 40  1  0
 43 44  1  0
 44 47  1  0
 44 46  1  0
 45 43  2  0
 48 49  1  0
 48 23  1  0
 50 48  1  0
 51 53  1  0
 52 53  1  0
 54  3  1  0
 55 54  1  0
 56 57  1  0
 56 55  1  0
 57 59  1  0
 58 69  2  0
 59 64  1  0
 60 68  1  0
 60 70  1  0
 61 67  1  0
 61 63  1  0
 62 68  1  0
 63 62  1  0
 64 63  2  0
 65 66  1  0
 65 59  2  0
 66 61  2  0
 67 60  1  0
 68 58  1  0
 70 72  2  0
 71 70  1  0
 73 71  1  0
 74 83  2  0
 74 79  1  0
 75 71  1  0
 75 79  1  0
 76 75  1  0
 77 78  1  0
 77 76  1  0
 78 74  1  0
 79 80  2  0
 80 81  1  0
 82 81  2  0
 83 82  1  0
 84 58  1  0
 84 85  1  0
 84 94  1  0
 85 88  1  0
 86 90  1  0
 86 85  1  0
 87 86  2  0
 90 89  1  0
 92 90  1  0
 92 93  1  0
 92 91  1  0
 94 97  1  1
 94 95  1  0
 96 94  1  0
M  ISO  4  13 100  21 100  56 101  57 101
M  END
>  <TORSDO>  (22) 
F 21

>  <SCORE>  (22) 
-6.985

>  <name>  (22) 
21

>  <ligand_id>  (22) 
21

>  <original_smiles>  (22) 
[H]c1c([H])c([H])c2c(c1[H])C([H])([H])C([H])([H])C([H])([H])C2([H])N([H])C(=O)C1([H])N(C(=O)C([H])(N([H])C(=O)C([H])(N([H])C([H])([H])[H])C([H])([H])[H])C(C([H])([H])[H])(C([H])([H])[H])C([H])([H])[H])C([H])([H])c2c([H])c(OC([H])([H])C([H])([H])Oc3c([H])c(C([H])([H])[H])nc(C4([H])C([H])([H])C([H])([H])C([H])(N([H])C(=O)N5C([H])([H])C([H])([H])C([H])([H])C([H])(n6nc(-c7c([H])c([H])c(Oc8c([H])c([H])c(F)c([H])c8F)c([H])c7[H])c(C(=O)N([H])[H])c6N([H])[H])C5([H])[H])C4([H])C([H])(C([H])([H])[H])C([H])([H])[H])c3[H])c([H])c([H])c2C1([H])[H]

>  <smiles>  (22) 
[H]c1c([H])c([H])c2c(c1[H])C([H])([H])C([H])([H])C([H])([H])C2([H])N([H])C(=O)C1([H])N(C(=O)C([H])(N([H])C(=O)C([H])(N([H])C([H])([H])[H])C([H])([H])[H])C(C([H])([H])[H])(C([H])([H])[H])C([H])([H])[H])C([H])([H])c2c([H])c(OC([H])([H])C([H])([H])Oc3c([H])c(C([H])([H])[H])nc(C4([H])C([H])([H])C([H])([H])C([H])(N([H])C(=O)N5C([H])([H])C([H])([H])C([H])([H])C([H])(n6nc(-c7c([H])c([H])c(Oc8c([H])c([H])c(F)c([H])c8F)c([H])c7[H])c(C(=O)N([H])[H])c6N([H])[H])C5([H])[H])C4([H])C([H])(C([H])([H])[H])C([H])([H])[H])c3[H])c([H])c([H])c2C1([H])[H]

$$$$
22:0:0
     RDKit          3D

 91100  0  0  1  0  0  0  0  0999 V2000
  -29.0160  -22.8270   21.4100 C   0  0  0  0  0  3  0  0  0  0  0  0
  -28.4830  -22.5080   19.1370 C   0  0  0  0  0  3  0  0  0  0  0  0
  -29.2380  -20.4600   20.4300 C   0  0  0  0  0  0  0  0  0  0  0  0
  -28.5110  -23.4310   20.2200 C   0  0  0  0  0  0  0  0  0  0  0  0
  -29.3930  -21.4270   21.4980 C   0  0  0  0  0  0  0  0  0  0  0  0
  -28.8580  -21.1180   19.2000 C   0  0  0  0  0  0  0  0  0  0  0  0
  -29.9790  -20.9620   22.8230 C   0  0  0  0  0  1  0  0  0  0  0  0
  -28.8310  -20.4090   17.8550 C   0  0  0  0  0  1  0  0  0  0  0  0
  -28.4570  -17.9210   19.9430 C   0  0  0  0  0  2  0  0  0  0  0  0
  -29.3170  -18.8440   20.7440 C   0  0  0  0  0  3  0  0  0  0  0  0
  -29.8810  -17.4440   20.0730 C   0  0  0  0  0  3  0  0  0  0  0  0
  -30.5760  -14.8730   20.2530 C   0  0  0  0  0  0  0  0  0  0  0  0
  -30.3700  -12.5990   19.2200 C   0  0  0  0  0  2  0  0  0  0  0  0
  -29.3850  -12.6370   18.0270 C   0  0  0  0  0  2  0  0  0  0  0  0
  -27.9370  -12.4350   18.5080 C   0  0  0  0  0  2  0  0  0  0  0  0
  -27.5920  -13.3200   19.7340 C   0  0  0  0  0  3  0  0  0  0  0  0
  -28.6850  -13.2530   20.8270 C   0  0  0  0  0  2  0  0  0  0  0  0
  -29.9600  -13.6360   20.2030 N   0  0  0  0  0  0  0  0  0  0  0  0
  -31.7350  -14.9930   19.8530 O   0  0  0  0  0  0  0  0  0  0  0  0
  -29.7930  -15.9930   20.5300 N   0  0  0  0  0  0  0  0  0  0  0  0
  -28.8850  -15.7290   20.8810 H   0  0  0  0  0  0  0  0  0  0  0  0
  -25.2290  -13.9000   20.5430 C   0  0  0  0  0  0  0  0  0  0  0  0
  -24.1700  -13.1260   20.9190 C   0  0  0  0  0  0  0  0  0  0  0  0
  -24.6260  -11.7720   20.8490 C   0  0  0  0  0  0  0  0  0  0  0  0
  -26.2640  -13.0240   20.2620 N   0  0  0  0  0  0  0  0  0  0  0  0
  -25.9110  -11.7360   20.5070 N   0  0  0  0  0  0  0  0  0  0  0  0
  -23.9010  -10.5080   21.0320 C   0  0  0  0  0  0  0  0  0  0  0  0
  -24.3370   -9.5410   21.9620 C   0  0  0  0  0  3  0  0  0  0  0  0
  -23.6170   -8.3390   22.1350 C   0  0  0  0  0  3  0  0  0  0  0  0
  -22.4460   -8.0990   21.3760 C   0  0  0  0  0  0  0  0  0  0  0  0
  -22.0280   -9.0560   20.4360 C   0  0  0  0  0  3  0  0  0  0  0  0
  -22.7490  -10.2500   20.2630 C   0  0  0  0  0  3  0  0  0  0  0  0
  -21.6920   -6.9550   21.4590 O   0  0  0  0  0  0  0  0  0  0  0  0
  -21.6170   -6.2250   22.6170 C   0  0  0  0  0  0  0  0  0  0  0  0
  -21.1470   -6.7870   23.8250 C   0  0  0  0  0  3  0  0  0  0  0  0
  -21.0240   -5.9820   24.9740 C   0  0  0  0  0  3  0  0  0  0  0  0
  -21.3550   -4.6160   24.9170 C   0  0  0  0  0  0  0  0  0  0  0  0
  -21.8170   -4.0530   23.7140 C   0  0  0  0  0  3  0  0  0  0  0  0
  -21.9450   -4.8540   22.5670 C   0  0  0  0  0  0  0  0  0  0  0  0
  -22.3690   -4.3030   21.4040 F   0  0  0  0  0  0  0  0  0  0  0  0
  -21.2310   -3.8390   26.0200 F   0  0  0  0  0  0  0  0  0  0  0  0
  -22.7780  -13.6020   21.2220 C   0  0  0  0  0  0  0  0  0  0  0  0
  -22.0590  -12.8970   22.0860 N   0  0  0  0  0  0  0  0  0  0  0  0
  -22.3350  -14.6370   20.7240 O   0  0  0  0  0  0  0  0  0  0  0  0
  -22.4280  -12.0620   22.5170 H   0  0  0  0  0  0  0  0  0  0  0  0
  -21.1240  -13.1980   22.3210 H   0  0  0  0  0  0  0  0  0  0  0  0
  -25.3950  -15.2760   20.3950 N   0  0  0  0  0  0  0  0  0  0  0  0
  -24.6410  -15.9270   20.5870 H   0  0  0  0  0  0  0  0  0  0  0  0
  -26.2300  -15.7240   20.0400 H   0  0  0  0  0  0  0  0  0  0  0  0
  -27.7320  -24.8430   20.0570 C   0  0  0  0  0  2  0  0  0  0  0  0
  -28.1740  -26.2810   20.3010 O   0  0  0  0  0  0  0  0  0  0  0  0
  -24.6250  -31.9380   23.2730 C   0  0  0  0  0  0  0  0  0  0  0  0
  -27.1420  -27.2730   20.2030 C   0  0  0  0  0  0  0  0  0  0  0  0
  -23.4000  -30.5570   21.6410 C   0  0  0  0  0  3  0  0  0  0  0  0
  -24.8250  -29.0050   20.1860 C   0  0  0  0  0  0  0  0  0  0  0  0
  -25.9490  -30.8250   21.4440 C   0  0  0  0  0  2  0  0  0  0  0  0
  -26.0100  -29.4420   20.7920 C   0  0  0  0  0  0  0  0  0  0  0  0
  -27.1710  -28.5920   20.7920 C   0  0  0  0  0  3  0  0  0  0  0  0
  -25.9350  -26.9430   19.5350 C   0  0  0  0  0  3  0  0  0  0  0  0
  -24.7960  -27.7660   19.5400 C   0  0  0  0  0  3  0  0  0  0  0  0
  -23.6000  -29.8960   20.2530 C   0  0  0  0  0  2  0  0  0  0  0  0
  -24.6800  -31.1260   22.1750 N   0  0  0  0  0  0  0  0  0  0  0  0
  -23.5460  -32.2240   23.8100 O   0  0  0  0  0  0  0  0  0  0  0  0
  -22.7320  -29.5400   22.5990 C   0  0  0  0  0  0  0  0  0  0  0  0
  -21.4050  -29.3700   22.4750 N   0  0  0  0  0  0  0  0  0  0  0  0
  -23.4090  -28.9090   23.4170 O   0  0  0  0  0  0  0  0  0  0  0  0
  -20.9170  -29.9450   21.8030 H   0  0  0  0  0  0  0  0  0  0  0  0
  -18.0210  -28.1630   22.9650 C   0  0  0  0  0  0  0  0  0  0  0  0
  -20.5800  -28.4260   23.2370 C   0  0  0  0  0  3  0  0  0  0  0  0
  -20.6820  -26.9950   22.6600 C   0  0  0  0  0  2  0  0  0  0  0  0
  -19.5800  -26.6670   21.6470 C   0  0  0  0  0  2  0  0  0  0  0  0
  -18.1980  -26.8150   22.2870 C   0  0  0  0  0  2  0  0  0  0  0  0
  -19.1390  -28.9290   23.3940 C   0  0  0  0  0  0  0  0  0  0  0  0
  -18.9160  -30.1930   23.9820 C   0  0  0  0  0  3  0  0  0  0  0  0
  -17.6090  -30.6910   24.1450 C   0  0  0  0  0  3  0  0  0  0  0  0
  -16.5060  -29.9200   23.7380 C   0  0  0  0  0  3  0  0  0  0  0  0
  -16.7140  -28.6570   23.1550 C   0  0  0  0  0  3  0  0  0  0  0  0
  -25.9140  -32.5630   23.8910 C   0  0  0  0  0  3  0  0  0  0  0  0
  -25.6160  -33.9600   24.2320 N   0  0  0  0  0  0  0  0  0  0  0  0
  -25.9050  -35.0170   23.4580 C   0  0  0  0  0  0  0  0  0  0  0  0
  -26.5270  -34.9150   22.3980 O   0  0  0  0  0  0  0  0  0  0  0  0
  -25.0770  -34.1130   25.0710 H   0  0  0  0  0  0  0  0  0  0  0  0
  -24.1440  -36.7950   23.1910 C   0  0  0  0  0  1  0  0  0  0  0  0
  -25.4310  -36.4010   23.9360 C   0  0  0  0  0  3  0  0  0  0  0  0
  -27.6060  -37.3030   24.6420 C   0  0  0  0  0  1  0  0  0  0  0  0
  -26.4470  -37.4640   23.7680 N   0  0  0  0  0  0  0  0  0  0  0  0
  -26.0410  -38.3800   23.9430 H   0  0  0  0  0  0  0  0  0  0  0  0
  -26.4290  -31.7850   25.1630 C   0  0  1  0  0  0  0  0  0  0  0  0
  -25.3400  -31.5520   26.2360 C   0  0  0  0  0  1  0  0  0  0  0  0
  -27.0030  -30.4050   24.7640 C   0  0  0  0  0  1  0  0  0  0  0  0
  -27.5850  -32.5710   25.8250 C   0  0  0  0  0  1  0  0  0  0  0  0
  1  5  1  0
  2  6  2  0
  2  4  1  0
  3  5  2  0
  4  1  2  0
  5  7  1  0
  6  3  1  0
  8  6  1  0
  9 11  1  0
  9 10  1  0
 10  3  1  0
 11 20  1  0
 11 10  1  0
 12 20  1  0
 13 18  1  0
 14 15  1  0
 14 13  1  0
 16 15  1  0
 16 25  1  0
 16 17  1  0
 18 12  1  0
 18 17  1  0
 19 12  2  0
 20 21  1  0
 22 23  2  0
 23 42  1  0
 24 23  1  0
 24 27  1  0
 25 26  1  0
 25 22  1  0
 26 24  2  0
 27 28  1  0
 28 29  2  0
 30 33  1  0
 30 29  1  0
 31 30  2  0
 32 31  1  0
 32 27  2  0
 33 34  1  0
 34 35  1  0
 35 36  2  0
 37 36  1  0
 37 41  1  0
 38 37  2  0
 39 34  2  0
 39 38  1  0
 40 39  1  0
 42 43  1  0
 43 46  1  0
 43 45  1  0
 44 42  2  0
 47 22  1  0
 47 48  1  0
 49 47  1  0
 50  4  1  0
 50 51  1  0
 52 63  2  0
 53 51  1  0
 53 58  1  0
 54 62  1  0
 54 64  1  0
 55 61  1  0
 55 57  1  0
 56 62  1  0
 57 58  2  0
 57 56  1  0
 59 60  1  0
 59 53  2  0
 60 55  2  0
 61 54  1  0
 62 52  1  0
 64 66  2  0
 65 64  1  0
 67 65  1  0
 68 77  2  0
 68 73  1  0
 69 65  1  0
 69 73  1  0
 70 69  1  0
 71 72  1  0
 71 70  1  0
 72 68  1  0
 73 74  2  0
 74 75  1  0
 76 75  2  0
 77 76  1  0
 78 52  1  0
 78 79  1  0
 78 88  1  0
 79 82  1  0
 80 84  1  0
 80 79  1  0
 81 80  2  0
 84 83  1  0
 86 84  1  0
 86 87  1  0
 86 85  1  0
 88 91  1  1
 88 89  1  0
 90 88  1  0
M  ISO  4  12 100  20 100  50 101  51 101
M  END
>  <TORSDO>  (23) 
F 18

>  <SCORE>  (23) 
-14.707

>  <name>  (23) 
22

>  <ligand_id>  (23) 
22

>  <original_smiles>  (23) 
[H]c1c([H])c([H])c2c(c1[H])C([H])([H])C([H])([H])C([H])([H])C2([H])N([H])C(=O)C1([H])N(C(=O)C([H])(N([H])C(=O)C([H])(N([H])C([H])([H])[H])C([H])([H])[H])C(C([H])([H])[H])(C([H])([H])[H])C([H])([H])[H])C([H])([H])c2c([H])c(OC([H])([H])c3c([H])c(C([H])([H])[H])c(C4([H])C([H])([H])C4([H])N([H])C(=O)N4C([H])([H])C([H])([H])C([H])([H])C([H])(n5nc(-c6c([H])c([H])c(Oc7c([H])c([H])c(F)c([H])c7F)c([H])c6[H])c(C(=O)N([H])[H])c5N([H])[H])C4([H])[H])c(C([H])([H])[H])c3[H])c([H])c([H])c2C1([H])[H]

>  <smiles>  (23) 
[H]c1c([H])c([H])c2c(c1[H])C([H])([H])C([H])([H])C([H])([H])C2([H])N([H])C(=O)C1([H])N(C(=O)C([H])(N([H])C(=O)C([H])(N([H])C([H])([H])[H])C([H])([H])[H])C(C([H])([H])[H])(C([H])([H])[H])C([H])([H])[H])C([H])([H])c2c([H])c(OC([H])([H])c3c([H])c(C([H])([H])[H])c(C4([H])C([H])([H])C4([H])N([H])C(=O)N4C([H])([H])C([H])([H])C([H])([H])C([H])(n5nc(-c6c([H])c([H])c(Oc7c([H])c([H])c(F)c([H])c7F)c([H])c6[H])c(C(=O)N([H])[H])c5N([H])[H])C4([H])[H])c(C([H])([H])[H])c3[H])c([H])c([H])c2C1([H])[H]

$$$$
23:0:0
     RDKit          3D

 93102  0  0  1  0  0  0  0  0999 V2000
  -28.3100  -23.2450   19.5080 C   0  0  0  0  0  3  0  0  0  0  0  0
  -28.4090  -21.8260   19.3720 C   0  0  0  0  0  0  0  0  0  0  0  0
  -28.8720  -21.0110   20.4570 C   0  0  0  0  0  0  0  0  0  0  0  0
  -28.6830  -23.8830   20.7100 C   0  0  0  0  0  0  0  0  0  0  0  0
  -29.2860  -21.7580   21.6010 C   0  0  0  0  0  0  0  0  0  0  0  0
  -27.9230  -21.2090   18.0710 C   0  0  0  0  0  1  0  0  0  0  0  0
  -29.8140  -21.0840   22.8540 C   0  0  0  0  0  1  0  0  0  0  0  0
  -29.2000  -23.1160   21.7060 N   0  0  0  0  0  0  0  0  0  0  0  0
  -28.6710  -19.4280   20.4800 C   0  0  0  0  0  2  0  0  0  0  0  0
  -30.7340  -14.6820   20.0580 C   0  0  0  0  0  0  0  0  0  0  0  0
  -30.4210  -12.4810   18.9310 C   0  0  0  0  0  2  0  0  0  0  0  0
  -29.4090  -12.6360   17.7770 C   0  0  0  0  0  2  0  0  0  0  0  0
  -27.9670  -12.4770   18.2930 C   0  0  0  0  0  2  0  0  0  0  0  0
  -27.6930  -13.3090   19.5760 C   0  0  0  0  0  3  0  0  0  0  0  0
  -28.8140  -13.1260   20.6200 C   0  0  0  0  0  2  0  0  0  0  0  0
  -30.0790  -13.4810   19.9650 N   0  0  0  0  0  0  0  0  0  0  0  0
  -31.8510  -14.8320   19.5540 O   0  0  0  0  0  0  0  0  0  0  0  0
  -30.0690  -17.7850   21.9670 C   0  0  0  0  0  2  0  0  0  0  0  0
  -30.5730  -16.3320   21.8580 C   0  0  0  0  0  2  0  0  0  0  0  0
  -29.5050  -16.9220   19.8470 C   0  0  0  0  0  2  0  0  0  0  0  0
  -29.8350  -18.3150   20.5430 C   0  0  1  0  0  0  0  0  0  0  0  0
  -31.1390  -18.8850   19.9550 C   0  0  0  0  0  1  0  0  0  0  0  0
  -30.0620  -15.7550   20.6130 N   0  0  0  0  0  0  0  0  0  0  0  0
  -25.3520  -13.8930   20.4470 C   0  0  0  0  0  0  0  0  0  0  0  0
  -24.3060  -13.1120   20.8550 C   0  0  0  0  0  0  0  0  0  0  0  0
  -24.7600  -11.7600   20.7600 C   0  0  0  0  0  0  0  0  0  0  0  0
  -26.3770  -13.0180   20.1310 N   0  0  0  0  0  0  0  0  0  0  0  0
  -26.0300  -11.7270   20.3770 N   0  0  0  0  0  0  0  0  0  0  0  0
  -24.0410  -10.4950   20.9550 C   0  0  0  0  0  0  0  0  0  0  0  0
  -24.4940   -9.5240   21.8760 C   0  0  0  0  0  3  0  0  0  0  0  0
  -23.7750   -8.3240   22.0610 C   0  0  0  0  0  3  0  0  0  0  0  0
  -22.5890   -8.0850   21.3270 C   0  0  0  0  0  0  0  0  0  0  0  0
  -22.1550   -9.0450   20.3950 C   0  0  0  0  0  3  0  0  0  0  0  0
  -22.8740  -10.2370   20.2070 C   0  0  0  0  0  3  0  0  0  0  0  0
  -21.8400   -6.9370   21.4230 O   0  0  0  0  0  0  0  0  0  0  0  0
  -21.7690   -6.2190   22.5910 C   0  0  0  0  0  0  0  0  0  0  0  0
  -21.3180   -6.8010   23.7960 C   0  0  0  0  0  3  0  0  0  0  0  0
  -21.1920   -6.0090   24.9550 C   0  0  0  0  0  3  0  0  0  0  0  0
  -21.5100   -4.6380   24.9100 C   0  0  0  0  0  0  0  0  0  0  0  0
  -21.9570   -4.0570   23.7090 C   0  0  0  0  0  3  0  0  0  0  0  0
  -22.0830   -4.8460   22.5520 C   0  0  0  0  0  0  0  0  0  0  0  0
  -22.4910   -4.2770   21.3930 F   0  0  0  0  0  0  0  0  0  0  0  0
  -21.3840   -3.8750   26.0210 F   0  0  0  0  0  0  0  0  0  0  0  0
  -22.9280  -13.5830   21.2220 C   0  0  0  0  0  0  0  0  0  0  0  0
  -22.2570  -12.8690   22.1160 N   0  0  0  0  0  0  0  0  0  0  0  0
  -22.4590  -14.6180   20.7490 O   0  0  0  0  0  0  0  0  0  0  0  0
  -22.6520  -12.0300   22.5150 H   0  0  0  0  0  0  0  0  0  0  0  0
  -21.3360  -13.1620   22.4060 H   0  0  0  0  0  0  0  0  0  0  0  0
  -25.5110  -15.2670   20.2960 N   0  0  0  0  0  0  0  0  0  0  0  0
  -24.7580  -15.9220   20.4680 H   0  0  0  0  0  0  0  0  0  0  0  0
  -26.3480  -15.7080   19.9410 H   0  0  0  0  0  0  0  0  0  0  0  0
  -28.3180  -25.3700   21.0920 C   0  0  0  0  0  2  0  0  0  0  0  0
  -28.4980  -26.5070   20.1660 O   0  0  0  0  0  0  0  0  0  0  0  0
  -24.6340  -31.7970   23.1690 C   0  0  0  0  0  0  0  0  0  0  0  0
  -27.3970  -27.3620   20.1090 C   0  0  0  0  0  0  0  0  0  0  0  0
  -23.4870  -30.3850   21.4980 C   0  0  0  0  0  3  0  0  0  0  0  0
  -24.9970  -28.8950   20.0690 C   0  0  0  0  0  0  0  0  0  0  0  0
  -26.0150  -30.7850   21.3410 C   0  0  0  0  0  2  0  0  0  0  0  0
  -26.1410  -29.4170   20.6870 C   0  0  0  0  0  0  0  0  0  0  0  0
  -27.3490  -28.6590   20.7010 C   0  0  0  0  0  3  0  0  0  0  0  0
  -26.2400  -26.8900   19.4590 C   0  0  0  0  0  3  0  0  0  0  0  0
  -25.0470  -27.6380   19.4440 C   0  0  0  0  0  3  0  0  0  0  0  0
  -23.7310  -29.7290   20.1120 C   0  0  0  0  0  2  0  0  0  0  0  0
  -24.7300  -31.0060   22.0600 N   0  0  0  0  0  0  0  0  0  0  0  0
  -23.5390  -32.0360   23.6970 O   0  0  0  0  0  0  0  0  0  0  0  0
  -22.8440  -29.3400   22.4400 C   0  0  0  0  0  0  0  0  0  0  0  0
  -21.5250  -29.1210   22.2930 N   0  0  0  0  0  0  0  0  0  0  0  0
  -23.5290  -28.7260   23.2620 O   0  0  0  0  0  0  0  0  0  0  0  0
  -21.0320  -29.6670   21.5990 H   0  0  0  0  0  0  0  0  0  0  0  0
  -18.1810  -27.8120   22.7290 C   0  0  0  0  0  0  0  0  0  0  0  0
  -20.7240  -28.1550   23.0460 C   0  0  0  0  0  3  0  0  0  0  0  0
  -20.8830  -26.7310   22.4690 C   0  0  0  0  0  2  0  0  0  0  0  0
  -19.8110  -26.3760   21.4330 C   0  0  0  0  0  2  0  0  0  0  0  0
  -18.4130  -26.4730   22.0500 C   0  0  0  0  0  2  0  0  0  0  0  0
  -19.2660  -28.6090   23.1810 C   0  0  0  0  0  0  0  0  0  0  0  0
  -18.9930  -29.8620   23.7730 C   0  0  0  0  0  3  0  0  0  0  0  0
  -17.6710  -30.3200   23.9160 C   0  0  0  0  0  3  0  0  0  0  0  0
  -16.5990  -29.5190   23.4810 C   0  0  0  0  0  3  0  0  0  0  0  0
  -16.8570  -28.2670   22.8940 C   0  0  0  0  0  3  0  0  0  0  0  0
  -25.8950  -32.4560   23.8100 C   0  0  0  0  0  3  0  0  0  0  0  0
  -25.5470  -33.8430   24.1490 N   0  0  0  0  0  0  0  0  0  0  0  0
  -25.8510  -34.9090   23.3970 C   0  0  0  0  0  0  0  0  0  0  0  0
  -26.5260  -34.8330   22.3680 O   0  0  0  0  0  0  0  0  0  0  0  0
  -24.9480  -33.9750   24.9510 H   0  0  0  0  0  0  0  0  0  0  0  0
  -24.0670  -36.6520   23.0560 C   0  0  0  0  0  1  0  0  0  0  0  0
  -25.3200  -36.2800   23.8640 C   0  0  0  0  0  3  0  0  0  0  0  0
  -27.4290  -37.2230   24.6950 C   0  0  0  0  0  1  0  0  0  0  0  0
  -26.3160  -37.3670   23.7600 N   0  0  0  0  0  0  0  0  0  0  0  0
  -25.8800  -38.2690   23.9260 H   0  0  0  0  0  0  0  0  0  0  0  0
  -26.4200  -31.6870   25.0840 C   0  0  1  0  0  0  0  0  0  0  0  0
  -25.3250  -31.3980   26.1370 C   0  0  0  0  0  1  0  0  0  0  0  0
  -27.0470  -30.3320   24.6850 C   0  0  0  0  0  1  0  0  0  0  0  0
  -27.5420  -32.5070   25.7620 C   0  0  0  0  0  1  0  0  0  0  0  0
  1  4  1  0
  2  1  2  0
  2  3  1  0
  3  9  1  0
  3  5  2  0
  4 52  1  0
  4  8  2  0
  5  8  1  0
  5  7  1  0
  6  2  1  0
  9 21  1  0
 10 23  1  0
 11 16  1  0
 12 13  1  0
 12 11  1  0
 14 13  1  0
 14 27  1  0
 14 15  1  0
 16 10  1  0
 16 15  1  0
 17 10  2  0
 19 18  1  0
 20 21  1  0
 20 23  1  0
 21 22  1  6
 21 18  1  0
 23 19  1  0
 24 25  2  0
 25 44  1  0
 26 25  1  0
 26 29  1  0
 27 28  1  0
 27 24  1  0
 28 26  2  0
 29 30  1  0
 30 31  2  0
 32 35  1  0
 32 31  1  0
 33 32  2  0
 34 33  1  0
 34 29  2  0
 35 36  1  0
 36 37  1  0
 37 38  2  0
 39 38  1  0
 39 43  1  0
 40 39  2  0
 41 36  2  0
 41 40  1  0
 42 41  1  0
 44 45  1  0
 45 48  1  0
 45 47  1  0
 46 44  2  0
 49 24  1  0
 49 50  1  0
 51 49  1  0
 53 52  1  0
 54 65  2  0
 55 53  1  0
 55 60  1  0
 56 64  1  0
 56 66  1  0
 57 63  1  0
 57 59  1  0
 58 64  1  0
 59 60  2  0
 59 58  1  0
 61 55  2  0
 62 61  1  0
 62 57  2  0
 63 56  1  0
 64 54  1  0
 66 68  2  0
 67 66  1  0
 69 67  1  0
 70 79  2  0
 70 75  1  0
 71 67  1  0
 71 75  1  0
 72 71  1  0
 73 74  1  0
 73 72  1  0
 74 70  1  0
 75 76  2  0
 76 77  1  0
 78 77  2  0
 79 78  1  0
 80 54  1  0
 80 81  1  0
 80 90  1  0
 81 84  1  0
 82 86  1  0
 82 81  1  0
 83 82  2  0
 86 85  1  0
 88 86  1  0
 88 89  1  0
 88 87  1  0
 90 93  1  1
 90 91  1  0
 92 90  1  0
M  ISO  4  10 100  23 100  52 101  53 101
M  END
>  <TORSDO>  (24) 
F 18

>  <SCORE>  (24) 
-14.631

>  <name>  (24) 
23

>  <ligand_id>  (24) 
23

>  <original_smiles>  (24) 
[H]c1c([H])c([H])c2c(c1[H])C([H])([H])C([H])([H])C([H])([H])C2([H])N([H])C(=O)C1([H])N(C(=O)C([H])(N([H])C(=O)C([H])(N([H])C([H])([H])[H])C([H])([H])[H])C(C([H])([H])[H])(C([H])([H])[H])C([H])([H])[H])C([H])([H])c2c([H])c(OC([H])([H])c3nc(C([H])([H])[H])c(C([H])([H])C4(C([H])([H])[H])C([H])([H])N(C(=O)N5C([H])([H])C([H])([H])C([H])([H])C([H])(n6nc(-c7c([H])c([H])c(Oc8c([H])c([H])c(F)c([H])c8F)c([H])c7[H])c(C(=O)N([H])[H])c6N([H])[H])C5([H])[H])C([H])([H])C4([H])[H])c(C([H])([H])[H])c3[H])c([H])c([H])c2C1([H])[H]

>  <smiles>  (24) 
[H]c1c([H])c([H])c2c(c1[H])C([H])([H])C([H])([H])C([H])([H])C2([H])N([H])C(=O)C1([H])N(C(=O)C([H])(N([H])C(=O)C([H])(N([H])C([H])([H])[H])C([H])([H])[H])C(C([H])([H])[H])(C([H])([H])[H])C([H])([H])[H])C([H])([H])c2c([H])c(OC([H])([H])c3nc(C([H])([H])[H])c(C([H])([H])C4(C([H])([H])[H])C([H])([H])N(C(=O)N5C([H])([H])C([H])([H])C([H])([H])C([H])(n6nc(-c7c([H])c([H])c(Oc8c([H])c([H])c(F)c([H])c8F)c([H])c7[H])c(C(=O)N([H])[H])c6N([H])[H])C5([H])[H])C([H])([H])C4([H])[H])c(C([H])([H])[H])c3[H])c([H])c([H])c2C1([H])[H]

$$$$
24:0:0
     RDKit          3D

 93102  0  0  1  0  0  0  0  0999 V2000
  -29.0250  -20.0180   19.5820 C   0  0  0  0  0  3  0  0  0  0  0  0
  -30.1800  -20.1550   21.6300 C   0  0  0  0  0  3  0  0  0  0  0  0
  -29.2990  -18.5910   19.5060 C   0  0  0  0  0  0  0  0  0  0  0  0
  -29.4130  -20.8840   20.6570 C   0  0  0  0  0  0  0  0  0  0  0  0
  -30.0180  -17.8600   20.5180 C   0  0  0  0  0  0  0  0  0  0  0  0
  -30.4630  -18.7290   21.5740 C   0  0  0  0  0  0  0  0  0  0  0  0
  -31.2940  -18.0250   22.9160 Cl  0  0  0  0  0  0  0  0  0  0  0  0
  -30.8540  -15.2480   20.3660 C   0  0  0  0  0  0  0  0  0  0  0  0
  -30.7670  -12.9370   19.3400 C   0  0  0  0  0  2  0  0  0  0  0  0
  -29.8340  -12.9580   18.1060 C   0  0  0  0  0  2  0  0  0  0  0  0
  -28.3640  -12.7480   18.5190 C   0  0  0  0  0  2  0  0  0  0  0  0
  -27.9590  -13.6230   19.7330 C   0  0  0  0  0  3  0  0  0  0  0  0
  -29.0080  -13.5550   20.8640 C   0  0  0  0  0  2  0  0  0  0  0  0
  -30.2930  -13.9790   20.2890 N   0  0  0  0  0  0  0  0  0  0  0  0
  -32.0420  -15.3830   20.0560 O   0  0  0  0  0  0  0  0  0  0  0  0
  -29.9930  -16.3360   20.6160 N   0  0  0  0  0  0  0  0  0  0  0  0
  -29.0710  -15.9930   20.8310 H   0  0  0  0  0  0  0  0  0  0  0  0
  -25.5600  -14.1840   20.4390 C   0  0  0  0  0  0  0  0  0  0  0  0
  -24.4980  -13.3990   20.7940 C   0  0  0  0  0  0  0  0  0  0  0  0
  -24.9740  -12.0520   20.7620 C   0  0  0  0  0  0  0  0  0  0  0  0
  -26.6150  -13.3150   20.2100 N   0  0  0  0  0  0  0  0  0  0  0  0
  -26.2690  -12.0280   20.4690 N   0  0  0  0  0  0  0  0  0  0  0  0
  -24.2560  -10.7830   20.9370 C   0  0  0  0  0  0  0  0  0  0  0  0
  -24.6470   -9.8410   21.9140 C   0  0  0  0  0  3  0  0  0  0  0  0
  -23.9270   -8.6360   22.0760 C   0  0  0  0  0  3  0  0  0  0  0  0
  -22.8030   -8.3660   21.2600 C   0  0  0  0  0  0  0  0  0  0  0  0
  -22.4320   -9.2970   20.2740 C   0  0  0  0  0  3  0  0  0  0  0  0
  -23.1520  -10.4930   20.1110 C   0  0  0  0  0  3  0  0  0  0  0  0
  -22.0600   -7.2120   21.3290 O   0  0  0  0  0  0  0  0  0  0  0  0
  -21.8840   -6.5390   22.5110 C   0  0  0  0  0  0  0  0  0  0  0  0
  -21.2360   -7.1310   23.6160 C   0  0  0  0  0  3  0  0  0  0  0  0
  -21.0140   -6.3790   24.7870 C   0  0  0  0  0  3  0  0  0  0  0  0
  -21.4310   -5.0370   24.8530 C   0  0  0  0  0  0  0  0  0  0  0  0
  -22.0730   -4.4440   23.7510 C   0  0  0  0  0  3  0  0  0  0  0  0
  -22.2960   -5.1920   22.5830 C   0  0  0  0  0  0  0  0  0  0  0  0
  -22.8950   -4.6100   21.5170 F   0  0  0  0  0  0  0  0  0  0  0  0
  -21.2120   -4.3120   25.9760 F   0  0  0  0  0  0  0  0  0  0  0  0
  -23.0930  -13.8620   21.0480 C   0  0  0  0  0  0  0  0  0  0  0  0
  -22.3670  -13.1700   21.9180 N   0  0  0  0  0  0  0  0  0  0  0  0
  -22.6480  -14.8760   20.5110 O   0  0  0  0  0  0  0  0  0  0  0  0
  -22.7410  -12.3510   22.3750 H   0  0  0  0  0  0  0  0  0  0  0  0
  -21.4250  -13.4640   22.1330 H   0  0  0  0  0  0  0  0  0  0  0  0
  -25.7120  -15.5580   20.2690 N   0  0  0  0  0  0  0  0  0  0  0  0
  -24.9310  -16.1970   20.3720 H   0  0  0  0  0  0  0  0  0  0  0  0
  -26.5460  -16.0090   19.9210 H   0  0  0  0  0  0  0  0  0  0  0  0
  -29.5990  -17.3150   17.2290 C   0  0  0  0  0  2  0  0  0  0  0  0
  -28.6560  -18.4650   16.9660 C   0  0  0  0  0  2  0  0  0  0  0  0
  -28.7200  -17.8400   18.3430 C   0  0  0  0  0  3  0  0  0  0  0  0
  -28.7390  -22.3680   20.9200 C   0  0  0  0  0  3  0  0  0  0  0  0
  -29.1970  -23.9220   20.4980 C   0  0  0  0  0  3  0  0  0  0  0  0
  -28.1930  -25.0700   20.7930 N   0  0  0  0  0  0  0  0  0  0  0  0
  -28.0140  -25.1080   21.7930 H   0  0  0  0  0  0  0  0  0  0  0  0
  -28.5860  -26.5420   20.3840 O   0  0  0  0  0  0  0  0  0  0  0  0
  -24.7240  -32.0580   23.3860 C   0  0  0  0  0  0  0  0  0  0  0  0
  -27.4960  -27.4760   20.3620 C   0  0  0  0  0  0  0  0  0  0  0  0
  -23.5940  -30.6480   21.7070 C   0  0  0  0  0  3  0  0  0  0  0  0
  -25.1150  -29.1300   20.2980 C   0  0  0  0  0  0  0  0  0  0  0  0
  -26.1390  -30.9900   21.5970 C   0  0  0  0  0  2  0  0  0  0  0  0
  -26.2640  -29.6080   20.9400 C   0  0  0  0  0  0  0  0  0  0  0  0
  -27.4550  -28.7930   20.9640 C   0  0  0  0  0  3  0  0  0  0  0  0
  -26.3220  -27.0940   19.6760 C   0  0  0  0  0  3  0  0  0  0  0  0
  -25.1530  -27.8830   19.6540 C   0  0  0  0  0  3  0  0  0  0  0  0
  -23.8610  -29.9900   20.3270 C   0  0  0  0  0  2  0  0  0  0  0  0
  -24.8370  -31.2540   22.2850 N   0  0  0  0  0  0  0  0  0  0  0  0
  -23.6210  -32.3080   23.8950 O   0  0  0  0  0  0  0  0  0  0  0  0
  -22.9260  -29.6120   22.6460 C   0  0  0  0  0  0  0  0  0  0  0  0
  -21.6240  -29.3500   22.4400 N   0  0  0  0  0  0  0  0  0  0  0  0
  -23.5840  -29.0470   23.5230 O   0  0  0  0  0  0  0  0  0  0  0  0
  -21.1480  -29.8610   21.7090 H   0  0  0  0  0  0  0  0  0  0  0  0
  -18.3070  -27.9270   22.7430 C   0  0  0  0  0  0  0  0  0  0  0  0
  -20.8170  -28.3740   23.1760 C   0  0  0  0  0  3  0  0  0  0  0  0
  -21.0560  -26.9410   22.6470 C   0  0  0  0  0  2  0  0  0  0  0  0
  -20.0520  -26.5210   21.5680 C   0  0  0  0  0  2  0  0  0  0  0  0
  -18.6220  -26.5800   22.1140 C   0  0  0  0  0  2  0  0  0  0  0  0
  -19.3380  -28.7750   23.2270 C   0  0  0  0  0  0  0  0  0  0  0  0
  -18.9910  -30.0300   23.7750 C   0  0  0  0  0  3  0  0  0  0  0  0
  -17.6460  -30.4400   23.8420 C   0  0  0  0  0  3  0  0  0  0  0  0
  -16.6280  -29.5900   23.3730 C   0  0  0  0  0  3  0  0  0  0  0  0
  -16.9600  -28.3360   22.8290 C   0  0  0  0  0  3  0  0  0  0  0  0
  -25.9740  -32.7200   24.0440 C   0  0  0  0  0  3  0  0  0  0  0  0
  -26.4550  -31.9740   25.3490 C   0  0  1  0  0  0  0  0  0  0  0  0
  -25.3140  -31.6680   26.3470 C   0  0  0  0  0  1  0  0  0  0  0  0
  -27.1410  -30.6350   24.9960 C   0  0  0  0  0  1  0  0  0  0  0  0
  -27.5140  -32.8320   26.0810 C   0  0  0  0  0  1  0  0  0  0  0  0
  -25.6310  -34.1180   24.3480 N   0  0  0  0  0  0  0  0  0  0  0  0
  -25.9840  -35.1710   23.6000 C   0  0  0  0  0  0  0  0  0  0  0  0
  -26.6990  -35.0710   22.5990 O   0  0  0  0  0  0  0  0  0  0  0  0
  -25.0000  -34.2690   25.1220 H   0  0  0  0  0  0  0  0  0  0  0  0
  -24.2690  -36.9570   23.1490 C   0  0  0  0  0  1  0  0  0  0  0  0
  -25.4640  -36.5580   24.0290 C   0  0  0  0  0  3  0  0  0  0  0  0
  -27.5360  -37.4640   24.9880 C   0  0  0  0  0  1  0  0  0  0  0  0
  -26.4960  -37.6170   23.9740 N   0  0  0  0  0  0  0  0  0  0  0  0
  -26.0740  -38.5360   24.0880 H   0  0  0  0  0  0  0  0  0  0  0  0
  1  4  1  0
  3  1  2  0
  3  5  1  0
  4 49  1  0
  4  2  2  0
  5 16  1  0
  5  6  2  0
  6  2  1  0
  6  7  1  0
  8 16  1  0
  9 14  1  0
 10 11  1  0
 10  9  1  0
 12 11  1  0
 12 21  1  0
 12 13  1  0
 14  8  1  0
 14 13  1  0
 15  8  2  0
 16 17  1  0
 18 19  2  0
 19 38  1  0
 20 19  1  0
 20 23  1  0
 21 18  1  0
 21 22  1  0
 22 20  2  0
 23 24  1  0
 24 25  2  0
 26 29  1  0
 26 25  1  0
 27 26  2  0
 28 27  1  0
 28 23  2  0
 29 30  1  0
 30 35  2  0
 30 31  1  0
 31 32  2  0
 32 33  1  0
 33 37  1  0
 34 33  2  0
 35 34  1  0
 36 35  1  0
 38 39  1  0
 39 42  1  0
 39 41  1  0
 40 38  2  0
 43 44  1  0
 43 18  1  0
 45 43  1  0
 46 48  1  0
 47 46  1  0
 47 48  1  0
 48  3  1  0
 50 51  1  0
 50 49  2  0
 51 52  1  0
 53 51  1  0
 54 65  2  0
 55 53  1  0
 55 60  1  0
 56 64  1  0
 56 66  1  0
 57 63  1  0
 57 59  1  0
 58 64  1  0
 59 60  2  0
 59 58  1  0
 61 55  2  0
 62 61  1  0
 62 57  2  0
 63 56  1  0
 64 54  1  0
 66 68  2  0
 67 66  1  0
 69 67  1  0
 70 79  2  0
 70 75  1  0
 71 67  1  0
 71 75  1  0
 72 71  1  0
 73 74  1  0
 73 72  1  0
 74 70  1  0
 75 76  2  0
 76 77  1  0
 78 77  2  0
 79 78  1  0
 80 54  1  0
 80 85  1  0
 80 81  1  0
 81 84  1  1
 81 82  1  0
 83 81  1  0
 85 88  1  0
 86 90  1  0
 86 85  1  0
 87 86  2  0
 90 89  1  0
 92 90  1  0
 92 93  1  0
 92 91  1  0
M  ISO  4   8 100  16 100  51 101  53 101
M  END
>  <TORSDO>  (25) 
F 20

>  <SCORE>  (25) 
-12.413

>  <name>  (25) 
24

>  <ligand_id>  (25) 
24

>  <original_smiles>  (25) 
[H]c1c([H])c([H])c2c(c1[H])C([H])([H])C([H])([H])C([H])([H])C2([H])N([H])C(=O)C1([H])N(C(=O)C([H])(N([H])C(=O)C([H])(N([H])C([H])([H])[H])C([H])([H])[H])C(C([H])([H])[H])(C([H])([H])[H])C([H])([H])[H])C([H])([H])c2c([H])c(ON([H])C([H])([H])C([H])([H])c3c([H])c(Cl)c(N([H])C(=O)N4C([H])([H])C([H])([H])C([H])([H])C([H])(n5nc(-c6c([H])c([H])c(Oc7c([H])c([H])c(F)c([H])c7F)c([H])c6[H])c(C(=O)N([H])[H])c5N([H])[H])C4([H])[H])c(C4([H])C([H])([H])C4([H])[H])c3[H])c([H])c([H])c2C1([H])[H]

>  <smiles>  (25) 
[H]c1c([H])c([H])c2c(c1[H])C([H])([H])C([H])([H])C([H])([H])C2([H])N([H])C(=O)C1([H])N(C(=O)C([H])(N([H])C(=O)C([H])(N([H])C([H])([H])[H])C([H])([H])[H])C(C([H])([H])[H])(C([H])([H])[H])C([H])([H])[H])C([H])([H])c2c([H])c(ON([H])C([H])([H])C([H])([H])c3c([H])c(Cl)c(N([H])C(=O)N4C([H])([H])C([H])([H])C([H])([H])C([H])(n5nc(-c6c([H])c([H])c(Oc7c([H])c([H])c(F)c([H])c7F)c([H])c6[H])c(C(=O)N([H])[H])c5N([H])[H])C4([H])[H])c(C4([H])C([H])([H])C4([H])[H])c3[H])c([H])c([H])c2C1([H])[H]

$$$$
25:0:0
     RDKit          3D

 93102  0  0  1  0  0  0  0  0999 V2000
  -28.9970  -21.4300   21.4940 C   0  0  0  0  0  3  0  0  0  0  0  0
  -29.0600  -23.1780   19.3210 C   0  0  0  0  0  3  0  0  0  0  0  0
  -29.3990  -20.8540   20.2610 C   0  0  0  0  0  0  0  0  0  0  0  0
  -28.6360  -22.8100   21.6440 C   0  0  0  0  0  0  0  0  0  0  0  0
  -28.6700  -23.7540   20.5620 C   0  0  0  0  0  0  0  0  0  0  0  0
  -29.4070  -21.7770   19.1640 C   0  0  0  0  0  0  0  0  0  0  0  0
  -28.1780  -23.2550   23.0250 C   0  0  0  0  0  1  0  0  0  0  0  0
  -30.8530  -14.9130   19.9340 C   0  0  0  0  0  0  0  0  0  0  0  0
  -30.5590  -12.6450   18.9230 C   0  0  0  0  0  2  0  0  0  0  0  0
  -29.5530  -12.7030   17.7560 C   0  0  0  0  0  2  0  0  0  0  0  0
  -28.1130  -12.5280   18.2750 C   0  0  0  0  0  2  0  0  0  0  0  0
  -27.8090  -13.4190   19.5100 C   0  0  0  0  0  3  0  0  0  0  0  0
  -28.9340  -13.3620   20.5640 C   0  0  0  0  0  2  0  0  0  0  0  0
  -30.1840  -13.7090   19.8840 N   0  0  0  0  0  0  0  0  0  0  0  0
  -32.0230  -14.9640   19.5410 O   0  0  0  0  0  0  0  0  0  0  0  0
  -29.9960  -18.4500   21.4260 C   0  0  0  0  0  2  0  0  0  0  0  0
  -29.1410  -18.3540   19.1810 C   0  0  0  0  0  2  0  0  0  0  0  0
  -30.6750  -17.0240   21.2390 C   0  0  0  0  0  2  0  0  0  0  0  0
  -29.8410  -16.9460   18.9740 C   0  0  0  0  0  2  0  0  0  0  0  0
  -29.8960  -19.3240   20.1360 C   0  0  0  0  0  3  0  0  0  0  0  0
  -30.1590  -16.1060   20.1730 N   0  0  0  0  0  0  0  0  0  0  0  0
  -25.4840  -13.9930   20.4240 C   0  0  0  0  0  0  0  0  0  0  0  0
  -24.4400  -13.2120   20.8370 C   0  0  0  0  0  0  0  0  0  0  0  0
  -24.8900  -11.8590   20.7290 C   0  0  0  0  0  0  0  0  0  0  0  0
  -26.5020  -13.1180   20.0850 N   0  0  0  0  0  0  0  0  0  0  0  0
  -26.1560  -11.8260   20.3310 N   0  0  0  0  0  0  0  0  0  0  0  0
  -24.1670  -10.5940   20.9260 C   0  0  0  0  0  0  0  0  0  0  0  0
  -24.6110   -9.6250   21.8520 C   0  0  0  0  0  3  0  0  0  0  0  0
  -23.8880   -8.4270   22.0370 C   0  0  0  0  0  3  0  0  0  0  0  0
  -22.7060   -8.1900   21.2960 C   0  0  0  0  0  0  0  0  0  0  0  0
  -22.2810   -9.1460   20.3590 C   0  0  0  0  0  3  0  0  0  0  0  0
  -23.0040  -10.3370   20.1720 C   0  0  0  0  0  3  0  0  0  0  0  0
  -21.9550   -7.0420   21.3900 O   0  0  0  0  0  0  0  0  0  0  0  0
  -21.8720   -6.3300   22.5600 C   0  0  0  0  0  0  0  0  0  0  0  0
  -21.3610   -6.9010   23.7450 C   0  0  0  0  0  3  0  0  0  0  0  0
  -21.2300   -6.1130   24.9070 C   0  0  0  0  0  3  0  0  0  0  0  0
  -21.6000   -4.7560   24.8820 C   0  0  0  0  0  0  0  0  0  0  0  0
  -22.1030   -4.1830   23.7010 C   0  0  0  0  0  3  0  0  0  0  0  0
  -22.2360   -4.9680   22.5420 C   0  0  0  0  0  0  0  0  0  0  0  0
  -22.7020   -4.4080   21.4000 F   0  0  0  0  0  0  0  0  0  0  0  0
  -21.4660   -3.9950   25.9930 F   0  0  0  0  0  0  0  0  0  0  0  0
  -23.0680  -13.6860   21.2180 C   0  0  0  0  0  0  0  0  0  0  0  0
  -22.3920  -12.9640   22.1040 N   0  0  0  0  0  0  0  0  0  0  0  0
  -22.6060  -14.7320   20.7640 O   0  0  0  0  0  0  0  0  0  0  0  0
  -22.7790  -12.1160   22.4920 H   0  0  0  0  0  0  0  0  0  0  0  0
  -21.4750  -13.2620   22.4000 H   0  0  0  0  0  0  0  0  0  0  0  0
  -25.6470  -15.3680   20.2860 N   0  0  0  0  0  0  0  0  0  0  0  0
  -24.9000  -16.0260   20.4770 H   0  0  0  0  0  0  0  0  0  0  0  0
  -26.4940  -15.8130   19.9540 H   0  0  0  0  0  0  0  0  0  0  0  0
  -29.5000  -22.0030   16.7730 C   0  0  0  0  0  1  0  0  0  0  0  0
  -29.7690  -21.2470   17.9460 O   0  0  0  0  0  0  0  0  0  0  0  0
  -28.1320  -25.2540   20.7840 C   0  0  0  0  0  2  0  0  0  0  0  0
  -28.4300  -26.4730   19.9570 O   0  0  0  0  0  0  0  0  0  0  0  0
  -24.6990  -31.8500   23.1210 C   0  0  0  0  0  0  0  0  0  0  0  0
  -27.3730  -27.4100   19.9200 C   0  0  0  0  0  0  0  0  0  0  0  0
  -23.5210  -30.4870   21.4330 C   0  0  0  0  0  3  0  0  0  0  0  0
  -25.0000  -29.0190   19.9450 C   0  0  0  0  0  0  0  0  0  0  0  0
  -26.0580  -30.8520   21.2610 C   0  0  0  0  0  2  0  0  0  0  0  0
  -26.1630  -29.4950   20.5650 C   0  0  0  0  0  0  0  0  0  0  0  0
  -27.3570  -28.7040   20.5420 C   0  0  0  0  0  3  0  0  0  0  0  0
  -26.1970  -27.0120   19.2540 C   0  0  0  0  0  3  0  0  0  0  0  0
  -25.0220  -27.7870   19.2720 C   0  0  0  0  0  3  0  0  0  0  0  0
  -23.7470  -29.8700   20.0280 C   0  0  0  0  0  2  0  0  0  0  0  0
  -24.7790  -31.0790   21.9960 N   0  0  0  0  0  0  0  0  0  0  0  0
  -23.6110  -32.0880   23.6660 O   0  0  0  0  0  0  0  0  0  0  0  0
  -22.8770  -29.4260   22.3580 C   0  0  0  0  0  0  0  0  0  0  0  0
  -21.5500  -29.2410   22.2390 N   0  0  0  0  0  0  0  0  0  0  0  0
  -23.5680  -28.7750   23.1450 O   0  0  0  0  0  0  0  0  0  0  0  0
  -21.0490  -29.8180   21.5780 H   0  0  0  0  0  0  0  0  0  0  0  0
  -18.1860  -28.0050   22.7480 C   0  0  0  0  0  0  0  0  0  0  0  0
  -20.7480  -28.2640   22.9810 C   0  0  0  0  0  3  0  0  0  0  0  0
  -20.8450  -26.8610   22.3360 C   0  0  0  0  0  2  0  0  0  0  0  0
  -19.7240  -26.5820   21.3310 C   0  0  0  0  0  2  0  0  0  0  0  0
  -18.3550  -26.6900   22.0070 C   0  0  0  0  0  2  0  0  0  0  0  0
  -19.3100  -28.7510   23.1920 C   0  0  0  0  0  0  0  0  0  0  0  0
  -19.0970  -29.9830   23.8490 C   0  0  0  0  0  3  0  0  0  0  0  0
  -17.7930  -30.4680   24.0660 C   0  0  0  0  0  3  0  0  0  0  0  0
  -16.6850  -29.7170   23.6380 C   0  0  0  0  0  3  0  0  0  0  0  0
  -16.8820  -28.4880   22.9850 C   0  0  0  0  0  3  0  0  0  0  0  0
  -25.9690  -32.4860   23.7630 C   0  0  0  0  0  3  0  0  0  0  0  0
  -25.6440  -33.8780   24.1090 N   0  0  0  0  0  0  0  0  0  0  0  0
  -25.9650  -34.9440   23.3650 C   0  0  0  0  0  0  0  0  0  0  0  0
  -26.6360  -34.8610   22.3340 O   0  0  0  0  0  0  0  0  0  0  0  0
  -25.0480  -34.0150   24.9130 H   0  0  0  0  0  0  0  0  0  0  0  0
  -24.2220  -36.7270   23.0310 C   0  0  0  0  0  1  0  0  0  0  0  0
  -25.4620  -36.3220   23.8410 C   0  0  0  0  0  3  0  0  0  0  0  0
  -27.5800  -37.2210   24.7000 C   0  0  0  0  0  1  0  0  0  0  0  0
  -26.4860  -37.3870   23.7470 N   0  0  0  0  0  0  0  0  0  0  0  0
  -26.0690  -38.3010   23.9000 H   0  0  0  0  0  0  0  0  0  0  0  0
  -26.4770  -31.7040   25.0360 C   0  0  1  0  0  0  0  0  0  0  0  0
  -25.3740  -31.4390   26.0890 C   0  0  0  0  0  1  0  0  0  0  0  0
  -27.0810  -30.3380   24.6350 C   0  0  0  0  0  1  0  0  0  0  0  0
  -27.6120  -32.5020   25.7210 C   0  0  0  0  0  1  0  0  0  0  0  0
  1  4  1  0
  2  5  1  0
  3  1  2  0
  4  7  1  0
  5 52  1  0
  5  4  2  0
  6  2  2  0
  6  3  1  0
  8 21  1  0
  9 14  1  0
 10 11  1  0
 10  9  1  0
 12 11  1  0
 12 25  1  0
 12 13  1  0
 14  8  1  0
 14 13  1  0
 15  8  2  0
 17 20  1  0
 18 16  1  0
 19 17  1  0
 19 21  1  0
 20  3  1  0
 20 16  1  0
 21 18  1  0
 22 23  2  0
 23 42  1  0
 24 23  1  0
 24 27  1  0
 25 26  1  0
 25 22  1  0
 26 24  2  0
 27 28  1  0
 28 29  2  0
 30 33  1  0
 30 29  1  0
 31 30  2  0
 32 31  1  0
 32 27  2  0
 33 34  1  0
 34 35  1  0
 35 36  2  0
 37 36  1  0
 37 41  1  0
 38 37  2  0
 39 34  2  0
 39 38  1  0
 40 39  1  0
 42 43  1  0
 43 46  1  0
 43 45  1  0
 44 42  2  0
 47 22  1  0
 47 48  1  0
 49 47  1  0
 50 51  1  0
 51  6  1  0
 53 52  1  0
 54 65  2  0
 55 53  1  0
 55 60  1  0
 56 64  1  0
 56 66  1  0
 57 63  1  0
 57 59  1  0
 58 64  1  0
 59 58  1  0
 60 59  2  0
 61 62  1  0
 61 55  2  0
 62 57  2  0
 63 56  1  0
 64 54  1  0
 66 68  2  0
 67 66  1  0
 69 67  1  0
 70 79  2  0
 70 75  1  0
 71 67  1  0
 71 75  1  0
 72 71  1  0
 73 74  1  0
 73 72  1  0
 74 70  1  0
 75 76  2  0
 76 77  1  0
 78 77  2  0
 79 78  1  0
 80 54  1  0
 80 81  1  0
 80 90  1  0
 81 84  1  0
 82 86  1  0
 82 81  1  0
 83 82  2  0
 86 85  1  0
 88 86  1  0
 88 89  1  0
 88 87  1  0
 90 93  1  1
 90 91  1  0
 92 90  1  0
M  ISO  4   8 100  21 100  52 101  53 101
M  END
>  <TORSDO>  (26) 
F 18

>  <SCORE>  (26) 
-13.360

>  <name>  (26) 
25

>  <ligand_id>  (26) 
25

>  <original_smiles>  (26) 
[H]c1c([H])c([H])c2c(c1[H])C([H])([H])C([H])([H])C([H])([H])C2([H])N([H])C(=O)C1([H])N(C(=O)C([H])(N([H])C(=O)C([H])(N([H])C([H])([H])[H])C([H])([H])[H])C(C([H])([H])[H])(C([H])([H])[H])C([H])([H])[H])C([H])([H])c2c([H])c(OC([H])([H])c3c([H])c(OC([H])([H])[H])c(C4([H])C([H])([H])C([H])([H])N(C(=O)N5C([H])([H])C([H])([H])C([H])([H])C([H])(n6nc(-c7c([H])c([H])c(Oc8c([H])c([H])c(F)c([H])c8F)c([H])c7[H])c(C(=O)N([H])[H])c6N([H])[H])C5([H])[H])C([H])([H])C4([H])[H])c([H])c3C([H])([H])[H])c([H])c([H])c2C1([H])[H]

>  <smiles>  (26) 
[H]c1c([H])c([H])c2c(c1[H])C([H])([H])C([H])([H])C([H])([H])C2([H])N([H])C(=O)C1([H])N(C(=O)C([H])(N([H])C(=O)C([H])(N([H])C([H])([H])[H])C([H])([H])[H])C(C([H])([H])[H])(C([H])([H])[H])C([H])([H])[H])C([H])([H])c2c([H])c(OC([H])([H])c3c([H])c(OC([H])([H])[H])c(C4([H])C([H])([H])C([H])([H])N(C(=O)N5C([H])([H])C([H])([H])C([H])([H])C([H])(n6nc(-c7c([H])c([H])c(Oc8c([H])c([H])c(F)c([H])c8F)c([H])c7[H])c(C(=O)N([H])[H])c6N([H])[H])C5([H])[H])C([H])([H])C4([H])[H])c([H])c3C([H])([H])[H])c([H])c([H])c2C1([H])[H]

$$$$
26:0:0
     RDKit          3D

 89 98  0  0  1  0  0  0  0  0999 V2000
  -29.5460  -21.4190   21.0890 C   0  0  0  0  0  3  0  0  0  0  0  0
  -29.8530  -19.9120   21.0450 C   0  0  0  0  0  3  0  0  0  0  0  0
  -28.5330  -19.7040   19.2450 C   0  0  0  0  0  3  0  0  0  0  0  0
  -28.6960  -22.2450   20.1860 C   0  0  0  0  0  0  0  0  0  0  0  0
  -28.2500  -21.2070   19.2780 C   0  0  0  0  0  0  0  0  0  0  0  0
  -29.3840  -18.8300   20.1200 C   0  0  0  0  0  0  0  0  0  0  0  0
  -27.4610  -23.5150   18.5320 C   0  0  0  0  0  2  0  0  0  0  0  0
  -27.3240  -21.9430   18.3110 C   0  0  0  0  0  3  0  0  0  0  0  0
  -27.9220  -23.8890   19.9820 C   0  0  0  0  0  3  0  0  0  0  0  0
  -25.8680  -21.4880   18.4860 C   0  0  0  0  0  1  0  0  0  0  0  0
  -30.3240  -15.7890   20.0590 C   0  0  0  0  0  0  0  0  0  0  0  0
  -30.4340  -13.2600   19.1950 C   0  0  0  0  0  2  0  0  0  0  0  0
  -29.4980  -12.8540   18.0210 C   0  0  0  0  0  2  0  0  0  0  0  0
  -28.1020  -12.4740   18.5350 C   0  0  0  0  0  2  0  0  0  0  0  0
  -27.6160  -13.4660   19.6140 C   0  0  0  0  0  3  0  0  0  0  0  0
  -28.6840  -13.7810   20.6860 C   0  0  0  0  0  2  0  0  0  0  0  0
  -29.8220  -14.4170   19.9870 N   0  0  0  0  0  0  0  0  0  0  0  0
  -31.5570  -15.7580   19.8780 O   0  0  0  0  0  0  0  0  0  0  0  0
  -29.4890  -17.1040   20.1020 N   0  0  0  0  0  0  0  0  0  0  0  0
  -28.5440  -16.7560   20.0380 H   0  0  0  0  0  0  0  0  0  0  0  0
  -25.2850  -13.9690   20.4920 C   0  0  0  0  0  0  0  0  0  0  0  0
  -24.2450  -13.1750   20.8810 C   0  0  0  0  0  0  0  0  0  0  0  0
  -24.7220  -11.8290   20.7980 C   0  0  0  0  0  0  0  0  0  0  0  0
  -26.3240  -13.1110   20.1820 N   0  0  0  0  0  0  0  0  0  0  0  0
  -26.0020  -11.8140   20.4340 N   0  0  0  0  0  0  0  0  0  0  0  0
  -24.0080  -10.5580   20.9820 C   0  0  0  0  0  0  0  0  0  0  0  0
  -24.4480   -9.5890   21.9130 C   0  0  0  0  0  3  0  0  0  0  0  0
  -23.7290   -8.3880   22.0900 C   0  0  0  0  0  3  0  0  0  0  0  0
  -22.5560   -8.1440   21.3360 C   0  0  0  0  0  0  0  0  0  0  0  0
  -22.1350   -9.1000   20.3950 C   0  0  0  0  0  3  0  0  0  0  0  0
  -22.8540  -10.2940   20.2170 C   0  0  0  0  0  3  0  0  0  0  0  0
  -21.8100   -6.9930   21.4210 O   0  0  0  0  0  0  0  0  0  0  0  0
  -21.7310   -6.2710   22.5840 C   0  0  0  0  0  0  0  0  0  0  0  0
  -21.2070   -6.8260   23.7710 C   0  0  0  0  0  3  0  0  0  0  0  0
  -21.0780   -6.0290   24.9260 C   0  0  0  0  0  3  0  0  0  0  0  0
  -21.4630   -4.6750   24.8940 C   0  0  0  0  0  0  0  0  0  0  0  0
  -21.9820   -4.1190   23.7120 C   0  0  0  0  0  3  0  0  0  0  0  0
  -22.1120   -4.9150   22.5600 C   0  0  0  0  0  0  0  0  0  0  0  0
  -22.5910   -4.3670   21.4170 F   0  0  0  0  0  0  0  0  0  0  0  0
  -21.3330   -3.9070   26.0000 F   0  0  0  0  0  0  0  0  0  0  0  0
  -22.8570  -13.6350   21.2110 C   0  0  0  0  0  0  0  0  0  0  0  0
  -22.1670  -12.9250   22.0940 N   0  0  0  0  0  0  0  0  0  0  0  0
  -22.3940  -14.6640   20.7200 O   0  0  0  0  0  0  0  0  0  0  0  0
  -22.5570  -12.0940   22.5130 H   0  0  0  0  0  0  0  0  0  0  0  0
  -21.2370  -13.2170   22.3590 H   0  0  0  0  0  0  0  0  0  0  0  0
  -25.4270  -15.3460   20.3400 N   0  0  0  0  0  0  0  0  0  0  0  0
  -24.6460  -15.9800   20.4790 H   0  0  0  0  0  0  0  0  0  0  0  0
  -26.2430  -15.8030   19.9600 H   0  0  0  0  0  0  0  0  0  0  0  0
  -28.1850  -25.6240   20.1730 O   0  0  0  0  0  0  0  0  0  0  0  0
  -24.6790  -31.8620   23.2570 C   0  0  0  0  0  0  0  0  0  0  0  0
  -27.2190  -26.8490   20.1620 C   0  0  0  0  0  0  0  0  0  0  0  0
  -23.4960  -30.4960   21.5950 C   0  0  0  0  0  3  0  0  0  0  0  0
  -24.9470  -28.8890   20.1530 C   0  0  0  0  0  0  0  0  0  0  0  0
  -26.0790  -30.6490   21.4740 C   0  0  0  0  0  2  0  0  0  0  0  0
  -26.1480  -29.2300   20.7880 C   0  0  0  0  0  0  0  0  0  0  0  0
  -27.2700  -28.2420   20.7570 C   0  0  0  0  0  3  0  0  0  0  0  0
  -25.9750  -26.7240   19.4930 C   0  0  0  0  0  3  0  0  0  0  0  0
  -24.9000  -27.6580   19.4840 C   0  0  0  0  0  3  0  0  0  0  0  0
  -23.7400  -29.8370   20.2100 C   0  0  0  0  0  2  0  0  0  0  0  0
  -24.7760  -31.0320   22.1620 N   0  0  0  0  0  0  0  0  0  0  0  0
  -23.5830  -32.1470   23.7710 O   0  0  0  0  0  0  0  0  0  0  0  0
  -22.7830  -29.4930   22.5400 C   0  0  0  0  0  0  0  0  0  0  0  0
  -21.4530  -29.3270   22.4000 N   0  0  0  0  0  0  0  0  0  0  0  0
  -23.4370  -28.8600   23.3720 O   0  0  0  0  0  0  0  0  0  0  0  0
  -20.9750  -29.8860   21.7060 H   0  0  0  0  0  0  0  0  0  0  0  0
  -18.0670  -28.0970   22.8790 C   0  0  0  0  0  0  0  0  0  0  0  0
  -20.6260  -28.3740   23.1500 C   0  0  0  0  0  3  0  0  0  0  0  0
  -20.7340  -26.9510   22.5510 C   0  0  0  0  0  2  0  0  0  0  0  0
  -19.6370  -26.6430   21.5260 C   0  0  0  0  0  2  0  0  0  0  0  0
  -18.2540  -26.7630   22.1720 C   0  0  0  0  0  2  0  0  0  0  0  0
  -19.1800  -28.8590   23.3240 C   0  0  0  0  0  0  0  0  0  0  0  0
  -18.9480  -30.1020   23.9520 C   0  0  0  0  0  3  0  0  0  0  0  0
  -17.6370  -30.5840   24.1320 C   0  0  0  0  0  3  0  0  0  0  0  0
  -16.5400  -29.8180   23.7000 C   0  0  0  0  0  3  0  0  0  0  0  0
  -16.7550  -28.5760   23.0800 C   0  0  0  0  0  3  0  0  0  0  0  0
  -25.9370  -32.5040   23.9150 C   0  0  0  0  0  3  0  0  0  0  0  0
  -25.6160  -33.9040   24.2530 N   0  0  0  0  0  0  0  0  0  0  0  0
  -25.9220  -34.9680   23.4990 C   0  0  0  0  0  0  0  0  0  0  0  0
  -26.5630  -34.8720   22.4500 O   0  0  0  0  0  0  0  0  0  0  0  0
  -25.0420  -34.0470   25.0720 H   0  0  0  0  0  0  0  0  0  0  0  0
  -24.1680  -36.7570   23.2390 C   0  0  0  0  0  1  0  0  0  0  0  0
  -25.4530  -36.3590   23.9820 C   0  0  0  0  0  3  0  0  0  0  0  0
  -27.6020  -37.2890   24.7240 C   0  0  0  0  0  1  0  0  0  0  0  0
  -26.4780  -37.4110   23.8000 N   0  0  0  0  0  0  0  0  0  0  0  0
  -26.0740  -38.3380   23.9050 H   0  0  0  0  0  0  0  0  0  0  0  0
  -26.4140  -31.7360   25.2100 C   0  0  1  0  0  0  0  0  0  0  0  0
  -25.2940  -31.5080   26.2530 C   0  0  0  0  0  1  0  0  0  0  0  0
  -27.0010  -30.3530   24.8490 C   0  0  0  0  0  1  0  0  0  0  0  0
  -27.5530  -32.5260   25.8980 C   0  0  0  0  0  1  0  0  0  0  0  0
  2  1  1  0
  3  5  2  0
  3  6  1  0
  4  1  2  0
  5  4  1  0
  6  2  2  0
  7  9  1  0
  8 10  1  0
  8  7  1  0
  8  5  1  0
  9 49  1  0
  9  4  1  0
 11 19  1  0
 12 17  1  0
 13 14  1  0
 13 12  1  0
 15 14  1  0
 15 24  1  0
 15 16  1  0
 17 11  1  0
 17 16  1  0
 18 11  2  0
 19  6  1  0
 20 19  1  0
 21 22  2  0
 22 41  1  0
 23 22  1  0
 23 26  1  0
 24 25  1  0
 24 21  1  0
 25 23  2  0
 26 27  1  0
 27 28  2  0
 29 32  1  0
 29 28  1  0
 30 29  2  0
 31 30  1  0
 31 26  2  0
 32 33  1  0
 33 34  1  0
 34 35  2  0
 36 35  1  0
 36 40  1  0
 37 36  2  0
 38 33  2  0
 38 37  1  0
 39 38  1  0
 41 42  1  0
 42 45  1  0
 42 44  1  0
 43 41  2  0
 46 47  1  0
 46 21  1  0
 48 46  1  0
 50 61  2  0
 51 49  1  0
 51 56  1  0
 52 60  1  0
 52 62  1  0
 53 59  1  0
 53 55  1  0
 54 60  1  0
 55 54  1  0
 56 55  2  0
 57 51  2  0
 58 57  1  0
 58 53  2  0
 59 52  1  0
 60 50  1  0
 62 64  2  0
 63 62  1  0
 65 63  1  0
 66 75  2  0
 66 71  1  0
 67 63  1  0
 67 71  1  0
 68 67  1  0
 69 70  1  0
 69 68  1  0
 70 66  1  0
 71 72  2  0
 72 73  1  0
 74 73  2  0
 75 74  1  0
 76 50  1  0
 76 77  1  0
 76 86  1  0
 77 80  1  0
 78 82  1  0
 78 77  1  0
 79 78  2  0
 82 81  1  0
 84 85  1  0
 84 82  1  0
 84 83  1  0
 86 89  1  1
 86 87  1  0
 88 86  1  0
M  ISO  4   9 101  11 100  19 100  49 101
M  END
>  <TORSDO>  (27) 
F 16

>  <SCORE>  (27) 
-16.870

>  <name>  (27) 
26

>  <ligand_id>  (27) 
26

>  <original_smiles>  (27) 
[H]c1c([H])c([H])c2c(c1[H])C([H])([H])C([H])([H])C([H])([H])C2([H])N([H])C(=O)C1([H])N(C(=O)C([H])(N([H])C(=O)C([H])(N([H])C([H])([H])[H])C([H])([H])[H])C(C([H])([H])[H])(C([H])([H])[H])C([H])([H])[H])C([H])([H])c2c([H])c(OC3([H])c4c([H])c([H])c(N([H])C(=O)N5C([H])([H])C([H])([H])C([H])([H])C([H])(n6nc(-c7c([H])c([H])c(Oc8c([H])c([H])c(F)c([H])c8F)c([H])c7[H])c(C(=O)N([H])[H])c6N([H])[H])C5([H])[H])c([H])c4C([H])(C([H])([H])[H])C3([H])[H])c([H])c([H])c2C1([H])[H]

>  <smiles>  (27) 
[H]c1c([H])c([H])c2c(c1[H])C([H])([H])C([H])([H])C([H])([H])C2([H])N([H])C(=O)C1([H])N(C(=O)C([H])(N([H])C(=O)C([H])(N([H])C([H])([H])[H])C([H])([H])[H])C(C([H])([H])[H])(C([H])([H])[H])C([H])([H])[H])C([H])([H])c2c([H])c(OC3([H])c4c([H])c([H])c(N([H])C(=O)N5C([H])([H])C([H])([H])C([H])([H])C([H])(n6nc(-c7c([H])c([H])c(Oc8c([H])c([H])c(F)c([H])c8F)c([H])c7[H])c(C(=O)N([H])[H])c6N([H])[H])C5([H])[H])c([H])c4C([H])(C([H])([H])[H])C3([H])[H])c([H])c([H])c2C1([H])[H]

$$$$
27:0:0
     RDKit          3D

 88 96  0  0  1  0  0  0  0  0999 V2000
  -29.2780  -22.1710   21.2740 C   0  0  0  0  0  3  0  0  0  0  0  0
  -29.6910  -20.7480   21.3480 C   0  0  0  0  0  3  0  0  0  0  0  0
  -28.4870  -22.7760   20.2170 C   0  0  0  0  0  0  0  0  0  0  0  0
  -29.3600  -19.6960   20.4000 C   0  0  0  0  0  0  0  0  0  0  0  0
  -28.1990  -21.6480   19.3160 C   0  0  0  0  0  0  0  0  0  0  0  0
  -27.3090  -21.9030   18.1140 C   0  0  0  0  0  1  0  0  0  0  0  0
  -28.6120  -20.2840   19.3880 N   0  0  0  0  0  0  0  0  0  0  0  0
  -27.7320  -24.3500   20.1100 C   0  0  0  0  0  2  0  0  0  0  0  0
  -28.1310  -25.9150   20.3290 O   0  0  0  0  0  0  0  0  0  0  0  0
  -24.6250  -31.9110   23.2530 C   0  0  0  0  0  0  0  0  0  0  0  0
  -27.1440  -27.0280   20.2520 C   0  0  0  0  0  0  0  0  0  0  0  0
  -23.4190  -30.5190   21.6220 C   0  0  0  0  0  3  0  0  0  0  0  0
  -24.8550  -28.9090   20.2020 C   0  0  0  0  0  0  0  0  0  0  0  0
  -25.9870  -30.7190   21.4700 C   0  0  0  0  0  2  0  0  0  0  0  0
  -26.0470  -29.3110   20.8190 C   0  0  0  0  0  0  0  0  0  0  0  0
  -27.1880  -28.3910   20.8210 C   0  0  0  0  0  3  0  0  0  0  0  0
  -25.9220  -26.7780   19.5850 C   0  0  0  0  0  3  0  0  0  0  0  0
  -24.8170  -27.6620   19.5640 C   0  0  0  0  0  3  0  0  0  0  0  0
  -23.6420  -29.8330   20.2480 C   0  0  0  0  0  2  0  0  0  0  0  0
  -24.6990  -31.0760   22.1680 N   0  0  0  0  0  0  0  0  0  0  0  0
  -23.5390  -32.2100   23.7740 O   0  0  0  0  0  0  0  0  0  0  0  0
  -22.7210  -29.5300   22.5920 C   0  0  0  0  0  0  0  0  0  0  0  0
  -21.3910  -29.3680   22.4640 N   0  0  0  0  0  0  0  0  0  0  0  0
  -23.3830  -28.9080   23.4260 O   0  0  0  0  0  0  0  0  0  0  0  0
  -20.9120  -29.9210   21.7660 H   0  0  0  0  0  0  0  0  0  0  0  0
  -18.0020  -28.1740   22.9680 C   0  0  0  0  0  0  0  0  0  0  0  0
  -20.5620  -28.4390   23.2400 C   0  0  0  0  0  3  0  0  0  0  0  0
  -20.6630  -27.0020   22.6790 C   0  0  0  0  0  2  0  0  0  0  0  0
  -19.5640  -26.6710   21.6640 C   0  0  0  0  0  2  0  0  0  0  0  0
  -18.1800  -26.8210   22.3010 C   0  0  0  0  0  2  0  0  0  0  0  0
  -19.1200  -28.9400   23.3940 C   0  0  0  0  0  0  0  0  0  0  0  0
  -18.8970  -30.2050   23.9820 C   0  0  0  0  0  3  0  0  0  0  0  0
  -17.5900  -30.7040   24.1440 C   0  0  0  0  0  3  0  0  0  0  0  0
  -16.4880  -29.9350   23.7310 C   0  0  0  0  0  3  0  0  0  0  0  0
  -16.6940  -28.6720   23.1490 C   0  0  0  0  0  3  0  0  0  0  0  0
  -25.9020  -32.5470   23.8820 C   0  0  0  0  0  3  0  0  0  0  0  0
  -25.5950  -33.9500   24.2110 N   0  0  0  0  0  0  0  0  0  0  0  0
  -25.9090  -35.0050   23.4470 C   0  0  0  0  0  0  0  0  0  0  0  0
  -26.5540  -34.8990   22.4010 O   0  0  0  0  0  0  0  0  0  0  0  0
  -25.0180  -34.1050   25.0250 H   0  0  0  0  0  0  0  0  0  0  0  0
  -24.1660  -36.7980   23.1570 C   0  0  0  0  0  1  0  0  0  0  0  0
  -25.4400  -36.3970   23.9170 C   0  0  0  0  0  3  0  0  0  0  0  0
  -27.6030  -37.2960   24.6590 C   0  0  0  0  0  1  0  0  0  0  0  0
  -26.4650  -37.4520   23.7560 N   0  0  0  0  0  0  0  0  0  0  0  0
  -26.0620  -38.3730   23.9100 H   0  0  0  0  0  0  0  0  0  0  0  0
  -26.4030  -31.7840   25.1700 C   0  0  1  0  0  0  0  0  0  0  0  0
  -25.3010  -31.5650   26.2340 C   0  0  0  0  0  1  0  0  0  0  0  0
  -26.9790  -30.3980   24.8010 C   0  0  0  0  0  1  0  0  0  0  0  0
  -27.5560  -32.5750   25.8300 C   0  0  0  0  0  1  0  0  0  0  0  0
  -30.1120  -18.1290   20.3020 C   0  0  0  0  0  2  0  0  0  0  0  0
  -30.4140  -15.2720   20.2880 C   0  0  0  0  0  0  0  0  0  0  0  0
  -30.3530  -12.8540   19.3770 C   0  0  0  0  0  2  0  0  0  0  0  0
  -29.4170  -12.6760   18.1560 C   0  0  0  0  0  2  0  0  0  0  0  0
  -27.9730  -12.4050   18.6150 C   0  0  0  0  0  2  0  0  0  0  0  0
  -27.5380  -13.3540   19.7590 C   0  0  0  0  0  3  0  0  0  0  0  0
  -28.6010  -13.4840   20.8700 C   0  0  0  0  0  2  0  0  0  0  0  0
  -29.8270  -13.9820   20.2270 N   0  0  0  0  0  0  0  0  0  0  0  0
  -31.6280  -15.2710   20.0400 O   0  0  0  0  0  0  0  0  0  0  0  0
  -29.6820  -16.5420   20.4140 N   0  0  0  0  0  0  0  0  0  0  0  0
  -28.6920  -16.4170   20.5630 H   0  0  0  0  0  0  0  0  0  0  0  0
  -25.1730  -13.8920   20.5480 C   0  0  0  0  0  0  0  0  0  0  0  0
  -24.1210  -13.1040   20.9210 C   0  0  0  0  0  0  0  0  0  0  0  0
  -24.5970  -11.7580   20.8710 C   0  0  0  0  0  0  0  0  0  0  0  0
  -26.2190  -13.0270   20.2820 N   0  0  0  0  0  0  0  0  0  0  0  0
  -25.8850  -11.7360   20.5450 N   0  0  0  0  0  0  0  0  0  0  0  0
  -23.8800  -10.4880   21.0540 C   0  0  0  0  0  0  0  0  0  0  0  0
  -24.3190   -9.5170   21.9810 C   0  0  0  0  0  3  0  0  0  0  0  0
  -23.5990   -8.3150   22.1540 C   0  0  0  0  0  3  0  0  0  0  0  0
  -22.4250   -8.0760   21.4000 C   0  0  0  0  0  0  0  0  0  0  0  0
  -22.0050   -9.0360   20.4620 C   0  0  0  0  0  3  0  0  0  0  0  0
  -22.7270  -10.2280   20.2870 C   0  0  0  0  0  3  0  0  0  0  0  0
  -21.6750   -6.9280   21.4830 O   0  0  0  0  0  0  0  0  0  0  0  0
  -21.6220   -6.1850   22.6350 C   0  0  0  0  0  0  0  0  0  0  0  0
  -21.1670   -6.7320   23.8550 C   0  0  0  0  0  3  0  0  0  0  0  0
  -21.0630   -5.9150   24.9980 C   0  0  0  0  0  3  0  0  0  0  0  0
  -21.4030   -4.5520   24.9230 C   0  0  0  0  0  0  0  0  0  0  0  0
  -21.8510   -4.0030   23.7080 C   0  0  0  0  0  3  0  0  0  0  0  0
  -21.9570   -4.8180   22.5670 C   0  0  0  0  0  0  0  0  0  0  0  0
  -22.3690   -4.2800   21.3940 F   0  0  0  0  0  0  0  0  0  0  0  0
  -21.2960   -3.7640   26.0180 F   0  0  0  0  0  0  0  0  0  0  0  0
  -22.7240  -13.5690   21.2080 C   0  0  0  0  0  0  0  0  0  0  0  0
  -22.0080  -12.8640   22.0770 N   0  0  0  0  0  0  0  0  0  0  0  0
  -22.2740  -14.5940   20.6950 O   0  0  0  0  0  0  0  0  0  0  0  0
  -22.3840  -12.0340   22.5100 H   0  0  0  0  0  0  0  0  0  0  0  0
  -21.0720  -13.1600   22.3140 H   0  0  0  0  0  0  0  0  0  0  0  0
  -25.3220  -15.2660   20.3810 N   0  0  0  0  0  0  0  0  0  0  0  0
  -24.5470  -15.9100   20.5040 H   0  0  0  0  0  0  0  0  0  0  0  0
  -26.1530  -15.7130   20.0180 H   0  0  0  0  0  0  0  0  0  0  0  0
  1  2  1  0
  3  1  2  0
  4  2  2  0
  5  7  2  0
  5  3  1  0
  6  5  1  0
  7  4  1  0
  8  3  1  0
  8  9  1  0
 10 21  2  0
 11  9  1  0
 11 16  1  0
 12 20  1  0
 12 22  1  0
 13 19  1  0
 13 15  1  0
 14 20  1  0
 15 16  2  0
 15 14  1  0
 17 11  2  0
 18 17  1  0
 18 13  2  0
 19 12  1  0
 20 10  1  0
 22 24  2  0
 23 22  1  0
 25 23  1  0
 26 35  2  0
 26 31  1  0
 27 23  1  0
 27 31  1  0
 28 27  1  0
 29 30  1  0
 29 28  1  0
 30 26  1  0
 31 32  2  0
 32 33  1  0
 34 33  2  0
 35 34  1  0
 36 10  1  0
 36 37  1  0
 36 46  1  0
 37 40  1  0
 38 42  1  0
 38 37  1  0
 39 38  2  0
 42 41  1  0
 44 45  1  0
 44 42  1  0
 44 43  1  0
 46 49  1  1
 46 47  1  0
 48 46  1  0
 50  4  1  0
 50 59  1  0
 51 59  1  0
 52 57  1  0
 53 54  1  0
 53 52  1  0
 55 54  1  0
 55 64  1  0
 55 56  1  0
 57 51  1  0
 57 56  1  0
 58 51  2  0
 59 60  1  0
 61 62  2  0
 62 81  1  0
 63 62  1  0
 63 66  1  0
 64 65  1  0
 64 61  1  0
 65 63  2  0
 66 67  1  0
 67 68  2  0
 69 72  1  0
 69 68  1  0
 70 69  2  0
 71 70  1  0
 71 66  2  0
 72 73  1  0
 73 74  1  0
 74 75  2  0
 76 75  1  0
 76 80  1  0
 77 76  2  0
 78 73  2  0
 78 77  1  0
 79 78  1  0
 81 82  1  0
 82 85  1  0
 82 84  1  0
 83 81  2  0
 86 87  1  0
 86 61  1  0
 88 86  1  0
M  ISO  4   8 101   9 101  51 100  59 100
M  END
>  <TORSDO>  (28) 
F 18

>  <SCORE>  (28) 
-15.957

>  <name>  (28) 
27

>  <ligand_id>  (28) 
27

>  <original_smiles>  (28) 
[H]c1c(C([H])([H])N([H])C(=O)N2C([H])([H])C([H])([H])C([H])([H])C([H])(n3nc(-c4c([H])c([H])c(Oc5c([H])c([H])c(F)c([H])c5F)c([H])c4[H])c(C(=O)N([H])[H])c3N([H])[H])C2([H])[H])nc(C([H])([H])[H])c(C([H])([H])Oc2c([H])c([H])c3c(c2[H])C([H])([H])N(C(=O)C([H])(N([H])C(=O)C([H])(N([H])C([H])([H])[H])C([H])([H])[H])C(C([H])([H])[H])(C([H])([H])[H])C([H])([H])[H])C([H])(C(=O)N([H])C2([H])c4c([H])c([H])c([H])c([H])c4C([H])([H])C([H])([H])C2([H])[H])C3([H])[H])c1[H]

>  <smiles>  (28) 
[H]c1c(C([H])([H])N([H])C(=O)N2C([H])([H])C([H])([H])C([H])([H])C([H])(n3nc(-c4c([H])c([H])c(Oc5c([H])c([H])c(F)c([H])c5F)c([H])c4[H])c(C(=O)N([H])[H])c3N([H])[H])C2([H])[H])nc(C([H])([H])[H])c(C([H])([H])Oc2c([H])c([H])c3c(c2[H])C([H])([H])N(C(=O)C([H])(N([H])C(=O)C([H])(N([H])C([H])([H])[H])C([H])([H])[H])C(C([H])([H])[H])(C([H])([H])[H])C([H])([H])[H])C([H])(C(=O)N([H])C2([H])c4c([H])c([H])c([H])c([H])c4C([H])([H])C([H])([H])C2([H])[H])C3([H])[H])c1[H]

$$$$
28:0:0
     RDKit          3D

 92 92  0  0  1  0  0  0  0  0999 V2000
  -26.2260  -13.5370   22.2550 C   0  0  0  0  0 15  0  0  0  0  0  0
  -27.0450  -11.5900   21.5150 C   0  0  0  0  0  2  0  0  0  0  0  0
  -26.3660  -15.3960   21.0670 C   0  0  0  0  0 15  0  0  0  0  0  0
  -28.0600  -13.6800   18.3190 C   0  0  0  0  0 15  0  0  0  0  0  0
  -28.0840  -11.7530   19.3400 C   0  0  0  0  0  1  0  0  0  0  0  0
  -27.4030  -15.5370   19.1450 C   0  0  0  0  0  1  0  0  0  0  0  0
  -30.4190  -11.7940   17.6240 C   0  0  0  0  0  2  0  0  0  0  0  0
  -31.8010  -11.9400   18.3440 C   0  0  0  0  0  2  0  0  0  0  0  0
  -29.7420  -11.6790   18.9940 C   0  0  0  0  0  3  0  0  0  0  0  0
  -31.2380  -11.1370   19.5350 C   0  0  0  0  0  3  0  0  0  0  0  0
  -31.9150  -11.0400   22.3380 C   0  0  0  0  0  0  0  0  0  0  0  0
  -31.2150   -8.7700   22.3600 C   0  0  0  0  0  2  0  0  0  0  0  0
  -30.8420   -8.6530   20.9110 C   0  0  0  0  0  2  0  0  0  0  0  0
  -29.5120   -9.3910   20.7550 C   0  0  0  0  0  2  0  0  0  0  0  0
  -29.2570  -10.8430   21.6460 C   0  0  0  0  0  2  0  0  0  0  0  0
  -29.6020  -10.4900   23.0320 C   0  0  0  0  0  2  0  0  0  0  0  0
  -30.9930  -10.1410   22.7670 N   0  0  0  0  0  0  0  0  0  0  0  0
  -32.7350  -11.4300   23.1600 O   0  0  0  0  0  0  0  0  0  0  0  0
  -31.9910  -11.3970   20.9410 N   0  0  0  0  0  0  0  0  0  0  0  0
  -32.7920  -11.9920   20.7990 H   0  0  0  0  0  0  0  0  0  0  0  0
  -26.2600  -12.3760   20.9630 C   0  0  0  0  0  2  0  0  0  0  0  0
  -24.8510  -11.8460   21.2060 C   0  0  0  0  0  3  0  0  0  0  0  0
  -24.9550  -10.6100   20.7430 C   0  0  0  0  0  3  0  0  0  0  0  0
  -27.7430  -12.1460   21.4470 N   0  0  0  0  0  2  0  0  0  0  0  0
  -25.9170  -11.7870   20.8520 N   0  0  0  0  0  0  0  0  0  0  0  0
  -24.2020   -9.2760   21.3230 C   0  0  0  0  0  0  0  0  0  0  0  0
  -24.2650   -8.3870   22.4850 C   0  0  0  0  0  3  0  0  0  0  0  0
  -23.3020   -7.3190   22.7440 C   0  0  0  0  0  3  0  0  0  0  0  0
  -22.1980   -7.0880   21.8710 C   0  0  0  0  0  0  0  0  0  0  0  0
  -22.1500   -7.9140   20.7390 C   0  0  0  0  0  3  0  0  0  0  0  0
  -23.1090   -8.9270   20.4870 C   0  0  0  0  0  3  0  0  0  0  0  0
  -21.2110   -6.1010   21.9400 O   0  0  0  0  0  0  0  0  0  0  0  0
  -20.4170   -5.8200   23.0380 C   0  0  0  0  0  0  0  0  0  0  0  0
  -19.8340   -6.8300   23.8330 C   0  0  0  0  0  3  0  0  0  0  0  0
  -18.9890   -6.4900   24.9140 C   0  0  0  0  0  3  0  0  0  0  0  0
  -18.7140   -5.1400   25.2070 C   0  0  0  0  0  0  0  0  0  0  0  0
  -19.2610   -4.1310   24.3980 C   0  0  0  0  0  3  0  0  0  0  0  0
  -20.0950   -4.4680   23.3140 C   0  0  0  0  0  0  0  0  0  0  0  0
  -20.5800   -3.4760   22.5290 F   0  0  0  0  0  0  0  0  0  0  0  0
  -17.9270   -4.8180   26.2630 F   0  0  0  0  0  0  0  0  0  0  0  0
  -23.4970  -12.4410   20.9370 C   0  0  0  0  0  0  0  0  0  0  0  0
  -22.5040  -11.9780   21.6860 N   0  0  0  0  0  0  0  0  0  0  0  0
  -23.3850  -13.2280   20.0110 O   0  0  0  0  0  0  0  0  0  0  0  0
  -22.6890  -11.3090   22.4210 H   0  0  0  0  0  0  0  0  0  0  0  0
  -21.5690  -12.3310   21.5430 H   0  0  0  0  0  0  0  0  0  0  0  0
  -27.9500  -12.5840   21.5190 N   0  0  0  0  0  0  0  0  0  0  0  0
  -27.7750  -12.9470   22.4460 H   0  0  0  0  0  0  0  0  0  0  0  0
  -28.3080  -13.3360   20.9470 H   0  0  0  0  0  0  0  0  0  0  0  0
  -28.0290  -16.9870   18.2900 O   0  0  0  0  0  1  0  0  0  0  0  0
  -29.1080  -18.6700   18.0900 C   0  0  0  0  0 15  0  0  0  0  0  0
  -30.1400  -20.2420   16.8510 C   0  0  0  0  0 15  0  0  0  0  0  0
  -31.3750  -21.8060   16.5520 O   0  0  0  0  0  1  0  0  0  0  0  0
  -31.7610  -28.9520   12.8630 C   0  0  0  0  0  0  0  0  0  0  0  0
  -31.8690  -22.8640   15.3710 C   0  0  0  0  0  0  0  0  0  0  0  0
  -30.9580  -26.8760   11.8560 C   0  0  0  0  0  3  0  0  0  0  0  0
  -31.8300  -24.5990   12.8040 C   0  0  0  0  0  0  0  0  0  0  0  0
  -32.8800  -26.6920   13.5750 C   0  0  0  0  0  2  0  0  0  0  0  0
  -32.4440  -25.1750   13.9150 C   0  0  0  0  0  0  0  0  0  0  0  0
  -32.4980  -24.2990   15.1710 C   0  0  0  0  0  3  0  0  0  0  0  0
  -31.6190  -22.4400   14.0560 C   0  0  0  0  0  3  0  0  0  0  0  0
  -31.5360  -23.2330   12.8760 C   0  0  0  0  0  3  0  0  0  0  0  0
  -31.4650  -25.4340   11.5640 C   0  0  0  0  0  2  0  0  0  0  0  0
  -31.8970  -27.5750   12.7880 N   0  0  0  0  0  0  0  0  0  0  0  0
  -30.8650  -29.5620   12.2470 O   0  0  0  0  0  0  0  0  0  0  0  0
  -29.5040  -26.8550   12.4050 C   0  0  0  0  0  0  0  0  0  0  0  0
  -28.4930  -26.6570   11.5390 N   0  0  0  0  0  0  0  0  0  0  0  0
  -29.3070  -27.0140   13.6120 O   0  0  0  0  0  0  0  0  0  0  0  0
  -28.7170  -26.5590   10.5590 H   0  0  0  0  0  0  0  0  0  0  0  0
  -25.1500  -26.0800   10.2350 C   0  0  0  0  0  0  0  0  0  0  0  0
  -27.0750  -26.5390   11.9020 C   0  0  0  0  0  3  0  0  0  0  0  0
  -26.7660  -25.1350   12.4750 C   0  0  0  0  0  2  0  0  0  0  0  0
  -26.2740  -24.1460   11.4140 C   0  0  0  0  0  2  0  0  0  0  0  0
  -24.9940  -24.6600   10.7530 C   0  0  0  0  0  2  0  0  0  0  0  0
  -26.1350  -26.9580   10.7610 C   0  0  0  0  0  0  0  0  0  0  0  0
  -26.2510  -28.2570   10.2230 C   0  0  0  0  0  3  0  0  0  0  0  0
  -25.4070  -28.6830    9.1790 C   0  0  0  0  0  3  0  0  0  0  0  0
  -24.4280  -27.8130    8.6690 C   0  0  0  0  0  3  0  0  0  0  0  0
  -24.2970  -26.5180    9.2000 C   0  0  0  0  0  3  0  0  0  0  0  0
  -32.7210  -29.8390   13.7090 C   0  0  0  0  0  3  0  0  0  0  0  0
  -31.9630  -30.7000   14.7960 C   0  0  1  0  0  0  0  0  0  0  0  0
  -30.9020  -31.6600   14.2050 C   0  0  0  0  0  1  0  0  0  0  0  0
  -31.2420  -29.8020   15.8230 C   0  0  0  0  0  1  0  0  0  0  0  0
  -32.9820  -31.5420   15.6000 C   0  0  0  0  0  1  0  0  0  0  0  0
  -33.4480  -30.7470   12.7930 N   0  0  0  0  0  0  0  0  0  0  0  0
  -34.6540  -30.5180   12.2540 C   0  0  0  0  0  0  0  0  0  0  0  0
  -35.3090  -29.5060   12.5140 O   0  0  0  0  0  0  0  0  0  0  0  0
  -32.9440  -31.5670   12.4870 H   0  0  0  0  0  0  0  0  0  0  0  0
  -34.9700  -31.1370    9.8260 C   0  0  0  0  0  1  0  0  0  0  0  0
  -35.2310  -31.5710   11.2780 C   0  0  0  0  0  3  0  0  0  0  0  0
  -37.0050  -32.4480   12.7360 C   0  0  0  0  0  1  0  0  0  0  0  0
  -36.6790  -31.8190   11.4590 N   0  0  0  0  0  0  0  0  0  0  0  0
  -37.0400  -32.4100   10.7150 H   0  0  0  0  0  0  0  0  0  0  0  0
  7  8  1  0
  7  9  1  0
  8 10  1  0
  9  5  1  0
  9 10  1  0
 10 19  1  0
 11 17  1  0
 11 18  2  0
 12 17  1  0
 13 12  1  0
 14 13  1  0
 14 15  1  0
 15 16  1  0
 17 16  1  0
 19 11  1  0
 20 19  1  0
 21  2  1  0
 22 41  1  0
 23 25  1  0
 23 22  1  0
 23 26  1  0
 24  2  1  0
 24 46  1  0
 25 21  1  0
 25 22  1  0
 26 27  1  0
 27 28  2  0
 29 32  1  0
 29 28  1  0
 30 29  2  0
 31 30  1  0
 31 26  2  0
 32 33  1  0
 33 38  2  0
 33 34  1  0
 34 35  2  0
 35 36  1  0
 36 40  1  0
 37 36  2  0
 38 37  1  0
 39 38  1  0
 41 42  1  0
 42 44  1  0
 43 41  2  0
 45 42  1  0
 46 47  1  0
 48 46  1  0
 49  6  1  0
 54 52  1  0
 55 65  1  0
 55 63  1  0
 56 61  2  0
 56 58  1  0
 57 58  1  0
 58 59  2  0
 59 54  1  0
 60 54  2  0
 61 60  1  0
 62 55  1  0
 62 56  1  0
 63 53  1  0
 63 57  1  0
 64 53  2  0
 65 67  2  0
 66 65  1  0
 68 66  1  0
 69 73  1  0
 69 74  1  0
 70 66  1  0
 70 71  1  0
 72 71  1  0
 73 72  1  0
 74 70  1  0
 75 74  2  0
 76 75  1  0
 77 76  2  0
 77 78  1  0
 78 69  2  0
 79 53  1  0
 79 80  1  0
 80 83  1  1
 80 82  1  0
 81 80  1  0
 84 79  1  0
 85 86  2  0
 85 84  1  0
 87 84  1  0
 89 88  1  0
 89 91  1  0
 89 85  1  0
 91 90  1  0
 92 91  1  0
M  ISO  4  11 100  19 100  51 101  52 101
M  END
>  <TORSDO>  (29) 
F 20

>  <SCORE>  (29) 
-7.279

>  <name>  (29) 
28

>  <ligand_id>  (29) 
28

>  <original_smiles>  (29) 
[H]c1c([H])c([H])c2c(c1[H])C([H])([H])C([H])([H])C([H])([H])C2([H])N([H])C(=O)C1([H])N(C(=O)C([H])(N([H])C(=O)C([H])(N([H])C([H])([H])[H])C([H])([H])[H])C(C([H])([H])[H])(C([H])([H])[H])C([H])([H])[H])C([H])([H])c2c([H])c(OC([H])([H])C([H])([H])Oc3c([H])c([H])c([H])c(C4([H])C([H])([H])C([H])([H])C4([H])N([H])C(=O)N4C([H])([H])C([H])([H])C([H])([H])C([H])(n5nc(-c6c([H])c([H])c(Oc7c([H])c([H])c(F)c([H])c7F)c([H])c6[H])c(C(=O)N([H])[H])c5N([H])[H])C4([H])[H])c3[H])c([H])c([H])c2C1([H])[H]

>  <smiles>  (29) 
[H]c1c([H])c([H])c2c(c1[H])C([H])([H])C([H])([H])C([H])([H])C2([H])N([H])C(=O)C1([H])N(C(=O)C([H])(N([H])C(=O)C([H])(N([H])C([H])([H])[H])C([H])([H])[H])C(C([H])([H])[H])(C([H])([H])[H])C([H])([H])[H])C([H])([H])c2c([H])c(OC([H])([H])C([H])([H])Oc3c([H])c([H])c([H])c(C4([H])C([H])([H])C([H])([H])C4([H])N([H])C(=O)N4C([H])([H])C([H])([H])C([H])([H])C([H])(n5nc(-c6c([H])c([H])c(Oc7c([H])c([H])c(F)c([H])c7F)c([H])c6[H])c(C(=O)N([H])[H])c5N([H])[H])C4([H])[H])c3[H])c([H])c([H])c2C1([H])[H]

$$$$
29:0:0
     RDKit          3D

 91100  0  0  1  0  0  0  0  0999 V2000
  -28.6430  -19.8490   19.5300 C   0  0  0  0  0  3  0  0  0  0  0  0
  -30.1770  -19.0850   21.6060 C   0  0  0  0  0  3  0  0  0  0  0  0
  -28.9320  -18.4480   19.7100 C   0  0  0  0  0  0  0  0  0  0  0  0
  -29.7320  -17.9660   20.7970 C   0  0  0  0  0  0  0  0  0  0  0  0
  -29.1010  -20.8870   20.3870 C   0  0  0  0  0  0  0  0  0  0  0  0
  -29.8940  -20.4550   21.4230 N   0  0  0  0  0  0  0  0  0  0  0  0
  -30.6770  -15.3730   21.0270 C   0  0  0  0  0  0  0  0  0  0  0  0
  -30.7520  -12.9840   20.1730 C   0  0  0  0  0  2  0  0  0  0  0  0
  -29.9570  -12.8800   18.8500 C   0  0  0  0  0  2  0  0  0  0  0  0
  -28.4540  -12.6660   19.1200 C   0  0  0  0  0  2  0  0  0  0  0  0
  -27.9040  -13.6050   20.2250 C   0  0  0  0  0  3  0  0  0  0  0  0
  -28.8320  -13.6500   21.4580 C   0  0  0  0  0  2  0  0  0  0  0  0
  -30.1560  -14.0810   20.9860 N   0  0  0  0  0  0  0  0  0  0  0  0
  -31.8880  -15.5150   20.8220 O   0  0  0  0  0  0  0  0  0  0  0  0
  -29.7860  -16.4690   21.1550 N   0  0  0  0  0  0  0  0  0  0  0  0
  -28.8660  -16.1040   21.3520 H   0  0  0  0  0  0  0  0  0  0  0  0
  -25.4440  -14.1480   20.6910 C   0  0  0  0  0  0  0  0  0  0  0  0
  -24.3630  -13.3580   20.9630 C   0  0  0  0  0  0  0  0  0  0  0  0
  -24.8550  -12.0180   21.0150 C   0  0  0  0  0  0  0  0  0  0  0  0
  -26.5250  -13.2890   20.5830 N   0  0  0  0  0  0  0  0  0  0  0  0
  -26.1720  -12.0040   20.8450 N   0  0  0  0  0  0  0  0  0  0  0  0
  -24.1370  -10.7440   21.1580 C   0  0  0  0  0  0  0  0  0  0  0  0
  -24.4930   -9.8020   22.1480 C   0  0  0  0  0  3  0  0  0  0  0  0
  -23.7740   -8.5950   22.2780 C   0  0  0  0  0  3  0  0  0  0  0  0
  -22.6850   -8.3200   21.4180 C   0  0  0  0  0  0  0  0  0  0  0  0
  -22.3490   -9.2510   20.4190 C   0  0  0  0  0  3  0  0  0  0  0  0
  -23.0700  -10.4510   20.2870 C   0  0  0  0  0  3  0  0  0  0  0  0
  -21.9460   -7.1630   21.4530 O   0  0  0  0  0  0  0  0  0  0  0  0
  -21.7940   -6.4420   22.6100 C   0  0  0  0  0  0  0  0  0  0  0  0
  -21.2210   -7.0060   23.7700 C   0  0  0  0  0  3  0  0  0  0  0  0
  -21.0200   -6.2090   24.9160 C   0  0  0  0  0  3  0  0  0  0  0  0
  -21.3810   -4.8490   24.9000 C   0  0  0  0  0  0  0  0  0  0  0  0
  -21.9480   -4.2840   23.7440 C   0  0  0  0  0  3  0  0  0  0  0  0
  -22.1510   -5.0770   22.6010 C   0  0  0  0  0  0  0  0  0  0  0  0
  -22.6770   -4.5230   21.4820 F   0  0  0  0  0  0  0  0  0  0  0  0
  -21.1820   -4.0810   25.9960 F   0  0  0  0  0  0  0  0  0  0  0  0
  -22.9350  -13.8100   21.0710 C   0  0  0  0  0  0  0  0  0  0  0  0
  -22.1370  -13.1300   21.8860 N   0  0  0  0  0  0  0  0  0  0  0  0
  -22.5320  -14.8040   20.4670 O   0  0  0  0  0  0  0  0  0  0  0  0
  -22.4740  -12.3290   22.3980 H   0  0  0  0  0  0  0  0  0  0  0  0
  -21.1750  -13.4180   22.0030 H   0  0  0  0  0  0  0  0  0  0  0  0
  -25.5950  -15.5180   20.5040 N   0  0  0  0  0  0  0  0  0  0  0  0
  -24.8010  -16.1510   20.5250 H   0  0  0  0  0  0  0  0  0  0  0  0
  -26.4610  -15.9790   20.2650 H   0  0  0  0  0  0  0  0  0  0  0  0
  -29.1370  -16.5720   17.8690 C   0  0  0  0  0  2  0  0  0  0  0  0
  -28.4160  -17.7410   17.2460 C   0  0  0  0  0  2  0  0  0  0  0  0
  -28.3090  -17.4920   18.7350 C   0  0  0  0  0  3  0  0  0  0  0  0
  -28.6560  -22.2620   20.1270 O   0  0  0  0  0  0  0  0  0  0  0  0
  -29.0230  -23.6590   20.6520 C   0  0  0  0  0  3  0  0  0  0  0  0
  -28.1180  -25.0140   20.1840 C   0  0  0  0  0  3  0  0  0  0  0  0
  -28.3810  -26.5420   20.3640 O   0  0  0  0  0  0  0  0  0  0  0  0
  -24.7090  -32.1550   23.4250 C   0  0  0  0  0  0  0  0  0  0  0  0
  -27.3180  -27.5180   20.3020 C   0  0  0  0  0  0  0  0  0  0  0  0
  -23.5150  -30.7770   21.7670 C   0  0  0  0  0  3  0  0  0  0  0  0
  -24.9710  -29.2420   20.3080 C   0  0  0  0  0  0  0  0  0  0  0  0
  -26.0660  -31.0680   21.5980 C   0  0  0  0  0  2  0  0  0  0  0  0
  -26.1490  -29.6880   20.9210 C   0  0  0  0  0  0  0  0  0  0  0  0
  -27.3210  -28.8420   20.9020 C   0  0  0  0  0  3  0  0  0  0  0  0
  -26.1130  -27.1790   19.6450 C   0  0  0  0  0  3  0  0  0  0  0  0
  -24.9670  -28.0010   19.6540 C   0  0  0  0  0  3  0  0  0  0  0  0
  -23.7360  -30.1270   20.3760 C   0  0  0  0  0  2  0  0  0  0  0  0
  -24.7840  -31.3550   22.3190 N   0  0  0  0  0  0  0  0  0  0  0  0
  -23.6230  -32.4220   23.9620 O   0  0  0  0  0  0  0  0  0  0  0  0
  -22.8480  -29.7480   22.7130 C   0  0  0  0  0  0  0  0  0  0  0  0
  -21.5300  -29.5320   22.5540 N   0  0  0  0  0  0  0  0  0  0  0  0
  -23.5200  -29.1470   23.5560 O   0  0  0  0  0  0  0  0  0  0  0  0
  -21.0430  -30.0690   21.8510 H   0  0  0  0  0  0  0  0  0  0  0  0
  -18.1940  -28.1700   22.9300 C   0  0  0  0  0  0  0  0  0  0  0  0
  -20.7220  -28.5680   23.3070 C   0  0  0  0  0  3  0  0  0  0  0  0
  -20.9210  -27.1320   22.7700 C   0  0  0  0  0  2  0  0  0  0  0  0
  -19.8860  -26.7340   21.7130 C   0  0  0  0  0  2  0  0  0  0  0  0
  -18.4700  -26.8180   22.2900 C   0  0  0  0  0  2  0  0  0  0  0  0
  -19.2520  -28.9970   23.3930 C   0  0  0  0  0  0  0  0  0  0  0  0
  -18.9400  -30.2560   23.9500 C   0  0  0  0  0  3  0  0  0  0  0  0
  -17.6050  -30.6900   24.0490 C   0  0  0  0  0  3  0  0  0  0  0  0
  -16.5620  -29.8600   23.6010 C   0  0  0  0  0  3  0  0  0  0  0  0
  -16.8570  -28.6020   23.0480 C   0  0  0  0  0  3  0  0  0  0  0  0
  -25.9860  -32.7900   24.0580 C   0  0  0  0  0  3  0  0  0  0  0  0
  -26.4900  -32.0200   25.3400 C   0  0  1  0  0  0  0  0  0  0  0  0
  -25.3860  -31.7750   26.3960 C   0  0  0  0  0  1  0  0  0  0  0  0
  -27.0860  -30.6450   24.9580 C   0  0  0  0  0  1  0  0  0  0  0  0
  -27.6290  -32.8190   26.0170 C   0  0  0  0  0  1  0  0  0  0  0  0
  -25.6700  -34.1880   24.3920 N   0  0  0  0  0  0  0  0  0  0  0  0
  -26.0250  -35.2490   23.6560 C   0  0  0  0  0  0  0  0  0  0  0  0
  -26.7190  -35.1530   22.6400 O   0  0  0  0  0  0  0  0  0  0  0  0
  -25.0570  -34.3370   25.1800 H   0  0  0  0  0  0  0  0  0  0  0  0
  -24.3190  -37.0610   23.2820 C   0  0  0  0  0  1  0  0  0  0  0  0
  -25.5360  -36.6360   24.1180 C   0  0  0  0  0  3  0  0  0  0  0  0
  -27.6550  -37.4980   25.0150 C   0  0  0  0  0  1  0  0  0  0  0  0
  -26.5790  -37.6830   24.0450 N   0  0  0  0  0  0  0  0  0  0  0  0
  -26.1750  -38.6050   24.1920 H   0  0  0  0  0  0  0  0  0  0  0  0
  1  3  2  0
  1  5  1  0
  3  4  1  0
  4 15  1  0
  4  2  2  0
  5  6  2  0
  6  2  1  0
  7 15  1  0
  8 13  1  0
  9 10  1  0
  9  8  1  0
 11 10  1  0
 11 20  1  0
 11 12  1  0
 13  7  1  0
 13 12  1  0
 14  7  2  0
 15 16  1  0
 17 18  2  0
 18 19  1  0
 18 37  1  0
 19 22  1  0
 20 17  1  0
 20 21  1  0
 21 19  2  0
 22 23  1  0
 23 24  2  0
 25 28  1  0
 25 24  1  0
 26 25  2  0
 27 26  1  0
 27 22  2  0
 28 29  1  0
 29 30  1  0
 30 31  2  0
 32 31  1  0
 32 36  1  0
 33 32  2  0
 34 29  2  0
 34 33  1  0
 35 34  1  0
 37 38  1  0
 38 41  1  0
 38 40  1  0
 39 37  2  0
 42 43  1  0
 42 17  1  0
 44 42  1  0
 45 47  1  0
 46 45  1  0
 46 47  1  0
 47  3  1  0
 48  5  1  0
 48 49  1  0
 50 51  1  0
 50 49  2  0
 52 63  2  0
 53 51  1  0
 53 58  1  0
 54 62  1  0
 54 64  1  0
 55 61  1  0
 55 57  1  0
 56 62  1  0
 57 56  1  0
 58 57  2  0
 59 60  1  0
 59 53  2  0
 60 55  2  0
 61 54  1  0
 62 52  1  0
 64 66  2  0
 65 64  1  0
 67 65  1  0
 68 77  2  0
 68 73  1  0
 69 65  1  0
 69 73  1  0
 70 69  1  0
 71 72  1  0
 71 70  1  0
 72 68  1  0
 73 74  2  0
 74 75  1  0
 76 75  2  0
 77 76  1  0
 78 52  1  0
 78 83  1  0
 78 79  1  0
 79 82  1  1
 79 80  1  0
 81 79  1  0
 83 86  1  0
 84 88  1  0
 84 83  1  0
 85 84  2  0
 88 87  1  0
 90 88  1  0
 90 91  1  0
 90 89  1  0
M  ISO  4   7 100  15 100  50 101  51 101
M  END
>  <TORSDO>  (30) 
F 20

>  <SCORE>  (30) 
-12.488

>  <name>  (30) 
29

>  <ligand_id>  (30) 
29

>  <original_smiles>  (30) 
[H]c1nc(OC([H])([H])C([H])([H])Oc2c([H])c([H])c3c(c2[H])C([H])([H])N(C(=O)C([H])(N([H])C(=O)C([H])(N([H])C([H])([H])[H])C([H])([H])[H])C(C([H])([H])[H])(C([H])([H])[H])C([H])([H])[H])C([H])(C(=O)N([H])C2([H])c4c([H])c([H])c([H])c([H])c4C([H])([H])C([H])([H])C2([H])[H])C3([H])[H])c([H])c(C2([H])C([H])([H])C2([H])[H])c1N([H])C(=O)N1C([H])([H])C([H])([H])C([H])([H])C([H])(n2nc(-c3c([H])c([H])c(Oc4c([H])c([H])c(F)c([H])c4F)c([H])c3[H])c(C(=O)N([H])[H])c2N([H])[H])C1([H])[H]

>  <smiles>  (30) 
[H]c1nc(OC([H])([H])C([H])([H])Oc2c([H])c([H])c3c(c2[H])C([H])([H])N(C(=O)C([H])(N([H])C(=O)C([H])(N([H])C([H])([H])[H])C([H])([H])[H])C(C([H])([H])[H])(C([H])([H])[H])C([H])([H])[H])C([H])(C(=O)N([H])C2([H])c4c([H])c([H])c([H])c([H])c4C([H])([H])C([H])([H])C2([H])[H])C3([H])[H])c([H])c(C2([H])C([H])([H])C2([H])[H])c1N([H])C(=O)N1C([H])([H])C([H])([H])C([H])([H])C([H])(n2nc(-c3c([H])c([H])c(Oc4c([H])c([H])c(F)c([H])c4F)c([H])c3[H])c(C(=O)N([H])[H])c2N([H])[H])C1([H])[H]

$$$$
30:0:0
     RDKit          3D

 97106  0  0  1  0  0  0  0  0999 V2000
  -28.5720  -21.1690   20.6160 N   0  0  0  0  0  0  0  0  0  0  0  0
  -27.9720  -21.0480   21.4280 H   0  0  0  0  0  0  0  0  0  0  0  0
  -29.8170  -23.3360   20.9980 C   0  0  0  0  0  2  0  0  0  0  0  0
  -27.4170  -23.3520   20.1150 C   0  0  0  0  0  2  0  0  0  0  0  0
  -29.8050  -24.8510   20.6730 C   0  0  0  0  0  2  0  0  0  0  0  0
  -27.3190  -24.5300   21.1190 C   0  0  0  0  0  2  0  0  0  0  0  0
  -28.7570  -22.5660   20.1720 C   0  0  0  0  0  3  0  0  0  0  0  0
  -28.4770  -25.5710   21.0320 C   0  0  0  0  0  3  0  0  0  0  0  0
  -28.3460  -26.6910   20.1210 O   0  0  0  0  0  0  0  0  0  0  0  0
  -24.5250  -31.8980   23.2310 C   0  0  0  0  0  0  0  0  0  0  0  0
  -27.1970  -27.4550   20.1670 C   0  0  0  0  0  0  0  0  0  0  0  0
  -23.3410  -30.5050   21.5660 C   0  0  0  0  0  3  0  0  0  0  0  0
  -24.8120  -28.9800   20.1460 C   0  0  0  0  0  0  0  0  0  0  0  0
  -25.8680  -30.8620   21.4020 C   0  0  0  0  0  2  0  0  0  0  0  0
  -25.9620  -29.4910   20.7600 C   0  0  0  0  0  0  0  0  0  0  0  0
  -27.1620  -28.7350   20.7690 C   0  0  0  0  0  3  0  0  0  0  0  0
  -26.0400  -26.9800   19.5130 C   0  0  0  0  0  3  0  0  0  0  0  0
  -24.8470  -27.7230   19.5200 C   0  0  0  0  0  3  0  0  0  0  0  0
  -23.5650  -29.8360   20.1840 C   0  0  0  0  0  2  0  0  0  0  0  0
  -24.5970  -31.1040   22.1250 N   0  0  0  0  0  0  0  0  0  0  0  0
  -23.4360  -32.1650   23.7610 O   0  0  0  0  0  0  0  0  0  0  0  0
  -22.6820  -29.4750   22.5130 C   0  0  0  0  0  0  0  0  0  0  0  0
  -21.3580  -29.3000   22.3810 N   0  0  0  0  0  0  0  0  0  0  0  0
  -23.3610  -28.8370   23.3210 O   0  0  0  0  0  0  0  0  0  0  0  0
  -20.8730  -29.8700   21.7000 H   0  0  0  0  0  0  0  0  0  0  0  0
  -17.9730  -28.1380   22.8720 C   0  0  0  0  0  0  0  0  0  0  0  0
  -20.5340  -28.3580   23.1360 C   0  0  0  0  0  3  0  0  0  0  0  0
  -20.6150  -26.9370   22.5300 C   0  0  0  0  0  2  0  0  0  0  0  0
  -19.5040  -26.6480   21.5170 C   0  0  0  0  0  2  0  0  0  0  0  0
  -18.1270  -26.7990   22.1710 C   0  0  0  0  0  2  0  0  0  0  0  0
  -19.1020  -28.8770   23.3110 C   0  0  0  0  0  0  0  0  0  0  0  0
  -18.9040  -30.1320   23.9260 C   0  0  0  0  0  3  0  0  0  0  0  0
  -17.6060  -30.6460   24.1090 C   0  0  0  0  0  3  0  0  0  0  0  0
  -16.4900  -29.9040   23.6880 C   0  0  0  0  0  3  0  0  0  0  0  0
  -16.6740  -28.6510   23.0740 C   0  0  0  0  0  3  0  0  0  0  0  0
  -25.8040  -32.5280   23.8660 C   0  0  0  0  0  3  0  0  0  0  0  0
  -26.2970  -31.7630   25.1540 C   0  0  1  0  0  0  0  0  0  0  0  0
  -25.1880  -31.5300   26.2070 C   0  0  0  0  0  1  0  0  0  0  0  0
  -26.8870  -30.3820   24.7760 C   0  0  0  0  0  1  0  0  0  0  0  0
  -27.4340  -32.5620   25.8350 C   0  0  0  0  0  1  0  0  0  0  0  0
  -25.4950  -33.9300   24.1830 N   0  0  0  0  0  0  0  0  0  0  0  0
  -25.8420  -34.9750   23.4200 C   0  0  0  0  0  0  0  0  0  0  0  0
  -26.5280  -34.8620   22.4010 O   0  0  0  0  0  0  0  0  0  0  0  0
  -24.8900  -34.0910   24.9730 H   0  0  0  0  0  0  0  0  0  0  0  0
  -24.1350  -36.7770   23.0120 C   0  0  0  0  0  1  0  0  0  0  0  0
  -25.3510  -36.3680   23.8580 C   0  0  0  0  0  3  0  0  0  0  0  0
  -27.4640  -37.2500   24.7480 C   0  0  0  0  0  1  0  0  0  0  0  0
  -26.3930  -37.4140   23.7680 N   0  0  0  0  0  0  0  0  0  0  0  0
  -25.9850  -38.3370   23.8970 H   0  0  0  0  0  0  0  0  0  0  0  0
  -29.5570  -18.9380   21.1690 C   0  0  0  0  0  2  0  0  0  0  0  0
  -29.5010  -20.1240   20.3900 C   0  0  0  0  0  0  0  0  0  0  0  0
  -30.6060  -18.1620   20.7310 C   0  0  0  0  0  3  0  0  0  0  0  0
  -30.4270  -20.0070   19.3920 C   0  0  0  0  0  0  0  0  0  0  0  0
  -30.6010  -20.8270   18.1460 C   0  0  0  0  0  1  0  0  0  0  0  0
  -31.2680  -18.9260   19.7250 N   0  0  0  0  0  0  0  0  0  0  0  0
  -33.4110  -17.5110   19.3950 C   0  0  0  0  0  1  0  0  0  0  0  0
  -33.5070  -19.9590   19.2230 C   0  0  0  0  0  1  0  0  0  0  0  0
  -32.5740  -18.7350   19.0280 C   0  0  0  0  0  3  0  0  0  0  0  0
  -30.9990  -16.8020   21.3320 C   0  0  0  0  0  2  0  0  0  0  0  0
  -30.7550  -14.5260   20.2740 C   0  0  0  0  0  0  0  0  0  0  0  0
  -30.3370  -12.3620   19.1560 C   0  0  0  0  0  2  0  0  0  0  0  0
  -29.3770  -12.5400   17.9660 C   0  0  0  0  0  2  0  0  0  0  0  0
  -27.9200  -12.3940   18.4390 C   0  0  0  0  0  2  0  0  0  0  0  0
  -27.6100  -13.2690   19.6830 C   0  0  0  0  0  3  0  0  0  0  0  0
  -28.6940  -13.1290   20.7770 C   0  0  0  0  0  2  0  0  0  0  0  0
  -30.0020  -13.3920   20.1580 N   0  0  0  0  0  0  0  0  0  0  0  0
  -31.8640  -14.6030   19.7540 O   0  0  0  0  0  0  0  0  0  0  0  0
  -30.2320  -15.5960   20.9120 N   0  0  0  0  0  0  0  0  0  0  0  0
  -29.2940  -15.5050   21.2740 H   0  0  0  0  0  0  0  0  0  0  0  0
  -25.2400  -13.8790   20.4630 C   0  0  0  0  0  0  0  0  0  0  0  0
  -24.1770  -13.1090   20.8530 C   0  0  0  0  0  0  0  0  0  0  0  0
  -24.6290  -11.7560   20.7990 C   0  0  0  0  0  0  0  0  0  0  0  0
  -26.2730  -12.9940   20.2020 N   0  0  0  0  0  0  0  0  0  0  0  0
  -25.9120  -11.7110   20.4650 N   0  0  0  0  0  0  0  0  0  0  0  0
  -23.8990  -10.4950   20.9930 C   0  0  0  0  0  0  0  0  0  0  0  0
  -24.3250   -9.5290   21.9300 C   0  0  0  0  0  3  0  0  0  0  0  0
  -23.5930   -8.3350   22.1100 C   0  0  0  0  0  3  0  0  0  0  0  0
  -22.4190   -8.1000   21.3540 C   0  0  0  0  0  0  0  0  0  0  0  0
  -22.0160   -9.0550   20.4040 C   0  0  0  0  0  3  0  0  0  0  0  0
  -22.7480  -10.2390   20.2220 C   0  0  0  0  0  3  0  0  0  0  0  0
  -21.6570   -6.9610   21.4460 O   0  0  0  0  0  0  0  0  0  0  0  0
  -21.5800   -6.2390   22.6090 C   0  0  0  0  0  0  0  0  0  0  0  0
  -21.0940   -6.8060   23.8090 C   0  0  0  0  0  3  0  0  0  0  0  0
  -20.9670   -6.0080   24.9640 C   0  0  0  0  0  3  0  0  0  0  0  0
  -21.3160   -4.6450   24.9200 C   0  0  0  0  0  0  0  0  0  0  0  0
  -21.7910   -4.0760   23.7250 C   0  0  0  0  0  3  0  0  0  0  0  0
  -21.9210   -4.8720   22.5730 C   0  0  0  0  0  0  0  0  0  0  0  0
  -22.3620   -4.3140   21.4190 F   0  0  0  0  0  0  0  0  0  0  0  0
  -21.1850   -3.8760   26.0260 F   0  0  0  0  0  0  0  0  0  0  0  0
  -22.7920  -13.5940   21.1640 C   0  0  0  0  0  0  0  0  0  0  0  0
  -22.0780  -12.8830   22.0300 N   0  0  0  0  0  0  0  0  0  0  0  0
  -22.3550  -14.6350   20.6770 O   0  0  0  0  0  0  0  0  0  0  0  0
  -22.4450  -12.0380   22.4410 H   0  0  0  0  0  0  0  0  0  0  0  0
  -21.1510  -13.1870   22.2850 H   0  0  0  0  0  0  0  0  0  0  0  0
  -25.4130  -15.2490   20.2890 N   0  0  0  0  0  0  0  0  0  0  0  0
  -24.6550  -15.9120   20.4120 H   0  0  0  0  0  0  0  0  0  0  0  0
  -26.2590  -15.6800   19.9350 H   0  0  0  0  0  0  0  0  0  0  0  0
  1  2  1  0
  4  7  1  0
  4  6  1  0
  5  3  1  0
  5  8  1  0
  7  1  1  0
  7  3  1  0
  8  9  1  0
  8  6  1  0
  9 11  1  0
 10 21  2  0
 11 16  1  0
 12 20  1  0
 12 22  1  0
 13 19  1  0
 13 15  1  0
 14 20  1  0
 15 16  2  0
 15 14  1  0
 17 18  1  0
 17 11  2  0
 18 13  2  0
 19 12  1  0
 20 10  1  0
 22 24  2  0
 23 22  1  0
 25 23  1  0
 26 35  2  0
 26 31  1  0
 27 23  1  0
 27 31  1  0
 28 27  1  0
 29 30  1  0
 29 28  1  0
 30 26  1  0
 31 32  2  0
 32 33  1  0
 34 33  2  0
 35 34  1  0
 36 10  1  0
 36 41  1  0
 36 37  1  0
 37 40  1  1
 37 38  1  0
 39 37  1  0
 41 44  1  0
 42 46  1  0
 42 41  1  0
 43 42  2  0
 46 45  1  0
 48 46  1  0
 48 49  1  0
 48 47  1  0
 51  1  1  0
 51 50  1  0
 52 50  1  0
 52 59  1  0
 53 55  1  0
 53 51  2  0
 54 53  1  0
 55 52  1  0
 58 57  1  0
 58 56  1  0
 58 55  1  0
 60 68  1  0
 61 66  1  0
 62 63  1  0
 62 61  1  0
 64 63  1  0
 64 73  1  0
 64 65  1  0
 66 60  1  0
 66 65  1  0
 67 60  2  0
 68 69  1  0
 68 59  1  0
 70 71  2  0
 71 90  1  0
 72 71  1  0
 72 75  1  0
 73 70  1  0
 73 74  1  0
 74 72  2  0
 75 76  1  0
 76 77  2  0
 78 81  1  0
 78 77  1  0
 79 78  2  0
 80 79  1  0
 80 75  2  0
 81 82  1  0
 82 83  1  0
 83 84  2  0
 85 84  1  0
 85 89  1  0
 86 85  2  0
 87 82  2  0
 87 86  1  0
 88 87  1  0
 90 91  1  0
 91 94  1  0
 91 93  1  0
 92 90  2  0
 95 96  1  0
 95 70  1  0
 97 95  1  0
M  ISO  4   8 101   9 101  60 100  68 100
M  END
>  <TORSDO>  (31) 
F 20

>  <SCORE>  (31) 
-14.084

>  <name>  (31) 
30

>  <ligand_id>  (31) 
30

>  <original_smiles>  (31) 
[H]c1c([H])c([H])c2c(c1[H])C([H])([H])C([H])([H])C([H])([H])C2([H])N([H])C(=O)C1([H])N(C(=O)C([H])(N([H])C(=O)C([H])(N([H])C([H])([H])[H])C([H])([H])[H])C(C([H])([H])[H])(C([H])([H])[H])C([H])([H])[H])C([H])([H])c2c([H])c(OC3([H])C([H])([H])C([H])([H])C([H])(N([H])c4c([H])c(C([H])([H])N([H])C(=O)N5C([H])([H])C([H])([H])C([H])([H])C([H])(n6nc(-c7c([H])c([H])c(Oc8c([H])c([H])c(F)c([H])c8F)c([H])c7[H])c(C(=O)N([H])[H])c6N([H])[H])C5([H])[H])n(C([H])(C([H])([H])[H])C([H])([H])[H])c4C([H])([H])[H])C([H])([H])C3([H])[H])c([H])c([H])c2C1([H])[H]

>  <smiles>  (31) 
[H]c1c([H])c([H])c2c(c1[H])C([H])([H])C([H])([H])C([H])([H])C2([H])N([H])C(=O)C1([H])N(C(=O)C([H])(N([H])C(=O)C([H])(N([H])C([H])([H])[H])C([H])([H])[H])C(C([H])([H])[H])(C([H])([H])[H])C([H])([H])[H])C([H])([H])c2c([H])c(OC3([H])C([H])([H])C([H])([H])C([H])(N([H])c4c([H])c(C([H])([H])N([H])C(=O)N5C([H])([H])C([H])([H])C([H])([H])C([H])(n6nc(-c7c([H])c([H])c(Oc8c([H])c([H])c(F)c([H])c8F)c([H])c7[H])c(C(=O)N([H])[H])c6N([H])[H])C5([H])[H])n(C([H])(C([H])([H])[H])C([H])([H])[H])c4C([H])([H])[H])C([H])([H])C3([H])[H])c([H])c([H])c2C1([H])[H]

$$$$
31:0:0
     RDKit          3D

 93102  0  0  1  0  0  0  0  0999 V2000
  -29.4500  -19.8360   18.7140 C   0  0  0  0  0  3  0  0  0  0  0  0
  -30.2970  -17.5390   18.8590 C   0  0  0  0  0  3  0  0  0  0  0  0
  -29.9210  -18.6770   18.0890 C   0  0  0  0  0  0  0  0  0  0  0  0
  -29.9950  -17.5200   20.2640 C   0  0  0  0  0  3  0  0  0  0  0  0
  -29.2930  -19.8800   20.1030 C   0  0  0  0  0  0  0  0  0  0  0  0
  -29.9480  -18.7000   16.5660 C   0  0  0  0  0  1  0  0  0  0  0  0
  -29.5190  -18.7130   20.8370 N   0  0  0  0  0  0  0  0  0  0  0  0
  -30.7680  -15.0560   20.9110 C   0  0  0  0  0  0  0  0  0  0  0  0
  -30.6960  -12.7280   20.0030 C   0  0  0  0  0  2  0  0  0  0  0  0
  -29.8720  -12.6790   18.6960 C   0  0  0  0  0  2  0  0  0  0  0  0
  -28.3660  -12.5540   18.9840 C   0  0  0  0  0  2  0  0  0  0  0  0
  -27.8700  -13.4810   20.1270 C   0  0  0  0  0  3  0  0  0  0  0  0
  -28.8230  -13.4600   21.3410 C   0  0  0  0  0  2  0  0  0  0  0  0
  -30.1610  -13.8180   20.8530 N   0  0  0  0  0  0  0  0  0  0  0  0
  -31.9920  -15.1310   20.7760 O   0  0  0  0  0  0  0  0  0  0  0  0
  -29.9670  -16.1960   20.9670 N   0  0  0  0  0  0  0  0  0  0  0  0
  -29.0600  -15.9950   21.3580 H   0  0  0  0  0  0  0  0  0  0  0  0
  -25.4120  -14.0380   20.6080 C   0  0  0  0  0  0  0  0  0  0  0  0
  -24.3320  -13.2500   20.8990 C   0  0  0  0  0  0  0  0  0  0  0  0
  -24.8240  -11.9100   20.9570 C   0  0  0  0  0  0  0  0  0  0  0  0
  -26.4920  -13.1770   20.5030 N   0  0  0  0  0  0  0  0  0  0  0  0
  -26.1390  -11.8950   20.7800 N   0  0  0  0  0  0  0  0  0  0  0  0
  -24.1090  -10.6360   21.1140 C   0  0  0  0  0  0  0  0  0  0  0  0
  -24.4970   -9.6850   22.0810 C   0  0  0  0  0  3  0  0  0  0  0  0
  -23.7810   -8.4770   22.2250 C   0  0  0  0  0  3  0  0  0  0  0  0
  -22.6620   -8.2120   21.3990 C   0  0  0  0  0  0  0  0  0  0  0  0
  -22.2960   -9.1510   20.4200 C   0  0  0  0  0  3  0  0  0  0  0  0
  -23.0120  -10.3510   20.2750 C   0  0  0  0  0  3  0  0  0  0  0  0
  -21.9210   -7.0560   21.4510 O   0  0  0  0  0  0  0  0  0  0  0  0
  -21.7980   -6.3320   22.6100 C   0  0  0  0  0  0  0  0  0  0  0  0
  -21.2380   -6.8880   23.7810 C   0  0  0  0  0  3  0  0  0  0  0  0
  -21.0670   -6.0860   24.9280 C   0  0  0  0  0  3  0  0  0  0  0  0
  -21.4470   -4.7300   24.9040 C   0  0  0  0  0  0  0  0  0  0  0  0
  -21.9990   -4.1740   23.7370 C   0  0  0  0  0  3  0  0  0  0  0  0
  -22.1720   -4.9730   22.5930 C   0  0  0  0  0  0  0  0  0  0  0  0
  -22.6860   -4.4270   21.4650 F   0  0  0  0  0  0  0  0  0  0  0  0
  -21.2760   -3.9580   26.0030 F   0  0  0  0  0  0  0  0  0  0  0  0
  -22.9050  -13.7010   21.0150 C   0  0  0  0  0  0  0  0  0  0  0  0
  -22.1140  -13.0260   21.8430 N   0  0  0  0  0  0  0  0  0  0  0  0
  -22.4960  -14.6870   20.4060 O   0  0  0  0  0  0  0  0  0  0  0  0
  -22.4550  -12.2290   22.3570 H   0  0  0  0  0  0  0  0  0  0  0  0
  -21.1530  -13.3130   21.9640 H   0  0  0  0  0  0  0  0  0  0  0  0
  -25.5620  -15.4050   20.3970 N   0  0  0  0  0  0  0  0  0  0  0  0
  -24.7620  -16.0290   20.3730 H   0  0  0  0  0  0  0  0  0  0  0  0
  -26.4190  -15.8550   20.1030 H   0  0  0  0  0  0  0  0  0  0  0  0
  -32.3480  -15.9050   18.4320 C   0  0  0  0  0  2  0  0  0  0  0  0
  -32.0460  -16.5280   17.1110 C   0  0  0  0  0  2  0  0  0  0  0  0
  -30.9250  -16.3650   18.1360 C   0  0  0  0  0  3  0  0  0  0  0  0
  -28.8810  -21.0920   20.7450 O   0  0  0  0  0  0  0  0  0  0  0  0
  -28.6030  -22.3420   19.9530 C   0  0  0  0  0  3  0  0  0  0  0  0
  -28.6110  -23.8420   20.5820 C   0  0  0  0  0  3  0  0  0  0  0  0
  -27.9310  -25.0540   19.7410 C   0  0  0  0  0  2  0  0  0  0  0  0
  -28.1220  -26.5230   20.0410 O   0  0  0  0  0  0  0  0  0  0  0  0
  -24.5070  -31.9550   23.2390 C   0  0  0  0  0  0  0  0  0  0  0  0
  -27.0270  -27.4270   20.0000 C   0  0  0  0  0  0  0  0  0  0  0  0
  -23.2630  -30.5990   21.5950 C   0  0  0  0  0  3  0  0  0  0  0  0
  -24.6750  -29.0880   20.0850 C   0  0  0  0  0  0  0  0  0  0  0  0
  -25.8040  -30.9030   21.3680 C   0  0  0  0  0  2  0  0  0  0  0  0
  -25.8620  -29.5400   20.6780 C   0  0  0  0  0  0  0  0  0  0  0  0
  -27.0360  -28.7200   20.6300 C   0  0  0  0  0  3  0  0  0  0  0  0
  -25.8210  -27.0650   19.3530 C   0  0  0  0  0  3  0  0  0  0  0  0
  -24.6620  -27.8600   19.4110 C   0  0  0  0  0  3  0  0  0  0  0  0
  -23.4440  -29.9660   20.1910 C   0  0  0  0  0  2  0  0  0  0  0  0
  -24.5440  -31.1700   22.1220 N   0  0  0  0  0  0  0  0  0  0  0  0
  -23.4380  -32.2230   23.8050 O   0  0  0  0  0  0  0  0  0  0  0  0
  -22.6210  -29.5590   22.5440 C   0  0  0  0  0  0  0  0  0  0  0  0
  -21.2980  -29.3570   22.4180 N   0  0  0  0  0  0  0  0  0  0  0  0
  -23.3110  -28.9390   23.3570 O   0  0  0  0  0  0  0  0  0  0  0  0
  -20.7970  -29.9080   21.7350 H   0  0  0  0  0  0  0  0  0  0  0  0
  -17.9530  -28.0540   22.8800 C   0  0  0  0  0  0  0  0  0  0  0  0
  -20.4990  -28.3950   23.1800 C   0  0  0  0  0  3  0  0  0  0  0  0
  -20.6530  -26.9660   22.6100 C   0  0  0  0  0  2  0  0  0  0  0  0
  -19.5750  -26.6070   21.5830 C   0  0  0  0  0  2  0  0  0  0  0  0
  -18.1810  -26.7100   22.2090 C   0  0  0  0  0  2  0  0  0  0  0  0
  -19.0420  -28.8520   23.3220 C   0  0  0  0  0  0  0  0  0  0  0  0
  -18.7750  -30.1080   23.9090 C   0  0  0  0  0  3  0  0  0  0  0  0
  -17.4530  -30.5670   24.0600 C   0  0  0  0  0  3  0  0  0  0  0  0
  -16.3780  -29.7660   23.6350 C   0  0  0  0  0  3  0  0  0  0  0  0
  -16.6300  -28.5110   23.0510 C   0  0  0  0  0  3  0  0  0  0  0  0
  -25.8060  -32.5720   23.8450 C   0  0  0  0  0  3  0  0  0  0  0  0
  -25.5210  -33.9750   24.1760 N   0  0  0  0  0  0  0  0  0  0  0  0
  -25.8720  -35.0240   23.4210 C   0  0  0  0  0  0  0  0  0  0  0  0
  -26.5410  -34.9110   22.3900 O   0  0  0  0  0  0  0  0  0  0  0  0
  -24.9310  -34.1390   24.9790 H   0  0  0  0  0  0  0  0  0  0  0  0
  -24.1760  -36.8480   23.0700 C   0  0  0  0  0  1  0  0  0  0  0  0
  -25.4090  -36.4200   23.8820 C   0  0  0  0  0  3  0  0  0  0  0  0
  -27.5530  -37.2700   24.7250 C   0  0  0  0  0  1  0  0  0  0  0  0
  -26.4600  -37.4550   23.7730 N   0  0  0  0  0  0  0  0  0  0  0  0
  -26.0680  -38.3820   23.9180 H   0  0  0  0  0  0  0  0  0  0  0  0
  -26.3260  -31.7970   25.1180 C   0  0  1  0  0  0  0  0  0  0  0  0
  -25.2410  -31.5760   26.1980 C   0  0  0  0  0  1  0  0  0  0  0  0
  -26.8880  -30.4100   24.7290 C   0  0  0  0  0  1  0  0  0  0  0  0
  -27.4940  -32.5770   25.7660 C   0  0  0  0  0  1  0  0  0  0  0  0
  1  5  1  0
  2 48  1  0
  2  4  1  0
  3  1  2  0
  3  2  1  0
  4  7  1  0
  4 16  1  0
  5 49  1  0
  5  7  2  0
  6  3  1  0
  8 16  1  0
  9 14  1  0
 10 11  1  0
 10  9  1  0
 12 11  1  0
 12 21  1  0
 12 13  1  0
 14  8  1  0
 14 13  1  0
 15  8  2  0
 16 17  1  0
 18 19  2  0
 19 20  1  0
 19 38  1  0
 20 23  1  0
 21 18  1  0
 21 22  1  0
 22 20  2  0
 23 24  1  0
 24 25  2  0
 26 29  1  0
 26 25  1  0
 27 26  2  0
 28 27  1  0
 28 23  2  0
 29 30  1  0
 30 31  1  0
 31 32  2  0
 33 32  1  0
 33 37  1  0
 34 33  2  0
 35 30  2  0
 35 34  1  0
 36 35  1  0
 38 39  1  0
 39 42  1  0
 39 41  1  0
 40 38  2  0
 43 18  1  0
 44 43  1  0
 45 43  1  0
 47 48  1  0
 47 46  1  0
 48 46  1  0
 50 51  2  0
 50 49  1  0
 52 53  1  0
 52 51  1  0
 54 65  2  0
 55 53  1  0
 55 60  1  0
 56 64  1  0
 56 66  1  0
 57 63  1  0
 57 59  1  0
 58 64  1  0
 59 58  1  0
 60 59  2  0
 61 62  1  0
 61 55  2  0
 62 57  2  0
 63 56  1  0
 64 54  1  0
 66 68  2  0
 67 66  1  0
 69 67  1  0
 70 79  2  0
 70 75  1  0
 71 67  1  0
 71 75  1  0
 72 71  1  0
 73 74  1  0
 73 72  1  0
 74 70  1  0
 75 76  2  0
 76 77  1  0
 78 77  2  0
 79 78  1  0
 80 54  1  0
 80 81  1  0
 80 90  1  0
 81 84  1  0
 82 86  1  0
 82 81  1  0
 83 82  2  0
 86 85  1  0
 88 86  1  0
 88 89  1  0
 88 87  1  0
 90 93  1  1
 90 91  1  0
 92 90  1  0
M  ISO  4   8 100  16 100  52 101  53 101
M  END
>  <TORSDO>  (32) 
F 21

>  <SCORE>  (32) 
-13.262

>  <name>  (32) 
31

>  <ligand_id>  (32) 
31

>  <original_smiles>  (32) 
[H]c1c([H])c([H])c2c(c1[H])C([H])([H])C([H])([H])C([H])([H])C2([H])N([H])C(=O)C1([H])N(C(=O)C([H])(N([H])C(=O)C([H])(N([H])C([H])([H])[H])C([H])([H])[H])C(C([H])([H])[H])(C([H])([H])[H])C([H])([H])[H])C([H])([H])c2c([H])c(OC([H])([H])C([H])([H])C([H])([H])Oc3nc(N([H])C(=O)N4C([H])([H])C([H])([H])C([H])([H])C([H])(n5nc(-c6c([H])c([H])c(Oc7c([H])c([H])c(F)c([H])c7F)c([H])c6[H])c(C(=O)N([H])[H])c5N([H])[H])C4([H])[H])c(C4([H])C([H])([H])C4([H])[H])c(C([H])([H])[H])c3[H])c([H])c([H])c2C1([H])[H]

>  <smiles>  (32) 
[H]c1c([H])c([H])c2c(c1[H])C([H])([H])C([H])([H])C([H])([H])C2([H])N([H])C(=O)C1([H])N(C(=O)C([H])(N([H])C(=O)C([H])(N([H])C([H])([H])[H])C([H])([H])[H])C(C([H])([H])[H])(C([H])([H])[H])C([H])([H])[H])C([H])([H])c2c([H])c(OC([H])([H])C([H])([H])C([H])([H])Oc3nc(N([H])C(=O)N4C([H])([H])C([H])([H])C([H])([H])C([H])(n5nc(-c6c([H])c([H])c(Oc7c([H])c([H])c(F)c([H])c7F)c([H])c6[H])c(C(=O)N([H])[H])c5N([H])[H])C4([H])[H])c(C4([H])C([H])([H])C4([H])[H])c(C([H])([H])[H])c3[H])c([H])c([H])c2C1([H])[H]

$$$$
32:0:0
     RDKit          3D

 88 96  0  0  1  0  0  0  0  0999 V2000
  -30.3720  -15.2760   20.3720 C   0  0  0  0  0  0  0  0  0  0  0  0
  -30.4170  -12.8430   19.4950 C   0  0  0  0  0  2  0  0  0  0  0  0
  -29.5050  -12.6510   18.2570 C   0  0  0  0  0  2  0  0  0  0  0  0
  -28.0480  -12.3760   18.6810 C   0  0  0  0  0  2  0  0  0  0  0  0
  -27.5810  -13.3370   19.8030 C   0  0  0  0  0  3  0  0  0  0  0  0
  -28.6170  -13.4550   20.9390 C   0  0  0  0  0  2  0  0  0  0  0  0
  -29.8550  -13.9600   20.3270 N   0  0  0  0  0  0  0  0  0  0  0  0
  -31.5970  -15.3330   20.1830 O   0  0  0  0  0  0  0  0  0  0  0  0
  -28.0210  -20.2610   20.0570 C   0  0  0  0  0  3  0  0  0  0  0  0
  -28.2110  -18.7900   20.0600 C   0  0  0  0  0  3  0  0  0  0  0  0
  -29.0320  -21.2400   20.4050 C   0  0  0  0  0  0  0  0  0  0  0  0
  -30.2040  -20.4240   20.7420 C   0  0  0  0  0  0  0  0  0  0  0  0
  -29.4290  -18.0540   20.3830 C   0  0  0  0  0  0  0  0  0  0  0  0
  -31.4440  -21.1280   21.2570 C   0  0  0  0  0  1  0  0  0  0  0  0
  -30.3800  -19.0100   20.7180 N   0  0  0  0  0  0  0  0  0  0  0  0
  -29.4860  -16.4510   20.3970 N   0  0  0  0  0  0  0  0  0  0  0  0
  -28.5480  -16.0890   20.3900 H   0  0  0  0  0  0  0  0  0  0  0  0
  -25.2020  -13.8910   20.5450 C   0  0  0  0  0  0  0  0  0  0  0  0
  -24.1410  -13.1100   20.9120 C   0  0  0  0  0  0  0  0  0  0  0  0
  -24.6140  -11.7630   20.8790 C   0  0  0  0  0  0  0  0  0  0  0  0
  -26.2490  -13.0190   20.3020 N   0  0  0  0  0  0  0  0  0  0  0  0
  -25.9090  -11.7330   20.5730 N   0  0  0  0  0  0  0  0  0  0  0  0
  -23.8900  -10.4970   21.0610 C   0  0  0  0  0  0  0  0  0  0  0  0
  -24.3140   -9.5320   22.0000 C   0  0  0  0  0  3  0  0  0  0  0  0
  -23.5900   -8.3310   22.1700 C   0  0  0  0  0  3  0  0  0  0  0  0
  -22.4300   -8.0880   21.3980 C   0  0  0  0  0  0  0  0  0  0  0  0
  -22.0240   -9.0420   20.4470 C   0  0  0  0  0  3  0  0  0  0  0  0
  -22.7490  -10.2340   20.2770 C   0  0  0  0  0  3  0  0  0  0  0  0
  -21.6780   -6.9410   21.4760 O   0  0  0  0  0  0  0  0  0  0  0  0
  -21.6040   -6.2070   22.6330 C   0  0  0  0  0  0  0  0  0  0  0  0
  -21.1160   -6.7600   23.8380 C   0  0  0  0  0  3  0  0  0  0  0  0
  -20.9920   -5.9500   24.9830 C   0  0  0  0  0  3  0  0  0  0  0  0
  -21.3460   -4.5900   24.9270 C   0  0  0  0  0  0  0  0  0  0  0  0
  -21.8260   -4.0360   23.7270 C   0  0  0  0  0  3  0  0  0  0  0  0
  -21.9520   -4.8420   22.5830 C   0  0  0  0  0  0  0  0  0  0  0  0
  -22.3970   -4.2980   21.4240 F   0  0  0  0  0  0  0  0  0  0  0  0
  -21.2190   -3.8100   26.0260 F   0  0  0  0  0  0  0  0  0  0  0  0
  -22.7400  -13.5830   21.1670 C   0  0  0  0  0  0  0  0  0  0  0  0
  -22.0030  -12.8910   22.0290 N   0  0  0  0  0  0  0  0  0  0  0  0
  -22.3050  -14.6040   20.6340 O   0  0  0  0  0  0  0  0  0  0  0  0
  -22.3670  -12.0700   22.4890 H   0  0  0  0  0  0  0  0  0  0  0  0
  -21.0620  -13.1960   22.2360 H   0  0  0  0  0  0  0  0  0  0  0  0
  -25.3530  -15.2620   20.3660 N   0  0  0  0  0  0  0  0  0  0  0  0
  -24.5620  -15.8920   20.4460 H   0  0  0  0  0  0  0  0  0  0  0  0
  -26.1560  -15.6930   19.9290 H   0  0  0  0  0  0  0  0  0  0  0  0
  -29.0140  -22.9880   20.4800 C   0  0  0  0  0  3  0  0  0  0  0  0
  -27.9300  -24.3570   20.1750 C   0  0  0  0  0  3  0  0  0  0  0  0
  -28.1750  -25.9640   20.3350 O   0  0  0  0  0  0  0  0  0  0  0  0
  -24.6210  -31.8980   23.2640 C   0  0  0  0  0  0  0  0  0  0  0  0
  -27.1640  -27.0410   20.2620 C   0  0  0  0  0  0  0  0  0  0  0  0
  -23.4250  -30.5050   21.6210 C   0  0  0  0  0  3  0  0  0  0  0  0
  -24.8700  -28.8970   20.2090 C   0  0  0  0  0  0  0  0  0  0  0  0
  -25.9900  -30.7200   21.4780 C   0  0  0  0  0  2  0  0  0  0  0  0
  -26.0570  -29.3120   20.8260 C   0  0  0  0  0  0  0  0  0  0  0  0
  -27.2010  -28.4020   20.8290 C   0  0  0  0  0  3  0  0  0  0  0  0
  -25.9530  -26.7700   19.5920 C   0  0  0  0  0  3  0  0  0  0  0  0
  -24.8410  -27.6450   19.5720 C   0  0  0  0  0  3  0  0  0  0  0  0
  -23.6550  -29.8180   20.2470 C   0  0  0  0  0  2  0  0  0  0  0  0
  -24.7000  -31.0670   22.1750 N   0  0  0  0  0  0  0  0  0  0  0  0
  -23.5310  -32.1890   23.7850 O   0  0  0  0  0  0  0  0  0  0  0  0
  -22.7270  -29.5120   22.5860 C   0  0  0  0  0  0  0  0  0  0  0  0
  -21.3980  -29.3470   22.4560 N   0  0  0  0  0  0  0  0  0  0  0  0
  -23.3890  -28.8880   23.4200 O   0  0  0  0  0  0  0  0  0  0  0  0
  -20.9160  -29.9040   21.7630 H   0  0  0  0  0  0  0  0  0  0  0  0
  -18.0100  -28.1420   22.9540 C   0  0  0  0  0  0  0  0  0  0  0  0
  -20.5690  -28.4110   23.2250 C   0  0  0  0  0  3  0  0  0  0  0  0
  -20.6730  -26.9760   22.6570 C   0  0  0  0  0  2  0  0  0  0  0  0
  -19.5770  -26.6490   21.6400 C   0  0  0  0  0  2  0  0  0  0  0  0
  -18.1920  -26.7920   22.2780 C   0  0  0  0  0  2  0  0  0  0  0  0
  -19.1270  -28.9080   23.3840 C   0  0  0  0  0  0  0  0  0  0  0  0
  -18.9020  -30.1690   23.9790 C   0  0  0  0  0  3  0  0  0  0  0  0
  -17.5960  -30.6660   24.1420 C   0  0  0  0  0  3  0  0  0  0  0  0
  -16.4940  -29.8980   23.7270 C   0  0  0  0  0  3  0  0  0  0  0  0
  -16.7020  -28.6380   23.1400 C   0  0  0  0  0  3  0  0  0  0  0  0
  -25.8940  -32.5370   23.8970 C   0  0  0  0  0  3  0  0  0  0  0  0
  -25.5870  -33.9430   24.2160 N   0  0  0  0  0  0  0  0  0  0  0  0
  -25.9140  -34.9930   23.4500 C   0  0  0  0  0  0  0  0  0  0  0  0
  -26.5690  -34.8790   22.4120 O   0  0  0  0  0  0  0  0  0  0  0  0
  -25.0040  -34.1040   25.0260 H   0  0  0  0  0  0  0  0  0  0  0  0
  -24.1880  -36.7940   23.1160 C   0  0  0  0  0  1  0  0  0  0  0  0
  -25.4430  -36.3890   23.9060 C   0  0  0  0  0  3  0  0  0  0  0  0
  -27.5920  -37.2820   24.6920 C   0  0  0  0  0  1  0  0  0  0  0  0
  -26.4770  -37.4380   23.7620 N   0  0  0  0  0  0  0  0  0  0  0  0
  -26.0750  -38.3610   23.9010 H   0  0  0  0  0  0  0  0  0  0  0  0
  -26.3860  -31.7810   25.1950 C   0  0  1  0  0  0  0  0  0  0  0  0
  -25.2780  -31.5700   26.2530 C   0  0  0  0  0  1  0  0  0  0  0  0
  -26.9610  -30.3900   24.8400 C   0  0  0  0  0  1  0  0  0  0  0  0
  -27.5360  -32.5740   25.8590 C   0  0  0  0  0  1  0  0  0  0  0  0
  1 16  1  0
  2  7  1  0
  3  4  1  0
  3  2  1  0
  5  4  1  0
  5 21  1  0
  5  6  1  0
  7  1  1  0
  7  6  1  0
  8  1  2  0
  9 10  2  0
  9 11  1  0
 10 13  1  0
 11 46  1  0
 11 12  2  0
 12 14  1  0
 13 16  1  0
 13 15  2  0
 15 12  1  0
 17 16  1  0
 18 19  2  0
 19 38  1  0
 20 19  1  0
 20 23  1  0
 21 18  1  0
 21 22  1  0
 22 20  2  0
 23 24  1  0
 24 25  2  0
 26 29  1  0
 26 25  1  0
 27 26  2  0
 28 27  1  0
 28 23  2  0
 29 30  1  0
 30 31  1  0
 31 32  2  0
 33 32  1  0
 33 37  1  0
 34 33  2  0
 35 30  2  0
 35 34  1  0
 36 35  1  0
 38 39  1  0
 39 42  1  0
 39 41  1  0
 40 38  2  0
 43 44  1  0
 43 18  1  0
 45 43  1  0
 47 48  1  0
 47 46  2  0
 49 60  2  0
 50 48  1  0
 50 55  1  0
 51 59  1  0
 51 61  1  0
 52 58  1  0
 52 54  1  0
 53 59  1  0
 54 55  2  0
 54 53  1  0
 56 50  2  0
 57 56  1  0
 57 52  2  0
 58 51  1  0
 59 49  1  0
 61 63  2  0
 62 61  1  0
 64 62  1  0
 65 74  2  0
 65 70  1  0
 66 62  1  0
 66 70  1  0
 67 66  1  0
 68 69  1  0
 68 67  1  0
 69 65  1  0
 70 71  2  0
 71 72  1  0
 73 72  2  0
 74 73  1  0
 75 49  1  0
 75 76  1  0
 75 85  1  0
 76 79  1  0
 77 81  1  0
 77 76  1  0
 78 77  2  0
 81 80  1  0
 83 84  1  0
 83 81  1  0
 83 82  1  0
 85 88  1  1
 85 86  1  0
 87 85  1  0
M  ISO  4   1 100  16 100  47 101  48 101
M  END
>  <TORSDO>  (33) 
F 17

>  <SCORE>  (33) 
-16.289

>  <name>  (33) 
32

>  <ligand_id>  (33) 
32

>  <original_smiles>  (33) 
[H]c1c(N([H])C(=O)N2C([H])([H])C([H])([H])C([H])([H])C([H])(n3nc(-c4c([H])c([H])c(Oc5c([H])c([H])c(F)c([H])c5F)c([H])c4[H])c(C(=O)N([H])[H])c3N([H])[H])C2([H])[H])nc(C([H])([H])[H])c(C([H])([H])C([H])([H])Oc2c([H])c([H])c3c(c2[H])C([H])([H])N(C(=O)C([H])(N([H])C(=O)C([H])(N([H])C([H])([H])[H])C([H])([H])[H])C(C([H])([H])[H])(C([H])([H])[H])C([H])([H])[H])C([H])(C(=O)N([H])C2([H])c4c([H])c([H])c([H])c([H])c4C([H])([H])C([H])([H])C2([H])[H])C3([H])[H])c1[H]

>  <smiles>  (33) 
[H]c1c(N([H])C(=O)N2C([H])([H])C([H])([H])C([H])([H])C([H])(n3nc(-c4c([H])c([H])c(Oc5c([H])c([H])c(F)c([H])c5F)c([H])c4[H])c(C(=O)N([H])[H])c3N([H])[H])C2([H])[H])nc(C([H])([H])[H])c(C([H])([H])C([H])([H])Oc2c([H])c([H])c3c(c2[H])C([H])([H])N(C(=O)C([H])(N([H])C(=O)C([H])(N([H])C([H])([H])[H])C([H])([H])[H])C(C([H])([H])[H])(C([H])([H])[H])C([H])([H])[H])C([H])(C(=O)N([H])C2([H])c4c([H])c([H])c([H])c([H])c4C([H])([H])C([H])([H])C2([H])[H])C3([H])[H])c1[H]

$$$$
33:0:0
     RDKit          3D

 93102  0  0  1  0  0  0  0  0999 V2000
  -29.3960  -21.1800   19.1430 C   0  0  0  0  0  3  0  0  0  0  0  0
  -28.9790  -22.5470   18.9100 C   0  0  0  0  0  3  0  0  0  0  0  0
  -29.6780  -20.6590   20.4390 C   0  0  0  0  0  0  0  0  0  0  0  0
  -28.8180  -23.5270   19.9420 C   0  0  0  0  0  0  0  0  0  0  0  0
  -29.5220  -21.7170   21.4280 C   0  0  0  0  0  0  0  0  0  0  0  0
  -29.8230  -21.4740   22.9020 C   0  0  0  0  0  1  0  0  0  0  0  0
  -29.1010  -23.0290   21.1910 N   0  0  0  0  0  0  0  0  0  0  0  0
  -30.8100  -15.1640   19.9600 C   0  0  0  0  0  0  0  0  0  0  0  0
  -30.5300  -12.8640   18.9530 C   0  0  0  0  0  2  0  0  0  0  0  0
  -29.5290  -12.8030   17.7810 C   0  0  0  0  0  2  0  0  0  0  0  0
  -28.0880  -12.6170   18.2850 C   0  0  0  0  0  2  0  0  0  0  0  0
  -27.7580  -13.5070   19.5160 C   0  0  0  0  0  3  0  0  0  0  0  0
  -28.8830  -13.5360   20.5770 C   0  0  0  0  0  2  0  0  0  0  0  0
  -30.1250  -13.9460   19.9030 N   0  0  0  0  0  0  0  0  0  0  0  0
  -31.9220  -15.1920   19.4210 O   0  0  0  0  0  0  0  0  0  0  0  0
  -32.3300  -17.7720   21.3610 C   0  0  0  0  0  2  0  0  0  0  0  0
  -31.2690  -16.7100   21.7630 C   0  0  0  0  0  2  0  0  0  0  0  0
  -30.2500  -19.1300   20.7360 C   0  0  0  0  0  3  0  0  0  0  0  0
  -31.7950  -19.0590   20.6820 C   0  0  0  0  0  3  0  0  0  0  0  0
  -29.6730  -17.6510   20.1980 C   0  0  0  0  0  3  0  0  0  0  0  0
  -32.3950  -19.2120   19.2700 C   0  0  0  0  0  1  0  0  0  0  0  0
  -28.2210  -17.5190   20.6670 C   0  0  0  0  0  1  0  0  0  0  0  0
  -30.3740  -16.3240   20.6600 N   0  0  0  0  0  0  0  0  0  0  0  0
  -25.4120  -14.0340   20.4140 C   0  0  0  0  0  0  0  0  0  0  0  0
  -24.3810  -13.2450   20.8290 C   0  0  0  0  0  0  0  0  0  0  0  0
  -24.8500  -11.8990   20.7180 C   0  0  0  0  0  0  0  0  0  0  0  0
  -26.4520  -13.1800   20.0860 N   0  0  0  0  0  0  0  0  0  0  0  0
  -26.1210  -11.8840   20.3290 N   0  0  0  0  0  0  0  0  0  0  0  0
  -24.1400  -10.6310   20.9100 C   0  0  0  0  0  0  0  0  0  0  0  0
  -24.5720   -9.6820   21.8610 C   0  0  0  0  0  3  0  0  0  0  0  0
  -23.8610   -8.4750   22.0390 C   0  0  0  0  0  3  0  0  0  0  0  0
  -22.7020   -8.2140   21.2710 C   0  0  0  0  0  0  0  0  0  0  0  0
  -22.2930   -9.1520   20.3050 C   0  0  0  0  0  3  0  0  0  0  0  0
  -23.0030  -10.3500   20.1270 C   0  0  0  0  0  3  0  0  0  0  0  0
  -21.9550   -7.0650   21.3650 O   0  0  0  0  0  0  0  0  0  0  0  0
  -21.8190   -6.3890   22.5510 C   0  0  0  0  0  0  0  0  0  0  0  0
  -21.2360   -6.9850   23.6910 C   0  0  0  0  0  3  0  0  0  0  0  0
  -21.0510   -6.2280   24.8650 C   0  0  0  0  0  3  0  0  0  0  0  0
  -21.4390   -4.8760   24.9000 C   0  0  0  0  0  0  0  0  0  0  0  0
  -22.0150   -4.2800   23.7650 C   0  0  0  0  0  3  0  0  0  0  0  0
  -22.2000   -5.0330   22.5920 C   0  0  0  0  0  0  0  0  0  0  0  0
  -22.7340   -4.4450   21.4940 F   0  0  0  0  0  0  0  0  0  0  0  0
  -21.2550   -4.1450   26.0260 F   0  0  0  0  0  0  0  0  0  0  0  0
  -23.0020  -13.7050   21.2070 C   0  0  0  0  0  0  0  0  0  0  0  0
  -22.3280  -12.9760   22.0880 N   0  0  0  0  0  0  0  0  0  0  0  0
  -22.5310  -14.7480   20.7510 O   0  0  0  0  0  0  0  0  0  0  0  0
  -22.7230  -12.1400   22.4930 H   0  0  0  0  0  0  0  0  0  0  0  0
  -21.3990  -13.2580   22.3710 H   0  0  0  0  0  0  0  0  0  0  0  0
  -25.5350  -15.4110   20.2640 N   0  0  0  0  0  0  0  0  0  0  0  0
  -24.7610  -16.0390   20.4480 H   0  0  0  0  0  0  0  0  0  0  0  0
  -26.3500  -15.8850   19.8990 H   0  0  0  0  0  0  0  0  0  0  0  0
  -27.9800  -24.9290   19.6860 C   0  0  0  0  0  2  0  0  0  0  0  0
  -28.2690  -26.3990   20.0880 O   0  0  0  0  0  0  0  0  0  0  0  0
  -24.6340  -31.9490   23.2560 C   0  0  0  0  0  0  0  0  0  0  0  0
  -27.2060  -27.3770   20.0240 C   0  0  0  0  0  0  0  0  0  0  0  0
  -23.4140  -30.5990   21.5930 C   0  0  0  0  0  3  0  0  0  0  0  0
  -24.8500  -29.0940   20.0820 C   0  0  0  0  0  0  0  0  0  0  0  0
  -25.9600  -30.8890   21.3990 C   0  0  0  0  0  2  0  0  0  0  0  0
  -26.0340  -29.5240   20.6950 C   0  0  0  0  0  0  0  0  0  0  0  0
  -27.2040  -28.6820   20.6590 C   0  0  0  0  0  3  0  0  0  0  0  0
  -25.9980  -27.0550   19.3540 C   0  0  0  0  0  3  0  0  0  0  0  0
  -24.8440  -27.8710   19.3940 C   0  0  0  0  0  3  0  0  0  0  0  0
  -23.6120  -29.9720   20.1880 C   0  0  0  0  0  2  0  0  0  0  0  0
  -24.6890  -31.1650   22.1370 N   0  0  0  0  0  0  0  0  0  0  0  0
  -23.5580  -32.2110   23.8150 O   0  0  0  0  0  0  0  0  0  0  0  0
  -22.7660  -29.5540   22.5330 C   0  0  0  0  0  0  0  0  0  0  0  0
  -21.4430  -29.3560   22.4040 N   0  0  0  0  0  0  0  0  0  0  0  0
  -23.4520  -28.9230   23.3420 O   0  0  0  0  0  0  0  0  0  0  0  0
  -20.9460  -29.9160   21.7280 H   0  0  0  0  0  0  0  0  0  0  0  0
  -18.0890  -28.0730   22.8960 C   0  0  0  0  0  0  0  0  0  0  0  0
  -20.6460  -28.3830   23.1540 C   0  0  0  0  0  3  0  0  0  0  0  0
  -20.7740  -26.9670   22.5510 C   0  0  0  0  0  2  0  0  0  0  0  0
  -19.6770  -26.6440   21.5340 C   0  0  0  0  0  2  0  0  0  0  0  0
  -18.2920  -26.7450   22.1830 C   0  0  0  0  0  2  0  0  0  0  0  0
  -19.1970  -28.8480   23.3350 C   0  0  0  0  0  0  0  0  0  0  0  0
  -18.9550  -30.0870   23.9630 C   0  0  0  0  0  3  0  0  0  0  0  0
  -17.6430  -30.5560   24.1570 C   0  0  0  0  0  3  0  0  0  0  0  0
  -16.5510  -29.7790   23.7300 C   0  0  0  0  0  3  0  0  0  0  0  0
  -16.7760  -28.5410   23.1020 C   0  0  0  0  0  3  0  0  0  0  0  0
  -25.9230  -32.5700   23.8760 C   0  0  0  0  0  3  0  0  0  0  0  0
  -25.6240  -33.9710   24.2130 N   0  0  0  0  0  0  0  0  0  0  0  0
  -25.9260  -35.0240   23.4410 C   0  0  0  0  0  0  0  0  0  0  0  0
  -26.5600  -34.9210   22.3870 O   0  0  0  0  0  0  0  0  0  0  0  0
  -25.0510  -34.1270   25.0280 H   0  0  0  0  0  0  0  0  0  0  0  0
  -24.1700  -36.8080   23.1820 C   0  0  0  0  0  1  0  0  0  0  0  0
  -25.4580  -36.4110   23.9180 C   0  0  0  0  0  3  0  0  0  0  0  0
  -27.6230  -37.3210   24.6360 C   0  0  0  0  0  1  0  0  0  0  0  0
  -26.4750  -37.4710   23.7450 N   0  0  0  0  0  0  0  0  0  0  0  0
  -26.0690  -38.3890   23.9040 H   0  0  0  0  0  0  0  0  0  0  0  0
  -26.4340  -31.7950   25.1550 C   0  0  1  0  0  0  0  0  0  0  0  0
  -25.3310  -31.5570   26.2120 C   0  0  0  0  0  1  0  0  0  0  0  0
  -27.0200  -30.4150   24.7760 C   0  0  0  0  0  1  0  0  0  0  0  0
  -27.5850  -32.5910   25.8200 C   0  0  0  0  0  1  0  0  0  0  0  0
  1  3  1  0
  2  1  2  0
  2  4  1  0
  3  5  2  0
  4  7  2  0
  5  6  1  0
  7  5  1  0
  8 23  1  0
  9 14  1  0
 10 11  1  0
 10  9  1  0
 12 11  1  0
 12 27  1  0
 12 13  1  0
 14  8  1  0
 14 13  1  0
 15  8  2  0
 16 17  1  0
 18  3  1  0
 19 21  1  0
 19 18  1  0
 19 16  1  0
 20 23  1  0
 20 22  1  0
 20 18  1  0
 23 17  1  0
 24 25  2  0
 25 44  1  0
 26 25  1  0
 26 29  1  0
 27 28  1  0
 27 24  1  0
 28 26  2  0
 29 30  1  0
 30 31  2  0
 32 35  1  0
 32 31  1  0
 33 32  2  0
 34 33  1  0
 34 29  2  0
 35 36  1  0
 36 41  2  0
 36 37  1  0
 37 38  2  0
 38 39  1  0
 39 43  1  0
 40 39  2  0
 41 40  1  0
 42 41  1  0
 44 45  1  0
 45 48  1  0
 45 47  1  0
 46 44  2  0
 49 24  1  0
 49 50  1  0
 51 49  1  0
 52  4  1  0
 52 53  1  0
 54 65  2  0
 55 53  1  0
 55 60  1  0
 56 64  1  0
 56 66  1  0
 57 63  1  0
 57 59  1  0
 58 64  1  0
 59 58  1  0
 60 59  2  0
 61 62  1  0
 61 55  2  0
 62 57  2  0
 63 56  1  0
 64 54  1  0
 66 68  2  0
 67 66  1  0
 69 67  1  0
 70 79  2  0
 70 75  1  0
 71 67  1  0
 71 75  1  0
 72 71  1  0
 73 74  1  0
 73 72  1  0
 74 70  1  0
 75 76  2  0
 76 77  1  0
 78 77  2  0
 79 78  1  0
 80 54  1  0
 80 81  1  0
 80 90  1  0
 81 84  1  0
 82 86  1  0
 82 81  1  0
 83 82  2  0
 86 85  1  0
 88 89  1  0
 88 86  1  0
 88 87  1  0
 90 93  1  1
 90 91  1  0
 92 90  1  0
M  ISO  4   8 100  23 100  52 101  53 101
M  END
>  <TORSDO>  (34) 
F 17

>  <SCORE>  (34) 
-14.638

>  <name>  (34) 
33

>  <ligand_id>  (34) 
33

>  <original_smiles>  (34) 
[H]c1c(C([H])([H])Oc2c([H])c([H])c3c(c2[H])C([H])([H])N(C(=O)C([H])(N([H])C(=O)C([H])(N([H])C([H])([H])[H])C([H])([H])[H])C(C([H])([H])[H])(C([H])([H])[H])C([H])([H])[H])C([H])(C(=O)N([H])C2([H])c4c([H])c([H])c([H])c([H])c4C([H])([H])C([H])([H])C2([H])[H])C3([H])[H])nc(C([H])([H])[H])c(C2([H])C([H])(C([H])([H])[H])N(C(=O)N3C([H])([H])C([H])([H])C([H])([H])C([H])(n4nc(-c5c([H])c([H])c(Oc6c([H])c([H])c(F)c([H])c6F)c([H])c5[H])c(C(=O)N([H])[H])c4N([H])[H])C3([H])[H])C([H])([H])C([H])([H])C2([H])C([H])([H])[H])c1[H]

>  <smiles>  (34) 
[H]c1c(C([H])([H])Oc2c([H])c([H])c3c(c2[H])C([H])([H])N(C(=O)C([H])(N([H])C(=O)C([H])(N([H])C([H])([H])[H])C([H])([H])[H])C(C([H])([H])[H])(C([H])([H])[H])C([H])([H])[H])C([H])(C(=O)N([H])C2([H])c4c([H])c([H])c([H])c([H])c4C([H])([H])C([H])([H])C2([H])[H])C3([H])[H])nc(C([H])([H])[H])c(C2([H])C([H])(C([H])([H])[H])N(C(=O)N3C([H])([H])C([H])([H])C([H])([H])C([H])(n4nc(-c5c([H])c([H])c(Oc6c([H])c([H])c(F)c([H])c6F)c([H])c5[H])c(C(=O)N([H])[H])c4N([H])[H])C3([H])[H])C([H])([H])C([H])([H])C2([H])C([H])([H])[H])c1[H]

$$$$
34:0:0
     RDKit          3D

 93101  0  0  1  0  0  0  0  0999 V2000
  -27.9710  -20.3070   20.2470 C   0  0  0  0  0  2  0  0  0  0  0  0
  -30.3760  -20.1260   20.4270 C   0  0  0  0  0  3  0  0  0  0  0  0
  -29.1810  -21.1760   20.6380 C   0  0  0  0  0  3  0  0  0  0  0  0
  -29.7430  -18.6700   20.1540 C   0  0  0  0  0  3  0  0  0  0  0  0
  -28.3220  -18.8750   20.4930 N   0  0  0  0  0  4  0  0  0  0  0  0
  -27.7330  -18.2660   19.9480 H   0  0  0  0  0  0  0  0  0  0  0  0
  -28.1800  -18.6640   21.4700 H   0  0  0  0  0  0  0  0  0  0  0  0
  -32.2430  -21.8330   19.8380 C   0  0  0  0  0  1  0  0  0  0  0  0
  -32.5040  -19.4870   19.0810 C   0  0  0  0  0  1  0  0  0  0  0  0
  -31.4590  -20.5790   19.3910 C   0  0  0  0  0  3  0  0  0  0  0  0
  -30.4240  -17.3440   20.8210 C   0  0  0  0  0  2  0  0  0  0  0  0
  -30.6230  -14.7580   20.4020 C   0  0  0  0  0  0  0  0  0  0  0  0
  -30.3890  -12.4990   19.3640 C   0  0  0  0  0  2  0  0  0  0  0  0
  -29.4450  -12.5710   18.1440 C   0  0  0  0  0  2  0  0  0  0  0  0
  -27.9780  -12.3940   18.5830 C   0  0  0  0  0  2  0  0  0  0  0  0
  -27.6070  -13.2800   19.8030 C   0  0  0  0  0  3  0  0  0  0  0  0
  -28.6720  -13.1980   20.9190 C   0  0  0  0  0  2  0  0  0  0  0  0
  -29.9650  -13.5510   20.3160 N   0  0  0  0  0  0  0  0  0  0  0  0
  -31.8160  -14.8300   20.1010 O   0  0  0  0  0  0  0  0  0  0  0  0
  -29.8960  -15.9150   20.6260 N   0  0  0  0  0  0  0  0  0  0  0  0
  -28.9090  -15.7760   20.7840 H   0  0  0  0  0  0  0  0  0  0  0  0
  -25.2170  -13.8580   20.5340 C   0  0  0  0  0  0  0  0  0  0  0  0
  -24.1560  -13.0790   20.9080 C   0  0  0  0  0  0  0  0  0  0  0  0
  -24.6260  -11.7290   20.8760 C   0  0  0  0  0  0  0  0  0  0  0  0
  -26.2660  -12.9840   20.2970 N   0  0  0  0  0  0  0  0  0  0  0  0
  -25.9160  -11.7010   20.5670 N   0  0  0  0  0  0  0  0  0  0  0  0
  -23.9060  -10.4630   21.0630 C   0  0  0  0  0  0  0  0  0  0  0  0
  -24.3480   -9.4930   21.9890 C   0  0  0  0  0  3  0  0  0  0  0  0
  -23.6290   -8.2920   22.1660 C   0  0  0  0  0  3  0  0  0  0  0  0
  -22.4520   -8.0520   21.4150 C   0  0  0  0  0  0  0  0  0  0  0  0
  -22.0300   -9.0110   20.4770 C   0  0  0  0  0  3  0  0  0  0  0  0
  -22.7500  -10.2040   20.2990 C   0  0  0  0  0  3  0  0  0  0  0  0
  -21.7030   -6.9040   21.5030 O   0  0  0  0  0  0  0  0  0  0  0  0
  -21.6700   -6.1520   22.6490 C   0  0  0  0  0  0  0  0  0  0  0  0
  -21.2520   -6.6940   23.8850 C   0  0  0  0  0  3  0  0  0  0  0  0
  -21.1680   -5.8680   25.0230 C   0  0  0  0  0  3  0  0  0  0  0  0
  -21.4870   -4.5000   24.9280 C   0  0  0  0  0  0  0  0  0  0  0  0
  -21.8950   -3.9570   23.6960 C   0  0  0  0  0  3  0  0  0  0  0  0
  -21.9830   -4.7810   22.5600 C   0  0  0  0  0  0  0  0  0  0  0  0
  -22.3570   -4.2490   21.3720 F   0  0  0  0  0  0  0  0  0  0  0  0
  -21.3980   -3.7040   26.0190 F   0  0  0  0  0  0  0  0  0  0  0  0
  -22.7560  -13.5490   21.1750 C   0  0  0  0  0  0  0  0  0  0  0  0
  -22.0280  -12.8460   22.0360 N   0  0  0  0  0  0  0  0  0  0  0  0
  -22.3160  -14.5730   20.6550 O   0  0  0  0  0  0  0  0  0  0  0  0
  -22.3960  -12.0140   22.4760 H   0  0  0  0  0  0  0  0  0  0  0  0
  -21.0880  -13.1410   22.2580 H   0  0  0  0  0  0  0  0  0  0  0  0
  -25.3740  -15.2280   20.3500 N   0  0  0  0  0  0  0  0  0  0  0  0
  -24.5950  -15.8710   20.4280 H   0  0  0  0  0  0  0  0  0  0  0  0
  -26.1870  -15.6420   19.9150 H   0  0  0  0  0  0  0  0  0  0  0  0
  -29.1720  -22.5050   19.9520 O   0  0  0  0  0  0  0  0  0  0  0  0
  -28.5970  -23.7200   20.6020 C   0  0  0  0  0  2  0  0  0  0  0  0
  -28.4700  -25.0730   19.7200 C   0  0  0  0  0  2  0  0  0  0  0  0
  -28.3620  -26.4500   20.3130 O   0  0  0  0  0  0  0  0  0  0  0  0
  -24.5920  -31.8950   23.2400 C   0  0  0  0  0  0  0  0  0  0  0  0
  -27.2260  -27.2900   20.2200 C   0  0  0  0  0  0  0  0  0  0  0  0
  -23.4020  -30.4920   21.5930 C   0  0  0  0  0  3  0  0  0  0  0  0
  -24.8630  -28.9300   20.1830 C   0  0  0  0  0  0  0  0  0  0  0  0
  -25.9460  -30.7970   21.4350 C   0  0  0  0  0  2  0  0  0  0  0  0
  -26.0270  -29.4150   20.7920 C   0  0  0  0  0  0  0  0  0  0  0  0
  -27.2050  -28.6030   20.8010 C   0  0  0  0  0  3  0  0  0  0  0  0
  -26.0300  -26.8640   19.6000 C   0  0  0  0  0  3  0  0  0  0  0  0
  -24.8700  -27.6620   19.5810 C   0  0  0  0  0  3  0  0  0  0  0  0
  -23.6290  -29.8090   20.2170 C   0  0  0  0  0  2  0  0  0  0  0  0
  -24.6660  -31.0810   22.1460 N   0  0  0  0  0  0  0  0  0  0  0  0
  -23.5040  -32.1760   23.7660 O   0  0  0  0  0  0  0  0  0  0  0  0
  -22.7310  -29.4810   22.5540 C   0  0  0  0  0  0  0  0  0  0  0  0
  -21.4060  -29.3060   22.4220 N   0  0  0  0  0  0  0  0  0  0  0  0
  -23.4060  -28.8540   23.3750 O   0  0  0  0  0  0  0  0  0  0  0  0
  -20.9230  -29.8650   21.7320 H   0  0  0  0  0  0  0  0  0  0  0  0
  -18.0220  -28.1250   22.9190 C   0  0  0  0  0  0  0  0  0  0  0  0
  -20.5810  -28.3710   23.1900 C   0  0  0  0  0  3  0  0  0  0  0  0
  -20.6750  -26.9400   22.6150 C   0  0  0  0  0  2  0  0  0  0  0  0
  -19.5750  -26.6240   21.5980 C   0  0  0  0  0  2  0  0  0  0  0  0
  -18.1920  -26.7770   22.2390 C   0  0  0  0  0  2  0  0  0  0  0  0
  -19.1430  -28.8810   23.3510 C   0  0  0  0  0  0  0  0  0  0  0  0
  -18.9310  -30.1420   23.9460 C   0  0  0  0  0  3  0  0  0  0  0  0
  -17.6280  -30.6520   24.1090 C   0  0  0  0  0  3  0  0  0  0  0  0
  -16.5200  -29.8950   23.6920 C   0  0  0  0  0  3  0  0  0  0  0  0
  -16.7180  -28.6320   23.1050 C   0  0  0  0  0  3  0  0  0  0  0  0
  -25.8710  -32.5280   23.8720 C   0  0  0  0  0  3  0  0  0  0  0  0
  -25.5630  -33.9290   24.1910 N   0  0  0  0  0  0  0  0  0  0  0  0
  -25.9020  -34.9780   23.4320 C   0  0  0  0  0  0  0  0  0  0  0  0
  -26.5770  -34.8690   22.4030 O   0  0  0  0  0  0  0  0  0  0  0  0
  -24.9710  -34.0900   24.9930 H   0  0  0  0  0  0  0  0  0  0  0  0
  -24.1820  -36.7740   23.0560 C   0  0  0  0  0  1  0  0  0  0  0  0
  -25.4160  -36.3710   23.8820 C   0  0  0  0  0  3  0  0  0  0  0  0
  -27.5450  -37.2520   24.7250 C   0  0  0  0  0  1  0  0  0  0  0  0
  -26.4510  -37.4210   23.7730 N   0  0  0  0  0  0  0  0  0  0  0  0
  -26.0470  -38.3420   23.9130 H   0  0  0  0  0  0  0  0  0  0  0  0
  -26.3730  -31.7660   25.1590 C   0  0  1  0  0  0  0  0  0  0  0  0
  -25.2680  -31.5420   26.2190 C   0  0  0  0  0  1  0  0  0  0  0  0
  -26.9530  -30.3830   24.7810 C   0  0  0  0  0  1  0  0  0  0  0  0
  -27.5230  -32.5600   25.8240 C   0  0  0  0  0  1  0  0  0  0  0  0
  1  5  1  0
  1  3  1  0
  2 10  1  0
  2  3  1  0
  3 50  1  0
  4  2  1  0
  4  5  1  0
  4 11  1  0
  5  7  1  0
  6  5  1  0
  9 10  1  0
 10  8  1  0
 12 20  1  0
 13 18  1  0
 14 15  1  0
 14 13  1  0
 16 15  1  0
 16 25  1  0
 16 17  1  0
 18 12  1  0
 18 17  1  0
 19 12  2  0
 20 21  1  0
 20 11  1  0
 22 23  2  0
 23 42  1  0
 24 23  1  0
 24 27  1  0
 25 22  1  0
 25 26  1  0
 26 24  2  0
 27 28  1  0
 28 29  2  0
 30 33  1  0
 30 29  1  0
 31 30  2  0
 32 31  1  0
 32 27  2  0
 33 34  1  0
 34 35  1  0
 35 36  2  0
 37 36  1  0
 37 41  1  0
 38 37  2  0
 39 34  2  0
 39 38  1  0
 40 39  1  0
 42 43  1  0
 43 46  1  0
 43 45  1  0
 44 42  2  0
 47 48  1  0
 47 22  1  0
 49 47  1  0
 50 51  1  0
 52 53  1  0
 52 51  1  0
 54 65  2  0
 55 53  1  0
 55 60  1  0
 56 64  1  0
 56 66  1  0
 57 63  1  0
 57 59  1  0
 58 64  1  0
 59 60  2  0
 59 58  1  0
 61 55  2  0
 62 61  1  0
 62 57  2  0
 63 56  1  0
 64 54  1  0
 66 68  2  0
 67 66  1  0
 69 67  1  0
 70 79  2  0
 70 75  1  0
 71 67  1  0
 71 75  1  0
 72 71  1  0
 73 74  1  0
 73 72  1  0
 74 70  1  0
 75 76  2  0
 76 77  1  0
 78 77  2  0
 79 78  1  0
 80 54  1  0
 80 81  1  0
 80 90  1  0
 81 84  1  0
 82 86  1  0
 82 81  1  0
 83 82  2  0
 86 85  1  0
 88 86  1  0
 88 89  1  0
 88 87  1  0
 90 93  1  1
 90 91  1  0
 92 90  1  0
M  ISO  4  12 100  20 100  52 101  53 101
M  END
>  <TORSDO>  (35) 
F 21

>  <SCORE>  (35) 
-13.657

>  <name>  (35) 
34

>  <ligand_id>  (35) 
34

>  <original_smiles>  (35) 
[H]c1c([H])c([H])c2c(c1[H])C([H])([H])C([H])([H])C([H])([H])C2([H])N([H])C(=O)C1([H])N(C(=O)C([H])(N([H])C(=O)C([H])(N([H])C([H])([H])[H])C([H])([H])[H])C(C([H])([H])[H])(C([H])([H])[H])C([H])([H])[H])C([H])([H])c2c([H])c(OC([H])([H])C([H])([H])OC3([H])C([H])(C([H])(C([H])([H])[H])C([H])([H])[H])C([H])(C([H])([H])N([H])C(=O)N4C([H])([H])C([H])([H])C([H])([H])C([H])(n5nc(-c6c([H])c([H])c(Oc7c([H])c([H])c(F)c([H])c7F)c([H])c6[H])c(C(=O)N([H])[H])c5N([H])[H])C4([H])[H])[N+]([H])([H])C3([H])[H])c([H])c([H])c2C1([H])[H]

>  <smiles>  (35) 
[H]c1c([H])c([H])c2c(c1[H])C([H])([H])C([H])([H])C([H])([H])C2([H])N([H])C(=O)C1([H])N(C(=O)C([H])(N([H])C(=O)C([H])(N([H])C([H])([H])[H])C([H])([H])[H])C(C([H])([H])[H])(C([H])([H])[H])C([H])([H])[H])C([H])([H])c2c([H])c(OC([H])([H])C([H])([H])OC3([H])C([H])(C([H])(C([H])([H])[H])C([H])([H])[H])C([H])(C([H])([H])N([H])C(=O)N4C([H])([H])C([H])([H])C([H])([H])C([H])(n5nc(-c6c([H])c([H])c(Oc7c([H])c([H])c(F)c([H])c7F)c([H])c6[H])c(C(=O)N([H])[H])c5N([H])[H])C4([H])[H])[N+]([H])([H])C3([H])[H])c([H])c([H])c2C1([H])[H]

$$$$
35:0:0
     RDKit          3D

 92101  0  0  1  0  0  0  0  0999 V2000
  -30.5060  -18.5560   19.7470 C   0  0  0  0  0  3  0  0  0  0  0  0
  -27.9860  -19.5960   20.1210 C   0  0  0  0  0  3  0  0  0  0  0  0
  -30.2520  -19.9990   19.6010 C   0  0  0  0  0  0  0  0  0  0  0  0
  -28.2380  -18.1850   20.3000 C   0  0  0  0  0  0  0  0  0  0  0  0
  -29.5160  -17.5600   20.0790 C   0  0  0  0  0  0  0  0  0  0  0  0
  -28.9460  -20.5940   19.7680 C   0  0  0  0  0  0  0  0  0  0  0  0
  -27.0450  -17.3630   20.7680 C   0  0  0  0  0  1  0  0  0  0  0  0
  -30.4460  -14.9440   19.7790 C   0  0  0  0  0  0  0  0  0  0  0  0
  -30.2850  -12.5870   18.8490 C   0  0  0  0  0  2  0  0  0  0  0  0
  -29.2490  -12.5540   17.6980 C   0  0  0  0  0  2  0  0  0  0  0  0
  -27.8220  -12.3570   18.2440 C   0  0  0  0  0  2  0  0  0  0  0  0
  -27.5190  -13.2840   19.4490 C   0  0  0  0  0  3  0  0  0  0  0  0
  -28.6590  -13.2570   20.4900 C   0  0  0  0  0  2  0  0  0  0  0  0
  -29.8910  -13.6650   19.7980 N   0  0  0  0  0  0  0  0  0  0  0  0
  -31.5860  -15.0760   19.3240 O   0  0  0  0  0  0  0  0  0  0  0  0
  -29.6220  -16.0300   20.1630 N   0  0  0  0  0  0  0  0  0  0  0  0
  -28.7990  -15.6410   20.5940 H   0  0  0  0  0  0  0  0  0  0  0  0
  -25.2210  -13.8950   20.4000 C   0  0  0  0  0  0  0  0  0  0  0  0
  -24.1730  -13.1330   20.8400 C   0  0  0  0  0  0  0  0  0  0  0  0
  -24.5950  -11.7750   20.7200 C   0  0  0  0  0  0  0  0  0  0  0  0
  -26.2180  -13.0020   20.0450 N   0  0  0  0  0  0  0  0  0  0  0  0
  -25.8540  -11.7180   20.2970 N   0  0  0  0  0  0  0  0  0  0  0  0
  -23.8530  -10.5240   20.9260 C   0  0  0  0  0  0  0  0  0  0  0  0
  -24.3020   -9.5400   21.8330 C   0  0  0  0  0  3  0  0  0  0  0  0
  -23.5590   -8.3550   22.0280 C   0  0  0  0  0  3  0  0  0  0  0  0
  -22.3520   -8.1480   21.3190 C   0  0  0  0  0  0  0  0  0  0  0  0
  -21.9210   -9.1210   20.4010 C   0  0  0  0  0  3  0  0  0  0  0  0
  -22.6650  -10.2970   20.2030 C   0  0  0  0  0  3  0  0  0  0  0  0
  -21.5780   -7.0180   21.4260 O   0  0  0  0  0  0  0  0  0  0  0  0
  -21.5180   -6.2940   22.5900 C   0  0  0  0  0  0  0  0  0  0  0  0
  -21.0820   -6.8700   23.8030 C   0  0  0  0  0  3  0  0  0  0  0  0
  -20.9700   -6.0740   24.9610 C   0  0  0  0  0  3  0  0  0  0  0  0
  -21.2820   -4.7020   24.9050 C   0  0  0  0  0  0  0  0  0  0  0  0
  -21.7120   -4.1260   23.6960 C   0  0  0  0  0  3  0  0  0  0  0  0
  -21.8260   -4.9210   22.5420 C   0  0  0  0  0  0  0  0  0  0  0  0
  -22.2200   -4.3550   21.3750 F   0  0  0  0  0  0  0  0  0  0  0  0
  -21.1680   -3.9350   26.0140 F   0  0  0  0  0  0  0  0  0  0  0  0
  -22.8180  -13.6350   21.2490 C   0  0  0  0  0  0  0  0  0  0  0  0
  -22.1550  -12.9340   22.1600 N   0  0  0  0  0  0  0  0  0  0  0  0
  -22.3610  -14.6840   20.7960 O   0  0  0  0  0  0  0  0  0  0  0  0
  -22.5390  -12.0840   22.5470 H   0  0  0  0  0  0  0  0  0  0  0  0
  -21.2480  -13.2500   22.4770 H   0  0  0  0  0  0  0  0  0  0  0  0
  -25.3980  -15.2640   20.2480 N   0  0  0  0  0  0  0  0  0  0  0  0
  -24.6420  -15.9170   20.4240 H   0  0  0  0  0  0  0  0  0  0  0  0
  -26.1930  -15.6940   19.7930 H   0  0  0  0  0  0  0  0  0  0  0  0
  -31.4770  -21.4940   17.8300 C   0  0  0  0  0  2  0  0  0  0  0  0
  -32.4680  -20.4390   18.2590 C   0  0  0  0  0  2  0  0  0  0  0  0
  -31.3930  -20.8950   19.2170 C   0  0  0  0  0  3  0  0  0  0  0  0
  -28.4440  -21.9500   19.5230 O   0  0  0  0  0  0  0  0  0  0  0  0
  -29.0160  -23.3630   19.7070 C   0  0  0  0  0  3  0  0  0  0  0  0
  -28.0470  -24.7020   19.3910 C   0  0  0  0  0  3  0  0  0  0  0  0
  -28.2640  -26.2070   19.7090 O   0  0  0  0  0  0  0  0  0  0  0  0
  -24.4820  -31.5870   22.9950 C   0  0  0  0  0  0  0  0  0  0  0  0
  -27.1680  -27.1440   19.6910 C   0  0  0  0  0  0  0  0  0  0  0  0
  -23.3010  -30.2520   21.2910 C   0  0  0  0  0  3  0  0  0  0  0  0
  -24.7770  -28.8000   19.7680 C   0  0  0  0  0  0  0  0  0  0  0  0
  -25.8410  -30.6080   21.1110 C   0  0  0  0  0  2  0  0  0  0  0  0
  -25.9490  -29.2550   20.3880 C   0  0  0  0  0  0  0  0  0  0  0  0
  -27.1410  -28.4440   20.3350 C   0  0  0  0  0  3  0  0  0  0  0  0
  -25.9670  -26.7880   19.0360 C   0  0  0  0  0  3  0  0  0  0  0  0
  -24.8000  -27.5800   19.0760 C   0  0  0  0  0  3  0  0  0  0  0  0
  -23.5200  -29.6490   19.8770 C   0  0  0  0  0  2  0  0  0  0  0  0
  -24.5610  -30.8350   21.8550 N   0  0  0  0  0  0  0  0  0  0  0  0
  -23.3960  -31.8090   23.5510 O   0  0  0  0  0  0  0  0  0  0  0  0
  -22.6640  -29.1760   22.2050 C   0  0  0  0  0  0  0  0  0  0  0  0
  -21.3350  -28.9970   22.1050 N   0  0  0  0  0  0  0  0  0  0  0  0
  -23.3660  -28.5030   22.9640 O   0  0  0  0  0  0  0  0  0  0  0  0
  -20.8250  -29.5910   21.4660 H   0  0  0  0  0  0  0  0  0  0  0  0
  -17.9780  -27.7500   22.6450 C   0  0  0  0  0  0  0  0  0  0  0  0
  -20.5460  -28.0020   22.8330 C   0  0  0  0  0  3  0  0  0  0  0  0
  -20.6270  -26.6180   22.1490 C   0  0  0  0  0  2  0  0  0  0  0  0
  -19.4880  -26.3660   21.1560 C   0  0  0  0  0  2  0  0  0  0  0  0
  -18.1310  -26.4560   21.8620 C   0  0  0  0  0  2  0  0  0  0  0  0
  -19.1120  -28.4830   23.0880 C   0  0  0  0  0  0  0  0  0  0  0  0
  -18.9150  -29.6940   23.7830 C   0  0  0  0  0  3  0  0  0  0  0  0
  -17.6170  -30.1730   24.0420 C   0  0  0  0  0  3  0  0  0  0  0  0
  -16.4980  -29.4370   23.6160 C   0  0  0  0  0  3  0  0  0  0  0  0
  -16.6790  -28.2280   22.9220 C   0  0  0  0  0  3  0  0  0  0  0  0
  -25.7520  -32.2210   23.6430 C   0  0  0  0  0  3  0  0  0  0  0  0
  -26.2760  -31.4170   24.8960 C   0  0  1  0  0  0  0  0  0  0  0  0
  -25.1890  -31.1400   25.9600 C   0  0  0  0  0  1  0  0  0  0  0  0
  -26.8690  -30.0550   24.4640 C   0  0  0  0  0  1  0  0  0  0  0  0
  -27.4240  -32.1980   25.5790 C   0  0  0  0  0  1  0  0  0  0  0  0
  -25.4170  -33.6020   24.0270 N   0  0  0  0  0  0  0  0  0  0  0  0
  -25.7240  -34.6910   23.3110 C   0  0  0  0  0  0  0  0  0  0  0  0
  -26.3870  -34.6400   22.2720 O   0  0  0  0  0  0  0  0  0  0  0  0
  -24.8300  -33.7130   24.8400 H   0  0  0  0  0  0  0  0  0  0  0  0
  -23.9640  -36.4690   23.0390 C   0  0  0  0  0  1  0  0  0  0  0  0
  -25.2150  -36.0520   23.8270 C   0  0  0  0  0  3  0  0  0  0  0  0
  -27.3360  -36.9450   24.6860 C   0  0  0  0  0  1  0  0  0  0  0  0
  -26.2290  -37.1270   23.7510 N   0  0  0  0  0  0  0  0  0  0  0  0
  -25.8060  -38.0330   23.9310 H   0  0  0  0  0  0  0  0  0  0  0  0
  1  5  1  0
  2  4  1  0
  3  1  2  0
  3  6  1  0
  4  7  1  0
  5 16  1  0
  5  4  2  0
  6  2  2  0
  8 14  1  0
  8 16  1  0
  9 14  1  0
 10 11  1  0
 10  9  1  0
 12 11  1  0
 12 21  1  0
 12 13  1  0
 14 13  1  0
 15  8  2  0
 16 17  1  0
 18 19  2  0
 19 38  1  0
 20 19  1  0
 20 23  1  0
 21 22  1  0
 21 18  1  0
 22 20  2  0
 23 24  1  0
 24 25  2  0
 26 29  1  0
 26 25  1  0
 27 26  2  0
 28 27  1  0
 28 23  2  0
 29 30  1  0
 30 31  1  0
 31 32  2  0
 33 32  1  0
 33 37  1  0
 34 33  2  0
 35 30  2  0
 35 34  1  0
 36 35  1  0
 38 39  1  0
 39 42  1  0
 39 41  1  0
 40 38  2  0
 43 18  1  0
 43 44  1  0
 45 43  1  0
 46 47  1  0
 46 48  1  0
 47 48  1  0
 48  3  1  0
 49 50  1  0
 49  6  1  0
 51 50  2  0
 51 52  1  0
 53 64  2  0
 54 52  1  0
 54 59  1  0
 55 63  1  0
 55 65  1  0
 56 62  1  0
 56 58  1  0
 57 63  1  0
 58 57  1  0
 59 58  2  0
 60 61  1  0
 60 54  2  0
 61 56  2  0
 62 55  1  0
 63 53  1  0
 65 67  2  0
 66 65  1  0
 68 66  1  0
 69 78  2  0
 69 74  1  0
 70 66  1  0
 70 74  1  0
 71 70  1  0
 72 73  1  0
 72 71  1  0
 73 69  1  0
 74 75  2  0
 75 76  1  0
 77 76  2  0
 78 77  1  0
 79 53  1  0
 79 84  1  0
 79 80  1  0
 80 83  1  1
 80 81  1  0
 82 80  1  0
 84 87  1  0
 85 89  1  0
 85 84  1  0
 86 85  2  0
 89 88  1  0
 91 89  1  0
 91 92  1  0
 91 90  1  0
M  ISO  4   8 100  16 100  51 101  52 101
M  END
>  <TORSDO>  (36) 
F 20

>  <SCORE>  (36) 
-12.722

>  <name>  (36) 
35

>  <ligand_id>  (36) 
35

>  <original_smiles>  (36) 
[H]c1c([H])c([H])c2c(c1[H])C([H])([H])C([H])([H])C([H])([H])C2([H])N([H])C(=O)C1([H])N(C(=O)C([H])(N([H])C(=O)C([H])(N([H])C([H])([H])[H])C([H])([H])[H])C(C([H])([H])[H])(C([H])([H])[H])C([H])([H])[H])C([H])([H])c2c([H])c(OC([H])([H])C([H])([H])Oc3c([H])c(C([H])([H])[H])c(N([H])C(=O)N4C([H])([H])C([H])([H])C([H])([H])C([H])(n5nc(-c6c([H])c([H])c(Oc7c([H])c([H])c(F)c([H])c7F)c([H])c6[H])c(C(=O)N([H])[H])c5N([H])[H])C4([H])[H])c([H])c3C3([H])C([H])([H])C3([H])[H])c([H])c([H])c2C1([H])[H]

>  <smiles>  (36) 
[H]c1c([H])c([H])c2c(c1[H])C([H])([H])C([H])([H])C([H])([H])C2([H])N([H])C(=O)C1([H])N(C(=O)C([H])(N([H])C(=O)C([H])(N([H])C([H])([H])[H])C([H])([H])[H])C(C([H])([H])[H])(C([H])([H])[H])C([H])([H])[H])C([H])([H])c2c([H])c(OC([H])([H])C([H])([H])Oc3c([H])c(C([H])([H])[H])c(N([H])C(=O)N4C([H])([H])C([H])([H])C([H])([H])C([H])(n5nc(-c6c([H])c([H])c(Oc7c([H])c([H])c(F)c([H])c7F)c([H])c6[H])c(C(=O)N([H])[H])c5N([H])[H])C4([H])[H])c([H])c3C3([H])C([H])([H])C3([H])[H])c([H])c([H])c2C1([H])[H]

$$$$
36:0:0
     RDKit          3D

 94103  0  0  1  0  0  0  0  0999 V2000
  -29.9960  -21.1290   22.6960 C   0  0  0  0  0  3  0  0  0  0  0  0
  -29.7580  -22.4540   22.2820 C   0  0  0  0  0  3  0  0  0  0  0  0
  -30.3710  -20.4690   20.3900 C   0  0  0  0  0  3  0  0  0  0  0  0
  -30.1300  -21.7960   19.9630 C   0  0  0  0  0  0  0  0  0  0  0  0
  -30.2950  -20.1210   21.7600 C   0  0  0  0  0  0  0  0  0  0  0  0
  -29.8330  -22.8040   20.9120 C   0  0  0  0  0  0  0  0  0  0  0  0
  -28.9750  -22.5420   17.7470 C   0  0  0  0  0  2  0  0  0  0  0  0
  -29.6910  -21.2560   17.4050 C   0  0  0  0  0  2  0  0  0  0  0  0
  -30.2220  -22.1470   18.5060 C   0  0  0  0  0  3  0  0  0  0  0  0
  -30.4970  -18.8500   22.2550 O   0  0  0  0  0  0  0  0  0  0  0  0
  -30.0500  -17.7200   21.5050 C   0  0  0  0  0  2  0  0  0  0  0  0
  -31.2300  -16.8330   21.0600 C   0  0  0  0  0  2  0  0  0  0  0  0
  -31.4070  -14.4990   20.1550 C   0  0  0  0  0  0  0  0  0  0  0  0
  -31.0510  -12.3260   19.0410 C   0  0  0  0  0  2  0  0  0  0  0  0
  -30.0720  -12.4740   17.8570 C   0  0  0  0  0  2  0  0  0  0  0  0
  -28.6010  -12.4250   18.3240 C   0  0  0  0  0  2  0  0  0  0  0  0
  -28.3220  -13.3270   19.5540 C   0  0  0  0  0  3  0  0  0  0  0  0
  -29.3860  -13.0800   20.6440 C   0  0  0  0  0  2  0  0  0  0  0  0
  -30.7090  -13.3390   20.0480 N   0  0  0  0  0  0  0  0  0  0  0  0
  -32.4830  -14.7050   19.5870 O   0  0  0  0  0  0  0  0  0  0  0  0
  -30.7890  -15.4520   20.8650 N   0  0  0  0  0  0  0  0  0  0  0  0
  -29.9080  -15.1930   21.2830 H   0  0  0  0  0  0  0  0  0  0  0  0
  -25.9840  -14.0700   20.3380 C   0  0  0  0  0  0  0  0  0  0  0  0
  -24.8830  -13.3580   20.7300 C   0  0  0  0  0  0  0  0  0  0  0  0
  -25.2610  -11.9820   20.6680 C   0  0  0  0  0  0  0  0  0  0  0  0
  -26.9680  -13.1320   20.0660 N   0  0  0  0  0  0  0  0  0  0  0  0
  -26.5360  -11.8710   20.3180 N   0  0  0  0  0  0  0  0  0  0  0  0
  -24.4680  -10.7620   20.8650 C   0  0  0  0  0  0  0  0  0  0  0  0
  -24.8280   -9.7940   21.8290 C   0  0  0  0  0  3  0  0  0  0  0  0
  -24.0380   -8.6380   22.0120 C   0  0  0  0  0  3  0  0  0  0  0  0
  -22.8750   -8.4410   21.2320 C   0  0  0  0  0  0  0  0  0  0  0  0
  -22.5340   -9.3970   20.2580 C   0  0  0  0  0  3  0  0  0  0  0  0
  -23.3230  -10.5440   20.0730 C   0  0  0  0  0  3  0  0  0  0  0  0
  -22.0640   -7.3360   21.3210 O   0  0  0  0  0  0  0  0  0  0  0  0
  -21.8830   -6.6720   22.5070 C   0  0  0  0  0  0  0  0  0  0  0  0
  -21.3570   -7.3150   23.6480 C   0  0  0  0  0  3  0  0  0  0  0  0
  -21.1190   -6.5770   24.8250 C   0  0  0  0  0  3  0  0  0  0  0  0
  -21.4030   -5.1980   24.8620 C   0  0  0  0  0  0  0  0  0  0  0  0
  -21.9240   -4.5550   23.7250 C   0  0  0  0  0  3  0  0  0  0  0  0
  -22.1600   -5.2900   22.5500 C   0  0  0  0  0  0  0  0  0  0  0  0
  -22.6410   -4.6620   21.4500 F   0  0  0  0  0  0  0  0  0  0  0  0
  -21.1700   -4.4870   25.9900 F   0  0  0  0  0  0  0  0  0  0  0  0
  -23.5250  -13.9120   21.0500 C   0  0  0  0  0  0  0  0  0  0  0  0
  -22.7940  -13.2610   21.9490 N   0  0  0  0  0  0  0  0  0  0  0  0
  -23.1210  -14.9560   20.5400 O   0  0  0  0  0  0  0  0  0  0  0  0
  -23.1360  -12.4180   22.3850 H   0  0  0  0  0  0  0  0  0  0  0  0
  -21.8810  -13.6120   22.2010 H   0  0  0  0  0  0  0  0  0  0  0  0
  -26.2270  -15.4300   20.1730 N   0  0  0  0  0  0  0  0  0  0  0  0
  -25.5110  -16.1320   20.3290 H   0  0  0  0  0  0  0  0  0  0  0  0
  -27.0860  -15.8170   19.8040 H   0  0  0  0  0  0  0  0  0  0  0  0
  -29.6030  -24.0810   20.4390 O   0  0  0  0  0  0  0  0  0  0  0  0
  -30.0610  -25.2060   21.1940 C   0  0  0  0  0  2  0  0  0  0  0  0
  -28.9180  -26.2100   21.4280 C   0  0  0  0  0  2  0  0  0  0  0  0
  -28.6620  -26.9500   20.2330 O   0  0  0  0  0  0  0  0  0  0  0  0
  -24.6870  -31.9750   23.3430 C   0  0  0  0  0  0  0  0  0  0  0  0
  -27.4880  -27.6570   20.2620 C   0  0  0  0  0  0  0  0  0  0  0  0
  -23.5400  -30.5590   21.6730 C   0  0  0  0  0  3  0  0  0  0  0  0
  -25.0510  -29.0770   20.2540 C   0  0  0  0  0  0  0  0  0  0  0  0
  -26.0510  -31.0010   21.4980 C   0  0  0  0  0  2  0  0  0  0  0  0
  -26.1850  -29.6340   20.8620 C   0  0  0  0  0  0  0  0  0  0  0  0
  -27.4060  -28.9270   20.8730 C   0  0  0  0  0  3  0  0  0  0  0  0
  -26.3430  -27.1070   19.6510 C   0  0  0  0  0  3  0  0  0  0  0  0
  -25.1200  -27.8070   19.6550 C   0  0  0  0  0  3  0  0  0  0  0  0
  -23.7860  -29.9050   20.2870 C   0  0  0  0  0  2  0  0  0  0  0  0
  -24.7780  -31.1930   22.2310 N   0  0  0  0  0  0  0  0  0  0  0  0
  -23.5940  -32.2040   23.8780 O   0  0  0  0  0  0  0  0  0  0  0  0
  -22.9140  -29.5030   22.6130 C   0  0  0  0  0  0  0  0  0  0  0  0
  -21.6020  -29.2630   22.4520 N   0  0  0  0  0  0  0  0  0  0  0  0
  -23.6040  -28.9040   23.4410 O   0  0  0  0  0  0  0  0  0  0  0  0
  -21.1040  -29.7970   21.7540 H   0  0  0  0  0  0  0  0  0  0  0  0
  -18.2660  -27.9410   22.8750 C   0  0  0  0  0  0  0  0  0  0  0  0
  -20.8070  -28.2910   23.2020 C   0  0  0  0  0  3  0  0  0  0  0  0
  -20.9750  -26.8680   22.6190 C   0  0  0  0  0  2  0  0  0  0  0  0
  -19.9050  -26.5120   21.5820 C   0  0  0  0  0  2  0  0  0  0  0  0
  -18.5050  -26.6050   22.1950 C   0  0  0  0  0  2  0  0  0  0  0  0
  -19.3470  -28.7410   23.3330 C   0  0  0  0  0  0  0  0  0  0  0  0
  -19.0670  -29.9970   23.9180 C   0  0  0  0  0  3  0  0  0  0  0  0
  -17.7400  -30.4450   24.0610 C   0  0  0  0  0  3  0  0  0  0  0  0
  -16.6740  -29.6420   23.6190 C   0  0  0  0  0  3  0  0  0  0  0  0
  -16.9390  -28.3930   23.0280 C   0  0  0  0  0  3  0  0  0  0  0  0
  -25.9480  -32.6360   23.9830 C   0  0  0  0  0  3  0  0  0  0  0  0
  -25.6180  -34.0400   24.2630 N   0  0  0  0  0  0  0  0  0  0  0  0
  -25.9710  -35.0700   23.4840 C   0  0  0  0  0  0  0  0  0  0  0  0
  -26.6780  -34.9430   22.4810 O   0  0  0  0  0  0  0  0  0  0  0  0
  -25.0010  -34.2130   25.0420 H   0  0  0  0  0  0  0  0  0  0  0  0
  -24.2400  -36.8270   23.0120 C   0  0  0  0  0  1  0  0  0  0  0  0
  -25.4550  -36.4660   23.8810 C   0  0  0  0  0  3  0  0  0  0  0  0
  -27.5500  -37.3940   24.7600 C   0  0  0  0  0  1  0  0  0  0  0  0
  -26.4820  -37.5260   23.7740 N   0  0  0  0  0  0  0  0  0  0  0  0
  -26.0610  -38.4450   23.8780 H   0  0  0  0  0  0  0  0  0  0  0  0
  -26.4350  -31.9050   25.2930 C   0  0  1  0  0  0  0  0  0  0  0  0
  -25.3070  -31.6550   26.3210 C   0  0  0  0  0  1  0  0  0  0  0  0
  -27.0710  -30.5400   24.9430 C   0  0  0  0  0  1  0  0  0  0  0  0
  -27.5360  -32.7440   25.9830 C   0  0  0  0  0  1  0  0  0  0  0  0
  2  1  1  0
  3  5  1  0
  4  3  2  0
  4  6  1  0
  5 10  1  0
  5  1  2  0
  6  2  2  0
  7  9  1  0
  8  7  1  0
  8  9  1  0
  9  4  1  0
 11 10  1  0
 12 11  1  0
 13 21  1  0
 14 19  1  0
 15 16  1  0
 15 14  1  0
 17 16  1  0
 17 26  1  0
 17 18  1  0
 19 13  1  0
 19 18  1  0
 20 13  2  0
 21 12  1  0
 21 22  1  0
 23 24  2  0
 24 43  1  0
 25 24  1  0
 25 28  1  0
 26 27  1  0
 26 23  1  0
 27 25  2  0
 28 29  1  0
 29 30  2  0
 31 34  1  0
 31 30  1  0
 32 31  2  0
 33 32  1  0
 33 28  2  0
 34 35  1  0
 35 40  2  0
 35 36  1  0
 36 37  2  0
 37 38  1  0
 38 42  1  0
 39 38  2  0
 40 39  1  0
 41 40  1  0
 43 44  1  0
 44 47  1  0
 44 46  1  0
 45 43  2  0
 48 49  1  0
 48 23  1  0
 50 48  1  0
 51  6  1  0
 51 52  1  0
 52 53  1  0
 54 56  1  0
 54 53  1  0
 55 66  2  0
 56 61  1  0
 57 65  1  0
 57 67  1  0
 58 64  1  0
 58 60  1  0
 59 65  1  0
 60 61  2  0
 60 59  1  0
 62 63  1  0
 62 56  2  0
 63 58  2  0
 64 57  1  0
 65 55  1  0
 67 69  2  0
 68 67  1  0
 70 68  1  0
 71 80  2  0
 71 76  1  0
 72 68  1  0
 72 76  1  0
 73 72  1  0
 74 75  1  0
 74 73  1  0
 75 71  1  0
 76 77  2  0
 77 78  1  0
 79 78  2  0
 80 79  1  0
 81 55  1  0
 81 82  1  0
 81 91  1  0
 82 85  1  0
 83 87  1  0
 83 82  1  0
 84 83  2  0
 87 86  1  0
 89 90  1  0
 89 87  1  0
 89 88  1  0
 91 94  1  1
 91 92  1  0
 93 91  1  0
M  ISO  4  13 100  21 100  53 101  54 101
M  END
>  <TORSDO>  (37) 
F 23

>  <SCORE>  (37) 
-12.125

>  <name>  (37) 
36

>  <ligand_id>  (37) 
36

>  <original_smiles>  (37) 
[H]c1c([H])c([H])c2c(c1[H])C([H])([H])C([H])([H])C([H])([H])C2([H])N([H])C(=O)C1([H])N(C(=O)C([H])(N([H])C(=O)C([H])(N([H])C([H])([H])[H])C([H])([H])[H])C(C([H])([H])[H])(C([H])([H])[H])C([H])([H])[H])C([H])([H])c2c([H])c(OC([H])([H])C([H])([H])Oc3c([H])c([H])c(OC([H])([H])C([H])([H])N([H])C(=O)N4C([H])([H])C([H])([H])C([H])([H])C([H])(n5nc(-c6c([H])c([H])c(Oc7c([H])c([H])c(F)c([H])c7F)c([H])c6[H])c(C(=O)N([H])[H])c5N([H])[H])C4([H])[H])c([H])c3C3([H])C([H])([H])C3([H])[H])c([H])c([H])c2C1([H])[H]

>  <smiles>  (37) 
[H]c1c([H])c([H])c2c(c1[H])C([H])([H])C([H])([H])C([H])([H])C2([H])N([H])C(=O)C1([H])N(C(=O)C([H])(N([H])C(=O)C([H])(N([H])C([H])([H])[H])C([H])([H])[H])C(C([H])([H])[H])(C([H])([H])[H])C([H])([H])[H])C([H])([H])c2c([H])c(OC([H])([H])C([H])([H])Oc3c([H])c([H])c(OC([H])([H])C([H])([H])N([H])C(=O)N4C([H])([H])C([H])([H])C([H])([H])C([H])(n5nc(-c6c([H])c([H])c(Oc7c([H])c([H])c(F)c([H])c7F)c([H])c6[H])c(C(=O)N([H])[H])c5N([H])[H])C4([H])[H])c([H])c3C3([H])C([H])([H])C3([H])[H])c([H])c([H])c2C1([H])[H]

$$$$
37:0:0
     RDKit          3D

 96105  0  0  1  0  0  0  0  0999 V2000
  -30.2240  -23.6020   22.5450 C   0  0  0  0  0  3  0  0  0  0  0  0
  -30.1410  -22.3170   21.9610 C   0  0  0  0  0  3  0  0  0  0  0  0
  -30.0240  -24.7710   21.7710 C   0  0  0  0  0  3  0  0  0  0  0  0
  -29.8800  -22.2230   20.5790 C   0  0  0  0  0  0  0  0  0  0  0  0
  -29.6990  -23.3840   19.8150 C   0  0  0  0  0  0  0  0  0  0  0  0
  -29.7420  -24.6880   20.3880 C   0  0  0  0  0  0  0  0  0  0  0  0
  -29.4180  -23.0160   18.3760 C   0  0  0  0  0  2  0  0  0  0  0  0
  -29.7110  -21.4910   18.3070 C   0  0  0  0  0  2  0  0  0  0  0  0
  -29.6570  -20.9510   19.7590 C   0  0  0  0  0  3  0  0  0  0  0  0
  -30.5880  -19.8070   20.0280 N   0  0  0  0  0  4  0  0  0  0  0  0
  -30.8700  -19.8560   20.9920 H   0  0  0  0  0  0  0  0  0  0  0  0
  -31.4160  -19.9680   19.4800 H   0  0  0  0  0  0  0  0  0  0  0  0
  -30.0880  -18.4110   19.7640 C   0  0  0  0  0  3  0  0  0  0  0  0
  -27.5210  -18.4260   20.3640 C   0  0  0  0  0  1  0  0  0  0  0  0
  -28.9470  -17.9940   20.7420 C   0  0  0  0  0  2  0  0  0  0  0  0
  -31.2500  -17.3580   19.8440 C   0  0  0  0  0  2  0  0  0  0  0  0
  -31.4920  -14.8450   19.7590 C   0  0  0  0  0  0  0  0  0  0  0  0
  -31.1690  -12.4980   19.0620 C   0  0  0  0  0  2  0  0  0  0  0  0
  -30.2120  -12.4610   17.8530 C   0  0  0  0  0  2  0  0  0  0  0  0
  -28.7420  -12.4220   18.3210 C   0  0  0  0  0  2  0  0  0  0  0  0
  -28.4260  -13.4970   19.3960 C   0  0  0  0  0  3  0  0  0  0  0  0
  -29.4950  -13.4950   20.5120 C   0  0  0  0  0  2  0  0  0  0  0  0
  -30.8120  -13.6710   19.8780 N   0  0  0  0  0  0  0  0  0  0  0  0
  -32.6110  -14.9180   19.2450 O   0  0  0  0  0  0  0  0  0  0  0  0
  -30.8100  -15.9620   20.0890 N   0  0  0  0  0  0  0  0  0  0  0  0
  -29.8980  -15.8250   20.4970 H   0  0  0  0  0  0  0  0  0  0  0  0
  -26.1380  -14.3030   20.2520 C   0  0  0  0  0  0  0  0  0  0  0  0
  -25.0160  -13.6240   20.6440 C   0  0  0  0  0  0  0  0  0  0  0  0
  -25.3360  -12.2360   20.5340 C   0  0  0  0  0  0  0  0  0  0  0  0
  -27.0760  -13.3340   19.9320 N   0  0  0  0  0  0  0  0  0  0  0  0
  -26.5990  -12.0830   20.1570 N   0  0  0  0  0  0  0  0  0  0  0  0
  -24.4950  -11.0450   20.7080 C   0  0  0  0  0  0  0  0  0  0  0  0
  -24.8520  -10.0160   21.6080 C   0  0  0  0  0  3  0  0  0  0  0  0
  -24.0190   -8.8880   21.7720 C   0  0  0  0  0  3  0  0  0  0  0  0
  -22.8140   -8.7830   21.0370 C   0  0  0  0  0  0  0  0  0  0  0  0
  -22.4760   -9.8000   20.1260 C   0  0  0  0  0  3  0  0  0  0  0  0
  -23.3090  -10.9180   19.9600 C   0  0  0  0  0  3  0  0  0  0  0  0
  -21.9560   -7.7130   21.1130 O   0  0  0  0  0  0  0  0  0  0  0  0
  -21.7990   -6.9970   22.2730 C   0  0  0  0  0  0  0  0  0  0  0  0
  -21.4150   -7.6140   23.4840 C   0  0  0  0  0  3  0  0  0  0  0  0
  -21.1940   -6.8300   24.6340 C   0  0  0  0  0  3  0  0  0  0  0  0
  -21.3530   -5.4320   24.5750 C   0  0  0  0  0  0  0  0  0  0  0  0
  -21.7330   -4.8160   23.3710 C   0  0  0  0  0  3  0  0  0  0  0  0
  -21.9520   -5.5970   22.2220 C   0  0  0  0  0  0  0  0  0  0  0  0
  -22.2970   -4.9960   21.0570 F   0  0  0  0  0  0  0  0  0  0  0  0
  -21.1340   -4.6780   25.6780 F   0  0  0  0  0  0  0  0  0  0  0  0
  -23.6880  -14.2240   21.0120 C   0  0  0  0  0  0  0  0  0  0  0  0
  -22.9460  -13.5750   21.9020 N   0  0  0  0  0  0  0  0  0  0  0  0
  -23.3220  -15.3020   20.5450 O   0  0  0  0  0  0  0  0  0  0  0  0
  -23.2520  -12.7030   22.3040 H   0  0  0  0  0  0  0  0  0  0  0  0
  -22.0560  -13.9610   22.1890 H   0  0  0  0  0  0  0  0  0  0  0  0
  -26.4300  -15.6580   20.1220 N   0  0  0  0  0  0  0  0  0  0  0  0
  -25.7330  -16.3720   20.2960 H   0  0  0  0  0  0  0  0  0  0  0  0
  -27.2920  -16.0260   19.7410 H   0  0  0  0  0  0  0  0  0  0  0  0
  -29.5200  -25.9660   19.5510 C   0  0  0  0  0  2  0  0  0  0  0  0
  -29.2120  -27.1720   20.3060 O   0  0  0  0  0  0  0  0  0  0  0  0
  -24.8270  -31.9000   23.3660 C   0  0  0  0  0  0  0  0  0  0  0  0
  -27.9700  -27.7990   20.2320 C   0  0  0  0  0  0  0  0  0  0  0  0
  -23.8160  -30.4760   21.6170 C   0  0  0  0  0  3  0  0  0  0  0  0
  -25.4550  -29.1350   20.1970 C   0  0  0  0  0  0  0  0  0  0  0  0
  -26.3120  -31.0450   21.5530 C   0  0  0  0  0  2  0  0  0  0  0  0
  -26.5410  -29.7150   20.8600 C   0  0  0  0  0  0  0  0  0  0  0  0
  -27.7960  -29.0540   20.8750 C   0  0  0  0  0  3  0  0  0  0  0  0
  -26.8550  -27.2540   19.5510 C   0  0  0  0  0  3  0  0  0  0  0  0
  -25.6090  -27.9060   19.5390 C   0  0  0  0  0  3  0  0  0  0  0  0
  -24.1390  -29.8820   20.2230 C   0  0  0  0  0  2  0  0  0  0  0  0
  -24.9990  -31.1560   22.2370 N   0  0  0  0  0  0  0  0  0  0  0  0
  -23.7030  -32.0560   23.8660 O   0  0  0  0  0  0  0  0  0  0  0  0
  -23.2190  -29.3590   22.5050 C   0  0  0  0  0  0  0  0  0  0  0  0
  -21.9210  -29.0700   22.3140 N   0  0  0  0  0  0  0  0  0  0  0  0
  -23.9220  -28.7580   23.3210 O   0  0  0  0  0  0  0  0  0  0  0  0
  -21.4100  -29.6150   21.6330 H   0  0  0  0  0  0  0  0  0  0  0  0
  -18.6440  -27.5790   22.6250 C   0  0  0  0  0  0  0  0  0  0  0  0
  -21.1600  -28.0330   23.0100 C   0  0  0  0  0  3  0  0  0  0  0  0
  -21.4030  -26.6450   22.3740 C   0  0  0  0  0  2  0  0  0  0  0  0
  -20.3690  -26.2810   21.3040 C   0  0  0  0  0  2  0  0  0  0  0  0
  -18.9580  -26.2830   21.8990 C   0  0  0  0  0  2  0  0  0  0  0  0
  -19.6800  -28.4090   23.1330 C   0  0  0  0  0  0  0  0  0  0  0  0
  -19.3350  -29.6220   23.7700 C   0  0  0  0  0  3  0  0  0  0  0  0
  -17.9880  -30.0060   23.9060 C   0  0  0  0  0  3  0  0  0  0  0  0
  -16.9670  -29.1740   23.4160 C   0  0  0  0  0  3  0  0  0  0  0  0
  -17.2960  -27.9630   22.7820 C   0  0  0  0  0  3  0  0  0  0  0  0
  -26.0240  -32.6140   24.0670 C   0  0  0  0  0  3  0  0  0  0  0  0
  -25.6250  -34.0060   24.3180 N   0  0  0  0  0  0  0  0  0  0  0  0
  -25.9610  -35.0440   23.5430 C   0  0  0  0  0  0  0  0  0  0  0  0
  -26.7090  -34.9370   22.5660 O   0  0  0  0  0  0  0  0  0  0  0  0
  -24.9690  -34.1590   25.0690 H   0  0  0  0  0  0  0  0  0  0  0  0
  -24.1740  -36.7260   22.9970 C   0  0  0  0  0  1  0  0  0  0  0  0
  -25.3750  -36.4210   23.9070 C   0  0  0  0  0  3  0  0  0  0  0  0
  -27.4040  -37.4450   24.8350 C   0  0  0  0  0  1  0  0  0  0  0  0
  -26.3580  -37.5220   23.8180 N   0  0  0  0  0  0  0  0  0  0  0  0
  -25.8980  -38.4250   23.9030 H   0  0  0  0  0  0  0  0  0  0  0  0
  -26.4680  -31.9110   25.4090 C   0  0  1  0  0  0  0  0  0  0  0  0
  -25.3000  -31.6410   26.3840 C   0  0  0  0  0  1  0  0  0  0  0  0
  -27.1590  -30.5580   25.1160 C   0  0  0  0  0  1  0  0  0  0  0  0
  -27.5100  -32.7880   26.1410 C   0  0  0  0  0  1  0  0  0  0  0  0
  2  1  1  0
  3  1  2  0
  4  2  2  0
  5  6  2  0
  5  4  1  0
  6  3  1  0
  7  5  1  0
  8  7  1  0
  8  9  1  0
  9 10  1  0
  9  4  1  0
 10 11  1  0
 12 10  1  0
 13 16  1  0
 13 10  1  0
 13 15  1  0
 14 15  1  0
 16 25  1  0
 17 23  1  0
 17 25  1  0
 18 23  1  0
 19 20  1  0
 19 18  1  0
 21 20  1  0
 21 30  1  0
 21 22  1  0
 23 22  1  0
 24 17  2  0
 25 26  1  0
 27 28  2  0
 28 47  1  0
 29 28  1  0
 29 32  1  0
 30 31  1  0
 30 27  1  0
 31 29  2  0
 32 33  1  0
 33 34  2  0
 35 38  1  0
 35 34  1  0
 36 35  2  0
 37 36  1  0
 37 32  2  0
 38 39  1  0
 39 40  1  0
 40 41  2  0
 42 41  1  0
 42 46  1  0
 43 42  2  0
 44 39  2  0
 44 43  1  0
 45 44  1  0
 47 48  1  0
 48 51  1  0
 48 50  1  0
 49 47  2  0
 52 27  1  0
 52 53  1  0
 54 52  1  0
 55 56  1  0
 55  6  1  0
 57 68  2  0
 58 56  1  0
 58 63  1  0
 59 67  1  0
 59 69  1  0
 60 66  1  0
 60 62  1  0
 61 67  1  0
 62 63  2  0
 62 61  1  0
 64 58  2  0
 65 64  1  0
 65 60  2  0
 66 59  1  0
 67 57  1  0
 69 71  2  0
 70 69  1  0
 72 70  1  0
 73 82  2  0
 73 78  1  0
 74 70  1  0
 74 78  1  0
 75 74  1  0
 76 77  1  0
 76 75  1  0
 77 73  1  0
 78 79  2  0
 79 80  1  0
 81 80  2  0
 82 81  1  0
 83 57  1  0
 83 84  1  0
 83 93  1  0
 84 87  1  0
 85 89  1  0
 85 84  1  0
 86 85  2  0
 89 88  1  0
 91 92  1  0
 91 89  1  0
 91 90  1  0
 93 96  1  1
 93 94  1  0
 95 93  1  0
M  ISO  4  17 100  25 100  55 101  56 101
M  END
>  <TORSDO>  (38) 
F 21

>  <SCORE>  (38) 
-12.043

>  <name>  (38) 
37

>  <ligand_id>  (38) 
37

>  <original_smiles>  (38) 
[H]c1c([H])c([H])c2c(c1[H])C([H])([H])C([H])([H])C([H])([H])C2([H])N([H])C(=O)C1([H])N(C(=O)C([H])(N([H])C(=O)C([H])(N([H])C([H])([H])[H])C([H])([H])[H])C(C([H])([H])[H])(C([H])([H])[H])C([H])([H])[H])C([H])([H])c2c([H])c(OC([H])([H])c3c([H])c([H])c([H])c4c3C([H])([H])C([H])([H])C4([H])[N+]([H])([H])C([H])(C([H])([H])N([H])C(=O)N3C([H])([H])C([H])([H])C([H])([H])C([H])(n4nc(-c5c([H])c([H])c(Oc6c([H])c([H])c(F)c([H])c6F)c([H])c5[H])c(C(=O)N([H])[H])c4N([H])[H])C3([H])[H])C([H])([H])C([H])([H])[H])c([H])c([H])c2C1([H])[H]

>  <smiles>  (38) 
[H]c1c([H])c([H])c2c(c1[H])C([H])([H])C([H])([H])C([H])([H])C2([H])N([H])C(=O)C1([H])N(C(=O)C([H])(N([H])C(=O)C([H])(N([H])C([H])([H])[H])C([H])([H])[H])C(C([H])([H])[H])(C([H])([H])[H])C([H])([H])[H])C([H])([H])c2c([H])c(OC([H])([H])c3c([H])c([H])c([H])c4c3C([H])([H])C([H])([H])C4([H])[N+]([H])([H])C([H])(C([H])([H])N([H])C(=O)N3C([H])([H])C([H])([H])C([H])([H])C([H])(n4nc(-c5c([H])c([H])c(Oc6c([H])c([H])c(F)c([H])c6F)c([H])c5[H])c(C(=O)N([H])[H])c4N([H])[H])C3([H])[H])C([H])([H])C([H])([H])[H])c([H])c([H])c2C1([H])[H]

$$$$
38:0:0
     RDKit          3D

 91 99  0  0  1  0  0  0  0  0999 V2000
  -31.2090  -18.3160   18.1540 C   0  0  0  0  0  3  0  0  0  0  0  0
  -28.9220  -19.0110   18.6310 C   0  0  0  0  0  3  0  0  0  0  0  0
  -29.9310  -18.7120   17.6880 C   0  0  0  0  0  0  0  0  0  0  0  0
  -31.3710  -17.9480   19.5080 C   0  0  0  0  0  0  0  0  0  0  0  0
  -30.1960  -17.7900   20.2790 C   0  0  0  0  0  0  0  0  0  0  0  0
  -29.2800  -18.9580   19.9950 C   0  0  0  0  0  0  0  0  0  0  0  0
  -29.7070  -18.9990   16.2190 C   0  0  0  0  0  1  0  0  0  0  0  0
  -32.7570  -17.6680   20.0590 C   0  0  0  0  0  1  0  0  0  0  0  0
  -30.5330  -15.0350   20.3500 C   0  0  0  0  0  0  0  0  0  0  0  0
  -30.3720  -12.6670   19.4380 C   0  0  0  0  0  2  0  0  0  0  0  0
  -29.4520  -12.6010   18.1990 C   0  0  0  0  0  2  0  0  0  0  0  0
  -27.9910  -12.3870   18.6300 C   0  0  0  0  0  2  0  0  0  0  0  0
  -27.5760  -13.3240   19.7940 C   0  0  0  0  0  3  0  0  0  0  0  0
  -28.6290  -13.3810   20.9230 C   0  0  0  0  0  2  0  0  0  0  0  0
  -29.8950  -13.7890   20.3050 N   0  0  0  0  0  0  0  0  0  0  0  0
  -31.7410  -14.9930   20.1060 O   0  0  0  0  0  0  0  0  0  0  0  0
  -29.8220  -16.2850   20.4710 N   0  0  0  0  0  0  0  0  0  0  0  0
  -28.8430  -16.1420   20.6630 H   0  0  0  0  0  0  0  0  0  0  0  0
  -25.1980  -13.8920   20.5380 C   0  0  0  0  0  0  0  0  0  0  0  0
  -24.1340  -13.1150   20.9020 C   0  0  0  0  0  0  0  0  0  0  0  0
  -24.6010  -11.7640   20.8680 C   0  0  0  0  0  0  0  0  0  0  0  0
  -26.2420  -13.0170   20.2960 N   0  0  0  0  0  0  0  0  0  0  0  0
  -25.8920  -11.7300   20.5620 N   0  0  0  0  0  0  0  0  0  0  0  0
  -23.8730  -10.5010   21.0510 C   0  0  0  0  0  0  0  0  0  0  0  0
  -24.2940   -9.5320   21.9880 C   0  0  0  0  0  3  0  0  0  0  0  0
  -23.5640   -8.3370   22.1610 C   0  0  0  0  0  3  0  0  0  0  0  0
  -22.3980   -8.0990   21.3940 C   0  0  0  0  0  0  0  0  0  0  0  0
  -21.9960   -9.0560   20.4450 C   0  0  0  0  0  3  0  0  0  0  0  0
  -22.7270  -10.2440   20.2720 C   0  0  0  0  0  3  0  0  0  0  0  0
  -21.6420   -6.9550   21.4750 O   0  0  0  0  0  0  0  0  0  0  0  0
  -21.5700   -6.2200   22.6300 C   0  0  0  0  0  0  0  0  0  0  0  0
  -21.1080   -6.7780   23.8420 C   0  0  0  0  0  3  0  0  0  0  0  0
  -20.9840   -5.9680   24.9890 C   0  0  0  0  0  3  0  0  0  0  0  0
  -21.3130   -4.6010   24.9250 C   0  0  0  0  0  0  0  0  0  0  0  0
  -21.7690   -4.0420   23.7180 C   0  0  0  0  0  3  0  0  0  0  0  0
  -21.8940   -4.8480   22.5730 C   0  0  0  0  0  0  0  0  0  0  0  0
  -22.3130   -4.3000   21.4070 F   0  0  0  0  0  0  0  0  0  0  0  0
  -21.1880   -3.8210   26.0240 F   0  0  0  0  0  0  0  0  0  0  0  0
  -22.7360  -13.5900   21.1670 C   0  0  0  0  0  0  0  0  0  0  0  0
  -22.0010  -12.8870   22.0210 N   0  0  0  0  0  0  0  0  0  0  0  0
  -22.3050  -14.6210   20.6530 O   0  0  0  0  0  0  0  0  0  0  0  0
  -22.3650  -12.0530   22.4590 H   0  0  0  0  0  0  0  0  0  0  0  0
  -21.0620  -13.1880   22.2430 H   0  0  0  0  0  0  0  0  0  0  0  0
  -25.3600  -15.2630   20.3650 N   0  0  0  0  0  0  0  0  0  0  0  0
  -24.5890  -15.9130   20.4750 H   0  0  0  0  0  0  0  0  0  0  0  0
  -26.1980  -15.7040   20.0100 H   0  0  0  0  0  0  0  0  0  0  0  0
  -29.3010  -20.3030   20.6090 O   0  0  0  0  0  0  0  0  0  0  0  0
  -28.6650  -21.6190   20.0290 C   0  0  0  0  0  3  0  0  0  0  0  0
  -28.8650  -23.2350   20.5500 C   0  0  0  0  0  3  0  0  0  0  0  0
  -27.9940  -24.6100   20.0300 C   0  0  0  0  0  2  0  0  0  0  0  0
  -28.2230  -26.1390   20.3340 O   0  0  0  0  0  0  0  0  0  0  0  0
  -24.6020  -31.8840   23.2560 C   0  0  0  0  0  0  0  0  0  0  0  0
  -27.1810  -27.1450   20.2380 C   0  0  0  0  0  0  0  0  0  0  0  0
  -23.4100  -30.4930   21.6090 C   0  0  0  0  0  3  0  0  0  0  0  0
  -24.8620  -28.9150   20.1880 C   0  0  0  0  0  0  0  0  0  0  0  0
  -25.9670  -30.7450   21.4620 C   0  0  0  0  0  2  0  0  0  0  0  0
  -26.0400  -29.3510   20.8080 C   0  0  0  0  0  0  0  0  0  0  0  0
  -27.1980  -28.4820   20.8170 C   0  0  0  0  0  3  0  0  0  0  0  0
  -25.9810  -26.8220   19.5660 C   0  0  0  0  0  3  0  0  0  0  0  0
  -24.8480  -27.6660   19.5490 C   0  0  0  0  0  3  0  0  0  0  0  0
  -23.6370  -29.8160   20.2310 C   0  0  0  0  0  2  0  0  0  0  0  0
  -24.6800  -31.0630   22.1640 N   0  0  0  0  0  0  0  0  0  0  0  0
  -23.5130  -32.1720   23.7770 O   0  0  0  0  0  0  0  0  0  0  0  0
  -22.7210  -29.4880   22.5670 C   0  0  0  0  0  0  0  0  0  0  0  0
  -21.3940  -29.3190   22.4300 N   0  0  0  0  0  0  0  0  0  0  0  0
  -23.3850  -28.8630   23.3980 O   0  0  0  0  0  0  0  0  0  0  0  0
  -20.9140  -29.8740   21.7350 H   0  0  0  0  0  0  0  0  0  0  0  0
  -18.0070  -28.1240   22.9130 C   0  0  0  0  0  0  0  0  0  0  0  0
  -20.5650  -28.3840   23.1970 C   0  0  0  0  0  3  0  0  0  0  0  0
  -20.6680  -26.9510   22.6240 C   0  0  0  0  0  2  0  0  0  0  0  0
  -19.5730  -26.6300   21.6030 C   0  0  0  0  0  2  0  0  0  0  0  0
  -18.1870  -26.7760   22.2370 C   0  0  0  0  0  2  0  0  0  0  0  0
  -19.1240  -28.8870   23.3490 C   0  0  0  0  0  0  0  0  0  0  0  0
  -18.9000  -30.1470   23.9430 C   0  0  0  0  0  3  0  0  0  0  0  0
  -17.5940  -30.6480   24.1040 C   0  0  0  0  0  3  0  0  0  0  0  0
  -16.4930  -29.8840   23.6820 C   0  0  0  0  0  3  0  0  0  0  0  0
  -16.6990  -28.6240   23.0920 C   0  0  0  0  0  3  0  0  0  0  0  0
  -25.8770  -32.5180   23.8920 C   0  0  0  0  0  3  0  0  0  0  0  0
  -26.3680  -31.7570   25.1860 C   0  0  1  0  0  0  0  0  0  0  0  0
  -25.2560  -31.5410   26.2400 C   0  0  0  0  0  1  0  0  0  0  0  0
  -26.9450  -30.3690   24.8250 C   0  0  0  0  0  1  0  0  0  0  0  0
  -27.5150  -32.5500   25.8560 C   0  0  0  0  0  1  0  0  0  0  0  0
  -25.5700  -33.9210   24.2100 N   0  0  0  0  0  0  0  0  0  0  0  0
  -25.9080  -34.9710   23.4470 C   0  0  0  0  0  0  0  0  0  0  0  0
  -26.5750  -34.8570   22.4160 O   0  0  0  0  0  0  0  0  0  0  0  0
  -24.9750  -34.0830   25.0090 H   0  0  0  0  0  0  0  0  0  0  0  0
  -24.1870  -36.7740   23.0910 C   0  0  0  0  0  1  0  0  0  0  0  0
  -25.4310  -36.3650   23.8980 C   0  0  0  0  0  3  0  0  0  0  0  0
  -27.5710  -37.2490   24.7170 C   0  0  0  0  0  1  0  0  0  0  0  0
  -26.4680  -37.4120   23.7730 N   0  0  0  0  0  0  0  0  0  0  0  0
  -26.0660  -38.3360   23.9120 H   0  0  0  0  0  0  0  0  0  0  0  0
  1  4  1  0
  2  6  2  0
  3  1  2  0
  3  2  1  0
  4  8  1  0
  4  5  2  0
  5 17  1  0
  6  5  1  0
  6 47  1  0
  7  3  1  0
  9 17  1  0
 10 15  1  0
 11 12  1  0
 11 10  1  0
 13 12  1  0
 13 22  1  0
 13 14  1  0
 15  9  1  0
 15 14  1  0
 16  9  2  0
 17 18  1  0
 19 20  2  0
 20 39  1  0
 21 20  1  0
 21 24  1  0
 22 19  1  0
 22 23  1  0
 23 21  2  0
 24 25  1  0
 25 26  2  0
 27 30  1  0
 27 26  1  0
 28 27  2  0
 29 28  1  0
 29 24  2  0
 30 31  1  0
 31 32  1  0
 32 33  2  0
 34 33  1  0
 34 38  1  0
 35 34  2  0
 36 31  2  0
 36 35  1  0
 37 36  1  0
 39 40  1  0
 40 43  1  0
 40 42  1  0
 41 39  2  0
 44 45  1  0
 44 19  1  0
 46 44  1  0
 48 49  2  0
 48 47  1  0
 50 51  1  0
 50 49  1  0
 52 63  2  0
 53 51  1  0
 53 58  1  0
 54 62  1  0
 54 64  1  0
 55 61  1  0
 55 57  1  0
 56 62  1  0
 57 58  2  0
 57 56  1  0
 59 53  2  0
 60 59  1  0
 60 55  2  0
 61 54  1  0
 62 52  1  0
 64 66  2  0
 65 64  1  0
 67 65  1  0
 68 77  2  0
 68 73  1  0
 69 65  1  0
 69 73  1  0
 70 69  1  0
 71 72  1  0
 71 70  1  0
 72 68  1  0
 73 74  2  0
 74 75  1  0
 76 75  2  0
 77 76  1  0
 78 52  1  0
 78 83  1  0
 78 79  1  0
 79 82  1  1
 79 80  1  0
 81 79  1  0
 83 86  1  0
 84 88  1  0
 84 83  1  0
 85 84  2  0
 88 87  1  0
 90 88  1  0
 90 91  1  0
 90 89  1  0
M  ISO  4   9 100  17 100  50 101  51 101
M  END
>  <TORSDO>  (39) 
F 20

>  <SCORE>  (39) 
-15.215

>  <name>  (39) 
38

>  <ligand_id>  (39) 
38

>  <original_smiles>  (39) 
[H]c1c([H])c([H])c2c(c1[H])C([H])([H])C([H])([H])C([H])([H])C2([H])N([H])C(=O)C1([H])N(C(=O)C([H])(N([H])C(=O)C([H])(N([H])C([H])([H])[H])C([H])([H])[H])C(C([H])([H])[H])(C([H])([H])[H])C([H])([H])[H])C([H])([H])c2c([H])c(OC([H])([H])C([H])([H])C([H])([H])Oc3c([H])c(C([H])([H])[H])c([H])c(C([H])([H])[H])c3N([H])C(=O)N3C([H])([H])C([H])([H])C([H])([H])C([H])(n4nc(-c5c([H])c([H])c(Oc6c([H])c([H])c(F)c([H])c6F)c([H])c5[H])c(C(=O)N([H])[H])c4N([H])[H])C3([H])[H])c([H])c([H])c2C1([H])[H]

>  <smiles>  (39) 
[H]c1c([H])c([H])c2c(c1[H])C([H])([H])C([H])([H])C([H])([H])C2([H])N([H])C(=O)C1([H])N(C(=O)C([H])(N([H])C(=O)C([H])(N([H])C([H])([H])[H])C([H])([H])[H])C(C([H])([H])[H])(C([H])([H])[H])C([H])([H])[H])C([H])([H])c2c([H])c(OC([H])([H])C([H])([H])C([H])([H])Oc3c([H])c(C([H])([H])[H])c([H])c(C([H])([H])[H])c3N([H])C(=O)N3C([H])([H])C([H])([H])C([H])([H])C([H])(n4nc(-c5c([H])c([H])c(Oc6c([H])c([H])c(F)c([H])c6F)c([H])c5[H])c(C(=O)N([H])[H])c4N([H])[H])C3([H])[H])c([H])c([H])c2C1([H])[H]

$$$$
39:0:0
     RDKit          3D

 97107  0  0  1  0  0  0  0  0999 V2000
  -29.7610  -19.9520   21.8190 C   0  0  0  0  0  3  0  0  0  0  0  0
  -29.7360  -21.3240   22.1440 C   0  0  0  0  0  3  0  0  0  0  0  0
  -28.6550  -21.8050   20.0320 C   0  0  0  0  0  3  0  0  0  0  0  0
  -29.2240  -19.4870   20.6000 C   0  0  0  0  0  0  0  0  0  0  0  0
  -28.6590  -20.4320   19.7020 C   0  0  0  0  0  0  0  0  0  0  0  0
  -29.1820  -22.2690   21.2590 C   0  0  0  0  0  0  0  0  0  0  0  0
  -30.2380  -17.5750   19.2010 C   0  0  0  0  0  2  0  0  0  0  0  0
  -29.2560  -18.0160   20.2590 C   0  0  0  0  0  3  0  0  0  0  0  0
  -30.3670  -17.0290   20.6050 C   0  0  0  0  0  3  0  0  0  0  0  0
  -30.7790  -14.6240   20.3060 C   0  0  0  0  0  0  0  0  0  0  0  0
  -30.4470  -12.5130   19.0910 C   0  0  0  0  0  2  0  0  0  0  0  0
  -29.4860  -12.7830   17.9150 C   0  0  0  0  0  2  0  0  0  0  0  0
  -28.0170  -12.6460   18.3630 C   0  0  0  0  0  2  0  0  0  0  0  0
  -27.7120  -13.4340   19.6660 C   0  0  0  0  0  3  0  0  0  0  0  0
  -28.7830  -13.1510   20.7450 C   0  0  0  0  0  2  0  0  0  0  0  0
  -30.1040  -13.4540   20.1670 N   0  0  0  0  0  0  0  0  0  0  0  0
  -31.9030  -14.8210   19.8330 O   0  0  0  0  0  0  0  0  0  0  0  0
  -30.0440  -15.6410   20.7770 N   0  0  0  0  0  0  0  0  0  0  0  0
  -29.1350  -15.4130   21.1470 H   0  0  0  0  0  0  0  0  0  0  0  0
  -25.3160  -14.0320   20.3970 C   0  0  0  0  0  0  0  0  0  0  0  0
  -24.2570  -13.2550   20.7790 C   0  0  0  0  0  0  0  0  0  0  0  0
  -24.7230  -11.9060   20.7440 C   0  0  0  0  0  0  0  0  0  0  0  0
  -26.3640  -13.1570   20.1560 N   0  0  0  0  0  0  0  0  0  0  0  0
  -26.0100  -11.8730   20.4190 N   0  0  0  0  0  0  0  0  0  0  0  0
  -24.0070  -10.6400   20.9430 C   0  0  0  0  0  0  0  0  0  0  0  0
  -24.4360   -9.6890   21.8960 C   0  0  0  0  0  3  0  0  0  0  0  0
  -23.7200   -8.4880   22.0800 C   0  0  0  0  0  3  0  0  0  0  0  0
  -22.5600   -8.2280   21.3120 C   0  0  0  0  0  0  0  0  0  0  0  0
  -22.1500   -9.1660   20.3490 C   0  0  0  0  0  3  0  0  0  0  0  0
  -22.8680  -10.3600   20.1630 C   0  0  0  0  0  3  0  0  0  0  0  0
  -21.8150   -7.0770   21.4060 O   0  0  0  0  0  0  0  0  0  0  0  0
  -21.7240   -6.3720   22.5790 C   0  0  0  0  0  0  0  0  0  0  0  0
  -21.2410   -6.9620   23.7670 C   0  0  0  0  0  3  0  0  0  0  0  0
  -21.0960   -6.1830   24.9310 C   0  0  0  0  0  3  0  0  0  0  0  0
  -21.4270   -4.8150   24.9100 C   0  0  0  0  0  0  0  0  0  0  0  0
  -21.9040   -4.2240   23.7260 C   0  0  0  0  0  3  0  0  0  0  0  0
  -22.0500   -5.0010   22.5640 C   0  0  0  0  0  0  0  0  0  0  0  0
  -22.4880   -4.4220   21.4200 F   0  0  0  0  0  0  0  0  0  0  0  0
  -21.2810   -4.0640   26.0270 F   0  0  0  0  0  0  0  0  0  0  0  0
  -22.8600  -13.7240   21.0700 C   0  0  0  0  0  0  0  0  0  0  0  0
  -22.1580  -13.0370   21.9640 N   0  0  0  0  0  0  0  0  0  0  0  0
  -22.4010  -14.7370   20.5430 O   0  0  0  0  0  0  0  0  0  0  0  0
  -22.5430  -12.2190   22.4130 H   0  0  0  0  0  0  0  0  0  0  0  0
  -21.2230  -13.3350   22.2060 H   0  0  0  0  0  0  0  0  0  0  0  0
  -25.4700  -15.4040   20.2160 N   0  0  0  0  0  0  0  0  0  0  0  0
  -24.6950  -16.0490   20.3260 H   0  0  0  0  0  0  0  0  0  0  0  0
  -26.3040  -15.8440   19.8520 H   0  0  0  0  0  0  0  0  0  0  0  0
  -28.0510  -20.0150   18.3640 C   0  0  0  0  0  2  0  0  0  0  0  0
  -24.5960  -21.5510   17.8680 C   0  0  0  0  0  2  0  0  0  0  0  0
  -24.7430  -20.6300   16.6550 C   0  0  0  0  0  2  0  0  0  0  0  0
  -25.9880  -21.5780   18.4920 C   0  0  0  0  0  2  0  0  0  0  0  0
  -25.9090  -19.6810   16.9770 C   0  0  0  0  0  2  0  0  0  0  0  0
  -26.5140  -20.1490   18.3130 C   0  0  0  0  0  3  0  0  0  0  0  0
  -29.1850  -23.5940   21.6490 O   0  0  0  0  0  0  0  0  0  0  0  0
  -28.6250  -24.5680   20.7660 C   0  0  0  0  0  2  0  0  0  0  0  0
  -28.7220  -25.9650   21.3990 C   0  0  0  0  0  2  0  0  0  0  0  0
  -28.6340  -26.9840   20.4030 O   0  0  0  0  0  0  0  0  0  0  0  0
  -24.5750  -31.9980   23.3820 C   0  0  0  0  0  0  0  0  0  0  0  0
  -27.4450  -27.6650   20.3910 C   0  0  0  0  0  0  0  0  0  0  0  0
  -23.4650  -30.5780   21.6860 C   0  0  0  0  0  3  0  0  0  0  0  0
  -25.0120  -29.0840   20.3140 C   0  0  0  0  0  0  0  0  0  0  0  0
  -25.9830  -31.0080   21.5860 C   0  0  0  0  0  2  0  0  0  0  0  0
  -26.1290  -29.6430   20.9480 C   0  0  0  0  0  0  0  0  0  0  0  0
  -27.3500  -28.9370   20.9880 C   0  0  0  0  0  3  0  0  0  0  0  0
  -26.3180  -27.1080   19.7540 C   0  0  0  0  0  3  0  0  0  0  0  0
  -25.0990  -27.8130   19.7150 C   0  0  0  0  0  3  0  0  0  0  0  0
  -23.7450  -29.9090   20.3120 C   0  0  0  0  0  2  0  0  0  0  0  0
  -24.6900  -31.2090   22.2780 N   0  0  0  0  0  0  0  0  0  0  0  0
  -23.4680  -32.2410   23.8840 O   0  0  0  0  0  0  0  0  0  0  0  0
  -22.8030  -29.5370   22.6150 C   0  0  0  0  0  0  0  0  0  0  0  0
  -21.4830  -29.3520   22.4570 N   0  0  0  0  0  0  0  0  0  0  0  0
  -23.4740  -28.8980   23.4300 O   0  0  0  0  0  0  0  0  0  0  0  0
  -21.0060  -29.9190   21.7700 H   0  0  0  0  0  0  0  0  0  0  0  0
  -18.1000  -28.1610   22.8840 C   0  0  0  0  0  0  0  0  0  0  0  0
  -20.6550  -28.3970   23.1930 C   0  0  0  0  0  3  0  0  0  0  0  0
  -20.7580  -26.9830   22.5770 C   0  0  0  0  0  2  0  0  0  0  0  0
  -19.6670  -26.6950   21.5410 C   0  0  0  0  0  2  0  0  0  0  0  0
  -18.2780  -26.8290   22.1730 C   0  0  0  0  0  2  0  0  0  0  0  0
  -19.2170  -28.9040   23.3470 C   0  0  0  0  0  0  0  0  0  0  0  0
  -18.9990  -30.1520   23.9700 C   0  0  0  0  0  3  0  0  0  0  0  0
  -17.6950  -30.6570   24.1330 C   0  0  0  0  0  3  0  0  0  0  0  0
  -16.5920  -29.9110   23.6860 C   0  0  0  0  0  3  0  0  0  0  0  0
  -16.7940  -28.6640   23.0690 C   0  0  0  0  0  3  0  0  0  0  0  0
  -25.8230  -32.6510   24.0560 C   0  0  0  0  0  3  0  0  0  0  0  0
  -25.4850  -34.0490   24.3530 N   0  0  0  0  0  0  0  0  0  0  0  0
  -25.8420  -35.0950   23.5950 C   0  0  0  0  0  0  0  0  0  0  0  0
  -26.5620  -34.9850   22.5980 O   0  0  0  0  0  0  0  0  0  0  0  0
  -24.8510  -34.2080   25.1220 H   0  0  0  0  0  0  0  0  0  0  0  0
  -24.1120  -36.8580   23.1260 C   0  0  0  0  0  1  0  0  0  0  0  0
  -25.3150  -36.4820   24.0060 C   0  0  0  0  0  3  0  0  0  0  0  0
  -27.3930  -37.4050   24.9330 C   0  0  0  0  0  1  0  0  0  0  0  0
  -26.3390  -37.5470   23.9310 N   0  0  0  0  0  0  0  0  0  0  0  0
  -25.9150  -38.4630   24.0470 H   0  0  0  0  0  0  0  0  0  0  0  0
  -26.2910  -31.9000   25.3630 C   0  0  1  0  0  0  0  0  0  0  0  0
  -25.1500  -31.6520   26.3770 C   0  0  0  0  0  1  0  0  0  0  0  0
  -26.9150  -30.5300   25.0080 C   0  0  0  0  0  1  0  0  0  0  0  0
  -27.3950  -32.7170   26.0720 C   0  0  0  0  0  1  0  0  0  0  0  0
  1  2  1  0
  3  6  1  0
  4  1  2  0
  5  3  2  0
  5  4  1  0
  6 54  1  0
  6  2  2  0
  7  8  1  0
  7  9  1  0
  8  4  1  0
  8  9  1  0
  9 18  1  0
 10 18  1  0
 11 16  1  0
 12 13  1  0
 12 11  1  0
 14 13  1  0
 14 23  1  0
 14 15  1  0
 16 10  1  0
 16 15  1  0
 17 10  2  0
 18 19  1  0
 20 21  2  0
 21 40  1  0
 22 21  1  0
 22 25  1  0
 23 20  1  0
 23 24  1  0
 24 22  2  0
 25 26  1  0
 26 27  2  0
 28 31  1  0
 28 27  1  0
 29 28  2  0
 30 29  1  0
 30 25  2  0
 31 32  1  0
 32 33  1  0
 33 34  2  0
 35 34  1  0
 35 39  1  0
 36 35  2  0
 37 32  2  0
 37 36  1  0
 38 37  1  0
 40 41  1  0
 41 44  1  0
 41 43  1  0
 42 40  2  0
 45 46  1  0
 45 20  1  0
 47 45  1  0
 48  5  1  0
 49 51  1  0
 50 52  1  0
 50 49  1  0
 52 53  1  0
 53 48  1  0
 53 51  1  0
 55 56  1  0
 55 54  1  0
 57 56  1  0
 58 69  2  0
 59 57  1  0
 59 64  1  0
 60 68  1  0
 60 70  1  0
 61 63  1  0
 62 68  1  0
 63 64  2  0
 63 62  1  0
 65 59  2  0
 66 65  1  0
 66 61  2  0
 67 61  1  0
 67 60  1  0
 68 58  1  0
 70 72  2  0
 71 70  1  0
 73 71  1  0
 74 83  2  0
 74 79  1  0
 75 71  1  0
 75 79  1  0
 76 75  1  0
 77 78  1  0
 77 76  1  0
 78 74  1  0
 79 80  2  0
 80 81  1  0
 82 81  2  0
 83 82  1  0
 84 58  1  0
 84 85  1  0
 84 94  1  0
 85 88  1  0
 86 90  1  0
 86 85  1  0
 87 86  2  0
 90 89  1  0
 92 90  1  0
 92 93  1  0
 92 91  1  0
 94 97  1  1
 94 95  1  0
 96 94  1  0
M  ISO  4  10 100  18 100  56 101  57 101
M  END
>  <TORSDO>  (40) 
F 22

>  <SCORE>  (40) 
-12.580

>  <name>  (40) 
39

>  <ligand_id>  (40) 
39

>  <original_smiles>  (40) 
[H]c1c([H])c([H])c2c(c1[H])C([H])([H])C([H])([H])C([H])([H])C2([H])N([H])C(=O)C1([H])N(C(=O)C([H])(N([H])C(=O)C([H])(N([H])C([H])([H])[H])C([H])([H])[H])C(C([H])([H])[H])(C([H])([H])[H])C([H])([H])[H])C([H])([H])c2c([H])c(OC([H])([H])C([H])([H])Oc3c([H])c([H])c(C4([H])C([H])([H])C4([H])N([H])C(=O)N4C([H])([H])C([H])([H])C([H])([H])C([H])(n5nc(-c6c([H])c([H])c(Oc7c([H])c([H])c(F)c([H])c7F)c([H])c6[H])c(C(=O)N([H])[H])c5N([H])[H])C4([H])[H])c(C([H])([H])C4([H])C([H])([H])C([H])([H])C([H])([H])C4([H])[H])c3[H])c([H])c([H])c2C1([H])[H]

>  <smiles>  (40) 
[H]c1c([H])c([H])c2c(c1[H])C([H])([H])C([H])([H])C([H])([H])C2([H])N([H])C(=O)C1([H])N(C(=O)C([H])(N([H])C(=O)C([H])(N([H])C([H])([H])[H])C([H])([H])[H])C(C([H])([H])[H])(C([H])([H])[H])C([H])([H])[H])C([H])([H])c2c([H])c(OC([H])([H])C([H])([H])Oc3c([H])c([H])c(C4([H])C([H])([H])C4([H])N([H])C(=O)N4C([H])([H])C([H])([H])C([H])([H])C([H])(n5nc(-c6c([H])c([H])c(Oc7c([H])c([H])c(F)c([H])c7F)c([H])c6[H])c(C(=O)N([H])[H])c5N([H])[H])C4([H])[H])c(C([H])([H])C4([H])C([H])([H])C([H])([H])C([H])([H])C4([H])[H])c3[H])c([H])c([H])c2C1([H])[H]

$$$$
40:0:0
     RDKit          3D

 98107  0  0  1  0  0  0  0  0999 V2000
  -29.4150  -20.6710   19.8660 C   0  0  0  0  0  3  0  0  0  0  0  0
  -30.9010  -20.5060   20.2870 C   0  0  0  0  0  3  0  0  0  0  0  0
  -31.0830  -18.9960   20.6470 C   0  0  0  0  0  3  0  0  0  0  0  0
  -29.6690  -18.4050   20.9230 C   0  0  0  0  0  3  0  0  0  0  0  0
  -32.0940  -18.7820   21.7970 C   0  0  0  0  0  1  0  0  0  0  0  0
  -28.7170  -19.5060   20.4960 N   0  0  0  0  0  4  0  0  0  0  0  0
  -28.0260  -19.1540   19.8510 H   0  0  0  0  0  0  0  0  0  0  0  0
  -28.2270  -19.8280   21.3150 H   0  0  0  0  0  0  0  0  0  0  0  0
  -28.9640  -22.8980   21.2280 C   0  0  0  0  0  3  0  0  0  0  0  0
  -28.7230  -24.3050   21.2890 C   0  0  0  0  0  3  0  0  0  0  0  0
  -28.0050  -24.2920   19.0130 C   0  0  0  0  0  3  0  0  0  0  0  0
  -28.8140  -22.1450   20.0300 C   0  0  0  0  0  0  0  0  0  0  0  0
  -28.2470  -22.8800   18.9360 C   0  0  0  0  0  0  0  0  0  0  0  0
  -28.2880  -25.0660   20.1720 C   0  0  0  0  0  0  0  0  0  0  0  0
  -27.9440  -22.1900   17.6170 C   0  0  0  0  0  1  0  0  0  0  0  0
  -28.3220  -26.4840   20.1910 O   0  0  0  0  0  0  0  0  0  0  0  0
  -24.6200  -31.9150   23.2550 C   0  0  0  0  0  0  0  0  0  0  0  0
  -27.1860  -27.3070   20.2120 C   0  0  0  0  0  0  0  0  0  0  0  0
  -23.4110  -30.5160   21.6220 C   0  0  0  0  0  3  0  0  0  0  0  0
  -24.8440  -28.9430   20.2100 C   0  0  0  0  0  0  0  0  0  0  0  0
  -25.9530  -30.8080   21.4400 C   0  0  0  0  0  2  0  0  0  0  0  0
  -26.0160  -29.4210   20.8040 C   0  0  0  0  0  0  0  0  0  0  0  0
  -27.1930  -28.6120   20.7990 C   0  0  0  0  0  3  0  0  0  0  0  0
  -25.9900  -26.8780   19.6040 C   0  0  0  0  0  3  0  0  0  0  0  0
  -24.8320  -27.6730   19.6080 C   0  0  0  0  0  3  0  0  0  0  0  0
  -23.6200  -29.8300   20.2460 C   0  0  0  0  0  2  0  0  0  0  0  0
  -24.6800  -31.1010   22.1620 N   0  0  0  0  0  0  0  0  0  0  0  0
  -23.5370  -32.2020   23.7870 O   0  0  0  0  0  0  0  0  0  0  0  0
  -22.7370  -29.5130   22.5890 C   0  0  0  0  0  0  0  0  0  0  0  0
  -21.4090  -29.3440   22.4620 N   0  0  0  0  0  0  0  0  0  0  0  0
  -23.4140  -28.8850   23.4070 O   0  0  0  0  0  0  0  0  0  0  0  0
  -20.9260  -29.8980   21.7680 H   0  0  0  0  0  0  0  0  0  0  0  0
  -18.0240  -28.1710   22.9700 C   0  0  0  0  0  0  0  0  0  0  0  0
  -20.5840  -28.4160   23.2400 C   0  0  0  0  0  3  0  0  0  0  0  0
  -20.6850  -26.9820   22.6720 C   0  0  0  0  0  2  0  0  0  0  0  0
  -19.5820  -26.6580   21.6590 C   0  0  0  0  0  2  0  0  0  0  0  0
  -18.1970  -26.8160   22.2970 C   0  0  0  0  0  2  0  0  0  0  0  0
  -19.1490  -28.9280   23.3970 C   0  0  0  0  0  0  0  0  0  0  0  0
  -18.9370  -30.1950   23.9830 C   0  0  0  0  0  3  0  0  0  0  0  0
  -17.6370  -30.7080   24.1370 C   0  0  0  0  0  3  0  0  0  0  0  0
  -16.5280  -29.9470   23.7310 C   0  0  0  0  0  3  0  0  0  0  0  0
  -16.7220  -28.6790   23.1540 C   0  0  0  0  0  3  0  0  0  0  0  0
  -25.9050  -32.5450   23.8760 C   0  0  0  0  0  3  0  0  0  0  0  0
  -26.4160  -31.7720   25.1550 C   0  0  1  0  0  0  0  0  0  0  0  0
  -25.3230  -31.5360   26.2260 C   0  0  0  0  0  1  0  0  0  0  0  0
  -26.9950  -30.3940   24.7620 C   0  0  0  0  0  1  0  0  0  0  0  0
  -27.5810  -32.5520   25.8040 C   0  0  0  0  0  1  0  0  0  0  0  0
  -25.6030  -33.9460   24.2080 N   0  0  0  0  0  0  0  0  0  0  0  0
  -25.9290  -34.9960   23.4430 C   0  0  0  0  0  0  0  0  0  0  0  0
  -26.5870  -34.8870   22.4040 O   0  0  0  0  0  0  0  0  0  0  0  0
  -25.0180  -34.1070   25.0160 H   0  0  0  0  0  0  0  0  0  0  0  0
  -24.1960  -36.7880   23.1090 C   0  0  0  0  0  1  0  0  0  0  0  0
  -25.4470  -36.3850   23.9040 C   0  0  0  0  0  3  0  0  0  0  0  0
  -27.6000  -37.2690   24.6910 C   0  0  0  0  0  1  0  0  0  0  0  0
  -26.4770  -37.4390   23.7720 N   0  0  0  0  0  0  0  0  0  0  0  0
  -26.0710  -38.3560   23.9350 H   0  0  0  0  0  0  0  0  0  0  0  0
  -32.0080  -20.3730   17.8840 C   0  0  0  0  0  1  0  0  0  0  0  0
  -31.9050  -22.5750   19.1040 C   0  0  0  0  0  1  0  0  0  0  0  0
  -31.9740  -21.0480   19.2790 C   0  0  0  0  0  3  0  0  0  0  0  0
  -29.4090  -16.9880   20.2090 C   0  0  0  0  0  2  0  0  0  0  0  0
  -30.5620  -14.6520   20.4290 C   0  0  0  0  0  0  0  0  0  0  0  0
  -30.3810  -12.4110   19.3600 C   0  0  0  0  0  2  0  0  0  0  0  0
  -29.4400  -12.5630   18.1430 C   0  0  0  0  0  2  0  0  0  0  0  0
  -27.9600  -12.4130   18.5560 C   0  0  0  0  0  2  0  0  0  0  0  0
  -27.6090  -13.2500   19.8150 C   0  0  0  0  0  3  0  0  0  0  0  0
  -28.6610  -13.0500   20.9310 C   0  0  0  0  0  2  0  0  0  0  0  0
  -29.9760  -13.4090   20.3710 N   0  0  0  0  0  0  0  0  0  0  0  0
  -31.6780  -14.8620   19.9430 O   0  0  0  0  0  0  0  0  0  0  0  0
  -29.7560  -15.6720   20.8670 N   0  0  0  0  0  0  0  0  0  0  0  0
  -28.9810  -15.3080   21.4040 H   0  0  0  0  0  0  0  0  0  0  0  0
  -25.2150  -13.8690   20.5150 C   0  0  0  0  0  0  0  0  0  0  0  0
  -24.1410  -13.1030   20.8850 C   0  0  0  0  0  0  0  0  0  0  0  0
  -24.5950  -11.7510   20.8570 C   0  0  0  0  0  0  0  0  0  0  0  0
  -26.2540  -12.9810   20.2860 N   0  0  0  0  0  0  0  0  0  0  0  0
  -25.8870  -11.7010   20.5490 N   0  0  0  0  0  0  0  0  0  0  0  0
  -23.8610  -10.4930   21.0490 C   0  0  0  0  0  0  0  0  0  0  0  0
  -24.2980   -9.5190   21.9740 C   0  0  0  0  0  3  0  0  0  0  0  0
  -23.5670   -8.3250   22.1580 C   0  0  0  0  0  3  0  0  0  0  0  0
  -22.3840   -8.0980   21.4120 C   0  0  0  0  0  0  0  0  0  0  0  0
  -21.9660   -9.0610   20.4760 C   0  0  0  0  0  3  0  0  0  0  0  0
  -22.6980  -10.2460   20.2930 C   0  0  0  0  0  3  0  0  0  0  0  0
  -21.6270   -6.9560   21.5000 O   0  0  0  0  0  0  0  0  0  0  0  0
  -21.5930   -6.2020   22.6460 C   0  0  0  0  0  0  0  0  0  0  0  0
  -21.2010   -6.7510   23.8870 C   0  0  0  0  0  3  0  0  0  0  0  0
  -21.1180   -5.9260   25.0260 C   0  0  0  0  0  3  0  0  0  0  0  0
  -21.4120   -4.5530   24.9250 C   0  0  0  0  0  0  0  0  0  0  0  0
  -21.7970   -4.0030   23.6900 C   0  0  0  0  0  3  0  0  0  0  0  0
  -21.8850   -4.8260   22.5520 C   0  0  0  0  0  0  0  0  0  0  0  0
  -22.2350   -4.2890   21.3610 F   0  0  0  0  0  0  0  0  0  0  0  0
  -21.3230   -3.7600   26.0170 F   0  0  0  0  0  0  0  0  0  0  0  0
  -22.7480  -13.5920   21.1560 C   0  0  0  0  0  0  0  0  0  0  0  0
  -22.0200  -12.9000   22.0250 N   0  0  0  0  0  0  0  0  0  0  0  0
  -22.3120  -14.6180   20.6330 O   0  0  0  0  0  0  0  0  0  0  0  0
  -22.3840  -12.0710   22.4670 H   0  0  0  0  0  0  0  0  0  0  0  0
  -21.0860  -13.2060   22.2560 H   0  0  0  0  0  0  0  0  0  0  0  0
  -25.3870  -15.2380   20.3390 N   0  0  0  0  0  0  0  0  0  0  0  0
  -24.6200  -15.8980   20.4360 H   0  0  0  0  0  0  0  0  0  0  0  0
  -26.2330  -15.6640   19.9910 H   0  0  0  0  0  0  0  0  0  0  0  0
  1 12  1  0
  1  2  1  0
  1  6  1  0
  2 59  1  0
  2  3  1  0
  3  4  1  0
  3  5  1  0
  4 60  1  0
  6  4  1  0
  6  8  1  0
  7  6  1  0
  9 10  1  0
 11 14  1  0
 12  9  2  0
 13 11  2  0
 13 12  1  0
 14 16  1  0
 14 10  2  0
 15 13  1  0
 16 18  1  0
 17 28  2  0
 18 23  1  0
 19 27  1  0
 19 29  1  0
 20 26  1  0
 20 22  1  0
 21 27  1  0
 22 21  1  0
 23 22  2  0
 24 25  1  0
 24 18  2  0
 25 20  2  0
 26 19  1  0
 27 17  1  0
 29 31  2  0
 30 29  1  0
 32 30  1  0
 33 42  2  0
 33 38  1  0
 34 30  1  0
 34 38  1  0
 35 34  1  0
 36 37  1  0
 36 35  1  0
 37 33  1  0
 38 39  2  0
 39 40  1  0
 41 40  2  0
 42 41  1  0
 43 17  1  0
 43 48  1  0
 43 44  1  0
 44 47  1  1
 44 45  1  0
 46 44  1  0
 48 51  1  0
 49 53  1  0
 49 48  1  0
 50 49  2  0
 53 52  1  0
 55 53  1  0
 55 56  1  0
 55 54  1  0
 57 59  1  0
 58 59  1  0
 60 69  1  0
 61 69  1  0
 62 67  1  0
 63 64  1  0
 63 62  1  0
 65 64  1  0
 65 74  1  0
 65 66  1  0
 67 61  1  0
 67 66  1  0
 68 61  2  0
 69 70  1  0
 71 72  2  0
 72 91  1  0
 73 72  1  0
 73 76  1  0
 74 71  1  0
 74 75  1  0
 75 73  2  0
 76 77  1  0
 77 78  2  0
 79 82  1  0
 79 78  1  0
 80 79  2  0
 81 80  1  0
 81 76  2  0
 82 83  1  0
 83 84  1  0
 84 85  2  0
 86 85  1  0
 86 90  1  0
 87 86  2  0
 88 83  2  0
 88 87  1  0
 89 88  1  0
 91 92  1  0
 92 95  1  0
 92 94  1  0
 93 91  2  0
 96 97  1  0
 96 71  1  0
 98 96  1  0
M  ISO  4  14 101  16 101  61 100  69 100
M  END
>  <TORSDO>  (41) 
F 19

>  <SCORE>  (41) 
-14.475

>  <name>  (41) 
40

>  <ligand_id>  (41) 
40

>  <original_smiles>  (41) 
[H]c1c([H])c([H])c2c(c1[H])C([H])([H])C([H])([H])C([H])([H])C2([H])N([H])C(=O)C1([H])N(C(=O)C([H])(N([H])C(=O)C([H])(N([H])C([H])([H])[H])C([H])([H])[H])C(C([H])([H])[H])(C([H])([H])[H])C([H])([H])[H])C([H])([H])c2c([H])c(Oc3c([H])c([H])c(C4([H])C([H])(C([H])(C([H])([H])[H])C([H])([H])[H])C([H])(C([H])([H])[H])C([H])(C([H])([H])N([H])C(=O)N5C([H])([H])C([H])([H])C([H])([H])C([H])(n6nc(-c7c([H])c([H])c(Oc8c([H])c([H])c(F)c([H])c8F)c([H])c7[H])c(C(=O)N([H])[H])c6N([H])[H])C5([H])[H])[N+]4([H])[H])c(C([H])([H])[H])c3[H])c([H])c([H])c2C1([H])[H]

>  <smiles>  (41) 
[H]c1c([H])c([H])c2c(c1[H])C([H])([H])C([H])([H])C([H])([H])C2([H])N([H])C(=O)C1([H])N(C(=O)C([H])(N([H])C(=O)C([H])(N([H])C([H])([H])[H])C([H])([H])[H])C(C([H])([H])[H])(C([H])([H])[H])C([H])([H])[H])C([H])([H])c2c([H])c(Oc3c([H])c([H])c(C4([H])C([H])(C([H])(C([H])([H])[H])C([H])([H])[H])C([H])(C([H])([H])[H])C([H])(C([H])([H])N([H])C(=O)N5C([H])([H])C([H])([H])C([H])([H])C([H])(n6nc(-c7c([H])c([H])c(Oc8c([H])c([H])c(F)c([H])c8F)c([H])c7[H])c(C(=O)N([H])[H])c6N([H])[H])C5([H])[H])[N+]4([H])[H])c(C([H])([H])[H])c3[H])c([H])c([H])c2C1([H])[H]

$$$$
41:0:0
     RDKit          3D

 94102  0  0  1  0  0  0  0  0999 V2000
  -28.9210  -20.4950   19.8560 C   0  0  0  0  0  2  0  0  0  0  0  0
  -29.7020  -21.3140   22.1240 C   0  0  0  0  0  2  0  0  0  0  0  0
  -29.1030  -21.9420   19.3220 C   0  0  0  0  0  2  0  0  0  0  0  0
  -28.7530  -22.4780   21.7280 C   0  0  0  0  0  2  0  0  0  0  0  0
  -29.8220  -20.1720   21.0730 C   0  0  0  0  0  3  0  0  0  0  0  0
  -29.0190  -23.0160   20.3650 N   0  0  2  0  0  4  0  0  0  0  0  0
  -29.9540  -23.4040   20.3970 H   0  0  0  0  0  0  0  0  0  0  0  0
  -29.5370  -18.8480   21.7090 N   0  0  0  0  0  4  0  0  0  0  0  0
  -28.6110  -18.8850   22.1050 H   0  0  0  0  0  0  0  0  0  0  0  0
  -30.1700  -18.7090   22.4830 H   0  0  0  0  0  0  0  0  0  0  0  0
  -29.5910  -17.5990   20.9040 C   0  0  0  0  0  2  0  0  0  0  0  0
  -31.2050  -16.6440   22.6740 C   0  0  0  0  0  1  0  0  0  0  0  0
  -30.8450  -16.7160   21.1760 C   0  0  0  0  0  3  0  0  0  0  0  0
  -31.2590  -14.4370   20.0590 C   0  0  0  0  0  0  0  0  0  0  0  0
  -30.9170  -12.2610   18.9310 C   0  0  0  0  0  2  0  0  0  0  0  0
  -29.9250  -12.4360   17.7610 C   0  0  0  0  0  2  0  0  0  0  0  0
  -28.4540  -12.3840   18.2360 C   0  0  0  0  0  2  0  0  0  0  0  0
  -28.1950  -13.2710   19.4820 C   0  0  0  0  0  3  0  0  0  0  0  0
  -29.2660  -12.9850   20.5550 C   0  0  0  0  0  2  0  0  0  0  0  0
  -30.5860  -13.2620   19.9510 N   0  0  0  0  0  0  0  0  0  0  0  0
  -32.3410  -14.6700   19.5110 O   0  0  0  0  0  0  0  0  0  0  0  0
  -30.5640  -15.3470   20.7590 N   0  0  0  0  0  0  0  0  0  0  0  0
  -29.6890  -14.9700   21.0940 H   0  0  0  0  0  0  0  0  0  0  0  0
  -25.8620  -14.0370   20.2610 C   0  0  0  0  0  0  0  0  0  0  0  0
  -24.7590  -13.3380   20.6710 C   0  0  0  0  0  0  0  0  0  0  0  0
  -25.1290  -11.9600   20.6240 C   0  0  0  0  0  0  0  0  0  0  0  0
  -26.8400  -13.0910   20.0000 N   0  0  0  0  0  0  0  0  0  0  0  0
  -26.4030  -11.8340   20.2710 N   0  0  0  0  0  0  0  0  0  0  0  0
  -24.3320  -10.7470   20.8410 C   0  0  0  0  0  0  0  0  0  0  0  0
  -24.7120   -9.7760   21.7930 C   0  0  0  0  0  3  0  0  0  0  0  0
  -23.9220   -8.6240   21.9960 C   0  0  0  0  0  3  0  0  0  0  0  0
  -22.7350   -8.4390   21.2480 C   0  0  0  0  0  0  0  0  0  0  0  0
  -22.3730   -9.3970   20.2870 C   0  0  0  0  0  3  0  0  0  0  0  0
  -23.1640  -10.5400   20.0810 C   0  0  0  0  0  3  0  0  0  0  0  0
  -21.9170   -7.3390   21.3590 O   0  0  0  0  0  0  0  0  0  0  0  0
  -21.7920   -6.6550   22.5420 C   0  0  0  0  0  0  0  0  0  0  0  0
  -21.3620   -7.2880   23.7280 C   0  0  0  0  0  3  0  0  0  0  0  0
  -21.1780   -6.5320   24.9030 C   0  0  0  0  0  3  0  0  0  0  0  0
  -21.4120   -5.1440   24.8920 C   0  0  0  0  0  0  0  0  0  0  0  0
  -21.8360   -4.5110   23.7100 C   0  0  0  0  0  3  0  0  0  0  0  0
  -22.0210   -5.2640   22.5380 C   0  0  0  0  0  0  0  0  0  0  0  0
  -22.4070   -4.6450   21.3970 F   0  0  0  0  0  0  0  0  0  0  0  0
  -21.2290   -4.4170   26.0190 F   0  0  0  0  0  0  0  0  0  0  0  0
  -23.4040  -13.9030   20.9900 C   0  0  0  0  0  0  0  0  0  0  0  0
  -22.6710  -13.2640   21.8920 N   0  0  0  0  0  0  0  0  0  0  0  0
  -23.0120  -14.9500   20.4760 O   0  0  0  0  0  0  0  0  0  0  0  0
  -23.0020  -12.4170   22.3290 H   0  0  0  0  0  0  0  0  0  0  0  0
  -21.7630  -13.6250   22.1470 H   0  0  0  0  0  0  0  0  0  0  0  0
  -26.1050  -15.3950   20.0680 N   0  0  0  0  0  0  0  0  0  0  0  0
  -25.3590  -16.0770   20.1420 H   0  0  0  0  0  0  0  0  0  0  0  0
  -26.9240  -15.7550   19.5920 H   0  0  0  0  0  0  0  0  0  0  0  0
  -28.1390  -24.1700   19.9780 C   0  0  0  0  0  2  0  0  0  0  0  0
  -28.3770  -25.4540   20.8270 C   0  0  0  0  0  2  0  0  0  0  0  0
  -28.3850  -26.6900   20.0870 O   0  0  0  0  0  0  0  0  0  0  0  0
  -24.6380  -31.8980   23.2320 C   0  0  0  0  0  0  0  0  0  0  0  0
  -27.2260  -27.4310   20.1270 C   0  0  0  0  0  0  0  0  0  0  0  0
  -23.4110  -30.4990   21.6040 C   0  0  0  0  0  3  0  0  0  0  0  0
  -24.8430  -28.9520   20.1660 C   0  0  0  0  0  0  0  0  0  0  0  0
  -25.9390  -30.8460   21.3780 C   0  0  0  0  0  2  0  0  0  0  0  0
  -26.0120  -29.4730   20.7370 C   0  0  0  0  0  0  0  0  0  0  0  0
  -27.2100  -28.7180   20.7120 C   0  0  0  0  0  3  0  0  0  0  0  0
  -26.0440  -26.9260   19.5490 C   0  0  0  0  0  3  0  0  0  0  0  0
  -24.8540  -27.6810   19.5710 C   0  0  0  0  0  3  0  0  0  0  0  0
  -23.6050  -29.8230   20.2220 C   0  0  0  0  0  2  0  0  0  0  0  0
  -24.6820  -31.0980   22.1280 N   0  0  0  0  0  0  0  0  0  0  0  0
  -23.5650  -32.1750   23.7840 O   0  0  0  0  0  0  0  0  0  0  0  0
  -22.7680  -29.4780   22.5710 C   0  0  0  0  0  0  0  0  0  0  0  0
  -21.4460  -29.2750   22.4370 N   0  0  0  0  0  0  0  0  0  0  0  0
  -23.4540  -28.8710   23.3960 O   0  0  0  0  0  0  0  0  0  0  0  0
  -20.9570  -29.8190   21.7420 H   0  0  0  0  0  0  0  0  0  0  0  0
  -18.0910  -28.0050   22.8910 C   0  0  0  0  0  0  0  0  0  0  0  0
  -20.6370  -28.3370   23.2120 C   0  0  0  0  0  3  0  0  0  0  0  0
  -20.7870  -26.8950   22.6760 C   0  0  0  0  0  2  0  0  0  0  0  0
  -19.7160  -26.5190   21.6470 C   0  0  0  0  0  2  0  0  0  0  0  0
  -18.3160  -26.6440   22.2560 C   0  0  0  0  0  2  0  0  0  0  0  0
  -19.1810  -28.8060   23.3260 C   0  0  0  0  0  0  0  0  0  0  0  0
  -18.9180  -30.0790   23.8760 C   0  0  0  0  0  3  0  0  0  0  0  0
  -17.5970  -30.5510   23.9980 C   0  0  0  0  0  3  0  0  0  0  0  0
  -16.5210  -29.7450   23.5850 C   0  0  0  0  0  3  0  0  0  0  0  0
  -16.7700  -28.4750   23.0340 C   0  0  0  0  0  3  0  0  0  0  0  0
  -25.9330  -32.5260   23.8370 C   0  0  0  0  0  3  0  0  0  0  0  0
  -25.6320  -33.9210   24.1790 N   0  0  0  0  0  0  0  0  0  0  0  0
  -25.9530  -34.9770   23.4180 C   0  0  0  0  0  0  0  0  0  0  0  0
  -26.6070  -34.8800   22.3770 O   0  0  0  0  0  0  0  0  0  0  0  0
  -25.0520  -34.0720   24.9910 H   0  0  0  0  0  0  0  0  0  0  0  0
  -24.2180  -36.7680   23.0910 C   0  0  0  0  0  1  0  0  0  0  0  0
  -25.4690  -36.3630   23.8870 C   0  0  0  0  0  3  0  0  0  0  0  0
  -27.6140  -37.2410   24.6970 C   0  0  0  0  0  1  0  0  0  0  0  0
  -26.5010  -37.4170   23.7680 N   0  0  0  0  0  0  0  0  0  0  0  0
  -26.0970  -38.3370   23.9270 H   0  0  0  0  0  0  0  0  0  0  0  0
  -26.4720  -31.7460   25.0980 C   0  0  1  0  0  0  0  0  0  0  0  0
  -25.3970  -31.4910   26.1830 C   0  0  0  0  0  1  0  0  0  0  0  0
  -27.0540  -30.3730   24.6840 C   0  0  0  0  0  1  0  0  0  0  0  0
  -27.6360  -32.5350   25.7460 C   0  0  0  0  0  1  0  0  0  0  0  0
  1  5  1  0
  3  1  1  0
  3  6  1  0
  4  2  1  0
  5  8  1  0
  5  2  1  0
  6  7  1  1
  6  4  1  0
  8  9  1  0
  8 10  1  0
 11 13  1  0
 11  8  1  0
 13 12  1  0
 14 22  1  0
 15 20  1  0
 16 17  1  0
 16 15  1  0
 18 17  1  0
 18 27  1  0
 18 19  1  0
 20 14  1  0
 20 19  1  0
 21 14  2  0
 22 23  1  0
 22 13  1  0
 24 25  2  0
 25 44  1  0
 26 25  1  0
 26 29  1  0
 27 24  1  0
 27 28  1  0
 28 26  2  0
 29 30  1  0
 30 31  2  0
 32 35  1  0
 32 31  1  0
 33 32  2  0
 34 33  1  0
 34 29  2  0
 35 36  1  0
 36 37  1  0
 37 38  2  0
 39 38  1  0
 39 43  1  0
 40 39  2  0
 41 36  2  0
 41 40  1  0
 42 41  1  0
 44 45  1  0
 45 48  1  0
 45 47  1  0
 46 44  2  0
 49 50  1  0
 49 24  1  0
 51 49  1  0
 52  6  1  0
 52 53  1  0
 54 56  1  0
 54 53  1  0
 55 66  2  0
 56 61  1  0
 57 65  1  0
 57 67  1  0
 58 64  1  0
 58 60  1  0
 59 65  1  0
 60 59  1  0
 61 60  2  0
 62 63  1  0
 62 56  2  0
 63 58  2  0
 64 57  1  0
 65 55  1  0
 67 69  2  0
 68 67  1  0
 70 68  1  0
 71 80  2  0
 71 76  1  0
 72 68  1  0
 72 76  1  0
 73 72  1  0
 74 75  1  0
 74 73  1  0
 75 71  1  0
 76 77  2  0
 77 78  1  0
 79 78  2  0
 80 79  1  0
 81 55  1  0
 81 82  1  0
 81 91  1  0
 82 85  1  0
 83 87  1  0
 83 82  1  0
 84 83  2  0
 87 86  1  0
 89 87  1  0
 89 90  1  0
 89 88  1  0
 91 94  1  1
 91 92  1  0
 93 91  1  0
M  ISO  4  14 100  22 100  53 101  54 101
M  END
>  <TORSDO>  (42) 
F 21

>  <SCORE>  (42) 
-12.583

>  <name>  (42) 
41

>  <ligand_id>  (42) 
41

>  <original_smiles>  (42) 
[H]c1c([H])c([H])c2c(c1[H])C([H])([H])C([H])([H])C([H])([H])C2([H])N([H])C(=O)C1([H])N(C(=O)C([H])(N([H])C(=O)C([H])(N([H])C([H])([H])[H])C([H])([H])[H])C(C([H])([H])[H])(C([H])([H])[H])C([H])([H])[H])C([H])([H])c2c([H])c(OC([H])([H])C([H])([H])[N+]3([H])C([H])([H])C([H])([H])C([H])([N+]([H])([H])C([H])([H])C([H])(N([H])C(=O)N4C([H])([H])C([H])([H])C([H])([H])C([H])(n5nc(-c6c([H])c([H])c(Oc7c([H])c([H])c(F)c([H])c7F)c([H])c6[H])c(C(=O)N([H])[H])c5N([H])[H])C4([H])[H])C([H])([H])[H])C([H])([H])C3([H])[H])c([H])c([H])c2C1([H])[H]

>  <smiles>  (42) 
[H]c1c([H])c([H])c2c(c1[H])C([H])([H])C([H])([H])C([H])([H])C2([H])N([H])C(=O)C1([H])N(C(=O)C([H])(N([H])C(=O)C([H])(N([H])C([H])([H])[H])C([H])([H])[H])C(C([H])([H])[H])(C([H])([H])[H])C([H])([H])[H])C([H])([H])c2c([H])c(OC([H])([H])C([H])([H])[N+]3([H])C([H])([H])C([H])([H])C([H])([N+]([H])([H])C([H])([H])C([H])(N([H])C(=O)N4C([H])([H])C([H])([H])C([H])([H])C([H])(n5nc(-c6c([H])c([H])c(Oc7c([H])c([H])c(F)c([H])c7F)c([H])c6[H])c(C(=O)N([H])[H])c5N([H])[H])C4([H])[H])C([H])([H])[H])C([H])([H])C3([H])[H])c([H])c([H])c2C1([H])[H]

$$$$
42:0:0
     RDKit          3D

 91 99  0  0  1  0  0  0  0  0999 V2000
  -28.9690  -23.9040   21.1080 C   0  0  0  0  0  3  0  0  0  0  0  0
  -29.1150  -22.5830   19.0890 C   0  0  0  0  0  3  0  0  0  0  0  0
  -30.0210  -21.6700   21.1410 C   0  0  0  0  0  3  0  0  0  0  0  0
  -28.7090  -23.8320   19.7310 C   0  0  0  0  0  0  0  0  0  0  0  0
  -29.6040  -22.8540   21.8080 C   0  0  0  0  0  0  0  0  0  0  0  0
  -29.7600  -21.4550   19.7670 C   0  0  0  0  0  0  0  0  0  0  0  0
  -30.1770  -21.9280   23.9540 C   0  0  0  0  0  1  0  0  0  0  0  0
  -29.7800  -23.0500   23.1630 O   0  0  0  0  0  0  0  0  0  0  0  0
  -27.9630  -25.0660   19.0100 C   0  0  0  0  0  2  0  0  0  0  0  0
  -27.8900  -26.4490   19.6080 O   0  0  0  0  0  0  0  0  0  0  0  0
  -24.5590  -31.8290   23.1280 C   0  0  0  0  0  0  0  0  0  0  0  0
  -26.7670  -27.3220   19.6410 C   0  0  0  0  0  0  0  0  0  0  0  0
  -23.1700  -30.5680   21.5140 C   0  0  0  0  0  3  0  0  0  0  0  0
  -24.4470  -29.0320   19.8940 C   0  0  0  0  0  0  0  0  0  0  0  0
  -25.7000  -30.7950   21.1470 C   0  0  0  0  0  2  0  0  0  0  0  0
  -25.6750  -29.4490   20.4230 C   0  0  0  0  0  0  0  0  0  0  0  0
  -26.8260  -28.6080   20.2830 C   0  0  0  0  0  3  0  0  0  0  0  0
  -25.5050  -26.9620   19.1080 C   0  0  0  0  0  3  0  0  0  0  0  0
  -24.3690  -27.7950   19.2300 C   0  0  0  0  0  3  0  0  0  0  0  0
  -23.2530  -29.9500   20.0900 C   0  0  0  0  0  2  0  0  0  0  0  0
  -24.5000  -31.0860   21.9810 N   0  0  0  0  0  0  0  0  0  0  0  0
  -23.5340  -32.1180   23.7640 O   0  0  0  0  0  0  0  0  0  0  0  0
  -22.5380  -29.5360   22.4780 C   0  0  0  0  0  0  0  0  0  0  0  0
  -21.2150  -29.3260   22.3670 N   0  0  0  0  0  0  0  0  0  0  0  0
  -23.2410  -28.9220   23.2840 O   0  0  0  0  0  0  0  0  0  0  0  0
  -20.7050  -29.8790   21.6940 H   0  0  0  0  0  0  0  0  0  0  0  0
  -17.9100  -27.9070   22.7730 C   0  0  0  0  0  0  0  0  0  0  0  0
  -20.4310  -28.3610   23.1380 C   0  0  0  0  0  3  0  0  0  0  0  0
  -20.6550  -26.9210   22.6180 C   0  0  0  0  0  2  0  0  0  0  0  0
  -19.6250  -26.4900   21.5690 C   0  0  0  0  0  2  0  0  0  0  0  0
  -18.2100  -26.5550   22.1490 C   0  0  0  0  0  2  0  0  0  0  0  0
  -18.9530  -28.7630   23.2210 C   0  0  0  0  0  0  0  0  0  0  0  0
  -18.6190  -30.0240   23.7620 C   0  0  0  0  0  3  0  0  0  0  0  0
  -17.2750  -30.4350   23.8590 C   0  0  0  0  0  3  0  0  0  0  0  0
  -16.2480  -29.5810   23.4250 C   0  0  0  0  0  3  0  0  0  0  0  0
  -16.5650  -28.3190   22.8930 C   0  0  0  0  0  3  0  0  0  0  0  0
  -25.9110  -32.3800   23.6800 C   0  0  0  0  0  3  0  0  0  0  0  0
  -25.6910  -33.7720   24.1000 N   0  0  0  0  0  0  0  0  0  0  0  0
  -26.0650  -34.8500   23.3970 C   0  0  0  0  0  0  0  0  0  0  0  0
  -26.6950  -34.7730   22.3400 O   0  0  0  0  0  0  0  0  0  0  0  0
  -25.1390  -33.9070   24.9330 H   0  0  0  0  0  0  0  0  0  0  0  0
  -24.4440  -36.7690   23.2100 C   0  0  0  0  0  1  0  0  0  0  0  0
  -25.6760  -36.2330   23.9600 C   0  0  0  0  0  3  0  0  0  0  0  0
  -27.8730  -36.9380   24.7980 C   0  0  0  0  0  1  0  0  0  0  0  0
  -26.7690  -37.2260   23.8870 N   0  0  0  0  0  0  0  0  0  0  0  0
  -26.4230  -38.1590   24.0940 H   0  0  0  0  0  0  0  0  0  0  0  0
  -26.4890  -31.5280   24.8770 C   0  0  1  0  0  0  0  0  0  0  0  0
  -25.4710  -31.2900   26.0140 C   0  0  0  0  0  1  0  0  0  0  0  0
  -26.9830  -30.1470   24.3840 C   0  0  0  0  0  1  0  0  0  0  0  0
  -27.7170  -32.2430   25.4910 C   0  0  0  0  0  1  0  0  0  0  0  0
  -30.0600  -20.2090   19.1110 O   0  0  0  0  0  0  0  0  0  0  0  0
  -30.6110  -18.9420   19.7250 C   0  0  0  0  0  3  0  0  0  0  0  0
  -30.0310  -17.5260   19.1940 C   0  0  0  0  0  3  0  0  0  0  0  0
  -30.9530  -15.0900   19.8110 C   0  0  0  0  0  0  0  0  0  0  0  0
  -30.8780  -12.6850   19.1520 C   0  0  0  0  0  2  0  0  0  0  0  0
  -29.9320  -12.5560   17.9340 C   0  0  0  0  0  2  0  0  0  0  0  0
  -28.4560  -12.4260   18.3830 C   0  0  0  0  0  2  0  0  0  0  0  0
  -28.0720  -13.4170   19.5190 C   0  0  0  0  0  3  0  0  0  0  0  0
  -29.1530  -13.4720   20.6220 C   0  0  0  0  0  2  0  0  0  0  0  0
  -30.4170  -13.8280   19.9690 N   0  0  0  0  0  0  0  0  0  0  0  0
  -32.0950  -15.2220   19.3590 O   0  0  0  0  0  0  0  0  0  0  0  0
  -30.1330  -16.1970   19.9680 N   0  0  0  0  0  0  0  0  0  0  0  0
  -29.2770  -15.9760   20.4570 H   0  0  0  0  0  0  0  0  0  0  0  0
  -25.7390  -14.0540   20.4010 C   0  0  0  0  0  0  0  0  0  0  0  0
  -24.6700  -13.3020   20.8100 C   0  0  0  0  0  0  0  0  0  0  0  0
  -25.0790  -11.9360   20.6740 C   0  0  0  0  0  0  0  0  0  0  0  0
  -26.7390  -13.1530   20.0600 N   0  0  0  0  0  0  0  0  0  0  0  0
  -26.3520  -11.8670   20.2840 N   0  0  0  0  0  0  0  0  0  0  0  0
  -24.3170  -10.6980   20.8470 C   0  0  0  0  0  0  0  0  0  0  0  0
  -24.6930   -9.7140   21.7890 C   0  0  0  0  0  3  0  0  0  0  0  0
  -23.9290   -8.5400   21.9430 C   0  0  0  0  0  3  0  0  0  0  0  0
  -22.7690   -8.3400   21.1580 C   0  0  0  0  0  0  0  0  0  0  0  0
  -22.4120   -9.3020   20.1990 C   0  0  0  0  0  3  0  0  0  0  0  0
  -23.1810  -10.4700   20.0430 C   0  0  0  0  0  3  0  0  0  0  0  0
  -21.9750   -7.2190   21.2200 O   0  0  0  0  0  0  0  0  0  0  0  0
  -21.7810   -6.5430   22.3950 C   0  0  0  0  0  0  0  0  0  0  0  0
  -21.1940   -7.1620   23.5200 C   0  0  0  0  0  3  0  0  0  0  0  0
  -20.9570   -6.4170   24.6920 C   0  0  0  0  0  3  0  0  0  0  0  0
  -21.3000   -5.0520   24.7420 C   0  0  0  0  0  0  0  0  0  0  0  0
  -21.8670   -4.4280   23.6190 C   0  0  0  0  0  3  0  0  0  0  0  0
  -22.1150   -5.1720   22.4490 C   0  0  0  0  0  0  0  0  0  0  0  0
  -22.6530   -4.5700   21.3690 F   0  0  0  0  0  0  0  0  0  0  0  0
  -21.0590   -4.3290   25.8610 F   0  0  0  0  0  0  0  0  0  0  0  0
  -23.3120  -13.8120   21.1990 C   0  0  0  0  0  0  0  0  0  0  0  0
  -22.6090  -13.1040   22.0690 N   0  0  0  0  0  0  0  0  0  0  0  0
  -22.8820  -14.8680   20.7450 O   0  0  0  0  0  0  0  0  0  0  0  0
  -22.9800  -12.2510   22.4680 H   0  0  0  0  0  0  0  0  0  0  0  0
  -21.6910  -13.4100   22.3430 H   0  0  0  0  0  0  0  0  0  0  0  0
  -25.9350  -15.4310   20.2920 N   0  0  0  0  0  0  0  0  0  0  0  0
  -26.7750  -15.8910   19.9630 H   0  0  0  0  0  0  0  0  0  0  0  0
  -25.1900  -16.0840   20.5100 H   0  0  0  0  0  0  0  0  0  0  0  0
  1  5  1  0
  2  4  1  0
  2  6  2  0
  3  5  2  0
  4  1  2  0
  5  8  1  0
  6  3  1  0
  8  7  1  0
  9 10  1  0
  9  4  1  0
 10 12  1  0
 11 22  2  0
 12 17  1  0
 13 21  1  0
 13 23  1  0
 14 20  1  0
 14 16  1  0
 15 21  1  0
 16 15  1  0
 17 16  2  0
 18 19  1  0
 18 12  2  0
 19 14  2  0
 20 13  1  0
 21 11  1  0
 23 25  2  0
 24 23  1  0
 26 24  1  0
 27 36  2  0
 27 32  1  0
 28 24  1  0
 28 32  1  0
 29 28  1  0
 30 31  1  0
 30 29  1  0
 31 27  1  0
 32 33  2  0
 33 34  1  0
 35 34  2  0
 36 35  1  0
 37 11  1  0
 37 38  1  0
 37 47  1  0
 38 41  1  0
 39 43  1  0
 39 38  1  0
 40 39  2  0
 43 42  1  0
 45 43  1  0
 45 46  1  0
 45 44  1  0
 47 50  1  1
 47 48  1  0
 49 47  1  0
 51 52  1  0
 51  6  1  0
 53 52  2  0
 53 62  1  0
 54 62  1  0
 54 60  1  0
 55 60  1  0
 56 57  1  0
 56 55  1  0
 58 57  1  0
 58 67  1  0
 58 59  1  0
 60 59  1  0
 61 54  2  0
 62 63  1  0
 64 65  2  0
 65 84  1  0
 66 65  1  0
 66 69  1  0
 67 68  1  0
 67 64  1  0
 68 66  2  0
 69 70  1  0
 70 71  2  0
 72 75  1  0
 72 71  1  0
 73 72  2  0
 74 73  1  0
 74 69  2  0
 75 76  1  0
 76 81  2  0
 76 77  1  0
 77 78  2  0
 78 79  1  0
 79 83  1  0
 80 79  2  0
 81 80  1  0
 82 81  1  0
 84 85  1  0
 85 88  1  0
 85 87  1  0
 86 84  2  0
 89 64  1  0
 89 91  1  0
 90 89  1  0
M  ISO  4   9 101  10 101  54 100  62 100
M  END
>  <TORSDO>  (43) 
F 21

>  <SCORE>  (43) 
-12.883

>  <name>  (43) 
42

>  <ligand_id>  (43) 
42

>  <original_smiles>  (43) 
[H]c1c([H])c([H])c2c(c1[H])C([H])([H])C([H])([H])C([H])([H])C2([H])N([H])C(=O)C1([H])N(C(=O)C([H])(N([H])C(=O)C([H])(N([H])C([H])([H])[H])C([H])([H])[H])C(C([H])([H])[H])(C([H])([H])[H])C([H])([H])[H])C([H])([H])c2c([H])c(OC([H])([H])c3c([H])c(OC([H])([H])[H])c([H])c(OC([H])([H])C([H])([H])N([H])C(=O)N4C([H])([H])C([H])([H])C([H])([H])C([H])(n5nc(-c6c([H])c([H])c(Oc7c([H])c([H])c(F)c([H])c7F)c([H])c6[H])c(C(=O)N([H])[H])c5N([H])[H])C4([H])[H])c3[H])c([H])c([H])c2C1([H])[H]

>  <smiles>  (43) 
[H]c1c([H])c([H])c2c(c1[H])C([H])([H])C([H])([H])C([H])([H])C2([H])N([H])C(=O)C1([H])N(C(=O)C([H])(N([H])C(=O)C([H])(N([H])C([H])([H])[H])C([H])([H])[H])C(C([H])([H])[H])(C([H])([H])[H])C([H])([H])[H])C([H])([H])c2c([H])c(OC([H])([H])c3c([H])c(OC([H])([H])[H])c([H])c(OC([H])([H])C([H])([H])N([H])C(=O)N4C([H])([H])C([H])([H])C([H])([H])C([H])(n5nc(-c6c([H])c([H])c(Oc7c([H])c([H])c(F)c([H])c7F)c([H])c6[H])c(C(=O)N([H])[H])c5N([H])[H])C4([H])[H])c3[H])c([H])c([H])c2C1([H])[H]

$$$$
43:0:0
     RDKit          3D

 92101  0  0  1  0  0  0  0  0999 V2000
  -30.4010  -19.0710   18.4890 C   0  0  0  0  0  3  0  0  0  0  0  0
  -30.2290  -20.3000   19.1310 C   0  0  0  0  0  3  0  0  0  0  0  0
  -30.2230  -17.8510   19.1770 C   0  0  0  0  0  0  0  0  0  0  0  0
  -30.0480  -17.8690   20.5970 C   0  0  0  0  0  0  0  0  0  0  0  0
  -29.8670  -20.3270   20.4790 C   0  0  0  0  0  0  0  0  0  0  0  0
  -29.8320  -19.1230   21.1940 N   0  0  0  0  0  0  0  0  0  0  0  0
  -30.7900  -15.4580   21.3870 C   0  0  0  0  0  0  0  0  0  0  0  0
  -30.8730  -13.0580   20.6910 C   0  0  0  0  0  2  0  0  0  0  0  0
  -30.1790  -12.9140   19.3210 C   0  0  0  0  0  2  0  0  0  0  0  0
  -28.6530  -12.7570   19.4850 C   0  0  0  0  0  2  0  0  0  0  0  0
  -28.0350  -13.7410   20.5150 C   0  0  0  0  0  3  0  0  0  0  0  0
  -28.8770  -13.8290   21.8050 C   0  0  0  0  0  2  0  0  0  0  0  0
  -30.2430  -14.1930   21.4090 N   0  0  0  0  0  0  0  0  0  0  0  0
  -32.0160  -15.5800   21.2770 O   0  0  0  0  0  0  0  0  0  0  0  0
  -29.9350  -16.5590   21.3090 N   0  0  0  0  0  0  0  0  0  0  0  0
  -29.0030  -16.3600   21.6350 H   0  0  0  0  0  0  0  0  0  0  0  0
  -25.5590  -14.2950   20.8920 C   0  0  0  0  0  0  0  0  0  0  0  0
  -24.4600  -13.5030   21.0870 C   0  0  0  0  0  0  0  0  0  0  0  0
  -24.9400  -12.1570   21.0980 C   0  0  0  0  0  0  0  0  0  0  0  0
  -26.6360  -13.4310   20.7950 N   0  0  0  0  0  0  0  0  0  0  0  0
  -26.2620  -12.1390   20.9840 N   0  0  0  0  0  0  0  0  0  0  0  0
  -24.2100  -10.8830   21.1480 C   0  0  0  0  0  0  0  0  0  0  0  0
  -24.4880   -9.9120   22.1340 C   0  0  0  0  0  3  0  0  0  0  0  0
  -23.7590   -8.7040   22.1740 C   0  0  0  0  0  3  0  0  0  0  0  0
  -22.7380   -8.4590   21.2240 C   0  0  0  0  0  0  0  0  0  0  0  0
  -22.4810   -9.4200   20.2300 C   0  0  0  0  0  3  0  0  0  0  0  0
  -23.2110  -10.6200   20.1890 C   0  0  0  0  0  3  0  0  0  0  0  0
  -21.9970   -7.3030   21.1700 O   0  0  0  0  0  0  0  0  0  0  0  0
  -21.7020   -6.5840   22.2990 C   0  0  0  0  0  0  0  0  0  0  0  0
  -20.9930   -7.1500   23.3800 C   0  0  0  0  0  3  0  0  0  0  0  0
  -20.6500   -6.3550   24.4920 C   0  0  0  0  0  3  0  0  0  0  0  0
  -21.0070   -4.9940   24.5230 C   0  0  0  0  0  0  0  0  0  0  0  0
  -21.7080   -4.4250   23.4440 C   0  0  0  0  0  3  0  0  0  0  0  0
  -22.0520   -5.2180   22.3340 C   0  0  0  0  0  0  0  0  0  0  0  0
  -22.7090   -4.6610   21.2890 F   0  0  0  0  0  0  0  0  0  0  0  0
  -20.6720   -4.2280   25.5860 F   0  0  0  0  0  0  0  0  0  0  0  0
  -23.0310  -13.9590   21.1560 C   0  0  0  0  0  0  0  0  0  0  0  0
  -22.1950  -13.2450   21.9000 N   0  0  0  0  0  0  0  0  0  0  0  0
  -22.6620  -14.9850   20.5850 O   0  0  0  0  0  0  0  0  0  0  0  0
  -22.5050  -12.4150   22.3850 H   0  0  0  0  0  0  0  0  0  0  0  0
  -21.2320  -13.5330   21.9880 H   0  0  0  0  0  0  0  0  0  0  0  0
  -25.7280  -15.6700   20.7590 N   0  0  0  0  0  0  0  0  0  0  0  0
  -24.9330  -16.2970   20.7160 H   0  0  0  0  0  0  0  0  0  0  0  0
  -26.5920  -16.1110   20.4680 H   0  0  0  0  0  0  0  0  0  0  0  0
  -29.8530  -16.6140   16.8370 C   0  0  0  0  0  2  0  0  0  0  0  0
  -28.8000  -16.1480   17.8020 C   0  0  0  0  0  2  0  0  0  0  0  0
  -30.1500  -16.6020   18.3290 C   0  0  0  0  0  3  0  0  0  0  0  0
  -29.6140  -21.5760   21.1250 O   0  0  0  0  0  0  0  0  0  0  0  0
  -29.0270  -22.7590   20.3970 C   0  0  0  0  0  3  0  0  0  0  0  0
  -29.3680  -24.3110   20.7620 C   0  0  0  0  0  3  0  0  0  0  0  0
  -28.4140  -25.4910   20.1760 C   0  0  0  0  0  2  0  0  0  0  0  0
  -28.6380  -26.9730   20.3760 O   0  0  0  0  0  0  0  0  0  0  0  0
  -24.7420  -32.1170   23.7160 C   0  0  0  0  0  0  0  0  0  0  0  0
  -27.5280  -27.8590   20.3390 C   0  0  0  0  0  0  0  0  0  0  0  0
  -23.6150  -30.8510   21.9220 C   0  0  0  0  0  3  0  0  0  0  0  0
  -25.1380  -29.4640   20.3990 C   0  0  0  0  0  0  0  0  0  0  0  0
  -26.1560  -31.2210   21.8450 C   0  0  0  0  0  2  0  0  0  0  0  0
  -26.2830  -29.9060   21.0740 C   0  0  0  0  0  0  0  0  0  0  0  0
  -27.4790  -29.1170   21.0340 C   0  0  0  0  0  3  0  0  0  0  0  0
  -26.3610  -27.5000   19.6250 C   0  0  0  0  0  3  0  0  0  0  0  0
  -25.1840  -28.2730   19.6610 C   0  0  0  0  0  3  0  0  0  0  0  0
  -23.8830  -30.3120   20.4930 C   0  0  0  0  0  2  0  0  0  0  0  0
  -24.8550  -31.4100   22.5520 N   0  0  0  0  0  0  0  0  0  0  0  0
  -23.6380  -32.3240   24.2410 O   0  0  0  0  0  0  0  0  0  0  0  0
  -22.9480  -29.7390   22.7680 C   0  0  0  0  0  0  0  0  0  0  0  0
  -21.6340  -29.5330   22.5710 N   0  0  0  0  0  0  0  0  0  0  0  0
  -23.6130  -29.0680   23.5610 O   0  0  0  0  0  0  0  0  0  0  0  0
  -21.1570  -30.1300   21.9120 H   0  0  0  0  0  0  0  0  0  0  0  0
  -18.2890  -28.1680   22.8050 C   0  0  0  0  0  0  0  0  0  0  0  0
  -20.8170  -28.5100   23.2280 C   0  0  0  0  0  3  0  0  0  0  0  0
  -21.0090  -27.1300   22.5590 C   0  0  0  0  0  2  0  0  0  0  0  0
  -19.9740  -26.8370   21.4670 C   0  0  0  0  0  2  0  0  0  0  0  0
  -18.5570  -26.8810   22.0440 C   0  0  0  0  0  2  0  0  0  0  0  0
  -19.3500  -28.9410   23.3470 C   0  0  0  0  0  0  0  0  0  0  0  0
  -19.0450  -30.1460   24.0160 C   0  0  0  0  0  3  0  0  0  0  0  0
  -17.7130  -30.5800   24.1500 C   0  0  0  0  0  3  0  0  0  0  0  0
  -16.6660  -29.8040   23.6230 C   0  0  0  0  0  3  0  0  0  0  0  0
  -16.9540  -28.6000   22.9560 C   0  0  0  0  0  3  0  0  0  0  0  0
  -25.9920  -32.7170   24.4310 C   0  0  0  0  0  3  0  0  0  0  0  0
  -25.6710  -34.1050   24.7990 N   0  0  0  0  0  0  0  0  0  0  0  0
  -26.0750  -35.1860   24.1180 C   0  0  0  0  0  0  0  0  0  0  0  0
  -26.8230  -35.1180   23.1390 O   0  0  0  0  0  0  0  0  0  0  0  0
  -25.0200  -34.2330   25.5590 H   0  0  0  0  0  0  0  0  0  0  0  0
  -24.4110  -37.0250   23.7020 C   0  0  0  0  0  1  0  0  0  0  0  0
  -25.5690  -36.5590   24.5990 C   0  0  0  0  0  3  0  0  0  0  0  0
  -27.6310  -37.3630   25.6600 C   0  0  0  0  0  1  0  0  0  0  0  0
  -26.6220  -37.5970   24.6300 N   0  0  0  0  0  0  0  0  0  0  0  0
  -26.2190  -38.5170   24.7830 H   0  0  0  0  0  0  0  0  0  0  0  0
  -26.4320  -31.8930   25.7040 C   0  0  1  0  0  0  0  0  0  0  0  0
  -25.2760  -31.6060   26.6900 C   0  0  0  0  0  1  0  0  0  0  0  0
  -27.0470  -30.5350   25.2930 C   0  0  0  0  0  1  0  0  0  0  0  0
  -27.5370  -32.6630   26.4670 C   0  0  0  0  0  1  0  0  0  0  0  0
  1  2  2  0
  1  3  1  0
  2  5  1  0
  3  4  2  0
  4  6  1  0
  4 15  1  0
  5 48  1  0
  5  6  2  0
  7 13  1  0
  8 13  1  0
  9 10  1  0
  9  8  1  0
 11 10  1  0
 11 20  1  0
 11 12  1  0
 13 12  1  0
 14  7  2  0
 15  7  1  0
 15 16  1  0
 17 18  2  0
 18 19  1  0
 18 37  1  0
 19 22  1  0
 20 17  1  0
 20 21  1  0
 21 19  2  0
 22 23  1  0
 23 24  2  0
 25 24  1  0
 26 25  2  0
 27 26  1  0
 27 22  2  0
 28 25  1  0
 28 29  1  0
 29 34  2  0
 29 30  1  0
 30 31  2  0
 31 32  1  0
 32 36  1  0
 33 32  2  0
 34 33  1  0
 35 34  1  0
 37 38  1  0
 38 41  1  0
 38 40  1  0
 39 37  2  0
 42 17  1  0
 43 42  1  0
 44 42  1  0
 45 46  1  0
 45 47  1  0
 46 47  1  0
 47  3  1  0
 49 50  2  0
 49 48  1  0
 51 52  1  0
 51 50  1  0
 53 64  2  0
 54 52  1  0
 54 59  1  0
 55 63  1  0
 55 65  1  0
 56 62  1  0
 56 58  1  0
 57 63  1  0
 58 57  1  0
 59 58  2  0
 60 61  1  0
 60 54  2  0
 61 56  2  0
 62 55  1  0
 63 53  1  0
 65 67  2  0
 66 65  1  0
 68 66  1  0
 69 78  2  0
 69 74  1  0
 70 66  1  0
 70 74  1  0
 71 70  1  0
 72 73  1  0
 72 71  1  0
 73 69  1  0
 74 75  2  0
 75 76  1  0
 77 76  2  0
 78 77  1  0
 79 53  1  0
 79 80  1  0
 79 89  1  0
 80 83  1  0
 81 85  1  0
 81 80  1  0
 82 81  2  0
 85 84  1  0
 85 87  1  0
 87 88  1  0
 87 86  1  0
 89 92  1  1
 89 90  1  0
 91 89  1  0
M  ISO  4   7 100  15 100  51 101  52 101
M  END
>  <TORSDO>  (44) 
F 21

>  <SCORE>  (44) 
-7.371

>  <name>  (44) 
43

>  <ligand_id>  (44) 
43

>  <original_smiles>  (44) 
[H]c1c(OC([H])([H])C([H])([H])C([H])([H])Oc2c([H])c([H])c3c(c2[H])C([H])([H])N(C(=O)C([H])(N([H])C(=O)C([H])(N([H])C([H])([H])[H])C([H])([H])[H])C(C([H])([H])[H])(C([H])([H])[H])C([H])([H])[H])C([H])(C(=O)N([H])C2([H])c4c([H])c([H])c([H])c([H])c4C([H])([H])C([H])([H])C2([H])[H])C3([H])[H])nc(N([H])C(=O)N2C([H])([H])C([H])([H])C([H])([H])C([H])(n3nc(-c4c([H])c([H])c(Oc5c([H])c([H])c(F)c([H])c5F)c([H])c4[H])c(C(=O)N([H])[H])c3N([H])[H])C2([H])[H])c(C2([H])C([H])([H])C2([H])[H])c1[H]

>  <smiles>  (44) 
[H]c1c(OC([H])([H])C([H])([H])C([H])([H])Oc2c([H])c([H])c3c(c2[H])C([H])([H])N(C(=O)C([H])(N([H])C(=O)C([H])(N([H])C([H])([H])[H])C([H])([H])[H])C(C([H])([H])[H])(C([H])([H])[H])C([H])([H])[H])C([H])(C(=O)N([H])C2([H])c4c([H])c([H])c([H])c([H])c4C([H])([H])C([H])([H])C2([H])[H])C3([H])[H])nc(N([H])C(=O)N2C([H])([H])C([H])([H])C([H])([H])C([H])(n3nc(-c4c([H])c([H])c(Oc5c([H])c([H])c(F)c([H])c5F)c([H])c4[H])c(C(=O)N([H])[H])c3N([H])[H])C2([H])[H])c(C2([H])C([H])([H])C2([H])[H])c1[H]

$$$$
44:0:0
     RDKit          3D

 96104  0  0  1  0  0  0  0  0999 V2000
  -30.1100  -20.1340   20.0820 C   0  0  0  0  0  3  0  0  0  0  0  0
  -29.7310  -21.4870   20.1890 C   0  0  0  0  0  3  0  0  0  0  0  0
  -27.4230  -20.8010   20.4970 C   0  0  0  0  0  3  0  0  0  0  0  0
  -27.7890  -19.4420   20.3740 C   0  0  0  0  0  0  0  0  0  0  0  0
  -29.1510  -19.1010   20.1830 C   0  0  0  0  0  0  0  0  0  0  0  0
  -28.3780  -21.8330   20.4110 C   0  0  0  0  0  0  0  0  0  0  0  0
  -29.5340  -17.7550   20.1010 N   0  0  0  0  0  0  0  0  0  0  0  0
  -28.8570  -17.0940   20.4650 H   0  0  0  0  0  0  0  0  0  0  0  0
  -30.9200  -17.4420   20.4300 C   0  0  0  0  0  2  0  0  0  0  0  0
  -31.0010  -16.3940   21.5520 C   0  0  0  0  0  2  0  0  0  0  0  0
  -30.7170  -14.3440   20.1780 C   0  0  0  0  0  0  0  0  0  0  0  0
  -30.3540  -12.1850   19.0410 C   0  0  0  0  0  2  0  0  0  0  0  0
  -29.3260  -12.3100   17.9020 C   0  0  0  0  0  2  0  0  0  0  0  0
  -27.8950  -12.1330   18.4390 C   0  0  0  0  0  2  0  0  0  0  0  0
  -27.6120  -13.0190   19.6800 C   0  0  0  0  0  3  0  0  0  0  0  0
  -28.7390  -12.8740   20.7260 C   0  0  0  0  0  2  0  0  0  0  0  0
  -30.0250  -13.1800   20.0730 N   0  0  0  0  0  0  0  0  0  0  0  0
  -31.6680  -14.6380   19.4470 O   0  0  0  0  0  0  0  0  0  0  0  0
  -30.3400  -15.1450   21.1820 N   0  0  0  0  0  0  0  0  0  0  0  0
  -29.5690  -14.8340   21.7530 H   0  0  0  0  0  0  0  0  0  0  0  0
  -25.3000  -13.5920   20.6620 C   0  0  0  0  0  0  0  0  0  0  0  0
  -24.2550  -12.8030   21.0600 C   0  0  0  0  0  0  0  0  0  0  0  0
  -24.6810  -11.4540   20.8630 C   0  0  0  0  0  0  0  0  0  0  0  0
  -26.3010  -12.7220   20.2560 N   0  0  0  0  0  0  0  0  0  0  0  0
  -25.9360  -11.4260   20.4300 N   0  0  0  0  0  0  0  0  0  0  0  0
  -23.9490  -10.1890   21.0060 C   0  0  0  0  0  0  0  0  0  0  0  0
  -24.4370   -9.1410   21.8170 C   0  0  0  0  0  3  0  0  0  0  0  0
  -23.7060   -7.9410   21.9530 C   0  0  0  0  0  3  0  0  0  0  0  0
  -22.4730   -7.7800   21.2770 C   0  0  0  0  0  0  0  0  0  0  0  0
  -22.0030   -8.8170   20.4520 C   0  0  0  0  0  3  0  0  0  0  0  0
  -22.7350  -10.0090   20.3140 C   0  0  0  0  0  3  0  0  0  0  0  0
  -21.7080   -6.6400   21.3300 O   0  0  0  0  0  0  0  0  0  0  0  0
  -21.7220   -5.8120   22.4240 C   0  0  0  0  0  0  0  0  0  0  0  0
  -21.3930   -6.2800   23.7150 C   0  0  0  0  0  3  0  0  0  0  0  0
  -21.3530   -5.3810   24.7990 C   0  0  0  0  0  3  0  0  0  0  0  0
  -21.6330   -4.0160   24.5950 C   0  0  0  0  0  0  0  0  0  0  0  0
  -21.9550   -3.5480   23.3090 C   0  0  0  0  0  3  0  0  0  0  0  0
  -21.9970   -4.4440   22.2260 C   0  0  0  0  0  0  0  0  0  0  0  0
  -22.2880   -3.9850   20.9850 F   0  0  0  0  0  0  0  0  0  0  0  0
  -21.5870   -3.1510   25.6350 F   0  0  0  0  0  0  0  0  0  0  0  0
  -22.9000  -13.2710   21.5090 C   0  0  0  0  0  0  0  0  0  0  0  0
  -22.2500  -12.5110   22.3840 N   0  0  0  0  0  0  0  0  0  0  0  0
  -22.4310  -14.3390   21.1220 O   0  0  0  0  0  0  0  0  0  0  0  0
  -22.6430  -11.6430   22.7170 H   0  0  0  0  0  0  0  0  0  0  0  0
  -21.3450  -12.8020   22.7270 H   0  0  0  0  0  0  0  0  0  0  0  0
  -25.4770  -14.9700   20.5910 N   0  0  0  0  0  0  0  0  0  0  0  0
  -24.7460  -15.6250   20.8430 H   0  0  0  0  0  0  0  0  0  0  0  0
  -26.3150  -15.4220   20.2460 H   0  0  0  0  0  0  0  0  0  0  0  0
  -26.6990  -18.3780   20.4700 C   0  0  0  0  0  2  0  0  0  0  0  0
  -25.2530  -16.6760   19.2620 C   0  0  0  0  0  1  0  0  0  0  0  0
  -26.4670  -18.4360   17.9160 C   0  0  0  0  0  1  0  0  0  0  0  0
  -26.5100  -17.5560   19.1770 C   0  0  0  0  0  3  0  0  0  0  0  0
  -27.9110  -23.1200   20.5620 O   0  0  0  0  0  0  0  0  0  0  0  0
  -28.7010  -24.2100   20.0920 C   0  0  0  0  0  2  0  0  0  0  0  0
  -28.1470  -25.5040   20.7130 C   0  0  0  0  0  2  0  0  0  0  0  0
  -28.1590  -26.5850   19.7790 O   0  0  0  0  0  0  0  0  0  0  0  0
  -24.6030  -31.7060   23.1930 C   0  0  0  0  0  0  0  0  0  0  0  0
  -27.0270  -27.3570   19.8440 C   0  0  0  0  0  0  0  0  0  0  0  0
  -23.3030  -30.4010   21.5390 C   0  0  0  0  0  3  0  0  0  0  0  0
  -24.6690  -28.8880   20.0030 C   0  0  0  0  0  0  0  0  0  0  0  0
  -25.8250  -30.7140   21.2640 C   0  0  0  0  0  2  0  0  0  0  0  0
  -25.8560  -29.3700   20.5710 C   0  0  0  0  0  0  0  0  0  0  0  0
  -27.0410  -28.6080   20.4920 C   0  0  0  0  0  3  0  0  0  0  0  0
  -25.8300  -26.8780   19.2750 C   0  0  0  0  0  3  0  0  0  0  0  0
  -24.6480  -27.6390   19.3550 C   0  0  0  0  0  3  0  0  0  0  0  0
  -23.4460  -29.7700   20.1280 C   0  0  0  0  0  2  0  0  0  0  0  0
  -24.5980  -30.9520   22.0570 N   0  0  0  0  0  0  0  0  0  0  0  0
  -23.5500  -31.9840   23.7820 O   0  0  0  0  0  0  0  0  0  0  0  0
  -22.6590  -29.3600   22.4810 C   0  0  0  0  0  0  0  0  0  0  0  0
  -21.3360  -29.1760   22.3520 N   0  0  0  0  0  0  0  0  0  0  0  0
  -23.3470  -28.7220   23.2840 O   0  0  0  0  0  0  0  0  0  0  0  0
  -20.8420  -29.7450   21.6790 H   0  0  0  0  0  0  0  0  0  0  0  0
  -17.9740  -27.9320   22.7980 C   0  0  0  0  0  0  0  0  0  0  0  0
  -20.5230  -28.2200   23.1050 C   0  0  0  0  0  3  0  0  0  0  0  0
  -20.6530  -26.7950   22.5170 C   0  0  0  0  0  2  0  0  0  0  0  0
  -19.5680  -26.4670   21.4860 C   0  0  0  0  0  2  0  0  0  0  0  0
  -18.1760  -26.5900   22.1140 C   0  0  0  0  0  2  0  0  0  0  0  0
  -19.0760  -28.7050   23.2490 C   0  0  0  0  0  0  0  0  0  0  0  0
  -18.8350  -29.9610   23.8450 C   0  0  0  0  0  3  0  0  0  0  0  0
  -17.5220  -30.4450   23.9970 C   0  0  0  0  0  3  0  0  0  0  0  0
  -16.4340  -29.6690   23.5640 C   0  0  0  0  0  3  0  0  0  0  0  0
  -16.6600  -28.4140   22.9710 C   0  0  0  0  0  3  0  0  0  0  0  0
  -25.9280  -32.2770   23.7900 C   0  0  0  0  0  3  0  0  0  0  0  0
  -25.6810  -33.6780   24.1560 N   0  0  0  0  0  0  0  0  0  0  0  0
  -26.0250  -34.7320   23.4040 C   0  0  0  0  0  0  0  0  0  0  0  0
  -26.6580  -34.6260   22.3500 O   0  0  0  0  0  0  0  0  0  0  0  0
  -25.1210  -33.8370   24.9800 H   0  0  0  0  0  0  0  0  0  0  0  0
  -24.3400  -36.5800   23.1470 C   0  0  0  0  0  1  0  0  0  0  0  0
  -25.5990  -36.1260   23.9020 C   0  0  0  0  0  3  0  0  0  0  0  0
  -27.7950  -36.9280   24.6540 C   0  0  0  0  0  1  0  0  0  0  0  0
  -26.6590  -37.1490   23.7620 N   0  0  0  0  0  0  0  0  0  0  0  0
  -26.2890  -38.0780   23.9460 H   0  0  0  0  0  0  0  0  0  0  0  0
  -26.4550  -31.4590   25.0320 C   0  0  1  0  0  0  0  0  0  0  0  0
  -25.3850  -31.2290   26.1240 C   0  0  0  0  0  1  0  0  0  0  0  0
  -26.9810  -30.0740   24.5880 C   0  0  0  0  0  1  0  0  0  0  0  0
  -27.6470  -32.2000   25.6810 C   0  0  0  0  0  1  0  0  0  0  0  0
  1  5  2  0
  1  2  1  0
  2  6  2  0
  4 49  1  0
  4  3  2  0
  5  4  1  0
  6  3  1  0
  6 53  1  0
  7  5  1  0
  7  9  1  0
  7  8  1  0
  9 10  1  0
 11 19  1  0
 12 17  1  0
 13 14  1  0
 13 12  1  0
 15 14  1  0
 15 24  1  0
 15 16  1  0
 17 11  1  0
 17 16  1  0
 18 11  2  0
 19 10  1  0
 19 20  1  0
 21 22  2  0
 22 41  1  0
 23 26  1  0
 23 22  1  0
 24 25  1  0
 24 21  1  0
 25 23  2  0
 26 27  1  0
 27 28  2  0
 29 32  1  0
 29 28  1  0
 30 29  2  0
 31 30  1  0
 31 26  2  0
 32 33  1  0
 33 34  1  0
 34 35  2  0
 36 35  1  0
 36 40  1  0
 37 36  2  0
 38 33  2  0
 38 37  1  0
 39 38  1  0
 41 42  1  0
 42 44  1  0
 42 45  1  0
 43 41  2  0
 46 21  1  0
 46 47  1  0
 48 46  1  0
 51 52  1  0
 52 50  1  0
 52 49  1  0
 54 53  1  0
 54 55  1  0
 56 58  1  0
 56 55  1  0
 57 68  2  0
 58 63  1  0
 59 67  1  0
 59 69  1  0
 60 66  1  0
 60 62  1  0
 61 67  1  0
 62 61  1  0
 63 62  2  0
 64 65  1  0
 64 58  2  0
 65 60  2  0
 66 59  1  0
 67 57  1  0
 69 71  2  0
 70 69  1  0
 72 70  1  0
 73 82  2  0
 73 78  1  0
 74 70  1  0
 74 78  1  0
 75 74  1  0
 76 77  1  0
 76 75  1  0
 77 73  1  0
 78 79  2  0
 79 80  1  0
 81 80  2  0
 82 81  1  0
 83 57  1  0
 83 84  1  0
 83 93  1  0
 84 87  1  0
 85 89  1  0
 85 84  1  0
 86 85  2  0
 89 88  1  0
 91 89  1  0
 91 92  1  0
 91 90  1  0
 93 96  1  1
 93 94  1  0
 95 93  1  0
M  ISO  4  11 100  19 100  55 101  56 101
M  END
>  <TORSDO>  (45) 
F 24

>  <SCORE>  (45) 
-8.899

>  <name>  (45) 
44

>  <ligand_id>  (45) 
44

>  <original_smiles>  (45) 
[H]c1c([H])c([H])c2c(c1[H])C([H])([H])C([H])([H])C([H])([H])C2([H])N([H])C(=O)C1([H])N(C(=O)C([H])(N([H])C(=O)C([H])(N([H])C([H])([H])[H])C([H])([H])[H])C(C([H])([H])[H])(C([H])([H])[H])C([H])([H])[H])C([H])([H])c2c([H])c(OC([H])([H])C([H])([H])Oc3c([H])c([H])c(N([H])C([H])([H])C([H])([H])N([H])C(=O)N4C([H])([H])C([H])([H])C([H])([H])C([H])(n5nc(-c6c([H])c([H])c(Oc7c([H])c([H])c(F)c([H])c7F)c([H])c6[H])c(C(=O)N([H])[H])c5N([H])[H])C4([H])[H])c(C([H])([H])C([H])(C([H])([H])[H])C([H])([H])[H])c3[H])c([H])c([H])c2C1([H])[H]

>  <smiles>  (45) 
[H]c1c([H])c([H])c2c(c1[H])C([H])([H])C([H])([H])C([H])([H])C2([H])N([H])C(=O)C1([H])N(C(=O)C([H])(N([H])C(=O)C([H])(N([H])C([H])([H])[H])C([H])([H])[H])C(C([H])([H])[H])(C([H])([H])[H])C([H])([H])[H])C([H])([H])c2c([H])c(OC([H])([H])C([H])([H])Oc3c([H])c([H])c(N([H])C([H])([H])C([H])([H])N([H])C(=O)N4C([H])([H])C([H])([H])C([H])([H])C([H])(n5nc(-c6c([H])c([H])c(Oc7c([H])c([H])c(F)c([H])c7F)c([H])c6[H])c(C(=O)N([H])[H])c5N([H])[H])C4([H])[H])c(C([H])([H])C([H])(C([H])([H])[H])C([H])([H])[H])c3[H])c([H])c([H])c2C1([H])[H]

$$$$
45:0:0
     RDKit          3D

 87 94  0  0  1  0  0  0  0  0999 V2000
  -28.6030  -20.3530   20.8430 C   0  0  0  0  0  2  0  0  0  0  0  0
  -29.5810  -19.8560   18.8830 C   0  0  0  0  0  2  0  0  0  0  0  0
  -29.5860  -18.9710   20.2330 C   0  0  0  0  0  3  0  0  0  0  0  0
  -28.8730  -22.0430   20.2790 C   0  0  0  0  0  2  0  0  0  0  0  0
  -29.4320  -21.4290   18.9960 N   0  0  0  0  0  4  0  0  0  0  0  0
  -28.8580  -21.7230   18.2220 H   0  0  0  0  0  0  0  0  0  0  0  0
  -30.3390  -21.8380   18.8330 H   0  0  0  0  0  0  0  0  0  0  0  0
  -30.2580  -15.8040   20.1270 C   0  0  0  0  0  0  0  0  0  0  0  0
  -30.3680  -13.2590   19.2840 C   0  0  0  0  0  2  0  0  0  0  0  0
  -29.4520  -12.8350   18.1000 C   0  0  0  0  0  2  0  0  0  0  0  0
  -28.0510  -12.4530   18.5970 C   0  0  0  0  0  2  0  0  0  0  0  0
  -27.5520  -13.4460   19.6700 C   0  0  0  0  0  3  0  0  0  0  0  0
  -28.6070  -13.7790   20.7530 C   0  0  0  0  0  2  0  0  0  0  0  0
  -29.7470  -14.4290   20.0620 N   0  0  0  0  0  0  0  0  0  0  0  0
  -31.4870  -15.7480   19.9250 O   0  0  0  0  0  0  0  0  0  0  0  0
  -29.4870  -17.1680   20.2330 N   0  0  0  0  0  0  0  0  0  0  0  0
  -28.5140  -16.9190   20.3430 H   0  0  0  0  0  0  0  0  0  0  0  0
  -25.2140  -13.9400   20.5220 C   0  0  0  0  0  0  0  0  0  0  0  0
  -24.1740  -13.1440   20.9070 C   0  0  0  0  0  0  0  0  0  0  0  0
  -24.6550  -11.8000   20.8330 C   0  0  0  0  0  0  0  0  0  0  0  0
  -26.2570  -13.0850   20.2260 N   0  0  0  0  0  0  0  0  0  0  0  0
  -25.9390  -11.7880   20.4810 N   0  0  0  0  0  0  0  0  0  0  0  0
  -23.9440  -10.5270   21.0180 C   0  0  0  0  0  0  0  0  0  0  0  0
  -24.3900   -9.5570   21.9430 C   0  0  0  0  0  3  0  0  0  0  0  0
  -23.6750   -8.3530   22.1200 C   0  0  0  0  0  3  0  0  0  0  0  0
  -22.4990   -8.1100   21.3710 C   0  0  0  0  0  0  0  0  0  0  0  0
  -22.0710   -9.0680   20.4350 C   0  0  0  0  0  3  0  0  0  0  0  0
  -22.7880  -10.2630   20.2570 C   0  0  0  0  0  3  0  0  0  0  0  0
  -21.7530   -6.9580   21.4580 O   0  0  0  0  0  0  0  0  0  0  0  0
  -21.6890   -6.2290   22.6180 C   0  0  0  0  0  0  0  0  0  0  0  0
  -21.1980   -6.7820   23.8200 C   0  0  0  0  0  3  0  0  0  0  0  0
  -21.0840   -5.9760   24.9710 C   0  0  0  0  0  3  0  0  0  0  0  0
  -21.4500   -4.6190   24.9210 C   0  0  0  0  0  0  0  0  0  0  0  0
  -21.9330   -4.0640   23.7220 C   0  0  0  0  0  3  0  0  0  0  0  0
  -22.0490   -4.8660   22.5730 C   0  0  0  0  0  0  0  0  0  0  0  0
  -22.4950   -4.3220   21.4160 F   0  0  0  0  0  0  0  0  0  0  0  0
  -21.3330   -3.8420   26.0230 F   0  0  0  0  0  0  0  0  0  0  0  0
  -22.7800  -13.6010   21.2210 C   0  0  0  0  0  0  0  0  0  0  0  0
  -22.0860  -12.8910   22.1020 N   0  0  0  0  0  0  0  0  0  0  0  0
  -22.3190  -14.6260   20.7200 O   0  0  0  0  0  0  0  0  0  0  0  0
  -22.4750  -12.0620   22.5270 H   0  0  0  0  0  0  0  0  0  0  0  0
  -21.1530  -13.1800   22.3560 H   0  0  0  0  0  0  0  0  0  0  0  0
  -25.3550  -15.3160   20.3640 N   0  0  0  0  0  0  0  0  0  0  0  0
  -24.5800  -15.9560   20.5060 H   0  0  0  0  0  0  0  0  0  0  0  0
  -26.1750  -15.7670   19.9830 H   0  0  0  0  0  0  0  0  0  0  0  0
  -27.9450  -23.7890   20.2440 C   0  0  0  0  0  1  0  0  0  0  0  0
  -28.1330  -25.5630   20.3160 O   0  0  0  0  0  0  0  0  0  0  0  0
  -24.6560  -31.9140   23.2330 C   0  0  0  0  0  0  0  0  0  0  0  0
  -27.1640  -26.7920   20.2660 C   0  0  0  0  0  0  0  0  0  0  0  0
  -23.4650  -30.5150   21.6010 C   0  0  0  0  0  3  0  0  0  0  0  0
  -24.9060  -28.8520   20.1970 C   0  0  0  0  0  0  0  0  0  0  0  0
  -26.0460  -30.6410   21.4830 C   0  0  0  0  0  2  0  0  0  0  0  0
  -26.1040  -29.2020   20.8320 C   0  0  0  0  0  0  0  0  0  0  0  0
  -27.2170  -28.2020   20.8300 C   0  0  0  0  0  3  0  0  0  0  0  0
  -25.9320  -26.6610   19.5730 C   0  0  0  0  0  3  0  0  0  0  0  0
  -24.8620  -27.6080   19.5420 C   0  0  0  0  0  3  0  0  0  0  0  0
  -23.7030  -29.8100   20.2350 C   0  0  0  0  0  2  0  0  0  0  0  0
  -24.7470  -31.0570   22.1580 N   0  0  0  0  0  0  0  0  0  0  0  0
  -23.5630  -32.2200   23.7410 O   0  0  0  0  0  0  0  0  0  0  0  0
  -22.7410  -29.5460   22.5750 C   0  0  0  0  0  0  0  0  0  0  0  0
  -21.4100  -29.3920   22.4460 N   0  0  0  0  0  0  0  0  0  0  0  0
  -23.3920  -28.9280   23.4210 O   0  0  0  0  0  0  0  0  0  0  0  0
  -20.9340  -29.9390   21.7400 H   0  0  0  0  0  0  0  0  0  0  0  0
  -18.0190  -28.1820   22.9500 C   0  0  0  0  0  0  0  0  0  0  0  0
  -20.5780  -28.4600   23.2190 C   0  0  0  0  0  3  0  0  0  0  0  0
  -20.6840  -27.0230   22.6580 C   0  0  0  0  0  2  0  0  0  0  0  0
  -19.5880  -26.6910   21.6400 C   0  0  0  0  0  2  0  0  0  0  0  0
  -18.2030  -26.8310   22.2780 C   0  0  0  0  0  2  0  0  0  0  0  0
  -19.1330  -28.9530   23.3770 C   0  0  0  0  0  0  0  0  0  0  0  0
  -18.9020  -30.2130   23.9720 C   0  0  0  0  0  3  0  0  0  0  0  0
  -17.5930  -30.7030   24.1400 C   0  0  0  0  0  3  0  0  0  0  0  0
  -16.4950  -29.9300   23.7240 C   0  0  0  0  0  3  0  0  0  0  0  0
  -16.7090  -28.6700   23.1360 C   0  0  0  0  0  3  0  0  0  0  0  0
  -25.9200  -32.5630   23.8750 C   0  0  0  0  0  3  0  0  0  0  0  0
  -25.6000  -33.9670   24.2040 N   0  0  0  0  0  0  0  0  0  0  0  0
  -25.9150  -35.0300   23.4500 C   0  0  0  0  0  0  0  0  0  0  0  0
  -26.5600  -34.9320   22.4040 O   0  0  0  0  0  0  0  0  0  0  0  0
  -25.0230  -34.1150   25.0180 H   0  0  0  0  0  0  0  0  0  0  0  0
  -24.1700  -36.8270   23.1680 C   0  0  0  0  0  1  0  0  0  0  0  0
  -25.4440  -36.4200   23.9280 C   0  0  0  0  0  3  0  0  0  0  0  0
  -27.6010  -37.3250   24.6790 C   0  0  0  0  0  1  0  0  0  0  0  0
  -26.4670  -37.4780   23.7720 N   0  0  0  0  0  0  0  0  0  0  0  0
  -26.0620  -38.3980   23.9240 H   0  0  0  0  0  0  0  0  0  0  0  0
  -26.4080  -31.8090   25.1750 C   0  0  1  0  0  0  0  0  0  0  0  0
  -25.2960  -31.5930   26.2270 C   0  0  0  0  0  1  0  0  0  0  0  0
  -26.9920  -30.4230   24.8260 C   0  0  0  0  0  1  0  0  0  0  0  0
  -27.5510  -32.6090   25.8440 C   0  0  0  0  0  1  0  0  0  0  0  0
  2  5  1  0
  2  3  1  0
  3 16  1  0
  3  1  1  0
  4  1  1  0
  5  4  1  0
  6  5  1  0
  7  5  1  0
  8 16  1  0
  9 14  1  0
 10 11  1  0
 10  9  1  0
 12 11  1  0
 12 21  1  0
 12 13  1  0
 14  8  1  0
 14 13  1  0
 15  8  2  0
 16 17  1  0
 18 19  2  0
 19 38  1  0
 20 19  1  0
 20 23  1  0
 21 22  1  0
 21 18  1  0
 22 20  2  0
 23 24  1  0
 24 25  2  0
 26 29  1  0
 26 25  1  0
 27 26  2  0
 28 27  1  0
 28 23  2  0
 29 30  1  0
 30 31  1  0
 31 32  2  0
 33 32  1  0
 33 37  1  0
 34 33  2  0
 35 30  2  0
 35 34  1  0
 36 35  1  0
 38 39  1  0
 39 42  1  0
 39 41  1  0
 40 38  2  0
 43 44  1  0
 43 18  1  0
 45 43  1  0
 46 47  1  0
 48 59  2  0
 49 47  1  0
 49 54  1  0
 50 58  1  0
 50 60  1  0
 51 57  1  0
 51 53  1  0
 52 58  1  0
 53 52  1  0
 54 53  2  0
 55 49  2  0
 56 55  1  0
 56 51  2  0
 57 50  1  0
 58 48  1  0
 60 62  2  0
 61 60  1  0
 63 61  1  0
 64 73  2  0
 64 69  1  0
 65 61  1  0
 65 69  1  0
 66 65  1  0
 67 68  1  0
 67 66  1  0
 68 64  1  0
 69 70  2  0
 70 71  1  0
 72 71  2  0
 73 72  1  0
 74 48  1  0
 74 75  1  0
 74 84  1  0
 75 78  1  0
 76 80  1  0
 76 75  1  0
 77 76  2  0
 80 79  1  0
 82 83  1  0
 82 80  1  0
 82 81  1  0
 84 87  1  1
 84 85  1  0
 86 84  1  0
M  ISO  4   8 100  16 100  46 101  47 101
M  END
>  <TORSDO>  (46) 
F 17

>  <SCORE>  (46) 
-16.453

>  <name>  (46) 
45

>  <ligand_id>  (46) 
45

>  <original_smiles>  (46) 
[H]c1c([H])c([H])c2c(c1[H])C([H])([H])C([H])([H])C([H])([H])C2([H])N([H])C(=O)C1([H])N(C(=O)C([H])(N([H])C(=O)C([H])(N([H])C([H])([H])[H])C([H])([H])[H])C(C([H])([H])[H])(C([H])([H])[H])C([H])([H])[H])C([H])([H])c2c([H])c(OC([H])([H])C3([H])C([H])([H])C([H])(N([H])C(=O)N4C([H])([H])C([H])([H])C([H])([H])C([H])(n5nc(-c6c([H])c([H])c(Oc7c([H])c([H])c(F)c([H])c7F)c([H])c6[H])c(C(=O)N([H])[H])c5N([H])[H])C4([H])[H])C([H])([H])[N+]3([H])[H])c([H])c([H])c2C1([H])[H]

>  <smiles>  (46) 
[H]c1c([H])c([H])c2c(c1[H])C([H])([H])C([H])([H])C([H])([H])C2([H])N([H])C(=O)C1([H])N(C(=O)C([H])(N([H])C(=O)C([H])(N([H])C([H])([H])[H])C([H])([H])[H])C(C([H])([H])[H])(C([H])([H])[H])C([H])([H])[H])C([H])([H])c2c([H])c(OC([H])([H])C3([H])C([H])([H])C([H])(N([H])C(=O)N4C([H])([H])C([H])([H])C([H])([H])C([H])(n5nc(-c6c([H])c([H])c(Oc7c([H])c([H])c(F)c([H])c7F)c([H])c6[H])c(C(=O)N([H])[H])c5N([H])[H])C4([H])[H])C([H])([H])[N+]3([H])[H])c([H])c([H])c2C1([H])[H]

$$$$
46:0:0
     RDKit          3D

 96106  0  0  1  0  0  0  0  0999 V2000
  -30.4780  -21.2130   19.3850 C   0  0  0  0  0  3  0  0  0  0  0  0
  -31.9750  -24.7350   18.6480 C   0  0  0  0  0  3  0  0  0  0  0  0
  -33.6560  -23.3190   19.6870 C   0  0  0  0  0  3  0  0  0  0  0  0
  -31.0090  -23.7170   18.8280 C   0  0  0  0  0  3  0  0  0  0  0  0
  -32.6990  -22.3050   19.8550 C   0  0  0  0  0  3  0  0  0  0  0  0
  -33.3140  -24.5310   19.0560 C   0  0  0  0  0  0  0  0  0  0  0  0
  -31.3810  -22.4630   19.3820 C   0  0  0  0  0  0  0  0  0  0  0  0
  -34.3960  -25.5720   18.8050 C   0  0  0  0  0  1  0  0  0  0  0  0
  -30.6180  -18.8400   17.7530 C   0  0  0  0  0  2  0  0  0  0  0  0
  -30.5870  -20.9980   16.5520 C   0  0  0  0  0  2  0  0  0  0  0  0
  -31.5120  -18.2190   16.5690 C   0  0  0  0  0  2  0  0  0  0  0  0
  -31.6230  -20.4560   15.4660 C   0  0  0  0  0  2  0  0  0  0  0  0
  -30.7930  -20.3800   17.9760 C   0  0  0  0  0  3  0  0  0  0  0  0
  -31.5900  -18.9080   15.1300 C   0  0  0  0  0  3  0  0  0  0  0  0
  -32.6490  -18.2460   14.2180 O   0  0  0  0  0  0  0  0  0  0  0  0
  -38.3130  -20.2320    9.9660 C   0  0  0  0  0  0  0  0  0  0  0  0
  -33.1320  -18.7480   12.9700 C   0  0  0  0  0  0  0  0  0  0  0  0
  -36.0920  -21.1560    9.4240 C   0  0  0  0  0  3  0  0  0  0  0  0
  -34.0840  -20.0270   10.5570 C   0  0  0  0  0  0  0  0  0  0  0  0
  -36.2890  -18.8600   10.5790 C   0  0  0  0  0  2  0  0  0  0  0  0
  -34.9080  -19.1010   11.2090 C   0  0  0  0  0  0  0  0  0  0  0  0
  -34.4320  -18.4590   12.4050 C   0  0  0  0  0  3  0  0  0  0  0  0
  -32.3350  -19.6280   12.2170 C   0  0  0  0  0  3  0  0  0  0  0  0
  -32.8020  -20.2820   11.0570 C   0  0  0  0  0  3  0  0  0  0  0  0
  -34.6120  -20.7080    9.3080 C   0  0  0  0  0  2  0  0  0  0  0  0
  -36.9520  -20.0770   10.0140 N   0  0  0  0  0  0  0  0  0  0  0  0
  -38.8320  -21.2250    9.4360 O   0  0  0  0  0  0  0  0  0  0  0  0
  -36.1630  -22.4900   10.2040 C   0  0  0  0  0  0  0  0  0  0  0  0
  -35.9520  -23.6190    9.5050 N   0  0  0  0  0  0  0  0  0  0  0  0
  -36.3800  -22.4950   11.4190 O   0  0  0  0  0  0  0  0  0  0  0  0
  -35.8040  -23.5390    8.5090 H   0  0  0  0  0  0  0  0  0  0  0  0
  -35.7780  -27.1270    8.6330 C   0  0  0  0  0  0  0  0  0  0  0  0
  -35.9190  -24.9780   10.0570 C   0  0  0  0  0  3  0  0  0  0  0  0
  -34.5020  -25.3420   10.5580 C   0  0  0  0  0  2  0  0  0  0  0  0
  -33.6560  -26.0630    9.5040 C   0  0  0  0  0  2  0  0  0  0  0  0
  -34.3360  -27.3570    9.0640 C   0  0  0  0  0  2  0  0  0  0  0  0
  -36.5130  -26.0000    9.0820 C   0  0  0  0  0  0  0  0  0  0  0  0
  -37.8360  -25.8160    8.6170 C   0  0  0  0  0  3  0  0  0  0  0  0
  -38.4160  -26.7290    7.7160 C   0  0  0  0  0  3  0  0  0  0  0  0
  -37.6860  -27.8490    7.2850 C   0  0  0  0  0  3  0  0  0  0  0  0
  -36.3750  -28.0500    7.7470 C   0  0  0  0  0  3  0  0  0  0  0  0
  -39.2740  -19.1570   10.5590 C   0  0  0  0  0  3  0  0  0  0  0  0
  -40.5790  -19.7780   11.1930 C   0  0  1  0  0  0  0  0  0  0  0  0
  -41.5950  -20.2960   10.1490 C   0  0  0  0  0  1  0  0  0  0  0  0
  -40.2320  -20.9570   12.1270 C   0  0  0  0  0  1  0  0  0  0  0  0
  -41.2880  -18.7140   12.0630 C   0  0  0  0  0  1  0  0  0  0  0  0
  -39.6210  -18.2290    9.4710 N   0  0  0  0  0  0  0  0  0  0  0  0
  -39.4350  -16.9050    9.5070 C   0  0  0  0  0  0  0  0  0  0  0  0
  -39.0020  -16.3180   10.5020 O   0  0  0  0  0  0  0  0  0  0  0  0
  -39.9240  -18.6470    8.6030 H   0  0  0  0  0  0  0  0  0  0  0  0
  -38.4950  -15.5890    7.5790 C   0  0  0  0  0  1  0  0  0  0  0  0
  -39.7860  -16.0980    8.2410 C   0  0  0  0  0  3  0  0  0  0  0  0
  -42.0530  -15.3690    8.8400 C   0  0  0  0  0  1  0  0  0  0  0  0
  -40.6920  -14.9580    8.5010 N   0  0  0  0  0  0  0  0  0  0  0  0
  -40.7390  -14.3440    7.6930 H   0  0  0  0  0  0  0  0  0  0  0  0
  -28.8380  -21.7870   21.5980 C   0  0  0  0  0  2  0  0  0  0  0  0
  -29.0810  -21.5780   20.1110 C   0  0  0  0  0  3  0  0  0  0  0  0
  -28.8160  -23.0490   20.7720 C   0  0  0  0  0  3  0  0  0  0  0  0
  -27.3770  -25.2790   21.0310 C   0  0  0  0  0  0  0  0  0  0  0  0
  -25.2930  -26.5930   21.4620 C   0  0  0  0  0  2  0  0  0  0  0  0
  -24.2000  -25.5580   21.8070 C   0  0  0  0  0  2  0  0  0  0  0  0
  -23.5000  -25.0400   20.5320 C   0  0  0  0  0  2  0  0  0  0  0  0
  -24.5120  -24.6410   19.4260 C   0  0  0  0  0  3  0  0  0  0  0  0
  -25.6170  -25.6990   19.2490 C   0  0  0  0  0  2  0  0  0  0  0  0
  -26.2360  -25.9010   20.5640 N   0  0  0  0  0  0  0  0  0  0  0  0
  -28.0350  -25.8080   21.9310 O   0  0  0  0  0  0  0  0  0  0  0  0
  -27.5970  -23.9470   20.6520 N   0  0  0  0  0  0  0  0  0  0  0  0
  -26.8820  -23.5910   20.0360 H   0  0  0  0  0  0  0  0  0  0  0  0
  -23.7330  -23.0680   17.5590 C   0  0  0  0  0  0  0  0  0  0  0  0
  -22.9540  -23.2640   16.4580 C   0  0  0  0  0  0  0  0  0  0  0  0
  -22.6290  -24.6580   16.4480 C   0  0  0  0  0  0  0  0  0  0  0  0
  -23.8530  -24.3040   18.1710 N   0  0  0  0  0  0  0  0  0  0  0  0
  -23.2340  -25.2800   17.4540 N   0  0  0  0  0  0  0  0  0  0  0  0
  -21.7260  -25.4180   15.5740 C   0  0  0  0  0  0  0  0  0  0  0  0
  -22.2210  -26.3450   14.6270 C   0  0  0  0  0  3  0  0  0  0  0  0
  -21.3350  -27.0520   13.7880 C   0  0  0  0  0  3  0  0  0  0  0  0
  -19.9410  -26.8300   13.8870 C   0  0  0  0  0  0  0  0  0  0  0  0
  -19.4490  -25.9260   14.8430 C   0  0  0  0  0  3  0  0  0  0  0  0
  -20.3330  -25.2270   15.6800 C   0  0  0  0  0  3  0  0  0  0  0  0
  -19.0010  -27.4900   13.1280 O   0  0  0  0  0  0  0  0  0  0  0  0
  -19.0550  -27.4910   11.7580 C   0  0  0  0  0  0  0  0  0  0  0  0
  -18.8020  -26.3250   11.0030 C   0  0  0  0  0  3  0  0  0  0  0  0
  -18.7960  -26.3850    9.5960 C   0  0  0  0  0  3  0  0  0  0  0  0
  -19.0360  -27.6090    8.9420 C   0  0  0  0  0  0  0  0  0  0  0  0
  -19.2850  -28.7710    9.6920 C   0  0  0  0  0  3  0  0  0  0  0  0
  -19.2900  -28.7130   11.0950 C   0  0  0  0  0  0  0  0  0  0  0  0
  -19.5090  -29.8410   11.8170 F   0  0  0  0  0  0  0  0  0  0  0  0
  -19.0240  -27.6700    7.5910 F   0  0  0  0  0  0  0  0  0  0  0  0
  -22.4570  -22.2070   15.5180 C   0  0  0  0  0  0  0  0  0  0  0  0
  -22.1180  -22.5810   14.2900 N   0  0  0  0  0  0  0  0  0  0  0  0
  -22.4020  -21.0230   15.8580 O   0  0  0  0  0  0  0  0  0  0  0  0
  -22.1850  -23.5480   14.0060 H   0  0  0  0  0  0  0  0  0  0  0  0
  -21.8000  -21.8940   13.6220 H   0  0  0  0  0  0  0  0  0  0  0  0
  -24.3190  -21.9330   18.1140 N   0  0  0  0  0  0  0  0  0  0  0  0
  -24.0540  -21.0180   17.7720 H   0  0  0  0  0  0  0  0  0  0  0  0
  -24.6970  -21.9090   19.0480 H   0  0  0  0  0  0  0  0  0  0  0  0
  1  7  1  0
  2  4  2  0
  2  6  1  0
  3  5  1  0
  4  7  1  0
  6  3  2  0
  7  5  2  0
  8  6  1  0
  9 13  1  0
 10 13  1  0
 11  9  1  0
 12 10  1  0
 13  1  1  0
 14 15  1  0
 14 12  1  0
 14 11  1  0
 16 26  1  0
 17 15  1  0
 18 26  1  0
 18 28  1  0
 19 24  2  0
 19 21  1  0
 20 21  1  0
 21 22  2  0
 22 17  1  0
 23 17  2  0
 24 23  1  0
 25 18  1  0
 25 19  1  0
 26 20  1  0
 27 16  2  0
 28 30  2  0
 29 28  1  0
 31 29  1  0
 32 36  1  0
 32 37  1  0
 33 29  1  0
 33 34  1  0
 35 34  1  0
 36 35  1  0
 37 33  1  0
 38 37  2  0
 39 38  1  0
 40 39  2  0
 40 41  1  0
 41 32  2  0
 42 16  1  0
 42 43  1  0
 43 46  1  1
 43 45  1  0
 44 43  1  0
 47 48  1  0
 47 42  1  0
 48 49  2  0
 50 47  1  0
 52 51  1  0
 52 54  1  0
 52 48  1  0
 54 53  1  0
 55 54  1  0
 57  1  1  0
 57 58  1  0
 57 56  1  0
 58 67  1  0
 58 56  1  0
 59 66  2  0
 60 61  1  0
 62 61  1  0
 63 72  1  0
 63 62  1  0
 64 63  1  0
 64 65  1  0
 65 59  1  0
 65 60  1  0
 67 59  1  0
 68 67  1  0
 69 94  1  0
 69 72  1  0
 70 69  2  0
 71 70  1  0
 71 73  2  0
 73 72  1  0
 74 79  1  0
 74 71  1  0
 75 74  2  0
 76 77  2  0
 76 75  1  0
 77 78  1  0
 78 79  2  0
 80 77  1  0
 81 80  1  0
 82 81  2  0
 83 82  1  0
 84 83  2  0
 84 85  1  0
 85 86  2  0
 86 81  1  0
 86 87  1  0
 88 84  1  0
 89 91  2  0
 89 70  1  0
 90 89  1  0
 92 90  1  0
 93 90  1  0
 94 96  1  0
 95 94  1  0
M  ISO  4  14 101  15 101  59 100  67 100
M  END
>  <TORSDO>  (47) 
F 19

>  <SCORE>  (47) 
-4.418

>  <name>  (47) 
46

>  <ligand_id>  (47) 
46

>  <original_smiles>  (47) 
[H]c1c([H])c([H])c2c(c1[H])C([H])([H])C([H])([H])C([H])([H])C2([H])N([H])C(=O)C1([H])N(C(=O)C([H])(N([H])C(=O)C([H])(N([H])C([H])([H])[H])C([H])([H])[H])C(C([H])([H])[H])(C([H])([H])[H])C([H])([H])[H])C([H])([H])c2c([H])c(OC3([H])C([H])([H])C([H])([H])C([H])(C([H])(c4c([H])c([H])c(C([H])([H])[H])c([H])c4[H])C4([H])C([H])([H])C4([H])N([H])C(=O)N4C([H])([H])C([H])([H])C([H])([H])C([H])(n5nc(-c6c([H])c([H])c(Oc7c([H])c([H])c(F)c([H])c7F)c([H])c6[H])c(C(=O)N([H])[H])c5N([H])[H])C4([H])[H])C([H])([H])C3([H])[H])c([H])c([H])c2C1([H])[H]

>  <smiles>  (47) 
[H]c1c([H])c([H])c2c(c1[H])C([H])([H])C([H])([H])C([H])([H])C2([H])N([H])C(=O)C1([H])N(C(=O)C([H])(N([H])C(=O)C([H])(N([H])C([H])([H])[H])C([H])([H])[H])C(C([H])([H])[H])(C([H])([H])[H])C([H])([H])[H])C([H])([H])c2c([H])c(OC3([H])C([H])([H])C([H])([H])C([H])(C([H])(c4c([H])c([H])c(C([H])([H])[H])c([H])c4[H])C4([H])C([H])([H])C4([H])N([H])C(=O)N4C([H])([H])C([H])([H])C([H])([H])C([H])(n5nc(-c6c([H])c([H])c(Oc7c([H])c([H])c(F)c([H])c7F)c([H])c6[H])c(C(=O)N([H])[H])c5N([H])[H])C4([H])[H])C([H])([H])C3([H])[H])c([H])c([H])c2C1([H])[H]

$$$$
47:0:0
     RDKit          3D

100110  0  0  1  0  0  0  0  0999 V2000
  -32.2680  -19.4370   18.7800 C   0  0  0  0  0  2  0  0  0  0  0  0
  -32.2290  -18.3140   19.8360 C   0  0  0  0  0  2  0  0  0  0  0  0
  -31.9810  -20.8270   19.3660 C   0  0  0  0  0  2  0  0  0  0  0  0
  -30.5500  -19.7310   21.1630 C   0  0  0  0  0  2  0  0  0  0  0  0
  -30.9460  -18.2790   20.7030 C   0  0  0  0  0  3  0  0  0  0  0  0
  -30.6300  -20.8860   20.1100 C   0  0  0  0  0  3  0  0  0  0  0  0
  -30.4230  -22.2360   20.7300 N   0  0  0  0  0  4  0  0  0  0  0  0
  -31.2880  -22.5450   21.1410 H   0  0  0  0  0  0  0  0  0  0  0  0
  -29.7660  -22.1260   21.4850 H   0  0  0  0  0  0  0  0  0  0  0  0
  -29.8840  -23.3060   19.8320 C   0  0  0  0  0  2  0  0  0  0  0  0
  -29.7270  -24.7120   20.4970 C   0  0  0  0  0  2  0  0  0  0  0  0
  -28.7060  -25.6240   19.7650 C   0  0  0  0  0  2  0  0  0  0  0  0
  -28.6760  -26.9870   20.2510 O   0  0  0  0  0  0  0  0  0  0  0  0
  -24.6800  -32.0160   23.3650 C   0  0  0  0  0  0  0  0  0  0  0  0
  -27.4830  -27.7030   20.1990 C   0  0  0  0  0  0  0  0  0  0  0  0
  -23.5360  -30.6300   21.6680 C   0  0  0  0  0  3  0  0  0  0  0  0
  -25.0480  -29.1750   20.2170 C   0  0  0  0  0  0  0  0  0  0  0  0
  -26.0570  -31.0500   21.5190 C   0  0  0  0  0  2  0  0  0  0  0  0
  -26.1850  -29.6980   20.8400 C   0  0  0  0  0  0  0  0  0  0  0  0
  -27.4020  -28.9710   20.8330 C   0  0  0  0  0  3  0  0  0  0  0  0
  -26.3250  -27.2180   19.5460 C   0  0  0  0  0  3  0  0  0  0  0  0
  -25.1140  -27.9350   19.5660 C   0  0  0  0  0  3  0  0  0  0  0  0
  -23.7820  -29.9970   20.2710 C   0  0  0  0  0  2  0  0  0  0  0  0
  -24.7760  -31.2450   22.2430 N   0  0  0  0  0  0  0  0  0  0  0  0
  -23.5840  -32.2450   23.8960 O   0  0  0  0  0  0  0  0  0  0  0  0
  -22.8980  -29.5630   22.5890 C   0  0  0  0  0  0  0  0  0  0  0  0
  -21.5820  -29.3520   22.4410 N   0  0  0  0  0  0  0  0  0  0  0  0
  -23.5880  -28.9280   23.3920 O   0  0  0  0  0  0  0  0  0  0  0  0
  -21.0820  -29.9230   21.7740 H   0  0  0  0  0  0  0  0  0  0  0  0
  -18.2310  -28.0640   22.8650 C   0  0  0  0  0  0  0  0  0  0  0  0
  -20.7810  -28.3700   23.1750 C   0  0  0  0  0  3  0  0  0  0  0  0
  -20.9210  -26.9600   22.5580 C   0  0  0  0  0  2  0  0  0  0  0  0
  -19.8390  -26.6430   21.5210 C   0  0  0  0  0  2  0  0  0  0  0  0
  -18.4470  -26.7400   22.1520 C   0  0  0  0  0  2  0  0  0  0  0  0
  -19.3290  -28.8380   23.3300 C   0  0  0  0  0  0  0  0  0  0  0  0
  -19.0740  -30.0780   23.9520 C   0  0  0  0  0  3  0  0  0  0  0  0
  -17.7580  -30.5470   24.1210 C   0  0  0  0  0  3  0  0  0  0  0  0
  -16.6750  -29.7720   23.6710 C   0  0  0  0  0  3  0  0  0  0  0  0
  -16.9130  -28.5340   23.0480 C   0  0  0  0  0  3  0  0  0  0  0  0
  -25.9400  -32.6670   24.0160 C   0  0  0  0  0  3  0  0  0  0  0  0
  -25.6090  -34.0650   24.3250 N   0  0  0  0  0  0  0  0  0  0  0  0
  -25.9430  -35.1120   23.5600 C   0  0  0  0  0  0  0  0  0  0  0  0
  -26.6350  -35.0070   22.5440 O   0  0  0  0  0  0  0  0  0  0  0  0
  -25.0030  -34.2220   25.1170 H   0  0  0  0  0  0  0  0  0  0  0  0
  -24.1910  -36.8710   23.1600 C   0  0  0  0  0  1  0  0  0  0  0  0
  -25.4280  -36.4980   23.9940 C   0  0  0  0  0  3  0  0  0  0  0  0
  -27.5380  -37.4290   24.8360 C   0  0  0  0  0  1  0  0  0  0  0  0
  -26.4440  -37.5660   23.8780 N   0  0  0  0  0  0  0  0  0  0  0  0
  -26.0210  -38.4810   24.0110 H   0  0  0  0  0  0  0  0  0  0  0  0
  -26.4290  -31.9100   25.3140 C   0  0  1  0  0  0  0  0  0  0  0  0
  -25.3070  -31.6590   26.3460 C   0  0  0  0  0  1  0  0  0  0  0  0
  -27.0460  -30.5410   24.9430 C   0  0  0  0  0  1  0  0  0  0  0  0
  -27.5370  -32.7290   26.0130 C   0  0  0  0  0  1  0  0  0  0  0  0
  -29.7780  -17.3260   20.2130 C   0  0  0  0  0  3  0  0  0  0  0  0
  -30.6280  -14.9170   20.5380 C   0  0  0  0  0  0  0  0  0  0  0  0
  -30.3990  -12.7760   19.3470 C   0  0  0  0  0  2  0  0  0  0  0  0
  -29.4510  -13.0010   18.1490 C   0  0  0  0  0  2  0  0  0  0  0  0
  -27.9810  -12.8040   18.5720 C   0  0  0  0  0  2  0  0  0  0  0  0
  -27.6210  -13.5680   19.8750 C   0  0  0  0  0  3  0  0  0  0  0  0
  -28.6900  -13.3460   20.9720 C   0  0  0  0  0  2  0  0  0  0  0  0
  -30.0040  -13.7100   20.4130 N   0  0  0  0  0  0  0  0  0  0  0  0
  -31.7730  -15.1170   20.1340 O   0  0  0  0  0  0  0  0  0  0  0  0
  -29.8030  -15.9550   20.8160 N   0  0  0  0  0  0  0  0  0  0  0  0
  -28.9380  -15.6680   21.2510 H   0  0  0  0  0  0  0  0  0  0  0  0
  -25.1920  -14.0730   20.5600 C   0  0  0  0  0  0  0  0  0  0  0  0
  -24.1520  -13.2550   20.9090 C   0  0  0  0  0  0  0  0  0  0  0  0
  -24.6670  -11.9240   20.8760 C   0  0  0  0  0  0  0  0  0  0  0  0
  -26.2770  -13.2360   20.3390 N   0  0  0  0  0  0  0  0  0  0  0  0
  -25.9620  -11.9390   20.5860 N   0  0  0  0  0  0  0  0  0  0  0  0
  -23.9910  -10.6320   21.0470 C   0  0  0  0  0  0  0  0  0  0  0  0
  -24.4350   -9.6880   21.9980 C   0  0  0  0  0  3  0  0  0  0  0  0
  -23.7580   -8.4600   22.1580 C   0  0  0  0  0  3  0  0  0  0  0  0
  -22.6230   -8.1670   21.3660 C   0  0  0  0  0  0  0  0  0  0  0  0
  -22.1990   -9.1010   20.4050 C   0  0  0  0  0  3  0  0  0  0  0  0
  -22.8760  -10.3200   20.2430 C   0  0  0  0  0  3  0  0  0  0  0  0
  -21.9170   -6.9910   21.4350 O   0  0  0  0  0  0  0  0  0  0  0  0
  -21.8390   -6.2640   22.5950 C   0  0  0  0  0  0  0  0  0  0  0  0
  -21.3360   -6.8210   23.7910 C   0  0  0  0  0  3  0  0  0  0  0  0
  -21.2100   -6.0190   24.9420 C   0  0  0  0  0  3  0  0  0  0  0  0
  -21.5760   -4.6600   24.8980 C   0  0  0  0  0  0  0  0  0  0  0  0
  -22.0720   -4.1020   23.7080 C   0  0  0  0  0  3  0  0  0  0  0  0
  -22.2000   -4.9020   22.5580 C   0  0  0  0  0  0  0  0  0  0  0  0
  -22.6590   -4.3540   21.4070 F   0  0  0  0  0  0  0  0  0  0  0  0
  -21.4480   -3.8880   26.0010 F   0  0  0  0  0  0  0  0  0  0  0  0
  -22.7320  -13.6720   21.1660 C   0  0  0  0  0  0  0  0  0  0  0  0
  -22.0250  -12.9420   22.0230 N   0  0  0  0  0  0  0  0  0  0  0  0
  -22.2590  -14.6810   20.6450 O   0  0  0  0  0  0  0  0  0  0  0  0
  -22.4190  -12.1260   22.4670 H   0  0  0  0  0  0  0  0  0  0  0  0
  -21.0740  -13.2040   22.2390 H   0  0  0  0  0  0  0  0  0  0  0  0
  -25.3040  -15.4500   20.3950 N   0  0  0  0  0  0  0  0  0  0  0  0
  -24.5130  -16.0750   20.5170 H   0  0  0  0  0  0  0  0  0  0  0  0
  -26.1610  -15.9350   20.1780 H   0  0  0  0  0  0  0  0  0  0  0  0
  -29.1290  -18.4090   17.7530 C   0  0  0  0  0  3  0  0  0  0  0  0
  -29.5420  -17.2790   18.6850 C   0  0  0  0  0  3  0  0  0  0  0  0
  -28.1480  -17.5350   18.3480 N   0  0  0  0  0  4  0  0  0  0  0  0
  -27.6990  -16.9460   17.6670 H   0  0  0  0  0  0  0  0  0  0  0  0
  -27.5700  -18.0270   19.0070 H   0  0  0  0  0  0  0  0  0  0  0  0
  -28.8470  -19.3990   15.3230 C   0  0  0  0  0  2  0  0  0  0  0  0
  -30.2520  -18.8650   15.3950 C   0  0  0  0  0  2  0  0  0  0  0  0
  -29.1620  -18.2360   16.2370 C   0  0  0  0  0  3  0  0  0  0  0  0
  1  3  1  0
  1  2  1  0
  2  5  1  0
  3  6  1  0
  5 54  1  0
  5  4  1  0
  6  7  1  0
  6  4  1  0
  7  8  1  0
  7  9  1  0
 10 11  1  0
 10  7  1  0
 12 13  1  0
 12 11  1  0
 14 25  2  0
 15 13  1  0
 15 20  1  0
 16 24  1  0
 16 26  1  0
 17 23  1  0
 17 19  1  0
 18 24  1  0
 19 18  1  0
 20 19  2  0
 21 22  1  0
 21 15  2  0
 22 17  2  0
 23 16  1  0
 24 14  1  0
 26 28  2  0
 27 26  1  0
 29 27  1  0
 30 39  2  0
 30 35  1  0
 31 27  1  0
 31 35  1  0
 32 31  1  0
 33 34  1  0
 33 32  1  0
 34 30  1  0
 35 36  2  0
 36 37  1  0
 38 37  2  0
 39 38  1  0
 40 14  1  0
 40 41  1  0
 40 50  1  0
 41 44  1  0
 42 46  1  0
 42 41  1  0
 43 42  2  0
 46 45  1  0
 48 46  1  0
 48 49  1  0
 48 47  1  0
 50 53  1  1
 50 51  1  0
 52 50  1  0
 54 63  1  0
 55 63  1  0
 56 61  1  0
 57 58  1  0
 57 56  1  0
 59 58  1  0
 59 68  1  0
 59 60  1  0
 61 55  1  0
 61 60  1  0
 62 55  2  0
 63 64  1  0
 65 66  2  0
 66 85  1  0
 67 66  1  0
 67 70  1  0
 68 65  1  0
 68 69  1  0
 69 67  2  0
 70 71  1  0
 71 72  2  0
 73 76  1  0
 73 72  1  0
 74 73  2  0
 75 74  1  0
 75 70  2  0
 76 77  1  0
 77 78  1  0
 78 79  2  0
 80 79  1  0
 80 84  1  0
 81 80  2  0
 82 77  2  0
 82 81  1  0
 83 82  1  0
 85 86  1  0
 86 89  1  0
 86 88  1  0
 87 85  2  0
 90 91  1  0
 90 65  1  0
 92 90  1  0
 93100  1  0
 93 95  1  0
 93 94  1  0
 94 54  1  0
 95 94  1  0
 95 97  1  0
 96 95  1  0
 98 99  1  0
 98100  1  0
 99100  1  0
M  ISO  4  12 101  13 101  55 100  63 100
M  END
>  <TORSDO>  (48) 
F 23

>  <SCORE>  (48) 
-12.803

>  <name>  (48) 
47

>  <ligand_id>  (48) 
47

>  <original_smiles>  (48) 
[H]c1c([H])c([H])c2c(c1[H])C([H])([H])C([H])([H])C([H])([H])C2([H])N([H])C(=O)C1([H])N(C(=O)C([H])(N([H])C(=O)C([H])(N([H])C([H])([H])[H])C([H])([H])[H])C(C([H])([H])[H])(C([H])([H])[H])C([H])([H])[H])C([H])([H])c2c([H])c(OC([H])([H])C([H])([H])C([H])([H])[N+]([H])([H])C3([H])C([H])([H])C([H])([H])C([H])([H])C([H])(C([H])(N([H])C(=O)N4C([H])([H])C([H])([H])C([H])([H])C([H])(n5nc(-c6c([H])c([H])c(Oc7c([H])c([H])c(F)c([H])c7F)c([H])c6[H])c(C(=O)N([H])[H])c5N([H])[H])C4([H])[H])C4([H])C([H])(C5([H])C([H])([H])C5([H])[H])[N+]4([H])[H])C3([H])[H])c([H])c([H])c2C1([H])[H]

>  <smiles>  (48) 
[H]c1c([H])c([H])c2c(c1[H])C([H])([H])C([H])([H])C([H])([H])C2([H])N([H])C(=O)C1([H])N(C(=O)C([H])(N([H])C(=O)C([H])(N([H])C([H])([H])[H])C([H])([H])[H])C(C([H])([H])[H])(C([H])([H])[H])C([H])([H])[H])C([H])([H])c2c([H])c(OC([H])([H])C([H])([H])C([H])([H])[N+]([H])([H])C3([H])C([H])([H])C([H])([H])C([H])([H])C([H])(C([H])(N([H])C(=O)N4C([H])([H])C([H])([H])C([H])([H])C([H])(n5nc(-c6c([H])c([H])c(Oc7c([H])c([H])c(F)c([H])c7F)c([H])c6[H])c(C(=O)N([H])[H])c5N([H])[H])C4([H])[H])C4([H])C([H])(C5([H])C([H])([H])C5([H])[H])[N+]4([H])[H])C3([H])[H])c([H])c([H])c2C1([H])[H]

$$$$
48:0:0
     RDKit          3D

 92100  0  0  1  0  0  0  0  0999 V2000
  -31.2670  -15.2590   19.7810 C   0  0  0  0  0  0  0  0  0  0  0  0
  -30.9860  -12.8850   18.8510 C   0  0  0  0  0  2  0  0  0  0  0  0
  -29.9690  -12.8120   17.6880 C   0  0  0  0  0  2  0  0  0  0  0  0
  -28.5350  -12.6570   18.2250 C   0  0  0  0  0  2  0  0  0  0  0  0
  -28.2340  -13.6430   19.3830 C   0  0  0  0  0  3  0  0  0  0  0  0
  -29.3580  -13.6580   20.4380 C   0  0  0  0  0  2  0  0  0  0  0  0
  -30.5920  -14.0280   19.7290 N   0  0  0  0  0  0  0  0  0  0  0  0
  -32.4840  -15.2070   19.5570 O   0  0  0  0  0  0  0  0  0  0  0  0
  -31.1260  -18.1510   21.5160 C   0  0  0  0  0  3  0  0  0  0  0  0
  -30.8150  -20.5950   21.4640 C   0  0  0  0  0  3  0  0  0  0  0  0
  -31.1130  -19.4110   22.1710 C   0  0  0  0  0  0  0  0  0  0  0  0
  -30.7430  -17.9990   20.1680 C   0  0  0  0  0  0  0  0  0  0  0  0
  -30.4390  -20.5650   20.1160 C   0  0  0  0  0  0  0  0  0  0  0  0
  -30.3840  -19.2500   19.5200 N   0  0  0  0  0  0  0  0  0  0  0  0
  -30.5430  -16.5110   19.7370 N   0  0  0  0  0  0  0  0  0  0  0  0
  -29.5840  -16.3330   19.4940 H   0  0  0  0  0  0  0  0  0  0  0  0
  -25.9630  -14.3680   20.3030 C   0  0  0  0  0  0  0  0  0  0  0  0
  -24.8710  -13.6640   20.7200 C   0  0  0  0  0  0  0  0  0  0  0  0
  -25.2320  -12.2830   20.6290 C   0  0  0  0  0  0  0  0  0  0  0  0
  -26.9190  -13.4250   19.9700 N   0  0  0  0  0  0  0  0  0  0  0  0
  -26.4940  -12.1620   20.2330 N   0  0  0  0  0  0  0  0  0  0  0  0
  -24.4270  -11.0730   20.8330 C   0  0  0  0  0  0  0  0  0  0  0  0
  -24.8120  -10.0750   21.7550 C   0  0  0  0  0  3  0  0  0  0  0  0
  -24.0100   -8.9300   21.9470 C   0  0  0  0  0  3  0  0  0  0  0  0
  -22.8080   -8.7750   21.2160 C   0  0  0  0  0  0  0  0  0  0  0  0
  -22.4420   -9.7580   20.2810 C   0  0  0  0  0  3  0  0  0  0  0  0
  -23.2440  -10.8950   20.0870 C   0  0  0  0  0  3  0  0  0  0  0  0
  -21.9800   -7.6830   21.3180 O   0  0  0  0  0  0  0  0  0  0  0  0
  -21.9070   -6.9420   22.4690 C   0  0  0  0  0  0  0  0  0  0  0  0
  -21.4430   -7.4940   23.6830 C   0  0  0  0  0  3  0  0  0  0  0  0
  -21.3160   -6.6780   24.8250 C   0  0  0  0  0  3  0  0  0  0  0  0
  -21.6450   -5.3100   24.7550 C   0  0  0  0  0  0  0  0  0  0  0  0
  -22.1020   -4.7570   23.5450 C   0  0  0  0  0  3  0  0  0  0  0  0
  -22.2290   -5.5710   22.4050 C   0  0  0  0  0  0  0  0  0  0  0  0
  -22.6490   -5.0290   21.2370 F   0  0  0  0  0  0  0  0  0  0  0  0
  -21.5160   -4.5240   25.8490 F   0  0  0  0  0  0  0  0  0  0  0  0
  -23.5320  -14.2310   21.0890 C   0  0  0  0  0  0  0  0  0  0  0  0
  -22.8380  -13.6040   22.0300 N   0  0  0  0  0  0  0  0  0  0  0  0
  -23.1160  -15.2710   20.5750 O   0  0  0  0  0  0  0  0  0  0  0  0
  -23.1930  -12.7660   22.4680 H   0  0  0  0  0  0  0  0  0  0  0  0
  -21.9400  -13.9660   22.3210 H   0  0  0  0  0  0  0  0  0  0  0  0
  -26.2170  -15.7300   20.1520 N   0  0  0  0  0  0  0  0  0  0  0  0
  -25.5120  -16.4320   20.3440 H   0  0  0  0  0  0  0  0  0  0  0  0
  -27.0740  -16.1190   19.7860 H   0  0  0  0  0  0  0  0  0  0  0  0
  -31.6290  -18.2250   24.4010 C   0  0  0  0  0  1  0  0  0  0  0  0
  -29.9930  -20.1640   24.2750 C   0  0  0  0  0  1  0  0  0  0  0  0
  -31.2680  -19.5360   23.6840 C   0  0  0  0  0  3  0  0  0  0  0  0
  -30.0650  -21.8850   19.4990 N   0  0  0  0  0  0  0  0  0  0  0  0
  -30.0550  -21.8690   18.4840 H   0  0  0  0  0  0  0  0  0  0  0  0
  -30.0890  -23.3700   20.0860 C   0  0  0  0  0  3  0  0  0  0  0  0
  -29.0160  -24.6790   19.7150 C   0  0  0  0  0  3  0  0  0  0  0  0
  -29.0470  -26.2120   20.1570 O   0  0  0  0  0  0  0  0  0  0  0  0
  -24.8140  -31.5740   23.1150 C   0  0  0  0  0  0  0  0  0  0  0  0
  -27.9280  -27.1460   20.0590 C   0  0  0  0  0  0  0  0  0  0  0  0
  -23.8230  -30.1670   21.3500 C   0  0  0  0  0  3  0  0  0  0  0  0
  -25.4760  -28.7540   19.9580 C   0  0  0  0  0  0  0  0  0  0  0  0
  -26.3610  -30.6130   21.3560 C   0  0  0  0  0  2  0  0  0  0  0  0
  -26.5850  -29.2500   20.6560 C   0  0  0  0  0  0  0  0  0  0  0  0
  -27.8100  -28.4650   20.6830 C   0  0  0  0  0  3  0  0  0  0  0  0
  -26.7820  -26.7670   19.3260 C   0  0  0  0  0  3  0  0  0  0  0  0
  -25.5920  -27.5320   19.2760 C   0  0  0  0  0  3  0  0  0  0  0  0
  -24.1860  -29.5660   19.9640 C   0  0  0  0  0  2  0  0  0  0  0  0
  -25.0150  -30.8060   21.9980 N   0  0  0  0  0  0  0  0  0  0  0  0
  -23.6790  -31.7540   23.5870 O   0  0  0  0  0  0  0  0  0  0  0  0
  -23.1650  -29.0780   22.2330 C   0  0  0  0  0  0  0  0  0  0  0  0
  -21.8440  -28.8730   22.0810 N   0  0  0  0  0  0  0  0  0  0  0  0
  -23.8470  -28.4170   23.0210 O   0  0  0  0  0  0  0  0  0  0  0  0
  -21.3480  -29.4720   21.4350 H   0  0  0  0  0  0  0  0  0  0  0  0
  -18.4820  -27.5870   22.5460 C   0  0  0  0  0  0  0  0  0  0  0  0
  -21.0460  -27.8550   22.7720 C   0  0  0  0  0  3  0  0  0  0  0  0
  -21.1440  -26.4880   22.0590 C   0  0  0  0  0  2  0  0  0  0  0  0
  -20.0200  -26.2510   21.0430 C   0  0  0  0  0  2  0  0  0  0  0  0
  -18.6540  -26.3130   21.7330 C   0  0  0  0  0  2  0  0  0  0  0  0
  -19.6060  -28.3170   23.0200 C   0  0  0  0  0  0  0  0  0  0  0  0
  -19.3950  -29.5030   23.7530 C   0  0  0  0  0  3  0  0  0  0  0  0
  -18.0930  -29.9690   24.0110 C   0  0  0  0  0  3  0  0  0  0  0  0
  -16.9820  -29.2420   23.5460 C   0  0  0  0  0  3  0  0  0  0  0  0
  -17.1780  -28.0510   22.8230 C   0  0  0  0  0  3  0  0  0  0  0  0
  -25.9980  -32.2790   23.8420 C   0  0  0  0  0  3  0  0  0  0  0  0
  -26.4460  -31.5360   25.1610 C   0  0  1  0  0  0  0  0  0  0  0  0
  -25.2840  -31.2350   26.1390 C   0  0  0  0  0  1  0  0  0  0  0  0
  -27.1400  -30.1940   24.8330 C   0  0  0  0  0  1  0  0  0  0  0  0
  -27.4920  -32.3940   25.9140 C   0  0  0  0  0  1  0  0  0  0  0  0
  -25.5820  -33.6580   24.1490 N   0  0  0  0  0  0  0  0  0  0  0  0
  -25.9170  -34.7380   23.4310 C   0  0  0  0  0  0  0  0  0  0  0  0
  -26.6710  -34.6810   22.4560 O   0  0  0  0  0  0  0  0  0  0  0  0
  -24.9200  -33.7700   24.9020 H   0  0  0  0  0  0  0  0  0  0  0  0
  -24.1380  -36.4550   22.9470 C   0  0  0  0  0  1  0  0  0  0  0  0
  -25.3230  -36.0980   23.8570 C   0  0  0  0  0  3  0  0  0  0  0  0
  -27.3170  -37.0950   24.8870 C   0  0  0  0  0  1  0  0  0  0  0  0
  -26.3040  -37.2040   23.8400 N   0  0  0  0  0  0  0  0  0  0  0  0
  -25.8390  -38.1010   23.9410 H   0  0  0  0  0  0  0  0  0  0  0  0
  2  7  1  0
  3  4  1  0
  3  2  1  0
  5  4  1  0
  5 20  1  0
  5  6  1  0
  7  1  1  0
  7  6  1  0
  8  1  2  0
  9 11  1  0
 10 11  2  0
 11 47  1  0
 12  9  2  0
 13 10  1  0
 14 13  2  0
 14 12  1  0
 15  1  1  0
 15 12  1  0
 16 15  1  0
 17 18  2  0
 18 37  1  0
 19 18  1  0
 19 22  1  0
 20 21  1  0
 20 17  1  0
 21 19  2  0
 22 23  1  0
 23 24  2  0
 25 28  1  0
 25 24  1  0
 26 25  2  0
 27 26  1  0
 27 22  2  0
 28 29  1  0
 29 30  1  0
 30 31  2  0
 32 31  1  0
 32 36  1  0
 33 32  2  0
 34 29  2  0
 34 33  1  0
 35 34  1  0
 37 38  1  0
 38 41  1  0
 38 40  1  0
 39 37  2  0
 42 17  1  0
 42 43  1  0
 44 42  1  0
 47 46  1  0
 47 45  1  0
 48 50  1  0
 48 13  1  0
 49 48  1  0
 51 50  2  0
 51 52  1  0
 53 64  2  0
 54 52  1  0
 54 59  1  0
 55 63  1  0
 55 65  1  0
 56 62  1  0
 56 58  1  0
 57 63  1  0
 58 59  2  0
 58 57  1  0
 60 54  2  0
 61 60  1  0
 61 56  2  0
 62 55  1  0
 63 53  1  0
 65 67  2  0
 66 65  1  0
 68 66  1  0
 69 78  2  0
 69 74  1  0
 70 66  1  0
 70 74  1  0
 71 70  1  0
 72 73  1  0
 72 71  1  0
 73 69  1  0
 74 75  2  0
 75 76  1  0
 77 76  2  0
 78 77  1  0
 79 53  1  0
 79 84  1  0
 79 80  1  0
 80 83  1  1
 80 81  1  0
 82 80  1  0
 84 87  1  0
 85 89  1  0
 85 84  1  0
 86 85  2  0
 89 88  1  0
 91 89  1  0
 91 92  1  0
 91 90  1  0
M  ISO  4   1 100  15 100  51 101  52 101
M  END
>  <TORSDO>  (49) 
F 19

>  <SCORE>  (49) 
-10.222

>  <name>  (49) 
48

>  <ligand_id>  (49) 
48

>  <original_smiles>  (49) 
[H]c1c([H])c([H])c2c(c1[H])C([H])([H])C([H])([H])C([H])([H])C2([H])N([H])C(=O)C1([H])N(C(=O)C([H])(N([H])C(=O)C([H])(N([H])C([H])([H])[H])C([H])([H])[H])C(C([H])([H])[H])(C([H])([H])[H])C([H])([H])[H])C([H])([H])c2c([H])c(OC([H])([H])C([H])([H])N([H])c3nc(N([H])C(=O)N4C([H])([H])C([H])([H])C([H])([H])C([H])(n5nc(-c6c([H])c([H])c(Oc7c([H])c([H])c(F)c([H])c7F)c([H])c6[H])c(C(=O)N([H])[H])c5N([H])[H])C4([H])[H])c([H])c(C([H])(C([H])([H])[H])C([H])([H])[H])c3[H])c([H])c([H])c2C1([H])[H]

>  <smiles>  (49) 
[H]c1c([H])c([H])c2c(c1[H])C([H])([H])C([H])([H])C([H])([H])C2([H])N([H])C(=O)C1([H])N(C(=O)C([H])(N([H])C(=O)C([H])(N([H])C([H])([H])[H])C([H])([H])[H])C(C([H])([H])[H])(C([H])([H])[H])C([H])([H])[H])C([H])([H])c2c([H])c(OC([H])([H])C([H])([H])N([H])c3nc(N([H])C(=O)N4C([H])([H])C([H])([H])C([H])([H])C([H])(n5nc(-c6c([H])c([H])c(Oc7c([H])c([H])c(F)c([H])c7F)c([H])c6[H])c(C(=O)N([H])[H])c5N([H])[H])C4([H])[H])c([H])c(C([H])(C([H])([H])[H])C([H])([H])[H])c3[H])c([H])c([H])c2C1([H])[H]

$$$$
49:0:0
     RDKit          3D

 93102  0  0  1  0  0  0  0  0999 V2000
  -29.2630  -19.6920   19.7260 C   0  0  0  0  0  3  0  0  0  0  0  0
  -29.9350  -18.4300   20.3320 C   0  0  0  0  0  0  0  0  0  0  0  0
  -30.6630  -18.8570   21.4820 C   0  0  0  0  0  0  0  0  0  0  0  0
  -30.7040  -20.2330   21.9080 C   0  0  0  0  0  0  0  0  0  0  0  0
  -29.3170  -21.1660   20.2110 C   0  0  0  0  0  0  0  0  0  0  0  0
  -30.0970  -21.2940   21.3030 N   0  0  0  0  0  0  0  0  0  0  0  0
  -30.6150  -15.5210   20.1480 C   0  0  0  0  0  0  0  0  0  0  0  0
  -30.6240  -13.0260   19.3480 C   0  0  0  0  0  2  0  0  0  0  0  0
  -29.7060  -12.6810   18.1440 C   0  0  0  0  0  2  0  0  0  0  0  0
  -28.2710  -12.3950   18.6090 C   0  0  0  0  0  2  0  0  0  0  0  0
  -27.7900  -13.4310   19.6500 C   0  0  0  0  0  3  0  0  0  0  0  0
  -28.8300  -13.6970   20.7620 C   0  0  0  0  0  2  0  0  0  0  0  0
  -30.0440  -14.2080   20.0960 N   0  0  0  0  0  0  0  0  0  0  0  0
  -31.8510  -15.4800   20.0170 O   0  0  0  0  0  0  0  0  0  0  0  0
  -29.8440  -16.8110   20.0430 N   0  0  0  0  0  0  0  0  0  0  0  0
  -28.9000  -16.5760   19.7880 H   0  0  0  0  0  0  0  0  0  0  0  0
  -25.4270  -14.0070   20.4090 C   0  0  0  0  0  0  0  0  0  0  0  0
  -24.3600  -13.2350   20.7770 C   0  0  0  0  0  0  0  0  0  0  0  0
  -24.8180  -11.8830   20.7470 C   0  0  0  0  0  0  0  0  0  0  0  0
  -26.4640  -13.1240   20.1690 N   0  0  0  0  0  0  0  0  0  0  0  0
  -26.1100  -11.8410   20.4400 N   0  0  0  0  0  0  0  0  0  0  0  0
  -24.0810  -10.6260   20.9350 C   0  0  0  0  0  0  0  0  0  0  0  0
  -24.5030   -9.6510   21.8660 C   0  0  0  0  0  3  0  0  0  0  0  0
  -23.7630   -8.4630   22.0460 C   0  0  0  0  0  3  0  0  0  0  0  0
  -22.5840   -8.2400   21.2970 C   0  0  0  0  0  0  0  0  0  0  0  0
  -22.1810   -9.2020   20.3530 C   0  0  0  0  0  3  0  0  0  0  0  0
  -22.9220  -10.3810   20.1710 C   0  0  0  0  0  3  0  0  0  0  0  0
  -21.8170   -7.1040   21.3860 O   0  0  0  0  0  0  0  0  0  0  0  0
  -21.7680   -6.3550   22.5360 C   0  0  0  0  0  0  0  0  0  0  0  0
  -21.3320   -6.9030   23.7620 C   0  0  0  0  0  3  0  0  0  0  0  0
  -21.2330   -6.0820   24.9030 C   0  0  0  0  0  3  0  0  0  0  0  0
  -21.5580   -4.7150   24.8180 C   0  0  0  0  0  0  0  0  0  0  0  0
  -21.9880   -4.1680   23.5960 C   0  0  0  0  0  3  0  0  0  0  0  0
  -22.0890   -4.9850   22.4570 C   0  0  0  0  0  0  0  0  0  0  0  0
  -22.4830   -4.4490   21.2770 F   0  0  0  0  0  0  0  0  0  0  0  0
  -21.4540   -3.9250   25.9110 F   0  0  0  0  0  0  0  0  0  0  0  0
  -22.9650  -13.7230   21.0410 C   0  0  0  0  0  0  0  0  0  0  0  0
  -22.2290  -13.0350   21.9040 N   0  0  0  0  0  0  0  0  0  0  0  0
  -22.5390  -14.7500   20.5140 O   0  0  0  0  0  0  0  0  0  0  0  0
  -22.5860  -12.1990   22.3450 H   0  0  0  0  0  0  0  0  0  0  0  0
  -21.2960  -13.3480   22.1330 H   0  0  0  0  0  0  0  0  0  0  0  0
  -25.5910  -15.3760   20.2290 N   0  0  0  0  0  0  0  0  0  0  0  0
  -24.8220  -16.0230   20.3650 H   0  0  0  0  0  0  0  0  0  0  0  0
  -26.4320  -15.8280   19.8990 H   0  0  0  0  0  0  0  0  0  0  0  0
  -31.0190  -20.4090   24.5370 C   0  0  0  0  0  2  0  0  0  0  0  0
  -31.0810  -21.8140   23.9940 C   0  0  0  0  0  2  0  0  0  0  0  0
  -31.5100  -20.6530   23.1140 C   0  0  0  0  0  3  0  0  0  0  0  0
  -31.3280  -17.9020   22.2610 N   0  0  0  0  0  0  0  0  0  0  0  0
  -30.9790  -16.9540   22.2440 H   0  0  0  0  0  0  0  0  0  0  0  0
  -31.6300  -18.1940   23.1860 H   0  0  0  0  0  0  0  0  0  0  0  0
  -28.8920  -22.7610   19.5670 C   0  0  0  0  0  2  0  0  0  0  0  0
  -28.0740  -24.2740   20.1800 C   0  0  0  0  0  2  0  0  0  0  0  0
  -28.2160  -25.9240   19.9470 O   0  0  0  0  0  0  0  0  0  0  0  0
  -24.6080  -31.8450   23.0990 C   0  0  0  0  0  0  0  0  0  0  0  0
  -27.1760  -27.0040   19.9860 C   0  0  0  0  0  0  0  0  0  0  0  0
  -23.4120  -30.4570   21.4530 C   0  0  0  0  0  3  0  0  0  0  0  0
  -24.8570  -28.8780   19.9970 C   0  0  0  0  0  0  0  0  0  0  0  0
  -25.9740  -30.6890   21.2800 C   0  0  0  0  0  2  0  0  0  0  0  0
  -26.0520  -29.2810   20.6100 C   0  0  0  0  0  0  0  0  0  0  0  0
  -27.2020  -28.3670   20.5790 C   0  0  0  0  0  3  0  0  0  0  0  0
  -25.9470  -26.7560   19.3360 C   0  0  0  0  0  3  0  0  0  0  0  0
  -24.8290  -27.6340   19.3450 C   0  0  0  0  0  3  0  0  0  0  0  0
  -23.6400  -29.8010   20.0630 C   0  0  0  0  0  2  0  0  0  0  0  0
  -24.6890  -31.0220   21.9990 N   0  0  0  0  0  0  0  0  0  0  0  0
  -23.5210  -32.1200   23.6320 O   0  0  0  0  0  0  0  0  0  0  0  0
  -22.7330  -29.4420   22.4100 C   0  0  0  0  0  0  0  0  0  0  0  0
  -21.4030  -29.2740   22.2980 N   0  0  0  0  0  0  0  0  0  0  0  0
  -23.4070  -28.8100   23.2240 O   0  0  0  0  0  0  0  0  0  0  0  0
  -20.9090  -29.8430   21.6280 H   0  0  0  0  0  0  0  0  0  0  0  0
  -18.0340  -28.0290   22.8230 C   0  0  0  0  0  0  0  0  0  0  0  0
  -20.5950  -28.3170   23.0630 C   0  0  0  0  0  3  0  0  0  0  0  0
  -20.7050  -26.8940   22.4650 C   0  0  0  0  0  2  0  0  0  0  0  0
  -19.5930  -26.5740   21.4610 C   0  0  0  0  0  2  0  0  0  0  0  0
  -18.2150  -26.6930   22.1210 C   0  0  0  0  0  2  0  0  0  0  0  0
  -19.1500  -28.7970   23.2510 C   0  0  0  0  0  0  0  0  0  0  0  0
  -18.9250  -30.0420   23.8730 C   0  0  0  0  0  3  0  0  0  0  0  0
  -17.6160  -30.5220   24.0710 C   0  0  0  0  0  3  0  0  0  0  0  0
  -16.5150  -29.7530   23.6590 C   0  0  0  0  0  3  0  0  0  0  0  0
  -16.7240  -28.5080   23.0360 C   0  0  0  0  0  3  0  0  0  0  0  0
  -25.8800  -32.4900   23.7300 C   0  0  0  0  0  3  0  0  0  0  0  0
  -26.3940  -31.7180   25.0060 C   0  0  1  0  0  0  0  0  0  0  0  0
  -25.2960  -31.4840   26.0710 C   0  0  0  0  0  1  0  0  0  0  0  0
  -26.9870  -30.3470   24.6140 C   0  0  0  0  0  1  0  0  0  0  0  0
  -27.5420  -32.5150   25.6720 C   0  0  0  0  0  1  0  0  0  0  0  0
  -25.5580  -33.8840   24.0800 N   0  0  0  0  0  0  0  0  0  0  0  0
  -25.8940  -34.9570   23.3510 C   0  0  0  0  0  0  0  0  0  0  0  0
  -26.5740  -34.8780   22.3250 O   0  0  0  0  0  0  0  0  0  0  0  0
  -24.9670  -34.0230   24.8840 H   0  0  0  0  0  0  0  0  0  0  0  0
  -24.1820  -36.7740   23.0180 C   0  0  0  0  0  1  0  0  0  0  0  0
  -25.4050  -36.3350   23.8390 C   0  0  0  0  0  3  0  0  0  0  0  0
  -27.5230  -37.1960   24.7390 C   0  0  0  0  0  1  0  0  0  0  0  0
  -26.4440  -37.3880   23.7750 N   0  0  0  0  0  0  0  0  0  0  0  0
  -26.0350  -38.3050   23.9370 H   0  0  0  0  0  0  0  0  0  0  0  0
  1  5  2  0
  1  2  1  0
  2  3  2  0
  3  4  1  0
  3 48  1  0
  4 47  1  0
  5  6  1  0
  6  4  2  0
  8 13  1  0
  9 10  1  0
  9  8  1  0
 11 10  1  0
 11 20  1  0
 11 12  1  0
 13  7  1  0
 13 12  1  0
 14  7  2  0
 15  7  1  0
 15  2  1  0
 16 15  1  0
 17 18  2  0
 18 37  1  0
 19 18  1  0
 19 22  1  0
 20 17  1  0
 20 21  1  0
 21 19  2  0
 22 23  1  0
 23 24  2  0
 25 28  1  0
 25 24  1  0
 26 25  2  0
 27 26  1  0
 27 22  2  0
 28 29  1  0
 29 30  1  0
 30 31  2  0
 32 31  1  0
 32 36  1  0
 33 32  2  0
 34 29  2  0
 34 33  1  0
 35 34  1  0
 37 38  1  0
 38 41  1  0
 38 40  1  0
 39 37  2  0
 42 43  1  0
 42 17  1  0
 44 42  1  0
 46 45  1  0
 47 46  1  0
 47 45  1  0
 48 50  1  0
 49 48  1  0
 51 52  1  0
 51  5  1  0
 53 55  1  0
 53 52  1  0
 54 65  2  0
 55 60  1  0
 56 64  1  0
 56 66  1  0
 57 63  1  0
 57 59  1  0
 58 64  1  0
 59 58  1  0
 60 59  2  0
 61 62  1  0
 61 55  2  0
 62 57  2  0
 63 56  1  0
 64 54  1  0
 66 68  2  0
 67 66  1  0
 69 67  1  0
 70 79  2  0
 70 75  1  0
 71 67  1  0
 71 75  1  0
 72 71  1  0
 73 74  1  0
 73 72  1  0
 74 70  1  0
 75 76  2  0
 76 77  1  0
 78 77  2  0
 79 78  1  0
 80 54  1  0
 80 85  1  0
 80 81  1  0
 81 84  1  1
 81 82  1  0
 83 81  1  0
 85 88  1  0
 86 90  1  0
 86 85  1  0
 87 86  2  0
 90 89  1  0
 92 90  1  0
 92 93  1  0
 92 91  1  0
M  ISO  4   7 100  15 100  52 101  53 101
M  END
>  <TORSDO>  (50) 
F 20

>  <SCORE>  (50) 
-15.625

>  <name>  (50) 
49

>  <ligand_id>  (50) 
49

>  <original_smiles>  (50) 
[H]c1c([H])c([H])c2c(c1[H])C([H])([H])C([H])([H])C([H])([H])C2([H])N([H])C(=O)C1([H])N(C(=O)C([H])(N([H])C(=O)C([H])(N([H])C([H])([H])[H])C([H])([H])[H])C(C([H])([H])[H])(C([H])([H])[H])C([H])([H])[H])C([H])([H])c2c([H])c(OC([H])([H])C([H])([H])c3nc(C4([H])C([H])([H])C4([H])[H])c(N([H])[H])c(N([H])C(=O)N4C([H])([H])C([H])([H])C([H])([H])C([H])(n5nc(-c6c([H])c([H])c(Oc7c([H])c([H])c(F)c([H])c7F)c([H])c6[H])c(C(=O)N([H])[H])c5N([H])[H])C4([H])[H])c3[H])c([H])c([H])c2C1([H])[H]

>  <smiles>  (50) 
[H]c1c([H])c([H])c2c(c1[H])C([H])([H])C([H])([H])C([H])([H])C2([H])N([H])C(=O)C1([H])N(C(=O)C([H])(N([H])C(=O)C([H])(N([H])C([H])([H])[H])C([H])([H])[H])C(C([H])([H])[H])(C([H])([H])[H])C([H])([H])[H])C([H])([H])c2c([H])c(OC([H])([H])C([H])([H])c3nc(C4([H])C([H])([H])C4([H])[H])c(N([H])[H])c(N([H])C(=O)N4C([H])([H])C([H])([H])C([H])([H])C([H])(n5nc(-c6c([H])c([H])c(Oc7c([H])c([H])c(F)c([H])c7F)c([H])c6[H])c(C(=O)N([H])[H])c5N([H])[H])C4([H])[H])c3[H])c([H])c([H])c2C1([H])[H]

$$$$
50:0:0
     RDKit          3D

 92100  0  0  1  0  0  0  0  0999 V2000
  -27.5850  -21.1170   19.2290 C   0  0  0  0  0  1  0  0  0  0  0  0
  -28.7560  -21.3520   20.2470 C   0  0  0  0  0  3  0  0  0  0  0  0
  -29.9900  -19.2730   18.9470 C   0  0  0  0  0  2  0  0  0  0  0  0
  -30.1890  -19.4050   21.5330 C   0  0  0  0  0  2  0  0  0  0  0  0
  -29.5470  -17.7880   19.1300 C   0  0  0  0  0  2  0  0  0  0  0  0
  -29.8920  -17.8670   21.5670 C   0  0  0  0  0  2  0  0  0  0  0  0
  -29.8880  -20.2040   20.2090 C   0  0  0  0  0  3  0  0  0  0  0  0
  -30.2890  -17.0770   20.2910 C   0  0  0  0  0  3  0  0  0  0  0  0
  -30.7050  -14.5350   20.0070 C   0  0  0  0  0  0  0  0  0  0  0  0
  -30.3860  -12.3190   18.9470 C   0  0  0  0  0  2  0  0  0  0  0  0
  -29.3890  -12.4880   17.7800 C   0  0  0  0  0  2  0  0  0  0  0  0
  -27.9350  -12.3410   18.2840 C   0  0  0  0  0  2  0  0  0  0  0  0
  -27.6500  -13.2030   19.5430 C   0  0  0  0  0  3  0  0  0  0  0  0
  -28.7590  -13.0390   20.6040 C   0  0  0  0  0  2  0  0  0  0  0  0
  -30.0450  -13.3390   19.9580 N   0  0  0  0  0  0  0  0  0  0  0  0
  -31.8380  -14.6770   19.5520 O   0  0  0  0  0  0  0  0  0  0  0  0
  -29.9600  -15.6170   20.3960 N   0  0  0  0  0  0  0  0  0  0  0  0
  -29.0330  -15.3950   20.7210 H   0  0  0  0  0  0  0  0  0  0  0  0
  -25.3030  -13.8270   20.3980 C   0  0  0  0  0  0  0  0  0  0  0  0
  -24.2430  -13.0670   20.8110 C   0  0  0  0  0  0  0  0  0  0  0  0
  -24.6830  -11.7070   20.7450 C   0  0  0  0  0  0  0  0  0  0  0  0
  -26.3190  -12.9360   20.0950 N   0  0  0  0  0  0  0  0  0  0  0  0
  -25.9530  -11.6530   20.3580 N   0  0  0  0  0  0  0  0  0  0  0  0
  -23.9470  -10.4530   20.9670 C   0  0  0  0  0  0  0  0  0  0  0  0
  -24.3990   -9.4900   21.8990 C   0  0  0  0  0  3  0  0  0  0  0  0
  -23.6670   -8.2970   22.1050 C   0  0  0  0  0  3  0  0  0  0  0  0
  -22.4730   -8.0620   21.3800 C   0  0  0  0  0  0  0  0  0  0  0  0
  -22.0400   -9.0170   20.4420 C   0  0  0  0  0  3  0  0  0  0  0  0
  -22.7710  -10.1980   20.2330 C   0  0  0  0  0  3  0  0  0  0  0  0
  -21.7140   -6.9220   21.4910 O   0  0  0  0  0  0  0  0  0  0  0  0
  -21.6570   -6.2080   22.6610 C   0  0  0  0  0  0  0  0  0  0  0  0
  -21.2380   -6.7990   23.8750 C   0  0  0  0  0  3  0  0  0  0  0  0
  -21.1280   -6.0140   25.0380 C   0  0  0  0  0  3  0  0  0  0  0  0
  -21.4240   -4.6370   24.9940 C   0  0  0  0  0  0  0  0  0  0  0  0
  -21.8410   -4.0470   23.7850 C   0  0  0  0  0  3  0  0  0  0  0  0
  -21.9560   -4.8290   22.6220 C   0  0  0  0  0  0  0  0  0  0  0  0
  -22.3350   -4.2540   21.4560 F   0  0  0  0  0  0  0  0  0  0  0  0
  -21.3150   -3.8800   26.1100 F   0  0  0  0  0  0  0  0  0  0  0  0
  -22.8680  -13.5640   21.1560 C   0  0  0  0  0  0  0  0  0  0  0  0
  -22.1670  -12.8810   22.0580 N   0  0  0  0  0  0  0  0  0  0  0  0
  -22.4180  -14.5980   20.6600 O   0  0  0  0  0  0  0  0  0  0  0  0
  -22.5380  -12.0560   22.5040 H   0  0  0  0  0  0  0  0  0  0  0  0
  -21.2440  -13.2080   22.3140 H   0  0  0  0  0  0  0  0  0  0  0  0
  -25.4830  -15.1960   20.2280 N   0  0  0  0  0  0  0  0  0  0  0  0
  -24.7280  -15.8630   20.3440 H   0  0  0  0  0  0  0  0  0  0  0  0
  -26.3250  -15.6170   19.8560 H   0  0  0  0  0  0  0  0  0  0  0  0
  -29.3510  -22.7500   20.1240 N   0  0  0  0  0  4  0  0  0  0  0  0
  -30.1420  -22.7660   20.7570 H   0  0  0  0  0  0  0  0  0  0  0  0
  -29.7510  -22.8690   19.2030 H   0  0  0  0  0  0  0  0  0  0  0  0
  -28.5440  -23.9840   20.5080 C   0  0  0  0  0  2  0  0  0  0  0  0
  -28.7210  -25.2280   19.5500 C   0  0  0  0  0  2  0  0  0  0  0  0
  -28.5320  -26.5740   20.0990 O   0  0  0  0  0  0  0  0  0  0  0  0
  -24.5500  -31.7040   23.1040 C   0  0  0  0  0  0  0  0  0  0  0  0
  -27.3340  -27.2850   20.0330 C   0  0  0  0  0  0  0  0  0  0  0  0
  -23.3990  -30.2890   21.4320 C   0  0  0  0  0  3  0  0  0  0  0  0
  -24.9060  -28.7820   20.0130 C   0  0  0  0  0  0  0  0  0  0  0  0
  -25.9240  -30.6860   21.2780 C   0  0  0  0  0  2  0  0  0  0  0  0
  -26.0460  -29.3150   20.6270 C   0  0  0  0  0  0  0  0  0  0  0  0
  -27.2530  -28.5710   20.6350 C   0  0  0  0  0  3  0  0  0  0  0  0
  -26.1720  -26.7780   19.4100 C   0  0  0  0  0  3  0  0  0  0  0  0
  -24.9680  -27.5170   19.4020 C   0  0  0  0  0  3  0  0  0  0  0  0
  -23.6450  -29.6210   20.0520 C   0  0  0  0  0  2  0  0  0  0  0  0
  -24.6420  -30.9110   21.9940 N   0  0  0  0  0  0  0  0  0  0  0  0
  -23.4560  -31.9440   23.6320 O   0  0  0  0  0  0  0  0  0  0  0  0
  -22.7560  -29.2480   22.3800 C   0  0  0  0  0  0  0  0  0  0  0  0
  -21.4340  -29.0490   22.2500 N   0  0  0  0  0  0  0  0  0  0  0  0
  -23.4460  -28.6200   23.1870 O   0  0  0  0  0  0  0  0  0  0  0  0
  -20.9340  -29.6160   21.5780 H   0  0  0  0  0  0  0  0  0  0  0  0
  -18.0770  -27.8000   22.7290 C   0  0  0  0  0  0  0  0  0  0  0  0
  -20.6300  -28.0850   23.0060 C   0  0  0  0  0  3  0  0  0  0  0  0
  -20.7490  -26.6660   22.4030 C   0  0  0  0  0  2  0  0  0  0  0  0
  -19.6500  -26.3490   21.3820 C   0  0  0  0  0  2  0  0  0  0  0  0
  -18.2680  -26.4660   22.0300 C   0  0  0  0  0  2  0  0  0  0  0  0
  -19.1860  -28.5690   23.1730 C   0  0  0  0  0  0  0  0  0  0  0  0
  -18.9520  -29.8180   23.7860 C   0  0  0  0  0  3  0  0  0  0  0  0
  -17.6400  -30.3000   23.9620 C   0  0  0  0  0  3  0  0  0  0  0  0
  -16.5460  -29.5280   23.5340 C   0  0  0  0  0  3  0  0  0  0  0  0
  -16.7650  -28.2820   22.9230 C   0  0  0  0  0  3  0  0  0  0  0  0
  -25.8100  -32.3620   23.7480 C   0  0  0  0  0  3  0  0  0  0  0  0
  -26.3400  -31.5860   25.0170 C   0  0  1  0  0  0  0  0  0  0  0  0
  -25.2500  -31.3100   26.0790 C   0  0  0  0  0  1  0  0  0  0  0  0
  -26.9560  -30.2280   24.6070 C   0  0  0  0  0  1  0  0  0  0  0  0
  -27.4650  -32.4020   25.6970 C   0  0  0  0  0  1  0  0  0  0  0  0
  -25.4560  -33.7440   24.1000 N   0  0  0  0  0  0  0  0  0  0  0  0
  -25.7520  -34.8200   23.3590 C   0  0  0  0  0  0  0  0  0  0  0  0
  -26.4200  -34.7550   22.3220 O   0  0  0  0  0  0  0  0  0  0  0  0
  -24.8570  -33.8650   24.9030 H   0  0  0  0  0  0  0  0  0  0  0  0
  -23.9590  -36.5570   23.0540 C   0  0  0  0  0  1  0  0  0  0  0  0
  -25.2240  -36.1830   23.8430 C   0  0  0  0  0  3  0  0  0  0  0  0
  -27.3420  -37.1270   24.6550 C   0  0  0  0  0  1  0  0  0  0  0  0
  -26.2170  -37.2740   23.7350 N   0  0  0  0  0  0  0  0  0  0  0  0
  -25.7820  -38.1770   23.9060 H   0  0  0  0  0  0  0  0  0  0  0  0
  2  1  1  0
  3  5  1  0
  3  7  1  0
  4  6  1  0
  5  8  1  0
  7  2  1  0
  7  4  1  0
  8 17  1  0
  8  6  1  0
  9 17  1  0
 10 15  1  0
 11 12  1  0
 11 10  1  0
 13 12  1  0
 13 22  1  0
 13 14  1  0
 15  9  1  0
 15 14  1  0
 16  9  2  0
 17 18  1  0
 19 20  2  0
 20 39  1  0
 21 20  1  0
 21 24  1  0
 22 23  1  0
 22 19  1  0
 23 21  2  0
 24 25  1  0
 25 26  2  0
 27 30  1  0
 27 26  1  0
 28 27  2  0
 29 28  1  0
 29 24  2  0
 30 31  1  0
 31 32  1  0
 32 33  2  0
 34 33  1  0
 34 38  1  0
 35 34  2  0
 36 31  2  0
 36 35  1  0
 37 36  1  0
 39 40  1  0
 40 43  1  0
 40 42  1  0
 41 39  2  0
 44 45  1  0
 44 19  1  0
 46 44  1  0
 47  2  1  0
 47 50  1  0
 47 48  1  0
 49 47  1  0
 51 52  1  0
 51 50  1  0
 53 64  2  0
 54 52  1  0
 54 59  1  0
 55 63  1  0
 55 65  1  0
 56 62  1  0
 56 58  1  0
 57 63  1  0
 58 59  2  0
 58 57  1  0
 60 54  2  0
 61 60  1  0
 61 56  2  0
 62 55  1  0
 63 53  1  0
 65 67  2  0
 66 65  1  0
 68 66  1  0
 69 78  2  0
 69 74  1  0
 70 66  1  0
 70 74  1  0
 71 70  1  0
 72 73  1  0
 72 71  1  0
 73 69  1  0
 74 75  2  0
 75 76  1  0
 77 76  2  0
 78 77  1  0
 79 53  1  0
 79 84  1  0
 79 80  1  0
 80 83  1  1
 80 81  1  0
 82 80  1  0
 84 87  1  0
 85 89  1  0
 85 84  1  0
 86 85  2  0
 89 88  1  0
 91 89  1  0
 91 92  1  0
 91 90  1  0
M  ISO  4   9 100  17 100  51 101  52 101
M  END
>  <TORSDO>  (51) 
F 20

>  <SCORE>  (51) 
-13.303

>  <name>  (51) 
50

>  <ligand_id>  (51) 
50

>  <original_smiles>  (51) 
[H]c1c([H])c([H])c2c(c1[H])C([H])([H])C([H])([H])C([H])([H])C2([H])N([H])C(=O)C1([H])N(C(=O)C([H])(N([H])C(=O)C([H])(N([H])C([H])([H])[H])C([H])([H])[H])C(C([H])([H])[H])(C([H])([H])[H])C([H])([H])[H])C([H])([H])c2c([H])c(OC([H])([H])C([H])([H])[N+]([H])([H])C([H])(C([H])([H])[H])C3([H])C([H])([H])C([H])([H])C([H])(N([H])C(=O)N4C([H])([H])C([H])([H])C([H])([H])C([H])(n5nc(-c6c([H])c([H])c(Oc7c([H])c([H])c(F)c([H])c7F)c([H])c6[H])c(C(=O)N([H])[H])c5N([H])[H])C4([H])[H])C([H])([H])C3([H])[H])c([H])c([H])c2C1([H])[H]

>  <smiles>  (51) 
[H]c1c([H])c([H])c2c(c1[H])C([H])([H])C([H])([H])C([H])([H])C2([H])N([H])C(=O)C1([H])N(C(=O)C([H])(N([H])C(=O)C([H])(N([H])C([H])([H])[H])C([H])([H])[H])C(C([H])([H])[H])(C([H])([H])[H])C([H])([H])[H])C([H])([H])c2c([H])c(OC([H])([H])C([H])([H])[N+]([H])([H])C([H])(C([H])([H])[H])C3([H])C([H])([H])C([H])([H])C([H])(N([H])C(=O)N4C([H])([H])C([H])([H])C([H])([H])C([H])(n5nc(-c6c([H])c([H])c(Oc7c([H])c([H])c(F)c([H])c7F)c([H])c6[H])c(C(=O)N([H])[H])c5N([H])[H])C4([H])[H])C([H])([H])C3([H])[H])c([H])c([H])c2C1([H])[H]

$$$$
51:0:0
     RDKit          3D

 98107  0  0  1  0  0  0  0  0999 V2000
  -27.7600  -22.4010   17.5320 C   0  0  0  0  0  3  0  0  0  0  0  0
  -28.9080  -21.9760   18.2520 C   0  0  0  0  0  3  0  0  0  0  0  0
  -27.2060  -23.7810   19.4070 C   0  0  0  0  0  0  0  0  0  0  0  0
  -28.5380  -23.7930   19.8320 C   0  0  0  0  0  0  0  0  0  0  0  0
  -26.7990  -23.2040   18.1900 C   0  0  0  0  0  0  0  0  0  0  0  0
  -29.2550  -22.5350   19.5200 C   0  0  0  0  0  0  0  0  0  0  0  0
  -27.2710  -24.8160   21.5930 C   0  0  0  0  0  2  0  0  0  0  0  0
  -26.2860  -24.2330   20.5270 C   0  0  0  0  0  3  0  0  0  0  0  0
  -28.6400  -25.0050   20.8670 C   0  0  0  0  0  3  0  0  0  0  0  0
  -25.5160  -23.0830   21.0350 N   0  0  0  0  0  4  0  0  0  0  0  0
  -26.1220  -22.3470   21.3480 H   0  0  0  0  0  0  0  0  0  0  0  0
  -24.9470  -22.7130   20.2940 H   0  0  0  0  0  0  0  0  0  0  0  0
  -24.9060  -23.3600   21.7840 H   0  0  0  0  0  0  0  0  0  0  0  0
  -25.0400  -22.6460   16.6430 C   0  0  0  0  0  1  0  0  0  0  0  0
  -25.5080  -23.4130   17.7500 O   0  0  0  0  0  0  0  0  0  0  0  0
  -28.8350  -26.4600   20.3510 O   0  0  0  0  0  0  0  0  0  0  0  0
  -24.7550  -31.7710   23.2980 C   0  0  0  0  0  0  0  0  0  0  0  0
  -27.7730  -27.4070   20.2470 C   0  0  0  0  0  0  0  0  0  0  0  0
  -23.7270  -30.3710   21.5430 C   0  0  0  0  0  3  0  0  0  0  0  0
  -25.3550  -28.9710   20.1290 C   0  0  0  0  0  0  0  0  0  0  0  0
  -26.2570  -30.8050   21.5370 C   0  0  0  0  0  2  0  0  0  0  0  0
  -26.4490  -29.4450   20.8650 C   0  0  0  0  0  0  0  0  0  0  0  0
  -27.6520  -28.6630   20.9420 C   0  0  0  0  0  3  0  0  0  0  0  0
  -26.7360  -27.1350   19.3410 C   0  0  0  0  0  3  0  0  0  0  0  0
  -25.5140  -27.8270   19.3370 C   0  0  0  0  0  3  0  0  0  0  0  0
  -24.0600  -29.7630   20.1520 C   0  0  0  0  0  2  0  0  0  0  0  0
  -24.9270  -31.0010   22.1830 N   0  0  0  0  0  0  0  0  0  0  0  0
  -23.6280  -31.9680   23.7770 O   0  0  0  0  0  0  0  0  0  0  0  0
  -23.0720  -29.2870   22.4310 C   0  0  0  0  0  0  0  0  0  0  0  0
  -21.7590  -29.0620   22.2520 N   0  0  0  0  0  0  0  0  0  0  0  0
  -23.7460  -28.6490   23.2450 O   0  0  0  0  0  0  0  0  0  0  0  0
  -21.2700  -29.6330   21.5770 H   0  0  0  0  0  0  0  0  0  0  0  0
  -18.4190  -27.7180   22.6050 C   0  0  0  0  0  0  0  0  0  0  0  0
  -20.9590  -28.0550   22.9490 C   0  0  0  0  0  3  0  0  0  0  0  0
  -21.1270  -26.6620   22.3020 C   0  0  0  0  0  2  0  0  0  0  0  0
  -20.0620  -26.3570   21.2460 C   0  0  0  0  0  2  0  0  0  0  0  0
  -18.6600  -26.4180   21.8600 C   0  0  0  0  0  2  0  0  0  0  0  0
  -19.4990  -28.4950   23.1060 C   0  0  0  0  0  0  0  0  0  0  0  0
  -19.2170  -29.7120   23.7630 C   0  0  0  0  0  3  0  0  0  0  0  0
  -17.8900  -30.1550   23.9200 C   0  0  0  0  0  3  0  0  0  0  0  0
  -16.8270  -29.3730   23.4360 C   0  0  0  0  0  3  0  0  0  0  0  0
  -17.0920  -28.1580   22.7830 C   0  0  0  0  0  3  0  0  0  0  0  0
  -25.9620  -32.4520   24.0140 C   0  0  0  0  0  3  0  0  0  0  0  0
  -25.5810  -33.8430   24.3110 N   0  0  0  0  0  0  0  0  0  0  0  0
  -25.9030  -34.8980   23.5540 C   0  0  0  0  0  0  0  0  0  0  0  0
  -26.6260  -34.8100   22.5600 O   0  0  0  0  0  0  0  0  0  0  0  0
  -24.9590  -33.9830   25.0920 H   0  0  0  0  0  0  0  0  0  0  0  0
  -24.1160  -36.6100   23.0990 C   0  0  0  0  0  1  0  0  0  0  0  0
  -25.3370  -36.2730   23.9660 C   0  0  0  0  0  3  0  0  0  0  0  0
  -27.3920  -37.2740   24.8600 C   0  0  0  0  0  1  0  0  0  0  0  0
  -26.3240  -37.3690   23.8700 N   0  0  0  0  0  0  0  0  0  0  0  0
  -25.8720  -38.2750   23.9690 H   0  0  0  0  0  0  0  0  0  0  0  0
  -26.4020  -31.7040   25.3330 C   0  0  1  0  0  0  0  0  0  0  0  0
  -25.2360  -31.4290   26.3100 C   0  0  0  0  0  1  0  0  0  0  0  0
  -27.0610  -30.3450   25.0000 C   0  0  0  0  0  1  0  0  0  0  0  0
  -27.4740  -32.5380   26.0720 C   0  0  0  0  0  1  0  0  0  0  0  0
  -30.0990  -21.7770   20.3910 O   0  0  0  0  0  0  0  0  0  0  0  0
  -30.6740  -20.4010   20.1090 C   0  0  0  0  0  3  0  0  0  0  0  0
  -30.0130  -18.9640   20.5300 C   0  0  0  0  0  3  0  0  0  0  0  0
  -30.9110  -17.5930   20.4400 C   0  0  0  0  0  2  0  0  0  0  0  0
  -31.0190  -14.9720   20.4710 C   0  0  0  0  0  0  0  0  0  0  0  0
  -30.7750  -12.6620   19.5470 C   0  0  0  0  0  2  0  0  0  0  0  0
  -29.8720  -12.7020   18.2980 C   0  0  0  0  0  2  0  0  0  0  0  0
  -28.4050  -12.5080   18.7060 C   0  0  0  0  0  2  0  0  0  0  0  0
  -27.9960  -13.4860   19.8380 C   0  0  0  0  0  3  0  0  0  0  0  0
  -29.0180  -13.4670   21.0030 C   0  0  0  0  0  2  0  0  0  0  0  0
  -30.3410  -13.7670   20.4420 N   0  0  0  0  0  0  0  0  0  0  0  0
  -32.2030  -14.9970   20.1320 O   0  0  0  0  0  0  0  0  0  0  0  0
  -30.3500  -16.1740   20.6810 N   0  0  0  0  0  0  0  0  0  0  0  0
  -29.4290  -16.1050   21.0880 H   0  0  0  0  0  0  0  0  0  0  0  0
  -25.6220  -14.1610   20.5220 C   0  0  0  0  0  0  0  0  0  0  0  0
  -24.5090  -13.4230   20.8300 C   0  0  0  0  0  0  0  0  0  0  0  0
  -24.9090  -12.0540   20.7580 C   0  0  0  0  0  0  0  0  0  0  0  0
  -26.6310  -13.2400   20.2880 N   0  0  0  0  0  0  0  0  0  0  0  0
  -26.2070  -11.9680   20.4920 N   0  0  0  0  0  0  0  0  0  0  0  0
  -24.1220  -10.8200   20.8740 C   0  0  0  0  0  0  0  0  0  0  0  0
  -24.4530   -9.8190   21.8130 C   0  0  0  0  0  3  0  0  0  0  0  0
  -23.6650   -8.6520   21.9230 C   0  0  0  0  0  3  0  0  0  0  0  0
  -22.5350   -8.4770   21.0910 C   0  0  0  0  0  0  0  0  0  0  0  0
  -22.2210   -9.4660   20.1420 C   0  0  0  0  0  3  0  0  0  0  0  0
  -23.0070  -10.6250   20.0310 C   0  0  0  0  0  3  0  0  0  0  0  0
  -21.7270   -7.3650   21.1070 O   0  0  0  0  0  0  0  0  0  0  0  0
  -21.5290   -6.6380   22.2510 C   0  0  0  0  0  0  0  0  0  0  0  0
  -20.9710   -7.2140   23.4140 C   0  0  0  0  0  3  0  0  0  0  0  0
  -20.7240   -6.4130   24.5470 C   0  0  0  0  0  3  0  0  0  0  0  0
  -21.0210   -5.0390   24.5160 C   0  0  0  0  0  0  0  0  0  0  0  0
  -21.5720   -4.4620   23.3580 C   0  0  0  0  0  3  0  0  0  0  0  0
  -21.8200   -5.2600   22.2270 C   0  0  0  0  0  0  0  0  0  0  0  0
  -22.3290   -4.6960   21.1060 F   0  0  0  0  0  0  0  0  0  0  0  0
  -20.7740   -4.2670   25.6020 F   0  0  0  0  0  0  0  0  0  0  0  0
  -23.1280  -13.9560   21.0760 C   0  0  0  0  0  0  0  0  0  0  0  0
  -22.3550  -13.2710   21.9150 N   0  0  0  0  0  0  0  0  0  0  0  0
  -22.7450  -15.0090   20.5700 O   0  0  0  0  0  0  0  0  0  0  0  0
  -22.6770  -12.4160   22.3490 H   0  0  0  0  0  0  0  0  0  0  0  0
  -21.4240  -13.6000   22.1240 H   0  0  0  0  0  0  0  0  0  0  0  0
  -25.8530  -15.5250   20.3910 N   0  0  0  0  0  0  0  0  0  0  0  0
  -25.1140  -16.2160   20.4650 H   0  0  0  0  0  0  0  0  0  0  0  0
  -26.7430  -15.9270   20.1210 H   0  0  0  0  0  0  0  0  0  0  0  0
  1  5  2  0
  1  2  1  0
  2  6  2  0
  3  4  2  0
  3  8  1  0
  4  9  1  0
  5  3  1  0
  6  4  1  0
  6 57  1  0
  8 10  1  0
  8  7  1  0
  9 16  1  0
  9  7  1  0
 10 11  1  0
 10 13  1  0
 12 10  1  0
 14 15  1  0
 15  5  1  0
 17 28  2  0
 18 16  1  0
 18 23  1  0
 19 27  1  0
 19 29  1  0
 20 26  1  0
 20 22  1  0
 21 27  1  0
 22 23  2  0
 22 21  1  0
 24 18  2  0
 25 24  1  0
 25 20  2  0
 26 19  1  0
 27 17  1  0
 29 31  2  0
 30 29  1  0
 32 30  1  0
 33 42  2  0
 33 38  1  0
 34 30  1  0
 34 38  1  0
 35 34  1  0
 36 37  1  0
 36 35  1  0
 37 33  1  0
 38 39  2  0
 39 40  1  0
 41 40  2  0
 42 41  1  0
 43 17  1  0
 43 44  1  0
 43 53  1  0
 44 47  1  0
 45 49  1  0
 45 44  1  0
 46 45  2  0
 49 48  1  0
 51 49  1  0
 51 52  1  0
 51 50  1  0
 53 56  1  1
 53 54  1  0
 55 53  1  0
 58 57  1  0
 58 59  2  0
 60 59  1  0
 60 69  1  0
 61 69  1  0
 62 67  1  0
 63 64  1  0
 63 62  1  0
 65 64  1  0
 65 74  1  0
 65 66  1  0
 67 61  1  0
 67 66  1  0
 68 61  2  0
 69 70  1  0
 71 72  2  0
 72 91  1  0
 73 72  1  0
 73 76  1  0
 74 75  1  0
 74 71  1  0
 75 73  2  0
 76 77  1  0
 77 78  2  0
 79 82  1  0
 79 78  1  0
 80 79  2  0
 81 80  1  0
 81 76  2  0
 82 83  1  0
 83 84  1  0
 84 85  2  0
 86 85  1  0
 86 90  1  0
 87 86  2  0
 88 83  2  0
 88 87  1  0
 89 88  1  0
 91 92  1  0
 92 95  1  0
 92 94  1  0
 93 91  2  0
 96 97  1  0
 96 71  1  0
 98 96  1  0
M  ISO  4   9 101  16 101  61 100  69 100
M  END
>  <TORSDO>  (52) 
F 22

>  <SCORE>  (52) 
-12.344

>  <name>  (52) 
51

>  <ligand_id>  (52) 
51

>  <original_smiles>  (52) 
[H]c1c([H])c([H])c2c(c1[H])C([H])([H])C([H])([H])C([H])([H])C2([H])N([H])C(=O)C1([H])N(C(=O)C([H])(N([H])C(=O)C([H])(N([H])C([H])([H])[H])C([H])([H])[H])C(C([H])([H])[H])(C([H])([H])[H])C([H])([H])[H])C([H])([H])c2c([H])c(OC3([H])c4c(OC([H])([H])C([H])([H])C([H])([H])N([H])C(=O)N5C([H])([H])C([H])([H])C([H])([H])C([H])(n6nc(-c7c([H])c([H])c(Oc8c([H])c([H])c(F)c([H])c8F)c([H])c7[H])c(C(=O)N([H])[H])c6N([H])[H])C5([H])[H])c([H])c([H])c(OC([H])([H])[H])c4C([H])([N+]([H])([H])[H])C3([H])[H])c([H])c([H])c2C1([H])[H]

>  <smiles>  (52) 
[H]c1c([H])c([H])c2c(c1[H])C([H])([H])C([H])([H])C([H])([H])C2([H])N([H])C(=O)C1([H])N(C(=O)C([H])(N([H])C(=O)C([H])(N([H])C([H])([H])[H])C([H])([H])[H])C(C([H])([H])[H])(C([H])([H])[H])C([H])([H])[H])C([H])([H])c2c([H])c(OC3([H])c4c(OC([H])([H])C([H])([H])C([H])([H])N([H])C(=O)N5C([H])([H])C([H])([H])C([H])([H])C([H])(n6nc(-c7c([H])c([H])c(Oc8c([H])c([H])c(F)c([H])c8F)c([H])c7[H])c(C(=O)N([H])[H])c6N([H])[H])C5([H])[H])c([H])c([H])c(OC([H])([H])[H])c4C([H])([N+]([H])([H])[H])C3([H])[H])c([H])c([H])c2C1([H])[H]

$$$$
52:0:0
     RDKit          3D

 88 96  0  0  1  0  0  0  0  0999 V2000
  -29.1880  -21.3990   21.1660 C   0  0  0  0  0  2  0  0  0  0  0  0
  -29.1360  -21.3180   18.8360 C   0  0  0  0  0  2  0  0  0  0  0  0
  -29.0280  -19.6840   21.2440 C   0  0  0  0  0  3  0  0  0  0  0  0
  -29.8340  -19.7500   18.9890 C   0  0  0  0  0  2  0  0  0  0  0  0
  -28.5890  -22.4130   19.9950 C   0  0  0  0  0  3  0  0  0  0  0  0
  -29.3660  -18.5830   20.0440 C   0  0  0  0  0  0  0  0  0  0  0  0
  -30.4160  -15.5850   19.9650 C   0  0  0  0  0  0  0  0  0  0  0  0
  -30.4510  -13.1000   19.0940 C   0  0  0  0  0  2  0  0  0  0  0  0
  -29.4820  -12.8140   17.9120 C   0  0  0  0  0  2  0  0  0  0  0  0
  -28.0670  -12.4910   18.4230 C   0  0  0  0  0  2  0  0  0  0  0  0
  -27.6390  -13.4530   19.5580 C   0  0  0  0  0  3  0  0  0  0  0  0
  -28.7370  -13.6460   20.6290 C   0  0  0  0  0  2  0  0  0  0  0  0
  -29.9020  -14.2360   19.9410 N   0  0  0  0  0  0  0  0  0  0  0  0
  -31.6240  -15.5970   19.6760 O   0  0  0  0  0  0  0  0  0  0  0  0
  -29.5930  -16.8520   20.1250 N   0  0  0  0  0  0  0  0  0  0  0  0
  -28.6880  -16.4820   20.3740 H   0  0  0  0  0  0  0  0  0  0  0  0
  -25.3170  -13.9830   20.4600 C   0  0  0  0  0  0  0  0  0  0  0  0
  -24.2750  -13.1930   20.8590 C   0  0  0  0  0  0  0  0  0  0  0  0
  -24.7400  -11.8440   20.7650 C   0  0  0  0  0  0  0  0  0  0  0  0
  -26.3440  -13.1160   20.1330 N   0  0  0  0  0  0  0  0  0  0  0  0
  -26.0140  -11.8230   20.3840 N   0  0  0  0  0  0  0  0  0  0  0  0
  -24.0220  -10.5770   20.9560 C   0  0  0  0  0  0  0  0  0  0  0  0
  -24.4750   -9.6020   21.8720 C   0  0  0  0  0  3  0  0  0  0  0  0
  -23.7530   -8.4010   22.0540 C   0  0  0  0  0  3  0  0  0  0  0  0
  -22.5670   -8.1680   21.3190 C   0  0  0  0  0  0  0  0  0  0  0  0
  -22.1320   -9.1340   20.3930 C   0  0  0  0  0  3  0  0  0  0  0  0
  -22.8540  -10.3240   20.2110 C   0  0  0  0  0  3  0  0  0  0  0  0
  -21.8160   -7.0220   21.4100 O   0  0  0  0  0  0  0  0  0  0  0  0
  -21.7610   -6.2870   22.5670 C   0  0  0  0  0  0  0  0  0  0  0  0
  -21.2760   -6.8350   23.7750 C   0  0  0  0  0  3  0  0  0  0  0  0
  -21.1710   -6.0250   24.9240 C   0  0  0  0  0  3  0  0  0  0  0  0
  -21.5420   -4.6680   24.8650 C   0  0  0  0  0  0  0  0  0  0  0  0
  -22.0190   -4.1200   23.6620 C   0  0  0  0  0  3  0  0  0  0  0  0
  -22.1250   -4.9270   22.5160 C   0  0  0  0  0  0  0  0  0  0  0  0
  -22.5660   -4.3870   21.3530 F   0  0  0  0  0  0  0  0  0  0  0  0
  -21.4320   -3.8880   25.9640 F   0  0  0  0  0  0  0  0  0  0  0  0
  -22.8940  -13.6630   21.2100 C   0  0  0  0  0  0  0  0  0  0  0  0
  -22.2080  -12.9470   22.0920 N   0  0  0  0  0  0  0  0  0  0  0  0
  -22.4360  -14.7030   20.7370 O   0  0  0  0  0  0  0  0  0  0  0  0
  -22.5910  -12.1080   22.5000 H   0  0  0  0  0  0  0  0  0  0  0  0
  -21.2850  -13.2500   22.3670 H   0  0  0  0  0  0  0  0  0  0  0  0
  -25.4680  -15.3590   20.3200 N   0  0  0  0  0  0  0  0  0  0  0  0
  -24.7060  -16.0010   20.5220 H   0  0  0  0  0  0  0  0  0  0  0  0
  -26.2830  -15.8230   19.9460 H   0  0  0  0  0  0  0  0  0  0  0  0
  -28.6610  -24.2980   19.7600 C   0  0  0  0  0  3  0  0  0  0  0  0
  -29.6040  -25.6900   17.7840 C   0  0  0  0  0  1  0  0  0  0  0  0
  -28.6290  -24.5830   18.2400 C   0  0  0  0  0  2  0  0  0  0  0  0
  -28.2730  -25.8490   20.3600 O   0  0  0  0  0  0  0  0  0  0  0  0
  -24.6450  -31.9200   23.1790 C   0  0  0  0  0  0  0  0  0  0  0  0
  -27.2450  -26.9600   20.1920 C   0  0  0  0  0  0  0  0  0  0  0  0
  -23.4610  -30.4970   21.5530 C   0  0  0  0  0  3  0  0  0  0  0  0
  -24.9240  -28.8750   20.1380 C   0  0  0  0  0  0  0  0  0  0  0  0
  -26.0290  -30.7050   21.4040 C   0  0  0  0  0  2  0  0  0  0  0  0
  -26.1100  -29.2820   20.7580 C   0  0  0  0  0  0  0  0  0  0  0  0
  -27.2530  -28.3450   20.7600 C   0  0  0  0  0  3  0  0  0  0  0  0
  -26.0210  -26.7280   19.5190 C   0  0  0  0  0  3  0  0  0  0  0  0
  -24.9090  -27.6210   19.4990 C   0  0  0  0  0  3  0  0  0  0  0  0
  -23.6960  -29.7900   20.1870 C   0  0  0  0  0  2  0  0  0  0  0  0
  -24.7350  -31.0710   22.0990 N   0  0  0  0  0  0  0  0  0  0  0  0
  -23.5530  -32.2040   23.6990 O   0  0  0  0  0  0  0  0  0  0  0  0
  -22.7700  -29.5150   22.5340 C   0  0  0  0  0  0  0  0  0  0  0  0
  -21.4390  -29.3390   22.4130 N   0  0  0  0  0  0  0  0  0  0  0  0
  -23.4390  -28.9080   23.3740 O   0  0  0  0  0  0  0  0  0  0  0  0
  -20.9510  -29.8690   21.7070 H   0  0  0  0  0  0  0  0  0  0  0  0
  -18.0740  -28.0940   22.9500 C   0  0  0  0  0  0  0  0  0  0  0  0
  -20.6300  -28.4000   23.1990 C   0  0  0  0  0  3  0  0  0  0  0  0
  -20.7490  -26.9630   22.6420 C   0  0  0  0  0  2  0  0  0  0  0  0
  -19.6480  -26.6110   21.6350 C   0  0  0  0  0  2  0  0  0  0  0  0
  -18.2660  -26.7430   22.2820 C   0  0  0  0  0  2  0  0  0  0  0  0
  -19.1820  -28.8780   23.3650 C   0  0  0  0  0  0  0  0  0  0  0  0
  -18.9460  -30.1360   23.9600 C   0  0  0  0  0  3  0  0  0  0  0  0
  -17.6330  -30.6170   24.1310 C   0  0  0  0  0  3  0  0  0  0  0  0
  -16.5390  -29.8320   23.7290 C   0  0  0  0  0  3  0  0  0  0  0  0
  -16.7600  -28.5710   23.1470 C   0  0  0  0  0  3  0  0  0  0  0  0
  -25.9050  -32.5860   23.8050 C   0  0  0  0  0  3  0  0  0  0  0  0
  -25.5680  -33.9840   24.1340 N   0  0  0  0  0  0  0  0  0  0  0  0
  -25.9020  -35.0500   23.3950 C   0  0  0  0  0  0  0  0  0  0  0  0
  -26.5820  -34.9620   22.3690 O   0  0  0  0  0  0  0  0  0  0  0  0
  -24.9600  -34.1240   24.9270 H   0  0  0  0  0  0  0  0  0  0  0  0
  -24.1820  -36.8540   23.0320 C   0  0  0  0  0  1  0  0  0  0  0  0
  -25.4050  -36.4370   23.8630 C   0  0  0  0  0  3  0  0  0  0  0  0
  -27.5150  -37.3180   24.7610 C   0  0  0  0  0  1  0  0  0  0  0  0
  -26.4410  -37.4920   23.7880 N   0  0  0  0  0  0  0  0  0  0  0  0
  -26.0300  -38.4100   23.9330 H   0  0  0  0  0  0  0  0  0  0  0  0
  -26.4210  -31.8400   25.0980 C   0  0  1  0  0  0  0  0  0  0  0  0
  -25.3230  -31.6010   26.1610 C   0  0  0  0  0  1  0  0  0  0  0  0
  -27.0270  -30.4660   24.7380 C   0  0  0  0  0  1  0  0  0  0  0  0
  -27.5530  -32.6610   25.7600 C   0  0  0  0  0  1  0  0  0  0  0  0
  1  3  1  0
  2  4  1  0
  2  5  1  0
  4  6  1  0
  5 45  1  0
  5  1  1  0
  6 15  1  0
  6  3  2  0
  7 15  1  0
  8 13  1  0
  9 10  1  0
  9  8  1  0
 11 10  1  0
 11 20  1  0
 11 12  1  0
 13  7  1  0
 13 12  1  0
 14  7  2  0
 15 16  1  0
 17 18  2  0
 18 37  1  0
 19 18  1  0
 19 22  1  0
 20 21  1  0
 20 17  1  0
 21 19  2  0
 22 23  1  0
 23 24  2  0
 25 28  1  0
 25 24  1  0
 26 25  2  0
 27 26  1  0
 27 22  2  0
 28 29  1  0
 29 30  1  0
 30 31  2  0
 32 31  1  0
 32 36  1  0
 33 32  2  0
 34 29  2  0
 34 33  1  0
 35 34  1  0
 37 38  1  0
 38 41  1  0
 38 40  1  0
 39 37  2  0
 42 17  1  0
 42 43  1  0
 44 42  1  0
 45 47  1  0
 45 48  1  0
 46 47  1  0
 49 60  2  0
 50 48  1  0
 50 55  1  0
 51 59  1  0
 51 61  1  0
 52 58  1  0
 52 54  1  0
 53 59  1  0
 54 55  2  0
 54 53  1  0
 56 50  2  0
 57 56  1  0
 57 52  2  0
 58 51  1  0
 59 49  1  0
 61 63  2  0
 62 61  1  0
 64 62  1  0
 65 74  2  0
 65 70  1  0
 66 62  1  0
 66 70  1  0
 67 66  1  0
 68 69  1  0
 68 67  1  0
 69 65  1  0
 70 71  2  0
 71 72  1  0
 73 72  2  0
 74 73  1  0
 75 49  1  0
 75 76  1  0
 75 85  1  0
 76 79  1  0
 77 81  1  0
 77 76  1  0
 78 77  2  0
 81 80  1  0
 83 81  1  0
 83 84  1  0
 83 82  1  0
 85 88  1  1
 85 86  1  0
 87 85  1  0
M  ISO  4   7 100  15 100  45 101  48 101
M  END
>  <TORSDO>  (53) 
F 18

>  <SCORE>  (53) 
-15.920

>  <name>  (53) 
52

>  <ligand_id>  (53) 
52

>  <original_smiles>  (53) 
[H]c1c([H])c([H])c2c(c1[H])C([H])([H])C([H])([H])C([H])([H])C2([H])N([H])C(=O)C1([H])N(C(=O)C([H])(N([H])C(=O)C([H])(N([H])C([H])([H])[H])C([H])([H])[H])C(C([H])([H])[H])(C([H])([H])[H])C([H])([H])[H])C([H])([H])c2c([H])c(OC([H])(C([H])([H])C([H])([H])[H])C3([H])C([H])([H])C([H])([H])C([H])(N([H])C(=O)N4C([H])([H])C([H])([H])C([H])([H])C([H])(n5nc(-c6c([H])c([H])c(Oc7c([H])c([H])c(F)c([H])c7F)c([H])c6[H])c(C(=O)N([H])[H])c5N([H])[H])C4([H])[H])C([H])([H])C3([H])[H])c([H])c([H])c2C1([H])[H]

>  <smiles>  (53) 
[H]c1c([H])c([H])c2c(c1[H])C([H])([H])C([H])([H])C([H])([H])C2([H])N([H])C(=O)C1([H])N(C(=O)C([H])(N([H])C(=O)C([H])(N([H])C([H])([H])[H])C([H])([H])[H])C(C([H])([H])[H])(C([H])([H])[H])C([H])([H])[H])C([H])([H])c2c([H])c(OC([H])(C([H])([H])C([H])([H])[H])C3([H])C([H])([H])C([H])([H])C([H])(N([H])C(=O)N4C([H])([H])C([H])([H])C([H])([H])C([H])(n5nc(-c6c([H])c([H])c(Oc7c([H])c([H])c(F)c([H])c7F)c([H])c6[H])c(C(=O)N([H])[H])c5N([H])[H])C4([H])[H])C([H])([H])C3([H])[H])c([H])c([H])c2C1([H])[H]

$$$$
53:0:0
     RDKit          3D

100109  0  0  1  0  0  0  0  0999 V2000
  -30.7470  -14.4920   20.5090 C   0  0  0  0  0  0  0  0  0  0  0  0
  -30.4630  -12.2490   19.5140 C   0  0  0  0  0  2  0  0  0  0  0  0
  -29.5620  -12.3300   18.2660 C   0  0  0  0  0  2  0  0  0  0  0  0
  -28.0770  -12.2060   18.6610 C   0  0  0  0  0  2  0  0  0  0  0  0
  -27.6880  -13.1620   19.8170 C   0  0  0  0  0  3  0  0  0  0  0  0
  -28.7040  -13.0730   20.9790 C   0  0  0  0  0  2  0  0  0  0  0  0
  -30.0500  -13.3230   20.4320 N   0  0  0  0  0  0  0  0  0  0  0  0
  -31.8870  -14.6250   20.0570 O   0  0  0  0  0  0  0  0  0  0  0  0
  -31.2440  -17.6320   21.9080 C   0  0  0  0  0  2  0  0  0  0  0  0
  -30.6970  -16.2270   22.2520 C   0  0  0  0  0  2  0  0  0  0  0  0
  -29.1480  -16.3520   20.3160 C   0  0  0  0  0  2  0  0  0  0  0  0
  -29.6680  -17.7730   19.9770 C   0  0  0  0  0  3  0  0  0  0  0  0
  -30.1680  -18.5020   21.2460 C   0  0  0  0  0  3  0  0  0  0  0  0
  -30.1130  -15.5390   21.0880 N   0  0  0  0  0  0  0  0  0  0  0  0
  -27.3360  -18.7610   19.6730 C   0  0  0  0  0  3  0  0  0  0  0  0
  -26.4150  -19.6180   19.0390 C   0  0  0  0  0  3  0  0  0  0  0  0
  -28.1030  -20.1980   17.3960 C   0  0  0  0  0  3  0  0  0  0  0  0
  -28.6580  -18.6230   19.1890 C   0  0  0  0  0  0  0  0  0  0  0  0
  -29.0360  -19.3460   18.0250 C   0  0  0  0  0  0  0  0  0  0  0  0
  -26.7990  -20.3600   17.8980 C   0  0  0  0  0  0  0  0  0  0  0  0
  -30.4370  -19.2570   17.4400 C   0  0  0  0  0  1  0  0  0  0  0  0
  -24.7270  -21.5770   17.8250 C   0  0  0  0  0  1  0  0  0  0  0  0
  -25.9830  -21.2530   17.2390 O   0  0  0  0  0  0  0  0  0  0  0  0
  -25.2940  -13.8540   20.4560 C   0  0  0  0  0  0  0  0  0  0  0  0
  -24.1970  -13.1180   20.8110 C   0  0  0  0  0  0  0  0  0  0  0  0
  -24.6240  -11.7540   20.8210 C   0  0  0  0  0  0  0  0  0  0  0  0
  -26.3190  -12.9400   20.2700 N   0  0  0  0  0  0  0  0  0  0  0  0
  -25.9190  -11.6740   20.5490 N   0  0  0  0  0  0  0  0  0  0  0  0
  -23.8640  -10.5150   21.0160 C   0  0  0  0  0  0  0  0  0  0  0  0
  -24.2710   -9.5410   21.9520 C   0  0  0  0  0  3  0  0  0  0  0  0
  -23.5160   -8.3640   22.1330 C   0  0  0  0  0  3  0  0  0  0  0  0
  -22.3380   -8.1530   21.3750 C   0  0  0  0  0  0  0  0  0  0  0  0
  -21.9510   -9.1160   20.4260 C   0  0  0  0  0  3  0  0  0  0  0  0
  -22.7060  -10.2850   20.2450 C   0  0  0  0  0  3  0  0  0  0  0  0
  -21.5540   -7.0290   21.4670 O   0  0  0  0  0  0  0  0  0  0  0  0
  -21.5040   -6.2780   22.6140 C   0  0  0  0  0  0  0  0  0  0  0  0
  -21.1320   -6.8390   23.8560 C   0  0  0  0  0  3  0  0  0  0  0  0
  -21.0250   -6.0160   24.9950 C   0  0  0  0  0  3  0  0  0  0  0  0
  -21.2800   -4.6360   24.8950 C   0  0  0  0  0  0  0  0  0  0  0  0
  -21.6470   -4.0760   23.6580 C   0  0  0  0  0  3  0  0  0  0  0  0
  -21.7560   -4.8960   22.5210 C   0  0  0  0  0  0  0  0  0  0  0  0
  -22.0880   -4.3470   21.3270 F   0  0  0  0  0  0  0  0  0  0  0  0
  -21.1710   -3.8440   25.9870 F   0  0  0  0  0  0  0  0  0  0  0  0
  -22.8050  -13.6350   21.0340 C   0  0  0  0  0  0  0  0  0  0  0  0
  -22.0400  -12.9780   21.9000 N   0  0  0  0  0  0  0  0  0  0  0  0
  -22.4050  -14.6570   20.4760 O   0  0  0  0  0  0  0  0  0  0  0  0
  -22.3750  -12.1520   22.3710 H   0  0  0  0  0  0  0  0  0  0  0  0
  -21.1040  -13.3060   22.0910 H   0  0  0  0  0  0  0  0  0  0  0  0
  -25.5000  -15.2150   20.2510 N   0  0  0  0  0  0  0  0  0  0  0  0
  -24.7440  -15.8880   20.3090 H   0  0  0  0  0  0  0  0  0  0  0  0
  -26.3610  -15.6170   19.9050 H   0  0  0  0  0  0  0  0  0  0  0  0
  -30.7230  -19.7850   20.9200 O   0  0  0  0  0  0  0  0  0  0  0  0
  -29.9270  -20.8990   21.3380 C   0  0  0  0  0  2  0  0  0  0  0  0
  -30.2740  -22.1840   20.5490 C   0  0  0  0  0  2  0  0  0  0  0  0
  -29.1930  -23.2030   20.6530 N   0  0  0  0  0  4  0  0  0  0  0  0
  -28.3710  -22.8240   20.2050 H   0  0  0  0  0  0  0  0  0  0  0  0
  -28.9640  -23.3360   21.6290 H   0  0  0  0  0  0  0  0  0  0  0  0
  -29.4740  -24.5370   20.0510 C   0  0  0  0  0  2  0  0  0  0  0  0
  -28.1630  -25.3140   19.7890 C   0  0  0  0  0  2  0  0  0  0  0  0
  -28.3370  -26.7300   19.6010 O   0  0  0  0  0  0  0  0  0  0  0  0
  -24.6240  -31.7280   23.0580 C   0  0  0  0  0  0  0  0  0  0  0  0
  -27.1680  -27.4690   19.6470 C   0  0  0  0  0  0  0  0  0  0  0  0
  -23.3680  -30.4180   21.3800 C   0  0  0  0  0  3  0  0  0  0  0  0
  -24.7760  -28.9750   19.8200 C   0  0  0  0  0  0  0  0  0  0  0  0
  -25.8850  -30.7950   21.1220 C   0  0  0  0  0  2  0  0  0  0  0  0
  -25.9530  -29.4660   20.3960 C   0  0  0  0  0  0  0  0  0  0  0  0
  -27.1540  -28.7240   20.3010 C   0  0  0  0  0  3  0  0  0  0  0  0
  -25.9650  -26.9960   19.0670 C   0  0  0  0  0  3  0  0  0  0  0  0
  -24.7770  -27.7410   19.1510 C   0  0  0  0  0  3  0  0  0  0  0  0
  -23.5330  -29.8250   19.9560 C   0  0  0  0  0  2  0  0  0  0  0  0
  -24.6460  -30.9910   21.9120 N   0  0  0  0  0  0  0  0  0  0  0  0
  -23.5600  -31.9700   23.6460 O   0  0  0  0  0  0  0  0  0  0  0  0
  -22.7490  -29.3390   22.2970 C   0  0  0  0  0  0  0  0  0  0  0  0
  -21.4170  -29.1760   22.2170 N   0  0  0  0  0  0  0  0  0  0  0  0
  -23.4600  -28.6570   23.0390 O   0  0  0  0  0  0  0  0  0  0  0  0
  -20.9020  -29.7820   21.5930 H   0  0  0  0  0  0  0  0  0  0  0  0
  -18.0570  -27.9820   22.7870 C   0  0  0  0  0  0  0  0  0  0  0  0
  -20.6260  -28.1970   22.9600 C   0  0  0  0  0  3  0  0  0  0  0  0
  -20.6850  -26.8050   22.2890 C   0  0  0  0  0  2  0  0  0  0  0  0
  -19.5360  -26.5610   21.3060 C   0  0  0  0  0  2  0  0  0  0  0  0
  -18.1860  -26.6780   22.0190 C   0  0  0  0  0  2  0  0  0  0  0  0
  -19.2020  -28.7030   23.2160 C   0  0  0  0  0  0  0  0  0  0  0  0
  -19.0280  -29.9290   23.8960 C   0  0  0  0  0  3  0  0  0  0  0  0
  -17.7380  -30.4320   24.1490 C   0  0  0  0  0  3  0  0  0  0  0  0
  -16.6070  -29.7050   23.7380 C   0  0  0  0  0  3  0  0  0  0  0  0
  -16.7670  -28.4820   23.0620 C   0  0  0  0  0  3  0  0  0  0  0  0
  -25.9300  -32.3240   23.6710 C   0  0  0  0  0  3  0  0  0  0  0  0
  -25.6290  -33.6920   24.1090 N   0  0  0  0  0  0  0  0  0  0  0  0
  -25.9170  -34.7950   23.4060 C   0  0  0  0  0  0  0  0  0  0  0  0
  -26.5350  -34.7670   22.3380 O   0  0  0  0  0  0  0  0  0  0  0  0
  -25.0730  -33.7920   24.9470 H   0  0  0  0  0  0  0  0  0  0  0  0
  -24.1500  -36.5790   23.2650 C   0  0  0  0  0  1  0  0  0  0  0  0
  -25.4400  -36.1430   23.9780 C   0  0  0  0  0  3  0  0  0  0  0  0
  -27.6090  -37.0030   24.7410 C   0  0  0  0  0  1  0  0  0  0  0  0
  -26.4520  -37.2170   23.8760 N   0  0  0  0  0  0  0  0  0  0  0  0
  -26.0430  -38.1180   24.1090 H   0  0  0  0  0  0  0  0  0  0  0  0
  -26.5070  -31.4680   24.8660 C   0  0  1  0  0  0  0  0  0  0  0  0
  -25.4620  -31.1510   25.9600 C   0  0  0  0  0  1  0  0  0  0  0  0
  -27.0750  -30.1250   24.3490 C   0  0  0  0  0  1  0  0  0  0  0  0
  -27.6850  -32.2200   25.5310 C   0  0  0  0  0  1  0  0  0  0  0  0
  1 14  1  0
  2  7  1  0
  3  4  1  0
  3  2  1  0
  5  4  1  0
  5 27  1  0
  5  6  1  0
  7  1  1  0
  7  6  1  0
  8  1  2  0
  9 10  1  0
 11 14  1  0
 12 18  1  0
 12 11  1  0
 12 13  1  0
 13 52  1  0
 13  9  1  0
 14 10  1  0
 16 15  2  0
 17 20  2  0
 17 19  1  0
 18 15  1  0
 19 18  2  0
 20 16  1  0
 21 19  1  0
 23 22  1  0
 23 20  1  0
 24 25  2  0
 25 26  1  0
 25 44  1  0
 26 29  1  0
 27 24  1  0
 27 28  1  0
 28 26  2  0
 29 30  1  0
 30 31  2  0
 32 35  1  0
 32 31  1  0
 33 32  2  0
 34 33  1  0
 34 29  2  0
 35 36  1  0
 36 37  1  0
 37 38  2  0
 39 38  1  0
 39 43  1  0
 40 39  2  0
 41 36  2  0
 41 40  1  0
 42 41  1  0
 44 45  1  0
 45 48  1  0
 45 47  1  0
 46 44  2  0
 49 50  1  0
 49 24  1  0
 51 49  1  0
 52 53  1  0
 54 55  1  0
 54 53  1  0
 55 57  1  0
 56 55  1  0
 58 55  1  0
 59 58  1  0
 60 62  1  0
 60 59  1  0
 61 72  2  0
 62 67  1  0
 63 71  1  0
 63 73  1  0
 64 70  1  0
 64 66  1  0
 65 71  1  0
 66 65  1  0
 67 66  2  0
 68 69  1  0
 68 62  2  0
 69 64  2  0
 70 63  1  0
 71 61  1  0
 73 75  2  0
 74 73  1  0
 76 74  1  0
 77 86  2  0
 77 82  1  0
 78 74  1  0
 78 82  1  0
 79 78  1  0
 80 81  1  0
 80 79  1  0
 81 77  1  0
 82 83  2  0
 83 84  1  0
 85 84  2  0
 86 85  1  0
 87 61  1  0
 87 88  1  0
 87 97  1  0
 88 91  1  0
 89 93  1  0
 89 88  1  0
 90 89  2  0
 93 92  1  0
 95 93  1  0
 95 96  1  0
 95 94  1  0
 97100  1  1
 97 98  1  0
 99 97  1  0
M  ISO  4   1 100  14 100  59 101  60 101
M  END
>  <TORSDO>  (54) 
F 23

>  <SCORE>  (54) 
-12.825

>  <name>  (54) 
53

>  <ligand_id>  (54) 
53

>  <original_smiles>  (54) 
[H]c1c([H])c([H])c2c(c1[H])C([H])([H])C([H])([H])C([H])([H])C2([H])N([H])C(=O)C1([H])N(C(=O)C([H])(N([H])C(=O)C([H])(N([H])C([H])([H])[H])C([H])([H])[H])C(C([H])([H])[H])(C([H])([H])[H])C([H])([H])[H])C([H])([H])c2c([H])c(OC([H])([H])C([H])([H])[N+]([H])([H])C([H])([H])C([H])([H])OC3([H])C([H])([H])C([H])([H])N(C(=O)N4C([H])([H])C([H])([H])C([H])([H])C([H])(n5nc(-c6c([H])c([H])c(Oc7c([H])c([H])c(F)c([H])c7F)c([H])c6[H])c(C(=O)N([H])[H])c5N([H])[H])C4([H])[H])C([H])([H])C3([H])c3c([H])c([H])c(OC([H])([H])[H])c([H])c3C([H])([H])[H])c([H])c([H])c2C1([H])[H]

>  <smiles>  (54) 
[H]c1c([H])c([H])c2c(c1[H])C([H])([H])C([H])([H])C([H])([H])C2([H])N([H])C(=O)C1([H])N(C(=O)C([H])(N([H])C(=O)C([H])(N([H])C([H])([H])[H])C([H])([H])[H])C(C([H])([H])[H])(C([H])([H])[H])C([H])([H])[H])C([H])([H])c2c([H])c(OC([H])([H])C([H])([H])[N+]([H])([H])C([H])([H])C([H])([H])OC3([H])C([H])([H])C([H])([H])N(C(=O)N4C([H])([H])C([H])([H])C([H])([H])C([H])(n5nc(-c6c([H])c([H])c(Oc7c([H])c([H])c(F)c([H])c7F)c([H])c6[H])c(C(=O)N([H])[H])c5N([H])[H])C4([H])[H])C([H])([H])C3([H])c3c([H])c([H])c(OC([H])([H])[H])c([H])c3C([H])([H])[H])c([H])c([H])c2C1([H])[H]

$$$$
54:0:0
     RDKit          3D

 89 98  0  0  1  0  0  0  0  0999 V2000
  -30.5950  -21.7230   18.7260 C   0  0  0  0  0  3  0  0  0  0  0  0
  -29.7850  -22.8130   19.1460 C   0  0  0  0  0  3  0  0  0  0  0  0
  -28.6870  -21.2090   20.6070 C   0  0  0  0  0  3  0  0  0  0  0  0
  -30.4710  -20.3990   19.2290 C   0  0  0  0  0  0  0  0  0  0  0  0
  -29.5030  -19.9660   20.1470 C   0  0  0  0  0  0  0  0  0  0  0  0
  -28.7860  -22.6980   20.1360 C   0  0  0  0  0  0  0  0  0  0  0  0
  -31.5390  -19.3600   19.0250 C   0  0  0  0  0  2  0  0  0  0  0  0
  -31.4710  -18.5030   20.3010 C   0  0  0  0  0  2  0  0  0  0  0  0
  -29.9740  -18.3300   20.6650 C   0  0  0  0  0  3  0  0  0  0  0  0
  -30.3610  -15.3630   20.2840 C   0  0  0  0  0  0  0  0  0  0  0  0
  -30.3260  -12.9100   19.3880 C   0  0  0  0  0  2  0  0  0  0  0  0
  -29.4150  -12.6570   18.1620 C   0  0  0  0  0  2  0  0  0  0  0  0
  -27.9720  -12.3700   18.6080 C   0  0  0  0  0  2  0  0  0  0  0  0
  -27.5060  -13.3440   19.7180 C   0  0  0  0  0  3  0  0  0  0  0  0
  -28.5510  -13.5390   20.8360 C   0  0  0  0  0  2  0  0  0  0  0  0
  -29.7630  -14.0670   20.1850 N   0  0  0  0  0  0  0  0  0  0  0  0
  -31.5920  -15.2820   20.1500 O   0  0  0  0  0  0  0  0  0  0  0  0
  -29.6510  -16.6930   20.3350 N   0  0  0  0  0  0  0  0  0  0  0  0
  -28.6550  -16.5400   20.2830 H   0  0  0  0  0  0  0  0  0  0  0  0
  -25.1330  -13.8870   20.4640 C   0  0  0  0  0  0  0  0  0  0  0  0
  -24.0750  -13.1050   20.8310 C   0  0  0  0  0  0  0  0  0  0  0  0
  -24.5520  -11.7580   20.8120 C   0  0  0  0  0  0  0  0  0  0  0  0
  -26.1830  -13.0190   20.2300 N   0  0  0  0  0  0  0  0  0  0  0  0
  -25.8470  -11.7310   20.5110 N   0  0  0  0  0  0  0  0  0  0  0  0
  -23.8320  -10.4920   21.0050 C   0  0  0  0  0  0  0  0  0  0  0  0
  -24.2580   -9.5350   21.9520 C   0  0  0  0  0  3  0  0  0  0  0  0
  -23.5340   -8.3360   22.1340 C   0  0  0  0  0  3  0  0  0  0  0  0
  -22.3700   -8.0860   21.3690 C   0  0  0  0  0  0  0  0  0  0  0  0
  -21.9630   -9.0320   20.4120 C   0  0  0  0  0  3  0  0  0  0  0  0
  -22.6870  -10.2220   20.2280 C   0  0  0  0  0  3  0  0  0  0  0  0
  -21.6200   -6.9390   21.4600 O   0  0  0  0  0  0  0  0  0  0  0  0
  -21.5590   -6.2080   22.6200 C   0  0  0  0  0  0  0  0  0  0  0  0
  -21.0950   -6.7690   23.8300 C   0  0  0  0  0  3  0  0  0  0  0  0
  -20.9830   -5.9630   24.9810 C   0  0  0  0  0  3  0  0  0  0  0  0
  -21.3250   -4.5990   24.9230 C   0  0  0  0  0  0  0  0  0  0  0  0
  -21.7810   -4.0380   23.7180 C   0  0  0  0  0  3  0  0  0  0  0  0
  -21.8940   -4.8400   22.5680 C   0  0  0  0  0  0  0  0  0  0  0  0
  -22.3150   -4.2900   21.4040 F   0  0  0  0  0  0  0  0  0  0  0  0
  -21.2100   -3.8230   26.0260 F   0  0  0  0  0  0  0  0  0  0  0  0
  -22.6710  -13.5740   21.0820 C   0  0  0  0  0  0  0  0  0  0  0  0
  -21.9430  -12.8880   21.9520 N   0  0  0  0  0  0  0  0  0  0  0  0
  -22.2320  -14.5880   20.5400 O   0  0  0  0  0  0  0  0  0  0  0  0
  -22.3120  -12.0680   22.4120 H   0  0  0  0  0  0  0  0  0  0  0  0
  -21.0010  -13.1840   22.1640 H   0  0  0  0  0  0  0  0  0  0  0  0
  -25.2840  -15.2580   20.2760 N   0  0  0  0  0  0  0  0  0  0  0  0
  -24.5070  -15.9030   20.3750 H   0  0  0  0  0  0  0  0  0  0  0  0
  -26.1210  -15.7010   19.9210 H   0  0  0  0  0  0  0  0  0  0  0  0
  -27.8870  -24.1790   20.4830 C   0  0  0  0  0  2  0  0  0  0  0  0
  -28.1820  -25.8100   20.2810 O   0  0  0  0  0  0  0  0  0  0  0  0
  -24.6330  -31.8630   23.2350 C   0  0  0  0  0  0  0  0  0  0  0  0
  -27.1780  -26.9290   20.2580 C   0  0  0  0  0  0  0  0  0  0  0  0
  -23.4370  -30.4560   21.6090 C   0  0  0  0  0  3  0  0  0  0  0  0
  -24.8830  -28.8350   20.1990 C   0  0  0  0  0  0  0  0  0  0  0  0
  -26.0060  -30.6570   21.4590 C   0  0  0  0  0  2  0  0  0  0  0  0
  -26.0750  -29.2370   20.8150 C   0  0  0  0  0  0  0  0  0  0  0  0
  -27.2180  -28.3090   20.8130 C   0  0  0  0  0  3  0  0  0  0  0  0
  -25.9530  -26.6910   19.5930 C   0  0  0  0  0  3  0  0  0  0  0  0
  -24.8490  -27.5820   19.5680 C   0  0  0  0  0  3  0  0  0  0  0  0
  -23.6670  -29.7610   20.2390 C   0  0  0  0  0  2  0  0  0  0  0  0
  -24.7140  -31.0200   22.1540 N   0  0  0  0  0  0  0  0  0  0  0  0
  -23.5440  -32.1580   23.7540 O   0  0  0  0  0  0  0  0  0  0  0  0
  -22.7410  -29.4690   22.5830 C   0  0  0  0  0  0  0  0  0  0  0  0
  -21.4120  -29.3020   22.4590 N   0  0  0  0  0  0  0  0  0  0  0  0
  -23.4070  -28.8540   23.4200 O   0  0  0  0  0  0  0  0  0  0  0  0
  -20.9270  -29.8490   21.7610 H   0  0  0  0  0  0  0  0  0  0  0  0
  -18.0310  -28.0810   22.9700 C   0  0  0  0  0  0  0  0  0  0  0  0
  -20.5890  -28.3680   23.2380 C   0  0  0  0  0  3  0  0  0  0  0  0
  -20.7020  -26.9300   22.6820 C   0  0  0  0  0  2  0  0  0  0  0  0
  -19.6040  -26.5880   21.6680 C   0  0  0  0  0  2  0  0  0  0  0  0
  -18.2200  -26.7280   22.3060 C   0  0  0  0  0  2  0  0  0  0  0  0
  -19.1440  -28.8580   23.3940 C   0  0  0  0  0  0  0  0  0  0  0  0
  -18.9110  -30.1220   23.9790 C   0  0  0  0  0  3  0  0  0  0  0  0
  -17.6010  -30.6090   24.1430 C   0  0  0  0  0  3  0  0  0  0  0  0
  -16.5040  -29.8310   23.7340 C   0  0  0  0  0  3  0  0  0  0  0  0
  -16.7210  -28.5680   23.1540 C   0  0  0  0  0  3  0  0  0  0  0  0
  -25.9030  -32.5120   23.8620 C   0  0  0  0  0  3  0  0  0  0  0  0
  -25.5820  -33.9130   24.1940 N   0  0  0  0  0  0  0  0  0  0  0  0
  -25.8920  -34.9730   23.4360 C   0  0  0  0  0  0  0  0  0  0  0  0
  -26.5410  -34.8770   22.3920 O   0  0  0  0  0  0  0  0  0  0  0  0
  -25.0020  -34.0600   25.0070 H   0  0  0  0  0  0  0  0  0  0  0  0
  -24.1420  -36.7590   23.1390 C   0  0  0  0  0  1  0  0  0  0  0  0
  -25.4100  -36.3610   23.9100 C   0  0  0  0  0  3  0  0  0  0  0  0
  -27.5600  -37.2680   24.6780 C   0  0  0  0  0  1  0  0  0  0  0  0
  -26.4310  -37.4220   23.7640 N   0  0  0  0  0  0  0  0  0  0  0  0
  -26.0210  -38.3390   23.9190 H   0  0  0  0  0  0  0  0  0  0  0  0
  -26.4120  -31.7550   25.1500 C   0  0  1  0  0  0  0  0  0  0  0  0
  -25.3140  -31.5290   26.2170 C   0  0  0  0  0  1  0  0  0  0  0  0
  -26.9970  -30.3720   24.7840 C   0  0  0  0  0  1  0  0  0  0  0  0
  -27.5590  -32.5560   25.8090 C   0  0  0  0  0  1  0  0  0  0  0  0
  1  2  2  0
  1  4  1  0
  2  6  1  0
  4  5  2  0
  5  3  1  0
  5  9  1  0
  6 48  1  0
  6  3  2  0
  7  4  1  0
  7  8  1  0
  8  9  1  0
  9 18  1  0
 10 18  1  0
 11 16  1  0
 12 13  1  0
 12 11  1  0
 14 13  1  0
 14 23  1  0
 14 15  1  0
 16 10  1  0
 16 15  1  0
 17 10  2  0
 19 18  1  0
 20 21  2  0
 21 40  1  0
 22 21  1  0
 22 25  1  0
 23 20  1  0
 23 24  1  0
 24 22  2  0
 25 26  1  0
 26 27  2  0
 28 31  1  0
 28 27  1  0
 29 28  2  0
 30 29  1  0
 30 25  2  0
 31 32  1  0
 32 33  1  0
 33 34  2  0
 35 34  1  0
 35 39  1  0
 36 35  2  0
 37 32  2  0
 37 36  1  0
 38 37  1  0
 40 41  1  0
 41 44  1  0
 41 43  1  0
 42 40  2  0
 45 46  1  0
 45 20  1  0
 47 45  1  0
 49 48  1  0
 50 61  2  0
 51 49  1  0
 51 56  1  0
 52 60  1  0
 52 62  1  0
 53 59  1  0
 53 55  1  0
 54 60  1  0
 55 54  1  0
 56 55  2  0
 57 51  2  0
 58 57  1  0
 58 53  2  0
 59 52  1  0
 60 50  1  0
 62 64  2  0
 63 62  1  0
 65 63  1  0
 66 75  2  0
 66 71  1  0
 67 63  1  0
 67 71  1  0
 68 67  1  0
 69 70  1  0
 69 68  1  0
 70 66  1  0
 71 72  2  0
 72 73  1  0
 74 73  2  0
 75 74  1  0
 76 50  1  0
 76 77  1  0
 76 86  1  0
 77 80  1  0
 78 82  1  0
 78 77  1  0
 79 78  2  0
 82 81  1  0
 84 82  1  0
 84 85  1  0
 84 83  1  0
 86 89  1  1
 86 87  1  0
 88 86  1  0
M  ISO  4  10 100  18 100  48 101  49 101
M  END
>  <TORSDO>  (55) 
F 17

>  <SCORE>  (55) 
-16.631

>  <name>  (55) 
54

>  <ligand_id>  (55) 
54

>  <original_smiles>  (55) 
[H]c1c([H])c([H])c2c(c1[H])C([H])([H])C([H])([H])C([H])([H])C2([H])N([H])C(=O)C1([H])N(C(=O)C([H])(N([H])C(=O)C([H])(N([H])C([H])([H])[H])C([H])([H])[H])C(C([H])([H])[H])(C([H])([H])[H])C([H])([H])[H])C([H])([H])c2c([H])c(OC([H])([H])c3c([H])c([H])c4c(c3[H])C([H])(N([H])C(=O)N3C([H])([H])C([H])([H])C([H])([H])C([H])(n5nc(-c6c([H])c([H])c(Oc7c([H])c([H])c(F)c([H])c7F)c([H])c6[H])c(C(=O)N([H])[H])c5N([H])[H])C3([H])[H])C([H])([H])C4([H])[H])c([H])c([H])c2C1([H])[H]

>  <smiles>  (55) 
[H]c1c([H])c([H])c2c(c1[H])C([H])([H])C([H])([H])C([H])([H])C2([H])N([H])C(=O)C1([H])N(C(=O)C([H])(N([H])C(=O)C([H])(N([H])C([H])([H])[H])C([H])([H])[H])C(C([H])([H])[H])(C([H])([H])[H])C([H])([H])[H])C([H])([H])c2c([H])c(OC([H])([H])c3c([H])c([H])c4c(c3[H])C([H])(N([H])C(=O)N3C([H])([H])C([H])([H])C([H])([H])C([H])(n5nc(-c6c([H])c([H])c(Oc7c([H])c([H])c(F)c([H])c7F)c([H])c6[H])c(C(=O)N([H])[H])c5N([H])[H])C3([H])[H])C([H])([H])C4([H])[H])c([H])c([H])c2C1([H])[H]

$$$$
55:0:0
     RDKit          3D

 96105  0  0  1  0  0  0  0  0999 V2000
  -30.6920  -14.7110   20.4170 C   0  0  0  0  0  0  0  0  0  0  0  0
  -30.4680  -12.4380   19.4290 C   0  0  0  0  0  2  0  0  0  0  0  0
  -29.5620  -12.5320   18.1830 C   0  0  0  0  0  2  0  0  0  0  0  0
  -28.0840  -12.3720   18.5840 C   0  0  0  0  0  2  0  0  0  0  0  0
  -27.6900  -13.2610   19.7940 C   0  0  0  0  0  3  0  0  0  0  0  0
  -28.7260  -13.1770   20.9360 C   0  0  0  0  0  2  0  0  0  0  0  0
  -30.0380  -13.5020   20.3640 N   0  0  0  0  0  0  0  0  0  0  0  0
  -31.8940  -14.7470   20.1360 O   0  0  0  0  0  0  0  0  0  0  0  0
  -29.3230  -18.3560   20.4870 C   0  0  0  0  0  3  0  0  0  0  0  0
  -30.8970  -19.9430   19.5930 C   0  0  0  0  0  3  0  0  0  0  0  0
  -29.6150  -19.7360   20.1340 C   0  0  0  0  0  0  0  0  0  0  0  0
  -30.2700  -17.2740   20.2930 C   0  0  0  0  0  0  0  0  0  0  0  0
  -31.7750  -18.8640   19.4410 C   0  0  0  0  0  0  0  0  0  0  0  0
  -31.4760  -17.5950   19.7740 N   0  0  0  0  0  0  0  0  0  0  0  0
  -29.9390  -15.8630   20.5930 N   0  0  0  0  0  0  0  0  0  0  0  0
  -28.9830  -15.6960   20.8600 H   0  0  0  0  0  0  0  0  0  0  0  0
  -25.2820  -13.8450   20.4580 C   0  0  0  0  0  0  0  0  0  0  0  0
  -24.2140  -13.0680   20.8170 C   0  0  0  0  0  0  0  0  0  0  0  0
  -24.6880  -11.7210   20.8180 C   0  0  0  0  0  0  0  0  0  0  0  0
  -26.3380  -12.9710   20.2600 N   0  0  0  0  0  0  0  0  0  0  0  0
  -25.9860  -11.6900   20.5400 N   0  0  0  0  0  0  0  0  0  0  0  0
  -23.9660  -10.4560   21.0120 C   0  0  0  0  0  0  0  0  0  0  0  0
  -24.3880   -9.5030   21.9640 C   0  0  0  0  0  3  0  0  0  0  0  0
  -23.6660   -8.3030   22.1470 C   0  0  0  0  0  3  0  0  0  0  0  0
  -22.5070   -8.0500   21.3750 C   0  0  0  0  0  0  0  0  0  0  0  0
  -22.1030   -8.9920   20.4130 C   0  0  0  0  0  3  0  0  0  0  0  0
  -22.8270  -10.1830   20.2290 C   0  0  0  0  0  3  0  0  0  0  0  0
  -21.7570   -6.9030   21.4640 O   0  0  0  0  0  0  0  0  0  0  0  0
  -21.6970   -6.1690   22.6220 C   0  0  0  0  0  0  0  0  0  0  0  0
  -21.2360   -6.7290   23.8340 C   0  0  0  0  0  3  0  0  0  0  0  0
  -21.1250   -5.9220   24.9840 C   0  0  0  0  0  3  0  0  0  0  0  0
  -21.4650   -4.5580   24.9230 C   0  0  0  0  0  0  0  0  0  0  0  0
  -21.9180   -3.9970   23.7150 C   0  0  0  0  0  3  0  0  0  0  0  0
  -22.0300   -4.8010   22.5680 C   0  0  0  0  0  0  0  0  0  0  0  0
  -22.4480   -4.2530   21.4020 F   0  0  0  0  0  0  0  0  0  0  0  0
  -21.3510   -3.7800   26.0250 F   0  0  0  0  0  0  0  0  0  0  0  0
  -22.8070  -13.5380   21.0460 C   0  0  0  0  0  0  0  0  0  0  0  0
  -22.0680  -12.8560   21.9140 N   0  0  0  0  0  0  0  0  0  0  0  0
  -22.3730  -14.5480   20.4930 O   0  0  0  0  0  0  0  0  0  0  0  0
  -22.4330  -12.0390   22.3810 H   0  0  0  0  0  0  0  0  0  0  0  0
  -21.1240  -13.1540   22.1120 H   0  0  0  0  0  0  0  0  0  0  0  0
  -25.4370  -15.2140   20.2600 N   0  0  0  0  0  0  0  0  0  0  0  0
  -24.6530  -15.8550   20.3320 H   0  0  0  0  0  0  0  0  0  0  0  0
  -26.2730  -15.6560   19.9020 H   0  0  0  0  0  0  0  0  0  0  0  0
  -28.9970  -22.2800   20.1000 C   0  0  0  0  0  3  0  0  0  0  0  0
  -28.6490  -20.9380   20.2020 C   0  0  0  0  0  0  0  0  0  0  0  0
  -27.1900  -20.5200   20.3150 C   0  0  0  0  0  1  0  0  0  0  0  0
  -28.6040  -24.6870   19.1730 C   0  0  0  0  0  2  0  0  0  0  0  0
  -28.1320  -23.5660   19.9570 C   0  0  0  0  0  3  0  0  0  0  0  0
  -28.2550  -25.0270   20.6420 C   0  0  0  0  0  3  0  0  0  0  0  0
  -28.4110  -26.4740   20.2870 O   0  0  0  0  0  0  0  0  0  0  0  0
  -24.6430  -31.8980   23.2460 C   0  0  0  0  0  0  0  0  0  0  0  0
  -27.2910  -27.3250   20.2450 C   0  0  0  0  0  0  0  0  0  0  0  0
  -23.4700  -30.5190   21.5680 C   0  0  0  0  0  3  0  0  0  0  0  0
  -24.9430  -28.9590   20.1780 C   0  0  0  0  0  0  0  0  0  0  0  0
  -26.0160  -30.8190   21.4480 C   0  0  0  0  0  2  0  0  0  0  0  0
  -26.1030  -29.4410   20.7980 C   0  0  0  0  0  0  0  0  0  0  0  0
  -27.2840  -28.6400   20.8110 C   0  0  0  0  0  3  0  0  0  0  0  0
  -26.1050  -26.8900   19.6160 C   0  0  0  0  0  3  0  0  0  0  0  0
  -24.9470  -27.6900   19.5770 C   0  0  0  0  0  3  0  0  0  0  0  0
  -23.7140  -29.8450   20.1930 C   0  0  0  0  0  2  0  0  0  0  0  0
  -24.7280  -31.0960   22.1450 N   0  0  0  0  0  0  0  0  0  0  0  0
  -23.5480  -32.1820   23.7540 O   0  0  0  0  0  0  0  0  0  0  0  0
  -22.7740  -29.5040   22.5060 C   0  0  0  0  0  0  0  0  0  0  0  0
  -21.4450  -29.3630   22.3650 N   0  0  0  0  0  0  0  0  0  0  0  0
  -23.4290  -28.8470   23.3190 O   0  0  0  0  0  0  0  0  0  0  0  0
  -20.9790  -29.9450   21.6840 H   0  0  0  0  0  0  0  0  0  0  0  0
  -18.0250  -28.2940   22.8640 C   0  0  0  0  0  0  0  0  0  0  0  0
  -20.5950  -28.4340   23.1120 C   0  0  0  0  0  3  0  0  0  0  0  0
  -20.6280  -27.0210   22.4850 C   0  0  0  0  0  2  0  0  0  0  0  0
  -19.5030  -26.7820   21.4740 C   0  0  0  0  0  2  0  0  0  0  0  0
  -18.1360  -26.9630   22.1410 C   0  0  0  0  0  2  0  0  0  0  0  0
  -19.1810  -28.9920   23.3060 C   0  0  0  0  0  0  0  0  0  0  0  0
  -19.0240  -30.2410   23.9460 C   0  0  0  0  0  3  0  0  0  0  0  0
  -17.7430  -30.7910   24.1470 C   0  0  0  0  0  3  0  0  0  0  0  0
  -16.6020  -30.0890   23.7200 C   0  0  0  0  0  3  0  0  0  0  0  0
  -16.7440  -28.8430   23.0850 C   0  0  0  0  0  3  0  0  0  0  0  0
  -25.9130  -32.5170   23.9070 C   0  0  0  0  0  3  0  0  0  0  0  0
  -26.3820  -31.7400   25.1980 C   0  0  1  0  0  0  0  0  0  0  0  0
  -25.2560  -31.5110   26.2330 C   0  0  0  0  0  1  0  0  0  0  0  0
  -26.9620  -30.3560   24.8230 C   0  0  0  0  0  1  0  0  0  0  0  0
  -27.5220  -32.5210   25.8950 C   0  0  0  0  0  1  0  0  0  0  0  0
  -25.6090  -33.9190   24.2290 N   0  0  0  0  0  0  0  0  0  0  0  0
  -25.9490  -34.9660   23.4670 C   0  0  0  0  0  0  0  0  0  0  0  0
  -26.6210  -34.8540   22.4380 O   0  0  0  0  0  0  0  0  0  0  0  0
  -25.0100  -34.0790   25.0260 H   0  0  0  0  0  0  0  0  0  0  0  0
  -24.2130  -36.7550   23.1220 C   0  0  0  0  0  1  0  0  0  0  0  0
  -25.4690  -36.3600   23.9160 C   0  0  0  0  0  3  0  0  0  0  0  0
  -27.6140  -37.2600   24.7010 C   0  0  0  0  0  1  0  0  0  0  0  0
  -26.4980  -37.4130   23.7720 N   0  0  0  0  0  0  0  0  0  0  0  0
  -26.0930  -38.3350   23.9110 H   0  0  0  0  0  0  0  0  0  0  0  0
  -32.9910  -19.0290   18.8350 O   0  0  0  0  0  0  0  0  0  0  0  0
  -34.0560  -19.3890   19.7060 C   0  0  0  0  0  2  0  0  0  0  0  0
  -35.4350  -21.2870   20.6620 C   0  0  0  0  0  1  0  0  0  0  0  0
  -34.3640  -21.5500   18.3890 C   0  0  0  0  0  1  0  0  0  0  0  0
  -34.2290  -20.9200   19.7850 C   0  0  0  0  0  3  0  0  0  0  0  0
  1 15  1  0
  2  7  1  0
  3  4  1  0
  3  2  1  0
  5  4  1  0
  5 20  1  0
  5  6  1  0
  7  1  1  0
  7  6  1  0
  8  1  2  0
 10 11  2  0
 11 46  1  0
 11  9  1  0
 12  9  2  0
 12 15  1  0
 13 10  1  0
 13 14  2  0
 14 12  1  0
 15 16  1  0
 17 18  2  0
 18 19  1  0
 18 37  1  0
 19 22  1  0
 20 17  1  0
 20 21  1  0
 21 19  2  0
 22 23  1  0
 23 24  2  0
 25 28  1  0
 25 24  1  0
 26 25  2  0
 27 26  1  0
 27 22  2  0
 28 29  1  0
 29 30  1  0
 30 31  2  0
 32 31  1  0
 32 36  1  0
 33 32  2  0
 34 29  2  0
 34 33  1  0
 35 34  1  0
 37 38  1  0
 38 41  1  0
 38 40  1  0
 39 37  2  0
 42 43  1  0
 42 17  1  0
 44 42  1  0
 45 46  2  0
 46 47  1  0
 48 49  1  0
 48 50  1  0
 49 45  1  0
 49 50  1  0
 50 51  1  0
 52 63  2  0
 53 51  1  0
 53 58  1  0
 54 62  1  0
 54 64  1  0
 55 61  1  0
 55 57  1  0
 56 62  1  0
 57 58  2  0
 57 56  1  0
 59 53  2  0
 60 59  1  0
 60 55  2  0
 61 54  1  0
 62 52  1  0
 64 66  2  0
 65 64  1  0
 67 65  1  0
 68 77  2  0
 68 73  1  0
 69 65  1  0
 69 73  1  0
 70 69  1  0
 71 72  1  0
 71 70  1  0
 72 68  1  0
 73 74  2  0
 74 75  1  0
 76 75  2  0
 77 76  1  0
 78 52  1  0
 78 83  1  0
 78 79  1  0
 79 82  1  1
 79 80  1  0
 81 79  1  0
 83 86  1  0
 84 88  1  0
 84 83  1  0
 85 84  2  0
 88 87  1  0
 90 91  1  0
 90 88  1  0
 90 89  1  0
 92 13  1  0
 92 93  1  0
 93 96  1  0
 95 96  1  0
 96 94  1  0
M  ISO  4   1 100  15 100  50 101  51 101
M  END
>  <TORSDO>  (56) 
F 20

>  <SCORE>  (56) 
-13.440

>  <name>  (56) 
55

>  <ligand_id>  (56) 
55

>  <original_smiles>  (56) 
[H]C(=C(c1c([H])c(OC([H])([H])C([H])(C([H])([H])[H])C([H])([H])[H])nc(N([H])C(=O)N2C([H])([H])C([H])([H])C([H])([H])C([H])(n3nc(-c4c([H])c([H])c(Oc5c([H])c([H])c(F)c([H])c5F)c([H])c4[H])c(C(=O)N([H])[H])c3N([H])[H])C2([H])[H])c1[H])C([H])([H])[H])C1([H])C([H])([H])C1([H])Oc1c([H])c([H])c2c(c1[H])C([H])([H])N(C(=O)C([H])(N([H])C(=O)C([H])(N([H])C([H])([H])[H])C([H])([H])[H])C(C([H])([H])[H])(C([H])([H])[H])C([H])([H])[H])C([H])(C(=O)N([H])C1([H])c3c([H])c([H])c([H])c([H])c3C([H])([H])C([H])([H])C1([H])[H])C2([H])[H]

>  <smiles>  (56) 
[H]C(=C(c1c([H])c(OC([H])([H])C([H])(C([H])([H])[H])C([H])([H])[H])nc(N([H])C(=O)N2C([H])([H])C([H])([H])C([H])([H])C([H])(n3nc(-c4c([H])c([H])c(Oc5c([H])c([H])c(F)c([H])c5F)c([H])c4[H])c(C(=O)N([H])[H])c3N([H])[H])C2([H])[H])c1[H])C([H])([H])[H])C1([H])C([H])([H])C1([H])Oc1c([H])c([H])c2c(c1[H])C([H])([H])N(C(=O)C([H])(N([H])C(=O)C([H])(N([H])C([H])([H])[H])C([H])([H])[H])C(C([H])([H])[H])(C([H])([H])[H])C([H])([H])[H])C([H])(C(=O)N([H])C1([H])c3c([H])c([H])c([H])c([H])c3C([H])([H])C([H])([H])C1([H])[H])C2([H])[H]

$$$$
56:0:0
     RDKit          3D

 95105  0  0  1  0  0  0  0  0999 V2000
  -29.0940  -23.5040   21.9270 C   0  0  0  0  0  3  0  0  0  0  0  0
  -28.2100  -24.3180   19.4150 C   0  0  0  0  0  3  0  0  0  0  0  0
  -28.8370  -22.4860   20.9720 C   0  0  0  0  0  0  0  0  0  0  0  0
  -28.9260  -24.8870   21.6450 C   0  0  0  0  0  0  0  0  0  0  0  0
  -28.3690  -22.9270   19.7030 C   0  0  0  0  0  0  0  0  0  0  0  0
  -28.4790  -25.3310   20.3760 C   0  0  0  0  0  0  0  0  0  0  0  0
  -29.2480  -25.9110   22.7150 C   0  0  0  0  0  1  0  0  0  0  0  0
  -28.0450  -21.9000   18.6310 C   0  0  0  0  0  1  0  0  0  0  0  0
  -30.2720  -20.5760   22.0690 C   0  0  0  0  0  2  0  0  0  0  0  0
  -28.9960  -20.9950   21.3770 C   0  0  0  0  0  3  0  0  0  0  0  0
  -29.9300  -19.9060   20.7570 C   0  0  0  0  0  3  0  0  0  0  0  0
  -29.6710  -18.3720   20.8650 C   0  0  0  0  0  0  0  0  0  0  0  0
  -28.6540  -17.9740   21.4410 O   0  0  0  0  0  0  0  0  0  0  0  0
  -30.8820  -14.7880   20.2810 C   0  0  0  0  0  0  0  0  0  0  0  0
  -30.6260  -12.5050   19.3620 C   0  0  0  0  0  2  0  0  0  0  0  0
  -29.6950  -12.5040   18.1320 C   0  0  0  0  0  2  0  0  0  0  0  0
  -28.2180  -12.4060   18.5510 C   0  0  0  0  0  2  0  0  0  0  0  0
  -27.8400  -13.3170   19.7520 C   0  0  0  0  0  3  0  0  0  0  0  0
  -28.9050  -13.3080   20.8690 C   0  0  0  0  0  2  0  0  0  0  0  0
  -30.1970  -13.6020   20.2450 N   0  0  0  0  0  0  0  0  0  0  0  0
  -32.1110  -14.8070   20.2110 O   0  0  0  0  0  0  0  0  0  0  0  0
  -30.2260  -17.4310   18.0000 C   0  0  0  0  0  2  0  0  0  0  0  0
  -31.3370  -17.8170   18.9530 C   0  0  0  0  0  2  0  0  0  0  0  0
  -29.8720  -16.0320   18.5100 C   0  0  0  0  0  2  0  0  0  0  0  0
  -30.7310  -17.3380   20.2760 C   0  0  0  0  0  3  0  0  0  0  0  0
  -30.2050  -15.9500   19.9590 N   0  0  0  0  0  0  0  0  0  0  0  0
  -25.4470  -13.8970   20.4620 C   0  0  0  0  0  0  0  0  0  0  0  0
  -24.3840  -13.1130   20.8150 C   0  0  0  0  0  0  0  0  0  0  0  0
  -24.8570  -11.7660   20.7920 C   0  0  0  0  0  0  0  0  0  0  0  0
  -26.4990  -13.0240   20.2430 N   0  0  0  0  0  0  0  0  0  0  0  0
  -26.1510  -11.7380   20.5040 N   0  0  0  0  0  0  0  0  0  0  0  0
  -24.1390  -10.4980   20.9730 C   0  0  0  0  0  0  0  0  0  0  0  0
  -24.5350   -9.5560   21.9480 C   0  0  0  0  0  3  0  0  0  0  0  0
  -23.8150   -8.3520   22.1130 C   0  0  0  0  0  3  0  0  0  0  0  0
  -22.6860   -8.0840   21.3030 C   0  0  0  0  0  0  0  0  0  0  0  0
  -22.3110   -9.0150   20.3190 C   0  0  0  0  0  3  0  0  0  0  0  0
  -23.0310  -10.2090   20.1510 C   0  0  0  0  0  3  0  0  0  0  0  0
  -21.9410   -6.9310   21.3770 O   0  0  0  0  0  0  0  0  0  0  0  0
  -21.7840   -6.2510   22.5580 C   0  0  0  0  0  0  0  0  0  0  0  0
  -21.2180   -6.8570   23.7000 C   0  0  0  0  0  3  0  0  0  0  0  0
  -21.0170   -6.1000   24.8720 C   0  0  0  0  0  3  0  0  0  0  0  0
  -21.3700   -4.7370   24.8980 C   0  0  0  0  0  0  0  0  0  0  0  0
  -21.9260   -4.1310   23.7590 C   0  0  0  0  0  3  0  0  0  0  0  0
  -22.1310   -4.8860   22.5910 C   0  0  0  0  0  0  0  0  0  0  0  0
  -22.6500   -4.2920   21.4890 F   0  0  0  0  0  0  0  0  0  0  0  0
  -21.1670   -4.0040   26.0180 F   0  0  0  0  0  0  0  0  0  0  0  0
  -22.9800  -13.5790   21.0720 C   0  0  0  0  0  0  0  0  0  0  0  0
  -22.2530  -12.8780   21.9330 N   0  0  0  0  0  0  0  0  0  0  0  0
  -22.5380  -14.6000   20.5460 O   0  0  0  0  0  0  0  0  0  0  0  0
  -22.6210  -12.0440   22.3690 H   0  0  0  0  0  0  0  0  0  0  0  0
  -21.3140  -13.1770   22.1560 H   0  0  0  0  0  0  0  0  0  0  0  0
  -25.6050  -15.2700   20.2870 N   0  0  0  0  0  0  0  0  0  0  0  0
  -24.8430  -15.9260   20.4130 H   0  0  0  0  0  0  0  0  0  0  0  0
  -26.4800  -15.7250   20.0530 H   0  0  0  0  0  0  0  0  0  0  0  0
  -28.4470  -26.7020   20.0710 O   0  0  0  0  0  0  0  0  0  0  0  0
  -24.6350  -31.9250   23.2280 C   0  0  0  0  0  0  0  0  0  0  0  0
  -27.2790  -27.4540   20.1230 C   0  0  0  0  0  0  0  0  0  0  0  0
  -23.4300  -30.5230   21.5870 C   0  0  0  0  0  3  0  0  0  0  0  0
  -24.8850  -28.9940   20.1470 C   0  0  0  0  0  0  0  0  0  0  0  0
  -25.9570  -30.8850   21.3770 C   0  0  0  0  0  2  0  0  0  0  0  0
  -26.0470  -29.5080   20.7370 C   0  0  0  0  0  0  0  0  0  0  0  0
  -27.2450  -28.7470   20.7190 C   0  0  0  0  0  3  0  0  0  0  0  0
  -26.0970  -26.9750   19.5200 C   0  0  0  0  0  3  0  0  0  0  0  0
  -24.9070  -27.7310   19.5360 C   0  0  0  0  0  3  0  0  0  0  0  0
  -23.6400  -29.8540   20.2030 C   0  0  0  0  0  2  0  0  0  0  0  0
  -24.6920  -31.1290   22.1200 N   0  0  0  0  0  0  0  0  0  0  0  0
  -23.5550  -32.1820   23.7780 O   0  0  0  0  0  0  0  0  0  0  0  0
  -22.7930  -29.4920   22.5470 C   0  0  0  0  0  0  0  0  0  0  0  0
  -21.4700  -29.2900   22.4240 N   0  0  0  0  0  0  0  0  0  0  0  0
  -23.4870  -28.8720   23.3580 O   0  0  0  0  0  0  0  0  0  0  0  0
  -20.9690  -29.8460   21.7440 H   0  0  0  0  0  0  0  0  0  0  0  0
  -18.1150  -28.0400   22.9300 C   0  0  0  0  0  0  0  0  0  0  0  0
  -20.6700  -28.3350   23.1920 C   0  0  0  0  0  3  0  0  0  0  0  0
  -20.7920  -26.9090   22.6090 C   0  0  0  0  0  2  0  0  0  0  0  0
  -19.6930  -26.5740   21.5970 C   0  0  0  0  0  2  0  0  0  0  0  0
  -18.3100  -26.6960   22.2450 C   0  0  0  0  0  2  0  0  0  0  0  0
  -19.2240  -28.8160   23.3610 C   0  0  0  0  0  0  0  0  0  0  0  0
  -18.9920  -30.0740   23.9580 C   0  0  0  0  0  3  0  0  0  0  0  0
  -17.6810  -30.5570   24.1320 C   0  0  0  0  0  3  0  0  0  0  0  0
  -16.5860  -29.7780   23.7160 C   0  0  0  0  0  3  0  0  0  0  0  0
  -16.8040  -28.5220   23.1230 C   0  0  0  0  0  3  0  0  0  0  0  0
  -25.9180  -32.5640   23.8440 C   0  0  0  0  0  3  0  0  0  0  0  0
  -25.6030  -33.9600   24.1780 N   0  0  0  0  0  0  0  0  0  0  0  0
  -25.9200  -35.0150   23.4180 C   0  0  0  0  0  0  0  0  0  0  0  0
  -26.5830  -34.9170   22.3820 O   0  0  0  0  0  0  0  0  0  0  0  0
  -25.0190  -34.1110   24.9890 H   0  0  0  0  0  0  0  0  0  0  0  0
  -24.1760  -36.7950   23.0740 C   0  0  0  0  0  1  0  0  0  0  0  0
  -25.4240  -36.3990   23.8800 C   0  0  0  0  0  3  0  0  0  0  0  0
  -27.5540  -37.3000   24.7070 C   0  0  0  0  0  1  0  0  0  0  0  0
  -26.4470  -37.4620   23.7650 N   0  0  0  0  0  0  0  0  0  0  0  0
  -26.0340  -38.3780   23.9170 H   0  0  0  0  0  0  0  0  0  0  0  0
  -26.4470  -31.7960   25.1170 C   0  0  1  0  0  0  0  0  0  0  0  0
  -25.3600  -31.5430   26.1880 C   0  0  0  0  0  1  0  0  0  0  0  0
  -27.0420  -30.4270   24.7140 C   0  0  0  0  0  1  0  0  0  0  0  0
  -27.5920  -32.6000   25.7760 C   0  0  0  0  0  1  0  0  0  0  0  0
  2  5  2  0
  2  6  1  0
  3  1  2  0
  4  1  1  0
  4  7  1  0
  5  3  1  0
  6  4  2  0
  8  5  1  0
 10  3  1  0
 10  9  1  0
 11 12  1  0
 11 10  1  0
 11  9  1  0
 12 13  2  0
 15 20  1  0
 16 17  1  0
 16 15  1  0
 18 17  1  0
 18 30  1  0
 18 19  1  0
 20 14  1  0
 20 19  1  0
 21 14  2  0
 22 24  1  0
 22 23  1  0
 23 25  1  0
 24 26  1  0
 25 12  1  0
 26 25  1  0
 26 14  1  0
 27 28  2  0
 28 47  1  0
 29 28  1  0
 29 32  1  0
 30 27  1  0
 30 31  1  0
 31 29  2  0
 32 33  1  0
 33 34  2  0
 35 38  1  0
 35 34  1  0
 36 35  2  0
 37 36  1  0
 37 32  2  0
 38 39  1  0
 39 44  2  0
 39 40  1  0
 40 41  2  0
 41 42  1  0
 42 46  1  0
 43 42  2  0
 44 43  1  0
 45 44  1  0
 47 48  1  0
 48 51  1  0
 48 50  1  0
 49 47  2  0
 52 53  1  0
 52 27  1  0
 54 52  1  0
 55 57  1  0
 55  6  1  0
 56 67  2  0
 57 62  1  0
 58 66  1  0
 58 68  1  0
 59 65  1  0
 59 61  1  0
 60 66  1  0
 61 60  1  0
 62 61  2  0
 63 64  1  0
 63 57  2  0
 64 59  2  0
 65 58  1  0
 66 56  1  0
 68 70  2  0
 69 68  1  0
 71 69  1  0
 72 81  2  0
 72 77  1  0
 73 69  1  0
 73 77  1  0
 74 73  1  0
 75 76  1  0
 75 74  1  0
 76 72  1  0
 77 78  2  0
 78 79  1  0
 80 79  2  0
 81 80  1  0
 82 56  1  0
 82 83  1  0
 82 92  1  0
 83 86  1  0
 84 88  1  0
 84 83  1  0
 85 84  2  0
 88 87  1  0
 90 88  1  0
 90 91  1  0
 90 89  1  0
 92 95  1  1
 92 93  1  0
 94 92  1  0
M  ISO  4   6 101  14 100  26 100  55 101
M  END
>  <TORSDO>  (57) 
F 18

>  <SCORE>  (57) 
-13.815

>  <name>  (57) 
56

>  <ligand_id>  (57) 
56

>  <original_smiles>  (57) 
[H]c1c([H])c([H])c2c(c1[H])C([H])([H])C([H])([H])C([H])([H])C2([H])N([H])C(=O)C1([H])N(C(=O)C([H])(N([H])C(=O)C([H])(N([H])C([H])([H])[H])C([H])([H])[H])C(C([H])([H])[H])(C([H])([H])[H])C([H])([H])[H])C([H])([H])c2c([H])c(Oc3c([H])c(C([H])([H])[H])c(C4([H])C([H])([H])C4([H])C(=O)C4([H])N(C(=O)N5C([H])([H])C([H])([H])C([H])([H])C([H])(n6nc(-c7c([H])c([H])c(Oc8c([H])c([H])c(F)c([H])c8F)c([H])c7[H])c(C(=O)N([H])[H])c6N([H])[H])C5([H])[H])C([H])([H])C([H])([H])C4([H])[H])c([H])c3C([H])([H])[H])c([H])c([H])c2C1([H])[H]

>  <smiles>  (57) 
[H]c1c([H])c([H])c2c(c1[H])C([H])([H])C([H])([H])C([H])([H])C2([H])N([H])C(=O)C1([H])N(C(=O)C([H])(N([H])C(=O)C([H])(N([H])C([H])([H])[H])C([H])([H])[H])C(C([H])([H])[H])(C([H])([H])[H])C([H])([H])[H])C([H])([H])c2c([H])c(Oc3c([H])c(C([H])([H])[H])c(C4([H])C([H])([H])C4([H])C(=O)C4([H])N(C(=O)N5C([H])([H])C([H])([H])C([H])([H])C([H])(n6nc(-c7c([H])c([H])c(Oc8c([H])c([H])c(F)c([H])c8F)c([H])c7[H])c(C(=O)N([H])[H])c6N([H])[H])C5([H])[H])C([H])([H])C([H])([H])C4([H])[H])c([H])c3C([H])([H])[H])c([H])c([H])c2C1([H])[H]

$$$$
57:0:0
     RDKit          3D

 94102  0  0  1  0  0  0  0  0999 V2000
  -30.7360  -14.7110   20.3500 C   0  0  0  0  0  0  0  0  0  0  0  0
  -30.6450  -12.3580   19.5200 C   0  0  0  0  0  2  0  0  0  0  0  0
  -29.7500  -12.3310   18.2590 C   0  0  0  0  0  2  0  0  0  0  0  0
  -28.2600  -12.1920   18.6340 C   0  0  0  0  0  2  0  0  0  0  0  0
  -27.8340  -13.1740   19.7560 C   0  0  0  0  0  3  0  0  0  0  0  0
  -28.8400  -13.1390   20.9300 C   0  0  0  0  0  2  0  0  0  0  0  0
  -30.1700  -13.4580   20.3840 N   0  0  0  0  0  0  0  0  0  0  0  0
  -31.9200  -14.8600   20.0200 O   0  0  0  0  0  0  0  0  0  0  0  0
  -28.4960  -17.7570   20.5520 C   0  0  0  0  0  3  0  0  0  0  0  0
  -28.2340  -19.1520   20.4320 C   0  0  0  0  0  0  0  0  0  0  0  0
  -29.2750  -20.0550   20.0750 C   0  0  0  0  0  0  0  0  0  0  0  0
  -29.7750  -17.1920   20.3200 C   0  0  0  0  0  0  0  0  0  0  0  0
  -30.5220  -19.4150   19.8140 C   0  0  0  0  0  0  0  0  0  0  0  0
  -26.8310  -19.6430   20.7460 C   0  0  0  0  0  1  0  0  0  0  0  0
  -30.7590  -18.0550   19.9280 N   0  0  0  0  0  0  0  0  0  0  0  0
  -29.8450  -15.7410   20.5510 N   0  0  0  0  0  0  0  0  0  0  0  0
  -28.9610  -15.3640   20.8440 H   0  0  0  0  0  0  0  0  0  0  0  0
  -25.4290  -13.8440   20.3610 C   0  0  0  0  0  0  0  0  0  0  0  0
  -24.3360  -13.1050   20.7250 C   0  0  0  0  0  0  0  0  0  0  0  0
  -24.7750  -11.7460   20.7660 C   0  0  0  0  0  0  0  0  0  0  0  0
  -26.4650  -12.9370   20.2000 N   0  0  0  0  0  0  0  0  0  0  0  0
  -26.0750  -11.6720   20.5060 N   0  0  0  0  0  0  0  0  0  0  0  0
  -24.0210  -10.5050   20.9780 C   0  0  0  0  0  0  0  0  0  0  0  0
  -24.4400   -9.5390   21.9190 C   0  0  0  0  0  3  0  0  0  0  0  0
  -23.6880   -8.3610   22.1190 C   0  0  0  0  0  3  0  0  0  0  0  0
  -22.5010   -8.1420   21.3780 C   0  0  0  0  0  0  0  0  0  0  0  0
  -22.1010   -9.0970   20.4280 C   0  0  0  0  0  3  0  0  0  0  0  0
  -22.8530  -10.2650   20.2260 C   0  0  0  0  0  3  0  0  0  0  0  0
  -21.7210   -7.0170   21.4880 O   0  0  0  0  0  0  0  0  0  0  0  0
  -21.7190   -6.2510   22.6260 C   0  0  0  0  0  0  0  0  0  0  0  0
  -21.4090   -6.7940   23.8920 C   0  0  0  0  0  3  0  0  0  0  0  0
  -21.3520   -5.9560   25.0220 C   0  0  0  0  0  3  0  0  0  0  0  0
  -21.5930   -4.5760   24.8900 C   0  0  0  0  0  0  0  0  0  0  0  0
  -21.8970   -4.0320   23.6300 C   0  0  0  0  0  3  0  0  0  0  0  0
  -21.9570   -4.8670   22.5010 C   0  0  0  0  0  0  0  0  0  0  0  0
  -22.2290   -4.3340   21.2850 F   0  0  0  0  0  0  0  0  0  0  0  0
  -21.5310   -3.7690   25.9750 F   0  0  0  0  0  0  0  0  0  0  0  0
  -22.9390  -13.6150   20.9210 C   0  0  0  0  0  0  0  0  0  0  0  0
  -22.1710  -12.9780   21.7980 N   0  0  0  0  0  0  0  0  0  0  0  0
  -22.5350  -14.6170   20.3310 O   0  0  0  0  0  0  0  0  0  0  0  0
  -22.5080  -12.1670   22.2960 H   0  0  0  0  0  0  0  0  0  0  0  0
  -21.2310  -13.3050   21.9730 H   0  0  0  0  0  0  0  0  0  0  0  0
  -25.6230  -15.2020   20.1270 N   0  0  0  0  0  0  0  0  0  0  0  0
  -24.8450  -15.8530   20.1480 H   0  0  0  0  0  0  0  0  0  0  0  0
  -26.4500  -15.5920   19.6960 H   0  0  0  0  0  0  0  0  0  0  0  0
  -32.7830  -19.6020   19.0090 C   0  0  0  0  0  1  0  0  0  0  0  0
  -31.5700  -20.2220   19.4260 O   0  0  0  0  0  0  0  0  0  0  0  0
  -29.0830  -21.6420   20.1550 C   0  0  0  0  0  2  0  0  0  0  0  0
  -29.0330  -22.5060   18.9090 N   0  0  0  0  0  4  0  0  0  0  0  0
  -28.6760  -21.9060   18.1830 H   0  0  0  0  0  0  0  0  0  0  0  0
  -29.9790  -22.7270   18.6410 H   0  0  0  0  0  0  0  0  0  0  0  0
  -28.1790  -23.7830   18.8280 C   0  0  0  0  0  2  0  0  0  0  0  0
  -28.5400  -25.0810   19.6840 C   0  0  0  0  0  2  0  0  0  0  0  0
  -28.4060  -26.4530   19.1280 O   0  0  0  0  0  0  0  0  0  0  0  0
  -24.6880  -31.4390   22.8250 C   0  0  0  0  0  0  0  0  0  0  0  0
  -27.2440  -27.2160   19.2910 C   0  0  0  0  0  0  0  0  0  0  0  0
  -23.4440  -30.1910   21.0950 C   0  0  0  0  0  3  0  0  0  0  0  0
  -24.8600  -28.7810   19.4970 C   0  0  0  0  0  0  0  0  0  0  0  0
  -25.9700  -30.5540   20.8620 C   0  0  0  0  0  2  0  0  0  0  0  0
  -26.0410  -29.2380   20.0960 C   0  0  0  0  0  0  0  0  0  0  0  0
  -27.2360  -28.4710   19.9750 C   0  0  0  0  0  3  0  0  0  0  0  0
  -26.0400  -26.7990   18.6890 C   0  0  0  0  0  3  0  0  0  0  0  0
  -24.8600  -27.5670   18.7860 C   0  0  0  0  0  3  0  0  0  0  0  0
  -23.6200  -29.6400   19.6550 C   0  0  0  0  0  2  0  0  0  0  0  0
  -24.7220  -30.7410   21.6520 N   0  0  0  0  0  0  0  0  0  0  0  0
  -23.6210  -31.6540   23.4180 O   0  0  0  0  0  0  0  0  0  0  0  0
  -22.8160  -29.0850   21.9770 C   0  0  0  0  0  0  0  0  0  0  0  0
  -21.4830  -28.9330   21.8990 N   0  0  0  0  0  0  0  0  0  0  0  0
  -23.5260  -28.3700   22.6890 O   0  0  0  0  0  0  0  0  0  0  0  0
  -20.9690  -29.5640   21.2990 H   0  0  0  0  0  0  0  0  0  0  0  0
  -18.1180  -27.7250   22.4410 C   0  0  0  0  0  0  0  0  0  0  0  0
  -20.6900  -27.9260   22.6050 C   0  0  0  0  0  3  0  0  0  0  0  0
  -20.7410  -26.5660   21.8730 C   0  0  0  0  0  2  0  0  0  0  0  0
  -19.5850  -26.3670   20.8890 C   0  0  0  0  0  2  0  0  0  0  0  0
  -18.2400  -26.4560   21.6150 C   0  0  0  0  0  2  0  0  0  0  0  0
  -19.2690  -28.4230   22.8930 C   0  0  0  0  0  0  0  0  0  0  0  0
  -19.1010  -29.6170   23.6280 C   0  0  0  0  0  3  0  0  0  0  0  0
  -17.8150  -30.1100   23.9160 C   0  0  0  0  0  3  0  0  0  0  0  0
  -16.6780  -29.4070   23.4800 C   0  0  0  0  0  3  0  0  0  0  0  0
  -16.8310  -28.2160   22.7480 C   0  0  0  0  0  3  0  0  0  0  0  0
  -25.9860  -32.0200   23.4680 C   0  0  0  0  0  3  0  0  0  0  0  0
  -26.5690  -31.1120   24.6200 C   0  0  1  0  0  0  0  0  0  0  0  0
  -25.5290  -30.7380   25.7010 C   0  0  0  0  0  1  0  0  0  0  0  0
  -27.1450  -29.7990   24.0420 C   0  0  0  0  0  1  0  0  0  0  0  0
  -27.7410  -31.8400   25.3180 C   0  0  0  0  0  1  0  0  0  0  0  0
  -25.6680  -33.3620   23.9770 N   0  0  0  0  0  0  0  0  0  0  0  0
  -25.9650  -34.5060   23.3470 C   0  0  0  0  0  0  0  0  0  0  0  0
  -26.6040  -34.5420   22.2910 O   0  0  0  0  0  0  0  0  0  0  0  0
  -25.0990  -33.4070   24.8100 H   0  0  0  0  0  0  0  0  0  0  0  0
  -24.1980  -36.2940   23.2740 C   0  0  0  0  0  1  0  0  0  0  0  0
  -25.4740  -35.8200   23.9870 C   0  0  0  0  0  3  0  0  0  0  0  0
  -27.6270  -36.6380   24.8400 C   0  0  0  0  0  1  0  0  0  0  0  0
  -26.4860  -36.8980   23.9660 N   0  0  0  0  0  0  0  0  0  0  0  0
  -26.0730  -37.7860   24.2390 H   0  0  0  0  0  0  0  0  0  0  0  0
  1  7  1  0
  1 16  1  0
  2  7  1  0
  3  4  1  0
  3  2  1  0
  5  4  1  0
  5 21  1  0
  5  6  1  0
  7  6  1  0
  8  1  2  0
 10  9  1  0
 10 14  1  0
 11 48  1  0
 11 10  2  0
 12 16  1  0
 12  9  2  0
 13 15  2  0
 13 11  1  0
 15 12  1  0
 16 17  1  0
 18 19  2  0
 19 20  1  0
 19 38  1  0
 20 23  1  0
 21 18  1  0
 21 22  1  0
 22 20  2  0
 23 24  1  0
 24 25  2  0
 26 29  1  0
 26 25  1  0
 27 26  2  0
 28 27  1  0
 28 23  2  0
 29 30  1  0
 30 31  1  0
 31 32  2  0
 33 32  1  0
 33 37  1  0
 34 33  2  0
 35 30  2  0
 35 34  1  0
 36 35  1  0
 38 39  1  0
 39 42  1  0
 39 41  1  0
 40 38  2  0
 43 44  1  0
 43 18  1  0
 45 43  1  0
 46 47  1  0
 47 13  1  0
 49 48  1  0
 50 49  1  0
 51 49  1  0
 52 49  1  0
 52 53  1  0
 54 56  1  0
 54 53  1  0
 55 66  2  0
 56 61  1  0
 57 65  1  0
 57 67  1  0
 58 64  1  0
 58 60  1  0
 59 65  1  0
 60 59  1  0
 61 60  2  0
 62 63  1  0
 62 56  2  0
 63 58  2  0
 64 57  1  0
 65 55  1  0
 67 69  2  0
 68 67  1  0
 70 68  1  0
 71 80  2  0
 71 76  1  0
 72 68  1  0
 72 76  1  0
 73 72  1  0
 74 75  1  0
 74 73  1  0
 75 71  1  0
 76 77  2  0
 77 78  1  0
 79 78  2  0
 80 79  1  0
 81 55  1  0
 81 86  1  0
 81 82  1  0
 82 85  1  1
 82 83  1  0
 84 82  1  0
 86 89  1  0
 87 86  1  0
 87 91  1  0
 88 87  2  0
 91 90  1  0
 93 91  1  0
 93 94  1  0
 93 92  1  0
M  ISO  4   1 100  16 100  53 101  54 101
M  END
>  <TORSDO>  (58) 
F 20

>  <SCORE>  (58) 
-10.953

>  <name>  (58) 
57

>  <ligand_id>  (58) 
57

>  <original_smiles>  (58) 
[H]c1c([H])c([H])c2c(c1[H])C([H])([H])C([H])([H])C([H])([H])C2([H])N([H])C(=O)C1([H])N(C(=O)C([H])(N([H])C(=O)C([H])(N([H])C([H])([H])[H])C([H])([H])[H])C(C([H])([H])[H])(C([H])([H])[H])C([H])([H])[H])C([H])([H])c2c([H])c(OC([H])([H])C([H])([H])[N+]([H])([H])C([H])([H])c3c(OC([H])([H])[H])nc(N([H])C(=O)N4C([H])([H])C([H])([H])C([H])([H])C([H])(n5nc(-c6c([H])c([H])c(Oc7c([H])c([H])c(F)c([H])c7F)c([H])c6[H])c(C(=O)N([H])[H])c5N([H])[H])C4([H])[H])c([H])c3C([H])([H])[H])c([H])c([H])c2C1([H])[H]

>  <smiles>  (58) 
[H]c1c([H])c([H])c2c(c1[H])C([H])([H])C([H])([H])C([H])([H])C2([H])N([H])C(=O)C1([H])N(C(=O)C([H])(N([H])C(=O)C([H])(N([H])C([H])([H])[H])C([H])([H])[H])C(C([H])([H])[H])(C([H])([H])[H])C([H])([H])[H])C([H])([H])c2c([H])c(OC([H])([H])C([H])([H])[N+]([H])([H])C([H])([H])c3c(OC([H])([H])[H])nc(N([H])C(=O)N4C([H])([H])C([H])([H])C([H])([H])C([H])(n5nc(-c6c([H])c([H])c(Oc7c([H])c([H])c(F)c([H])c7F)c([H])c6[H])c(C(=O)N([H])[H])c5N([H])[H])C4([H])[H])c([H])c3C([H])([H])[H])c([H])c([H])c2C1([H])[H]

$$$$
58:0:0
     RDKit          3D

 95104  0  0  1  0  0  0  0  0999 V2000
  -31.3650  -20.6040   21.2910 C   0  0  0  0  0  3  0  0  0  0  0  0
  -31.2620  -21.9450   20.8490 C   0  0  0  0  0  3  0  0  0  0  0  0
  -30.3980  -21.1540   18.7280 C   0  0  0  0  0  3  0  0  0  0  0  0
  -30.9690  -19.5210   20.4670 C   0  0  0  0  0  0  0  0  0  0  0  0
  -30.4800  -19.8160   19.1680 C   0  0  0  0  0  0  0  0  0  0  0  0
  -30.7670  -22.2310   19.5550 C   0  0  0  0  0  0  0  0  0  0  0  0
  -30.0560  -18.7260   18.1980 C   0  0  0  0  0  2  0  0  0  0  0  0
  -29.9960  -17.3180   18.8010 C   0  0  0  0  0  2  0  0  0  0  0  0
  -31.0590  -18.0660   20.9850 C   0  0  0  0  0  3  0  0  0  0  0  0
  -31.1350  -17.0490   19.7950 C   0  0  0  0  0  3  0  0  0  0  0  0
  -31.6760  -14.6180   19.4310 C   0  0  0  0  0  0  0  0  0  0  0  0
  -31.1060  -12.5430   18.2210 C   0  0  0  0  0  2  0  0  0  0  0  0
  -30.0050  -12.8660   17.1890 C   0  0  0  0  0  2  0  0  0  0  0  0
  -28.6070  -12.7580   17.8290 C   0  0  0  0  0  2  0  0  0  0  0  0
  -28.5080  -13.5250   19.1750 C   0  0  0  0  0  3  0  0  0  0  0  0
  -29.7060  -13.1830   20.0940 C   0  0  0  0  0  2  0  0  0  0  0  0
  -30.9480  -13.4680   19.3570 N   0  0  0  0  0  0  0  0  0  0  0  0
  -32.6880  -14.8130   18.7530 O   0  0  0  0  0  0  0  0  0  0  0  0
  -31.1110  -15.6090   20.1490 N   0  0  0  0  0  0  0  0  0  0  0  0
  -30.3500  -15.3190   20.7440 H   0  0  0  0  0  0  0  0  0  0  0  0
  -26.2900  -14.2000   20.2950 C   0  0  0  0  0  0  0  0  0  0  0  0
  -25.2410  -13.4580   20.7690 C   0  0  0  0  0  0  0  0  0  0  0  0
  -25.5980  -12.0920   20.5580 C   0  0  0  0  0  0  0  0  0  0  0  0
  -27.2260  -13.2860   19.8350 N   0  0  0  0  0  0  0  0  0  0  0  0
  -26.8210  -12.0090   20.0460 N   0  0  0  0  0  0  0  0  0  0  0  0
  -24.8270  -10.8600   20.7600 C   0  0  0  0  0  0  0  0  0  0  0  0
  -25.2200   -9.8910   21.7100 C   0  0  0  0  0  3  0  0  0  0  0  0
  -24.4510   -8.7230   21.9000 C   0  0  0  0  0  3  0  0  0  0  0  0
  -23.2750   -8.5140   21.1400 C   0  0  0  0  0  0  0  0  0  0  0  0
  -22.9020   -9.4710   20.1790 C   0  0  0  0  0  3  0  0  0  0  0  0
  -23.6700  -10.6310   19.9880 C   0  0  0  0  0  3  0  0  0  0  0  0
  -22.4810   -7.3980   21.2380 O   0  0  0  0  0  0  0  0  0  0  0  0
  -22.1870   -6.8290   22.4510 C   0  0  0  0  0  0  0  0  0  0  0  0
  -21.5500   -7.5550   23.4800 C   0  0  0  0  0  3  0  0  0  0  0  0
  -21.2030   -6.9120   24.6860 C   0  0  0  0  0  3  0  0  0  0  0  0
  -21.4840   -5.5430   24.8600 C   0  0  0  0  0  0  0  0  0  0  0  0
  -22.1130   -4.8170   23.8330 C   0  0  0  0  0  3  0  0  0  0  0  0
  -22.4610   -5.4580   22.6320 C   0  0  0  0  0  0  0  0  0  0  0  0
  -23.0480   -4.7480   21.6380 F   0  0  0  0  0  0  0  0  0  0  0  0
  -21.1450   -4.9230   26.0140 F   0  0  0  0  0  0  0  0  0  0  0  0
  -23.9400  -13.9870   21.2990 C   0  0  0  0  0  0  0  0  0  0  0  0
  -23.3270  -13.2750   22.2390 N   0  0  0  0  0  0  0  0  0  0  0  0
  -23.4820  -15.0620   20.9160 O   0  0  0  0  0  0  0  0  0  0  0  0
  -23.7150  -12.4040   22.5710 H   0  0  0  0  0  0  0  0  0  0  0  0
  -22.4580  -13.6070   22.6320 H   0  0  0  0  0  0  0  0  0  0  0  0
  -26.5150  -15.5700   20.1990 N   0  0  0  0  0  0  0  0  0  0  0  0
  -25.8170  -16.2490   20.4800 H   0  0  0  0  0  0  0  0  0  0  0  0
  -27.3140  -15.9890   19.7410 H   0  0  0  0  0  0  0  0  0  0  0  0
  -30.4300  -17.9960   23.4750 C   0  0  0  0  0  1  0  0  0  0  0  0
  -28.5850  -18.4190   21.8100 C   0  0  0  0  0  1  0  0  0  0  0  0
  -29.9470  -17.7270   22.0380 C   0  0  0  0  0  3  0  0  0  0  0  0
  -30.6610  -23.4930   19.0030 O   0  0  0  0  0  0  0  0  0  0  0  0
  -30.4560  -24.6430   19.8300 C   0  0  0  0  0  2  0  0  0  0  0  0
  -29.1820  -25.3480   19.3160 C   0  0  0  0  0  2  0  0  0  0  0  0
  -29.1190  -26.7430   19.6500 O   0  0  0  0  0  0  0  0  0  0  0  0
  -24.7300  -31.2850   22.9230 C   0  0  0  0  0  0  0  0  0  0  0  0
  -27.8710  -27.3420   19.6260 C   0  0  0  0  0  0  0  0  0  0  0  0
  -23.7050  -29.8830   21.1620 C   0  0  0  0  0  3  0  0  0  0  0  0
  -25.3330  -28.6020   19.6710 C   0  0  0  0  0  0  0  0  0  0  0  0
  -26.1830  -30.4970   21.0590 C   0  0  0  0  0  2  0  0  0  0  0  0
  -26.4180  -29.1900   20.3320 C   0  0  0  0  0  0  0  0  0  0  0  0
  -27.6840  -28.5630   20.3140 C   0  0  0  0  0  3  0  0  0  0  0  0
  -26.7650  -26.7790   18.9430 C   0  0  0  0  0  3  0  0  0  0  0  0
  -25.5010  -27.3960   18.9730 C   0  0  0  0  0  3  0  0  0  0  0  0
  -24.0060  -29.3220   19.7460 C   0  0  0  0  0  2  0  0  0  0  0  0
  -24.8890  -30.5660   21.7750 N   0  0  0  0  0  0  0  0  0  0  0  0
  -23.6160  -31.4160   23.4480 O   0  0  0  0  0  0  0  0  0  0  0  0
  -23.1410  -28.7400   22.0350 C   0  0  0  0  0  0  0  0  0  0  0  0
  -21.8490  -28.4270   21.8490 N   0  0  0  0  0  0  0  0  0  0  0  0
  -23.8650  -28.1380   22.8340 O   0  0  0  0  0  0  0  0  0  0  0  0
  -21.3230  -28.9710   21.1770 H   0  0  0  0  0  0  0  0  0  0  0  0
  -18.6010  -26.8840   22.1720 C   0  0  0  0  0  0  0  0  0  0  0  0
  -21.1150  -27.3640   22.5320 C   0  0  0  0  0  3  0  0  0  0  0  0
  -21.3690  -25.9950   21.8600 C   0  0  0  0  0  2  0  0  0  0  0  0
  -20.3260  -25.6420   20.7950 C   0  0  0  0  0  2  0  0  0  0  0  0
  -18.9230  -25.6100   21.4090 C   0  0  0  0  0  2  0  0  0  0  0  0
  -19.6300  -27.7170   22.6840 C   0  0  0  0  0  0  0  0  0  0  0  0
  -19.2760  -28.9100   23.3520 C   0  0  0  0  0  3  0  0  0  0  0  0
  -17.9260  -29.2700   23.5140 C   0  0  0  0  0  3  0  0  0  0  0  0
  -16.9110  -28.4310   23.0230 C   0  0  0  0  0  3  0  0  0  0  0  0
  -17.2490  -27.2400   22.3560 C   0  0  0  0  0  3  0  0  0  0  0  0
  -25.9340  -31.9950   23.6150 C   0  0  0  0  0  3  0  0  0  0  0  0
  -26.4720  -31.2180   24.8790 C   0  0  1  0  0  0  0  0  0  0  0  0
  -25.3610  -30.8220   25.8790 C   0  0  0  0  0  1  0  0  0  0  0  0
  -27.2060  -29.9280   24.4480 C   0  0  0  0  0  1  0  0  0  0  0  0
  -27.5130  -32.0860   25.6240 C   0  0  0  0  0  1  0  0  0  0  0  0
  -25.5000  -33.3480   23.9840 N   0  0  0  0  0  0  0  0  0  0  0  0
  -25.7770  -34.4520   23.2790 C   0  0  0  0  0  0  0  0  0  0  0  0
  -26.4940  -34.4440   22.2750 O   0  0  0  0  0  0  0  0  0  0  0  0
  -24.8640  -33.4240   24.7650 H   0  0  0  0  0  0  0  0  0  0  0  0
  -23.9140  -36.1000   22.9220 C   0  0  0  0  0  1  0  0  0  0  0  0
  -25.1580  -35.7770   23.7650 C   0  0  0  0  0  3  0  0  0  0  0  0
  -27.1750  -36.8120   24.7070 C   0  0  0  0  0  1  0  0  0  0  0  0
  -26.1010  -36.9160   23.7230 N   0  0  0  0  0  0  0  0  0  0  0  0
  -25.6130  -37.7940   23.8800 H   0  0  0  0  0  0  0  0  0  0  0  0
  2  1  1  0
  3  5  2  0
  3  6  1  0
  4  9  1  0
  4  1  2  0
  5  4  1  0
  6  2  2  0
  7  8  1  0
  7  5  1  0
  8 10  1  0
  9 51  1  0
 10 19  1  0
 10  9  1  0
 11 19  1  0
 12 17  1  0
 13 14  1  0
 13 12  1  0
 15 14  1  0
 15 24  1  0
 15 16  1  0
 17 11  1  0
 17 16  1  0
 18 11  2  0
 19 20  1  0
 21 22  2  0
 22 41  1  0
 23 26  1  0
 23 22  1  0
 24 25  1  0
 24 21  1  0
 25 23  2  0
 26 27  1  0
 27 28  2  0
 29 32  1  0
 29 28  1  0
 30 29  2  0
 31 30  1  0
 31 26  2  0
 32 33  1  0
 33 38  2  0
 33 34  1  0
 34 35  2  0
 35 36  1  0
 36 40  1  0
 37 36  2  0
 38 37  1  0
 39 38  1  0
 41 42  1  0
 42 44  1  0
 42 45  1  0
 43 41  2  0
 46 21  1  0
 46 47  1  0
 48 46  1  0
 50 51  1  0
 51 49  1  0
 52  6  1  0
 52 53  1  0
 54 55  1  0
 54 53  1  0
 56 67  2  0
 57 55  1  0
 57 62  1  0
 58 66  1  0
 58 68  1  0
 59 65  1  0
 59 61  1  0
 60 66  1  0
 61 60  1  0
 62 61  2  0
 63 64  1  0
 63 57  2  0
 64 59  2  0
 65 58  1  0
 66 56  1  0
 68 70  2  0
 69 68  1  0
 71 69  1  0
 72 81  2  0
 72 77  1  0
 73 69  1  0
 73 77  1  0
 74 73  1  0
 75 76  1  0
 75 74  1  0
 76 72  1  0
 77 78  2  0
 78 79  1  0
 80 79  2  0
 81 80  1  0
 82 56  1  0
 82 87  1  0
 82 83  1  0
 83 86  1  1
 83 84  1  0
 85 83  1  0
 87 90  1  0
 88 92  1  0
 88 87  1  0
 89 88  2  0
 92 91  1  0
 94 92  1  0
 94 95  1  0
 94 93  1  0
M  ISO  4  11 100  19 100  54 101  55 101
M  END
>  <TORSDO>  (59) 
F 20

>  <SCORE>  (59) 
-7.118

>  <name>  (59) 
58

>  <ligand_id>  (59) 
58

>  <original_smiles>  (59) 
[H]c1c([H])c([H])c2c(c1[H])C([H])([H])C([H])([H])C([H])([H])C2([H])N([H])C(=O)C1([H])N(C(=O)C([H])(N([H])C(=O)C([H])(N([H])C([H])([H])[H])C([H])([H])[H])C(C([H])([H])[H])(C([H])([H])[H])C([H])([H])[H])C([H])([H])c2c([H])c(OC([H])([H])C([H])([H])Oc3c([H])c([H])c4c(c3[H])C([H])([H])C([H])([H])C([H])(N([H])C(=O)N3C([H])([H])C([H])([H])C([H])([H])C([H])(n5nc(-c6c([H])c([H])c(Oc7c([H])c([H])c(F)c([H])c7F)c([H])c6[H])c(C(=O)N([H])[H])c5N([H])[H])C3([H])[H])C4([H])C([H])(C([H])([H])[H])C([H])([H])[H])c([H])c([H])c2C1([H])[H]

>  <smiles>  (59) 
[H]c1c([H])c([H])c2c(c1[H])C([H])([H])C([H])([H])C([H])([H])C2([H])N([H])C(=O)C1([H])N(C(=O)C([H])(N([H])C(=O)C([H])(N([H])C([H])([H])[H])C([H])([H])[H])C(C([H])([H])[H])(C([H])([H])[H])C([H])([H])[H])C([H])([H])c2c([H])c(OC([H])([H])C([H])([H])Oc3c([H])c([H])c4c(c3[H])C([H])([H])C([H])([H])C([H])(N([H])C(=O)N3C([H])([H])C([H])([H])C([H])([H])C([H])(n5nc(-c6c([H])c([H])c(Oc7c([H])c([H])c(F)c([H])c7F)c([H])c6[H])c(C(=O)N([H])[H])c5N([H])[H])C3([H])[H])C4([H])C([H])(C([H])([H])[H])C([H])([H])[H])c([H])c([H])c2C1([H])[H]

$$$$
59:0:0
     RDKit          3D

 92101  0  0  1  0  0  0  0  0999 V2000
  -30.4650  -15.0900   20.4280 C   0  0  0  0  0  0  0  0  0  0  0  0
  -30.3900  -12.7220   19.4760 C   0  0  0  0  0  2  0  0  0  0  0  0
  -29.4660  -12.5920   18.2430 C   0  0  0  0  0  2  0  0  0  0  0  0
  -28.0110  -12.3400   18.6790 C   0  0  0  0  0  2  0  0  0  0  0  0
  -27.5650  -13.3040   19.8070 C   0  0  0  0  0  3  0  0  0  0  0  0
  -28.6030  -13.3770   20.9450 C   0  0  0  0  0  2  0  0  0  0  0  0
  -29.8650  -13.8270   20.3370 N   0  0  0  0  0  0  0  0  0  0  0  0
  -31.6840  -15.1170   20.2090 O   0  0  0  0  0  0  0  0  0  0  0  0
  -30.9430  -18.0480   21.7290 C   0  0  0  0  0  3  0  0  0  0  0  0
  -31.2350  -19.3580   22.1550 C   0  0  0  0  0  0  0  0  0  0  0  0
  -30.5850  -20.4850   21.6440 C   0  0  0  0  0  0  0  0  0  0  0  0
  -29.9500  -17.8150   20.7540 C   0  0  0  0  0  0  0  0  0  0  0  0
  -29.5440  -20.3800   20.6850 C   0  0  0  0  0  0  0  0  0  0  0  0
  -32.2500  -19.7140   23.2180 C   0  0  0  0  0  2  0  0  0  0  0  0
  -31.1810  -21.7270   22.2800 C   0  0  0  0  0  2  0  0  0  0  0  0
  -32.0510  -21.2210   23.4450 C   0  0  0  0  0  2  0  0  0  0  0  0
  -29.2720  -19.0160   20.2870 N   0  0  0  0  0  0  0  0  0  0  0  0
  -29.6800  -16.3040   20.4850 N   0  0  0  0  0  0  0  0  0  0  0  0
  -28.6970  -16.1040   20.4060 H   0  0  0  0  0  0  0  0  0  0  0  0
  -25.1740  -13.8790   20.5090 C   0  0  0  0  0  0  0  0  0  0  0  0
  -24.1060  -13.1030   20.8620 C   0  0  0  0  0  0  0  0  0  0  0  0
  -24.5750  -11.7530   20.8530 C   0  0  0  0  0  0  0  0  0  0  0  0
  -26.2230  -13.0020   20.2910 N   0  0  0  0  0  0  0  0  0  0  0  0
  -25.8720  -11.7180   20.5630 N   0  0  0  0  0  0  0  0  0  0  0  0
  -23.8480  -10.4900   21.0390 C   0  0  0  0  0  0  0  0  0  0  0  0
  -24.2680   -9.5270   21.9820 C   0  0  0  0  0  3  0  0  0  0  0  0
  -23.5380   -8.3320   22.1540 C   0  0  0  0  0  3  0  0  0  0  0  0
  -22.3740   -8.0920   21.3850 C   0  0  0  0  0  0  0  0  0  0  0  0
  -21.9750   -9.0440   20.4300 C   0  0  0  0  0  3  0  0  0  0  0  0
  -22.7060  -10.2310   20.2560 C   0  0  0  0  0  3  0  0  0  0  0  0
  -21.6190   -6.9490   21.4690 O   0  0  0  0  0  0  0  0  0  0  0  0
  -21.5510   -6.2140   22.6250 C   0  0  0  0  0  0  0  0  0  0  0  0
  -21.1020   -6.7750   23.8410 C   0  0  0  0  0  3  0  0  0  0  0  0
  -20.9820   -5.9650   24.9890 C   0  0  0  0  0  3  0  0  0  0  0  0
  -21.3000   -4.5950   24.9200 C   0  0  0  0  0  0  0  0  0  0  0  0
  -21.7420   -4.0340   23.7090 C   0  0  0  0  0  3  0  0  0  0  0  0
  -21.8640   -4.8410   22.5650 C   0  0  0  0  0  0  0  0  0  0  0  0
  -22.2700   -4.2910   21.3950 F   0  0  0  0  0  0  0  0  0  0  0  0
  -21.1780   -3.8150   26.0190 F   0  0  0  0  0  0  0  0  0  0  0  0
  -22.7030  -13.5800   21.1060 C   0  0  0  0  0  0  0  0  0  0  0  0
  -21.9610  -12.8940   21.9680 N   0  0  0  0  0  0  0  0  0  0  0  0
  -22.2760  -14.6020   20.5710 O   0  0  0  0  0  0  0  0  0  0  0  0
  -22.3140  -12.0640   22.4190 H   0  0  0  0  0  0  0  0  0  0  0  0
  -21.0220  -13.2050   22.1790 H   0  0  0  0  0  0  0  0  0  0  0  0
  -25.3340  -15.2510   20.3310 N   0  0  0  0  0  0  0  0  0  0  0  0
  -24.5550  -15.8920   20.4380 H   0  0  0  0  0  0  0  0  0  0  0  0
  -26.1840  -15.7090   20.0320 H   0  0  0  0  0  0  0  0  0  0  0  0
  -28.8430  -21.6170   20.1780 N   0  0  0  0  0  0  0  0  0  0  0  0
  -28.1310  -21.4360   19.4760 H   0  0  0  0  0  0  0  0  0  0  0  0
  -28.8460  -23.1140   20.7190 C   0  0  0  0  0  3  0  0  0  0  0  0
  -28.1620  -24.5770   20.0830 C   0  0  0  0  0  3  0  0  0  0  0  0
  -28.2360  -26.1520   20.2490 O   0  0  0  0  0  0  0  0  0  0  0  0
  -24.5900  -31.8720   23.2040 C   0  0  0  0  0  0  0  0  0  0  0  0
  -27.1560  -27.1160   20.1850 C   0  0  0  0  0  0  0  0  0  0  0  0
  -23.3860  -30.4760   21.5740 C   0  0  0  0  0  3  0  0  0  0  0  0
  -24.8240  -28.8800   20.1540 C   0  0  0  0  0  0  0  0  0  0  0  0
  -25.9420  -30.7270   21.3990 C   0  0  0  0  0  2  0  0  0  0  0  0
  -26.0110  -29.3290   20.7490 C   0  0  0  0  0  0  0  0  0  0  0  0
  -27.1730  -28.4690   20.7370 C   0  0  0  0  0  3  0  0  0  0  0  0
  -25.9390  -26.7660   19.5570 C   0  0  0  0  0  3  0  0  0  0  0  0
  -24.8040  -27.6150   19.5440 C   0  0  0  0  0  3  0  0  0  0  0  0
  -23.6060  -29.7920   20.1960 C   0  0  0  0  0  2  0  0  0  0  0  0
  -24.6620  -31.0480   22.1150 N   0  0  0  0  0  0  0  0  0  0  0  0
  -23.5070  -32.1620   23.7350 O   0  0  0  0  0  0  0  0  0  0  0  0
  -22.7100  -29.4730   22.5400 C   0  0  0  0  0  0  0  0  0  0  0  0
  -21.3800  -29.3070   22.4280 N   0  0  0  0  0  0  0  0  0  0  0  0
  -23.3850  -28.8500   23.3640 O   0  0  0  0  0  0  0  0  0  0  0  0
  -20.8910  -29.8550   21.7330 H   0  0  0  0  0  0  0  0  0  0  0  0
  -18.0060  -28.1070   22.9560 C   0  0  0  0  0  0  0  0  0  0  0  0
  -20.5670  -28.3720   23.2070 C   0  0  0  0  0  3  0  0  0  0  0  0
  -20.6710  -26.9390   22.6320 C   0  0  0  0  0  2  0  0  0  0  0  0
  -19.5630  -26.6130   21.6280 C   0  0  0  0  0  2  0  0  0  0  0  0
  -18.1830  -26.7580   22.2760 C   0  0  0  0  0  2  0  0  0  0  0  0
  -19.1270  -28.8680   23.3820 C   0  0  0  0  0  0  0  0  0  0  0  0
  -18.9120  -30.1290   23.9800 C   0  0  0  0  0  3  0  0  0  0  0  0
  -17.6090  -30.6280   24.1590 C   0  0  0  0  0  3  0  0  0  0  0  0
  -16.5010  -29.8640   23.7490 C   0  0  0  0  0  3  0  0  0  0  0  0
  -16.7010  -28.6070   23.1510 C   0  0  0  0  0  3  0  0  0  0  0  0
  -25.8700  -32.5100   23.8280 C   0  0  0  0  0  3  0  0  0  0  0  0
  -25.5600  -33.9120   24.1570 N   0  0  0  0  0  0  0  0  0  0  0  0
  -25.9010  -34.9670   23.4080 C   0  0  0  0  0  0  0  0  0  0  0  0
  -26.5700  -34.8640   22.3770 O   0  0  0  0  0  0  0  0  0  0  0  0
  -24.9670  -34.0680   24.9580 H   0  0  0  0  0  0  0  0  0  0  0  0
  -24.1830  -36.7700   23.0630 C   0  0  0  0  0  1  0  0  0  0  0  0
  -25.4200  -36.3560   23.8740 C   0  0  0  0  0  3  0  0  0  0  0  0
  -27.5530  -37.2330   24.7140 C   0  0  0  0  0  1  0  0  0  0  0  0
  -26.4560  -37.4050   23.7640 N   0  0  0  0  0  0  0  0  0  0  0  0
  -26.0540  -38.3260   23.9110 H   0  0  0  0  0  0  0  0  0  0  0  0
  -26.3730  -31.7520   25.1170 C   0  0  1  0  0  0  0  0  0  0  0  0
  -25.2660  -31.5370   26.1750 C   0  0  0  0  0  1  0  0  0  0  0  0
  -26.9530  -30.3700   24.7420 C   0  0  0  0  0  1  0  0  0  0  0  0
  -27.5290  -32.5420   25.7740 C   0  0  0  0  0  1  0  0  0  0  0  0
  1 18  1  0
  2  7  1  0
  3  4  1  0
  3  2  1  0
  5  4  1  0
  5 23  1  0
  5  6  1  0
  7  1  1  0
  7  6  1  0
  8  1  2  0
  9 10  1  0
 10 14  1  0
 11 10  2  0
 11 15  1  0
 12  9  2  0
 13 11  1  0
 14 16  1  0
 15 16  1  0
 17 13  2  0
 17 12  1  0
 18 12  1  0
 19 18  1  0
 20 21  2  0
 21 40  1  0
 22 21  1  0
 22 25  1  0
 23 20  1  0
 23 24  1  0
 24 22  2  0
 25 26  1  0
 26 27  2  0
 28 31  1  0
 28 27  1  0
 29 28  2  0
 30 29  1  0
 30 25  2  0
 31 32  1  0
 32 33  1  0
 33 34  2  0
 35 34  1  0
 35 39  1  0
 36 35  2  0
 37 32  2  0
 37 36  1  0
 38 37  1  0
 40 41  1  0
 41 44  1  0
 41 43  1  0
 42 40  2  0
 45 46  1  0
 45 20  1  0
 47 45  1  0
 48 13  1  0
 48 50  1  0
 49 48  1  0
 51 52  1  0
 51 50  2  0
 53 64  2  0
 54 52  1  0
 54 59  1  0
 55 63  1  0
 55 65  1  0
 56 62  1  0
 56 58  1  0
 57 63  1  0
 58 57  1  0
 59 58  2  0
 60 54  2  0
 61 60  1  0
 61 56  2  0
 62 55  1  0
 63 53  1  0
 65 67  2  0
 66 65  1  0
 68 66  1  0
 69 78  2  0
 69 74  1  0
 70 66  1  0
 70 74  1  0
 71 70  1  0
 72 73  1  0
 72 71  1  0
 73 69  1  0
 74 75  2  0
 75 76  1  0
 77 76  2  0
 78 77  1  0
 79 53  1  0
 79 80  1  0
 79 89  1  0
 80 83  1  0
 81 85  1  0
 81 80  1  0
 82 81  2  0
 85 84  1  0
 87 85  1  0
 87 88  1  0
 87 86  1  0
 89 92  1  1
 89 90  1  0
 91 89  1  0
M  ISO  4   1 100  18 100  51 101  52 101
M  END
>  <TORSDO>  (60) 
F 18

>  <SCORE>  (60) 
-15.699

>  <name>  (60) 
59

>  <ligand_id>  (60) 
59

>  <original_smiles>  (60) 
[H]c1c([H])c([H])c2c(c1[H])C([H])([H])C([H])([H])C([H])([H])C2([H])N([H])C(=O)C1([H])N(C(=O)C([H])(N([H])C(=O)C([H])(N([H])C([H])([H])[H])C([H])([H])[H])C(C([H])([H])[H])(C([H])([H])[H])C([H])([H])[H])C([H])([H])c2c([H])c(OC([H])([H])C([H])([H])N([H])c3nc(N([H])C(=O)N4C([H])([H])C([H])([H])C([H])([H])C([H])(n5nc(-c6c([H])c([H])c(Oc7c([H])c([H])c(F)c([H])c7F)c([H])c6[H])c(C(=O)N([H])[H])c5N([H])[H])C4([H])[H])c([H])c4c3C([H])([H])C([H])([H])C4([H])[H])c([H])c([H])c2C1([H])[H]

>  <smiles>  (60) 
[H]c1c([H])c([H])c2c(c1[H])C([H])([H])C([H])([H])C([H])([H])C2([H])N([H])C(=O)C1([H])N(C(=O)C([H])(N([H])C(=O)C([H])(N([H])C([H])([H])[H])C([H])([H])[H])C(C([H])([H])[H])(C([H])([H])[H])C([H])([H])[H])C([H])([H])c2c([H])c(OC([H])([H])C([H])([H])N([H])c3nc(N([H])C(=O)N4C([H])([H])C([H])([H])C([H])([H])C([H])(n5nc(-c6c([H])c([H])c(Oc7c([H])c([H])c(F)c([H])c7F)c([H])c6[H])c(C(=O)N([H])[H])c5N([H])[H])C4([H])[H])c([H])c4c3C([H])([H])C([H])([H])C4([H])[H])c([H])c([H])c2C1([H])[H]

$$$$
60:0:0
     RDKit          3D

 92101  0  0  1  0  0  0  0  0999 V2000
  -27.0750  -23.2900   19.2650 C   0  0  0  0  0  3  0  0  0  0  0  0
  -26.7770  -22.0030   18.7700 C   0  0  0  0  0  3  0  0  0  0  0  0
  -29.0610  -22.3640   20.2890 C   0  0  0  0  0  3  0  0  0  0  0  0
  -28.7940  -21.0100   19.7770 C   0  0  0  0  0  0  0  0  0  0  0  0
  -28.2150  -23.5470   20.0540 C   0  0  0  0  0  0  0  0  0  0  0  0
  -27.6000  -20.8800   19.0280 C   0  0  0  0  0  0  0  0  0  0  0  0
  -29.5350  -18.5200   21.0290 C   0  0  0  0  0  2  0  0  0  0  0  0
  -29.8310  -18.4240   19.0010 C   0  0  0  0  0  2  0  0  0  0  0  0
  -29.7150  -19.6840   19.9740 C   0  0  0  0  0  3  0  0  0  0  0  0
  -30.3600  -17.5000   20.1500 C   0  0  0  0  0  3  0  0  0  0  0  0
  -30.7080  -14.8570   19.9230 C   0  0  0  0  0  0  0  0  0  0  0  0
  -30.4540  -12.5660   18.9420 C   0  0  0  0  0  2  0  0  0  0  0  0
  -29.4380  -12.6250   17.7780 C   0  0  0  0  0  2  0  0  0  0  0  0
  -27.9950  -12.4540   18.2940 C   0  0  0  0  0  2  0  0  0  0  0  0
  -27.6950  -13.3370   19.5340 C   0  0  0  0  0  3  0  0  0  0  0  0
  -28.8220  -13.2610   20.5830 C   0  0  0  0  0  2  0  0  0  0  0  0
  -30.0750  -13.6290   19.9060 N   0  0  0  0  0  0  0  0  0  0  0  0
  -31.8750  -14.9450   19.5370 O   0  0  0  0  0  0  0  0  0  0  0  0
  -29.9620  -16.0070   20.1800 N   0  0  0  0  0  0  0  0  0  0  0  0
  -29.0110  -15.8220   20.4600 H   0  0  0  0  0  0  0  0  0  0  0  0
  -25.3670  -13.9190   20.4380 C   0  0  0  0  0  0  0  0  0  0  0  0
  -24.3210  -13.1400   20.8520 C   0  0  0  0  0  0  0  0  0  0  0  0
  -24.7680  -11.7870   20.7500 C   0  0  0  0  0  0  0  0  0  0  0  0
  -26.3850  -13.0430   20.1060 N   0  0  0  0  0  0  0  0  0  0  0  0
  -26.0360  -11.7530   20.3550 N   0  0  0  0  0  0  0  0  0  0  0  0
  -24.0440  -10.5240   20.9480 C   0  0  0  0  0  0  0  0  0  0  0  0
  -24.4960   -9.5470   21.8610 C   0  0  0  0  0  3  0  0  0  0  0  0
  -23.7700   -8.3520   22.0510 C   0  0  0  0  0  3  0  0  0  0  0  0
  -22.5750   -8.1270   21.3300 C   0  0  0  0  0  0  0  0  0  0  0  0
  -22.1390   -9.0910   20.4030 C   0  0  0  0  0  3  0  0  0  0  0  0
  -22.8680  -10.2760   20.2110 C   0  0  0  0  0  3  0  0  0  0  0  0
  -21.8190   -6.9850   21.4330 O   0  0  0  0  0  0  0  0  0  0  0  0
  -21.7600   -6.2620   22.6000 C   0  0  0  0  0  0  0  0  0  0  0  0
  -21.2930   -6.8260   23.8050 C   0  0  0  0  0  3  0  0  0  0  0  0
  -21.1820   -6.0260   24.9600 C   0  0  0  0  0  3  0  0  0  0  0  0
  -21.5320   -4.6640   24.9090 C   0  0  0  0  0  0  0  0  0  0  0  0
  -21.9950   -4.0990   23.7080 C   0  0  0  0  0  3  0  0  0  0  0  0
  -22.1050   -4.8950   22.5540 C   0  0  0  0  0  0  0  0  0  0  0  0
  -22.5310   -4.3400   21.3950 F   0  0  0  0  0  0  0  0  0  0  0  0
  -21.4190   -3.8940   26.0160 F   0  0  0  0  0  0  0  0  0  0  0  0
  -22.9480  -13.6180   21.2250 C   0  0  0  0  0  0  0  0  0  0  0  0
  -22.2700  -12.9050   22.1170 N   0  0  0  0  0  0  0  0  0  0  0  0
  -22.4860  -14.6610   20.7600 O   0  0  0  0  0  0  0  0  0  0  0  0
  -22.6590  -12.0630   22.5160 H   0  0  0  0  0  0  0  0  0  0  0  0
  -21.3500  -13.2030   22.4090 H   0  0  0  0  0  0  0  0  0  0  0  0
  -25.5330  -15.2930   20.2940 N   0  0  0  0  0  0  0  0  0  0  0  0
  -24.7850  -15.9470   20.4960 H   0  0  0  0  0  0  0  0  0  0  0  0
  -26.3550  -15.7390   19.9140 H   0  0  0  0  0  0  0  0  0  0  0  0
  -25.9290  -19.2170   18.7010 C   0  0  0  0  0  1  0  0  0  0  0  0
  -27.2710  -19.6430   18.5350 O   0  0  0  0  0  0  0  0  0  0  0  0
  -28.3480  -24.9870   20.7890 C   0  0  0  0  0  2  0  0  0  0  0  0
  -28.4200  -26.3570   20.1320 O   0  0  0  0  0  0  0  0  0  0  0  0
  -24.6590  -31.8710   23.2200 C   0  0  0  0  0  0  0  0  0  0  0  0
  -27.3310  -27.2660   20.1800 C   0  0  0  0  0  0  0  0  0  0  0  0
  -23.4940  -30.4700   21.5560 C   0  0  0  0  0  3  0  0  0  0  0  0
  -24.9750  -28.9250   20.1470 C   0  0  0  0  0  0  0  0  0  0  0  0
  -26.0400  -30.7750   21.4300 C   0  0  0  0  0  2  0  0  0  0  0  0
  -26.1360  -29.3930   20.7780 C   0  0  0  0  0  0  0  0  0  0  0  0
  -27.3190  -28.5760   20.7840 C   0  0  0  0  0  3  0  0  0  0  0  0
  -26.1580  -26.8900   19.5050 C   0  0  0  0  0  3  0  0  0  0  0  0
  -24.9960  -27.6840   19.4930 C   0  0  0  0  0  3  0  0  0  0  0  0
  -23.7410  -29.8060   20.1750 C   0  0  0  0  0  2  0  0  0  0  0  0
  -24.7490  -31.0580   22.1250 N   0  0  0  0  0  0  0  0  0  0  0  0
  -23.5650  -32.1430   23.7350 O   0  0  0  0  0  0  0  0  0  0  0  0
  -22.8150  -29.4510   22.5070 C   0  0  0  0  0  0  0  0  0  0  0  0
  -21.4850  -29.2930   22.3870 N   0  0  0  0  0  0  0  0  0  0  0  0
  -23.4870  -28.8120   23.3190 O   0  0  0  0  0  0  0  0  0  0  0  0
  -20.9970  -29.8680   21.7160 H   0  0  0  0  0  0  0  0  0  0  0  0
  -18.0970  -28.1240   22.8950 C   0  0  0  0  0  0  0  0  0  0  0  0
  -20.6610  -28.3500   23.1480 C   0  0  0  0  0  3  0  0  0  0  0  0
  -20.7400  -26.9280   22.5470 C   0  0  0  0  0  2  0  0  0  0  0  0
  -19.6300  -26.6380   21.5340 C   0  0  0  0  0  2  0  0  0  0  0  0
  -18.2510  -26.7890   22.1860 C   0  0  0  0  0  2  0  0  0  0  0  0
  -19.2280  -28.8640   23.3320 C   0  0  0  0  0  0  0  0  0  0  0  0
  -19.0270  -30.1140   23.9560 C   0  0  0  0  0  3  0  0  0  0  0  0
  -17.7290  -30.6260   24.1450 C   0  0  0  0  0  3  0  0  0  0  0  0
  -16.6140  -29.8840   23.7220 C   0  0  0  0  0  3  0  0  0  0  0  0
  -16.7980  -28.6340   23.1050 C   0  0  0  0  0  3  0  0  0  0  0  0
  -25.9270  -32.5130   23.8660 C   0  0  0  0  0  3  0  0  0  0  0  0
  -26.4230  -31.7450   25.1540 C   0  0  1  0  0  0  0  0  0  0  0  0
  -25.3150  -31.5020   26.2050 C   0  0  0  0  0  1  0  0  0  0  0  0
  -27.0240  -30.3690   24.7790 C   0  0  0  0  0  1  0  0  0  0  0  0
  -27.5560  -32.5460   25.8370 C   0  0  0  0  0  1  0  0  0  0  0  0
  -25.6030  -33.9090   24.1990 N   0  0  0  0  0  0  0  0  0  0  0  0
  -25.9150  -34.9670   23.4390 C   0  0  0  0  0  0  0  0  0  0  0  0
  -26.5750  -34.8710   22.4010 O   0  0  0  0  0  0  0  0  0  0  0  0
  -25.0170  -34.0550   25.0070 H   0  0  0  0  0  0  0  0  0  0  0  0
  -24.1610  -36.7420   23.1040 C   0  0  0  0  0  1  0  0  0  0  0  0
  -25.4170  -36.3510   23.9000 C   0  0  0  0  0  3  0  0  0  0  0  0
  -27.5470  -37.2730   24.7060 C   0  0  0  0  0  1  0  0  0  0  0  0
  -26.4340  -37.4170   23.7720 N   0  0  0  0  0  0  0  0  0  0  0  0
  -26.0160  -38.3320   23.9150 H   0  0  0  0  0  0  0  0  0  0  0  0
  1  5  1  0
  2  6  1  0
  2  1  2  0
  4  3  1  0
  5  3  2  0
  5 51  1  0
  6  4  2  0
  8  9  1  0
  8 10  1  0
  9  4  1  0
  9  7  1  0
 10 19  1  0
 10  7  1  0
 11 19  1  0
 12 17  1  0
 13 14  1  0
 13 12  1  0
 15 14  1  0
 15 24  1  0
 15 16  1  0
 17 11  1  0
 17 16  1  0
 18 11  2  0
 19 20  1  0
 21 22  2  0
 22 41  1  0
 23 22  1  0
 23 26  1  0
 24 25  1  0
 24 21  1  0
 25 23  2  0
 26 27  1  0
 27 28  2  0
 29 32  1  0
 29 28  1  0
 30 29  2  0
 31 30  1  0
 31 26  2  0
 32 33  1  0
 33 34  1  0
 34 35  2  0
 36 35  1  0
 36 40  1  0
 37 36  2  0
 38 33  2  0
 38 37  1  0
 39 38  1  0
 41 42  1  0
 42 45  1  0
 42 44  1  0
 43 41  2  0
 46 21  1  0
 46 47  1  0
 48 46  1  0
 50 49  1  0
 50  6  1  0
 52 54  1  0
 52 51  1  0
 53 64  2  0
 54 59  1  0
 55 63  1  0
 55 65  1  0
 56 62  1  0
 56 58  1  0
 57 63  1  0
 58 59  2  0
 58 57  1  0
 60 54  2  0
 61 60  1  0
 61 56  2  0
 62 55  1  0
 63 53  1  0
 65 67  2  0
 66 65  1  0
 68 66  1  0
 69 78  2  0
 69 74  1  0
 70 66  1  0
 70 74  1  0
 71 70  1  0
 72 73  1  0
 72 71  1  0
 73 69  1  0
 74 75  2  0
 75 76  1  0
 77 76  2  0
 78 77  1  0
 79 53  1  0
 79 84  1  0
 79 80  1  0
 80 83  1  1
 80 81  1  0
 82 80  1  0
 84 87  1  0
 85 89  1  0
 85 84  1  0
 86 85  2  0
 89 88  1  0
 91 89  1  0
 91 92  1  0
 91 90  1  0
M  ISO  4  11 100  19 100  51 101  52 101
M  END
>  <TORSDO>  (61) 
F 19

>  <SCORE>  (61) 
-13.673

>  <name>  (61) 
60

>  <ligand_id>  (61) 
60

>  <original_smiles>  (61) 
[H]c1c([H])c([H])c2c(c1[H])C([H])([H])C([H])([H])C([H])([H])C2([H])N([H])C(=O)C1([H])N(C(=O)C([H])(N([H])C(=O)C([H])(N([H])C([H])([H])[H])C([H])([H])[H])C(C([H])([H])[H])(C([H])([H])[H])C([H])([H])[H])C([H])([H])c2c([H])c(OC([H])([H])c3c([H])c([H])c(OC([H])([H])[H])c(C4([H])C([H])([H])C([H])(N([H])C(=O)N5C([H])([H])C([H])([H])C([H])([H])C([H])(n6nc(-c7c([H])c([H])c(Oc8c([H])c([H])c(F)c([H])c8F)c([H])c7[H])c(C(=O)N([H])[H])c6N([H])[H])C5([H])[H])C4([H])[H])c3[H])c([H])c([H])c2C1([H])[H]

>  <smiles>  (61) 
[H]c1c([H])c([H])c2c(c1[H])C([H])([H])C([H])([H])C([H])([H])C2([H])N([H])C(=O)C1([H])N(C(=O)C([H])(N([H])C(=O)C([H])(N([H])C([H])([H])[H])C([H])([H])[H])C(C([H])([H])[H])(C([H])([H])[H])C([H])([H])[H])C([H])([H])c2c([H])c(OC([H])([H])c3c([H])c([H])c(OC([H])([H])[H])c(C4([H])C([H])([H])C([H])(N([H])C(=O)N5C([H])([H])C([H])([H])C([H])([H])C([H])(n6nc(-c7c([H])c([H])c(Oc8c([H])c([H])c(F)c([H])c8F)c([H])c7[H])c(C(=O)N([H])[H])c6N([H])[H])C5([H])[H])C4([H])[H])c3[H])c([H])c([H])c2C1([H])[H]

$$$$
61:0:0
     RDKit          3D

 97106  0  0  1  0  0  0  0  0999 V2000
  -29.1250  -20.7420   19.5310 N   0  0  0  0  0  4  0  0  0  0  0  0
  -29.9250  -20.8780   18.9350 H   0  0  0  0  0  0  0  0  0  0  0  0
  -29.4500  -20.9290   20.4650 H   0  0  0  0  0  0  0  0  0  0  0  0
  -30.2690  -15.3510   19.4320 C   0  0  0  0  0  0  0  0  0  0  0  0
  -30.1110  -12.9720   18.5520 C   0  0  0  0  0  2  0  0  0  0  0  0
  -29.0390  -12.8500   17.4470 C   0  0  0  0  0  2  0  0  0  0  0  0
  -27.6520  -12.5840   18.0630 C   0  0  0  0  0  2  0  0  0  0  0  0
  -27.3500  -13.5220   19.2610 C   0  0  0  0  0  3  0  0  0  0  0  0
  -28.5340  -13.6280   20.2420 C   0  0  0  0  0  2  0  0  0  0  0  0
  -29.6920  -14.0800   19.4610 N   0  0  0  0  0  0  0  0  0  0  0  0
  -31.4650  -15.4040   19.1210 O   0  0  0  0  0  0  0  0  0  0  0  0
  -28.5450  -18.4740   18.1750 C   0  0  0  0  0  2  0  0  0  0  0  0
  -28.5350  -16.9260   18.4670 C   0  0  0  0  0  2  0  0  0  0  0  0
  -28.7960  -19.1730   19.5170 C   0  0  0  0  0  3  0  0  0  0  0  0
  -29.8410  -18.0000   20.0460 C   0  0  0  0  0  3  0  0  0  0  0  0
  -29.4900  -16.5610   19.5420 N   0  0  0  0  0  0  0  0  0  0  0  0
  -25.0840  -14.0410   20.3260 C   0  0  0  0  0  0  0  0  0  0  0  0
  -24.0900  -13.2380   20.8090 C   0  0  0  0  0  0  0  0  0  0  0  0
  -24.5720  -11.8970   20.6920 C   0  0  0  0  0  0  0  0  0  0  0  0
  -26.1010  -13.1880   19.9310 N   0  0  0  0  0  0  0  0  0  0  0  0
  -25.8130  -11.8930   20.2190 N   0  0  0  0  0  0  0  0  0  0  0  0
  -23.9000  -10.6160   20.9460 C   0  0  0  0  0  0  0  0  0  0  0  0
  -24.3680   -9.7170   21.9280 C   0  0  0  0  0  3  0  0  0  0  0  0
  -23.6900   -8.5030   22.1670 C   0  0  0  0  0  3  0  0  0  0  0  0
  -22.5310   -8.1780   21.4220 C   0  0  0  0  0  0  0  0  0  0  0  0
  -22.0840   -9.0660   20.4280 C   0  0  0  0  0  3  0  0  0  0  0  0
  -22.7620  -10.2730   20.1890 C   0  0  0  0  0  3  0  0  0  0  0  0
  -21.8250   -7.0080   21.5670 O   0  0  0  0  0  0  0  0  0  0  0  0
  -21.6850   -6.4000   22.7880 C   0  0  0  0  0  0  0  0  0  0  0  0
  -21.1090   -7.0670   23.8920 C   0  0  0  0  0  3  0  0  0  0  0  0
  -20.9190   -6.3800   25.1080 C   0  0  0  0  0  3  0  0  0  0  0  0
  -21.2960   -5.0280   25.2210 C   0  0  0  0  0  0  0  0  0  0  0  0
  -21.8660   -4.3620   24.1210 C   0  0  0  0  0  3  0  0  0  0  0  0
  -22.0570   -5.0450   22.9070 C   0  0  0  0  0  0  0  0  0  0  0  0
  -22.5860   -4.3920   21.8450 F   0  0  0  0  0  0  0  0  0  0  0  0
  -21.1070   -4.3660   26.3860 F   0  0  0  0  0  0  0  0  0  0  0  0
  -22.7310  -13.6810   21.2640 C   0  0  0  0  0  0  0  0  0  0  0  0
  -22.1510  -12.9810   22.2330 N   0  0  0  0  0  0  0  0  0  0  0  0
  -22.1930  -14.6830   20.7910 O   0  0  0  0  0  0  0  0  0  0  0  0
  -22.6010  -12.1720   22.6330 H   0  0  0  0  0  0  0  0  0  0  0  0
  -21.2450  -13.2590   22.5810 H   0  0  0  0  0  0  0  0  0  0  0  0
  -25.2000  -15.4190   20.1640 N   0  0  0  0  0  0  0  0  0  0  0  0
  -24.4460  -16.0540   20.4010 H   0  0  0  0  0  0  0  0  0  0  0  0
  -26.0070  -15.8860   19.7790 H   0  0  0  0  0  0  0  0  0  0  0  0
  -29.9310  -16.6360   22.2180 C   0  0  0  0  0  1  0  0  0  0  0  0
  -29.9930  -18.0480   21.5950 C   0  0  0  0  0  3  0  0  0  0  0  0
  -32.4340  -20.9240   22.3340 C   0  0  0  0  0  2  0  0  0  0  0  0
  -32.1600  -20.3800   23.7420 C   0  0  0  0  0  2  0  0  0  0  0  0
  -31.5120  -20.1470   21.3920 C   0  0  0  0  0  2  0  0  0  0  0  0
  -31.1750  -19.2170   23.5710 C   0  0  0  0  0  2  0  0  0  0  0  0
  -31.2510  -18.8070   22.0910 C   0  0  0  0  0  3  0  0  0  0  0  0
  -27.4270  -21.6940   17.8730 C   0  0  0  0  0  1  0  0  0  0  0  0
  -28.1030  -21.9360   19.2360 C   0  0  0  0  0  3  0  0  0  0  0  0
  -29.6980  -23.8440   18.3750 C   0  0  0  0  0  1  0  0  0  0  0  0
  -28.5340  -23.5870   19.3440 C   0  0  0  0  0  3  0  0  0  0  0  0
  -27.4540  -24.8900   19.1800 C   0  0  0  0  0  2  0  0  0  0  0  0
  -27.7090  -26.4270   19.3410 O   0  0  0  0  0  0  0  0  0  0  0  0
  -24.3170  -31.8080   23.1150 C   0  0  0  0  0  0  0  0  0  0  0  0
  -26.6320  -27.3870   19.4710 C   0  0  0  0  0  0  0  0  0  0  0  0
  -22.9700  -30.4970   21.5240 C   0  0  0  0  0  3  0  0  0  0  0  0
  -24.2780  -29.0680   19.8350 C   0  0  0  0  0  0  0  0  0  0  0  0
  -25.4880  -30.8390   21.0990 C   0  0  0  0  0  2  0  0  0  0  0  0
  -25.5110  -29.5020   20.3340 C   0  0  0  0  0  0  0  0  0  0  0  0
  -26.6850  -28.6790   20.1360 C   0  0  0  0  0  3  0  0  0  0  0  0
  -25.3620  -27.0540   18.9500 C   0  0  0  0  0  3  0  0  0  0  0  0
  -24.2140  -27.8560   19.1310 C   0  0  0  0  0  3  0  0  0  0  0  0
  -23.0470  -29.9250   20.0840 C   0  0  0  0  0  2  0  0  0  0  0  0
  -24.2830  -31.0660   21.9650 N   0  0  0  0  0  0  0  0  0  0  0  0
  -23.2890  -32.0240   23.7770 O   0  0  0  0  0  0  0  0  0  0  0  0
  -22.4250  -29.4060   22.4800 C   0  0  0  0  0  0  0  0  0  0  0  0
  -21.1190  -29.0990   22.3810 N   0  0  0  0  0  0  0  0  0  0  0  0
  -23.1780  -28.8410   23.2760 O   0  0  0  0  0  0  0  0  0  0  0  0
  -20.5590  -29.6110   21.7130 H   0  0  0  0  0  0  0  0  0  0  0  0
  -17.9280  -27.4460   22.8420 C   0  0  0  0  0  0  0  0  0  0  0  0
  -20.4200  -28.0660   23.1520 C   0  0  0  0  0  3  0  0  0  0  0  0
  -20.7330  -26.6540   22.6020 C   0  0  0  0  0  2  0  0  0  0  0  0
  -19.7070  -26.1650   21.5750 C   0  0  0  0  0  2  0  0  0  0  0  0
  -18.3060  -26.1250   22.1890 C   0  0  0  0  0  2  0  0  0  0  0  0
  -18.9200  -28.3620   23.2790 C   0  0  0  0  0  0  0  0  0  0  0  0
  -18.5150  -29.5890   23.8510 C   0  0  0  0  0  3  0  0  0  0  0  0
  -17.1500  -29.9030   23.9870 C   0  0  0  0  0  3  0  0  0  0  0  0
  -16.1710  -28.9850   23.5640 C   0  0  0  0  0  3  0  0  0  0  0  0
  -16.5610  -27.7580   22.9980 C   0  0  0  0  0  3  0  0  0  0  0  0
  -25.6420  -32.4380   23.6380 C   0  0  0  0  0  3  0  0  0  0  0  0
  -25.3480  -33.8160   24.0630 N   0  0  0  0  0  0  0  0  0  0  0  0
  -25.6090  -34.9130   23.3400 C   0  0  0  0  0  0  0  0  0  0  0  0
  -26.1920  -34.8720   22.2530 O   0  0  0  0  0  0  0  0  0  0  0  0
  -24.8180  -33.9230   24.9170 H   0  0  0  0  0  0  0  0  0  0  0  0
  -23.8480  -36.7060   23.2350 C   0  0  0  0  0  1  0  0  0  0  0  0
  -25.1580  -36.2730   23.9120 C   0  0  0  0  0  3  0  0  0  0  0  0
  -27.3490  -37.1360   24.6020 C   0  0  0  0  0  1  0  0  0  0  0  0
  -26.1720  -37.3400   23.7650 N   0  0  0  0  0  0  0  0  0  0  0  0
  -25.7750  -38.2500   23.9900 H   0  0  0  0  0  0  0  0  0  0  0  0
  -26.2830  -31.6250   24.8290 C   0  0  1  0  0  0  0  0  0  0  0  0
  -25.2920  -31.3060   25.9720 C   0  0  0  0  0  1  0  0  0  0  0  0
  -26.8680  -30.2860   24.3270 C   0  0  0  0  0  1  0  0  0  0  0  0
  -27.4680  -32.4210   25.4250 C   0  0  0  0  0  1  0  0  0  0  0  0
  1  3  1  0
  2  1  1  0
  4 10  1  0
  4 16  1  0
  5 10  1  0
  6  7  1  0
  6  5  1  0
  8  7  1  0
  8 20  1  0
  8  9  1  0
 10  9  1  0
 11  4  2  0
 12 13  1  0
 12 14  1  0
 13 16  1  0
 14  1  1  0
 14 15  1  0
 15 46  1  0
 16 15  1  0
 17 18  2  0
 18 37  1  0
 19 18  1  0
 19 22  1  0
 20 21  1  0
 20 17  1  0
 21 19  2  0
 22 23  1  0
 23 24  2  0
 25 28  1  0
 25 24  1  0
 26 25  2  0
 27 26  1  0
 27 22  2  0
 28 29  1  0
 29 34  2  0
 29 30  1  0
 30 31  2  0
 31 32  1  0
 32 36  1  0
 33 32  2  0
 34 33  1  0
 35 34  1  0
 37 38  1  0
 38 41  1  0
 38 40  1  0
 39 37  2  0
 42 17  1  0
 42 43  1  0
 44 42  1  0
 46 51  1  0
 46 45  1  0
 47 48  1  0
 49 51  1  0
 49 47  1  0
 50 48  1  0
 51 50  1  0
 53 52  1  0
 53 55  1  0
 53  1  1  0
 55 54  1  0
 56 57  1  0
 56 55  1  0
 57 59  1  0
 58 69  2  0
 59 64  1  0
 60 68  1  0
 60 70  1  0
 61 67  1  0
 61 63  1  0
 62 68  1  0
 63 62  1  0
 64 63  2  0
 65 66  1  0
 65 59  2  0
 66 61  2  0
 67 60  1  0
 68 58  1  0
 70 72  2  0
 71 70  1  0
 73 71  1  0
 74 83  2  0
 74 79  1  0
 75 71  1  0
 75 79  1  0
 76 75  1  0
 77 78  1  0
 77 76  1  0
 78 74  1  0
 79 80  2  0
 80 81  1  0
 82 81  2  0
 83 82  1  0
 84 58  1  0
 84 85  1  0
 84 94  1  0
 85 88  1  0
 86 90  1  0
 86 85  1  0
 87 86  2  0
 90 89  1  0
 92 90  1  0
 92 93  1  0
 92 91  1  0
 94 97  1  1
 94 95  1  0
 96 94  1  0
M  ISO  4   4 100  16 100  56 101  57 101
M  END
>  <TORSDO>  (62) 
F 21

>  <SCORE>  (62) 
-12.295

>  <name>  (62) 
61

>  <ligand_id>  (62) 
61

>  <original_smiles>  (62) 
[H]c1c([H])c([H])c2c(c1[H])C([H])([H])C([H])([H])C([H])([H])C2([H])N([H])C(=O)C1([H])N(C(=O)C([H])(N([H])C(=O)C([H])(N([H])C([H])([H])[H])C([H])([H])[H])C(C([H])([H])[H])(C([H])([H])[H])C([H])([H])[H])C([H])([H])c2c([H])c(OC([H])([H])C([H])(C([H])([H])[H])C([H])(C([H])([H])[H])[N+]([H])([H])C3([H])C([H])([H])C([H])([H])N(C(=O)N4C([H])([H])C([H])([H])C([H])([H])C([H])(n5nc(-c6c([H])c([H])c(Oc7c([H])c([H])c(F)c([H])c7F)c([H])c6[H])c(C(=O)N([H])[H])c5N([H])[H])C4([H])[H])C3([H])C([H])(C([H])([H])[H])C3([H])C([H])([H])C([H])([H])C([H])([H])C3([H])[H])c([H])c([H])c2C1([H])[H]

>  <smiles>  (62) 
[H]c1c([H])c([H])c2c(c1[H])C([H])([H])C([H])([H])C([H])([H])C2([H])N([H])C(=O)C1([H])N(C(=O)C([H])(N([H])C(=O)C([H])(N([H])C([H])([H])[H])C([H])([H])[H])C(C([H])([H])[H])(C([H])([H])[H])C([H])([H])[H])C([H])([H])c2c([H])c(OC([H])([H])C([H])(C([H])([H])[H])C([H])(C([H])([H])[H])[N+]([H])([H])C3([H])C([H])([H])C([H])([H])N(C(=O)N4C([H])([H])C([H])([H])C([H])([H])C([H])(n5nc(-c6c([H])c([H])c(Oc7c([H])c([H])c(F)c([H])c7F)c([H])c6[H])c(C(=O)N([H])[H])c5N([H])[H])C4([H])[H])C3([H])C([H])(C([H])([H])[H])C3([H])C([H])([H])C([H])([H])C([H])([H])C3([H])[H])c([H])c([H])c2C1([H])[H]

$$$$
62:0:0
     RDKit          3D

 96105  0  0  1  0  0  0  0  0999 V2000
  -32.1900  -19.3990   20.2410 C   0  0  0  0  0  3  0  0  0  0  0  0
  -31.2880  -21.9240   20.6910 C   0  0  0  0  0  3  0  0  0  0  0  0
  -30.7860  -19.5790   20.2430 C   0  0  0  0  0  0  0  0  0  0  0  0
  -30.3060  -20.9370   20.4060 C   0  0  0  0  0  0  0  0  0  0  0  0
  -33.0540  -20.4640   20.5120 C   0  0  0  0  0  0  0  0  0  0  0  0
  -34.5500  -20.2450   20.5610 C   0  0  0  0  0  1  0  0  0  0  0  0
  -32.6140  -21.7060   20.7580 N   0  0  0  0  0  0  0  0  0  0  0  0
  -29.8530  -17.9470   18.5420 C   0  0  0  0  0  1  0  0  0  0  0  0
  -29.9320  -18.2820   20.0400 C   0  0  0  0  0  3  0  0  0  0  0  0
  -30.4410  -17.0210   20.8910 C   0  0  0  0  0  3  0  0  0  0  0  0
  -30.6860  -14.5880   20.0960 C   0  0  0  0  0  0  0  0  0  0  0  0
  -30.3720  -12.4050   18.9650 C   0  0  0  0  0  2  0  0  0  0  0  0
  -29.3930  -12.5970   17.7890 C   0  0  0  0  0  2  0  0  0  0  0  0
  -27.9310  -12.4620   18.2640 C   0  0  0  0  0  2  0  0  0  0  0  0
  -27.6360  -13.2960   19.5410 C   0  0  0  0  0  3  0  0  0  0  0  0
  -28.7260  -13.0820   20.6130 C   0  0  0  0  0  2  0  0  0  0  0  0
  -30.0180  -13.4000   19.9910 N   0  0  0  0  0  0  0  0  0  0  0  0
  -31.8460  -14.7160   19.6980 O   0  0  0  0  0  0  0  0  0  0  0  0
  -29.9510  -15.6610   20.5030 N   0  0  0  0  0  0  0  0  0  0  0  0
  -28.9800  -15.4680   20.6950 H   0  0  0  0  0  0  0  0  0  0  0  0
  -25.2680  -13.9190   20.3180 C   0  0  0  0  0  0  0  0  0  0  0  0
  -24.2060  -13.1550   20.7230 C   0  0  0  0  0  0  0  0  0  0  0  0
  -24.6560  -11.8000   20.6840 C   0  0  0  0  0  0  0  0  0  0  0  0
  -26.2990  -13.0290   20.0610 N   0  0  0  0  0  0  0  0  0  0  0  0
  -25.9380  -11.7500   20.3410 N   0  0  0  0  0  0  0  0  0  0  0  0
  -23.9260  -10.5430   20.8980 C   0  0  0  0  0  0  0  0  0  0  0  0
  -24.3650   -9.5870   21.8410 C   0  0  0  0  0  3  0  0  0  0  0  0
  -23.6380   -8.3950   22.0440 C   0  0  0  0  0  3  0  0  0  0  0  0
  -22.4560   -8.1510   21.3050 C   0  0  0  0  0  0  0  0  0  0  0  0
  -22.0340   -9.0950   20.3530 C   0  0  0  0  0  3  0  0  0  0  0  0
  -22.7620  -10.2790   20.1480 C   0  0  0  0  0  3  0  0  0  0  0  0
  -21.7000   -7.0080   21.4150 O   0  0  0  0  0  0  0  0  0  0  0  0
  -21.6490   -6.2890   22.5830 C   0  0  0  0  0  0  0  0  0  0  0  0
  -21.2310   -6.8710   23.7990 C   0  0  0  0  0  3  0  0  0  0  0  0
  -21.1270   -6.0790   24.9600 C   0  0  0  0  0  3  0  0  0  0  0  0
  -21.4310   -4.7060   24.9050 C   0  0  0  0  0  0  0  0  0  0  0  0
  -21.8430   -4.1230   23.6940 C   0  0  0  0  0  3  0  0  0  0  0  0
  -21.9470   -4.9130   22.5350 C   0  0  0  0  0  0  0  0  0  0  0  0
  -22.3230   -4.3430   21.3640 F   0  0  0  0  0  0  0  0  0  0  0  0
  -21.3260   -3.9420   26.0180 F   0  0  0  0  0  0  0  0  0  0  0  0
  -22.8200  -13.6410   21.0300 C   0  0  0  0  0  0  0  0  0  0  0  0
  -22.1100  -12.9550   21.9200 N   0  0  0  0  0  0  0  0  0  0  0  0
  -22.3730  -14.6640   20.5130 O   0  0  0  0  0  0  0  0  0  0  0  0
  -22.4780  -12.1220   22.3570 H   0  0  0  0  0  0  0  0  0  0  0  0
  -21.1800  -13.2620   22.1610 H   0  0  0  0  0  0  0  0  0  0  0  0
  -25.4370  -15.2860   20.1260 N   0  0  0  0  0  0  0  0  0  0  0  0
  -24.6790  -15.9480   20.2600 H   0  0  0  0  0  0  0  0  0  0  0  0
  -26.2700  -15.7180   19.7440 H   0  0  0  0  0  0  0  0  0  0  0  0
  -31.1040  -16.6530   23.4040 C   0  0  0  0  0  2  0  0  0  0  0  0
  -31.0830  -18.1520   23.1970 C   0  0  0  0  0  2  0  0  0  0  0  0
  -30.1910  -17.2610   22.3680 C   0  0  0  0  0  3  0  0  0  0  0  0
  -28.9730  -21.3290   20.2570 O   0  0  0  0  0  0  0  0  0  0  0  0
  -28.5060  -22.6140   20.7960 C   0  0  0  0  0  2  0  0  0  0  0  0
  -28.6250  -23.9510   19.9530 C   0  0  0  0  0  2  0  0  0  0  0  0
  -28.0770  -25.2350   20.6870 C   0  0  0  0  0  2  0  0  0  0  0  0
  -28.2530  -26.5400   20.0440 O   0  0  0  0  0  0  0  0  0  0  0  0
  -24.5750  -31.8400   23.1880 C   0  0  0  0  0  0  0  0  0  0  0  0
  -27.1350  -27.3650   20.0440 C   0  0  0  0  0  0  0  0  0  0  0  0
  -23.3400  -30.4620   21.5490 C   0  0  0  0  0  3  0  0  0  0  0  0
  -24.7670  -28.9320   20.0830 C   0  0  0  0  0  0  0  0  0  0  0  0
  -25.8690  -30.7990   21.3220 C   0  0  0  0  0  2  0  0  0  0  0  0
  -25.9400  -29.4310   20.6630 C   0  0  0  0  0  0  0  0  0  0  0  0
  -27.1330  -28.6600   20.6320 C   0  0  0  0  0  3  0  0  0  0  0  0
  -25.9470  -26.9010   19.4440 C   0  0  0  0  0  3  0  0  0  0  0  0
  -24.7690  -27.6700   19.4640 C   0  0  0  0  0  3  0  0  0  0  0  0
  -23.5290  -29.8000   20.1580 C   0  0  0  0  0  2  0  0  0  0  0  0
  -24.6140  -31.0490   22.0770 N   0  0  0  0  0  0  0  0  0  0  0  0
  -23.5010  -32.1120   23.7450 O   0  0  0  0  0  0  0  0  0  0  0  0
  -22.6940  -29.4340   22.5080 C   0  0  0  0  0  0  0  0  0  0  0  0
  -21.3660  -29.2670   22.4050 N   0  0  0  0  0  0  0  0  0  0  0  0
  -23.3870  -28.7930   23.3010 O   0  0  0  0  0  0  0  0  0  0  0  0
  -20.8680  -29.8400   21.7380 H   0  0  0  0  0  0  0  0  0  0  0  0
  -17.9910  -28.0860   22.9480 C   0  0  0  0  0  0  0  0  0  0  0  0
  -20.5560  -28.3250   23.1760 C   0  0  0  0  0  3  0  0  0  0  0  0
  -20.6380  -26.9000   22.5820 C   0  0  0  0  0  2  0  0  0  0  0  0
  -19.5160  -26.5970   21.5830 C   0  0  0  0  0  2  0  0  0  0  0  0
  -18.1460  -26.7440   22.2530 C   0  0  0  0  0  2  0  0  0  0  0  0
  -19.1230  -28.8360   23.3680 C   0  0  0  0  0  0  0  0  0  0  0  0
  -18.9250  -30.0930   23.9780 C   0  0  0  0  0  3  0  0  0  0  0  0
  -17.6270  -30.6020   24.1730 C   0  0  0  0  0  3  0  0  0  0  0  0
  -16.5100  -29.8490   23.7700 C   0  0  0  0  0  3  0  0  0  0  0  0
  -16.6930  -28.5940   23.1630 C   0  0  0  0  0  3  0  0  0  0  0  0
  -25.8700  -32.4630   23.7960 C   0  0  0  0  0  3  0  0  0  0  0  0
  -25.5700  -33.8570   24.1480 N   0  0  0  0  0  0  0  0  0  0  0  0
  -25.8930  -34.9190   23.3960 C   0  0  0  0  0  0  0  0  0  0  0  0
  -26.5470  -34.8250   22.3540 O   0  0  0  0  0  0  0  0  0  0  0  0
  -24.9900  -34.0040   24.9610 H   0  0  0  0  0  0  0  0  0  0  0  0
  -24.1660  -36.7200   23.0900 C   0  0  0  0  0  1  0  0  0  0  0  0
  -25.4170  -36.3020   23.8790 C   0  0  0  0  0  3  0  0  0  0  0  0
  -27.5680  -37.1690   24.6880 C   0  0  0  0  0  1  0  0  0  0  0  0
  -26.4520  -37.3530   23.7640 N   0  0  0  0  0  0  0  0  0  0  0  0
  -26.0510  -38.2730   23.9310 H   0  0  0  0  0  0  0  0  0  0  0  0
  -26.4060  -31.6730   25.0530 C   0  0  1  0  0  0  0  0  0  0  0  0
  -25.3310  -31.4240   26.1380 C   0  0  0  0  0  1  0  0  0  0  0  0
  -26.9780  -30.2990   24.6340 C   0  0  0  0  0  1  0  0  0  0  0  0
  -27.5720  -32.4540   25.7050 C   0  0  0  0  0  1  0  0  0  0  0  0
  1  3  2  0
  1  5  1  0
  2  7  1  0
  3  4  1  0
  4  2  2  0
  5  6  1  0
  5  7  2  0
  9  8  1  0
  9  3  1  0
  9 10  1  0
 10 19  1  0
 10 51  1  0
 11 19  1  0
 12 17  1  0
 13 14  1  0
 13 12  1  0
 15 14  1  0
 15 24  1  0
 15 16  1  0
 17 11  1  0
 17 16  1  0
 18 11  2  0
 19 20  1  0
 21 22  2  0
 22 41  1  0
 23 22  1  0
 23 26  1  0
 24 21  1  0
 24 25  1  0
 25 23  2  0
 26 27  1  0
 27 28  2  0
 29 32  1  0
 29 28  1  0
 30 29  2  0
 31 30  1  0
 31 26  2  0
 32 33  1  0
 33 34  1  0
 34 35  2  0
 36 35  1  0
 36 40  1  0
 37 36  2  0
 38 33  2  0
 38 37  1  0
 39 38  1  0
 41 42  1  0
 42 45  1  0
 42 44  1  0
 43 41  2  0
 46 47  1  0
 46 21  1  0
 48 46  1  0
 50 49  1  0
 51 50  1  0
 51 49  1  0
 52  4  1  0
 52 53  1  0
 54 55  1  0
 54 53  1  0
 56 58  1  0
 56 55  1  0
 57 68  2  0
 58 63  1  0
 59 67  1  0
 59 69  1  0
 60 66  1  0
 60 62  1  0
 61 67  1  0
 62 61  1  0
 63 62  2  0
 64 65  1  0
 64 58  2  0
 65 60  2  0
 66 59  1  0
 67 57  1  0
 69 71  2  0
 70 69  1  0
 72 70  1  0
 73 82  2  0
 73 78  1  0
 74 70  1  0
 74 78  1  0
 75 74  1  0
 76 77  1  0
 76 75  1  0
 77 73  1  0
 78 79  2  0
 79 80  1  0
 81 80  2  0
 82 81  1  0
 83 57  1  0
 83 84  1  0
 83 93  1  0
 84 87  1  0
 85 89  1  0
 85 84  1  0
 86 85  2  0
 89 88  1  0
 91 89  1  0
 91 92  1  0
 91 90  1  0
 93 96  1  1
 93 94  1  0
 95 93  1  0
M  ISO  4  11 100  19 100  55 101  56 101
M  END
>  <TORSDO>  (63) 
F 23

>  <SCORE>  (63) 
-11.478

>  <name>  (63) 
62

>  <ligand_id>  (63) 
62

>  <original_smiles>  (63) 
[H]c1nc(C([H])([H])[H])c([H])c(C([H])(C([H])([H])[H])C([H])(N([H])C(=O)N2C([H])([H])C([H])([H])C([H])([H])C([H])(n3nc(-c4c([H])c([H])c(Oc5c([H])c([H])c(F)c([H])c5F)c([H])c4[H])c(C(=O)N([H])[H])c3N([H])[H])C2([H])[H])C2([H])C([H])([H])C2([H])[H])c1OC([H])([H])C([H])([H])C([H])([H])Oc1c([H])c([H])c2c(c1[H])C([H])([H])N(C(=O)C([H])(N([H])C(=O)C([H])(N([H])C([H])([H])[H])C([H])([H])[H])C(C([H])([H])[H])(C([H])([H])[H])C([H])([H])[H])C([H])(C(=O)N([H])C1([H])c3c([H])c([H])c([H])c([H])c3C([H])([H])C([H])([H])C1([H])[H])C2([H])[H]

>  <smiles>  (63) 
[H]c1nc(C([H])([H])[H])c([H])c(C([H])(C([H])([H])[H])C([H])(N([H])C(=O)N2C([H])([H])C([H])([H])C([H])([H])C([H])(n3nc(-c4c([H])c([H])c(Oc5c([H])c([H])c(F)c([H])c5F)c([H])c4[H])c(C(=O)N([H])[H])c3N([H])[H])C2([H])[H])C2([H])C([H])([H])C2([H])[H])c1OC([H])([H])C([H])([H])C([H])([H])Oc1c([H])c([H])c2c(c1[H])C([H])([H])N(C(=O)C([H])(N([H])C(=O)C([H])(N([H])C([H])([H])[H])C([H])([H])[H])C(C([H])([H])[H])(C([H])([H])[H])C([H])([H])[H])C([H])(C(=O)N([H])C1([H])c3c([H])c([H])c([H])c([H])c3C([H])([H])C([H])([H])C1([H])[H])C2([H])[H]

$$$$
63:0:0
     RDKit          3D

 91100  0  0  1  0  0  0  0  0999 V2000
  -28.7280  -22.7170   21.8610 C   0  0  0  0  0  2  0  0  0  0  0  0
  -28.6420  -24.2920   21.9210 C   0  0  0  0  0  2  0  0  0  0  0  0
  -28.9000  -23.6650   19.6290 C   0  0  0  0  0  2  0  0  0  0  0  0
  -29.2930  -22.3220   20.4800 C   0  0  0  0  0  3  0  0  0  0  0  0
  -28.2490  -24.8440   20.5230 C   0  0  0  0  0  3  0  0  0  0  0  0
  -27.5290  -20.8850   19.4740 C   0  0  0  0  0  1  0  0  0  0  0  0
  -28.9440  -20.8860   19.9420 N   0  0  2  0  0  4  0  0  0  0  0  0
  -29.4210  -20.8600   19.0540 H   0  0  0  0  0  0  0  0  0  0  0  0
  -30.9280  -14.9620   20.0160 C   0  0  0  0  0  0  0  0  0  0  0  0
  -30.6270  -12.6570   19.0000 C   0  0  0  0  0  2  0  0  0  0  0  0
  -29.6840  -12.7200   17.7830 C   0  0  0  0  0  2  0  0  0  0  0  0
  -28.2250  -12.5340   18.2420 C   0  0  0  0  0  2  0  0  0  0  0  0
  -27.8860  -13.4290   19.4640 C   0  0  0  0  0  3  0  0  0  0  0  0
  -28.9660  -13.3690   20.5640 C   0  0  0  0  0  2  0  0  0  0  0  0
  -30.2280  -13.7580   19.9320 N   0  0  0  0  0  0  0  0  0  0  0  0
  -32.1120  -14.9000   19.6650 O   0  0  0  0  0  0  0  0  0  0  0  0
  -30.7690  -18.8940   19.9780 C   0  0  0  0  0  2  0  0  0  0  0  0
  -28.5160  -18.2490   20.4290 C   0  0  0  0  0  2  0  0  0  0  0  0
  -31.2450  -17.4620   20.5200 C   0  0  0  0  0  2  0  0  0  0  0  0
  -28.9970  -16.7220   20.7070 C   0  0  0  0  0  2  0  0  0  0  0  0
  -29.4590  -19.5230   20.5850 C   0  0  0  0  0  3  0  0  0  0  0  0
  -30.3680  -16.2550   20.3030 N   0  0  0  0  0  0  0  0  0  0  0  0
  -25.5560  -14.0680   20.3060 C   0  0  0  0  0  0  0  0  0  0  0  0
  -24.4940  -13.3230   20.7170 C   0  0  0  0  0  0  0  0  0  0  0  0
  -24.9210  -11.9610   20.6600 C   0  0  0  0  0  0  0  0  0  0  0  0
  -26.5620  -13.1650   20.0070 N   0  0  0  0  0  0  0  0  0  0  0  0
  -26.1930  -11.8910   20.2890 N   0  0  0  0  0  0  0  0  0  0  0  0
  -24.1740  -10.7180   20.8730 C   0  0  0  0  0  0  0  0  0  0  0  0
  -24.5880   -9.7590   21.8220 C   0  0  0  0  0  3  0  0  0  0  0  0
  -23.8410   -8.5770   22.0140 C   0  0  0  0  0  3  0  0  0  0  0  0
  -22.6680   -8.3490   21.2580 C   0  0  0  0  0  0  0  0  0  0  0  0
  -22.2740   -9.2970   20.2980 C   0  0  0  0  0  3  0  0  0  0  0  0
  -23.0220  -10.4690   20.1030 C   0  0  0  0  0  3  0  0  0  0  0  0
  -21.8900   -7.2210   21.3610 O   0  0  0  0  0  0  0  0  0  0  0  0
  -21.7860   -6.5260   22.5380 C   0  0  0  0  0  0  0  0  0  0  0  0
  -21.3030   -7.1290   23.7200 C   0  0  0  0  0  3  0  0  0  0  0  0
  -21.1470   -6.3610   24.8900 C   0  0  0  0  0  3  0  0  0  0  0  0
  -21.4620   -4.9870   24.8790 C   0  0  0  0  0  0  0  0  0  0  0  0
  -21.9390   -4.3850   23.7010 C   0  0  0  0  0  3  0  0  0  0  0  0
  -22.0990   -5.1520   22.5340 C   0  0  0  0  0  0  0  0  0  0  0  0
  -22.5390   -4.5610   21.3980 F   0  0  0  0  0  0  0  0  0  0  0  0
  -21.3050   -4.2470   26.0000 F   0  0  0  0  0  0  0  0  0  0  0  0
  -23.1190  -13.8320   21.0440 C   0  0  0  0  0  0  0  0  0  0  0  0
  -22.4140  -13.1660   21.9470 N   0  0  0  0  0  0  0  0  0  0  0  0
  -22.6870  -14.8650   20.5290 O   0  0  0  0  0  0  0  0  0  0  0  0
  -22.7820  -12.3330   22.3840 H   0  0  0  0  0  0  0  0  0  0  0  0
  -21.4920  -13.4910   22.2020 H   0  0  0  0  0  0  0  0  0  0  0  0
  -25.7410  -15.4380   20.1360 N   0  0  0  0  0  0  0  0  0  0  0  0
  -24.9930  -16.0990   20.3040 H   0  0  0  0  0  0  0  0  0  0  0  0
  -26.5600  -15.8650   19.7300 H   0  0  0  0  0  0  0  0  0  0  0  0
  -28.4720  -26.3600   20.3030 O   0  0  0  0  0  0  0  0  0  0  0  0
  -24.6910  -31.9060   23.1840 C   0  0  0  0  0  0  0  0  0  0  0  0
  -27.3820  -27.2830   20.2160 C   0  0  0  0  0  0  0  0  0  0  0  0
  -23.5330  -30.4830   21.5350 C   0  0  0  0  0  3  0  0  0  0  0  0
  -25.0260  -28.9520   20.1180 C   0  0  0  0  0  0  0  0  0  0  0  0
  -26.0730  -30.8250   21.3820 C   0  0  0  0  0  2  0  0  0  0  0  0
  -26.1830  -29.4350   20.7450 C   0  0  0  0  0  0  0  0  0  0  0  0
  -27.3660  -28.6160   20.7720 C   0  0  0  0  0  3  0  0  0  0  0  0
  -26.2120  -26.8920   19.5330 C   0  0  0  0  0  3  0  0  0  0  0  0
  -25.0490  -27.6930   19.4910 C   0  0  0  0  0  3  0  0  0  0  0  0
  -23.7750  -29.8140   20.1540 C   0  0  0  0  0  2  0  0  0  0  0  0
  -24.7830  -31.0970   22.0880 N   0  0  0  0  0  0  0  0  0  0  0  0
  -23.5980  -32.1590   23.7110 O   0  0  0  0  0  0  0  0  0  0  0  0
  -22.8760  -29.4560   22.4920 C   0  0  0  0  0  0  0  0  0  0  0  0
  -21.5490  -29.2710   22.3730 N   0  0  0  0  0  0  0  0  0  0  0  0
  -23.5650  -28.8270   23.3000 O   0  0  0  0  0  0  0  0  0  0  0  0
  -21.0540  -29.8310   21.6900 H   0  0  0  0  0  0  0  0  0  0  0  0
  -18.1780  -28.0680   22.9170 C   0  0  0  0  0  0  0  0  0  0  0  0
  -20.7410  -28.3210   23.1400 C   0  0  0  0  0  3  0  0  0  0  0  0
  -20.8320  -26.9000   22.5390 C   0  0  0  0  0  2  0  0  0  0  0  0
  -19.7100  -26.5990   21.5380 C   0  0  0  0  0  2  0  0  0  0  0  0
  -18.3400  -26.7340   22.2110 C   0  0  0  0  0  2  0  0  0  0  0  0
  -19.3080  -28.8220   23.3400 C   0  0  0  0  0  0  0  0  0  0  0  0
  -19.1010  -30.0720   23.9590 C   0  0  0  0  0  3  0  0  0  0  0  0
  -17.8030  -30.5710   24.1640 C   0  0  0  0  0  3  0  0  0  0  0  0
  -16.6880  -29.8170   23.7620 C   0  0  0  0  0  3  0  0  0  0  0  0
  -16.8770  -28.5690   23.1410 C   0  0  0  0  0  3  0  0  0  0  0  0
  -25.9520  -32.5700   23.8150 C   0  0  0  0  0  3  0  0  0  0  0  0
  -25.6030  -33.9600   24.1400 N   0  0  0  0  0  0  0  0  0  0  0  0
  -25.9330  -35.0260   23.3970 C   0  0  0  0  0  0  0  0  0  0  0  0
  -26.6250  -34.9390   22.3790 O   0  0  0  0  0  0  0  0  0  0  0  0
  -24.9720  -34.0940   24.9160 H   0  0  0  0  0  0  0  0  0  0  0  0
  -24.1830  -36.7960   23.0220 C   0  0  0  0  0  1  0  0  0  0  0  0
  -25.4130  -36.4010   23.8570 C   0  0  0  0  0  3  0  0  0  0  0  0
  -27.5090  -37.3180   24.7490 C   0  0  0  0  0  1  0  0  0  0  0  0
  -26.4290  -37.4730   23.7780 N   0  0  0  0  0  0  0  0  0  0  0  0
  -25.9990  -38.3820   23.9280 H   0  0  0  0  0  0  0  0  0  0  0  0
  -26.4730  -31.8180   25.1000 C   0  0  1  0  0  0  0  0  0  0  0  0
  -25.3760  -31.5510   26.1550 C   0  0  0  0  0  1  0  0  0  0  0  0
  -27.0980  -30.4560   24.7160 C   0  0  0  0  0  1  0  0  0  0  0  0
  -27.5900  -32.6510   25.7720 C   0  0  0  0  0  1  0  0  0  0  0  0
  1  2  1  0
  3  4  1  0
  3  5  1  0
  4  7  1  0
  4  1  1  0
  5 51  1  0
  5  2  1  0
  6  7  1  0
  7  8  1  6
  9 22  1  0
 10 15  1  0
 11 12  1  0
 11 10  1  0
 13 12  1  0
 13 26  1  0
 13 14  1  0
 15  9  1  0
 15 14  1  0
 16  9  2  0
 17 19  1  0
 17 21  1  0
 18 21  1  0
 18 20  1  0
 21  7  1  0
 22 19  1  0
 22 20  1  0
 23 24  2  0
 24 43  1  0
 25 24  1  0
 25 28  1  0
 26 27  1  0
 26 23  1  0
 27 25  2  0
 28 29  1  0
 29 30  2  0
 31 34  1  0
 31 30  1  0
 32 31  2  0
 33 32  1  0
 33 28  2  0
 34 35  1  0
 35 36  1  0
 36 37  2  0
 38 37  1  0
 38 42  1  0
 39 38  2  0
 40 35  2  0
 40 39  1  0
 41 40  1  0
 43 44  1  0
 44 47  1  0
 44 46  1  0
 45 43  2  0
 48 49  1  0
 48 23  1  0
 50 48  1  0
 52 63  2  0
 53 51  1  0
 53 58  1  0
 54 62  1  0
 54 64  1  0
 55 61  1  0
 55 57  1  0
 56 62  1  0
 57 58  2  0
 57 56  1  0
 59 53  2  0
 60 59  1  0
 60 55  2  0
 61 54  1  0
 62 52  1  0
 64 66  2  0
 65 64  1  0
 67 65  1  0
 68 77  2  0
 68 73  1  0
 69 65  1  0
 69 73  1  0
 70 69  1  0
 71 72  1  0
 71 70  1  0
 72 68  1  0
 73 74  2  0
 74 75  1  0
 76 75  2  0
 77 76  1  0
 78 52  1  0
 78 79  1  0
 78 88  1  0
 79 82  1  0
 80 84  1  0
 80 79  1  0
 81 80  2  0
 84 83  1  0
 86 84  1  0
 86 87  1  0
 86 85  1  0
 88 91  1  1
 88 89  1  0
 90 88  1  0
M  ISO  4   5 101   9 100  22 100  51 101
M  END
>  <TORSDO>  (64) 
F 17

>  <SCORE>  (64) 
-14.994

>  <name>  (64) 
63

>  <ligand_id>  (64) 
63

>  <original_smiles>  (64) 
[H]c1c([H])c([H])c2c(c1[H])C([H])([H])C([H])([H])C([H])([H])C2([H])N([H])C(=O)C1([H])N(C(=O)C([H])(N([H])C(=O)C([H])(N([H])C([H])([H])[H])C([H])([H])[H])C(C([H])([H])[H])(C([H])([H])[H])C([H])([H])[H])C([H])([H])c2c([H])c(OC3([H])C([H])([H])C([H])([H])C([H])([N+]([H])(C([H])([H])[H])C4([H])C([H])([H])C([H])([H])N(C(=O)N5C([H])([H])C([H])([H])C([H])([H])C([H])(n6nc(-c7c([H])c([H])c(Oc8c([H])c([H])c(F)c([H])c8F)c([H])c7[H])c(C(=O)N([H])[H])c6N([H])[H])C5([H])[H])C([H])([H])C4([H])[H])C3([H])[H])c([H])c([H])c2C1([H])[H]

>  <smiles>  (64) 
[H]c1c([H])c([H])c2c(c1[H])C([H])([H])C([H])([H])C([H])([H])C2([H])N([H])C(=O)C1([H])N(C(=O)C([H])(N([H])C(=O)C([H])(N([H])C([H])([H])[H])C([H])([H])[H])C(C([H])([H])[H])(C([H])([H])[H])C([H])([H])[H])C([H])([H])c2c([H])c(OC3([H])C([H])([H])C([H])([H])C([H])([N+]([H])(C([H])([H])[H])C4([H])C([H])([H])C([H])([H])N(C(=O)N5C([H])([H])C([H])([H])C([H])([H])C([H])(n6nc(-c7c([H])c([H])c(Oc8c([H])c([H])c(F)c([H])c8F)c([H])c7[H])c(C(=O)N([H])[H])c6N([H])[H])C5([H])[H])C([H])([H])C4([H])[H])C3([H])[H])c([H])c([H])c2C1([H])[H]

$$$$
64:0:0
     RDKit          3D

 93102  0  0  1  0  0  0  0  0999 V2000
  -29.9620  -20.1290   21.7490 C   0  0  0  0  0  3  0  0  0  0  0  0
  -29.2790  -18.6490   19.9390 C   0  0  0  0  0  3  0  0  0  0  0  0
  -30.3280  -17.6950   21.8900 C   0  0  0  0  0  0  0  0  0  0  0  0
  -30.4330  -18.9820   22.4300 C   0  0  0  0  0  0  0  0  0  0  0  0
  -29.7900  -17.4470   20.6020 C   0  0  0  0  0  0  0  0  0  0  0  0
  -29.3520  -20.0160   20.4770 C   0  0  0  0  0  0  0  0  0  0  0  0
  -30.7710  -16.6840   22.9150 C   0  0  0  0  0  3  0  0  0  0  0  0
  -31.1310  -17.5760   24.1260 C   0  0  0  0  0  3  0  0  0  0  0  0
  -30.9690  -18.9780   23.7200 N   0  0  0  0  0  0  0  0  0  0  0  0
  -30.6040  -19.6380   24.4070 H   0  0  0  0  0  0  0  0  0  0  0  0
  -30.4650  -14.9980   19.8150 C   0  0  0  0  0  0  0  0  0  0  0  0
  -30.3220  -12.7260   18.7390 C   0  0  0  0  0  2  0  0  0  0  0  0
  -29.2630  -12.7400   17.6110 C   0  0  0  0  0  2  0  0  0  0  0  0
  -27.8440  -12.5060   18.1710 C   0  0  0  0  0  2  0  0  0  0  0  0
  -27.5500  -13.3780   19.4230 C   0  0  0  0  0  3  0  0  0  0  0  0
  -28.7070  -13.2910   20.4440 C   0  0  0  0  0  2  0  0  0  0  0  0
  -29.9160  -13.7340   19.7430 N   0  0  0  0  0  0  0  0  0  0  0  0
  -31.6040  -15.1990   19.3860 O   0  0  0  0  0  0  0  0  0  0  0  0
  -29.5910  -16.0410   20.1320 N   0  0  0  0  0  0  0  0  0  0  0  0
  -28.6310  -15.7320   20.1510 H   0  0  0  0  0  0  0  0  0  0  0  0
  -25.2300  -13.8990   20.4020 C   0  0  0  0  0  0  0  0  0  0  0  0
  -24.2230  -13.0880   20.8460 C   0  0  0  0  0  0  0  0  0  0  0  0
  -24.7000  -11.7470   20.7100 C   0  0  0  0  0  0  0  0  0  0  0  0
  -26.2610  -13.0500   20.0280 N   0  0  0  0  0  0  0  0  0  0  0  0
  -25.9550  -11.7500   20.2750 N   0  0  0  0  0  0  0  0  0  0  0  0
  -24.0090  -10.4680   20.9220 C   0  0  0  0  0  0  0  0  0  0  0  0
  -24.4670   -9.5380   21.8820 C   0  0  0  0  0  3  0  0  0  0  0  0
  -23.7810   -8.3180   22.0810 C   0  0  0  0  0  3  0  0  0  0  0  0
  -22.6300   -8.0220   21.3130 C   0  0  0  0  0  0  0  0  0  0  0  0
  -22.1900   -8.9410   20.3440 C   0  0  0  0  0  3  0  0  0  0  0  0
  -22.8760  -10.1490   20.1420 C   0  0  0  0  0  3  0  0  0  0  0  0
  -21.9160   -6.8520   21.4170 O   0  0  0  0  0  0  0  0  0  0  0  0
  -21.8010   -6.1850   22.6100 C   0  0  0  0  0  0  0  0  0  0  0  0
  -21.2210   -6.7880   23.7480 C   0  0  0  0  0  3  0  0  0  0  0  0
  -21.0540   -6.0440   24.9340 C   0  0  0  0  0  3  0  0  0  0  0  0
  -21.4620   -4.6970   24.9840 C   0  0  0  0  0  0  0  0  0  0  0  0
  -22.0350   -4.0920   23.8510 C   0  0  0  0  0  3  0  0  0  0  0  0
  -22.2030   -4.8340   22.6690 C   0  0  0  0  0  0  0  0  0  0  0  0
  -22.7360   -4.2400   21.5740 F   0  0  0  0  0  0  0  0  0  0  0  0
  -21.2960   -3.9820   26.1200 F   0  0  0  0  0  0  0  0  0  0  0  0
  -22.8520  -13.5260   21.2790 C   0  0  0  0  0  0  0  0  0  0  0  0
  -22.2240  -12.7790   22.1790 N   0  0  0  0  0  0  0  0  0  0  0  0
  -22.3450  -14.5620   20.8520 O   0  0  0  0  0  0  0  0  0  0  0  0
  -22.6470  -11.9400   22.5550 H   0  0  0  0  0  0  0  0  0  0  0  0
  -21.3020  -13.0470   22.4990 H   0  0  0  0  0  0  0  0  0  0  0  0
  -25.3400  -15.2800   20.2580 N   0  0  0  0  0  0  0  0  0  0  0  0
  -24.5640  -15.9020   20.4750 H   0  0  0  0  0  0  0  0  0  0  0  0
  -26.0970  -15.7510   19.7800 H   0  0  0  0  0  0  0  0  0  0  0  0
  -28.7540  -21.1660   19.8580 O   0  0  0  0  0  0  0  0  0  0  0  0
  -29.3290  -22.5600   19.8920 C   0  0  0  0  0  2  0  0  0  0  0  0
  -28.4300  -23.9080   20.1430 C   0  0  0  0  0  2  0  0  0  0  0  0
  -28.6110  -25.2180   19.1840 C   0  0  0  0  0  2  0  0  0  0  0  0
  -28.4600  -26.6630   19.5980 O   0  0  0  0  0  0  0  0  0  0  0  0
  -24.5560  -31.5960   23.0960 C   0  0  0  0  0  0  0  0  0  0  0  0
  -27.2830  -27.4540   19.5710 C   0  0  0  0  0  0  0  0  0  0  0  0
  -23.3670  -30.3160   21.3460 C   0  0  0  0  0  3  0  0  0  0  0  0
  -24.8450  -28.9750   19.7350 C   0  0  0  0  0  0  0  0  0  0  0  0
  -25.8780  -30.7670   21.1310 C   0  0  0  0  0  2  0  0  0  0  0  0
  -26.0040  -29.4630   20.3480 C   0  0  0  0  0  0  0  0  0  0  0  0
  -27.2200  -28.7190   20.2450 C   0  0  0  0  0  3  0  0  0  0  0  0
  -26.0990  -27.0240   18.9310 C   0  0  0  0  0  3  0  0  0  0  0  0
  -24.9030  -27.7710   19.0080 C   0  0  0  0  0  3  0  0  0  0  0  0
  -23.5680  -29.7750   19.9030 C   0  0  0  0  0  2  0  0  0  0  0  0
  -24.6170  -30.9080   21.9120 N   0  0  0  0  0  0  0  0  0  0  0  0
  -23.4790  -31.7670   23.6860 O   0  0  0  0  0  0  0  0  0  0  0  0
  -22.7830  -29.1800   22.2250 C   0  0  0  0  0  0  0  0  0  0  0  0
  -21.4730  -28.9140   22.0800 N   0  0  0  0  0  0  0  0  0  0  0  0
  -23.5070  -28.5430   22.9930 O   0  0  0  0  0  0  0  0  0  0  0  0
  -20.9390  -29.4850   21.4370 H   0  0  0  0  0  0  0  0  0  0  0  0
  -18.2060  -27.4140   22.4660 C   0  0  0  0  0  0  0  0  0  0  0  0
  -20.7330  -27.8560   22.7760 C   0  0  0  0  0  3  0  0  0  0  0  0
  -20.9510  -26.4850   22.0970 C   0  0  0  0  0  2  0  0  0  0  0  0
  -19.8820  -26.1540   21.0500 C   0  0  0  0  0  2  0  0  0  0  0  0
  -18.4920  -26.1420   21.6910 C   0  0  0  0  0  2  0  0  0  0  0  0
  -19.2560  -28.2280   22.9640 C   0  0  0  0  0  0  0  0  0  0  0  0
  -18.9370  -29.4200   23.6470 C   0  0  0  0  0  3  0  0  0  0  0  0
  -17.5930  -29.8040   23.8360 C   0  0  0  0  0  3  0  0  0  0  0  0
  -16.5550  -28.9860   23.3560 C   0  0  0  0  0  3  0  0  0  0  0  0
  -16.8640  -27.7920   22.6810 C   0  0  0  0  0  3  0  0  0  0  0  0
  -25.8300  -32.2280   23.7400 C   0  0  0  0  0  3  0  0  0  0  0  0
  -26.3570  -31.4300   24.9920 C   0  0  1  0  0  0  0  0  0  0  0  0
  -25.2620  -31.1150   26.0360 C   0  0  0  0  0  1  0  0  0  0  0  0
  -26.9870  -30.0880   24.5540 C   0  0  0  0  0  1  0  0  0  0  0  0
  -27.4640  -32.2380   25.7070 C   0  0  0  0  0  1  0  0  0  0  0  0
  -25.5050  -33.6140   24.1140 N   0  0  0  0  0  0  0  0  0  0  0  0
  -25.8160  -34.6980   23.3930 C   0  0  0  0  0  0  0  0  0  0  0  0
  -26.4830  -34.6380   22.3550 O   0  0  0  0  0  0  0  0  0  0  0  0
  -24.9180  -33.7350   24.9270 H   0  0  0  0  0  0  0  0  0  0  0  0
  -24.0700  -36.4850   23.0950 C   0  0  0  0  0  1  0  0  0  0  0  0
  -25.3090  -36.0630   23.8990 C   0  0  0  0  0  3  0  0  0  0  0  0
  -27.4200  -36.9490   24.7880 C   0  0  0  0  0  1  0  0  0  0  0  0
  -26.3300  -37.1320   23.8330 N   0  0  0  0  0  0  0  0  0  0  0  0
  -25.9100  -38.0410   24.0110 H   0  0  0  0  0  0  0  0  0  0  0  0
  1  4  1  0
  2  6  1  0
  2  5  2  0
  3  4  2  0
  3  7  1  0
  4  9  1  0
  5  3  1  0
  6  1  2  0
  7  8  2  0
  9  8  1  0
  9 10  1  0
 11 19  1  0
 12 17  1  0
 13 14  1  0
 13 12  1  0
 15 14  1  0
 15 24  1  0
 15 16  1  0
 17 11  1  0
 17 16  1  0
 18 11  2  0
 19 20  1  0
 19  5  1  0
 21 22  2  0
 22 41  1  0
 23 22  1  0
 23 26  1  0
 24 25  1  0
 24 21  1  0
 25 23  2  0
 26 27  1  0
 27 28  2  0
 29 32  1  0
 29 28  1  0
 30 29  2  0
 31 30  1  0
 31 26  2  0
 32 33  1  0
 33 38  2  0
 33 34  1  0
 34 35  2  0
 35 36  1  0
 36 40  1  0
 37 36  2  0
 38 37  1  0
 39 38  1  0
 41 42  1  0
 42 45  1  0
 42 44  1  0
 43 41  2  0
 46 21  1  0
 46 47  1  0
 48 46  1  0
 49 50  1  0
 49  6  1  0
 50 51  1  0
 52 53  1  0
 52 51  1  0
 54 65  2  0
 55 53  1  0
 55 60  1  0
 56 64  1  0
 56 66  1  0
 57 63  1  0
 57 59  1  0
 58 64  1  0
 59 58  1  0
 60 59  2  0
 61 62  1  0
 61 55  2  0
 62 57  2  0
 63 56  1  0
 64 54  1  0
 66 68  2  0
 67 66  1  0
 69 67  1  0
 70 79  2  0
 70 75  1  0
 71 67  1  0
 71 75  1  0
 72 71  1  0
 73 74  1  0
 73 72  1  0
 74 70  1  0
 75 76  2  0
 76 77  1  0
 78 77  2  0
 79 78  1  0
 80 54  1  0
 80 85  1  0
 80 81  1  0
 81 84  1  1
 81 82  1  0
 83 81  1  0
 85 88  1  0
 86 90  1  0
 86 85  1  0
 87 86  2  0
 90 89  1  0
 92 90  1  0
 92 93  1  0
 92 91  1  0
M  ISO  4  11 100  19 100  52 101  53 101
M  END
>  <TORSDO>  (65) 
F 20

>  <SCORE>  (65) 
-10.721

>  <name>  (65) 
64

>  <ligand_id>  (65) 
64

>  <original_smiles>  (65) 
[H]c1c([H])c([H])c2c(c1[H])C([H])([H])C([H])([H])C([H])([H])C2([H])N([H])C(=O)C1([H])N(C(=O)C([H])(N([H])C(=O)C([H])(N([H])C([H])([H])[H])C([H])([H])[H])C(C([H])([H])[H])(C([H])([H])[H])C([H])([H])[H])C([H])([H])c2c([H])c(OC([H])([H])C([H])([H])C([H])([H])Oc3c([H])c(N([H])C(=O)N4C([H])([H])C([H])([H])C([H])([H])C([H])(n5nc(-c6c([H])c([H])c(Oc7c([H])c([H])c(F)c([H])c7F)c([H])c6[H])c(C(=O)N([H])[H])c5N([H])[H])C4([H])[H])c4c(c3[H])N([H])C([H])([H])C4([H])[H])c([H])c([H])c2C1([H])[H]

>  <smiles>  (65) 
[H]c1c([H])c([H])c2c(c1[H])C([H])([H])C([H])([H])C([H])([H])C2([H])N([H])C(=O)C1([H])N(C(=O)C([H])(N([H])C(=O)C([H])(N([H])C([H])([H])[H])C([H])([H])[H])C(C([H])([H])[H])(C([H])([H])[H])C([H])([H])[H])C([H])([H])c2c([H])c(OC([H])([H])C([H])([H])C([H])([H])Oc3c([H])c(N([H])C(=O)N4C([H])([H])C([H])([H])C([H])([H])C([H])(n5nc(-c6c([H])c([H])c(Oc7c([H])c([H])c(F)c([H])c7F)c([H])c6[H])c(C(=O)N([H])[H])c5N([H])[H])C4([H])[H])c4c(c3[H])N([H])C([H])([H])C4([H])[H])c([H])c([H])c2C1([H])[H]

$$$$
65:0:0
     RDKit          3D

 96105  0  0  1  0  0  0  0  0999 V2000
  -28.8160  -22.9090   21.1520 C   0  0  0  0  0  3  0  0  0  0  0  0
  -28.4650  -22.4830   18.8650 C   0  0  0  0  0  3  0  0  0  0  0  0
  -29.1960  -21.5240   21.3680 C   0  0  0  0  0  0  0  0  0  0  0  0
  -28.3940  -23.4590   19.9080 C   0  0  0  0  0  0  0  0  0  0  0  0
  -28.8040  -21.0850   19.0530 C   0  0  0  0  0  0  0  0  0  0  0  0
  -29.1260  -20.5110   20.3300 C   0  0  0  0  0  0  0  0  0  0  0  0
  -30.5780  -22.0700   23.5830 C   0  0  0  0  0  2  0  0  0  0  0  0
  -29.6340  -21.1920   22.7750 C   0  0  0  0  0  3  0  0  0  0  0  0
  -31.0570  -20.9390   22.8230 N   0  0  0  0  0  4  0  0  0  0  0  0
  -31.3510  -20.1530   23.3740 H   0  0  0  0  0  0  0  0  0  0  0  0
  -31.5650  -21.1650   21.9850 H   0  0  0  0  0  0  0  0  0  0  0  0
  -28.7940  -20.1920   17.8230 C   0  0  0  0  0  2  0  0  0  0  0  0
  -30.3110  -19.2200   15.9630 C   0  0  0  0  0  1  0  0  0  0  0  0
  -30.1990  -20.1200   17.1990 C   0  0  0  0  0  2  0  0  0  0  0  0
  -29.1220  -18.8870   20.6200 C   0  0  0  0  0  3  0  0  0  0  0  0
  -30.2830  -17.7390   20.3370 C   0  0  0  0  0  3  0  0  0  0  0  0
  -30.6800  -15.0440   20.2260 C   0  0  0  0  0  0  0  0  0  0  0  0
  -30.5020  -12.6980   19.3040 C   0  0  0  0  0  2  0  0  0  0  0  0
  -29.5620  -12.6950   18.0800 C   0  0  0  0  0  2  0  0  0  0  0  0
  -28.0930  -12.5230   18.5140 C   0  0  0  0  0  2  0  0  0  0  0  0
  -27.7140  -13.4170   19.7250 C   0  0  0  0  0  3  0  0  0  0  0  0
  -28.7940  -13.4150   20.8320 C   0  0  0  0  0  2  0  0  0  0  0  0
  -30.0650  -13.8010   20.2050 N   0  0  0  0  0  0  0  0  0  0  0  0
  -31.8630  -15.1190   19.8770 O   0  0  0  0  0  0  0  0  0  0  0  0
  -29.9290  -16.2170   20.4420 N   0  0  0  0  0  0  0  0  0  0  0  0
  -28.9740  -16.0350   20.7080 H   0  0  0  0  0  0  0  0  0  0  0  0
  -25.3510  -13.9800   20.5440 C   0  0  0  0  0  0  0  0  0  0  0  0
  -24.2920  -13.1980   20.9200 C   0  0  0  0  0  0  0  0  0  0  0  0
  -24.7470  -11.8470   20.8320 C   0  0  0  0  0  0  0  0  0  0  0  0
  -26.3840  -13.1050   20.2460 N   0  0  0  0  0  0  0  0  0  0  0  0
  -26.0300  -11.8150   20.4850 N   0  0  0  0  0  0  0  0  0  0  0  0
  -24.0180  -10.5810   21.0040 C   0  0  0  0  0  0  0  0  0  0  0  0
  -24.4420   -9.6030   21.9300 C   0  0  0  0  0  3  0  0  0  0  0  0
  -23.7120   -8.4050   22.0920 C   0  0  0  0  0  3  0  0  0  0  0  0
  -22.5420   -8.1760   21.3280 C   0  0  0  0  0  0  0  0  0  0  0  0
  -22.1390   -9.1430   20.3890 C   0  0  0  0  0  3  0  0  0  0  0  0
  -22.8690  -10.3330   20.2250 C   0  0  0  0  0  3  0  0  0  0  0  0
  -21.7810   -7.0350   21.4030 O   0  0  0  0  0  0  0  0  0  0  0  0
  -21.6690   -6.3150   22.5660 C   0  0  0  0  0  0  0  0  0  0  0  0
  -21.1560   -6.8890   23.7510 C   0  0  0  0  0  3  0  0  0  0  0  0
  -20.9940   -6.0960   24.9040 C   0  0  0  0  0  3  0  0  0  0  0  0
  -21.3330   -4.7300   24.8740 C   0  0  0  0  0  0  0  0  0  0  0  0
  -21.8370   -4.1550   23.6950 C   0  0  0  0  0  3  0  0  0  0  0  0
  -22.0010   -4.9450   22.5440 C   0  0  0  0  0  0  0  0  0  0  0  0
  -22.4640   -4.3800   21.4040 F   0  0  0  0  0  0  0  0  0  0  0  0
  -21.1700   -3.9650   25.9790 F   0  0  0  0  0  0  0  0  0  0  0  0
  -22.9050  -13.6720   21.2460 C   0  0  0  0  0  0  0  0  0  0  0  0
  -22.1970  -12.9550   22.1120 N   0  0  0  0  0  0  0  0  0  0  0  0
  -22.4570  -14.7110   20.7640 O   0  0  0  0  0  0  0  0  0  0  0  0
  -22.5680  -12.1110   22.5240 H   0  0  0  0  0  0  0  0  0  0  0  0
  -21.2650  -13.2530   22.3640 H   0  0  0  0  0  0  0  0  0  0  0  0
  -25.5240  -15.3540   20.4050 N   0  0  0  0  0  0  0  0  0  0  0  0
  -24.7910  -16.0310   20.5760 H   0  0  0  0  0  0  0  0  0  0  0  0
  -26.3770  -15.7820   20.0720 H   0  0  0  0  0  0  0  0  0  0  0  0
  -27.5400  -24.8420   19.7740 C   0  0  0  0  0  2  0  0  0  0  0  0
  -27.9420  -26.3040   19.9980 O   0  0  0  0  0  0  0  0  0  0  0  0
  -24.5580  -31.9620   23.2100 C   0  0  0  0  0  0  0  0  0  0  0  0
  -26.9090  -27.3040   19.9630 C   0  0  0  0  0  0  0  0  0  0  0  0
  -23.2540  -30.6110   21.6120 C   0  0  0  0  0  3  0  0  0  0  0  0
  -24.6050  -29.0590   20.0840 C   0  0  0  0  0  0  0  0  0  0  0  0
  -25.7980  -30.8510   21.3260 C   0  0  0  0  0  2  0  0  0  0  0  0
  -25.8160  -29.4770   20.6480 C   0  0  0  0  0  0  0  0  0  0  0  0
  -26.9670  -28.6100   20.5870 C   0  0  0  0  0  3  0  0  0  0  0  0
  -25.6750  -27.0030   19.3340 C   0  0  0  0  0  3  0  0  0  0  0  0
  -24.5440  -27.8340   19.4140 C   0  0  0  0  0  3  0  0  0  0  0  0
  -23.3870  -29.9570   20.2150 C   0  0  0  0  0  2  0  0  0  0  0  0
  -24.5580  -31.1620   22.1010 N   0  0  0  0  0  0  0  0  0  0  0  0
  -23.5050  -32.2550   23.7960 O   0  0  0  0  0  0  0  0  0  0  0  0
  -22.6100  -29.5970   22.5890 C   0  0  0  0  0  0  0  0  0  0  0  0
  -21.2940  -29.3610   22.4440 N   0  0  0  0  0  0  0  0  0  0  0  0
  -23.2960  -29.0230   23.4380 O   0  0  0  0  0  0  0  0  0  0  0  0
  -20.7990  -29.8760   21.7300 H   0  0  0  0  0  0  0  0  0  0  0  0
  -17.9870  -27.9410   22.8350 C   0  0  0  0  0  0  0  0  0  0  0  0
  -20.4980  -28.4110   23.2250 C   0  0  0  0  0  3  0  0  0  0  0  0
  -20.7370  -26.9590   22.7460 C   0  0  0  0  0  2  0  0  0  0  0  0
  -19.7240  -26.4980   21.6940 C   0  0  0  0  0  2  0  0  0  0  0  0
  -18.3000  -26.5730   22.2520 C   0  0  0  0  0  2  0  0  0  0  0  0
  -19.0190  -28.8110   23.2760 C   0  0  0  0  0  0  0  0  0  0  0  0
  -18.6740  -30.0850   23.7760 C   0  0  0  0  0  3  0  0  0  0  0  0
  -17.3270  -30.4900   23.8480 C   0  0  0  0  0  3  0  0  0  0  0  0
  -16.3080  -29.6170   23.4280 C   0  0  0  0  0  3  0  0  0  0  0  0
  -16.6380  -28.3460   22.9250 C   0  0  0  0  0  3  0  0  0  0  0  0
  -25.8780  -32.5610   23.7810 C   0  0  0  0  0  3  0  0  0  0  0  0
  -25.6080  -33.9600   24.1510 N   0  0  0  0  0  0  0  0  0  0  0  0
  -25.9340  -35.0230   23.4040 C   0  0  0  0  0  0  0  0  0  0  0  0
  -26.5570  -34.9310   22.3430 O   0  0  0  0  0  0  0  0  0  0  0  0
  -25.0430  -34.1070   24.9740 H   0  0  0  0  0  0  0  0  0  0  0  0
  -24.2310  -36.8620   23.1640 C   0  0  0  0  0  1  0  0  0  0  0  0
  -25.4960  -36.4120   23.9130 C   0  0  0  0  0  3  0  0  0  0  0  0
  -27.6800  -37.2350   24.6760 C   0  0  0  0  0  1  0  0  0  0  0  0
  -26.5460  -37.4450   23.7790 N   0  0  0  0  0  0  0  0  0  0  0  0
  -26.1680  -38.3710   23.9570 H   0  0  0  0  0  0  0  0  0  0  0  0
  -26.4380  -31.7630   25.0230 C   0  0  1  0  0  0  0  0  0  0  0  0
  -25.3860  -31.5240   26.1320 C   0  0  0  0  0  1  0  0  0  0  0  0
  -26.9820  -30.3810   24.5920 C   0  0  0  0  0  1  0  0  0  0  0  0
  -27.6320  -32.5280   25.6420 C   0  0  0  0  0  1  0  0  0  0  0  0
  1  3  1  0
  2  5  2  0
  2  4  1  0
  4  1  2  0
  5  6  1  0
  6 15  1  0
  6  3  2  0
  8  3  1  0
  8  9  1  0
  8  7  1  0
  9 10  1  0
  9  7  1  0
 11  9  1  0
 12  5  1  0
 13 14  1  0
 14 12  1  0
 16 25  1  0
 16 15  2  0
 17 25  1  0
 18 23  1  0
 19 20  1  0
 19 18  1  0
 21 20  1  0
 21 30  1  0
 21 22  1  0
 23 17  1  0
 23 22  1  0
 24 17  2  0
 25 26  1  0
 27 28  2  0
 28 47  1  0
 29 28  1  0
 29 32  1  0
 30 31  1  0
 30 27  1  0
 31 29  2  0
 32 33  1  0
 33 34  2  0
 35 38  1  0
 35 34  1  0
 36 35  2  0
 37 36  1  0
 37 32  2  0
 38 39  1  0
 39 40  1  0
 40 41  2  0
 42 41  1  0
 42 46  1  0
 43 42  2  0
 44 39  2  0
 44 43  1  0
 45 44  1  0
 47 48  1  0
 48 51  1  0
 48 50  1  0
 49 47  2  0
 52 27  1  0
 52 53  1  0
 54 52  1  0
 55  4  1  0
 55 56  1  0
 57 68  2  0
 58 56  1  0
 58 63  1  0
 59 67  1  0
 59 69  1  0
 60 66  1  0
 60 62  1  0
 61 67  1  0
 62 61  1  0
 63 62  2  0
 64 65  1  0
 64 58  2  0
 65 60  2  0
 66 59  1  0
 67 57  1  0
 69 71  2  0
 70 69  1  0
 72 70  1  0
 73 82  2  0
 73 78  1  0
 74 70  1  0
 74 78  1  0
 75 74  1  0
 76 77  1  0
 76 75  1  0
 77 73  1  0
 78 79  2  0
 79 80  1  0
 81 80  2  0
 82 81  1  0
 83 57  1  0
 83 84  1  0
 83 93  1  0
 84 87  1  0
 85 89  1  0
 85 84  1  0
 86 85  2  0
 89 88  1  0
 91 89  1  0
 91 92  1  0
 91 90  1  0
 93 96  1  1
 93 94  1  0
 95 93  1  0
M  ISO  4  17 100  25 100  55 101  56 101
M  END
>  <TORSDO>  (66) 
F 22

>  <SCORE>  (66) 
-13.248

>  <name>  (66) 
65

>  <ligand_id>  (66) 
65

>  <original_smiles>  (66) 
[H]c1c([H])c([H])c2c(c1[H])C([H])([H])C([H])([H])C([H])([H])C2([H])N([H])C(=O)C1([H])N(C(=O)C([H])(N([H])C(=O)C([H])(N([H])C([H])([H])[H])C([H])([H])[H])C(C([H])([H])[H])(C([H])([H])[H])C([H])([H])[H])C([H])([H])c2c([H])c(OC([H])([H])c3c([H])c(C([H])([H])C([H])([H])C([H])([H])[H])c(C([H])([H])C([H])([H])N([H])C(=O)N4C([H])([H])C([H])([H])C([H])([H])C([H])(n5nc(-c6c([H])c([H])c(Oc7c([H])c([H])c(F)c([H])c7F)c([H])c6[H])c(C(=O)N([H])[H])c5N([H])[H])C4([H])[H])c(C4([H])C([H])([H])[N+]4([H])[H])c3[H])c([H])c([H])c2C1([H])[H]

>  <smiles>  (66) 
[H]c1c([H])c([H])c2c(c1[H])C([H])([H])C([H])([H])C([H])([H])C2([H])N([H])C(=O)C1([H])N(C(=O)C([H])(N([H])C(=O)C([H])(N([H])C([H])([H])[H])C([H])([H])[H])C(C([H])([H])[H])(C([H])([H])[H])C([H])([H])[H])C([H])([H])c2c([H])c(OC([H])([H])c3c([H])c(C([H])([H])C([H])([H])C([H])([H])[H])c(C([H])([H])C([H])([H])N([H])C(=O)N4C([H])([H])C([H])([H])C([H])([H])C([H])(n5nc(-c6c([H])c([H])c(Oc7c([H])c([H])c(F)c([H])c7F)c([H])c6[H])c(C(=O)N([H])[H])c5N([H])[H])C4([H])[H])c(C4([H])C([H])([H])[N+]4([H])[H])c3[H])c([H])c([H])c2C1([H])[H]

$$$$
66:0:0
     RDKit          3D

 93103  0  0  1  0  0  0  0  0999 V2000
  -29.2590  -22.7320   21.2950 C   0  0  0  0  0  3  0  0  0  0  0  0
  -29.6300  -21.3320   21.3630 C   0  0  0  0  0  0  0  0  0  0  0  0
  -29.2670  -20.3620   20.3570 C   0  0  0  0  0  0  0  0  0  0  0  0
  -28.6220  -23.3000   20.1550 C   0  0  0  0  0  0  0  0  0  0  0  0
  -28.7350  -21.0500   19.2090 C   0  0  0  0  0  0  0  0  0  0  0  0
  -28.4480  -20.3300   17.9060 C   0  0  0  0  0  1  0  0  0  0  0  0
  -28.4360  -22.4020   19.1350 N   0  0  0  0  0  0  0  0  0  0  0  0
  -31.8230  -21.5480   22.7700 C   0  0  0  0  0  2  0  0  0  0  0  0
  -31.7460  -20.1160   22.3130 C   0  0  0  0  0  2  0  0  0  0  0  0
  -30.4690  -20.9050   22.5330 C   0  0  0  0  0  3  0  0  0  0  0  0
  -28.2860  -17.8550   20.0940 C   0  0  0  0  0  2  0  0  0  0  0  0
  -29.3460  -18.7430   20.6680 C   0  0  0  0  0  3  0  0  0  0  0  0
  -29.6930  -17.3230   19.8970 C   0  0  0  0  0  3  0  0  0  0  0  0
  -30.5130  -14.7740   20.1620 C   0  0  0  0  0  0  0  0  0  0  0  0
  -30.3030  -12.4780   19.1670 C   0  0  0  0  0  2  0  0  0  0  0  0
  -29.3410  -12.5760   17.9610 C   0  0  0  0  0  2  0  0  0  0  0  0
  -27.8720  -12.4530   18.4220 C   0  0  0  0  0  2  0  0  0  0  0  0
  -27.5500  -13.2810   19.6980 C   0  0  0  0  0  3  0  0  0  0  0  0
  -28.6470  -13.1590   20.7780 C   0  0  0  0  0  2  0  0  0  0  0  0
  -29.9200  -13.5270   20.1450 N   0  0  0  0  0  0  0  0  0  0  0  0
  -31.6810  -14.8970   19.7780 O   0  0  0  0  0  0  0  0  0  0  0  0
  -29.6930  -15.8770   20.3950 N   0  0  0  0  0  0  0  0  0  0  0  0
  -28.7860  -15.5670   20.7120 H   0  0  0  0  0  0  0  0  0  0  0  0
  -25.1870  -13.8670   20.5100 C   0  0  0  0  0  0  0  0  0  0  0  0
  -24.1270  -13.0970   20.8920 C   0  0  0  0  0  0  0  0  0  0  0  0
  -24.5800  -11.7410   20.8290 C   0  0  0  0  0  0  0  0  0  0  0  0
  -26.2190  -12.9890   20.2230 N   0  0  0  0  0  0  0  0  0  0  0  0
  -25.8610  -11.7030   20.4790 N   0  0  0  0  0  0  0  0  0  0  0  0
  -23.8480  -10.4840   21.0250 C   0  0  0  0  0  0  0  0  0  0  0  0
  -24.2910   -9.5080   21.9450 C   0  0  0  0  0  3  0  0  0  0  0  0
  -23.5610   -8.3130   22.1300 C   0  0  0  0  0  3  0  0  0  0  0  0
  -22.3730   -8.0880   21.3950 C   0  0  0  0  0  0  0  0  0  0  0  0
  -21.9460   -9.0530   20.4660 C   0  0  0  0  0  3  0  0  0  0  0  0
  -22.6770  -10.2380   20.2800 C   0  0  0  0  0  3  0  0  0  0  0  0
  -21.6110   -6.9470   21.4890 O   0  0  0  0  0  0  0  0  0  0  0  0
  -21.5700   -6.2010   22.6410 C   0  0  0  0  0  0  0  0  0  0  0  0
  -21.1440   -6.7510   23.8690 C   0  0  0  0  0  3  0  0  0  0  0  0
  -21.0530   -5.9310   25.0130 C   0  0  0  0  0  3  0  0  0  0  0  0
  -21.3760   -4.5640   24.9270 C   0  0  0  0  0  0  0  0  0  0  0  0
  -21.7910   -4.0130   23.7020 C   0  0  0  0  0  3  0  0  0  0  0  0
  -21.8870   -4.8300   22.5620 C   0  0  0  0  0  0  0  0  0  0  0  0
  -22.2700   -4.2910   21.3800 F   0  0  0  0  0  0  0  0  0  0  0  0
  -21.2800   -3.7740   26.0230 F   0  0  0  0  0  0  0  0  0  0  0  0
  -22.7400  -13.5810   21.2010 C   0  0  0  0  0  0  0  0  0  0  0  0
  -22.0280  -12.8850   22.0740 N   0  0  0  0  0  0  0  0  0  0  0  0
  -22.2990  -14.6170   20.7000 O   0  0  0  0  0  0  0  0  0  0  0  0
  -22.3980  -12.0500   22.5030 H   0  0  0  0  0  0  0  0  0  0  0  0
  -21.0970  -13.1960   22.3190 H   0  0  0  0  0  0  0  0  0  0  0  0
  -25.3410  -15.2450   20.3630 N   0  0  0  0  0  0  0  0  0  0  0  0
  -24.5700  -15.8680   20.5800 H   0  0  0  0  0  0  0  0  0  0  0  0
  -26.1530  -15.7310   20.0070 H   0  0  0  0  0  0  0  0  0  0  0  0
  -27.8050  -24.7190   20.0440 C   0  0  0  0  0  2  0  0  0  0  0  0
  -28.2220  -26.1850   20.2730 O   0  0  0  0  0  0  0  0  0  0  0  0
  -24.6260  -31.8740   23.2610 C   0  0  0  0  0  0  0  0  0  0  0  0
  -27.1820  -27.1820   20.2080 C   0  0  0  0  0  0  0  0  0  0  0  0
  -23.4230  -30.4910   21.6160 C   0  0  0  0  0  3  0  0  0  0  0  0
  -24.8620  -28.9250   20.2000 C   0  0  0  0  0  0  0  0  0  0  0  0
  -25.9820  -30.7470   21.4610 C   0  0  0  0  0  2  0  0  0  0  0  0
  -26.0500  -29.3630   20.8020 C   0  0  0  0  0  0  0  0  0  0  0  0
  -27.2130  -28.5080   20.7900 C   0  0  0  0  0  3  0  0  0  0  0  0
  -25.9600  -26.8470   19.5720 C   0  0  0  0  0  3  0  0  0  0  0  0
  -24.8240  -27.6740   19.5810 C   0  0  0  0  0  3  0  0  0  0  0  0
  -23.6480  -29.8290   20.2350 C   0  0  0  0  0  2  0  0  0  0  0  0
  -24.6970  -31.0570   22.1680 N   0  0  0  0  0  0  0  0  0  0  0  0
  -23.5400  -32.1650   23.7840 O   0  0  0  0  0  0  0  0  0  0  0  0
  -22.7340  -29.4820   22.5700 C   0  0  0  0  0  0  0  0  0  0  0  0
  -21.4050  -29.3190   22.4390 N   0  0  0  0  0  0  0  0  0  0  0  0
  -23.3980  -28.8480   23.3950 O   0  0  0  0  0  0  0  0  0  0  0  0
  -20.9230  -29.8850   21.7540 H   0  0  0  0  0  0  0  0  0  0  0  0
  -18.0140  -28.1360   22.9240 C   0  0  0  0  0  0  0  0  0  0  0  0
  -20.5730  -28.3890   23.2080 C   0  0  0  0  0  3  0  0  0  0  0  0
  -20.6700  -26.9530   22.6400 C   0  0  0  0  0  2  0  0  0  0  0  0
  -19.5750  -26.6320   21.6190 C   0  0  0  0  0  2  0  0  0  0  0  0
  -18.1880  -26.7870   22.2510 C   0  0  0  0  0  2  0  0  0  0  0  0
  -19.1330  -28.8950   23.3600 C   0  0  0  0  0  0  0  0  0  0  0  0
  -18.9130  -30.1590   23.9520 C   0  0  0  0  0  3  0  0  0  0  0  0
  -17.6070  -30.6630   24.1100 C   0  0  0  0  0  3  0  0  0  0  0  0
  -16.5030  -29.9000   23.6910 C   0  0  0  0  0  3  0  0  0  0  0  0
  -16.7070  -28.6390   23.1030 C   0  0  0  0  0  3  0  0  0  0  0  0
  -25.9090  -32.4980   23.8920 C   0  0  0  0  0  3  0  0  0  0  0  0
  -26.4080  -31.7250   25.1750 C   0  0  1  0  0  0  0  0  0  0  0  0
  -25.3070  -31.5160   26.2410 C   0  0  0  0  0  1  0  0  0  0  0  0
  -26.9680  -30.3340   24.7980 C   0  0  0  0  0  1  0  0  0  0  0  0
  -27.5660  -32.5050   25.8390 C   0  0  0  0  0  1  0  0  0  0  0  0
  -25.6060  -33.8980   24.2230 N   0  0  0  0  0  0  0  0  0  0  0  0
  -25.9190  -34.9510   23.4550 C   0  0  0  0  0  0  0  0  0  0  0  0
  -26.5620  -34.8460   22.4080 O   0  0  0  0  0  0  0  0  0  0  0  0
  -25.0400  -34.0570   25.0440 H   0  0  0  0  0  0  0  0  0  0  0  0
  -24.1740  -36.7410   23.1620 C   0  0  0  0  0  1  0  0  0  0  0  0
  -25.4460  -36.3400   23.9270 C   0  0  0  0  0  3  0  0  0  0  0  0
  -27.6090  -37.2380   24.6700 C   0  0  0  0  0  1  0  0  0  0  0  0
  -26.4700  -37.3960   23.7700 N   0  0  0  0  0  0  0  0  0  0  0  0
  -26.0640  -38.3140   23.9310 H   0  0  0  0  0  0  0  0  0  0  0  0
  1  2  1  0
  2 10  1  0
  3  2  2  0
  4  1  2  0
  5  3  1  0
  6  5  1  0
  7  5  2  0
  7  4  1  0
  9 10  1  0
  9  8  1  0
 10  8  1  0
 11 12  1  0
 12  3  1  0
 13 11  1  0
 13 22  1  0
 13 12  1  0
 14 22  1  0
 15 20  1  0
 16 17  1  0
 16 15  1  0
 18 17  1  0
 18 27  1  0
 18 19  1  0
 20 14  1  0
 20 19  1  0
 21 14  2  0
 22 23  1  0
 24 25  2  0
 25 44  1  0
 26 25  1  0
 26 29  1  0
 27 28  1  0
 27 24  1  0
 28 26  2  0
 29 30  1  0
 30 31  2  0
 32 35  1  0
 32 31  1  0
 33 32  2  0
 34 33  1  0
 34 29  2  0
 35 36  1  0
 36 37  1  0
 37 38  2  0
 39 38  1  0
 39 43  1  0
 40 39  2  0
 41 36  2  0
 41 40  1  0
 42 41  1  0
 44 45  1  0
 45 48  1  0
 45 47  1  0
 46 44  2  0
 49 24  1  0
 49 50  1  0
 51 49  1  0
 52  4  1  0
 52 53  1  0
 54 65  2  0
 55 53  1  0
 55 60  1  0
 56 64  1  0
 56 66  1  0
 57 63  1  0
 57 59  1  0
 58 64  1  0
 59 58  1  0
 60 59  2  0
 61 62  1  0
 61 55  2  0
 62 57  2  0
 63 56  1  0
 64 54  1  0
 66 68  2  0
 67 66  1  0
 69 67  1  0
 70 79  2  0
 70 75  1  0
 71 67  1  0
 71 75  1  0
 72 71  1  0
 73 74  1  0
 73 72  1  0
 74 70  1  0
 75 76  2  0
 76 77  1  0
 78 77  2  0
 79 78  1  0
 80 54  1  0
 80 85  1  0
 80 81  1  0
 81 84  1  1
 81 82  1  0
 83 81  1  0
 85 88  1  0
 86 90  1  0
 86 85  1  0
 87 86  2  0
 90 89  1  0
 92 90  1  0
 92 93  1  0
 92 91  1  0
M  ISO  4  14 100  22 100  52 101  53 101
M  END
>  <TORSDO>  (67) 
F 19

>  <SCORE>  (67) 
-14.548

>  <name>  (67) 
66

>  <ligand_id>  (67) 
66

>  <original_smiles>  (67) 
[H]c1c([H])c([H])c2c(c1[H])C([H])([H])C([H])([H])C([H])([H])C2([H])N([H])C(=O)C1([H])N(C(=O)C([H])(N([H])C(=O)C([H])(N([H])C([H])([H])[H])C([H])([H])[H])C(C([H])([H])[H])(C([H])([H])[H])C([H])([H])[H])C([H])([H])c2c([H])c(OC([H])([H])c3nc(C([H])([H])[H])c(C4([H])C([H])([H])C4([H])N([H])C(=O)N4C([H])([H])C([H])([H])C([H])([H])C([H])(n5nc(-c6c([H])c([H])c(Oc7c([H])c([H])c(F)c([H])c7F)c([H])c6[H])c(C(=O)N([H])[H])c5N([H])[H])C4([H])[H])c(C4([H])C([H])([H])C4([H])[H])c3[H])c([H])c([H])c2C1([H])[H]

>  <smiles>  (67) 
[H]c1c([H])c([H])c2c(c1[H])C([H])([H])C([H])([H])C([H])([H])C2([H])N([H])C(=O)C1([H])N(C(=O)C([H])(N([H])C(=O)C([H])(N([H])C([H])([H])[H])C([H])([H])[H])C(C([H])([H])[H])(C([H])([H])[H])C([H])([H])[H])C([H])([H])c2c([H])c(OC([H])([H])c3nc(C([H])([H])[H])c(C4([H])C([H])([H])C4([H])N([H])C(=O)N4C([H])([H])C([H])([H])C([H])([H])C([H])(n5nc(-c6c([H])c([H])c(Oc7c([H])c([H])c(F)c([H])c7F)c([H])c6[H])c(C(=O)N([H])[H])c5N([H])[H])C4([H])[H])c(C4([H])C([H])([H])C4([H])[H])c3[H])c([H])c([H])c2C1([H])[H]

$$$$
67:0:0
     RDKit          3D

 93102  0  0  1  0  0  0  0  0999 V2000
  -31.1270  -18.8970   19.2420 C   0  0  0  0  0  3  0  0  0  0  0  0
  -31.5790  -20.2100   18.8950 C   0  0  0  0  0  3  0  0  0  0  0  0
  -29.3600  -20.8490   18.2760 C   0  0  0  0  0  3  0  0  0  0  0  0
  -29.7610  -18.5140   19.1330 C   0  0  0  0  0  0  0  0  0  0  0  0
  -28.8930  -19.5300   18.6090 C   0  0  0  0  0  0  0  0  0  0  0  0
  -30.7120  -21.2380   18.4280 C   0  0  0  0  0  0  0  0  0  0  0  0
  -26.9540  -18.5050   19.7580 C   0  0  0  0  0  2  0  0  0  0  0  0
  -27.6670  -17.1630   19.9540 C   0  0  0  0  0  2  0  0  0  0  0  0
  -27.4150  -19.1830   18.4660 C   0  0  0  0  0  3  0  0  0  0  0  0
  -29.2110  -17.1480   19.7610 C   0  0  0  0  0  3  0  0  0  0  0  0
  -26.4910  -20.3560   18.0950 C   0  0  0  0  0  1  0  0  0  0  0  0
  -30.4440  -14.8430   19.5420 C   0  0  0  0  0  0  0  0  0  0  0  0
  -30.4840  -12.3860   19.1210 C   0  0  0  0  0  2  0  0  0  0  0  0
  -29.5200  -12.0430   17.9650 C   0  0  0  0  0  2  0  0  0  0  0  0
  -28.0760  -11.8580   18.4750 C   0  0  0  0  0  2  0  0  0  0  0  0
  -27.6280  -12.9830   19.4460 C   0  0  0  0  0  3  0  0  0  0  0  0
  -28.7090  -13.2700   20.5070 C   0  0  0  0  0  2  0  0  0  0  0  0
  -29.9450  -13.5890   19.7840 N   0  0  0  0  0  0  0  0  0  0  0  0
  -31.6350  -15.0010   19.2610 O   0  0  0  0  0  0  0  0  0  0  0  0
  -29.5450  -15.8090   19.1450 N   0  0  0  0  0  0  0  0  0  0  0  0
  -29.3130  -15.7460   18.1630 H   0  0  0  0  0  0  0  0  0  0  0  0
  -25.3280  -13.5790   20.4200 C   0  0  0  0  0  0  0  0  0  0  0  0
  -24.2770  -12.8090   20.8340 C   0  0  0  0  0  0  0  0  0  0  0  0
  -24.6990  -11.4530   20.6730 C   0  0  0  0  0  0  0  0  0  0  0  0
  -26.3240  -12.6960   20.0390 N   0  0  0  0  0  0  0  0  0  0  0  0
  -25.9570  -11.4060   20.2540 N   0  0  0  0  0  0  0  0  0  0  0  0
  -23.9530  -10.1980   20.8420 C   0  0  0  0  0  0  0  0  0  0  0  0
  -24.3750   -9.2090   21.7580 C   0  0  0  0  0  3  0  0  0  0  0  0
  -23.6320   -8.0200   21.9190 C   0  0  0  0  0  3  0  0  0  0  0  0
  -22.4560   -7.8090   21.1610 C   0  0  0  0  0  0  0  0  0  0  0  0
  -22.0530   -8.7870   20.2340 C   0  0  0  0  0  3  0  0  0  0  0  0
  -22.7960   -9.9680   20.0710 C   0  0  0  0  0  3  0  0  0  0  0  0
  -21.6860   -6.6730   21.2320 O   0  0  0  0  0  0  0  0  0  0  0  0
  -21.3470   -6.1040   22.4340 C   0  0  0  0  0  0  0  0  0  0  0  0
  -20.6710   -6.8320   23.4370 C   0  0  0  0  0  3  0  0  0  0  0  0
  -20.2800   -6.1900   24.6290 C   0  0  0  0  0  3  0  0  0  0  0  0
  -20.5550   -4.8230   24.8160 C   0  0  0  0  0  0  0  0  0  0  0  0
  -21.2260   -4.0970   23.8170 C   0  0  0  0  0  3  0  0  0  0  0  0
  -21.6180   -4.7350   22.6280 C   0  0  0  0  0  0  0  0  0  0  0  0
  -22.2430   -4.0240   21.6590 F   0  0  0  0  0  0  0  0  0  0  0  0
  -20.1740   -4.2050   25.9590 F   0  0  0  0  0  0  0  0  0  0  0  0
  -22.9220  -13.3000   21.2530 C   0  0  0  0  0  0  0  0  0  0  0  0
  -22.2660  -12.5920   22.1660 N   0  0  0  0  0  0  0  0  0  0  0  0
  -22.4540  -14.3420   20.8030 O   0  0  0  0  0  0  0  0  0  0  0  0
  -22.6580  -11.7450   22.5530 H   0  0  0  0  0  0  0  0  0  0  0  0
  -21.3600  -12.9040   22.4850 H   0  0  0  0  0  0  0  0  0  0  0  0
  -25.5120  -14.9550   20.3120 N   0  0  0  0  0  0  0  0  0  0  0  0
  -24.7790  -15.6170   20.5420 H   0  0  0  0  0  0  0  0  0  0  0  0
  -26.3400  -15.3840   19.9230 H   0  0  0  0  0  0  0  0  0  0  0  0
  -31.2480  -22.5140   18.1210 O   0  0  0  0  0  0  0  0  0  0  0  0
  -30.6270  -23.8120   18.4670 C   0  0  0  0  0  2  0  0  0  0  0  0
  -31.4390  -25.0970   17.9490 C   0  0  0  0  0  2  0  0  0  0  0  0
  -31.2280  -26.4610   18.4950 O   0  0  0  0  0  0  0  0  0  0  0  0
  -26.7270  -29.2420   23.3770 C   0  0  0  0  0  0  0  0  0  0  0  0
  -29.9680  -27.0390   18.7280 C   0  0  0  0  0  0  0  0  0  0  0  0
  -25.7320  -28.6480   21.1930 C   0  0  0  0  0  3  0  0  0  0  0  0
  -27.3890  -28.1460   19.3100 C   0  0  0  0  0  0  0  0  0  0  0  0
  -28.1980  -29.3350   21.3510 C   0  0  0  0  0  2  0  0  0  0  0  0
  -28.4730  -28.4420   20.1440 C   0  0  0  0  0  0  0  0  0  0  0  0
  -29.7580  -27.8960   19.8540 C   0  0  0  0  0  3  0  0  0  0  0  0
  -28.8530  -26.7830   17.9000 C   0  0  0  0  0  3  0  0  0  0  0  0
  -27.5800  -27.3220   18.1850 C   0  0  0  0  0  3  0  0  0  0  0  0
  -26.0380  -28.7250   19.6740 C   0  0  0  0  0  2  0  0  0  0  0  0
  -26.9020  -29.0670   22.0330 N   0  0  0  0  0  0  0  0  0  0  0  0
  -25.6140  -29.0960   23.9060 O   0  0  0  0  0  0  0  0  0  0  0  0
  -25.2140  -27.2280   21.5280 C   0  0  0  0  0  0  0  0  0  0  0  0
  -23.9350  -26.9580   21.2190 N   0  0  0  0  0  0  0  0  0  0  0  0
  -25.9650  -26.3900   22.0320 O   0  0  0  0  0  0  0  0  0  0  0  0
  -23.3830  -27.6890   20.7950 H   0  0  0  0  0  0  0  0  0  0  0  0
  -20.7640  -25.2530   20.8780 C   0  0  0  0  0  0  0  0  0  0  0  0
  -23.2600  -25.6710   21.4110 C   0  0  0  0  0  3  0  0  0  0  0  0
  -23.5670  -24.7070   20.2420 C   0  0  0  0  0  2  0  0  0  0  0  0
  -22.5180  -24.7780   19.1220 C   0  0  0  0  0  2  0  0  0  0  0  0
  -21.1310  -24.4230   19.6580 C   0  0  0  0  0  2  0  0  0  0  0  0
  -21.7630  -25.8500   21.6930 C   0  0  0  0  0  0  0  0  0  0  0  0
  -21.3710  -26.6450   22.7900 C   0  0  0  0  0  3  0  0  0  0  0  0
  -20.0090  -26.8370   23.0850 C   0  0  0  0  0  3  0  0  0  0  0  0
  -19.0220  -26.2300   22.2850 C   0  0  0  0  0  3  0  0  0  0  0  0
  -19.4000  -25.4400   21.1870 C   0  0  0  0  0  3  0  0  0  0  0  0
  -27.9080  -29.6620   24.3090 C   0  0  0  0  0  3  0  0  0  0  0  0
  -28.4640  -28.4700   25.1820 C   0  0  1  0  0  0  0  0  0  0  0  0
  -27.3690  -27.7190   25.9750 C   0  0  0  0  0  1  0  0  0  0  0  0
  -29.1950  -27.4360   24.2940 C   0  0  0  0  0  1  0  0  0  0  0  0
  -29.5080  -29.0020   26.1930 C   0  0  0  0  0  1  0  0  0  0  0  0
  -27.4280  -30.7530   25.1690 N   0  0  0  0  0  0  0  0  0  0  0  0
  -27.7270  -32.0470   24.9940 C   0  0  0  0  0  0  0  0  0  0  0  0
  -28.4990  -32.4430   24.1170 O   0  0  0  0  0  0  0  0  0  0  0  0
  -26.7470  -30.5100   25.8730 H   0  0  0  0  0  0  0  0  0  0  0  0
  -25.9120  -33.7740   25.2180 C   0  0  0  0  0  1  0  0  0  0  0  0
  -27.0660  -33.0660   25.9450 C   0  0  0  0  0  3  0  0  0  0  0  0
  -28.9780  -33.5130   27.4190 C   0  0  0  0  0  1  0  0  0  0  0  0
  -28.0110  -34.0720   26.4770 N   0  0  0  0  0  0  0  0  0  0  0  0
  -27.5080  -34.8220   26.9440 H   0  0  0  0  0  0  0  0  0  0  0  0
  2  1  2  0
  3  6  2  0
  3  5  1  0
  4  1  1  0
  4 10  1  0
  5  4  2  0
  6  2  1  0
  7  8  1  0
  9 11  1  0
  9  5  1  0
  9  7  1  0
 10 20  1  0
 10  8  1  0
 12 18  1  0
 13 18  1  0
 14 15  1  0
 14 13  1  0
 16 15  1  0
 16 25  1  0
 16 17  1  0
 18 17  1  0
 19 12  2  0
 20 12  1  0
 21 20  1  0
 22 23  2  0
 23 42  1  0
 24 23  1  0
 24 27  1  0
 25 26  1  0
 25 22  1  0
 26 24  2  0
 27 28  1  0
 28 29  2  0
 30 33  1  0
 30 29  1  0
 31 30  2  0
 32 31  1  0
 32 27  2  0
 33 34  1  0
 34 39  2  0
 34 35  1  0
 35 36  2  0
 36 37  1  0
 37 41  1  0
 38 37  2  0
 39 38  1  0
 40 39  1  0
 42 43  1  0
 43 46  1  0
 43 45  1  0
 44 42  2  0
 47 22  1  0
 47 48  1  0
 49 47  1  0
 50  6  1  0
 50 51  1  0
 52 51  1  0
 52 53  1  0
 53 55  1  0
 54 65  2  0
 55 60  1  0
 56 66  1  0
 56 64  1  0
 57 63  1  0
 57 59  1  0
 58 64  1  0
 59 58  1  0
 60 59  2  0
 61 62  1  0
 61 55  2  0
 62 57  2  0
 63 56  1  0
 64 54  1  0
 66 68  2  0
 67 66  1  0
 69 67  1  0
 70 79  2  0
 70 75  1  0
 71 67  1  0
 71 75  1  0
 72 71  1  0
 73 74  1  0
 73 72  1  0
 74 70  1  0
 75 76  2  0
 76 77  1  0
 78 77  2  0
 79 78  1  0
 80 54  1  0
 80 85  1  0
 80 81  1  0
 81 82  1  1
 81 84  1  0
 83 81  1  0
 85 88  1  0
 86 85  1  0
 86 90  1  0
 87 86  2  0
 90 89  1  0
 90 92  1  0
 92 93  1  0
 92 91  1  0
M  ISO  4  12 100  20 100  52 101  53 101
M  END
>  <TORSDO>  (68) 
F 19

>  <SCORE>  (68) 
-9.555

>  <name>  (68) 
67

>  <ligand_id>  (68) 
67

>  <original_smiles>  (68) 
[H]c1c([H])c([H])c2c(c1[H])C([H])([H])C([H])([H])C([H])([H])C2([H])N([H])C(=O)C1([H])N(C(=O)C([H])(N([H])C(=O)C([H])(N([H])C([H])([H])[H])C([H])([H])[H])C(C([H])([H])[H])(C([H])([H])[H])C([H])([H])[H])C([H])([H])c2c([H])c(OC([H])([H])C([H])([H])Oc3c([H])c([H])c4c(c3[H])C([H])(C([H])([H])[H])C([H])([H])C([H])([H])C4([H])N([H])C(=O)N3C([H])([H])C([H])([H])C([H])([H])C([H])(n4nc(-c5c([H])c([H])c(Oc6c([H])c([H])c(F)c([H])c6F)c([H])c5[H])c(C(=O)N([H])[H])c4N([H])[H])C3([H])[H])c([H])c([H])c2C1([H])[H]

>  <smiles>  (68) 
[H]c1c([H])c([H])c2c(c1[H])C([H])([H])C([H])([H])C([H])([H])C2([H])N([H])C(=O)C1([H])N(C(=O)C([H])(N([H])C(=O)C([H])(N([H])C([H])([H])[H])C([H])([H])[H])C(C([H])([H])[H])(C([H])([H])[H])C([H])([H])[H])C([H])([H])c2c([H])c(OC([H])([H])C([H])([H])Oc3c([H])c([H])c4c(c3[H])C([H])(C([H])([H])[H])C([H])([H])C([H])([H])C4([H])N([H])C(=O)N3C([H])([H])C([H])([H])C([H])([H])C([H])(n4nc(-c5c([H])c([H])c(Oc6c([H])c([H])c(F)c([H])c6F)c([H])c5[H])c(C(=O)N([H])[H])c4N([H])[H])C3([H])[H])c([H])c([H])c2C1([H])[H]

$$$$
68:0:0
     RDKit          3D

 95104  0  0  1  0  0  0  0  0999 V2000
  -29.2560  -21.3410   19.6010 C   0  0  0  0  0  3  0  0  0  0  0  0
  -30.4980  -19.6020   20.8190 C   0  0  0  0  0  0  0  0  0  0  0  0
  -29.6060  -19.9730   19.7710 C   0  0  0  0  0  0  0  0  0  0  0  0
  -30.8890  -20.6600   21.6930 C   0  0  0  0  0  0  0  0  0  0  0  0
  -29.7890  -22.3160   20.4680 C   0  0  0  0  0  0  0  0  0  0  0  0
  -29.0150  -18.9560   18.8140 C   0  0  0  0  0  1  0  0  0  0  0  0
  -31.7230  -20.4390   22.9440 C   0  0  0  0  0  1  0  0  0  0  0  0
  -30.5660  -21.9620   21.5000 N   0  0  0  0  0  0  0  0  0  0  0  0
  -29.6360  -23.7060   20.3130 N   0  0  0  0  0  0  0  0  0  0  0  0
  -30.1860  -24.2460   20.9720 H   0  0  0  0  0  0  0  0  0  0  0  0
  -32.5720  -18.2080   21.4370 C   0  0  0  0  0  2  0  0  0  0  0  0
  -32.8500  -16.9220   20.6930 C   0  0  0  0  0  2  0  0  0  0  0  0
  -31.0790  -18.1660   21.0320 C   0  0  0  0  0  3  0  0  0  0  0  0
  -31.5180  -17.0980   19.9570 C   0  0  0  0  0  3  0  0  0  0  0  0
  -31.4020  -14.6540   19.4750 C   0  0  0  0  0  0  0  0  0  0  0  0
  -30.9900  -12.3460   18.6980 C   0  0  0  0  0  2  0  0  0  0  0  0
  -29.9720  -12.3650   17.5410 C   0  0  0  0  0  2  0  0  0  0  0  0
  -28.5330  -12.3140   18.0880 C   0  0  0  0  0  2  0  0  0  0  0  0
  -28.2860  -13.3470   19.2200 C   0  0  0  0  0  3  0  0  0  0  0  0
  -29.4140  -13.3090   20.2740 C   0  0  0  0  0  2  0  0  0  0  0  0
  -30.6910  -13.4960   19.5710 N   0  0  0  0  0  0  0  0  0  0  0  0
  -32.4900  -14.7060   18.8970 O   0  0  0  0  0  0  0  0  0  0  0  0
  -30.8270  -15.7880   19.9440 N   0  0  0  0  0  0  0  0  0  0  0  0
  -29.9130  -15.7180   20.3670 H   0  0  0  0  0  0  0  0  0  0  0  0
  -26.0440  -14.1240   20.2100 C   0  0  0  0  0  0  0  0  0  0  0  0
  -24.9490  -13.4310   20.6530 C   0  0  0  0  0  0  0  0  0  0  0  0
  -25.2720  -12.0470   20.5100 C   0  0  0  0  0  0  0  0  0  0  0  0
  -26.9700  -13.1660   19.8280 N   0  0  0  0  0  0  0  0  0  0  0  0
  -26.5160  -11.9090   20.0660 N   0  0  0  0  0  0  0  0  0  0  0  0
  -24.4500  -10.8490   20.7160 C   0  0  0  0  0  0  0  0  0  0  0  0
  -24.8170   -9.8510   21.6470 C   0  0  0  0  0  3  0  0  0  0  0  0
  -24.0000   -8.7170   21.8410 C   0  0  0  0  0  3  0  0  0  0  0  0
  -22.8010   -8.5710   21.1020 C   0  0  0  0  0  0  0  0  0  0  0  0
  -22.4530   -9.5540   20.1600 C   0  0  0  0  0  3  0  0  0  0  0  0
  -23.2700  -10.6800   19.9640 C   0  0  0  0  0  3  0  0  0  0  0  0
  -21.9590   -7.4910   21.2040 O   0  0  0  0  0  0  0  0  0  0  0  0
  -21.7860   -6.8230   22.3900 C   0  0  0  0  0  0  0  0  0  0  0  0
  -21.2580   -7.4590   23.5340 C   0  0  0  0  0  3  0  0  0  0  0  0
  -21.0330   -6.7180   24.7120 C   0  0  0  0  0  3  0  0  0  0  0  0
  -21.3260   -5.3410   24.7450 C   0  0  0  0  0  0  0  0  0  0  0  0
  -21.8450   -4.7040   23.6040 C   0  0  0  0  0  3  0  0  0  0  0  0
  -22.0720   -5.4420   22.4290 C   0  0  0  0  0  0  0  0  0  0  0  0
  -22.5540   -4.8200   21.3270 F   0  0  0  0  0  0  0  0  0  0  0  0
  -21.1020   -4.6270   25.8720 F   0  0  0  0  0  0  0  0  0  0  0  0
  -23.6390  -14.0180   21.0930 C   0  0  0  0  0  0  0  0  0  0  0  0
  -22.9460  -13.3500   22.0090 N   0  0  0  0  0  0  0  0  0  0  0  0
  -23.2470  -15.1010   20.6610 O   0  0  0  0  0  0  0  0  0  0  0  0
  -23.2790  -12.4720   22.3780 H   0  0  0  0  0  0  0  0  0  0  0  0
  -22.0700  -13.7240   22.3460 H   0  0  0  0  0  0  0  0  0  0  0  0
  -26.3230  -15.4810   20.0800 N   0  0  0  0  0  0  0  0  0  0  0  0
  -25.6380  -16.1970   20.2990 H   0  0  0  0  0  0  0  0  0  0  0  0
  -27.1740  -15.8580   19.6840 H   0  0  0  0  0  0  0  0  0  0  0  0
  -28.3360  -24.3210   20.0140 C   0  0  0  0  0  2  0  0  0  0  0  0
  -28.4340  -25.6480   19.1940 C   0  0  0  0  0  2  0  0  0  0  0  0
  -28.3380  -26.8960   19.9190 O   0  0  0  0  0  0  0  0  0  0  0  0
  -24.5440  -31.9410   23.2550 C   0  0  0  0  0  0  0  0  0  0  0  0
  -27.1600  -27.6280   19.9290 C   0  0  0  0  0  0  0  0  0  0  0  0
  -23.3270  -30.6250   21.5520 C   0  0  0  0  0  3  0  0  0  0  0  0
  -24.7680  -29.1600   20.0380 C   0  0  0  0  0  0  0  0  0  0  0  0
  -25.8560  -30.9810   21.3610 C   0  0  0  0  0  2  0  0  0  0  0  0
  -25.9320  -29.6410   20.6490 C   0  0  0  0  0  0  0  0  0  0  0  0
  -27.1260  -28.8810   20.5950 C   0  0  0  0  0  3  0  0  0  0  0  0
  -25.9700  -27.1690   19.3160 C   0  0  0  0  0  3  0  0  0  0  0  0
  -24.7840  -27.9240   19.3710 C   0  0  0  0  0  3  0  0  0  0  0  0
  -23.5260  -30.0190   20.1380 C   0  0  0  0  0  2  0  0  0  0  0  0
  -24.5940  -31.1950   22.1140 N   0  0  0  0  0  0  0  0  0  0  0  0
  -23.4650  -32.1870   23.8130 O   0  0  0  0  0  0  0  0  0  0  0  0
  -22.6800  -29.5570   22.4630 C   0  0  0  0  0  0  0  0  0  0  0  0
  -21.3540  -29.3820   22.3350 N   0  0  0  0  0  0  0  0  0  0  0  0
  -23.3670  -28.8900   23.2410 O   0  0  0  0  0  0  0  0  0  0  0  0
  -20.8600  -29.9750   21.6820 H   0  0  0  0  0  0  0  0  0  0  0  0
  -17.9820  -28.1660   22.7900 C   0  0  0  0  0  0  0  0  0  0  0  0
  -20.5410  -28.4060   23.0590 C   0  0  0  0  0  3  0  0  0  0  0  0
  -20.6380  -27.0070   22.4080 C   0  0  0  0  0  2  0  0  0  0  0  0
  -19.5300  -26.7390   21.3860 C   0  0  0  0  0  2  0  0  0  0  0  0
  -18.1520  -26.8530   22.0450 C   0  0  0  0  0  2  0  0  0  0  0  0
  -19.1040  -28.9030   23.2530 C   0  0  0  0  0  0  0  0  0  0  0  0
  -18.8910  -30.1350   23.9080 C   0  0  0  0  0  3  0  0  0  0  0  0
  -17.5890  -30.6290   24.1080 C   0  0  0  0  0  3  0  0  0  0  0  0
  -16.4810  -29.8880   23.6630 C   0  0  0  0  0  3  0  0  0  0  0  0
  -16.6780  -28.6590   23.0100 C   0  0  0  0  0  3  0  0  0  0  0  0
  -25.8330  -32.5380   23.8980 C   0  0  0  0  0  3  0  0  0  0  0  0
  -26.3290  -31.7350   25.1620 C   0  0  1  0  0  0  0  0  0  0  0  0
  -25.2110  -31.4400   26.1900 C   0  0  0  0  0  1  0  0  0  0  0  0
  -26.9480  -30.3810   24.7410 C   0  0  0  0  0  1  0  0  0  0  0  0
  -27.4460  -32.5250   25.8810 C   0  0  0  0  0  1  0  0  0  0  0  0
  -25.5440  -33.9350   24.2520 N   0  0  0  0  0  0  0  0  0  0  0  0
  -25.8900  -34.9960   23.5100 C   0  0  0  0  0  0  0  0  0  0  0  0
  -26.5570  -34.9000   22.4760 O   0  0  0  0  0  0  0  0  0  0  0  0
  -24.9510  -34.0840   25.0550 H   0  0  0  0  0  0  0  0  0  0  0  0
  -24.1840  -36.8160   23.1880 C   0  0  0  0  0  1  0  0  0  0  0  0
  -25.4200  -36.3820   23.9920 C   0  0  0  0  0  3  0  0  0  0  0  0
  -27.5600  -37.2330   24.8450 C   0  0  0  0  0  1  0  0  0  0  0  0
  -26.4670  -37.4230   23.8950 N   0  0  0  0  0  0  0  0  0  0  0  0
  -26.0710  -38.3470   24.0470 H   0  0  0  0  0  0  0  0  0  0  0  0
  1  3  2  0
  1  5  1  0
  2  4  2  0
  3  2  1  0
  4  7  1  0
  5  8  2  0
  6  3  1  0
  8  4  1  0
  9  5  1  0
  9 10  1  0
 12 11  1  0
 13  2  1  0
 13 11  1  0
 14 23  1  0
 14 12  1  0
 14 13  1  0
 15 21  1  0
 15 23  1  0
 16 21  1  0
 17 18  1  0
 17 16  1  0
 19 18  1  0
 19 28  1  0
 19 20  1  0
 21 20  1  0
 22 15  2  0
 23 24  1  0
 25 26  2  0
 26 45  1  0
 27 26  1  0
 27 30  1  0
 28 29  1  0
 28 25  1  0
 29 27  2  0
 30 31  1  0
 31 32  2  0
 33 36  1  0
 33 32  1  0
 34 33  2  0
 35 34  1  0
 35 30  2  0
 36 37  1  0
 37 42  2  0
 37 38  1  0
 38 39  2  0
 39 40  1  0
 40 44  1  0
 41 40  2  0
 42 41  1  0
 43 42  1  0
 45 46  1  0
 46 49  1  0
 46 48  1  0
 47 45  2  0
 50 25  1  0
 50 51  1  0
 52 50  1  0
 53  9  1  0
 54 55  1  0
 54 53  1  0
 55 57  1  0
 56 67  2  0
 57 62  1  0
 58 66  1  0
 58 68  1  0
 59 65  1  0
 59 61  1  0
 60 66  1  0
 61 60  1  0
 62 61  2  0
 63 64  1  0
 63 57  2  0
 64 59  2  0
 65 58  1  0
 66 56  1  0
 68 70  2  0
 69 68  1  0
 71 69  1  0
 72 81  2  0
 72 77  1  0
 73 69  1  0
 73 77  1  0
 74 73  1  0
 75 76  1  0
 75 74  1  0
 76 72  1  0
 77 78  2  0
 78 79  1  0
 80 79  2  0
 81 80  1  0
 82 56  1  0
 82 87  1  0
 82 83  1  0
 83 86  1  1
 83 84  1  0
 85 83  1  0
 87 90  1  0
 88 92  1  0
 88 87  1  0
 89 88  2  0
 92 91  1  0
 94 92  1  0
 94 95  1  0
 94 93  1  0
M  ISO  4  15 100  23 100  54 101  55 101
M  END
>  <TORSDO>  (69) 
F 19

>  <SCORE>  (69) 
-12.729

>  <name>  (69) 
68

>  <ligand_id>  (69) 
68

>  <original_smiles>  (69) 
[H]c1c([H])c([H])c2c(c1[H])C([H])([H])C([H])([H])C([H])([H])C2([H])N([H])C(=O)C1([H])N(C(=O)C([H])(N([H])C(=O)C([H])(N([H])C([H])([H])[H])C([H])([H])[H])C(C([H])([H])[H])(C([H])([H])[H])C([H])([H])[H])C([H])([H])c2c([H])c(OC([H])([H])C([H])([H])N([H])c3nc(C([H])([H])[H])c(C4([H])C([H])([H])C([H])([H])C4([H])N([H])C(=O)N4C([H])([H])C([H])([H])C([H])([H])C([H])(n5nc(-c6c([H])c([H])c(Oc7c([H])c([H])c(F)c([H])c7F)c([H])c6[H])c(C(=O)N([H])[H])c5N([H])[H])C4([H])[H])c(C([H])([H])[H])c3[H])c([H])c([H])c2C1([H])[H]

>  <smiles>  (69) 
[H]c1c([H])c([H])c2c(c1[H])C([H])([H])C([H])([H])C([H])([H])C2([H])N([H])C(=O)C1([H])N(C(=O)C([H])(N([H])C(=O)C([H])(N([H])C([H])([H])[H])C([H])([H])[H])C(C([H])([H])[H])(C([H])([H])[H])C([H])([H])[H])C([H])([H])c2c([H])c(OC([H])([H])C([H])([H])N([H])c3nc(C([H])([H])[H])c(C4([H])C([H])([H])C([H])([H])C4([H])N([H])C(=O)N4C([H])([H])C([H])([H])C([H])([H])C([H])(n5nc(-c6c([H])c([H])c(Oc7c([H])c([H])c(F)c([H])c7F)c([H])c6[H])c(C(=O)N([H])[H])c5N([H])[H])C4([H])[H])c(C([H])([H])[H])c3[H])c([H])c([H])c2C1([H])[H]

$$$$
69:0:0
     RDKit          3D

 93102  0  0  1  0  0  0  0  0999 V2000
  -30.5020  -15.1160   20.3510 C   0  0  0  0  0  0  0  0  0  0  0  0
  -30.3670  -12.7540   19.4690 C   0  0  0  0  0  2  0  0  0  0  0  0
  -29.4590  -12.6710   18.2230 C   0  0  0  0  0  2  0  0  0  0  0  0
  -28.0020  -12.4290   18.6580 C   0  0  0  0  0  2  0  0  0  0  0  0
  -27.5590  -13.3780   19.8020 C   0  0  0  0  0  3  0  0  0  0  0  0
  -28.6060  -13.4760   20.9320 C   0  0  0  0  0  2  0  0  0  0  0  0
  -29.8620  -13.8810   20.3040 N   0  0  0  0  0  0  0  0  0  0  0  0
  -31.7260  -15.0790   20.1720 O   0  0  0  0  0  0  0  0  0  0  0  0
  -29.9010  -21.7540   21.8250 C   0  0  0  0  0  3  0  0  0  0  0  0
  -30.2920  -18.9570   21.4290 C   0  0  0  0  0  0  0  0  0  0  0  0
  -29.2900  -19.6580   20.6810 C   0  0  0  0  0  0  0  0  0  0  0  0
  -30.7640  -21.0400   22.6670 C   0  0  0  0  0  0  0  0  0  0  0  0
  -31.0330  -19.6740   22.4120 C   0  0  0  0  0  0  0  0  0  0  0  0
  -29.1400  -21.1480   20.8040 C   0  0  0  0  0  0  0  0  0  0  0  0
  -28.4160  -18.6660   19.8610 C   0  0  0  0  0  2  0  0  0  0  0  0
  -30.6760  -17.4400   21.2150 C   0  0  0  0  0  2  0  0  0  0  0  0
  -28.8670  -17.1080   19.6130 C   0  0  0  0  0  3  0  0  0  0  0  0
  -31.3590  -21.7790   23.8610 C   0  0  0  0  0  1  0  0  0  0  0  0
  -32.1240  -18.9770   23.2250 C   0  0  0  0  0  1  0  0  0  0  0  0
  -29.2460  -16.9720   18.1220 C   0  0  0  0  0  1  0  0  0  0  0  0
  -29.8620  -16.3970   20.5180 N   0  0  0  0  0  0  0  0  0  0  0  0
  -25.1680  -13.9100   20.5240 C   0  0  0  0  0  0  0  0  0  0  0  0
  -24.1140  -13.1120   20.8790 C   0  0  0  0  0  0  0  0  0  0  0  0
  -24.6090  -11.7740   20.8590 C   0  0  0  0  0  0  0  0  0  0  0  0
  -26.2300  -13.0520   20.3010 N   0  0  0  0  0  0  0  0  0  0  0  0
  -25.9060  -11.7620   20.5730 N   0  0  0  0  0  0  0  0  0  0  0  0
  -23.9040  -10.4970   21.0450 C   0  0  0  0  0  0  0  0  0  0  0  0
  -24.3380   -9.5440   21.9920 C   0  0  0  0  0  3  0  0  0  0  0  0
  -23.6340   -8.3320   22.1630 C   0  0  0  0  0  3  0  0  0  0  0  0
  -22.4830   -8.0650   21.3850 C   0  0  0  0  0  0  0  0  0  0  0  0
  -22.0670   -9.0070   20.4280 C   0  0  0  0  0  3  0  0  0  0  0  0
  -22.7720  -10.2100   20.2560 C   0  0  0  0  0  3  0  0  0  0  0  0
  -21.7500   -6.9050   21.4670 O   0  0  0  0  0  0  0  0  0  0  0  0
  -21.6830   -6.1740   22.6270 C   0  0  0  0  0  0  0  0  0  0  0  0
  -21.1920   -6.7300   23.8290 C   0  0  0  0  0  3  0  0  0  0  0  0
  -21.0750   -5.9220   24.9790 C   0  0  0  0  0  3  0  0  0  0  0  0
  -21.4390   -4.5630   24.9260 C   0  0  0  0  0  0  0  0  0  0  0  0
  -21.9270   -4.0100   23.7290 C   0  0  0  0  0  3  0  0  0  0  0  0
  -22.0450   -4.8130   22.5830 C   0  0  0  0  0  0  0  0  0  0  0  0
  -22.4930   -4.2680   21.4250 F   0  0  0  0  0  0  0  0  0  0  0  0
  -21.3210   -3.7890   26.0290 F   0  0  0  0  0  0  0  0  0  0  0  0
  -22.7030  -13.5620   21.1190 C   0  0  0  0  0  0  0  0  0  0  0  0
  -21.9730  -12.8580   21.9760 N   0  0  0  0  0  0  0  0  0  0  0  0
  -22.2570  -14.5720   20.5790 O   0  0  0  0  0  0  0  0  0  0  0  0
  -22.3500  -12.0400   22.4330 H   0  0  0  0  0  0  0  0  0  0  0  0
  -21.0250  -13.1420   22.1770 H   0  0  0  0  0  0  0  0  0  0  0  0
  -25.3010  -15.2800   20.3440 N   0  0  0  0  0  0  0  0  0  0  0  0
  -24.5110  -15.9070   20.4480 H   0  0  0  0  0  0  0  0  0  0  0  0
  -26.1390  -15.7450   20.0300 H   0  0  0  0  0  0  0  0  0  0  0  0
  -28.2830  -22.0830   20.1160 O   0  0  0  0  0  0  0  0  0  0  0  0
  -28.6200  -23.5710   19.9100 C   0  0  0  0  0  3  0  0  0  0  0  0
  -27.7700  -24.8640   20.5090 C   0  0  0  0  0  3  0  0  0  0  0  0
  -28.0530  -26.3470   20.2180 O   0  0  0  0  0  0  0  0  0  0  0  0
  -24.5070  -32.0080   23.2760 C   0  0  0  0  0  0  0  0  0  0  0  0
  -27.0000  -27.3110   20.2140 C   0  0  0  0  0  0  0  0  0  0  0  0
  -23.2760  -30.6260   21.6460 C   0  0  0  0  0  3  0  0  0  0  0  0
  -24.6950  -29.0510   20.2010 C   0  0  0  0  0  0  0  0  0  0  0  0
  -25.8270  -30.8750   21.4600 C   0  0  0  0  0  2  0  0  0  0  0  0
  -25.8770  -29.4870   20.8130 C   0  0  0  0  0  0  0  0  0  0  0  0
  -27.0320  -28.6270   20.8060 C   0  0  0  0  0  3  0  0  0  0  0  0
  -25.8030  -26.9680   19.5570 C   0  0  0  0  0  3  0  0  0  0  0  0
  -24.6730  -27.8110   19.5480 C   0  0  0  0  0  3  0  0  0  0  0  0
  -23.4710  -29.9530   20.2630 C   0  0  0  0  0  2  0  0  0  0  0  0
  -24.5560  -31.1900   22.1820 N   0  0  0  0  0  0  0  0  0  0  0  0
  -23.4300  -32.2950   23.8200 O   0  0  0  0  0  0  0  0  0  0  0  0
  -22.6060  -29.6140   22.6100 C   0  0  0  0  0  0  0  0  0  0  0  0
  -21.2810  -29.4270   22.4720 N   0  0  0  0  0  0  0  0  0  0  0  0
  -23.2790  -29.0050   23.4470 O   0  0  0  0  0  0  0  0  0  0  0  0
  -20.7920  -29.9650   21.7690 H   0  0  0  0  0  0  0  0  0  0  0  0
  -17.9240  -28.1770   22.9430 C   0  0  0  0  0  0  0  0  0  0  0  0
  -20.4710  -28.4870   23.2460 C   0  0  0  0  0  3  0  0  0  0  0  0
  -20.6070  -27.0470   22.6960 C   0  0  0  0  0  2  0  0  0  0  0  0
  -19.5280  -26.6880   21.6700 C   0  0  0  0  0  2  0  0  0  0  0  0
  -18.1310  -26.8220   22.2890 C   0  0  0  0  0  2  0  0  0  0  0  0
  -19.0220  -28.9660   23.3780 C   0  0  0  0  0  0  0  0  0  0  0  0
  -18.7750  -30.2330   23.9480 C   0  0  0  0  0  3  0  0  0  0  0  0
  -17.4610  -30.7140   24.0920 C   0  0  0  0  0  3  0  0  0  0  0  0
  -16.3750  -29.9270   23.6730 C   0  0  0  0  0  3  0  0  0  0  0  0
  -16.6070  -28.6610   23.1070 C   0  0  0  0  0  3  0  0  0  0  0  0
  -25.8020  -32.6300   23.8890 C   0  0  0  0  0  3  0  0  0  0  0  0
  -25.5120  -34.0390   24.2000 N   0  0  0  0  0  0  0  0  0  0  0  0
  -25.8650  -35.0750   23.4280 C   0  0  0  0  0  0  0  0  0  0  0  0
  -26.5350  -34.9470   22.4010 O   0  0  0  0  0  0  0  0  0  0  0  0
  -24.9230  -34.2160   25.0020 H   0  0  0  0  0  0  0  0  0  0  0  0
  -24.1790  -36.9060   23.0330 C   0  0  0  0  0  1  0  0  0  0  0  0
  -25.3980  -36.4780   23.8670 C   0  0  0  0  0  3  0  0  0  0  0  0
  -27.5340  -37.3280   24.7330 C   0  0  0  0  0  1  0  0  0  0  0  0
  -26.4570  -37.5090   23.7630 N   0  0  0  0  0  0  0  0  0  0  0  0
  -26.0630  -38.4380   23.8960 H   0  0  0  0  0  0  0  0  0  0  0  0
  -26.3030  -31.8740   25.1820 C   0  0  1  0  0  0  0  0  0  0  0  0
  -25.2040  -31.6740   26.2520 C   0  0  0  0  0  1  0  0  0  0  0  0
  -26.8710  -30.4810   24.8250 C   0  0  0  0  0  1  0  0  0  0  0  0
  -27.4600  -32.6660   25.8360 C   0  0  0  0  0  1  0  0  0  0  0  0
  1 21  1  0
  2  7  1  0
  3  4  1  0
  3  2  1  0
  5  4  1  0
  5 25  1  0
  5  6  1  0
  7  1  1  0
  7  6  1  0
  8  1  2  0
  9 12  1  0
 10 13  1  0
 11 14  1  0
 11 10  2  0
 12 18  1  0
 13 12  2  0
 13 19  1  0
 14  9  2  0
 15 11  1  0
 16 10  1  0
 17 20  1  0
 17 15  1  0
 17 21  1  0
 21 16  1  0
 22 23  2  0
 23 42  1  0
 24 23  1  0
 24 27  1  0
 25 22  1  0
 25 26  1  0
 26 24  2  0
 27 28  1  0
 28 29  2  0
 30 33  1  0
 30 29  1  0
 31 30  2  0
 32 31  1  0
 32 27  2  0
 33 34  1  0
 34 35  1  0
 35 36  2  0
 37 36  1  0
 37 41  1  0
 38 37  2  0
 39 34  2  0
 39 38  1  0
 40 39  1  0
 42 43  1  0
 43 46  1  0
 43 45  1  0
 44 42  2  0
 47 48  1  0
 47 22  1  0
 49 47  1  0
 50 14  1  0
 51 50  1  0
 51 52  2  0
 53 52  1  0
 54 65  2  0
 55 53  1  0
 55 60  1  0
 56 64  1  0
 56 66  1  0
 57 63  1  0
 57 59  1  0
 58 64  1  0
 59 58  1  0
 60 59  2  0
 61 55  2  0
 62 61  1  0
 62 57  2  0
 63 56  1  0
 64 54  1  0
 66 68  2  0
 67 66  1  0
 69 67  1  0
 70 79  2  0
 70 75  1  0
 71 67  1  0
 71 75  1  0
 72 71  1  0
 73 74  1  0
 73 72  1  0
 74 70  1  0
 75 76  2  0
 76 77  1  0
 78 77  2  0
 79 78  1  0
 80 54  1  0
 80 81  1  0
 80 90  1  0
 81 84  1  0
 82 86  1  0
 82 81  1  0
 83 82  2  0
 86 85  1  0
 88 86  1  0
 88 89  1  0
 88 87  1  0
 90 93  1  1
 90 91  1  0
 92 90  1  0
M  ISO  4   1 100  21 100  52 101  53 101
M  END
>  <TORSDO>  (70) 
F 18

>  <SCORE>  (70) 
-13.873

>  <name>  (70) 
69

>  <ligand_id>  (70) 
69

>  <original_smiles>  (70) 
[H]c1c([H])c([H])c2c(c1[H])C([H])([H])C([H])([H])C([H])([H])C2([H])N([H])C(=O)C1([H])N(C(=O)C([H])(N([H])C(=O)C([H])(N([H])C([H])([H])[H])C([H])([H])[H])C(C([H])([H])[H])(C([H])([H])[H])C([H])([H])[H])C([H])([H])c2c([H])c(OC([H])([H])C([H])([H])Oc3c([H])c(C([H])([H])[H])c(C([H])([H])[H])c4c3C([H])([H])C([H])(C([H])([H])[H])N(C(=O)N3C([H])([H])C([H])([H])C([H])([H])C([H])(n5nc(-c6c([H])c([H])c(Oc7c([H])c([H])c(F)c([H])c7F)c([H])c6[H])c(C(=O)N([H])[H])c5N([H])[H])C3([H])[H])C4([H])[H])c([H])c([H])c2C1([H])[H]

>  <smiles>  (70) 
[H]c1c([H])c([H])c2c(c1[H])C([H])([H])C([H])([H])C([H])([H])C2([H])N([H])C(=O)C1([H])N(C(=O)C([H])(N([H])C(=O)C([H])(N([H])C([H])([H])[H])C([H])([H])[H])C(C([H])([H])[H])(C([H])([H])[H])C([H])([H])[H])C([H])([H])c2c([H])c(OC([H])([H])C([H])([H])Oc3c([H])c(C([H])([H])[H])c(C([H])([H])[H])c4c3C([H])([H])C([H])(C([H])([H])[H])N(C(=O)N3C([H])([H])C([H])([H])C([H])([H])C([H])(n5nc(-c6c([H])c([H])c(Oc7c([H])c([H])c(F)c([H])c7F)c([H])c6[H])c(C(=O)N([H])[H])c5N([H])[H])C3([H])[H])C4([H])[H])c([H])c([H])c2C1([H])[H]

$$$$
70:0:0
     RDKit          3D

 93102  0  0  1  0  0  0  0  0999 V2000
  -29.6090  -20.8370   19.5040 C   0  0  0  0  0  2  0  0  0  0  0  0
  -30.4790  -21.9610   21.0340 C   0  0  0  0  0  2  0  0  0  0  0  0
  -30.7160  -20.5180   20.5320 C   0  0  0  0  0  3  0  0  0  0  0  0
  -30.0210  -22.3170   19.6170 C   0  0  0  0  0  3  0  0  0  0  0  0
  -31.2900  -18.1280   23.5260 C   0  0  0  0  0  3  0  0  0  0  0  0
  -30.7320  -16.9320   23.0490 C   0  0  0  0  0  3  0  0  0  0  0  0
  -30.1410  -18.0600   20.9650 C   0  0  0  0  0  3  0  0  0  0  0  0
  -30.6940  -19.2790   21.4420 C   0  0  0  0  0  0  0  0  0  0  0  0
  -31.2970  -19.2920   22.7290 C   0  0  0  0  0  0  0  0  0  0  0  0
  -30.1840  -16.8820   21.7540 C   0  0  0  0  0  0  0  0  0  0  0  0
  -31.9970  -20.5190   23.2850 C   0  0  0  0  0  1  0  0  0  0  0  0
  -30.3220  -14.7570   20.5360 C   0  0  0  0  0  0  0  0  0  0  0  0
  -30.0890  -12.6560   19.2580 C   0  0  0  0  0  2  0  0  0  0  0  0
  -29.1050  -12.8620   18.0880 C   0  0  0  0  0  2  0  0  0  0  0  0
  -27.6530  -12.6270   18.5480 C   0  0  0  0  0  2  0  0  0  0  0  0
  -27.3050  -13.3930   19.8520 C   0  0  0  0  0  3  0  0  0  0  0  0
  -28.3950  -13.1690   20.9240 C   0  0  0  0  0  2  0  0  0  0  0  0
  -29.6900  -13.5660   20.3430 N   0  0  0  0  0  0  0  0  0  0  0  0
  -31.3900  -15.0440   19.9860 O   0  0  0  0  0  0  0  0  0  0  0  0
  -29.6550  -15.6520   21.2850 N   0  0  0  0  0  0  0  0  0  0  0  0
  -28.7730  -15.3480   21.6690 H   0  0  0  0  0  0  0  0  0  0  0  0
  -24.8910  -13.8450   20.6250 C   0  0  0  0  0  0  0  0  0  0  0  0
  -23.8740  -13.0030   20.9890 C   0  0  0  0  0  0  0  0  0  0  0  0
  -24.4080  -11.6810   20.9040 C   0  0  0  0  0  0  0  0  0  0  0  0
  -25.9780  -13.0300   20.3470 N   0  0  0  0  0  0  0  0  0  0  0  0
  -25.6910  -11.7220   20.5690 N   0  0  0  0  0  0  0  0  0  0  0  0
  -23.7550  -10.3750   21.0660 C   0  0  0  0  0  0  0  0  0  0  0  0
  -24.2500   -9.4090   21.9700 C   0  0  0  0  0  3  0  0  0  0  0  0
  -23.5950   -8.1670   22.1220 C   0  0  0  0  0  3  0  0  0  0  0  0
  -22.4340   -7.8830   21.3660 C   0  0  0  0  0  0  0  0  0  0  0  0
  -21.9590   -8.8380   20.4500 C   0  0  0  0  0  3  0  0  0  0  0  0
  -22.6140  -10.0710   20.2960 C   0  0  0  0  0  3  0  0  0  0  0  0
  -21.7470   -6.6930   21.4270 O   0  0  0  0  0  0  0  0  0  0  0  0
  -21.7420   -5.9230   22.5630 C   0  0  0  0  0  0  0  0  0  0  0  0
  -21.2680   -6.4190   23.7980 C   0  0  0  0  0  3  0  0  0  0  0  0
  -21.2150   -5.5720   24.9220 C   0  0  0  0  0  3  0  0  0  0  0  0
  -21.6250   -4.2300   24.8140 C   0  0  0  0  0  0  0  0  0  0  0  0
  -22.0900   -3.7320   23.5830 C   0  0  0  0  0  3  0  0  0  0  0  0
  -22.1460   -4.5760   22.4610 C   0  0  0  0  0  0  0  0  0  0  0  0
  -22.5750   -4.0870   21.2720 F   0  0  0  0  0  0  0  0  0  0  0  0
  -21.5660   -3.4130   25.8910 F   0  0  0  0  0  0  0  0  0  0  0  0
  -22.4580  -13.3940   21.3050 C   0  0  0  0  0  0  0  0  0  0  0  0
  -21.7920  -12.6390   22.1720 N   0  0  0  0  0  0  0  0  0  0  0  0
  -21.9500  -14.4030   20.8200 O   0  0  0  0  0  0  0  0  0  0  0  0
  -22.2130  -11.8210   22.5880 H   0  0  0  0  0  0  0  0  0  0  0  0
  -20.8470  -12.8850   22.4260 H   0  0  0  0  0  0  0  0  0  0  0  0
  -24.9780  -15.2280   20.4890 N   0  0  0  0  0  0  0  0  0  0  0  0
  -24.1810  -15.8370   20.6360 H   0  0  0  0  0  0  0  0  0  0  0  0
  -25.8010  -15.7220   20.1650 H   0  0  0  0  0  0  0  0  0  0  0  0
  -28.9420  -23.2440   19.5470 O   0  0  0  0  0  0  0  0  0  0  0  0
  -29.3270  -24.6170   19.6820 C   0  0  0  0  0  2  0  0  0  0  0  0
  -28.0710  -25.4830   19.4810 C   0  0  0  0  0  2  0  0  0  0  0  0
  -28.2200  -26.8870   19.7660 O   0  0  0  0  0  0  0  0  0  0  0  0
  -24.5270  -31.9850   23.1440 C   0  0  0  0  0  0  0  0  0  0  0  0
  -27.0480  -27.6260   19.8250 C   0  0  0  0  0  0  0  0  0  0  0  0
  -23.2580  -30.6240   21.5190 C   0  0  0  0  0  3  0  0  0  0  0  0
  -24.6530  -29.1410   19.9910 C   0  0  0  0  0  0  0  0  0  0  0  0
  -25.7770  -30.9960   21.2250 C   0  0  0  0  0  2  0  0  0  0  0  0
  -25.8390  -29.6450   20.5380 C   0  0  0  0  0  0  0  0  0  0  0  0
  -27.0390  -28.8980   20.4510 C   0  0  0  0  0  3  0  0  0  0  0  0
  -25.8310  -27.1440   19.2800 C   0  0  0  0  0  3  0  0  0  0  0  0
  -24.6460  -27.8900   19.3590 C   0  0  0  0  0  3  0  0  0  0  0  0
  -23.4090  -29.9890   20.1150 C   0  0  0  0  0  2  0  0  0  0  0  0
  -24.5420  -31.2150   22.0200 N   0  0  0  0  0  0  0  0  0  0  0  0
  -23.4680  -32.2380   23.7350 O   0  0  0  0  0  0  0  0  0  0  0  0
  -22.6520  -29.5710   22.4750 C   0  0  0  0  0  0  0  0  0  0  0  0
  -21.3280  -29.3670   22.3780 N   0  0  0  0  0  0  0  0  0  0  0  0
  -23.3670  -28.9430   23.2600 O   0  0  0  0  0  0  0  0  0  0  0  0
  -20.8090  -29.9260   21.7160 H   0  0  0  0  0  0  0  0  0  0  0  0
  -17.9900  -28.0950   22.9340 C   0  0  0  0  0  0  0  0  0  0  0  0
  -20.5480  -28.4000   23.1510 C   0  0  0  0  0  3  0  0  0  0  0  0
  -20.6650  -26.9810   22.5490 C   0  0  0  0  0  2  0  0  0  0  0  0
  -19.5450  -26.6530   21.5550 C   0  0  0  0  0  2  0  0  0  0  0  0
  -18.1760  -26.7610   22.2330 C   0  0  0  0  0  2  0  0  0  0  0  0
  -19.1030  -28.8730   23.3500 C   0  0  0  0  0  0  0  0  0  0  0  0
  -18.8740  -30.1230   23.9650 C   0  0  0  0  0  3  0  0  0  0  0  0
  -17.5630  -30.5980   24.1650 C   0  0  0  0  0  3  0  0  0  0  0  0
  -16.4650  -29.8160   23.7650 C   0  0  0  0  0  3  0  0  0  0  0  0
  -16.6790  -28.5670   23.1570 C   0  0  0  0  0  3  0  0  0  0  0  0
  -25.8340  -32.6060   23.7280 C   0  0  0  0  0  3  0  0  0  0  0  0
  -26.3870  -31.8260   24.9810 C   0  0  1  0  0  0  0  0  0  0  0  0
  -25.3270  -31.5870   26.0830 C   0  0  0  0  0  1  0  0  0  0  0  0
  -26.9520  -30.4480   24.5610 C   0  0  0  0  0  1  0  0  0  0  0  0
  -27.5620  -32.6120   25.6110 C   0  0  0  0  0  1  0  0  0  0  0  0
  -25.5440  -34.0040   24.0730 N   0  0  0  0  0  0  0  0  0  0  0  0
  -25.8600  -35.0570   23.3080 C   0  0  0  0  0  0  0  0  0  0  0  0
  -26.5000  -34.9540   22.2580 O   0  0  0  0  0  0  0  0  0  0  0  0
  -24.9770  -34.1590   24.8930 H   0  0  0  0  0  0  0  0  0  0  0  0
  -24.1360  -36.8610   23.0020 C   0  0  0  0  0  1  0  0  0  0  0  0
  -25.3920  -36.4460   23.7840 C   0  0  0  0  0  3  0  0  0  0  0  0
  -27.5490  -37.3120   24.5750 C   0  0  0  0  0  1  0  0  0  0  0  0
  -26.4290  -37.4920   23.6530 N   0  0  0  0  0  0  0  0  0  0  0  0
  -26.0330  -38.4150   23.8130 H   0  0  0  0  0  0  0  0  0  0  0  0
  1  4  1  0
  1  3  1  0
  3  2  1  0
  3  8  1  0
  4 50  1  0
  4  2  1  0
  6  5  1  0
  7  8  2  0
  7 10  1  0
  8  9  1  0
  9 11  1  0
  9  5  2  0
 10  6  2  0
 12 20  1  0
 13 18  1  0
 14 15  1  0
 14 13  1  0
 16 15  1  0
 16 25  1  0
 16 17  1  0
 18 12  1  0
 18 17  1  0
 19 12  2  0
 20 21  1  0
 20 10  1  0
 22 23  2  0
 23 42  1  0
 24 23  1  0
 24 27  1  0
 25 26  1  0
 25 22  1  0
 26 24  2  0
 27 28  1  0
 28 29  2  0
 30 33  1  0
 30 29  1  0
 31 30  2  0
 32 31  1  0
 32 27  2  0
 33 34  1  0
 34 35  1  0
 35 36  2  0
 37 36  1  0
 37 41  1  0
 38 37  2  0
 39 34  2  0
 39 38  1  0
 40 39  1  0
 42 43  1  0
 43 46  1  0
 43 45  1  0
 44 42  2  0
 47 22  1  0
 47 48  1  0
 49 47  1  0
 50 51  1  0
 52 51  1  0
 52 53  1  0
 53 55  1  0
 54 65  2  0
 55 60  1  0
 56 64  1  0
 56 66  1  0
 57 63  1  0
 57 59  1  0
 58 64  1  0
 59 58  1  0
 60 59  2  0
 61 62  1  0
 61 55  2  0
 62 57  2  0
 63 56  1  0
 64 54  1  0
 66 68  2  0
 67 66  1  0
 69 67  1  0
 70 79  2  0
 70 75  1  0
 71 67  1  0
 71 75  1  0
 72 71  1  0
 73 74  1  0
 73 72  1  0
 74 70  1  0
 75 76  2  0
 76 77  1  0
 78 77  2  0
 79 78  1  0
 80 54  1  0
 80 85  1  0
 80 81  1  0
 81 84  1  1
 81 82  1  0
 83 81  1  0
 85 88  1  0
 86 90  1  0
 86 85  1  0
 87 86  2  0
 90 89  1  0
 92 90  1  0
 92 93  1  0
 92 91  1  0
M  ISO  4  12 100  20 100  52 101  53 101
M  END
>  <TORSDO>  (71) 
F 20

>  <SCORE>  (71) 
-12.907

>  <name>  (71) 
70

>  <ligand_id>  (71) 
70

>  <original_smiles>  (71) 
[H]c1c([H])c([H])c2c(c1[H])C([H])([H])C([H])([H])C([H])([H])C2([H])N([H])C(=O)C1([H])N(C(=O)C([H])(N([H])C(=O)C([H])(N([H])C([H])([H])[H])C([H])([H])[H])C(C([H])([H])[H])(C([H])([H])[H])C([H])([H])[H])C([H])([H])c2c([H])c(OC([H])([H])C([H])([H])OC3([H])C([H])([H])C([H])(c4c([H])c(N([H])C(=O)N5C([H])([H])C([H])([H])C([H])([H])C([H])(n6nc(-c7c([H])c([H])c(Oc8c([H])c([H])c(F)c([H])c8F)c([H])c7[H])c(C(=O)N([H])[H])c6N([H])[H])C5([H])[H])c([H])c([H])c4C([H])([H])[H])C3([H])[H])c([H])c([H])c2C1([H])[H]

>  <smiles>  (71) 
[H]c1c([H])c([H])c2c(c1[H])C([H])([H])C([H])([H])C([H])([H])C2([H])N([H])C(=O)C1([H])N(C(=O)C([H])(N([H])C(=O)C([H])(N([H])C([H])([H])[H])C([H])([H])[H])C(C([H])([H])[H])(C([H])([H])[H])C([H])([H])[H])C([H])([H])c2c([H])c(OC([H])([H])C([H])([H])OC3([H])C([H])([H])C([H])(c4c([H])c(N([H])C(=O)N5C([H])([H])C([H])([H])C([H])([H])C([H])(n6nc(-c7c([H])c([H])c(Oc8c([H])c([H])c(F)c([H])c8F)c([H])c7[H])c(C(=O)N([H])[H])c6N([H])[H])C5([H])[H])c([H])c([H])c4C([H])([H])[H])C3([H])[H])c([H])c([H])c2C1([H])[H]

$$$$
71:0:0
     RDKit          3D

 94103  0  0  1  0  0  0  0  0999 V2000
  -29.8780  -21.8140   22.6000 C   0  0  0  0  0  3  0  0  0  0  0  0
  -30.1170  -19.8300   21.1750 C   0  0  0  0  0  0  0  0  0  0  0  0
  -30.1480  -20.4420   22.4630 C   0  0  0  0  0  0  0  0  0  0  0  0
  -29.8510  -20.7300   20.0790 C   0  0  0  0  0  0  0  0  0  0  0  0
  -29.6090  -22.1290   20.3330 C   0  0  0  0  0  0  0  0  0  0  0  0
  -30.4450  -19.6780   23.7510 C   0  0  0  0  0  1  0  0  0  0  0  0
  -29.8060  -20.1980   18.6530 C   0  0  0  0  0  1  0  0  0  0  0  0
  -29.6030  -22.6310   21.5740 N   0  0  0  0  0  0  0  0  0  0  0  0
  -29.4140  -23.1000   19.3230 N   0  0  0  0  0  0  0  0  0  0  0  0
  -29.5300  -22.7570   18.3760 H   0  0  0  0  0  0  0  0  0  0  0  0
  -31.1130  -14.8350   19.8130 C   0  0  0  0  0  0  0  0  0  0  0  0
  -30.8040  -12.6520   18.6500 C   0  0  0  0  0  2  0  0  0  0  0  0
  -29.7270  -12.7990   17.5500 C   0  0  0  0  0  2  0  0  0  0  0  0
  -28.3030  -12.6180   18.1210 C   0  0  0  0  0  2  0  0  0  0  0  0
  -28.0860  -13.4190   19.4330 C   0  0  0  0  0  3  0  0  0  0  0  0
  -29.2600  -13.1520   20.4040 C   0  0  0  0  0  2  0  0  0  0  0  0
  -30.4780  -13.6140   19.7270 N   0  0  0  0  0  0  0  0  0  0  0  0
  -32.2040  -14.9900   19.2500 O   0  0  0  0  0  0  0  0  0  0  0  0
  -29.0380  -17.5050   21.5390 C   0  0  0  0  0  2  0  0  0  0  0  0
  -29.4050  -16.0340   21.3220 C   0  0  0  0  0  2  0  0  0  0  0  0
  -30.7780  -17.3760   19.9300 C   0  0  0  0  0  2  0  0  0  0  0  0
  -30.2850  -18.2580   21.1250 C   0  0  0  0  0  3  0  0  0  0  0  0
  -30.4180  -15.9540   20.2530 N   0  0  0  0  0  0  0  0  0  0  0  0
  -25.8080  -14.0140   20.4730 C   0  0  0  0  0  0  0  0  0  0  0  0
  -24.7680  -13.2330   20.9000 C   0  0  0  0  0  0  0  0  0  0  0  0
  -25.1770  -11.8820   20.6880 C   0  0  0  0  0  0  0  0  0  0  0  0
  -26.7900  -13.1340   20.0410 N   0  0  0  0  0  0  0  0  0  0  0  0
  -26.4190  -11.8420   20.2230 N   0  0  0  0  0  0  0  0  0  0  0  0
  -24.4380  -10.6240   20.8460 C   0  0  0  0  0  0  0  0  0  0  0  0
  -24.8690   -9.6220   21.7440 C   0  0  0  0  0  3  0  0  0  0  0  0
  -24.1330   -8.4280   21.8910 C   0  0  0  0  0  3  0  0  0  0  0  0
  -22.9500   -8.2280   21.1400 C   0  0  0  0  0  0  0  0  0  0  0  0
  -22.5370   -9.2180   20.2310 C   0  0  0  0  0  3  0  0  0  0  0  0
  -23.2750  -10.4030   20.0820 C   0  0  0  0  0  3  0  0  0  0  0  0
  -22.1850   -7.0880   21.1970 O   0  0  0  0  0  0  0  0  0  0  0  0
  -21.9900   -6.4110   22.3740 C   0  0  0  0  0  0  0  0  0  0  0  0
  -21.4380   -7.0390   23.5120 C   0  0  0  0  0  3  0  0  0  0  0  0
  -21.1910   -6.2890   24.6800 C   0  0  0  0  0  3  0  0  0  0  0  0
  -21.4870   -4.9130   24.7090 C   0  0  0  0  0  0  0  0  0  0  0  0
  -22.0310   -4.2850   23.5750 C   0  0  0  0  0  3  0  0  0  0  0  0
  -22.2800   -5.0320   22.4110 C   0  0  0  0  0  0  0  0  0  0  0  0
  -22.7870   -4.4180   21.3140 F   0  0  0  0  0  0  0  0  0  0  0  0
  -21.2420   -4.1910   25.8270 F   0  0  0  0  0  0  0  0  0  0  0  0
  -23.4300  -13.7140   21.3840 C   0  0  0  0  0  0  0  0  0  0  0  0
  -22.8070  -12.9760   22.2970 N   0  0  0  0  0  0  0  0  0  0  0  0
  -22.9510  -14.7760   20.9900 O   0  0  0  0  0  0  0  0  0  0  0  0
  -23.2090  -12.1160   22.6370 H   0  0  0  0  0  0  0  0  0  0  0  0
  -21.9170  -13.2820   22.6630 H   0  0  0  0  0  0  0  0  0  0  0  0
  -25.9850  -15.3920   20.4000 N   0  0  0  0  0  0  0  0  0  0  0  0
  -25.2520  -16.0390   20.6670 H   0  0  0  0  0  0  0  0  0  0  0  0
  -26.7960  -15.8530   20.0070 H   0  0  0  0  0  0  0  0  0  0  0  0
  -28.5360  -24.3020   19.4310 C   0  0  0  0  0  2  0  0  0  0  0  0
  -29.0300  -25.5270   20.2840 C   0  0  0  0  0  2  0  0  0  0  0  0
  -28.8470  -26.8760   19.7520 O   0  0  0  0  0  0  0  0  0  0  0  0
  -24.5690  -31.6370   23.0240 C   0  0  0  0  0  0  0  0  0  0  0  0
  -27.6100  -27.5030   19.8270 C   0  0  0  0  0  0  0  0  0  0  0  0
  -23.5030  -30.2010   21.3170 C   0  0  0  0  0  3  0  0  0  0  0  0
  -25.0970  -28.8350   19.8600 C   0  0  0  0  0  0  0  0  0  0  0  0
  -25.9960  -30.7680   21.1640 C   0  0  0  0  0  2  0  0  0  0  0  0
  -26.2060  -29.4270   20.4750 C   0  0  0  0  0  0  0  0  0  0  0  0
  -27.4650  -28.7750   20.4450 C   0  0  0  0  0  3  0  0  0  0  0  0
  -26.4780  -26.9290   19.2130 C   0  0  0  0  0  3  0  0  0  0  0  0
  -25.2310  -27.5870   19.2240 C   0  0  0  0  0  3  0  0  0  0  0  0
  -23.7850  -29.5900   19.9180 C   0  0  0  0  0  2  0  0  0  0  0  0
  -24.7070  -30.8850   21.8940 N   0  0  0  0  0  0  0  0  0  0  0  0
  -23.4630  -31.7980   23.5600 O   0  0  0  0  0  0  0  0  0  0  0  0
  -22.9280  -29.0970   22.2330 C   0  0  0  0  0  0  0  0  0  0  0  0
  -21.6360  -28.7770   22.0520 N   0  0  0  0  0  0  0  0  0  0  0  0
  -23.6440  -28.5300   23.0630 O   0  0  0  0  0  0  0  0  0  0  0  0
  -21.1140  -29.2900   21.3550 H   0  0  0  0  0  0  0  0  0  0  0  0
  -18.4060  -27.1850   22.3700 C   0  0  0  0  0  0  0  0  0  0  0  0
  -20.9010  -27.7350   22.7690 C   0  0  0  0  0  3  0  0  0  0  0  0
  -21.1980  -26.3360   22.1820 C   0  0  0  0  0  2  0  0  0  0  0  0
  -20.1900  -25.9030   21.1130 C   0  0  0  0  0  2  0  0  0  0  0  0
  -18.7720  -25.8770   21.6900 C   0  0  0  0  0  2  0  0  0  0  0  0
  -19.4060  -28.0650   22.8630 C   0  0  0  0  0  0  0  0  0  0  0  0
  -19.0130  -29.2830   23.4570 C   0  0  0  0  0  3  0  0  0  0  0  0
  -17.6510  -29.6260   23.5640 C   0  0  0  0  0  3  0  0  0  0  0  0
  -16.6660  -28.7440   23.0890 C   0  0  0  0  0  3  0  0  0  0  0  0
  -17.0440  -27.5250   22.4970 C   0  0  0  0  0  3  0  0  0  0  0  0
  -25.7900  -32.3530   23.6840 C   0  0  0  0  0  3  0  0  0  0  0  0
  -25.3840  -33.7320   23.9870 N   0  0  0  0  0  0  0  0  0  0  0  0
  -25.6640  -34.7930   23.2190 C   0  0  0  0  0  0  0  0  0  0  0  0
  -26.3590  -34.7190   22.2010 O   0  0  0  0  0  0  0  0  0  0  0  0
  -24.7660  -33.8580   24.7750 H   0  0  0  0  0  0  0  0  0  0  0  0
  -23.8220  -36.4570   22.8150 C   0  0  0  0  0  1  0  0  0  0  0  0
  -25.0790  -36.1540   23.6450 C   0  0  0  0  0  3  0  0  0  0  0  0
  -27.1370  -37.2010   24.4820 C   0  0  0  0  0  1  0  0  0  0  0  0
  -26.0390  -37.2710   23.5200 N   0  0  0  0  0  0  0  0  0  0  0  0
  -25.5700  -38.1640   23.6390 H   0  0  0  0  0  0  0  0  0  0  0  0
  -26.3060  -31.6250   24.9860 C   0  0  1  0  0  0  0  0  0  0  0  0
  -25.1880  -31.3050   26.0050 C   0  0  0  0  0  1  0  0  0  0  0  0
  -27.0120  -30.2970   24.6260 C   0  0  0  0  0  1  0  0  0  0  0  0
  -27.3610  -32.5080   25.6940 C   0  0  0  0  0  1  0  0  0  0  0  0
  2  3  2  0
  3  1  1  0
  3  6  1  0
  4  5  2  0
  4  2  1  0
  5  8  1  0
  7  4  1  0
  8  1  2  0
  9 52  1  0
  9  5  1  0
 10  9  1  0
 11 23  1  0
 12 17  1  0
 13 14  1  0
 13 12  1  0
 15 14  1  0
 15 27  1  0
 15 16  1  0
 17 11  1  0
 17 16  1  0
 18 11  2  0
 20 19  1  0
 21 23  1  0
 21 22  1  0
 22  2  1  0
 22 19  1  0
 23 20  1  0
 24 25  2  0
 25 44  1  0
 26 29  1  0
 26 25  1  0
 27 28  1  0
 27 24  1  0
 28 26  2  0
 29 30  1  0
 30 31  2  0
 32 35  1  0
 32 31  1  0
 33 32  2  0
 34 33  1  0
 34 29  2  0
 35 36  1  0
 36 41  2  0
 36 37  1  0
 37 38  2  0
 38 39  1  0
 39 43  1  0
 40 39  2  0
 41 40  1  0
 42 41  1  0
 44 45  1  0
 45 47  1  0
 45 48  1  0
 46 44  2  0
 49 24  1  0
 49 50  1  0
 51 49  1  0
 52 53  1  0
 54 56  1  0
 54 53  1  0
 55 66  2  0
 56 61  1  0
 57 65  1  0
 57 67  1  0
 58 64  1  0
 58 60  1  0
 59 65  1  0
 60 59  1  0
 61 60  2  0
 62 63  1  0
 62 56  2  0
 63 58  2  0
 64 57  1  0
 65 55  1  0
 67 69  2  0
 68 67  1  0
 70 68  1  0
 71 80  2  0
 71 76  1  0
 72 68  1  0
 72 76  1  0
 73 72  1  0
 74 75  1  0
 74 73  1  0
 75 71  1  0
 76 77  2  0
 77 78  1  0
 79 78  2  0
 80 79  1  0
 81 55  1  0
 81 82  1  0
 81 91  1  0
 82 85  1  0
 83 87  1  0
 83 82  1  0
 84 83  2  0
 87 86  1  0
 89 90  1  0
 89 87  1  0
 89 88  1  0
 91 94  1  1
 91 92  1  0
 93 91  1  0
M  ISO  4  11 100  23 100  53 101  54 101
M  END
>  <TORSDO>  (72) 
F 18

>  <SCORE>  (72) 
-11.521

>  <name>  (72) 
71

>  <ligand_id>  (72) 
71

>  <original_smiles>  (72) 
[H]c1nc(N([H])C([H])([H])C([H])([H])Oc2c([H])c([H])c3c(c2[H])C([H])([H])N(C(=O)C([H])(N([H])C(=O)C([H])(N([H])C([H])([H])[H])C([H])([H])[H])C(C([H])([H])[H])(C([H])([H])[H])C([H])([H])[H])C([H])(C(=O)N([H])C2([H])c4c([H])c([H])c([H])c([H])c4C([H])([H])C([H])([H])C2([H])[H])C3([H])[H])c(C([H])([H])[H])c(C2([H])C([H])([H])N(C(=O)N3C([H])([H])C([H])([H])C([H])([H])C([H])(n4nc(-c5c([H])c([H])c(Oc6c([H])c([H])c(F)c([H])c6F)c([H])c5[H])c(C(=O)N([H])[H])c4N([H])[H])C3([H])[H])C([H])([H])C2([H])[H])c1C([H])([H])[H]

>  <smiles>  (72) 
[H]c1nc(N([H])C([H])([H])C([H])([H])Oc2c([H])c([H])c3c(c2[H])C([H])([H])N(C(=O)C([H])(N([H])C(=O)C([H])(N([H])C([H])([H])[H])C([H])([H])[H])C(C([H])([H])[H])(C([H])([H])[H])C([H])([H])[H])C([H])(C(=O)N([H])C2([H])c4c([H])c([H])c([H])c([H])c4C([H])([H])C([H])([H])C2([H])[H])C3([H])[H])c(C([H])([H])[H])c(C2([H])C([H])([H])N(C(=O)N3C([H])([H])C([H])([H])C([H])([H])C([H])(n4nc(-c5c([H])c([H])c(Oc6c([H])c([H])c(F)c([H])c6F)c([H])c5[H])c(C(=O)N([H])[H])c4N([H])[H])C3([H])[H])C([H])([H])C2([H])[H])c1C([H])([H])[H]

$$$$
72:0:0
     RDKit          3D

 98107  0  0  1  0  0  0  0  0999 V2000
  -31.0110  -19.4560   21.5690 C   0  0  0  0  0  3  0  0  0  0  0  0
  -32.3590  -17.5610   20.1130 C   0  0  0  0  0  3  0  0  0  0  0  0
  -30.2600  -18.4320   20.9720 C   0  0  0  0  0  0  0  0  0  0  0  0
  -30.9500  -17.2810   20.4120 C   0  0  0  0  0  3  0  0  0  0  0  0
  -32.9610  -18.7370   20.6560 C   0  0  0  0  0  0  0  0  0  0  0  0
  -32.3210  -19.6020   21.4450 N   0  0  0  0  0  0  0  0  0  0  0  0
  -30.6560  -14.6950   19.9930 C   0  0  0  0  0  0  0  0  0  0  0  0
  -30.1310  -12.5080   18.9480 C   0  0  0  0  0  2  0  0  0  0  0  0
  -29.1580  -12.6460   17.7680 C   0  0  0  0  0  2  0  0  0  0  0  0
  -27.7220  -12.4830   18.2860 C   0  0  0  0  0  2  0  0  0  0  0  0
  -27.4290  -13.3640   19.5320 C   0  0  0  0  0  3  0  0  0  0  0  0
  -28.5580  -13.3170   20.5900 C   0  0  0  0  0  2  0  0  0  0  0  0
  -29.8200  -13.6050   19.9010 N   0  0  0  0  0  0  0  0  0  0  0  0
  -31.7960  -14.5030   19.6330 O   0  0  0  0  0  0  0  0  0  0  0  0
  -30.2110  -15.9870   20.2090 N   0  0  0  0  0  0  0  0  0  0  0  0
  -29.2180  -16.0440   20.3640 H   0  0  0  0  0  0  0  0  0  0  0  0
  -25.0750  -13.9130   20.3820 C   0  0  0  0  0  0  0  0  0  0  0  0
  -24.0430  -13.1230   20.8040 C   0  0  0  0  0  0  0  0  0  0  0  0
  -24.5260  -11.7790   20.7610 C   0  0  0  0  0  0  0  0  0  0  0  0
  -26.1210  -13.0510   20.1000 N   0  0  0  0  0  0  0  0  0  0  0  0
  -25.8020  -11.7640   20.3930 N   0  0  0  0  0  0  0  0  0  0  0  0
  -23.8290  -10.5060   20.9890 C   0  0  0  0  0  0  0  0  0  0  0  0
  -24.3020   -9.5610   21.9230 C   0  0  0  0  0  3  0  0  0  0  0  0
  -23.6040   -8.3530   22.1390 C   0  0  0  0  0  3  0  0  0  0  0  0
  -22.4150   -8.0810   21.4220 C   0  0  0  0  0  0  0  0  0  0  0  0
  -21.9590   -9.0160   20.4740 C   0  0  0  0  0  3  0  0  0  0  0  0
  -22.6600  -10.2160   20.2550 C   0  0  0  0  0  3  0  0  0  0  0  0
  -21.6820   -6.9260   21.5480 O   0  0  0  0  0  0  0  0  0  0  0  0
  -21.6640   -6.2100   22.7190 C   0  0  0  0  0  0  0  0  0  0  0  0
  -21.2670   -6.7920   23.9430 C   0  0  0  0  0  3  0  0  0  0  0  0
  -21.1970   -6.0010   25.1070 C   0  0  0  0  0  3  0  0  0  0  0  0
  -21.5120   -4.6310   25.0500 C   0  0  0  0  0  0  0  0  0  0  0  0
  -21.9030   -4.0490   23.8310 C   0  0  0  0  0  3  0  0  0  0  0  0
  -21.9760   -4.8360   22.6690 C   0  0  0  0  0  0  0  0  0  0  0  0
  -22.3330   -4.2650   21.4930 F   0  0  0  0  0  0  0  0  0  0  0  0
  -21.4370   -3.8700   26.1670 F   0  0  0  0  0  0  0  0  0  0  0  0
  -22.6500  -13.5790   21.1330 C   0  0  0  0  0  0  0  0  0  0  0  0
  -21.9740  -12.8840   22.0390 N   0  0  0  0  0  0  0  0  0  0  0  0
  -22.1720  -14.5890   20.6170 O   0  0  0  0  0  0  0  0  0  0  0  0
  -22.3760  -12.0690   22.4780 H   0  0  0  0  0  0  0  0  0  0  0  0
  -21.0410  -13.1700   22.3000 H   0  0  0  0  0  0  0  0  0  0  0  0
  -25.2110  -15.2830   20.1890 N   0  0  0  0  0  0  0  0  0  0  0  0
  -24.4430  -15.9290   20.3360 H   0  0  0  0  0  0  0  0  0  0  0  0
  -26.0370  -15.7290   19.8110 H   0  0  0  0  0  0  0  0  0  0  0  0
  -34.3150  -15.8300   19.6910 C   0  0  0  0  0  2  0  0  0  0  0  0
  -34.6710  -16.8900   18.6900 C   0  0  0  0  0  2  0  0  0  0  0  0
  -33.2170  -16.7380   19.1500 C   0  0  0  0  0  3  0  0  0  0  0  0
  -34.7700  -20.3650   20.7030 C   0  0  0  0  0  1  0  0  0  0  0  0
  -34.2720  -19.0650   20.3820 O   0  0  0  0  0  0  0  0  0  0  0  0
  -28.7550  -18.7880   20.8980 C   0  0  0  0  0  2  0  0  0  0  0  0
  -28.4700  -20.1630   20.1270 C   0  0  0  0  0  2  0  0  0  0  0  0
  -28.1500  -21.5120   20.9110 C   0  0  0  0  0  2  0  0  0  0  0  0
  -28.6120  -22.7800   20.2260 N   0  0  0  0  0  4  0  0  0  0  0  0
  -28.7420  -22.5560   19.2530 H   0  0  0  0  0  0  0  0  0  0  0  0
  -29.5250  -23.0220   20.5780 H   0  0  0  0  0  0  0  0  0  0  0  0
  -27.7270  -24.0130   20.2300 C   0  0  0  0  0  2  0  0  0  0  0  0
  -28.3470  -25.3230   20.8580 C   0  0  0  0  0  2  0  0  0  0  0  0
  -28.2900  -26.5810   20.1160 O   0  0  0  0  0  0  0  0  0  0  0  0
  -24.5690  -31.8810   23.2160 C   0  0  0  0  0  0  0  0  0  0  0  0
  -27.1400  -27.3530   20.1640 C   0  0  0  0  0  0  0  0  0  0  0  0
  -23.3480  -30.4990   21.5710 C   0  0  0  0  0  3  0  0  0  0  0  0
  -24.7800  -28.9320   20.1510 C   0  0  0  0  0  0  0  0  0  0  0  0
  -25.8810  -30.8140   21.3730 C   0  0  0  0  0  2  0  0  0  0  0  0
  -25.9490  -29.4330   20.7410 C   0  0  0  0  0  0  0  0  0  0  0  0
  -27.1350  -28.6570   20.7350 C   0  0  0  0  0  3  0  0  0  0  0  0
  -25.9570  -26.8820   19.5620 C   0  0  0  0  0  3  0  0  0  0  0  0
  -24.7810  -27.6600   19.5540 C   0  0  0  0  0  3  0  0  0  0  0  0
  -23.5500  -29.8140   20.1930 C   0  0  0  0  0  2  0  0  0  0  0  0
  -24.6190  -31.0810   22.1130 N   0  0  0  0  0  0  0  0  0  0  0  0
  -23.4910  -32.1620   23.7580 O   0  0  0  0  0  0  0  0  0  0  0  0
  -22.6810  -29.4880   22.5330 C   0  0  0  0  0  0  0  0  0  0  0  0
  -21.3610  -29.2930   22.3830 N   0  0  0  0  0  0  0  0  0  0  0  0
  -23.3530  -28.8820   23.3700 O   0  0  0  0  0  0  0  0  0  0  0  0
  -20.8790  -29.8350   21.6800 H   0  0  0  0  0  0  0  0  0  0  0  0
  -17.9930  -28.0430   22.7990 C   0  0  0  0  0  0  0  0  0  0  0  0
  -20.5370  -28.3560   23.1470 C   0  0  0  0  0  3  0  0  0  0  0  0
  -20.6860  -26.9160   22.6080 C   0  0  0  0  0  2  0  0  0  0  0  0
  -19.6230  -26.5490   21.5660 C   0  0  0  0  0  2  0  0  0  0  0  0
  -18.2170  -26.6830   22.1620 C   0  0  0  0  0  2  0  0  0  0  0  0
  -19.0830  -28.8360   23.2490 C   0  0  0  0  0  0  0  0  0  0  0  0
  -18.8200  -30.1090   23.8010 C   0  0  0  0  0  3  0  0  0  0  0  0
  -17.5000  -30.5870   23.9100 C   0  0  0  0  0  3  0  0  0  0  0  0
  -16.4250  -29.7920   23.4770 C   0  0  0  0  0  3  0  0  0  0  0  0
  -16.6730  -28.5220   22.9260 C   0  0  0  0  0  3  0  0  0  0  0  0
  -25.8600  -32.5010   23.8390 C   0  0  0  0  0  3  0  0  0  0  0  0
  -25.5610  -33.8950   24.1920 N   0  0  0  0  0  0  0  0  0  0  0  0
  -25.8950  -34.9580   23.4490 C   0  0  0  0  0  0  0  0  0  0  0  0
  -26.5590  -34.8650   22.4130 O   0  0  0  0  0  0  0  0  0  0  0  0
  -24.9790  -34.0410   25.0030 H   0  0  0  0  0  0  0  0  0  0  0  0
  -24.1770  -36.7630   23.1220 C   0  0  0  0  0  1  0  0  0  0  0  0
  -25.4140  -36.3410   23.9290 C   0  0  0  0  0  3  0  0  0  0  0  0
  -27.5590  -37.1950   24.7660 C   0  0  0  0  0  1  0  0  0  0  0  0
  -26.4520  -37.3910   23.8340 N   0  0  0  0  0  0  0  0  0  0  0  0
  -26.0530  -38.3120   24.0010 H   0  0  0  0  0  0  0  0  0  0  0  0
  -26.3820  -31.7070   25.0990 C   0  0  1  0  0  0  0  0  0  0  0  0
  -25.2960  -31.4470   26.1690 C   0  0  0  0  0  1  0  0  0  0  0  0
  -26.9610  -30.3380   24.6750 C   0  0  0  0  0  1  0  0  0  0  0  0
  -27.5400  -32.4840   25.7690 C   0  0  0  0  0  1  0  0  0  0  0  0
  2 47  1  0
  2  4  1  0
  2  5  1  0
  3  1  2  0
  4 15  1  0
  4  3  1  0
  5  6  2  0
  6  1  1  0
  7 15  1  0
  8 13  1  0
  9 10  1  0
  9  8  1  0
 11 10  1  0
 11 20  1  0
 11 12  1  0
 13  7  1  0
 13 12  1  0
 14  7  2  0
 15 16  1  0
 17 18  2  0
 18 37  1  0
 19 18  1  0
 19 22  1  0
 20 17  1  0
 20 21  1  0
 21 19  2  0
 22 23  1  0
 23 24  2  0
 25 28  1  0
 25 24  1  0
 26 25  2  0
 27 26  1  0
 27 22  2  0
 28 29  1  0
 29 30  1  0
 30 31  2  0
 32 31  1  0
 32 36  1  0
 33 32  2  0
 34 29  2  0
 34 33  1  0
 35 34  1  0
 37 38  1  0
 38 41  1  0
 38 40  1  0
 39 37  2  0
 42 43  1  0
 42 17  1  0
 44 42  1  0
 46 47  1  0
 46 45  1  0
 47 45  1  0
 49  5  1  0
 49 48  1  0
 50  3  1  0
 51 50  1  0
 51 52  1  0
 53 56  1  0
 53 55  1  0
 53 52  1  0
 54 53  1  0
 56 57  1  0
 58 60  1  0
 58 57  1  0
 59 70  2  0
 60 65  1  0
 61 69  1  0
 61 71  1  0
 62 68  1  0
 62 64  1  0
 63 69  1  0
 64 63  1  0
 65 64  2  0
 66 60  2  0
 67 66  1  0
 67 62  2  0
 68 61  1  0
 69 59  1  0
 71 73  2  0
 72 71  1  0
 74 72  1  0
 75 84  2  0
 75 80  1  0
 76 72  1  0
 76 80  1  0
 77 76  1  0
 78 79  1  0
 78 77  1  0
 79 75  1  0
 80 81  2  0
 81 82  1  0
 83 82  2  0
 84 83  1  0
 85 59  1  0
 85 86  1  0
 85 95  1  0
 86 89  1  0
 87 91  1  0
 87 86  1  0
 88 87  2  0
 91 90  1  0
 93 91  1  0
 93 94  1  0
 93 92  1  0
 95 98  1  1
 95 96  1  0
 97 95  1  0
M  ISO  4   7 100  15 100  57 101  58 101
M  END
>  <TORSDO>  (73) 
F 24

>  <SCORE>  (73) 
-12.227

>  <name>  (73) 
72

>  <ligand_id>  (73) 
72

>  <original_smiles>  (73) 
[H]c1nc(OC([H])([H])[H])c(C2([H])C([H])([H])C2([H])[H])c(N([H])C(=O)N2C([H])([H])C([H])([H])C([H])([H])C([H])(n3nc(-c4c([H])c([H])c(Oc5c([H])c([H])c(F)c([H])c5F)c([H])c4[H])c(C(=O)N([H])[H])c3N([H])[H])C2([H])[H])c1C([H])([H])C([H])([H])C([H])([H])[N+]([H])([H])C([H])([H])C([H])([H])Oc1c([H])c([H])c2c(c1[H])C([H])([H])N(C(=O)C([H])(N([H])C(=O)C([H])(N([H])C([H])([H])[H])C([H])([H])[H])C(C([H])([H])[H])(C([H])([H])[H])C([H])([H])[H])C([H])(C(=O)N([H])C1([H])c3c([H])c([H])c([H])c([H])c3C([H])([H])C([H])([H])C1([H])[H])C2([H])[H]

>  <smiles>  (73) 
[H]c1nc(OC([H])([H])[H])c(C2([H])C([H])([H])C2([H])[H])c(N([H])C(=O)N2C([H])([H])C([H])([H])C([H])([H])C([H])(n3nc(-c4c([H])c([H])c(Oc5c([H])c([H])c(F)c([H])c5F)c([H])c4[H])c(C(=O)N([H])[H])c3N([H])[H])C2([H])[H])c1C([H])([H])C([H])([H])C([H])([H])[N+]([H])([H])C([H])([H])C([H])([H])Oc1c([H])c([H])c2c(c1[H])C([H])([H])N(C(=O)C([H])(N([H])C(=O)C([H])(N([H])C([H])([H])[H])C([H])([H])[H])C(C([H])([H])[H])(C([H])([H])[H])C([H])([H])[H])C([H])(C(=O)N([H])C1([H])c3c([H])c([H])c([H])c([H])c3C([H])([H])C([H])([H])C1([H])[H])C2([H])[H]

$$$$
73:0:0
     RDKit          3D

 98109  0  0  1  0  0  0  0  0999 V2000
  -34.0300  -19.7970   17.8760 C   0  0  0  0  0  2  0  0  0  0  0  0
  -34.1780  -20.9800   18.8360 C   0  0  0  0  0  2  0  0  0  0  0  0
  -29.7050  -20.0750   19.7800 C   0  0  0  0  0  2  0  0  0  0  0  0
  -31.7230  -18.7750   18.7670 C   0  0  0  0  0  2  0  0  0  0  0  0
  -30.2850  -21.4450   19.3530 C   0  0  0  0  0  3  0  0  0  0  0  0
  -32.5020  -19.8810   18.0140 C   0  0  0  0  0  3  0  0  0  0  0  0
  -32.6720  -21.2470   18.6960 C   0  0  0  0  0  3  0  0  0  0  0  0
  -31.7440  -21.4580   19.8900 C   0  0  0  0  0  3  0  0  0  0  0  0
  -31.8330  -20.2270   20.8280 C   0  0  0  0  0  3  0  0  0  0  0  0
  -30.9590  -19.1940   20.0810 C   0  0  1  0  0  0  0  0  0  0  0  0
  -31.4190  -20.5390   22.2840 C   0  0  0  0  0  1  0  0  0  0  0  0
  -29.1920  -23.5750   18.4960 C   0  0  0  0  0  3  0  0  0  0  0  0
  -29.2520  -23.2430   20.9020 C   0  0  0  0  0  3  0  0  0  0  0  0
  -28.7380  -24.8970   18.6830 C   0  0  0  0  0  3  0  0  0  0  0  0
  -28.7930  -24.5680   21.0890 C   0  0  0  0  0  3  0  0  0  0  0  0
  -29.5090  -22.7500   19.6030 C   0  0  0  0  0  0  0  0  0  0  0  0
  -28.5800  -25.4180   19.9820 C   0  0  0  0  0  0  0  0  0  0  0  0
  -28.4360  -26.7720   20.1660 O   0  0  0  0  0  0  0  0  0  0  0  0
  -24.5950  -31.8720   23.2590 C   0  0  0  0  0  0  0  0  0  0  0  0
  -27.2210  -27.4190   20.1910 C   0  0  0  0  0  0  0  0  0  0  0  0
  -23.3780  -30.4700   21.6200 C   0  0  0  0  0  3  0  0  0  0  0  0
  -24.8210  -28.9130   20.2020 C   0  0  0  0  0  0  0  0  0  0  0  0
  -25.9000  -30.8190   21.4160 C   0  0  0  0  0  2  0  0  0  0  0  0
  -25.9770  -29.4430   20.7880 C   0  0  0  0  0  0  0  0  0  0  0  0
  -27.1750  -28.7000   20.7820 C   0  0  0  0  0  3  0  0  0  0  0  0
  -26.0500  -26.8920   19.6050 C   0  0  0  0  0  3  0  0  0  0  0  0
  -24.8510  -27.6350   19.6130 C   0  0  0  0  0  3  0  0  0  0  0  0
  -23.5810  -29.7770   20.2440 C   0  0  0  0  0  2  0  0  0  0  0  0
  -24.6430  -31.0690   22.1570 N   0  0  0  0  0  0  0  0  0  0  0  0
  -23.5170  -32.1510   23.8020 O   0  0  0  0  0  0  0  0  0  0  0  0
  -22.7240  -29.4580   22.5860 C   0  0  0  0  0  0  0  0  0  0  0  0
  -21.4000  -29.2770   22.4540 N   0  0  0  0  0  0  0  0  0  0  0  0
  -23.4040  -28.8370   23.4080 O   0  0  0  0  0  0  0  0  0  0  0  0
  -20.9140  -29.8310   21.7630 H   0  0  0  0  0  0  0  0  0  0  0  0
  -18.0230  -28.0850   22.9320 C   0  0  0  0  0  0  0  0  0  0  0  0
  -20.5790  -28.3430   23.2240 C   0  0  0  0  0  3  0  0  0  0  0  0
  -20.6860  -26.9080   22.6570 C   0  0  0  0  0  2  0  0  0  0  0  0
  -19.5920  -26.5810   21.6360 C   0  0  0  0  0  2  0  0  0  0  0  0
  -18.2050  -26.7300   22.2680 C   0  0  0  0  0  2  0  0  0  0  0  0
  -19.1390  -28.8490   23.3660 C   0  0  0  0  0  0  0  0  0  0  0  0
  -18.9170  -30.1180   23.9440 C   0  0  0  0  0  3  0  0  0  0  0  0
  -17.6120  -30.6210   24.0950 C   0  0  0  0  0  3  0  0  0  0  0  0
  -16.5100  -29.8530   23.6790 C   0  0  0  0  0  3  0  0  0  0  0  0
  -16.7170  -28.5880   23.1020 C   0  0  0  0  0  3  0  0  0  0  0  0
  -25.8880  -32.4930   23.8760 C   0  0  0  0  0  3  0  0  0  0  0  0
  -26.4080  -31.7190   25.1480 C   0  0  1  0  0  0  0  0  0  0  0  0
  -25.3200  -31.4850   26.2240 C   0  0  0  0  0  1  0  0  0  0  0  0
  -26.9800  -30.3380   24.7490 C   0  0  0  0  0  1  0  0  0  0  0  0
  -27.5660  -32.5050   25.8060 C   0  0  0  0  0  1  0  0  0  0  0  0
  -25.5900  -33.8930   24.2070 N   0  0  0  0  0  0  0  0  0  0  0  0
  -25.9220  -34.9430   23.4420 C   0  0  0  0  0  0  0  0  0  0  0  0
  -26.5850  -34.8350   22.4070 O   0  0  0  0  0  0  0  0  0  0  0  0
  -25.0020  -34.0530   25.0120 H   0  0  0  0  0  0  0  0  0  0  0  0
  -24.1960  -36.7400   23.0990 C   0  0  0  0  0  1  0  0  0  0  0  0
  -25.4440  -36.3340   23.9010 C   0  0  0  0  0  3  0  0  0  0  0  0
  -27.5900  -37.2140   24.7060 C   0  0  0  0  0  1  0  0  0  0  0  0
  -26.4780  -37.3830   23.7740 N   0  0  0  0  0  0  0  0  0  0  0  0
  -26.0770  -38.3050   23.9230 H   0  0  0  0  0  0  0  0  0  0  0  0
  -30.6870  -17.9040   20.9310 C   0  0  0  0  0  3  0  0  0  0  0  0
  -29.8270  -16.8150   20.2390 C   0  0  0  0  0  3  0  0  0  0  0  0
  -30.6320  -14.4650   20.4660 C   0  0  0  0  0  0  0  0  0  0  0  0
  -30.3570  -12.3040   19.3260 C   0  0  0  0  0  2  0  0  0  0  0  0
  -29.4020  -12.5290   18.1340 C   0  0  0  0  0  2  0  0  0  0  0  0
  -27.9300  -12.3910   18.5730 C   0  0  0  0  0  2  0  0  0  0  0  0
  -27.6070  -13.2090   19.8530 C   0  0  0  0  0  3  0  0  0  0  0  0
  -28.6710  -12.9600   20.9490 C   0  0  0  0  0  2  0  0  0  0  0  0
  -29.9940  -13.2680   20.3790 N   0  0  0  0  0  0  0  0  0  0  0  0
  -31.7510  -14.6710   19.9880 O   0  0  0  0  0  0  0  0  0  0  0  0
  -29.8500  -15.4850   20.8730 N   0  0  0  0  0  0  0  0  0  0  0  0
  -28.9890  -15.2020   21.3180 H   0  0  0  0  0  0  0  0  0  0  0  0
  -25.2120  -13.8210   20.5730 C   0  0  0  0  0  0  0  0  0  0  0  0
  -24.1440  -13.0500   20.9460 C   0  0  0  0  0  0  0  0  0  0  0  0
  -24.6020  -11.6970   20.9060 C   0  0  0  0  0  0  0  0  0  0  0  0
  -26.2540  -12.9370   20.3340 N   0  0  0  0  0  0  0  0  0  0  0  0
  -25.8890  -11.6550   20.5910 N   0  0  0  0  0  0  0  0  0  0  0  0
  -23.8740  -10.4360   21.0960 C   0  0  0  0  0  0  0  0  0  0  0  0
  -24.3250   -9.4560   22.0090 C   0  0  0  0  0  3  0  0  0  0  0  0
  -23.6020   -8.2580   22.1870 C   0  0  0  0  0  3  0  0  0  0  0  0
  -22.4120   -8.0310   21.4540 C   0  0  0  0  0  0  0  0  0  0  0  0
  -21.9790   -9.0000   20.5330 C   0  0  0  0  0  3  0  0  0  0  0  0
  -22.7040  -10.1900   20.3510 C   0  0  0  0  0  3  0  0  0  0  0  0
  -21.6570   -6.8870   21.5440 O   0  0  0  0  0  0  0  0  0  0  0  0
  -21.6450   -6.1190   22.6800 C   0  0  0  0  0  0  0  0  0  0  0  0
  -21.2690   -6.6490   23.9340 C   0  0  0  0  0  3  0  0  0  0  0  0
  -21.2040   -5.8090   25.0630 C   0  0  0  0  0  3  0  0  0  0  0  0
  -21.5050   -4.4390   24.9400 C   0  0  0  0  0  0  0  0  0  0  0  0
  -21.8760   -3.9090   23.6910 C   0  0  0  0  0  3  0  0  0  0  0  0
  -21.9410   -4.7460   22.5650 C   0  0  0  0  0  0  0  0  0  0  0  0
  -22.2780   -4.2260   21.3600 F   0  0  0  0  0  0  0  0  0  0  0  0
  -21.4350   -3.6290   26.0220 F   0  0  0  0  0  0  0  0  0  0  0  0
  -22.7490  -13.5290   21.2320 C   0  0  0  0  0  0  0  0  0  0  0  0
  -22.0280  -12.8300   22.1020 N   0  0  0  0  0  0  0  0  0  0  0  0
  -22.3080  -14.5570   20.7200 O   0  0  0  0  0  0  0  0  0  0  0  0
  -22.3960  -11.9990   22.5390 H   0  0  0  0  0  0  0  0  0  0  0  0
  -21.0920  -13.1310   22.3330 H   0  0  0  0  0  0  0  0  0  0  0  0
  -25.3800  -15.1920   20.3990 N   0  0  0  0  0  0  0  0  0  0  0  0
  -24.6150  -15.8470   20.5150 H   0  0  0  0  0  0  0  0  0  0  0  0
  -26.2270  -15.6270   20.0570 H   0  0  0  0  0  0  0  0  0  0  0  0
  1  2  1  0
  3 10  1  0
  4 10  1  0
  5 16  1  0
  5  3  1  0
  5  8  1  0
  6  1  1  0
  6  7  1  0
  6  4  1  0
  7  2  1  0
  7  8  1  0
  8  9  1  0
  9 11  1  0
 10  9  1  0
 10 59  1  1
 12 14  2  0
 12 16  1  0
 13 15  1  0
 14 17  1  0
 16 13  2  0
 17 18  1  0
 17 15  2  0
 18 20  1  0
 19 30  2  0
 19 45  1  0
 20 25  1  0
 21 29  1  0
 21 31  1  0
 22 28  1  0
 22 24  1  0
 23 29  1  0
 24 23  1  0
 25 24  2  0
 26 27  1  0
 26 20  2  0
 27 22  2  0
 28 21  1  0
 29 19  1  0
 31 33  2  0
 32 31  1  0
 32 36  1  0
 34 32  1  0
 35 44  2  0
 35 40  1  0
 36 40  1  0
 37 36  1  0
 38 39  1  0
 38 37  1  0
 39 35  1  0
 40 41  2  0
 41 42  1  0
 43 42  2  0
 44 43  1  0
 45 50  1  0
 45 46  1  0
 46 49  1  1
 46 47  1  0
 48 46  1  0
 50 53  1  0
 51 55  1  0
 51 50  1  0
 52 51  2  0
 54 55  1  0
 57 55  1  0
 57 58  1  0
 57 56  1  0
 60 69  1  0
 60 59  2  0
 61 69  1  0
 62 67  1  0
 63 64  1  0
 63 62  1  0
 64 65  1  0
 65 74  1  0
 65 66  1  0
 67 61  1  0
 67 66  1  0
 68 61  2  0
 69 70  1  0
 71 72  2  0
 72 91  1  0
 73 72  1  0
 73 76  1  0
 74 71  1  0
 74 75  1  0
 75 73  2  0
 76 77  1  0
 77 78  2  0
 79 82  1  0
 79 78  1  0
 80 79  2  0
 81 80  1  0
 81 76  2  0
 82 83  1  0
 83 84  1  0
 84 85  2  0
 86 85  1  0
 86 90  1  0
 87 86  2  0
 88 83  2  0
 88 87  1  0
 89 88  1  0
 91 92  1  0
 92 95  1  0
 92 94  1  0
 93 91  2  0
 96 97  1  0
 96 71  1  0
 98 96  1  0
M  ISO  4  17 101  18 101  61 100  69 100
M  END
>  <TORSDO>  (74) 
F 19

>  <SCORE>  (74) 
-14.559

>  <name>  (74) 
73

>  <ligand_id>  (74) 
73

>  <original_smiles>  (74) 
[H]c1c([H])c([H])c2c(c1[H])C([H])([H])C([H])([H])C([H])([H])C2([H])N([H])C(=O)C1([H])N(C(=O)C([H])(N([H])C(=O)C([H])(N([H])C([H])([H])[H])C([H])([H])[H])C(C([H])([H])[H])(C([H])([H])[H])C([H])([H])[H])C([H])([H])c2c([H])c(Oc3c([H])c([H])c(C4([H])C([H])([H])C5(C([H])([H])C([H])([H])N([H])C(=O)N6C([H])([H])C([H])([H])C([H])([H])C([H])(n7nc(-c8c([H])c([H])c(Oc9c([H])c([H])c(F)c([H])c9F)c([H])c8[H])c(C(=O)N([H])[H])c7N([H])[H])C6([H])[H])C([H])([H])C6([H])C([H])([H])C([H])([H])C6([H])C4([H])C5([H])C([H])([H])[H])c([H])c3[H])c([H])c([H])c2C1([H])[H]

>  <smiles>  (74) 
[H]c1c([H])c([H])c2c(c1[H])C([H])([H])C([H])([H])C([H])([H])C2([H])N([H])C(=O)C1([H])N(C(=O)C([H])(N([H])C(=O)C([H])(N([H])C([H])([H])[H])C([H])([H])[H])C(C([H])([H])[H])(C([H])([H])[H])C([H])([H])[H])C([H])([H])c2c([H])c(Oc3c([H])c([H])c(C4([H])C([H])([H])C5(C([H])([H])C([H])([H])N([H])C(=O)N6C([H])([H])C([H])([H])C([H])([H])C([H])(n7nc(-c8c([H])c([H])c(Oc9c([H])c([H])c(F)c([H])c9F)c([H])c8[H])c(C(=O)N([H])[H])c7N([H])[H])C6([H])[H])C([H])([H])C6([H])C([H])([H])C([H])([H])C6([H])C4([H])C5([H])C([H])([H])[H])c([H])c3[H])c([H])c([H])c2C1([H])[H]

$$$$
74:0:0
     RDKit          3D

 93103  0  0  1  0  0  0  0  0999 V2000
  -27.7360  -19.3860   20.5650 C   0  0  0  0  0  1  0  0  0  0  0  0
  -29.1300  -19.8940   20.1670 C   0  0  0  0  0  3  0  0  0  0  0  0
  -29.9610  -17.0900   18.5310 C   0  0  0  0  0  2  0  0  0  0  0  0
  -31.0330  -17.8080   17.9540 C   0  0  0  0  0  2  0  0  0  0  0  0
  -30.0180  -17.0180   19.9360 C   0  0  0  0  0  3  0  0  0  0  0  0
  -30.2000  -18.5170   20.3650 C   0  0  0  0  0  3  0  0  0  0  0  0
  -31.4790  -18.9220   19.9430 C   0  0  0  0  0  0  0  0  0  0  0  0
  -31.8670  -18.5930   18.6850 N   0  0  0  0  0  0  0  0  0  0  0  0
  -30.8100  -15.5640   20.2890 C   0  0  0  0  0  0  0  0  0  0  0  0
  -30.8280  -13.0800   19.5230 C   0  0  0  0  0  2  0  0  0  0  0  0
  -29.9580  -12.8290   18.2670 C   0  0  0  0  0  2  0  0  0  0  0  0
  -28.4890  -12.5820   18.6500 C   0  0  0  0  0  2  0  0  0  0  0  0
  -27.9950  -13.5850   19.7230 C   0  0  0  0  0  3  0  0  0  0  0  0
  -28.9970  -13.7750   20.8750 C   0  0  0  0  0  2  0  0  0  0  0  0
  -30.2530  -14.2510   20.2790 N   0  0  0  0  0  0  0  0  0  0  0  0
  -32.0490  -15.5390   20.2160 O   0  0  0  0  0  0  0  0  0  0  0  0
  -25.6200  -14.1850   20.4220 C   0  0  0  0  0  0  0  0  0  0  0  0
  -24.5350  -13.4240   20.7560 C   0  0  0  0  0  0  0  0  0  0  0  0
  -24.9770  -12.0670   20.7320 C   0  0  0  0  0  0  0  0  0  0  0  0
  -26.6510  -13.2900   20.2010 N   0  0  0  0  0  0  0  0  0  0  0  0
  -26.2770  -12.0100   20.4570 N   0  0  0  0  0  0  0  0  0  0  0  0
  -24.2240  -10.8170   20.9000 C   0  0  0  0  0  0  0  0  0  0  0  0
  -24.6140   -9.8370   21.8380 C   0  0  0  0  0  3  0  0  0  0  0  0
  -23.8580   -8.6540   21.9950 C   0  0  0  0  0  3  0  0  0  0  0  0
  -22.6980   -8.4460   21.2130 C   0  0  0  0  0  0  0  0  0  0  0  0
  -22.3270   -9.4140   20.2630 C   0  0  0  0  0  3  0  0  0  0  0  0
  -23.0830  -10.5880   20.1060 C   0  0  0  0  0  3  0  0  0  0  0  0
  -21.9170   -7.3160   21.2750 O   0  0  0  0  0  0  0  0  0  0  0  0
  -21.8180   -6.5710   22.4220 C   0  0  0  0  0  0  0  0  0  0  0  0
  -21.2820   -7.1050   23.6140 C   0  0  0  0  0  3  0  0  0  0  0  0
  -21.1390   -6.2870   24.7500 C   0  0  0  0  0  3  0  0  0  0  0  0
  -21.5190   -4.9310   24.6960 C   0  0  0  0  0  0  0  0  0  0  0  0
  -22.0420   -4.3950   23.5060 C   0  0  0  0  0  3  0  0  0  0  0  0
  -22.1920   -5.2130   22.3730 C   0  0  0  0  0  0  0  0  0  0  0  0
  -22.6810   -4.6870   21.2240 F   0  0  0  0  0  0  0  0  0  0  0  0
  -21.3710   -4.1400   25.7830 F   0  0  0  0  0  0  0  0  0  0  0  0
  -23.1390  -13.9280   20.9840 C   0  0  0  0  0  0  0  0  0  0  0  0
  -22.3920  -13.2690   21.8610 N   0  0  0  0  0  0  0  0  0  0  0  0
  -22.7260  -14.9400   20.4220 O   0  0  0  0  0  0  0  0  0  0  0  0
  -22.7490  -12.4540   22.3380 H   0  0  0  0  0  0  0  0  0  0  0  0
  -21.4530  -13.5820   22.0550 H   0  0  0  0  0  0  0  0  0  0  0  0
  -25.8090  -15.5540   20.2550 N   0  0  0  0  0  0  0  0  0  0  0  0
  -25.0430  -16.2100   20.3610 H   0  0  0  0  0  0  0  0  0  0  0  0
  -26.6720  -15.9960   19.9620 H   0  0  0  0  0  0  0  0  0  0  0  0
  -33.2430  -20.9170   19.9190 C   0  0  0  0  0  2  0  0  0  0  0  0
  -33.6950  -19.9340   20.9800 C   0  0  0  0  0  2  0  0  0  0  0  0
  -32.2360  -20.0320   20.6260 C   0  0  0  0  0  3  0  0  0  0  0  0
  -28.2880  -22.2510   21.6970 C   0  0  0  0  0  2  0  0  0  0  0  0
  -28.3110  -23.8490   21.7630 C   0  0  0  0  0  2  0  0  0  0  0  0
  -28.9360  -23.1130   19.6350 C   0  0  0  0  0  2  0  0  0  0  0  0
  -29.2070  -21.6790   20.5550 C   0  0  0  0  0  3  0  0  0  0  0  0
  -28.1650  -24.4780   20.3490 C   0  0  0  0  0  3  0  0  0  0  0  0
  -28.3600  -26.1100   20.2570 O   0  0  0  0  0  0  0  0  0  0  0  0
  -24.6360  -31.9540   23.2240 C   0  0  0  0  0  0  0  0  0  0  0  0
  -27.3160  -27.1660   20.2250 C   0  0  0  0  0  0  0  0  0  0  0  0
  -23.4840  -30.5420   21.5710 C   0  0  0  0  0  3  0  0  0  0  0  0
  -24.9770  -28.9780   20.1560 C   0  0  0  0  0  0  0  0  0  0  0  0
  -26.0450  -30.8180   21.4420 C   0  0  0  0  0  2  0  0  0  0  0  0
  -26.1510  -29.4140   20.7840 C   0  0  0  0  0  0  0  0  0  0  0  0
  -27.3170  -28.5300   20.7940 C   0  0  0  0  0  3  0  0  0  0  0  0
  -26.1110  -26.8770   19.5480 C   0  0  0  0  0  3  0  0  0  0  0  0
  -24.9790  -27.7280   19.5180 C   0  0  0  0  0  3  0  0  0  0  0  0
  -23.7400  -29.8720   20.1930 C   0  0  0  0  0  2  0  0  0  0  0  0
  -24.7410  -31.1310   22.1330 N   0  0  0  0  0  0  0  0  0  0  0  0
  -23.5360  -32.2190   23.7370 O   0  0  0  0  0  0  0  0  0  0  0  0
  -22.8060  -29.5230   22.5250 C   0  0  0  0  0  0  0  0  0  0  0  0
  -21.4810  -29.3330   22.3930 N   0  0  0  0  0  0  0  0  0  0  0  0
  -23.4810  -28.9060   23.3530 O   0  0  0  0  0  0  0  0  0  0  0  0
  -20.9860  -29.8880   21.7100 H   0  0  0  0  0  0  0  0  0  0  0  0
  -18.1120  -28.0960   22.9170 C   0  0  0  0  0  0  0  0  0  0  0  0
  -20.6730  -28.3740   23.1550 C   0  0  0  0  0  3  0  0  0  0  0  0
  -20.7750  -26.9530   22.5530 C   0  0  0  0  0  2  0  0  0  0  0  0
  -19.6620  -26.6440   21.5460 C   0  0  0  0  0  2  0  0  0  0  0  0
  -18.2880  -26.7630   22.2100 C   0  0  0  0  0  2  0  0  0  0  0  0
  -19.2300  -28.8600   23.3480 C   0  0  0  0  0  0  0  0  0  0  0  0
  -19.0050  -30.1050   23.9730 C   0  0  0  0  0  3  0  0  0  0  0  0
  -17.6970  -30.5870   24.1710 C   0  0  0  0  0  3  0  0  0  0  0  0
  -16.5950  -29.8210   23.7520 C   0  0  0  0  0  3  0  0  0  0  0  0
  -16.8030  -28.5760   23.1310 C   0  0  0  0  0  3  0  0  0  0  0  0
  -25.8900  -32.6190   23.8690 C   0  0  0  0  0  3  0  0  0  0  0  0
  -26.3810  -31.8800   25.1750 C   0  0  1  0  0  0  0  0  0  0  0  0
  -25.2570  -31.6400   26.2100 C   0  0  0  0  0  1  0  0  0  0  0  0
  -27.0090  -30.5090   24.8340 C   0  0  0  0  0  1  0  0  0  0  0  0
  -27.4910  -32.7100   25.8610 C   0  0  0  0  0  1  0  0  0  0  0  0
  -25.5470  -34.0200   24.1770 N   0  0  0  0  0  0  0  0  0  0  0  0
  -25.8880  -35.0770   23.4300 C   0  0  0  0  0  0  0  0  0  0  0  0
  -26.5850  -34.9780   22.4160 O   0  0  0  0  0  0  0  0  0  0  0  0
  -24.9250  -34.1690   24.9580 H   0  0  0  0  0  0  0  0  0  0  0  0
  -24.1780  -36.8790   23.0090 C   0  0  0  0  0  1  0  0  0  0  0  0
  -25.3780  -36.4620   23.8750 C   0  0  0  0  0  3  0  0  0  0  0  0
  -27.4560  -37.3610   24.8290 C   0  0  0  0  0  1  0  0  0  0  0  0
  -26.4130  -37.5180   23.8180 N   0  0  0  0  0  0  0  0  0  0  0  0
  -25.9950  -38.4370   23.9340 H   0  0  0  0  0  0  0  0  0  0  0  0
  2  1  1  0
  3  5  1  0
  4  3  1  0
  4  8  1  0
  5  9  1  0
  5  6  1  0
  6  2  1  0
  7  6  1  0
  7 47  1  0
  8  7  2  0
 10 15  1  0
 11 12  1  0
 11 10  1  0
 13 12  1  0
 13 20  1  0
 13 14  1  0
 15  9  1  0
 15 14  1  0
 16  9  2  0
 17 18  2  0
 18 37  1  0
 19 18  1  0
 19 22  1  0
 20 17  1  0
 20 21  1  0
 21 19  2  0
 22 23  1  0
 23 24  2  0
 25 28  1  0
 25 24  1  0
 26 25  2  0
 27 26  1  0
 27 22  2  0
 28 29  1  0
 29 30  1  0
 30 31  2  0
 32 31  1  0
 32 36  1  0
 33 32  2  0
 34 29  2  0
 34 33  1  0
 35 34  1  0
 37 38  1  0
 38 41  1  0
 38 40  1  0
 39 37  2  0
 42 43  1  0
 42 17  1  0
 44 42  1  0
 45 47  1  0
 45 46  1  0
 47 46  1  0
 48 49  1  0
 50 52  1  0
 50 51  1  0
 51  2  1  0
 51 48  1  0
 52 53  1  0
 52 49  1  0
 54 65  2  0
 55 53  1  0
 55 60  1  0
 56 64  1  0
 56 66  1  0
 57 63  1  0
 57 59  1  0
 58 64  1  0
 59 60  2  0
 59 58  1  0
 61 55  2  0
 62 61  1  0
 62 57  2  0
 63 56  1  0
 64 54  1  0
 66 68  2  0
 67 66  1  0
 69 67  1  0
 70 79  2  0
 70 75  1  0
 71 67  1  0
 71 75  1  0
 72 71  1  0
 73 74  1  0
 73 72  1  0
 74 70  1  0
 75 76  2  0
 76 77  1  0
 78 77  2  0
 79 78  1  0
 80 54  1  0
 80 85  1  0
 80 81  1  0
 81 84  1  1
 81 82  1  0
 83 81  1  0
 85 88  1  0
 86 90  1  0
 86 85  1  0
 87 86  2  0
 90 89  1  0
 92 90  1  0
 92 93  1  0
 92 91  1  0
M  ISO  4   5 100   9 100  52 101  53 101
M  END
>  <TORSDO>  (75) 
F 19

>  <SCORE>  (75) 
-14.735

>  <name>  (75) 
74

>  <ligand_id>  (75) 
74

>  <original_smiles>  (75) 
[H]c1nc(C2([H])C([H])([H])C2([H])[H])c(C([H])(C([H])([H])[H])C2([H])C([H])([H])C([H])([H])C([H])(Oc3c([H])c([H])c4c(c3[H])C([H])([H])N(C(=O)C([H])(N([H])C(=O)C([H])(N([H])C([H])([H])[H])C([H])([H])[H])C(C([H])([H])[H])(C([H])([H])[H])C([H])([H])[H])C([H])(C(=O)N([H])C3([H])c5c([H])c([H])c([H])c([H])c5C([H])([H])C([H])([H])C3([H])[H])C4([H])[H])C2([H])[H])c(C(=O)N2C([H])([H])C([H])([H])C([H])([H])C([H])(n3nc(-c4c([H])c([H])c(Oc5c([H])c([H])c(F)c([H])c5F)c([H])c4[H])c(C(=O)N([H])[H])c3N([H])[H])C2([H])[H])c1[H]

>  <smiles>  (75) 
[H]c1nc(C2([H])C([H])([H])C2([H])[H])c(C([H])(C([H])([H])[H])C2([H])C([H])([H])C([H])([H])C([H])(Oc3c([H])c([H])c4c(c3[H])C([H])([H])N(C(=O)C([H])(N([H])C(=O)C([H])(N([H])C([H])([H])[H])C([H])([H])[H])C(C([H])([H])[H])(C([H])([H])[H])C([H])([H])[H])C([H])(C(=O)N([H])C3([H])c5c([H])c([H])c([H])c([H])c5C([H])([H])C([H])([H])C3([H])[H])C4([H])[H])C2([H])[H])c(C(=O)N2C([H])([H])C([H])([H])C([H])([H])C([H])(n3nc(-c4c([H])c([H])c(Oc5c([H])c([H])c(F)c([H])c5F)c([H])c4[H])c(C(=O)N([H])[H])c3N([H])[H])C2([H])[H])c1[H]

$$$$
75:0:0
     RDKit          3D

 93102  0  0  1  0  0  0  0  0999 V2000
  -28.6860  -23.4590   19.7340 C   0  0  0  0  0  3  0  0  0  0  0  0
  -29.3400  -24.8480   21.5570 C   0  0  0  0  0  3  0  0  0  0  0  0
  -28.7460  -24.8600   20.2910 C   0  0  0  0  0  0  0  0  0  0  0  0
  -29.2340  -22.1960   20.3680 C   0  0  0  0  0  0  0  0  0  0  0  0
  -29.9530  -22.5420   21.5540 C   0  0  0  0  0  0  0  0  0  0  0  0
  -29.9210  -23.7730   22.1370 N   0  0  0  0  0  0  0  0  0  0  0  0
  -32.4460  -22.0650   21.6150 C   0  0  0  0  0  1  0  0  0  0  0  0
  -31.0520  -21.6600   22.1700 C   0  0  0  0  0  3  0  0  0  0  0  0
  -30.9200  -20.3750   24.5100 C   0  0  0  0  0  2  0  0  0  0  0  0
  -32.1990  -21.1720   24.5210 C   0  0  0  0  0  2  0  0  0  0  0  0
  -31.0120  -21.6600   23.7080 C   0  0  0  0  0  3  0  0  0  0  0  0
  -28.5320  -26.2100   19.6980 O   0  0  0  0  0  0  0  0  0  0  0  0
  -24.9030  -31.6530   23.3330 C   0  0  0  0  0  0  0  0  0  0  0  0
  -27.4540  -27.1640   19.9040 C   0  0  0  0  0  0  0  0  0  0  0  0
  -23.6860  -30.3850   21.6060 C   0  0  0  0  0  3  0  0  0  0  0  0
  -25.1190  -28.9210   20.0490 C   0  0  0  0  0  0  0  0  0  0  0  0
  -26.2380  -30.6620   21.4300 C   0  0  0  0  0  2  0  0  0  0  0  0
  -26.3100  -29.3190   20.6730 C   0  0  0  0  0  0  0  0  0  0  0  0
  -27.4770  -28.4610   20.5810 C   0  0  0  0  0  3  0  0  0  0  0  0
  -26.2330  -26.8770   19.2600 C   0  0  0  0  0  3  0  0  0  0  0  0
  -25.0950  -27.7160   19.3290 C   0  0  0  0  0  3  0  0  0  0  0  0
  -23.8910  -29.8150   20.1790 C   0  0  0  0  0  2  0  0  0  0  0  0
  -24.9640  -30.9220   22.1770 N   0  0  0  0  0  0  0  0  0  0  0  0
  -23.8240  -31.8910   23.8960 O   0  0  0  0  0  0  0  0  0  0  0  0
  -23.0260  -29.3030   22.4980 C   0  0  0  0  0  0  0  0  0  0  0  0
  -21.7050  -29.0960   22.3390 N   0  0  0  0  0  0  0  0  0  0  0  0
  -23.7050  -28.6540   23.2960 O   0  0  0  0  0  0  0  0  0  0  0  0
  -21.2100  -29.6710   21.6720 H   0  0  0  0  0  0  0  0  0  0  0  0
  -18.3840  -27.6780   22.6440 C   0  0  0  0  0  0  0  0  0  0  0  0
  -20.9070  -28.0900   23.0440 C   0  0  0  0  0  3  0  0  0  0  0  0
  -21.1260  -26.6850   22.4370 C   0  0  0  0  0  2  0  0  0  0  0  0
  -20.0960  -26.3240   21.3610 C   0  0  0  0  0  2  0  0  0  0  0  0
  -18.6790  -26.3630   21.9380 C   0  0  0  0  0  2  0  0  0  0  0  0
  -19.4320  -28.4920   23.1500 C   0  0  0  0  0  0  0  0  0  0  0  0
  -19.1040  -29.7180   23.7710 C   0  0  0  0  0  3  0  0  0  0  0  0
  -17.7640  -30.1320   23.8890 C   0  0  0  0  0  3  0  0  0  0  0  0
  -16.7300  -29.3140   23.4000 C   0  0  0  0  0  3  0  0  0  0  0  0
  -17.0410  -28.0890   22.7830 C   0  0  0  0  0  3  0  0  0  0  0  0
  -26.1860  -32.2470   23.9890 C   0  0  0  0  0  3  0  0  0  0  0  0
  -25.8880  -33.6330   24.3870 N   0  0  0  0  0  0  0  0  0  0  0  0
  -26.2620  -34.7250   23.7060 C   0  0  0  0  0  0  0  0  0  0  0  0
  -26.9630  -34.6690   22.6920 O   0  0  0  0  0  0  0  0  0  0  0  0
  -25.2600  -33.7510   25.1680 H   0  0  0  0  0  0  0  0  0  0  0  0
  -24.5810  -36.5760   23.4130 C   0  0  0  0  0  1  0  0  0  0  0  0
  -25.7890  -36.0940   24.2330 C   0  0  0  0  0  3  0  0  0  0  0  0
  -27.9120  -36.8870   25.1810 C   0  0  0  0  0  1  0  0  0  0  0  0
  -26.8450  -37.1310   24.2130 N   0  0  0  0  0  0  0  0  0  0  0  0
  -26.4510  -38.0500   24.3980 H   0  0  0  0  0  0  0  0  0  0  0  0
  -26.6870  -31.4150   25.2320 C   0  0  1  0  0  0  0  0  0  0  0  0
  -25.5890  -31.1560   26.2900 C   0  0  0  0  0  1  0  0  0  0  0  0
  -27.2480  -30.0420   24.7950 C   0  0  0  0  0  1  0  0  0  0  0  0
  -27.8520  -32.1590   25.9270 C   0  0  0  0  0  1  0  0  0  0  0  0
  -29.2510  -20.8110   19.7950 O   0  0  0  0  0  0  0  0  0  0  0  0
  -29.2020  -19.3610   20.4560 C   0  0  0  0  0  2  0  0  0  0  0  0
  -30.0740  -17.9300   19.9980 C   0  0  0  0  0  2  0  0  0  0  0  0
  -30.5140  -15.1440   20.0940 C   0  0  0  0  0  0  0  0  0  0  0  0
  -30.4150  -12.7480   19.2070 C   0  0  0  0  0  2  0  0  0  0  0  0
  -29.4600  -12.6390   17.9970 C   0  0  0  0  0  2  0  0  0  0  0  0
  -28.0020  -12.4410   18.4540 C   0  0  0  0  0  2  0  0  0  0  0  0
  -27.6150  -13.3770   19.6280 C   0  0  0  0  0  3  0  0  0  0  0  0
  -28.6960  -13.4110   20.7280 C   0  0  0  0  0  2  0  0  0  0  0  0
  -29.9360  -13.8670   20.0830 N   0  0  0  0  0  0  0  0  0  0  0  0
  -31.7030  -15.1900   19.7590 O   0  0  0  0  0  0  0  0  0  0  0  0
  -29.7540  -16.3610   20.2700 N   0  0  0  0  0  0  0  0  0  0  0  0
  -28.7910  -16.1840   20.5200 H   0  0  0  0  0  0  0  0  0  0  0  0
  -25.2690  -13.9570   20.4540 C   0  0  0  0  0  0  0  0  0  0  0  0
  -24.2090  -13.1900   20.8550 C   0  0  0  0  0  0  0  0  0  0  0  0
  -24.6540  -11.8360   20.7790 C   0  0  0  0  0  0  0  0  0  0  0  0
  -26.2930  -13.0710   20.1640 N   0  0  0  0  0  0  0  0  0  0  0  0
  -25.9320  -11.7860   20.4210 N   0  0  0  0  0  0  0  0  0  0  0  0
  -23.9150  -10.5820   20.9690 C   0  0  0  0  0  0  0  0  0  0  0  0
  -24.3640   -9.5880   21.8710 C   0  0  0  0  0  3  0  0  0  0  0  0
  -23.6260   -8.3980   22.0500 C   0  0  0  0  0  3  0  0  0  0  0  0
  -22.4200   -8.1930   21.3400 C   0  0  0  0  0  0  0  0  0  0  0  0
  -21.9870   -9.1740   20.4290 C   0  0  0  0  0  3  0  0  0  0  0  0
  -22.7260  -10.3570   20.2450 C   0  0  0  0  0  3  0  0  0  0  0  0
  -21.6490   -7.0600   21.4370 O   0  0  0  0  0  0  0  0  0  0  0  0
  -21.6370   -6.2940   22.5750 C   0  0  0  0  0  0  0  0  0  0  0  0
  -21.2680   -6.8250   23.8310 C   0  0  0  0  0  3  0  0  0  0  0  0
  -21.2050   -5.9830   24.9620 C   0  0  0  0  0  3  0  0  0  0  0  0
  -21.4930   -4.6100   24.8350 C   0  0  0  0  0  0  0  0  0  0  0  0
  -21.8560   -4.0810   23.5840 C   0  0  0  0  0  3  0  0  0  0  0  0
  -21.9250   -4.9200   22.4590 C   0  0  0  0  0  0  0  0  0  0  0  0
  -22.2530   -4.4000   21.2530 F   0  0  0  0  0  0  0  0  0  0  0  0
  -21.4280   -3.8000   25.9180 F   0  0  0  0  0  0  0  0  0  0  0  0
  -22.8300  -13.6850   21.1780 C   0  0  0  0  0  0  0  0  0  0  0  0
  -22.1170  -12.9960   22.0610 N   0  0  0  0  0  0  0  0  0  0  0  0
  -22.3920  -14.7160   20.6740 O   0  0  0  0  0  0  0  0  0  0  0  0
  -22.4780  -12.1660   22.5070 H   0  0  0  0  0  0  0  0  0  0  0  0
  -21.1860  -13.3100   22.2990 H   0  0  0  0  0  0  0  0  0  0  0  0
  -25.4320  -15.3300   20.2860 N   0  0  0  0  0  0  0  0  0  0  0  0
  -24.6450  -15.9590   20.3970 H   0  0  0  0  0  0  0  0  0  0  0  0
  -26.2240  -15.7650   19.8310 H   0  0  0  0  0  0  0  0  0  0  0  0
  1  3  2  0
  1  4  1  0
  2  6  2  0
  3  2  1  0
  4  5  2  0
  5  6  1  0
  5  8  1  0
  8  7  1  0
  8 11  1  0
  9 10  1  0
 11  9  1  0
 11 10  1  0
 12 14  1  0
 12  3  1  0
 13 24  2  0
 14 19  1  0
 15 23  1  0
 15 25  1  0
 16 22  1  0
 16 18  1  0
 17 23  1  0
 18 17  1  0
 19 18  2  0
 20 21  1  0
 20 14  2  0
 21 16  2  0
 22 15  1  0
 23 13  1  0
 25 27  2  0
 26 25  1  0
 28 26  1  0
 29 38  2  0
 29 34  1  0
 30 26  1  0
 30 34  1  0
 31 30  1  0
 32 33  1  0
 32 31  1  0
 33 29  1  0
 34 35  2  0
 35 36  1  0
 37 36  2  0
 38 37  1  0
 39 13  1  0
 39 40  1  0
 39 49  1  0
 40 43  1  0
 41 45  1  0
 41 40  1  0
 42 41  2  0
 45 44  1  0
 47 45  1  0
 47 48  1  0
 47 46  1  0
 49 52  1  1
 49 50  1  0
 51 49  1  0
 53  4  1  0
 53 54  1  0
 55 64  1  0
 55 54  1  0
 56 64  1  0
 57 62  1  0
 58 59  1  0
 58 57  1  0
 60 59  1  0
 60 69  1  0
 60 61  1  0
 62 56  1  0
 62 61  1  0
 63 56  2  0
 64 65  1  0
 66 67  2  0
 67 86  1  0
 68 67  1  0
 68 71  1  0
 69 70  1  0
 69 66  1  0
 70 68  2  0
 71 72  1  0
 72 73  2  0
 74 77  1  0
 74 73  1  0
 75 74  2  0
 76 75  1  0
 76 71  2  0
 77 78  1  0
 78 79  1  0
 79 80  2  0
 81 80  1  0
 81 85  1  0
 82 81  2  0
 83 78  2  0
 83 82  1  0
 84 83  1  0
 86 87  1  0
 87 90  1  0
 87 89  1  0
 88 86  2  0
 91 92  1  0
 91 66  1  0
 93 91  1  0
M  ISO  4   3 101  12 101  56 100  64 100
M  END
>  <TORSDO>  (76) 
F 21

>  <SCORE>  (76) 
-13.339

>  <name>  (76) 
75

>  <ligand_id>  (76) 
75

>  <original_smiles>  (76) 
[H]c1nc(C([H])(C([H])([H])[H])C2([H])C([H])([H])C2([H])[H])c(OC([H])([H])C([H])([H])N([H])C(=O)N2C([H])([H])C([H])([H])C([H])([H])C([H])(n3nc(-c4c([H])c([H])c(Oc5c([H])c([H])c(F)c([H])c5F)c([H])c4[H])c(C(=O)N([H])[H])c3N([H])[H])C2([H])[H])c([H])c1Oc1c([H])c([H])c2c(c1[H])C([H])([H])N(C(=O)C([H])(N([H])C(=O)C([H])(N([H])C([H])([H])[H])C([H])([H])[H])C(C([H])([H])[H])(C([H])([H])[H])C([H])([H])[H])C([H])(C(=O)N([H])C1([H])c3c([H])c([H])c([H])c([H])c3C([H])([H])C([H])([H])C1([H])[H])C2([H])[H]

>  <smiles>  (76) 
[H]c1nc(C([H])(C([H])([H])[H])C2([H])C([H])([H])C2([H])[H])c(OC([H])([H])C([H])([H])N([H])C(=O)N2C([H])([H])C([H])([H])C([H])([H])C([H])(n3nc(-c4c([H])c([H])c(Oc5c([H])c([H])c(F)c([H])c5F)c([H])c4[H])c(C(=O)N([H])[H])c3N([H])[H])C2([H])[H])c([H])c1Oc1c([H])c([H])c2c(c1[H])C([H])([H])N(C(=O)C([H])(N([H])C(=O)C([H])(N([H])C([H])([H])[H])C([H])([H])[H])C(C([H])([H])[H])(C([H])([H])[H])C([H])([H])[H])C([H])(C(=O)N([H])C1([H])c3c([H])c([H])c([H])c([H])c3C([H])([H])C([H])([H])C1([H])[H])C2([H])[H]

$$$$
76:0:0
     RDKit          3D

 92101  0  0  1  0  0  0  0  0999 V2000
  -28.5290  -22.3100   21.8190 C   0  0  0  0  0  1  0  0  0  0  0  0
  -28.8620  -22.3200   20.3170 C   0  0  0  0  0  3  0  0  0  0  0  0
  -32.4150  -21.1900   19.7870 C   0  0  0  0  0  3  0  0  0  0  0  0
  -31.3860  -22.1300   20.0000 C   0  0  0  0  0  3  0  0  0  0  0  0
  -31.8420  -19.9580   19.8040 C   0  0  0  0  0  3  0  0  0  0  0  0
  -30.1770  -21.4910   20.1020 C   0  0  0  0  0  0  0  0  0  0  0  0
  -30.4730  -20.0550   20.0740 N   0  0  0  0  0  0  0  0  0  0  0  0
  -29.6670  -18.7610   20.2580 C   0  0  0  0  0  3  0  0  0  0  0  0
  -30.5150  -17.3570   20.2470 C   0  0  0  0  0  3  0  0  0  0  0  0
  -30.6400  -14.7690   20.3070 C   0  0  0  0  0  0  0  0  0  0  0  0
  -30.3830  -12.5000   19.3050 C   0  0  0  0  0  2  0  0  0  0  0  0
  -29.4420  -12.5760   18.0850 C   0  0  0  0  0  2  0  0  0  0  0  0
  -27.9780  -12.3970   18.5300 C   0  0  0  0  0  2  0  0  0  0  0  0
  -27.6110  -13.2940   19.7430 C   0  0  0  0  0  3  0  0  0  0  0  0
  -28.6810  -13.2320   20.8570 C   0  0  0  0  0  2  0  0  0  0  0  0
  -29.9720  -13.5670   20.2450 N   0  0  0  0  0  0  0  0  0  0  0  0
  -31.8360  -14.8140   20.0140 O   0  0  0  0  0  0  0  0  0  0  0  0
  -29.9320  -15.9530   20.4520 N   0  0  0  0  0  0  0  0  0  0  0  0
  -28.9410  -15.8820   20.6250 H   0  0  0  0  0  0  0  0  0  0  0  0
  -25.2240  -13.8770   20.4870 C   0  0  0  0  0  0  0  0  0  0  0  0
  -24.1620  -13.1010   20.8610 C   0  0  0  0  0  0  0  0  0  0  0  0
  -24.6310  -11.7520   20.8350 C   0  0  0  0  0  0  0  0  0  0  0  0
  -26.2720  -13.0030   20.2490 N   0  0  0  0  0  0  0  0  0  0  0  0
  -25.9220  -11.7200   20.5240 N   0  0  0  0  0  0  0  0  0  0  0  0
  -23.9100  -10.4860   21.0320 C   0  0  0  0  0  0  0  0  0  0  0  0
  -24.3510   -9.5200   21.9610 C   0  0  0  0  0  3  0  0  0  0  0  0
  -23.6310   -8.3200   22.1450 C   0  0  0  0  0  3  0  0  0  0  0  0
  -22.4540   -8.0790   21.3970 C   0  0  0  0  0  0  0  0  0  0  0  0
  -22.0310   -9.0330   20.4560 C   0  0  0  0  0  3  0  0  0  0  0  0
  -22.7520  -10.2250   20.2710 C   0  0  0  0  0  3  0  0  0  0  0  0
  -21.7020   -6.9310   21.4910 O   0  0  0  0  0  0  0  0  0  0  0  0
  -21.6700   -6.1840   22.6410 C   0  0  0  0  0  0  0  0  0  0  0  0
  -21.2590   -6.7320   23.8750 C   0  0  0  0  0  3  0  0  0  0  0  0
  -21.1720   -5.9090   25.0170 C   0  0  0  0  0  3  0  0  0  0  0  0
  -21.4900   -4.5410   24.9260 C   0  0  0  0  0  0  0  0  0  0  0  0
  -21.8960   -3.9920   23.6960 C   0  0  0  0  0  3  0  0  0  0  0  0
  -21.9820   -4.8110   22.5570 C   0  0  0  0  0  0  0  0  0  0  0  0
  -22.3510   -4.2730   21.3700 F   0  0  0  0  0  0  0  0  0  0  0  0
  -21.4000   -3.7500   26.0200 F   0  0  0  0  0  0  0  0  0  0  0  0
  -22.7620  -13.5730   21.1300 C   0  0  0  0  0  0  0  0  0  0  0  0
  -22.0370  -12.8790   22.0010 N   0  0  0  0  0  0  0  0  0  0  0  0
  -22.3210  -14.5920   20.6010 O   0  0  0  0  0  0  0  0  0  0  0  0
  -22.4060  -12.0540   22.4510 H   0  0  0  0  0  0  0  0  0  0  0  0
  -21.0990  -13.1800   22.2220 H   0  0  0  0  0  0  0  0  0  0  0  0
  -25.3840  -15.2490   20.3030 N   0  0  0  0  0  0  0  0  0  0  0  0
  -24.6150  -15.9020   20.4010 H   0  0  0  0  0  0  0  0  0  0  0  0
  -26.2260  -15.6830   19.9480 H   0  0  0  0  0  0  0  0  0  0  0  0
  -28.1520  -23.8630   18.2790 C   0  0  0  0  0  2  0  0  0  0  0  0
  -29.5830  -24.2200   18.4570 C   0  0  0  0  0  2  0  0  0  0  0  0
  -28.7510  -23.8270   19.6810 C   0  0  2  0  0  0  0  0  0  0  0  0
  -28.2590  -25.0450   20.6010 C   0  0  0  0  0  2  0  0  0  0  0  0
  -28.3750  -26.4780   20.1710 O   0  0  0  0  0  0  0  0  0  0  0  0
  -24.6200  -31.8870   23.2400 C   0  0  0  0  0  0  0  0  0  0  0  0
  -27.2460  -27.3200   20.1900 C   0  0  0  0  0  0  0  0  0  0  0  0
  -23.4190  -30.4820   21.6030 C   0  0  0  0  0  3  0  0  0  0  0  0
  -24.8730  -28.9320   20.1790 C   0  0  0  0  0  0  0  0  0  0  0  0
  -25.9560  -30.8130   21.4100 C   0  0  0  0  0  2  0  0  0  0  0  0
  -26.0440  -29.4290   20.7670 C   0  0  0  0  0  0  0  0  0  0  0  0
  -27.2350  -28.6400   20.7530 C   0  0  0  0  0  3  0  0  0  0  0  0
  -26.0460  -26.8730   19.5970 C   0  0  0  0  0  3  0  0  0  0  0  0
  -24.8780  -27.6600   19.5850 C   0  0  0  0  0  3  0  0  0  0  0  0
  -23.6330  -29.8050   20.2240 C   0  0  0  0  0  2  0  0  0  0  0  0
  -24.6850  -31.0800   22.1410 N   0  0  0  0  0  0  0  0  0  0  0  0
  -23.5360  -32.1600   23.7770 O   0  0  0  0  0  0  0  0  0  0  0  0
  -22.7610  -29.4660   22.5660 C   0  0  0  0  0  0  0  0  0  0  0  0
  -21.4350  -29.2830   22.4420 N   0  0  0  0  0  0  0  0  0  0  0  0
  -23.4430  -28.8440   23.3840 O   0  0  0  0  0  0  0  0  0  0  0  0
  -20.9430  -29.8360   21.7550 H   0  0  0  0  0  0  0  0  0  0  0  0
  -18.0640  -28.0740   22.9430 C   0  0  0  0  0  0  0  0  0  0  0  0
  -20.6210  -28.3430   23.2140 C   0  0  0  0  0  3  0  0  0  0  0  0
  -20.7290  -26.9110   22.6400 C   0  0  0  0  0  2  0  0  0  0  0  0
  -19.6280  -26.5840   21.6260 C   0  0  0  0  0  2  0  0  0  0  0  0
  -18.2450  -26.7250   22.2690 C   0  0  0  0  0  2  0  0  0  0  0  0
  -19.1790  -28.8410   23.3720 C   0  0  0  0  0  0  0  0  0  0  0  0
  -18.9550  -30.1040   23.9610 C   0  0  0  0  0  3  0  0  0  0  0  0
  -17.6480  -30.6010   24.1270 C   0  0  0  0  0  3  0  0  0  0  0  0
  -16.5470  -29.8300   23.7150 C   0  0  0  0  0  3  0  0  0  0  0  0
  -16.7550  -28.5690   23.1290 C   0  0  0  0  0  3  0  0  0  0  0  0
  -25.9000  -32.5260   23.8620 C   0  0  0  0  0  3  0  0  0  0  0  0
  -25.5890  -33.9250   24.1880 N   0  0  0  0  0  0  0  0  0  0  0  0
  -25.9180  -34.9760   23.4280 C   0  0  0  0  0  0  0  0  0  0  0  0
  -26.5870  -34.8720   22.3960 O   0  0  0  0  0  0  0  0  0  0  0  0
  -24.9990  -34.0790   24.9930 H   0  0  0  0  0  0  0  0  0  0  0  0
  -24.1890  -36.7650   23.0690 C   0  0  0  0  0  1  0  0  0  0  0  0
  -25.4300  -36.3650   23.8820 C   0  0  0  0  0  3  0  0  0  0  0  0
  -27.5630  -37.2530   24.7120 C   0  0  0  0  0  1  0  0  0  0  0  0
  -26.4610  -37.4190   23.7680 N   0  0  0  0  0  0  0  0  0  0  0  0
  -26.0540  -38.3390   23.9150 H   0  0  0  0  0  0  0  0  0  0  0  0
  -26.4170  -31.7610   25.1420 C   0  0  1  0  0  0  0  0  0  0  0  0
  -25.3250  -31.5280   26.2110 C   0  0  0  0  0  1  0  0  0  0  0  0
  -27.0010  -30.3830   24.7550 C   0  0  0  0  0  1  0  0  0  0  0  0
  -27.5670  -32.5580   25.8020 C   0  0  0  0  0  1  0  0  0  0  0  0
  2  1  1  0
  3  5  2  0
  3  4  1  0
  4  6  2  0
  5  7  1  0
  6  2  1  0
  7  6  1  0
  7  8  1  0
  9  8  2  0
  9 18  1  0
 10 18  1  0
 11 16  1  0
 12 13  1  0
 12 11  1  0
 14 13  1  0
 14 23  1  0
 14 15  1  0
 16 10  1  0
 16 15  1  0
 17 10  2  0
 18 19  1  0
 20 21  2  0
 21 40  1  0
 22 21  1  0
 22 25  1  0
 23 20  1  0
 23 24  1  0
 24 22  2  0
 25 26  1  0
 26 27  2  0
 28 31  1  0
 28 27  1  0
 29 28  2  0
 30 29  1  0
 30 25  2  0
 31 32  1  0
 32 33  1  0
 33 34  2  0
 35 34  1  0
 35 39  1  0
 36 35  2  0
 37 32  2  0
 37 36  1  0
 38 37  1  0
 40 41  1  0
 41 44  1  0
 41 43  1  0
 42 40  2  0
 45 46  1  0
 45 20  1  0
 47 45  1  0
 48 49  1  0
 48 50  1  0
 49 50  1  0
 50  2  1  0
 50 51  1  1
 52 54  1  0
 52 51  1  0
 53 64  2  0
 54 59  1  0
 55 63  1  0
 55 65  1  0
 56 62  1  0
 56 58  1  0
 57 63  1  0
 58 57  1  0
 59 58  2  0
 60 54  2  0
 61 60  1  0
 61 56  2  0
 62 55  1  0
 63 53  1  0
 65 67  2  0
 66 65  1  0
 68 66  1  0
 69 78  2  0
 69 74  1  0
 70 66  1  0
 70 74  1  0
 71 70  1  0
 72 73  1  0
 72 71  1  0
 73 69  1  0
 74 75  2  0
 75 76  1  0
 77 76  2  0
 78 77  1  0
 79 53  1  0
 79 80  1  0
 79 89  1  0
 80 83  1  0
 81 85  1  0
 81 80  1  0
 82 81  2  0
 85 84  1  0
 87 85  1  0
 87 88  1  0
 87 86  1  0
 89 92  1  1
 89 90  1  0
 91 89  1  0
M  ISO  4  10 100  18 100  51 101  52 101
M  END
>  <TORSDO>  (77) 
F 21

>  <SCORE>  (77) 
-13.571

>  <name>  (77) 
76

>  <ligand_id>  (77) 
76

>  <original_smiles>  (77) 
[H]c1c([H])c([H])c2c(c1[H])C([H])([H])C([H])([H])C([H])([H])C2([H])N([H])C(=O)C1([H])N(C(=O)C([H])(N([H])C(=O)C([H])(N([H])C([H])([H])[H])C([H])([H])[H])C(C([H])([H])[H])(C([H])([H])[H])C([H])([H])[H])C([H])([H])c2c([H])c(OC([H])([H])C3(C([H])(c4c([H])c([H])c([H])n4C([H])([H])C([H])([H])N([H])C(=O)N4C([H])([H])C([H])([H])C([H])([H])C([H])(n5nc(-c6c([H])c([H])c(Oc7c([H])c([H])c(F)c([H])c7F)c([H])c6[H])c(C(=O)N([H])[H])c5N([H])[H])C4([H])[H])C([H])([H])[H])C([H])([H])C3([H])[H])c([H])c([H])c2C1([H])[H]

>  <smiles>  (77) 
[H]c1c([H])c([H])c2c(c1[H])C([H])([H])C([H])([H])C([H])([H])C2([H])N([H])C(=O)C1([H])N(C(=O)C([H])(N([H])C(=O)C([H])(N([H])C([H])([H])[H])C([H])([H])[H])C(C([H])([H])[H])(C([H])([H])[H])C([H])([H])[H])C([H])([H])c2c([H])c(OC([H])([H])C3(C([H])(c4c([H])c([H])c([H])n4C([H])([H])C([H])([H])N([H])C(=O)N4C([H])([H])C([H])([H])C([H])([H])C([H])(n5nc(-c6c([H])c([H])c(Oc7c([H])c([H])c(F)c([H])c7F)c([H])c6[H])c(C(=O)N([H])[H])c5N([H])[H])C4([H])[H])C([H])([H])[H])C([H])([H])C3([H])[H])c([H])c([H])c2C1([H])[H]

$$$$
77:0:0
     RDKit          3D

 92101  0  0  1  0  0  0  0  0999 V2000
  -30.2460  -21.8380   21.8940 C   0  0  0  0  0  3  0  0  0  0  0  0
  -29.4750  -22.9340   21.4200 C   0  0  0  0  0  3  0  0  0  0  0  0
  -28.6340  -21.3870   19.7450 C   0  0  0  0  0  3  0  0  0  0  0  0
  -30.2350  -20.5400   21.3140 C   0  0  0  0  0  0  0  0  0  0  0  0
  -29.4060  -20.1350   20.2560 C   0  0  0  0  0  0  0  0  0  0  0  0
  -28.6320  -22.8530   20.2900 C   0  0  0  0  0  0  0  0  0  0  0  0
  -31.3880  -18.6860   20.3120 C   0  0  0  0  0  2  0  0  0  0  0  0
  -31.3220  -19.5340   21.6050 C   0  0  0  0  0  3  0  0  0  0  0  0
  -29.9620  -18.5290   19.7280 C   0  0  0  0  0  3  0  0  0  0  0  0
  -30.3930  -15.5720   19.8180 C   0  0  0  0  0  0  0  0  0  0  0  0
  -30.3610  -13.1120   18.9520 C   0  0  0  0  0  2  0  0  0  0  0  0
  -29.3790  -12.8600   17.7800 C   0  0  0  0  0  2  0  0  0  0  0  0
  -27.9750  -12.5370   18.3160 C   0  0  0  0  0  2  0  0  0  0  0  0
  -27.5630  -13.4910   19.4640 C   0  0  0  0  0  3  0  0  0  0  0  0
  -28.6730  -13.7030   20.5180 C   0  0  0  0  0  2  0  0  0  0  0  0
  -29.8390  -14.2530   19.8030 N   0  0  0  0  0  0  0  0  0  0  0  0
  -31.5910  -15.5470   19.4960 O   0  0  0  0  0  0  0  0  0  0  0  0
  -29.6590  -16.8770   19.9800 N   0  0  0  0  0  0  0  0  0  0  0  0
  -28.6900  -16.7150   20.2090 H   0  0  0  0  0  0  0  0  0  0  0  0
  -25.2610  -13.9760   20.4370 C   0  0  0  0  0  0  0  0  0  0  0  0
  -24.2360  -13.1690   20.8400 C   0  0  0  0  0  0  0  0  0  0  0  0
  -24.7050  -11.8280   20.6940 C   0  0  0  0  0  0  0  0  0  0  0  0
  -26.2850  -13.1280   20.0610 N   0  0  0  0  0  0  0  0  0  0  0  0
  -25.9690  -11.8240   20.2820 N   0  0  0  0  0  0  0  0  0  0  0  0
  -23.9990  -10.5500   20.8640 C   0  0  0  0  0  0  0  0  0  0  0  0
  -24.3870   -9.6140   21.8480 C   0  0  0  0  0  3  0  0  0  0  0  0
  -23.6760   -8.4050   22.0060 C   0  0  0  0  0  3  0  0  0  0  0  0
  -22.5630   -8.1220   21.1790 C   0  0  0  0  0  0  0  0  0  0  0  0
  -22.1950   -9.0470   20.1870 C   0  0  0  0  0  3  0  0  0  0  0  0
  -22.9070  -10.2480   20.0270 C   0  0  0  0  0  3  0  0  0  0  0  0
  -21.8300   -6.9620   21.2440 O   0  0  0  0  0  0  0  0  0  0  0  0
  -21.5730   -6.3380   22.4390 C   0  0  0  0  0  0  0  0  0  0  0  0
  -20.8590   -6.9770   23.4750 C   0  0  0  0  0  3  0  0  0  0  0  0
  -20.5570   -6.2750   24.6590 C   0  0  0  0  0  3  0  0  0  0  0  0
  -20.9590   -4.9340   24.8050 C   0  0  0  0  0  0  0  0  0  0  0  0
  -21.6670   -4.2940   23.7720 C   0  0  0  0  0  3  0  0  0  0  0  0
  -21.9690   -4.9940   22.5910 C   0  0  0  0  0  0  0  0  0  0  0  0
  -22.6320   -4.3660   21.5900 F   0  0  0  0  0  0  0  0  0  0  0  0
  -20.6640   -4.2570   25.9390 F   0  0  0  0  0  0  0  0  0  0  0  0
  -22.8610  -13.6190   21.2400 C   0  0  0  0  0  0  0  0  0  0  0  0
  -22.2000  -12.8660   22.1120 N   0  0  0  0  0  0  0  0  0  0  0  0
  -22.3850  -14.6720   20.8170 O   0  0  0  0  0  0  0  0  0  0  0  0
  -22.6000  -12.0130   22.4740 H   0  0  0  0  0  0  0  0  0  0  0  0
  -21.2800  -13.1470   22.4230 H   0  0  0  0  0  0  0  0  0  0  0  0
  -25.3990  -15.3570   20.3270 N   0  0  0  0  0  0  0  0  0  0  0  0
  -24.6350  -15.9900   20.5310 H   0  0  0  0  0  0  0  0  0  0  0  0
  -26.2050  -15.8250   19.9340 H   0  0  0  0  0  0  0  0  0  0  0  0
  -29.6730  -18.5390   23.3840 C   0  0  0  0  0  1  0  0  0  0  0  0
  -31.9190  -17.4400   22.9730 C   0  0  0  0  0  1  0  0  0  0  0  0
  -31.1310  -18.7600   22.9410 C   0  0  0  0  0  3  0  0  0  0  0  0
  -27.7860  -24.3450   19.8630 C   0  0  0  0  0  2  0  0  0  0  0  0
  -27.9800  -25.9490   20.2770 O   0  0  0  0  0  0  0  0  0  0  0  0
  -24.4710  -31.9770   23.2490 C   0  0  0  0  0  0  0  0  0  0  0  0
  -26.9840  -27.0720   20.1930 C   0  0  0  0  0  0  0  0  0  0  0  0
  -23.2510  -30.5690   21.6390 C   0  0  0  0  0  3  0  0  0  0  0  0
  -24.6790  -28.9650   20.1860 C   0  0  0  0  0  0  0  0  0  0  0  0
  -25.8150  -30.7820   21.4420 C   0  0  0  0  0  2  0  0  0  0  0  0
  -25.8770  -29.3680   20.7880 C   0  0  0  0  0  0  0  0  0  0  0  0
  -27.0200  -28.4420   20.7700 C   0  0  0  0  0  3  0  0  0  0  0  0
  -25.7560  -26.8340   19.5340 C   0  0  0  0  0  3  0  0  0  0  0  0
  -24.6450  -27.7200   19.5380 C   0  0  0  0  0  3  0  0  0  0  0  0
  -23.4570  -29.8830   20.2600 C   0  0  0  0  0  2  0  0  0  0  0  0
  -24.5360  -31.1380   22.1630 N   0  0  0  0  0  0  0  0  0  0  0  0
  -23.3910  -32.2650   23.7900 O   0  0  0  0  0  0  0  0  0  0  0  0
  -22.5800  -29.5760   22.6240 C   0  0  0  0  0  0  0  0  0  0  0  0
  -21.2590  -29.3540   22.4850 N   0  0  0  0  0  0  0  0  0  0  0  0
  -23.2560  -29.0020   23.4810 O   0  0  0  0  0  0  0  0  0  0  0  0
  -20.7640  -29.8720   21.7720 H   0  0  0  0  0  0  0  0  0  0  0  0
  -17.9280  -27.9900   22.9540 C   0  0  0  0  0  0  0  0  0  0  0  0
  -20.4630  -28.4050   23.2710 C   0  0  0  0  0  3  0  0  0  0  0  0
  -20.6540  -26.9580   22.7580 C   0  0  0  0  0  2  0  0  0  0  0  0
  -19.5990  -26.5380   21.7290 C   0  0  0  0  0  2  0  0  0  0  0  0
  -18.1950  -26.6300   22.3320 C   0  0  0  0  0  2  0  0  0  0  0  0
  -18.9930  -28.8290   23.3800 C   0  0  0  0  0  0  0  0  0  0  0  0
  -18.6880  -30.0950   23.9250 C   0  0  0  0  0  3  0  0  0  0  0  0
  -17.3520  -30.5260   24.0470 C   0  0  0  0  0  3  0  0  0  0  0  0
  -16.3030  -29.6860   23.6340 C   0  0  0  0  0  3  0  0  0  0  0  0
  -16.5910  -28.4200   23.0940 C   0  0  0  0  0  3  0  0  0  0  0  0
  -25.7510  -32.6310   23.8550 C   0  0  0  0  0  3  0  0  0  0  0  0
  -25.4470  -34.0450   24.1420 N   0  0  0  0  0  0  0  0  0  0  0  0
  -25.7400  -35.0730   23.3340 C   0  0  0  0  0  0  0  0  0  0  0  0
  -26.3550  -34.9310   22.2740 O   0  0  0  0  0  0  0  0  0  0  0  0
  -24.8930  -34.2280   24.9640 H   0  0  0  0  0  0  0  0  0  0  0  0
  -23.9740  -36.8470   23.0450 C   0  0  0  0  0  1  0  0  0  0  0  0
  -25.2800  -36.4810   23.7670 C   0  0  0  0  0  3  0  0  0  0  0  0
  -27.4560  -37.4300   24.3970 C   0  0  0  0  0  1  0  0  0  0  0  0
  -26.2910  -37.5340   23.5240 N   0  0  0  0  0  0  0  0  0  0  0  0
  -25.8850  -38.4580   23.6450 H   0  0  0  0  0  0  0  0  0  0  0  0
  -26.2520  -31.9090   25.1670 C   0  0  1  0  0  0  0  0  0  0  0  0
  -25.1440  -31.6970   26.2250 C   0  0  0  0  0  1  0  0  0  0  0  0
  -26.8570  -30.5250   24.8400 C   0  0  0  0  0  1  0  0  0  0  0  0
  -27.3830  -32.7380   25.8200 C   0  0  0  0  0  1  0  0  0  0  0  0
  2  1  1  0
  3  5  2  0
  3  6  1  0
  4  8  1  0
  4  1  2  0
  5  4  1  0
  6  2  2  0
  7  8  1  0
  8 50  1  0
  9 18  1  0
  9  5  1  0
  9  7  1  0
 10 18  1  0
 11 16  1  0
 12 13  1  0
 12 11  1  0
 14 13  1  0
 14 23  1  0
 14 15  1  0
 16 10  1  0
 16 15  1  0
 17 10  2  0
 18 19  1  0
 20 21  2  0
 21 40  1  0
 22 21  1  0
 22 25  1  0
 23 24  1  0
 23 20  1  0
 24 22  2  0
 25 26  1  0
 26 27  2  0
 28 31  1  0
 28 27  1  0
 29 28  2  0
 30 29  1  0
 30 25  2  0
 31 32  1  0
 32 37  2  0
 32 33  1  0
 33 34  2  0
 34 35  1  0
 35 39  1  0
 36 35  2  0
 37 36  1  0
 38 37  1  0
 40 41  1  0
 41 44  1  0
 41 43  1  0
 42 40  2  0
 45 20  1  0
 45 46  1  0
 47 45  1  0
 50 49  1  0
 50 48  1  0
 51 52  1  0
 51  6  1  0
 53 64  2  0
 54 52  1  0
 54 59  1  0
 55 63  1  0
 55 65  1  0
 56 62  1  0
 56 58  1  0
 57 63  1  0
 58 57  1  0
 59 58  2  0
 60 61  1  0
 60 54  2  0
 61 56  2  0
 62 55  1  0
 63 53  1  0
 65 67  2  0
 66 65  1  0
 68 66  1  0
 69 78  2  0
 69 74  1  0
 70 66  1  0
 70 74  1  0
 71 70  1  0
 72 73  1  0
 72 71  1  0
 73 69  1  0
 74 75  2  0
 75 76  1  0
 77 76  2  0
 78 77  1  0
 79 53  1  0
 79 80  1  0
 79 89  1  0
 80 83  1  0
 81 85  1  0
 81 80  1  0
 82 81  2  0
 85 84  1  0
 87 88  1  0
 87 85  1  0
 87 86  1  0
 89 92  1  1
 89 90  1  0
 91 89  1  0
M  ISO  4  10 100  18 100  51 101  52 101
M  END
>  <TORSDO>  (78) 
F 18

>  <SCORE>  (78) 
-11.124

>  <name>  (78) 
77

>  <ligand_id>  (78) 
77

>  <original_smiles>  (78) 
[H]c1c([H])c([H])c2c(c1[H])C([H])([H])C([H])([H])C([H])([H])C2([H])N([H])C(=O)C1([H])N(C(=O)C([H])(N([H])C(=O)C([H])(N([H])C([H])([H])[H])C([H])([H])[H])C(C([H])([H])[H])(C([H])([H])[H])C([H])([H])[H])C([H])([H])c2c([H])c(OC([H])([H])c3c([H])c([H])c4c(c3[H])C([H])(N([H])C(=O)N3C([H])([H])C([H])([H])C([H])([H])C([H])(n5nc(-c6c([H])c([H])c(Oc7c([H])c([H])c(F)c([H])c7F)c([H])c6[H])c(C(=O)N([H])[H])c5N([H])[H])C3([H])[H])C([H])([H])C4([H])C([H])(C([H])([H])[H])C([H])([H])[H])c([H])c([H])c2C1([H])[H]

>  <smiles>  (78) 
[H]c1c([H])c([H])c2c(c1[H])C([H])([H])C([H])([H])C([H])([H])C2([H])N([H])C(=O)C1([H])N(C(=O)C([H])(N([H])C(=O)C([H])(N([H])C([H])([H])[H])C([H])([H])[H])C(C([H])([H])[H])(C([H])([H])[H])C([H])([H])[H])C([H])([H])c2c([H])c(OC([H])([H])c3c([H])c([H])c4c(c3[H])C([H])(N([H])C(=O)N3C([H])([H])C([H])([H])C([H])([H])C([H])(n5nc(-c6c([H])c([H])c(Oc7c([H])c([H])c(F)c([H])c7F)c([H])c6[H])c(C(=O)N([H])[H])c5N([H])[H])C3([H])[H])C([H])([H])C4([H])C([H])(C([H])([H])[H])C([H])([H])[H])c([H])c([H])c2C1([H])[H]

$$$$
78:0:0
     RDKit          3D

 92101  0  0  1  0  0  0  0  0999 V2000
  -30.4060  -19.8160   23.7380 C   0  0  0  0  0  3  0  0  0  0  0  0
  -30.1850  -21.1430   23.3090 C   0  0  0  0  0  3  0  0  0  0  0  0
  -30.2910  -20.4510   20.9650 C   0  0  0  0  0  3  0  0  0  0  0  0
  -30.5650  -18.8200   22.7620 C   0  0  0  0  0  0  0  0  0  0  0  0
  -30.5020  -19.1290   21.4090 C   0  0  0  0  0  0  0  0  0  0  0  0
  -30.1350  -21.4820   21.9340 C   0  0  0  0  0  0  0  0  0  0  0  0
  -30.8190  -17.3490   22.9840 C   0  0  0  0  0  2  0  0  0  0  0  0
  -30.6860  -17.8900   20.5680 C   0  0  0  0  0  2  0  0  0  0  0  0
  -31.2330  -16.8420   21.5770 C   0  0  0  0  0  3  0  0  0  0  0  0
  -31.2920  -14.6770   20.3250 C   0  0  0  0  0  0  0  0  0  0  0  0
  -30.8900  -12.6480   18.9780 C   0  0  0  0  0  2  0  0  0  0  0  0
  -29.9090  -12.9490   17.8270 C   0  0  0  0  0  2  0  0  0  0  0  0
  -28.4450  -12.8260   18.2940 C   0  0  0  0  0  2  0  0  0  0  0  0
  -28.1750  -13.5900   19.6160 C   0  0  0  0  0  3  0  0  0  0  0  0
  -29.2490  -13.2440   20.6720 C   0  0  0  0  0  2  0  0  0  0  0  0
  -30.5760  -13.5470   20.1000 N   0  0  0  0  0  0  0  0  0  0  0  0
  -32.3060  -14.9800   19.6860 O   0  0  0  0  0  0  0  0  0  0  0  0
  -30.8010  -15.4740   21.2860 N   0  0  0  0  0  0  0  0  0  0  0  0
  -30.0100  -15.1180   21.7980 H   0  0  0  0  0  0  0  0  0  0  0  0
  -25.7980  -14.2290   20.3730 C   0  0  0  0  0  0  0  0  0  0  0  0
  -24.7250  -13.4690   20.7590 C   0  0  0  0  0  0  0  0  0  0  0  0
  -25.1640  -12.1120   20.7020 C   0  0  0  0  0  0  0  0  0  0  0  0
  -26.8250  -13.3340   20.1140 N   0  0  0  0  0  0  0  0  0  0  0  0
  -26.4460  -12.0560   20.3650 N   0  0  0  0  0  0  0  0  0  0  0  0
  -24.4230  -10.8570   20.8970 C   0  0  0  0  0  0  0  0  0  0  0  0
  -24.8120   -9.9140   21.8720 C   0  0  0  0  0  3  0  0  0  0  0  0
  -24.0730   -8.7240   22.0510 C   0  0  0  0  0  3  0  0  0  0  0  0
  -22.9320   -8.4710   21.2550 C   0  0  0  0  0  0  0  0  0  0  0  0
  -22.5630   -9.4030   20.2690 C   0  0  0  0  0  3  0  0  0  0  0  0
  -23.3020  -10.5840   20.0880 C   0  0  0  0  0  3  0  0  0  0  0  0
  -22.1680   -7.3310   21.3410 O   0  0  0  0  0  0  0  0  0  0  0  0
  -21.9840   -6.6760   22.5310 C   0  0  0  0  0  0  0  0  0  0  0  0
  -21.4120   -7.3150   23.6520 C   0  0  0  0  0  3  0  0  0  0  0  0
  -21.1770   -6.5850   24.8350 C   0  0  0  0  0  3  0  0  0  0  0  0
  -21.5040   -5.2170   24.8960 C   0  0  0  0  0  0  0  0  0  0  0  0
  -22.0690   -4.5780   23.7790 C   0  0  0  0  0  3  0  0  0  0  0  0
  -22.3070   -5.3050   22.5990 C   0  0  0  0  0  0  0  0  0  0  0  0
  -22.8310   -4.6790   21.5180 F   0  0  0  0  0  0  0  0  0  0  0  0
  -21.2710   -4.5140   26.0280 F   0  0  0  0  0  0  0  0  0  0  0  0
  -23.3410  -13.9650   21.0690 C   0  0  0  0  0  0  0  0  0  0  0  0
  -22.6330  -13.2840   21.9630 N   0  0  0  0  0  0  0  0  0  0  0  0
  -22.8970  -14.9900   20.5530 O   0  0  0  0  0  0  0  0  0  0  0  0
  -23.0050  -12.4570   22.4050 H   0  0  0  0  0  0  0  0  0  0  0  0
  -21.7050  -13.5960   22.2090 H   0  0  0  0  0  0  0  0  0  0  0  0
  -25.9820  -15.5980   20.2040 N   0  0  0  0  0  0  0  0  0  0  0  0
  -25.2340  -16.2720   20.3300 H   0  0  0  0  0  0  0  0  0  0  0  0
  -26.8420  -16.0190   19.8740 H   0  0  0  0  0  0  0  0  0  0  0  0
  -29.9270  -22.8150   21.6280 O   0  0  0  0  0  0  0  0  0  0  0  0
  -30.2320  -23.2810   20.3110 C   0  0  0  0  0  2  0  0  0  0  0  0
  -30.3020  -24.8280   20.3000 C   0  0  0  0  0  2  0  0  0  0  0  0
  -29.0300  -25.5230   19.7710 C   0  0  0  0  0  2  0  0  0  0  0  0
  -29.0230  -26.9320   20.0590 O   0  0  0  0  0  0  0  0  0  0  0  0
  -24.7780  -31.7190   23.1910 C   0  0  0  0  0  0  0  0  0  0  0  0
  -27.8030  -27.5830   20.0250 C   0  0  0  0  0  0  0  0  0  0  0  0
  -23.7240  -30.3280   21.4370 C   0  0  0  0  0  3  0  0  0  0  0  0
  -25.3200  -28.9470   20.0100 C   0  0  0  0  0  0  0  0  0  0  0  0
  -26.2310  -30.8410   21.3620 C   0  0  0  0  0  2  0  0  0  0  0  0
  -26.4220  -29.5080   20.6660 C   0  0  0  0  0  0  0  0  0  0  0  0
  -27.6660  -28.8340   20.6720 C   0  0  0  0  0  3  0  0  0  0  0  0
  -26.6740  -27.0360   19.3700 C   0  0  0  0  0  3  0  0  0  0  0  0
  -25.4380  -27.7080   19.3630 C   0  0  0  0  0  3  0  0  0  0  0  0
  -24.0260  -29.7260   20.0390 C   0  0  0  0  0  2  0  0  0  0  0  0
  -24.9260  -30.9760   22.0540 N   0  0  0  0  0  0  0  0  0  0  0  0
  -23.6620  -31.8960   23.6980 O   0  0  0  0  0  0  0  0  0  0  0  0
  -23.1020  -29.2240   22.3230 C   0  0  0  0  0  0  0  0  0  0  0  0
  -21.7880  -29.0010   22.1670 N   0  0  0  0  0  0  0  0  0  0  0  0
  -23.7990  -28.5720   23.1060 O   0  0  0  0  0  0  0  0  0  0  0  0
  -21.2860  -29.5750   21.5040 H   0  0  0  0  0  0  0  0  0  0  0  0
  -18.4490  -27.6930   22.6050 C   0  0  0  0  0  0  0  0  0  0  0  0
  -21.0030  -27.9880   22.8720 C   0  0  0  0  0  3  0  0  0  0  0  0
  -21.1330  -26.6090   22.1860 C   0  0  0  0  0  2  0  0  0  0  0  0
  -20.0270  -26.3410   21.1600 C   0  0  0  0  0  2  0  0  0  0  0  0
  -18.6480  -26.4040   21.8250 C   0  0  0  0  0  2  0  0  0  0  0  0
  -19.5550  -28.4440   23.0850 C   0  0  0  0  0  0  0  0  0  0  0  0
  -19.3140  -29.6510   23.7770 C   0  0  0  0  0  3  0  0  0  0  0  0
  -18.0020  -30.1100   23.9910 C   0  0  0  0  0  3  0  0  0  0  0  0
  -16.9100  -29.3570   23.5250 C   0  0  0  0  0  3  0  0  0  0  0  0
  -17.1350  -28.1500   22.8390 C   0  0  0  0  0  3  0  0  0  0  0  0
  -25.9950  -32.3970   23.8900 C   0  0  0  0  0  3  0  0  0  0  0  0
  -26.4620  -31.6420   25.1940 C   0  0  1  0  0  0  0  0  0  0  0  0
  -25.3140  -31.3480   26.1880 C   0  0  0  0  0  1  0  0  0  0  0  0
  -27.1330  -30.2970   24.8340 C   0  0  0  0  0  1  0  0  0  0  0  0
  -27.5300  -32.4850   25.9320 C   0  0  0  0  0  1  0  0  0  0  0  0
  -25.6100  -33.7790   24.2060 N   0  0  0  0  0  0  0  0  0  0  0  0
  -25.9420  -34.8460   23.4670 C   0  0  0  0  0  0  0  0  0  0  0  0
  -26.6730  -34.7730   22.4750 O   0  0  0  0  0  0  0  0  0  0  0  0
  -24.9680  -33.9060   24.9730 H   0  0  0  0  0  0  0  0  0  0  0  0
  -24.1600  -36.5570   23.0160 C   0  0  0  0  0  1  0  0  0  0  0  0
  -25.3710  -36.2110   23.8950 C   0  0  0  0  0  3  0  0  0  0  0  0
  -27.4170  -37.1840   24.8410 C   0  0  0  0  0  1  0  0  0  0  0  0
  -26.3640  -37.3070   23.8370 N   0  0  0  0  0  0  0  0  0  0  0  0
  -25.9140  -38.2100   23.9610 H   0  0  0  0  0  0  0  0  0  0  0  0
  2  1  1  0
  3  5  2  0
  3  6  1  0
  4  7  1  0
  4  1  2  0
  5  4  1  0
  6  2  2  0
  8  5  1  0
  8  9  1  0
  9 18  1  0
  9  7  1  0
 10 18  1  0
 11 16  1  0
 12 13  1  0
 12 11  1  0
 14 13  1  0
 14 23  1  0
 14 15  1  0
 16 10  1  0
 16 15  1  0
 17 10  2  0
 18 19  1  0
 20 21  2  0
 21 40  1  0
 22 21  1  0
 22 25  1  0
 23 24  1  0
 23 20  1  0
 24 22  2  0
 25 26  1  0
 26 27  2  0
 28 31  1  0
 28 27  1  0
 29 28  2  0
 30 29  1  0
 30 25  2  0
 31 32  1  0
 32 37  2  0
 32 33  1  0
 33 34  2  0
 34 35  1  0
 35 39  1  0
 36 35  2  0
 37 36  1  0
 38 37  1  0
 40 41  1  0
 41 44  1  0
 41 43  1  0
 42 40  2  0
 45 46  1  0
 45 20  1  0
 47 45  1  0
 48  6  1  0
 49 48  1  0
 50 49  1  0
 51 52  1  0
 51 50  1  0
 53 64  2  0
 54 52  1  0
 54 59  1  0
 55 63  1  0
 55 65  1  0
 56 62  1  0
 56 58  1  0
 57 63  1  0
 58 59  2  0
 58 57  1  0
 60 54  2  0
 61 60  1  0
 61 56  2  0
 62 55  1  0
 63 53  1  0
 65 67  2  0
 66 65  1  0
 68 66  1  0
 69 78  2  0
 69 74  1  0
 70 66  1  0
 70 74  1  0
 71 70  1  0
 72 73  1  0
 72 71  1  0
 73 69  1  0
 74 75  2  0
 75 76  1  0
 77 76  2  0
 78 77  1  0
 79 53  1  0
 79 84  1  0
 79 80  1  0
 80 83  1  1
 80 81  1  0
 82 80  1  0
 84 87  1  0
 85 89  1  0
 85 84  1  0
 86 85  2  0
 89 88  1  0
 91 89  1  0
 91 92  1  0
 91 90  1  0
M  ISO  4  10 100  18 100  51 101  52 101
M  END
>  <TORSDO>  (79) 
F 20

>  <SCORE>  (79) 
-11.713

>  <name>  (79) 
78

>  <ligand_id>  (79) 
78

>  <original_smiles>  (79) 
[H]c1c([H])c([H])c2c(c1[H])C([H])([H])C([H])([H])C([H])([H])C2([H])N([H])C(=O)C1([H])N(C(=O)C([H])(N([H])C(=O)C([H])(N([H])C([H])([H])[H])C([H])([H])[H])C(C([H])([H])[H])(C([H])([H])[H])C([H])([H])[H])C([H])([H])c2c([H])c(OC([H])([H])C([H])([H])C([H])([H])Oc3c([H])c([H])c4c(c3[H])C([H])([H])C([H])(N([H])C(=O)N3C([H])([H])C([H])([H])C([H])([H])C([H])(n5nc(-c6c([H])c([H])c(Oc7c([H])c([H])c(F)c([H])c7F)c([H])c6[H])c(C(=O)N([H])[H])c5N([H])[H])C3([H])[H])C4([H])[H])c([H])c([H])c2C1([H])[H]

>  <smiles>  (79) 
[H]c1c([H])c([H])c2c(c1[H])C([H])([H])C([H])([H])C([H])([H])C2([H])N([H])C(=O)C1([H])N(C(=O)C([H])(N([H])C(=O)C([H])(N([H])C([H])([H])[H])C([H])([H])[H])C(C([H])([H])[H])(C([H])([H])[H])C([H])([H])[H])C([H])([H])c2c([H])c(OC([H])([H])C([H])([H])C([H])([H])Oc3c([H])c([H])c4c(c3[H])C([H])([H])C([H])(N([H])C(=O)N3C([H])([H])C([H])([H])C([H])([H])C([H])(n5nc(-c6c([H])c([H])c(Oc7c([H])c([H])c(F)c([H])c7F)c([H])c6[H])c(C(=O)N([H])[H])c5N([H])[H])C3([H])[H])C4([H])[H])c([H])c([H])c2C1([H])[H]

$$$$
79:0:0
     RDKit          3D

 96106  0  0  1  0  0  0  0  0999 V2000
  -29.1130  -19.6090   20.0750 C   0  0  0  0  0  3  0  0  0  0  0  0
  -30.6730  -18.8060   21.6550 C   0  0  0  0  0  0  0  0  0  0  0  0
  -29.8280  -18.3750   20.5900 C   0  0  0  0  0  0  0  0  0  0  0  0
  -30.8010  -20.1540   22.0320 C   0  0  0  0  0  0  0  0  0  0  0  0
  -29.2860  -21.0290   20.5150 C   0  0  0  0  0  0  0  0  0  0  0  0
  -31.5880  -17.9910   22.5520 C   0  0  0  0  0  2  0  0  0  0  0  0
  -31.7900  -20.3190   23.1560 C   0  0  0  0  0  2  0  0  0  0  0  0
  -30.1650  -21.2330   21.5080 N   0  0  0  0  0  0  0  0  0  0  0  0
  -28.6290  -22.2810   20.0210 N   0  0  0  0  0  0  0  0  0  0  0  0
  -32.0180  -18.9350   23.6100 N   0  0  0  0  0  4  0  0  0  0  0  0
  -28.0290  -22.1570   19.2110 H   0  0  0  0  0  0  0  0  0  0  0  0
  -32.9770  -18.7980   23.8750 H   0  0  0  0  0  0  0  0  0  0  0  0
  -31.4410  -18.7880   24.4210 H   0  0  0  0  0  0  0  0  0  0  0  0
  -30.4880  -15.6630   20.5320 C   0  0  0  0  0  0  0  0  0  0  0  0
  -30.5350  -13.2510   19.7030 C   0  0  0  0  0  2  0  0  0  0  0  0
  -29.6750  -12.9550   18.4470 C   0  0  0  0  0  2  0  0  0  0  0  0
  -28.1770  -12.8030   18.7850 C   0  0  0  0  0  2  0  0  0  0  0  0
  -27.6660  -13.7520   19.9040 C   0  0  0  0  0  3  0  0  0  0  0  0
  -28.6720  -13.8820   21.0620 C   0  0  0  0  0  2  0  0  0  0  0  0
  -29.9180  -14.3790   20.4630 N   0  0  0  0  0  0  0  0  0  0  0  0
  -31.7230  -15.6660   20.5580 O   0  0  0  0  0  0  0  0  0  0  0  0
  -29.7860  -16.8670   20.0820 N   0  0  0  0  0  0  0  0  0  0  0  0
  -25.2360  -14.2210   20.5400 C   0  0  0  0  0  0  0  0  0  0  0  0
  -24.1810  -13.3970   20.8310 C   0  0  0  0  0  0  0  0  0  0  0  0
  -24.7010  -12.0680   20.8080 C   0  0  0  0  0  0  0  0  0  0  0  0
  -26.3240  -13.3880   20.3510 N   0  0  0  0  0  0  0  0  0  0  0  0
  -26.0100  -12.0870   20.5830 N   0  0  0  0  0  0  0  0  0  0  0  0
  -24.0130  -10.7750   20.9270 C   0  0  0  0  0  0  0  0  0  0  0  0
  -24.4370   -9.7920   21.8490 C   0  0  0  0  0  3  0  0  0  0  0  0
  -23.7440   -8.5670   21.9580 C   0  0  0  0  0  3  0  0  0  0  0  0
  -22.6130   -8.3160   21.1470 C   0  0  0  0  0  0  0  0  0  0  0  0
  -22.2110   -9.2850   20.2130 C   0  0  0  0  0  3  0  0  0  0  0  0
  -22.9040  -10.5020   20.1000 C   0  0  0  0  0  3  0  0  0  0  0  0
  -21.8910   -7.1460   21.1700 O   0  0  0  0  0  0  0  0  0  0  0  0
  -21.8290   -6.3610   22.2930 C   0  0  0  0  0  0  0  0  0  0  0  0
  -21.3130   -6.8480   23.5150 C   0  0  0  0  0  3  0  0  0  0  0  0
  -21.2050   -5.9870   24.6270 C   0  0  0  0  0  3  0  0  0  0  0  0
  -21.6010   -4.6410   24.5160 C   0  0  0  0  0  0  0  0  0  0  0  0
  -22.1090   -4.1530   23.2980 C   0  0  0  0  0  3  0  0  0  0  0  0
  -22.2190   -5.0110   22.1900 C   0  0  0  0  0  0  0  0  0  0  0  0
  -22.6910   -4.5320   21.0140 F   0  0  0  0  0  0  0  0  0  0  0  0
  -21.4890   -3.8120   25.5800 F   0  0  0  0  0  0  0  0  0  0  0  0
  -22.7550  -13.8210   21.0170 C   0  0  0  0  0  0  0  0  0  0  0  0
  -22.0020  -13.0900   21.8350 N   0  0  0  0  0  0  0  0  0  0  0  0
  -22.3110  -14.8310   20.4770 O   0  0  0  0  0  0  0  0  0  0  0  0
  -22.3700  -12.2730   22.2990 H   0  0  0  0  0  0  0  0  0  0  0  0
  -21.0420  -13.3570   22.0030 H   0  0  0  0  0  0  0  0  0  0  0  0
  -25.3560  -15.5980   20.3920 N   0  0  0  0  0  0  0  0  0  0  0  0
  -24.5540  -16.2180   20.4220 H   0  0  0  0  0  0  0  0  0  0  0  0
  -26.2220  -16.0770   20.1800 H   0  0  0  0  0  0  0  0  0  0  0  0
  -28.2450  -17.3400   17.9560 C   0  0  0  0  0  2  0  0  0  0  0  0
  -29.6600  -17.7560   17.6150 C   0  0  0  0  0  2  0  0  0  0  0  0
  -29.4100  -16.6820   18.6690 C   0  0  0  0  0  3  0  0  0  0  0  0
  -28.8420  -23.8000   20.4110 C   0  0  0  0  0  3  0  0  0  0  0  0
  -27.8550  -25.1110   19.9200 C   0  0  0  0  0  3  0  0  0  0  0  0
  -28.1180  -26.6610   20.0310 O   0  0  0  0  0  0  0  0  0  0  0  0
  -24.6590  -32.2510   23.4490 C   0  0  0  0  0  0  0  0  0  0  0  0
  -27.0640  -27.6580   20.0640 C   0  0  0  0  0  0  0  0  0  0  0  0
  -23.3740  -30.9320   21.8120 C   0  0  0  0  0  3  0  0  0  0  0  0
  -24.7430  -29.4210   20.2410 C   0  0  0  0  0  0  0  0  0  0  0  0
  -25.9240  -31.1870   21.5420 C   0  0  0  0  0  2  0  0  0  0  0  0
  -25.9560  -29.8310   20.8090 C   0  0  0  0  0  0  0  0  0  0  0  0
  -27.1140  -28.9690   20.6990 C   0  0  0  0  0  3  0  0  0  0  0  0
  -25.8180  -27.3570   19.4680 C   0  0  0  0  0  3  0  0  0  0  0  0
  -24.6870  -28.1980   19.5570 C   0  0  0  0  0  3  0  0  0  0  0  0
  -23.5240  -30.3200   20.3940 C   0  0  0  0  0  2  0  0  0  0  0  0
  -24.6750  -31.4800   22.3200 N   0  0  0  0  0  0  0  0  0  0  0  0
  -23.6010  -32.5120   24.0440 O   0  0  0  0  0  0  0  0  0  0  0  0
  -22.7420  -29.8810   22.7600 C   0  0  0  0  0  0  0  0  0  0  0  0
  -21.4260  -29.6390   22.6180 N   0  0  0  0  0  0  0  0  0  0  0  0
  -23.4370  -29.2870   23.5880 O   0  0  0  0  0  0  0  0  0  0  0  0
  -20.9190  -30.1730   21.9270 H   0  0  0  0  0  0  0  0  0  0  0  0
  -18.1390  -28.1600   22.9920 C   0  0  0  0  0  0  0  0  0  0  0  0
  -20.6490  -28.6550   23.3750 C   0  0  0  0  0  3  0  0  0  0  0  0
  -20.9020  -27.2210   22.8530 C   0  0  0  0  0  2  0  0  0  0  0  0
  -19.8880  -26.7750   21.7960 C   0  0  0  0  0  2  0  0  0  0  0  0
  -18.4660  -26.8140   22.3640 C   0  0  0  0  0  2  0  0  0  0  0  0
  -19.1640  -29.0310   23.4490 C   0  0  0  0  0  0  0  0  0  0  0  0
  -18.8050  -30.2840   23.9930 C   0  0  0  0  0  3  0  0  0  0  0  0
  -17.4540  -30.6700   24.0870 C   0  0  0  0  0  3  0  0  0  0  0  0
  -16.4430  -29.7990   23.6470 C   0  0  0  0  0  3  0  0  0  0  0  0
  -16.7860  -28.5450   23.1070 C   0  0  0  0  0  3  0  0  0  0  0  0
  -25.9680  -32.8600   24.0390 C   0  0  0  0  0  3  0  0  0  0  0  0
  -26.4910  -32.0960   25.3180 C   0  0  1  0  0  0  0  0  0  0  0  0
  -25.4090  -31.8930   26.4030 C   0  0  0  0  0  1  0  0  0  0  0  0
  -27.0510  -30.7030   24.9460 C   0  0  0  0  0  1  0  0  0  0  0  0
  -27.6580  -32.8860   25.9590 C   0  0  0  0  0  1  0  0  0  0  0  0
  -25.6990  -34.2700   24.3640 N   0  0  0  0  0  0  0  0  0  0  0  0
  -26.1140  -35.3170   23.6410 C   0  0  0  0  0  0  0  0  0  0  0  0
  -26.8300  -35.1970   22.6420 O   0  0  0  0  0  0  0  0  0  0  0  0
  -25.0790  -34.4430   25.1410 H   0  0  0  0  0  0  0  0  0  0  0  0
  -24.5100  -37.2050   23.2040 C   0  0  0  0  0  1  0  0  0  0  0  0
  -25.6640  -36.7190   24.0960 C   0  0  0  0  0  3  0  0  0  0  0  0
  -27.7680  -37.4670   25.1150 C   0  0  0  0  0  1  0  0  0  0  0  0
  -26.7540  -37.7190   24.0960 N   0  0  0  0  0  0  0  0  0  0  0  0
  -26.3830  -38.6530   24.2440 H   0  0  0  0  0  0  0  0  0  0  0  0
  1  5  2  0
  1  3  1  0
  2  4  1  0
  2  6  1  0
  3  2  2  0
  4  7  1  0
  5  8  1  0
  6 10  1  0
  7 10  1  0
  8  4  2  0
  9 54  1  0
  9  5  1  0
 10 12  1  0
 10 13  1  0
 11  9  1  0
 14 21  2  0
 15 20  1  0
 16 17  1  0
 16 15  1  0
 18 17  1  0
 18 26  1  0
 18 19  1  0
 20 14  1  0
 20 19  1  0
 22 14  1  0
 22  3  1  0
 23 24  2  0
 24 43  1  0
 25 24  1  0
 25 28  1  0
 26 23  1  0
 26 27  1  0
 27 25  2  0
 28 29  1  0
 29 30  2  0
 31 34  1  0
 31 30  1  0
 32 31  2  0
 33 32  1  0
 33 28  2  0
 34 35  1  0
 35 36  1  0
 36 37  2  0
 38 37  1  0
 38 42  1  0
 39 38  2  0
 40 35  2  0
 40 39  1  0
 41 40  1  0
 43 44  1  0
 44 47  1  0
 44 46  1  0
 45 43  2  0
 48 49  1  0
 48 23  1  0
 50 48  1  0
 51 53  1  0
 52 51  1  0
 52 53  1  0
 53 22  1  0
 55 56  1  0
 55 54  2  0
 56 58  1  0
 57 68  2  0
 58 63  1  0
 59 67  1  0
 59 69  1  0
 60 66  1  0
 60 62  1  0
 61 67  1  0
 62 61  1  0
 63 62  2  0
 64 65  1  0
 64 58  2  0
 65 60  2  0
 66 59  1  0
 67 57  1  0
 69 71  2  0
 70 69  1  0
 72 70  1  0
 73 82  2  0
 73 78  1  0
 74 70  1  0
 74 78  1  0
 75 74  1  0
 76 77  1  0
 76 75  1  0
 77 73  1  0
 78 79  2  0
 79 80  1  0
 81 80  2  0
 82 81  1  0
 83 57  1  0
 83 88  1  0
 83 84  1  0
 84 87  1  1
 84 85  1  0
 86 84  1  0
 88 91  1  0
 89 93  1  0
 89 88  1  0
 90 89  2  0
 93 92  1  0
 95 93  1  0
 95 96  1  0
 95 94  1  0
M  ISO  4  14 100  22 100  55 101  56 101
M  END
>  <TORSDO>  (80) 
F 19

>  <SCORE>  (80) 
-12.608

>  <name>  (80) 
79

>  <ligand_id>  (80) 
79

>  <original_smiles>  (80) 
[H]c1c([H])c([H])c2c(c1[H])C([H])([H])C([H])([H])C([H])([H])C2([H])N([H])C(=O)C1([H])N(C(=O)C([H])(N([H])C(=O)C([H])(N([H])C([H])([H])[H])C([H])([H])[H])C(C([H])([H])[H])(C([H])([H])[H])C([H])([H])[H])C([H])([H])c2c([H])c(OC([H])([H])C([H])([H])N([H])c3nc4c(c(N(C(=O)N5C([H])([H])C([H])([H])C([H])([H])C([H])(n6nc(-c7c([H])c([H])c(Oc8c([H])c([H])c(F)c([H])c8F)c([H])c7[H])c(C(=O)N([H])[H])c6N([H])[H])C5([H])[H])C5([H])C([H])([H])C5([H])[H])c3[H])C([H])([H])[N+]([H])([H])C4([H])[H])c([H])c([H])c2C1([H])[H]

>  <smiles>  (80) 
[H]c1c([H])c([H])c2c(c1[H])C([H])([H])C([H])([H])C([H])([H])C2([H])N([H])C(=O)C1([H])N(C(=O)C([H])(N([H])C(=O)C([H])(N([H])C([H])([H])[H])C([H])([H])[H])C(C([H])([H])[H])(C([H])([H])[H])C([H])([H])[H])C([H])([H])c2c([H])c(OC([H])([H])C([H])([H])N([H])c3nc4c(c(N(C(=O)N5C([H])([H])C([H])([H])C([H])([H])C([H])(n6nc(-c7c([H])c([H])c(Oc8c([H])c([H])c(F)c([H])c8F)c([H])c7[H])c(C(=O)N([H])[H])c6N([H])[H])C5([H])[H])C5([H])C([H])([H])C5([H])[H])c3[H])C([H])([H])[N+]([H])([H])C4([H])[H])c([H])c([H])c2C1([H])[H]

$$$$
80:0:0
     RDKit          3D

 94104  0  0  1  0  0  0  0  0999 V2000
  -26.9700  -21.3100   17.9420 C   0  0  0  0  0  3  0  0  0  0  0  0
  -27.6330  -20.1830   17.4820 C   0  0  0  0  0  3  0  0  0  0  0  0
  -27.3970  -21.8930   19.1290 C   0  0  0  0  0  3  0  0  0  0  0  0
  -28.6380  -19.5480   18.2390 C   0  0  0  0  0  0  0  0  0  0  0  0
  -28.9750  -20.0130   19.5630 C   0  0  0  0  0  0  0  0  0  0  0  0
  -28.4660  -21.3810   19.9010 C   0  0  0  0  0  0  0  0  0  0  0  0
  -29.1940  -18.0410   16.0960 C   0  0  0  0  0  2  0  0  0  0  0  0
  -28.5290  -17.1570   17.1220 C   0  0  0  0  0  2  0  0  0  0  0  0
  -29.3270  -18.3730   17.5650 C   0  0  0  0  0  3  0  0  0  0  0  0
  -29.1420  -18.2230   21.5660 C   0  0  0  0  0  2  0  0  0  0  0  0
  -29.8070  -18.9370   20.4240 C   0  0  0  0  0  3  0  0  0  0  0  0
  -29.5440  -17.3150   20.4230 C   0  0  0  0  0  3  0  0  0  0  0  0
  -30.9320  -15.1100   20.1000 C   0  0  0  0  0  0  0  0  0  0  0  0
  -30.7170  -12.9040   18.9400 C   0  0  0  0  0  2  0  0  0  0  0  0
  -29.7220  -13.0560   17.7660 C   0  0  0  0  0  2  0  0  0  0  0  0
  -28.2670  -12.8690   18.2390 C   0  0  0  0  0  2  0  0  0  0  0  0
  -27.9550  -13.6580   19.5360 C   0  0  0  0  0  3  0  0  0  0  0  0
  -29.0550  -13.4820   20.6020 C   0  0  0  0  0  2  0  0  0  0  0  0
  -30.3380  -13.8680   20.0030 N   0  0  0  0  0  0  0  0  0  0  0  0
  -31.9890  -15.3300   19.5040 O   0  0  0  0  0  0  0  0  0  0  0  0
  -30.3220  -16.1010   20.8610 N   0  0  0  0  0  0  0  0  0  0  0  0
  -29.8790  -15.6870   21.6700 H   0  0  0  0  0  0  0  0  0  0  0  0
  -25.5910  -14.2030   20.3760 C   0  0  0  0  0  0  0  0  0  0  0  0
  -24.5470  -13.4120   20.7720 C   0  0  0  0  0  0  0  0  0  0  0  0
  -25.0190  -12.0670   20.6810 C   0  0  0  0  0  0  0  0  0  0  0  0
  -26.6300  -13.3430   20.0650 N   0  0  0  0  0  0  0  0  0  0  0  0
  -26.2940  -12.0480   20.3080 N   0  0  0  0  0  0  0  0  0  0  0  0
  -24.3130  -10.7930   20.8730 C   0  0  0  0  0  0  0  0  0  0  0  0
  -24.7320   -9.8500   21.8370 C   0  0  0  0  0  3  0  0  0  0  0  0
  -24.0210   -8.6420   22.0140 C   0  0  0  0  0  3  0  0  0  0  0  0
  -22.8790   -8.3680   21.2240 C   0  0  0  0  0  0  0  0  0  0  0  0
  -22.4810   -9.3000   20.2490 C   0  0  0  0  0  3  0  0  0  0  0  0
  -23.1930  -10.4990   20.0710 C   0  0  0  0  0  3  0  0  0  0  0  0
  -22.1390   -7.2140   21.3090 O   0  0  0  0  0  0  0  0  0  0  0  0
  -21.9300   -6.5800   22.5080 C   0  0  0  0  0  0  0  0  0  0  0  0
  -21.2950   -7.2240   23.5930 C   0  0  0  0  0  3  0  0  0  0  0  0
  -21.0380   -6.5120   24.7810 C   0  0  0  0  0  3  0  0  0  0  0  0
  -21.4070   -5.1570   24.8860 C   0  0  0  0  0  0  0  0  0  0  0  0
  -22.0330   -4.5140   23.8040 C   0  0  0  0  0  3  0  0  0  0  0  0
  -22.2910   -5.2220   22.6190 C   0  0  0  0  0  0  0  0  0  0  0  0
  -22.8760   -4.5890   21.5730 F   0  0  0  0  0  0  0  0  0  0  0  0
  -21.1540   -4.4710   26.0250 F   0  0  0  0  0  0  0  0  0  0  0  0
  -23.1600  -13.8730   21.1230 C   0  0  0  0  0  0  0  0  0  0  0  0
  -22.4860  -13.1650   22.0240 N   0  0  0  0  0  0  0  0  0  0  0  0
  -22.6840  -14.8960   20.6310 O   0  0  0  0  0  0  0  0  0  0  0  0
  -22.8870  -12.3430   22.4500 H   0  0  0  0  0  0  0  0  0  0  0  0
  -21.5580  -13.4530   22.2970 H   0  0  0  0  0  0  0  0  0  0  0  0
  -25.7410  -15.5800   20.2360 N   0  0  0  0  0  0  0  0  0  0  0  0
  -24.9920  -16.2360   20.4250 H   0  0  0  0  0  0  0  0  0  0  0  0
  -26.5880  -16.0320   19.9170 H   0  0  0  0  0  0  0  0  0  0  0  0
  -28.8510  -22.3190   20.9010 O   0  0  0  0  0  0  0  0  0  0  0  0
  -29.0720  -23.7940   20.5490 C   0  0  0  0  0  3  0  0  0  0  0  0
  -28.0700  -25.0610   20.8770 C   0  0  0  0  0  3  0  0  0  0  0  0
  -28.3820  -26.5210   20.5380 O   0  0  0  0  0  0  0  0  0  0  0  0
  -24.5980  -32.0500   23.4290 C   0  0  0  0  0  0  0  0  0  0  0  0
  -27.3110  -27.4530   20.4440 C   0  0  0  0  0  0  0  0  0  0  0  0
  -23.4540  -30.6360   21.7590 C   0  0  0  0  0  3  0  0  0  0  0  0
  -24.9570  -29.1060   20.3550 C   0  0  0  0  0  0  0  0  0  0  0  0
  -25.9950  -30.9740   21.6390 C   0  0  0  0  0  2  0  0  0  0  0  0
  -26.1090  -29.5910   20.9880 C   0  0  0  0  0  0  0  0  0  0  0  0
  -27.2950  -28.7750   21.0160 C   0  0  0  0  0  3  0  0  0  0  0  0
  -26.1510  -27.0700   19.7390 C   0  0  0  0  0  3  0  0  0  0  0  0
  -24.9860  -27.8590   19.7130 C   0  0  0  0  0  3  0  0  0  0  0  0
  -23.7120  -29.9740   20.3820 C   0  0  0  0  0  2  0  0  0  0  0  0
  -24.7000  -31.2410   22.3320 N   0  0  0  0  0  0  0  0  0  0  0  0
  -23.4970  -32.3110   23.9390 O   0  0  0  0  0  0  0  0  0  0  0  0
  -22.7810  -29.6120   22.7060 C   0  0  0  0  0  0  0  0  0  0  0  0
  -21.4690  -29.3840   22.5260 N   0  0  0  0  0  0  0  0  0  0  0  0
  -23.4420  -29.0300   23.5710 O   0  0  0  0  0  0  0  0  0  0  0  0
  -20.9910  -29.9120   21.8090 H   0  0  0  0  0  0  0  0  0  0  0  0
  -18.1210  -28.0410   22.8870 C   0  0  0  0  0  0  0  0  0  0  0  0
  -20.6500  -28.4230   23.2740 C   0  0  0  0  0  3  0  0  0  0  0  0
  -20.8420  -26.9870   22.7360 C   0  0  0  0  0  2  0  0  0  0  0  0
  -19.8060  -26.5950   21.6780 C   0  0  0  0  0  2  0  0  0  0  0  0
  -18.3890  -26.6890   22.2500 C   0  0  0  0  0  2  0  0  0  0  0  0
  -19.1820  -28.8630   23.3560 C   0  0  0  0  0  0  0  0  0  0  0  0
  -18.8790  -30.1220   23.9130 C   0  0  0  0  0  3  0  0  0  0  0  0
  -17.5460  -30.5670   24.0070 C   0  0  0  0  0  3  0  0  0  0  0  0
  -16.4990  -29.7460   23.5510 C   0  0  0  0  0  3  0  0  0  0  0  0
  -16.7880  -28.4840   23.0000 C   0  0  0  0  0  3  0  0  0  0  0  0
  -25.8530  -32.7060   24.0850 C   0  0  0  0  0  3  0  0  0  0  0  0
  -25.5260  -34.1100   24.3730 N   0  0  0  0  0  0  0  0  0  0  0  0
  -25.8650  -35.1460   23.5970 C   0  0  0  0  0  0  0  0  0  0  0  0
  -26.5530  -35.0220   22.5790 O   0  0  0  0  0  0  0  0  0  0  0  0
  -24.9210  -34.2800   25.1650 H   0  0  0  0  0  0  0  0  0  0  0  0
  -24.1320  -36.9180   23.1620 C   0  0  0  0  0  1  0  0  0  0  0  0
  -25.3620  -36.5450   24.0070 C   0  0  0  0  0  3  0  0  0  0  0  0
  -27.4720  -37.4700   24.8550 C   0  0  0  0  0  1  0  0  0  0  0  0
  -26.3890  -37.6020   23.8820 N   0  0  0  0  0  0  0  0  0  0  0  0
  -25.9730  -38.5250   23.9880 H   0  0  0  0  0  0  0  0  0  0  0  0
  -26.3230  -31.9660   25.3970 C   0  0  1  0  0  0  0  0  0  0  0  0
  -25.1840  -31.7090   26.4130 C   0  0  0  0  0  1  0  0  0  0  0  0
  -26.9650  -30.6010   25.0610 C   0  0  0  0  0  1  0  0  0  0  0  0
  -27.4170  -32.8010   26.1040 C   0  0  0  0  0  1  0  0  0  0  0  0
  1  3  1  0
  2  1  2  0
  2  4  1  0
  3  6  2  0
  4  5  2  0
  5  6  1  0
  6 51  1  0
  7  8  1  0
  7  9  1  0
  8  9  1  0
  9  4  1  0
 11  5  1  0
 11 10  1  0
 12 11  1  0
 12 21  1  0
 12 10  1  0
 13 21  1  0
 14 19  1  0
 15 16  1  0
 15 14  1  0
 17 16  1  0
 17 26  1  0
 17 18  1  0
 19 13  1  0
 19 18  1  0
 20 13  2  0
 21 22  1  0
 23 24  2  0
 24 43  1  0
 25 24  1  0
 25 28  1  0
 26 27  1  0
 26 23  1  0
 27 25  2  0
 28 29  1  0
 29 30  2  0
 31 34  1  0
 31 30  1  0
 32 31  2  0
 33 32  1  0
 33 28  2  0
 34 35  1  0
 35 40  2  0
 35 36  1  0
 36 37  2  0
 37 38  1  0
 38 42  1  0
 39 38  2  0
 40 39  1  0
 41 40  1  0
 43 44  1  0
 44 47  1  0
 44 46  1  0
 45 43  2  0
 48 23  1  0
 48 49  1  0
 50 48  1  0
 52 53  2  0
 52 51  1  0
 54 53  1  0
 55 66  2  0
 56 54  1  0
 56 61  1  0
 57 65  1  0
 57 67  1  0
 58 64  1  0
 58 60  1  0
 59 65  1  0
 60 61  2  0
 60 59  1  0
 62 56  2  0
 63 62  1  0
 63 58  2  0
 64 57  1  0
 65 55  1  0
 67 69  2  0
 68 67  1  0
 70 68  1  0
 71 80  2  0
 71 76  1  0
 72 68  1  0
 72 76  1  0
 73 72  1  0
 74 75  1  0
 74 73  1  0
 75 71  1  0
 76 77  2  0
 77 78  1  0
 79 78  2  0
 80 79  1  0
 81 55  1  0
 81 82  1  0
 81 91  1  0
 82 85  1  0
 83 87  1  0
 83 82  1  0
 84 83  2  0
 87 86  1  0
 89 90  1  0
 89 87  1  0
 89 88  1  0
 91 94  1  1
 91 92  1  0
 93 91  1  0
M  ISO  4  13 100  21 100  53 101  54 101
M  END
>  <TORSDO>  (81) 
F 21

>  <SCORE>  (81) 
-10.274

>  <name>  (81) 
80

>  <ligand_id>  (81) 
80

>  <original_smiles>  (81) 
[H]c1c([H])c([H])c2c(c1[H])C([H])([H])C([H])([H])C([H])([H])C2([H])N([H])C(=O)C1([H])N(C(=O)C([H])(N([H])C(=O)C([H])(N([H])C([H])([H])[H])C([H])([H])[H])C(C([H])([H])[H])(C([H])([H])[H])C([H])([H])[H])C([H])([H])c2c([H])c(OC([H])([H])C([H])([H])Oc3c([H])c([H])c([H])c(C4([H])C([H])([H])C4([H])[H])c3C3([H])C([H])([H])C3([H])N([H])C(=O)N3C([H])([H])C([H])([H])C([H])([H])C([H])(n4nc(-c5c([H])c([H])c(Oc6c([H])c([H])c(F)c([H])c6F)c([H])c5[H])c(C(=O)N([H])[H])c4N([H])[H])C3([H])[H])c([H])c([H])c2C1([H])[H]

>  <smiles>  (81) 
[H]c1c([H])c([H])c2c(c1[H])C([H])([H])C([H])([H])C([H])([H])C2([H])N([H])C(=O)C1([H])N(C(=O)C([H])(N([H])C(=O)C([H])(N([H])C([H])([H])[H])C([H])([H])[H])C(C([H])([H])[H])(C([H])([H])[H])C([H])([H])[H])C([H])([H])c2c([H])c(OC([H])([H])C([H])([H])Oc3c([H])c([H])c([H])c(C4([H])C([H])([H])C4([H])[H])c3C3([H])C([H])([H])C3([H])N([H])C(=O)N3C([H])([H])C([H])([H])C([H])([H])C([H])(n4nc(-c5c([H])c([H])c(Oc6c([H])c([H])c(F)c([H])c6F)c([H])c5[H])c(C(=O)N([H])[H])c4N([H])[H])C3([H])[H])c([H])c([H])c2C1([H])[H]

$$$$
81:0:0
     RDKit          3D

 88 97  0  0  1  0  0  0  0  0999 V2000
  -30.4670  -15.5390   20.2150 C   0  0  0  0  0  0  0  0  0  0  0  0
  -30.4500  -12.9910   19.5210 C   0  0  0  0  0  2  0  0  0  0  0  0
  -29.5780  -12.6020   18.2970 C   0  0  0  0  0  2  0  0  0  0  0  0
  -28.1300  -12.3310   18.7320 C   0  0  0  0  0  2  0  0  0  0  0  0
  -27.6300  -13.3930   19.7390 C   0  0  0  0  0  3  0  0  0  0  0  0
  -28.6430  -13.7110   20.8660 C   0  0  0  0  0  2  0  0  0  0  0  0
  -29.8620  -14.2210   20.2080 N   0  0  0  0  0  0  0  0  0  0  0  0
  -31.6870  -15.4140   20.0040 O   0  0  0  0  0  0  0  0  0  0  0  0
  -28.2170  -21.7520   21.0570 C   0  0  0  0  0  3  0  0  0  0  0  0
  -29.5480  -19.7270   19.6500 C   0  0  0  0  0  0  0  0  0  0  0  0
  -28.7540  -22.3730   19.8600 C   0  0  0  0  0  0  0  0  0  0  0  0
  -29.4550  -21.1930   19.1630 C   0  0  0  0  0  0  0  0  0  0  0  0
  -28.9220  -19.3930   20.8100 C   0  0  0  0  0  0  0  0  0  0  0  0
  -30.1770  -18.2370   19.2200 C   0  0  0  0  0  3  0  0  0  0  0  0
  -29.0410  -17.7970   21.1410 C   0  0  0  0  0  3  0  0  0  0  0  0
  -30.0900  -21.4920   17.8220 C   0  0  0  0  0  1  0  0  0  0  0  0
  -28.2830  -20.4090   21.4960 N   0  0  0  0  0  0  0  0  0  0  0  0
  -29.8210  -16.9310   20.1080 N   0  0  0  0  0  0  0  0  0  0  0  0
  -25.2730  -14.0130   20.4570 C   0  0  0  0  0  0  0  0  0  0  0  0
  -24.1850  -13.2690   20.8170 C   0  0  0  0  0  0  0  0  0  0  0  0
  -24.6160  -11.9060   20.8120 C   0  0  0  0  0  0  0  0  0  0  0  0
  -26.2940  -13.1070   20.2410 N   0  0  0  0  0  0  0  0  0  0  0  0
  -25.9120  -11.8340   20.5230 N   0  0  0  0  0  0  0  0  0  0  0  0
  -23.8490  -10.6680   21.0060 C   0  0  0  0  0  0  0  0  0  0  0  0
  -24.2480   -9.6910   21.9450 C   0  0  0  0  0  3  0  0  0  0  0  0
  -23.4810   -8.5190   22.1310 C   0  0  0  0  0  3  0  0  0  0  0  0
  -22.3000   -8.3170   21.3780 C   0  0  0  0  0  0  0  0  0  0  0  0
  -21.9190   -9.2830   20.4290 C   0  0  0  0  0  3  0  0  0  0  0  0
  -22.6870  -10.4450   20.2420 C   0  0  0  0  0  3  0  0  0  0  0  0
  -21.5060   -7.2000   21.4720 O   0  0  0  0  0  0  0  0  0  0  0  0
  -21.4480   -6.4530   22.6210 C   0  0  0  0  0  0  0  0  0  0  0  0
  -21.0730   -7.0190   23.8600 C   0  0  0  0  0  3  0  0  0  0  0  0
  -20.9580   -6.2010   25.0020 C   0  0  0  0  0  3  0  0  0  0  0  0
  -21.2080   -4.8190   24.9060 C   0  0  0  0  0  0  0  0  0  0  0  0
  -21.5760   -4.2520   23.6740 C   0  0  0  0  0  3  0  0  0  0  0  0
  -21.6920   -5.0670   22.5340 C   0  0  0  0  0  0  0  0  0  0  0  0
  -22.0260   -4.5130   21.3440 F   0  0  0  0  0  0  0  0  0  0  0  0
  -21.0900   -4.0320   26.0010 F   0  0  0  0  0  0  0  0  0  0  0  0
  -22.7970  -13.7890   21.0480 C   0  0  0  0  0  0  0  0  0  0  0  0
  -22.0320  -13.1310   21.9100 N   0  0  0  0  0  0  0  0  0  0  0  0
  -22.4020  -14.8170   20.5000 O   0  0  0  0  0  0  0  0  0  0  0  0
  -22.3640  -12.2990   22.3760 H   0  0  0  0  0  0  0  0  0  0  0  0
  -21.0990  -13.4640   22.1090 H   0  0  0  0  0  0  0  0  0  0  0  0
  -25.4790  -15.3750   20.2630 N   0  0  0  0  0  0  0  0  0  0  0  0
  -24.7320  -16.0540   20.3570 H   0  0  0  0  0  0  0  0  0  0  0  0
  -26.3430  -15.7810   19.9280 H   0  0  0  0  0  0  0  0  0  0  0  0
  -28.2580  -24.0400   19.2980 C   0  0  0  0  0  2  0  0  0  0  0  0
  -28.3890  -25.6890   19.7300 O   0  0  0  0  0  0  0  0  0  0  0  0
  -24.6290  -31.5770   22.8810 C   0  0  0  0  0  0  0  0  0  0  0  0
  -27.3730  -26.8330   19.6640 C   0  0  0  0  0  0  0  0  0  0  0  0
  -23.4920  -30.1930   21.1930 C   0  0  0  0  0  3  0  0  0  0  0  0
  -25.0050  -28.6960   19.6960 C   0  0  0  0  0  0  0  0  0  0  0  0
  -26.0520  -30.4910   21.0530 C   0  0  0  0  0  2  0  0  0  0  0  0
  -26.1800  -29.0990   20.3420 C   0  0  0  0  0  0  0  0  0  0  0  0
  -27.3490  -28.1910   20.3040 C   0  0  0  0  0  3  0  0  0  0  0  0
  -26.1640  -26.6260   18.9570 C   0  0  0  0  0  3  0  0  0  0  0  0
  -25.0290  -27.4870   18.9810 C   0  0  0  0  0  3  0  0  0  0  0  0
  -23.7490  -29.5710   19.7910 C   0  0  0  0  0  2  0  0  0  0  0  0
  -24.7460  -30.7840   21.7630 N   0  0  0  0  0  0  0  0  0  0  0  0
  -23.5300  -31.8000   23.4150 O   0  0  0  0  0  0  0  0  0  0  0  0
  -22.8410  -29.1360   22.1280 C   0  0  0  0  0  0  0  0  0  0  0  0
  -21.5110  -28.9460   22.0300 N   0  0  0  0  0  0  0  0  0  0  0  0
  -23.5410  -28.4900   22.9100 O   0  0  0  0  0  0  0  0  0  0  0  0
  -20.9960  -29.5200   21.3790 H   0  0  0  0  0  0  0  0  0  0  0  0
  -18.1710  -27.6340   22.5920 C   0  0  0  0  0  0  0  0  0  0  0  0
  -20.7340  -27.9470   22.7740 C   0  0  0  0  0  3  0  0  0  0  0  0
  -20.8430  -26.5540   22.1110 C   0  0  0  0  0  2  0  0  0  0  0  0
  -19.7090  -26.2670   21.1210 C   0  0  0  0  0  2  0  0  0  0  0  0
  -18.3510  -26.3360   21.8240 C   0  0  0  0  0  2  0  0  0  0  0  0
  -19.2880  -28.3980   23.0240 C   0  0  0  0  0  0  0  0  0  0  0  0
  -19.0610  -29.6110   23.7100 C   0  0  0  0  0  3  0  0  0  0  0  0
  -17.7520  -30.0610   23.9640 C   0  0  0  0  0  3  0  0  0  0  0  0
  -16.6510  -29.2950   23.5430 C   0  0  0  0  0  3  0  0  0  0  0  0
  -16.8620  -28.0830   22.8640 C   0  0  0  0  0  3  0  0  0  0  0  0
  -25.8700  -32.2580   23.5340 C   0  0  0  0  0  3  0  0  0  0  0  0
  -25.4700  -33.6050   23.9850 N   0  0  0  0  0  0  0  0  0  0  0  0
  -25.7150  -34.7440   23.3230 C   0  0  0  0  0  0  0  0  0  0  0  0
  -26.3620  -34.7750   22.2740 O   0  0  0  0  0  0  0  0  0  0  0  0
  -24.8920  -33.6460   24.8110 H   0  0  0  0  0  0  0  0  0  0  0  0
  -23.8640  -36.4470   23.1810 C   0  0  0  0  0  1  0  0  0  0  0  0
  -25.1570  -36.0550   23.9160 C   0  0  0  0  0  3  0  0  0  0  0  0
  -27.2600  -37.0110   24.7520 C   0  0  0  0  0  1  0  0  0  0  0  0
  -26.1140  -37.1820   23.8640 N   0  0  0  0  0  0  0  0  0  0  0  0
  -25.6530  -38.0550   24.1060 H   0  0  0  0  0  0  0  0  0  0  0  0
  -26.4560  -31.4350   24.7490 C   0  0  1  0  0  0  0  0  0  0  0  0
  -25.4030  -31.0700   25.8220 C   0  0  0  0  0  1  0  0  0  0  0  0
  -27.1060  -30.1180   24.2660 C   0  0  0  0  0  1  0  0  0  0  0  0
  -27.5770  -32.2480   25.4390 C   0  0  0  0  0  1  0  0  0  0  0  0
  2  7  1  0
  3  4  1  0
  3  2  1  0
  5  4  1  0
  5 22  1  0
  5  6  1  0
  7  1  1  0
  7  6  1  0
  8  1  2  0
  9 17  2  0
 10 13  1  0
 11  9  1  0
 12 10  1  0
 12 11  2  0
 13 15  2  0
 13 17  1  0
 14 10  2  0
 14 18  1  0
 16 12  1  0
 18  1  1  0
 18 15  1  0
 19 20  2  0
 20 39  1  0
 21 20  1  0
 21 24  1  0
 22 19  1  0
 22 23  1  0
 23 21  2  0
 24 25  1  0
 25 26  2  0
 27 30  1  0
 27 26  1  0
 28 27  2  0
 29 28  1  0
 29 24  2  0
 30 31  1  0
 31 32  1  0
 32 33  2  0
 34 33  1  0
 34 38  1  0
 35 34  2  0
 36 31  2  0
 36 35  1  0
 37 36  1  0
 39 40  1  0
 40 43  1  0
 40 42  1  0
 41 39  2  0
 44 45  1  0
 44 19  1  0
 46 44  1  0
 47 48  1  0
 47 11  1  0
 49 60  2  0
 50 48  1  0
 50 55  1  0
 51 59  1  0
 51 61  1  0
 52 58  1  0
 52 54  1  0
 53 59  1  0
 54 53  1  0
 55 54  2  0
 56 57  1  0
 56 50  2  0
 57 52  2  0
 58 51  1  0
 59 49  1  0
 61 63  2  0
 62 61  1  0
 64 62  1  0
 65 74  2  0
 65 70  1  0
 66 62  1  0
 66 70  1  0
 67 66  1  0
 68 69  1  0
 68 67  1  0
 69 65  1  0
 70 71  2  0
 71 72  1  0
 73 72  2  0
 74 73  1  0
 75 49  1  0
 75 76  1  0
 75 85  1  0
 76 79  1  0
 77 81  1  0
 77 76  1  0
 78 77  2  0
 81 80  1  0
 83 81  1  0
 83 84  1  0
 83 82  1  0
 85 88  1  1
 85 86  1  0
 87 85  1  0
M  ISO  4   1 100  18 100  47 101  48 101
M  END
>  <TORSDO>  (82) 
F 16

>  <SCORE>  (82) 
-14.798

>  <name>  (82) 
81

>  <ligand_id>  (82) 
81

>  <original_smiles>  (82) 
[H]c1nc2c(c(C([H])([H])[H])c1C([H])([H])Oc1c([H])c([H])c3c(c1[H])C([H])([H])N(C(=O)C([H])(N([H])C(=O)C([H])(N([H])C([H])([H])[H])C([H])([H])[H])C(C([H])([H])[H])(C([H])([H])[H])C([H])([H])[H])C([H])(C(=O)N([H])C1([H])c4c([H])c([H])c([H])c([H])c4C([H])([H])C([H])([H])C1([H])[H])C3([H])[H])C([H])([H])N(C(=O)N1C([H])([H])C([H])([H])C([H])([H])C([H])(n3nc(-c4c([H])c([H])c(Oc5c([H])c([H])c(F)c([H])c5F)c([H])c4[H])c(C(=O)N([H])[H])c3N([H])[H])C1([H])[H])C2([H])[H]

>  <smiles>  (82) 
[H]c1nc2c(c(C([H])([H])[H])c1C([H])([H])Oc1c([H])c([H])c3c(c1[H])C([H])([H])N(C(=O)C([H])(N([H])C(=O)C([H])(N([H])C([H])([H])[H])C([H])([H])[H])C(C([H])([H])[H])(C([H])([H])[H])C([H])([H])[H])C([H])(C(=O)N([H])C1([H])c4c([H])c([H])c([H])c([H])c4C([H])([H])C([H])([H])C1([H])[H])C3([H])[H])C([H])([H])N(C(=O)N1C([H])([H])C([H])([H])C([H])([H])C([H])(n3nc(-c4c([H])c([H])c(Oc5c([H])c([H])c(F)c([H])c5F)c([H])c4[H])c(C(=O)N([H])[H])c3N([H])[H])C1([H])[H])C2([H])[H]

$$$$
82:0:0
     RDKit          3D

 91100  0  0  1  0  0  0  0  0999 V2000
  -30.4480  -15.2820   20.2980 C   0  0  0  0  0  0  0  0  0  0  0  0
  -30.4750  -12.8250   19.4990 C   0  0  0  0  0  2  0  0  0  0  0  0
  -29.5770  -12.6080   18.2550 C   0  0  0  0  0  2  0  0  0  0  0  0
  -28.1180  -12.3460   18.6700 C   0  0  0  0  0  2  0  0  0  0  0  0
  -27.6410  -13.3350   19.7630 C   0  0  0  0  0  3  0  0  0  0  0  0
  -28.6650  -13.4910   20.9080 C   0  0  0  0  0  2  0  0  0  0  0  0
  -29.9160  -13.9680   20.2980 N   0  0  0  0  0  0  0  0  0  0  0  0
  -31.6670  -15.3280   20.0730 O   0  0  0  0  0  0  0  0  0  0  0  0
  -29.2720  -18.7950   19.0310 C   0  0  0  0  0  3  0  0  0  0  0  0
  -29.0670  -21.2310   19.9900 C   0  0  0  0  0  0  0  0  0  0  0  0
  -29.0440  -20.2540   18.9020 C   0  0  0  0  0  0  0  0  0  0  0  0
  -29.3870  -20.4160   21.1630 C   0  0  0  0  0  0  0  0  0  0  0  0
  -29.6010  -18.0680   20.2380 C   0  0  0  0  0  0  0  0  0  0  0  0
  -28.7900  -20.7570   17.4930 C   0  0  0  0  0  1  0  0  0  0  0  0
  -29.6110  -19.0100   21.2660 N   0  0  0  0  0  0  0  0  0  0  0  0
  -29.5950  -16.4740   20.3690 N   0  0  0  0  0  0  0  0  0  0  0  0
  -28.6540  -16.1560   20.5370 H   0  0  0  0  0  0  0  0  0  0  0  0
  -25.2560  -13.9020   20.4770 C   0  0  0  0  0  0  0  0  0  0  0  0
  -24.1880  -13.1260   20.8310 C   0  0  0  0  0  0  0  0  0  0  0  0
  -24.6540  -11.7760   20.8080 C   0  0  0  0  0  0  0  0  0  0  0  0
  -26.3020  -13.0250   20.2490 N   0  0  0  0  0  0  0  0  0  0  0  0
  -25.9510  -11.7410   20.5170 N   0  0  0  0  0  0  0  0  0  0  0  0
  -23.9230  -10.5130   20.9840 C   0  0  0  0  0  0  0  0  0  0  0  0
  -24.3270   -9.5510   21.9350 C   0  0  0  0  0  3  0  0  0  0  0  0
  -23.5940   -8.3560   22.1000 C   0  0  0  0  0  3  0  0  0  0  0  0
  -22.4420   -8.1150   21.3140 C   0  0  0  0  0  0  0  0  0  0  0  0
  -22.0560   -9.0660   20.3530 C   0  0  0  0  0  3  0  0  0  0  0  0
  -22.7910  -10.2530   20.1860 C   0  0  0  0  0  3  0  0  0  0  0  0
  -21.6830   -6.9720   21.3890 O   0  0  0  0  0  0  0  0  0  0  0  0
  -21.5840   -6.2480   22.5500 C   0  0  0  0  0  0  0  0  0  0  0  0
  -21.0980   -6.8200   23.7460 C   0  0  0  0  0  3  0  0  0  0  0  0
  -20.9470   -6.0220   24.8970 C   0  0  0  0  0  3  0  0  0  0  0  0
  -21.2720   -4.6540   24.8540 C   0  0  0  0  0  0  0  0  0  0  0  0
  -21.7510   -4.0810   23.6620 C   0  0  0  0  0  3  0  0  0  0  0  0
  -21.9030   -4.8760   22.5130 C   0  0  0  0  0  0  0  0  0  0  0  0
  -22.3450   -4.3140   21.3620 F   0  0  0  0  0  0  0  0  0  0  0  0
  -21.1180   -3.8850   25.9580 F   0  0  0  0  0  0  0  0  0  0  0  0
  -22.7870  -13.6050   21.0750 C   0  0  0  0  0  0  0  0  0  0  0  0
  -22.0450  -12.9180   21.9360 N   0  0  0  0  0  0  0  0  0  0  0  0
  -22.3570  -14.6250   20.5370 O   0  0  0  0  0  0  0  0  0  0  0  0
  -22.4050  -12.0930   22.3930 H   0  0  0  0  0  0  0  0  0  0  0  0
  -21.1050  -13.2220   22.1440 H   0  0  0  0  0  0  0  0  0  0  0  0
  -25.4190  -15.2730   20.2970 N   0  0  0  0  0  0  0  0  0  0  0  0
  -24.6370  -15.9150   20.3790 H   0  0  0  0  0  0  0  0  0  0  0  0
  -26.2430  -15.7070   19.9070 H   0  0  0  0  0  0  0  0  0  0  0  0
  -28.4520  -23.7250   18.7050 C   0  0  0  0  0  2  0  0  0  0  0  0
  -29.0270  -22.9860   19.9080 C   0  0  0  0  0  3  0  0  0  0  0  0
  -27.9850  -24.3960   19.9710 C   0  0  0  0  0  3  0  0  0  0  0  0
  -28.2220  -26.0070   19.9130 O   0  0  0  0  0  0  0  0  0  0  0  0
  -24.7140  -31.8440   23.0740 C   0  0  0  0  0  0  0  0  0  0  0  0
  -27.1880  -27.0630   19.9070 C   0  0  0  0  0  0  0  0  0  0  0  0
  -23.4730  -30.4810   21.4400 C   0  0  0  0  0  3  0  0  0  0  0  0
  -24.8810  -28.9050   19.9540 C   0  0  0  0  0  0  0  0  0  0  0  0
  -26.0310  -30.7060   21.2270 C   0  0  0  0  0  2  0  0  0  0  0  0
  -26.0840  -29.3120   20.5460 C   0  0  0  0  0  0  0  0  0  0  0  0
  -27.2330  -28.4130   20.4970 C   0  0  0  0  0  3  0  0  0  0  0  0
  -25.9560  -26.7900   19.2760 C   0  0  0  0  0  3  0  0  0  0  0  0
  -24.8390  -27.6630   19.3000 C   0  0  0  0  0  3  0  0  0  0  0  0
  -23.6640  -29.8220   20.0470 C   0  0  0  0  0  2  0  0  0  0  0  0
  -24.7620  -31.0350   21.9680 N   0  0  0  0  0  0  0  0  0  0  0  0
  -23.6390  -32.1270   23.6290 O   0  0  0  0  0  0  0  0  0  0  0  0
  -22.8040  -29.4680   22.4040 C   0  0  0  0  0  0  0  0  0  0  0  0
  -21.4710  -29.3090   22.3100 N   0  0  0  0  0  0  0  0  0  0  0  0
  -23.4890  -28.8260   23.2040 O   0  0  0  0  0  0  0  0  0  0  0  0
  -20.9710  -29.8790   21.6420 H   0  0  0  0  0  0  0  0  0  0  0  0
  -18.0970  -28.1100   22.8870 C   0  0  0  0  0  0  0  0  0  0  0  0
  -20.6640  -28.3610   23.0850 C   0  0  0  0  0  3  0  0  0  0  0  0
  -20.7430  -26.9400   22.4800 C   0  0  0  0  0  2  0  0  0  0  0  0
  -19.6110  -26.6410   21.4900 C   0  0  0  0  0  2  0  0  0  0  0  0
  -18.2490  -26.7760   22.1760 C   0  0  0  0  0  2  0  0  0  0  0  0
  -19.2300  -28.8610   23.3000 C   0  0  0  0  0  0  0  0  0  0  0  0
  -19.0300  -30.1090   23.9290 C   0  0  0  0  0  3  0  0  0  0  0  0
  -17.7310  -30.6060   24.1490 C   0  0  0  0  0  3  0  0  0  0  0  0
  -16.6140  -29.8530   23.7490 C   0  0  0  0  0  3  0  0  0  0  0  0
  -16.7970  -28.6070   23.1240 C   0  0  0  0  0  3  0  0  0  0  0  0
  -26.0030  -32.4710   23.6860 C   0  0  0  0  0  3  0  0  0  0  0  0
  -25.6880  -33.8520   24.0890 N   0  0  0  0  0  0  0  0  0  0  0  0
  -25.9690  -34.9450   23.3660 C   0  0  0  0  0  0  0  0  0  0  0  0
  -26.5840  -34.8970   22.2990 O   0  0  0  0  0  0  0  0  0  0  0  0
  -25.1340  -33.9620   24.9250 H   0  0  0  0  0  0  0  0  0  0  0  0
  -24.1990  -36.7290   23.2050 C   0  0  0  0  0  1  0  0  0  0  0  0
  -25.4960  -36.3080   23.9140 C   0  0  0  0  0  3  0  0  0  0  0  0
  -27.6670  -37.1960   24.6430 C   0  0  0  0  0  1  0  0  0  0  0  0
  -26.5050  -37.3810   23.7780 N   0  0  0  0  0  0  0  0  0  0  0  0
  -26.0970  -38.2880   23.9860 H   0  0  0  0  0  0  0  0  0  0  0  0
  -26.5610  -31.6580   24.9200 C   0  0  1  0  0  0  0  0  0  0  0  0
  -25.5020  -31.3820   26.0140 C   0  0  0  0  0  1  0  0  0  0  0  0
  -27.1350  -30.2950   24.4700 C   0  0  0  0  0  1  0  0  0  0  0  0
  -27.7300  -32.4330   25.5710 C   0  0  0  0  0  1  0  0  0  0  0  0
  -31.0380  -21.4790   22.7650 C   0  0  0  0  0  1  0  0  0  0  0  0
  -29.5690  -21.1370   22.4870 C   0  0  0  0  0  2  0  0  0  0  0  0
  1  7  1  0
  1 16  1  0
  2  7  1  0
  3  4  1  0
  3  2  1  0
  5  4  1  0
  5 21  1  0
  5  6  1  0
  7  6  1  0
  8  1  2  0
  9 13  1  0
 10 12  2  0
 11  9  2  0
 11 10  1  0
 12 15  1  0
 12 91  1  0
 13 16  1  0
 13 15  2  0
 14 11  1  0
 16 17  1  0
 18 19  2  0
 19 38  1  0
 20 19  1  0
 20 23  1  0
 21 18  1  0
 21 22  1  0
 22 20  2  0
 23 24  1  0
 24 25  2  0
 26 29  1  0
 26 25  1  0
 27 26  2  0
 28 27  1  0
 28 23  2  0
 29 30  1  0
 30 31  1  0
 31 32  2  0
 33 32  1  0
 33 37  1  0
 34 33  2  0
 35 30  2  0
 35 34  1  0
 36 35  1  0
 38 39  1  0
 39 42  1  0
 39 41  1  0
 40 38  2  0
 43 44  1  0
 43 18  1  0
 45 43  1  0
 46 47  1  0
 46 48  1  0
 47 48  1  0
 47 10  1  0
 48 49  1  0
 50 61  2  0
 51 49  1  0
 51 56  1  0
 52 60  1  0
 52 62  1  0
 53 59  1  0
 53 55  1  0
 54 60  1  0
 55 54  1  0
 56 55  2  0
 57 58  1  0
 57 51  2  0
 58 53  2  0
 59 52  1  0
 60 50  1  0
 62 64  2  0
 63 62  1  0
 65 63  1  0
 66 75  2  0
 66 71  1  0
 67 63  1  0
 67 71  1  0
 68 67  1  0
 69 70  1  0
 69 68  1  0
 70 66  1  0
 71 72  2  0
 72 73  1  0
 74 73  2  0
 75 74  1  0
 76 50  1  0
 76 77  1  0
 76 86  1  0
 77 80  1  0
 78 82  1  0
 78 77  1  0
 79 78  2  0
 82 81  1  0
 84 82  1  0
 84 85  1  0
 84 83  1  0
 86 89  1  1
 86 87  1  0
 88 86  1  0
 91 90  1  0
M  ISO  4   1 100  16 100  48 101  49 101
M  END
>  <TORSDO>  (83) 
F 17

>  <SCORE>  (83) 
-15.154

>  <name>  (83) 
82

>  <ligand_id>  (83) 
82

>  <original_smiles>  (83) 
[H]c1c([H])c([H])c2c(c1[H])C([H])([H])C([H])([H])C([H])([H])C2([H])N([H])C(=O)C1([H])N(C(=O)C([H])(N([H])C(=O)C([H])(N([H])C([H])([H])[H])C([H])([H])[H])C(C([H])([H])[H])(C([H])([H])[H])C([H])([H])[H])C([H])([H])c2c([H])c(OC3([H])C([H])([H])C3([H])c3c(C([H])([H])C([H])([H])[H])nc(N([H])C(=O)N4C([H])([H])C([H])([H])C([H])([H])C([H])(n5nc(-c6c([H])c([H])c(Oc7c([H])c([H])c(F)c([H])c7F)c([H])c6[H])c(C(=O)N([H])[H])c5N([H])[H])C4([H])[H])c([H])c3C([H])([H])[H])c([H])c([H])c2C1([H])[H]

>  <smiles>  (83) 
[H]c1c([H])c([H])c2c(c1[H])C([H])([H])C([H])([H])C([H])([H])C2([H])N([H])C(=O)C1([H])N(C(=O)C([H])(N([H])C(=O)C([H])(N([H])C([H])([H])[H])C([H])([H])[H])C(C([H])([H])[H])(C([H])([H])[H])C([H])([H])[H])C([H])([H])c2c([H])c(OC3([H])C([H])([H])C3([H])c3c(C([H])([H])C([H])([H])[H])nc(N([H])C(=O)N4C([H])([H])C([H])([H])C([H])([H])C([H])(n5nc(-c6c([H])c([H])c(Oc7c([H])c([H])c(F)c([H])c7F)c([H])c6[H])c(C(=O)N([H])[H])c5N([H])[H])C4([H])[H])c([H])c3C([H])([H])[H])c([H])c([H])c2C1([H])[H]

$$$$
83:0:0
     RDKit          3D

 92101  0  0  1  0  0  0  0  0999 V2000
  -30.9370  -19.7300   20.3620 C   0  0  0  0  0  3  0  0  0  0  0  0
  -30.4330  -21.0510   20.1970 C   0  0  0  0  0  3  0  0  0  0  0  0
  -28.8000  -18.7920   19.7930 C   0  0  0  0  0  3  0  0  0  0  0  0
  -28.2840  -20.1170   19.6170 C   0  0  0  0  0  0  0  0  0  0  0  0
  -30.1460  -18.5640   20.1640 C   0  0  0  0  0  0  0  0  0  0  0  0
  -29.0900  -21.2820   19.8120 C   0  0  0  0  0  0  0  0  0  0  0  0
  -26.2110  -19.4840   18.1230 C   0  0  0  0  0  2  0  0  0  0  0  0
  -26.4450  -20.9660   17.9520 C   0  0  0  0  0  2  0  0  0  0  0  0
  -26.8400  -20.2840   19.2410 C   0  0  0  0  0  3  0  0  0  0  0  0
  -30.8310  -17.1670   20.3870 C   0  0  0  0  0  2  0  0  0  0  0  0
  -30.7760  -14.6630   20.1660 C   0  0  0  0  0  0  0  0  0  0  0  0
  -30.4240  -12.4380   19.1280 C   0  0  0  0  0  2  0  0  0  0  0  0
  -29.4560  -12.5690   17.9350 C   0  0  0  0  0  2  0  0  0  0  0  0
  -28.0000  -12.4240   18.4150 C   0  0  0  0  0  2  0  0  0  0  0  0
  -27.6860  -13.3120   19.6500 C   0  0  0  0  0  3  0  0  0  0  0  0
  -28.7780  -13.1990   20.7370 C   0  0  0  0  0  2  0  0  0  0  0  0
  -30.0670  -13.4920   20.1010 N   0  0  0  0  0  0  0  0  0  0  0  0
  -31.9430  -14.7060   19.7700 O   0  0  0  0  0  0  0  0  0  0  0  0
  -30.1320  -15.8360   20.4740 N   0  0  0  0  0  0  0  0  0  0  0  0
  -29.1640  -15.8070   20.7530 H   0  0  0  0  0  0  0  0  0  0  0  0
  -25.3470  -13.9270   20.5090 C   0  0  0  0  0  0  0  0  0  0  0  0
  -24.2760  -13.1620   20.8810 C   0  0  0  0  0  0  0  0  0  0  0  0
  -24.6990  -11.8020   20.7610 C   0  0  0  0  0  0  0  0  0  0  0  0
  -26.3560  -13.0340   20.1830 N   0  0  0  0  0  0  0  0  0  0  0  0
  -25.9750  -11.7490   20.3960 N   0  0  0  0  0  0  0  0  0  0  0  0
  -23.9470  -10.5510   20.9140 C   0  0  0  0  0  0  0  0  0  0  0  0
  -24.4070   -9.5080   21.7480 C   0  0  0  0  0  3  0  0  0  0  0  0
  -23.6550   -8.3220   21.8940 C   0  0  0  0  0  3  0  0  0  0  0  0
  -22.4280   -8.1710   21.2050 C   0  0  0  0  0  0  0  0  0  0  0  0
  -21.9860   -9.2020   20.3580 C   0  0  0  0  0  3  0  0  0  0  0  0
  -22.7380  -10.3790   20.2090 C   0  0  0  0  0  3  0  0  0  0  0  0
  -21.6430   -7.0440   21.2670 O   0  0  0  0  0  0  0  0  0  0  0  0
  -21.6620   -6.2130   22.3580 C   0  0  0  0  0  0  0  0  0  0  0  0
  -21.3740   -6.6830   23.6570 C   0  0  0  0  0  3  0  0  0  0  0  0
  -21.3350   -5.7800   24.7400 C   0  0  0  0  0  3  0  0  0  0  0  0
  -21.5760   -4.4110   24.5240 C   0  0  0  0  0  0  0  0  0  0  0  0
  -21.8570   -3.9400   23.2290 C   0  0  0  0  0  3  0  0  0  0  0  0
  -21.8970   -4.8390   22.1490 C   0  0  0  0  0  0  0  0  0  0  0  0
  -22.1470   -4.3770   20.9000 F   0  0  0  0  0  0  0  0  0  0  0  0
  -21.5320   -3.5430   25.5610 F   0  0  0  0  0  0  0  0  0  0  0  0
  -22.9040  -13.6600   21.2370 C   0  0  0  0  0  0  0  0  0  0  0  0
  -22.1990  -12.9430   22.1040 N   0  0  0  0  0  0  0  0  0  0  0  0
  -22.4710  -14.7180   20.7830 O   0  0  0  0  0  0  0  0  0  0  0  0
  -22.5630  -12.0850   22.4920 H   0  0  0  0  0  0  0  0  0  0  0  0
  -21.2810  -13.2560   22.3860 H   0  0  0  0  0  0  0  0  0  0  0  0
  -25.5420  -15.3010   20.3940 N   0  0  0  0  0  0  0  0  0  0  0  0
  -24.7920  -15.9650   20.5570 H   0  0  0  0  0  0  0  0  0  0  0  0
  -26.3830  -15.7320   20.0360 H   0  0  0  0  0  0  0  0  0  0  0  0
  -28.5120  -22.5510   19.6010 O   0  0  0  0  0  0  0  0  0  0  0  0
  -29.1930  -23.8400   19.7650 C   0  0  0  0  0  2  0  0  0  0  0  0
  -28.2280  -25.0360   19.3510 C   0  0  0  0  0  2  0  0  0  0  0  0
  -28.4770  -26.4650   19.6670 O   0  0  0  0  0  0  0  0  0  0  0  0
  -24.6610  -31.5950   23.0220 C   0  0  0  0  0  0  0  0  0  0  0  0
  -27.3520  -27.3120   19.6580 C   0  0  0  0  0  0  0  0  0  0  0  0
  -23.4810  -30.2880   21.2940 C   0  0  0  0  0  3  0  0  0  0  0  0
  -24.9570  -28.8770   19.7610 C   0  0  0  0  0  0  0  0  0  0  0  0
  -26.0150  -30.6710   21.1290 C   0  0  0  0  0  2  0  0  0  0  0  0
  -26.1200  -29.3450   20.3870 C   0  0  0  0  0  0  0  0  0  0  0  0
  -27.3210  -28.5760   20.3260 C   0  0  0  0  0  3  0  0  0  0  0  0
  -26.1620  -26.9080   19.0040 C   0  0  0  0  0  3  0  0  0  0  0  0
  -24.9810  -27.6650   19.0610 C   0  0  0  0  0  3  0  0  0  0  0  0
  -23.7020  -29.7170   19.8710 C   0  0  0  0  0  2  0  0  0  0  0  0
  -24.7380  -30.8650   21.8720 N   0  0  0  0  0  0  0  0  0  0  0  0
  -23.5740  -31.8140   23.5750 O   0  0  0  0  0  0  0  0  0  0  0  0
  -22.8450  -29.1910   22.1820 C   0  0  0  0  0  0  0  0  0  0  0  0
  -21.5140  -29.0270   22.0800 N   0  0  0  0  0  0  0  0  0  0  0  0
  -23.5450  -28.4970   22.9230 O   0  0  0  0  0  0  0  0  0  0  0  0
  -21.0100  -29.6390   21.4560 H   0  0  0  0  0  0  0  0  0  0  0  0
  -18.1440  -27.8230   22.6080 C   0  0  0  0  0  0  0  0  0  0  0  0
  -20.7140  -28.0290   22.7920 C   0  0  0  0  0  3  0  0  0  0  0  0
  -20.7710  -26.6550   22.0830 C   0  0  0  0  0  2  0  0  0  0  0  0
  -19.6230  -26.4410   21.0910 C   0  0  0  0  0  2  0  0  0  0  0  0
  -18.2710  -26.5400   21.8020 C   0  0  0  0  0  2  0  0  0  0  0  0
  -19.2900  -28.5310   23.0580 C   0  0  0  0  0  0  0  0  0  0  0  0
  -19.1140  -29.7360   23.7720 C   0  0  0  0  0  3  0  0  0  0  0  0
  -17.8250  -30.2310   24.0410 C   0  0  0  0  0  3  0  0  0  0  0  0
  -16.6950  -29.5200   23.6060 C   0  0  0  0  0  3  0  0  0  0  0  0
  -16.8530  -28.3180   22.8930 C   0  0  0  0  0  3  0  0  0  0  0  0
  -25.9330  -32.2110   23.6820 C   0  0  0  0  0  3  0  0  0  0  0  0
  -25.6020  -33.5870   24.0800 N   0  0  0  0  0  0  0  0  0  0  0  0
  -25.9210  -34.6810   23.3770 C   0  0  0  0  0  0  0  0  0  0  0  0
  -26.5950  -34.6400   22.3440 O   0  0  0  0  0  0  0  0  0  0  0  0
  -25.0040  -33.6920   24.8860 H   0  0  0  0  0  0  0  0  0  0  0  0
  -24.1640  -36.4620   23.1130 C   0  0  0  0  0  1  0  0  0  0  0  0
  -25.4140  -36.0380   23.9020 C   0  0  0  0  0  3  0  0  0  0  0  0
  -27.5370  -36.9130   24.7710 C   0  0  0  0  0  1  0  0  0  0  0  0
  -26.4290  -37.1120   23.8400 N   0  0  0  0  0  0  0  0  0  0  0  0
  -26.0080  -38.0160   24.0360 H   0  0  0  0  0  0  0  0  0  0  0  0
  -26.4510  -31.3840   24.9220 C   0  0  1  0  0  0  0  0  0  0  0  0
  -25.3560  -31.0890   25.9740 C   0  0  0  0  0  1  0  0  0  0  0  0
  -27.0470  -30.0300   24.4680 C   0  0  0  0  0  1  0  0  0  0  0  0
  -27.5940  -32.1550   25.6220 C   0  0  0  0  0  1  0  0  0  0  0  0
  2  1  1  0
  3  5  1  0
  4  3  2  0
  4  6  1  0
  5  1  2  0
  5 10  1  0
  6  2  2  0
  7  9  1  0
  8  7  1  0
  8  9  1  0
  9  4  1  0
 10 19  1  0
 11 19  1  0
 12 17  1  0
 13 14  1  0
 13 12  1  0
 15 14  1  0
 15 24  1  0
 15 16  1  0
 17 11  1  0
 17 16  1  0
 18 11  2  0
 19 20  1  0
 21 22  2  0
 22 41  1  0
 23 22  1  0
 23 26  1  0
 24 25  1  0
 24 21  1  0
 25 23  2  0
 26 27  1  0
 27 28  2  0
 29 32  1  0
 29 28  1  0
 30 29  2  0
 31 30  1  0
 31 26  2  0
 32 33  1  0
 33 34  1  0
 34 35  2  0
 36 35  1  0
 36 40  1  0
 37 36  2  0
 38 33  2  0
 38 37  1  0
 39 38  1  0
 41 42  1  0
 42 45  1  0
 42 44  1  0
 43 41  2  0
 46 21  1  0
 46 47  1  0
 48 46  1  0
 49 50  1  0
 49  6  1  0
 51 52  1  0
 51 50  1  0
 53 64  2  0
 54 52  1  0
 54 59  1  0
 55 63  1  0
 55 65  1  0
 56 62  1  0
 56 58  1  0
 57 63  1  0
 58 57  1  0
 59 58  2  0
 60 61  1  0
 60 54  2  0
 61 56  2  0
 62 55  1  0
 63 53  1  0
 65 67  2  0
 66 65  1  0
 68 66  1  0
 69 78  2  0
 69 74  1  0
 70 66  1  0
 70 74  1  0
 71 70  1  0
 72 73  1  0
 72 71  1  0
 73 69  1  0
 74 75  2  0
 75 76  1  0
 77 76  2  0
 78 77  1  0
 79 53  1  0
 79 80  1  0
 79 89  1  0
 80 83  1  0
 81 85  1  0
 81 80  1  0
 82 81  2  0
 85 84  1  0
 87 85  1  0
 87 88  1  0
 87 86  1  0
 89 92  1  1
 89 90  1  0
 91 89  1  0
M  ISO  4  11 100  19 100  51 101  52 101
M  END
>  <TORSDO>  (84) 
F 21

>  <SCORE>  (84) 
-12.452

>  <name>  (84) 
83

>  <ligand_id>  (84) 
83

>  <original_smiles>  (84) 
[H]c1c([H])c([H])c2c(c1[H])C([H])([H])C([H])([H])C([H])([H])C2([H])N([H])C(=O)C1([H])N(C(=O)C([H])(N([H])C(=O)C([H])(N([H])C([H])([H])[H])C([H])([H])[H])C(C([H])([H])[H])(C([H])([H])[H])C([H])([H])[H])C([H])([H])c2c([H])c(OC([H])([H])C([H])([H])Oc3c([H])c([H])c(C([H])([H])N([H])C(=O)N4C([H])([H])C([H])([H])C([H])([H])C([H])(n5nc(-c6c([H])c([H])c(Oc7c([H])c([H])c(F)c([H])c7F)c([H])c6[H])c(C(=O)N([H])[H])c5N([H])[H])C4([H])[H])c([H])c3C3([H])C([H])([H])C3([H])[H])c([H])c([H])c2C1([H])[H]

>  <smiles>  (84) 
[H]c1c([H])c([H])c2c(c1[H])C([H])([H])C([H])([H])C([H])([H])C2([H])N([H])C(=O)C1([H])N(C(=O)C([H])(N([H])C(=O)C([H])(N([H])C([H])([H])[H])C([H])([H])[H])C(C([H])([H])[H])(C([H])([H])[H])C([H])([H])[H])C([H])([H])c2c([H])c(OC([H])([H])C([H])([H])Oc3c([H])c([H])c(C([H])([H])N([H])C(=O)N4C([H])([H])C([H])([H])C([H])([H])C([H])(n5nc(-c6c([H])c([H])c(Oc7c([H])c([H])c(F)c([H])c7F)c([H])c6[H])c(C(=O)N([H])[H])c5N([H])[H])C4([H])[H])c([H])c3C3([H])C([H])([H])C3([H])[H])c([H])c([H])c2C1([H])[H]

$$$$
84:0:0
     RDKit          3D

100111  0  0  1  0  0  0  0  0999 V2000
  -28.9470  -23.0610   20.9770 C   0  0  0  0  0  3  0  0  0  0  0  0
  -28.4410  -24.3390   20.5990 C   0  0  0  0  0  3  0  0  0  0  0  0
  -30.6340  -24.9730   19.7600 C   0  0  0  0  0  3  0  0  0  0  0  0
  -30.3070  -22.7440   20.7470 C   0  0  0  0  0  0  0  0  0  0  0  0
  -31.1180  -23.7080   20.1450 C   0  0  0  0  0  0  0  0  0  0  0  0
  -29.2870  -25.3180   20.0100 C   0  0  0  0  0  0  0  0  0  0  0  0
  -32.5620  -23.3050   20.1670 C   0  0  0  0  0  2  0  0  0  0  0  0
  -32.5800  -22.1890   21.2290 C   0  0  0  0  0  2  0  0  0  0  0  0
  -31.1420  -21.5710   21.3120 C   0  0  0  0  0  3  0  0  0  0  0  0
  -31.9970  -19.2170   21.0970 C   0  0  0  0  0  2  0  0  0  0  0  0
  -30.9630  -18.1150   20.8790 C   0  0  0  0  0  3  0  0  0  0  0  0
  -29.9590  -19.2950   20.9620 C   0  0  0  0  0  3  0  0  0  0  0  0
  -31.0540  -20.2370   20.6050 N   0  0  1  0  0  4  0  0  0  0  0  0
  -31.1610  -20.3410   19.6080 H   0  0  0  0  0  0  0  0  0  0  0  0
  -27.7700  -18.1280   20.0490 C   0  0  0  0  0  2  0  0  0  0  0  0
  -27.5180  -20.1520   20.2130 C   0  0  0  0  0  2  0  0  0  0  0  0
  -28.7650  -19.2910   19.9940 C   0  0  0  0  0  3  0  0  0  0  0  0
  -26.7330  -19.0660   19.6340 N   0  0  0  0  0  4  0  0  0  0  0  0
  -25.8340  -18.9200   20.0630 H   0  0  0  0  0  0  0  0  0  0  0  0
  -26.6620  -19.1390   18.6330 H   0  0  0  0  0  0  0  0  0  0  0  0
  -30.9280  -16.9240   21.8840 C   0  0  0  0  0  2  0  0  0  0  0  0
  -31.0380  -14.6900   20.6810 C   0  0  0  0  0  0  0  0  0  0  0  0
  -30.7020  -12.6530   19.3150 C   0  0  0  0  0  2  0  0  0  0  0  0
  -29.7870  -12.9750   18.1150 C   0  0  0  0  0  2  0  0  0  0  0  0
  -28.3020  -12.8470   18.5050 C   0  0  0  0  0  2  0  0  0  0  0  0
  -27.9630  -13.5840   19.8290 C   0  0  0  0  0  3  0  0  0  0  0  0
  -28.9890  -13.2360   20.9320 C   0  0  0  0  0  2  0  0  0  0  0  0
  -30.3300  -13.5570   20.4160 N   0  0  0  0  0  0  0  0  0  0  0  0
  -32.1750  -14.8800   20.2430 O   0  0  0  0  0  0  0  0  0  0  0  0
  -30.3780  -15.6500   21.3700 N   0  0  0  0  0  0  0  0  0  0  0  0
  -29.4400  -15.4140   21.6550 H   0  0  0  0  0  0  0  0  0  0  0  0
  -25.5420  -14.2030   20.4370 C   0  0  0  0  0  0  0  0  0  0  0  0
  -24.4590  -13.4410   20.7770 C   0  0  0  0  0  0  0  0  0  0  0  0
  -24.9150  -12.0880   20.7740 C   0  0  0  0  0  0  0  0  0  0  0  0
  -26.5930  -13.3180   20.2580 N   0  0  0  0  0  0  0  0  0  0  0  0
  -26.2160  -12.0390   20.5160 N   0  0  0  0  0  0  0  0  0  0  0  0
  -24.1750  -10.8310   20.9440 C   0  0  0  0  0  0  0  0  0  0  0  0
  -24.5640   -9.8710   21.9050 C   0  0  0  0  0  3  0  0  0  0  0  0
  -23.8260   -8.6790   22.0620 C   0  0  0  0  0  3  0  0  0  0  0  0
  -22.6870   -8.4380   21.2590 C   0  0  0  0  0  0  0  0  0  0  0  0
  -22.3170   -9.3860   20.2880 C   0  0  0  0  0  3  0  0  0  0  0  0
  -23.0560  -10.5700   20.1290 C   0  0  0  0  0  3  0  0  0  0  0  0
  -21.9260   -7.2960   21.3240 O   0  0  0  0  0  0  0  0  0  0  0  0
  -21.8080   -6.5760   22.4860 C   0  0  0  0  0  0  0  0  0  0  0  0
  -21.3520   -7.1660   23.6850 C   0  0  0  0  0  3  0  0  0  0  0  0
  -21.1770   -6.3750   24.8370 C   0  0  0  0  0  3  0  0  0  0  0  0
  -21.4480   -4.9940   24.7920 C   0  0  0  0  0  0  0  0  0  0  0  0
  -21.8980   -4.4050   23.5980 C   0  0  0  0  0  3  0  0  0  0  0  0
  -22.0740   -5.1930   22.4480 C   0  0  0  0  0  0  0  0  0  0  0  0
  -22.4860   -4.6160   21.2940 F   0  0  0  0  0  0  0  0  0  0  0  0
  -21.2740   -4.2320   25.8970 F   0  0  0  0  0  0  0  0  0  0  0  0
  -23.0550  -13.9290   20.9930 C   0  0  0  0  0  0  0  0  0  0  0  0
  -22.2990  -13.2640   21.8590 N   0  0  0  0  0  0  0  0  0  0  0  0
  -22.6360  -14.9390   20.4280 O   0  0  0  0  0  0  0  0  0  0  0  0
  -22.6500  -12.4490   22.3400 H   0  0  0  0  0  0  0  0  0  0  0  0
  -21.3560  -13.5750   22.0450 H   0  0  0  0  0  0  0  0  0  0  0  0
  -25.7110  -15.5690   20.2390 N   0  0  0  0  0  0  0  0  0  0  0  0
  -24.9030  -16.1780   20.1960 H   0  0  0  0  0  0  0  0  0  0  0  0
  -26.5320  -15.9560   19.7920 H   0  0  0  0  0  0  0  0  0  0  0  0
  -28.9530  -26.6510   19.8270 O   0  0  0  0  0  0  0  0  0  0  0  0
  -24.6070  -31.4390   22.8520 C   0  0  0  0  0  0  0  0  0  0  0  0
  -27.6840  -27.1920   19.8830 C   0  0  0  0  0  0  0  0  0  0  0  0
  -23.5620  -29.9450   21.1770 C   0  0  0  0  0  3  0  0  0  0  0  0
  -25.1730  -28.5040   19.8140 C   0  0  0  0  0  0  0  0  0  0  0  0
  -26.0570  -30.4890   21.0580 C   0  0  0  0  0  2  0  0  0  0  0  0
  -26.2640  -29.1200   20.4380 C   0  0  0  0  0  0  0  0  0  0  0  0
  -27.5180  -28.4690   20.4720 C   0  0  0  0  0  3  0  0  0  0  0  0
  -26.5770  -26.5850   19.2550 C   0  0  0  0  0  3  0  0  0  0  0  0
  -25.3230  -27.2340   19.2250 C   0  0  0  0  0  3  0  0  0  0  0  0
  -23.8670  -29.2710   19.8110 C   0  0  0  0  0  2  0  0  0  0  0  0
  -24.7570  -30.6430   21.7550 N   0  0  0  0  0  0  0  0  0  0  0  0
  -23.4920  -31.6300   23.3580 O   0  0  0  0  0  0  0  0  0  0  0  0
  -22.9590  -28.8830   22.1240 C   0  0  0  0  0  0  0  0  0  0  0  0
  -21.6390  -28.6570   22.0060 N   0  0  0  0  0  0  0  0  0  0  0  0
  -23.6730  -28.2650   22.9170 O   0  0  0  0  0  0  0  0  0  0  0  0
  -21.1230  -29.2100   21.3370 H   0  0  0  0  0  0  0  0  0  0  0  0
  -18.3080  -27.3700   22.5490 C   0  0  0  0  0  0  0  0  0  0  0  0
  -20.8660  -27.6730   22.7620 C   0  0  0  0  0  3  0  0  0  0  0  0
  -20.9840  -26.2680   22.1280 C   0  0  0  0  0  2  0  0  0  0  0  0
  -19.8620  -25.9610   21.1320 C   0  0  0  0  0  2  0  0  0  0  0  0
  -18.4950  -26.0510   21.8170 C   0  0  0  0  0  2  0  0  0  0  0  0
  -19.4220  -28.1390   22.9780 C   0  0  0  0  0  0  0  0  0  0  0  0
  -19.1940  -29.3750   23.6230 C   0  0  0  0  0  3  0  0  0  0  0  0
  -17.8840  -29.8400   23.8420 C   0  0  0  0  0  3  0  0  0  0  0  0
  -16.7850  -29.0670   23.4290 C   0  0  0  0  0  3  0  0  0  0  0  0
  -16.9980  -27.8340   22.7890 C   0  0  0  0  0  3  0  0  0  0  0  0
  -25.8230  -32.1660   23.5100 C   0  0  0  0  0  3  0  0  0  0  0  0
  -26.3950  -31.4060   24.7700 C   0  0  1  0  0  0  0  0  0  0  0  0
  -25.3140  -31.0260   25.8100 C   0  0  0  0  0  1  0  0  0  0  0  0
  -27.1190  -30.1080   24.3440 C   0  0  0  0  0  1  0  0  0  0  0  0
  -27.4490  -32.2880   25.4790 C   0  0  0  0  0  1  0  0  0  0  0  0
  -25.3850  -33.5190   23.8730 N   0  0  0  0  0  0  0  0  0  0  0  0
  -25.7390  -34.6350   23.2210 C   0  0  0  0  0  0  0  0  0  0  0  0
  -26.5360  -34.6340   22.2790 O   0  0  0  0  0  0  0  0  0  0  0  0
  -24.6870  -33.5890   24.6000 H   0  0  0  0  0  0  0  0  0  0  0  0
  -23.9740  -36.3570   22.7280 C   0  0  0  0  0  1  0  0  0  0  0  0
  -25.1080  -35.9610   23.6870 C   0  0  0  0  0  3  0  0  0  0  0  0
  -27.0590  -36.8800   24.8590 C   0  0  0  0  0  1  0  0  0  0  0  0
  -26.0800  -37.0700   23.7920 N   0  0  0  0  0  0  0  0  0  0  0  0
  -25.6030  -37.9530   23.9530 H   0  0  0  0  0  0  0  0  0  0  0  0
  2  1  2  0
  3  6  2  0
  3  5  1  0
  4  1  1  0
  4  9  1  0
  5  7  1  0
  5  4  2  0
  6  2  1  0
  7  8  1  0
  9  8  1  0
 11 12  1  0
 11 10  1  0
 11 21  1  0
 12 17  1  0
 13 14  1  6
 13 12  1  0
 13 10  1  0
 13  9  1  0
 17 15  1  0
 17 16  1  0
 18 15  1  0
 18 19  1  0
 18 16  1  0
 20 18  1  0
 22 30  1  0
 23 28  1  0
 24 25  1  0
 24 23  1  0
 26 25  1  0
 26 35  1  0
 26 27  1  0
 28 22  1  0
 28 27  1  0
 29 22  2  0
 30 31  1  0
 30 21  1  0
 32 33  2  0
 33 52  1  0
 34 33  1  0
 34 37  1  0
 35 32  1  0
 35 36  1  0
 36 34  2  0
 37 38  1  0
 38 39  2  0
 40 43  1  0
 40 39  1  0
 41 40  2  0
 42 41  1  0
 42 37  2  0
 43 44  1  0
 44 45  1  0
 45 46  2  0
 47 46  1  0
 47 51  1  0
 48 47  2  0
 49 44  2  0
 49 48  1  0
 50 49  1  0
 52 53  1  0
 53 56  1  0
 53 55  1  0
 54 52  2  0
 57 32  1  0
 58 57  1  0
 59 57  1  0
 60 62  1  0
 60  6  1  0
 61 72  2  0
 62 67  1  0
 63 71  1  0
 63 73  1  0
 64 66  1  0
 65 71  1  0
 66 67  2  0
 66 65  1  0
 68 62  2  0
 69 68  1  0
 69 64  2  0
 70 64  1  0
 70 63  1  0
 71 61  1  0
 73 75  2  0
 74 73  1  0
 76 74  1  0
 77 86  2  0
 77 82  1  0
 78 74  1  0
 78 82  1  0
 79 78  1  0
 80 81  1  0
 80 79  1  0
 81 77  1  0
 82 83  2  0
 83 84  1  0
 85 84  2  0
 86 85  1  0
 87 61  1  0
 87 92  1  0
 87 88  1  0
 88 91  1  1
 88 89  1  0
 90 88  1  0
 92 95  1  0
 93 97  1  0
 93 92  1  0
 94 93  2  0
 97 96  1  0
 97 99  1  0
 99100  1  0
 99 98  1  0
M  ISO  4   6 101  22 100  30 100  60 101
M  END
>  <TORSDO>  (85) 
F 19

>  <SCORE>  (85) 
-12.996

>  <name>  (85) 
84

>  <ligand_id>  (85) 
84

>  <original_smiles>  (85) 
[H]c1c([H])c([H])c2c(c1[H])C([H])([H])C([H])([H])C([H])([H])C2([H])N([H])C(=O)C1([H])N(C(=O)C([H])(N([H])C(=O)C([H])(N([H])C([H])([H])[H])C([H])([H])[H])C(C([H])([H])[H])(C([H])([H])[H])C([H])([H])[H])C([H])([H])c2c([H])c(Oc3c([H])c([H])c4c(c3[H])C([H])([H])C([H])([H])C4([H])[N+]3([H])C([H])([H])C([H])(C([H])([H])N([H])C(=O)N4C([H])([H])C([H])([H])C([H])([H])C([H])(n5nc(-c6c([H])c([H])c(Oc7c([H])c([H])c(F)c([H])c7F)c([H])c6[H])c(C(=O)N([H])[H])c5N([H])[H])C4([H])[H])C3([H])C3([H])C([H])([H])[N+]([H])([H])C3([H])[H])c([H])c([H])c2C1([H])[H]

>  <smiles>  (85) 
[H]c1c([H])c([H])c2c(c1[H])C([H])([H])C([H])([H])C([H])([H])C2([H])N([H])C(=O)C1([H])N(C(=O)C([H])(N([H])C(=O)C([H])(N([H])C([H])([H])[H])C([H])([H])[H])C(C([H])([H])[H])(C([H])([H])[H])C([H])([H])[H])C([H])([H])c2c([H])c(Oc3c([H])c([H])c4c(c3[H])C([H])([H])C([H])([H])C4([H])[N+]3([H])C([H])([H])C([H])(C([H])([H])N([H])C(=O)N4C([H])([H])C([H])([H])C([H])([H])C([H])(n5nc(-c6c([H])c([H])c(Oc7c([H])c([H])c(F)c([H])c7F)c([H])c6[H])c(C(=O)N([H])[H])c5N([H])[H])C4([H])[H])C3([H])C3([H])C([H])([H])[N+]([H])([H])C3([H])[H])c([H])c([H])c2C1([H])[H]

$$$$
85:0:0
     RDKit          3D

 89 97  0  0  1  0  0  0  0  0999 V2000
  -28.6540  -19.0890   20.3040 C   0  0  0  0  0  3  0  0  0  0  0  0
  -30.8830  -19.2390   19.7620 C   0  0  0  0  0  3  0  0  0  0  0  0
  -28.4850  -20.5610   20.1850 C   0  0  0  0  0  0  0  0  0  0  0  0
  -30.7330  -20.7150   19.6320 C   0  0  0  0  0  0  0  0  0  0  0  0
  -29.5190  -21.5200   19.8340 C   0  0  0  0  0  0  0  0  0  0  0  0
  -29.8580  -18.2820   20.1240 C   0  0  0  0  0  0  0  0  0  0  0  0
  -27.1120  -21.1290   20.4900 C   0  0  0  0  0  1  0  0  0  0  0  0
  -32.0060  -21.4680   19.2790 C   0  0  0  0  0  1  0  0  0  0  0  0
  -30.7320  -15.4890   20.2090 C   0  0  0  0  0  0  0  0  0  0  0  0
  -30.7330  -13.0150   19.4610 C   0  0  0  0  0  2  0  0  0  0  0  0
  -29.8380  -12.7920   18.2160 C   0  0  0  0  0  2  0  0  0  0  0  0
  -28.3710  -12.5680   18.6260 C   0  0  0  0  0  2  0  0  0  0  0  0
  -27.9070  -13.5810   19.7020 C   0  0  0  0  0  3  0  0  0  0  0  0
  -28.9280  -13.7330   20.8510 C   0  0  0  0  0  2  0  0  0  0  0  0
  -30.1890  -14.1800   20.2400 N   0  0  0  0  0  0  0  0  0  0  0  0
  -31.9470  -15.5290   19.9660 O   0  0  0  0  0  0  0  0  0  0  0  0
  -29.8870  -16.6840   20.2920 N   0  0  0  0  0  0  0  0  0  0  0  0
  -28.9630  -16.3540   20.5260 H   0  0  0  0  0  0  0  0  0  0  0  0
  -25.5370  -14.2060   20.4170 C   0  0  0  0  0  0  0  0  0  0  0  0
  -24.4490  -13.4570   20.7700 C   0  0  0  0  0  0  0  0  0  0  0  0
  -24.8800  -12.0950   20.7410 C   0  0  0  0  0  0  0  0  0  0  0  0
  -26.5600  -13.3040   20.1860 N   0  0  0  0  0  0  0  0  0  0  0  0
  -26.1760  -12.0270   20.4480 N   0  0  0  0  0  0  0  0  0  0  0  0
  -24.1170  -10.8510   20.9140 C   0  0  0  0  0  0  0  0  0  0  0  0
  -24.5010   -9.8740   21.8580 C   0  0  0  0  0  3  0  0  0  0  0  0
  -23.7370   -8.6970   22.0210 C   0  0  0  0  0  3  0  0  0  0  0  0
  -22.5760   -8.4900   21.2390 C   0  0  0  0  0  0  0  0  0  0  0  0
  -22.2110   -9.4570   20.2850 C   0  0  0  0  0  3  0  0  0  0  0  0
  -22.9750  -10.6240   20.1200 C   0  0  0  0  0  3  0  0  0  0  0  0
  -21.7880   -7.3670   21.3100 O   0  0  0  0  0  0  0  0  0  0  0  0
  -21.6890   -6.6300   22.4630 C   0  0  0  0  0  0  0  0  0  0  0  0
  -21.1710   -7.1790   23.6560 C   0  0  0  0  0  3  0  0  0  0  0  0
  -21.0210   -6.3660   24.7970 C   0  0  0  0  0  3  0  0  0  0  0  0
  -21.3790   -5.0060   24.7460 C   0  0  0  0  0  0  0  0  0  0  0  0
  -21.8890   -4.4560   23.5570 C   0  0  0  0  0  3  0  0  0  0  0  0
  -22.0400   -5.2660   22.4180 C   0  0  0  0  0  0  0  0  0  0  0  0
  -22.5130   -4.7250   21.2680 F   0  0  0  0  0  0  0  0  0  0  0  0
  -21.2280   -4.2230   25.8410 F   0  0  0  0  0  0  0  0  0  0  0  0
  -23.0610  -13.9700   21.0180 C   0  0  0  0  0  0  0  0  0  0  0  0
  -22.3070  -13.3030   21.8840 N   0  0  0  0  0  0  0  0  0  0  0  0
  -22.6550  -14.9990   20.4790 O   0  0  0  0  0  0  0  0  0  0  0  0
  -22.6480  -12.4710   22.3420 H   0  0  0  0  0  0  0  0  0  0  0  0
  -21.3740  -13.6300   22.0930 H   0  0  0  0  0  0  0  0  0  0  0  0
  -25.7360  -15.5740   20.2440 N   0  0  0  0  0  0  0  0  0  0  0  0
  -24.9730  -16.2370   20.3290 H   0  0  0  0  0  0  0  0  0  0  0  0
  -26.5730  -15.9850   19.8540 H   0  0  0  0  0  0  0  0  0  0  0  0
  -29.4810  -23.2660   19.8900 C   0  0  0  0  0  3  0  0  0  0  0  0
  -28.3790  -24.5990   19.5040 C   0  0  0  0  0  3  0  0  0  0  0  0
  -28.4940  -26.1990   19.8000 O   0  0  0  0  0  0  0  0  0  0  0  0
  -24.5460  -31.6770   23.0750 C   0  0  0  0  0  0  0  0  0  0  0  0
  -27.4120  -27.2060   19.7810 C   0  0  0  0  0  0  0  0  0  0  0  0
  -23.4540  -30.3430   21.3160 C   0  0  0  0  0  3  0  0  0  0  0  0
  -25.0090  -28.9260   19.8160 C   0  0  0  0  0  0  0  0  0  0  0  0
  -26.0040  -30.7090   21.2360 C   0  0  0  0  0  2  0  0  0  0  0  0
  -26.1600  -29.3600   20.4860 C   0  0  0  0  0  0  0  0  0  0  0  0
  -27.3560  -28.5220   20.4450 C   0  0  0  0  0  3  0  0  0  0  0  0
  -26.2240  -26.9100   19.0760 C   0  0  0  0  0  3  0  0  0  0  0  0
  -25.0630  -27.7230   19.0930 C   0  0  0  0  0  3  0  0  0  0  0  0
  -23.7420  -29.7730   19.9000 C   0  0  0  0  0  2  0  0  0  0  0  0
  -24.6870  -30.9330   21.9320 N   0  0  0  0  0  0  0  0  0  0  0  0
  -23.4350  -31.8720   23.5930 O   0  0  0  0  0  0  0  0  0  0  0  0
  -22.7990  -29.2460   22.1930 C   0  0  0  0  0  0  0  0  0  0  0  0
  -21.4740  -29.0540   22.0600 N   0  0  0  0  0  0  0  0  0  0  0  0
  -23.4880  -28.5700   22.9610 O   0  0  0  0  0  0  0  0  0  0  0  0
  -20.9690  -29.6540   21.4220 H   0  0  0  0  0  0  0  0  0  0  0  0
  -18.1150  -27.7780   22.5550 C   0  0  0  0  0  0  0  0  0  0  0  0
  -20.6820  -28.0310   22.7510 C   0  0  0  0  0  3  0  0  0  0  0  0
  -20.7660  -26.6730   22.0140 C   0  0  0  0  0  2  0  0  0  0  0  0
  -19.6260  -26.4600   21.0110 C   0  0  0  0  0  2  0  0  0  0  0  0
  -18.2700  -26.5180   21.7200 C   0  0  0  0  0  2  0  0  0  0  0  0
  -19.2460  -28.4970   23.0250 C   0  0  0  0  0  0  0  0  0  0  0  0
  -19.0440  -29.6780   23.7710 C   0  0  0  0  0  3  0  0  0  0  0  0
  -17.7430  -30.1420   24.0480 C   0  0  0  0  0  3  0  0  0  0  0  0
  -16.6270  -29.4200   23.5900 C   0  0  0  0  0  3  0  0  0  0  0  0
  -16.8140  -28.2390   22.8500 C   0  0  0  0  0  3  0  0  0  0  0  0
  -25.7720  -32.3340   23.7790 C   0  0  0  0  0  3  0  0  0  0  0  0
  -25.4050  -33.7170   24.1290 N   0  0  0  0  0  0  0  0  0  0  0  0
  -25.6940  -34.7980   23.3940 C   0  0  0  0  0  0  0  0  0  0  0  0
  -26.3610  -34.7390   22.3570 O   0  0  0  0  0  0  0  0  0  0  0  0
  -24.8080  -33.8330   24.9350 H   0  0  0  0  0  0  0  0  0  0  0  0
  -23.8810  -36.5240   23.1130 C   0  0  0  0  0  1  0  0  0  0  0  0
  -25.1620  -36.1620   23.8820 C   0  0  0  0  0  3  0  0  0  0  0  0
  -27.2680  -37.1460   24.6760 C   0  0  0  0  0  1  0  0  0  0  0  0
  -26.1440  -37.2600   23.7500 N   0  0  0  0  0  0  0  0  0  0  0  0
  -25.6990  -38.1610   23.9010 H   0  0  0  0  0  0  0  0  0  0  0  0
  -26.2390  -31.5520   25.0690 C   0  0  1  0  0  0  0  0  0  0  0  0
  -25.0970  -31.2690   26.0730 C   0  0  0  0  0  1  0  0  0  0  0  0
  -26.8750  -30.1940   24.6900 C   0  0  0  0  0  1  0  0  0  0  0  0
  -27.3340  -32.3600   25.8040 C   0  0  0  0  0  1  0  0  0  0  0  0
  2  6  1  0
  3  1  1  0
  3  7  1  0
  4  2  2  0
  4  5  1  0
  5 47  1  0
  5  3  2  0
  6 17  1  0
  6  1  2  0
  8  4  1  0
  9 15  1  0
  9 17  1  0
 10 15  1  0
 11 12  1  0
 11 10  1  0
 13 12  1  0
 13 22  1  0
 13 14  1  0
 15 14  1  0
 16  9  2  0
 17 18  1  0
 19 20  2  0
 20 39  1  0
 21 20  1  0
 21 24  1  0
 22 19  1  0
 22 23  1  0
 23 21  2  0
 24 25  1  0
 25 26  2  0
 27 30  1  0
 27 26  1  0
 28 27  2  0
 29 28  1  0
 29 24  2  0
 30 31  1  0
 31 32  1  0
 32 33  2  0
 34 33  1  0
 34 38  1  0
 35 34  2  0
 36 31  2  0
 36 35  1  0
 37 36  1  0
 39 40  1  0
 40 43  1  0
 40 42  1  0
 41 39  2  0
 44 45  1  0
 44 19  1  0
 46 44  1  0
 48 49  1  0
 48 47  2  0
 50 61  2  0
 51 49  1  0
 51 56  1  0
 52 60  1  0
 52 62  1  0
 53 59  1  0
 53 55  1  0
 54 60  1  0
 55 54  1  0
 56 55  2  0
 57 58  1  0
 57 51  2  0
 58 53  2  0
 59 52  1  0
 60 50  1  0
 62 64  2  0
 63 62  1  0
 65 63  1  0
 66 75  2  0
 66 71  1  0
 67 63  1  0
 67 71  1  0
 68 67  1  0
 69 70  1  0
 69 68  1  0
 70 66  1  0
 71 72  2  0
 72 73  1  0
 74 73  2  0
 75 74  1  0
 76 50  1  0
 76 77  1  0
 76 86  1  0
 77 80  1  0
 78 82  1  0
 78 77  1  0
 79 78  2  0
 82 81  1  0
 84 82  1  0
 84 85  1  0
 84 83  1  0
 86 89  1  1
 86 87  1  0
 88 86  1  0
M  ISO  4   9 100  17 100  48 101  49 101
M  END
>  <TORSDO>  (86) 
F 18

>  <SCORE>  (86) 
-14.398

>  <name>  (86) 
85

>  <ligand_id>  (86) 
85

>  <original_smiles>  (86) 
[H]c1c([H])c([H])c2c(c1[H])C([H])([H])C([H])([H])C([H])([H])C2([H])N([H])C(=O)C1([H])N(C(=O)C([H])(N([H])C(=O)C([H])(N([H])C([H])([H])[H])C([H])([H])[H])C(C([H])([H])[H])(C([H])([H])[H])C([H])([H])[H])C([H])([H])c2c([H])c(OC([H])([H])C([H])([H])c3c(C([H])([H])[H])c([H])c(N([H])C(=O)N4C([H])([H])C([H])([H])C([H])([H])C([H])(n5nc(-c6c([H])c([H])c(Oc7c([H])c([H])c(F)c([H])c7F)c([H])c6[H])c(C(=O)N([H])[H])c5N([H])[H])C4([H])[H])c([H])c3C([H])([H])[H])c([H])c([H])c2C1([H])[H]

>  <smiles>  (86) 
[H]c1c([H])c([H])c2c(c1[H])C([H])([H])C([H])([H])C([H])([H])C2([H])N([H])C(=O)C1([H])N(C(=O)C([H])(N([H])C(=O)C([H])(N([H])C([H])([H])[H])C([H])([H])[H])C(C([H])([H])[H])(C([H])([H])[H])C([H])([H])[H])C([H])([H])c2c([H])c(OC([H])([H])C([H])([H])c3c(C([H])([H])[H])c([H])c(N([H])C(=O)N4C([H])([H])C([H])([H])C([H])([H])C([H])(n5nc(-c6c([H])c([H])c(Oc7c([H])c([H])c(F)c([H])c7F)c([H])c6[H])c(C(=O)N([H])[H])c5N([H])[H])C4([H])[H])c([H])c3C([H])([H])[H])c([H])c([H])c2C1([H])[H]

$$$$
86:0:0
     RDKit          3D

 95104  0  0  1  0  0  0  0  0999 V2000
  -28.8360  -20.5860   21.1350 C   0  0  0  0  0  3  0  0  0  0  0  0
  -28.4660  -21.9120   20.8320 C   0  0  0  0  0  3  0  0  0  0  0  0
  -29.9950  -21.9050   18.9460 C   0  0  0  0  0  3  0  0  0  0  0  0
  -31.2850  -19.6250   18.6160 C   0  0  0  0  0  3  0  0  0  0  0  0
  -30.3750  -20.5590   19.2160 C   0  0  0  0  0  0  0  0  0  0  0  0
  -29.7820  -19.9100   20.3380 C   0  0  0  0  0  0  0  0  0  0  0  0
  -29.0480  -22.5990   19.7490 C   0  0  0  0  0  0  0  0  0  0  0  0
  -31.2880  -18.4870   19.3820 C   0  0  0  0  0  0  0  0  0  0  0  0
  -30.3470  -18.6290   20.4140 N   0  0  0  0  0  0  0  0  0  0  0  0
  -28.5880  -17.1880   21.4440 C   0  0  0  0  0  1  0  0  0  0  0  0
  -30.5520  -18.0670   22.8230 C   0  0  0  0  0  1  0  0  0  0  0  0
  -30.0630  -17.6180   21.4390 C   0  0  0  0  0  3  0  0  0  0  0  0
  -32.2270  -17.3070   19.2370 C   0  0  0  0  0  2  0  0  0  0  0  0
  -32.1990  -14.8310   18.8890 C   0  0  0  0  0  0  0  0  0  0  0  0
  -31.8780  -12.4080   18.5210 C   0  0  0  0  0  2  0  0  0  0  0  0
  -30.8480  -12.1720   17.3980 C   0  0  0  0  0  2  0  0  0  0  0  0
  -29.4160  -12.1670   17.9650 C   0  0  0  0  0  2  0  0  0  0  0  0
  -29.1350  -13.3810   18.8890 C   0  0  0  0  0  3  0  0  0  0  0  0
  -30.2690  -13.5680   19.9200 C   0  0  0  0  0  2  0  0  0  0  0  0
  -31.5370  -13.6790   19.1800 N   0  0  0  0  0  0  0  0  0  0  0  0
  -33.2550  -14.8440   18.2510 O   0  0  0  0  0  0  0  0  0  0  0  0
  -31.6090  -15.9740   19.2850 N   0  0  0  0  0  0  0  0  0  0  0  0
  -30.7150  -15.8940   19.7420 H   0  0  0  0  0  0  0  0  0  0  0  0
  -26.9520  -14.2710   19.9220 C   0  0  0  0  0  0  0  0  0  0  0  0
  -25.8460  -13.6350   20.4170 C   0  0  0  0  0  0  0  0  0  0  0  0
  -26.1090  -12.2370   20.2920 C   0  0  0  0  0  0  0  0  0  0  0  0
  -27.8300  -13.2690   19.5380 N   0  0  0  0  0  0  0  0  0  0  0  0
  -27.3310  -12.0370   19.8130 N   0  0  0  0  0  0  0  0  0  0  0  0
  -25.2450  -11.0770   20.5440 C   0  0  0  0  0  0  0  0  0  0  0  0
  -25.5620  -10.1220   21.5340 C   0  0  0  0  0  3  0  0  0  0  0  0
  -24.7050   -9.0250   21.7710 C   0  0  0  0  0  3  0  0  0  0  0  0
  -23.5170   -8.8770   21.0190 C   0  0  0  0  0  0  0  0  0  0  0  0
  -23.2170   -9.8180   20.0170 C   0  0  0  0  0  3  0  0  0  0  0  0
  -24.0730  -10.9060   19.7790 C   0  0  0  0  0  3  0  0  0  0  0  0
  -22.6390   -7.8310   21.1620 O   0  0  0  0  0  0  0  0  0  0  0  0
  -22.3580   -7.2890   22.3910 C   0  0  0  0  0  0  0  0  0  0  0  0
  -21.8150   -8.0640   23.4390 C   0  0  0  0  0  3  0  0  0  0  0  0
  -21.4750   -7.4530   24.6640 C   0  0  0  0  0  3  0  0  0  0  0  0
  -21.6690   -6.0700   24.8380 C   0  0  0  0  0  0  0  0  0  0  0  0
  -22.2030   -5.2970   23.7930 C   0  0  0  0  0  3  0  0  0  0  0  0
  -22.5440   -5.9040   22.5720 C   0  0  0  0  0  0  0  0  0  0  0  0
  -23.0390   -5.1490   21.5610 F   0  0  0  0  0  0  0  0  0  0  0  0
  -21.3350   -5.4810   26.0110 F   0  0  0  0  0  0  0  0  0  0  0  0
  -24.5760  -14.2850   20.8850 C   0  0  0  0  0  0  0  0  0  0  0  0
  -23.8900  -13.6730   21.8440 N   0  0  0  0  0  0  0  0  0  0  0  0
  -24.2100  -15.3710   20.4360 O   0  0  0  0  0  0  0  0  0  0  0  0
  -24.2020  -12.7940   22.2300 H   0  0  0  0  0  0  0  0  0  0  0  0
  -23.0410  -14.0900   22.1960 H   0  0  0  0  0  0  0  0  0  0  0  0
  -27.2750  -15.6120   19.7450 N   0  0  0  0  0  0  0  0  0  0  0  0
  -26.6220  -16.3550   19.9630 H   0  0  0  0  0  0  0  0  0  0  0  0
  -28.1240  -15.9460   19.3080 H   0  0  0  0  0  0  0  0  0  0  0  0
  -28.6170  -23.9010   19.5430 O   0  0  0  0  0  0  0  0  0  0  0  0
  -29.4310  -24.8090   18.7920 C   0  0  0  0  0  2  0  0  0  0  0  0
  -28.6450  -26.0610   18.3180 C   0  0  0  0  0  2  0  0  0  0  0  0
  -28.4860  -27.0850   19.3190 O   0  0  0  0  0  0  0  0  0  0  0  0
  -24.7880  -31.6270   23.3740 C   0  0  0  0  0  0  0  0  0  0  0  0
  -27.2770  -27.7410   19.4860 C   0  0  0  0  0  0  0  0  0  0  0  0
  -23.4840  -30.4170   21.6570 C   0  0  0  0  0  3  0  0  0  0  0  0
  -24.8480  -29.1470   19.9180 C   0  0  0  0  0  0  0  0  0  0  0  0
  -25.9750  -30.8930   21.3070 C   0  0  0  0  0  2  0  0  0  0  0  0
  -26.0400  -29.6250   20.4750 C   0  0  0  0  0  0  0  0  0  0  0  0
  -27.2510  -28.9270   20.2610 C   0  0  0  0  0  3  0  0  0  0  0  0
  -26.0550  -27.2680   18.9510 C   0  0  0  0  0  3  0  0  0  0  0  0
  -24.8510  -27.9670   19.1570 C   0  0  0  0  0  3  0  0  0  0  0  0
  -23.5910  -29.9450   20.1840 C   0  0  0  0  0  2  0  0  0  0  0  0
  -24.7720  -30.9870   22.1710 N   0  0  0  0  0  0  0  0  0  0  0  0
  -23.7500  -31.7800   24.0320 O   0  0  0  0  0  0  0  0  0  0  0  0
  -22.9460  -29.2490   22.5140 C   0  0  0  0  0  0  0  0  0  0  0  0
  -21.6790  -28.8710   22.2810 N   0  0  0  0  0  0  0  0  0  0  0  0
  -23.6660  -28.6900   23.3440 O   0  0  0  0  0  0  0  0  0  0  0  0
  -21.1500  -29.3830   21.5890 H   0  0  0  0  0  0  0  0  0  0  0  0
  -18.6080  -26.9650   22.2860 C   0  0  0  0  0  0  0  0  0  0  0  0
  -20.9740  -27.7720   22.9420 C   0  0  0  0  0  3  0  0  0  0  0  0
  -21.4740  -26.4020   22.4260 C   0  0  0  0  0  2  0  0  0  0  0  0
  -20.6390  -25.8550   21.2630 C   0  0  0  0  0  2  0  0  0  0  0  0
  -19.1760  -25.6910   21.6810 C   0  0  0  0  0  2  0  0  0  0  0  0
  -19.4540  -27.9490   22.8640 C   0  0  0  0  0  0  0  0  0  0  0  0
  -18.8770  -29.1290   23.3790 C   0  0  0  0  0  3  0  0  0  0  0  0
  -17.4860  -29.3340   23.3260 C   0  0  0  0  0  3  0  0  0  0  0  0
  -16.6520  -28.3500   22.7670 C   0  0  0  0  0  3  0  0  0  0  0  0
  -17.2120  -27.1670   22.2540 C   0  0  0  0  0  3  0  0  0  0  0  0
  -26.1050  -32.2150   23.9700 C   0  0  0  0  0  3  0  0  0  0  0  0
  -25.8320  -33.6050   24.3570 N   0  0  0  0  0  0  0  0  0  0  0  0
  -26.1890  -34.6780   23.6380 C   0  0  0  0  0  0  0  0  0  0  0  0
  -26.8540  -34.5990   22.6020 O   0  0  0  0  0  0  0  0  0  0  0  0
  -25.2420  -33.7430   25.1650 H   0  0  0  0  0  0  0  0  0  0  0  0
  -24.5180  -36.5340   23.3400 C   0  0  0  0  0  1  0  0  0  0  0  0
  -25.7350  -36.0590   24.1500 C   0  0  0  0  0  3  0  0  0  0  0  0
  -27.8890  -36.8340   25.0360 C   0  0  0  0  0  1  0  0  0  0  0  0
  -26.7980  -37.0850   24.0980 N   0  0  0  0  0  0  0  0  0  0  0  0
  -26.4180  -38.0080   24.2950 H   0  0  0  0  0  0  0  0  0  0  0  0
  -26.6540  -31.3920   25.1990 C   0  0  1  0  0  0  0  0  0  0  0  0
  -25.5870  -31.1040   26.2800 C   0  0  0  0  0  1  0  0  0  0  0  0
  -27.2330  -30.0350   24.7330 C   0  0  0  0  0  1  0  0  0  0  0  0
  -27.8170  -32.1620   25.8690 C   0  0  0  0  0  1  0  0  0  0  0  0
  2  1  1  0
  3  5  2  0
  3  7  1  0
  4  5  1  0
  4  8  2  0
  5  6  1  0
  6  9  1  0
  6  1  2  0
  7  2  2  0
  8  9  1  0
  9 12  1  0
 12 10  1  0
 12 11  1  0
 13 22  1  0
 13  8  1  0
 14 20  1  0
 14 22  1  0
 15 20  1  0
 16 17  1  0
 16 15  1  0
 18 17  1  0
 18 27  1  0
 18 19  1  0
 20 19  1  0
 21 14  2  0
 22 23  1  0
 24 25  2  0
 25 44  1  0
 26 25  1  0
 26 29  1  0
 27 28  1  0
 27 24  1  0
 28 26  2  0
 29 30  1  0
 30 31  2  0
 32 35  1  0
 32 31  1  0
 33 32  2  0
 34 33  1  0
 34 29  2  0
 35 36  1  0
 36 41  2  0
 36 37  1  0
 37 38  2  0
 38 39  1  0
 39 43  1  0
 40 39  2  0
 41 40  1  0
 42 41  1  0
 44 45  1  0
 45 48  1  0
 45 47  1  0
 46 44  2  0
 49 24  1  0
 49 50  1  0
 51 49  1  0
 52  7  1  0
 53 52  1  0
 54 53  1  0
 54 55  1  0
 55 57  1  0
 56 67  2  0
 57 62  1  0
 58 66  1  0
 58 68  1  0
 59 65  1  0
 59 61  1  0
 60 66  1  0
 61 60  1  0
 62 61  2  0
 63 64  1  0
 63 57  2  0
 64 59  2  0
 65 58  1  0
 66 56  1  0
 68 70  2  0
 69 68  1  0
 71 69  1  0
 72 77  1  0
 73 69  1  0
 74 73  1  0
 75 76  1  0
 75 74  1  0
 76 72  1  0
 77 73  1  0
 77 78  2  0
 79 78  1  0
 80 79  2  0
 81 72  2  0
 81 80  1  0
 82 56  1  0
 82 83  1  0
 82 92  1  0
 83 86  1  0
 84 88  1  0
 84 83  1  0
 85 84  2  0
 88 87  1  0
 90 88  1  0
 90 91  1  0
 90 89  1  0
 92 95  1  1
 92 93  1  0
 94 92  1  0
M  ISO  4  14 100  22 100  54 101  55 101
M  END
>  <TORSDO>  (87) 
F 21

>  <SCORE>  (87) 
-8.974

>  <name>  (87) 
86

>  <ligand_id>  (87) 
86

>  <original_smiles>  (87) 
[H]c1c([H])c([H])c2c(c1[H])C([H])([H])C([H])([H])C([H])([H])C2([H])N([H])C(=O)C1([H])N(C(=O)C([H])(N([H])C(=O)C([H])(N([H])C([H])([H])[H])C([H])([H])[H])C(C([H])([H])[H])(C([H])([H])[H])C([H])([H])[H])C([H])([H])c2c([H])c(OC([H])([H])C([H])([H])Oc3c([H])c([H])c4c(c3[H])c([H])c(C([H])([H])N([H])C(=O)N3C([H])([H])C([H])([H])C([H])([H])C([H])(n5nc(-c6c([H])c([H])c(Oc7c([H])c([H])c(F)c([H])c7F)c([H])c6[H])c(C(=O)N([H])[H])c5N([H])[H])C3([H])[H])n4C([H])(C([H])([H])[H])C([H])([H])[H])c([H])c([H])c2C1([H])[H]

>  <smiles>  (87) 
[H]c1c([H])c([H])c2c(c1[H])C([H])([H])C([H])([H])C([H])([H])C2([H])N([H])C(=O)C1([H])N(C(=O)C([H])(N([H])C(=O)C([H])(N([H])C([H])([H])[H])C([H])([H])[H])C(C([H])([H])[H])(C([H])([H])[H])C([H])([H])[H])C([H])([H])c2c([H])c(OC([H])([H])C([H])([H])Oc3c([H])c([H])c4c(c3[H])c([H])c(C([H])([H])N([H])C(=O)N3C([H])([H])C([H])([H])C([H])([H])C([H])(n5nc(-c6c([H])c([H])c(Oc7c([H])c([H])c(F)c([H])c7F)c([H])c6[H])c(C(=O)N([H])[H])c5N([H])[H])C3([H])[H])n4C([H])(C([H])([H])[H])C([H])([H])[H])c([H])c([H])c2C1([H])[H]

$$$$
87:0:0
     RDKit          3D

 92101  0  0  1  0  0  0  0  0999 V2000
  -29.6730  -21.4980   21.3420 C   0  0  0  0  0  3  0  0  0  0  0  0
  -28.4640  -20.7980   19.4770 C   0  0  0  0  0  0  0  0  0  0  0  0
  -29.2560  -20.3540   20.5640 C   0  0  0  0  0  0  0  0  0  0  0  0
  -28.1050  -22.1590   19.2520 C   0  0  0  0  0  0  0  0  0  0  0  0
  -28.5230  -23.2460   20.1020 C   0  0  0  0  0  0  0  0  0  0  0  0
  -27.7960  -19.9090   18.4760 C   0  0  0  0  0  3  0  0  0  0  0  0
  -27.1090  -20.9290   17.5540 C   0  0  0  0  0  3  0  0  0  0  0  0
  -29.3280  -22.8430   21.1440 N   0  0  0  0  0  0  0  0  0  0  0  0
  -27.2240  -22.2590   18.1670 N   0  0  0  0  0  0  0  0  0  0  0  0
  -27.2890  -23.0700   17.5540 H   0  0  0  0  0  0  0  0  0  0  0  0
  -29.4000  -18.7870   21.0200 C   0  0  0  0  0  3  0  0  0  0  0  0
  -30.1100  -17.5310   20.2060 C   0  0  0  0  0  3  0  0  0  0  0  0
  -30.5920  -14.8660   20.3480 C   0  0  0  0  0  0  0  0  0  0  0  0
  -30.4030  -12.5550   19.3640 C   0  0  0  0  0  2  0  0  0  0  0  0
  -29.4690  -12.5780   18.1320 C   0  0  0  0  0  2  0  0  0  0  0  0
  -28.0020  -12.3910   18.5640 C   0  0  0  0  0  2  0  0  0  0  0  0
  -27.6160  -13.2900   19.7660 C   0  0  0  0  0  3  0  0  0  0  0  0
  -28.6770  -13.2510   20.8900 C   0  0  0  0  0  2  0  0  0  0  0  0
  -29.9640  -13.6300   20.2940 N   0  0  0  0  0  0  0  0  0  0  0  0
  -31.7710  -14.9420   19.9920 O   0  0  0  0  0  0  0  0  0  0  0  0
  -29.8450  -16.0350   20.5830 N   0  0  0  0  0  0  0  0  0  0  0  0
  -28.9030  -15.8470   20.8930 H   0  0  0  0  0  0  0  0  0  0  0  0
  -25.2260  -13.8620   20.4950 C   0  0  0  0  0  0  0  0  0  0  0  0
  -24.1640  -13.0840   20.8660 C   0  0  0  0  0  0  0  0  0  0  0  0
  -24.6350  -11.7340   20.8410 C   0  0  0  0  0  0  0  0  0  0  0  0
  -26.2750  -12.9880   20.2590 N   0  0  0  0  0  0  0  0  0  0  0  0
  -25.9260  -11.7030   20.5320 N   0  0  0  0  0  0  0  0  0  0  0  0
  -23.9140  -10.4690   21.0360 C   0  0  0  0  0  0  0  0  0  0  0  0
  -24.3530   -9.5030   21.9680 C   0  0  0  0  0  3  0  0  0  0  0  0
  -23.6290   -8.3060   22.1520 C   0  0  0  0  0  3  0  0  0  0  0  0
  -22.4530   -8.0640   21.4030 C   0  0  0  0  0  0  0  0  0  0  0  0
  -22.0330   -9.0190   20.4590 C   0  0  0  0  0  3  0  0  0  0  0  0
  -22.7580  -10.2090   20.2740 C   0  0  0  0  0  3  0  0  0  0  0  0
  -21.7010   -6.9180   21.4940 O   0  0  0  0  0  0  0  0  0  0  0  0
  -21.6650   -6.1720   22.6460 C   0  0  0  0  0  0  0  0  0  0  0  0
  -21.2520   -6.7230   23.8790 C   0  0  0  0  0  3  0  0  0  0  0  0
  -21.1610   -5.9040   25.0210 C   0  0  0  0  0  3  0  0  0  0  0  0
  -21.4760   -4.5350   24.9340 C   0  0  0  0  0  0  0  0  0  0  0  0
  -21.8840   -3.9840   23.7070 C   0  0  0  0  0  3  0  0  0  0  0  0
  -21.9740   -4.7990   22.5650 C   0  0  0  0  0  0  0  0  0  0  0  0
  -22.3470   -4.2580   21.3810 F   0  0  0  0  0  0  0  0  0  0  0  0
  -21.3820   -3.7460   26.0290 F   0  0  0  0  0  0  0  0  0  0  0  0
  -22.7640  -13.5560   21.1340 C   0  0  0  0  0  0  0  0  0  0  0  0
  -22.0360  -12.8590   21.9990 N   0  0  0  0  0  0  0  0  0  0  0  0
  -22.3250  -14.5810   20.6110 O   0  0  0  0  0  0  0  0  0  0  0  0
  -22.4060  -12.0320   22.4430 H   0  0  0  0  0  0  0  0  0  0  0  0
  -21.0980  -13.1570   22.2230 H   0  0  0  0  0  0  0  0  0  0  0  0
  -25.3830  -15.2330   20.3130 N   0  0  0  0  0  0  0  0  0  0  0  0
  -24.6120  -15.8830   20.4190 H   0  0  0  0  0  0  0  0  0  0  0  0
  -26.2220  -15.6690   19.9590 H   0  0  0  0  0  0  0  0  0  0  0  0
  -27.7760  -24.7080   19.9730 C   0  0  0  0  0  2  0  0  0  0  0  0
  -28.1820  -26.1640   20.2940 O   0  0  0  0  0  0  0  0  0  0  0  0
  -24.6010  -31.8910   23.2320 C   0  0  0  0  0  0  0  0  0  0  0  0
  -27.1460  -27.1680   20.2080 C   0  0  0  0  0  0  0  0  0  0  0  0
  -23.3860  -30.4890   21.6110 C   0  0  0  0  0  3  0  0  0  0  0  0
  -24.8190  -28.9140   20.1870 C   0  0  0  0  0  0  0  0  0  0  0  0
  -25.9390  -30.7480   21.4300 C   0  0  0  0  0  2  0  0  0  0  0  0
  -26.0050  -29.3560   20.7870 C   0  0  0  0  0  0  0  0  0  0  0  0
  -27.1690  -28.4990   20.7860 C   0  0  0  0  0  3  0  0  0  0  0  0
  -25.9290  -26.8380   19.5600 C   0  0  0  0  0  3  0  0  0  0  0  0
  -24.7940  -27.6660   19.5610 C   0  0  0  0  0  3  0  0  0  0  0  0
  -23.5950  -29.8090   20.2350 C   0  0  0  0  0  2  0  0  0  0  0  0
  -24.6620  -31.0620   22.1470 N   0  0  0  0  0  0  0  0  0  0  0  0
  -23.5190  -32.1830   23.7640 O   0  0  0  0  0  0  0  0  0  0  0  0
  -22.7100  -29.4870   22.5790 C   0  0  0  0  0  0  0  0  0  0  0  0
  -21.3810  -29.3160   22.4570 N   0  0  0  0  0  0  0  0  0  0  0  0
  -23.3820  -28.8680   23.4070 O   0  0  0  0  0  0  0  0  0  0  0  0
  -20.8940  -29.8670   21.7640 H   0  0  0  0  0  0  0  0  0  0  0  0
  -18.0000  -28.1230   22.9710 C   0  0  0  0  0  0  0  0  0  0  0  0
  -20.5580  -28.3890   23.2390 C   0  0  0  0  0  3  0  0  0  0  0  0
  -20.6620  -26.9490   22.6860 C   0  0  0  0  0  2  0  0  0  0  0  0
  -19.5620  -26.6120   21.6740 C   0  0  0  0  0  2  0  0  0  0  0  0
  -18.1790  -26.7650   22.3130 C   0  0  0  0  0  2  0  0  0  0  0  0
  -19.1180  -28.8920   23.3910 C   0  0  0  0  0  0  0  0  0  0  0  0
  -18.8950  -30.1610   23.9680 C   0  0  0  0  0  3  0  0  0  0  0  0
  -17.5890  -30.6630   24.1260 C   0  0  0  0  0  3  0  0  0  0  0  0
  -16.4870  -29.8910   23.7220 C   0  0  0  0  0  3  0  0  0  0  0  0
  -16.6940  -28.6230   23.1500 C   0  0  0  0  0  3  0  0  0  0  0  0
  -25.8870  -32.5240   23.8450 C   0  0  0  0  0  3  0  0  0  0  0  0
  -26.4030  -31.7560   25.1240 C   0  0  1  0  0  0  0  0  0  0  0  0
  -25.3140  -31.5300   26.1970 C   0  0  0  0  0  1  0  0  0  0  0  0
  -26.9780  -30.3720   24.7410 C   0  0  0  0  0  1  0  0  0  0  0  0
  -27.5600  -32.5480   25.7800 C   0  0  0  0  0  1  0  0  0  0  0  0
  -25.5800  -33.9240   24.1770 N   0  0  0  0  0  0  0  0  0  0  0  0
  -25.9080  -34.9780   23.4180 C   0  0  0  0  0  0  0  0  0  0  0  0
  -26.5710  -34.8730   22.3830 O   0  0  0  0  0  0  0  0  0  0  0  0
  -24.9940  -34.0780   24.9850 H   0  0  0  0  0  0  0  0  0  0  0  0
  -24.1860  -36.7800   23.0760 C   0  0  0  0  0  1  0  0  0  0  0  0
  -25.4290  -36.3670   23.8820 C   0  0  0  0  0  3  0  0  0  0  0  0
  -27.5690  -37.2420   24.7080 C   0  0  0  0  0  1  0  0  0  0  0  0
  -26.4650  -37.4170   23.7690 N   0  0  0  0  0  0  0  0  0  0  0  0
  -26.0620  -38.3390   23.9210 H   0  0  0  0  0  0  0  0  0  0  0  0
  2  3  1  0
  3 11  1  0
  3  1  2  0
  4  2  2  0
  4  5  1  0
  5  8  2  0
  6  2  1  0
  7  9  1  0
  7  6  2  0
  8  1  1  0
  9  4  1  0
 10  9  1  0
 12 21  1  0
 12 11  2  0
 13 21  1  0
 14 19  1  0
 15 16  1  0
 15 14  1  0
 17 16  1  0
 17 26  1  0
 17 18  1  0
 19 13  1  0
 19 18  1  0
 20 13  2  0
 21 22  1  0
 23 24  2  0
 24 43  1  0
 25 24  1  0
 25 28  1  0
 26 23  1  0
 26 27  1  0
 27 25  2  0
 28 29  1  0
 29 30  2  0
 31 34  1  0
 31 30  1  0
 32 31  2  0
 33 32  1  0
 33 28  2  0
 34 35  1  0
 35 36  1  0
 36 37  2  0
 38 37  1  0
 38 42  1  0
 39 38  2  0
 40 35  2  0
 40 39  1  0
 41 40  1  0
 43 44  1  0
 44 47  1  0
 44 46  1  0
 45 43  2  0
 48 49  1  0
 48 23  1  0
 50 48  1  0
 51  5  1  0
 51 52  1  0
 53 64  2  0
 54 52  1  0
 54 59  1  0
 55 63  1  0
 55 65  1  0
 56 62  1  0
 56 58  1  0
 57 63  1  0
 58 57  1  0
 59 58  2  0
 60 61  1  0
 60 54  2  0
 61 56  2  0
 62 55  1  0
 63 53  1  0
 65 67  2  0
 66 65  1  0
 68 66  1  0
 69 78  2  0
 69 74  1  0
 70 66  1  0
 70 74  1  0
 71 70  1  0
 72 73  1  0
 72 71  1  0
 73 69  1  0
 74 75  2  0
 75 76  1  0
 77 76  2  0
 78 77  1  0
 79 53  1  0
 79 84  1  0
 79 80  1  0
 80 83  1  1
 80 81  1  0
 82 80  1  0
 84 87  1  0
 85 89  1  0
 85 84  1  0
 86 85  2  0
 89 88  1  0
 91 89  1  0
 91 92  1  0
 91 90  1  0
M  ISO  4  13 100  21 100  51 101  52 101
M  END
>  <TORSDO>  (88) 
F 19

>  <SCORE>  (88) 
-14.185

>  <name>  (88) 
87

>  <ligand_id>  (88) 
87

>  <original_smiles>  (88) 
[H]c1nc(C([H])([H])Oc2c([H])c([H])c3c(c2[H])C([H])([H])N(C(=O)C([H])(N([H])C(=O)C([H])(N([H])C([H])([H])[H])C([H])([H])[H])C(C([H])([H])[H])(C([H])([H])[H])C([H])([H])[H])C([H])(C(=O)N([H])C2([H])c4c([H])c([H])c([H])c([H])c4C([H])([H])C([H])([H])C2([H])[H])C3([H])[H])c2c(c1C([H])([H])C([H])([H])N([H])C(=O)N1C([H])([H])C([H])([H])C([H])([H])C([H])(n3nc(-c4c([H])c([H])c(Oc5c([H])c([H])c(F)c([H])c5F)c([H])c4[H])c(C(=O)N([H])[H])c3N([H])[H])C1([H])[H])C([H])([H])C([H])([H])N2[H]

>  <smiles>  (88) 
[H]c1nc(C([H])([H])Oc2c([H])c([H])c3c(c2[H])C([H])([H])N(C(=O)C([H])(N([H])C(=O)C([H])(N([H])C([H])([H])[H])C([H])([H])[H])C(C([H])([H])[H])(C([H])([H])[H])C([H])([H])[H])C([H])(C(=O)N([H])C2([H])c4c([H])c([H])c([H])c([H])c4C([H])([H])C([H])([H])C2([H])[H])C3([H])[H])c2c(c1C([H])([H])C([H])([H])N([H])C(=O)N1C([H])([H])C([H])([H])C([H])([H])C([H])(n3nc(-c4c([H])c([H])c(Oc5c([H])c([H])c(F)c([H])c5F)c([H])c4[H])c(C(=O)N([H])[H])c3N([H])[H])C1([H])[H])C([H])([H])C([H])([H])N2[H]

$$$$
88:0:0
     RDKit          3D

101111  0  0  1  0  0  0  0  0999 V2000
  -30.2020  -18.2330   17.9770 C   0  0  0  0  0  3  0  0  0  0  0  0
  -31.2480  -19.0950   18.2980 C   0  0  0  0  0  3  0  0  0  0  0  0
  -29.6260  -17.4870   19.0200 C   0  0  0  0  0  0  0  0  0  0  0  0
  -31.6130  -19.2050   19.6510 C   0  0  0  0  0  0  0  0  0  0  0  0
  -30.4230  -17.2440   20.1780 C   0  0  0  0  0  0  0  0  0  0  0  0
  -31.3350  -18.2050   20.5280 N   0  0  0  0  0  0  0  0  0  0  0  0
  -32.1310  -20.4210   20.1470 N   0  0  0  0  0  0  0  0  0  0  0  0
  -32.1690  -20.5160   21.1570 H   0  0  0  0  0  0  0  0  0  0  0  0
  -31.0490  -14.9950   21.0470 C   0  0  0  0  0  0  0  0  0  0  0  0
  -30.9730  -12.6680   20.2440 C   0  0  0  0  0  2  0  0  0  0  0  0
  -30.2030  -12.6980   18.9060 C   0  0  0  0  0  2  0  0  0  0  0  0
  -28.6790  -12.5900   19.1420 C   0  0  0  0  0  2  0  0  0  0  0  0
  -28.1720  -13.5330   20.2660 C   0  0  0  0  0  3  0  0  0  0  0  0
  -29.0820  -13.4980   21.5160 C   0  0  0  0  0  2  0  0  0  0  0  0
  -30.4530  -13.7710   21.0680 N   0  0  0  0  0  0  0  0  0  0  0  0
  -32.2700  -15.1210   20.8950 O   0  0  0  0  0  0  0  0  0  0  0  0
  -30.1960  -16.0570   20.9650 N   0  0  0  0  0  0  0  0  0  0  0  0
  -29.2330  -15.8100   21.1140 H   0  0  0  0  0  0  0  0  0  0  0  0
  -25.7350  -14.2110   20.7690 C   0  0  0  0  0  0  0  0  0  0  0  0
  -24.6080  -13.4680   20.9800 C   0  0  0  0  0  0  0  0  0  0  0  0
  -25.0280  -12.1040   20.9400 C   0  0  0  0  0  0  0  0  0  0  0  0
  -26.7700  -13.3010   20.5990 N   0  0  0  0  0  0  0  0  0  0  0  0
  -26.3410  -12.0270   20.7690 N   0  0  0  0  0  0  0  0  0  0  0  0
  -24.2470  -10.8670   21.0000 C   0  0  0  0  0  0  0  0  0  0  0  0
  -24.5700   -9.8300   21.9030 C   0  0  0  0  0  3  0  0  0  0  0  0
  -23.7880   -8.6570   21.9520 C   0  0  0  0  0  3  0  0  0  0  0  0
  -22.6710   -8.5140   21.0980 C   0  0  0  0  0  0  0  0  0  0  0  0
  -22.3670   -9.5400   20.1850 C   0  0  0  0  0  3  0  0  0  0  0  0
  -23.1510  -10.7050   20.1310 C   0  0  0  0  0  3  0  0  0  0  0  0
  -21.8730   -7.3960   21.0610 O   0  0  0  0  0  0  0  0  0  0  0  0
  -21.7200   -6.5870   22.1560 C   0  0  0  0  0  0  0  0  0  0  0  0
  -21.2190   -7.0820   23.3800 C   0  0  0  0  0  3  0  0  0  0  0  0
  -21.0090   -6.2010   24.4600 C   0  0  0  0  0  3  0  0  0  0  0  0
  -21.2890   -4.8290   24.3160 C   0  0  0  0  0  0  0  0  0  0  0  0
  -21.7910   -4.3370   23.0980 C   0  0  0  0  0  3  0  0  0  0  0  0
  -22.0000   -5.2130   22.0180 C   0  0  0  0  0  0  0  0  0  0  0  0
  -22.4610   -4.7290   20.8400 F   0  0  0  0  0  0  0  0  0  0  0  0
  -21.0720   -3.9810   25.3510 F   0  0  0  0  0  0  0  0  0  0  0  0
  -23.2090  -13.9940   21.1260 C   0  0  0  0  0  0  0  0  0  0  0  0
  -22.3730  -13.3000   21.8910 N   0  0  0  0  0  0  0  0  0  0  0  0
  -22.8650  -15.0500   20.6010 O   0  0  0  0  0  0  0  0  0  0  0  0
  -22.6700  -12.4510   22.3510 H   0  0  0  0  0  0  0  0  0  0  0  0
  -21.4280  -13.6240   22.0300 H   0  0  0  0  0  0  0  0  0  0  0  0
  -25.9530  -15.5790   20.7030 N   0  0  0  0  0  0  0  0  0  0  0  0
  -25.1900  -16.2410   20.7840 H   0  0  0  0  0  0  0  0  0  0  0  0
  -26.8530  -16.0240   20.6330 H   0  0  0  0  0  0  0  0  0  0  0  0
  -27.5250  -16.1670   18.3730 C   0  0  0  0  0  1  0  0  0  0  0  0
  -28.0940  -17.4330   19.0250 C   0  0  0  0  0  3  0  0  0  0  0  0
  -27.5680  -18.7310   18.3420 C   0  0  0  0  0  2  0  0  0  0  0  0
  -26.1690  -19.2330   18.7320 C   0  0  0  0  0  2  0  0  0  0  0  0
  -25.0890  -21.6630   18.5530 C   0  0  0  0  0  2  0  0  0  0  0  0
  -26.5450  -21.7690   18.1680 C   0  0  0  0  0  2  0  0  0  0  0  0
  -25.7940  -20.4760   17.9350 C   0  0  0  0  0  3  0  0  0  0  0  0
  -31.7240  -21.6080   19.3690 C   0  0  0  0  0  2  0  0  0  0  0  0
  -31.5100  -24.0750   19.1000 C   0  0  0  0  0  2  0  0  0  0  0  0
  -29.9430  -22.9190   20.7300 C   0  0  0  0  0  2  0  0  0  0  0  0
  -31.0300  -25.4340   19.6200 C   0  0  0  0  0  2  0  0  0  0  0  0
  -29.4360  -24.3180   21.1800 C   0  0  0  0  0  2  0  0  0  0  0  0
  -31.3790  -22.9190   20.1260 C   0  0  0  0  0  3  0  0  0  0  0  0
  -29.5630  -25.3750   20.0570 C   0  0  0  0  0  3  0  0  0  0  0  0
  -29.2660  -26.6980   20.5010 O   0  0  0  0  0  0  0  0  0  0  0  0
  -24.9040  -31.4680   23.3310 C   0  0  0  0  0  0  0  0  0  0  0  0
  -28.0200  -27.2760   20.3740 C   0  0  0  0  0  0  0  0  0  0  0  0
  -23.9010  -30.0590   21.5630 C   0  0  0  0  0  3  0  0  0  0  0  0
  -25.5420  -28.6430   20.2110 C   0  0  0  0  0  0  0  0  0  0  0  0
  -26.4050  -30.5650   21.5610 C   0  0  0  0  0  2  0  0  0  0  0  0
  -26.6130  -29.2170   20.9030 C   0  0  0  0  0  0  0  0  0  0  0  0
  -27.8490  -28.5410   20.9760 C   0  0  0  0  0  3  0  0  0  0  0  0
  -26.9270  -26.7070   19.6760 C   0  0  0  0  0  3  0  0  0  0  0  0
  -25.6950  -27.3900   19.5890 C   0  0  0  0  0  3  0  0  0  0  0  0
  -24.2490  -29.4300   20.1840 C   0  0  0  0  0  2  0  0  0  0  0  0
  -25.0850  -30.7110   22.2120 N   0  0  0  0  0  0  0  0  0  0  0  0
  -23.7730  -31.6680   23.7950 O   0  0  0  0  0  0  0  0  0  0  0  0
  -23.2340  -28.9780   22.4410 C   0  0  0  0  0  0  0  0  0  0  0  0
  -21.9450  -28.7070   22.1780 N   0  0  0  0  0  0  0  0  0  0  0  0
  -23.8770  -28.3860   23.3110 O   0  0  0  0  0  0  0  0  0  0  0  0
  -21.4930  -29.2380   21.4480 H   0  0  0  0  0  0  0  0  0  0  0  0
  -18.6400  -27.2520   22.2820 C   0  0  0  0  0  0  0  0  0  0  0  0
  -21.1210  -27.7020   22.8480 C   0  0  0  0  0  3  0  0  0  0  0  0
  -21.4000  -26.2910   22.2830 C   0  0  0  0  0  2  0  0  0  0  0  0
  -20.4490  -25.8970   21.1470 C   0  0  0  0  0  2  0  0  0  0  0  0
  -18.9960  -25.9290   21.6270 C   0  0  0  0  0  2  0  0  0  0  0  0
  -19.6390  -28.0930   22.8400 C   0  0  0  0  0  0  0  0  0  0  0  0
  -19.2570  -29.3310   23.4040 C   0  0  0  0  0  3  0  0  0  0  0  0
  -17.9070  -29.7300   23.4170 C   0  0  0  0  0  3  0  0  0  0  0  0
  -16.9190  -28.8860   22.8800 C   0  0  0  0  0  3  0  0  0  0  0  0
  -17.2860  -27.6490   22.3200 C   0  0  0  0  0  3  0  0  0  0  0  0
  -26.1050  -32.1370   24.0690 C   0  0  0  0  0  3  0  0  0  0  0  0
  -25.7280  -33.5260   24.3610 N   0  0  0  0  0  0  0  0  0  0  0  0
  -26.0870  -34.5820   23.6180 C   0  0  0  0  0  0  0  0  0  0  0  0
  -26.8430  -34.4920   22.6460 O   0  0  0  0  0  0  0  0  0  0  0  0
  -25.0570  -33.6660   25.1030 H   0  0  0  0  0  0  0  0  0  0  0  0
  -24.3210  -36.2990   23.1130 C   0  0  0  0  0  1  0  0  0  0  0  0
  -25.5180  -35.9560   24.0160 C   0  0  0  0  0  3  0  0  0  0  0  0
  -27.5570  -36.9320   24.9710 C   0  0  0  0  0  1  0  0  0  0  0  0
  -26.5140  -37.0470   23.9550 N   0  0  0  0  0  0  0  0  0  0  0  0
  -26.0660  -37.9530   24.0600 H   0  0  0  0  0  0  0  0  0  0  0  0
  -26.5260  -31.3810   25.3890 C   0  0  1  0  0  0  0  0  0  0  0  0
  -25.3470  -31.1130   26.3540 C   0  0  0  0  0  1  0  0  0  0  0  0
  -27.1740  -30.0180   25.0510 C   0  0  0  0  0  1  0  0  0  0  0  0
  -27.5980  -32.2020   26.1430 C   0  0  0  0  0  1  0  0  0  0  0  0
  1  2  2  0
  1  3  1  0
  2  4  1  0
  3 48  1  0
  3  5  2  0
  4  7  1  0
  4  6  2  0
  5  6  1  0
  5 17  1  0
  7  8  1  0
  9 15  1  0
 10 15  1  0
 11 12  1  0
 11 10  1  0
 13 12  1  0
 13 22  1  0
 13 14  1  0
 15 14  1  0
 16  9  2  0
 17  9  1  0
 17 18  1  0
 19 20  2  0
 20 39  1  0
 21 20  1  0
 21 24  1  0
 22 23  1  0
 22 19  1  0
 23 21  2  0
 24 25  1  0
 25 26  2  0
 27 26  1  0
 28 27  2  0
 29 28  1  0
 29 24  2  0
 30 27  1  0
 30 31  1  0
 31 32  1  0
 32 33  2  0
 34 33  1  0
 34 38  1  0
 35 34  2  0
 36 31  2  0
 36 35  1  0
 37 36  1  0
 39 40  1  0
 40 43  1  0
 40 42  1  0
 41 39  2  0
 44 19  1  0
 44 45  1  0
 46 44  1  0
 48 47  1  0
 49 50  1  0
 49 48  1  0
 52 51  1  0
 53 52  1  0
 53 51  1  0
 53 50  1  0
 54  7  1  0
 55 57  1  0
 55 59  1  0
 56 58  1  0
 57 60  1  0
 59 54  1  0
 59 56  1  0
 60 61  1  0
 60 58  1  0
 62 73  2  0
 63 61  1  0
 63 68  1  0
 64 72  1  0
 64 74  1  0
 65 67  1  0
 66 72  1  0
 67 68  2  0
 67 66  1  0
 69 63  2  0
 70 69  1  0
 70 65  2  0
 71 65  1  0
 71 64  1  0
 72 62  1  0
 74 76  2  0
 75 74  1  0
 77 75  1  0
 78 87  2  0
 78 83  1  0
 79 75  1  0
 80 79  1  0
 81 82  1  0
 81 80  1  0
 82 78  1  0
 83 79  1  0
 83 84  2  0
 84 85  1  0
 86 85  2  0
 87 86  1  0
 88 62  1  0
 88 89  1  0
 88 98  1  0
 89 92  1  0
 90 94  1  0
 90 89  1  0
 91 90  2  0
 94 93  1  0
 96 94  1  0
 96 97  1  0
 96 95  1  0
 98101  1  1
 98 99  1  0
100 98  1  0
M  ISO  4   9 100  17 100  60 101  61 101
M  END
>  <TORSDO>  (89) 
F 22

>  <SCORE>  (89) 
-10.620

>  <name>  (89) 
88

>  <ligand_id>  (89) 
88

>  <original_smiles>  (89) 
[H]c1c(N([H])C([H])([H])C2([H])C([H])([H])C([H])([H])C([H])(Oc3c([H])c([H])c4c(c3[H])C([H])([H])N(C(=O)C([H])(N([H])C(=O)C([H])(N([H])C([H])([H])[H])C([H])([H])[H])C(C([H])([H])[H])(C([H])([H])[H])C([H])([H])[H])C([H])(C(=O)N([H])C3([H])c5c([H])c([H])c([H])c([H])c5C([H])([H])C([H])([H])C3([H])[H])C4([H])[H])C([H])([H])C2([H])[H])nc(N([H])C(=O)N2C([H])([H])C([H])([H])C([H])([H])C([H])(n3nc(-c4c([H])c([H])c(Oc5c([H])c([H])c(F)c([H])c5F)c([H])c4[H])c(C(=O)N([H])[H])c3N([H])[H])C2([H])[H])c(C([H])(C([H])([H])[H])C([H])([H])C([H])([H])C2([H])C([H])([H])C2([H])[H])c1[H]

>  <smiles>  (89) 
[H]c1c(N([H])C([H])([H])C2([H])C([H])([H])C([H])([H])C([H])(Oc3c([H])c([H])c4c(c3[H])C([H])([H])N(C(=O)C([H])(N([H])C(=O)C([H])(N([H])C([H])([H])[H])C([H])([H])[H])C(C([H])([H])[H])(C([H])([H])[H])C([H])([H])[H])C([H])(C(=O)N([H])C3([H])c5c([H])c([H])c([H])c([H])c5C([H])([H])C([H])([H])C3([H])[H])C4([H])[H])C([H])([H])C2([H])[H])nc(N([H])C(=O)N2C([H])([H])C([H])([H])C([H])([H])C([H])(n3nc(-c4c([H])c([H])c(Oc5c([H])c([H])c(F)c([H])c5F)c([H])c4[H])c(C(=O)N([H])[H])c3N([H])[H])C2([H])[H])c(C([H])(C([H])([H])[H])C([H])([H])C([H])([H])C2([H])C([H])([H])C2([H])[H])c1[H]

$$$$
89:0:0
     RDKit          3D

 87 95  0  0  1  0  0  0  0  0999 V2000
  -30.4010  -22.9730   20.6790 C   0  0  0  0  0  1  0  0  0  0  0  0
  -29.0460  -22.5430   20.0870 C   0  0  0  0  0  3  0  0  0  0  0  0
  -28.6810  -18.1080   19.3150 C   0  0  0  0  0  2  0  0  0  0  0  0
  -29.9430  -18.2980   21.2730 C   0  0  0  0  0  2  0  0  0  0  0  0
  -28.7150  -19.8160   19.1440 C   0  0  0  0  0  2  0  0  0  0  0  0
  -29.9630  -19.9920   21.0810 C   0  0  0  0  0  2  0  0  0  0  0  0
  -29.8550  -17.2110   20.0440 C   0  0  0  0  0  3  0  0  0  0  0  0
  -28.8680  -20.8370   20.3310 N   0  0  1  0  0  4  0  0  0  0  0  0
  -28.0260  -20.7400   20.8800 H   0  0  0  0  0  0  0  0  0  0  0  0
  -30.3740  -15.4610   19.9620 C   0  0  0  0  0  0  0  0  0  0  0  0
  -30.2900  -12.9820   19.0970 C   0  0  0  0  0  2  0  0  0  0  0  0
  -29.3260  -12.7300   17.9090 C   0  0  0  0  0  2  0  0  0  0  0  0
  -27.9100  -12.4230   18.4190 C   0  0  0  0  0  2  0  0  0  0  0  0
  -27.4940  -13.3840   19.5570 C   0  0  0  0  0  3  0  0  0  0  0  0
  -28.5890  -13.6080   20.6210 C   0  0  0  0  0  2  0  0  0  0  0  0
  -29.7740  -14.1490   19.9290 N   0  0  0  0  0  0  0  0  0  0  0  0
  -31.5870  -15.3150   19.7310 O   0  0  0  0  0  0  0  0  0  0  0  0
  -25.1830  -13.9010   20.4780 C   0  0  0  0  0  0  0  0  0  0  0  0
  -24.1450  -13.1110   20.8830 C   0  0  0  0  0  0  0  0  0  0  0  0
  -24.6100  -11.7620   20.7850 C   0  0  0  0  0  0  0  0  0  0  0  0
  -26.2070  -13.0380   20.1440 N   0  0  0  0  0  0  0  0  0  0  0  0
  -25.8820  -11.7410   20.3980 N   0  0  0  0  0  0  0  0  0  0  0  0
  -23.8920  -10.4940   20.9780 C   0  0  0  0  0  0  0  0  0  0  0  0
  -24.3400   -9.5230   21.9000 C   0  0  0  0  0  3  0  0  0  0  0  0
  -23.6180   -8.3230   22.0830 C   0  0  0  0  0  3  0  0  0  0  0  0
  -22.4340   -8.0870   21.3440 C   0  0  0  0  0  0  0  0  0  0  0  0
  -22.0060   -9.0480   20.4110 C   0  0  0  0  0  3  0  0  0  0  0  0
  -22.7280  -10.2380   20.2260 C   0  0  0  0  0  3  0  0  0  0  0  0
  -21.6830   -6.9400   21.4370 O   0  0  0  0  0  0  0  0  0  0  0  0
  -21.6120   -6.2170   22.6010 C   0  0  0  0  0  0  0  0  0  0  0  0
  -21.1500   -6.7890   23.8060 C   0  0  0  0  0  3  0  0  0  0  0  0
  -21.0280   -5.9940   24.9620 C   0  0  0  0  0  3  0  0  0  0  0  0
  -21.3580   -4.6250   24.9140 C   0  0  0  0  0  0  0  0  0  0  0  0
  -21.8120   -4.0520   23.7130 C   0  0  0  0  0  3  0  0  0  0  0  0
  -21.9360   -4.8460   22.5600 C   0  0  0  0  0  0  0  0  0  0  0  0
  -22.3540   -4.2840   21.4000 F   0  0  0  0  0  0  0  0  0  0  0  0
  -21.2330   -3.8580   26.0220 F   0  0  0  0  0  0  0  0  0  0  0  0
  -22.7650  -13.5790   21.2400 C   0  0  0  0  0  0  0  0  0  0  0  0
  -22.0830  -12.8590   22.1230 N   0  0  0  0  0  0  0  0  0  0  0  0
  -22.3030  -14.6190   20.7730 O   0  0  0  0  0  0  0  0  0  0  0  0
  -22.4720  -12.0180   22.5230 H   0  0  0  0  0  0  0  0  0  0  0  0
  -21.1590  -13.1520   22.4050 H   0  0  0  0  0  0  0  0  0  0  0  0
  -25.3380  -15.2770   20.3350 N   0  0  0  0  0  0  0  0  0  0  0  0
  -24.5830  -15.9290   20.5170 H   0  0  0  0  0  0  0  0  0  0  0  0
  -26.1720  -15.7260   19.9790 H   0  0  0  0  0  0  0  0  0  0  0  0
  -27.9800  -24.0490   20.3240 C   0  0  0  0  0  2  0  0  0  0  0  0
  -28.1870  -25.7380   20.2390 O   0  0  0  0  0  0  0  0  0  0  0  0
  -24.6160  -31.8400   23.1700 C   0  0  0  0  0  0  0  0  0  0  0  0
  -27.1800  -26.8720   20.2030 C   0  0  0  0  0  0  0  0  0  0  0  0
  -23.4350  -30.4340   21.5340 C   0  0  0  0  0  3  0  0  0  0  0  0
  -24.8920  -28.8090   20.1310 C   0  0  0  0  0  0  0  0  0  0  0  0
  -26.0070  -30.6240   21.4070 C   0  0  0  0  0  2  0  0  0  0  0  0
  -26.0800  -29.2020   20.7590 C   0  0  0  0  0  0  0  0  0  0  0  0
  -27.2180  -28.2590   20.7620 C   0  0  0  0  0  3  0  0  0  0  0  0
  -25.9580  -26.6550   19.5260 C   0  0  0  0  0  3  0  0  0  0  0  0
  -24.8610  -27.5600   19.4920 C   0  0  0  0  0  3  0  0  0  0  0  0
  -23.6760  -29.7410   20.1650 C   0  0  0  0  0  2  0  0  0  0  0  0
  -24.7080  -30.9950   22.0910 N   0  0  0  0  0  0  0  0  0  0  0  0
  -23.5210  -32.1320   23.6810 O   0  0  0  0  0  0  0  0  0  0  0  0
  -22.7310  -29.4460   22.5020 C   0  0  0  0  0  0  0  0  0  0  0  0
  -21.4000  -29.2860   22.3760 N   0  0  0  0  0  0  0  0  0  0  0  0
  -23.3910  -28.8240   23.3390 O   0  0  0  0  0  0  0  0  0  0  0  0
  -20.9190  -29.8380   21.6800 H   0  0  0  0  0  0  0  0  0  0  0  0
  -18.0140  -28.0790   22.8890 C   0  0  0  0  0  0  0  0  0  0  0  0
  -20.5740  -28.3500   23.1490 C   0  0  0  0  0  3  0  0  0  0  0  0
  -20.6760  -26.9170   22.5770 C   0  0  0  0  0  2  0  0  0  0  0  0
  -19.5730  -26.5920   21.5640 C   0  0  0  0  0  2  0  0  0  0  0  0
  -18.1920  -26.7320   22.2100 C   0  0  0  0  0  2  0  0  0  0  0  0
  -19.1320  -28.8460   23.3150 C   0  0  0  0  0  0  0  0  0  0  0  0
  -18.9080  -30.1040   23.9150 C   0  0  0  0  0  3  0  0  0  0  0  0
  -17.6010  -30.5970   24.0890 C   0  0  0  0  0  3  0  0  0  0  0  0
  -16.4980  -29.8300   23.6750 C   0  0  0  0  0  3  0  0  0  0  0  0
  -16.7070  -28.5720   23.0820 C   0  0  0  0  0  3  0  0  0  0  0  0
  -25.8780  -32.4930   23.8100 C   0  0  0  0  0  3  0  0  0  0  0  0
  -25.5450  -33.8870   24.1580 N   0  0  0  0  0  0  0  0  0  0  0  0
  -25.8490  -34.9590   23.4160 C   0  0  0  0  0  0  0  0  0  0  0  0
  -26.5000  -34.8820   22.3720 O   0  0  0  0  0  0  0  0  0  0  0  0
  -24.9630  -34.0190   24.9730 H   0  0  0  0  0  0  0  0  0  0  0  0
  -24.0820  -36.7360   23.1460 C   0  0  0  0  0  1  0  0  0  0  0  0
  -25.3570  -36.3380   23.9080 C   0  0  0  0  0  3  0  0  0  0  0  0
  -27.5030  -37.2540   24.6780 C   0  0  0  0  0  1  0  0  0  0  0  0
  -26.3690  -37.4090   23.7720 N   0  0  0  0  0  0  0  0  0  0  0  0
  -25.9520  -38.3210   23.9390 H   0  0  0  0  0  0  0  0  0  0  0  0
  -26.3890  -31.7250   25.0920 C   0  0  1  0  0  0  0  0  0  0  0  0
  -25.2900  -31.4800   26.1530 C   0  0  0  0  0  1  0  0  0  0  0  0
  -26.9840  -30.3490   24.7140 C   0  0  0  0  0  1  0  0  0  0  0  0
  -27.5300  -32.5260   25.7630 C   0  0  0  0  0  1  0  0  0  0  0  0
  2 46  1  0
  2  8  1  0
  2  1  1  0
  3  7  1  0
  5  3  1  0
  5  8  1  0
  6  4  1  0
  7 10  1  0
  7  4  1  0
  8  9  1  1
  8  6  1  0
 11 16  1  0
 12 13  1  0
 12 11  1  0
 14 13  1  0
 14 21  1  0
 14 15  1  0
 16 10  1  0
 16 15  1  0
 17 10  2  0
 18 19  2  0
 19 38  1  0
 20 19  1  0
 20 23  1  0
 21 22  1  0
 21 18  1  0
 22 20  2  0
 23 24  1  0
 24 25  2  0
 26 29  1  0
 26 25  1  0
 27 26  2  0
 28 27  1  0
 28 23  2  0
 29 30  1  0
 30 31  1  0
 31 32  2  0
 33 32  1  0
 33 37  1  0
 34 33  2  0
 35 30  2  0
 35 34  1  0
 36 35  1  0
 38 39  1  0
 39 42  1  0
 39 41  1  0
 40 38  2  0
 43 18  1  0
 43 44  1  0
 45 43  1  0
 47 46  1  0
 48 59  2  0
 49 47  1  0
 49 54  1  0
 50 58  1  0
 50 60  1  0
 51 57  1  0
 51 53  1  0
 52 58  1  0
 53 54  2  0
 53 52  1  0
 55 49  2  0
 56 55  1  0
 56 51  2  0
 57 50  1  0
 58 48  1  0
 60 62  2  0
 61 60  1  0
 63 61  1  0
 64 73  2  0
 64 69  1  0
 65 61  1  0
 65 69  1  0
 66 65  1  0
 67 68  1  0
 67 66  1  0
 68 64  1  0
 69 70  2  0
 70 71  1  0
 72 71  2  0
 73 72  1  0
 74 48  1  0
 74 75  1  0
 74 84  1  0
 75 78  1  0
 76 80  1  0
 76 75  1  0
 77 76  2  0
 80 79  1  0
 82 80  1  0
 82 83  1  0
 82 81  1  0
 84 87  1  1
 84 85  1  0
 86 84  1  0
M  ISO  4   7 100  10 100  46 101  47 101
M  END
>  <TORSDO>  (90) 
F 18

>  <SCORE>  (90) 
-16.509

>  <name>  (90) 
89

>  <ligand_id>  (90) 
89

>  <original_smiles>  (90) 
[H]c1c([H])c([H])c2c(c1[H])C([H])([H])C([H])([H])C([H])([H])C2([H])N([H])C(=O)C1([H])N(C(=O)C([H])(N([H])C(=O)C([H])(N([H])C([H])([H])[H])C([H])([H])[H])C(C([H])([H])[H])(C([H])([H])[H])C([H])([H])[H])C([H])([H])c2c([H])c(OC([H])([H])C([H])(C([H])([H])[H])[N+]3([H])C([H])([H])C([H])([H])C([H])(C(=O)N4C([H])([H])C([H])([H])C([H])([H])C([H])(n5nc(-c6c([H])c([H])c(Oc7c([H])c([H])c(F)c([H])c7F)c([H])c6[H])c(C(=O)N([H])[H])c5N([H])[H])C4([H])[H])C([H])([H])C3([H])[H])c([H])c([H])c2C1([H])[H]

>  <smiles>  (90) 
[H]c1c([H])c([H])c2c(c1[H])C([H])([H])C([H])([H])C([H])([H])C2([H])N([H])C(=O)C1([H])N(C(=O)C([H])(N([H])C(=O)C([H])(N([H])C([H])([H])[H])C([H])([H])[H])C(C([H])([H])[H])(C([H])([H])[H])C([H])([H])[H])C([H])([H])c2c([H])c(OC([H])([H])C([H])(C([H])([H])[H])[N+]3([H])C([H])([H])C([H])([H])C([H])(C(=O)N4C([H])([H])C([H])([H])C([H])([H])C([H])(n5nc(-c6c([H])c([H])c(Oc7c([H])c([H])c(F)c([H])c7F)c([H])c6[H])c(C(=O)N([H])[H])c5N([H])[H])C4([H])[H])C([H])([H])C3([H])[H])c([H])c([H])c2C1([H])[H]

$$$$
90:0:0
     RDKit          3D

 91100  0  0  1  0  0  0  0  0999 V2000
  -30.2620  -18.8530   21.5000 C   0  0  0  0  0  3  0  0  0  0  0  0
  -29.9880  -20.2830   21.3380 C   0  0  0  0  0  3  0  0  0  0  0  0
  -28.7160  -19.7820   19.4270 C   0  0  0  0  0  3  0  0  0  0  0  0
  -28.9880  -18.3620   19.5630 C   0  0  0  0  0  0  0  0  0  0  0  0
  -29.7730  -17.8060   20.6310 C   0  0  0  0  0  0  0  0  0  0  0  0
  -29.1630  -20.8310   20.2950 C   0  0  0  0  0  0  0  0  0  0  0  0
  -30.6660  -15.2020   20.7920 C   0  0  0  0  0  0  0  0  0  0  0  0
  -30.6700  -12.8330   19.8940 C   0  0  0  0  0  2  0  0  0  0  0  0
  -29.8340  -12.7760   18.5940 C   0  0  0  0  0  2  0  0  0  0  0  0
  -28.3310  -12.6040   18.9020 C   0  0  0  0  0  2  0  0  0  0  0  0
  -27.8360  -13.5180   20.0570 C   0  0  0  0  0  3  0  0  0  0  0  0
  -28.8090  -13.5080   21.2570 C   0  0  0  0  0  2  0  0  0  0  0  0
  -30.1220  -13.9240   20.7460 N   0  0  0  0  0  0  0  0  0  0  0  0
  -31.8750  -15.3280   20.5640 O   0  0  0  0  0  0  0  0  0  0  0  0
  -29.7900  -16.3050   20.9320 N   0  0  0  0  0  0  0  0  0  0  0  0
  -28.8590  -15.9520   21.0950 H   0  0  0  0  0  0  0  0  0  0  0  0
  -25.4020  -14.0860   20.6160 C   0  0  0  0  0  0  0  0  0  0  0  0
  -24.3180  -13.3060   20.9150 C   0  0  0  0  0  0  0  0  0  0  0  0
  -24.7940  -11.9580   20.9280 C   0  0  0  0  0  0  0  0  0  0  0  0
  -26.4650  -13.2140   20.4540 N   0  0  0  0  0  0  0  0  0  0  0  0
  -26.1040  -11.9300   20.7070 N   0  0  0  0  0  0  0  0  0  0  0  0
  -24.0670  -10.6920   21.0760 C   0  0  0  0  0  0  0  0  0  0  0  0
  -24.4040   -9.7570   22.0790 C   0  0  0  0  0  3  0  0  0  0  0  0
  -23.6730   -8.5570   22.2150 C   0  0  0  0  0  3  0  0  0  0  0  0
  -22.5900   -8.2830   21.3450 C   0  0  0  0  0  0  0  0  0  0  0  0
  -22.2730   -9.2080   20.3350 C   0  0  0  0  0  3  0  0  0  0  0  0
  -23.0060  -10.3980   20.1980 C   0  0  0  0  0  3  0  0  0  0  0  0
  -21.8440   -7.1300   21.3830 O   0  0  0  0  0  0  0  0  0  0  0  0
  -21.6350   -6.4460   22.5530 C   0  0  0  0  0  0  0  0  0  0  0  0
  -21.0090   -7.0460   23.6670 C   0  0  0  0  0  3  0  0  0  0  0  0
  -20.7500   -6.2870   24.8240 C   0  0  0  0  0  3  0  0  0  0  0  0
  -21.1070   -4.9250   24.8700 C   0  0  0  0  0  0  0  0  0  0  0  0
  -21.7260   -4.3240   23.7590 C   0  0  0  0  0  3  0  0  0  0  0  0
  -21.9860   -5.0810   22.6030 C   0  0  0  0  0  0  0  0  0  0  0  0
  -22.5610   -4.4900   21.5300 F   0  0  0  0  0  0  0  0  0  0  0  0
  -20.8530   -4.1940   25.9800 F   0  0  0  0  0  0  0  0  0  0  0  0
  -22.9010  -13.7760   21.0780 C   0  0  0  0  0  0  0  0  0  0  0  0
  -22.1140  -13.0860   21.8950 N   0  0  0  0  0  0  0  0  0  0  0  0
  -22.4960  -14.7930   20.5170 O   0  0  0  0  0  0  0  0  0  0  0  0
  -22.4480  -12.2620   22.3730 H   0  0  0  0  0  0  0  0  0  0  0  0
  -21.1610  -13.3870   22.0410 H   0  0  0  0  0  0  0  0  0  0  0  0
  -25.5620  -15.4590   20.4460 N   0  0  0  0  0  0  0  0  0  0  0  0
  -24.7790  -16.0980   20.5230 H   0  0  0  0  0  0  0  0  0  0  0  0
  -26.4200  -15.9200   20.1810 H   0  0  0  0  0  0  0  0  0  0  0  0
  -29.1340  -16.4370   17.7530 C   0  0  0  0  0  2  0  0  0  0  0  0
  -28.6040  -17.6690   17.0680 C   0  0  0  0  0  2  0  0  0  0  0  0
  -28.3500  -17.4590   18.5450 C   0  0  0  0  0  3  0  0  0  0  0  0
  -28.6910  -22.1970   20.0330 O   0  0  0  0  0  0  0  0  0  0  0  0
  -29.0400  -23.5800   20.6040 C   0  0  0  0  0  3  0  0  0  0  0  0
  -28.0680  -24.9210   20.2730 C   0  0  0  0  0  3  0  0  0  0  0  0
  -28.3260  -26.4390   20.5000 O   0  0  0  0  0  0  0  0  0  0  0  0
  -24.5930  -32.0850   23.4030 C   0  0  0  0  0  0  0  0  0  0  0  0
  -27.2580  -27.4030   20.4140 C   0  0  0  0  0  0  0  0  0  0  0  0
  -23.4240  -30.6690   21.7590 C   0  0  0  0  0  3  0  0  0  0  0  0
  -24.9040  -29.1100   20.3550 C   0  0  0  0  0  0  0  0  0  0  0  0
  -25.9750  -30.9700   21.6110 C   0  0  0  0  0  2  0  0  0  0  0  0
  -26.0730  -29.5770   20.9710 C   0  0  0  0  0  0  0  0  0  0  0  0
  -27.2500  -28.7400   20.9820 C   0  0  0  0  0  3  0  0  0  0  0  0
  -26.0590  -27.0360   19.7590 C   0  0  0  0  0  3  0  0  0  0  0  0
  -24.9110  -27.8530   19.7330 C   0  0  0  0  0  3  0  0  0  0  0  0
  -23.6650  -29.9890   20.3860 C   0  0  0  0  0  2  0  0  0  0  0  0
  -24.6840  -31.2630   22.3140 N   0  0  0  0  0  0  0  0  0  0  0  0
  -23.4990  -32.3580   23.9200 O   0  0  0  0  0  0  0  0  0  0  0  0
  -22.7510  -29.6570   22.7190 C   0  0  0  0  0  0  0  0  0  0  0  0
  -21.4470  -29.3920   22.5180 N   0  0  0  0  0  0  0  0  0  0  0  0
  -23.4080  -29.1080   23.6080 O   0  0  0  0  0  0  0  0  0  0  0  0
  -20.9690  -29.8930   21.7830 H   0  0  0  0  0  0  0  0  0  0  0  0
  -18.1440  -27.9380   22.8170 C   0  0  0  0  0  0  0  0  0  0  0  0
  -20.6400  -28.4330   23.2770 C   0  0  0  0  0  3  0  0  0  0  0  0
  -20.9030  -26.9820   22.8110 C   0  0  0  0  0  2  0  0  0  0  0  0
  -19.9260  -26.5080   21.7290 C   0  0  0  0  0  2  0  0  0  0  0  0
  -18.4860  -26.5730   22.2450 C   0  0  0  0  0  2  0  0  0  0  0  0
  -19.1560  -28.8170   23.2890 C   0  0  0  0  0  0  0  0  0  0  0  0
  -18.7840  -30.0870   23.7800 C   0  0  0  0  0  3  0  0  0  0  0  0
  -17.4350  -30.4850   23.8010 C   0  0  0  0  0  3  0  0  0  0  0  0
  -16.4370  -29.6060   23.3470 C   0  0  0  0  0  3  0  0  0  0  0  0
  -16.7910  -28.3340   22.8620 C   0  0  0  0  0  3  0  0  0  0  0  0
  -25.8580  -32.7390   24.0370 C   0  0  0  0  0  3  0  0  0  0  0  0
  -26.3400  -32.0080   25.3510 C   0  0  1  0  0  0  0  0  0  0  0  0
  -25.2090  -31.7670   26.3770 C   0  0  0  0  0  1  0  0  0  0  0  0
  -26.9750  -30.6380   25.0180 C   0  0  0  0  0  1  0  0  0  0  0  0
  -27.4380  -32.8460   26.0460 C   0  0  0  0  0  1  0  0  0  0  0  0
  -25.5390  -34.1460   24.3210 N   0  0  0  0  0  0  0  0  0  0  0  0
  -25.8500  -35.1780   23.5250 C   0  0  0  0  0  0  0  0  0  0  0  0
  -26.5060  -35.0460   22.4890 O   0  0  0  0  0  0  0  0  0  0  0  0
  -24.9500  -34.3210   25.1240 H   0  0  0  0  0  0  0  0  0  0  0  0
  -24.0890  -36.9410   23.1570 C   0  0  0  0  0  1  0  0  0  0  0  0
  -25.3580  -36.5790   23.9430 C   0  0  0  0  0  3  0  0  0  0  0  0
  -27.5020  -37.5320   24.6760 C   0  0  0  0  0  1  0  0  0  0  0  0
  -26.3720  -37.6400   23.7560 N   0  0  0  0  0  0  0  0  0  0  0  0
  -25.9550  -38.5600   23.8710 H   0  0  0  0  0  0  0  0  0  0  0  0
  2  1  1  0
  3  4  2  0
  3  6  1  0
  4  5  1  0
  5 15  1  0
  5  1  2  0
  6  2  2  0
  7 15  1  0
  8 13  1  0
  9 10  1  0
  9  8  1  0
 11 10  1  0
 11 20  1  0
 11 12  1  0
 13  7  1  0
 13 12  1  0
 14  7  2  0
 15 16  1  0
 17 18  2  0
 18 19  1  0
 18 37  1  0
 19 22  1  0
 20 17  1  0
 20 21  1  0
 21 19  2  0
 22 23  1  0
 23 24  2  0
 25 28  1  0
 25 24  1  0
 26 25  2  0
 27 26  1  0
 27 22  2  0
 28 29  1  0
 29 34  2  0
 29 30  1  0
 30 31  2  0
 31 32  1  0
 32 36  1  0
 33 32  2  0
 34 33  1  0
 35 34  1  0
 37 38  1  0
 38 41  1  0
 38 40  1  0
 39 37  2  0
 42 43  1  0
 42 17  1  0
 44 42  1  0
 45 47  1  0
 46 45  1  0
 46 47  1  0
 47  4  1  0
 48  6  1  0
 48 49  1  0
 50 51  1  0
 50 49  2  0
 52 63  2  0
 53 51  1  0
 53 58  1  0
 54 62  1  0
 54 64  1  0
 55 61  1  0
 55 57  1  0
 56 62  1  0
 57 58  2  0
 57 56  1  0
 59 53  2  0
 60 59  1  0
 60 55  2  0
 61 54  1  0
 62 52  1  0
 64 66  2  0
 65 64  1  0
 67 65  1  0
 68 77  2  0
 68 73  1  0
 69 65  1  0
 69 73  1  0
 70 69  1  0
 71 72  1  0
 71 70  1  0
 72 68  1  0
 73 74  2  0
 74 75  1  0
 76 75  2  0
 77 76  1  0
 78 52  1  0
 78 83  1  0
 78 79  1  0
 79 82  1  1
 79 80  1  0
 81 79  1  0
 83 86  1  0
 84 88  1  0
 84 83  1  0
 85 84  2  0
 88 87  1  0
 90 91  1  0
 90 88  1  0
 90 89  1  0
M  ISO  4   7 100  15 100  50 101  51 101
M  END
>  <TORSDO>  (91) 
F 20

>  <SCORE>  (91) 
-11.292

>  <name>  (91) 
90

>  <ligand_id>  (91) 
90

>  <original_smiles>  (91) 
[H]c1c([H])c([H])c2c(c1[H])C([H])([H])C([H])([H])C([H])([H])C2([H])N([H])C(=O)C1([H])N(C(=O)C([H])(N([H])C(=O)C([H])(N([H])C([H])([H])[H])C([H])([H])[H])C(C([H])([H])[H])(C([H])([H])[H])C([H])([H])[H])C([H])([H])c2c([H])c(OC([H])([H])C([H])([H])Oc3c([H])c([H])c(N([H])C(=O)N4C([H])([H])C([H])([H])C([H])([H])C([H])(n5nc(-c6c([H])c([H])c(Oc7c([H])c([H])c(F)c([H])c7F)c([H])c6[H])c(C(=O)N([H])[H])c5N([H])[H])C4([H])[H])c(C4([H])C([H])([H])C4([H])[H])c3[H])c([H])c([H])c2C1([H])[H]

>  <smiles>  (91) 
[H]c1c([H])c([H])c2c(c1[H])C([H])([H])C([H])([H])C([H])([H])C2([H])N([H])C(=O)C1([H])N(C(=O)C([H])(N([H])C(=O)C([H])(N([H])C([H])([H])[H])C([H])([H])[H])C(C([H])([H])[H])(C([H])([H])[H])C([H])([H])[H])C([H])([H])c2c([H])c(OC([H])([H])C([H])([H])Oc3c([H])c([H])c(N([H])C(=O)N4C([H])([H])C([H])([H])C([H])([H])C([H])(n5nc(-c6c([H])c([H])c(Oc7c([H])c([H])c(F)c([H])c7F)c([H])c6[H])c(C(=O)N([H])[H])c5N([H])[H])C4([H])[H])c(C4([H])C([H])([H])C4([H])[H])c3[H])c([H])c([H])c2C1([H])[H]

$$$$
91:0:0
     RDKit          3D

 91100  0  0  1  0  0  0  0  0999 V2000
  -30.2620  -18.8530   21.5000 C   0  0  0  0  0  3  0  0  0  0  0  0
  -29.9880  -20.2830   21.3380 C   0  0  0  0  0  3  0  0  0  0  0  0
  -28.7160  -19.7820   19.4270 C   0  0  0  0  0  3  0  0  0  0  0  0
  -28.9880  -18.3620   19.5630 C   0  0  0  0  0  0  0  0  0  0  0  0
  -29.7730  -17.8060   20.6310 C   0  0  0  0  0  0  0  0  0  0  0  0
  -29.1630  -20.8310   20.2950 C   0  0  0  0  0  0  0  0  0  0  0  0
  -30.6660  -15.2020   20.7920 C   0  0  0  0  0  0  0  0  0  0  0  0
  -30.6700  -12.8330   19.8940 C   0  0  0  0  0  2  0  0  0  0  0  0
  -29.8340  -12.7760   18.5940 C   0  0  0  0  0  2  0  0  0  0  0  0
  -28.3310  -12.6040   18.9020 C   0  0  0  0  0  2  0  0  0  0  0  0
  -27.8360  -13.5180   20.0570 C   0  0  0  0  0  3  0  0  0  0  0  0
  -28.8090  -13.5080   21.2570 C   0  0  0  0  0  2  0  0  0  0  0  0
  -30.1220  -13.9240   20.7460 N   0  0  0  0  0  0  0  0  0  0  0  0
  -31.8750  -15.3280   20.5640 O   0  0  0  0  0  0  0  0  0  0  0  0
  -29.7900  -16.3050   20.9320 N   0  0  0  0  0  0  0  0  0  0  0  0
  -28.8590  -15.9520   21.0950 H   0  0  0  0  0  0  0  0  0  0  0  0
  -25.4020  -14.0860   20.6160 C   0  0  0  0  0  0  0  0  0  0  0  0
  -24.3180  -13.3060   20.9150 C   0  0  0  0  0  0  0  0  0  0  0  0
  -24.7940  -11.9580   20.9280 C   0  0  0  0  0  0  0  0  0  0  0  0
  -26.4650  -13.2140   20.4540 N   0  0  0  0  0  0  0  0  0  0  0  0
  -26.1040  -11.9300   20.7070 N   0  0  0  0  0  0  0  0  0  0  0  0
  -24.0670  -10.6920   21.0760 C   0  0  0  0  0  0  0  0  0  0  0  0
  -24.4040   -9.7570   22.0790 C   0  0  0  0  0  3  0  0  0  0  0  0
  -23.6730   -8.5570   22.2150 C   0  0  0  0  0  3  0  0  0  0  0  0
  -22.5900   -8.2830   21.3450 C   0  0  0  0  0  0  0  0  0  0  0  0
  -22.2730   -9.2080   20.3350 C   0  0  0  0  0  3  0  0  0  0  0  0
  -23.0060  -10.3980   20.1980 C   0  0  0  0  0  3  0  0  0  0  0  0
  -21.8440   -7.1300   21.3830 O   0  0  0  0  0  0  0  0  0  0  0  0
  -21.6350   -6.4460   22.5530 C   0  0  0  0  0  0  0  0  0  0  0  0
  -21.0090   -7.0460   23.6670 C   0  0  0  0  0  3  0  0  0  0  0  0
  -20.7500   -6.2870   24.8240 C   0  0  0  0  0  3  0  0  0  0  0  0
  -21.1070   -4.9250   24.8700 C   0  0  0  0  0  0  0  0  0  0  0  0
  -21.7260   -4.3240   23.7590 C   0  0  0  0  0  3  0  0  0  0  0  0
  -21.9860   -5.0810   22.6030 C   0  0  0  0  0  0  0  0  0  0  0  0
  -22.5610   -4.4900   21.5300 F   0  0  0  0  0  0  0  0  0  0  0  0
  -20.8530   -4.1940   25.9800 F   0  0  0  0  0  0  0  0  0  0  0  0
  -22.9010  -13.7760   21.0780 C   0  0  0  0  0  0  0  0  0  0  0  0
  -22.1140  -13.0860   21.8950 N   0  0  0  0  0  0  0  0  0  0  0  0
  -22.4960  -14.7930   20.5170 O   0  0  0  0  0  0  0  0  0  0  0  0
  -22.4480  -12.2620   22.3730 H   0  0  0  0  0  0  0  0  0  0  0  0
  -21.1610  -13.3870   22.0410 H   0  0  0  0  0  0  0  0  0  0  0  0
  -25.5620  -15.4590   20.4460 N   0  0  0  0  0  0  0  0  0  0  0  0
  -24.7790  -16.0980   20.5230 H   0  0  0  0  0  0  0  0  0  0  0  0
  -26.4200  -15.9200   20.1810 H   0  0  0  0  0  0  0  0  0  0  0  0
  -29.1340  -16.4370   17.7530 C   0  0  0  0  0  2  0  0  0  0  0  0
  -28.6040  -17.6690   17.0680 C   0  0  0  0  0  2  0  0  0  0  0  0
  -28.3500  -17.4590   18.5450 C   0  0  0  0  0  3  0  0  0  0  0  0
  -28.6910  -22.1970   20.0330 O   0  0  0  0  0  0  0  0  0  0  0  0
  -29.0400  -23.5800   20.6040 C   0  0  0  0  0  3  0  0  0  0  0  0
  -28.0680  -24.9210   20.2730 C   0  0  0  0  0  3  0  0  0  0  0  0
  -28.3260  -26.4390   20.5000 O   0  0  0  0  0  0  0  0  0  0  0  0
  -24.5930  -32.0850   23.4030 C   0  0  0  0  0  0  0  0  0  0  0  0
  -27.2580  -27.4030   20.4140 C   0  0  0  0  0  0  0  0  0  0  0  0
  -23.4240  -30.6690   21.7590 C   0  0  0  0  0  3  0  0  0  0  0  0
  -24.9040  -29.1100   20.3550 C   0  0  0  0  0  0  0  0  0  0  0  0
  -25.9750  -30.9700   21.6110 C   0  0  0  0  0  2  0  0  0  0  0  0
  -26.0730  -29.5770   20.9710 C   0  0  0  0  0  0  0  0  0  0  0  0
  -27.2500  -28.7400   20.9820 C   0  0  0  0  0  3  0  0  0  0  0  0
  -26.0590  -27.0360   19.7590 C   0  0  0  0  0  3  0  0  0  0  0  0
  -24.9110  -27.8530   19.7330 C   0  0  0  0  0  3  0  0  0  0  0  0
  -23.6650  -29.9890   20.3860 C   0  0  0  0  0  2  0  0  0  0  0  0
  -24.6840  -31.2630   22.3140 N   0  0  0  0  0  0  0  0  0  0  0  0
  -23.4990  -32.3580   23.9200 O   0  0  0  0  0  0  0  0  0  0  0  0
  -22.7510  -29.6570   22.7190 C   0  0  0  0  0  0  0  0  0  0  0  0
  -21.4470  -29.3920   22.5180 N   0  0  0  0  0  0  0  0  0  0  0  0
  -23.4080  -29.1080   23.6080 O   0  0  0  0  0  0  0  0  0  0  0  0
  -20.9690  -29.8930   21.7830 H   0  0  0  0  0  0  0  0  0  0  0  0
  -18.1440  -27.9380   22.8170 C   0  0  0  0  0  0  0  0  0  0  0  0
  -20.6400  -28.4330   23.2770 C   0  0  0  0  0  3  0  0  0  0  0  0
  -20.9030  -26.9820   22.8110 C   0  0  0  0  0  2  0  0  0  0  0  0
  -19.9260  -26.5080   21.7290 C   0  0  0  0  0  2  0  0  0  0  0  0
  -18.4860  -26.5730   22.2450 C   0  0  0  0  0  2  0  0  0  0  0  0
  -19.1560  -28.8170   23.2890 C   0  0  0  0  0  0  0  0  0  0  0  0
  -18.7840  -30.0870   23.7800 C   0  0  0  0  0  3  0  0  0  0  0  0
  -17.4350  -30.4850   23.8010 C   0  0  0  0  0  3  0  0  0  0  0  0
  -16.4370  -29.6060   23.3470 C   0  0  0  0  0  3  0  0  0  0  0  0
  -16.7910  -28.3340   22.8620 C   0  0  0  0  0  3  0  0  0  0  0  0
  -25.8580  -32.7390   24.0370 C   0  0  0  0  0  3  0  0  0  0  0  0
  -26.3400  -32.0080   25.3510 C   0  0  1  0  0  0  0  0  0  0  0  0
  -25.2090  -31.7670   26.3770 C   0  0  0  0  0  1  0  0  0  0  0  0
  -26.9750  -30.6380   25.0180 C   0  0  0  0  0  1  0  0  0  0  0  0
  -27.4380  -32.8460   26.0460 C   0  0  0  0  0  1  0  0  0  0  0  0
  -25.5390  -34.1460   24.3210 N   0  0  0  0  0  0  0  0  0  0  0  0
  -25.8500  -35.1780   23.5250 C   0  0  0  0  0  0  0  0  0  0  0  0
  -26.5060  -35.0460   22.4890 O   0  0  0  0  0  0  0  0  0  0  0  0
  -24.9500  -34.3210   25.1240 H   0  0  0  0  0  0  0  0  0  0  0  0
  -24.0890  -36.9410   23.1570 C   0  0  0  0  0  1  0  0  0  0  0  0
  -25.3580  -36.5790   23.9430 C   0  0  0  0  0  3  0  0  0  0  0  0
  -27.5020  -37.5320   24.6760 C   0  0  0  0  0  1  0  0  0  0  0  0
  -26.3720  -37.6400   23.7560 N   0  0  0  0  0  0  0  0  0  0  0  0
  -25.9550  -38.5600   23.8710 H   0  0  0  0  0  0  0  0  0  0  0  0
  2  1  1  0
  3  4  2  0
  3  6  1  0
  4  5  1  0
  5 15  1  0
  5  1  2  0
  6  2  2  0
  7 15  1  0
  8 13  1  0
  9 10  1  0
  9  8  1  0
 11 10  1  0
 11 20  1  0
 11 12  1  0
 13  7  1  0
 13 12  1  0
 14  7  2  0
 15 16  1  0
 17 18  2  0
 18 19  1  0
 18 37  1  0
 19 22  1  0
 20 17  1  0
 20 21  1  0
 21 19  2  0
 22 23  1  0
 23 24  2  0
 25 28  1  0
 25 24  1  0
 26 25  2  0
 27 26  1  0
 27 22  2  0
 28 29  1  0
 29 34  2  0
 29 30  1  0
 30 31  2  0
 31 32  1  0
 32 36  1  0
 33 32  2  0
 34 33  1  0
 35 34  1  0
 37 38  1  0
 38 41  1  0
 38 40  1  0
 39 37  2  0
 42 43  1  0
 42 17  1  0
 44 42  1  0
 45 47  1  0
 46 45  1  0
 46 47  1  0
 47  4  1  0
 48  6  1  0
 48 49  1  0
 50 51  1  0
 50 49  2  0
 52 63  2  0
 53 51  1  0
 53 58  1  0
 54 62  1  0
 54 64  1  0
 55 61  1  0
 55 57  1  0
 56 62  1  0
 57 58  2  0
 57 56  1  0
 59 53  2  0
 60 59  1  0
 60 55  2  0
 61 54  1  0
 62 52  1  0
 64 66  2  0
 65 64  1  0
 67 65  1  0
 68 77  2  0
 68 73  1  0
 69 65  1  0
 69 73  1  0
 70 69  1  0
 71 72  1  0
 71 70  1  0
 72 68  1  0
 73 74  2  0
 74 75  1  0
 76 75  2  0
 77 76  1  0
 78 52  1  0
 78 83  1  0
 78 79  1  0
 79 82  1  1
 79 80  1  0
 81 79  1  0
 83 86  1  0
 84 88  1  0
 84 83  1  0
 85 84  2  0
 88 87  1  0
 90 91  1  0
 90 88  1  0
 90 89  1  0
M  ISO  4   7 100  15 100  50 101  51 101
M  END
>  <TORSDO>  (92) 
F 20

>  <SCORE>  (92) 
-11.292

>  <name>  (92) 
91

>  <ligand_id>  (92) 
91

>  <original_smiles>  (92) 
[H]c1c([H])c([H])c2c(c1[H])C([H])([H])C([H])([H])C([H])([H])C2([H])N([H])C(=O)C1([H])N(C(=O)C([H])(N([H])C(=O)C([H])(N([H])C([H])([H])[H])C([H])([H])[H])C(C([H])([H])[H])(C([H])([H])[H])C([H])([H])[H])C([H])([H])c2c([H])c(OC([H])([H])C([H])([H])Oc3c([H])c([H])c(N([H])C(=O)N4C([H])([H])C([H])([H])C([H])([H])C([H])(n5nc(-c6c([H])c([H])c(Oc7c([H])c([H])c(F)c([H])c7F)c([H])c6[H])c(C(=O)N([H])[H])c5N([H])[H])C4([H])[H])c(C4([H])C([H])([H])C4([H])[H])c3[H])c([H])c([H])c2C1([H])[H]

>  <smiles>  (92) 
[H]c1c([H])c([H])c2c(c1[H])C([H])([H])C([H])([H])C([H])([H])C2([H])N([H])C(=O)C1([H])N(C(=O)C([H])(N([H])C(=O)C([H])(N([H])C([H])([H])[H])C([H])([H])[H])C(C([H])([H])[H])(C([H])([H])[H])C([H])([H])[H])C([H])([H])c2c([H])c(OC([H])([H])C([H])([H])Oc3c([H])c([H])c(N([H])C(=O)N4C([H])([H])C([H])([H])C([H])([H])C([H])(n5nc(-c6c([H])c([H])c(Oc7c([H])c([H])c(F)c([H])c7F)c([H])c6[H])c(C(=O)N([H])[H])c5N([H])[H])C4([H])[H])c(C4([H])C([H])([H])C4([H])[H])c3[H])c([H])c([H])c2C1([H])[H]

$$$$
92:0:0
     RDKit          3D

 99107  0  0  1  0  0  0  0  0999 V2000
  -30.5720  -20.0970   20.8130 C   0  0  0  0  0  3  0  0  0  0  0  0
  -30.3090  -20.2480   22.3350 C   0  0  0  0  0  3  0  0  0  0  0  0
  -30.0080  -18.6250   20.5050 C   0  0  0  0  0  3  0  0  0  0  0  0
  -29.8790  -18.9340   22.8060 N   0  0  0  0  0  0  0  0  0  0  0  0
  -29.3040  -18.2340   21.7210 N   0  0  0  0  0  0  0  0  0  0  0  0
  -29.2130  -19.0160   23.5760 H   0  0  0  0  0  0  0  0  0  0  0  0
  -29.4110  -17.2310   21.8690 H   0  0  0  0  0  0  0  0  0  0  0  0
  -32.8450  -20.2780   22.9290 C   0  0  0  0  0  1  0  0  0  0  0  0
  -31.4630  -22.3720   23.2420 C   0  0  0  0  0  1  0  0  0  0  0  0
  -31.4420  -20.8380   23.2220 C   0  0  0  0  0  3  0  0  0  0  0  0
  -30.2240  -21.3960   19.9120 C   0  0  0  0  0  2  0  0  0  0  0  0
  -27.7490  -22.0460   19.9460 C   0  0  0  0  0  1  0  0  0  0  0  0
  -29.1610  -22.5300   20.3190 C   0  0  0  0  0  3  0  0  0  0  0  0
  -29.4050  -24.0230   19.7690 C   0  0  0  0  0  3  0  0  0  0  0  0
  -28.5090  -25.2060   20.3650 C   0  0  0  0  0  3  0  0  0  0  0  0
  -28.6570  -26.6020   19.8790 O   0  0  0  0  0  0  0  0  0  0  0  0
  -24.6550  -31.6530   23.1430 C   0  0  0  0  0  0  0  0  0  0  0  0
  -27.5060  -27.4020   19.8820 C   0  0  0  0  0  0  0  0  0  0  0  0
  -23.5310  -30.2830   21.4240 C   0  0  0  0  0  3  0  0  0  0  0  0
  -25.0640  -28.8840   19.9310 C   0  0  0  0  0  0  0  0  0  0  0  0
  -26.0500  -30.7420   21.2730 C   0  0  0  0  0  2  0  0  0  0  0  0
  -26.2040  -29.4030   20.5620 C   0  0  0  0  0  0  0  0  0  0  0  0
  -27.4280  -28.6720   20.5280 C   0  0  0  0  0  3  0  0  0  0  0  0
  -26.3480  -26.9400   19.2170 C   0  0  0  0  0  3  0  0  0  0  0  0
  -25.1360  -27.6550   19.2550 C   0  0  0  0  0  3  0  0  0  0  0  0
  -23.7840  -29.6890   20.0140 C   0  0  0  0  0  2  0  0  0  0  0  0
  -24.7640  -30.9080   22.0040 N   0  0  0  0  0  0  0  0  0  0  0  0
  -23.5570  -31.8450   23.6820 O   0  0  0  0  0  0  0  0  0  0  0  0
  -22.9180  -29.1830   22.3240 C   0  0  0  0  0  0  0  0  0  0  0  0
  -21.6050  -28.9410   22.1730 N   0  0  0  0  0  0  0  0  0  0  0  0
  -23.6220  -28.5560   23.1200 O   0  0  0  0  0  0  0  0  0  0  0  0
  -21.0920  -29.5030   21.5100 H   0  0  0  0  0  0  0  0  0  0  0  0
  -18.2880  -27.5620   22.5890 C   0  0  0  0  0  0  0  0  0  0  0  0
  -20.8300  -27.9250   22.8880 C   0  0  0  0  0  3  0  0  0  0  0  0
  -21.0010  -26.5330   22.2350 C   0  0  0  0  0  2  0  0  0  0  0  0
  -19.9180  -26.2160   21.1990 C   0  0  0  0  0  2  0  0  0  0  0  0
  -18.5290  -26.2620   21.8410 C   0  0  0  0  0  2  0  0  0  0  0  0
  -19.3670  -28.3510   23.0660 C   0  0  0  0  0  0  0  0  0  0  0  0
  -19.0860  -29.5690   23.7220 C   0  0  0  0  0  3  0  0  0  0  0  0
  -17.7590  -29.9970   23.9070 C   0  0  0  0  0  3  0  0  0  0  0  0
  -16.6930  -29.2050   23.4460 C   0  0  0  0  0  3  0  0  0  0  0  0
  -16.9580  -27.9880   22.7930 C   0  0  0  0  0  3  0  0  0  0  0  0
  -25.9010  -32.3150   23.8060 C   0  0  0  0  0  3  0  0  0  0  0  0
  -25.5370  -33.6950   24.1550 N   0  0  0  0  0  0  0  0  0  0  0  0
  -25.8520  -34.7730   23.4260 C   0  0  0  0  0  0  0  0  0  0  0  0
  -26.5460  -34.7130   22.4080 O   0  0  0  0  0  0  0  0  0  0  0  0
  -24.9190  -33.8130   24.9440 H   0  0  0  0  0  0  0  0  0  0  0  0
  -24.0680  -36.5130   23.0740 C   0  0  0  0  0  1  0  0  0  0  0  0
  -25.3080  -36.1360   23.9000 C   0  0  0  0  0  3  0  0  0  0  0  0
  -27.3900  -37.0820   24.7910 C   0  0  0  0  0  1  0  0  0  0  0  0
  -26.3060  -37.2260   23.8240 N   0  0  0  0  0  0  0  0  0  0  0  0
  -25.8650  -38.1300   23.9760 H   0  0  0  0  0  0  0  0  0  0  0  0
  -26.4130  -31.5370   25.0800 C   0  0  1  0  0  0  0  0  0  0  0  0
  -25.3050  -31.2420   26.1180 C   0  0  0  0  0  1  0  0  0  0  0  0
  -27.0520  -30.1880   24.6760 C   0  0  0  0  0  1  0  0  0  0  0  0
  -27.5210  -32.3550   25.7840 C   0  0  0  0  0  1  0  0  0  0  0  0
  -31.0650  -17.4670   20.1450 C   0  0  0  0  0  3  0  0  0  0  0  0
  -31.2810  -14.8670   20.0370 C   0  0  0  0  0  0  0  0  0  0  0  0
  -30.9480  -12.6450   18.9830 C   0  0  0  0  0  2  0  0  0  0  0  0
  -29.9700  -12.7700   17.7960 C   0  0  0  0  0  2  0  0  0  0  0  0
  -28.5130  -12.6310   18.2760 C   0  0  0  0  0  2  0  0  0  0  0  0
  -28.2020  -13.5040   19.5210 C   0  0  0  0  0  3  0  0  0  0  0  0
  -29.3000  -13.3820   20.5980 C   0  0  0  0  0  2  0  0  0  0  0  0
  -30.5860  -13.6900   19.9600 N   0  0  0  0  0  0  0  0  0  0  0  0
  -32.4750  -14.9110   19.7430 O   0  0  0  0  0  0  0  0  0  0  0  0
  -30.5650  -16.0280   20.2070 N   0  0  0  0  0  0  0  0  0  0  0  0
  -29.5780  -15.9030   20.3580 H   0  0  0  0  0  0  0  0  0  0  0  0
  -25.8490  -14.1120   20.3510 C   0  0  0  0  0  0  0  0  0  0  0  0
  -24.7860  -13.3420   20.7420 C   0  0  0  0  0  0  0  0  0  0  0  0
  -25.2310  -11.9870   20.6720 C   0  0  0  0  0  0  0  0  0  0  0  0
  -26.8720  -13.2250   20.0600 N   0  0  0  0  0  0  0  0  0  0  0  0
  -26.5100  -11.9410   20.3170 N   0  0  0  0  0  0  0  0  0  0  0  0
  -24.4970  -10.7300   20.8650 C   0  0  0  0  0  0  0  0  0  0  0  0
  -24.8730   -9.7980   21.8580 C   0  0  0  0  0  3  0  0  0  0  0  0
  -24.1390   -8.6060   22.0360 C   0  0  0  0  0  3  0  0  0  0  0  0
  -23.0130   -8.3350   21.2200 C   0  0  0  0  0  0  0  0  0  0  0  0
  -22.6580   -9.2560   20.2200 C   0  0  0  0  0  3  0  0  0  0  0  0
  -23.3920  -10.4400   20.0390 C   0  0  0  0  0  3  0  0  0  0  0  0
  -22.2550   -7.1940   21.3030 O   0  0  0  0  0  0  0  0  0  0  0  0
  -22.0000   -6.5870   22.5080 C   0  0  0  0  0  0  0  0  0  0  0  0
  -21.3340   -7.2610   23.5540 C   0  0  0  0  0  3  0  0  0  0  0  0
  -21.0290   -6.5770   24.7480 C   0  0  0  0  0  3  0  0  0  0  0  0
  -21.3780   -5.2220   24.8950 C   0  0  0  0  0  0  0  0  0  0  0  0
  -22.0330   -4.5480   23.8490 C   0  0  0  0  0  3  0  0  0  0  0  0
  -22.3410   -5.2280   22.6590 C   0  0  0  0  0  0  0  0  0  0  0  0
  -22.9550   -4.5680   21.6480 F   0  0  0  0  0  0  0  0  0  0  0  0
  -21.0780   -4.5620   26.0390 F   0  0  0  0  0  0  0  0  0  0  0  0
  -23.4040  -13.8310   21.0650 C   0  0  0  0  0  0  0  0  0  0  0  0
  -22.7040  -13.1450   21.9630 N   0  0  0  0  0  0  0  0  0  0  0  0
  -22.9510  -14.8570   20.5570 O   0  0  0  0  0  0  0  0  0  0  0  0
  -23.0840  -12.3190   22.3990 H   0  0  0  0  0  0  0  0  0  0  0  0
  -21.7770  -13.4520   22.2160 H   0  0  0  0  0  0  0  0  0  0  0  0
  -26.0180  -15.4820   20.1910 N   0  0  0  0  0  0  0  0  0  0  0  0
  -25.2580  -16.1350   20.3500 H   0  0  0  0  0  0  0  0  0  0  0  0
  -26.8500  -15.9310   19.8250 H   0  0  0  0  0  0  0  0  0  0  0  0
  -31.7920  -17.7960   18.8120 C   0  0  0  0  0  2  0  0  0  0  0  0
  -30.6770  -18.7600   16.7340 C   0  0  0  0  0  1  0  0  0  0  0  0
  -31.7350  -16.4800   16.6130 C   0  0  0  0  0  1  0  0  0  0  0  0
  -30.9990  -17.4790   17.5190 C   0  0  0  0  0  3  0  0  0  0  0  0
  1 11  1  0
  1  2  1  0
  2  4  1  0
  2 10  1  0
  3 57  1  0
  3  1  1  0
  3  5  1  0
  4  6  1  0
  5  7  1  0
  5  4  1  0
  8 10  1  0
 10  9  1  0
 11 13  1  0
 13 12  1  0
 14 13  1  0
 14 15  2  0
 16 18  1  0
 16 15  1  0
 17 28  2  0
 18 23  1  0
 19 27  1  0
 19 29  1  0
 20 26  1  0
 20 22  1  0
 21 27  1  0
 22 21  1  0
 23 22  2  0
 24 25  1  0
 24 18  2  0
 25 20  2  0
 26 19  1  0
 27 17  1  0
 29 31  2  0
 30 29  1  0
 32 30  1  0
 33 42  2  0
 33 38  1  0
 34 30  1  0
 34 38  1  0
 35 34  1  0
 36 37  1  0
 36 35  1  0
 37 33  1  0
 38 39  2  0
 39 40  1  0
 41 40  2  0
 42 41  1  0
 43 17  1  0
 43 44  1  0
 43 53  1  0
 44 47  1  0
 45 49  1  0
 45 44  1  0
 46 45  2  0
 49 48  1  0
 51 49  1  0
 51 52  1  0
 51 50  1  0
 53 56  1  1
 53 54  1  0
 55 53  1  0
 57 96  1  0
 57 66  1  0
 58 66  1  0
 59 64  1  0
 60 61  1  0
 60 59  1  0
 62 61  1  0
 62 71  1  0
 62 63  1  0
 64 58  1  0
 64 63  1  0
 65 58  2  0
 66 67  1  0
 68 69  2  0
 69 88  1  0
 70 69  1  0
 70 73  1  0
 71 72  1  0
 71 68  1  0
 72 70  2  0
 73 74  1  0
 74 75  2  0
 76 79  1  0
 76 75  1  0
 77 76  2  0
 78 77  1  0
 78 73  2  0
 79 80  1  0
 80 85  2  0
 80 81  1  0
 81 82  2  0
 82 83  1  0
 83 87  1  0
 84 83  2  0
 85 84  1  0
 86 85  1  0
 88 89  1  0
 89 92  1  0
 89 91  1  0
 90 88  2  0
 93 94  1  0
 93 68  1  0
 95 93  1  0
 97 99  1  0
 98 99  1  0
 99 96  1  0
M  ISO  4  15 101  16 101  58 100  66 100
M  END
>  <TORSDO>  (93) 
F 24

>  <SCORE>  (93) 
-9.781

>  <name>  (93) 
92

>  <ligand_id>  (93) 
92

>  <original_smiles>  (93) 
[H]c1c([H])c([H])c2c(c1[H])C([H])([H])C([H])([H])C([H])([H])C2([H])N([H])C(=O)C1([H])N(C(=O)C([H])(N([H])C(=O)C([H])(N([H])C([H])([H])[H])C([H])([H])[H])C(C([H])([H])[H])(C([H])([H])[H])C([H])([H])[H])C([H])([H])c2c([H])c(OC([H])([H])C([H])([H])C([H])(C([H])([H])[H])C([H])([H])C3([H])C([H])(C([H])(N([H])C(=O)N4C([H])([H])C([H])([H])C([H])([H])C([H])(n5nc(-c6c([H])c([H])c(Oc7c([H])c([H])c(F)c([H])c7F)c([H])c6[H])c(C(=O)N([H])[H])c5N([H])[H])C4([H])[H])C([H])([H])C([H])(C([H])([H])[H])C([H])([H])[H])N([H])N([H])C3([H])C([H])(C([H])([H])[H])C([H])([H])[H])c([H])c([H])c2C1([H])[H]

>  <smiles>  (93) 
[H]c1c([H])c([H])c2c(c1[H])C([H])([H])C([H])([H])C([H])([H])C2([H])N([H])C(=O)C1([H])N(C(=O)C([H])(N([H])C(=O)C([H])(N([H])C([H])([H])[H])C([H])([H])[H])C(C([H])([H])[H])(C([H])([H])[H])C([H])([H])[H])C([H])([H])c2c([H])c(OC([H])([H])C([H])([H])C([H])(C([H])([H])[H])C([H])([H])C3([H])C([H])(C([H])(N([H])C(=O)N4C([H])([H])C([H])([H])C([H])([H])C([H])(n5nc(-c6c([H])c([H])c(Oc7c([H])c([H])c(F)c([H])c7F)c([H])c6[H])c(C(=O)N([H])[H])c5N([H])[H])C4([H])[H])C([H])([H])C([H])(C([H])([H])[H])C([H])([H])[H])N([H])N([H])C3([H])C([H])(C([H])([H])[H])C([H])([H])[H])c([H])c([H])c2C1([H])[H]

$$$$
93:0:0
     RDKit          3D

 94103  0  0  1  0  0  0  0  0999 V2000
  -32.0680  -21.3610   21.8040 C   0  0  0  0  0  3  0  0  0  0  0  0
  -31.1030  -22.3020   21.4210 C   0  0  0  0  0  3  0  0  0  0  0  0
  -29.7220  -20.4940   20.5550 C   0  0  0  0  0  3  0  0  0  0  0  0
  -30.7020  -19.5080   20.9400 C   0  0  0  0  0  0  0  0  0  0  0  0
  -31.8840  -19.9850   21.5720 C   0  0  0  0  0  0  0  0  0  0  0  0
  -29.9030  -21.9070   20.7890 C   0  0  0  0  0  0  0  0  0  0  0  0
  -33.0040  -19.0510   22.0110 C   0  0  0  0  0  1  0  0  0  0  0  0
  -30.6830  -14.8520   20.4380 C   0  0  0  0  0  0  0  0  0  0  0  0
  -30.4570  -12.6440   19.3340 C   0  0  0  0  0  2  0  0  0  0  0  0
  -29.5450  -12.8000   18.1010 C   0  0  0  0  0  2  0  0  0  0  0  0
  -28.0620  -12.6450   18.4920 C   0  0  0  0  0  2  0  0  0  0  0  0
  -27.6760  -13.4770   19.7480 C   0  0  0  0  0  3  0  0  0  0  0  0
  -28.7150  -13.3200   20.8780 C   0  0  0  0  0  2  0  0  0  0  0  0
  -30.0330  -13.6540   20.3220 N   0  0  0  0  0  0  0  0  0  0  0  0
  -31.8530  -14.9880   20.0670 O   0  0  0  0  0  0  0  0  0  0  0  0
  -30.4720  -16.9260   21.7990 C   0  0  0  0  0  2  0  0  0  0  0  0
  -30.6030  -17.9630   20.6630 C   0  0  0  0  0  3  0  0  0  0  0  0
  -29.4900  -17.1220   20.0120 C   0  0  0  0  0  3  0  0  0  0  0  0
  -29.9420  -15.9390   20.8300 N   0  0  0  0  0  0  0  0  0  0  0  0
  -25.2560  -14.0440   20.3910 C   0  0  0  0  0  0  0  0  0  0  0  0
  -24.1910  -13.2570   20.7390 C   0  0  0  0  0  0  0  0  0  0  0  0
  -24.6750  -11.9130   20.7350 C   0  0  0  0  0  0  0  0  0  0  0  0
  -26.3200  -13.1780   20.2000 N   0  0  0  0  0  0  0  0  0  0  0  0
  -25.9750  -11.8920   20.4650 N   0  0  0  0  0  0  0  0  0  0  0  0
  -23.9640  -10.6420   20.9190 C   0  0  0  0  0  0  0  0  0  0  0  0
  -24.3500   -9.7180   21.9160 C   0  0  0  0  0  3  0  0  0  0  0  0
  -23.6380   -8.5110   22.0860 C   0  0  0  0  0  3  0  0  0  0  0  0
  -22.5260   -8.2180   21.2580 C   0  0  0  0  0  0  0  0  0  0  0  0
  -22.1620   -9.1310   20.2540 C   0  0  0  0  0  3  0  0  0  0  0  0
  -22.8740  -10.3300   20.0830 C   0  0  0  0  0  3  0  0  0  0  0  0
  -21.7940   -7.0590   21.3330 O   0  0  0  0  0  0  0  0  0  0  0  0
  -21.6340   -6.3840   22.5170 C   0  0  0  0  0  0  0  0  0  0  0  0
  -21.0480   -6.9910   23.6490 C   0  0  0  0  0  3  0  0  0  0  0  0
  -20.8390   -6.2410   24.8240 C   0  0  0  0  0  3  0  0  0  0  0  0
  -21.2070   -4.8820   24.8650 C   0  0  0  0  0  0  0  0  0  0  0  0
  -21.7830   -4.2730   23.7370 C   0  0  0  0  0  3  0  0  0  0  0  0
  -21.9940   -5.0220   22.5660 C   0  0  0  0  0  0  0  0  0  0  0  0
  -22.5320   -4.4260   21.4740 F   0  0  0  0  0  0  0  0  0  0  0  0
  -20.9990   -4.1580   25.9890 F   0  0  0  0  0  0  0  0  0  0  0  0
  -22.7790  -13.7150   20.9650 C   0  0  0  0  0  0  0  0  0  0  0  0
  -22.0360  -13.0150   21.8160 N   0  0  0  0  0  0  0  0  0  0  0  0
  -22.3400  -14.7280   20.4220 O   0  0  0  0  0  0  0  0  0  0  0  0
  -22.4030  -12.1970   22.2800 H   0  0  0  0  0  0  0  0  0  0  0  0
  -21.0870  -13.3030   22.0050 H   0  0  0  0  0  0  0  0  0  0  0  0
  -25.4050  -15.4150   20.2030 N   0  0  0  0  0  0  0  0  0  0  0  0
  -24.6310  -16.0630   20.2930 H   0  0  0  0  0  0  0  0  0  0  0  0
  -26.2690  -15.8640   19.9270 H   0  0  0  0  0  0  0  0  0  0  0  0
  -29.4780  -16.8540   18.4980 C   0  0  0  0  0  2  0  0  0  0  0  0
  -29.1470  -17.8360   16.1640 C   0  0  0  0  0  1  0  0  0  0  0  0
  -29.1960  -18.1150   17.6730 C   0  0  0  0  0  2  0  0  0  0  0  0
  -28.9440  -22.8670   20.4080 O   0  0  0  0  0  0  0  0  0  0  0  0
  -29.2160  -24.3020   20.5950 C   0  0  0  0  0  3  0  0  0  0  0  0
  -28.0930  -25.2970   20.1100 C   0  0  0  0  0  3  0  0  0  0  0  0
  -28.2950  -26.7470   20.3130 O   0  0  0  0  0  0  0  0  0  0  0  0
  -24.5980  -32.0720   23.4380 C   0  0  0  0  0  0  0  0  0  0  0  0
  -27.1660  -27.5740   20.2840 C   0  0  0  0  0  0  0  0  0  0  0  0
  -23.3670  -30.6890   21.8040 C   0  0  0  0  0  3  0  0  0  0  0  0
  -24.7940  -29.1640   20.3340 C   0  0  0  0  0  0  0  0  0  0  0  0
  -25.8990  -31.0240   21.5760 C   0  0  0  0  0  2  0  0  0  0  0  0
  -25.9710  -29.6540   20.9150 C   0  0  0  0  0  0  0  0  0  0  0  0
  -27.1590  -28.8700   20.8810 C   0  0  0  0  0  3  0  0  0  0  0  0
  -25.9650  -27.1340   19.6800 C   0  0  0  0  0  3  0  0  0  0  0  0
  -24.7910  -27.9080   19.7100 C   0  0  0  0  0  3  0  0  0  0  0  0
  -23.5550  -30.0310   20.4120 C   0  0  0  0  0  2  0  0  0  0  0  0
  -24.6410  -31.2770   22.3290 N   0  0  0  0  0  0  0  0  0  0  0  0
  -23.5250  -32.3400   23.9970 O   0  0  0  0  0  0  0  0  0  0  0  0
  -22.7260  -29.6580   22.7650 C   0  0  0  0  0  0  0  0  0  0  0  0
  -21.4210  -29.3950   22.5830 N   0  0  0  0  0  0  0  0  0  0  0  0
  -23.4030  -29.1000   23.6310 O   0  0  0  0  0  0  0  0  0  0  0  0
  -20.9330  -29.9000   21.8560 H   0  0  0  0  0  0  0  0  0  0  0  0
  -18.1200  -27.9560   22.9100 C   0  0  0  0  0  0  0  0  0  0  0  0
  -20.6250  -28.4320   23.3440 C   0  0  0  0  0  3  0  0  0  0  0  0
  -20.8790  -26.9880   22.8530 C   0  0  0  0  0  2  0  0  0  0  0  0
  -19.8820  -26.5300   21.7840 C   0  0  0  0  0  2  0  0  0  0  0  0
  -18.4490  -26.5930   22.3210 C   0  0  0  0  0  2  0  0  0  0  0  0
  -19.1430  -28.8240   23.3760 C   0  0  0  0  0  0  0  0  0  0  0  0
  -18.7850  -30.0910   23.8840 C   0  0  0  0  0  3  0  0  0  0  0  0
  -17.4370  -30.4950   23.9320 C   0  0  0  0  0  3  0  0  0  0  0  0
  -16.4280  -29.6250   23.4850 C   0  0  0  0  0  3  0  0  0  0  0  0
  -16.7700  -28.3580   22.9800 C   0  0  0  0  0  3  0  0  0  0  0  0
  -25.8910  -32.7000   24.0420 C   0  0  0  0  0  3  0  0  0  0  0  0
  -25.5990  -34.1060   24.3550 N   0  0  0  0  0  0  0  0  0  0  0  0
  -25.9080  -35.1420   23.5630 C   0  0  0  0  0  0  0  0  0  0  0  0
  -26.5410  -35.0160   22.5120 O   0  0  0  0  0  0  0  0  0  0  0  0
  -25.0290  -34.2790   25.1700 H   0  0  0  0  0  0  0  0  0  0  0  0
  -24.1650  -36.9260   23.2470 C   0  0  0  0  0  1  0  0  0  0  0  0
  -25.4420  -36.5410   24.0090 C   0  0  0  0  0  3  0  0  0  0  0  0
  -27.6050  -37.4510   24.7300 C   0  0  0  0  0  1  0  0  0  0  0  0
  -26.4670  -37.5910   23.8260 N   0  0  0  0  0  0  0  0  0  0  0  0
  -26.0660  -38.5150   23.9620 H   0  0  0  0  0  0  0  0  0  0  0  0
  -26.4060  -31.9410   25.3260 C   0  0  1  0  0  0  0  0  0  0  0  0
  -25.3020  -31.6800   26.3760 C   0  0  0  0  0  1  0  0  0  0  0  0
  -27.0270  -30.5780   24.9430 C   0  0  0  0  0  1  0  0  0  0  0  0
  -27.5250  -32.7630   26.0080 C   0  0  0  0  0  1  0  0  0  0  0  0
  2  1  2  0
  3  6  2  0
  3  4  1  0
  4  5  2  0
  5  1  1  0
  5  7  1  0
  6  2  1  0
  8 19  1  0
  9 14  1  0
 10 11  1  0
 10  9  1  0
 12 11  1  0
 12 23  1  0
 12 13  1  0
 14  8  1  0
 14 13  1  0
 15  8  2  0
 17  4  1  0
 17 16  1  0
 18 48  1  0
 18 17  1  0
 18 19  1  0
 19 16  1  0
 20 21  2  0
 21 40  1  0
 22 21  1  0
 22 25  1  0
 23 20  1  0
 23 24  1  0
 24 22  2  0
 25 26  1  0
 26 27  2  0
 28 31  1  0
 28 27  1  0
 29 28  2  0
 30 29  1  0
 30 25  2  0
 31 32  1  0
 32 37  2  0
 32 33  1  0
 33 34  2  0
 34 35  1  0
 35 39  1  0
 36 35  2  0
 37 36  1  0
 38 37  1  0
 40 41  1  0
 41 44  1  0
 41 43  1  0
 42 40  2  0
 45 46  1  0
 45 20  1  0
 47 45  1  0
 49 50  1  0
 50 48  1  0
 51 52  1  0
 51  6  1  0
 53 54  1  0
 53 52  2  0
 55 66  2  0
 56 54  1  0
 56 61  1  0
 57 65  1  0
 57 67  1  0
 58 64  1  0
 58 60  1  0
 59 65  1  0
 60 59  1  0
 61 60  2  0
 62 63  1  0
 62 56  2  0
 63 58  2  0
 64 57  1  0
 65 55  1  0
 67 69  2  0
 68 67  1  0
 70 68  1  0
 71 80  2  0
 71 76  1  0
 72 68  1  0
 72 76  1  0
 73 72  1  0
 74 75  1  0
 74 73  1  0
 75 71  1  0
 76 77  2  0
 77 78  1  0
 79 78  2  0
 80 79  1  0
 81 55  1  0
 81 82  1  0
 81 91  1  0
 82 85  1  0
 83 87  1  0
 83 82  1  0
 84 83  2  0
 87 86  1  0
 89 90  1  0
 89 87  1  0
 89 88  1  0
 91 94  1  1
 91 92  1  0
 93 91  1  0
M  ISO  4   8 100  19 100  53 101  54 101
M  END
>  <TORSDO>  (94) 
F 21

>  <SCORE>  (94) 
-12.230

>  <name>  (94) 
93

>  <ligand_id>  (94) 
93

>  <original_smiles>  (94) 
[H]c1c([H])c([H])c2c(c1[H])C([H])([H])C([H])([H])C([H])([H])C2([H])N([H])C(=O)C1([H])N(C(=O)C([H])(N([H])C(=O)C([H])(N([H])C([H])([H])[H])C([H])([H])[H])C(C([H])([H])[H])(C([H])([H])[H])C([H])([H])[H])C([H])([H])c2c([H])c(OC([H])([H])C([H])([H])Oc3c([H])c([H])c(C([H])([H])[H])c(C4([H])C([H])([H])N(C(=O)N5C([H])([H])C([H])([H])C([H])([H])C([H])(n6nc(-c7c([H])c([H])c(Oc8c([H])c([H])c(F)c([H])c8F)c([H])c7[H])c(C(=O)N([H])[H])c6N([H])[H])C5([H])[H])C4([H])C([H])([H])C([H])([H])C([H])([H])[H])c3[H])c([H])c([H])c2C1([H])[H]

>  <smiles>  (94) 
[H]c1c([H])c([H])c2c(c1[H])C([H])([H])C([H])([H])C([H])([H])C2([H])N([H])C(=O)C1([H])N(C(=O)C([H])(N([H])C(=O)C([H])(N([H])C([H])([H])[H])C([H])([H])[H])C(C([H])([H])[H])(C([H])([H])[H])C([H])([H])[H])C([H])([H])c2c([H])c(OC([H])([H])C([H])([H])Oc3c([H])c([H])c(C([H])([H])[H])c(C4([H])C([H])([H])N(C(=O)N5C([H])([H])C([H])([H])C([H])([H])C([H])(n6nc(-c7c([H])c([H])c(Oc8c([H])c([H])c(F)c([H])c8F)c([H])c7[H])c(C(=O)N([H])[H])c6N([H])[H])C5([H])[H])C4([H])C([H])([H])C([H])([H])C([H])([H])[H])c3[H])c([H])c([H])c2C1([H])[H]

$$$$
94:0:0
     RDKit          3D

 95105  0  0  1  0  0  0  0  0999 V2000
  -30.6700  -20.4280   20.9700 C   0  0  0  0  0  3  0  0  0  0  0  0
  -30.1520  -21.7210   20.7240 C   0  0  0  0  0  3  0  0  0  0  0  0
  -28.5320  -20.7570   19.2090 C   0  0  0  0  0  3  0  0  0  0  0  0
  -30.1290  -19.2790   20.3430 C   0  0  0  0  0  0  0  0  0  0  0  0
  -29.0370  -19.4560   19.4560 C   0  0  0  0  0  0  0  0  0  0  0  0
  -29.0780  -21.9050   19.8250 C   0  0  0  0  0  0  0  0  0  0  0  0
  -29.1290  -17.3920   17.8130 C   0  0  0  0  0  2  0  0  0  0  0  0
  -28.0200  -18.2890   17.3210 C   0  0  0  0  0  2  0  0  0  0  0  0
  -28.3840  -18.2740   18.7890 C   0  0  0  0  0  3  0  0  0  0  0  0
  -31.3630  -17.5210   21.9120 C   0  0  0  0  0  2  0  0  0  0  0  0
  -30.7150  -17.8970   20.5960 C   0  0  0  0  0  3  0  0  0  0  0  0
  -30.0320  -16.9110   21.5360 C   0  0  0  0  0  3  0  0  0  0  0  0
  -30.6580  -14.6110   20.5790 C   0  0  0  0  0  0  0  0  0  0  0  0
  -30.4320  -12.4950   19.3120 C   0  0  0  0  0  2  0  0  0  0  0  0
  -29.4830  -12.7270   18.1160 C   0  0  0  0  0  2  0  0  0  0  0  0
  -28.0050  -12.5650   18.5320 C   0  0  0  0  0  2  0  0  0  0  0  0
  -27.6600  -13.3460   19.8270 C   0  0  0  0  0  3  0  0  0  0  0  0
  -28.7090  -13.0530   20.9240 C   0  0  0  0  0  2  0  0  0  0  0  0
  -30.0350  -13.4150   20.3870 N   0  0  0  0  0  0  0  0  0  0  0  0
  -31.7510  -14.8900   20.0740 O   0  0  0  0  0  0  0  0  0  0  0  0
  -29.9090  -15.4930   21.2700 N   0  0  0  0  0  0  0  0  0  0  0  0
  -29.0520  -15.0860   21.6130 H   0  0  0  0  0  0  0  0  0  0  0  0
  -25.2450  -13.9320   20.5060 C   0  0  0  0  0  0  0  0  0  0  0  0
  -24.1810  -13.1490   20.8640 C   0  0  0  0  0  0  0  0  0  0  0  0
  -24.6560  -11.8030   20.8370 C   0  0  0  0  0  0  0  0  0  0  0  0
  -26.3020  -13.0610   20.2870 N   0  0  0  0  0  0  0  0  0  0  0  0
  -25.9490  -11.7750   20.5410 N   0  0  0  0  0  0  0  0  0  0  0  0
  -23.9420  -10.5330   21.0210 C   0  0  0  0  0  0  0  0  0  0  0  0
  -24.3590   -9.5830   21.9790 C   0  0  0  0  0  3  0  0  0  0  0  0
  -23.6460   -8.3760   22.1490 C   0  0  0  0  0  3  0  0  0  0  0  0
  -22.5030   -8.1110   21.3590 C   0  0  0  0  0  0  0  0  0  0  0  0
  -22.1050   -9.0500   20.3910 C   0  0  0  0  0  3  0  0  0  0  0  0
  -22.8190  -10.2480   20.2190 C   0  0  0  0  0  3  0  0  0  0  0  0
  -21.7620   -6.9560   21.4360 O   0  0  0  0  0  0  0  0  0  0  0  0
  -21.6670   -6.2390   22.6020 C   0  0  0  0  0  0  0  0  0  0  0  0
  -21.1520   -6.8080   23.7880 C   0  0  0  0  0  3  0  0  0  0  0  0
  -21.0080   -6.0140   24.9440 C   0  0  0  0  0  3  0  0  0  0  0  0
  -21.3670   -4.6540   24.9140 C   0  0  0  0  0  0  0  0  0  0  0  0
  -21.8760   -4.0850   23.7330 C   0  0  0  0  0  3  0  0  0  0  0  0
  -22.0230   -4.8750   22.5800 C   0  0  0  0  0  0  0  0  0  0  0  0
  -22.4920   -4.3170   21.4380 F   0  0  0  0  0  0  0  0  0  0  0  0
  -21.2220   -3.8900   26.0220 F   0  0  0  0  0  0  0  0  0  0  0  0
  -22.7760  -13.6120   21.1240 C   0  0  0  0  0  0  0  0  0  0  0  0
  -22.0430  -12.8980   21.9710 N   0  0  0  0  0  0  0  0  0  0  0  0
  -22.3350  -14.6390   20.6120 O   0  0  0  0  0  0  0  0  0  0  0  0
  -22.4110  -12.0660   22.4090 H   0  0  0  0  0  0  0  0  0  0  0  0
  -21.0990  -13.1860   22.1840 H   0  0  0  0  0  0  0  0  0  0  0  0
  -25.3990  -15.3050   20.3310 N   0  0  0  0  0  0  0  0  0  0  0  0
  -24.6240  -15.9520   20.4260 H   0  0  0  0  0  0  0  0  0  0  0  0
  -26.2500  -15.7500   20.0140 H   0  0  0  0  0  0  0  0  0  0  0  0
  -28.5470  -23.1670   19.4790 N   0  0  0  0  0  0  0  0  0  0  0  0
  -27.7910  -23.1700   18.8000 H   0  0  0  0  0  0  0  0  0  0  0  0
  -28.6400  -24.3770   20.3130 C   0  0  0  0  0  2  0  0  0  0  0  0
  -28.7300  -25.6730   19.4600 C   0  0  0  0  0  2  0  0  0  0  0  0
  -28.5360  -26.8820   20.2190 O   0  0  0  0  0  0  0  0  0  0  0  0
  -24.6160  -31.9870   23.2890 C   0  0  0  0  0  0  0  0  0  0  0  0
  -27.3240  -27.5560   20.2110 C   0  0  0  0  0  0  0  0  0  0  0  0
  -23.4290  -30.5670   21.6480 C   0  0  0  0  0  3  0  0  0  0  0  0
  -24.9020  -29.0390   20.2320 C   0  0  0  0  0  0  0  0  0  0  0  0
  -25.9520  -30.9500   21.4540 C   0  0  0  0  0  2  0  0  0  0  0  0
  -26.0530  -29.5760   20.8180 C   0  0  0  0  0  0  0  0  0  0  0  0
  -27.2620  -28.8400   20.8070 C   0  0  0  0  0  3  0  0  0  0  0  0
  -26.1410  -27.0260   19.6440 C   0  0  0  0  0  3  0  0  0  0  0  0
  -24.9400  -27.7620   19.6470 C   0  0  0  0  0  3  0  0  0  0  0  0
  -23.6480  -29.8840   20.2710 C   0  0  0  0  0  2  0  0  0  0  0  0
  -24.6840  -31.1830   22.1890 N   0  0  0  0  0  0  0  0  0  0  0  0
  -23.5300  -32.2500   23.8240 O   0  0  0  0  0  0  0  0  0  0  0  0
  -22.7850  -29.5430   22.6100 C   0  0  0  0  0  0  0  0  0  0  0  0
  -21.4660  -29.3380   22.4700 N   0  0  0  0  0  0  0  0  0  0  0  0
  -23.4710  -28.9350   23.4360 O   0  0  0  0  0  0  0  0  0  0  0  0
  -20.9730  -29.8800   21.7730 H   0  0  0  0  0  0  0  0  0  0  0  0
  -18.1010  -28.1150   22.9630 C   0  0  0  0  0  0  0  0  0  0  0  0
  -20.6560  -28.3920   23.2370 C   0  0  0  0  0  3  0  0  0  0  0  0
  -20.7710  -26.9630   22.6560 C   0  0  0  0  0  2  0  0  0  0  0  0
  -19.6730  -26.6350   21.6400 C   0  0  0  0  0  2  0  0  0  0  0  0
  -18.2880  -26.7690   22.2830 C   0  0  0  0  0  2  0  0  0  0  0  0
  -19.2130  -28.8840   23.3960 C   0  0  0  0  0  0  0  0  0  0  0  0
  -18.9850  -30.1450   23.9880 C   0  0  0  0  0  3  0  0  0  0  0  0
  -17.6770  -30.6370   24.1550 C   0  0  0  0  0  3  0  0  0  0  0  0
  -16.5780  -29.8630   23.7400 C   0  0  0  0  0  3  0  0  0  0  0  0
  -16.7910  -28.6050   23.1490 C   0  0  0  0  0  3  0  0  0  0  0  0
  -25.8940  -32.6330   23.9110 C   0  0  0  0  0  3  0  0  0  0  0  0
  -25.5730  -34.0280   24.2340 N   0  0  0  0  0  0  0  0  0  0  0  0
  -25.9090  -35.0810   23.4750 C   0  0  0  0  0  0  0  0  0  0  0  0
  -26.5940  -34.9790   22.4540 O   0  0  0  0  0  0  0  0  0  0  0  0
  -24.9690  -34.1830   25.0290 H   0  0  0  0  0  0  0  0  0  0  0  0
  -24.1820  -36.8640   23.0780 C   0  0  0  0  0  1  0  0  0  0  0  0
  -25.4030  -36.4660   23.9210 C   0  0  0  0  0  3  0  0  0  0  0  0
  -27.5130  -37.3580   24.8060 C   0  0  0  0  0  1  0  0  0  0  0  0
  -26.4330  -37.5250   23.8370 N   0  0  0  0  0  0  0  0  0  0  0  0
  -26.0180  -38.4420   23.9820 H   0  0  0  0  0  0  0  0  0  0  0  0
  -26.4140  -31.8710   25.1920 C   0  0  1  0  0  0  0  0  0  0  0  0
  -25.3130  -31.6000   26.2440 C   0  0  0  0  0  1  0  0  0  0  0  0
  -27.0380  -30.5120   24.7990 C   0  0  0  0  0  1  0  0  0  0  0  0
  -27.5370  -32.6920   25.8710 C   0  0  0  0  0  1  0  0  0  0  0  0
  2  1  1  0
  3  5  2  0
  3  6  1  0
  4  1  2  0
  5  4  1  0
  6  2  2  0
  7  9  1  0
  8  7  1  0
  8  9  1  0
  9  5  1  0
 11  4  1  0
 11 12  1  0
 11 10  1  0
 12 21  1  0
 12 10  1  0
 13 21  1  0
 14 19  1  0
 15 16  1  0
 15 14  1  0
 17 16  1  0
 17 26  1  0
 17 18  1  0
 19 13  1  0
 19 18  1  0
 20 13  2  0
 21 22  1  0
 23 24  2  0
 24 43  1  0
 25 24  1  0
 25 28  1  0
 26 23  1  0
 26 27  1  0
 27 25  2  0
 28 29  1  0
 29 30  2  0
 31 34  1  0
 31 30  1  0
 32 31  2  0
 33 32  1  0
 33 28  2  0
 34 35  1  0
 35 36  1  0
 36 37  2  0
 38 37  1  0
 38 42  1  0
 39 38  2  0
 40 35  2  0
 40 39  1  0
 41 40  1  0
 43 44  1  0
 44 47  1  0
 44 46  1  0
 45 43  2  0
 48 49  1  0
 48 23  1  0
 50 48  1  0
 51  6  1  0
 51 53  1  0
 52 51  1  0
 54 55  1  0
 54 53  1  0
 56 67  2  0
 57 55  1  0
 57 62  1  0
 58 66  1  0
 58 68  1  0
 59 65  1  0
 59 61  1  0
 60 66  1  0
 61 60  1  0
 62 61  2  0
 63 64  1  0
 63 57  2  0
 64 59  2  0
 65 58  1  0
 66 56  1  0
 68 70  2  0
 69 68  1  0
 71 69  1  0
 72 81  2  0
 72 77  1  0
 73 69  1  0
 73 77  1  0
 74 73  1  0
 75 76  1  0
 75 74  1  0
 76 72  1  0
 77 78  2  0
 78 79  1  0
 80 79  2  0
 81 80  1  0
 82 56  1  0
 82 83  1  0
 82 92  1  0
 83 86  1  0
 84 88  1  0
 84 83  1  0
 85 84  2  0
 88 87  1  0
 90 88  1  0
 90 91  1  0
 90 89  1  0
 92 95  1  1
 92 93  1  0
 94 92  1  0
M  ISO  4  13 100  21 100  54 101  55 101
M  END
>  <TORSDO>  (95) 
F 21

>  <SCORE>  (95) 
-13.404

>  <name>  (95) 
94

>  <ligand_id>  (95) 
94

>  <original_smiles>  (95) 
[H]c1c([H])c([H])c2c(c1[H])C([H])([H])C([H])([H])C([H])([H])C2([H])N([H])C(=O)C1([H])N(C(=O)C([H])(N([H])C(=O)C([H])(N([H])C([H])([H])[H])C([H])([H])[H])C(C([H])([H])[H])(C([H])([H])[H])C([H])([H])[H])C([H])([H])c2c([H])c(OC([H])([H])C([H])([H])N([H])c3c([H])c([H])c(C4([H])C([H])([H])C4([H])N([H])C(=O)N4C([H])([H])C([H])([H])C([H])([H])C([H])(n5nc(-c6c([H])c([H])c(Oc7c([H])c([H])c(F)c([H])c7F)c([H])c6[H])c(C(=O)N([H])[H])c5N([H])[H])C4([H])[H])c(C4([H])C([H])([H])C4([H])[H])c3[H])c([H])c([H])c2C1([H])[H]

>  <smiles>  (95) 
[H]c1c([H])c([H])c2c(c1[H])C([H])([H])C([H])([H])C([H])([H])C2([H])N([H])C(=O)C1([H])N(C(=O)C([H])(N([H])C(=O)C([H])(N([H])C([H])([H])[H])C([H])([H])[H])C(C([H])([H])[H])(C([H])([H])[H])C([H])([H])[H])C([H])([H])c2c([H])c(OC([H])([H])C([H])([H])N([H])c3c([H])c([H])c(C4([H])C([H])([H])C4([H])N([H])C(=O)N4C([H])([H])C([H])([H])C([H])([H])C([H])(n5nc(-c6c([H])c([H])c(Oc7c([H])c([H])c(F)c([H])c7F)c([H])c6[H])c(C(=O)N([H])[H])c5N([H])[H])C4([H])[H])c(C4([H])C([H])([H])C4([H])[H])c3[H])c([H])c([H])c2C1([H])[H]

$$$$
95:0:0
     RDKit          3D

 95104  0  0  1  0  0  0  0  0999 V2000
  -29.3390  -22.9630   20.0150 C   0  0  0  0  0  3  0  0  0  0  0  0
  -28.2340  -23.5960   17.9800 C   0  0  0  0  0  3  0  0  0  0  0  0
  -28.7550  -24.0230   19.2100 C   0  0  0  0  0  0  0  0  0  0  0  0
  -29.4900  -21.5940   19.5160 C   0  0  0  0  0  0  0  0  0  0  0  0
  -29.1690  -21.4650   18.1300 C   0  0  0  0  0  0  0  0  0  0  0  0
  -28.4590  -22.3860   17.4480 N   0  0  0  0  0  0  0  0  0  0  0  0
  -31.1800  -21.3890   16.6110 C   0  0  0  0  0  1  0  0  0  0  0  0
  -29.1520  -19.9370   16.0540 C   0  0  0  0  0  1  0  0  0  0  0  0
  -29.9910  -20.5870   17.1760 C   0  0  0  0  0  3  0  0  0  0  0  0
  -30.1420  -20.5250   20.2610 N   0  0  0  0  0  0  0  0  0  0  0  0
  -30.7540  -20.8790   20.9920 H   0  0  0  0  0  0  0  0  0  0  0  0
  -30.6640  -14.7160   20.3430 C   0  0  0  0  0  0  0  0  0  0  0  0
  -30.3600  -12.4790   19.2660 C   0  0  0  0  0  2  0  0  0  0  0  0
  -29.4080  -12.5710   18.0540 C   0  0  0  0  0  2  0  0  0  0  0  0
  -27.9420  -12.4100   18.5020 C   0  0  0  0  0  2  0  0  0  0  0  0
  -27.5910  -13.2870   19.7300 C   0  0  0  0  0  3  0  0  0  0  0  0
  -28.6680  -13.2040   20.8360 C   0  0  0  0  0  2  0  0  0  0  0  0
  -29.9620  -13.5350   20.2260 N   0  0  0  0  0  0  0  0  0  0  0  0
  -31.8520  -14.7630   20.0110 O   0  0  0  0  0  0  0  0  0  0  0  0
  -30.7350  -18.3210   21.4560 C   0  0  0  0  0  2  0  0  0  0  0  0
  -29.5290  -18.0870   19.3800 C   0  0  0  0  0  2  0  0  0  0  0  0
  -30.4430  -16.7950   21.7970 C   0  0  0  0  0  2  0  0  0  0  0  0
  -29.1070  -16.6170   19.7630 C   0  0  0  0  0  2  0  0  0  0  0  0
  -29.7060  -19.0880   20.5570 C   0  0  0  0  0  3  0  0  0  0  0  0
  -30.0030  -15.8870   20.6960 N   0  0  0  0  0  0  0  0  0  0  0  0
  -25.2140  -13.8890   20.4850 C   0  0  0  0  0  0  0  0  0  0  0  0
  -24.1470  -13.1190   20.8600 C   0  0  0  0  0  0  0  0  0  0  0  0
  -24.6050  -11.7650   20.8220 C   0  0  0  0  0  0  0  0  0  0  0  0
  -26.2520  -13.0050   20.2370 N   0  0  0  0  0  0  0  0  0  0  0  0
  -25.8920  -11.7240   20.5020 N   0  0  0  0  0  0  0  0  0  0  0  0
  -23.8740  -10.5070   21.0190 C   0  0  0  0  0  0  0  0  0  0  0  0
  -24.3020   -9.5370   21.9550 C   0  0  0  0  0  3  0  0  0  0  0  0
  -23.5700   -8.3430   22.1340 C   0  0  0  0  0  3  0  0  0  0  0  0
  -22.3950   -8.1080   21.3780 C   0  0  0  0  0  0  0  0  0  0  0  0
  -21.9880   -9.0670   20.4350 C   0  0  0  0  0  3  0  0  0  0  0  0
  -22.7190  -10.2520   20.2520 C   0  0  0  0  0  3  0  0  0  0  0  0
  -21.6350   -6.9670   21.4680 O   0  0  0  0  0  0  0  0  0  0  0  0
  -21.5770   -6.2320   22.6250 C   0  0  0  0  0  0  0  0  0  0  0  0
  -21.1240   -6.7910   23.8400 C   0  0  0  0  0  3  0  0  0  0  0  0
  -21.0120   -5.9820   24.9870 C   0  0  0  0  0  3  0  0  0  0  0  0
  -21.3410   -4.6150   24.9230 C   0  0  0  0  0  0  0  0  0  0  0  0
  -21.7890   -4.0570   23.7130 C   0  0  0  0  0  3  0  0  0  0  0  0
  -21.9040   -4.8620   22.5660 C   0  0  0  0  0  0  0  0  0  0  0  0
  -22.3130   -4.3140   21.3980 F   0  0  0  0  0  0  0  0  0  0  0  0
  -21.2290   -3.8370   26.0240 F   0  0  0  0  0  0  0  0  0  0  0  0
  -22.7550  -13.6040   21.1440 C   0  0  0  0  0  0  0  0  0  0  0  0
  -22.0270  -12.9100   22.0120 N   0  0  0  0  0  0  0  0  0  0  0  0
  -22.3220  -14.6360   20.6340 O   0  0  0  0  0  0  0  0  0  0  0  0
  -22.3880  -12.0770   22.4530 H   0  0  0  0  0  0  0  0  0  0  0  0
  -21.0940  -13.2230   22.2420 H   0  0  0  0  0  0  0  0  0  0  0  0
  -25.3830  -15.2590   20.3110 N   0  0  0  0  0  0  0  0  0  0  0  0
  -24.6260  -15.9200   20.4370 H   0  0  0  0  0  0  0  0  0  0  0  0
  -26.2370  -15.6960   19.9880 H   0  0  0  0  0  0  0  0  0  0  0  0
  -28.9070  -25.6050   19.3180 C   0  0  0  0  0  2  0  0  0  0  0  0
  -28.3520  -26.4700   20.3650 O   0  0  0  0  0  0  0  0  0  0  0  0
  -24.5820  -31.8520   23.2370 C   0  0  0  0  0  0  0  0  0  0  0  0
  -27.2430  -27.3160   20.1880 C   0  0  0  0  0  0  0  0  0  0  0  0
  -23.3880  -30.4500   21.5860 C   0  0  0  0  0  3  0  0  0  0  0  0
  -24.8560  -28.9040   20.1560 C   0  0  0  0  0  0  0  0  0  0  0  0
  -25.9210  -30.7850   21.4090 C   0  0  0  0  0  2  0  0  0  0  0  0
  -26.0120  -29.4060   20.7650 C   0  0  0  0  0  0  0  0  0  0  0  0
  -27.2000  -28.6160   20.7820 C   0  0  0  0  0  3  0  0  0  0  0  0
  -26.0700  -26.8620   19.5500 C   0  0  0  0  0  3  0  0  0  0  0  0
  -24.8880  -27.6390   19.5370 C   0  0  0  0  0  3  0  0  0  0  0  0
  -23.6100  -29.7690   20.2050 C   0  0  0  0  0  2  0  0  0  0  0  0
  -24.6490  -31.0470   22.1360 N   0  0  0  0  0  0  0  0  0  0  0  0
  -23.4970  -32.1250   23.7710 O   0  0  0  0  0  0  0  0  0  0  0  0
  -22.7200  -29.4380   22.5450 C   0  0  0  0  0  0  0  0  0  0  0  0
  -21.3930  -29.2700   22.4240 N   0  0  0  0  0  0  0  0  0  0  0  0
  -23.3970  -28.8050   23.3610 O   0  0  0  0  0  0  0  0  0  0  0  0
  -20.9060  -29.8320   21.7390 H   0  0  0  0  0  0  0  0  0  0  0  0
  -18.0080  -28.1000   22.9350 C   0  0  0  0  0  0  0  0  0  0  0  0
  -20.5700  -28.3350   23.1910 C   0  0  0  0  0  3  0  0  0  0  0  0
  -20.6550  -26.9070   22.6030 C   0  0  0  0  0  2  0  0  0  0  0  0
  -19.5440  -26.6040   21.5930 C   0  0  0  0  0  2  0  0  0  0  0  0
  -18.1670  -26.7560   22.2460 C   0  0  0  0  0  2  0  0  0  0  0  0
  -19.1360  -28.8490   23.3650 C   0  0  0  0  0  0  0  0  0  0  0  0
  -18.9320  -30.1070   23.9690 C   0  0  0  0  0  3  0  0  0  0  0  0
  -17.6330  -30.6190   24.1490 C   0  0  0  0  0  3  0  0  0  0  0  0
  -16.5190  -29.8670   23.7350 C   0  0  0  0  0  3  0  0  0  0  0  0
  -16.7070  -28.6110   23.1340 C   0  0  0  0  0  3  0  0  0  0  0  0
  -25.8620  -32.4860   23.8680 C   0  0  0  0  0  3  0  0  0  0  0  0
  -26.3630  -31.7230   25.1550 C   0  0  1  0  0  0  0  0  0  0  0  0
  -25.2600  -31.5020   26.2160 C   0  0  0  0  0  1  0  0  0  0  0  0
  -26.9400  -30.3390   24.7780 C   0  0  0  0  0  1  0  0  0  0  0  0
  -27.5130  -32.5160   25.8210 C   0  0  0  0  0  1  0  0  0  0  0  0
  -25.5580  -33.8880   24.1860 N   0  0  0  0  0  0  0  0  0  0  0  0
  -25.9090  -34.9360   23.4260 C   0  0  0  0  0  0  0  0  0  0  0  0
  -26.5930  -34.8220   22.4060 O   0  0  0  0  0  0  0  0  0  0  0  0
  -24.9590  -34.0520   24.9810 H   0  0  0  0  0  0  0  0  0  0  0  0
  -24.2100  -36.7460   23.0260 C   0  0  0  0  0  1  0  0  0  0  0  0
  -25.4260  -36.3310   23.8710 C   0  0  0  0  0  3  0  0  0  0  0  0
  -27.5490  -37.1940   24.7520 C   0  0  0  0  0  1  0  0  0  0  0  0
  -26.4720  -37.3730   23.7810 N   0  0  0  0  0  0  0  0  0  0  0  0
  -26.0720  -38.2960   23.9180 H   0  0  0  0  0  0  0  0  0  0  0  0
  2  3  1  0
  3 54  1  0
  3  1  2  0
  4  1  1  0
  4 10  1  0
  5  4  2  0
  6  2  2  0
  6  5  1  0
  7  9  1  0
  8  9  1  0
  9  5  1  0
 10 11  1  0
 12 25  1  0
 13 18  1  0
 14 15  1  0
 14 13  1  0
 16 15  1  0
 16 29  1  0
 16 17  1  0
 18 12  1  0
 18 17  1  0
 19 12  2  0
 20 22  1  0
 21 23  1  0
 21 24  1  0
 23 25  1  0
 24 10  1  0
 24 20  1  0
 25 22  1  0
 26 27  2  0
 27 46  1  0
 28 27  1  0
 28 31  1  0
 29 26  1  0
 29 30  1  0
 30 28  2  0
 31 32  1  0
 32 33  2  0
 34 37  1  0
 34 33  1  0
 35 34  2  0
 36 35  1  0
 36 31  2  0
 37 38  1  0
 38 39  1  0
 39 40  2  0
 41 40  1  0
 41 45  1  0
 42 41  2  0
 43 38  2  0
 43 42  1  0
 44 43  1  0
 46 47  1  0
 47 50  1  0
 47 49  1  0
 48 46  2  0
 51 52  1  0
 51 26  1  0
 53 51  1  0
 54 55  1  0
 56 67  2  0
 57 55  1  0
 57 62  1  0
 58 66  1  0
 58 68  1  0
 59 65  1  0
 59 61  1  0
 60 66  1  0
 61 62  2  0
 61 60  1  0
 63 57  2  0
 64 63  1  0
 64 59  2  0
 65 58  1  0
 66 56  1  0
 68 70  2  0
 69 68  1  0
 71 69  1  0
 72 81  2  0
 72 77  1  0
 73 69  1  0
 73 77  1  0
 74 73  1  0
 75 76  1  0
 75 74  1  0
 76 72  1  0
 77 78  2  0
 78 79  1  0
 80 79  2  0
 81 80  1  0
 82 56  1  0
 82 87  1  0
 82 83  1  0
 83 86  1  1
 83 84  1  0
 85 83  1  0
 87 90  1  0
 88 92  1  0
 88 87  1  0
 89 88  2  0
 92 91  1  0
 94 92  1  0
 94 95  1  0
 94 93  1  0
M  ISO  4  12 100  25 100  54 101  55 101
M  END
>  <TORSDO>  (96) 
F 19

>  <SCORE>  (96) 
-14.695

>  <name>  (96) 
95

>  <ligand_id>  (96) 
95

>  <original_smiles>  (96) 
[H]c1nc(C([H])(C([H])([H])[H])C([H])([H])[H])c(N([H])C2([H])C([H])([H])C([H])([H])N(C(=O)N3C([H])([H])C([H])([H])C([H])([H])C([H])(n4nc(-c5c([H])c([H])c(Oc6c([H])c([H])c(F)c([H])c6F)c([H])c5[H])c(C(=O)N([H])[H])c4N([H])[H])C3([H])[H])C([H])([H])C2([H])[H])c([H])c1C([H])([H])Oc1c([H])c([H])c2c(c1[H])C([H])([H])N(C(=O)C([H])(N([H])C(=O)C([H])(N([H])C([H])([H])[H])C([H])([H])[H])C(C([H])([H])[H])(C([H])([H])[H])C([H])([H])[H])C([H])(C(=O)N([H])C1([H])c3c([H])c([H])c([H])c([H])c3C([H])([H])C([H])([H])C1([H])[H])C2([H])[H]

>  <smiles>  (96) 
[H]c1nc(C([H])(C([H])([H])[H])C([H])([H])[H])c(N([H])C2([H])C([H])([H])C([H])([H])N(C(=O)N3C([H])([H])C([H])([H])C([H])([H])C([H])(n4nc(-c5c([H])c([H])c(Oc6c([H])c([H])c(F)c([H])c6F)c([H])c5[H])c(C(=O)N([H])[H])c4N([H])[H])C3([H])[H])C([H])([H])C2([H])[H])c([H])c1C([H])([H])Oc1c([H])c([H])c2c(c1[H])C([H])([H])N(C(=O)C([H])(N([H])C(=O)C([H])(N([H])C([H])([H])[H])C([H])([H])[H])C(C([H])([H])[H])(C([H])([H])[H])C([H])([H])[H])C([H])(C(=O)N([H])C1([H])c3c([H])c([H])c([H])c([H])c3C([H])([H])C([H])([H])C1([H])[H])C2([H])[H]

$$$$
96:0:0
     RDKit          3D

 93103  0  0  1  0  0  0  0  0999 V2000
  -30.3350  -18.2740   19.7200 C   0  0  0  0  0  2  0  0  0  0  0  0
  -31.0180  -19.5330   19.3500 C   0  0  0  0  0  0  0  0  0  0  0  0
  -32.0250  -19.1170   18.4990 C   0  0  0  0  0  0  0  0  0  0  0  0
  -30.8670  -17.1960   18.9980 C   0  0  0  0  0  3  0  0  0  0  0  0
  -32.4900  -17.1170   17.0450 C   0  0  0  0  0  1  0  0  0  0  0  0
  -31.8060  -17.7790   18.1490 N   0  0  0  0  0  0  0  0  0  0  0  0
  -30.0930  -14.7320   19.6410 C   0  0  0  0  0  0  0  0  0  0  0  0
  -30.6270  -12.4160   20.4770 C   0  0  0  0  0  2  0  0  0  0  0  0
  -31.9160  -12.5010   21.3290 C   0  0  0  0  0  2  0  0  0  0  0  0
  -33.1820  -12.4160   20.4510 C   0  0  0  0  0  2  0  0  0  0  0  0
  -33.0940  -13.3430   19.2100 C   0  0  0  0  0  3  0  0  0  0  0  0
  -31.7390  -13.1870   18.4890 C   0  0  0  0  0  2  0  0  0  0  0  0
  -30.6790  -13.4950   19.4640 N   0  0  0  0  0  0  0  0  0  0  0  0
  -29.1310  -14.8520   20.4140 O   0  0  0  0  0  0  0  0  0  0  0  0
  -30.7210  -15.7880   18.9860 N   0  0  0  0  0  0  0  0  0  0  0  0
  -31.3770  -15.3780   18.3380 H   0  0  0  0  0  0  0  0  0  0  0  0
  -35.2850  -13.9870   18.0560 C   0  0  0  0  0  0  0  0  0  0  0  0
  -36.0860  -13.3260   17.1620 C   0  0  0  0  0  0  0  0  0  0  0  0
  -35.4350  -12.0830   16.8990 C   0  0  0  0  0  0  0  0  0  0  0  0
  -34.2110  -13.1480   18.2960 N   0  0  0  0  0  0  0  0  0  0  0  0
  -34.2750  -12.0210   17.5430 N   0  0  0  0  0  0  0  0  0  0  0  0
  -35.8840  -10.9180   16.1250 C   0  0  0  0  0  0  0  0  0  0  0  0
  -35.5240  -10.7420   14.7730 C   0  0  0  0  0  3  0  0  0  0  0  0
  -35.9870   -9.6250   14.0480 C   0  0  0  0  0  3  0  0  0  0  0  0
  -36.8240   -8.6720   14.6730 C   0  0  0  0  0  0  0  0  0  0  0  0
  -37.1560   -8.8340   16.0290 C   0  0  0  0  0  3  0  0  0  0  0  0
  -36.6880   -9.9450   16.7490 C   0  0  0  0  0  3  0  0  0  0  0  0
  -37.3010   -7.5450   14.0510 O   0  0  0  0  0  0  0  0  0  0  0  0
  -37.6460   -7.5470   12.7220 C   0  0  0  0  0  0  0  0  0  0  0  0
  -38.8990   -8.0230   12.2770 C   0  0  0  0  0  3  0  0  0  0  0  0
  -39.2400   -7.9380   10.9130 C   0  0  0  0  0  3  0  0  0  0  0  0
  -38.3360   -7.3730    9.9920 C   0  0  0  0  0  0  0  0  0  0  0  0
  -37.0920   -6.8940   10.4350 C   0  0  0  0  0  3  0  0  0  0  0  0
  -36.7480   -6.9780   11.7960 C   0  0  0  0  0  0  0  0  0  0  0  0
  -35.5540   -6.4960   12.2170 F   0  0  0  0  0  0  0  0  0  0  0  0
  -38.6670   -7.2840    8.6840 F   0  0  0  0  0  0  0  0  0  0  0  0
  -37.4310  -13.7780   16.6690 C   0  0  0  0  0  0  0  0  0  0  0  0
  -37.6030  -13.8710   15.3540 N   0  0  0  0  0  0  0  0  0  0  0  0
  -38.3250  -14.0960   17.4510 O   0  0  0  0  0  0  0  0  0  0  0  0
  -36.8650  -13.6240   14.7140 H   0  0  0  0  0  0  0  0  0  0  0  0
  -38.4870  -14.1940   14.9890 H   0  0  0  0  0  0  0  0  0  0  0  0
  -35.3880  -15.2160   18.7010 N   0  0  0  0  0  0  0  0  0  0  0  0
  -36.1720  -15.8410   18.5570 H   0  0  0  0  0  0  0  0  0  0  0  0
  -34.7580  -15.5360   19.4270 H   0  0  0  0  0  0  0  0  0  0  0  0
  -34.6320  -19.5360   18.3340 C   0  0  0  0  0  2  0  0  0  0  0  0
  -34.0130  -20.8630   18.6530 C   0  0  0  0  0  2  0  0  0  0  0  0
  -33.2050  -19.8330   17.8870 C   0  0  0  0  0  3  0  0  0  0  0  0
  -30.7350  -20.8710   19.7940 O   0  0  0  0  0  0  0  0  0  0  0  0
  -30.4710  -22.0170   18.8600 C   0  0  0  0  0  2  0  0  0  0  0  0
  -29.4840  -24.4760   18.5160 C   0  0  0  0  0  2  0  0  0  0  0  0
  -30.3850  -23.5630   19.3250 C   0  0  0  0  0  3  0  0  0  0  0  0
  -30.9530  -24.8500   18.5220 C   0  0  0  0  0  3  0  0  0  0  0  0
  -31.0350  -26.3080   18.9300 O   0  0  0  0  0  0  0  0  0  0  0  0
  -34.0260  -32.6140   16.8640 C   0  0  0  0  0  0  0  0  0  0  0  0
  -32.1920  -27.0550   18.5950 C   0  0  0  0  0  0  0  0  0  0  0  0
  -35.3720  -30.5740   16.5220 C   0  0  0  0  0  3  0  0  0  0  0  0
  -34.5480  -28.4700   17.7360 C   0  0  0  0  0  0  0  0  0  0  0  0
  -33.6700  -30.6930   18.4430 C   0  0  0  0  0  2  0  0  0  0  0  0
  -33.4970  -29.1770   18.3330 C   0  0  0  0  0  0  0  0  0  0  0  0
  -32.3330  -28.4730   18.7850 C   0  0  0  0  0  3  0  0  0  0  0  0
  -33.3000  -26.3890   18.0270 C   0  0  0  0  0  3  0  0  0  0  0  0
  -34.4580  -27.0750   17.6050 C   0  0  0  0  0  3  0  0  0  0  0  0
  -35.7520  -29.2580   17.2520 C   0  0  0  0  0  2  0  0  0  0  0  0
  -34.3170  -31.3400   17.2620 N   0  0  0  0  0  0  0  0  0  0  0  0
  -34.6320  -33.1520   15.9280 O   0  0  0  0  0  0  0  0  0  0  0  0
  -34.9820  -30.2480   15.0600 C   0  0  0  0  0  0  0  0  0  0  0  0
  -35.9690  -30.2550   14.1480 N   0  0  0  0  0  0  0  0  0  0  0  0
  -33.8150  -29.9670   14.7710 O   0  0  0  0  0  0  0  0  0  0  0  0
  -36.8990  -30.5000   14.4600 H   0  0  0  0  0  0  0  0  0  0  0  0
  -37.6000  -30.4890   10.9260 C   0  0  0  0  0  0  0  0  0  0  0  0
  -35.8300  -29.9320   12.7270 C   0  0  0  0  0  3  0  0  0  0  0  0
  -36.1750  -28.4480   12.4580 C   0  0  0  0  0  2  0  0  0  0  0  0
  -37.6400  -28.2310   12.0700 C   0  0  0  0  0  2  0  0  0  0  0  0
  -37.9830  -29.0230   10.8060 C   0  0  0  0  0  2  0  0  0  0  0  0
  -36.6000  -30.9180   11.8390 C   0  0  0  0  0  0  0  0  0  0  0  0
  -36.3090  -32.2960   11.9360 C   0  0  0  0  0  3  0  0  0  0  0  0
  -36.9910  -33.2360   11.1400 C   0  0  0  0  0  3  0  0  0  0  0  0
  -37.9680  -32.8030   10.2260 C   0  0  0  0  0  3  0  0  0  0  0  0
  -38.2680  -31.4340   10.1190 C   0  0  0  0  0  3  0  0  0  0  0  0
  -32.9310  -33.4620   17.5820 C   0  0  0  0  0  3  0  0  0  0  0  0
  -31.9020  -34.1210   16.5830 C   0  0  1  0  0  0  0  0  0  0  0  0
  -32.3370  -35.5120   16.0650 C   0  0  0  0  0  1  0  0  0  0  0  0
  -31.6710  -33.2130   15.3530 C   0  0  0  0  0  1  0  0  0  0  0  0
  -30.5290  -34.2850   17.2770 C   0  0  0  0  0  1  0  0  0  0  0  0
  -33.6170  -34.4960   18.3720 N   0  0  0  0  0  0  0  0  0  0  0  0
  -33.7470  -34.4770   19.7040 C   0  0  0  0  0  0  0  0  0  0  0  0
  -33.2360  -33.6050   20.4120 O   0  0  0  0  0  0  0  0  0  0  0  0
  -34.1060  -35.2100   17.8530 H   0  0  0  0  0  0  0  0  0  0  0  0
  -35.9930  -35.1020   20.6520 C   0  0  0  0  0  1  0  0  0  0  0  0
  -34.5710  -35.6050   20.3570 C   0  0  0  0  0  3  0  0  0  0  0  0
  -32.8830  -37.0840   21.3530 C   0  0  0  0  0  1  0  0  0  0  0  0
  -33.9660  -36.1360   21.5980 N   0  0  0  0  0  0  0  0  0  0  0  0
  -34.6660  -36.5970   22.1730 H   0  0  0  0  0  0  0  0  0  0  0  0
  2  1  1  0
  2 48  1  0
  3  2  2  0
  4 15  1  0
  4  1  1  0
  5  6  1  0
  6  3  1  0
  6  4  1  0
  7 14  2  0
  8  9  1  0
 10  9  1  0
 11 20  1  0
 11 10  1  0
 12 11  1  0
 12 13  1  0
 13  7  1  0
 13  8  1  0
 15  7  1  0
 16 15  1  0
 17 20  1  0
 17 42  1  0
 18 17  2  0
 19 18  1  0
 19 21  2  0
 21 20  1  0
 22 27  1  0
 22 19  1  0
 23 22  2  0
 24 25  2  0
 24 23  1  0
 25 26  1  0
 26 27  2  0
 28 25  1  0
 29 28  1  0
 30 29  1  0
 31 30  2  0
 32 33  2  0
 32 31  1  0
 33 34  1  0
 34 35  1  0
 34 29  2  0
 36 32  1  0
 37 18  1  0
 37 39  2  0
 38 37  1  0
 40 38  1  0
 41 38  1  0
 42 44  1  0
 43 42  1  0
 45 46  1  0
 47 45  1  0
 47  3  1  0
 47 46  1  0
 49 48  1  0
 50 52  1  0
 50 51  1  0
 51 49  1  0
 52 53  1  0
 52 51  1  0
 54 64  1  0
 55 60  1  0
 55 53  1  0
 56 66  1  0
 56 63  1  0
 56 64  1  0
 57 59  1  0
 59 58  1  0
 59 60  2  0
 61 55  2  0
 62 57  2  0
 62 61  1  0
 63 57  1  0
 64 58  1  0
 65 54  2  0
 67 69  1  0
 67 66  1  0
 68 66  2  0
 70 75  1  0
 71 67  1  0
 72 71  1  0
 73 72  1  0
 74 70  1  0
 74 73  1  0
 75 76  2  0
 75 71  1  0
 77 76  1  0
 78 77  2  0
 79 78  1  0
 79 70  2  0
 80 54  1  0
 80 85  1  0
 81 84  1  1
 81 80  1  0
 82 81  1  0
 83 81  1  0
 85 86  1  0
 86 90  1  0
 86 87  2  0
 88 85  1  0
 90 89  1  0
 90 92  1  0
 91 92  1  0
 92 93  1  0
M  ISO  4   7 100  15 100  52 101  53 101
M  END
>  <TORSDO>  (97) 
F 20

>  <SCORE>  (97) 
-4.643

>  <name>  (97) 
96

>  <ligand_id>  (97) 
96

>  <original_smiles>  (97) 
[H]c1c([H])c([H])c2c(c1[H])C([H])([H])C([H])([H])C([H])([H])C2([H])N([H])C(=O)C1([H])N(C(=O)C([H])(N([H])C(=O)C([H])(N([H])C([H])([H])[H])C([H])([H])[H])C(C([H])([H])[H])(C([H])([H])[H])C([H])([H])[H])C([H])([H])c2c([H])c(OC3([H])C([H])([H])C3([H])C([H])([H])Oc3c([H])c(N([H])C(=O)N4C([H])([H])C([H])([H])C([H])([H])C([H])(n5nc(-c6c([H])c([H])c(Oc7c([H])c([H])c(F)c([H])c7F)c([H])c6[H])c(C(=O)N([H])[H])c5N([H])[H])C4([H])[H])n(C([H])([H])[H])c3C3([H])C([H])([H])C3([H])[H])c([H])c([H])c2C1([H])[H]

>  <smiles>  (97) 
[H]c1c([H])c([H])c2c(c1[H])C([H])([H])C([H])([H])C([H])([H])C2([H])N([H])C(=O)C1([H])N(C(=O)C([H])(N([H])C(=O)C([H])(N([H])C([H])([H])[H])C([H])([H])[H])C(C([H])([H])[H])(C([H])([H])[H])C([H])([H])[H])C([H])([H])c2c([H])c(OC3([H])C([H])([H])C3([H])C([H])([H])Oc3c([H])c(N([H])C(=O)N4C([H])([H])C([H])([H])C([H])([H])C([H])(n5nc(-c6c([H])c([H])c(Oc7c([H])c([H])c(F)c([H])c7F)c([H])c6[H])c(C(=O)N([H])[H])c5N([H])[H])C4([H])[H])n(C([H])([H])[H])c3C3([H])C([H])([H])C3([H])[H])c([H])c([H])c2C1([H])[H]

$$$$
97:0:0
     RDKit          3D

 93102  0  0  1  0  0  0  0  0999 V2000
  -30.6920  -15.2740   20.3580 C   0  0  0  0  0  0  0  0  0  0  0  0
  -30.5960  -12.7860   19.6030 C   0  0  0  0  0  2  0  0  0  0  0  0
  -29.7090  -12.5030   18.3660 C   0  0  0  0  0  2  0  0  0  0  0  0
  -28.2430  -12.2990   18.7820 C   0  0  0  0  0  2  0  0  0  0  0  0
  -27.7820  -13.3460   19.8250 C   0  0  0  0  0  3  0  0  0  0  0  0
  -28.8030  -13.5610   20.9600 C   0  0  0  0  0  2  0  0  0  0  0  0
  -30.0540  -13.9980   20.3170 N   0  0  0  0  0  0  0  0  0  0  0  0
  -31.9280  -15.1700   20.3370 O   0  0  0  0  0  0  0  0  0  0  0  0
  -28.9660  -18.8950   17.2850 C   0  0  0  0  0  3  0  0  0  0  0  0
  -29.0400  -21.2190   18.0220 C   0  0  0  0  0  3  0  0  0  0  0  0
  -29.3290  -18.4670   18.5660 C   0  0  0  0  0  0  0  0  0  0  0  0
  -29.6130  -19.3860   19.6080 C   0  0  0  0  0  0  0  0  0  0  0  0
  -29.3800  -20.9540   19.3770 C   0  0  0  0  0  0  0  0  0  0  0  0
  -28.8850  -20.2600   17.0040 C   0  0  0  0  0  0  0  0  0  0  0  0
  -29.4820  -16.9360   18.8410 C   0  0  0  0  0  2  0  0  0  0  0  0
  -30.1480  -18.1800   20.6560 C   0  0  0  0  0  3  0  0  0  0  0  0
  -29.4680  -18.3410   22.0180 C   0  0  0  0  0  1  0  0  0  0  0  0
  -30.0140  -16.6100   20.1830 N   0  0  0  0  0  0  0  0  0  0  0  0
  -25.4310  -14.0340   20.5260 C   0  0  0  0  0  0  0  0  0  0  0  0
  -24.3200  -13.3190   20.8670 C   0  0  0  0  0  0  0  0  0  0  0  0
  -24.7160  -11.9440   20.8640 C   0  0  0  0  0  0  0  0  0  0  0  0
  -26.4320  -13.1020   20.3160 N   0  0  0  0  0  0  0  0  0  0  0  0
  -26.0130  -11.8400   20.5930 N   0  0  0  0  0  0  0  0  0  0  0  0
  -23.9160  -10.7250   21.0460 C   0  0  0  0  0  0  0  0  0  0  0  0
  -24.2940   -9.7270   21.9700 C   0  0  0  0  0  3  0  0  0  0  0  0
  -23.5000   -8.5720   22.1400 C   0  0  0  0  0  3  0  0  0  0  0  0
  -22.3140   -8.4070   21.3860 C   0  0  0  0  0  0  0  0  0  0  0  0
  -21.9580   -9.3900   20.4470 C   0  0  0  0  0  3  0  0  0  0  0  0
  -22.7500  -10.5370   20.2750 C   0  0  0  0  0  3  0  0  0  0  0  0
  -21.4950   -7.3080   21.4650 O   0  0  0  0  0  0  0  0  0  0  0  0
  -21.4370   -6.5320   22.5950 C   0  0  0  0  0  0  0  0  0  0  0  0
  -21.0950   -7.0730   23.8530 C   0  0  0  0  0  3  0  0  0  0  0  0
  -20.9810   -6.2290   24.9760 C   0  0  0  0  0  3  0  0  0  0  0  0
  -21.2010   -4.8450   24.8420 C   0  0  0  0  0  0  0  0  0  0  0  0
  -21.5340   -4.3030   23.5890 C   0  0  0  0  0  3  0  0  0  0  0  0
  -21.6520   -5.1450   22.4690 C   0  0  0  0  0  0  0  0  0  0  0  0
  -21.9540   -4.6140   21.2600 F   0  0  0  0  0  0  0  0  0  0  0  0
  -21.0830   -4.0330   25.9190 F   0  0  0  0  0  0  0  0  0  0  0  0
  -22.9410  -13.8690   21.0820 C   0  0  0  0  0  0  0  0  0  0  0  0
  -22.1530  -13.2320   21.9410 N   0  0  0  0  0  0  0  0  0  0  0  0
  -22.5710  -14.9030   20.5250 O   0  0  0  0  0  0  0  0  0  0  0  0
  -22.4680  -12.3990   22.4160 H   0  0  0  0  0  0  0  0  0  0  0  0
  -21.2230  -13.5820   22.1270 H   0  0  0  0  0  0  0  0  0  0  0  0
  -25.6730  -15.3920   20.3430 N   0  0  0  0  0  0  0  0  0  0  0  0
  -24.9480  -16.0940   20.4410 H   0  0  0  0  0  0  0  0  0  0  0  0
  -26.5700  -15.7830   20.0890 H   0  0  0  0  0  0  0  0  0  0  0  0
  -29.4570  -22.5460   20.1260 C   0  0  0  0  0  3  0  0  0  0  0  0
  -28.6080  -24.1310   19.7120 C   0  0  0  0  0  3  0  0  0  0  0  0
  -28.6800  -25.7480   20.1340 O   0  0  0  0  0  0  0  0  0  0  0  0
  -24.7580  -31.5270   23.1160 C   0  0  0  0  0  0  0  0  0  0  0  0
  -27.6450  -26.8340   20.0380 C   0  0  0  0  0  0  0  0  0  0  0  0
  -23.7080  -30.1560   21.3650 C   0  0  0  0  0  3  0  0  0  0  0  0
  -25.2840  -28.6550   19.9570 C   0  0  0  0  0  0  0  0  0  0  0  0
  -26.2700  -30.4480   21.3680 C   0  0  0  0  0  2  0  0  0  0  0  0
  -26.4240  -29.0670   20.6570 C   0  0  0  0  0  0  0  0  0  0  0  0
  -27.5960  -28.1770   20.6740 C   0  0  0  0  0  3  0  0  0  0  0  0
  -26.4740  -26.5900   19.2860 C   0  0  0  0  0  3  0  0  0  0  0  0
  -25.3350  -27.4410   19.2530 C   0  0  0  0  0  3  0  0  0  0  0  0
  -24.0330  -29.5350   19.9780 C   0  0  0  0  0  2  0  0  0  0  0  0
  -24.9310  -30.7400   22.0050 N   0  0  0  0  0  0  0  0  0  0  0  0
  -23.6340  -31.7590   23.5900 O   0  0  0  0  0  0  0  0  0  0  0  0
  -22.9960  -29.1030   22.2550 C   0  0  0  0  0  0  0  0  0  0  0  0
  -21.6670  -28.9530   22.1080 N   0  0  0  0  0  0  0  0  0  0  0  0
  -23.6510  -28.4230   23.0490 O   0  0  0  0  0  0  0  0  0  0  0  0
  -21.1900  -29.5480   21.4470 H   0  0  0  0  0  0  0  0  0  0  0  0
  -18.2670  -27.7630   22.5580 C   0  0  0  0  0  0  0  0  0  0  0  0
  -20.8340  -27.9670   22.8090 C   0  0  0  0  0  3  0  0  0  0  0  0
  -20.9050  -26.5880   22.1110 C   0  0  0  0  0  2  0  0  0  0  0  0
  -19.7840  -26.3720   21.0890 C   0  0  0  0  0  2  0  0  0  0  0  0
  -18.4140  -26.4790   21.7610 C   0  0  0  0  0  2  0  0  0  0  0  0
  -19.4020  -28.4700   23.0380 C   0  0  0  0  0  0  0  0  0  0  0  0
  -19.2070  -29.6760   23.7480 C   0  0  0  0  0  3  0  0  0  0  0  0
  -17.9110  -30.1740   23.9770 C   0  0  0  0  0  3  0  0  0  0  0  0
  -16.7900  -29.4640   23.5120 C   0  0  0  0  0  3  0  0  0  0  0  0
  -16.9700  -28.2590   22.8100 C   0  0  0  0  0  3  0  0  0  0  0  0
  -25.9690  -32.1940   23.8380 C   0  0  0  0  0  3  0  0  0  0  0  0
  -26.4300  -31.4020   25.1250 C   0  0  1  0  0  0  0  0  0  0  0  0
  -25.2830  -31.1030   26.1210 C   0  0  0  0  0  1  0  0  0  0  0  0
  -27.0720  -30.0510   24.7410 C   0  0  0  0  0  1  0  0  0  0  0  0
  -27.5200  -32.2060   25.8740 C   0  0  0  0  0  1  0  0  0  0  0  0
  -25.5850  -33.5700   24.2070 N   0  0  0  0  0  0  0  0  0  0  0  0
  -25.9030  -34.6670   23.5080 C   0  0  0  0  0  0  0  0  0  0  0  0
  -26.6100  -34.6320   22.4980 O   0  0  0  0  0  0  0  0  0  0  0  0
  -24.9640  -33.6660   24.9980 H   0  0  0  0  0  0  0  0  0  0  0  0
  -24.1110  -36.4050   23.1810 C   0  0  0  0  0  1  0  0  0  0  0  0
  -25.3500  -36.0190   24.0060 C   0  0  0  0  0  3  0  0  0  0  0  0
  -27.4210  -36.9640   24.9270 C   0  0  0  0  0  1  0  0  0  0  0  0
  -26.3400  -37.1170   23.9560 N   0  0  0  0  0  0  0  0  0  0  0  0
  -25.8920  -38.0140   24.1200 H   0  0  0  0  0  0  0  0  0  0  0  0
  -28.6240  -20.6640   15.7210 O   0  0  0  0  0  0  0  0  0  0  0  0
  -29.7730  -21.0010   14.9430 C   0  0  0  0  0  2  0  0  0  0  0  0
  -31.7180  -19.3020   15.0840 C   0  0  0  0  0  1  0  0  0  0  0  0
  -30.4590  -19.7600   14.3330 C   0  0  0  0  0  2  0  0  0  0  0  0
  2  7  1  0
  3  4  1  0
  3  2  1  0
  5  4  1  0
  5 22  1  0
  5  6  1  0
  7  1  1  0
  7  6  1  0
  8  1  2  0
  9 11  1  0
 10 13  2  0
 11 15  1  0
 11 12  2  0
 12 16  1  0
 13 12  1  0
 13 47  1  0
 14  9  2  0
 14 10  1  0
 15 18  1  0
 16 17  1  0
 18  1  1  0
 18 16  1  0
 19 20  2  0
 20 39  1  0
 21 20  1  0
 21 24  1  0
 22 19  1  0
 22 23  1  0
 23 21  2  0
 24 25  1  0
 25 26  2  0
 27 30  1  0
 27 26  1  0
 28 27  2  0
 29 28  1  0
 29 24  2  0
 30 31  1  0
 31 32  1  0
 32 33  2  0
 34 33  1  0
 34 38  1  0
 35 34  2  0
 36 31  2  0
 36 35  1  0
 37 36  1  0
 39 40  1  0
 40 43  1  0
 40 42  1  0
 41 39  2  0
 44 45  1  0
 44 19  1  0
 46 44  1  0
 48 47  2  0
 48 49  1  0
 50 61  2  0
 51 49  1  0
 51 56  1  0
 52 60  1  0
 52 62  1  0
 53 59  1  0
 53 55  1  0
 54 60  1  0
 55 56  2  0
 55 54  1  0
 57 51  2  0
 58 57  1  0
 58 53  2  0
 59 52  1  0
 60 50  1  0
 62 64  2  0
 63 62  1  0
 65 63  1  0
 66 75  2  0
 66 71  1  0
 67 63  1  0
 67 71  1  0
 68 67  1  0
 69 70  1  0
 69 68  1  0
 70 66  1  0
 71 72  2  0
 72 73  1  0
 74 73  2  0
 75 74  1  0
 76 50  1  0
 76 81  1  0
 76 77  1  0
 77 80  1  1
 77 78  1  0
 79 77  1  0
 81 84  1  0
 82 86  1  0
 82 81  1  0
 83 82  2  0
 86 85  1  0
 88 86  1  0
 88 89  1  0
 88 87  1  0
 90 14  1  0
 91 90  1  0
 93 91  1  0
 93 92  1  0
M  ISO  4   1 100  18 100  48 101  49 101
M  END
>  <TORSDO>  (98) 
F 20

>  <SCORE>  (98) 
-13.079

>  <name>  (98) 
97

>  <ligand_id>  (98) 
97

>  <original_smiles>  (98) 
[H]c1c([H])c([H])c2c(c1[H])C([H])([H])C([H])([H])C([H])([H])C2([H])N([H])C(=O)C1([H])N(C(=O)C([H])(N([H])C(=O)C([H])(N([H])C([H])([H])[H])C([H])([H])[H])C(C([H])([H])[H])(C([H])([H])[H])C([H])([H])[H])C([H])([H])c2c([H])c(OC([H])([H])C([H])([H])c3c([H])c(OC([H])([H])C([H])([H])C([H])([H])[H])c([H])c4c3C([H])(C([H])([H])[H])N(C(=O)N3C([H])([H])C([H])([H])C([H])([H])C([H])(n5nc(-c6c([H])c([H])c(Oc7c([H])c([H])c(F)c([H])c7F)c([H])c6[H])c(C(=O)N([H])[H])c5N([H])[H])C3([H])[H])C4([H])[H])c([H])c([H])c2C1([H])[H]

>  <smiles>  (98) 
[H]c1c([H])c([H])c2c(c1[H])C([H])([H])C([H])([H])C([H])([H])C2([H])N([H])C(=O)C1([H])N(C(=O)C([H])(N([H])C(=O)C([H])(N([H])C([H])([H])[H])C([H])([H])[H])C(C([H])([H])[H])(C([H])([H])[H])C([H])([H])[H])C([H])([H])c2c([H])c(OC([H])([H])C([H])([H])c3c([H])c(OC([H])([H])C([H])([H])C([H])([H])[H])c([H])c4c3C([H])(C([H])([H])[H])N(C(=O)N3C([H])([H])C([H])([H])C([H])([H])C([H])(n5nc(-c6c([H])c([H])c(Oc7c([H])c([H])c(F)c([H])c7F)c([H])c6[H])c(C(=O)N([H])[H])c5N([H])[H])C3([H])[H])C4([H])[H])c([H])c([H])c2C1([H])[H]

$$$$
