0:0:0
     RDKit          3D

 96106  0  0  1  0  0  0  0  0999 V2000
  -29.6230  -22.1870   20.0380 C   0  0  0  0  0  2  0  0  0  0  0  0
  -27.9340  -23.8620   19.0060 C   0  0  0  0  0  2  0  0  0  0  0  0
  -30.1330  -24.7180   19.8410 C   0  0  0  0  0  2  0  0  0  0  0  0
  -27.8000  -25.1140   18.1120 C   0  0  0  0  0  2  0  0  0  0  0  0
  -29.9780  -25.9940   18.9750 C   0  0  0  0  0  2  0  0  0  0  0  0
  -29.4170  -23.4950   19.2230 C   0  0  0  0  0  3  0  0  0  0  0  0
  -28.5060  -26.3680   18.6940 C   0  0  0  0  0  3  0  0  0  0  0  0
  -27.9980  -26.9170   19.9200 O   0  0  0  0  0  0  0  0  0  0  0  0
  -24.4740  -32.0710   23.3330 C   0  0  0  0  0  0  0  0  0  0  0  0
  -26.8600  -27.7000   19.9310 C   0  0  0  0  0  0  0  0  0  0  0  0
  -23.1530  -30.7510   21.7130 C   0  0  0  0  0  3  0  0  0  0  0  0
  -24.4960  -29.2490   20.1500 C   0  0  0  0  0  0  0  0  0  0  0  0
  -25.6730  -31.0730   21.3870 C   0  0  0  0  0  2  0  0  0  0  0  0
  -25.6960  -29.7290   20.6860 C   0  0  0  0  0  0  0  0  0  0  0  0
  -26.8790  -28.9590   20.5790 C   0  0  0  0  0  3  0  0  0  0  0  0
  -25.6300  -27.2240   19.4290 C   0  0  0  0  0  3  0  0  0  0  0  0
  -24.4570  -27.9940   19.5220 C   0  0  0  0  0  3  0  0  0  0  0  0
  -23.2710  -30.1230   20.2990 C   0  0  0  0  0  2  0  0  0  0  0  0
  -24.4550  -31.3110   22.2020 N   0  0  0  0  0  0  0  0  0  0  0  0
  -23.4290  -32.3430   23.9410 O   0  0  0  0  0  0  0  0  0  0  0  0
  -22.5360  -29.7060   22.6710 C   0  0  0  0  0  0  0  0  0  0  0  0
  -21.2170  -29.4870   22.5500 N   0  0  0  0  0  0  0  0  0  0  0  0
  -23.2410  -29.0960   23.4790 O   0  0  0  0  0  0  0  0  0  0  0  0
  -20.7090  -30.0350   21.8690 H   0  0  0  0  0  0  0  0  0  0  0  0
  -17.8940  -28.1380   22.9950 C   0  0  0  0  0  0  0  0  0  0  0  0
  -20.4290  -28.5240   23.3180 C   0  0  0  0  0  3  0  0  0  0  0  0
  -20.6130  -27.0910   22.7680 C   0  0  0  0  0  2  0  0  0  0  0  0
  -19.5500  -26.6990   21.7370 C   0  0  0  0  0  2  0  0  0  0  0  0
  -18.1490  -26.7880   22.3490 C   0  0  0  0  0  2  0  0  0  0  0  0
  -18.9640  -28.9600   23.4360 C   0  0  0  0  0  0  0  0  0  0  0  0
  -18.6730  -30.2220   23.9990 C   0  0  0  0  0  3  0  0  0  0  0  0
  -17.3420  -30.6630   24.1260 C   0  0  0  0  0  3  0  0  0  0  0  0
  -16.2850  -29.8390   23.7040 C   0  0  0  0  0  3  0  0  0  0  0  0
  -16.5620  -28.5780   23.1430 C   0  0  0  0  0  3  0  0  0  0  0  0
  -25.8040  -32.6570   23.9020 C   0  0  0  0  0  3  0  0  0  0  0  0
  -26.3560  -31.8530   25.1430 C   0  0  1  0  0  0  0  0  0  0  0  0
  -25.3030  -31.6140   26.2480 C   0  0  0  0  0  1  0  0  0  0  0  0
  -26.8970  -30.4730   24.7010 C   0  0  0  0  0  1  0  0  0  0  0  0
  -27.5470  -32.6140   25.7720 C   0  0  0  0  0  1  0  0  0  0  0  0
  -25.5510  -34.0590   24.2610 N   0  0  0  0  0  0  0  0  0  0  0  0
  -25.8910  -35.1120   23.5040 C   0  0  0  0  0  0  0  0  0  0  0  0
  -26.5220  -35.0020   22.4500 O   0  0  0  0  0  0  0  0  0  0  0  0
  -24.9860  -34.2210   25.0820 H   0  0  0  0  0  0  0  0  0  0  0  0
  -24.2040  -36.9580   23.2360 C   0  0  0  0  0  1  0  0  0  0  0  0
  -25.4620  -36.5080   23.9960 C   0  0  0  0  0  3  0  0  0  0  0  0
  -27.6470  -37.3230   24.7620 C   0  0  0  0  0  1  0  0  0  0  0  0
  -26.5210  -37.5310   23.8560 N   0  0  0  0  0  0  0  0  0  0  0  0
  -26.1480  -38.4610   24.0220 H   0  0  0  0  0  0  0  0  0  0  0  0
  -29.1440  -21.0640   19.2930 O   0  0  0  0  0  0  0  0  0  0  0  0
  -29.3570  -17.3830   19.2360 C   0  0  0  0  0  3  0  0  0  0  0  0
  -29.1940  -18.7260   18.8450 C   0  0  0  0  0  3  0  0  0  0  0  0
  -29.6680  -19.4460   21.1100 C   0  0  0  0  0  3  0  0  0  0  0  0
  -29.8550  -18.0990   21.5170 C   0  0  0  0  0  0  0  0  0  0  0  0
  -29.6930  -17.0550   20.5680 C   0  0  0  0  0  0  0  0  0  0  0  0
  -29.3370  -19.7780   19.7730 C   0  0  0  0  0  0  0  0  0  0  0  0
  -30.4350  -14.7360   20.2640 C   0  0  0  0  0  0  0  0  0  0  0  0
  -30.1640  -12.5900   19.0830 C   0  0  0  0  0  2  0  0  0  0  0  0
  -29.1700  -12.7970   17.9210 C   0  0  0  0  0  2  0  0  0  0  0  0
  -27.7160  -12.6070   18.4010 C   0  0  0  0  0  2  0  0  0  0  0  0
  -27.4060  -13.4030   19.6970 C   0  0  0  0  0  3  0  0  0  0  0  0
  -28.5100  -13.1790   20.7570 C   0  0  0  0  0  2  0  0  0  0  0  0
  -29.8080  -13.5330   20.1540 N   0  0  0  0  0  0  0  0  0  0  0  0
  -31.5120  -14.9850   19.7130 O   0  0  0  0  0  0  0  0  0  0  0  0
  -29.7590  -15.6800   20.9420 N   0  0  0  0  0  0  0  0  0  0  0  0
  -28.9510  -15.3280   21.4330 H   0  0  0  0  0  0  0  0  0  0  0  0
  -25.0260  -13.9290   20.5240 C   0  0  0  0  0  0  0  0  0  0  0  0
  -23.9890  -13.1190   20.9060 C   0  0  0  0  0  0  0  0  0  0  0  0
  -24.4770  -11.7800   20.8040 C   0  0  0  0  0  0  0  0  0  0  0  0
  -26.0800  -13.0810   20.2180 N   0  0  0  0  0  0  0  0  0  0  0  0
  -25.7530  -11.7820   20.4410 N   0  0  0  0  0  0  0  0  0  0  0  0
  -23.7870  -10.4950   20.9740 C   0  0  0  0  0  0  0  0  0  0  0  0
  -24.2610   -9.5160   21.8760 C   0  0  0  0  0  3  0  0  0  0  0  0
  -23.5700   -8.2970   22.0370 C   0  0  0  0  0  3  0  0  0  0  0  0
  -22.3900   -8.0450   21.2960 C   0  0  0  0  0  0  0  0  0  0  0  0
  -21.9350   -9.0130   20.3840 C   0  0  0  0  0  3  0  0  0  0  0  0
  -22.6260  -10.2260   20.2210 C   0  0  0  0  0  3  0  0  0  0  0  0
  -21.6680   -6.8790   21.3680 O   0  0  0  0  0  0  0  0  0  0  0  0
  -21.6740   -6.0960   22.4950 C   0  0  0  0  0  0  0  0  0  0  0  0
  -21.2670   -6.5950   23.7510 C   0  0  0  0  0  3  0  0  0  0  0  0
  -21.2230   -5.7380   24.8680 C   0  0  0  0  0  3  0  0  0  0  0  0
  -21.5760   -4.3810   24.7300 C   0  0  0  0  0  0  0  0  0  0  0  0
  -21.9760   -3.8820   23.4780 C   0  0  0  0  0  3  0  0  0  0  0  0
  -22.0220   -4.7370   22.3630 C   0  0  0  0  0  0  0  0  0  0  0  0
  -22.3880   -4.2450   21.1550 F   0  0  0  0  0  0  0  0  0  0  0  0
  -21.5270   -3.5560   25.8020 F   0  0  0  0  0  0  0  0  0  0  0  0
  -22.5960  -13.5530   21.2570 C   0  0  0  0  0  0  0  0  0  0  0  0
  -21.9320  -12.8240   22.1480 N   0  0  0  0  0  0  0  0  0  0  0  0
  -22.1030  -14.5720   20.7760 O   0  0  0  0  0  0  0  0  0  0  0  0
  -22.3440  -11.9990   22.5600 H   0  0  0  0  0  0  0  0  0  0  0  0
  -20.9980  -13.0960   22.4230 H   0  0  0  0  0  0  0  0  0  0  0  0
  -25.1540  -15.3080   20.3930 N   0  0  0  0  0  0  0  0  0  0  0  0
  -24.3830  -15.9440   20.5630 H   0  0  0  0  0  0  0  0  0  0  0  0
  -25.9870  -15.7770   20.0600 H   0  0  0  0  0  0  0  0  0  0  0  0
  -31.0250  -18.7590   23.7820 C   0  0  0  0  0  2  0  0  0  0  0  0
  -31.6050  -17.4300   23.3620 C   0  0  0  0  0  2  0  0  0  0  0  0
  -30.1980  -17.8020   22.9490 C   0  0  0  0  0  3  0  0  0  0  0  0
  2  6  1  0
  4  7  1  0
  4  2  1  0
  5  3  1  0
  6  3  1  0
  6  1  1  0
  7  5  1  0
  7  8  1  0
  8 10  1  0
  9 20  2  0
 10 15  1  0
 11 19  1  0
 11 21  1  0
 12 18  1  0
 12 14  1  0
 13 19  1  0
 14 13  1  0
 15 14  2  0
 16 17  1  0
 16 10  2  0
 17 12  2  0
 18 11  1  0
 19  9  1  0
 21 23  2  0
 22 21  1  0
 24 22  1  0
 25 34  2  0
 25 30  1  0
 26 22  1  0
 26 30  1  0
 27 26  1  0
 28 29  1  0
 28 27  1  0
 29 25  1  0
 30 31  2  0
 31 32  1  0
 33 32  2  0
 34 33  1  0
 35  9  1  0
 35 40  1  0
 35 36  1  0
 36 39  1  1
 36 37  1  0
 38 36  1  0
 40 43  1  0
 41 45  1  0
 41 40  1  0
 42 41  2  0
 45 44  1  0
 47 45  1  0
 47 48  1  0
 47 46  1  0
 49 55  1  0
 49  1  1  0
 50 54  1  0
 51 50  2  0
 51 55  1  0
 52 53  1  0
 53 96  1  0
 54 64  1  0
 54 53  2  0
 55 52  2  0
 56 64  1  0
 57 62  1  0
 58 59  1  0
 58 57  1  0
 60 59  1  0
 60 69  1  0
 60 61  1  0
 62 56  1  0
 62 61  1  0
 63 56  2  0
 64 65  1  0
 66 67  2  0
 67 86  1  0
 68 67  1  0
 68 71  1  0
 69 70  1  0
 69 66  1  0
 70 68  2  0
 71 72  1  0
 72 73  2  0
 74 77  1  0
 74 73  1  0
 75 74  2  0
 76 75  1  0
 76 71  2  0
 77 78  1  0
 78 79  1  0
 79 80  2  0
 81 80  1  0
 81 85  1  0
 82 81  2  0
 83 78  2  0
 83 82  1  0
 84 83  1  0
 86 87  1  0
 87 90  1  0
 87 89  1  0
 88 86  2  0
 91 66  1  0
 91 92  1  0
 93 91  1  0
 95 94  1  0
 96 95  1  0
 96 94  1  0
M  ISO  4   7 101   8 101  56 100  64 100
M  END
>  <TORSDO>  (1) 
F 20

>  <SCORE>  (1) 
-11.239

>  <name>  (1) 
0

>  <ligand_id>  (1) 
0

>  <original_smiles>  (1) 
[H]c1c([H])c([H])c2c(c1[H])C([H])([H])C([H])([H])C([H])([H])C2([H])N([H])C(=O)C1([H])N(C(=O)C([H])(N([H])C(=O)C([H])(N([H])C([H])([H])[H])C([H])([H])[H])C(C([H])([H])[H])(C([H])([H])[H])C([H])([H])[H])C([H])([H])c2c([H])c(OC3([H])C([H])([H])C([H])([H])C([H])(C([H])([H])Oc4c([H])c([H])c(N([H])C(=O)N5C([H])([H])C([H])([H])C([H])([H])C([H])(n6nc(-c7c([H])c([H])c(Oc8c([H])c([H])c(F)c([H])c8F)c([H])c7[H])c(C(=O)N([H])[H])c6N([H])[H])C5([H])[H])c(C5([H])C([H])([H])C5([H])[H])c4[H])C([H])([H])C3([H])[H])c([H])c([H])c2C1([H])[H]

>  <smiles>  (1) 
[H]c1c([H])c([H])c2c(c1[H])C([H])([H])C([H])([H])C([H])([H])C2([H])N([H])C(=O)C1([H])N(C(=O)C([H])(N([H])C(=O)C([H])(N([H])C([H])([H])[H])C([H])([H])[H])C(C([H])([H])[H])(C([H])([H])[H])C([H])([H])[H])C([H])([H])c2c([H])c(OC3([H])C([H])([H])C([H])([H])C([H])(C([H])([H])Oc4c([H])c([H])c(N([H])C(=O)N5C([H])([H])C([H])([H])C([H])([H])C([H])(n6nc(-c7c([H])c([H])c(Oc8c([H])c([H])c(F)c([H])c8F)c([H])c7[H])c(C(=O)N([H])[H])c6N([H])[H])C5([H])[H])c(C5([H])C([H])([H])C5([H])[H])c4[H])C([H])([H])C3([H])[H])c([H])c([H])c2C1([H])[H]

$$$$
1:0:0
     RDKit          3D

 93102  0  0  1  0  0  0  0  0999 V2000
  -32.0290  -21.6600   22.8130 C   0  0  0  0  0  3  0  0  0  0  0  0
  -31.0980  -22.1840   21.9120 C   0  0  0  0  0  3  0  0  0  0  0  0
  -32.0420  -20.2920   23.0590 C   0  0  0  0  0  3  0  0  0  0  0  0
  -30.2950  -19.9170   21.3280 C   0  0  0  0  0  0  0  0  0  0  0  0
  -30.1600  -21.3920   21.1910 C   0  0  0  0  0  0  0  0  0  0  0  0
  -31.1810  -19.4460   22.3500 C   0  0  0  0  0  0  0  0  0  0  0  0
  -29.9170  -18.2850   19.1680 C   0  0  0  0  0  2  0  0  0  0  0  0
  -29.6270  -18.6940   20.5890 C   0  0  0  0  0  3  0  0  0  0  0  0
  -30.4570  -17.3580   20.2440 C   0  0  0  0  0  3  0  0  0  0  0  0
  -30.7330  -14.7950   20.0640 C   0  0  0  0  0  0  0  0  0  0  0  0
  -30.4760  -12.5630   18.9820 C   0  0  0  0  0  2  0  0  0  0  0  0
  -29.4960  -12.6880   17.7950 C   0  0  0  0  0  2  0  0  0  0  0  0
  -28.0430  -12.5040   18.2730 C   0  0  0  0  0  2  0  0  0  0  0  0
  -27.7170  -13.3470   19.5340 C   0  0  0  0  0  3  0  0  0  0  0  0
  -28.8140  -13.2170   20.6120 C   0  0  0  0  0  2  0  0  0  0  0  0
  -30.0870  -13.5840   19.9820 N   0  0  0  0  0  0  0  0  0  0  0  0
  -31.9110  -14.8890   19.7090 O   0  0  0  0  0  0  0  0  0  0  0  0
  -29.9860  -15.9360   20.3140 N   0  0  0  0  0  0  0  0  0  0  0  0
  -29.0180  -15.7890   20.5500 H   0  0  0  0  0  0  0  0  0  0  0  0
  -25.3450  -13.9100   20.3320 C   0  0  0  0  0  0  0  0  0  0  0  0
  -24.2990  -13.1240   20.7320 C   0  0  0  0  0  0  0  0  0  0  0  0
  -24.7750  -11.7770   20.6860 C   0  0  0  0  0  0  0  0  0  0  0  0
  -26.3910  -13.0420   20.0630 N   0  0  0  0  0  0  0  0  0  0  0  0
  -26.0570  -11.7550   20.3390 N   0  0  0  0  0  0  0  0  0  0  0  0
  -24.0690  -10.5060   20.8930 C   0  0  0  0  0  0  0  0  0  0  0  0
  -24.5110   -9.5640   21.8470 C   0  0  0  0  0  3  0  0  0  0  0  0
  -23.8040   -8.3570   22.0420 C   0  0  0  0  0  3  0  0  0  0  0  0
  -22.6420   -8.0850   21.2820 C   0  0  0  0  0  0  0  0  0  0  0  0
  -22.2200   -9.0170   20.3170 C   0  0  0  0  0  3  0  0  0  0  0  0
  -22.9280  -10.2150   20.1210 C   0  0  0  0  0  3  0  0  0  0  0  0
  -21.9070   -6.9290   21.3840 O   0  0  0  0  0  0  0  0  0  0  0  0
  -21.8230   -6.2320   22.5630 C   0  0  0  0  0  0  0  0  0  0  0  0
  -21.3090   -6.8190   23.7400 C   0  0  0  0  0  3  0  0  0  0  0  0
  -21.1740   -6.0460   24.9100 C   0  0  0  0  0  3  0  0  0  0  0  0
  -21.5430   -4.6870   24.9040 C   0  0  0  0  0  0  0  0  0  0  0  0
  -22.0500   -4.1000   23.7320 C   0  0  0  0  0  3  0  0  0  0  0  0
  -22.1850   -4.8710   22.5640 C   0  0  0  0  0  0  0  0  0  0  0  0
  -22.6540   -4.2950   21.4310 F   0  0  0  0  0  0  0  0  0  0  0  0
  -21.4070   -3.9420   26.0260 F   0  0  0  0  0  0  0  0  0  0  0  0
  -22.9040  -13.5840   21.0400 C   0  0  0  0  0  0  0  0  0  0  0  0
  -22.2050  -12.8800   21.9220 N   0  0  0  0  0  0  0  0  0  0  0  0
  -22.4420  -14.6070   20.5340 O   0  0  0  0  0  0  0  0  0  0  0  0
  -22.5910  -12.0540   22.3550 H   0  0  0  0  0  0  0  0  0  0  0  0
  -21.2700  -13.1720   22.1700 H   0  0  0  0  0  0  0  0  0  0  0  0
  -25.4870  -15.2820   20.1520 N   0  0  0  0  0  0  0  0  0  0  0  0
  -24.7130  -15.9240   20.2790 H   0  0  0  0  0  0  0  0  0  0  0  0
  -26.3070  -15.7270   19.7580 H   0  0  0  0  0  0  0  0  0  0  0  0
  -30.4970  -17.8010   23.8590 C   0  0  0  0  0  1  0  0  0  0  0  0
  -31.2430  -18.1200   22.6930 O   0  0  0  0  0  0  0  0  0  0  0  0
  -29.0920  -22.2790   20.4040 C   0  0  0  0  0  2  0  0  0  0  0  0
  -29.1450  -23.9100   20.6040 C   0  0  0  0  0  3  0  0  0  0  0  0
  -28.0700  -24.9580   20.0240 C   0  0  0  0  0  3  0  0  0  0  0  0
  -28.2710  -26.4330   20.2470 O   0  0  0  0  0  0  0  0  0  0  0  0
  -24.5480  -31.8870   23.2340 C   0  0  0  0  0  0  0  0  0  0  0  0
  -27.1670  -27.3130   20.1720 C   0  0  0  0  0  0  0  0  0  0  0  0
  -23.3520  -30.4940   21.5860 C   0  0  0  0  0  3  0  0  0  0  0  0
  -24.8080  -28.9510   20.1530 C   0  0  0  0  0  0  0  0  0  0  0  0
  -25.8930  -30.8090   21.4140 C   0  0  0  0  0  2  0  0  0  0  0  0
  -25.9760  -29.4310   20.7580 C   0  0  0  0  0  0  0  0  0  0  0  0
  -27.1590  -28.6250   20.7550 C   0  0  0  0  0  3  0  0  0  0  0  0
  -25.9760  -26.9030   19.5310 C   0  0  0  0  0  3  0  0  0  0  0  0
  -24.8130  -27.6950   19.5290 C   0  0  0  0  0  3  0  0  0  0  0  0
  -23.5700  -29.8260   20.2040 C   0  0  0  0  0  2  0  0  0  0  0  0
  -24.6160  -31.0810   22.1350 N   0  0  0  0  0  0  0  0  0  0  0  0
  -23.4610  -32.1610   23.7670 O   0  0  0  0  0  0  0  0  0  0  0  0
  -22.6870  -29.4710   22.5410 C   0  0  0  0  0  0  0  0  0  0  0  0
  -21.3680  -29.2660   22.3870 N   0  0  0  0  0  0  0  0  0  0  0  0
  -23.3590  -28.8680   23.3810 O   0  0  0  0  0  0  0  0  0  0  0  0
  -20.8840  -29.8060   21.6820 H   0  0  0  0  0  0  0  0  0  0  0  0
  -18.0070  -27.9950   22.8180 C   0  0  0  0  0  0  0  0  0  0  0  0
  -20.5510  -28.3190   23.1480 C   0  0  0  0  0  3  0  0  0  0  0  0
  -20.7010  -26.8830   22.5930 C   0  0  0  0  0  2  0  0  0  0  0  0
  -19.6320  -26.5230   21.5560 C   0  0  0  0  0  2  0  0  0  0  0  0
  -18.2320  -26.6430   22.1640 C   0  0  0  0  0  2  0  0  0  0  0  0
  -19.0970  -28.7890   23.2670 C   0  0  0  0  0  0  0  0  0  0  0  0
  -18.8330  -30.0530   23.8380 C   0  0  0  0  0  3  0  0  0  0  0  0
  -17.5130  -30.5240   23.9660 C   0  0  0  0  0  3  0  0  0  0  0  0
  -16.4380  -29.7290   23.5340 C   0  0  0  0  0  3  0  0  0  0  0  0
  -16.6850  -28.4660   22.9660 C   0  0  0  0  0  3  0  0  0  0  0  0
  -25.8250  -32.5220   23.8630 C   0  0  0  0  0  3  0  0  0  0  0  0
  -25.5170  -33.9230   24.1820 N   0  0  0  0  0  0  0  0  0  0  0  0
  -25.8520  -34.9710   23.4160 C   0  0  0  0  0  0  0  0  0  0  0  0
  -26.5240  -34.8590   22.3880 O   0  0  0  0  0  0  0  0  0  0  0  0
  -24.9240  -34.0850   24.9820 H   0  0  0  0  0  0  0  0  0  0  0  0
  -24.1320  -36.7680   23.0410 C   0  0  0  0  0  1  0  0  0  0  0  0
  -25.3670  -36.3640   23.8630 C   0  0  0  0  0  3  0  0  0  0  0  0
  -27.4950  -37.2500   24.7100 C   0  0  0  0  0  1  0  0  0  0  0  0
  -26.4040  -37.4130   23.7520 N   0  0  0  0  0  0  0  0  0  0  0  0
  -25.9990  -38.3350   23.8870 H   0  0  0  0  0  0  0  0  0  0  0  0
  -26.3280  -31.7610   25.1520 C   0  0  1  0  0  0  0  0  0  0  0  0
  -25.2210  -31.5230   26.2050 C   0  0  0  0  0  1  0  0  0  0  0  0
  -26.9260  -30.3850   24.7780 C   0  0  0  0  0  1  0  0  0  0  0  0
  -27.4640  -32.5660   25.8270 C   0  0  0  0  0  1  0  0  0  0  0  0
  1  3  1  0
  2  1  2  0
  4  6  1  0
  5  4  2  0
  5  2  1  0
  6 49  1  0
  6  3  2  0
  7  9  1  0
  7  8  1  0
  8  4  1  0
  9 18  1  0
  9  8  1  0
 10 18  1  0
 11 16  1  0
 12 13  1  0
 12 11  1  0
 14 13  1  0
 14 23  1  0
 14 15  1  0
 16 10  1  0
 16 15  1  0
 17 10  2  0
 18 19  1  0
 20 21  2  0
 21 40  1  0
 22 21  1  0
 22 25  1  0
 23 20  1  0
 23 24  1  0
 24 22  2  0
 25 26  1  0
 26 27  2  0
 28 31  1  0
 28 27  1  0
 29 28  2  0
 30 29  1  0
 30 25  2  0
 31 32  1  0
 32 37  2  0
 32 33  1  0
 33 34  2  0
 35 34  1  0
 35 39  1  0
 36 35  2  0
 37 36  1  0
 38 37  1  0
 40 41  1  0
 41 44  1  0
 41 43  1  0
 42 40  2  0
 45 46  1  0
 45 20  1  0
 47 45  1  0
 49 48  1  0
 50 51  1  0
 50  5  1  0
 52 53  1  0
 52 51  2  0
 54 65  2  0
 55 53  1  0
 55 60  1  0
 56 64  1  0
 56 66  1  0
 57 63  1  0
 57 59  1  0
 58 64  1  0
 59 58  1  0
 60 59  2  0
 61 55  2  0
 62 61  1  0
 62 57  2  0
 63 56  1  0
 64 54  1  0
 66 68  2  0
 67 66  1  0
 69 67  1  0
 70 79  2  0
 70 75  1  0
 71 67  1  0
 71 75  1  0
 72 71  1  0
 73 74  1  0
 73 72  1  0
 74 70  1  0
 75 76  2  0
 76 77  1  0
 78 77  2  0
 79 78  1  0
 80 54  1  0
 80 81  1  0
 80 90  1  0
 81 84  1  0
 82 86  1  0
 82 81  1  0
 83 82  2  0
 86 85  1  0
 88 86  1  0
 88 89  1  0
 88 87  1  0
 90 93  1  1
 90 91  1  0
 92 90  1  0
M  ISO  4  10 100  18 100  52 101  53 101
M  END
>  <TORSDO>  (2) 
F 21

>  <SCORE>  (2) 
-12.434

>  <name>  (2) 
1

>  <ligand_id>  (2) 
1

>  <original_smiles>  (2) 
[H]c1c([H])c(OC([H])([H])[H])c(C2([H])C([H])([H])C2([H])N([H])C(=O)N2C([H])([H])C([H])([H])C([H])([H])C([H])(n3nc(-c4c([H])c([H])c(Oc5c([H])c([H])c(F)c([H])c5F)c([H])c4[H])c(C(=O)N([H])[H])c3N([H])[H])C2([H])[H])c(C([H])([H])C([H])([H])C([H])([H])Oc2c([H])c([H])c3c(c2[H])C([H])([H])N(C(=O)C([H])(N([H])C(=O)C([H])(N([H])C([H])([H])[H])C([H])([H])[H])C(C([H])([H])[H])(C([H])([H])[H])C([H])([H])[H])C([H])(C(=O)N([H])C2([H])c4c([H])c([H])c([H])c([H])c4C([H])([H])C([H])([H])C2([H])[H])C3([H])[H])c1[H]

>  <smiles>  (2) 
[H]c1c([H])c(OC([H])([H])[H])c(C2([H])C([H])([H])C2([H])N([H])C(=O)N2C([H])([H])C([H])([H])C([H])([H])C([H])(n3nc(-c4c([H])c([H])c(Oc5c([H])c([H])c(F)c([H])c5F)c([H])c4[H])c(C(=O)N([H])[H])c3N([H])[H])C2([H])[H])c(C([H])([H])C([H])([H])C([H])([H])Oc2c([H])c([H])c3c(c2[H])C([H])([H])N(C(=O)C([H])(N([H])C(=O)C([H])(N([H])C([H])([H])[H])C([H])([H])[H])C(C([H])([H])[H])(C([H])([H])[H])C([H])([H])[H])C([H])(C(=O)N([H])C2([H])c4c([H])c([H])c([H])c([H])c4C([H])([H])C([H])([H])C2([H])[H])C3([H])[H])c1[H]

$$$$
2:0:0
     RDKit          3D

 93102  0  0  1  0  0  0  0  0999 V2000
  -29.6550  -18.4490   18.1740 C   0  0  0  0  0  3  0  0  0  0  0  0
  -29.4890  -19.7220   18.7450 C   0  0  0  0  0  0  0  0  0  0  0  0
  -29.8460  -17.2930   18.9500 C   0  0  0  0  0  0  0  0  0  0  0  0
  -29.8850  -17.3680   20.3690 C   0  0  0  0  0  0  0  0  0  0  0  0
  -29.5400  -19.8130   20.1620 C   0  0  0  0  0  0  0  0  0  0  0  0
  -29.9390  -15.9900   18.1790 C   0  0  0  0  0  1  0  0  0  0  0  0
  -29.7310  -18.6490   20.9200 N   0  0  0  0  0  0  0  0  0  0  0  0
  -30.7270  -14.9610   21.0830 C   0  0  0  0  0  0  0  0  0  0  0  0
  -30.7080  -12.6030   20.2470 C   0  0  0  0  0  2  0  0  0  0  0  0
  -29.9350  -12.5180   18.9140 C   0  0  0  0  0  2  0  0  0  0  0  0
  -28.4120  -12.4050   19.1480 C   0  0  0  0  0  2  0  0  0  0  0  0
  -27.8790  -13.3350   20.2700 C   0  0  0  0  0  3  0  0  0  0  0  0
  -28.7960  -13.3490   21.5100 C   0  0  0  0  0  2  0  0  0  0  0  0
  -30.1430  -13.7120   21.0550 N   0  0  0  0  0  0  0  0  0  0  0  0
  -31.9430  -15.0580   20.8840 O   0  0  0  0  0  0  0  0  0  0  0  0
  -29.9040  -16.0910   21.1480 N   0  0  0  0  0  0  0  0  0  0  0  0
  -29.0330  -15.9200   21.6270 H   0  0  0  0  0  0  0  0  0  0  0  0
  -25.4310  -13.8990   20.7690 C   0  0  0  0  0  0  0  0  0  0  0  0
  -24.3430  -13.1160   21.0440 C   0  0  0  0  0  0  0  0  0  0  0  0
  -24.8230  -11.7690   21.0670 C   0  0  0  0  0  0  0  0  0  0  0  0
  -26.4980  -13.0290   20.6320 N   0  0  0  0  0  0  0  0  0  0  0  0
  -26.1360  -11.7440   20.8790 N   0  0  0  0  0  0  0  0  0  0  0  0
  -24.0990  -10.4980   21.2020 C   0  0  0  0  0  0  0  0  0  0  0  0
  -24.4510   -9.5520   22.1900 C   0  0  0  0  0  3  0  0  0  0  0  0
  -23.7260   -8.3460   22.3110 C   0  0  0  0  0  3  0  0  0  0  0  0
  -22.6430   -8.0780   21.4410 C   0  0  0  0  0  0  0  0  0  0  0  0
  -22.3110   -9.0150   20.4470 C   0  0  0  0  0  3  0  0  0  0  0  0
  -23.0340  -10.2140   20.3240 C   0  0  0  0  0  3  0  0  0  0  0  0
  -21.9060   -6.9190   21.4630 O   0  0  0  0  0  0  0  0  0  0  0  0
  -21.7420   -6.1910   22.6140 C   0  0  0  0  0  0  0  0  0  0  0  0
  -21.1340   -6.7430   23.7610 C   0  0  0  0  0  3  0  0  0  0  0  0
  -20.9200   -5.9420   24.9020 C   0  0  0  0  0  3  0  0  0  0  0  0
  -21.3040   -4.5880   24.8920 C   0  0  0  0  0  0  0  0  0  0  0  0
  -21.9050   -4.0340   23.7470 C   0  0  0  0  0  3  0  0  0  0  0  0
  -22.1200   -4.8320   22.6110 C   0  0  0  0  0  0  0  0  0  0  0  0
  -22.6810   -4.2910   21.5030 F   0  0  0  0  0  0  0  0  0  0  0  0
  -21.0930   -3.8150   25.9810 F   0  0  0  0  0  0  0  0  0  0  0  0
  -22.9210  -13.5840   21.1620 C   0  0  0  0  0  0  0  0  0  0  0  0
  -22.1060  -12.8990   21.9560 N   0  0  0  0  0  0  0  0  0  0  0  0
  -22.5350  -14.5960   20.5790 O   0  0  0  0  0  0  0  0  0  0  0  0
  -22.4190  -12.0870   22.4670 H   0  0  0  0  0  0  0  0  0  0  0  0
  -21.1420  -13.1930   22.0450 H   0  0  0  0  0  0  0  0  0  0  0  0
  -25.6060  -15.2700   20.6020 N   0  0  0  0  0  0  0  0  0  0  0  0
  -24.8430  -15.9330   20.6790 H   0  0  0  0  0  0  0  0  0  0  0  0
  -26.4870  -15.7040   20.3580 H   0  0  0  0  0  0  0  0  0  0  0  0
  -28.0030  -21.2670   17.2050 C   0  0  0  0  0  2  0  0  0  0  0  0
  -29.1160  -20.7990   16.3110 C   0  0  0  0  0  2  0  0  0  0  0  0
  -29.3470  -20.9070   17.8120 C   0  0  0  0  0  3  0  0  0  0  0  0
  -29.5460  -21.0650   20.8570 O   0  0  0  0  0  0  0  0  0  0  0  0
  -28.6670  -22.2470   20.5610 C   0  0  0  0  0  3  0  0  0  0  0  0
  -29.2190  -23.7810   20.5870 C   0  0  0  0  0  3  0  0  0  0  0  0
  -28.2230  -24.9930   20.1570 C   0  0  0  0  0  2  0  0  0  0  0  0
  -28.4390  -26.4660   20.4520 O   0  0  0  0  0  0  0  0  0  0  0  0
  -24.6360  -31.9750   23.3630 C   0  0  0  0  0  0  0  0  0  0  0  0
  -27.3400  -27.3630   20.3750 C   0  0  0  0  0  0  0  0  0  0  0  0
  -23.4780  -30.5520   21.7180 C   0  0  0  0  0  3  0  0  0  0  0  0
  -24.9670  -28.9980   20.3290 C   0  0  0  0  0  0  0  0  0  0  0  0
  -26.0230  -30.8750   21.5800 C   0  0  0  0  0  2  0  0  0  0  0  0
  -26.1290  -29.4860   20.9450 C   0  0  0  0  0  0  0  0  0  0  0  0
  -27.3140  -28.6790   20.9600 C   0  0  0  0  0  3  0  0  0  0  0  0
  -26.1520  -26.9570   19.7210 C   0  0  0  0  0  3  0  0  0  0  0  0
  -24.9850  -27.7410   19.7140 C   0  0  0  0  0  3  0  0  0  0  0  0
  -23.7220  -29.8640   20.3510 C   0  0  0  0  0  2  0  0  0  0  0  0
  -24.7320  -31.1540   22.2760 N   0  0  0  0  0  0  0  0  0  0  0  0
  -23.5370  -32.2460   23.8730 O   0  0  0  0  0  0  0  0  0  0  0  0
  -22.8050  -29.5390   22.6750 C   0  0  0  0  0  0  0  0  0  0  0  0
  -21.4930  -29.3090   22.4900 N   0  0  0  0  0  0  0  0  0  0  0  0
  -23.4640  -28.9620   23.5430 O   0  0  0  0  0  0  0  0  0  0  0  0
  -21.0180  -29.8250   21.7610 H   0  0  0  0  0  0  0  0  0  0  0  0
  -18.1490  -27.9680   22.8550 C   0  0  0  0  0  0  0  0  0  0  0  0
  -20.6730  -28.3630   23.2510 C   0  0  0  0  0  3  0  0  0  0  0  0
  -20.8750  -26.9170   22.7390 C   0  0  0  0  0  2  0  0  0  0  0  0
  -19.8460  -26.5040   21.6810 C   0  0  0  0  0  2  0  0  0  0  0  0
  -18.4250  -26.6070   22.2410 C   0  0  0  0  0  2  0  0  0  0  0  0
  -19.2050  -28.7990   23.3170 C   0  0  0  0  0  0  0  0  0  0  0  0
  -18.8930  -30.0690   23.8490 C   0  0  0  0  0  3  0  0  0  0  0  0
  -17.5580  -30.5090   23.9260 C   0  0  0  0  0  3  0  0  0  0  0  0
  -16.5160  -29.6760   23.4810 C   0  0  0  0  0  3  0  0  0  0  0  0
  -16.8120  -28.4090   22.9490 C   0  0  0  0  0  3  0  0  0  0  0  0
  -25.8950  -32.6300   24.0070 C   0  0  0  0  0  3  0  0  0  0  0  0
  -25.5750  -34.0390   24.2820 N   0  0  0  0  0  0  0  0  0  0  0  0
  -25.9250  -35.0680   23.4960 C   0  0  0  0  0  0  0  0  0  0  0  0
  -26.6190  -34.9300   22.4860 O   0  0  0  0  0  0  0  0  0  0  0  0
  -24.9630  -34.2200   25.0640 H   0  0  0  0  0  0  0  0  0  0  0  0
  -24.2090  -36.8510   23.0370 C   0  0  0  0  0  1  0  0  0  0  0  0
  -25.4250  -36.4700   23.8960 C   0  0  0  0  0  3  0  0  0  0  0  0
  -27.5320  -37.3840   24.7670 C   0  0  0  0  0  1  0  0  0  0  0  0
  -26.4640  -37.5180   23.7810 N   0  0  0  0  0  0  0  0  0  0  0  0
  -26.0540  -38.4430   23.8830 H   0  0  0  0  0  0  0  0  0  0  0  0
  -26.3650  -31.9060   25.3280 C   0  0  1  0  0  0  0  0  0  0  0  0
  -25.2310  -31.6920   26.3580 C   0  0  0  0  0  1  0  0  0  0  0  0
  -26.9730  -30.5210   25.0080 C   0  0  0  0  0  1  0  0  0  0  0  0
  -27.4840  -32.7310   26.0070 C   0  0  0  0  0  1  0  0  0  0  0  0
  1  2  2  0
  1  3  1  0
  2  5  1  0
  3  4  2  0
  4  7  1  0
  4 16  1  0
  5 49  1  0
  5  7  2  0
  6  3  1  0
  8 16  1  0
  9 14  1  0
 10 11  1  0
 10  9  1  0
 12 11  1  0
 12 21  1  0
 12 13  1  0
 14  8  1  0
 14 13  1  0
 15  8  2  0
 16 17  1  0
 18 19  2  0
 19 20  1  0
 19 38  1  0
 20 23  1  0
 21 18  1  0
 21 22  1  0
 22 20  2  0
 23 24  1  0
 24 25  2  0
 26 29  1  0
 26 25  1  0
 27 26  2  0
 28 27  1  0
 28 23  2  0
 29 30  1  0
 30 31  1  0
 31 32  2  0
 33 32  1  0
 33 37  1  0
 34 33  2  0
 35 30  2  0
 35 34  1  0
 36 35  1  0
 38 39  1  0
 39 42  1  0
 39 41  1  0
 40 38  2  0
 43 44  1  0
 43 18  1  0
 45 43  1  0
 46 48  1  0
 47 46  1  0
 47 48  1  0
 48  2  1  0
 50 51  2  0
 50 49  1  0
 52 53  1  0
 52 51  1  0
 54 65  2  0
 55 53  1  0
 55 60  1  0
 56 64  1  0
 56 66  1  0
 57 63  1  0
 57 59  1  0
 58 64  1  0
 59 60  2  0
 59 58  1  0
 61 55  2  0
 62 61  1  0
 62 57  2  0
 63 56  1  0
 64 54  1  0
 66 68  2  0
 67 66  1  0
 69 67  1  0
 70 79  2  0
 70 75  1  0
 71 67  1  0
 71 75  1  0
 72 71  1  0
 73 74  1  0
 73 72  1  0
 74 70  1  0
 75 76  2  0
 76 77  1  0
 78 77  2  0
 79 78  1  0
 80 54  1  0
 80 81  1  0
 80 90  1  0
 81 84  1  0
 82 86  1  0
 82 81  1  0
 83 82  2  0
 86 85  1  0
 88 89  1  0
 88 86  1  0
 88 87  1  0
 90 93  1  1
 90 91  1  0
 92 90  1  0
M  ISO  4   8 100  16 100  52 101  53 101
M  END
>  <TORSDO>  (3) 
F 21

>  <SCORE>  (3) 
-12.357

>  <name>  (3) 
2

>  <ligand_id>  (3) 
2

>  <original_smiles>  (3) 
[H]c1c([H])c([H])c2c(c1[H])C([H])([H])C([H])([H])C([H])([H])C2([H])N([H])C(=O)C1([H])N(C(=O)C([H])(N([H])C(=O)C([H])(N([H])C([H])([H])[H])C([H])([H])[H])C(C([H])([H])[H])(C([H])([H])[H])C([H])([H])[H])C([H])([H])c2c([H])c(OC([H])([H])C([H])([H])C([H])([H])Oc3nc(N([H])C(=O)N4C([H])([H])C([H])([H])C([H])([H])C([H])(n5nc(-c6c([H])c([H])c(Oc7c([H])c([H])c(F)c([H])c7F)c([H])c6[H])c(C(=O)N([H])[H])c5N([H])[H])C4([H])[H])c(C([H])([H])[H])c([H])c3C3([H])C([H])([H])C3([H])[H])c([H])c([H])c2C1([H])[H]

>  <smiles>  (3) 
[H]c1c([H])c([H])c2c(c1[H])C([H])([H])C([H])([H])C([H])([H])C2([H])N([H])C(=O)C1([H])N(C(=O)C([H])(N([H])C(=O)C([H])(N([H])C([H])([H])[H])C([H])([H])[H])C(C([H])([H])[H])(C([H])([H])[H])C([H])([H])[H])C([H])([H])c2c([H])c(OC([H])([H])C([H])([H])C([H])([H])Oc3nc(N([H])C(=O)N4C([H])([H])C([H])([H])C([H])([H])C([H])(n5nc(-c6c([H])c([H])c(Oc7c([H])c([H])c(F)c([H])c7F)c([H])c6[H])c(C(=O)N([H])[H])c5N([H])[H])C4([H])[H])c(C([H])([H])[H])c([H])c3C3([H])C([H])([H])C3([H])[H])c([H])c([H])c2C1([H])[H]

$$$$
3:0:0
     RDKit          3D

 91 90  0  0  1  0  0  0  0  0999 V2000
  -26.3640  -24.9530   22.2090 C   0  0  0  0  0 15  0  0  0  0  0  0
  -25.5620  -24.4990   19.8430 C   0  0  0  0  0  1  0  0  0  0  0  0
  -26.0460  -27.1060   22.4040 C   0  0  0  0  0  1  0  0  0  0  0  0
  -25.1760  -26.3580   19.2850 C   0  0  0  0  0  2  0  0  0  0  0  0
  -26.5620  -23.3000   20.9550 C   0  0  0  0  0  1  0  0  0  0  0  0
  -25.4630  -27.9610   20.3590 C   0  0  0  0  0  2  0  0  0  0  0  0
  -26.5940  -28.7600   23.4820 C   0  0  0  0  0 15  0  0  0  0  0  0
  -26.4450  -30.8520   21.7080 C   0  0  0  0  0  2  0  0  0  0  0  0
  -25.6140  -29.6990   20.2270 O   0  0  0  0  0  1  0  0  0  0  0  0
  -28.5660  -18.5430   20.4250 C   0  0  0  0  0  1  0  0  0  0  0  0
  -29.7200  -15.3910   19.4100 C   0  0  0  0  0  2  0  0  0  0  0  0
  -29.4590  -13.9940   18.4570 C   0  0  0  0  0  2  0  0  0  0  0  0
  -28.4750  -12.9530   18.9820 C   0  0  0  0  0  2  0  0  0  0  0  0
  -27.5790  -13.8590   19.8120 C   0  0  0  0  0  3  0  0  0  0  0  0
  -28.2050  -15.1120   20.7590 C   0  0  0  0  0  2  0  0  0  0  0  0
  -28.6200  -16.6300   20.1280 N   0  0  0  0  0  2  0  0  0  0  0  0
  -29.8610  -18.1380   20.3130 O   0  0  0  0  0  1  0  0  0  0  0  0
  -27.5550  -20.6750   20.6620 N   0  0  0  0  0  1  0  0  0  0  0  0
  -28.4940  -20.9500   20.9260 H   0  0  0  0  0  0  0  0  0  0  0  0
  -25.2550  -13.9210   20.5660 C   0  0  0  0  0  0  0  0  0  0  0  0
  -24.2860  -13.0520   20.9350 C   0  0  0  0  0  0  0  0  0  0  0  0
  -24.8390  -11.7370   20.8230 C   0  0  0  0  0  0  0  0  0  0  0  0
  -26.3770  -13.1840   20.3210 N   0  0  0  0  0  0  0  0  0  0  0  0
  -26.1420  -11.8280   20.4740 N   0  0  0  0  0  0  0  0  0  0  0  0
  -24.1340  -10.4400   20.9950 C   0  0  0  0  0  0  0  0  0  0  0  0
  -24.5510   -9.4650   21.9320 C   0  0  0  0  0  3  0  0  0  0  0  0
  -23.8100   -8.2740   22.1200 C   0  0  0  0  0  3  0  0  0  0  0  0
  -22.6290   -8.0380   21.3740 C   0  0  0  0  0  0  0  0  0  0  0  0
  -22.2230   -9.0000   20.4330 C   0  0  0  0  0  3  0  0  0  0  0  0
  -22.9660  -10.1810   20.2440 C   0  0  0  0  0  3  0  0  0  0  0  0
  -21.8650   -6.8960   21.4660 O   0  0  0  0  0  0  0  0  0  0  0  0
  -21.7620   -6.1790   22.6340 C   0  0  0  0  0  0  0  0  0  0  0  0
  -21.2640   -6.7610   23.8200 C   0  0  0  0  0  3  0  0  0  0  0  0
  -21.1100   -5.9750   24.9800 C   0  0  0  0  0  3  0  0  0  0  0  0
  -21.4420   -4.6080   24.9550 C   0  0  0  0  0  0  0  0  0  0  0  0
  -21.9280   -4.0240   23.7730 C   0  0  0  0  0  3  0  0  0  0  0  0
  -22.0830   -4.8060   22.6140 C   0  0  0  0  0  0  0  0  0  0  0  0
  -22.5310   -4.2310   21.4720 F   0  0  0  0  0  0  0  0  0  0  0  0
  -21.2890   -3.8530   26.0680 F   0  0  0  0  0  0  0  0  0  0  0  0
  -22.8920  -13.4720   21.2650 C   0  0  0  0  0  0  0  0  0  0  0  0
  -22.2280  -12.7540   22.1570 N   0  0  0  0  0  0  0  0  0  0  0  0
  -22.4120  -14.4960   20.7790 O   0  0  0  0  0  0  0  0  0  0  0  0
  -22.6390  -11.9320   22.5730 H   0  0  0  0  0  0  0  0  0  0  0  0
  -21.2950  -13.0270   22.4290 H   0  0  0  0  0  0  0  0  0  0  0  0
  -25.2650  -15.3010   20.3880 N   0  0  0  0  0  0  0  0  0  0  0  0
  -24.4230  -15.8590   20.4890 H   0  0  0  0  0  0  0  0  0  0  0  0
  -26.0630  -15.8290   20.0580 H   0  0  0  0  0  0  0  0  0  0  0  0
  -23.9910  -27.4300   17.3670 C   0  0  0  0  0  1  0  0  0  0  0  0
  -25.3320  -26.8320   17.8340 C   0  0  0  0  0  3  0  0  0  0  0  0
  -26.5290  -27.9080   17.6120 C   0  0  0  0  0  2  0  0  0  0  0  0
  -27.4580  -28.3480   18.7070 O   0  0  0  0  0  0  0  0  0  0  0  0
  -24.8190  -31.0530   23.3430 C   0  0  0  0  0  0  0  0  0  0  0  0
  -28.7110  -27.9540   18.9310 C   0  0  0  0  0  3  0  0  0  0  0  0
  -24.0900  -28.4950   22.2880 C   0  0  0  0  0  2  0  0  0  0  0  0
  -27.4550  -26.7120   20.8170 C   0  0  0  0  0  2  0  0  0  0  0  0
  -27.5110  -29.2700   21.3340 C   0  0  0  0  0  2  0  0  0  0  0  0
  -28.1740  -28.0470   20.9360 C   0  0  0  0  0  3  0  0  0  0  0  0
  -29.1860  -28.3900   20.1400 C   0  0  0  0  0  2  0  0  0  0  0  0
  -28.5830  -26.6450   18.7640 C   0  0  0  0  0  2  0  0  0  0  0  0
  -27.9730  -26.0310   19.7410 C   0  0  0  0  0  2  0  0  0  0  0  0
  -24.7790  -26.5740   21.9940 C   0  0  0  0  0  1  0  0  0  0  0  0
  -25.1700  -29.6810   22.4620 N   0  0  0  0  0  0  0  0  0  0  0  0
  -23.6860  -31.5060   23.6080 O   0  0  0  0  0  0  0  0  0  0  0  0
  -23.0710  -28.8040   23.2320 C   0  0  0  0  0  0  0  0  0  0  0  0
  -21.8630  -29.1350   22.8070 N   0  0  0  0  0  0  0  0  0  0  0  0
  -23.4240  -28.6120   24.3770 O   0  0  0  0  0  0  0  0  0  0  0  0
  -21.7450  -29.3620   21.8280 H   0  0  0  0  0  0  0  0  0  0  0  0
  -18.4160  -28.1890   22.8510 C   0  0  0  0  0  0  0  0  0  0  0  0
  -20.8810  -28.2750   23.3950 C   0  0  0  0  0  3  0  0  0  0  0  0
  -20.9800  -26.8690   22.7510 C   0  0  0  0  0  2  0  0  0  0  0  0
  -20.0290  -26.6990   21.5800 C   0  0  0  0  0  2  0  0  0  0  0  0
  -18.6020  -26.8760   22.1030 C   0  0  0  0  0  2  0  0  0  0  0  0
  -19.5120  -28.8890   23.4010 C   0  0  0  0  0  0  0  0  0  0  0  0
  -19.3270  -30.1340   24.0350 C   0  0  0  0  0  3  0  0  0  0  0  0
  -18.0350  -30.6720   24.1520 C   0  0  0  0  0  3  0  0  0  0  0  0
  -16.9340  -29.9580   23.6450 C   0  0  0  0  0  3  0  0  0  0  0  0
  -17.1240  -28.7230   22.9970 C   0  0  0  0  0  3  0  0  0  0  0  0
  -25.8660  -32.3450   23.9150 C   0  0  0  0  0  3  0  0  0  0  0  0
  -25.3290  -33.8100   23.9460 N   0  0  0  0  0  0  0  0  0  0  0  0
  -25.8000  -34.9950   23.4120 C   0  0  0  0  0  0  0  0  0  0  0  0
  -26.6560  -35.0180   22.5260 O   0  0  0  0  0  0  0  0  0  0  0  0
  -24.5370  -33.9220   24.5630 H   0  0  0  0  0  0  0  0  0  0  0  0
  -23.9780  -36.7610   23.0460 C   0  0  0  0  0  1  0  0  0  0  0  0
  -25.2210  -36.3900   23.8730 C   0  0  0  0  0  3  0  0  0  0  0  0
  -27.2190  -37.5680   24.7830 C   0  0  0  0  0  1  0  0  0  0  0  0
  -26.1560  -37.5550   23.7840 N   0  0  0  0  0  0  0  0  0  0  0  0
  -25.6480  -38.4330   23.8530 H   0  0  0  0  0  0  0  0  0  0  0  0
  -26.5930  -32.1470   25.3280 C   0  0  1  0  0  0  0  0  0  0  0  0
  -25.5600  -31.6590   26.3520 C   0  0  0  0  0  1  0  0  0  0  0  0
  -27.8260  -31.2330   25.3460 C   0  0  0  0  0  1  0  0  0  0  0  0
  -27.2770  -33.4290   25.8850 C   0  0  0  0  0  1  0  0  0  0  0  0
  2  5  1  0
  4  6  1  0
  8 62  1  0
  9  6  1  0
 11 16  1  0
 12 13  1  0
 12 11  1  0
 14 13  1  0
 14 23  1  0
 14 15  1  0
 16 15  1  0
 17 10  1  0
 18 19  1  0
 20 21  2  0
 21 40  1  0
 22 21  1  0
 22 25  1  0
 23 24  1  0
 23 20  1  0
 24 22  2  0
 25 26  1  0
 26 27  2  0
 28 31  1  0
 28 27  1  0
 29 28  2  0
 30 29  1  0
 30 25  2  0
 31 32  1  0
 32 33  1  0
 33 34  2  0
 35 34  1  0
 35 39  1  0
 36 35  2  0
 37 32  2  0
 37 36  1  0
 38 37  1  0
 40 41  1  0
 41 44  1  0
 41 43  1  0
 42 40  2  0
 45 46  1  0
 45 20  1  0
 47 45  1  0
 49 48  1  0
 49  4  1  0
 50 49  1  0
 50 51  1  0
 52 63  2  0
 53 51  1  0
 53 58  1  0
 54 62  1  0
 54 64  1  0
 55 57  1  0
 56  8  1  0
 57 56  1  0
 58 57  1  0
 59 53  1  0
 59 60  1  0
 60 55  1  0
 61  3  1  0
 62 52  1  0
 64 66  2  0
 65 64  1  0
 67 65  1  0
 68 77  2  0
 68 73  1  0
 69 65  1  0
 69 73  1  0
 70 69  1  0
 71 72  1  0
 71 70  1  0
 72 68  1  0
 73 74  2  0
 74 75  1  0
 76 75  2  0
 77 76  1  0
 78 52  1  0
 78 79  1  0
 78 88  1  0
 79 82  1  0
 80 84  1  0
 80 79  1  0
 81 80  2  0
 84 83  1  0
 86 87  1  0
 86 84  1  0
 86 85  1  0
 88 90  1  6
 88 91  1  0
 88 89  1  0
M  ISO  4  10 100  18 100  50 101  51 101
M  END
>  <TORSDO>  (4) 
F 18

>  <SCORE>  (4) 
-13.532

>  <name>  (4) 
3

>  <ligand_id>  (4) 
3

>  <original_smiles>  (4) 
[H]c1c([H])c([H])c2c(c1[H])C([H])([H])C([H])([H])C([H])([H])C2([H])N([H])C(=O)C1([H])N(C(=O)C([H])(N([H])C(=O)C([H])(N([H])C([H])([H])[H])C([H])([H])[H])C(C([H])([H])[H])(C([H])([H])[H])C([H])([H])[H])C([H])([H])c2c([H])c(OC([H])([H])C([H])(c3c([H])c(N([H])C(=O)N4C([H])([H])C([H])([H])C([H])([H])C([H])(n5nc(-c6c([H])c([H])c(Oc7c([H])c([H])c(F)c([H])c7F)c([H])c6[H])c(C(=O)N([H])[H])c5N([H])[H])C4([H])[H])c([H])c4c3OC([H])([H])C4([H])[H])C([H])([H])[H])c([H])c([H])c2C1([H])[H]

>  <smiles>  (4) 
[H]c1c([H])c([H])c2c(c1[H])C([H])([H])C([H])([H])C([H])([H])C2([H])N([H])C(=O)C1([H])N(C(=O)C([H])(N([H])C(=O)C([H])(N([H])C([H])([H])[H])C([H])([H])[H])C(C([H])([H])[H])(C([H])([H])[H])C([H])([H])[H])C([H])([H])c2c([H])c(OC([H])([H])C([H])(c3c([H])c(N([H])C(=O)N4C([H])([H])C([H])([H])C([H])([H])C([H])(n5nc(-c6c([H])c([H])c(Oc7c([H])c([H])c(F)c([H])c7F)c([H])c6[H])c(C(=O)N([H])[H])c5N([H])[H])C4([H])[H])c([H])c4c3OC([H])([H])C4([H])[H])C([H])([H])[H])c([H])c([H])c2C1([H])[H]

$$$$
4:0:0
     RDKit          3D

100110  0  0  1  0  0  0  0  0999 V2000
  -30.7580  -23.3370   21.9140 C   0  0  0  0  0  0  0  0  0  0  0  0
  -30.4520  -22.4390   20.9680 N   0  0  0  0  0  0  0  0  0  0  0  0
  -31.0330  -23.0120   23.0700 O   0  0  0  0  0  0  0  0  0  0  0  0
  -30.2350  -22.7920   20.0470 H   0  0  0  0  0  0  0  0  0  0  0  0
  -29.5340  -25.5260   22.2120 C   0  0  0  0  0  2  0  0  0  0  0  0
  -30.7260  -25.1100   20.0140 C   0  0  0  0  0  2  0  0  0  0  0  0
  -29.5130  -27.0350   21.9220 C   0  0  0  0  0  2  0  0  0  0  0  0
  -30.7190  -26.6240   19.7290 C   0  0  0  0  0  2  0  0  0  0  0  0
  -30.7310  -24.8290   21.5350 C   0  0  0  0  0  3  0  0  0  0  0  0
  -29.5360  -27.3390   20.4060 C   0  0  0  0  0  3  0  0  0  0  0  0
  -28.3390  -26.8940   19.7650 O   0  0  0  0  0  0  0  0  0  0  0  0
  -24.4400  -31.7660   23.2600 C   0  0  0  0  0  0  0  0  0  0  0  0
  -27.1760  -27.6240   19.8960 C   0  0  0  0  0  0  0  0  0  0  0  0
  -23.2390  -30.4210   21.5610 C   0  0  0  0  0  3  0  0  0  0  0  0
  -24.7110  -29.0070   20.0330 C   0  0  0  0  0  0  0  0  0  0  0  0
  -25.7400  -30.8820   21.3320 C   0  0  0  0  0  2  0  0  0  0  0  0
  -25.8550  -29.5520   20.6240 C   0  0  0  0  0  0  0  0  0  0  0  0
  -27.0850  -28.8720   20.5570 C   0  0  0  0  0  3  0  0  0  0  0  0
  -26.0100  -27.0800   19.3170 C   0  0  0  0  0  3  0  0  0  0  0  0
  -24.7790  -27.7630   19.3790 C   0  0  0  0  0  3  0  0  0  0  0  0
  -23.4390  -29.8180   20.1440 C   0  0  0  0  0  2  0  0  0  0  0  0
  -24.4910  -31.0340   22.1120 N   0  0  0  0  0  0  0  0  0  0  0  0
  -23.3650  -31.9760   23.8360 O   0  0  0  0  0  0  0  0  0  0  0  0
  -22.6370  -29.3320   22.4760 C   0  0  0  0  0  0  0  0  0  0  0  0
  -21.3260  -29.0820   22.3200 N   0  0  0  0  0  0  0  0  0  0  0  0
  -23.3450  -28.7160   23.2770 O   0  0  0  0  0  0  0  0  0  0  0  0
  -20.8160  -29.6380   21.6480 H   0  0  0  0  0  0  0  0  0  0  0  0
  -18.0210  -27.6810   22.7020 C   0  0  0  0  0  0  0  0  0  0  0  0
  -20.5520  -28.0750   23.0420 C   0  0  0  0  0  3  0  0  0  0  0  0
  -20.7510  -26.6720   22.4210 C   0  0  0  0  0  2  0  0  0  0  0  0
  -19.6910  -26.3210   21.3720 C   0  0  0  0  0  2  0  0  0  0  0  0
  -18.2900  -26.3660   21.9880 C   0  0  0  0  0  2  0  0  0  0  0  0
  -19.0850  -28.4910   23.1820 C   0  0  0  0  0  0  0  0  0  0  0  0
  -18.7820  -29.7210   23.8050 C   0  0  0  0  0  3  0  0  0  0  0  0
  -17.4470  -30.1430   23.9550 C   0  0  0  0  0  3  0  0  0  0  0  0
  -16.3970  -29.3300   23.4920 C   0  0  0  0  0  3  0  0  0  0  0  0
  -16.6850  -28.1020   22.8710 C   0  0  0  0  0  3  0  0  0  0  0  0
  -25.7230  -32.3920   23.8910 C   0  0  0  0  0  3  0  0  0  0  0  0
  -26.2180  -31.6340   25.1840 C   0  0  1  0  0  0  0  0  0  0  0  0
  -25.1010  -31.3900   26.2250 C   0  0  0  0  0  1  0  0  0  0  0  0
  -26.8250  -30.2620   24.8100 C   0  0  0  0  0  1  0  0  0  0  0  0
  -27.3420  -32.4450   25.8700 C   0  0  0  0  0  1  0  0  0  0  0  0
  -25.4240  -33.7980   24.1940 N   0  0  0  0  0  0  0  0  0  0  0  0
  -25.7990  -34.8350   23.4320 C   0  0  0  0  0  0  0  0  0  0  0  0
  -26.5050  -34.7080   22.4270 O   0  0  0  0  0  0  0  0  0  0  0  0
  -24.8040  -33.9730   24.9700 H   0  0  0  0  0  0  0  0  0  0  0  0
  -24.1170  -36.6490   22.9820 C   0  0  0  0  0  1  0  0  0  0  0  0
  -25.3140  -36.2350   23.8530 C   0  0  0  0  0  3  0  0  0  0  0  0
  -27.4210  -37.0970   24.7720 C   0  0  0  0  0  1  0  0  0  0  0  0
  -26.3680  -37.2700   23.7760 N   0  0  0  0  0  0  0  0  0  0  0  0
  -25.9700  -38.1990   23.8940 H   0  0  0  0  0  0  0  0  0  0  0  0
  -30.3500  -20.9960   21.1640 C   0  0  0  0  0  2  0  0  0  0  0  0
  -32.9470  -18.6090   18.5940 C   0  0  0  0  0  3  0  0  0  0  0  0
  -33.0180  -20.0110   18.5620 C   0  0  0  0  0  3  0  0  0  0  0  0
  -32.0470  -17.9730   19.4660 C   0  0  0  0  0  3  0  0  0  0  0  0
  -32.1820  -20.7700   19.3990 C   0  0  0  0  0  3  0  0  0  0  0  0
  -31.2120  -18.7190   20.3330 C   0  0  0  0  0  0  0  0  0  0  0  0
  -31.2700  -20.1440   20.2830 C   0  0  0  0  0  0  0  0  0  0  0  0
  -30.2930  -14.2930   19.5960 C   0  0  0  0  0  0  0  0  0  0  0  0
  -29.9040  -12.1460   18.4490 C   0  0  0  0  0  2  0  0  0  0  0  0
  -28.7900  -12.3150   17.3960 C   0  0  0  0  0  2  0  0  0  0  0  0
  -27.4000  -12.1100   18.0290 C   0  0  0  0  0  2  0  0  0  0  0  0
  -27.2100  -12.9310   19.3320 C   0  0  0  0  0  3  0  0  0  0  0  0
  -28.4190  -12.7430   20.2770 C   0  0  0  0  0  2  0  0  0  0  0  0
  -29.6430  -13.1000   19.5370 N   0  0  0  0  0  0  0  0  0  0  0  0
  -31.2650  -14.5660   18.8820 O   0  0  0  0  0  0  0  0  0  0  0  0
  -28.9210  -17.6370   20.5310 C   0  0  0  0  0  2  0  0  0  0  0  0
  -30.7970  -16.7450   22.0070 C   0  0  0  0  0  2  0  0  0  0  0  0
  -29.0910  -16.4060   19.6260 C   0  0  0  0  0  2  0  0  0  0  0  0
  -30.0110  -15.4370   21.7450 C   0  0  0  0  0  2  0  0  0  0  0  0
  -30.2260  -17.9890   21.2670 C   0  0  0  0  0  3  0  0  0  0  0  0
  -29.6810  -15.2500   20.3240 N   0  0  0  0  0  0  0  0  0  0  0  0
  -24.9230  -13.4400   20.4040 C   0  0  0  0  0  0  0  0  0  0  0  0
  -23.9430  -12.6200   20.8980 C   0  0  0  0  0  0  0  0  0  0  0  0
  -24.4340  -11.2870   20.7500 C   0  0  0  0  0  0  0  0  0  0  0  0
  -25.9490  -12.6010   19.9920 N   0  0  0  0  0  0  0  0  0  0  0  0
  -25.6630  -11.3000   20.2540 N   0  0  0  0  0  0  0  0  0  0  0  0
  -23.7810   -9.9950   21.0010 C   0  0  0  0  0  0  0  0  0  0  0  0
  -24.2910   -9.0820   21.9490 C   0  0  0  0  0  3  0  0  0  0  0  0
  -23.6370   -7.8530   22.1850 C   0  0  0  0  0  3  0  0  0  0  0  0
  -22.4570   -7.5290   21.4720 C   0  0  0  0  0  0  0  0  0  0  0  0
  -21.9670   -8.4330   20.5130 C   0  0  0  0  0  3  0  0  0  0  0  0
  -22.6220   -9.6520   20.2770 C   0  0  0  0  0  3  0  0  0  0  0  0
  -21.7690   -6.3480   21.6150 O   0  0  0  0  0  0  0  0  0  0  0  0
  -21.6970   -5.7000   22.8220 C   0  0  0  0  0  0  0  0  0  0  0  0
  -21.1390   -6.3140   23.9640 C   0  0  0  0  0  3  0  0  0  0  0  0
  -21.0200   -5.5880   25.1660 C   0  0  0  0  0  3  0  0  0  0  0  0
  -21.4510   -4.2500   25.2260 C   0  0  0  0  0  0  0  0  0  0  0  0
  -22.0030   -3.6340   24.0880 C   0  0  0  0  0  3  0  0  0  0  0  0
  -22.1230   -4.3580   22.8890 C   0  0  0  0  0  0  0  0  0  0  0  0
  -22.6370   -3.7550   21.7890 F   0  0  0  0  0  0  0  0  0  0  0  0
  -21.3300   -3.5490   26.3780 F   0  0  0  0  0  0  0  0  0  0  0  0
  -22.5890  -13.0420   21.3910 C   0  0  0  0  0  0  0  0  0  0  0  0
  -22.0250  -12.2980   22.3370 N   0  0  0  0  0  0  0  0  0  0  0  0
  -22.0450  -14.0640   20.9750 O   0  0  0  0  0  0  0  0  0  0  0  0
  -22.4820  -11.4720   22.6940 H   0  0  0  0  0  0  0  0  0  0  0  0
  -21.1240  -12.5600   22.7120 H   0  0  0  0  0  0  0  0  0  0  0  0
  -25.0220  -14.8180   20.2560 N   0  0  0  0  0  0  0  0  0  0  0  0
  -24.2670  -15.4480   20.5030 H   0  0  0  0  0  0  0  0  0  0  0  0
  -25.8170  -15.2950   19.8470 H   0  0  0  0  0  0  0  0  0  0  0  0
  1  3  2  0
  2 52  1  0
  2  1  1  0
  4  2  1  0
  6  9  1  0
  7  5  1  0
  8  6  1  0
  8 10  1  0
  9  1  1  0
  9  5  1  0
 10 11  1  0
 10  7  1  0
 11 13  1  0
 12 23  2  0
 13 18  1  0
 14 22  1  0
 14 24  1  0
 15 21  1  0
 15 17  1  0
 16 22  1  0
 17 16  1  0
 18 17  2  0
 19 20  1  0
 19 13  2  0
 20 15  2  0
 21 14  1  0
 22 12  1  0
 24 26  2  0
 25 24  1  0
 27 25  1  0
 28 37  2  0
 28 33  1  0
 29 25  1  0
 29 33  1  0
 30 29  1  0
 31 32  1  0
 31 30  1  0
 32 28  1  0
 33 34  2  0
 34 35  1  0
 36 35  2  0
 37 36  1  0
 38 12  1  0
 38 43  1  0
 38 39  1  0
 39 42  1  1
 39 40  1  0
 41 39  1  0
 43 46  1  0
 44 48  1  0
 44 43  1  0
 45 44  2  0
 48 47  1  0
 50 48  1  0
 50 51  1  0
 50 49  1  0
 53 55  1  0
 54 53  2  0
 54 56  1  0
 55 57  2  0
 56 58  2  0
 58 57  1  0
 58 52  1  0
 59 72  1  0
 60 65  1  0
 61 62  1  0
 61 60  1  0
 63 62  1  0
 63 76  1  0
 63 64  1  0
 65 59  1  0
 65 64  1  0
 66 59  2  0
 67 71  1  0
 69 72  1  0
 69 67  1  0
 70 68  1  0
 71 57  1  0
 71 68  1  0
 72 70  1  0
 73 74  2  0
 74 93  1  0
 75 74  1  0
 75 78  1  0
 76 77  1  0
 76 73  1  0
 77 75  2  0
 78 79  1  0
 79 80  2  0
 81 84  1  0
 81 80  1  0
 82 81  2  0
 83 82  1  0
 83 78  2  0
 84 85  1  0
 85 90  2  0
 85 86  1  0
 86 87  2  0
 87 88  1  0
 88 92  1  0
 89 88  2  0
 90 89  1  0
 91 90  1  0
 93 94  1  0
 94 96  1  0
 94 97  1  0
 95 93  2  0
 98 73  1  0
 98 99  1  0
100 98  1  0
M  ISO  4  10 101  11 101  59 100  72 100
M  END
>  <TORSDO>  (5) 
F 19

>  <SCORE>  (5) 
-12.363

>  <name>  (5) 
4

>  <ligand_id>  (5) 
4

>  <original_smiles>  (5) 
[H]c1c([H])c([H])c(C2([H])C([H])([H])C([H])([H])N(C(=O)N3C([H])([H])C([H])([H])C([H])([H])C([H])(n4nc(-c5c([H])c([H])c(Oc6c([H])c([H])c(F)c([H])c6F)c([H])c5[H])c(C(=O)N([H])[H])c4N([H])[H])C3([H])[H])C([H])([H])C2([H])[H])c(C([H])([H])N([H])C(=O)C2([H])C([H])([H])C([H])([H])C([H])(Oc3c([H])c([H])c4c(c3[H])C([H])([H])N(C(=O)C([H])(N([H])C(=O)C([H])(N([H])C([H])([H])[H])C([H])([H])[H])C(C([H])([H])[H])(C([H])([H])[H])C([H])([H])[H])C([H])(C(=O)N([H])C3([H])c5c([H])c([H])c([H])c([H])c5C([H])([H])C([H])([H])C3([H])[H])C4([H])[H])C([H])([H])C2([H])[H])c1[H]

>  <smiles>  (5) 
[H]c1c([H])c([H])c(C2([H])C([H])([H])C([H])([H])N(C(=O)N3C([H])([H])C([H])([H])C([H])([H])C([H])(n4nc(-c5c([H])c([H])c(Oc6c([H])c([H])c(F)c([H])c6F)c([H])c5[H])c(C(=O)N([H])[H])c4N([H])[H])C3([H])[H])C([H])([H])C2([H])[H])c(C([H])([H])N([H])C(=O)C2([H])C([H])([H])C([H])([H])C([H])(Oc3c([H])c([H])c4c(c3[H])C([H])([H])N(C(=O)C([H])(N([H])C(=O)C([H])(N([H])C([H])([H])[H])C([H])([H])[H])C(C([H])([H])[H])(C([H])([H])[H])C([H])([H])[H])C([H])(C(=O)N([H])C3([H])c5c([H])c([H])c([H])c([H])c5C([H])([H])C([H])([H])C3([H])[H])C4([H])[H])C([H])([H])C2([H])[H])c1[H]

$$$$
5:0:0
     RDKit          3D

 93102  0  0  1  0  0  0  0  0999 V2000
  -29.7750  -20.4220   18.6830 C   0  0  0  0  0  3  0  0  0  0  0  0
  -30.2180  -19.2470   18.0340 C   0  0  0  0  0  0  0  0  0  0  0  0
  -30.2270  -17.9890   18.6990 C   0  0  0  0  0  0  0  0  0  0  0  0
  -29.2540  -20.3970   19.9790 C   0  0  0  0  0  0  0  0  0  0  0  0
  -29.7820  -17.8620   20.0540 C   0  0  0  0  0  0  0  0  0  0  0  0
  -29.2670  -19.1030   20.6180 N   0  0  0  0  0  0  0  0  0  0  0  0
  -28.6920  -21.6940   20.4990 N   0  0  0  0  0  0  0  0  0  0  0  0
  -30.7090  -16.6100   17.7600 Cl  0  0  0  0  0  0  0  0  0  0  0  0
  -28.2640  -21.6120   21.4150 H   0  0  0  0  0  0  0  0  0  0  0  0
  -30.5450  -15.2010   20.5160 C   0  0  0  0  0  0  0  0  0  0  0  0
  -30.5140  -12.7910   19.6730 C   0  0  0  0  0  2  0  0  0  0  0  0
  -29.6440  -12.6880   18.3990 C   0  0  0  0  0  2  0  0  0  0  0  0
  -28.1720  -12.4450   18.7750 C   0  0  0  0  0  2  0  0  0  0  0  0
  -27.6960  -13.3900   19.9100 C   0  0  0  0  0  3  0  0  0  0  0  0
  -28.6990  -13.4780   21.0790 C   0  0  0  0  0  2  0  0  0  0  0  0
  -29.9810  -13.9140   20.5110 N   0  0  0  0  0  0  0  0  0  0  0  0
  -31.7630  -15.2360   20.2910 O   0  0  0  0  0  0  0  0  0  0  0  0
  -29.7510  -16.4070   20.6410 N   0  0  0  0  0  0  0  0  0  0  0  0
  -28.8760  -16.2100   21.0970 H   0  0  0  0  0  0  0  0  0  0  0  0
  -25.2890  -13.9420   20.5610 C   0  0  0  0  0  0  0  0  0  0  0  0
  -24.2210  -13.1580   20.8960 C   0  0  0  0  0  0  0  0  0  0  0  0
  -24.6990  -11.8110   20.8930 C   0  0  0  0  0  0  0  0  0  0  0  0
  -26.3490  -13.0720   20.3640 N   0  0  0  0  0  0  0  0  0  0  0  0
  -26.0010  -11.7860   20.6300 N   0  0  0  0  0  0  0  0  0  0  0  0
  -23.9760  -10.5440   21.0650 C   0  0  0  0  0  0  0  0  0  0  0  0
  -24.3730   -9.5910   22.0260 C   0  0  0  0  0  3  0  0  0  0  0  0
  -23.6490   -8.3900   22.1850 C   0  0  0  0  0  3  0  0  0  0  0  0
  -22.5120   -8.1350   21.3810 C   0  0  0  0  0  0  0  0  0  0  0  0
  -22.1340   -9.0780   20.4080 C   0  0  0  0  0  3  0  0  0  0  0  0
  -22.8600  -10.2700   20.2490 C   0  0  0  0  0  3  0  0  0  0  0  0
  -21.7620   -6.9860   21.4480 O   0  0  0  0  0  0  0  0  0  0  0  0
  -21.6530   -6.2640   22.6080 C   0  0  0  0  0  0  0  0  0  0  0  0
  -21.1190   -6.8260   23.7890 C   0  0  0  0  0  3  0  0  0  0  0  0
  -20.9610   -6.0290   24.9390 C   0  0  0  0  0  3  0  0  0  0  0  0
  -21.3210   -4.6680   24.9110 C   0  0  0  0  0  0  0  0  0  0  0  0
  -21.8440   -4.1050   23.7340 C   0  0  0  0  0  3  0  0  0  0  0  0
  -22.0060   -4.8990   22.5840 C   0  0  0  0  0  0  0  0  0  0  0  0
  -22.4920   -4.3440   21.4490 F   0  0  0  0  0  0  0  0  0  0  0  0
  -21.1590   -3.8990   26.0140 F   0  0  0  0  0  0  0  0  0  0  0  0
  -22.8110  -13.6250   21.1120 C   0  0  0  0  0  0  0  0  0  0  0  0
  -22.0560  -12.9280   21.9530 N   0  0  0  0  0  0  0  0  0  0  0  0
  -22.3880  -14.6460   20.5700 O   0  0  0  0  0  0  0  0  0  0  0  0
  -22.4100  -12.1030   22.4140 H   0  0  0  0  0  0  0  0  0  0  0  0
  -21.1080  -13.2250   22.1380 H   0  0  0  0  0  0  0  0  0  0  0  0
  -25.4460  -15.3130   20.3810 N   0  0  0  0  0  0  0  0  0  0  0  0
  -24.6600  -15.9520   20.4270 H   0  0  0  0  0  0  0  0  0  0  0  0
  -26.2950  -15.7570   20.0530 H   0  0  0  0  0  0  0  0  0  0  0  0
  -29.8770  -20.2250   15.6170 C   0  0  0  0  0  2  0  0  0  0  0  0
  -29.9280  -18.7300   15.4440 C   0  0  0  0  0  2  0  0  0  0  0  0
  -30.6660  -19.3790   16.5980 C   0  0  0  0  0  3  0  0  0  0  0  0
  -28.9020  -23.2130   20.0400 C   0  0  0  0  0  3  0  0  0  0  0  0
  -27.8780  -24.5780   20.3430 C   0  0  0  0  0  3  0  0  0  0  0  0
  -28.1350  -26.1430   20.1560 O   0  0  0  0  0  0  0  0  0  0  0  0
  -24.5770  -31.9290   23.2360 C   0  0  0  0  0  0  0  0  0  0  0  0
  -27.0900  -27.1640   20.1510 C   0  0  0  0  0  0  0  0  0  0  0  0
  -23.3530  -30.5410   21.6120 C   0  0  0  0  0  3  0  0  0  0  0  0
  -24.7770  -28.9650   20.1580 C   0  0  0  0  0  0  0  0  0  0  0  0
  -25.9090  -30.7870   21.4120 C   0  0  0  0  0  2  0  0  0  0  0  0
  -25.9700  -29.3900   20.7540 C   0  0  0  0  0  0  0  0  0  0  0  0
  -27.1280  -28.5100   20.7270 C   0  0  0  0  0  3  0  0  0  0  0  0
  -25.8690  -26.8620   19.5110 C   0  0  0  0  0  3  0  0  0  0  0  0
  -24.7430  -27.7170   19.5200 C   0  0  0  0  0  3  0  0  0  0  0  0
  -23.5540  -29.8710   20.2280 C   0  0  0  0  0  2  0  0  0  0  0  0
  -24.6350  -31.1090   22.1410 N   0  0  0  0  0  0  0  0  0  0  0  0
  -23.4970  -32.2140   23.7790 O   0  0  0  0  0  0  0  0  0  0  0  0
  -22.6840  -29.5330   22.5810 C   0  0  0  0  0  0  0  0  0  0  0  0
  -21.3600  -29.3400   22.4530 N   0  0  0  0  0  0  0  0  0  0  0  0
  -23.3630  -28.9220   23.4120 O   0  0  0  0  0  0  0  0  0  0  0  0
  -20.8680  -29.8780   21.7530 H   0  0  0  0  0  0  0  0  0  0  0  0
  -18.0020  -28.0760   22.9490 C   0  0  0  0  0  0  0  0  0  0  0  0
  -20.5520  -28.3990   23.2330 C   0  0  0  0  0  3  0  0  0  0  0  0
  -20.6910  -26.9630   22.6770 C   0  0  0  0  0  2  0  0  0  0  0  0
  -19.6050  -26.6020   21.6600 C   0  0  0  0  0  2  0  0  0  0  0  0
  -18.2140  -26.7240   22.2900 C   0  0  0  0  0  2  0  0  0  0  0  0
  -19.0990  -28.8700   23.3770 C   0  0  0  0  0  0  0  0  0  0  0  0
  -18.8460  -30.1310   23.9580 C   0  0  0  0  0  3  0  0  0  0  0  0
  -17.5280  -30.6030   24.1100 C   0  0  0  0  0  3  0  0  0  0  0  0
  -16.4440  -29.8080   23.6950 C   0  0  0  0  0  3  0  0  0  0  0  0
  -16.6830  -28.5460   23.1220 C   0  0  0  0  0  3  0  0  0  0  0  0
  -25.8610  -32.5640   23.8480 C   0  0  0  0  0  3  0  0  0  0  0  0
  -26.3760  -31.8030   25.1310 C   0  0  1  0  0  0  0  0  0  0  0  0
  -25.2820  -31.5850   26.2030 C   0  0  0  0  0  1  0  0  0  0  0  0
  -26.9470  -30.4170   24.7570 C   0  0  0  0  0  1  0  0  0  0  0  0
  -27.5360  -32.5950   25.7810 C   0  0  0  0  0  1  0  0  0  0  0  0
  -25.5590  -33.9690   24.1740 N   0  0  0  0  0  0  0  0  0  0  0  0
  -25.9040  -35.0200   23.4160 C   0  0  0  0  0  0  0  0  0  0  0  0
  -26.5740  -34.9070   22.3870 O   0  0  0  0  0  0  0  0  0  0  0  0
  -24.9630  -34.1310   24.9710 H   0  0  0  0  0  0  0  0  0  0  0  0
  -24.2100  -36.8430   23.0440 C   0  0  0  0  0  1  0  0  0  0  0  0
  -25.4320  -36.4150   23.8730 C   0  0  0  0  0  3  0  0  0  0  0  0
  -27.5630  -37.2670   24.7470 C   0  0  0  0  0  1  0  0  0  0  0  0
  -26.4840  -37.4500   23.7800 N   0  0  0  0  0  0  0  0  0  0  0  0
  -26.0920  -38.3790   23.9170 H   0  0  0  0  0  0  0  0  0  0  0  0
  1  4  1  0
  2  1  2  0
  2  3  1  0
  3  5  2  0
  4  7  1  0
  4  6  2  0
  5  6  1  0
  5 18  1  0
  7  9  1  0
  8  3  1  0
 10 18  1  0
 11 16  1  0
 12 13  1  0
 12 11  1  0
 14 13  1  0
 14 23  1  0
 14 15  1  0
 16 10  1  0
 16 15  1  0
 17 10  2  0
 18 19  1  0
 20 21  2  0
 21 40  1  0
 22 21  1  0
 22 25  1  0
 23 20  1  0
 23 24  1  0
 24 22  2  0
 25 26  1  0
 26 27  2  0
 28 31  1  0
 28 27  1  0
 29 28  2  0
 30 29  1  0
 30 25  2  0
 31 32  1  0
 32 33  1  0
 33 34  2  0
 35 34  1  0
 35 39  1  0
 36 35  2  0
 37 32  2  0
 37 36  1  0
 38 37  1  0
 40 41  1  0
 41 44  1  0
 41 43  1  0
 42 40  2  0
 45 46  1  0
 45 20  1  0
 47 45  1  0
 48 50  1  0
 49 48  1  0
 49 50  1  0
 50  2  1  0
 51 52  2  0
 51  7  1  0
 53 52  1  0
 54 65  2  0
 55 53  1  0
 55 60  1  0
 56 64  1  0
 56 66  1  0
 57 63  1  0
 57 59  1  0
 58 64  1  0
 59 58  1  0
 60 59  2  0
 61 62  1  0
 61 55  2  0
 62 57  2  0
 63 56  1  0
 64 54  1  0
 66 68  2  0
 67 66  1  0
 69 67  1  0
 70 79  2  0
 70 75  1  0
 71 67  1  0
 71 75  1  0
 72 71  1  0
 73 74  1  0
 73 72  1  0
 74 70  1  0
 75 76  2  0
 76 77  1  0
 78 77  2  0
 79 78  1  0
 80 54  1  0
 80 85  1  0
 80 81  1  0
 81 84  1  1
 81 82  1  0
 83 81  1  0
 85 88  1  0
 86 90  1  0
 86 85  1  0
 87 86  2  0
 90 89  1  0
 92 90  1  0
 92 93  1  0
 92 91  1  0
M  ISO  4  10 100  18 100  52 101  53 101
M  END
>  <TORSDO>  (6) 
F 19

>  <SCORE>  (6) 
-14.737

>  <name>  (6) 
5

>  <ligand_id>  (6) 
5

>  <original_smiles>  (6) 
[H]c1c([H])c([H])c2c(c1[H])C([H])([H])C([H])([H])C([H])([H])C2([H])N([H])C(=O)C1([H])N(C(=O)C([H])(N([H])C(=O)C([H])(N([H])C([H])([H])[H])C([H])([H])[H])C(C([H])([H])[H])(C([H])([H])[H])C([H])([H])[H])C([H])([H])c2c([H])c(OC([H])([H])C([H])([H])N([H])c3nc(N([H])C(=O)N4C([H])([H])C([H])([H])C([H])([H])C([H])(n5nc(-c6c([H])c([H])c(Oc7c([H])c([H])c(F)c([H])c7F)c([H])c6[H])c(C(=O)N([H])[H])c5N([H])[H])C4([H])[H])c(Cl)c(C4([H])C([H])([H])C4([H])[H])c3[H])c([H])c([H])c2C1([H])[H]

>  <smiles>  (6) 
[H]c1c([H])c([H])c2c(c1[H])C([H])([H])C([H])([H])C([H])([H])C2([H])N([H])C(=O)C1([H])N(C(=O)C([H])(N([H])C(=O)C([H])(N([H])C([H])([H])[H])C([H])([H])[H])C(C([H])([H])[H])(C([H])([H])[H])C([H])([H])[H])C([H])([H])c2c([H])c(OC([H])([H])C([H])([H])N([H])c3nc(N([H])C(=O)N4C([H])([H])C([H])([H])C([H])([H])C([H])(n5nc(-c6c([H])c([H])c(Oc7c([H])c([H])c(F)c([H])c7F)c([H])c6[H])c(C(=O)N([H])[H])c5N([H])[H])C4([H])[H])c(Cl)c(C4([H])C([H])([H])C4([H])[H])c3[H])c([H])c([H])c2C1([H])[H]

$$$$
6:0:0
     RDKit          3D

 98108  0  0  1  0  0  0  0  0999 V2000
  -29.2960  -21.7860   19.8700 C   0  0  0  0  0  0  0  0  0  0  0  0
  -29.6480  -20.5470   20.3450 N   0  0  0  0  0  0  0  0  0  0  0  0
  -29.5250  -22.1560   18.7160 O   0  0  0  0  0  0  0  0  0  0  0  0
  -29.2900  -20.3070   21.2600 H   0  0  0  0  0  0  0  0  0  0  0  0
  -31.6630  -17.7390   19.1390 C   0  0  0  0  0  3  0  0  0  0  0  0
  -31.3400  -19.8930   18.6670 C   0  0  0  0  0  3  0  0  0  0  0  0
  -30.7430  -18.1720   20.0640 C   0  0  0  0  0  0  0  0  0  0  0  0
  -30.5150  -19.5690   19.7130 C   0  0  0  0  0  0  0  0  0  0  0  0
  -32.0660  -18.7740   18.3170 N   0  0  0  0  0  0  0  0  0  0  0  0
  -34.1610  -19.7370   17.3890 C   0  0  0  0  0  2  0  0  0  0  0  0
  -33.1840  -19.7290   16.2300 C   0  0  0  0  0  2  0  0  0  0  0  0
  -33.1080  -18.6570   17.2960 C   0  0  0  0  0  3  0  0  0  0  0  0
  -30.2170  -17.2860   21.2160 C   0  0  0  0  0  2  0  0  0  0  0  0
  -30.7320  -14.7690   20.7400 C   0  0  0  0  0  0  0  0  0  0  0  0
  -30.5530  -12.5410   19.6690 C   0  0  0  0  0  2  0  0  0  0  0  0
  -29.6620  -12.6720   18.4150 C   0  0  0  0  0  2  0  0  0  0  0  0
  -28.1730  -12.5120   18.7800 C   0  0  0  0  0  2  0  0  0  0  0  0
  -27.7550  -13.3700   20.0050 C   0  0  0  0  0  3  0  0  0  0  0  0
  -28.7700  -13.2320   21.1600 C   0  0  0  0  0  2  0  0  0  0  0  0
  -30.1010  -13.5640   20.6270 N   0  0  0  0  0  0  0  0  0  0  0  0
  -31.9250  -14.9080   20.4670 O   0  0  0  0  0  0  0  0  0  0  0  0
  -29.9250  -15.8370   20.9730 N   0  0  0  0  0  0  0  0  0  0  0  0
  -28.9570  -15.5870   21.1010 H   0  0  0  0  0  0  0  0  0  0  0  0
  -25.3320  -13.9480   20.6330 C   0  0  0  0  0  0  0  0  0  0  0  0
  -24.2580  -13.1630   20.9540 C   0  0  0  0  0  0  0  0  0  0  0  0
  -24.7320  -11.8140   20.9310 C   0  0  0  0  0  0  0  0  0  0  0  0
  -26.3910  -13.0750   20.4360 N   0  0  0  0  0  0  0  0  0  0  0  0
  -26.0330  -11.7880   20.6740 N   0  0  0  0  0  0  0  0  0  0  0  0
  -24.0080  -10.5460   21.0850 C   0  0  0  0  0  0  0  0  0  0  0  0
  -24.3980   -9.5850   22.0430 C   0  0  0  0  0  3  0  0  0  0  0  0
  -23.6750   -8.3790   22.1850 C   0  0  0  0  0  3  0  0  0  0  0  0
  -22.5490   -8.1290   21.3660 C   0  0  0  0  0  0  0  0  0  0  0  0
  -22.1780   -9.0800   20.3980 C   0  0  0  0  0  3  0  0  0  0  0  0
  -22.9010  -10.2750   20.2560 C   0  0  0  0  0  3  0  0  0  0  0  0
  -21.8050   -6.9720   21.4100 O   0  0  0  0  0  0  0  0  0  0  0  0
  -21.6910   -6.2340   22.5610 C   0  0  0  0  0  0  0  0  0  0  0  0
  -21.1450   -6.7810   23.7430 C   0  0  0  0  0  3  0  0  0  0  0  0
  -20.9810   -5.9690   24.8840 C   0  0  0  0  0  3  0  0  0  0  0  0
  -21.3480   -4.6120   24.8420 C   0  0  0  0  0  0  0  0  0  0  0  0
  -21.8860   -4.0630   23.6640 C   0  0  0  0  0  3  0  0  0  0  0  0
  -22.0530   -4.8720   22.5250 C   0  0  0  0  0  0  0  0  0  0  0  0
  -22.5510   -4.3350   21.3860 F   0  0  0  0  0  0  0  0  0  0  0  0
  -21.1860   -3.8300   25.9340 F   0  0  0  0  0  0  0  0  0  0  0  0
  -22.8470  -13.6270   21.1730 C   0  0  0  0  0  0  0  0  0  0  0  0
  -22.0940  -12.9180   22.0060 N   0  0  0  0  0  0  0  0  0  0  0  0
  -22.4180  -14.6490   20.6400 O   0  0  0  0  0  0  0  0  0  0  0  0
  -22.4560  -12.0920   22.4600 H   0  0  0  0  0  0  0  0  0  0  0  0
  -21.1430  -13.2030   22.1920 H   0  0  0  0  0  0  0  0  0  0  0  0
  -25.4950  -15.3210   20.4700 N   0  0  0  0  0  0  0  0  0  0  0  0
  -24.7190  -15.9710   20.5390 H   0  0  0  0  0  0  0  0  0  0  0  0
  -26.3460  -15.7620   20.1450 H   0  0  0  0  0  0  0  0  0  0  0  0
  -28.5280  -22.7710   20.7930 C   0  0  0  0  0  2  0  0  0  0  0  0
  -28.8180  -24.3240   20.6230 C   0  0  0  0  0  3  0  0  0  0  0  0
  -30.1550  -24.7210   22.8620 C   0  0  0  0  0  2  0  0  0  0  0  0
  -29.9240  -26.0930   22.2670 C   0  0  0  0  0  2  0  0  0  0  0  0
  -28.9440  -24.9750   21.9960 C   0  0  0  0  0  3  0  0  0  0  0  0
  -27.8040  -25.1250   19.7310 C   0  0  0  0  0  2  0  0  0  0  0  0
  -27.9930  -26.5750   19.7060 O   0  0  0  0  0  0  0  0  0  0  0  0
  -24.4180  -31.8020   23.0390 C   0  0  0  0  0  0  0  0  0  0  0  0
  -26.8590  -27.3840   19.7130 C   0  0  0  0  0  0  0  0  0  0  0  0
  -23.1320  -30.4840   21.3920 C   0  0  0  0  0  3  0  0  0  0  0  0
  -24.5060  -28.9810   19.8500 C   0  0  0  0  0  0  0  0  0  0  0  0
  -25.6610  -30.7960   21.1210 C   0  0  0  0  0  2  0  0  0  0  0  0
  -25.6980  -29.4480   20.4180 C   0  0  0  0  0  0  0  0  0  0  0  0
  -26.8760  -28.6590   20.3420 C   0  0  0  0  0  3  0  0  0  0  0  0
  -25.6480  -26.9600   19.1200 C   0  0  0  0  0  3  0  0  0  0  0  0
  -24.4790  -27.7400   19.1930 C   0  0  0  0  0  3  0  0  0  0  0  0
  -23.2840  -29.8640   19.9780 C   0  0  0  0  0  2  0  0  0  0  0  0
  -24.4250  -31.0410   21.9090 N   0  0  0  0  0  0  0  0  0  0  0  0
  -23.3610  -32.0720   23.6260 O   0  0  0  0  0  0  0  0  0  0  0  0
  -22.4940  -29.4370   22.3360 C   0  0  0  0  0  0  0  0  0  0  0  0
  -21.1610  -29.2930   22.2580 N   0  0  0  0  0  0  0  0  0  0  0  0
  -23.1950  -28.7620   23.0940 O   0  0  0  0  0  0  0  0  0  0  0  0
  -20.6580  -29.8890   21.6160 H   0  0  0  0  0  0  0  0  0  0  0  0
  -17.7800  -28.1460   22.8360 C   0  0  0  0  0  0  0  0  0  0  0  0
  -20.3530  -28.3420   23.0210 C   0  0  0  0  0  3  0  0  0  0  0  0
  -20.4040  -26.9340   22.3840 C   0  0  0  0  0  2  0  0  0  0  0  0
  -19.2580  -26.6750   21.4010 C   0  0  0  0  0  2  0  0  0  0  0  0
  -17.9040  -26.8220   22.1010 C   0  0  0  0  0  2  0  0  0  0  0  0
  -18.9310  -28.8670   23.2530 C   0  0  0  0  0  0  0  0  0  0  0  0
  -18.7620  -30.1100   23.9010 C   0  0  0  0  0  3  0  0  0  0  0  0
  -17.4770  -30.6300   24.1380 C   0  0  0  0  0  3  0  0  0  0  0  0
  -16.3410  -29.9050   23.7380 C   0  0  0  0  0  3  0  0  0  0  0  0
  -16.4940  -28.6650   23.0920 C   0  0  0  0  0  3  0  0  0  0  0  0
  -25.7350  -32.3890   23.6350 C   0  0  0  0  0  3  0  0  0  0  0  0
  -25.4550  -33.7680   24.0580 N   0  0  0  0  0  0  0  0  0  0  0  0
  -25.8440  -34.8620   23.3900 C   0  0  0  0  0  0  0  0  0  0  0  0
  -26.5440  -34.8130   22.3750 O   0  0  0  0  0  0  0  0  0  0  0  0
  -24.8370  -33.8820   24.8480 H   0  0  0  0  0  0  0  0  0  0  0  0
  -24.2160  -36.7510   23.0830 C   0  0  0  0  0  1  0  0  0  0  0  0
  -25.3820  -36.2260   23.9360 C   0  0  0  0  0  3  0  0  0  0  0  0
  -27.4840  -36.9420   24.9800 C   0  0  0  0  0  1  0  0  0  0  0  0
  -26.4590  -37.2380   23.9820 N   0  0  0  0  0  0  0  0  0  0  0  0
  -26.0790  -38.1590   24.1830 H   0  0  0  0  0  0  0  0  0  0  0  0
  -26.3040  -31.5420   24.8380 C   0  0  1  0  0  0  0  0  0  0  0  0
  -25.2600  -31.2550   25.9430 C   0  0  0  0  0  1  0  0  0  0  0  0
  -26.8510  -30.1840   24.3410 C   0  0  0  0  0  1  0  0  0  0  0  0
  -27.4910  -32.2890   25.4900 C   0  0  0  0  0  1  0  0  0  0  0  0
  1  2  1  0
  1 52  1  0
  2  4  1  0
  3  1  2  0
  5  7  2  0
  6  8  2  0
  7 13  1  0
  8  7  1  0
  8  2  1  0
  9  6  1  0
  9  5  1  0
 11 12  1  0
 11 10  1  0
 12 10  1  0
 12  9  1  0
 14 22  1  0
 15 20  1  0
 16 17  1  0
 16 15  1  0
 18 17  1  0
 18 27  1  0
 18 19  1  0
 20 14  1  0
 20 19  1  0
 21 14  2  0
 22 23  1  0
 22 13  1  0
 24 25  2  0
 25 44  1  0
 26 25  1  0
 26 29  1  0
 27 24  1  0
 27 28  1  0
 28 26  2  0
 29 30  1  0
 30 31  2  0
 32 35  1  0
 32 31  1  0
 33 32  2  0
 34 33  1  0
 34 29  2  0
 35 36  1  0
 36 37  1  0
 37 38  2  0
 39 38  1  0
 39 43  1  0
 40 39  2  0
 41 36  2  0
 41 40  1  0
 42 41  1  0
 44 45  1  0
 45 48  1  0
 45 47  1  0
 46 44  2  0
 49 50  1  0
 49 24  1  0
 51 49  1  0
 53 57  1  0
 53 52  1  0
 53 56  1  0
 55 54  1  0
 56 55  1  0
 56 54  1  0
 58 60  1  0
 58 57  1  0
 59 70  2  0
 60 65  1  0
 61 69  1  0
 61 71  1  0
 62 68  1  0
 62 64  1  0
 63 69  1  0
 64 63  1  0
 65 64  2  0
 66 67  1  0
 66 60  2  0
 67 62  2  0
 68 61  1  0
 69 59  1  0
 71 73  2  0
 72 71  1  0
 74 72  1  0
 75 84  2  0
 75 80  1  0
 76 72  1  0
 76 80  1  0
 77 76  1  0
 78 79  1  0
 78 77  1  0
 79 75  1  0
 80 81  2  0
 81 82  1  0
 83 82  2  0
 84 83  1  0
 85 59  1  0
 85 86  1  0
 85 95  1  0
 86 89  1  0
 87 91  1  0
 87 86  1  0
 88 87  2  0
 91 90  1  0
 91 93  1  0
 93 94  1  0
 93 92  1  0
 95 98  1  1
 95 96  1  0
 97 95  1  0
M  ISO  4  14 100  22 100  57 101  58 101
M  END
>  <TORSDO>  (7) 
F 23

>  <SCORE>  (7) 
-12.407

>  <name>  (7) 
6

>  <ligand_id>  (7) 
6

>  <original_smiles>  (7) 
[H]c1c([H])c([H])c2c(c1[H])C([H])([H])C([H])([H])C([H])([H])C2([H])N([H])C(=O)C1([H])N(C(=O)C([H])(N([H])C(=O)C([H])(N([H])C([H])([H])[H])C([H])([H])[H])C(C([H])([H])[H])(C([H])([H])[H])C([H])([H])[H])C([H])([H])c2c([H])c(OC([H])([H])C([H])(C([H])([H])C(=O)N([H])c3c(C([H])([H])N([H])C(=O)N4C([H])([H])C([H])([H])C([H])([H])C([H])(n5nc(-c6c([H])c([H])c(Oc7c([H])c([H])c(F)c([H])c7F)c([H])c6[H])c(C(=O)N([H])[H])c5N([H])[H])C4([H])[H])c([H])n(C4([H])C([H])([H])C4([H])[H])c3[H])C3([H])C([H])([H])C3([H])[H])c([H])c([H])c2C1([H])[H]

>  <smiles>  (7) 
[H]c1c([H])c([H])c2c(c1[H])C([H])([H])C([H])([H])C([H])([H])C2([H])N([H])C(=O)C1([H])N(C(=O)C([H])(N([H])C(=O)C([H])(N([H])C([H])([H])[H])C([H])([H])[H])C(C([H])([H])[H])(C([H])([H])[H])C([H])([H])[H])C([H])([H])c2c([H])c(OC([H])([H])C([H])(C([H])([H])C(=O)N([H])c3c(C([H])([H])N([H])C(=O)N4C([H])([H])C([H])([H])C([H])([H])C([H])(n5nc(-c6c([H])c([H])c(Oc7c([H])c([H])c(F)c([H])c7F)c([H])c6[H])c(C(=O)N([H])[H])c5N([H])[H])C4([H])[H])c([H])n(C4([H])C([H])([H])C4([H])[H])c3[H])C3([H])C([H])([H])C3([H])[H])c([H])c([H])c2C1([H])[H]

$$$$
7:0:0
     RDKit          3D

 96105  0  0  1  0  0  0  0  0999 V2000
  -29.5140  -21.8600   22.7190 C   0  0  0  0  0  3  0  0  0  0  0  0
  -29.5640  -20.4750   22.4680 C   0  0  0  0  0  3  0  0  0  0  0  0
  -28.8380  -22.2510   20.4220 C   0  0  0  0  0  3  0  0  0  0  0  0
  -28.9350  -20.8670   20.1480 C   0  0  0  0  0  0  0  0  0  0  0  0
  -29.1370  -22.7620   21.7080 C   0  0  0  0  0  0  0  0  0  0  0  0
  -29.2700  -19.9600   21.1920 C   0  0  0  0  0  0  0  0  0  0  0  0
  -28.6470  -20.3810   18.8680 N   0  0  0  0  0  0  0  0  0  0  0  0
  -28.4550  -19.3840   18.9070 H   0  0  0  0  0  0  0  0  0  0  0  0
  -30.2770  -22.0230   17.5450 C   0  0  0  0  0  2  0  0  0  0  0  0
  -31.0320  -20.7680   17.9310 C   0  0  0  0  0  2  0  0  0  0  0  0
  -29.5310  -20.7140   17.7440 C   0  0  0  0  0  3  0  0  0  0  0  0
  -29.0840  -24.0980   22.0480 O   0  0  0  0  0  0  0  0  0  0  0  0
  -28.2110  -24.9650   21.3200 C   0  0  0  0  0  2  0  0  0  0  0  0
  -28.8660  -25.5850   20.0650 C   0  0  0  0  0  2  0  0  0  0  0  0
  -28.7800  -27.0080   20.0600 O   0  0  0  0  0  0  0  0  0  0  0  0
  -24.6760  -31.8640   23.2010 C   0  0  0  0  0  0  0  0  0  0  0  0
  -27.5420  -27.6230   20.0540 C   0  0  0  0  0  0  0  0  0  0  0  0
  -23.5400  -30.4660   21.5040 C   0  0  0  0  0  3  0  0  0  0  0  0
  -25.0710  -29.0050   20.0730 C   0  0  0  0  0  0  0  0  0  0  0  0
  -26.0480  -30.9300   21.3430 C   0  0  0  0  0  2  0  0  0  0  0  0
  -26.1960  -29.5750   20.6780 C   0  0  0  0  0  0  0  0  0  0  0  0
  -27.4290  -28.8930   20.6620 C   0  0  0  0  0  3  0  0  0  0  0  0
  -26.3970  -27.0560   19.4460 C   0  0  0  0  0  3  0  0  0  0  0  0
  -25.1650  -27.7430   19.4500 C   0  0  0  0  0  3  0  0  0  0  0  0
  -23.7930  -29.8160   20.1140 C   0  0  0  0  0  2  0  0  0  0  0  0
  -24.7730  -31.0970   22.0760 N   0  0  0  0  0  0  0  0  0  0  0  0
  -23.5810  -32.0790   23.7370 O   0  0  0  0  0  0  0  0  0  0  0  0
  -22.9100  -29.3990   22.4240 C   0  0  0  0  0  0  0  0  0  0  0  0
  -21.5920  -29.1880   22.2760 N   0  0  0  0  0  0  0  0  0  0  0  0
  -23.6030  -28.7680   23.2270 O   0  0  0  0  0  0  0  0  0  0  0  0
  -21.1000  -29.7510   21.5970 H   0  0  0  0  0  0  0  0  0  0  0  0
  -18.2330  -27.9270   22.7080 C   0  0  0  0  0  0  0  0  0  0  0  0
  -20.7870  -28.2130   23.0110 C   0  0  0  0  0  3  0  0  0  0  0  0
  -20.9120  -26.8000   22.4030 C   0  0  0  0  0  2  0  0  0  0  0  0
  -19.8340  -26.4990   21.3560 C   0  0  0  0  0  2  0  0  0  0  0  0
  -18.4360  -26.6120   21.9750 C   0  0  0  0  0  2  0  0  0  0  0  0
  -19.3380  -28.6840   23.1790 C   0  0  0  0  0  0  0  0  0  0  0  0
  -19.0940  -29.9130   23.8290 C   0  0  0  0  0  3  0  0  0  0  0  0
  -17.7780  -30.3820   24.0120 C   0  0  0  0  0  3  0  0  0  0  0  0
  -16.6890  -29.6240   23.5530 C   0  0  0  0  0  3  0  0  0  0  0  0
  -16.9160  -28.3960   22.9090 C   0  0  0  0  0  3  0  0  0  0  0  0
  -25.9330  -32.5170   23.8570 C   0  0  0  0  0  3  0  0  0  0  0  0
  -25.5890  -33.9080   24.1740 N   0  0  0  0  0  0  0  0  0  0  0  0
  -25.9320  -34.9670   23.4240 C   0  0  0  0  0  0  0  0  0  0  0  0
  -26.6420  -34.8710   22.4210 O   0  0  0  0  0  0  0  0  0  0  0  0
  -24.9610  -34.0520   24.9500 H   0  0  0  0  0  0  0  0  0  0  0  0
  -24.1830  -36.7270   23.0140 C   0  0  0  0  0  1  0  0  0  0  0  0
  -25.4070  -36.3470   23.8630 C   0  0  0  0  0  3  0  0  0  0  0  0
  -27.4980  -37.2760   24.7560 C   0  0  0  0  0  1  0  0  0  0  0  0
  -26.4220  -37.4200   23.7780 N   0  0  0  0  0  0  0  0  0  0  0  0
  -25.9930  -38.3330   23.9100 H   0  0  0  0  0  0  0  0  0  0  0  0
  -26.4230  -31.7580   25.1500 C   0  0  1  0  0  0  0  0  0  0  0  0
  -25.2980  -31.4800   26.1750 C   0  0  0  0  0  1  0  0  0  0  0  0
  -27.0640  -30.4050   24.7690 C   0  0  0  0  0  1  0  0  0  0  0  0
  -27.5210  -32.5860   25.8600 C   0  0  0  0  0  1  0  0  0  0  0  0
  -29.2360  -18.5870   21.0350 O   0  0  0  0  0  0  0  0  0  0  0  0
  -30.2180  -17.9880   20.1830 C   0  0  0  0  0  2  0  0  0  0  0  0
  -31.2120  -17.1340   20.9970 C   0  0  0  0  0  2  0  0  0  0  0  0
  -31.5140  -14.7350   20.3110 C   0  0  0  0  0  0  0  0  0  0  0  0
  -31.1750  -12.5450   19.2220 C   0  0  0  0  0  2  0  0  0  0  0  0
  -30.2450  -12.7120   18.0040 C   0  0  0  0  0  2  0  0  0  0  0  0
  -28.7620  -12.6510   18.4260 C   0  0  0  0  0  2  0  0  0  0  0  0
  -28.4470  -13.5650   19.6390 C   0  0  0  0  0  3  0  0  0  0  0  0
  -29.4750  -13.3340   20.7630 C   0  0  0  0  0  2  0  0  0  0  0  0
  -30.8190  -13.5720   20.2090 N   0  0  0  0  0  0  0  0  0  0  0  0
  -32.6080  -14.9240   19.7680 O   0  0  0  0  0  0  0  0  0  0  0  0
  -30.8680  -15.7070   20.9730 N   0  0  0  0  0  0  0  0  0  0  0  0
  -29.9840  -15.4490   21.3870 H   0  0  0  0  0  0  0  0  0  0  0  0
  -26.0980  -14.3170   20.3840 C   0  0  0  0  0  0  0  0  0  0  0  0
  -24.9800  -13.6090   20.7290 C   0  0  0  0  0  0  0  0  0  0  0  0
  -25.3470  -12.2290   20.6530 C   0  0  0  0  0  0  0  0  0  0  0  0
  -27.0770  -13.3740   20.1110 N   0  0  0  0  0  0  0  0  0  0  0  0
  -26.6300  -12.1120   20.3330 N   0  0  0  0  0  0  0  0  0  0  0  0
  -24.5360  -11.0130   20.8080 C   0  0  0  0  0  0  0  0  0  0  0  0
  -24.8800  -10.0130   21.7450 C   0  0  0  0  0  3  0  0  0  0  0  0
  -24.0770   -8.8630   21.8890 C   0  0  0  0  0  3  0  0  0  0  0  0
  -22.9140   -8.7040   21.0990 C   0  0  0  0  0  0  0  0  0  0  0  0
  -22.5880   -9.6920   20.1560 C   0  0  0  0  0  3  0  0  0  0  0  0
  -23.3910  -10.8360   20.0080 C   0  0  0  0  0  3  0  0  0  0  0  0
  -22.0870   -7.6080   21.1530 O   0  0  0  0  0  0  0  0  0  0  0  0
  -21.9100   -6.8990   22.3130 C   0  0  0  0  0  0  0  0  0  0  0  0
  -21.4330   -7.5080   23.4940 C   0  0  0  0  0  3  0  0  0  0  0  0
  -21.1980   -6.7270   24.6440 C   0  0  0  0  0  3  0  0  0  0  0  0
  -21.4290   -5.3380   24.6140 C   0  0  0  0  0  0  0  0  0  0  0  0
  -21.9000   -4.7300   23.4370 C   0  0  0  0  0  3  0  0  0  0  0  0
  -22.1370   -5.5080   22.2890 C   0  0  0  0  0  0  0  0  0  0  0  0
  -22.5700   -4.9130   21.1520 F   0  0  0  0  0  0  0  0  0  0  0  0
  -21.1970   -4.5860   25.7140 F   0  0  0  0  0  0  0  0  0  0  0  0
  -23.6200  -14.1700   21.0300 C   0  0  0  0  0  0  0  0  0  0  0  0
  -22.8540  -13.5030   21.8880 N   0  0  0  0  0  0  0  0  0  0  0  0
  -23.2440  -15.2330   20.5350 O   0  0  0  0  0  0  0  0  0  0  0  0
  -23.1650  -12.6420   22.3090 H   0  0  0  0  0  0  0  0  0  0  0  0
  -21.9420  -13.8640   22.1300 H   0  0  0  0  0  0  0  0  0  0  0  0
  -26.3610  -15.6790   20.2610 N   0  0  0  0  0  0  0  0  0  0  0  0
  -25.6560  -16.3880   20.4290 H   0  0  0  0  0  0  0  0  0  0  0  0
  -27.2570  -16.0680   19.9920 H   0  0  0  0  0  0  0  0  0  0  0  0
  2  1  1  0
  3  5  1  0
  4  3  2  0
  4  6  1  0
  5 12  1  0
  5  1  2  0
  6  2  2  0
  7  8  1  0
  7  4  1  0
  9 11  1  0
  9 10  1  0
 11 10  1  0
 11  7  1  0
 13 12  1  0
 14 13  1  0
 15 14  1  0
 16 27  2  0
 17 15  1  0
 17 22  1  0
 18 26  1  0
 18 28  1  0
 19 25  1  0
 19 21  1  0
 20 26  1  0
 21 20  1  0
 22 21  2  0
 23 24  1  0
 23 17  2  0
 24 19  2  0
 25 18  1  0
 26 16  1  0
 28 30  2  0
 29 28  1  0
 31 29  1  0
 32 41  2  0
 32 37  1  0
 33 29  1  0
 33 37  1  0
 34 33  1  0
 35 36  1  0
 35 34  1  0
 36 32  1  0
 37 38  2  0
 38 39  1  0
 40 39  2  0
 41 40  1  0
 42 16  1  0
 42 43  1  0
 42 52  1  0
 43 46  1  0
 44 48  1  0
 44 43  1  0
 45 44  2  0
 48 47  1  0
 50 48  1  0
 50 51  1  0
 50 49  1  0
 52 55  1  1
 52 53  1  0
 54 52  1  0
 56  6  1  0
 57 58  1  0
 57 56  1  0
 59 67  1  0
 60 65  1  0
 61 62  1  0
 61 60  1  0
 63 62  1  0
 63 72  1  0
 63 64  1  0
 65 59  1  0
 65 64  1  0
 66 59  2  0
 67 58  1  0
 67 68  1  0
 69 70  2  0
 70 89  1  0
 71 70  1  0
 71 74  1  0
 72 73  1  0
 72 69  1  0
 73 71  2  0
 74 75  1  0
 75 76  2  0
 77 80  1  0
 77 76  1  0
 78 77  2  0
 79 78  1  0
 79 74  2  0
 80 81  1  0
 81 82  1  0
 82 83  2  0
 84 83  1  0
 84 88  1  0
 85 84  2  0
 86 81  2  0
 86 85  1  0
 87 86  1  0
 89 90  1  0
 90 93  1  0
 90 92  1  0
 91 89  2  0
 94 69  1  0
 94 95  1  0
 96 94  1  0
M  ISO  4  14 101  15 101  59 100  67 100
M  END
>  <TORSDO>  (8) 
F 24

>  <SCORE>  (8) 
-11.208

>  <name>  (8) 
7

>  <ligand_id>  (8) 
7

>  <original_smiles>  (8) 
[H]c1c([H])c([H])c2c(c1[H])C([H])([H])C([H])([H])C([H])([H])C2([H])N([H])C(=O)C1([H])N(C(=O)C([H])(N([H])C(=O)C([H])(N([H])C([H])([H])[H])C([H])([H])[H])C(C([H])([H])[H])(C([H])([H])[H])C([H])([H])[H])C([H])([H])c2c([H])c(OC([H])([H])C([H])([H])Oc3c([H])c([H])c(OC([H])([H])C([H])([H])N([H])C(=O)N4C([H])([H])C([H])([H])C([H])([H])C([H])(n5nc(-c6c([H])c([H])c(Oc7c([H])c([H])c(F)c([H])c7F)c([H])c6[H])c(C(=O)N([H])[H])c5N([H])[H])C4([H])[H])c(N([H])C4([H])C([H])([H])C4([H])[H])c3[H])c([H])c([H])c2C1([H])[H]

>  <smiles>  (8) 
[H]c1c([H])c([H])c2c(c1[H])C([H])([H])C([H])([H])C([H])([H])C2([H])N([H])C(=O)C1([H])N(C(=O)C([H])(N([H])C(=O)C([H])(N([H])C([H])([H])[H])C([H])([H])[H])C(C([H])([H])[H])(C([H])([H])[H])C([H])([H])[H])C([H])([H])c2c([H])c(OC([H])([H])C([H])([H])Oc3c([H])c([H])c(OC([H])([H])C([H])([H])N([H])C(=O)N4C([H])([H])C([H])([H])C([H])([H])C([H])(n5nc(-c6c([H])c([H])c(Oc7c([H])c([H])c(F)c([H])c7F)c([H])c6[H])c(C(=O)N([H])[H])c5N([H])[H])C4([H])[H])c(N([H])C4([H])C([H])([H])C4([H])[H])c3[H])c([H])c([H])c2C1([H])[H]

$$$$
8:0:0
     RDKit          3D

 97107  0  0  1  0  0  0  0  0999 V2000
  -29.1060  -20.7440   19.0620 C   0  0  0  0  0  2  0  0  0  0  0  0
  -30.3730  -20.6770   21.2480 C   0  0  0  0  0  2  0  0  0  0  0  0
  -29.4770  -22.2450   18.9400 C   0  0  0  0  0  2  0  0  0  0  0  0
  -30.7030  -22.1710   21.0420 C   0  0  0  0  0  2  0  0  0  0  0  0
  -30.1030  -19.9220   19.9240 C   0  0  0  0  0  3  0  0  0  0  0  0
  -29.6260  -22.8670   20.2850 N   0  0  1  0  0  4  0  0  0  0  0  0
  -28.7670  -22.6780   20.7840 H   0  0  0  0  0  0  0  0  0  0  0  0
  -28.2310  -18.3250   20.3950 C   0  0  0  0  0  3  0  0  0  0  0  0
  -30.2520  -17.3660   20.3220 C   0  0  0  0  0  3  0  0  0  0  0  0
  -28.0020  -16.9940   20.6100 C   0  0  0  0  0  0  0  0  0  0  0  0
  -29.3110  -16.3900   20.5570 C   0  0  0  0  0  0  0  0  0  0  0  0
  -29.5730  -18.5760   20.2000 N   0  0  0  0  0  0  0  0  0  0  0  0
  -30.2950  -14.1140   19.9860 C   0  0  0  0  0  0  0  0  0  0  0  0
  -30.2050  -11.8600   18.9550 C   0  0  0  0  0  2  0  0  0  0  0  0
  -29.2230  -11.9240   17.7640 C   0  0  0  0  0  2  0  0  0  0  0  0
  -27.7560  -11.7420   18.2210 C   0  0  0  0  0  2  0  0  0  0  0  0
  -27.3980  -12.6290   19.4420 C   0  0  0  0  0  3  0  0  0  0  0  0
  -28.4800  -12.4550   20.5300 C   0  0  0  0  0  2  0  0  0  0  0  0
  -29.7740  -12.8550   19.9470 N   0  0  0  0  0  0  0  0  0  0  0  0
  -31.3470  -14.4230   19.4060 O   0  0  0  0  0  0  0  0  0  0  0  0
  -29.5360  -14.9840   20.6900 N   0  0  0  0  0  0  0  0  0  0  0  0
  -28.8460  -14.5170   21.2560 H   0  0  0  0  0  0  0  0  0  0  0  0
  -24.9810  -13.1940   20.1430 C   0  0  0  0  0  0  0  0  0  0  0  0
  -23.9480  -12.4120   20.5840 C   0  0  0  0  0  0  0  0  0  0  0  0
  -24.4600  -11.0770   20.6290 C   0  0  0  0  0  0  0  0  0  0  0  0
  -26.0570  -12.3400   19.9530 N   0  0  0  0  0  0  0  0  0  0  0  0
  -25.7440  -11.0640   20.2940 N   0  0  0  0  0  0  0  0  0  0  0  0
  -23.7890   -9.8040   20.9170 C   0  0  0  0  0  0  0  0  0  0  0  0
  -24.2900   -8.9140   21.8910 C   0  0  0  0  0  3  0  0  0  0  0  0
  -23.6200   -7.7010   22.1650 C   0  0  0  0  0  3  0  0  0  0  0  0
  -22.4360   -7.3720   21.4650 C   0  0  0  0  0  0  0  0  0  0  0  0
  -21.9540   -8.2540   20.4830 C   0  0  0  0  0  3  0  0  0  0  0  0
  -22.6230   -9.4570   20.2090 C   0  0  0  0  0  3  0  0  0  0  0  0
  -21.7340   -6.2040   21.6430 O   0  0  0  0  0  0  0  0  0  0  0  0
  -21.7210   -5.5480   22.8480 C   0  0  0  0  0  0  0  0  0  0  0  0
  -21.2870   -6.1780   24.0340 C   0  0  0  0  0  3  0  0  0  0  0  0
  -21.2240   -5.4470   25.2370 C   0  0  0  0  0  3  0  0  0  0  0  0
  -21.5830   -4.0860   25.2540 C   0  0  0  0  0  0  0  0  0  0  0  0
  -22.0080   -3.4550   24.0720 C   0  0  0  0  0  3  0  0  0  0  0  0
  -22.0730   -4.1840   22.8720 C   0  0  0  0  0  0  0  0  0  0  0  0
  -22.4650   -3.5660   21.7320 F   0  0  0  0  0  0  0  0  0  0  0  0
  -21.5160   -3.3810   26.4080 F   0  0  0  0  0  0  0  0  0  0  0  0
  -22.5380  -12.8550   20.8520 C   0  0  0  0  0  0  0  0  0  0  0  0
  -21.8460  -12.1820   21.7660 N   0  0  0  0  0  0  0  0  0  0  0  0
  -22.0540  -13.8310   20.2820 O   0  0  0  0  0  0  0  0  0  0  0  0
  -22.2460  -11.3960   22.2540 H   0  0  0  0  0  0  0  0  0  0  0  0
  -20.9010  -12.4660   21.9820 H   0  0  0  0  0  0  0  0  0  0  0  0
  -25.0910  -14.5520   19.8700 N   0  0  0  0  0  4  0  0  0  0  0  0
  -24.3170  -15.1940   19.9830 H   0  0  0  0  0  0  0  0  0  0  0  0
  -25.9400  -15.0040   19.5540 H   0  0  0  0  0  0  0  0  0  0  0  0
  -25.6150  -17.0070   19.7660 C   0  0  0  0  0  1  0  0  0  0  0  0
  -26.5800  -16.4690   20.8420 C   0  0  0  0  0  3  0  0  0  0  0  0
  -26.9610  -14.3460   22.2600 C   0  0  0  0  0  1  0  0  0  0  0  0
  -26.4170  -14.9460   20.9540 C   0  0  0  0  0  3  0  0  0  0  0  0
  -29.7840  -24.3600   20.3150 C   0  0  0  0  0  2  0  0  0  0  0  0
  -28.6670  -25.1720   19.6070 C   0  0  0  0  0  2  0  0  0  0  0  0
  -28.6390  -26.5200   20.1150 O   0  0  0  0  0  0  0  0  0  0  0  0
  -24.6420  -31.6110   23.1110 C   0  0  0  0  0  0  0  0  0  0  0  0
  -27.4440  -27.2170   20.0750 C   0  0  0  0  0  0  0  0  0  0  0  0
  -23.5110  -30.2190   21.4100 C   0  0  0  0  0  3  0  0  0  0  0  0
  -25.0290  -28.7060   20.0280 C   0  0  0  0  0  0  0  0  0  0  0  0
  -26.0430  -30.5950   21.3150 C   0  0  0  0  0  2  0  0  0  0  0  0
  -26.1610  -29.2320   20.6620 C   0  0  0  0  0  0  0  0  0  0  0  0
  -27.3690  -28.4960   20.6800 C   0  0  0  0  0  3  0  0  0  0  0  0
  -26.2880  -26.7080   19.4380 C   0  0  0  0  0  3  0  0  0  0  0  0
  -25.0880  -27.4440   19.4140 C   0  0  0  0  0  3  0  0  0  0  0  0
  -23.7810  -29.5620   20.0300 C   0  0  0  0  0  2  0  0  0  0  0  0
  -24.7470  -30.8230   22.0030 N   0  0  0  0  0  0  0  0  0  0  0  0
  -23.5370  -31.8690   23.6100 O   0  0  0  0  0  0  0  0  0  0  0  0
  -22.8310  -29.1810   22.3310 C   0  0  0  0  0  0  0  0  0  0  0  0
  -21.5110  -29.0030   22.1630 N   0  0  0  0  0  0  0  0  0  0  0  0
  -23.4910  -28.5400   23.1560 O   0  0  0  0  0  0  0  0  0  0  0  0
  -21.0400  -29.5770   21.4780 H   0  0  0  0  0  0  0  0  0  0  0  0
  -18.1000  -27.9100   22.6490 C   0  0  0  0  0  0  0  0  0  0  0  0
  -20.6700  -28.0530   22.8910 C   0  0  0  0  0  3  0  0  0  0  0  0
  -20.7060  -26.6540   22.2320 C   0  0  0  0  0  2  0  0  0  0  0  0
  -19.5770  -26.4350   21.2200 C   0  0  0  0  0  2  0  0  0  0  0  0
  -18.2120  -26.5960   21.8940 C   0  0  0  0  0  2  0  0  0  0  0  0
  -19.2550  -28.6010   23.1040 C   0  0  0  0  0  0  0  0  0  0  0  0
  -19.0970  -29.8360   23.7690 C   0  0  0  0  0  3  0  0  0  0  0  0
  -17.8170  -30.3800   23.9840 C   0  0  0  0  0  3  0  0  0  0  0  0
  -16.6770  -29.6850   23.5460 C   0  0  0  0  0  3  0  0  0  0  0  0
  -16.8200  -28.4520   22.8850 C   0  0  0  0  0  3  0  0  0  0  0  0
  -25.8980  -32.2440   23.7870 C   0  0  0  0  0  3  0  0  0  0  0  0
  -25.5610  -33.6330   24.1220 N   0  0  0  0  0  0  0  0  0  0  0  0
  -25.8820  -34.6960   23.3720 C   0  0  0  0  0  0  0  0  0  0  0  0
  -26.5620  -34.6110   22.3460 O   0  0  0  0  0  0  0  0  0  0  0  0
  -24.9520  -33.7720   24.9140 H   0  0  0  0  0  0  0  0  0  0  0  0
  -24.1120  -36.4520   23.0260 C   0  0  0  0  0  1  0  0  0  0  0  0
  -25.3640  -36.0720   23.8320 C   0  0  0  0  0  3  0  0  0  0  0  0
  -27.4810  -37.0030   24.6580 C   0  0  0  0  0  1  0  0  0  0  0  0
  -26.3720  -37.1490   23.7200 N   0  0  0  0  0  0  0  0  0  0  0  0
  -25.9440  -38.0580   23.8700 H   0  0  0  0  0  0  0  0  0  0  0  0
  -26.3750  -31.4590   25.0710 C   0  0  1  0  0  0  0  0  0  0  0  0
  -25.2440  -31.1730   26.0850 C   0  0  0  0  0  1  0  0  0  0  0  0
  -27.0080  -30.1020   24.6790 C   0  0  0  0  0  1  0  0  0  0  0  0
  -27.4710  -32.2690   25.8030 C   0  0  0  0  0  1  0  0  0  0  0  0
  3  1  1  0
  3  6  1  0
  4  2  1  0
  5  1  1  0
  5 12  1  0
  5  2  1  0
  6 55  1  0
  6  7  1  1
  6  4  1  0
  8 10  2  0
  9 11  2  0
 10 52  1  0
 11 10  1  0
 11 21  1  0
 12  9  1  0
 12  8  1  0
 13 21  1  0
 14 19  1  0
 15 16  1  0
 15 14  1  0
 17 16  1  0
 17 26  1  0
 17 18  1  0
 19 13  1  0
 19 18  1  0
 20 13  2  0
 21 22  1  0
 23 24  2  0
 24 25  1  0
 24 43  1  0
 25 28  1  0
 26 23  1  0
 26 27  1  0
 27 25  2  0
 28 29  1  0
 29 30  2  0
 31 34  1  0
 31 30  1  0
 32 31  2  0
 33 32  1  0
 33 28  2  0
 34 35  1  0
 35 40  2  0
 35 36  1  0
 36 37  2  0
 37 38  1  0
 38 42  1  0
 39 38  2  0
 40 39  1  0
 41 40  1  0
 43 44  1  0
 44 47  1  0
 44 46  1  0
 45 43  2  0
 48 49  1  0
 48 23  1  0
 48 54  1  0
 50 48  1  0
 52 51  1  0
 52 54  1  0
 54 53  1  0
 56 57  1  0
 56 55  1  0
 58 69  2  0
 59 57  1  0
 59 64  1  0
 60 68  1  0
 60 70  1  0
 61 67  1  0
 61 63  1  0
 62 68  1  0
 63 64  2  0
 63 62  1  0
 65 59  2  0
 66 65  1  0
 66 61  2  0
 67 60  1  0
 68 58  1  0
 70 72  2  0
 71 70  1  0
 73 71  1  0
 74 83  2  0
 74 79  1  0
 75 71  1  0
 75 79  1  0
 76 75  1  0
 77 78  1  0
 77 76  1  0
 78 74  1  0
 79 80  2  0
 80 81  1  0
 82 81  2  0
 83 82  1  0
 84 58  1  0
 84 85  1  0
 84 94  1  0
 85 88  1  0
 86 90  1  0
 86 85  1  0
 87 86  2  0
 90 89  1  0
 92 90  1  0
 92 93  1  0
 92 91  1  0
 94 97  1  1
 94 95  1  0
 96 94  1  0
M  ISO  4  13 100  21 100  56 101  57 101
M  END
>  <TORSDO>  (9) 
F 21

>  <SCORE>  (9) 
-9.549

>  <name>  (9) 
8

>  <ligand_id>  (9) 
8

>  <original_smiles>  (9) 
[H]c1c([H])c([H])c2c(c1[H])C([H])([H])C([H])([H])C([H])([H])C2([H])N([H])C(=O)C1([H])N(C(=O)C([H])(N([H])C(=O)C([H])(N([H])C([H])([H])[H])C([H])([H])[H])C(C([H])([H])[H])(C([H])([H])[H])C([H])([H])[H])C([H])([H])c2c([H])c(OC([H])([H])C([H])([H])[N+]3([H])C([H])([H])C([H])([H])C([H])(n4c([H])c(N([H])C(=O)N5C([H])([H])C([H])([H])C([H])([H])C([H])(n6nc(-c7c([H])c([H])c(Oc8c([H])c([H])c(F)c([H])c8F)c([H])c7[H])c(C(=O)N([H])[H])c6N([H])[H])C5([H])[H])c(C([H])(C([H])([H])[H])C([H])([H])C([H])([H])[H])c4[H])C([H])([H])C3([H])[H])c([H])c([H])c2C1([H])[H]

>  <smiles>  (9) 
[H]c1c([H])c([H])c2c(c1[H])C([H])([H])C([H])([H])C([H])([H])C2([H])N([H])C(=O)C1([H])N(C(=O)C([H])(N([H])C(=O)C([H])(N([H])C([H])([H])[H])C([H])([H])[H])C(C([H])([H])[H])(C([H])([H])[H])C([H])([H])[H])C([H])([H])c2c([H])c(OC([H])([H])C([H])([H])[N+]3([H])C([H])([H])C([H])([H])C([H])(n4c([H])c(N([H])C(=O)N5C([H])([H])C([H])([H])C([H])([H])C([H])(n6nc(-c7c([H])c([H])c(Oc8c([H])c([H])c(F)c([H])c8F)c([H])c7[H])c(C(=O)N([H])[H])c6N([H])[H])C5([H])[H])c(C([H])(C([H])([H])[H])C([H])([H])C([H])([H])[H])c4[H])C([H])([H])C3([H])[H])c([H])c([H])c2C1([H])[H]

$$$$
9:0:0
     RDKit          3D

 98108  0  0  1  0  0  0  0  0999 V2000
  -30.8360  -22.8670   21.6660 C   0  0  0  0  0  2  0  0  0  0  0  0
  -29.0700  -22.3100   20.0140 C   0  0  0  0  0  2  0  0  0  0  0  0
  -31.1940  -24.1180   20.8290 C   0  0  0  0  0  2  0  0  0  0  0  0
  -29.4740  -23.5140   19.1530 C   0  0  0  0  0  2  0  0  0  0  0  0
  -30.3030  -21.7520   20.7530 C   0  0  0  0  0  3  0  0  0  0  0  0
  -30.0550  -24.5920   19.9940 N   0  0  2  0  0  4  0  0  0  0  0  0
  -29.3250  -24.8740   20.6350 H   0  0  0  0  0  0  0  0  0  0  0  0
  -30.0150  -20.4100   21.4700 C   0  0  0  0  0  2  0  0  0  0  0  0
  -30.9470  -18.1470   18.4980 C   0  0  0  0  0  3  0  0  0  0  0  0
  -30.6460  -19.2790   19.2540 C   0  0  0  0  0  3  0  0  0  0  0  0
  -30.2650  -17.8820   21.2010 C   0  0  0  0  0  3  0  0  0  0  0  0
  -30.9480  -16.8630   19.0710 C   0  0  0  0  0  0  0  0  0  0  0  0
  -30.3140  -19.1690   20.6210 C   0  0  0  0  0  0  0  0  0  0  0  0
  -30.5820  -16.7260   20.4460 C   0  0  0  0  0  0  0  0  0  0  0  0
  -31.1870  -14.3870   20.9930 C   0  0  0  0  0  0  0  0  0  0  0  0
  -30.9540  -12.1380   20.0460 C   0  0  0  0  0  2  0  0  0  0  0  0
  -30.1360  -12.2280   18.7370 C   0  0  0  0  0  2  0  0  0  0  0  0
  -28.6190  -12.2500   19.0020 C   0  0  0  0  0  2  0  0  0  0  0  0
  -28.1940  -13.1810   20.1700 C   0  0  0  0  0  3  0  0  0  0  0  0
  -29.1230  -12.9980   21.3920 C   0  0  0  0  0  2  0  0  0  0  0  0
  -30.5090  -13.2110   20.9420 N   0  0  0  0  0  0  0  0  0  0  0  0
  -32.3940  -14.4940   20.7730 O   0  0  0  0  0  0  0  0  0  0  0  0
  -30.3930  -15.4660   21.0870 N   0  0  0  0  0  0  0  0  0  0  0  0
  -29.4600  -15.2770   21.4200 H   0  0  0  0  0  0  0  0  0  0  0  0
  -25.7580  -13.9020   20.5930 C   0  0  0  0  0  0  0  0  0  0  0  0
  -24.6310  -13.1790   20.8810 C   0  0  0  0  0  0  0  0  0  0  0  0
  -25.0470  -11.8150   20.9630 C   0  0  0  0  0  0  0  0  0  0  0  0
  -26.7920  -12.9790   20.5210 N   0  0  0  0  0  0  0  0  0  0  0  0
  -26.3600  -11.7230   20.8030 N   0  0  0  0  0  0  0  0  0  0  0  0
  -24.2670  -10.5840   21.1340 C   0  0  0  0  0  0  0  0  0  0  0  0
  -24.6170   -9.6150   22.1020 C   0  0  0  0  0  3  0  0  0  0  0  0
  -23.8390   -8.4470   22.2570 C   0  0  0  0  0  3  0  0  0  0  0  0
  -22.6990   -8.2400   21.4440 C   0  0  0  0  0  0  0  0  0  0  0  0
  -22.3690   -9.1960   20.4660 C   0  0  0  0  0  3  0  0  0  0  0  0
  -23.1470  -10.3560   20.3100 C   0  0  0  0  0  3  0  0  0  0  0  0
  -21.9010   -7.1230   21.5070 O   0  0  0  0  0  0  0  0  0  0  0  0
  -21.7920   -6.3800   22.6550 C   0  0  0  0  0  0  0  0  0  0  0  0
  -21.3650   -6.9510   23.8750 C   0  0  0  0  0  3  0  0  0  0  0  0
  -21.2000   -6.1380   25.0130 C   0  0  0  0  0  3  0  0  0  0  0  0
  -21.4530   -4.7550   24.9330 C   0  0  0  0  0  0  0  0  0  0  0  0
  -21.8720   -4.1840   23.7170 C   0  0  0  0  0  3  0  0  0  0  0  0
  -22.0380   -4.9950   22.5820 C   0  0  0  0  0  0  0  0  0  0  0  0
  -22.4230   -4.4380   21.4080 F   0  0  0  0  0  0  0  0  0  0  0  0
  -21.2860   -3.9700   26.0230 F   0  0  0  0  0  0  0  0  0  0  0  0
  -23.2300  -13.7080   20.9800 C   0  0  0  0  0  0  0  0  0  0  0  0
  -22.3990  -13.0890   21.8100 N   0  0  0  0  0  0  0  0  0  0  0  0
  -22.8770  -14.7100   20.3580 O   0  0  0  0  0  0  0  0  0  0  0  0
  -22.6940  -12.2800   22.3370 H   0  0  0  0  0  0  0  0  0  0  0  0
  -21.4550  -13.4300   21.9210 H   0  0  0  0  0  0  0  0  0  0  0  0
  -25.9890  -15.2540   20.3670 N   0  0  0  0  0  0  0  0  0  0  0  0
  -25.2350  -15.9340   20.3660 H   0  0  0  0  0  0  0  0  0  0  0  0
  -26.8870  -15.6550   20.1280 H   0  0  0  0  0  0  0  0  0  0  0  0
  -32.7090  -15.1770   18.0690 C   0  0  0  0  0  2  0  0  0  0  0  0
  -32.1120  -15.8870   16.8870 C   0  0  0  0  0  2  0  0  0  0  0  0
  -31.2920  -15.7150   18.1580 C   0  0  0  0  0  3  0  0  0  0  0  0
  -30.3840  -25.8240   19.2250 C   0  0  0  0  0  2  0  0  0  0  0  0
  -29.1210  -26.6190   18.8580 C   0  0  0  0  0  2  0  0  0  0  0  0
  -28.3380  -26.6380   20.0380 O   0  0  0  0  0  0  0  0  0  0  0  0
  -24.5370  -31.7360   23.1030 C   0  0  0  0  0  0  0  0  0  0  0  0
  -27.1850  -27.3680   19.9770 C   0  0  0  0  0  0  0  0  0  0  0  0
  -23.3270  -30.3530   21.4430 C   0  0  0  0  0  3  0  0  0  0  0  0
  -24.7830  -28.8340   19.9980 C   0  0  0  0  0  0  0  0  0  0  0  0
  -25.8460  -30.7260   21.2450 C   0  0  0  0  0  2  0  0  0  0  0  0
  -25.9330  -29.3630   20.5960 C   0  0  0  0  0  0  0  0  0  0  0  0
  -27.1360  -28.6300   20.5960 C   0  0  0  0  0  3  0  0  0  0  0  0
  -26.0260  -26.8350   19.3770 C   0  0  0  0  0  3  0  0  0  0  0  0
  -24.8210  -27.5640   19.3890 C   0  0  0  0  0  3  0  0  0  0  0  0
  -23.5350  -29.6850   20.0540 C   0  0  0  0  0  2  0  0  0  0  0  0
  -24.5880  -30.9510   21.9900 N   0  0  0  0  0  0  0  0  0  0  0  0
  -23.4580  -32.0020   23.6490 O   0  0  0  0  0  0  0  0  0  0  0  0
  -22.6780  -29.3220   22.3920 C   0  0  0  0  0  0  0  0  0  0  0  0
  -21.3480  -29.1700   22.2880 N   0  0  0  0  0  0  0  0  0  0  0  0
  -23.3650  -28.6660   23.1790 O   0  0  0  0  0  0  0  0  0  0  0  0
  -20.8550  -29.7510   21.6240 H   0  0  0  0  0  0  0  0  0  0  0  0
  -17.9580  -28.0540   22.8390 C   0  0  0  0  0  0  0  0  0  0  0  0
  -20.5280  -28.2310   23.0520 C   0  0  0  0  0  3  0  0  0  0  0  0
  -20.5750  -26.8160   22.4300 C   0  0  0  0  0  2  0  0  0  0  0  0
  -19.4380  -26.5570   21.4350 C   0  0  0  0  0  2  0  0  0  0  0  0
  -18.0770  -26.7210   22.1200 C   0  0  0  0  0  2  0  0  0  0  0  0
  -19.1080  -28.7700   23.2630 C   0  0  0  0  0  0  0  0  0  0  0  0
  -18.9430  -30.0210   23.8960 C   0  0  0  0  0  3  0  0  0  0  0  0
  -17.6570  -30.5550   24.1090 C   0  0  0  0  0  3  0  0  0  0  0  0
  -16.5210  -29.8340   23.7020 C   0  0  0  0  0  3  0  0  0  0  0  0
  -16.6720  -28.5860   23.0740 C   0  0  0  0  0  3  0  0  0  0  0  0
  -25.8270  -32.3560   23.7280 C   0  0  0  0  0  3  0  0  0  0  0  0
  -25.5130  -33.7400   24.1050 N   0  0  0  0  0  0  0  0  0  0  0  0
  -25.8330  -34.8170   23.3730 C   0  0  0  0  0  0  0  0  0  0  0  0
  -26.4940  -34.7490   22.3330 O   0  0  0  0  0  0  0  0  0  0  0  0
  -24.9240  -33.8680   24.9150 H   0  0  0  0  0  0  0  0  0  0  0  0
  -24.0870  -36.6030   23.0900 C   0  0  0  0  0  1  0  0  0  0  0  0
  -25.3410  -36.1870   23.8760 C   0  0  0  0  0  3  0  0  0  0  0  0
  -27.4800  -37.0630   24.7040 C   0  0  0  0  0  1  0  0  0  0  0  0
  -26.3640  -37.2510   23.7800 N   0  0  0  0  0  0  0  0  0  0  0  0
  -25.9520  -38.1630   23.9620 H   0  0  0  0  0  0  0  0  0  0  0  0
  -26.3690  -31.5460   24.9690 C   0  0  1  0  0  0  0  0  0  0  0  0
  -25.2960  -31.2690   26.0480 C   0  0  0  0  0  1  0  0  0  0  0  0
  -26.9490  -30.1860   24.5210 C   0  0  0  0  0  1  0  0  0  0  0  0
  -27.5270  -32.3250   25.6360 C   0  0  0  0  0  1  0  0  0  0  0  0
  2  5  1  0
  3  1  1  0
  4  6  1  0
  4  2  1  0
  5  8  1  0
  5  1  1  0
  6  7  1  1
  6  3  1  0
  9 12  2  0
  9 10  1  0
 10 13  2  0
 12 14  1  0
 13 11  1  0
 13  8  1  0
 14 23  1  0
 14 11  2  0
 15 23  1  0
 16 21  1  0
 17 18  1  0
 17 16  1  0
 19 18  1  0
 19 28  1  0
 19 20  1  0
 21 15  1  0
 21 20  1  0
 22 15  2  0
 23 24  1  0
 25 26  2  0
 26 27  1  0
 26 45  1  0
 27 30  1  0
 28 25  1  0
 28 29  1  0
 29 27  2  0
 30 31  1  0
 31 32  2  0
 33 36  1  0
 33 32  1  0
 34 33  2  0
 35 34  1  0
 35 30  2  0
 36 37  1  0
 37 38  1  0
 38 39  2  0
 40 39  1  0
 40 44  1  0
 41 40  2  0
 42 37  2  0
 42 41  1  0
 43 42  1  0
 45 46  1  0
 46 49  1  0
 46 48  1  0
 47 45  2  0
 50 25  1  0
 51 50  1  0
 52 50  1  0
 53 55  1  0
 54 53  1  0
 54 55  1  0
 55 12  1  0
 56  6  1  0
 57 56  1  0
 57 58  1  0
 59 70  2  0
 60 58  1  0
 60 65  1  0
 61 69  1  0
 61 71  1  0
 62 68  1  0
 62 64  1  0
 63 69  1  0
 64 63  1  0
 65 64  2  0
 66 67  1  0
 66 60  2  0
 67 62  2  0
 68 61  1  0
 69 59  1  0
 71 73  2  0
 72 71  1  0
 74 72  1  0
 75 84  2  0
 75 80  1  0
 76 72  1  0
 76 80  1  0
 77 76  1  0
 78 79  1  0
 78 77  1  0
 79 75  1  0
 80 81  2  0
 81 82  1  0
 83 82  2  0
 84 83  1  0
 85 59  1  0
 85 86  1  0
 85 95  1  0
 86 89  1  0
 87 91  1  0
 87 86  1  0
 88 87  2  0
 91 90  1  0
 93 91  1  0
 93 94  1  0
 93 92  1  0
 95 98  1  1
 95 96  1  0
 97 95  1  0
M  ISO  4  15 100  23 100  57 101  58 101
M  END
>  <TORSDO>  (10) 
F 21

>  <SCORE>  (10) 
-13.093

>  <name>  (10) 
9

>  <ligand_id>  (10) 
9

>  <original_smiles>  (10) 
[H]c1c([H])c([H])c2c(c1[H])C([H])([H])C([H])([H])C([H])([H])C2([H])N([H])C(=O)C1([H])N(C(=O)C([H])(N([H])C(=O)C([H])(N([H])C([H])([H])[H])C([H])([H])[H])C(C([H])([H])[H])(C([H])([H])[H])C([H])([H])[H])C([H])([H])c2c([H])c(OC([H])([H])C([H])([H])[N+]3([H])C([H])([H])C([H])([H])C([H])(C([H])([H])c4c([H])c([H])c(C5([H])C([H])([H])C5([H])[H])c(N([H])C(=O)N5C([H])([H])C([H])([H])C([H])([H])C([H])(n6nc(-c7c([H])c([H])c(Oc8c([H])c([H])c(F)c([H])c8F)c([H])c7[H])c(C(=O)N([H])[H])c6N([H])[H])C5([H])[H])c4[H])C([H])([H])C3([H])[H])c([H])c([H])c2C1([H])[H]

>  <smiles>  (10) 
[H]c1c([H])c([H])c2c(c1[H])C([H])([H])C([H])([H])C([H])([H])C2([H])N([H])C(=O)C1([H])N(C(=O)C([H])(N([H])C(=O)C([H])(N([H])C([H])([H])[H])C([H])([H])[H])C(C([H])([H])[H])(C([H])([H])[H])C([H])([H])[H])C([H])([H])c2c([H])c(OC([H])([H])C([H])([H])[N+]3([H])C([H])([H])C([H])([H])C([H])(C([H])([H])c4c([H])c([H])c(C5([H])C([H])([H])C5([H])[H])c(N([H])C(=O)N5C([H])([H])C([H])([H])C([H])([H])C([H])(n6nc(-c7c([H])c([H])c(Oc8c([H])c([H])c(F)c([H])c8F)c([H])c7[H])c(C(=O)N([H])[H])c6N([H])[H])C5([H])[H])c4[H])C([H])([H])C3([H])[H])c([H])c([H])c2C1([H])[H]

$$$$
10:0:0
     RDKit          3D

 93101  0  0  1  0  0  0  0  0999 V2000
  -27.6360  -24.4060   18.1300 C   0  0  0  0  0  2  0  0  0  0  0  0
  -26.9260  -23.1310   17.7480 C   0  0  0  0  0  2  0  0  0  0  0  0
  -28.3850  -24.1660   19.4490 C   0  0  0  0  0  3  0  0  0  0  0  0
  -26.7230  -22.4260   19.0900 C   0  0  0  0  0  3  0  0  0  0  0  0
  -27.9350  -22.7500   19.9190 N   0  0  1  0  0  4  0  0  0  0  0  0
  -27.6650  -22.8240   20.8910 H   0  0  0  0  0  0  0  0  0  0  0  0
  -25.1970  -23.6900   20.8790 C   0  0  0  0  0  1  0  0  0  0  0  0
  -24.2080  -22.8080   18.7490 C   0  0  0  0  0  1  0  0  0  0  0  0
  -25.3320  -22.6120   19.7850 C   0  0  0  0  0  3  0  0  0  0  0  0
  -30.4050  -21.8590   19.9640 C   0  0  0  0  0  1  0  0  0  0  0  0
  -28.9030  -21.5400   19.7810 C   0  0  0  0  0  3  0  0  0  0  0  0
  -28.5560  -20.1880   20.6090 C   0  0  0  0  0  2  0  0  0  0  0  0
  -28.8610  -18.9130   19.9240 O   0  0  0  0  0  0  0  0  0  0  0  0
  -29.4250  -17.7540   20.6620 C   0  0  0  0  0  2  0  0  0  0  0  0
  -29.0580  -16.3110   20.0690 C   0  0  0  0  0  2  0  0  0  0  0  0
  -30.0750  -15.0810   20.0110 C   0  0  0  0  0  0  0  0  0  0  0  0
  -30.0520  -12.7900   19.0590 C   0  0  0  0  0  2  0  0  0  0  0  0
  -29.0340  -12.7820   17.8950 C   0  0  0  0  0  2  0  0  0  0  0  0
  -27.6040  -12.5110   18.4040 C   0  0  0  0  0  2  0  0  0  0  0  0
  -27.2300  -13.3860   19.6250 C   0  0  0  0  0  3  0  0  0  0  0  0
  -28.3520  -13.3680   20.6890 C   0  0  0  0  0  2  0  0  0  0  0  0
  -29.5980  -13.7930   20.0410 N   0  0  0  0  0  0  0  0  0  0  0  0
  -31.2390  -15.2940   19.6520 O   0  0  0  0  0  0  0  0  0  0  0  0
  -24.8680  -13.8320   20.5310 C   0  0  0  0  0  0  0  0  0  0  0  0
  -23.8690  -12.9920   20.9450 C   0  0  0  0  0  0  0  0  0  0  0  0
  -24.3980  -11.6720   20.8330 C   0  0  0  0  0  0  0  0  0  0  0  0
  -25.9350  -13.0170   20.1910 N   0  0  0  0  0  0  0  0  0  0  0  0
  -25.6630  -11.7110   20.4360 N   0  0  0  0  0  0  0  0  0  0  0  0
  -23.7510  -10.3670   21.0270 C   0  0  0  0  0  0  0  0  0  0  0  0
  -24.2510   -9.4280   21.9540 C   0  0  0  0  0  3  0  0  0  0  0  0
  -23.6010   -8.1870   22.1390 C   0  0  0  0  0  3  0  0  0  0  0  0
  -22.4400   -7.8760   21.3940 C   0  0  0  0  0  0  0  0  0  0  0  0
  -21.9590   -8.8060   20.4570 C   0  0  0  0  0  3  0  0  0  0  0  0
  -22.6090  -10.0380   20.2690 C   0  0  0  0  0  3  0  0  0  0  0  0
  -21.7630   -6.6830   21.4880 O   0  0  0  0  0  0  0  0  0  0  0  0
  -21.7290   -5.9620   22.6520 C   0  0  0  0  0  0  0  0  0  0  0  0
  -21.1750   -6.4880   23.8400 C   0  0  0  0  0  3  0  0  0  0  0  0
  -21.0950   -5.6870   24.9950 C   0  0  0  0  0  3  0  0  0  0  0  0
  -21.5580   -4.3580   24.9660 C   0  0  0  0  0  0  0  0  0  0  0  0
  -22.1030   -3.8290   23.7820 C   0  0  0  0  0  3  0  0  0  0  0  0
  -22.1860   -4.6270   22.6290 C   0  0  0  0  0  0  0  0  0  0  0  0
  -22.6910   -4.1050   21.4840 F   0  0  0  0  0  0  0  0  0  0  0  0
  -21.4760   -3.5880   26.0730 F   0  0  0  0  0  0  0  0  0  0  0  0
  -22.4750  -13.3890   21.3320 C   0  0  0  0  0  0  0  0  0  0  0  0
  -21.8450  -12.6230   22.2190 N   0  0  0  0  0  0  0  0  0  0  0  0
  -21.9500  -14.4060   20.8850 O   0  0  0  0  0  0  0  0  0  0  0  0
  -22.2950  -11.8060   22.6060 H   0  0  0  0  0  0  0  0  0  0  0  0
  -20.9140  -12.8640   22.5200 H   0  0  0  0  0  0  0  0  0  0  0  0
  -24.9500  -15.2120   20.4010 N   0  0  0  0  0  0  0  0  0  0  0  0
  -24.1630  -15.8200   20.6120 H   0  0  0  0  0  0  0  0  0  0  0  0
  -25.7470  -15.7120   20.0290 H   0  0  0  0  0  0  0  0  0  0  0  0
  -28.1250  -25.4420   20.4190 C   0  0  0  0  0  2  0  0  0  0  0  0
  -28.1960  -26.8570   19.9450 O   0  0  0  0  0  0  0  0  0  0  0  0
  -24.5010  -32.0760   23.4180 C   0  0  0  0  0  0  0  0  0  0  0  0
  -27.0660  -27.6900   20.0570 C   0  0  0  0  0  0  0  0  0  0  0  0
  -23.2620  -30.7360   21.7590 C   0  0  0  0  0  3  0  0  0  0  0  0
  -24.6820  -29.2770   20.2210 C   0  0  0  0  0  0  0  0  0  0  0  0
  -25.7930  -31.0810   21.5220 C   0  0  0  0  0  2  0  0  0  0  0  0
  -25.8650  -29.7320   20.8210 C   0  0  0  0  0  0  0  0  0  0  0  0
  -27.0560  -28.9480   20.7410 C   0  0  0  0  0  3  0  0  0  0  0  0
  -25.8730  -27.3370   19.3950 C   0  0  0  0  0  3  0  0  0  0  0  0
  -24.6870  -28.0800   19.5000 C   0  0  0  0  0  3  0  0  0  0  0  0
  -23.4400  -30.1320   20.3440 C   0  0  0  0  0  2  0  0  0  0  0  0
  -24.5380  -31.3130   22.2880 N   0  0  0  0  0  0  0  0  0  0  0  0
  -23.4320  -32.3160   23.9970 O   0  0  0  0  0  0  0  0  0  0  0  0
  -22.6410  -29.6640   22.6870 C   0  0  0  0  0  0  0  0  0  0  0  0
  -21.3260  -29.4260   22.5400 N   0  0  0  0  0  0  0  0  0  0  0  0
  -23.3400  -29.0550   23.5010 O   0  0  0  0  0  0  0  0  0  0  0  0
  -20.8160  -29.9830   21.8670 H   0  0  0  0  0  0  0  0  0  0  0  0
  -18.0110  -28.0370   22.9540 C   0  0  0  0  0  0  0  0  0  0  0  0
  -20.5450  -28.4380   23.2880 C   0  0  0  0  0  3  0  0  0  0  0  0
  -20.7400  -27.0160   22.7080 C   0  0  0  0  0  2  0  0  0  0  0  0
  -19.6850  -26.6430   21.6620 C   0  0  0  0  0  2  0  0  0  0  0  0
  -18.2780  -26.7100   22.2640 C   0  0  0  0  0  2  0  0  0  0  0  0
  -19.0760  -28.8570   23.4140 C   0  0  0  0  0  0  0  0  0  0  0  0
  -18.7700  -30.1010   24.0120 C   0  0  0  0  0  3  0  0  0  0  0  0
  -17.4350  -30.5270   24.1470 C   0  0  0  0  0  3  0  0  0  0  0  0
  -16.3870  -29.7030   23.7030 C   0  0  0  0  0  3  0  0  0  0  0  0
  -16.6760  -28.4570   23.1180 C   0  0  0  0  0  3  0  0  0  0  0  0
  -25.7960  -32.6970   24.0240 C   0  0  0  0  0  3  0  0  0  0  0  0
  -25.5170  -34.1080   24.3150 N   0  0  0  0  0  0  0  0  0  0  0  0
  -25.8590  -35.1300   23.5190 C   0  0  0  0  0  0  0  0  0  0  0  0
  -26.5140  -34.9820   22.4850 O   0  0  0  0  0  0  0  0  0  0  0  0
  -24.9380  -34.2950   25.1210 H   0  0  0  0  0  0  0  0  0  0  0  0
  -24.1540  -36.9390   23.1420 C   0  0  0  0  0  1  0  0  0  0  0  0
  -25.4030  -36.5410   23.9400 C   0  0  0  0  0  3  0  0  0  0  0  0
  -27.5650  -37.4260   24.7020 C   0  0  0  0  0  1  0  0  0  0  0  0
  -26.4520  -37.5710   23.7700 N   0  0  0  0  0  0  0  0  0  0  0  0
  -26.0630  -38.5040   23.8860 H   0  0  0  0  0  0  0  0  0  0  0  0
  -26.2870  -31.9470   25.3240 C   0  0  1  0  0  0  0  0  0  0  0  0
  -25.1800  -31.7470   26.3840 C   0  0  0  0  0  1  0  0  0  0  0  0
  -26.8580  -30.5540   24.9760 C   0  0  0  0  0  1  0  0  0  0  0  0
  -27.4410  -32.7440   25.9800 C   0  0  0  0  0  1  0  0  0  0  0  0
  1  3  1  0
  2  1  1  0
  2  4  1  0
  3  5  1  0
  3 52  1  0
  4  9  1  0
  4  5  1  0
  5  6  1  1
  8  9  1  0
  9  7  1  0
 11  5  1  0
 11 10  1  0
 11 12  1  0
 13 12  1  0
 13 14  1  0
 15 14  1  0
 16 22  1  0
 16 15  1  0
 17 22  1  0
 18 19  1  0
 18 17  1  0
 20 19  1  0
 20 27  1  0
 20 21  1  0
 22 21  1  0
 23 16  2  0
 24 25  2  0
 25 44  1  0
 26 25  1  0
 26 29  1  0
 27 28  1  0
 27 24  1  0
 28 26  2  0
 29 30  1  0
 30 31  2  0
 32 35  1  0
 32 31  1  0
 33 32  2  0
 34 33  1  0
 34 29  2  0
 35 36  1  0
 36 37  1  0
 37 38  2  0
 39 38  1  0
 39 43  1  0
 40 39  2  0
 41 36  2  0
 41 40  1  0
 42 41  1  0
 44 45  1  0
 45 48  1  0
 45 47  1  0
 46 44  2  0
 49 24  1  0
 49 50  1  0
 51 49  1  0
 53 55  1  0
 53 52  1  0
 54 65  2  0
 55 60  1  0
 56 64  1  0
 56 66  1  0
 57 63  1  0
 57 59  1  0
 58 64  1  0
 59 58  1  0
 60 59  2  0
 61 62  1  0
 61 55  2  0
 62 57  2  0
 63 56  1  0
 64 54  1  0
 66 68  2  0
 67 66  1  0
 69 67  1  0
 70 79  2  0
 70 75  1  0
 71 67  1  0
 71 75  1  0
 72 71  1  0
 73 74  1  0
 73 72  1  0
 74 70  1  0
 75 76  2  0
 76 77  1  0
 78 77  2  0
 79 78  1  0
 80 54  1  0
 80 81  1  0
 80 90  1  0
 81 84  1  0
 82 86  1  0
 82 81  1  0
 83 82  2  0
 86 85  1  0
 88 89  1  0
 88 86  1  0
 88 87  1  0
 90 93  1  1
 90 91  1  0
 92 90  1  0
M  ISO  4  15 100  16 100  52 101  53 101
M  END
>  <TORSDO>  (11) 
F 23

>  <SCORE>  (11) 
-12.336

>  <name>  (11) 
10

>  <ligand_id>  (11) 
10

>  <original_smiles>  (11) 
[H]c1c([H])c([H])c2c(c1[H])C([H])([H])C([H])([H])C([H])([H])C2([H])N([H])C(=O)C1([H])N(C(=O)C([H])(N([H])C(=O)C([H])(N([H])C([H])([H])[H])C([H])([H])[H])C(C([H])([H])[H])(C([H])([H])[H])C([H])([H])[H])C([H])([H])c2c([H])c(OC([H])([H])C3([H])C([H])([H])C([H])([H])C([H])(C([H])(C([H])([H])[H])C([H])([H])[H])[N+]3([H])C([H])(C([H])([H])[H])C([H])([H])OC([H])([H])C([H])([H])C(=O)N3C([H])([H])C([H])([H])C([H])([H])C([H])(n4nc(-c5c([H])c([H])c(Oc6c([H])c([H])c(F)c([H])c6F)c([H])c5[H])c(C(=O)N([H])[H])c4N([H])[H])C3([H])[H])c([H])c([H])c2C1([H])[H]

>  <smiles>  (11) 
[H]c1c([H])c([H])c2c(c1[H])C([H])([H])C([H])([H])C([H])([H])C2([H])N([H])C(=O)C1([H])N(C(=O)C([H])(N([H])C(=O)C([H])(N([H])C([H])([H])[H])C([H])([H])[H])C(C([H])([H])[H])(C([H])([H])[H])C([H])([H])[H])C([H])([H])c2c([H])c(OC([H])([H])C3([H])C([H])([H])C([H])([H])C([H])(C([H])(C([H])([H])[H])C([H])([H])[H])[N+]3([H])C([H])(C([H])([H])[H])C([H])([H])OC([H])([H])C([H])([H])C(=O)N3C([H])([H])C([H])([H])C([H])([H])C([H])(n4nc(-c5c([H])c([H])c(Oc6c([H])c([H])c(F)c([H])c6F)c([H])c5[H])c(C(=O)N([H])[H])c4N([H])[H])C3([H])[H])c([H])c([H])c2C1([H])[H]

$$$$
11:0:0
     RDKit          3D

 89 98  0  0  1  0  0  0  0  0999 V2000
  -28.4090  -18.1680   20.3510 C   0  0  0  0  0  3  0  0  0  0  0  0
  -30.6460  -18.8840   20.2490 C   0  0  0  0  0  3  0  0  0  0  0  0
  -27.9820  -19.5470   20.2480 C   0  0  0  0  0  3  0  0  0  0  0  0
  -30.2210  -20.2760   20.1610 C   0  0  0  0  0  3  0  0  0  0  0  0
  -29.7730  -17.7410   20.3830 C   0  0  0  0  0  0  0  0  0  0  0  0
  -28.8490  -20.6860   20.1790 C   0  0  0  0  0  0  0  0  0  0  0  0
  -29.9150  -15.9150   22.3210 C   0  0  0  0  0  2  0  0  0  0  0  0
  -31.2820  -16.3930   21.9840 C   0  0  0  0  0  2  0  0  0  0  0  0
  -30.2490  -16.2420   20.8620 C   0  0  2  0  0  0  0  0  0  0  0  0
  -30.6900  -14.9470   19.9840 C   0  0  0  0  0  0  0  0  0  0  0  0
  -30.3770  -12.6850   18.8740 C   0  0  0  0  0  2  0  0  0  0  0  0
  -29.3750  -12.7510   17.7000 C   0  0  0  0  0  2  0  0  0  0  0  0
  -27.9360  -12.5430   18.2040 C   0  0  0  0  0  2  0  0  0  0  0  0
  -27.6300  -13.4090   19.4510 C   0  0  0  0  0  3  0  0  0  0  0  0
  -28.7440  -13.3200   20.5090 C   0  0  0  0  0  2  0  0  0  0  0  0
  -30.0100  -13.7300   19.8780 N   0  0  0  0  0  0  0  0  0  0  0  0
  -31.7710  -15.0140   19.3870 O   0  0  0  0  0  0  0  0  0  0  0  0
  -25.3010  -13.9880   20.3430 C   0  0  0  0  0  0  0  0  0  0  0  0
  -24.2580  -13.2130   20.7700 C   0  0  0  0  0  0  0  0  0  0  0  0
  -24.7130  -11.8610   20.6900 C   0  0  0  0  0  0  0  0  0  0  0  0
  -26.3210  -13.1100   20.0220 N   0  0  0  0  0  0  0  0  0  0  0  0
  -25.9810  -11.8230   20.2980 N   0  0  0  0  0  0  0  0  0  0  0  0
  -23.9930  -10.5980   20.9080 C   0  0  0  0  0  0  0  0  0  0  0  0
  -24.4640   -9.6260   21.8180 C   0  0  0  0  0  3  0  0  0  0  0  0
  -23.7420   -8.4300   22.0220 C   0  0  0  0  0  3  0  0  0  0  0  0
  -22.5370   -8.1970   21.3180 C   0  0  0  0  0  0  0  0  0  0  0  0
  -22.0850   -9.1590   20.3960 C   0  0  0  0  0  3  0  0  0  0  0  0
  -22.8070  -10.3460   20.1890 C   0  0  0  0  0  3  0  0  0  0  0  0
  -21.7840   -7.0540   21.4330 O   0  0  0  0  0  0  0  0  0  0  0  0
  -21.7620   -6.3210   22.5920 C   0  0  0  0  0  0  0  0  0  0  0  0
  -21.3780   -6.8900   23.8260 C   0  0  0  0  0  3  0  0  0  0  0  0
  -21.3000   -6.0840   24.9800 C   0  0  0  0  0  3  0  0  0  0  0  0
  -21.5970   -4.7110   24.9000 C   0  0  0  0  0  0  0  0  0  0  0  0
  -21.9750   -4.1410   23.6710 C   0  0  0  0  0  3  0  0  0  0  0  0
  -22.0530   -4.9440   22.5200 C   0  0  0  0  0  0  0  0  0  0  0  0
  -22.3960   -4.3860   21.3340 F   0  0  0  0  0  0  0  0  0  0  0  0
  -21.5170   -3.9340   26.0060 F   0  0  0  0  0  0  0  0  0  0  0  0
  -22.8820  -13.6910   21.1330 C   0  0  0  0  0  0  0  0  0  0  0  0
  -22.2100  -12.9930   22.0400 N   0  0  0  0  0  0  0  0  0  0  0  0
  -22.4150  -14.7200   20.6450 O   0  0  0  0  0  0  0  0  0  0  0  0
  -22.6010  -12.1610   22.4550 H   0  0  0  0  0  0  0  0  0  0  0  0
  -21.2890  -13.2960   22.3250 H   0  0  0  0  0  0  0  0  0  0  0  0
  -25.4610  -15.3600   20.1770 N   0  0  0  0  0  0  0  0  0  0  0  0
  -24.7050  -16.0170   20.3420 H   0  0  0  0  0  0  0  0  0  0  0  0
  -26.2830  -15.7930   19.7770 H   0  0  0  0  0  0  0  0  0  0  0  0
  -28.2620  -22.0180   20.1230 O   0  0  0  0  0  0  0  0  0  0  0  0
  -28.8640  -23.4110   20.2480 C   0  0  0  0  0  3  0  0  0  0  0  0
  -27.8770  -24.7410   20.0120 C   0  0  0  0  0  3  0  0  0  0  0  0
  -28.1800  -26.2480   20.1730 O   0  0  0  0  0  0  0  0  0  0  0  0
  -24.5910  -31.8970   23.2000 C   0  0  0  0  0  0  0  0  0  0  0  0
  -27.1180  -27.2130   20.1190 C   0  0  0  0  0  0  0  0  0  0  0  0
  -23.3620  -30.5010   21.5820 C   0  0  0  0  0  3  0  0  0  0  0  0
  -24.7840  -28.9350   20.1300 C   0  0  0  0  0  0  0  0  0  0  0  0
  -25.9100  -30.7760   21.3700 C   0  0  0  0  0  2  0  0  0  0  0  0
  -25.9730  -29.3880   20.7170 C   0  0  0  0  0  0  0  0  0  0  0  0
  -27.1410  -28.5430   20.6950 C   0  0  0  0  0  3  0  0  0  0  0  0
  -25.9010  -26.8560   19.4940 C   0  0  0  0  0  3  0  0  0  0  0  0
  -24.7590  -27.6810   19.5050 C   0  0  0  0  0  3  0  0  0  0  0  0
  -23.5560  -29.8280   20.1990 C   0  0  0  0  0  2  0  0  0  0  0  0
  -24.6420  -31.0790   22.1040 N   0  0  0  0  0  0  0  0  0  0  0  0
  -23.5150  -32.1810   23.7470 O   0  0  0  0  0  0  0  0  0  0  0  0
  -22.7020  -29.4920   22.5540 C   0  0  0  0  0  0  0  0  0  0  0  0
  -21.3760  -29.3050   22.4360 N   0  0  0  0  0  0  0  0  0  0  0  0
  -23.3860  -28.8790   23.3790 O   0  0  0  0  0  0  0  0  0  0  0  0
  -20.8810  -29.8510   21.7450 H   0  0  0  0  0  0  0  0  0  0  0  0
  -18.0160  -28.0510   22.9410 C   0  0  0  0  0  0  0  0  0  0  0  0
  -20.5670  -28.3670   23.2190 C   0  0  0  0  0  3  0  0  0  0  0  0
  -20.7000  -26.9260   22.6720 C   0  0  0  0  0  2  0  0  0  0  0  0
  -19.6110  -26.5630   21.6580 C   0  0  0  0  0  2  0  0  0  0  0  0
  -18.2220  -26.6930   22.2900 C   0  0  0  0  0  2  0  0  0  0  0  0
  -19.1170  -28.8430   23.3620 C   0  0  0  0  0  0  0  0  0  0  0  0
  -18.8690  -30.1110   23.9320 C   0  0  0  0  0  3  0  0  0  0  0  0
  -17.5530  -30.5880   24.0830 C   0  0  0  0  0  3  0  0  0  0  0  0
  -16.4670  -29.7940   23.6760 C   0  0  0  0  0  3  0  0  0  0  0  0
  -16.6990  -28.5270   23.1120 C   0  0  0  0  0  3  0  0  0  0  0  0
  -25.8810  -32.5300   23.8030 C   0  0  0  0  0  3  0  0  0  0  0  0
  -26.4230  -31.7510   25.0640 C   0  0  1  0  0  0  0  0  0  0  0  0
  -25.3520  -31.5050   26.1520 C   0  0  0  0  0  1  0  0  0  0  0  0
  -27.0010  -30.3770   24.6550 C   0  0  0  0  0  1  0  0  0  0  0  0
  -27.5860  -32.5430   25.7090 C   0  0  0  0  0  1  0  0  0  0  0  0
  -25.5710  -33.9250   24.1550 N   0  0  0  0  0  0  0  0  0  0  0  0
  -25.8830  -34.9900   23.4050 C   0  0  0  0  0  0  0  0  0  0  0  0
  -26.5290  -34.9030   22.3580 O   0  0  0  0  0  0  0  0  0  0  0  0
  -24.9950  -34.0660   24.9720 H   0  0  0  0  0  0  0  0  0  0  0  0
  -24.1390  -36.7820   23.1210 C   0  0  0  0  0  1  0  0  0  0  0  0
  -25.4030  -36.3710   23.8930 C   0  0  0  0  0  3  0  0  0  0  0  0
  -27.5570  -37.2550   24.6750 C   0  0  0  0  0  1  0  0  0  0  0  0
  -26.4280  -37.4300   23.7650 N   0  0  0  0  0  0  0  0  0  0  0  0
  -26.0230  -38.3470   23.9350 H   0  0  0  0  0  0  0  0  0  0  0  0
  1  5  1  0
  2  5  2  0
  3  1  2  0
  4  6  2  0
  4  2  1  0
  5  9  1  0
  6  3  1  0
  8  7  1  0
  9  8  1  0
  9  7  1  0
  9 10  1  6
 11 16  1  0
 12 13  1  0
 12 11  1  0
 14 13  1  0
 14 21  1  0
 14 15  1  0
 16 10  1  0
 16 15  1  0
 17 10  2  0
 18 19  2  0
 19 38  1  0
 20 19  1  0
 20 23  1  0
 21 22  1  0
 21 18  1  0
 22 20  2  0
 23 24  1  0
 24 25  2  0
 26 29  1  0
 26 25  1  0
 27 26  2  0
 28 27  1  0
 28 23  2  0
 29 30  1  0
 30 31  1  0
 31 32  2  0
 33 32  1  0
 33 37  1  0
 34 33  2  0
 35 30  2  0
 35 34  1  0
 36 35  1  0
 38 39  1  0
 39 42  1  0
 39 41  1  0
 40 38  2  0
 43 44  1  0
 43 18  1  0
 45 43  1  0
 46  6  1  0
 46 47  1  0
 48 49  1  0
 48 47  2  0
 50 61  2  0
 51 49  1  0
 51 56  1  0
 52 60  1  0
 52 62  1  0
 53 59  1  0
 53 55  1  0
 54 60  1  0
 55 54  1  0
 56 55  2  0
 57 58  1  0
 57 51  2  0
 58 53  2  0
 59 52  1  0
 60 50  1  0
 62 64  2  0
 63 62  1  0
 65 63  1  0
 66 75  2  0
 66 71  1  0
 67 63  1  0
 67 71  1  0
 68 67  1  0
 69 70  1  0
 69 68  1  0
 70 66  1  0
 71 72  2  0
 72 73  1  0
 74 73  2  0
 75 74  1  0
 76 50  1  0
 76 81  1  0
 76 77  1  0
 77 80  1  1
 77 78  1  0
 79 77  1  0
 81 84  1  0
 82 86  1  0
 82 81  1  0
 83 82  2  0
 86 85  1  0
 88 86  1  0
 88 89  1  0
 88 87  1  0
M  ISO  4   9 100  10 100  48 101  49 101
M  END
>  <TORSDO>  (12) 
F 20

>  <SCORE>  (12) 
-12.833

>  <name>  (12) 
11

>  <ligand_id>  (12) 
11

>  <original_smiles>  (12) 
[H]c1c([H])c([H])c2c(c1[H])C([H])([H])C([H])([H])C([H])([H])C2([H])N([H])C(=O)C1([H])N(C(=O)C([H])(N([H])C(=O)C([H])(N([H])C([H])([H])[H])C([H])([H])[H])C(C([H])([H])[H])(C([H])([H])[H])C([H])([H])[H])C([H])([H])c2c([H])c(OC([H])([H])C([H])([H])Oc3c([H])c([H])c(C4(C(=O)N5C([H])([H])C([H])([H])C([H])([H])C([H])(n6nc(-c7c([H])c([H])c(Oc8c([H])c([H])c(F)c([H])c8F)c([H])c7[H])c(C(=O)N([H])[H])c6N([H])[H])C5([H])[H])C([H])([H])C4([H])[H])c([H])c3[H])c([H])c([H])c2C1([H])[H]

>  <smiles>  (12) 
[H]c1c([H])c([H])c2c(c1[H])C([H])([H])C([H])([H])C([H])([H])C2([H])N([H])C(=O)C1([H])N(C(=O)C([H])(N([H])C(=O)C([H])(N([H])C([H])([H])[H])C([H])([H])[H])C(C([H])([H])[H])(C([H])([H])[H])C([H])([H])[H])C([H])([H])c2c([H])c(OC([H])([H])C([H])([H])Oc3c([H])c([H])c(C4(C(=O)N5C([H])([H])C([H])([H])C([H])([H])C([H])(n6nc(-c7c([H])c([H])c(Oc8c([H])c([H])c(F)c([H])c8F)c([H])c7[H])c(C(=O)N([H])[H])c6N([H])[H])C5([H])[H])C([H])([H])C4([H])[H])c([H])c3[H])c([H])c([H])c2C1([H])[H]

$$$$
12:0:0
     RDKit          3D

 94103  0  0  1  0  0  0  0  0999 V2000
  -29.9270  -20.9850   20.4270 C   0  0  0  0  0  3  0  0  0  0  0  0
  -28.5490  -22.1010   19.0880 C   0  0  0  0  0  3  0  0  0  0  0  0
  -29.5780  -22.2800   19.9640 C   0  0  0  0  0  0  0  0  0  0  0  0
  -29.1130  -20.0470   19.8360 C   0  0  0  0  0  0  0  0  0  0  0  0
  -28.2350  -20.7430   18.9790 N   0  0  0  0  0  0  0  0  0  0  0  0
  -30.8070  -14.5500   20.1170 C   0  0  0  0  0  0  0  0  0  0  0  0
  -30.4110  -12.4140   18.9810 C   0  0  0  0  0  2  0  0  0  0  0  0
  -29.4210  -12.6730   17.8330 C   0  0  0  0  0  2  0  0  0  0  0  0
  -27.9730  -12.5100   18.3340 C   0  0  0  0  0  2  0  0  0  0  0  0
  -27.6890  -13.3160   19.6300 C   0  0  0  0  0  3  0  0  0  0  0  0
  -28.8050  -13.1100   20.6780 C   0  0  0  0  0  2  0  0  0  0  0  0
  -30.0980  -13.3910   20.0310 N   0  0  0  0  0  0  0  0  0  0  0  0
  -31.9900  -14.6260   19.7720 O   0  0  0  0  0  0  0  0  0  0  0  0
  -30.1580  -17.9450   18.9540 C   0  0  0  0  0  2  0  0  0  0  0  0
  -29.6080  -17.9890   21.3400 C   0  0  0  0  0  3  0  0  0  0  0  0
  -29.9760  -16.4250   18.8480 C   0  0  0  0  0  2  0  0  0  0  0  0
  -30.0370  -16.4820   21.4010 C   0  0  0  0  0  3  0  0  0  0  0  0
  -29.1780  -18.5330   19.9640 C   0  0  0  0  0  3  0  0  0  0  0  0
  -30.0690  -15.6940   20.1390 N   0  0  0  0  0  0  0  0  0  0  0  0
  -25.3260  -13.8890   20.4650 C   0  0  0  0  0  0  0  0  0  0  0  0
  -24.2770  -13.1060   20.8550 C   0  0  0  0  0  0  0  0  0  0  0  0
  -24.7380  -11.7550   20.7660 C   0  0  0  0  0  0  0  0  0  0  0  0
  -26.3630  -13.0200   20.1640 N   0  0  0  0  0  0  0  0  0  0  0  0
  -26.0140  -11.7280   20.4000 N   0  0  0  0  0  0  0  0  0  0  0  0
  -24.0220  -10.4870   20.9530 C   0  0  0  0  0  0  0  0  0  0  0  0
  -24.4580   -9.5240   21.8880 C   0  0  0  0  0  3  0  0  0  0  0  0
  -23.7430   -8.3180   22.0600 C   0  0  0  0  0  3  0  0  0  0  0  0
  -22.5770   -8.0670   21.2980 C   0  0  0  0  0  0  0  0  0  0  0  0
  -22.1620   -9.0200   20.3510 C   0  0  0  0  0  3  0  0  0  0  0  0
  -22.8790  -10.2160   20.1770 C   0  0  0  0  0  3  0  0  0  0  0  0
  -21.8340   -6.9130   21.3800 O   0  0  0  0  0  0  0  0  0  0  0  0
  -21.7290   -6.2080   22.5520 C   0  0  0  0  0  0  0  0  0  0  0  0
  -21.1870   -6.7840   23.7220 C   0  0  0  0  0  3  0  0  0  0  0  0
  -21.0370   -6.0040   24.8850 C   0  0  0  0  0  3  0  0  0  0  0  0
  -21.4140   -4.6470   24.8780 C   0  0  0  0  0  0  0  0  0  0  0  0
  -21.9470   -4.0710   23.7120 C   0  0  0  0  0  3  0  0  0  0  0  0
  -22.1030   -4.8500   22.5520 C   0  0  0  0  0  0  0  0  0  0  0  0
  -22.5980   -4.2850   21.4240 F   0  0  0  0  0  0  0  0  0  0  0  0
  -21.2630   -3.8930   25.9930 F   0  0  0  0  0  0  0  0  0  0  0  0
  -22.8910  -13.5670   21.2060 C   0  0  0  0  0  0  0  0  0  0  0  0
  -22.2030  -12.8380   22.0790 N   0  0  0  0  0  0  0  0  0  0  0  0
  -22.4310  -14.6090   20.7410 O   0  0  0  0  0  0  0  0  0  0  0  0
  -22.5950  -11.9960   22.4750 H   0  0  0  0  0  0  0  0  0  0  0  0
  -21.2770  -13.1270   22.3620 H   0  0  0  0  0  0  0  0  0  0  0  0
  -25.4890  -15.2660   20.3250 N   0  0  0  0  0  0  0  0  0  0  0  0
  -24.7430  -15.9330   20.4870 H   0  0  0  0  0  0  0  0  0  0  0  0
  -26.3500  -15.6990   20.0160 H   0  0  0  0  0  0  0  0  0  0  0  0
  -27.4580  -19.1520   17.1020 C   0  0  0  0  0  1  0  0  0  0  0  0
  -26.3260  -21.3370   17.4190 C   0  0  0  0  0  1  0  0  0  0  0  0
  -27.1020  -20.2220   18.1630 C   0  0  0  0  0  3  0  0  0  0  0  0
  -30.2250  -23.4600   20.2610 O   0  0  0  0  0  0  0  0  0  0  0  0
  -29.4670  -24.5030   20.8910 C   0  0  0  0  0  2  0  0  0  0  0  0
  -28.5930  -25.3400   19.9260 C   0  0  0  0  0  2  0  0  0  0  0  0
  -28.5190  -26.7270   20.3390 O   0  0  0  0  0  0  0  0  0  0  0  0
  -24.5870  -31.9010   23.2620 C   0  0  0  0  0  0  0  0  0  0  0  0
  -27.3280  -27.4320   20.2640 C   0  0  0  0  0  0  0  0  0  0  0  0
  -23.4280  -30.4820   21.6030 C   0  0  0  0  0  3  0  0  0  0  0  0
  -24.9240  -28.9420   20.2200 C   0  0  0  0  0  0  0  0  0  0  0  0
  -25.9590  -30.8460   21.4630 C   0  0  0  0  0  2  0  0  0  0  0  0
  -26.0670  -29.4690   20.8340 C   0  0  0  0  0  0  0  0  0  0  0  0
  -27.2630  -28.7160   20.8650 C   0  0  0  0  0  3  0  0  0  0  0  0
  -26.1680  -26.9370   19.6170 C   0  0  0  0  0  3  0  0  0  0  0  0
  -24.9730  -27.6750   19.6130 C   0  0  0  0  0  3  0  0  0  0  0  0
  -23.6730  -29.7900   20.2330 C   0  0  0  0  0  2  0  0  0  0  0  0
  -24.6750  -31.0920   22.1660 N   0  0  0  0  0  0  0  0  0  0  0  0
  -23.4930  -32.1680   23.7760 O   0  0  0  0  0  0  0  0  0  0  0  0
  -22.7610  -29.4620   22.5560 C   0  0  0  0  0  0  0  0  0  0  0  0
  -21.4420  -29.2620   22.3930 N   0  0  0  0  0  0  0  0  0  0  0  0
  -23.4280  -28.8550   23.3980 O   0  0  0  0  0  0  0  0  0  0  0  0
  -20.9660  -29.7980   21.6820 H   0  0  0  0  0  0  0  0  0  0  0  0
  -18.0680  -28.0510   22.8210 C   0  0  0  0  0  0  0  0  0  0  0  0
  -20.6180  -28.3180   23.1450 C   0  0  0  0  0  3  0  0  0  0  0  0
  -20.7400  -26.8900   22.5660 C   0  0  0  0  0  2  0  0  0  0  0  0
  -19.6610  -26.5630   21.5300 C   0  0  0  0  0  2  0  0  0  0  0  0
  -18.2660  -26.7010   22.1480 C   0  0  0  0  0  2  0  0  0  0  0  0
  -19.1750  -28.8140   23.2740 C   0  0  0  0  0  0  0  0  0  0  0  0
  -18.9430  -30.0780   23.8590 C   0  0  0  0  0  3  0  0  0  0  0  0
  -17.6320  -30.5760   23.9990 C   0  0  0  0  0  3  0  0  0  0  0  0
  -16.5380  -29.8060   23.5710 C   0  0  0  0  0  3  0  0  0  0  0  0
  -16.7560  -28.5460   22.9850 C   0  0  0  0  0  3  0  0  0  0  0  0
  -25.8550  -32.5440   23.9060 C   0  0  0  0  0  3  0  0  0  0  0  0
  -26.3430  -31.7970   25.2070 C   0  0  1  0  0  0  0  0  0  0  0  0
  -25.2260  -31.5670   26.2520 C   0  0  0  0  0  1  0  0  0  0  0  0
  -26.9470  -30.4180   24.8530 C   0  0  0  0  0  1  0  0  0  0  0  0
  -27.4680  -32.6100   25.8920 C   0  0  0  0  0  1  0  0  0  0  0  0
  -25.5390  -33.9490   24.2020 N   0  0  0  0  0  0  0  0  0  0  0  0
  -25.8870  -34.9870   23.4300 C   0  0  0  0  0  0  0  0  0  0  0  0
  -26.5830  -34.8670   22.4180 O   0  0  0  0  0  0  0  0  0  0  0  0
  -24.9310  -34.1190   24.9890 H   0  0  0  0  0  0  0  0  0  0  0  0
  -24.1730  -36.7740   22.9970 C   0  0  0  0  0  1  0  0  0  0  0  0
  -25.3860  -36.3820   23.8530 C   0  0  0  0  0  3  0  0  0  0  0  0
  -27.4900  -37.2850   24.7440 C   0  0  0  0  0  1  0  0  0  0  0  0
  -26.4220  -37.4330   23.7580 N   0  0  0  0  0  0  0  0  0  0  0  0
  -26.0090  -38.3550   23.8720 H   0  0  0  0  0  0  0  0  0  0  0  0
  2  3  2  0
  3 51  1  0
  3  1  1  0
  4  1  2  0
  5  2  1  0
  5  4  1  0
  6 19  1  0
  7 12  1  0
  8  9  1  0
  8  7  1  0
 10  9  1  0
 10 23  1  0
 10 11  1  0
 12  6  1  0
 12 11  1  0
 13  6  2  0
 14 18  1  0
 15 17  2  0
 16 14  1  0
 16 19  1  0
 18  4  1  0
 18 15  1  0
 19 17  1  0
 20 21  2  0
 21 40  1  0
 22 21  1  0
 22 25  1  0
 23 24  1  0
 23 20  1  0
 24 22  2  0
 25 26  1  0
 26 27  2  0
 28 31  1  0
 28 27  1  0
 29 28  2  0
 30 29  1  0
 30 25  2  0
 31 32  1  0
 32 33  1  0
 33 34  2  0
 35 34  1  0
 35 39  1  0
 36 35  2  0
 37 32  2  0
 37 36  1  0
 38 37  1  0
 40 41  1  0
 41 44  1  0
 41 43  1  0
 42 40  2  0
 45 20  1  0
 45 46  1  0
 47 45  1  0
 48 50  1  0
 49 50  1  0
 50  5  1  0
 51 52  1  0
 53 54  1  0
 53 52  1  0
 55 66  2  0
 56 54  1  0
 56 61  1  0
 57 65  1  0
 57 67  1  0
 58 64  1  0
 58 60  1  0
 59 65  1  0
 60 61  2  0
 60 59  1  0
 62 56  2  0
 63 62  1  0
 63 58  2  0
 64 57  1  0
 65 55  1  0
 67 69  2  0
 68 67  1  0
 70 68  1  0
 71 80  2  0
 71 76  1  0
 72 68  1  0
 72 76  1  0
 73 72  1  0
 74 75  1  0
 74 73  1  0
 75 71  1  0
 76 77  2  0
 77 78  1  0
 79 78  2  0
 80 79  1  0
 81 55  1  0
 81 86  1  0
 81 82  1  0
 82 85  1  1
 82 83  1  0
 84 82  1  0
 86 89  1  0
 87 91  1  0
 87 86  1  0
 88 87  2  0
 91 90  1  0
 93 91  1  0
 93 94  1  0
 93 92  1  0
M  ISO  4   6 100  19 100  53 101  54 101
M  END
>  <TORSDO>  (13) 
F 20

>  <SCORE>  (13) 
-13.727

>  <name>  (13) 
12

>  <ligand_id>  (13) 
12

>  <original_smiles>  (13) 
[H]c1c([H])c([H])c2c(c1[H])C([H])([H])C([H])([H])C([H])([H])C2([H])N([H])C(=O)C1([H])N(C(=O)C([H])(N([H])C(=O)C([H])(N([H])C([H])([H])[H])C([H])([H])[H])C(C([H])([H])[H])(C([H])([H])[H])C([H])([H])[H])C([H])([H])c2c([H])c(OC([H])([H])C([H])([H])Oc3c([H])c(C4([H])C([H])([H])C([H])([H])N(C(=O)N5C([H])([H])C([H])([H])C([H])([H])C([H])(n6nc(-c7c([H])c([H])c(Oc8c([H])c([H])c(F)c([H])c8F)c([H])c7[H])c(C(=O)N([H])[H])c6N([H])[H])C5([H])[H])C([H])([H])C4([H])[H])n(C([H])(C([H])([H])[H])C([H])([H])[H])c3[H])c([H])c([H])c2C1([H])[H]

>  <smiles>  (13) 
[H]c1c([H])c([H])c2c(c1[H])C([H])([H])C([H])([H])C([H])([H])C2([H])N([H])C(=O)C1([H])N(C(=O)C([H])(N([H])C(=O)C([H])(N([H])C([H])([H])[H])C([H])([H])[H])C(C([H])([H])[H])(C([H])([H])[H])C([H])([H])[H])C([H])([H])c2c([H])c(OC([H])([H])C([H])([H])Oc3c([H])c(C4([H])C([H])([H])C([H])([H])N(C(=O)N5C([H])([H])C([H])([H])C([H])([H])C([H])(n6nc(-c7c([H])c([H])c(Oc8c([H])c([H])c(F)c([H])c8F)c([H])c7[H])c(C(=O)N([H])[H])c6N([H])[H])C5([H])[H])C([H])([H])C4([H])[H])n(C([H])(C([H])([H])[H])C([H])([H])[H])c3[H])c([H])c([H])c2C1([H])[H]

$$$$
13:0:0
     RDKit          3D

 98108  0  0  1  0  0  0  0  0999 V2000
  -31.2860  -20.7760   19.9520 C   0  0  0  0  0  1  0  0  0  0  0  0
  -29.7890  -20.5000   20.1690 C   0  0  0  0  0  3  0  0  0  0  0  0
  -27.9160  -23.9730   19.3590 C   0  0  0  0  0  3  0  0  0  0  0  0
  -29.1810  -24.1920   21.3130 C   0  0  0  0  0  3  0  0  0  0  0  0
  -28.2060  -22.5560   19.3820 C   0  0  0  0  0  0  0  0  0  0  0  0
  -28.4180  -24.8990   20.3200 C   0  0  0  0  0  0  0  0  0  0  0  0
  -29.0490  -21.9560   20.3770 C   0  0  0  0  0  0  0  0  0  0  0  0
  -27.6400  -21.7140   18.2480 C   0  0  0  0  0  1  0  0  0  0  0  0
  -29.4770  -22.8290   21.3460 N   0  0  0  0  0  0  0  0  0  0  0  0
  -28.3790  -26.3560   20.2130 O   0  0  0  0  0  0  0  0  0  0  0  0
  -24.6510  -31.8980   23.2030 C   0  0  0  0  0  0  0  0  0  0  0  0
  -27.2510  -27.2310   20.1890 C   0  0  0  0  0  0  0  0  0  0  0  0
  -23.4460  -30.4840   21.5760 C   0  0  0  0  0  3  0  0  0  0  0  0
  -24.8960  -28.9140   20.1540 C   0  0  0  0  0  0  0  0  0  0  0  0
  -25.9900  -30.7840   21.3870 C   0  0  0  0  0  2  0  0  0  0  0  0
  -26.0690  -29.3900   20.7510 C   0  0  0  0  0  0  0  0  0  0  0  0
  -27.2450  -28.5620   20.7540 C   0  0  0  0  0  3  0  0  0  0  0  0
  -26.0490  -26.8330   19.5660 C   0  0  0  0  0  3  0  0  0  0  0  0
  -24.8950  -27.6470   19.5500 C   0  0  0  0  0  3  0  0  0  0  0  0
  -23.6610  -29.7990   20.2000 C   0  0  0  0  0  2  0  0  0  0  0  0
  -24.7150  -31.0770   22.1110 N   0  0  0  0  0  0  0  0  0  0  0  0
  -23.5670  -32.1760   23.7400 O   0  0  0  0  0  0  0  0  0  0  0  0
  -22.7890  -29.4750   22.5510 C   0  0  0  0  0  0  0  0  0  0  0  0
  -21.4620  -29.2920   22.4330 N   0  0  0  0  0  0  0  0  0  0  0  0
  -23.4710  -28.8600   23.3730 O   0  0  0  0  0  0  0  0  0  0  0  0
  -20.9670  -29.8410   21.7440 H   0  0  0  0  0  0  0  0  0  0  0  0
  -18.0970  -28.0540   22.9460 C   0  0  0  0  0  0  0  0  0  0  0  0
  -20.6520  -28.3530   23.2130 C   0  0  0  0  0  3  0  0  0  0  0  0
  -20.7720  -26.9150   22.6580 C   0  0  0  0  0  2  0  0  0  0  0  0
  -19.6770  -26.5640   21.6460 C   0  0  0  0  0  2  0  0  0  0  0  0
  -18.2920  -26.6990   22.2860 C   0  0  0  0  0  2  0  0  0  0  0  0
  -19.2050  -28.8370   23.3670 C   0  0  0  0  0  0  0  0  0  0  0  0
  -18.9680  -30.1030   23.9440 C   0  0  0  0  0  3  0  0  0  0  0  0
  -17.6550  -30.5870   24.1050 C   0  0  0  0  0  3  0  0  0  0  0  0
  -16.5620  -29.8030   23.6980 C   0  0  0  0  0  3  0  0  0  0  0  0
  -16.7830  -28.5380   23.1240 C   0  0  0  0  0  3  0  0  0  0  0  0
  -25.9310  -32.5430   23.8160 C   0  0  0  0  0  3  0  0  0  0  0  0
  -26.4700  -31.7730   25.0840 C   0  0  1  0  0  0  0  0  0  0  0  0
  -25.3940  -31.5250   26.1660 C   0  0  0  0  0  1  0  0  0  0  0  0
  -27.0570  -30.3990   24.6820 C   0  0  0  0  0  1  0  0  0  0  0  0
  -27.6230  -32.5740   25.7340 C   0  0  0  0  0  1  0  0  0  0  0  0
  -25.6070  -33.9350   24.1620 N   0  0  0  0  0  0  0  0  0  0  0  0
  -25.9240  -35.0030   23.4160 C   0  0  0  0  0  0  0  0  0  0  0  0
  -26.5870  -34.9190   22.3790 O   0  0  0  0  0  0  0  0  0  0  0  0
  -25.0130  -34.0740   24.9670 H   0  0  0  0  0  0  0  0  0  0  0  0
  -24.1720  -36.7830   23.1060 C   0  0  0  0  0  1  0  0  0  0  0  0
  -25.4280  -36.3810   23.8960 C   0  0  0  0  0  3  0  0  0  0  0  0
  -27.5630  -37.2780   24.7100 C   0  0  0  0  0  1  0  0  0  0  0  0
  -26.4460  -37.4470   23.7840 N   0  0  0  0  0  0  0  0  0  0  0  0
  -26.0310  -38.3600   23.9510 H   0  0  0  0  0  0  0  0  0  0  0  0
  -29.6280  -19.0540   20.9930 C   0  0  0  0  0  2  0  0  0  0  0  0
  -30.7310  -15.0280   21.0430 C   0  0  0  0  0  0  0  0  0  0  0  0
  -30.7140  -12.6230   20.2990 C   0  0  0  0  0  2  0  0  0  0  0  0
  -29.9360  -12.4790   18.9700 C   0  0  0  0  0  2  0  0  0  0  0  0
  -28.4160  -12.3500   19.2160 C   0  0  0  0  0  2  0  0  0  0  0  0
  -27.8760  -13.3290   20.2960 C   0  0  0  0  0  3  0  0  0  0  0  0
  -28.7970  -13.4100   21.5310 C   0  0  0  0  0  2  0  0  0  0  0  0
  -30.1350  -13.7690   21.0430 N   0  0  0  0  0  0  0  0  0  0  0  0
  -31.9640  -15.0840   21.0760 O   0  0  0  0  0  0  0  0  0  0  0  0
  -29.9440  -16.0010   19.1020 C   0  0  0  0  0  2  0  0  0  0  0  0
  -29.4270  -17.4000   18.9910 C   0  0  0  0  0  3  0  0  0  0  0  0
  -30.2310  -17.6890   20.2550 C   0  0  0  0  0  3  0  0  0  0  0  0
  -29.9730  -16.1440   20.5820 N   0  0  0  0  0  0  0  0  0  0  0  0
  -28.3680  -18.3160   16.8880 C   0  0  0  0  0  3  0  0  0  0  0  0
  -30.7710  -18.6050   17.1710 C   0  0  0  0  0  3  0  0  0  0  0  0
  -28.4300  -18.9740   15.6460 C   0  0  0  0  0  3  0  0  0  0  0  0
  -30.8320  -19.2680   15.9280 C   0  0  0  0  0  3  0  0  0  0  0  0
  -29.5350  -18.1300   17.6610 C   0  0  0  0  0  0  0  0  0  0  0  0
  -29.6610  -19.4530   15.1600 C   0  0  0  0  0  0  0  0  0  0  0  0
  -29.7130  -20.1570   13.8190 C   0  0  0  0  0  1  0  0  0  0  0  0
  -25.4420  -13.9590   20.7480 C   0  0  0  0  0  0  0  0  0  0  0  0
  -24.3260  -13.2060   20.9920 C   0  0  0  0  0  0  0  0  0  0  0  0
  -24.7680  -11.8490   21.0270 C   0  0  0  0  0  0  0  0  0  0  0  0
  -26.4890  -13.0600   20.6440 N   0  0  0  0  0  0  0  0  0  0  0  0
  -26.0860  -11.7860   20.8780 N   0  0  0  0  0  0  0  0  0  0  0  0
  -24.0050  -10.6000   21.1390 C   0  0  0  0  0  0  0  0  0  0  0  0
  -24.3570   -9.6030   22.0750 C   0  0  0  0  0  3  0  0  0  0  0  0
  -23.5980   -8.4180   22.1770 C   0  0  0  0  0  3  0  0  0  0  0  0
  -22.4710   -8.2230   21.3410 C   0  0  0  0  0  0  0  0  0  0  0  0
  -22.1400   -9.2100   20.3950 C   0  0  0  0  0  3  0  0  0  0  0  0
  -22.9010  -10.3860   20.2910 C   0  0  0  0  0  3  0  0  0  0  0  0
  -21.6900   -7.0940   21.3520 O   0  0  0  0  0  0  0  0  0  0  0  0
  -21.5970   -6.2940   22.4620 C   0  0  0  0  0  0  0  0  0  0  0  0
  -21.1750   -6.7990   23.7110 C   0  0  0  0  0  3  0  0  0  0  0  0
  -21.0270   -5.9270   24.8080 C   0  0  0  0  0  3  0  0  0  0  0  0
  -21.2920   -4.5520   24.6580 C   0  0  0  0  0  0  0  0  0  0  0  0
  -21.7090   -4.0480   23.4130 C   0  0  0  0  0  3  0  0  0  0  0  0
  -21.8590   -4.9160   22.3180 C   0  0  0  0  0  0  0  0  0  0  0  0
  -22.2380   -4.4220   21.1140 F   0  0  0  0  0  0  0  0  0  0  0  0
  -21.1410   -3.7120   25.7080 F   0  0  0  0  0  0  0  0  0  0  0  0
  -22.9160  -13.7080   21.0910 C   0  0  0  0  0  0  0  0  0  0  0  0
  -22.0840  -13.0430   21.8830 N   0  0  0  0  0  0  0  0  0  0  0  0
  -22.5560  -14.7270   20.4990 O   0  0  0  0  0  0  0  0  0  0  0  0
  -22.3830  -12.2230   22.3890 H   0  0  0  0  0  0  0  0  0  0  0  0
  -21.1320  -13.3600   21.9870 H   0  0  0  0  0  0  0  0  0  0  0  0
  -25.6490  -15.3270   20.5840 N   0  0  0  0  0  0  0  0  0  0  0  0
  -24.8950  -16.0010   20.6200 H   0  0  0  0  0  0  0  0  0  0  0  0
  -26.5560  -15.7490   20.4260 H   0  0  0  0  0  0  0  0  0  0  0  0
  2  1  1  0
  2  7  1  0
  2 51  1  0
  3  5  2  0
  3  6  1  0
  4  9  1  0
  5  7  1  0
  6  4  2  0
  7  9  2  0
  8  5  1  0
 10  6  1  0
 11 22  2  0
 12 10  1  0
 12 17  1  0
 13 21  1  0
 13 23  1  0
 14 20  1  0
 14 16  1  0
 15 21  1  0
 16 17  2  0
 16 15  1  0
 18 12  2  0
 19 18  1  0
 19 14  2  0
 20 13  1  0
 21 11  1  0
 23 25  2  0
 24 23  1  0
 26 24  1  0
 27 36  2  0
 27 32  1  0
 28 24  1  0
 28 32  1  0
 29 28  1  0
 30 31  1  0
 30 29  1  0
 31 27  1  0
 32 33  2  0
 33 34  1  0
 35 34  2  0
 36 35  1  0
 37 11  1  0
 37 42  1  0
 37 38  1  0
 38 41  1  1
 38 39  1  0
 40 38  1  0
 42 45  1  0
 43 47  1  0
 43 42  1  0
 44 43  2  0
 47 46  1  0
 49 47  1  0
 49 50  1  0
 49 48  1  0
 52 59  2  0
 53 58  1  0
 54 55  1  0
 54 53  1  0
 56 55  1  0
 56 74  1  0
 56 57  1  0
 58 52  1  0
 58 57  1  0
 60 63  1  0
 61 68  1  0
 61 60  1  0
 61 62  1  0
 62 63  1  0
 62 51  1  0
 63 52  1  0
 64 68  1  0
 65 68  2  0
 66 64  2  0
 67 65  1  0
 69 66  1  0
 69 67  2  0
 70 69  1  0
 71 72  2  0
 72 73  1  0
 72 91  1  0
 73 76  1  0
 74 71  1  0
 74 75  1  0
 75 73  2  0
 76 77  1  0
 77 78  2  0
 79 82  1  0
 79 78  1  0
 80 79  2  0
 81 80  1  0
 81 76  2  0
 82 83  1  0
 83 84  1  0
 84 85  2  0
 86 85  1  0
 86 90  1  0
 87 86  2  0
 88 83  2  0
 88 87  1  0
 89 88  1  0
 91 92  1  0
 92 95  1  0
 92 94  1  0
 93 91  2  0
 96 97  1  0
 96 71  1  0
 98 96  1  0
M  ISO  4   6 101  10 101  52 100  63 100
M  END
>  <TORSDO>  (14) 
F 19

>  <SCORE>  (14) 
-14.093

>  <name>  (14) 
13

>  <ligand_id>  (14) 
13

>  <original_smiles>  (14) 
[H]c1nc(C([H])(C([H])([H])[H])C([H])([H])C2([H])N(C(=O)N3C([H])([H])C([H])([H])C([H])([H])C([H])(n4nc(-c5c([H])c([H])c(Oc6c([H])c([H])c(F)c([H])c6F)c([H])c5[H])c(C(=O)N([H])[H])c4N([H])[H])C3([H])[H])C([H])([H])C2([H])c2c([H])c([H])c(C([H])([H])[H])c([H])c2[H])c(C([H])([H])[H])c([H])c1Oc1c([H])c([H])c2c(c1[H])C([H])([H])N(C(=O)C([H])(N([H])C(=O)C([H])(N([H])C([H])([H])[H])C([H])([H])[H])C(C([H])([H])[H])(C([H])([H])[H])C([H])([H])[H])C([H])(C(=O)N([H])C1([H])c3c([H])c([H])c([H])c([H])c3C([H])([H])C([H])([H])C1([H])[H])C2([H])[H]

>  <smiles>  (14) 
[H]c1nc(C([H])(C([H])([H])[H])C([H])([H])C2([H])N(C(=O)N3C([H])([H])C([H])([H])C([H])([H])C([H])(n4nc(-c5c([H])c([H])c(Oc6c([H])c([H])c(F)c([H])c6F)c([H])c5[H])c(C(=O)N([H])[H])c4N([H])[H])C3([H])[H])C([H])([H])C2([H])c2c([H])c([H])c(C([H])([H])[H])c([H])c2[H])c(C([H])([H])[H])c([H])c1Oc1c([H])c([H])c2c(c1[H])C([H])([H])N(C(=O)C([H])(N([H])C(=O)C([H])(N([H])C([H])([H])[H])C([H])([H])[H])C(C([H])([H])[H])(C([H])([H])[H])C([H])([H])[H])C([H])(C(=O)N([H])C1([H])c3c([H])c([H])c([H])c([H])c3C([H])([H])C([H])([H])C1([H])[H])C2([H])[H]

$$$$
14:0:0
     RDKit          3D

 96105  0  0  1  0  0  0  0  0999 V2000
  -30.2320  -21.3020   20.1330 C   0  0  0  0  0  2  0  0  0  0  0  0
  -30.5030  -21.5850   22.6230 C   0  0  0  0  0  2  0  0  0  0  0  0
  -30.3150  -22.8250   19.9750 C   0  0  0  0  0  2  0  0  0  0  0  0
  -30.5890  -23.1060   22.4020 C   0  0  0  0  0  2  0  0  0  0  0  0
  -30.9990  -20.8240   21.3770 C   0  0  0  0  0  3  0  0  0  0  0  0
  -29.8220  -23.5150   21.1950 N   0  0  1  0  0  4  0  0  0  0  0  0
  -28.8730  -23.2060   21.3540 H   0  0  0  0  0  0  0  0  0  0  0  0
  -30.9030  -14.3720   20.1750 C   0  0  0  0  0  0  0  0  0  0  0  0
  -30.4520  -12.3290   18.8710 C   0  0  0  0  0  2  0  0  0  0  0  0
  -29.4350  -12.6180   17.7510 C   0  0  0  0  0  2  0  0  0  0  0  0
  -27.9930  -12.4680   18.2720 C   0  0  0  0  0  2  0  0  0  0  0  0
  -27.7540  -13.2460   19.5920 C   0  0  0  0  0  3  0  0  0  0  0  0
  -28.8700  -12.9400   20.6150 C   0  0  0  0  0  2  0  0  0  0  0  0
  -30.1740  -13.2400   19.9920 N   0  0  0  0  0  0  0  0  0  0  0  0
  -31.8910  -14.6420   19.4810 O   0  0  0  0  0  0  0  0  0  0  0  0
  -29.7380  -18.6750   21.9580 C   0  0  0  0  0  3  0  0  0  0  0  0
  -29.6410  -17.2770   21.8890 C   0  0  0  0  0  3  0  0  0  0  0  0
  -30.9070  -19.3050   21.4860 C   0  0  0  0  0  0  0  0  0  0  0  0
  -30.7010  -16.5370   21.3360 C   0  0  0  0  0  0  0  0  0  0  0  0
  -31.9540  -18.4890   21.0180 C   0  0  0  0  0  0  0  0  0  0  0  0
  -31.8490  -17.1450   20.9640 N   0  0  0  0  0  0  0  0  0  0  0  0
  -30.4700  -15.1540   21.1750 N   0  0  0  0  0  0  0  0  0  0  0  0
  -29.6870  -14.7790   21.6850 H   0  0  0  0  0  0  0  0  0  0  0  0
  -25.4040  -13.8380   20.4690 C   0  0  0  0  0  0  0  0  0  0  0  0
  -24.3560  -13.0560   20.8780 C   0  0  0  0  0  0  0  0  0  0  0  0
  -24.8070  -11.7050   20.7690 C   0  0  0  0  0  0  0  0  0  0  0  0
  -26.4280  -12.9630   20.1420 N   0  0  0  0  0  0  0  0  0  0  0  0
  -26.0750  -11.6740   20.3770 N   0  0  0  0  0  0  0  0  0  0  0  0
  -24.0890  -10.4390   20.9620 C   0  0  0  0  0  0  0  0  0  0  0  0
  -24.5350   -9.4710   21.8890 C   0  0  0  0  0  3  0  0  0  0  0  0
  -23.8190   -8.2680   22.0690 C   0  0  0  0  0  3  0  0  0  0  0  0
  -22.6420   -8.0250   21.3210 C   0  0  0  0  0  0  0  0  0  0  0  0
  -22.2150   -8.9820   20.3840 C   0  0  0  0  0  3  0  0  0  0  0  0
  -22.9330  -10.1760   20.2020 C   0  0  0  0  0  3  0  0  0  0  0  0
  -21.8960   -6.8760   21.4110 O   0  0  0  0  0  0  0  0  0  0  0  0
  -21.7940   -6.1720   22.5850 C   0  0  0  0  0  0  0  0  0  0  0  0
  -21.2910   -6.7610   23.7650 C   0  0  0  0  0  3  0  0  0  0  0  0
  -21.1390   -5.9830   24.9300 C   0  0  0  0  0  3  0  0  0  0  0  0
  -21.4810   -4.6180   24.9160 C   0  0  0  0  0  0  0  0  0  0  0  0
  -21.9770   -4.0290   23.7400 C   0  0  0  0  0  3  0  0  0  0  0  0
  -22.1300   -4.8030   22.5760 C   0  0  0  0  0  0  0  0  0  0  0  0
  -22.5890   -4.2260   21.4400 F   0  0  0  0  0  0  0  0  0  0  0  0
  -21.3270   -3.8680   26.0320 F   0  0  0  0  0  0  0  0  0  0  0  0
  -22.9830  -13.5270   21.2590 C   0  0  0  0  0  0  0  0  0  0  0  0
  -22.3220  -12.8180   22.1680 N   0  0  0  0  0  0  0  0  0  0  0  0
  -22.5050  -14.5580   20.7870 O   0  0  0  0  0  0  0  0  0  0  0  0
  -22.7220  -11.9830   22.5710 H   0  0  0  0  0  0  0  0  0  0  0  0
  -21.4030  -13.1120   22.4670 H   0  0  0  0  0  0  0  0  0  0  0  0
  -25.5650  -15.2140   20.3300 N   0  0  0  0  0  0  0  0  0  0  0  0
  -24.8110  -15.8680   20.5110 H   0  0  0  0  0  0  0  0  0  0  0  0
  -26.3970  -15.6600   19.9650 H   0  0  0  0  0  0  0  0  0  0  0  0
  -34.1160  -18.2240   19.9830 C   0  0  0  0  0  1  0  0  0  0  0  0
  -33.1150  -19.0670   20.5490 O   0  0  0  0  0  0  0  0  0  0  0  0
  -29.7580  -24.9890   21.0290 C   0  0  0  0  0  2  0  0  0  0  0  0
  -28.5850  -25.4250   20.1390 C   0  0  0  0  0  2  0  0  0  0  0  0
  -28.5710  -26.8440   20.1570 O   0  0  0  0  0  0  0  0  0  0  0  0
  -24.5450  -31.8090   23.1880 C   0  0  0  0  0  0  0  0  0  0  0  0
  -27.3500  -27.4690   20.1420 C   0  0  0  0  0  0  0  0  0  0  0  0
  -23.3940  -30.3710   21.5350 C   0  0  0  0  0  3  0  0  0  0  0  0
  -24.9030  -28.8720   20.1320 C   0  0  0  0  0  0  0  0  0  0  0  0
  -25.9050  -30.8100   21.3590 C   0  0  0  0  0  2  0  0  0  0  0  0
  -26.0350  -29.4420   20.7260 C   0  0  0  0  0  0  0  0  0  0  0  0
  -27.2610  -28.7480   20.7270 C   0  0  0  0  0  3  0  0  0  0  0  0
  -26.2010  -26.9000   19.5440 C   0  0  0  0  0  3  0  0  0  0  0  0
  -24.9790  -27.5980   19.5410 C   0  0  0  0  0  3  0  0  0  0  0  0
  -23.6350  -29.6920   20.1600 C   0  0  0  0  0  2  0  0  0  0  0  0
  -24.6320  -31.0110   22.0870 N   0  0  0  0  0  0  0  0  0  0  0  0
  -23.4520  -32.0520   23.7170 O   0  0  0  0  0  0  0  0  0  0  0  0
  -22.7630  -29.3340   22.4900 C   0  0  0  0  0  0  0  0  0  0  0  0
  -21.4500  -29.1000   22.3320 N   0  0  0  0  0  0  0  0  0  0  0  0
  -23.4520  -28.7420   23.3260 O   0  0  0  0  0  0  0  0  0  0  0  0
  -20.9560  -29.6320   21.6300 H   0  0  0  0  0  0  0  0  0  0  0  0
  -18.1140  -27.7830   22.7520 C   0  0  0  0  0  0  0  0  0  0  0  0
  -20.6510  -28.1390   23.0910 C   0  0  0  0  0  3  0  0  0  0  0  0
  -20.8230  -26.7070   22.5330 C   0  0  0  0  0  2  0  0  0  0  0  0
  -19.7630  -26.3330   21.4930 C   0  0  0  0  0  2  0  0  0  0  0  0
  -18.3590  -26.4340   22.0980 C   0  0  0  0  0  2  0  0  0  0  0  0
  -19.1910  -28.5900   23.2040 C   0  0  0  0  0  0  0  0  0  0  0  0
  -18.9110  -29.8520   23.7720 C   0  0  0  0  0  3  0  0  0  0  0  0
  -17.5850  -30.3080   23.8950 C   0  0  0  0  0  3  0  0  0  0  0  0
  -16.5210  -29.4980   23.4610 C   0  0  0  0  0  3  0  0  0  0  0  0
  -16.7870  -28.2370   22.8950 C   0  0  0  0  0  3  0  0  0  0  0  0
  -25.8100  -32.4730   23.8200 C   0  0  0  0  0  3  0  0  0  0  0  0
  -26.3330  -31.7180   25.1020 C   0  0  1  0  0  0  0  0  0  0  0  0
  -25.2360  -31.4490   26.1570 C   0  0  0  0  0  1  0  0  0  0  0  0
  -26.9620  -30.3590   24.7140 C   0  0  0  0  0  1  0  0  0  0  0  0
  -27.4520  -32.5460   25.7780 C   0  0  0  0  0  1  0  0  0  0  0  0
  -25.4640  -33.8640   24.1390 N   0  0  0  0  0  0  0  0  0  0  0  0
  -25.7590  -34.9170   23.3650 C   0  0  0  0  0  0  0  0  0  0  0  0
  -26.4240  -34.8220   22.3300 O   0  0  0  0  0  0  0  0  0  0  0  0
  -24.8710  -34.0110   24.9440 H   0  0  0  0  0  0  0  0  0  0  0  0
  -23.9650  -36.6420   23.0180 C   0  0  0  0  0  1  0  0  0  0  0  0
  -25.2340  -36.2940   23.8100 C   0  0  0  0  0  3  0  0  0  0  0  0
  -27.3510  -37.2660   24.5890 C   0  0  0  0  0  1  0  0  0  0  0  0
  -26.2280  -37.3800   23.6610 N   0  0  0  0  0  0  0  0  0  0  0  0
  -25.7940  -38.2890   23.7990 H   0  0  0  0  0  0  0  0  0  0  0  0
  1  5  1  0
  3  1  1  0
  3  6  1  0
  4  2  1  0
  5 18  1  0
  5  2  1  0
  6  7  1  1
  6  4  1  0
  8 22  1  0
  9 14  1  0
 10 11  1  0
 10  9  1  0
 12 11  1  0
 12 27  1  0
 12 13  1  0
 14  8  1  0
 14 13  1  0
 15  8  2  0
 17 16  1  0
 18 16  2  0
 19 17  2  0
 20 18  1  0
 21 20  2  0
 21 19  1  0
 22 19  1  0
 22 23  1  0
 24 25  2  0
 25 44  1  0
 26 25  1  0
 26 29  1  0
 27 28  1  0
 27 24  1  0
 28 26  2  0
 29 30  1  0
 30 31  2  0
 32 35  1  0
 32 31  1  0
 33 32  2  0
 34 33  1  0
 34 29  2  0
 35 36  1  0
 36 37  1  0
 37 38  2  0
 39 38  1  0
 39 43  1  0
 40 39  2  0
 41 36  2  0
 41 40  1  0
 42 41  1  0
 44 45  1  0
 45 48  1  0
 45 47  1  0
 46 44  2  0
 49 24  1  0
 49 50  1  0
 51 49  1  0
 52 53  1  0
 53 20  1  0
 54  6  1  0
 55 56  1  0
 55 54  1  0
 57 68  2  0
 58 56  1  0
 58 63  1  0
 59 67  1  0
 59 69  1  0
 60 66  1  0
 60 62  1  0
 61 67  1  0
 62 63  2  0
 62 61  1  0
 64 58  2  0
 65 64  1  0
 65 60  2  0
 66 59  1  0
 67 57  1  0
 69 71  2  0
 70 69  1  0
 72 70  1  0
 73 82  2  0
 73 78  1  0
 74 70  1  0
 74 78  1  0
 75 74  1  0
 76 77  1  0
 76 75  1  0
 77 73  1  0
 78 79  2  0
 79 80  1  0
 81 80  2  0
 82 81  1  0
 83 57  1  0
 83 88  1  0
 83 84  1  0
 84 87  1  1
 84 85  1  0
 86 84  1  0
 88 91  1  0
 89 93  1  0
 89 88  1  0
 90 89  2  0
 93 92  1  0
 95 96  1  0
 95 93  1  0
 95 94  1  0
M  ISO  4   8 100  22 100  55 101  56 101
M  END
>  <TORSDO>  (15) 
F 19

>  <SCORE>  (15) 
-13.238

>  <name>  (15) 
14

>  <ligand_id>  (15) 
14

>  <original_smiles>  (15) 
[H]c1c(N([H])C(=O)N2C([H])([H])C([H])([H])C([H])([H])C([H])(n3nc(-c4c([H])c([H])c(Oc5c([H])c([H])c(F)c([H])c5F)c([H])c4[H])c(C(=O)N([H])[H])c3N([H])[H])C2([H])[H])nc(OC([H])([H])[H])c(C2([H])C([H])([H])C([H])([H])[N+]([H])(C([H])([H])C([H])([H])Oc3c([H])c([H])c4c(c3[H])C([H])([H])N(C(=O)C([H])(N([H])C(=O)C([H])(N([H])C([H])([H])[H])C([H])([H])[H])C(C([H])([H])[H])(C([H])([H])[H])C([H])([H])[H])C([H])(C(=O)N([H])C3([H])c5c([H])c([H])c([H])c([H])c5C([H])([H])C([H])([H])C3([H])[H])C4([H])[H])C([H])([H])C2([H])[H])c1[H]

>  <smiles>  (15) 
[H]c1c(N([H])C(=O)N2C([H])([H])C([H])([H])C([H])([H])C([H])(n3nc(-c4c([H])c([H])c(Oc5c([H])c([H])c(F)c([H])c5F)c([H])c4[H])c(C(=O)N([H])[H])c3N([H])[H])C2([H])[H])nc(OC([H])([H])[H])c(C2([H])C([H])([H])C([H])([H])[N+]([H])(C([H])([H])C([H])([H])Oc3c([H])c([H])c4c(c3[H])C([H])([H])N(C(=O)C([H])(N([H])C(=O)C([H])(N([H])C([H])([H])[H])C([H])([H])[H])C(C([H])([H])[H])(C([H])([H])[H])C([H])([H])[H])C([H])(C(=O)N([H])C3([H])c5c([H])c([H])c([H])c([H])c5C([H])([H])C([H])([H])C3([H])[H])C4([H])[H])C([H])([H])C2([H])[H])c1[H]

$$$$
15:0:0
     RDKit          3D

 92101  0  0  1  0  0  0  0  0999 V2000
  -31.0310  -14.8790   19.7680 C   0  0  0  0  0  0  0  0  0  0  0  0
  -30.9230  -12.3970   19.3800 C   0  0  0  0  0  2  0  0  0  0  0  0
  -29.9750  -12.1020   18.1960 C   0  0  0  0  0  2  0  0  0  0  0  0
  -28.5100  -12.0140   18.6730 C   0  0  0  0  0  2  0  0  0  0  0  0
  -28.1100  -13.1900   19.6010 C   0  0  0  0  0  3  0  0  0  0  0  0
  -29.1730  -13.4290   20.6950 C   0  0  0  0  0  2  0  0  0  0  0  0
  -30.4540  -13.6510   20.0120 N   0  0  0  0  0  0  0  0  0  0  0  0
  -32.2340  -14.9490   19.4960 O   0  0  0  0  0  0  0  0  0  0  0  0
  -30.3040  -17.8470   20.9740 C   0  0  0  0  0  3  0  0  0  0  0  0
  -29.8850  -20.1400   20.2810 C   0  0  0  0  0  3  0  0  0  0  0  0
  -30.1130  -19.2030   21.3070 C   0  0  0  0  0  0  0  0  0  0  0  0
  -30.2360  -17.4020   19.6410 C   0  0  0  0  0  0  0  0  0  0  0  0
  -29.8320  -19.7190   18.9410 C   0  0  0  0  0  0  0  0  0  0  0  0
  -29.9950  -18.3610   18.6480 N   0  0  0  0  0  0  0  0  0  0  0  0
  -30.1570  -15.9300   19.5040 N   0  0  0  0  0  0  0  0  0  0  0  0
  -29.2060  -15.6050   19.4810 H   0  0  0  0  0  0  0  0  0  0  0  0
  -25.8690  -13.9950   20.5600 C   0  0  0  0  0  0  0  0  0  0  0  0
  -24.7340  -13.3240   20.9260 C   0  0  0  0  0  0  0  0  0  0  0  0
  -25.0140  -11.9370   20.7280 C   0  0  0  0  0  0  0  0  0  0  0  0
  -26.7730  -13.0230   20.1600 N   0  0  0  0  0  0  0  0  0  0  0  0
  -26.2690  -11.7740   20.3260 N   0  0  0  0  0  0  0  0  0  0  0  0
  -24.1410  -10.7620   20.8410 C   0  0  0  0  0  0  0  0  0  0  0  0
  -24.5100   -9.6450   21.6210 C   0  0  0  0  0  3  0  0  0  0  0  0
  -23.6480   -8.5320   21.7330 C   0  0  0  0  0  3  0  0  0  0  0  0
  -22.4020   -8.5300   21.0630 C   0  0  0  0  0  0  0  0  0  0  0  0
  -22.0490   -9.6360   20.2680 C   0  0  0  0  0  3  0  0  0  0  0  0
  -22.9090  -10.7410   20.1550 C   0  0  0  0  0  3  0  0  0  0  0  0
  -21.5130   -7.4820   21.0880 O   0  0  0  0  0  0  0  0  0  0  0  0
  -21.4980   -6.5800   22.1210 C   0  0  0  0  0  0  0  0  0  0  0  0
  -21.2610   -6.9770   23.4550 C   0  0  0  0  0  3  0  0  0  0  0  0
  -21.1870   -6.0070   24.4750 C   0  0  0  0  0  3  0  0  0  0  0  0
  -21.3350   -4.6420   24.1630 C   0  0  0  0  0  0  0  0  0  0  0  0
  -21.5640   -4.2450   22.8340 C   0  0  0  0  0  3  0  0  0  0  0  0
  -21.6420   -5.2110   21.8160 C   0  0  0  0  0  0  0  0  0  0  0  0
  -21.8420   -4.8220   20.5330 F   0  0  0  0  0  0  0  0  0  0  0  0
  -21.2550   -3.7100   25.1410 F   0  0  0  0  0  0  0  0  0  0  0  0
  -23.4270  -13.9370   21.3390 C   0  0  0  0  0  0  0  0  0  0  0  0
  -22.6750  -13.2560   22.1970 N   0  0  0  0  0  0  0  0  0  0  0  0
  -23.0880  -15.0500   20.9400 O   0  0  0  0  0  0  0  0  0  0  0  0
  -22.9620  -12.3520   22.5430 H   0  0  0  0  0  0  0  0  0  0  0  0
  -21.7950  -13.6430   22.5120 H   0  0  0  0  0  0  0  0  0  0  0  0
  -26.1970  -15.3490   20.5090 N   0  0  0  0  0  0  0  0  0  0  0  0
  -25.5280  -16.0680   20.7580 H   0  0  0  0  0  0  0  0  0  0  0  0
  -27.0530  -15.7290   20.1290 H   0  0  0  0  0  0  0  0  0  0  0  0
  -30.6920  -20.9250   23.2230 C   0  0  0  0  0  2  0  0  0  0  0  0
  -31.3440  -19.6050   23.5900 C   0  0  0  0  0  2  0  0  0  0  0  0
  -30.0910  -19.6210   22.7460 C   0  0  0  0  0  3  0  0  0  0  0  0
  -29.6700  -20.6600   17.8800 O   0  0  0  0  0  0  0  0  0  0  0  0
  -28.6700  -21.7860   17.8970 C   0  0  0  0  0  3  0  0  0  0  0  0
  -29.0410  -23.3130   17.4540 C   0  0  0  0  0  3  0  0  0  0  0  0
  -27.9140  -24.4820   17.5500 C   0  0  0  0  0  2  0  0  0  0  0  0
  -28.1830  -25.9750   17.6430 O   0  0  0  0  0  0  0  0  0  0  0  0
  -24.8460  -30.3300   22.4480 C   0  0  0  0  0  0  0  0  0  0  0  0
  -27.1040  -26.8430   17.9650 C   0  0  0  0  0  0  0  0  0  0  0  0
  -23.4830  -29.4320   20.6040 C   0  0  0  0  0  3  0  0  0  0  0  0
  -24.7750  -28.3910   18.6570 C   0  0  0  0  0  0  0  0  0  0  0  0
  -25.9970  -29.8430   20.2670 C   0  0  0  0  0  2  0  0  0  0  0  0
  -26.0070  -28.6990   19.2470 C   0  0  0  0  0  0  0  0  0  0  0  0
  -27.1750  -27.9410   18.8940 C   0  0  0  0  0  3  0  0  0  0  0  0
  -25.8410  -26.6240   17.3660 C   0  0  0  0  0  3  0  0  0  0  0  0
  -24.6960  -27.3650   17.7090 C   0  0  0  0  0  3  0  0  0  0  0  0
  -23.5620  -29.1990   19.0730 C   0  0  0  0  0  2  0  0  0  0  0  0
  -24.8010  -29.8690   21.1640 N   0  0  0  0  0  0  0  0  0  0  0  0
  -23.8210  -30.4030   23.1430 O   0  0  0  0  0  0  0  0  0  0  0  0
  -22.9190  -28.1600   21.2860 C   0  0  0  0  0  0  0  0  0  0  0  0
  -21.5890  -27.9700   21.2250 N   0  0  0  0  0  0  0  0  0  0  0  0
  -23.6760  -27.3600   21.8390 O   0  0  0  0  0  0  0  0  0  0  0  0
  -21.0300  -28.6790   20.7710 H   0  0  0  0  0  0  0  0  0  0  0  0
  -18.2960  -26.5080   21.5930 C   0  0  0  0  0  0  0  0  0  0  0  0
  -20.8570  -26.8220   21.7670 C   0  0  0  0  0  3  0  0  0  0  0  0
  -20.9680  -25.5960   20.8310 C   0  0  0  0  0  2  0  0  0  0  0  0
  -19.8080  -25.4900   19.8380 C   0  0  0  0  0  2  0  0  0  0  0  0
  -18.4710  -25.3940   20.5760 C   0  0  0  0  0  2  0  0  0  0  0  0
  -19.4160  -27.1870   22.1430 C   0  0  0  0  0  0  0  0  0  0  0  0
  -19.1970  -28.2350   23.0630 C   0  0  0  0  0  3  0  0  0  0  0  0
  -17.8900  -28.6090   23.4310 C   0  0  0  0  0  3  0  0  0  0  0  0
  -16.7850  -27.9260   22.8940 C   0  0  0  0  0  3  0  0  0  0  0  0
  -16.9900  -26.8760   21.9810 C   0  0  0  0  0  3  0  0  0  0  0  0
  -26.1790  -30.8070   23.0980 C   0  0  0  0  0  3  0  0  0  0  0  0
  -26.8140  -29.7280   24.0600 C   0  0  1  0  0  0  0  0  0  0  0  0
  -25.8320  -29.1970   25.1300 C   0  0  0  0  0  1  0  0  0  0  0  0
  -27.3400  -28.5190   23.2540 C   0  0  0  0  0  1  0  0  0  0  0  0
  -28.0320  -30.3360   24.7950 C   0  0  0  0  0  1  0  0  0  0  0  0
  -25.9020  -32.0500   23.8330 N   0  0  0  0  0  0  0  0  0  0  0  0
  -26.1880  -33.2790   23.3840 C   0  0  0  0  0  0  0  0  0  0  0  0
  -26.7760  -33.4820   22.3200 O   0  0  0  0  0  0  0  0  0  0  0  0
  -25.3780  -31.9590   24.6900 H   0  0  0  0  0  0  0  0  0  0  0  0
  -24.4560  -35.0800   23.6810 C   0  0  0  0  0  1  0  0  0  0  0  0
  -25.7460  -34.4720   24.2540 C   0  0  0  0  0  3  0  0  0  0  0  0
  -27.9410  -35.1060   25.1590 C   0  0  0  0  0  1  0  0  0  0  0  0
  -26.7790  -35.5240   24.3780 N   0  0  0  0  0  0  0  0  0  0  0  0
  -26.3930  -36.3610   24.8080 H   0  0  0  0  0  0  0  0  0  0  0  0
  1  7  1  0
  2  7  1  0
  3  4  1  0
  3  2  1  0
  5  4  1  0
  5 20  1  0
  5  6  1  0
  7  6  1  0
  8  1  2  0
  9 11  1  0
 10 11  2  0
 11 47  1  0
 12  9  2  0
 13 10  1  0
 14 13  2  0
 14 12  1  0
 15 12  1  0
 15  1  1  0
 16 15  1  0
 17 18  2  0
 18 37  1  0
 19 22  1  0
 19 18  1  0
 20 21  1  0
 20 17  1  0
 21 19  2  0
 22 23  1  0
 23 24  2  0
 25 28  1  0
 25 24  1  0
 26 25  2  0
 27 26  1  0
 27 22  2  0
 28 29  1  0
 29 30  1  0
 30 31  2  0
 32 31  1  0
 32 36  1  0
 33 32  2  0
 34 29  2  0
 34 33  1  0
 35 34  1  0
 37 38  1  0
 38 41  1  0
 38 40  1  0
 39 37  2  0
 42 17  1  0
 42 43  1  0
 44 42  1  0
 45 46  1  0
 47 45  1  0
 47 46  1  0
 48 49  1  0
 48 13  1  0
 50 51  1  0
 50 49  2  0
 51 52  1  0
 52 54  1  0
 53 64  2  0
 54 59  1  0
 55 63  1  0
 55 65  1  0
 56 62  1  0
 56 58  1  0
 57 63  1  0
 58 57  1  0
 59 58  2  0
 60 61  1  0
 60 54  2  0
 61 56  2  0
 62 55  1  0
 63 53  1  0
 65 67  2  0
 66 65  1  0
 68 66  1  0
 69 78  2  0
 69 74  1  0
 70 66  1  0
 70 74  1  0
 71 70  1  0
 72 73  1  0
 72 71  1  0
 73 69  1  0
 74 75  2  0
 75 76  1  0
 77 76  2  0
 78 77  1  0
 79 53  1  0
 79 84  1  0
 79 80  1  0
 80 83  1  1
 80 81  1  0
 82 80  1  0
 84 87  1  0
 85 84  1  0
 85 89  1  0
 86 85  2  0
 89 88  1  0
 89 91  1  0
 91 92  1  0
 91 90  1  0
M  ISO  4   1 100  15 100  51 101  52 101
M  END
>  <TORSDO>  (16) 
F 20

>  <SCORE>  (16) 
-8.936

>  <name>  (16) 
15

>  <ligand_id>  (16) 
15

>  <original_smiles>  (16) 
[H]c1c([H])c([H])c2c(c1[H])C([H])([H])C([H])([H])C([H])([H])C2([H])N([H])C(=O)C1([H])N(C(=O)C([H])(N([H])C(=O)C([H])(N([H])C([H])([H])[H])C([H])([H])[H])C(C([H])([H])[H])(C([H])([H])[H])C([H])([H])[H])C([H])([H])c2c([H])c(OC([H])([H])C([H])([H])C([H])([H])Oc3nc(N([H])C(=O)N4C([H])([H])C([H])([H])C([H])([H])C([H])(n5nc(-c6c([H])c([H])c(Oc7c([H])c([H])c(F)c([H])c7F)c([H])c6[H])c(C(=O)N([H])[H])c5N([H])[H])C4([H])[H])c([H])c(C4([H])C([H])([H])C4([H])[H])c3[H])c([H])c([H])c2C1([H])[H]

>  <smiles>  (16) 
[H]c1c([H])c([H])c2c(c1[H])C([H])([H])C([H])([H])C([H])([H])C2([H])N([H])C(=O)C1([H])N(C(=O)C([H])(N([H])C(=O)C([H])(N([H])C([H])([H])[H])C([H])([H])[H])C(C([H])([H])[H])(C([H])([H])[H])C([H])([H])[H])C([H])([H])c2c([H])c(OC([H])([H])C([H])([H])C([H])([H])Oc3nc(N([H])C(=O)N4C([H])([H])C([H])([H])C([H])([H])C([H])(n5nc(-c6c([H])c([H])c(Oc7c([H])c([H])c(F)c([H])c7F)c([H])c6[H])c(C(=O)N([H])[H])c5N([H])[H])C4([H])[H])c([H])c(C4([H])C([H])([H])C4([H])[H])c3[H])c([H])c([H])c2C1([H])[H]

$$$$
16:0:0
     RDKit          3D

 95103  0  0  1  0  0  0  0  0999 V2000
  -28.5310  -20.4440   20.5060 C   0  0  0  0  0  3  0  0  0  0  0  0
  -28.7810  -19.0890   20.1560 C   0  0  0  0  0  0  0  0  0  0  0  0
  -30.0290  -18.4920   20.5030 C   0  0  0  0  0  0  0  0  0  0  0  0
  -30.8740  -19.2780   21.3380 C   0  0  0  0  0  0  0  0  0  0  0  0
  -29.4740  -21.1540   21.2680 C   0  0  0  0  0  0  0  0  0  0  0  0
  -27.6830  -18.3220   19.4390 C   0  0  0  0  0  1  0  0  0  0  0  0
  -32.1780  -18.7440   21.9040 C   0  0  0  0  0  1  0  0  0  0  0  0
  -30.5950  -20.5550   21.7090 N   0  0  0  0  0  0  0  0  0  0  0  0
  -29.2630  -22.4570   21.7570 N   0  0  0  0  0  0  0  0  0  0  0  0
  -29.9290  -22.6650   22.4930 H   0  0  0  0  0  0  0  0  0  0  0  0
  -30.4990  -17.1360   18.3410 C   0  0  0  0  0  1  0  0  0  0  0  0
  -30.5570  -17.1500   19.8870 C   0  0  0  0  0  3  0  0  0  0  0  0
  -30.8150  -14.7100   20.3090 C   0  0  0  0  0  0  0  0  0  0  0  0
  -30.4970  -12.5120   19.2600 C   0  0  0  0  0  2  0  0  0  0  0  0
  -29.5640  -12.6910   18.0440 C   0  0  0  0  0  2  0  0  0  0  0  0
  -28.0920  -12.5600   18.4800 C   0  0  0  0  0  2  0  0  0  0  0  0
  -27.7490  -13.4170   19.7300 C   0  0  0  0  0  3  0  0  0  0  0  0
  -28.8120  -13.2630   20.8410 C   0  0  0  0  0  2  0  0  0  0  0  0
  -30.1250  -13.5380   20.2480 N   0  0  0  0  0  0  0  0  0  0  0  0
  -31.9990  -14.7770   19.9780 O   0  0  0  0  0  0  0  0  0  0  0  0
  -30.0860  -15.8490   20.4360 N   0  0  0  0  0  0  0  0  0  0  0  0
  -29.1110  -15.7570   20.6720 H   0  0  0  0  0  0  0  0  0  0  0  0
  -25.3550  -14.0030   20.4540 C   0  0  0  0  0  0  0  0  0  0  0  0
  -24.2950  -13.2240   20.8320 C   0  0  0  0  0  0  0  0  0  0  0  0
  -24.7650  -11.8750   20.8010 C   0  0  0  0  0  0  0  0  0  0  0  0
  -26.4040  -13.1290   20.2200 N   0  0  0  0  0  0  0  0  0  0  0  0
  -26.0530  -11.8440   20.4890 N   0  0  0  0  0  0  0  0  0  0  0  0
  -24.0460  -10.6090   20.9940 C   0  0  0  0  0  0  0  0  0  0  0  0
  -24.4750   -9.6540   21.9400 C   0  0  0  0  0  3  0  0  0  0  0  0
  -23.7570   -8.4520   22.1210 C   0  0  0  0  0  3  0  0  0  0  0  0
  -22.5960   -8.1980   21.3540 C   0  0  0  0  0  0  0  0  0  0  0  0
  -22.1840   -9.1430   20.3970 C   0  0  0  0  0  3  0  0  0  0  0  0
  -22.9030  -10.3370   20.2160 C   0  0  0  0  0  3  0  0  0  0  0  0
  -21.8480   -7.0490   21.4440 O   0  0  0  0  0  0  0  0  0  0  0  0
  -21.7780   -6.3230   22.6050 C   0  0  0  0  0  0  0  0  0  0  0  0
  -21.2860   -6.8840   23.8040 C   0  0  0  0  0  3  0  0  0  0  0  0
  -21.1650   -6.0830   24.9580 C   0  0  0  0  0  3  0  0  0  0  0  0
  -21.5310   -4.7240   24.9140 C   0  0  0  0  0  0  0  0  0  0  0  0
  -22.0180   -4.1640   23.7200 C   0  0  0  0  0  3  0  0  0  0  0  0
  -22.1390   -4.9610   22.5690 C   0  0  0  0  0  0  0  0  0  0  0  0
  -22.5890   -4.4110   21.4160 F   0  0  0  0  0  0  0  0  0  0  0  0
  -21.4070   -3.9540   26.0200 F   0  0  0  0  0  0  0  0  0  0  0  0
  -22.8980  -13.6960   21.1100 C   0  0  0  0  0  0  0  0  0  0  0  0
  -22.1760  -12.9940   21.9760 N   0  0  0  0  0  0  0  0  0  0  0  0
  -22.4520  -14.7180   20.5910 O   0  0  0  0  0  0  0  0  0  0  0  0
  -22.5480  -12.1650   22.4170 H   0  0  0  0  0  0  0  0  0  0  0  0
  -21.2380  -13.2910   22.2060 H   0  0  0  0  0  0  0  0  0  0  0  0
  -25.5080  -15.3730   20.2680 N   0  0  0  0  0  0  0  0  0  0  0  0
  -24.7260  -16.0130   20.3570 H   0  0  0  0  0  0  0  0  0  0  0  0
  -26.3290  -15.8050   19.8680 H   0  0  0  0  0  0  0  0  0  0  0  0
  -29.0750  -23.6240   20.8670 C   0  0  0  0  0  2  0  0  0  0  0  0
  -26.9660  -24.6990   21.8750 C   0  0  0  0  0  1  0  0  0  0  0  0
  -28.4740  -24.8580   21.6310 C   0  0  0  0  0  3  0  0  0  0  0  0
  -28.8200  -26.3020   21.1120 C   0  0  0  0  0  2  0  0  0  0  0  0
  -28.1930  -26.7490   19.8940 O   0  0  0  0  0  0  0  0  0  0  0  0
  -24.5020  -31.9560   23.2020 C   0  0  0  0  0  0  0  0  0  0  0  0
  -27.0680  -27.5440   19.9940 C   0  0  0  0  0  0  0  0  0  0  0  0
  -23.2590  -30.5800   21.5640 C   0  0  0  0  0  3  0  0  0  0  0  0
  -24.6790  -29.0690   20.0770 C   0  0  0  0  0  0  0  0  0  0  0  0
  -25.7770  -30.9410   21.3120 C   0  0  0  0  0  2  0  0  0  0  0  0
  -25.8510  -29.5750   20.6560 C   0  0  0  0  0  0  0  0  0  0  0  0
  -27.0490  -28.8160   20.6220 C   0  0  0  0  0  3  0  0  0  0  0  0
  -25.8860  -27.0720   19.3900 C   0  0  0  0  0  3  0  0  0  0  0  0
  -24.6930  -27.8160   19.4390 C   0  0  0  0  0  3  0  0  0  0  0  0
  -23.4380  -29.9300   20.1660 C   0  0  0  0  0  2  0  0  0  0  0  0
  -24.5310  -31.1760   22.0840 N   0  0  0  0  0  0  0  0  0  0  0  0
  -23.4330  -32.2160   23.7750 O   0  0  0  0  0  0  0  0  0  0  0  0
  -22.6310  -29.5410   22.5230 C   0  0  0  0  0  0  0  0  0  0  0  0
  -21.3070  -29.3430   22.4090 N   0  0  0  0  0  0  0  0  0  0  0  0
  -23.3310  -28.9180   23.3250 O   0  0  0  0  0  0  0  0  0  0  0  0
  -20.8030  -29.9040   21.7380 H   0  0  0  0  0  0  0  0  0  0  0  0
  -17.9540  -28.0840   22.9150 C   0  0  0  0  0  0  0  0  0  0  0  0
  -20.5080  -28.3850   23.1760 C   0  0  0  0  0  3  0  0  0  0  0  0
  -20.6330  -26.9590   22.5910 C   0  0  0  0  0  2  0  0  0  0  0  0
  -19.5320  -26.6230   21.5790 C   0  0  0  0  0  2  0  0  0  0  0  0
  -18.1510  -26.7410   22.2300 C   0  0  0  0  0  2  0  0  0  0  0  0
  -19.0620  -28.8620   23.3440 C   0  0  0  0  0  0  0  0  0  0  0  0
  -18.8260  -30.1180   23.9430 C   0  0  0  0  0  3  0  0  0  0  0  0
  -17.5140  -30.5960   24.1190 C   0  0  0  0  0  3  0  0  0  0  0  0
  -16.4200  -29.8140   23.7110 C   0  0  0  0  0  3  0  0  0  0  0  0
  -16.6420  -28.5620   23.1130 C   0  0  0  0  0  3  0  0  0  0  0  0
  -25.8030  -32.5760   23.8020 C   0  0  0  0  0  3  0  0  0  0  0  0
  -26.3400  -31.7970   25.0640 C   0  0  1  0  0  0  0  0  0  0  0  0
  -25.2670  -31.5570   26.1530 C   0  0  0  0  0  1  0  0  0  0  0  0
  -26.9110  -30.4200   24.6490 C   0  0  0  0  0  1  0  0  0  0  0  0
  -27.5070  -32.5820   25.7090 C   0  0  0  0  0  1  0  0  0  0  0  0
  -25.5160  -33.9750   24.1360 N   0  0  0  0  0  0  0  0  0  0  0  0
  -25.8590  -35.0240   23.3770 C   0  0  0  0  0  0  0  0  0  0  0  0
  -26.5220  -34.9130   22.3410 O   0  0  0  0  0  0  0  0  0  0  0  0
  -24.9350  -34.1370   24.9450 H   0  0  0  0  0  0  0  0  0  0  0  0
  -24.1730  -36.8520   23.0110 C   0  0  0  0  0  1  0  0  0  0  0  0
  -25.3920  -36.4170   23.8380 C   0  0  0  0  0  3  0  0  0  0  0  0
  -27.5290  -37.2590   24.7110 C   0  0  0  0  0  1  0  0  0  0  0  0
  -26.4480  -37.4490   23.7490 N   0  0  0  0  0  0  0  0  0  0  0  0
  -26.0570  -38.3760   23.8960 H   0  0  0  0  0  0  0  0  0  0  0  0
  1  5  1  0
  2  3  1  0
  2  1  2  0
  3  4  2  0
  4  8  1  0
  4  7  1  0
  5  8  2  0
  5  9  1  0
  6  2  1  0
  9 10  1  0
 12 11  1  0
 12 21  1  0
 12  3  1  0
 13 21  1  0
 14 19  1  0
 15 16  1  0
 15 14  1  0
 17 16  1  0
 17 26  1  0
 17 18  1  0
 19 13  1  0
 19 18  1  0
 20 13  2  0
 21 22  1  0
 23 24  2  0
 24 43  1  0
 25 24  1  0
 25 28  1  0
 26 23  1  0
 26 27  1  0
 27 25  2  0
 28 29  1  0
 29 30  2  0
 31 34  1  0
 31 30  1  0
 32 31  2  0
 33 32  1  0
 33 28  2  0
 34 35  1  0
 35 36  1  0
 36 37  2  0
 38 37  1  0
 38 42  1  0
 39 38  2  0
 40 35  2  0
 40 39  1  0
 41 40  1  0
 43 44  1  0
 44 47  1  0
 44 46  1  0
 45 43  2  0
 48 49  1  0
 48 23  1  0
 50 48  1  0
 51 53  1  0
 51  9  1  0
 53 52  1  0
 54 53  1  0
 55 57  1  0
 55 54  1  0
 56 67  2  0
 57 62  1  0
 58 66  1  0
 58 68  1  0
 59 65  1  0
 59 61  1  0
 60 66  1  0
 61 60  1  0
 62 61  2  0
 63 64  1  0
 63 57  2  0
 64 59  2  0
 65 58  1  0
 66 56  1  0
 68 70  2  0
 69 68  1  0
 71 69  1  0
 72 81  2  0
 72 77  1  0
 73 69  1  0
 73 77  1  0
 74 73  1  0
 75 76  1  0
 75 74  1  0
 76 72  1  0
 77 78  2  0
 78 79  1  0
 80 79  2  0
 81 80  1  0
 82 56  1  0
 82 87  1  0
 82 83  1  0
 83 86  1  1
 83 84  1  0
 85 83  1  0
 87 90  1  0
 88 92  1  0
 88 87  1  0
 89 88  2  0
 92 91  1  0
 94 92  1  0
 94 95  1  0
 94 93  1  0
M  ISO  4  13 100  21 100  54 101  55 101
M  END
>  <TORSDO>  (17) 
F 20

>  <SCORE>  (17) 
-14.187

>  <name>  (17) 
16

>  <ligand_id>  (17) 
16

>  <original_smiles>  (17) 
[H]c1c([H])c([H])c2c(c1[H])C([H])([H])C([H])([H])C([H])([H])C2([H])N([H])C(=O)C1([H])N(C(=O)C([H])(N([H])C(=O)C([H])(N([H])C([H])([H])[H])C([H])([H])[H])C(C([H])([H])[H])(C([H])([H])[H])C([H])([H])[H])C([H])([H])c2c([H])c(OC([H])([H])C([H])(C([H])([H])[H])C([H])([H])N([H])c3nc(C([H])([H])[H])c(C([H])(N([H])C(=O)N4C([H])([H])C([H])([H])C([H])([H])C([H])(n5nc(-c6c([H])c([H])c(Oc7c([H])c([H])c(F)c([H])c7F)c([H])c6[H])c(C(=O)N([H])[H])c5N([H])[H])C4([H])[H])C([H])([H])[H])c(C([H])([H])[H])c3[H])c([H])c([H])c2C1([H])[H]

>  <smiles>  (17) 
[H]c1c([H])c([H])c2c(c1[H])C([H])([H])C([H])([H])C([H])([H])C2([H])N([H])C(=O)C1([H])N(C(=O)C([H])(N([H])C(=O)C([H])(N([H])C([H])([H])[H])C([H])([H])[H])C(C([H])([H])[H])(C([H])([H])[H])C([H])([H])[H])C([H])([H])c2c([H])c(OC([H])([H])C([H])(C([H])([H])[H])C([H])([H])N([H])c3nc(C([H])([H])[H])c(C([H])(N([H])C(=O)N4C([H])([H])C([H])([H])C([H])([H])C([H])(n5nc(-c6c([H])c([H])c(Oc7c([H])c([H])c(F)c([H])c7F)c([H])c6[H])c(C(=O)N([H])[H])c5N([H])[H])C4([H])[H])C([H])([H])[H])c(C([H])([H])[H])c3[H])c([H])c([H])c2C1([H])[H]

$$$$
17:0:0
     RDKit          3D

 93102  0  0  1  0  0  0  0  0999 V2000
  -26.2430  -21.6290   19.3150 C   0  0  0  0  0  3  0  0  0  0  0  0
  -27.2400  -20.8200   19.9090 C   0  0  0  0  0  3  0  0  0  0  0  0
  -26.7300  -22.8980   19.2700 C   0  0  0  0  0  3  0  0  0  0  0  0
  -28.3390  -21.5930   20.1800 C   0  0  0  0  0  0  0  0  0  0  0  0
  -28.0010  -22.9310   19.8330 N   0  0  0  0  0  0  0  0  0  0  0  0
  -29.6580  -21.0970   20.7580 C   0  0  0  0  0  2  0  0  0  0  0  0
  -29.8340  -19.5350   20.9940 C   0  0  0  0  0  2  0  0  0  0  0  0
  -30.3180  -17.5920   17.6550 C   0  0  0  0  0  2  0  0  0  0  0  0
  -29.5280  -18.5320   18.5760 C   0  0  0  0  0  2  0  0  0  0  0  0
  -31.4860  -17.0450   18.4910 C   0  0  0  0  0  2  0  0  0  0  0  0
  -30.4130  -18.7020   19.8070 C   0  0  0  0  0  3  0  0  0  0  0  0
  -31.1170  -17.3030   19.9720 C   0  0  0  0  0  3  0  0  0  0  0  0
  -31.0240  -14.9010   20.6750 C   0  0  0  0  0  0  0  0  0  0  0  0
  -30.7090  -12.6710   19.6910 C   0  0  0  0  0  2  0  0  0  0  0  0
  -29.8490  -12.7870   18.4170 C   0  0  0  0  0  2  0  0  0  0  0  0
  -28.3590  -12.6560   18.7790 C   0  0  0  0  0  2  0  0  0  0  0  0
  -27.9390  -13.5770   19.9560 C   0  0  0  0  0  3  0  0  0  0  0  0
  -28.9400  -13.5180   21.1320 C   0  0  0  0  0  2  0  0  0  0  0  0
  -30.2840  -13.7560   20.5930 N   0  0  0  0  0  0  0  0  0  0  0  0
  -32.2460  -14.8690   20.5480 O   0  0  0  0  0  0  0  0  0  0  0  0
  -30.3930  -16.1040   20.5250 N   0  0  0  0  0  0  0  0  0  0  0  0
  -29.3860  -16.1250   20.5400 H   0  0  0  0  0  0  0  0  0  0  0  0
  -25.5160  -14.1820   20.5560 C   0  0  0  0  0  0  0  0  0  0  0  0
  -24.4300  -13.4170   20.8780 C   0  0  0  0  0  0  0  0  0  0  0  0
  -24.8900  -12.0630   20.8920 C   0  0  0  0  0  0  0  0  0  0  0  0
  -26.5710  -13.3010   20.3880 N   0  0  0  0  0  0  0  0  0  0  0  0
  -26.1980  -12.0210   20.6570 N   0  0  0  0  0  0  0  0  0  0  0  0
  -24.1520  -10.8070   21.0580 C   0  0  0  0  0  0  0  0  0  0  0  0
  -24.5250   -9.8540   22.0320 C   0  0  0  0  0  3  0  0  0  0  0  0
  -23.7830   -8.6640   22.1890 C   0  0  0  0  0  3  0  0  0  0  0  0
  -22.6590   -8.4110   21.3700 C   0  0  0  0  0  0  0  0  0  0  0  0
  -22.3070   -9.3540   20.3850 C   0  0  0  0  0  3  0  0  0  0  0  0
  -23.0450  -10.5390   20.2290 C   0  0  0  0  0  3  0  0  0  0  0  0
  -21.8940   -7.2670   21.4310 O   0  0  0  0  0  0  0  0  0  0  0  0
  -21.7650   -6.5510   22.5930 C   0  0  0  0  0  0  0  0  0  0  0  0
  -21.2540   -7.1340   23.7730 C   0  0  0  0  0  3  0  0  0  0  0  0
  -21.0680   -6.3480   24.9280 C   0  0  0  0  0  3  0  0  0  0  0  0
  -21.3830   -4.9770   24.9020 C   0  0  0  0  0  0  0  0  0  0  0  0
  -21.8830   -4.3890   23.7260 C   0  0  0  0  0  3  0  0  0  0  0  0
  -22.0720   -5.1760   22.5740 C   0  0  0  0  0  0  0  0  0  0  0  0
  -22.5370   -4.6000   21.4390 F   0  0  0  0  0  0  0  0  0  0  0  0
  -21.2000   -4.2160   26.0060 F   0  0  0  0  0  0  0  0  0  0  0  0
  -23.0210  -13.8980   21.0640 C   0  0  0  0  0  0  0  0  0  0  0  0
  -22.2420  -13.2200   21.9010 N   0  0  0  0  0  0  0  0  0  0  0  0
  -22.6160  -14.9150   20.4970 O   0  0  0  0  0  0  0  0  0  0  0  0
  -22.5730  -12.3860   22.3630 H   0  0  0  0  0  0  0  0  0  0  0  0
  -21.2960  -13.5320   22.0710 H   0  0  0  0  0  0  0  0  0  0  0  0
  -25.6920  -15.5470   20.3620 N   0  0  0  0  0  0  0  0  0  0  0  0
  -24.9180  -16.2000   20.3870 H   0  0  0  0  0  0  0  0  0  0  0  0
  -26.5620  -15.9760   20.0750 H   0  0  0  0  0  0  0  0  0  0  0  0
  -28.7780  -24.2010   19.8950 C   0  0  0  0  0  2  0  0  0  0  0  0
  -28.0660  -25.4010   20.6310 C   0  0  0  0  0  2  0  0  0  0  0  0
  -28.2500  -26.7520   20.0860 O   0  0  0  0  0  0  0  0  0  0  0  0
  -24.5370  -31.9780   23.2970 C   0  0  0  0  0  0  0  0  0  0  0  0
  -27.1210  -27.5610   20.0880 C   0  0  0  0  0  0  0  0  0  0  0  0
  -23.3080  -30.6050   21.6530 C   0  0  0  0  0  3  0  0  0  0  0  0
  -24.7410  -29.1080   20.1580 C   0  0  0  0  0  0  0  0  0  0  0  0
  -25.8360  -30.9660   21.4180 C   0  0  0  0  0  2  0  0  0  0  0  0
  -25.9140  -29.6090   20.7370 C   0  0  0  0  0  0  0  0  0  0  0  0
  -27.1100  -28.8470   20.6920 C   0  0  0  0  0  3  0  0  0  0  0  0
  -25.9330  -27.1000   19.4830 C   0  0  0  0  0  3  0  0  0  0  0  0
  -24.7470  -27.8530   19.5260 C   0  0  0  0  0  3  0  0  0  0  0  0
  -23.4940  -29.9610   20.2550 C   0  0  0  0  0  2  0  0  0  0  0  0
  -24.5800  -31.2000   22.1770 N   0  0  0  0  0  0  0  0  0  0  0  0
  -23.4650  -32.2290   23.8640 O   0  0  0  0  0  0  0  0  0  0  0  0
  -22.6820  -29.5560   22.6030 C   0  0  0  0  0  0  0  0  0  0  0  0
  -21.3620  -29.3430   22.4770 N   0  0  0  0  0  0  0  0  0  0  0  0
  -23.3810  -28.9370   23.4090 O   0  0  0  0  0  0  0  0  0  0  0  0
  -20.8560  -29.8920   21.7950 H   0  0  0  0  0  0  0  0  0  0  0  0
  -18.0250  -28.0380   22.9390 C   0  0  0  0  0  0  0  0  0  0  0  0
  -20.5690  -28.3820   23.2420 C   0  0  0  0  0  3  0  0  0  0  0  0
  -20.7270  -26.9560   22.6660 C   0  0  0  0  0  2  0  0  0  0  0  0
  -19.6470  -26.5940   21.6410 C   0  0  0  0  0  2  0  0  0  0  0  0
  -18.2540  -26.6940   22.2680 C   0  0  0  0  0  2  0  0  0  0  0  0
  -19.1120  -28.8370   23.3810 C   0  0  0  0  0  0  0  0  0  0  0  0
  -18.8420  -30.0960   23.9650 C   0  0  0  0  0  3  0  0  0  0  0  0
  -17.5190  -30.5510   24.1160 C   0  0  0  0  0  3  0  0  0  0  0  0
  -16.4460  -29.7460   23.6920 C   0  0  0  0  0  3  0  0  0  0  0  0
  -16.7000  -28.4920   23.1070 C   0  0  0  0  0  3  0  0  0  0  0  0
  -25.8280  -32.6090   23.9030 C   0  0  0  0  0  3  0  0  0  0  0  0
  -25.5290  -34.0120   24.2180 N   0  0  0  0  0  0  0  0  0  0  0  0
  -25.8850  -35.0550   23.4540 C   0  0  0  0  0  0  0  0  0  0  0  0
  -26.5700  -34.9360   22.4360 O   0  0  0  0  0  0  0  0  0  0  0  0
  -24.9170  -34.1790   25.0040 H   0  0  0  0  0  0  0  0  0  0  0  0
  -24.1930  -36.8730   23.0560 C   0  0  0  0  0  1  0  0  0  0  0  0
  -25.4080  -36.4520   23.8970 C   0  0  0  0  0  3  0  0  0  0  0  0
  -27.5360  -37.3090   24.7710 C   0  0  0  0  0  1  0  0  0  0  0  0
  -26.4570  -37.4880   23.8020 N   0  0  0  0  0  0  0  0  0  0  0  0
  -26.0640  -38.4160   23.9340 H   0  0  0  0  0  0  0  0  0  0  0  0
  -26.3490  -31.8470   25.1850 C   0  0  1  0  0  0  0  0  0  0  0  0
  -25.2590  -31.6240   26.2590 C   0  0  0  0  0  1  0  0  0  0  0  0
  -26.9290  -30.4640   24.8040 C   0  0  0  0  0  1  0  0  0  0  0  0
  -27.5030  -32.6490   25.8310 C   0  0  0  0  0  1  0  0  0  0  0  0
  1  2  1  0
  2  4  2  0
  3  1  2  0
  3  5  1  0
  4  6  1  0
  5 51  1  0
  5  4  1  0
  6  7  1  0
  8 10  1  0
  8  9  1  0
  9 11  1  0
 10 12  1  0
 11 12  1  0
 11  7  1  0
 12 21  1  0
 14 19  1  0
 15 16  1  0
 15 14  1  0
 17 16  1  0
 17 26  1  0
 17 18  1  0
 19 13  1  0
 19 18  1  0
 20 13  2  0
 21 22  1  0
 21 13  1  0
 23 24  2  0
 24 25  1  0
 24 43  1  0
 25 28  1  0
 26 23  1  0
 26 27  1  0
 27 25  2  0
 28 29  1  0
 29 30  2  0
 31 34  1  0
 31 30  1  0
 32 31  2  0
 33 32  1  0
 33 28  2  0
 34 35  1  0
 35 36  1  0
 36 37  2  0
 38 37  1  0
 38 42  1  0
 39 38  2  0
 40 35  2  0
 40 39  1  0
 41 40  1  0
 43 44  1  0
 44 47  1  0
 44 46  1  0
 45 43  2  0
 48 49  1  0
 48 23  1  0
 50 48  1  0
 51 52  1  0
 53 55  1  0
 53 52  1  0
 54 65  2  0
 55 60  1  0
 56 64  1  0
 56 66  1  0
 57 63  1  0
 57 59  1  0
 58 64  1  0
 59 58  1  0
 60 59  2  0
 61 62  1  0
 61 55  2  0
 62 57  2  0
 63 56  1  0
 64 54  1  0
 66 68  2  0
 67 66  1  0
 69 67  1  0
 70 79  2  0
 70 75  1  0
 71 67  1  0
 71 75  1  0
 72 71  1  0
 73 74  1  0
 73 72  1  0
 74 70  1  0
 75 76  2  0
 76 77  1  0
 78 77  2  0
 79 78  1  0
 80 54  1  0
 80 81  1  0
 80 90  1  0
 81 84  1  0
 82 86  1  0
 82 81  1  0
 83 82  2  0
 86 85  1  0
 88 86  1  0
 88 89  1  0
 88 87  1  0
 90 93  1  1
 90 91  1  0
 92 90  1  0
M  ISO  4  13 100  21 100  52 101  53 101
M  END
>  <TORSDO>  (18) 
F 21

>  <SCORE>  (18) 
-12.585

>  <name>  (18) 
17

>  <ligand_id>  (18) 
17

>  <original_smiles>  (18) 
[H]c1c([H])c([H])c2c(c1[H])C([H])([H])C([H])([H])C([H])([H])C2([H])N([H])C(=O)C1([H])N(C(=O)C([H])(N([H])C(=O)C([H])(N([H])C([H])([H])[H])C([H])([H])[H])C(C([H])([H])[H])(C([H])([H])[H])C([H])([H])[H])C([H])([H])c2c([H])c(OC([H])([H])C([H])([H])n3c([H])c([H])c([H])c3C([H])([H])C([H])([H])C3([H])C([H])([H])C([H])([H])C([H])([H])C3([H])N([H])C(=O)N3C([H])([H])C([H])([H])C([H])([H])C([H])(n4nc(-c5c([H])c([H])c(Oc6c([H])c([H])c(F)c([H])c6F)c([H])c5[H])c(C(=O)N([H])[H])c4N([H])[H])C3([H])[H])c([H])c([H])c2C1([H])[H]

>  <smiles>  (18) 
[H]c1c([H])c([H])c2c(c1[H])C([H])([H])C([H])([H])C([H])([H])C2([H])N([H])C(=O)C1([H])N(C(=O)C([H])(N([H])C(=O)C([H])(N([H])C([H])([H])[H])C([H])([H])[H])C(C([H])([H])[H])(C([H])([H])[H])C([H])([H])[H])C([H])([H])c2c([H])c(OC([H])([H])C([H])([H])n3c([H])c([H])c([H])c3C([H])([H])C([H])([H])C3([H])C([H])([H])C([H])([H])C([H])([H])C3([H])N([H])C(=O)N3C([H])([H])C([H])([H])C([H])([H])C([H])(n4nc(-c5c([H])c([H])c(Oc6c([H])c([H])c(F)c([H])c6F)c([H])c5[H])c(C(=O)N([H])[H])c4N([H])[H])C3([H])[H])c([H])c([H])c2C1([H])[H]

$$$$
18:0:0
     RDKit          3D

 96105  0  0  1  0  0  0  0  0999 V2000
  -29.7450  -21.7030   19.0510 C   0  0  0  0  0  0  0  0  0  0  0  0
  -29.1670  -22.7270   19.7580 N   0  0  0  0  0  0  0  0  0  0  0  0
  -30.2720  -21.9550   17.9670 O   0  0  0  0  0  0  0  0  0  0  0  0
  -28.7180  -22.4830   20.6290 H   0  0  0  0  0  0  0  0  0  0  0  0
  -30.8440  -14.8920   20.0920 C   0  0  0  0  0  0  0  0  0  0  0  0
  -30.6680  -12.5910   19.1600 C   0  0  0  0  0  2  0  0  0  0  0  0
  -29.6850  -12.6280   17.9680 C   0  0  0  0  0  2  0  0  0  0  0  0
  -28.2300  -12.4550   18.4480 C   0  0  0  0  0  2  0  0  0  0  0  0
  -27.8850  -13.3700   19.6530 C   0  0  0  0  0  3  0  0  0  0  0  0
  -28.9790  -13.3010   20.7420 C   0  0  0  0  0  2  0  0  0  0  0  0
  -30.2620  -13.6480   20.1090 N   0  0  0  0  0  0  0  0  0  0  0  0
  -31.9960  -15.0390   19.6690 O   0  0  0  0  0  0  0  0  0  0  0  0
  -28.8650  -18.1180   20.4290 C   0  0  0  0  0  3  0  0  0  0  0  0
  -29.8270  -20.2320   19.5590 C   0  0  0  0  0  0  0  0  0  0  0  0
  -28.7380  -19.5140   20.1400 C   0  0  0  0  0  0  0  0  0  0  0  0
  -30.9910  -19.4180   19.3390 C   0  0  0  0  0  0  0  0  0  0  0  0
  -30.0430  -17.3790   20.1400 C   0  0  0  0  0  0  0  0  0  0  0  0
  -27.4060  -20.1880   20.4290 C   0  0  0  0  0  1  0  0  0  0  0  0
  -32.2750  -19.9870   18.7540 C   0  0  0  0  0  1  0  0  0  0  0  0
  -31.0820  -18.0760   19.6140 N   0  0  0  0  0  0  0  0  0  0  0  0
  -30.0190  -15.9410   20.4210 N   0  0  0  0  0  0  0  0  0  0  0  0
  -29.1470  -15.6230   20.8080 H   0  0  0  0  0  0  0  0  0  0  0  0
  -25.5360  -13.9620   20.5110 C   0  0  0  0  0  0  0  0  0  0  0  0
  -24.4800  -13.1840   20.9020 C   0  0  0  0  0  0  0  0  0  0  0  0
  -24.9270  -11.8310   20.7960 C   0  0  0  0  0  0  0  0  0  0  0  0
  -26.5580  -13.0820   20.1910 N   0  0  0  0  0  0  0  0  0  0  0  0
  -26.2000  -11.7930   20.4240 N   0  0  0  0  0  0  0  0  0  0  0  0
  -24.1970  -10.5680   20.9720 C   0  0  0  0  0  0  0  0  0  0  0  0
  -24.6130   -9.6000   21.9110 C   0  0  0  0  0  3  0  0  0  0  0  0
  -23.8850   -8.4010   22.0750 C   0  0  0  0  0  3  0  0  0  0  0  0
  -22.7250   -8.1640   21.2980 C   0  0  0  0  0  0  0  0  0  0  0  0
  -22.3290   -9.1220   20.3480 C   0  0  0  0  0  3  0  0  0  0  0  0
  -23.0580  -10.3100   20.1830 C   0  0  0  0  0  3  0  0  0  0  0  0
  -21.9700   -7.0190   21.3710 O   0  0  0  0  0  0  0  0  0  0  0  0
  -21.8060   -6.3380   22.5510 C   0  0  0  0  0  0  0  0  0  0  0  0
  -21.1650   -6.9220   23.6650 C   0  0  0  0  0  3  0  0  0  0  0  0
  -20.9560   -6.1630   24.8350 C   0  0  0  0  0  3  0  0  0  0  0  0
  -21.3770   -4.8210   24.8880 C   0  0  0  0  0  0  0  0  0  0  0  0
  -22.0110   -4.2370   23.7770 C   0  0  0  0  0  3  0  0  0  0  0  0
  -22.2210   -4.9930   22.6110 C   0  0  0  0  0  0  0  0  0  0  0  0
  -22.8130   -4.4180   21.5360 F   0  0  0  0  0  0  0  0  0  0  0  0
  -21.1700   -4.0900   26.0080 F   0  0  0  0  0  0  0  0  0  0  0  0
  -23.1030  -13.6620   21.2580 C   0  0  0  0  0  0  0  0  0  0  0  0
  -22.4210  -12.9560   22.1550 N   0  0  0  0  0  0  0  0  0  0  0  0
  -22.6400  -14.6950   20.7770 O   0  0  0  0  0  0  0  0  0  0  0  0
  -22.8090  -12.1200   22.5660 H   0  0  0  0  0  0  0  0  0  0  0  0
  -21.4990  -13.2580   22.4340 H   0  0  0  0  0  0  0  0  0  0  0  0
  -25.7050  -15.3370   20.3760 N   0  0  0  0  0  0  0  0  0  0  0  0
  -24.9390  -15.9840   20.5350 H   0  0  0  0  0  0  0  0  0  0  0  0
  -26.5120  -15.7780   19.9560 H   0  0  0  0  0  0  0  0  0  0  0  0
  -29.3680  -24.2140   19.5130 C   0  0  0  0  0  3  0  0  0  0  0  0
  -31.9340  -24.5540   20.0250 C   0  0  0  0  0  2  0  0  0  0  0  0
  -31.3310  -25.9380   19.9170 C   0  0  0  0  0  2  0  0  0  0  0  0
  -30.4820  -24.7780   20.3810 C   0  0  0  0  0  3  0  0  0  0  0  0
  -28.0890  -25.1660   19.5600 C   0  0  0  0  0  2  0  0  0  0  0  0
  -28.2840  -26.6290   19.7470 O   0  0  0  0  0  0  0  0  0  0  0  0
  -24.6180  -31.7960   23.2250 C   0  0  0  0  0  0  0  0  0  0  0  0
  -27.1540  -27.4660   19.7920 C   0  0  0  0  0  0  0  0  0  0  0  0
  -23.3750  -30.5190   21.5170 C   0  0  0  0  0  3  0  0  0  0  0  0
  -24.7890  -29.0740   19.9540 C   0  0  0  0  0  0  0  0  0  0  0  0
  -25.9090  -30.8500   21.2980 C   0  0  0  0  0  2  0  0  0  0  0  0
  -25.9730  -29.5210   20.5540 C   0  0  0  0  0  0  0  0  0  0  0  0
  -27.1580  -28.7310   20.4610 C   0  0  0  0  0  3  0  0  0  0  0  0
  -25.9410  -27.0720   19.1810 C   0  0  0  0  0  3  0  0  0  0  0  0
  -24.7750  -27.8550   19.2590 C   0  0  0  0  0  3  0  0  0  0  0  0
  -23.5560  -29.9430   20.0890 C   0  0  0  0  0  2  0  0  0  0  0  0
  -24.6550  -31.0680   22.0710 N   0  0  0  0  0  0  0  0  0  0  0  0
  -23.5470  -32.0340   23.8040 O   0  0  0  0  0  0  0  0  0  0  0  0
  -22.7310  -29.4380   22.4160 C   0  0  0  0  0  0  0  0  0  0  0  0
  -21.4110  -29.2350   22.2700 N   0  0  0  0  0  0  0  0  0  0  0  0
  -23.4190  -28.7850   23.2060 O   0  0  0  0  0  0  0  0  0  0  0  0
  -20.9130  -29.8130   21.6070 H   0  0  0  0  0  0  0  0  0  0  0  0
  -18.0630  -27.9210   22.6670 C   0  0  0  0  0  0  0  0  0  0  0  0
  -20.6100  -28.2400   22.9850 C   0  0  0  0  0  3  0  0  0  0  0  0
  -20.7610  -26.8400   22.3450 C   0  0  0  0  0  2  0  0  0  0  0  0
  -19.6820  -26.5350   21.3000 C   0  0  0  0  0  2  0  0  0  0  0  0
  -18.2880  -26.6110   21.9300 C   0  0  0  0  0  2  0  0  0  0  0  0
  -19.1540  -28.6930   23.1480 C   0  0  0  0  0  0  0  0  0  0  0  0
  -18.8910  -29.9190   23.7950 C   0  0  0  0  0  3  0  0  0  0  0  0
  -17.5710  -30.3760   23.9650 C   0  0  0  0  0  3  0  0  0  0  0  0
  -16.4940  -29.6020   23.4990 C   0  0  0  0  0  3  0  0  0  0  0  0
  -16.7410  -28.3760   22.8560 C   0  0  0  0  0  3  0  0  0  0  0  0
  -25.9160  -32.3800   23.8620 C   0  0  0  0  0  3  0  0  0  0  0  0
  -26.4070  -31.5720   25.1250 C   0  0  1  0  0  0  0  0  0  0  0  0
  -25.3020  -31.3420   26.1830 C   0  0  0  0  0  1  0  0  0  0  0  0
  -26.9570  -30.1880   24.7100 C   0  0  0  0  0  1  0  0  0  0  0  0
  -27.5740  -32.3240   25.8080 C   0  0  0  0  0  1  0  0  0  0  0  0
  -25.6430  -33.7810   24.2190 N   0  0  0  0  0  0  0  0  0  0  0  0
  -25.9560  -34.8350   23.4540 C   0  0  0  0  0  0  0  0  0  0  0  0
  -26.5750  -34.7310   22.3900 O   0  0  0  0  0  0  0  0  0  0  0  0
  -25.0910  -33.9350   25.0490 H   0  0  0  0  0  0  0  0  0  0  0  0
  -24.2310  -36.6490   23.2100 C   0  0  0  0  0  1  0  0  0  0  0  0
  -25.5130  -36.2270   23.9460 C   0  0  0  0  0  3  0  0  0  0  0  0
  -27.6900  -37.0960   24.6730 C   0  0  0  0  0  1  0  0  0  0  0  0
  -26.5490  -37.2690   23.7790 N   0  0  0  0  0  0  0  0  0  0  0  0
  -26.1590  -38.1940   23.9370 H   0  0  0  0  0  0  0  0  0  0  0  0
  1 14  1  0
  1  2  1  0
  2  4  1  0
  3  1  2  0
  5 11  1  0
  5 21  1  0
  6 11  1  0
  7  8  1  0
  7  6  1  0
  9  8  1  0
  9 26  1  0
  9 10  1  0
 11 10  1  0
 12  5  2  0
 14 15  2  0
 15 13  1  0
 15 18  1  0
 16 14  1  0
 16 20  2  0
 17 21  1  0
 17 13  2  0
 19 16  1  0
 20 17  1  0
 21 22  1  0
 23 24  2  0
 24 43  1  0
 25 24  1  0
 25 28  1  0
 26 27  1  0
 26 23  1  0
 27 25  2  0
 28 29  1  0
 29 30  2  0
 31 34  1  0
 31 30  1  0
 32 31  2  0
 33 32  1  0
 33 28  2  0
 34 35  1  0
 35 40  2  0
 35 36  1  0
 36 37  2  0
 37 38  1  0
 38 42  1  0
 39 38  2  0
 40 39  1  0
 41 40  1  0
 43 44  1  0
 44 47  1  0
 44 46  1  0
 45 43  2  0
 48 23  1  0
 48 49  1  0
 50 48  1  0
 51 55  1  0
 51  2  1  0
 51 54  1  0
 52 54  1  0
 53 52  1  0
 53 54  1  0
 55 56  1  0
 56 58  1  0
 57 68  2  0
 58 63  1  0
 59 67  1  0
 59 69  1  0
 60 66  1  0
 60 62  1  0
 61 67  1  0
 62 61  1  0
 63 62  2  0
 64 65  1  0
 64 58  2  0
 65 60  2  0
 66 59  1  0
 67 57  1  0
 69 71  2  0
 70 69  1  0
 72 70  1  0
 73 82  2  0
 73 78  1  0
 74 70  1  0
 74 78  1  0
 75 74  1  0
 76 77  1  0
 76 75  1  0
 77 73  1  0
 78 79  2  0
 79 80  1  0
 81 80  2  0
 82 81  1  0
 83 57  1  0
 83 88  1  0
 83 84  1  0
 84 87  1  1
 84 85  1  0
 86 84  1  0
 88 91  1  0
 89 93  1  0
 89 88  1  0
 90 89  2  0
 93 92  1  0
 95 96  1  0
 95 93  1  0
 95 94  1  0
M  ISO  4   5 100  21 100  55 101  56 101
M  END
>  <TORSDO>  (19) 
F 19

>  <SCORE>  (19) 
-13.584

>  <name>  (19) 
18

>  <ligand_id>  (19) 
18

>  <original_smiles>  (19) 
[H]c1c([H])c([H])c2c(c1[H])C([H])([H])C([H])([H])C([H])([H])C2([H])N([H])C(=O)C1([H])N(C(=O)C([H])(N([H])C(=O)C([H])(N([H])C([H])([H])[H])C([H])([H])[H])C(C([H])([H])[H])(C([H])([H])[H])C([H])([H])[H])C([H])([H])c2c([H])c(OC([H])([H])C([H])(N([H])C(=O)c3c(C([H])([H])[H])nc(N([H])C(=O)N4C([H])([H])C([H])([H])C([H])([H])C([H])(n5nc(-c6c([H])c([H])c(Oc7c([H])c([H])c(F)c([H])c7F)c([H])c6[H])c(C(=O)N([H])[H])c5N([H])[H])C4([H])[H])c([H])c3C([H])([H])[H])C3([H])C([H])([H])C3([H])[H])c([H])c([H])c2C1([H])[H]

>  <smiles>  (19) 
[H]c1c([H])c([H])c2c(c1[H])C([H])([H])C([H])([H])C([H])([H])C2([H])N([H])C(=O)C1([H])N(C(=O)C([H])(N([H])C(=O)C([H])(N([H])C([H])([H])[H])C([H])([H])[H])C(C([H])([H])[H])(C([H])([H])[H])C([H])([H])[H])C([H])([H])c2c([H])c(OC([H])([H])C([H])(N([H])C(=O)c3c(C([H])([H])[H])nc(N([H])C(=O)N4C([H])([H])C([H])([H])C([H])([H])C([H])(n5nc(-c6c([H])c([H])c(Oc7c([H])c([H])c(F)c([H])c7F)c([H])c6[H])c(C(=O)N([H])[H])c5N([H])[H])C4([H])[H])c([H])c3C([H])([H])[H])C3([H])C([H])([H])C3([H])[H])c([H])c([H])c2C1([H])[H]

$$$$
19:0:0
     RDKit          3D

 95104  0  0  1  0  0  0  0  0999 V2000
  -29.8400  -21.0260   21.3040 C   0  0  0  0  0  3  0  0  0  0  0  0
  -29.9640  -22.6430   19.0210 C   0  0  0  0  0  3  0  0  0  0  0  0
  -30.0990  -20.4280   20.0520 C   0  0  0  0  0  0  0  0  0  0  0  0
  -29.6550  -22.4200   21.4270 C   0  0  0  0  0  0  0  0  0  0  0  0
  -29.7520  -23.2450   20.2790 C   0  0  0  0  0  0  0  0  0  0  0  0
  -30.1320  -21.2390   18.8930 C   0  0  0  0  0  0  0  0  0  0  0  0
  -29.3770  -23.0060   22.8010 C   0  0  0  0  0  1  0  0  0  0  0  0
  -29.4410  -17.9660   19.3430 C   0  0  0  0  0  2  0  0  0  0  0  0
  -30.4110  -18.9550   19.9440 C   0  0  0  0  0  3  0  0  0  0  0  0
  -29.7840  -17.8740   20.8130 C   0  0  0  0  0  3  0  0  0  0  0  0
  -30.9280  -16.9560   22.8650 C   0  0  0  0  0  1  0  0  0  0  0  0
  -30.6540  -16.7480   21.3700 C   0  0  0  0  0  3  0  0  0  0  0  0
  -30.6910  -14.4510   20.3580 C   0  0  0  0  0  0  0  0  0  0  0  0
  -30.3100  -12.3420   19.1390 C   0  0  0  0  0  2  0  0  0  0  0  0
  -29.3520  -12.5840   17.9560 C   0  0  0  0  0  2  0  0  0  0  0  0
  -27.8850  -12.4610   18.4100 C   0  0  0  0  0  2  0  0  0  0  0  0
  -27.5840  -13.2810   19.6930 C   0  0  0  0  0  3  0  0  0  0  0  0
  -28.6530  -13.0210   20.7780 C   0  0  0  0  0  2  0  0  0  0  0  0
  -29.9760  -13.3070   20.1970 N   0  0  0  0  0  0  0  0  0  0  0  0
  -31.7610  -14.6560   19.7760 O   0  0  0  0  0  0  0  0  0  0  0  0
  -30.1300  -15.3930   21.1390 N   0  0  0  0  0  0  0  0  0  0  0  0
  -29.2430  -15.1590   21.5600 H   0  0  0  0  0  0  0  0  0  0  0  0
  -25.1990  -13.9100   20.4310 C   0  0  0  0  0  0  0  0  0  0  0  0
  -24.1300  -13.1470   20.8170 C   0  0  0  0  0  0  0  0  0  0  0  0
  -24.5800  -11.7910   20.7820 C   0  0  0  0  0  0  0  0  0  0  0  0
  -26.2340  -13.0190   20.1880 N   0  0  0  0  0  0  0  0  0  0  0  0
  -25.8640  -11.7410   20.4540 N   0  0  0  0  0  0  0  0  0  0  0  0
  -23.8450  -10.5360   20.9860 C   0  0  0  0  0  0  0  0  0  0  0  0
  -24.2840   -9.5660   21.9150 C   0  0  0  0  0  3  0  0  0  0  0  0
  -23.5520   -8.3750   22.1060 C   0  0  0  0  0  3  0  0  0  0  0  0
  -22.3660   -8.1440   21.3690 C   0  0  0  0  0  0  0  0  0  0  0  0
  -21.9460   -9.1030   20.4290 C   0  0  0  0  0  3  0  0  0  0  0  0
  -22.6800  -10.2850   20.2370 C   0  0  0  0  0  3  0  0  0  0  0  0
  -21.6040   -7.0060   21.4700 O   0  0  0  0  0  0  0  0  0  0  0  0
  -21.5640   -6.2660   22.6240 C   0  0  0  0  0  0  0  0  0  0  0  0
  -21.1600   -6.8270   23.8550 C   0  0  0  0  0  3  0  0  0  0  0  0
  -21.0670   -6.0140   25.0030 C   0  0  0  0  0  3  0  0  0  0  0  0
  -21.3670   -4.6420   24.9210 C   0  0  0  0  0  0  0  0  0  0  0  0
  -21.7650   -4.0800   23.6950 C   0  0  0  0  0  3  0  0  0  0  0  0
  -21.8610   -4.8890   22.5490 C   0  0  0  0  0  0  0  0  0  0  0  0
  -22.2230   -4.3390   21.3660 F   0  0  0  0  0  0  0  0  0  0  0  0
  -21.2700   -3.8590   26.0210 F   0  0  0  0  0  0  0  0  0  0  0  0
  -22.7410  -13.6360   21.1110 C   0  0  0  0  0  0  0  0  0  0  0  0
  -22.0210  -12.9470   21.9900 N   0  0  0  0  0  0  0  0  0  0  0  0
  -22.3040  -14.6650   20.5980 O   0  0  0  0  0  0  0  0  0  0  0  0
  -22.3890  -12.1140   22.4270 H   0  0  0  0  0  0  0  0  0  0  0  0
  -21.0900  -13.2550   22.2280 H   0  0  0  0  0  0  0  0  0  0  0  0
  -25.3740  -15.2790   20.2480 N   0  0  0  0  0  0  0  0  0  0  0  0
  -24.6170  -15.9420   20.3650 H   0  0  0  0  0  0  0  0  0  0  0  0
  -26.2300  -15.7080   19.9200 H   0  0  0  0  0  0  0  0  0  0  0  0
  -30.2840  -21.3780   16.4960 C   0  0  0  0  0  1  0  0  0  0  0  0
  -30.3620  -20.6080   17.6900 O   0  0  0  0  0  0  0  0  0  0  0  0
  -29.6950  -24.7720   20.3650 C   0  0  0  0  0  2  0  0  0  0  0  0
  -28.3080  -25.3720   20.0850 C   0  0  0  0  0  2  0  0  0  0  0  0
  -28.3800  -26.7970   20.2050 O   0  0  0  0  0  0  0  0  0  0  0  0
  -24.6040  -31.9760   23.2710 C   0  0  0  0  0  0  0  0  0  0  0  0
  -27.1940  -27.5020   20.1990 C   0  0  0  0  0  0  0  0  0  0  0  0
  -23.3750  -30.5750   21.6440 C   0  0  0  0  0  3  0  0  0  0  0  0
  -24.8070  -29.0190   20.2190 C   0  0  0  0  0  0  0  0  0  0  0  0
  -25.9010  -30.9160   21.4250 C   0  0  0  0  0  2  0  0  0  0  0  0
  -25.9720  -29.5410   20.7930 C   0  0  0  0  0  0  0  0  0  0  0  0
  -27.1690  -28.7910   20.7760 C   0  0  0  0  0  3  0  0  0  0  0  0
  -26.0070  -26.9880   19.6280 C   0  0  0  0  0  3  0  0  0  0  0  0
  -24.8180  -27.7400   19.6350 C   0  0  0  0  0  3  0  0  0  0  0  0
  -23.5690  -29.8860   20.2680 C   0  0  0  0  0  2  0  0  0  0  0  0
  -24.6460  -31.1700   22.1720 N   0  0  0  0  0  0  0  0  0  0  0  0
  -23.5290  -32.2600   23.8160 O   0  0  0  0  0  0  0  0  0  0  0  0
  -22.7230  -29.5640   22.6160 C   0  0  0  0  0  0  0  0  0  0  0  0
  -21.4000  -29.3770   22.4840 N   0  0  0  0  0  0  0  0  0  0  0  0
  -23.4050  -28.9490   23.4400 O   0  0  0  0  0  0  0  0  0  0  0  0
  -20.9130  -29.9260   21.7890 H   0  0  0  0  0  0  0  0  0  0  0  0
  -18.0260  -28.1760   22.9690 C   0  0  0  0  0  0  0  0  0  0  0  0
  -20.5810  -28.4470   23.2600 C   0  0  0  0  0  3  0  0  0  0  0  0
  -20.6950  -27.0090   22.7050 C   0  0  0  0  0  2  0  0  0  0  0  0
  -19.6030  -26.6680   21.6860 C   0  0  0  0  0  2  0  0  0  0  0  0
  -18.2140  -26.8170   22.3150 C   0  0  0  0  0  2  0  0  0  0  0  0
  -19.1390  -28.9480   23.3970 C   0  0  0  0  0  0  0  0  0  0  0  0
  -18.9110  -30.2210   23.9660 C   0  0  0  0  0  3  0  0  0  0  0  0
  -17.6040  -30.7200   24.1110 C   0  0  0  0  0  3  0  0  0  0  0  0
  -16.5060  -29.9460   23.6990 C   0  0  0  0  0  3  0  0  0  0  0  0
  -16.7180  -28.6750   23.1350 C   0  0  0  0  0  3  0  0  0  0  0  0
  -25.9000  -32.5980   23.8790 C   0  0  0  0  0  3  0  0  0  0  0  0
  -25.6020  -33.9970   24.2130 N   0  0  0  0  0  0  0  0  0  0  0  0
  -25.9280  -35.0470   23.4460 C   0  0  0  0  0  0  0  0  0  0  0  0
  -26.5840  -34.9380   22.4070 O   0  0  0  0  0  0  0  0  0  0  0  0
  -25.0160  -34.1540   25.0190 H   0  0  0  0  0  0  0  0  0  0  0  0
  -24.2000  -36.8430   23.1140 C   0  0  0  0  0  1  0  0  0  0  0  0
  -25.4530  -36.4370   23.9080 C   0  0  0  0  0  3  0  0  0  0  0  0
  -27.6030  -37.3170   24.7020 C   0  0  0  0  0  1  0  0  0  0  0  0
  -26.4860  -37.4870   23.7750 N   0  0  0  0  0  0  0  0  0  0  0  0
  -26.0870  -38.4090   23.9280 H   0  0  0  0  0  0  0  0  0  0  0  0
  -26.4270  -31.8220   25.1480 C   0  0  1  0  0  0  0  0  0  0  0  0
  -25.3430  -31.5840   26.2260 C   0  0  0  0  0  1  0  0  0  0  0  0
  -27.0010  -30.4440   24.7440 C   0  0  0  0  0  1  0  0  0  0  0  0
  -27.5870  -32.6110   25.8010 C   0  0  0  0  0  1  0  0  0  0  0  0
  1  4  1  0
  2  5  1  0
  3  1  2  0
  4  7  1  0
  5 53  1  0
  5  4  2  0
  6  2  2  0
  6  3  1  0
  8  9  1  0
  8 10  1  0
  9  3  1  0
  9 10  1  0
 10 12  1  0
 12 11  1  0
 13 21  1  0
 14 19  1  0
 15 16  1  0
 15 14  1  0
 17 16  1  0
 17 26  1  0
 17 18  1  0
 19 13  1  0
 19 18  1  0
 20 13  2  0
 21 12  1  0
 21 22  1  0
 23 24  2  0
 24 43  1  0
 25 24  1  0
 25 28  1  0
 26 23  1  0
 26 27  1  0
 27 25  2  0
 28 29  1  0
 29 30  2  0
 31 34  1  0
 31 30  1  0
 32 31  2  0
 33 32  1  0
 33 28  2  0
 34 35  1  0
 35 36  1  0
 36 37  2  0
 38 37  1  0
 38 42  1  0
 39 38  2  0
 40 35  2  0
 40 39  1  0
 41 40  1  0
 43 44  1  0
 44 47  1  0
 44 46  1  0
 45 43  2  0
 48 49  1  0
 48 23  1  0
 50 48  1  0
 51 52  1  0
 52  6  1  0
 54 55  1  0
 54 53  1  0
 56 67  2  0
 57 55  1  0
 57 62  1  0
 58 66  1  0
 58 68  1  0
 59 65  1  0
 59 61  1  0
 60 66  1  0
 61 60  1  0
 62 61  2  0
 63 64  1  0
 63 57  2  0
 64 59  2  0
 65 58  1  0
 66 56  1  0
 68 70  2  0
 69 68  1  0
 71 69  1  0
 72 81  2  0
 72 77  1  0
 73 69  1  0
 73 77  1  0
 74 73  1  0
 75 76  1  0
 75 74  1  0
 76 72  1  0
 77 78  2  0
 78 79  1  0
 80 79  2  0
 81 80  1  0
 82 56  1  0
 82 83  1  0
 82 92  1  0
 83 86  1  0
 84 88  1  0
 84 83  1  0
 85 84  2  0
 88 87  1  0
 90 88  1  0
 90 91  1  0
 90 89  1  0
 92 95  1  1
 92 93  1  0
 94 92  1  0
M  ISO  4  13 100  21 100  54 101  55 101
M  END
>  <TORSDO>  (20) 
F 21

>  <SCORE>  (20) 
-13.522

>  <name>  (20) 
19

>  <ligand_id>  (20) 
19

>  <original_smiles>  (20) 
[H]c1c([H])c([H])c2c(c1[H])C([H])([H])C([H])([H])C([H])([H])C2([H])N([H])C(=O)C1([H])N(C(=O)C([H])(N([H])C(=O)C([H])(N([H])C([H])([H])[H])C([H])([H])[H])C(C([H])([H])[H])(C([H])([H])[H])C([H])([H])[H])C([H])([H])c2c([H])c(OC([H])([H])C([H])([H])c3c([H])c(OC([H])([H])[H])c(C4([H])C([H])([H])C4([H])C([H])(N([H])C(=O)N4C([H])([H])C([H])([H])C([H])([H])C([H])(n5nc(-c6c([H])c([H])c(Oc7c([H])c([H])c(F)c([H])c7F)c([H])c6[H])c(C(=O)N([H])[H])c5N([H])[H])C4([H])[H])C([H])([H])[H])c([H])c3C([H])([H])[H])c([H])c([H])c2C1([H])[H]

>  <smiles>  (20) 
[H]c1c([H])c([H])c2c(c1[H])C([H])([H])C([H])([H])C([H])([H])C2([H])N([H])C(=O)C1([H])N(C(=O)C([H])(N([H])C(=O)C([H])(N([H])C([H])([H])[H])C([H])([H])[H])C(C([H])([H])[H])(C([H])([H])[H])C([H])([H])[H])C([H])([H])c2c([H])c(OC([H])([H])C([H])([H])c3c([H])c(OC([H])([H])[H])c(C4([H])C([H])([H])C4([H])C([H])(N([H])C(=O)N4C([H])([H])C([H])([H])C([H])([H])C([H])(n5nc(-c6c([H])c([H])c(Oc7c([H])c([H])c(F)c([H])c7F)c([H])c6[H])c(C(=O)N([H])[H])c5N([H])[H])C4([H])[H])C([H])([H])[H])c([H])c3C([H])([H])[H])c([H])c([H])c2C1([H])[H]

$$$$
20:0:0
     RDKit          3D

 92101  0  0  1  0  0  0  0  0999 V2000
  -30.5980  -14.7240   20.4180 C   0  0  0  0  0  0  0  0  0  0  0  0
  -30.3490  -12.4400   19.4380 C   0  0  0  0  0  2  0  0  0  0  0  0
  -29.4260  -12.5040   18.2030 C   0  0  0  0  0  2  0  0  0  0  0  0
  -27.9550  -12.3380   18.6260 C   0  0  0  0  0  2  0  0  0  0  0  0
  -27.5730  -13.2440   19.8280 C   0  0  0  0  0  3  0  0  0  0  0  0
  -28.6260  -13.1930   20.9590 C   0  0  0  0  0  2  0  0  0  0  0  0
  -29.9260  -13.5220   20.3610 N   0  0  0  0  0  0  0  0  0  0  0  0
  -31.7950  -14.7330   20.1110 O   0  0  0  0  0  0  0  0  0  0  0  0
  -29.4410  -18.4720   20.7350 C   0  0  0  0  0  3  0  0  0  0  0  0
  -32.0240  -18.8860   20.0460 C   0  0  0  0  0  3  0  0  0  0  0  0
  -31.2550  -20.0290   20.3360 C   0  0  0  0  0  0  0  0  0  0  0  0
  -29.8820  -19.8570   20.6310 C   0  0  0  0  0  0  0  0  0  0  0  0
  -30.3130  -17.3310   20.4920 C   0  0  0  0  0  0  0  0  0  0  0  0
  -31.5800  -17.6160   20.1210 N   0  0  0  0  0  0  0  0  0  0  0  0
  -29.8860  -15.9070   20.6250 N   0  0  0  0  0  0  0  0  0  0  0  0
  -28.9160  -15.7690   20.8590 H   0  0  0  0  0  0  0  0  0  0  0  0
  -25.1830  -13.8380   20.5430 C   0  0  0  0  0  0  0  0  0  0  0  0
  -24.1140  -13.0650   20.9040 C   0  0  0  0  0  0  0  0  0  0  0  0
  -24.5760  -11.7140   20.8780 C   0  0  0  0  0  0  0  0  0  0  0  0
  -26.2280  -12.9550   20.3140 N   0  0  0  0  0  0  0  0  0  0  0  0
  -25.8690  -11.6730   20.5810 N   0  0  0  0  0  0  0  0  0  0  0  0
  -23.8450  -10.4520   21.0620 C   0  0  0  0  0  0  0  0  0  0  0  0
  -24.2680   -9.4800   21.9960 C   0  0  0  0  0  3  0  0  0  0  0  0
  -23.5340   -8.2860   22.1700 C   0  0  0  0  0  3  0  0  0  0  0  0
  -22.3630   -8.0550   21.4080 C   0  0  0  0  0  0  0  0  0  0  0  0
  -21.9600   -9.0160   20.4640 C   0  0  0  0  0  3  0  0  0  0  0  0
  -22.6940  -10.2000   20.2900 C   0  0  0  0  0  3  0  0  0  0  0  0
  -21.6010   -6.9130   21.4900 O   0  0  0  0  0  0  0  0  0  0  0  0
  -21.5430   -6.1710   22.6410 C   0  0  0  0  0  0  0  0  0  0  0  0
  -21.1080   -6.7260   23.8650 C   0  0  0  0  0  3  0  0  0  0  0  0
  -20.9930   -5.9100   25.0080 C   0  0  0  0  0  3  0  0  0  0  0  0
  -21.3030   -4.5400   24.9290 C   0  0  0  0  0  0  0  0  0  0  0  0
  -21.7340   -3.9840   23.7110 C   0  0  0  0  0  3  0  0  0  0  0  0
  -21.8490   -4.7960   22.5700 C   0  0  0  0  0  0  0  0  0  0  0  0
  -22.2410   -4.2510   21.3940 F   0  0  0  0  0  0  0  0  0  0  0  0
  -21.1880   -3.7540   26.0250 F   0  0  0  0  0  0  0  0  0  0  0  0
  -22.7170  -13.5450   21.1640 C   0  0  0  0  0  0  0  0  0  0  0  0
  -21.9820  -12.8530   22.0280 N   0  0  0  0  0  0  0  0  0  0  0  0
  -22.2860  -14.5710   20.6400 O   0  0  0  0  0  0  0  0  0  0  0  0
  -22.3430  -12.0220   22.4720 H   0  0  0  0  0  0  0  0  0  0  0  0
  -21.0450  -13.1580   22.2490 H   0  0  0  0  0  0  0  0  0  0  0  0
  -25.3520  -15.2080   20.3630 N   0  0  0  0  0  0  0  0  0  0  0  0
  -24.5840  -15.8640   20.4580 H   0  0  0  0  0  0  0  0  0  0  0  0
  -26.1980  -15.6390   20.0160 H   0  0  0  0  0  0  0  0  0  0  0  0
  -33.2820  -21.5060   21.1100 C   0  0  0  0  0  2  0  0  0  0  0  0
  -32.0490  -22.1830   21.6480 C   0  0  0  0  0  2  0  0  0  0  0  0
  -31.9600  -21.3590   20.3800 C   0  0  0  0  0  3  0  0  0  0  0  0
  -29.0640  -20.9800   20.9540 O   0  0  0  0  0  0  0  0  0  0  0  0
  -28.8820  -22.1750   20.0740 C   0  0  0  0  0  2  0  0  0  0  0  0
  -28.9730  -23.6980   20.6360 C   0  0  0  0  0  3  0  0  0  0  0  0
  -28.0770  -24.8690   19.9670 C   0  0  0  0  0  3  0  0  0  0  0  0
  -28.2780  -26.3390   20.2450 O   0  0  0  0  0  0  0  0  0  0  0  0
  -24.5940  -31.8380   23.2150 C   0  0  0  0  0  0  0  0  0  0  0  0
  -27.1860  -27.2390   20.1520 C   0  0  0  0  0  0  0  0  0  0  0  0
  -23.3880  -30.4480   21.5710 C   0  0  0  0  0  3  0  0  0  0  0  0
  -24.8380  -28.9030   20.1310 C   0  0  0  0  0  0  0  0  0  0  0  0
  -25.9320  -30.7500   21.3930 C   0  0  0  0  0  2  0  0  0  0  0  0
  -26.0090  -29.3710   20.7380 C   0  0  0  0  0  0  0  0  0  0  0  0
  -27.1830  -28.5500   20.7420 C   0  0  0  0  0  3  0  0  0  0  0  0
  -25.9950  -26.8520   19.4960 C   0  0  0  0  0  3  0  0  0  0  0  0
  -24.8360  -27.6520   19.4970 C   0  0  0  0  0  3  0  0  0  0  0  0
  -23.6030  -29.7790   20.1870 C   0  0  0  0  0  2  0  0  0  0  0  0
  -24.6580  -31.0300   22.1150 N   0  0  0  0  0  0  0  0  0  0  0  0
  -23.5110  -32.1180   23.7490 O   0  0  0  0  0  0  0  0  0  0  0  0
  -22.7200  -29.4310   22.5270 C   0  0  0  0  0  0  0  0  0  0  0  0
  -21.3910  -29.2660   22.4070 N   0  0  0  0  0  0  0  0  0  0  0  0
  -23.3980  -28.7890   23.3340 O   0  0  0  0  0  0  0  0  0  0  0  0
  -20.9060  -29.8290   21.7230 H   0  0  0  0  0  0  0  0  0  0  0  0
  -18.0040  -28.1060   22.9240 C   0  0  0  0  0  0  0  0  0  0  0  0
  -20.5670  -28.3320   23.1770 C   0  0  0  0  0  3  0  0  0  0  0  0
  -20.6500  -26.9070   22.5860 C   0  0  0  0  0  2  0  0  0  0  0  0
  -19.5370  -26.6060   21.5780 C   0  0  0  0  0  2  0  0  0  0  0  0
  -18.1600  -26.7620   22.2320 C   0  0  0  0  0  2  0  0  0  0  0  0
  -19.1350  -28.8510   23.3530 C   0  0  0  0  0  0  0  0  0  0  0  0
  -18.9350  -30.1100   23.9590 C   0  0  0  0  0  3  0  0  0  0  0  0
  -17.6370  -30.6250   24.1400 C   0  0  0  0  0  3  0  0  0  0  0  0
  -16.5210  -29.8750   23.7310 C   0  0  0  0  0  3  0  0  0  0  0  0
  -16.7060  -28.6180   23.1270 C   0  0  0  0  0  3  0  0  0  0  0  0
  -25.8780  -32.4650   23.8390 C   0  0  0  0  0  3  0  0  0  0  0  0
  -26.3930  -31.6870   25.1130 C   0  0  1  0  0  0  0  0  0  0  0  0
  -25.2970  -31.4510   26.1790 C   0  0  0  0  0  1  0  0  0  0  0  0
  -26.9700  -30.3090   24.7190 C   0  0  0  0  0  1  0  0  0  0  0  0
  -27.5500  -32.4730   25.7740 C   0  0  0  0  0  1  0  0  0  0  0  0
  -25.5720  -33.8620   24.1770 N   0  0  0  0  0  0  0  0  0  0  0  0
  -25.9060  -34.9190   23.4250 C   0  0  0  0  0  0  0  0  0  0  0  0
  -26.5720  -34.8200   22.3900 O   0  0  0  0  0  0  0  0  0  0  0  0
  -24.9760  -34.0140   24.9770 H   0  0  0  0  0  0  0  0  0  0  0  0
  -24.1820  -36.7200   23.0860 C   0  0  0  0  0  1  0  0  0  0  0  0
  -25.4240  -36.3060   23.8930 C   0  0  0  0  0  3  0  0  0  0  0  0
  -27.5610  -37.1790   24.7280 C   0  0  0  0  0  1  0  0  0  0  0  0
  -26.4590  -37.3570   23.7870 N   0  0  0  0  0  0  0  0  0  0  0  0
  -26.0560  -38.2770   23.9400 H   0  0  0  0  0  0  0  0  0  0  0  0
  1 15  1  0
  2  7  1  0
  3  4  1  0
  3  2  1  0
  5  4  1  0
  5 20  1  0
  5  6  1  0
  7  1  1  0
  7  6  1  0
  8  1  2  0
 10 14  2  0
 10 11  1  0
 11 47  1  0
 11 12  2  0
 12  9  1  0
 12 48  1  0
 13 15  1  0
 13  9  2  0
 14 13  1  0
 15 16  1  0
 17 18  2  0
 18 37  1  0
 19 18  1  0
 19 22  1  0
 20 17  1  0
 20 21  1  0
 21 19  2  0
 22 23  1  0
 23 24  2  0
 25 28  1  0
 25 24  1  0
 26 25  2  0
 27 26  1  0
 27 22  2  0
 28 29  1  0
 29 30  1  0
 30 31  2  0
 32 31  1  0
 32 36  1  0
 33 32  2  0
 34 29  2  0
 34 33  1  0
 35 34  1  0
 37 38  1  0
 38 41  1  0
 38 40  1  0
 39 37  2  0
 42 43  1  0
 42 17  1  0
 44 42  1  0
 45 46  1  0
 47 45  1  0
 47 46  1  0
 49 50  1  0
 49 48  1  0
 51 52  1  0
 51 50  2  0
 53 64  2  0
 54 52  1  0
 54 59  1  0
 55 63  1  0
 55 65  1  0
 56 62  1  0
 56 58  1  0
 57 63  1  0
 58 59  2  0
 58 57  1  0
 60 61  1  0
 60 54  2  0
 61 56  2  0
 62 55  1  0
 63 53  1  0
 65 67  2  0
 66 65  1  0
 68 66  1  0
 69 78  2  0
 69 74  1  0
 70 66  1  0
 70 74  1  0
 71 70  1  0
 72 73  1  0
 72 71  1  0
 73 69  1  0
 74 75  2  0
 75 76  1  0
 77 76  2  0
 78 77  1  0
 79 53  1  0
 79 84  1  0
 79 80  1  0
 80 83  1  1
 80 81  1  0
 82 80  1  0
 84 87  1  0
 85 89  1  0
 85 84  1  0
 86 85  2  0
 89 88  1  0
 91 89  1  0
 91 92  1  0
 91 90  1  0
M  ISO  4   1 100  15 100  51 101  52 101
M  END
>  <TORSDO>  (21) 
F 20

>  <SCORE>  (21) 
-13.490

>  <name>  (21) 
20

>  <ligand_id>  (21) 
20

>  <original_smiles>  (21) 
[H]c1nc(N([H])C(=O)N2C([H])([H])C([H])([H])C([H])([H])C([H])(n3nc(-c4c([H])c([H])c(Oc5c([H])c([H])c(F)c([H])c5F)c([H])c4[H])c(C(=O)N([H])[H])c3N([H])[H])C2([H])[H])c([H])c(OC([H])([H])C([H])([H])C([H])([H])Oc2c([H])c([H])c3c(c2[H])C([H])([H])N(C(=O)C([H])(N([H])C(=O)C([H])(N([H])C([H])([H])[H])C([H])([H])[H])C(C([H])([H])[H])(C([H])([H])[H])C([H])([H])[H])C([H])(C(=O)N([H])C2([H])c4c([H])c([H])c([H])c([H])c4C([H])([H])C([H])([H])C2([H])[H])C3([H])[H])c1C1([H])C([H])([H])C1([H])[H]

>  <smiles>  (21) 
[H]c1nc(N([H])C(=O)N2C([H])([H])C([H])([H])C([H])([H])C([H])(n3nc(-c4c([H])c([H])c(Oc5c([H])c([H])c(F)c([H])c5F)c([H])c4[H])c(C(=O)N([H])[H])c3N([H])[H])C2([H])[H])c([H])c(OC([H])([H])C([H])([H])C([H])([H])Oc2c([H])c([H])c3c(c2[H])C([H])([H])N(C(=O)C([H])(N([H])C(=O)C([H])(N([H])C([H])([H])[H])C([H])([H])[H])C(C([H])([H])[H])(C([H])([H])[H])C([H])([H])[H])C([H])(C(=O)N([H])C2([H])c4c([H])c([H])c([H])c([H])c4C([H])([H])C([H])([H])C2([H])[H])C3([H])[H])c1C1([H])C([H])([H])C1([H])[H]

$$$$
21:0:0
     RDKit          3D

 95104  0  0  1  0  0  0  0  0999 V2000
  -28.4130  -23.9310   21.7620 C   0  0  0  0  0  3  0  0  0  0  0  0
  -28.8410  -22.8590   22.5710 C   0  0  0  0  0  3  0  0  0  0  0  0
  -29.0150  -22.6450   19.7650 C   0  0  0  0  0  3  0  0  0  0  0  0
  -29.4580  -21.5400   20.5940 C   0  0  0  0  0  0  0  0  0  0  0  0
  -28.5150  -23.8860   20.3450 C   0  0  0  0  0  0  0  0  0  0  0  0
  -29.4080  -21.7240   21.9710 C   0  0  0  0  0  0  0  0  0  0  0  0
  -31.0720  -20.2770   21.7040 C   0  0  0  0  0  3  0  0  0  0  0  0
  -30.3280  -20.2450   20.3130 C   0  0  1  0  0  0  0  0  0  0  0  0
  -31.7050  -19.0140   22.3100 C   0  0  0  0  0  1  0  0  0  0  0  0
  -30.1260  -20.7880   22.6470 O   0  0  0  0  0  0  0  0  0  0  0  0
  -28.0690  -25.1620   19.5000 C   0  0  0  0  0  2  0  0  0  0  0  0
  -28.1220  -26.6000   19.9250 O   0  0  0  0  0  0  0  0  0  0  0  0
  -24.5620  -31.9670   23.1840 C   0  0  0  0  0  0  0  0  0  0  0  0
  -27.0050  -27.4630   19.8990 C   0  0  0  0  0  0  0  0  0  0  0  0
  -23.2790  -30.6130   21.5670 C   0  0  0  0  0  3  0  0  0  0  0  0
  -24.6540  -29.0960   20.0320 C   0  0  0  0  0  0  0  0  0  0  0  0
  -25.8090  -30.9210   21.2780 C   0  0  0  0  0  2  0  0  0  0  0  0
  -25.8510  -29.5590   20.5950 C   0  0  0  0  0  0  0  0  0  0  0  0
  -27.0260  -28.7520   20.5240 C   0  0  0  0  0  3  0  0  0  0  0  0
  -25.7900  -27.0700   19.2930 C   0  0  0  0  0  3  0  0  0  0  0  0
  -24.6280  -27.8580   19.3730 C   0  0  0  0  0  3  0  0  0  0  0  0
  -23.4270  -29.9750   20.1600 C   0  0  0  0  0  2  0  0  0  0  0  0
  -24.5710  -31.1850   22.0650 N   0  0  0  0  0  0  0  0  0  0  0  0
  -23.5050  -32.2360   23.7730 O   0  0  0  0  0  0  0  0  0  0  0  0
  -22.6590  -29.5740   22.5300 C   0  0  0  0  0  0  0  0  0  0  0  0
  -21.3440  -29.3310   22.3930 N   0  0  0  0  0  0  0  0  0  0  0  0
  -23.3590  -28.9900   23.3620 O   0  0  0  0  0  0  0  0  0  0  0  0
  -20.8330  -29.8550   21.6950 H   0  0  0  0  0  0  0  0  0  0  0  0
  -18.0470  -27.9000   22.8020 C   0  0  0  0  0  0  0  0  0  0  0  0
  -20.5640  -28.3650   23.1700 C   0  0  0  0  0  3  0  0  0  0  0  0
  -20.7990  -26.9250   22.6590 C   0  0  0  0  0  2  0  0  0  0  0  0
  -19.7710  -26.4790   21.6140 C   0  0  0  0  0  2  0  0  0  0  0  0
  -18.3550  -26.5430   22.1910 C   0  0  0  0  0  2  0  0  0  0  0  0
  -19.0850  -28.7610   23.2470 C   0  0  0  0  0  0  0  0  0  0  0  0
  -18.7440  -30.0260   23.7750 C   0  0  0  0  0  3  0  0  0  0  0  0
  -17.4000  -30.4310   23.8650 C   0  0  0  0  0  3  0  0  0  0  0  0
  -16.3760  -29.5680   23.4350 C   0  0  0  0  0  3  0  0  0  0  0  0
  -16.7000  -28.3050   22.9080 C   0  0  0  0  0  3  0  0  0  0  0  0
  -25.8740  -32.5810   23.7600 C   0  0  0  0  0  3  0  0  0  0  0  0
  -25.5870  -33.9750   24.1300 N   0  0  0  0  0  0  0  0  0  0  0  0
  -25.8990  -35.0410   23.3830 C   0  0  0  0  0  0  0  0  0  0  0  0
  -26.5300  -34.9550   22.3270 O   0  0  0  0  0  0  0  0  0  0  0  0
  -25.0210  -34.1150   24.9540 H   0  0  0  0  0  0  0  0  0  0  0  0
  -24.1770  -36.8570   23.1250 C   0  0  0  0  0  1  0  0  0  0  0  0
  -25.4390  -36.4230   23.8890 C   0  0  0  0  0  3  0  0  0  0  0  0
  -27.6030  -37.2730   24.6790 C   0  0  0  0  0  1  0  0  0  0  0  0
  -26.4770  -37.4700   23.7700 N   0  0  0  0  0  0  0  0  0  0  0  0
  -26.0820  -38.3910   23.9470 H   0  0  0  0  0  0  0  0  0  0  0  0
  -26.4400  -31.7840   24.9990 C   0  0  1  0  0  0  0  0  0  0  0  0
  -25.3880  -31.5180   26.1010 C   0  0  0  0  0  1  0  0  0  0  0  0
  -27.0150  -30.4180   24.5570 C   0  0  0  0  0  1  0  0  0  0  0  0
  -27.6090  -32.5700   25.6380 C   0  0  0  0  0  1  0  0  0  0  0  0
  -29.6310  -18.7830   20.1510 C   0  0  0  0  0  2  0  0  0  0  0  0
  -30.5810  -17.4840   19.9290 C   0  0  0  0  0  2  0  0  0  0  0  0
  -30.8700  -14.9240   20.0640 C   0  0  0  0  0  0  0  0  0  0  0  0
  -30.6580  -12.6140   19.1690 C   0  0  0  0  0  2  0  0  0  0  0  0
  -29.7000  -12.6400   17.9590 C   0  0  0  0  0  2  0  0  0  0  0  0
  -28.2370  -12.4840   18.4200 C   0  0  0  0  0  2  0  0  0  0  0  0
  -27.8790  -13.4150   19.6100 C   0  0  0  0  0  3  0  0  0  0  0  0
  -28.9590  -13.3800   20.7130 C   0  0  0  0  0  2  0  0  0  0  0  0
  -30.2410  -13.7030   20.0790 N   0  0  0  0  0  0  0  0  0  0  0  0
  -32.0460  -15.0130   19.7060 O   0  0  0  0  0  0  0  0  0  0  0  0
  -30.1110  -16.0670   20.2200 N   0  0  0  0  0  0  0  0  0  0  0  0
  -29.1400  -15.9380   20.4620 H   0  0  0  0  0  0  0  0  0  0  0  0
  -25.5230  -14.0160   20.4300 C   0  0  0  0  0  0  0  0  0  0  0  0
  -24.4630  -13.2470   20.8220 C   0  0  0  0  0  0  0  0  0  0  0  0
  -24.9090  -11.8910   20.7480 C   0  0  0  0  0  0  0  0  0  0  0  0
  -26.5480  -13.1310   20.1400 N   0  0  0  0  0  0  0  0  0  0  0  0
  -26.1880  -11.8460   20.3930 N   0  0  0  0  0  0  0  0  0  0  0  0
  -24.1750  -10.6340   20.9380 C   0  0  0  0  0  0  0  0  0  0  0  0
  -24.5770   -9.6800   21.8980 C   0  0  0  0  0  3  0  0  0  0  0  0
  -23.8430   -8.4870   22.0740 C   0  0  0  0  0  3  0  0  0  0  0  0
  -22.6920   -8.2390   21.2910 C   0  0  0  0  0  0  0  0  0  0  0  0
  -22.3090   -9.1810   20.3200 C   0  0  0  0  0  3  0  0  0  0  0  0
  -23.0430  -10.3660   20.1410 C   0  0  0  0  0  3  0  0  0  0  0  0
  -21.9330   -7.0970   21.3750 O   0  0  0  0  0  0  0  0  0  0  0  0
  -21.7820   -6.4190   22.5580 C   0  0  0  0  0  0  0  0  0  0  0  0
  -21.2160   -7.0280   23.6990 C   0  0  0  0  0  3  0  0  0  0  0  0
  -21.0140   -6.2750   24.8720 C   0  0  0  0  0  3  0  0  0  0  0  0
  -21.3700   -4.9130   24.9050 C   0  0  0  0  0  0  0  0  0  0  0  0
  -21.9280   -4.3030   23.7680 C   0  0  0  0  0  3  0  0  0  0  0  0
  -22.1310   -5.0550   22.5970 C   0  0  0  0  0  0  0  0  0  0  0  0
  -22.6500   -4.4580   21.4970 F   0  0  0  0  0  0  0  0  0  0  0  0
  -21.1700   -4.1870   26.0290 F   0  0  0  0  0  0  0  0  0  0  0  0
  -23.0810  -13.7330   21.1500 C   0  0  0  0  0  0  0  0  0  0  0  0
  -22.3800  -13.0360   22.0370 N   0  0  0  0  0  0  0  0  0  0  0  0
  -22.6330  -14.7670   20.6550 O   0  0  0  0  0  0  0  0  0  0  0  0
  -22.7580  -12.2010   22.4610 H   0  0  0  0  0  0  0  0  0  0  0  0
  -21.4520  -13.3410   22.2960 H   0  0  0  0  0  0  0  0  0  0  0  0
  -25.6950  -15.3890   20.2730 N   0  0  0  0  0  0  0  0  0  0  0  0
  -24.9340  -16.0440   20.4200 H   0  0  0  0  0  0  0  0  0  0  0  0
  -26.5250  -15.8260   19.8940 H   0  0  0  0  0  0  0  0  0  0  0  0
  -31.3160  -20.5130   19.1500 C   0  0  0  0  0  2  0  0  0  0  0  0
  -30.6820  -20.4350   17.8810 O   0  0  0  0  0  0  0  0  0  0  0  0
  -31.3330  -20.6430   17.2180 H   0  0  0  0  0  0  0  0  0  0  0  0
  1  2  1  0
  3  5  1  0
  3  4  2  0
  4  6  1  0
  5  1  2  0
  6  2  2  0
  6 10  1  0
  7  9  1  0
  7 10  1  0
  8 93  1  6
  8  4  1  0
  8  7  1  0
 11 12  1  0
 11  5  1  0
 13 24  2  0
 14 12  1  0
 14 19  1  0
 15 23  1  0
 15 25  1  0
 16 22  1  0
 16 18  1  0
 17 23  1  0
 18 17  1  0
 19 18  2  0
 20 21  1  0
 20 14  2  0
 21 16  2  0
 22 15  1  0
 23 13  1  0
 25 27  2  0
 26 25  1  0
 28 26  1  0
 29 38  2  0
 29 34  1  0
 30 26  1  0
 30 34  1  0
 31 30  1  0
 32 33  1  0
 32 31  1  0
 33 29  1  0
 34 35  2  0
 35 36  1  0
 37 36  2  0
 38 37  1  0
 39 13  1  0
 39 40  1  0
 39 49  1  0
 40 43  1  0
 41 45  1  0
 41 40  1  0
 42 41  2  0
 45 44  1  0
 47 45  1  0
 47 48  1  0
 47 46  1  0
 49 52  1  1
 49 50  1  0
 51 49  1  0
 53  8  1  0
 54 53  1  0
 54 63  1  0
 55 61  1  0
 55 63  1  0
 56 61  1  0
 57 58  1  0
 57 56  1  0
 59 58  1  0
 59 68  1  0
 59 60  1  0
 61 60  1  0
 62 55  2  0
 63 64  1  0
 65 66  2  0
 66 85  1  0
 67 66  1  0
 67 70  1  0
 68 69  1  0
 68 65  1  0
 69 67  2  0
 70 71  1  0
 71 72  2  0
 73 76  1  0
 73 72  1  0
 74 73  2  0
 75 74  1  0
 75 70  2  0
 76 77  1  0
 77 82  2  0
 77 78  1  0
 78 79  2  0
 79 80  1  0
 80 84  1  0
 81 80  2  0
 82 81  1  0
 83 82  1  0
 85 86  1  0
 86 89  1  0
 86 88  1  0
 87 85  2  0
 90 91  1  0
 90 65  1  0
 92 90  1  0
 94 93  1  0
 95 94  1  0
M  ISO  4  11 101  12 101  55 100  63 100
M  END
>  <TORSDO>  (22) 
F 21

>  <SCORE>  (22) 
-13.445

>  <name>  (22) 
21

>  <ligand_id>  (22) 
21

>  <original_smiles>  (22) 
[H]OC([H])([H])C1(C([H])([H])C([H])([H])N([H])C(=O)N2C([H])([H])C([H])([H])C([H])([H])C([H])(n3nc(-c4c([H])c([H])c(Oc5c([H])c([H])c(F)c([H])c5F)c([H])c4[H])c(C(=O)N([H])[H])c3N([H])[H])C2([H])[H])c2c([H])c(C([H])([H])Oc3c([H])c([H])c4c(c3[H])C([H])([H])N(C(=O)C([H])(N([H])C(=O)C([H])(N([H])C([H])([H])[H])C([H])([H])[H])C(C([H])([H])[H])(C([H])([H])[H])C([H])([H])[H])C([H])(C(=O)N([H])C3([H])c5c([H])c([H])c([H])c([H])c5C([H])([H])C([H])([H])C3([H])[H])C4([H])[H])c([H])c([H])c2OC1([H])C([H])([H])[H]

>  <smiles>  (22) 
[H]OC([H])([H])C1(C([H])([H])C([H])([H])N([H])C(=O)N2C([H])([H])C([H])([H])C([H])([H])C([H])(n3nc(-c4c([H])c([H])c(Oc5c([H])c([H])c(F)c([H])c5F)c([H])c4[H])c(C(=O)N([H])[H])c3N([H])[H])C2([H])[H])c2c([H])c(C([H])([H])Oc3c([H])c([H])c4c(c3[H])C([H])([H])N(C(=O)C([H])(N([H])C(=O)C([H])(N([H])C([H])([H])[H])C([H])([H])[H])C(C([H])([H])[H])(C([H])([H])[H])C([H])([H])[H])C([H])(C(=O)N([H])C3([H])c5c([H])c([H])c([H])c([H])c5C([H])([H])C([H])([H])C3([H])[H])C4([H])[H])c([H])c([H])c2OC1([H])C([H])([H])[H]

$$$$
22:0:0
     RDKit          3D

 99108  0  0  1  0  0  0  0  0999 V2000
  -27.1080  -21.8480   20.6360 C   0  0  0  0  0  3  0  0  0  0  0  0
  -28.5620  -22.0020   18.6840 C   0  0  0  0  0  3  0  0  0  0  0  0
  -26.8100  -23.2230   20.5540 C   0  0  0  0  0  0  0  0  0  0  0  0
  -27.3600  -23.9810   19.4840 C   0  0  0  0  0  0  0  0  0  0  0  0
  -27.9950  -21.2360   19.7340 C   0  0  0  0  0  0  0  0  0  0  0  0
  -28.2400  -23.3800   18.5470 C   0  0  0  0  0  0  0  0  0  0  0  0
  -27.0500  -25.4670   19.3650 C   0  0  0  0  0  2  0  0  0  0  0  0
  -25.8850  -25.9130   20.2600 C   0  0  0  0  0  2  0  0  0  0  0  0
  -25.8850  -23.8650   21.6070 C   0  0  0  0  0  3  0  0  0  0  0  0
  -26.0870  -23.3190   23.0390 C   0  0  0  0  0  1  0  0  0  0  0  0
  -26.0220  -25.3350   21.6090 N   0  0  0  0  0  4  0  0  0  0  0  0
  -25.3150  -25.7280   22.2100 H   0  0  0  0  0  0  0  0  0  0  0  0
  -26.9230  -25.5790   21.9850 H   0  0  0  0  0  0  0  0  0  0  0  0
  -28.2110  -19.8920   19.9330 O   0  0  0  0  0  0  0  0  0  0  0  0
  -29.3200  -19.2850   19.2800 C   0  0  0  0  0  2  0  0  0  0  0  0
  -29.0870  -17.7590   19.3460 C   0  0  0  0  0  2  0  0  0  0  0  0
  -29.4860  -17.1410   20.7090 C   0  0  0  0  0  2  0  0  0  0  0  0
  -30.2000  -14.7940   20.0910 C   0  0  0  0  0  0  0  0  0  0  0  0
  -29.9520  -12.6790   18.8560 C   0  0  0  0  0  2  0  0  0  0  0  0
  -28.8950  -12.8950   17.7510 C   0  0  0  0  0  2  0  0  0  0  0  0
  -27.4620  -12.6850   18.2860 C   0  0  0  0  0  2  0  0  0  0  0  0
  -27.2010  -13.4460   19.6130 C   0  0  0  0  0  3  0  0  0  0  0  0
  -28.3490  -13.1730   20.6100 C   0  0  0  0  0  2  0  0  0  0  0  0
  -29.6150  -13.5750   19.9680 N   0  0  0  0  0  0  0  0  0  0  0  0
  -31.2460  -15.1170   19.5240 O   0  0  0  0  0  0  0  0  0  0  0  0
  -29.4260  -15.6790   20.7330 N   0  0  0  0  0  0  0  0  0  0  0  0
  -28.6110  -15.2710   21.1730 H   0  0  0  0  0  0  0  0  0  0  0  0
  -24.8660  -13.9520   20.5850 C   0  0  0  0  0  0  0  0  0  0  0  0
  -23.8380  -13.1330   20.9630 C   0  0  0  0  0  0  0  0  0  0  0  0
  -24.3000  -11.7970   20.7530 C   0  0  0  0  0  0  0  0  0  0  0  0
  -25.8940  -13.1140   20.1760 N   0  0  0  0  0  0  0  0  0  0  0  0
  -25.5570  -11.8080   20.3290 N   0  0  0  0  0  0  0  0  0  0  0  0
  -23.6040  -10.5110   20.8730 C   0  0  0  0  0  0  0  0  0  0  0  0
  -24.1190   -9.4600   21.6640 C   0  0  0  0  0  3  0  0  0  0  0  0
  -23.4220   -8.2380   21.7760 C   0  0  0  0  0  3  0  0  0  0  0  0
  -22.1940   -8.0580   21.0960 C   0  0  0  0  0  0  0  0  0  0  0  0
  -21.6970   -9.0990   20.2910 C   0  0  0  0  0  3  0  0  0  0  0  0
  -22.3960  -10.3110   20.1760 C   0  0  0  0  0  3  0  0  0  0  0  0
  -21.4580   -6.8960   21.1250 O   0  0  0  0  0  0  0  0  0  0  0  0
  -21.5250   -6.0320   22.1880 C   0  0  0  0  0  0  0  0  0  0  0  0
  -21.1630   -6.4250   23.4950 C   0  0  0  0  0  3  0  0  0  0  0  0
  -21.1820   -5.4850   24.5440 C   0  0  0  0  0  3  0  0  0  0  0  0
  -21.5540   -4.1510   24.2890 C   0  0  0  0  0  0  0  0  0  0  0  0
  -21.9100   -3.7560   22.9900 C   0  0  0  0  0  3  0  0  0  0  0  0
  -21.8930   -4.6930   21.9410 C   0  0  0  0  0  0  0  0  0  0  0  0
  -22.2180   -4.3010   20.6850 F   0  0  0  0  0  0  0  0  0  0  0  0
  -21.5670   -3.2470   25.2960 F   0  0  0  0  0  0  0  0  0  0  0  0
  -22.4670  -13.5570   21.4100 C   0  0  0  0  0  0  0  0  0  0  0  0
  -21.8280  -12.7680   22.2670 N   0  0  0  0  0  0  0  0  0  0  0  0
  -21.9720  -14.6190   21.0330 O   0  0  0  0  0  0  0  0  0  0  0  0
  -22.2400  -11.9050   22.5910 H   0  0  0  0  0  0  0  0  0  0  0  0
  -20.9140  -13.0290   22.6090 H   0  0  0  0  0  0  0  0  0  0  0  0
  -25.0120  -15.3360   20.5400 N   0  0  0  0  0  0  0  0  0  0  0  0
  -24.2590  -15.9660   20.7880 H   0  0  0  0  0  0  0  0  0  0  0  0
  -25.8420  -15.8190   20.2200 H   0  0  0  0  0  0  0  0  0  0  0  0
  -28.7010  -24.1530   17.4920 O   0  0  0  0  0  0  0  0  0  0  0  0
  -30.1070  -24.4170   17.4410 C   0  0  0  0  0  2  0  0  0  0  0  0
  -30.4560  -25.7860   16.7980 C   0  0  0  0  0  2  0  0  0  0  0  0
  -30.0870  -26.9300   17.5850 O   0  0  0  0  0  0  0  0  0  0  0  0
  -24.7560  -29.8590   21.2860 C   0  0  0  0  0  0  0  0  0  0  0  0
  -28.8050  -27.4430   17.5300 C   0  0  0  0  0  0  0  0  0  0  0  0
  -24.2170  -29.2070   18.9620 C   0  0  0  0  0  3  0  0  0  0  0  0
  -26.2070  -28.5730   17.4970 C   0  0  0  0  0  0  0  0  0  0  0  0
  -26.6090  -29.8370   19.6170 C   0  0  0  0  0  2  0  0  0  0  0  0
  -27.0920  -28.8900   18.5340 C   0  0  0  0  0  0  0  0  0  0  0  0
  -28.3910  -28.3320   18.5510 C   0  0  0  0  0  3  0  0  0  0  0  0
  -27.8880  -27.1200   16.5030 C   0  0  0  0  0  3  0  0  0  0  0  0
  -26.5990  -27.6840   16.4830 C   0  0  0  0  0  3  0  0  0  0  0  0
  -24.8390  -29.2170   17.5390 C   0  0  0  0  0  2  0  0  0  0  0  0
  -25.1960  -29.6250   20.0170 N   0  0  0  0  0  0  0  0  0  0  0  0
  -23.5540  -29.7700   21.5740 O   0  0  0  0  0  0  0  0  0  0  0  0
  -23.5960  -27.8140   19.2210 C   0  0  0  0  0  0  0  0  0  0  0  0
  -22.4460  -27.5430   18.5830 N   0  0  0  0  0  0  0  0  0  0  0  0
  -24.1620  -27.0010   19.9560 O   0  0  0  0  0  0  0  0  0  0  0  0
  -22.0430  -28.2700   18.0070 H   0  0  0  0  0  0  0  0  0  0  0  0
  -19.4710  -25.8530   17.4180 C   0  0  0  0  0  0  0  0  0  0  0  0
  -21.7020  -26.2850   18.6510 C   0  0  0  0  0  3  0  0  0  0  0  0
  -22.3120  -25.2280   17.7020 C   0  0  0  0  0  2  0  0  0  0  0  0
  -21.6560  -25.2080   16.3170 C   0  0  0  0  0  2  0  0  0  0  0  0
  -20.1570  -24.9180   16.4370 C   0  0  0  0  0  2  0  0  0  0  0  0
  -20.1990  -26.5060   18.4480 C   0  0  0  0  0  0  0  0  0  0  0  0
  -19.5190  -27.3900   19.3130 C   0  0  0  0  0  3  0  0  0  0  0  0
  -18.1400  -27.6290   19.1600 C   0  0  0  0  0  3  0  0  0  0  0  0
  -17.4220  -26.9690   18.1480 C   0  0  0  0  0  3  0  0  0  0  0  0
  -18.0860  -26.0780   17.2860 C   0  0  0  0  0  3  0  0  0  0  0  0
  -25.7360  -30.2740   22.4270 C   0  0  0  0  0  3  0  0  0  0  0  0
  -25.1820  -31.4700   23.0740 N   0  0  0  0  0  0  0  0  0  0  0  0
  -25.6340  -32.7150   22.8790 C   0  0  0  0  0  0  0  0  0  0  0  0
  -26.6190  -32.9690   22.1800 O   0  0  0  0  0  0  0  0  0  0  0  0
  -24.3410  -31.3430   23.6180 H   0  0  0  0  0  0  0  0  0  0  0  0
  -23.9850  -34.5820   22.5360 C   0  0  0  0  0  1  0  0  0  0  0  0
  -24.8720  -33.8640   23.5670 C   0  0  0  0  0  3  0  0  0  0  0  0
  -26.4330  -34.3060   25.4090 C   0  0  0  0  0  1  0  0  0  0  0  0
  -25.7580  -34.8440   24.2320 N   0  0  0  0  0  0  0  0  0  0  0  0
  -25.2350  -35.6680   24.5150 H   0  0  0  0  0  0  0  0  0  0  0  0
  -25.9760  -29.1290   23.4870 C   0  0  1  0  0  0  0  0  0  0  0  0
  -24.6680  -28.5350   24.0620 C   0  0  0  0  0  1  0  0  0  0  0  0
  -26.7930  -27.9710   22.8660 C   0  0  0  0  0  1  0  0  0  0  0  0
  -26.8100  -29.6740   24.6690 C   0  0  0  0  0  1  0  0  0  0  0  0
  2  5  1  0
  3  1  1  0
  3  9  1  0
  4  3  2  0
  5 14  1  0
  5  1  2  0
  6  2  2  0
  6  4  1  0
  7  4  1  0
  7  8  1  0
  8 11  1  0
  9 11  1  0
  9 10  1  0
 11 13  1  0
 11 12  1  0
 15 16  1  0
 15 14  1  0
 16 17  1  0
 17 26  1  0
 18 26  1  0
 19 24  1  0
 20 21  1  0
 20 19  1  0
 22 21  1  0
 22 31  1  0
 22 23  1  0
 24 18  1  0
 24 23  1  0
 25 18  2  0
 26 27  1  0
 28 29  2  0
 29 48  1  0
 30 33  1  0
 30 29  1  0
 31 32  1  0
 31 28  1  0
 32 30  2  0
 33 34  1  0
 34 35  2  0
 36 39  1  0
 36 35  1  0
 37 36  2  0
 38 37  1  0
 38 33  2  0
 39 40  1  0
 40 41  1  0
 41 42  2  0
 43 42  1  0
 43 47  1  0
 44 43  2  0
 45 40  2  0
 45 44  1  0
 46 45  1  0
 48 49  1  0
 49 51  1  0
 49 52  1  0
 50 48  2  0
 53 28  1  0
 53 54  1  0
 55 53  1  0
 56  6  1  0
 57 56  1  0
 58 57  1  0
 58 59  1  0
 60 71  2  0
 61 59  1  0
 61 66  1  0
 62 72  1  0
 62 70  1  0
 63 69  1  0
 63 65  1  0
 64 70  1  0
 65 66  2  0
 65 64  1  0
 67 61  2  0
 68 67  1  0
 68 63  2  0
 69 62  1  0
 70 60  1  0
 72 74  2  0
 73 72  1  0
 75 73  1  0
 76 81  1  0
 77 73  1  0
 78 77  1  0
 79 80  1  0
 79 78  1  0
 80 76  1  0
 81 77  1  0
 81 82  2  0
 83 82  1  0
 84 83  2  0
 85 76  2  0
 85 84  1  0
 86 60  1  0
 86 87  1  0
 86 96  1  0
 87 90  1  0
 88 87  1  0
 88 92  1  0
 89 88  2  0
 92 91  1  0
 92 94  1  0
 94 95  1  0
 94 93  1  0
 96 97  1  1
 96 99  1  0
 98 96  1  0
M  ISO  4  18 100  26 100  58 101  59 101
M  END
>  <TORSDO>  (23) 
F 23

>  <SCORE>  (23) 
-3.817

>  <name>  (23) 
22

>  <ligand_id>  (23) 
22

>  <original_smiles>  (23) 
[H]c1c([H])c([H])c2c(c1[H])C([H])([H])C([H])([H])C([H])([H])C2([H])N([H])C(=O)C1([H])N(C(=O)C([H])(N([H])C(=O)C([H])(N([H])C([H])([H])[H])C([H])([H])[H])C(C([H])([H])[H])(C([H])([H])[H])C([H])([H])[H])C([H])([H])c2c([H])c(OC([H])([H])C([H])([H])Oc3c([H])c(OC([H])([H])C([H])([H])C([H])([H])N([H])C(=O)N4C([H])([H])C([H])([H])C([H])([H])C([H])(n5nc(-c6c([H])c([H])c(Oc7c([H])c([H])c(F)c([H])c7F)c([H])c6[H])c(C(=O)N([H])[H])c5N([H])[H])C4([H])[H])c([H])c4c3C([H])([H])C([H])([H])[N+]([H])([H])C4([H])C([H])([H])[H])c([H])c([H])c2C1([H])[H]

>  <smiles>  (23) 
[H]c1c([H])c([H])c2c(c1[H])C([H])([H])C([H])([H])C([H])([H])C2([H])N([H])C(=O)C1([H])N(C(=O)C([H])(N([H])C(=O)C([H])(N([H])C([H])([H])[H])C([H])([H])[H])C(C([H])([H])[H])(C([H])([H])[H])C([H])([H])[H])C([H])([H])c2c([H])c(OC([H])([H])C([H])([H])Oc3c([H])c(OC([H])([H])C([H])([H])C([H])([H])N([H])C(=O)N4C([H])([H])C([H])([H])C([H])([H])C([H])(n5nc(-c6c([H])c([H])c(Oc7c([H])c([H])c(F)c([H])c7F)c([H])c6[H])c(C(=O)N([H])[H])c5N([H])[H])C4([H])[H])c([H])c4c3C([H])([H])C([H])([H])[N+]([H])([H])C4([H])C([H])([H])[H])c([H])c([H])c2C1([H])[H]

$$$$
23:0:0
     RDKit          3D

 94104  0  0  1  0  0  0  0  0999 V2000
  -30.5030  -19.6660   21.3380 C   0  0  0  0  0  3  0  0  0  0  0  0
  -30.7540  -18.2450   21.2690 C   0  0  0  0  0  3  0  0  0  0  0  0
  -28.4800  -19.3860   20.1310 C   0  0  0  0  0  3  0  0  0  0  0  0
  -29.3640  -20.3040   20.7530 C   0  0  0  0  0  0  0  0  0  0  0  0
  -28.7080  -17.9730   20.0630 C   0  0  0  0  0  0  0  0  0  0  0  0
  -29.8840  -17.3300   20.6020 C   0  0  0  0  0  0  0  0  0  0  0  0
  -27.6220  -17.2010   19.3320 C   0  0  0  0  0  1  0  0  0  0  0  0
  -30.8060  -14.8770   21.0500 C   0  0  0  0  0  0  0  0  0  0  0  0
  -30.7500  -12.4900   20.3020 C   0  0  0  0  0  2  0  0  0  0  0  0
  -29.9690  -12.3290   18.9780 C   0  0  0  0  0  2  0  0  0  0  0  0
  -28.4480  -12.2460   19.2250 C   0  0  0  0  0  2  0  0  0  0  0  0
  -27.9180  -13.2520   20.2840 C   0  0  0  0  0  3  0  0  0  0  0  0
  -28.8370  -13.3340   21.5190 C   0  0  0  0  0  2  0  0  0  0  0  0
  -30.1800  -13.6470   21.0210 N   0  0  0  0  0  0  0  0  0  0  0  0
  -32.0270  -14.9130   21.2210 O   0  0  0  0  0  0  0  0  0  0  0  0
  -30.2310  -15.9010   20.2760 N   0  0  0  0  0  0  0  0  0  0  0  0
  -25.4720  -13.8890   20.7320 C   0  0  0  0  0  0  0  0  0  0  0  0
  -24.3580  -13.1350   20.9730 C   0  0  0  0  0  0  0  0  0  0  0  0
  -24.8060  -11.7800   21.0300 C   0  0  0  0  0  0  0  0  0  0  0  0
  -26.5250  -12.9950   20.6370 N   0  0  0  0  0  0  0  0  0  0  0  0
  -26.1250  -11.7230   20.8890 N   0  0  0  0  0  0  0  0  0  0  0  0
  -24.0490  -10.5290   21.1540 C   0  0  0  0  0  0  0  0  0  0  0  0
  -24.3830   -9.5570   22.1210 C   0  0  0  0  0  3  0  0  0  0  0  0
  -23.6260   -8.3710   22.2340 C   0  0  0  0  0  3  0  0  0  0  0  0
  -22.5220   -8.1510   21.3760 C   0  0  0  0  0  0  0  0  0  0  0  0
  -22.2090   -9.1110   20.4000 C   0  0  0  0  0  3  0  0  0  0  0  0
  -22.9660  -10.2880   20.2850 C   0  0  0  0  0  3  0  0  0  0  0  0
  -21.7460   -7.0160   21.3970 O   0  0  0  0  0  0  0  0  0  0  0  0
  -21.6100   -6.2580   22.5310 C   0  0  0  0  0  0  0  0  0  0  0  0
  -21.1090   -6.8000   23.7350 C   0  0  0  0  0  3  0  0  0  0  0  0
  -20.9200   -5.9690   24.8570 C   0  0  0  0  0  3  0  0  0  0  0  0
  -21.2240   -4.5960   24.7760 C   0  0  0  0  0  0  0  0  0  0  0  0
  -21.7180   -4.0540   23.5760 C   0  0  0  0  0  3  0  0  0  0  0  0
  -21.9080   -4.8830   22.4560 C   0  0  0  0  0  0  0  0  0  0  0  0
  -22.3650   -4.3510   21.2970 F   0  0  0  0  0  0  0  0  0  0  0  0
  -21.0350   -3.7950   25.8500 F   0  0  0  0  0  0  0  0  0  0  0  0
  -22.9440  -13.6310   21.0560 C   0  0  0  0  0  0  0  0  0  0  0  0
  -22.1110  -12.9770   21.8570 N   0  0  0  0  0  0  0  0  0  0  0  0
  -22.5830  -14.6360   20.4440 O   0  0  0  0  0  0  0  0  0  0  0  0
  -22.4140  -12.1650   22.3750 H   0  0  0  0  0  0  0  0  0  0  0  0
  -21.1570  -13.2930   21.9550 H   0  0  0  0  0  0  0  0  0  0  0  0
  -25.6660  -15.2550   20.5660 N   0  0  0  0  0  0  0  0  0  0  0  0
  -24.9000  -15.9180   20.6090 H   0  0  0  0  0  0  0  0  0  0  0  0
  -26.5690  -15.6950   20.4580 H   0  0  0  0  0  0  0  0  0  0  0  0
  -31.0580  -16.7260   17.9570 C   0  0  0  0  0  2  0  0  0  0  0  0
  -31.7020  -15.3870   18.1900 C   0  0  0  0  0  2  0  0  0  0  0  0
  -30.3620  -15.6970   18.8420 C   0  0  0  0  0  3  0  0  0  0  0  0
  -27.6080  -22.4200   20.6580 C   0  0  0  0  0  2  0  0  0  0  0  0
  -29.9780  -22.8480   20.0080 C   0  0  0  0  0  2  0  0  0  0  0  0
  -27.3840  -23.8420   19.9760 C   0  0  0  0  0  2  0  0  0  0  0  0
  -29.7910  -24.4040   20.2940 C   0  0  0  0  0  2  0  0  0  0  0  0
  -29.0830  -21.8890   20.8480 C   0  0  0  0  0  3  0  0  0  0  0  0
  -28.3360  -24.9980   20.4210 C   0  0  0  0  0  3  0  0  0  0  0  0
  -28.2570  -26.3860   19.8340 O   0  0  0  0  0  0  0  0  0  0  0  0
  -24.5490  -31.7440   23.0670 C   0  0  0  0  0  0  0  0  0  0  0  0
  -27.1160  -27.2140   19.9000 C   0  0  0  0  0  0  0  0  0  0  0  0
  -23.3230  -30.3760   21.4190 C   0  0  0  0  0  3  0  0  0  0  0  0
  -24.7530  -28.8460   19.9450 C   0  0  0  0  0  0  0  0  0  0  0  0
  -25.8600  -30.6920   21.2060 C   0  0  0  0  0  2  0  0  0  0  0  0
  -25.9310  -29.3200   20.5380 C   0  0  0  0  0  0  0  0  0  0  0  0
  -27.1140  -28.5170   20.5020 C   0  0  0  0  0  3  0  0  0  0  0  0
  -25.9220  -26.8130   19.2680 C   0  0  0  0  0  3  0  0  0  0  0  0
  -24.7530  -27.6000   19.3000 C   0  0  0  0  0  3  0  0  0  0  0  0
  -23.5170  -29.7230   20.0240 C   0  0  0  0  0  2  0  0  0  0  0  0
  -24.5970  -30.9550   21.9540 N   0  0  0  0  0  0  0  0  0  0  0  0
  -23.4740  -32.0090   23.6240 O   0  0  0  0  0  0  0  0  0  0  0  0
  -22.6740  -29.3410   22.3700 C   0  0  0  0  0  0  0  0  0  0  0  0
  -21.3440  -29.1720   22.2670 N   0  0  0  0  0  0  0  0  0  0  0  0
  -23.3650  -28.6950   23.1610 O   0  0  0  0  0  0  0  0  0  0  0  0
  -20.8440  -29.7460   21.6010 H   0  0  0  0  0  0  0  0  0  0  0  0
  -17.9720  -27.9830   22.8180 C   0  0  0  0  0  0  0  0  0  0  0  0
  -20.5380  -28.2190   23.0320 C   0  0  0  0  0  3  0  0  0  0  0  0
  -20.6160  -26.8030   22.4160 C   0  0  0  0  0  2  0  0  0  0  0  0
  -19.4880  -26.5140   21.4200 C   0  0  0  0  0  2  0  0  0  0  0  0
  -18.1230  -26.6500   22.1010 C   0  0  0  0  0  2  0  0  0  0  0  0
  -19.1060  -28.7260   23.2390 C   0  0  0  0  0  0  0  0  0  0  0  0
  -18.9090  -29.9740   23.8700 C   0  0  0  0  0  3  0  0  0  0  0  0
  -17.6120  -30.4780   24.0820 C   0  0  0  0  0  3  0  0  0  0  0  0
  -16.4930  -29.7300   23.6750 C   0  0  0  0  0  3  0  0  0  0  0  0
  -16.6740  -28.4840   23.0480 C   0  0  0  0  0  3  0  0  0  0  0  0
  -25.8410  -32.3660   23.6830 C   0  0  0  0  0  3  0  0  0  0  0  0
  -25.5300  -33.7530   24.0590 N   0  0  0  0  0  0  0  0  0  0  0  0
  -25.8670  -34.8310   23.3400 C   0  0  0  0  0  0  0  0  0  0  0  0
  -26.5410  -34.7630   22.3080 O   0  0  0  0  0  0  0  0  0  0  0  0
  -24.9320  -33.8800   24.8620 H   0  0  0  0  0  0  0  0  0  0  0  0
  -24.1550  -36.6480   23.0310 C   0  0  0  0  0  1  0  0  0  0  0  0
  -25.3810  -36.2040   23.8450 C   0  0  0  0  0  3  0  0  0  0  0  0
  -27.5050  -37.0450   24.7450 C   0  0  0  0  0  1  0  0  0  0  0  0
  -26.4210  -37.2550   23.7890 N   0  0  0  0  0  0  0  0  0  0  0  0
  -26.0170  -38.1710   23.9620 H   0  0  0  0  0  0  0  0  0  0  0  0
  -26.3840  -31.5620   24.9290 C   0  0  1  0  0  0  0  0  0  0  0  0
  -25.3140  -31.2980   26.0130 C   0  0  0  0  0  1  0  0  0  0  0  0
  -26.9590  -30.1960   24.4910 C   0  0  0  0  0  1  0  0  0  0  0  0
  -27.5480  -32.3410   25.5860 C   0  0  0  0  0  1  0  0  0  0  0  0
  2  1  1  0
  3  4  1  0
  4  1  2  0
  5  3  2  0
  5  6  1  0
  6  2  2  0
  7  5  1  0
  8 15  2  0
  9 14  1  0
 10 11  1  0
 10  9  1  0
 12 11  1  0
 12 20  1  0
 12 13  1  0
 14  8  1  0
 14 13  1  0
 16  6  1  0
 16  8  1  0
 17 18  2  0
 18 19  1  0
 18 37  1  0
 19 22  1  0
 20 17  1  0
 20 21  1  0
 21 19  2  0
 22 23  1  0
 23 24  2  0
 25 28  1  0
 25 24  1  0
 26 25  2  0
 27 26  1  0
 27 22  2  0
 28 29  1  0
 29 30  1  0
 30 31  2  0
 32 31  1  0
 32 36  1  0
 33 32  2  0
 34 29  2  0
 34 33  1  0
 35 34  1  0
 37 38  1  0
 38 41  1  0
 38 40  1  0
 39 37  2  0
 42 43  1  0
 42 17  1  0
 44 42  1  0
 45 46  1  0
 45 47  1  0
 46 47  1  0
 47 16  1  0
 48 52  1  0
 49 51  1  0
 49 52  1  0
 50 53  1  0
 50 48  1  0
 51 53  1  0
 52  4  1  0
 53 54  1  0
 54 56  1  0
 55 66  2  0
 56 61  1  0
 57 65  1  0
 57 67  1  0
 58 64  1  0
 58 60  1  0
 59 65  1  0
 60 59  1  0
 61 60  2  0
 62 63  1  0
 62 56  2  0
 63 58  2  0
 64 57  1  0
 65 55  1  0
 67 69  2  0
 68 67  1  0
 70 68  1  0
 71 80  2  0
 71 76  1  0
 72 68  1  0
 72 76  1  0
 73 72  1  0
 74 75  1  0
 74 73  1  0
 75 71  1  0
 76 77  2  0
 77 78  1  0
 79 78  2  0
 80 79  1  0
 81 55  1  0
 81 82  1  0
 81 91  1  0
 82 85  1  0
 83 87  1  0
 83 82  1  0
 84 83  2  0
 87 86  1  0
 89 87  1  0
 89 90  1  0
 89 88  1  0
 91 94  1  1
 91 92  1  0
 93 91  1  0
M  ISO  4   8 100  16 100  53 101  54 101
M  END
>  <TORSDO>  (24) 
F 18

>  <SCORE>  (24) 
-14.426

>  <name>  (24) 
23

>  <ligand_id>  (24) 
23

>  <original_smiles>  (24) 
[H]c1c([H])c([H])c2c(c1[H])C([H])([H])C([H])([H])C([H])([H])C2([H])N([H])C(=O)C1([H])N(C(=O)C([H])(N([H])C(=O)C([H])(N([H])C([H])([H])[H])C([H])([H])[H])C(C([H])([H])[H])(C([H])([H])[H])C([H])([H])[H])C([H])([H])c2c([H])c(OC3([H])C([H])([H])C([H])([H])C([H])(c4c([H])c([H])c(N(C(=O)N5C([H])([H])C([H])([H])C([H])([H])C([H])(n6nc(-c7c([H])c([H])c(Oc8c([H])c([H])c(F)c([H])c8F)c([H])c7[H])c(C(=O)N([H])[H])c6N([H])[H])C5([H])[H])C5([H])C([H])([H])C5([H])[H])c(C([H])([H])[H])c4[H])C([H])([H])C3([H])[H])c([H])c([H])c2C1([H])[H]

>  <smiles>  (24) 
[H]c1c([H])c([H])c2c(c1[H])C([H])([H])C([H])([H])C([H])([H])C2([H])N([H])C(=O)C1([H])N(C(=O)C([H])(N([H])C(=O)C([H])(N([H])C([H])([H])[H])C([H])([H])[H])C(C([H])([H])[H])(C([H])([H])[H])C([H])([H])[H])C([H])([H])c2c([H])c(OC3([H])C([H])([H])C([H])([H])C([H])(c4c([H])c([H])c(N(C(=O)N5C([H])([H])C([H])([H])C([H])([H])C([H])(n6nc(-c7c([H])c([H])c(Oc8c([H])c([H])c(F)c([H])c8F)c([H])c7[H])c(C(=O)N([H])[H])c6N([H])[H])C5([H])[H])C5([H])C([H])([H])C5([H])[H])c(C([H])([H])[H])c4[H])C([H])([H])C3([H])[H])c([H])c([H])c2C1([H])[H]

$$$$
24:0:0
     RDKit          3D

 96103  0  0  1  0  0  0  0  0999 V2000
  -26.6460  -15.1500   18.5670 C   0  0  0  0  0  3  0  0  0  0  0  0
  -28.3500  -15.3620   20.8770 C   0  0  0  0  0  3  0  0  0  0  0  0
  -27.4440  -16.3130   19.7070 C   0  0  0  0  0  3  0  0  0  0  0  0
  -26.7560  -13.2760   18.4910 C   0  0  0  0  0  0  0  0  0  0  0  0
  -28.6390  -13.5590   20.9670 C   0  0  0  0  0  0  0  0  0  0  0  0
  -25.9150  -12.4230   17.5600 C   0  0  0  0  0  1  0  0  0  0  0  0
  -27.8440  -12.4420   19.6550 N   0  0  2  0  0  4  0  0  0  0  0  0
  -29.5760  -13.0930   22.0910 C   0  0  0  0  0  3  0  0  0  0  0  0
  -31.5140  -14.8240   22.7790 C   0  0  0  0  0  2  0  0  0  0  0  0
  -32.5810  -15.1100   21.7160 C   0  0  0  0  0  2  0  0  0  0  0  0
  -31.0700  -13.6090   21.9490 C   0  0  0  0  0  3  0  0  0  0  0  0
  -31.6830  -14.3840   20.7080 C   0  0  0  0  0  3  0  0  0  0  0  0
  -32.0250  -12.9820   18.6150 C   0  0  0  0  0  0  0  0  0  0  0  0
  -31.2830  -10.5930   17.9720 C   0  0  0  0  0  2  0  0  0  0  0  0
  -29.7820  -10.3050   17.6670 C   0  0  0  0  0  2  0  0  0  0  0  0
  -29.0570  -11.6590   17.6370 C   0  0  0  0  0  2  0  0  0  0  0  0
  -29.0250  -12.7030   18.9790 C   0  0  0  0  0  3  0  0  0  0  0  0
  -30.4290  -11.8580   19.6060 C   0  0  0  0  0  2  0  0  0  0  0  0
  -31.4680  -11.7880   18.8160 N   0  0  0  0  0  0  0  0  0  0  0  0
  -32.3900  -13.2900   17.5010 O   0  0  0  0  0  0  0  0  0  0  0  0
  -32.4930  -13.6400   19.7100 N   0  0  0  0  0  0  0  0  0  0  0  0
  -33.3230  -14.1630   19.4670 H   0  0  0  0  0  0  0  0  0  0  0  0
  -25.6350  -13.5640   20.9750 C   0  0  0  0  0  3  0  0  0  0  0  0
  -24.6330  -12.6750   21.2990 C   0  0  0  0  0  3  0  0  0  0  0  0
  -24.9540  -11.3250   21.0950 C   0  0  0  0  0  3  0  0  0  0  0  0
  -26.7600  -12.9140   20.8100 N   0  0  0  0  0  0  0  0  0  0  0  0
  -26.1580  -11.6520   21.4900 N   0  0  0  0  0  2  0  0  0  0  0  0
  -24.1560  -10.0100   21.2420 C   0  0  0  0  0  0  0  0  0  0  0  0
  -24.5110   -8.8220   21.9570 C   0  0  0  0  0  3  0  0  0  0  0  0
  -23.5890   -7.7380   22.1360 C   0  0  0  0  0  3  0  0  0  0  0  0
  -22.2780   -7.7990   21.5970 C   0  0  0  0  0  0  0  0  0  0  0  0
  -21.9530   -8.9230   20.8210 C   0  0  0  0  0  3  0  0  0  0  0  0
  -22.8730   -9.9800   20.6360 C   0  0  0  0  0  3  0  0  0  0  0  0
  -21.3010   -6.8240   21.7150 O   0  0  0  0  0  0  0  0  0  0  0  0
  -21.1820   -5.9960   22.8100 C   0  0  0  0  0  0  0  0  0  0  0  0
  -21.0230   -6.4990   24.1200 C   0  0  0  0  0  3  0  0  0  0  0  0
  -20.8480   -5.6140   25.2040 C   0  0  0  0  0  3  0  0  0  0  0  0
  -20.8270   -4.2230   24.9870 C   0  0  0  0  0  0  0  0  0  0  0  0
  -20.9640   -3.7170   23.6830 C   0  0  0  0  0  3  0  0  0  0  0  0
  -21.1300   -4.6000   22.5990 C   0  0  0  0  0  0  0  0  0  0  0  0
  -21.2310   -4.0990   21.3440 F   0  0  0  0  0  0  0  0  0  0  0  0
  -20.6710   -3.3730   26.0290 F   0  0  0  0  0  0  0  0  0  0  0  0
  -23.5170  -13.1260   22.0960 C   0  0  0  0  0  0  0  0  0  0  0  0
  -23.1410  -12.3530   23.1040 N   0  0  0  0  0  0  0  0  0  0  0  0
  -23.1010  -14.2570   21.9100 O   0  0  0  0  0  0  0  0  0  0  0  0
  -23.5770  -11.4570   23.2600 H   0  0  0  0  0  0  0  0  0  0  0  0
  -22.4120  -12.6600   23.7320 H   0  0  0  0  0  0  0  0  0  0  0  0
  -25.7440  -14.9160   20.9780 N   0  0  0  0  0  0  0  0  0  0  0  0
  -26.5270  -15.4080   20.5730 H   0  0  0  0  0  0  0  0  0  0  0  0
  -24.9240  -15.4930   21.1210 H   0  0  0  0  0  0  0  0  0  0  0  0
  -29.8580  -11.2160   23.5180 C   0  0  0  0  0  1  0  0  0  0  0  0
  -29.5470  -11.6740   22.2120 O   0  0  0  0  0  0  0  0  0  0  0  0
  -27.2660  -18.1280   19.6020 O   0  0  0  0  0  1  0  0  0  0  0  0
  -27.6530  -20.0960   20.0390 C   0  0  0  0  0 15  0  0  0  0  0  0
  -27.2850  -22.3630   19.8830 C   0  0  0  0  0 15  0  0  0  0  0  0
  -27.7080  -24.3580   20.1530 O   0  0  0  0  0  1  0  0  0  0  0  0
  -24.8170  -31.4920   23.0800 C   0  0  0  0  0  0  0  0  0  0  0  0
  -27.0780  -25.9350   20.0910 C   0  0  0  0  0  0  0  0  0  0  0  0
  -23.6850  -30.1310   21.3950 C   0  0  0  0  0  3  0  0  0  0  0  0
  -25.1180  -28.4330   19.9710 C   0  0  0  0  0  0  0  0  0  0  0  0
  -26.2750  -30.0690   21.4100 C   0  0  0  0  0  2  0  0  0  0  0  0
  -26.2900  -28.6000   20.7100 C   0  0  0  0  0  0  0  0  0  0  0  0
  -27.2540  -27.3870   20.7300 C   0  0  0  0  0  3  0  0  0  0  0  0
  -25.9650  -26.1620   19.2400 C   0  0  0  0  0  3  0  0  0  0  0  0
  -25.0410  -27.2620   19.2000 C   0  0  0  0  0  3  0  0  0  0  0  0
  -23.9710  -29.4720   20.0100 C   0  0  0  0  0  2  0  0  0  0  0  0
  -24.9600  -30.6150   22.0110 N   0  0  0  0  0  0  0  0  0  0  0  0
  -23.7000  -31.7970   23.5440 O   0  0  0  0  0  0  0  0  0  0  0  0
  -22.9240  -29.1450   22.3260 C   0  0  0  0  0  0  0  0  0  0  0  0
  -21.5920  -29.0060   22.1720 N   0  0  0  0  0  0  0  0  0  0  0  0
  -23.5510  -28.5060   23.1750 O   0  0  0  0  0  0  0  0  0  0  0  0
  -21.1290  -29.5730   21.4750 H   0  0  0  0  0  0  0  0  0  0  0  0
  -18.1940  -27.7810   22.6210 C   0  0  0  0  0  0  0  0  0  0  0  0
  -20.7520  -28.0480   22.9080 C   0  0  0  0  0  3  0  0  0  0  0  0
  -20.8580  -26.6330   22.2910 C   0  0  0  0  0  2  0  0  0  0  0  0
  -19.7670  -26.3460   21.2530 C   0  0  0  0  0  2  0  0  0  0  0  0
  -18.3800  -26.4620   21.8900 C   0  0  0  0  0  2  0  0  0  0  0  0
  -19.3070  -28.5330   23.0840 C   0  0  0  0  0  0  0  0  0  0  0  0
  -19.0750  -29.7640   23.7350 C   0  0  0  0  0  3  0  0  0  0  0  0
  -17.7660  -30.2470   23.9210 C   0  0  0  0  0  3  0  0  0  0  0  0
  -16.6680  -29.4940   23.4690 C   0  0  0  0  0  3  0  0  0  0  0  0
  -16.8830  -28.2620   22.8260 C   0  0  0  0  0  3  0  0  0  0  0  0
  -26.0340  -32.1660   23.7830 C   0  0  0  0  0  3  0  0  0  0  0  0
  -25.6850  -33.5750   24.0930 N   0  0  0  0  0  0  0  0  0  0  0  0
  -26.0470  -34.6510   23.3790 C   0  0  0  0  0  0  0  0  0  0  0  0
  -26.7570  -34.5650   22.3750 O   0  0  0  0  0  0  0  0  0  0  0  0
  -25.0520  -33.7130   24.8650 H   0  0  0  0  0  0  0  0  0  0  0  0
  -24.3350  -36.4720   23.0050 C   0  0  0  0  0  1  0  0  0  0  0  0
  -25.5500  -36.0410   23.8450 C   0  0  0  0  0  3  0  0  0  0  0  0
  -27.6550  -36.9230   24.7590 C   0  0  0  0  0  1  0  0  0  0  0  0
  -26.5860  -37.0960   23.7800 N   0  0  0  0  0  0  0  0  0  0  0  0
  -26.1740  -38.0160   23.9200 H   0  0  0  0  0  0  0  0  0  0  0  0
  -26.4560  -31.4360   25.1210 C   0  0  1  0  0  0  0  0  0  0  0  0
  -25.2940  -31.2440   26.1250 C   0  0  0  0  0  1  0  0  0  0  0  0
  -27.0480  -30.0400   24.8390 C   0  0  0  0  0  1  0  0  0  0  0  0
  -27.5700  -32.2430   25.8280 C   0  0  0  0  0  1  0  0  0  0  0  0
  1  3  1  0
  2  5  2  0
  3 53  1  0
  3  2  1  0
  4  1  2  0
  4  7  1  0
  5  8  1  0
  6  4  1  0
  7  5  1  0
  8 52  1  0
 10  9  1  0
 11  8  1  0
 11  9  1  0
 12 10  1  0
 12 11  1  0
 13 19  1  0
 13 21  1  0
 14 19  1  0
 15 14  1  0
 16 15  1  0
 17 16  1  0
 17 18  1  0
 17  7  1  0
 19 18  1  0
 20 13  2  0
 21 12  1  0
 22 21  1  0
 23 48  1  0
 23 24  1  0
 24 43  1  0
 25 28  1  0
 25 24  1  0
 25 27  1  0
  7 26  1  1
 26 23  1  0
 26 27  1  0
 28 29  1  0
 29 30  2  0
 31 34  1  0
 31 30  1  0
 32 31  2  0
 33 32  1  0
 33 28  2  0
 34 35  1  0
 35 36  1  0
 36 37  2  0
 38 37  1  0
 38 42  1  0
 39 38  2  0
 40 35  2  0
 40 39  1  0
 41 40  1  0
 43 44  1  0
 44 46  1  0
 44 47  1  0
 45 43  2  0
 48 50  1  0
 49 48  1  0
 52 51  1  0
 57 68  2  0
 58 56  1  0
 58 63  1  0
 59 67  1  0
 59 69  1  0
 60 66  1  0
 60 62  1  0
 61 67  1  0
 62 63  2  0
 62 61  1  0
 64 58  2  0
 65 64  1  0
 65 60  2  0
 66 59  1  0
 67 57  1  0
 69 71  2  0
 70 69  1  0
 72 70  1  0
 73 82  2  0
 73 78  1  0
 74 70  1  0
 74 78  1  0
 75 74  1  0
 76 77  1  0
 76 75  1  0
 77 73  1  0
 78 79  2  0
 79 80  1  0
 81 80  2  0
 82 81  1  0
 83 57  1  0
 83 84  1  0
 83 93  1  0
 84 87  1  0
 85 89  1  0
 85 84  1  0
 86 85  2  0
 89 88  1  0
 91 89  1  0
 91 92  1  0
 91 90  1  0
 93 96  1  1
 93 94  1  0
 95 93  1  0
M  ISO  4  13 100  21 100  55 101  56 101
M  END
>  <TORSDO>  (25) 
F 22

>  <SCORE>  (25) 
2.902

>  <name>  (25) 
24

>  <ligand_id>  (25) 
24

>  <original_smiles>  (25) 
[H]c1c([H])c([H])c2c(c1[H])C([H])([H])C([H])([H])C([H])([H])C2([H])N([H])C(=O)C1([H])N(C(=O)C([H])(N([H])C(=O)C([H])(N([H])C([H])([H])[H])C([H])([H])[H])C(C([H])([H])[H])(C([H])([H])[H])C([H])([H])[H])C([H])([H])c2c([H])c(OC([H])([H])C([H])([H])Oc3c([H])c(C([H])([H])[H])nc(C([H])(OC([H])([H])[H])C4([H])C([H])([H])C([H])([H])C4([H])N([H])C(=O)N4C([H])([H])C([H])([H])C([H])([H])C([H])(n5nc(-c6c([H])c([H])c(Oc7c([H])c([H])c(F)c([H])c7F)c([H])c6[H])c(C(=O)N([H])[H])c5N([H])[H])C4([H])[H])c3[H])c([H])c([H])c2C1([H])[H]

>  <smiles>  (25) 
[H]c1c([H])c([H])c2c(c1[H])C([H])([H])C([H])([H])C([H])([H])C2([H])N([H])C(=O)C1([H])N(C(=O)C([H])(N([H])C(=O)C([H])(N([H])C([H])([H])[H])C([H])([H])[H])C(C([H])([H])[H])(C([H])([H])[H])C([H])([H])[H])C([H])([H])c2c([H])c(OC([H])([H])C([H])([H])Oc3c([H])c(C([H])([H])[H])nc(C([H])(OC([H])([H])[H])C4([H])C([H])([H])C([H])([H])C4([H])N([H])C(=O)N4C([H])([H])C([H])([H])C([H])([H])C([H])(n5nc(-c6c([H])c([H])c(Oc7c([H])c([H])c(F)c([H])c7F)c([H])c6[H])c(C(=O)N([H])[H])c5N([H])[H])C4([H])[H])c3[H])c([H])c([H])c2C1([H])[H]

$$$$
25:0:0
     RDKit          3D

 98109  0  0  1  0  0  0  0  0999 V2000
  -28.4770  -24.3050   19.0670 C   0  0  0  0  0  3  0  0  0  0  0  0
  -29.2750  -22.3050   20.2460 C   0  0  0  0  0  0  0  0  0  0  0  0
  -28.7930  -22.9070   19.0510 C   0  0  0  0  0  0  0  0  0  0  0  0
  -29.3510  -23.1550   21.3570 C   0  0  0  0  0  0  0  0  0  0  0  0
  -28.6160  -25.0900   20.2470 C   0  0  0  0  0  0  0  0  0  0  0  0
  -29.9150  -22.4350   22.5540 C   0  0  0  0  0  2  0  0  0  0  0  0
  -30.0010  -20.9500   22.1110 C   0  0  0  0  0  2  0  0  0  0  0  0
  -29.9450  -20.9070   20.5590 C   0  0  0  0  0  3  0  0  0  0  0  0
  -29.0510  -24.4870   21.3880 N   0  0  0  0  0  0  0  0  0  0  0  0
  -29.4440  -19.5700   20.0170 N   0  0  0  0  0  4  0  0  0  0  0  0
  -29.5270  -19.6290   19.0160 H   0  0  0  0  0  0  0  0  0  0  0  0
  -28.4620  -19.4730   20.2210 H   0  0  0  0  0  0  0  0  0  0  0  0
  -30.9270  -14.6330   20.0010 C   0  0  0  0  0  0  0  0  0  0  0  0
  -30.6030  -12.4000   18.9400 C   0  0  0  0  0  2  0  0  0  0  0  0
  -29.5950  -12.5370   17.7780 C   0  0  0  0  0  2  0  0  0  0  0  0
  -28.1480  -12.3990   18.2920 C   0  0  0  0  0  2  0  0  0  0  0  0
  -27.8760  -13.2620   19.5530 C   0  0  0  0  0  3  0  0  0  0  0  0
  -28.9950  -13.0990   20.6040 C   0  0  0  0  0  2  0  0  0  0  0  0
  -30.2670  -13.4290   19.9470 N   0  0  0  0  0  0  0  0  0  0  0  0
  -32.0430  -14.7580   19.4850 O   0  0  0  0  0  0  0  0  0  0  0  0
  -29.7760  -17.7080   21.7980 C   0  0  0  0  0  2  0  0  0  0  0  0
  -30.2430  -16.2320   21.7750 C   0  0  0  0  0  2  0  0  0  0  0  0
  -29.9950  -16.9870   19.5500 C   0  0  0  0  0  2  0  0  0  0  0  0
  -30.1680  -18.2820   20.4350 C   0  0  0  0  0  3  0  0  0  0  0  0
  -30.2080  -15.7510   20.3840 N   0  0  0  0  0  0  0  0  0  0  0  0
  -25.5510  -13.8930   20.4400 C   0  0  0  0  0  0  0  0  0  0  0  0
  -24.4920  -13.1350   20.8610 C   0  0  0  0  0  0  0  0  0  0  0  0
  -24.9190  -11.7740   20.7690 C   0  0  0  0  0  0  0  0  0  0  0  0
  -26.5560  -12.9960   20.1180 N   0  0  0  0  0  0  0  0  0  0  0  0
  -26.1860  -11.7140   20.3760 N   0  0  0  0  0  0  0  0  0  0  0  0
  -24.1770  -10.5240   20.9800 C   0  0  0  0  0  0  0  0  0  0  0  0
  -24.6060   -9.5600   21.9180 C   0  0  0  0  0  3  0  0  0  0  0  0
  -23.8650   -8.3750   22.1170 C   0  0  0  0  0  3  0  0  0  0  0  0
  -22.6820   -8.1450   21.3760 C   0  0  0  0  0  0  0  0  0  0  0  0
  -22.2720   -9.0980   20.4270 C   0  0  0  0  0  3  0  0  0  0  0  0
  -23.0130  -10.2750   20.2270 C   0  0  0  0  0  3  0  0  0  0  0  0
  -21.9120   -7.0120   21.4830 O   0  0  0  0  0  0  0  0  0  0  0  0
  -21.8030   -6.3260   22.6660 C   0  0  0  0  0  0  0  0  0  0  0  0
  -21.3090   -6.9370   23.8380 C   0  0  0  0  0  3  0  0  0  0  0  0
  -21.1460   -6.1770   25.0130 C   0  0  0  0  0  3  0  0  0  0  0  0
  -21.4660   -4.8060   25.0170 C   0  0  0  0  0  0  0  0  0  0  0  0
  -21.9530   -4.1940   23.8480 C   0  0  0  0  0  3  0  0  0  0  0  0
  -22.1180   -4.9510   22.6750 C   0  0  0  0  0  0  0  0  0  0  0  0
  -22.5680   -4.3530   21.5460 F   0  0  0  0  0  0  0  0  0  0  0  0
  -21.3030   -4.0740   26.1430 F   0  0  0  0  0  0  0  0  0  0  0  0
  -23.1270  -13.6370   21.2330 C   0  0  0  0  0  0  0  0  0  0  0  0
  -22.4510  -12.9540   22.1500 N   0  0  0  0  0  0  0  0  0  0  0  0
  -22.6730  -14.6710   20.7450 O   0  0  0  0  0  0  0  0  0  0  0  0
  -22.8330  -12.1190   22.5660 H   0  0  0  0  0  0  0  0  0  0  0  0
  -21.5370  -13.2720   22.4390 H   0  0  0  0  0  0  0  0  0  0  0  0
  -25.7370  -15.2630   20.2830 N   0  0  0  0  0  0  0  0  0  0  0  0
  -24.9980  -15.9330   20.4630 H   0  0  0  0  0  0  0  0  0  0  0  0
  -26.5830  -15.6870   19.9250 H   0  0  0  0  0  0  0  0  0  0  0  0
  -28.5600  -26.5050   20.2710 O   0  0  0  0  0  0  0  0  0  0  0  0
  -24.5950  -31.7860   23.1810 C   0  0  0  0  0  0  0  0  0  0  0  0
  -27.3850  -27.2690   20.2320 C   0  0  0  0  0  0  0  0  0  0  0  0
  -23.4640  -30.3530   21.5170 C   0  0  0  0  0  3  0  0  0  0  0  0
  -24.9820  -28.8170   20.1460 C   0  0  0  0  0  0  0  0  0  0  0  0
  -25.9970  -30.7240   21.3980 C   0  0  0  0  0  2  0  0  0  0  0  0
  -26.1200  -29.3400   20.7700 C   0  0  0  0  0  0  0  0  0  0  0  0
  -27.3230  -28.5770   20.8040 C   0  0  0  0  0  3  0  0  0  0  0  0
  -26.2230  -26.7880   19.5900 C   0  0  0  0  0  3  0  0  0  0  0  0
  -25.0340  -27.5460   19.5490 C   0  0  0  0  0  3  0  0  0  0  0  0
  -23.7290  -29.6670   20.1500 C   0  0  0  0  0  2  0  0  0  0  0  0
  -24.7020  -30.9720   22.0900 N   0  0  0  0  0  0  0  0  0  0  0  0
  -23.4930  -32.0450   23.6870 O   0  0  0  0  0  0  0  0  0  0  0  0
  -22.7970  -29.3300   22.4680 C   0  0  0  0  0  0  0  0  0  0  0  0
  -21.4770  -29.1320   22.3120 N   0  0  0  0  0  0  0  0  0  0  0  0
  -23.4670  -28.7180   23.3040 O   0  0  0  0  0  0  0  0  0  0  0  0
  -20.9960  -29.6790   21.6120 H   0  0  0  0  0  0  0  0  0  0  0  0
  -18.1080  -27.8890   22.7390 C   0  0  0  0  0  0  0  0  0  0  0  0
  -20.6550  -28.1860   23.0680 C   0  0  0  0  0  3  0  0  0  0  0  0
  -20.7910  -26.7550   22.4990 C   0  0  0  0  0  2  0  0  0  0  0  0
  -19.7170  -26.4130   21.4610 C   0  0  0  0  0  2  0  0  0  0  0  0
  -18.3190  -26.5400   22.0730 C   0  0  0  0  0  2  0  0  0  0  0  0
  -19.2060  -28.6690   23.1920 C   0  0  0  0  0  0  0  0  0  0  0  0
  -18.9550  -29.9290   23.7750 C   0  0  0  0  0  3  0  0  0  0  0  0
  -17.6400  -30.4130   23.9100 C   0  0  0  0  0  3  0  0  0  0  0  0
  -16.5560  -29.6310   23.4740 C   0  0  0  0  0  3  0  0  0  0  0  0
  -16.7910  -28.3710   22.8950 C   0  0  0  0  0  3  0  0  0  0  0  0
  -25.8490  -32.4470   23.8330 C   0  0  0  0  0  3  0  0  0  0  0  0
  -26.3630  -31.6790   25.1140 C   0  0  1  0  0  0  0  0  0  0  0  0
  -25.2530  -31.3880   26.1520 C   0  0  0  0  0  1  0  0  0  0  0  0
  -27.0040  -30.3280   24.7200 C   0  0  0  0  0  1  0  0  0  0  0  0
  -27.4670  -32.5050   25.8130 C   0  0  0  0  0  1  0  0  0  0  0  0
  -25.4960  -33.8340   24.1710 N   0  0  0  0  0  0  0  0  0  0  0  0
  -25.8210  -34.9040   23.4310 C   0  0  0  0  0  0  0  0  0  0  0  0
  -26.5190  -34.8290   22.4170 O   0  0  0  0  0  0  0  0  0  0  0  0
  -24.8800  -33.9650   24.9590 H   0  0  0  0  0  0  0  0  0  0  0  0
  -24.0530  -36.6530   23.0580 C   0  0  0  0  0  1  0  0  0  0  0  0
  -25.2870  -36.2750   23.8920 C   0  0  0  0  0  3  0  0  0  0  0  0
  -27.3770  -37.2110   24.7790 C   0  0  0  0  0  1  0  0  0  0  0  0
  -26.2930  -37.3560   23.8090 N   0  0  0  0  0  0  0  0  0  0  0  0
  -25.8600  -38.2630   23.9520 H   0  0  0  0  0  0  0  0  0  0  0  0
  -28.6380  -22.1310   17.7550 C   0  0  0  0  0  2  0  0  0  0  0  0
  -29.9460  -21.5680   15.5490 C   0  0  0  0  0  2  0  0  0  0  0  0
  -30.3010  -22.9900   15.9020 C   0  0  0  0  0  2  0  0  0  0  0  0
  -29.9460  -22.0070   16.9980 C   0  0  0  0  0  3  0  0  0  0  0  0
  1  5  1  0
  2  8  1  0
  2  4  2  0
  3  1  2  0
  3  2  1  0
  4  9  1  0
  4  6  1  0
  5 54  1  0
  5  9  2  0
  7  6  1  0
  8 10  1  0
  8  7  1  0
 10 12  1  0
 11 10  1  0
 13 25  1  0
 14 19  1  0
 15 16  1  0
 15 14  1  0
 17 16  1  0
 17 29  1  0
 17 18  1  0
 19 13  1  0
 19 18  1  0
 20 13  2  0
 22 21  1  0
 23 25  1  0
 23 24  1  0
 24 10  1  0
 24 21  1  0
 25 22  1  0
 26 27  2  0
 27 46  1  0
 28 27  1  0
 28 31  1  0
 29 30  1  0
 29 26  1  0
 30 28  2  0
 31 32  1  0
 32 33  2  0
 34 37  1  0
 34 33  1  0
 35 34  2  0
 36 35  1  0
 36 31  2  0
 37 38  1  0
 38 43  2  0
 38 39  1  0
 39 40  2  0
 40 41  1  0
 41 45  1  0
 42 41  2  0
 43 42  1  0
 44 43  1  0
 46 47  1  0
 47 50  1  0
 47 49  1  0
 48 46  2  0
 51 26  1  0
 51 52  1  0
 53 51  1  0
 55 66  2  0
 56 54  1  0
 56 61  1  0
 57 65  1  0
 57 67  1  0
 58 64  1  0
 58 60  1  0
 59 65  1  0
 60 61  2  0
 60 59  1  0
 62 56  2  0
 63 62  1  0
 63 58  2  0
 64 57  1  0
 65 55  1  0
 67 69  2  0
 68 67  1  0
 70 68  1  0
 71 80  2  0
 71 76  1  0
 72 68  1  0
 72 76  1  0
 73 72  1  0
 74 75  1  0
 74 73  1  0
 75 71  1  0
 76 77  2  0
 77 78  1  0
 79 78  2  0
 80 79  1  0
 81 55  1  0
 81 86  1  0
 81 82  1  0
 82 85  1  1
 82 83  1  0
 84 82  1  0
 86 89  1  0
 87 91  1  0
 87 86  1  0
 88 87  2  0
 91 90  1  0
 93 91  1  0
 93 94  1  0
 93 92  1  0
 95  3  1  0
 96 97  1  0
 96 98  1  0
 97 98  1  0
 98 95  1  0
M  ISO  4   5 101  13 100  25 100  54 101
M  END
>  <TORSDO>  (26) 
F 19

>  <SCORE>  (26) 
-14.144

>  <name>  (26) 
25

>  <ligand_id>  (26) 
25

>  <original_smiles>  (26) 
[H]c1c([H])c([H])c2c(c1[H])C([H])([H])C([H])([H])C([H])([H])C2([H])N([H])C(=O)C1([H])N(C(=O)C([H])(N([H])C(=O)C([H])(N([H])C([H])([H])[H])C([H])([H])[H])C(C([H])([H])[H])(C([H])([H])[H])C([H])([H])[H])C([H])([H])c2c([H])c(Oc3nc4c(c(C([H])([H])C5([H])C([H])([H])C5([H])[H])c3[H])C([H])([N+]([H])([H])C3([H])C([H])([H])N(C(=O)N5C([H])([H])C([H])([H])C([H])([H])C([H])(n6nc(-c7c([H])c([H])c(Oc8c([H])c([H])c(F)c([H])c8F)c([H])c7[H])c(C(=O)N([H])[H])c6N([H])[H])C5([H])[H])C([H])([H])C3([H])[H])C([H])([H])C4([H])[H])c([H])c([H])c2C1([H])[H]

>  <smiles>  (26) 
[H]c1c([H])c([H])c2c(c1[H])C([H])([H])C([H])([H])C([H])([H])C2([H])N([H])C(=O)C1([H])N(C(=O)C([H])(N([H])C(=O)C([H])(N([H])C([H])([H])[H])C([H])([H])[H])C(C([H])([H])[H])(C([H])([H])[H])C([H])([H])[H])C([H])([H])c2c([H])c(Oc3nc4c(c(C([H])([H])C5([H])C([H])([H])C5([H])[H])c3[H])C([H])([N+]([H])([H])C3([H])C([H])([H])N(C(=O)N5C([H])([H])C([H])([H])C([H])([H])C([H])(n6nc(-c7c([H])c([H])c(Oc8c([H])c([H])c(F)c([H])c8F)c([H])c7[H])c(C(=O)N([H])[H])c6N([H])[H])C5([H])[H])C([H])([H])C3([H])[H])C([H])([H])C4([H])[H])c([H])c([H])c2C1([H])[H]

$$$$
26:0:0
     RDKit          3D

 98107  0  0  1  0  0  0  0  0999 V2000
  -31.3620  -24.9210   21.0310 C   0  0  0  0  0  2  0  0  0  0  0  0
  -30.9900  -26.1380   20.1480 C   0  0  0  0  0  2  0  0  0  0  0  0
  -28.9980  -26.1870   21.7240 C   0  0  0  0  0  2  0  0  0  0  0  0
  -30.1720  -23.9460   21.2800 C   0  0  0  0  0  3  0  0  0  0  0  0
  -28.8130  -24.7170   21.2610 C   0  0  0  0  0  3  0  0  0  0  0  0
  -29.8380  -27.0090   20.7230 C   0  0  0  0  0  3  0  0  0  0  0  0
  -27.5810  -24.3670   23.5240 C   0  0  0  0  0  1  0  0  0  0  0  0
  -26.3120  -24.2240   21.3320 C   0  0  0  0  0  1  0  0  0  0  0  0
  -27.6660  -23.9980   22.0270 C   0  0  0  0  0  3  0  0  0  0  0  0
  -29.0740  -27.4200   19.5860 O   0  0  0  0  0  0  0  0  0  0  0  0
  -24.5530  -31.7100   23.1700 C   0  0  0  0  0  0  0  0  0  0  0  0
  -27.8510  -28.0400   19.7310 C   0  0  0  0  0  0  0  0  0  0  0  0
  -23.5880  -30.3680   21.3290 C   0  0  0  0  0  3  0  0  0  0  0  0
  -25.2740  -29.2040   19.8130 C   0  0  0  0  0  0  0  0  0  0  0  0
  -26.0470  -31.0660   21.2860 C   0  0  0  0  0  2  0  0  0  0  0  0
  -26.3340  -29.7960   20.5120 C   0  0  0  0  0  0  0  0  0  0  0  0
  -27.6250  -29.2170   20.4880 C   0  0  0  0  0  3  0  0  0  0  0  0
  -26.7760  -27.4640   19.0300 C   0  0  0  0  0  3  0  0  0  0  0  0
  -25.4860  -28.0280   19.0750 C   0  0  0  0  0  3  0  0  0  0  0  0
  -23.9270  -29.8850   19.8930 C   0  0  0  0  0  2  0  0  0  0  0  0
  -24.7430  -31.0590   21.9880 N   0  0  0  0  0  0  0  0  0  0  0  0
  -23.4310  -31.7780   23.6910 O   0  0  0  0  0  0  0  0  0  0  0  0
  -23.0520  -29.1680   22.1420 C   0  0  0  0  0  0  0  0  0  0  0  0
  -21.7540  -28.8670   21.9770 N   0  0  0  0  0  0  0  0  0  0  0  0
  -23.8010  -28.5150   22.8730 O   0  0  0  0  0  0  0  0  0  0  0  0
  -21.2040  -29.4570   21.3670 H   0  0  0  0  0  0  0  0  0  0  0  0
  -18.5010  -27.3440   22.3670 C   0  0  0  0  0  0  0  0  0  0  0  0
  -21.0410  -27.7580   22.6110 C   0  0  0  0  0  3  0  0  0  0  0  0
  -21.2270  -26.4480   21.8110 C   0  0  0  0  0  2  0  0  0  0  0  0
  -20.1150  -26.2010   20.7880 C   0  0  0  0  0  2  0  0  0  0  0  0
  -18.7520  -26.1360   21.4820 C   0  0  0  0  0  2  0  0  0  0  0  0
  -19.5750  -28.1150   22.8840 C   0  0  0  0  0  0  0  0  0  0  0  0
  -19.2840  -29.2510   23.6700 C   0  0  0  0  0  3  0  0  0  0  0  0
  -17.9530  -29.6140   23.9470 C   0  0  0  0  0  3  0  0  0  0  0  0
  -16.8940  -28.8380   23.4430 C   0  0  0  0  0  3  0  0  0  0  0  0
  -17.1690  -27.7040   22.6570 C   0  0  0  0  0  3  0  0  0  0  0  0
  -25.7300  -32.4240   23.9070 C   0  0  0  0  0  3  0  0  0  0  0  0
  -26.1690  -31.6870   25.2310 C   0  0  1  0  0  0  0  0  0  0  0  0
  -24.9950  -31.3730   26.1860 C   0  0  0  0  0  1  0  0  0  0  0  0
  -26.8820  -30.3550   24.9000 C   0  0  0  0  0  1  0  0  0  0  0  0
  -27.1850  -32.5610   26.0030 C   0  0  0  0  0  1  0  0  0  0  0  0
  -25.2990  -33.7980   24.1940 N   0  0  0  0  0  0  0  0  0  0  0  0
  -25.6510  -34.8700   23.4730 C   0  0  0  0  0  0  0  0  0  0  0  0
  -26.4390  -34.8130   22.5250 O   0  0  0  0  0  0  0  0  0  0  0  0
  -24.6100  -33.9140   24.9240 H   0  0  0  0  0  0  0  0  0  0  0  0
  -23.8710  -36.5540   22.9150 C   0  0  0  0  0  1  0  0  0  0  0  0
  -25.0310  -36.2230   23.8680 C   0  0  0  0  0  3  0  0  0  0  0  0
  -27.0010  -37.2300   24.9320 C   0  0  0  0  0  1  0  0  0  0  0  0
  -26.0030  -37.3380   23.8730 N   0  0  0  0  0  0  0  0  0  0  0  0
  -25.5250  -38.2280   23.9770 H   0  0  0  0  0  0  0  0  0  0  0  0
  -30.2060  -22.6990   20.3330 C   0  0  0  0  0  2  0  0  0  0  0  0
  -31.4520  -21.7810   20.5310 C   0  0  0  0  0  2  0  0  0  0  0  0
  -31.6120  -14.9800   19.9040 C   0  0  0  0  0  0  0  0  0  0  0  0
  -31.3520  -12.6620   19.0680 C   0  0  0  0  0  2  0  0  0  0  0  0
  -30.3680  -12.6530   17.8790 C   0  0  0  0  0  2  0  0  0  0  0  0
  -28.9100  -12.5460   18.3670 C   0  0  0  0  0  2  0  0  0  0  0  0
  -28.5830  -13.5580   19.4950 C   0  0  0  0  0  3  0  0  0  0  0  0
  -29.6700  -13.5150   20.5940 C   0  0  0  0  0  2  0  0  0  0  0  0
  -30.9750  -13.7740   19.9570 N   0  0  0  0  0  0  0  0  0  0  0  0
  -32.7010  -15.1180   19.3340 O   0  0  0  0  0  0  0  0  0  0  0  0
  -30.1400  -18.1810   21.1030 C   0  0  0  0  0  3  0  0  0  0  0  0
  -30.2150  -19.5920   21.1480 C   0  0  0  0  0  0  0  0  0  0  0  0
  -31.2380  -20.2500   20.4190 C   0  0  0  0  0  0  0  0  0  0  0  0
  -32.1240  -19.4210   19.6800 C   0  0  0  0  0  0  0  0  0  0  0  0
  -31.0820  -17.4250   20.3750 C   0  0  0  0  0  0  0  0  0  0  0  0
  -29.2150  -20.3490   22.0070 C   0  0  0  0  0  1  0  0  0  0  0  0
  -33.2780  -19.9910   18.8760 C   0  0  0  0  0  1  0  0  0  0  0  0
  -32.0430  -18.0670   19.6670 N   0  0  0  0  0  0  0  0  0  0  0  0
  -30.9190  -16.0030   20.4540 N   0  0  0  0  0  0  0  0  0  0  0  0
  -30.0910  -15.7020   20.9390 H   0  0  0  0  0  0  0  0  0  0  0  0
  -26.2670  -14.2640   20.3730 C   0  0  0  0  0  0  0  0  0  0  0  0
  -25.1810  -13.5340   20.7780 C   0  0  0  0  0  0  0  0  0  0  0  0
  -25.5650  -12.1620   20.6660 C   0  0  0  0  0  0  0  0  0  0  0  0
  -27.2470  -13.3380   20.0450 N   0  0  0  0  0  0  0  0  0  0  0  0
  -26.8300  -12.0670   20.2770 N   0  0  0  0  0  0  0  0  0  0  0  0
  -24.7820  -10.9330   20.8500 C   0  0  0  0  0  0  0  0  0  0  0  0
  -25.1460   -9.9640   21.8120 C   0  0  0  0  0  3  0  0  0  0  0  0
  -24.3680   -8.8000   21.9830 C   0  0  0  0  0  3  0  0  0  0  0  0
  -23.2110   -8.5950   21.1930 C   0  0  0  0  0  0  0  0  0  0  0  0
  -22.8680   -9.5510   20.2210 C   0  0  0  0  0  3  0  0  0  0  0  0
  -23.6460  -10.7080   20.0470 C   0  0  0  0  0  3  0  0  0  0  0  0
  -22.4100   -7.4820   21.2730 O   0  0  0  0  0  0  0  0  0  0  0  0
  -22.1620   -6.8580   22.4680 C   0  0  0  0  0  0  0  0  0  0  0  0
  -21.5760   -7.5390   23.5580 C   0  0  0  0  0  3  0  0  0  0  0  0
  -21.2760   -6.8410   24.7450 C   0  0  0  0  0  3  0  0  0  0  0  0
  -21.5490   -5.4640   24.8420 C   0  0  0  0  0  0  0  0  0  0  0  0
  -22.1260   -4.7820   23.7560 C   0  0  0  0  0  3  0  0  0  0  0  0
  -22.4290   -5.4770   22.5710 C   0  0  0  0  0  0  0  0  0  0  0  0
  -22.9650   -4.8130   21.5200 F   0  0  0  0  0  0  0  0  0  0  0  0
  -21.2540   -4.7910   25.9790 F   0  0  0  0  0  0  0  0  0  0  0  0
  -23.8310  -14.0720   21.1550 C   0  0  0  0  0  0  0  0  0  0  0  0
  -23.1280  -13.3930   22.0560 N   0  0  0  0  0  0  0  0  0  0  0  0
  -23.4080  -15.1280   20.6850 O   0  0  0  0  0  0  0  0  0  0  0  0
  -23.4810  -12.5370   22.4590 H   0  0  0  0  0  0  0  0  0  0  0  0
  -22.2230  -13.7340   22.3480 H   0  0  0  0  0  0  0  0  0  0  0  0
  -26.4970  -15.6300   20.2370 N   0  0  0  0  0  0  0  0  0  0  0  0
  -25.7740  -16.3200   20.4060 H   0  0  0  0  0  0  0  0  0  0  0  0
  -27.3460  -16.0330   19.8600 H   0  0  0  0  0  0  0  0  0  0  0  0
  1  4  1  0
  2  6  1  0
  2  1  1  0
  4 51  1  0
  5  4  1  0
  5  3  1  0
  5  9  1  0
  6 10  1  0
  6  3  1  0
  8  9  1  0
  9  7  1  0
 10 12  1  0
 11 22  2  0
 12 17  1  0
 13 21  1  0
 13 23  1  0
 14 20  1  0
 14 16  1  0
 15 21  1  0
 16 15  1  0
 17 16  2  0
 18 19  1  0
 18 12  2  0
 19 14  2  0
 20 13  1  0
 21 11  1  0
 23 25  2  0
 24 23  1  0
 26 24  1  0
 27 36  2  0
 27 32  1  0
 28 24  1  0
 28 32  1  0
 29 28  1  0
 30 31  1  0
 30 29  1  0
 31 27  1  0
 32 33  2  0
 33 34  1  0
 35 34  2  0
 36 35  1  0
 37 11  1  0
 37 42  1  0
 37 38  1  0
 38 41  1  1
 38 39  1  0
 40 38  1  0
 42 45  1  0
 43 47  1  0
 43 42  1  0
 44 43  2  0
 47 46  1  0
 47 49  1  0
 49 50  1  0
 49 48  1  0
 51 52  1  0
 53 59  1  0
 53 69  1  0
 54 59  1  0
 55 56  1  0
 55 54  1  0
 57 56  1  0
 57 74  1  0
 57 58  1  0
 59 58  1  0
 60 53  2  0
 61 62  1  0
 62 66  1  0
 63 52  1  0
 63 62  2  0
 64 63  1  0
 65 69  1  0
 65 61  2  0
 67 64  1  0
 68 64  2  0
 68 65  1  0
 69 70  1  0
 71 72  2  0
 72 91  1  0
 73 72  1  0
 73 76  1  0
 74 75  1  0
 74 71  1  0
 75 73  2  0
 76 77  1  0
 77 78  2  0
 79 82  1  0
 79 78  1  0
 80 79  2  0
 81 80  1  0
 81 76  2  0
 82 83  1  0
 83 88  2  0
 83 84  1  0
 84 85  2  0
 85 86  1  0
 86 90  1  0
 87 86  2  0
 88 87  1  0
 89 88  1  0
 91 92  1  0
 92 95  1  0
 92 94  1  0
 93 91  2  0
 96 71  1  0
 96 97  1  0
 98 96  1  0
M  ISO  4   6 101  10 101  53 100  69 100
M  END
>  <TORSDO>  (27) 
F 19

>  <SCORE>  (27) 
-9.610

>  <name>  (27) 
26

>  <ligand_id>  (27) 
26

>  <original_smiles>  (27) 
[H]c1c([H])c([H])c2c(c1[H])C([H])([H])C([H])([H])C([H])([H])C2([H])N([H])C(=O)C1([H])N(C(=O)C([H])(N([H])C(=O)C([H])(N([H])C([H])([H])[H])C([H])([H])[H])C(C([H])([H])[H])(C([H])([H])[H])C([H])([H])[H])C([H])([H])c2c([H])c(OC3([H])C([H])([H])C([H])([H])C([H])(C([H])([H])C([H])([H])c4c(C([H])([H])[H])nc(N([H])C(=O)N5C([H])([H])C([H])([H])C([H])([H])C([H])(n6nc(-c7c([H])c([H])c(Oc8c([H])c([H])c(F)c([H])c8F)c([H])c7[H])c(C(=O)N([H])[H])c6N([H])[H])C5([H])[H])c([H])c4C([H])([H])[H])C([H])(C([H])(C([H])([H])[H])C([H])([H])[H])C3([H])[H])c([H])c([H])c2C1([H])[H]

>  <smiles>  (27) 
[H]c1c([H])c([H])c2c(c1[H])C([H])([H])C([H])([H])C([H])([H])C2([H])N([H])C(=O)C1([H])N(C(=O)C([H])(N([H])C(=O)C([H])(N([H])C([H])([H])[H])C([H])([H])[H])C(C([H])([H])[H])(C([H])([H])[H])C([H])([H])[H])C([H])([H])c2c([H])c(OC3([H])C([H])([H])C([H])([H])C([H])(C([H])([H])C([H])([H])c4c(C([H])([H])[H])nc(N([H])C(=O)N5C([H])([H])C([H])([H])C([H])([H])C([H])(n6nc(-c7c([H])c([H])c(Oc8c([H])c([H])c(F)c([H])c8F)c([H])c7[H])c(C(=O)N([H])[H])c6N([H])[H])C5([H])[H])c([H])c4C([H])([H])[H])C([H])(C([H])(C([H])([H])[H])C([H])([H])[H])C3([H])[H])c([H])c([H])c2C1([H])[H]

$$$$
27:0:0
     RDKit          3D

 94103  0  0  1  0  0  0  0  0999 V2000
  -30.0600  -20.3580   20.6450 C   0  0  0  0  0  3  0  0  0  0  0  0
  -28.2800  -19.8720   19.1760 C   0  0  0  0  0  3  0  0  0  0  0  0
  -30.4530  -18.9620   20.6660 C   0  0  0  0  0  0  0  0  0  0  0  0
  -28.9260  -20.8850   19.9510 C   0  0  0  0  0  0  0  0  0  0  0  0
  -28.6560  -18.4690   19.1750 C   0  0  0  0  0  0  0  0  0  0  0  0
  -29.7220  -17.9240   19.9750 C   0  0  0  0  0  0  0  0  0  0  0  0
  -27.8080  -17.5280   18.3450 C   0  0  0  0  0  1  0  0  0  0  0  0
  -30.5130  -15.3470   19.7700 C   0  0  0  0  0  0  0  0  0  0  0  0
  -30.3960  -13.0320   18.7380 C   0  0  0  0  0  2  0  0  0  0  0  0
  -29.3320  -12.9860   17.6140 C   0  0  0  0  0  2  0  0  0  0  0  0
  -27.9250  -12.7070   18.1800 C   0  0  0  0  0  2  0  0  0  0  0  0
  -27.6190  -13.5660   19.4330 C   0  0  0  0  0  3  0  0  0  0  0  0
  -28.7890  -13.5030   20.4290 C   0  0  0  0  0  2  0  0  0  0  0  0
  -29.9770  -14.0530   19.7440 N   0  0  0  0  0  0  0  0  0  0  0  0
  -31.5890  -15.5210   19.1850 O   0  0  0  0  0  0  0  0  0  0  0  0
  -29.3710  -16.2600   21.7390 C   0  0  0  0  0  1  0  0  0  0  0  0
  -29.8130  -16.4470   20.3490 N   0  0  0  0  0  0  0  0  0  0  0  0
  -25.3270  -14.0380   20.4840 C   0  0  0  0  0  0  0  0  0  0  0  0
  -24.3260  -13.2150   20.9170 C   0  0  0  0  0  0  0  0  0  0  0  0
  -24.8060  -11.8830   20.7320 C   0  0  0  0  0  0  0  0  0  0  0  0
  -26.3480  -13.2070   20.0550 N   0  0  0  0  0  0  0  0  0  0  0  0
  -26.0480  -11.9000   20.2650 N   0  0  0  0  0  0  0  0  0  0  0  0
  -24.1290  -10.5940   20.9170 C   0  0  0  0  0  0  0  0  0  0  0  0
  -24.6040   -9.6360   21.8410 C   0  0  0  0  0  3  0  0  0  0  0  0
  -23.9230   -8.4130   22.0150 C   0  0  0  0  0  3  0  0  0  0  0  0
  -22.7540   -8.1370   21.2650 C   0  0  0  0  0  0  0  0  0  0  0  0
  -22.3000   -9.0850   20.3300 C   0  0  0  0  0  3  0  0  0  0  0  0
  -22.9820  -10.3000   20.1550 C   0  0  0  0  0  3  0  0  0  0  0  0
  -22.0440   -6.9650   21.3480 O   0  0  0  0  0  0  0  0  0  0  0  0
  -21.9090   -6.2860   22.5330 C   0  0  0  0  0  0  0  0  0  0  0  0
  -21.3090   -6.8790   23.6650 C   0  0  0  0  0  3  0  0  0  0  0  0
  -21.1280   -6.1240   24.8410 C   0  0  0  0  0  3  0  0  0  0  0  0
  -21.5360   -4.7770   24.8840 C   0  0  0  0  0  0  0  0  0  0  0  0
  -22.1280   -4.1850   23.7550 C   0  0  0  0  0  3  0  0  0  0  0  0
  -22.3120   -4.9370   22.5820 C   0  0  0  0  0  0  0  0  0  0  0  0
  -22.8640   -4.3550   21.4900 F   0  0  0  0  0  0  0  0  0  0  0  0
  -21.3540   -4.0490   26.0100 F   0  0  0  0  0  0  0  0  0  0  0  0
  -22.9660  -13.6390   21.3890 C   0  0  0  0  0  0  0  0  0  0  0  0
  -22.3630  -12.8710   22.2880 N   0  0  0  0  0  0  0  0  0  0  0  0
  -22.4490  -14.6840   20.9960 O   0  0  0  0  0  0  0  0  0  0  0  0
  -22.7940  -12.0230   22.6250 H   0  0  0  0  0  0  0  0  0  0  0  0
  -21.4550  -13.1330   22.6450 H   0  0  0  0  0  0  0  0  0  0  0  0
  -25.4440  -15.4210   20.4030 N   0  0  0  0  0  0  0  0  0  0  0  0
  -24.6950  -16.0460   20.6810 H   0  0  0  0  0  0  0  0  0  0  0  0
  -26.2640  -15.9060   20.0640 H   0  0  0  0  0  0  0  0  0  0  0  0
  -32.8420  -19.9580   22.7280 C   0  0  0  0  0  2  0  0  0  0  0  0
  -33.0030  -19.3060   21.3520 C   0  0  0  0  0  2  0  0  0  0  0  0
  -31.6760  -19.0080   23.0140 C   0  0  0  0  0  2  0  0  0  0  0  0
  -31.6550  -18.5880   21.5350 C   0  0  0  0  0  3  0  0  0  0  0  0
  -28.2780  -22.3420   20.3180 C   0  0  0  0  0  3  0  0  0  0  0  0
  -28.3120  -23.8040   19.5310 C   0  0  0  0  0  3  0  0  0  0  0  0
  -26.4420  -24.9090   20.9950 C   0  0  0  0  0  1  0  0  0  0  0  0
  -27.7930  -25.1920   20.3050 C   0  0  0  0  0  3  0  0  0  0  0  0
  -27.8940  -26.6400   19.7720 O   0  0  0  0  0  0  0  0  0  0  0  0
  -24.6660  -32.1450   23.4070 C   0  0  0  0  0  0  0  0  0  0  0  0
  -26.8520  -27.6140   19.8980 C   0  0  0  0  0  0  0  0  0  0  0  0
  -23.2970  -30.8990   21.7770 C   0  0  0  0  0  3  0  0  0  0  0  0
  -24.5800  -29.3840   20.1490 C   0  0  0  0  0  0  0  0  0  0  0  0
  -25.8350  -31.1100   21.4350 C   0  0  0  0  0  2  0  0  0  0  0  0
  -25.8120  -29.7650   20.6970 C   0  0  0  0  0  0  0  0  0  0  0  0
  -26.9500  -28.8950   20.5580 C   0  0  0  0  0  3  0  0  0  0  0  0
  -25.6050  -27.3340   19.3000 C   0  0  0  0  0  3  0  0  0  0  0  0
  -24.4850  -28.1790   19.4360 C   0  0  0  0  0  3  0  0  0  0  0  0
  -23.3890  -30.3070   20.3440 C   0  0  0  0  0  2  0  0  0  0  0  0
  -24.6230  -31.4010   22.2600 N   0  0  0  0  0  0  0  0  0  0  0  0
  -23.6330  -32.4280   24.0330 O   0  0  0  0  0  0  0  0  0  0  0  0
  -22.6590  -29.8500   22.7210 C   0  0  0  0  0  0  0  0  0  0  0  0
  -21.3360  -29.6390   22.5940 N   0  0  0  0  0  0  0  0  0  0  0  0
  -23.3540  -29.2290   23.5280 O   0  0  0  0  0  0  0  0  0  0  0  0
  -20.8320  -30.1980   21.9180 H   0  0  0  0  0  0  0  0  0  0  0  0
  -18.0170  -28.2490   22.9980 C   0  0  0  0  0  0  0  0  0  0  0  0
  -20.5460  -28.6630   23.3460 C   0  0  0  0  0  3  0  0  0  0  0  0
  -20.7500  -27.2340   22.7920 C   0  0  0  0  0  2  0  0  0  0  0  0
  -19.7020  -26.8350   21.7470 C   0  0  0  0  0  2  0  0  0  0  0  0
  -18.2950  -26.9050   22.3450 C   0  0  0  0  0  2  0  0  0  0  0  0
  -19.0740  -29.0820   23.4540 C   0  0  0  0  0  0  0  0  0  0  0  0
  -18.7610  -30.3340   24.0240 C   0  0  0  0  0  3  0  0  0  0  0  0
  -17.4230  -30.7580   24.1440 C   0  0  0  0  0  3  0  0  0  0  0  0
  -16.3820  -29.9240   23.7020 C   0  0  0  0  0  3  0  0  0  0  0  0
  -16.6780  -28.6720   23.1350 C   0  0  0  0  0  3  0  0  0  0  0  0
  -26.0110  -32.6940   23.9730 C   0  0  0  0  0  3  0  0  0  0  0  0
  -26.5370  -31.8800   25.2180 C   0  0  1  0  0  0  0  0  0  0  0  0
  -25.4750  -31.6760   26.3230 C   0  0  0  0  0  1  0  0  0  0  0  0
  -27.0420  -30.4830   24.7880 C   0  0  0  0  0  1  0  0  0  0  0  0
  -27.7470  -32.6100   25.8470 C   0  0  0  0  0  1  0  0  0  0  0  0
  -25.8010  -34.1040   24.3330 N   0  0  0  0  0  0  0  0  0  0  0  0
  -26.1680  -35.1490   23.5780 C   0  0  0  0  0  0  0  0  0  0  0  0
  -26.7860  -35.0210   22.5180 O   0  0  0  0  0  0  0  0  0  0  0  0
  -25.2510  -34.2820   25.1610 H   0  0  0  0  0  0  0  0  0  0  0  0
  -24.5430  -37.0550   23.3260 C   0  0  0  0  0  1  0  0  0  0  0  0
  -25.7900  -36.5580   24.0760 C   0  0  0  0  0  3  0  0  0  0  0  0
  -28.0070  -37.2980   24.8310 C   0  0  0  0  0  1  0  0  0  0  0  0
  -26.8810  -37.5460   23.9330 N   0  0  0  0  0  0  0  0  0  0  0  0
  -26.5400  -38.4880   24.1050 H   0  0  0  0  0  0  0  0  0  0  0  0
  1  3  1  0
  2  4  1  0
  3 49  1  0
  4 50  1  0
  4  1  2  0
  5  2  2  0
  5  6  1  0
  6 17  1  0
  6  3  2  0
  7  5  1  0
  8 17  1  0
  9 14  1  0
 10 11  1  0
 10  9  1  0
 12 11  1  0
 12 21  1  0
 12 13  1  0
 14  8  1  0
 14 13  1  0
 15  8  2  0
 17 16  1  0
 18 19  2  0
 19 38  1  0
 20 23  1  0
 20 19  1  0
 21 22  1  0
 21 18  1  0
 22 20  2  0
 23 24  1  0
 24 25  2  0
 26 29  1  0
 26 25  1  0
 27 26  2  0
 28 27  1  0
 28 23  2  0
 29 30  1  0
 30 35  2  0
 30 31  1  0
 31 32  2  0
 32 33  1  0
 33 37  1  0
 34 33  2  0
 35 34  1  0
 36 35  1  0
 38 39  1  0
 39 41  1  0
 39 42  1  0
 40 38  2  0
 43 18  1  0
 43 44  1  0
 45 43  1  0
 46 48  1  0
 47 49  1  0
 47 46  1  0
 49 48  1  0
 51 53  1  0
 51 50  2  0
 53 52  1  0
 54 56  1  0
 54 53  1  0
 55 66  2  0
 56 61  1  0
 57 65  1  0
 57 67  1  0
 58 64  1  0
 58 60  1  0
 59 65  1  0
 60 59  1  0
 61 60  2  0
 62 63  1  0
 62 56  2  0
 63 58  2  0
 64 57  1  0
 65 55  1  0
 67 69  2  0
 68 67  1  0
 70 68  1  0
 71 80  2  0
 71 76  1  0
 72 68  1  0
 72 76  1  0
 73 72  1  0
 74 75  1  0
 74 73  1  0
 75 71  1  0
 76 77  2  0
 77 78  1  0
 79 78  2  0
 80 79  1  0
 81 55  1  0
 81 86  1  0
 81 82  1  0
 82 85  1  1
 82 83  1  0
 84 82  1  0
 86 89  1  0
 87 91  1  0
 87 86  1  0
 88 87  2  0
 91 90  1  0
 93 91  1  0
 93 94  1  0
 93 92  1  0
M  ISO  4   8 100  17 100  53 101  54 101
M  END
>  <TORSDO>  (28) 
F 20

>  <SCORE>  (28) 
-12.725

>  <name>  (28) 
27

>  <ligand_id>  (28) 
27

>  <original_smiles>  (28) 
[H]c1c([H])c([H])c2c(c1[H])C([H])([H])C([H])([H])C([H])([H])C2([H])N([H])C(=O)C1([H])N(C(=O)C([H])(N([H])C(=O)C([H])(N([H])C([H])([H])[H])C([H])([H])[H])C(C([H])([H])[H])(C([H])([H])[H])C([H])([H])[H])C([H])([H])c2c([H])c(OC([H])(C([H])([H])[H])C([H])([H])C([H])([H])c3c([H])c(C([H])([H])[H])c(N(C(=O)N4C([H])([H])C([H])([H])C([H])([H])C([H])(n5nc(-c6c([H])c([H])c(Oc7c([H])c([H])c(F)c([H])c7F)c([H])c6[H])c(C(=O)N([H])[H])c5N([H])[H])C4([H])[H])C([H])([H])[H])c(C4([H])C([H])([H])C([H])([H])C4([H])[H])c3[H])c([H])c([H])c2C1([H])[H]

>  <smiles>  (28) 
[H]c1c([H])c([H])c2c(c1[H])C([H])([H])C([H])([H])C([H])([H])C2([H])N([H])C(=O)C1([H])N(C(=O)C([H])(N([H])C(=O)C([H])(N([H])C([H])([H])[H])C([H])([H])[H])C(C([H])([H])[H])(C([H])([H])[H])C([H])([H])[H])C([H])([H])c2c([H])c(OC([H])(C([H])([H])[H])C([H])([H])C([H])([H])c3c([H])c(C([H])([H])[H])c(N(C(=O)N4C([H])([H])C([H])([H])C([H])([H])C([H])(n5nc(-c6c([H])c([H])c(Oc7c([H])c([H])c(F)c([H])c7F)c([H])c6[H])c(C(=O)N([H])[H])c5N([H])[H])C4([H])[H])C([H])([H])[H])c(C4([H])C([H])([H])C([H])([H])C4([H])[H])c3[H])c([H])c([H])c2C1([H])[H]

$$$$
28:0:0
     RDKit          3D

 87 95  0  0  1  0  0  0  0  0999 V2000
  -30.3860  -15.5470   20.3520 C   0  0  0  0  0  0  0  0  0  0  0  0
  -30.3430  -13.0650   19.4560 C   0  0  0  0  0  2  0  0  0  0  0  0
  -29.4450  -12.7280   18.2390 C   0  0  0  0  0  2  0  0  0  0  0  0
  -28.0130  -12.4120   18.6930 C   0  0  0  0  0  2  0  0  0  0  0  0
  -27.5290  -13.4050   19.7770 C   0  0  0  0  0  3  0  0  0  0  0  0
  -28.5680  -13.6760   20.8890 C   0  0  0  0  0  2  0  0  0  0  0  0
  -29.7540  -14.2500   20.2180 N   0  0  0  0  0  0  0  0  0  0  0  0
  -31.6170  -15.3840   20.2610 O   0  0  0  0  0  0  0  0  0  0  0  0
  -28.5030  -17.7940   20.2440 C   0  0  0  0  0  2  0  0  0  0  0  0
  -30.6200  -18.2500   20.9480 C   0  0  0  0  0  2  0  0  0  0  0  0
  -28.2620  -19.5000   19.9520 C   0  0  0  0  0  2  0  0  0  0  0  0
  -30.4320  -19.8990   20.5310 C   0  0  0  0  0  3  0  0  0  0  0  0
  -31.1230  -20.1240   19.1690 C   0  0  0  0  0  1  0  0  0  0  0  0
  -29.8410  -16.9930   20.4410 N   0  0  0  0  0  0  0  0  0  0  0  0
  -29.0760  -20.6890   20.5930 N   0  0  1  0  0  4  0  0  0  0  0  0
  -28.8220  -20.6830   21.5710 H   0  0  0  0  0  0  0  0  0  0  0  0
  -25.1660  -13.9450   20.5320 C   0  0  0  0  0  0  0  0  0  0  0  0
  -24.1040  -13.1660   20.8910 C   0  0  0  0  0  0  0  0  0  0  0  0
  -24.5740  -11.8170   20.8670 C   0  0  0  0  0  0  0  0  0  0  0  0
  -26.2110  -13.0740   20.2960 N   0  0  0  0  0  0  0  0  0  0  0  0
  -25.8700  -11.7860   20.5670 N   0  0  0  0  0  0  0  0  0  0  0  0
  -23.8460  -10.5540   21.0510 C   0  0  0  0  0  0  0  0  0  0  0  0
  -24.2690   -9.5850   21.9860 C   0  0  0  0  0  3  0  0  0  0  0  0
  -23.5370   -8.3910   22.1620 C   0  0  0  0  0  3  0  0  0  0  0  0
  -22.3670   -8.1560   21.4000 C   0  0  0  0  0  0  0  0  0  0  0  0
  -21.9630   -9.1140   20.4530 C   0  0  0  0  0  3  0  0  0  0  0  0
  -22.6960  -10.2990   20.2770 C   0  0  0  0  0  3  0  0  0  0  0  0
  -21.6080   -7.0140   21.4850 O   0  0  0  0  0  0  0  0  0  0  0  0
  -21.5500   -6.2710   22.6370 C   0  0  0  0  0  0  0  0  0  0  0  0
  -21.1220   -6.8270   23.8620 C   0  0  0  0  0  3  0  0  0  0  0  0
  -21.0110   -6.0110   25.0050 C   0  0  0  0  0  3  0  0  0  0  0  0
  -21.3190   -4.6400   24.9240 C   0  0  0  0  0  0  0  0  0  0  0  0
  -21.7410   -4.0830   23.7040 C   0  0  0  0  0  3  0  0  0  0  0  0
  -21.8520   -4.8970   22.5630 C   0  0  0  0  0  0  0  0  0  0  0  0
  -22.2390   -4.3500   21.3850 F   0  0  0  0  0  0  0  0  0  0  0  0
  -21.2060   -3.8540   26.0210 F   0  0  0  0  0  0  0  0  0  0  0  0
  -22.7030  -13.6430   21.1390 C   0  0  0  0  0  0  0  0  0  0  0  0
  -21.9660  -12.9550   22.0050 N   0  0  0  0  0  0  0  0  0  0  0  0
  -22.2710  -14.6620   20.6020 O   0  0  0  0  0  0  0  0  0  0  0  0
  -22.3300  -12.1310   22.4610 H   0  0  0  0  0  0  0  0  0  0  0  0
  -21.0260  -13.2580   22.2150 H   0  0  0  0  0  0  0  0  0  0  0  0
  -25.3270  -15.3160   20.3530 N   0  0  0  0  0  0  0  0  0  0  0  0
  -24.5580  -15.9690   20.4590 H   0  0  0  0  0  0  0  0  0  0  0  0
  -26.1790  -15.7530   20.0290 H   0  0  0  0  0  0  0  0  0  0  0  0
  -29.0330  -22.3840   20.1560 C   0  0  0  0  0  3  0  0  0  0  0  0
  -28.0790  -23.9670   20.5590 C   0  0  0  0  0  3  0  0  0  0  0  0
  -28.2540  -25.6820   20.4000 O   0  0  0  0  0  0  0  0  0  0  0  0
  -24.6660  -31.8880   23.2370 C   0  0  0  0  0  0  0  0  0  0  0  0
  -27.2490  -26.8370   20.3610 C   0  0  0  0  0  0  0  0  0  0  0  0
  -23.4970  -30.4560   21.6160 C   0  0  0  0  0  3  0  0  0  0  0  0
  -24.9640  -28.8040   20.2470 C   0  0  0  0  0  0  0  0  0  0  0  0
  -26.0720  -30.6340   21.5040 C   0  0  0  0  0  2  0  0  0  0  0  0
  -26.1510  -29.1970   20.8770 C   0  0  0  0  0  0  0  0  0  0  0  0
  -27.2840  -28.2400   20.8980 C   0  0  0  0  0  3  0  0  0  0  0  0
  -26.0260  -26.6310   19.6780 C   0  0  0  0  0  3  0  0  0  0  0  0
  -24.9360  -27.5450   19.6240 C   0  0  0  0  0  3  0  0  0  0  0  0
  -23.7500  -29.7400   20.2590 C   0  0  0  0  0  2  0  0  0  0  0  0
  -24.7680  -31.0250   22.1710 N   0  0  0  0  0  0  0  0  0  0  0  0
  -23.5690  -32.1880   23.7360 O   0  0  0  0  0  0  0  0  0  0  0  0
  -22.7850  -29.4860   22.5960 C   0  0  0  0  0  0  0  0  0  0  0  0
  -21.4550  -29.3250   22.4650 N   0  0  0  0  0  0  0  0  0  0  0  0
  -23.4400  -28.8770   23.4450 O   0  0  0  0  0  0  0  0  0  0  0  0
  -20.9770  -29.8660   21.7590 H   0  0  0  0  0  0  0  0  0  0  0  0
  -18.0670  -28.1160   22.9760 C   0  0  0  0  0  0  0  0  0  0  0  0
  -20.6250  -28.3990   23.2480 C   0  0  0  0  0  3  0  0  0  0  0  0
  -20.7340  -26.9560   22.6990 C   0  0  0  0  0  2  0  0  0  0  0  0
  -19.6400  -26.6120   21.6840 C   0  0  0  0  0  2  0  0  0  0  0  0
  -18.2540  -26.7590   22.3180 C   0  0  0  0  0  2  0  0  0  0  0  0
  -19.1810  -28.8930   23.3980 C   0  0  0  0  0  0  0  0  0  0  0  0
  -18.9480  -30.1580   23.9770 C   0  0  0  0  0  3  0  0  0  0  0  0
  -17.6390  -30.6500   24.1360 C   0  0  0  0  0  3  0  0  0  0  0  0
  -16.5410  -29.8730   23.7280 C   0  0  0  0  0  3  0  0  0  0  0  0
  -16.7560  -28.6070   23.1540 C   0  0  0  0  0  3  0  0  0  0  0  0
  -25.9220  -32.5540   23.8750 C   0  0  0  0  0  3  0  0  0  0  0  0
  -25.5880  -33.9560   24.1910 N   0  0  0  0  0  0  0  0  0  0  0  0
  -25.9150  -35.0150   23.4380 C   0  0  0  0  0  0  0  0  0  0  0  0
  -26.5890  -34.9150   22.4100 O   0  0  0  0  0  0  0  0  0  0  0  0
  -24.9870  -34.1050   24.9880 H   0  0  0  0  0  0  0  0  0  0  0  0
  -24.1710  -36.8000   23.0920 C   0  0  0  0  0  1  0  0  0  0  0  0
  -25.4200  -36.4040   23.8950 C   0  0  0  0  0  3  0  0  0  0  0  0
  -27.5520  -37.3150   24.7090 C   0  0  0  0  0  1  0  0  0  0  0  0
  -26.4420  -37.4660   23.7700 N   0  0  0  0  0  0  0  0  0  0  0  0
  -26.0290  -38.3830   23.9130 H   0  0  0  0  0  0  0  0  0  0  0  0
  -26.4190  -31.8140   25.1800 C   0  0  1  0  0  0  0  0  0  0  0  0
  -25.3090  -31.5980   26.2360 C   0  0  0  0  0  1  0  0  0  0  0  0
  -27.0130  -30.4290   24.8400 C   0  0  0  0  0  1  0  0  0  0  0  0
  -27.5560  -32.6270   25.8420 C   0  0  0  0  0  1  0  0  0  0  0  0
  1 14  1  0
  2  7  1  0
  3  4  1  0
  3  2  1  0
  5  4  1  0
  5 20  1  0
  5  6  1  0
  7  1  1  0
  7  6  1  0
  8  1  2  0
  9 14  1  0
 11  9  1  0
 11 15  1  0
 12 13  1  0
 12 15  1  0
 12 10  1  0
 14 10  1  0
 15 16  1  1
 17 18  2  0
 18 37  1  0
 19 18  1  0
 19 22  1  0
 20 17  1  0
 20 21  1  0
 21 19  2  0
 22 23  1  0
 23 24  2  0
 25 28  1  0
 25 24  1  0
 26 25  2  0
 27 26  1  0
 27 22  2  0
 28 29  1  0
 29 30  1  0
 30 31  2  0
 32 31  1  0
 32 36  1  0
 33 32  2  0
 34 29  2  0
 34 33  1  0
 35 34  1  0
 37 38  1  0
 38 41  1  0
 38 40  1  0
 39 37  2  0
 42 43  1  0
 42 17  1  0
 44 42  1  0
 45 46  2  0
 45 15  1  0
 47 46  1  0
 48 59  2  0
 49 47  1  0
 49 54  1  0
 50 58  1  0
 50 60  1  0
 51 57  1  0
 51 53  1  0
 52 58  1  0
 53 54  2  0
 53 52  1  0
 55 49  2  0
 56 55  1  0
 56 51  2  0
 57 50  1  0
 58 48  1  0
 60 62  2  0
 61 60  1  0
 63 61  1  0
 64 73  2  0
 64 69  1  0
 65 61  1  0
 65 69  1  0
 66 65  1  0
 67 68  1  0
 67 66  1  0
 68 64  1  0
 69 70  2  0
 70 71  1  0
 72 71  2  0
 73 72  1  0
 74 48  1  0
 74 75  1  0
 74 84  1  0
 75 78  1  0
 76 80  1  0
 76 75  1  0
 77 76  2  0
 80 79  1  0
 82 80  1  0
 82 83  1  0
 82 81  1  0
 84 87  1  1
 84 85  1  0
 86 84  1  0
M  ISO  4   1 100  14 100  46 101  47 101
M  END
>  <TORSDO>  (29) 
F 17

>  <SCORE>  (29) 
-16.707

>  <name>  (29) 
28

>  <ligand_id>  (29) 
28

>  <original_smiles>  (29) 
[H]c1c([H])c([H])c2c(c1[H])C([H])([H])C([H])([H])C([H])([H])C2([H])N([H])C(=O)C1([H])N(C(=O)C([H])(N([H])C(=O)C([H])(N([H])C([H])([H])[H])C([H])([H])[H])C(C([H])([H])[H])(C([H])([H])[H])C([H])([H])[H])C([H])([H])c2c([H])c(OC([H])([H])C([H])([H])[N+]3([H])C([H])([H])C([H])([H])N(C(=O)N4C([H])([H])C([H])([H])C([H])([H])C([H])(n5nc(-c6c([H])c([H])c(Oc7c([H])c([H])c(F)c([H])c7F)c([H])c6[H])c(C(=O)N([H])[H])c5N([H])[H])C4([H])[H])C([H])([H])C3([H])C([H])([H])[H])c([H])c([H])c2C1([H])[H]

>  <smiles>  (29) 
[H]c1c([H])c([H])c2c(c1[H])C([H])([H])C([H])([H])C([H])([H])C2([H])N([H])C(=O)C1([H])N(C(=O)C([H])(N([H])C(=O)C([H])(N([H])C([H])([H])[H])C([H])([H])[H])C(C([H])([H])[H])(C([H])([H])[H])C([H])([H])[H])C([H])([H])c2c([H])c(OC([H])([H])C([H])([H])[N+]3([H])C([H])([H])C([H])([H])N(C(=O)N4C([H])([H])C([H])([H])C([H])([H])C([H])(n5nc(-c6c([H])c([H])c(Oc7c([H])c([H])c(F)c([H])c7F)c([H])c6[H])c(C(=O)N([H])[H])c5N([H])[H])C4([H])[H])C([H])([H])C3([H])C([H])([H])[H])c([H])c([H])c2C1([H])[H]

$$$$
29:0:0
     RDKit          3D

102114  0  0  1  0  0  0  0  0999 V2000
  -28.0860  -23.4930   19.5370 C   0  0  0  0  0  3  0  0  0  0  0  0
  -30.1010  -22.0470   20.8260 C   0  0  0  0  0  3  0  0  0  0  0  0
  -28.3870  -22.1710   19.1080 C   0  0  0  0  0  0  0  0  0  0  0  0
  -28.7740  -24.1120   20.6000 C   0  0  0  0  0  0  0  0  0  0  0  0
  -29.4260  -21.4250   19.7470 C   0  0  0  0  0  0  0  0  0  0  0  0
  -29.7830  -23.3590   21.2500 C   0  0  0  0  0  0  0  0  0  0  0  0
  -30.4640  -23.8920   22.2930 F   0  0  0  0  0  0  0  0  0  0  0  0
  -26.1110  -21.8080   17.8280 C   0  0  0  0  0  2  0  0  0  0  0  0
  -26.6730  -20.4390   18.1160 C   0  0  0  0  0  2  0  0  0  0  0  0
  -27.6080  -21.6160   17.9460 C   0  0  0  0  0  3  0  0  0  0  0  0
  -28.3500  -25.5030   21.1230 C   0  0  0  0  0  2  0  0  0  0  0  0
  -28.4160  -26.6120   20.1950 O   0  0  0  0  0  0  0  0  0  0  0  0
  -24.5880  -31.8580   23.2230 C   0  0  0  0  0  0  0  0  0  0  0  0
  -27.2830  -27.4050   20.1820 C   0  0  0  0  0  0  0  0  0  0  0  0
  -23.4120  -30.4580   21.5600 C   0  0  0  0  0  3  0  0  0  0  0  0
  -24.8930  -28.9250   20.1530 C   0  0  0  0  0  0  0  0  0  0  0  0
  -25.9410  -30.8160   21.4050 C   0  0  0  0  0  2  0  0  0  0  0  0
  -26.0440  -29.4450   20.7620 C   0  0  0  0  0  0  0  0  0  0  0  0
  -27.2450  -28.6930   20.7730 C   0  0  0  0  0  3  0  0  0  0  0  0
  -26.1190  -26.9080   19.5600 C   0  0  0  0  0  3  0  0  0  0  0  0
  -24.9270  -27.6580   19.5470 C   0  0  0  0  0  3  0  0  0  0  0  0
  -23.6450  -29.7800   20.1830 C   0  0  0  0  0  2  0  0  0  0  0  0
  -24.6640  -31.0600   22.1200 N   0  0  0  0  0  0  0  0  0  0  0  0
  -23.4960  -32.1280   23.7470 O   0  0  0  0  0  0  0  0  0  0  0  0
  -22.7450  -29.4350   22.5080 C   0  0  0  0  0  0  0  0  0  0  0  0
  -21.4210  -29.2620   22.3680 N   0  0  0  0  0  0  0  0  0  0  0  0
  -23.4170  -28.7990   23.3240 O   0  0  0  0  0  0  0  0  0  0  0  0
  -20.9400  -29.8240   21.6800 H   0  0  0  0  0  0  0  0  0  0  0  0
  -18.0310  -28.0990   22.8440 C   0  0  0  0  0  0  0  0  0  0  0  0
  -20.5920  -28.3230   23.1240 C   0  0  0  0  0  3  0  0  0  0  0  0
  -20.6790  -26.8990   22.5270 C   0  0  0  0  0  2  0  0  0  0  0  0
  -19.5760  -26.6040   21.5060 C   0  0  0  0  0  2  0  0  0  0  0  0
  -18.1940  -26.7560   22.1500 C   0  0  0  0  0  2  0  0  0  0  0  0
  -19.1590  -28.8410   23.2860 C   0  0  0  0  0  0  0  0  0  0  0  0
  -18.9530  -30.0990   23.8950 C   0  0  0  0  0  3  0  0  0  0  0  0
  -17.6550  -30.6130   24.0650 C   0  0  0  0  0  3  0  0  0  0  0  0
  -16.5420  -29.8670   23.6390 C   0  0  0  0  0  3  0  0  0  0  0  0
  -16.7310  -28.6120   23.0350 C   0  0  0  0  0  3  0  0  0  0  0  0
  -25.8620  -32.4900   23.8660 C   0  0  0  0  0  3  0  0  0  0  0  0
  -25.5490  -33.8900   24.1870 N   0  0  0  0  0  0  0  0  0  0  0  0
  -25.8940  -34.9390   23.4280 C   0  0  0  0  0  0  0  0  0  0  0  0
  -26.5810  -34.8300   22.4080 O   0  0  0  0  0  0  0  0  0  0  0  0
  -24.9440  -34.0490   24.9790 H   0  0  0  0  0  0  0  0  0  0  0  0
  -24.1790  -36.7340   23.0300 C   0  0  0  0  0  1  0  0  0  0  0  0
  -25.4000  -36.3290   23.8710 C   0  0  0  0  0  3  0  0  0  0  0  0
  -27.5110  -37.2150   24.7570 C   0  0  0  0  0  1  0  0  0  0  0  0
  -26.4370  -37.3800   23.7810 N   0  0  0  0  0  0  0  0  0  0  0  0
  -26.0290  -38.3020   23.9110 H   0  0  0  0  0  0  0  0  0  0  0  0
  -26.3570  -31.7230   25.1520 C   0  0  1  0  0  0  0  0  0  0  0  0
  -25.2460  -31.4870   26.2010 C   0  0  0  0  0  1  0  0  0  0  0  0
  -26.9470  -30.3440   24.7710 C   0  0  0  0  0  1  0  0  0  0  0  0
  -27.4970  -32.5170   25.8320 C   0  0  0  0  0  1  0  0  0  0  0  0
  -29.9010  -20.0500   19.1830 C   0  0  0  0  0  3  0  0  0  0  0  0
  -30.9990  -17.6320   19.7090 C   0  0  0  0  0  2  0  0  0  0  0  0
  -29.4190  -18.0480   20.9920 C   0  0  0  0  0  2  0  0  0  0  0  0
  -30.3960  -18.9720   20.2100 C   0  0  0  0  0  3  0  0  0  0  0  0
  -30.5160  -16.9520   20.9970 C   0  0  0  0  0  3  0  0  0  0  0  0
  -30.7510  -14.5050   20.3640 C   0  0  0  0  0  0  0  0  0  0  0  0
  -30.4440  -12.3290   19.2370 C   0  0  0  0  0  2  0  0  0  0  0  0
  -29.5040  -12.5160   18.0280 C   0  0  0  0  0  2  0  0  0  0  0  0
  -28.0300  -12.3890   18.4580 C   0  0  0  0  0  2  0  0  0  0  0  0
  -27.6930  -13.2440   19.7100 C   0  0  0  0  0  3  0  0  0  0  0  0
  -28.7470  -13.0390   20.8220 C   0  0  0  0  0  2  0  0  0  0  0  0
  -30.0690  -13.3320   20.2470 N   0  0  0  0  0  0  0  0  0  0  0  0
  -31.8990  -14.6480   19.9340 O   0  0  0  0  0  0  0  0  0  0  0  0
  -30.0430  -15.5580   20.8350 N   0  0  0  0  0  0  0  0  0  0  0  0
  -29.1000  -15.3580   21.1340 H   0  0  0  0  0  0  0  0  0  0  0  0
  -25.3010  -13.8740   20.4130 C   0  0  0  0  0  0  0  0  0  0  0  0
  -24.2270  -13.1120   20.7890 C   0  0  0  0  0  0  0  0  0  0  0  0
  -24.6770  -11.7570   20.7700 C   0  0  0  0  0  0  0  0  0  0  0  0
  -26.3390  -12.9820   20.1910 N   0  0  0  0  0  0  0  0  0  0  0  0
  -25.9680  -11.7050   20.4640 N   0  0  0  0  0  0  0  0  0  0  0  0
  -23.9420  -10.5020   20.9710 C   0  0  0  0  0  0  0  0  0  0  0  0
  -24.3580   -9.5460   21.9230 C   0  0  0  0  0  3  0  0  0  0  0  0
  -23.6230   -8.3550   22.1100 C   0  0  0  0  0  3  0  0  0  0  0  0
  -22.4580   -8.1130   21.3440 C   0  0  0  0  0  0  0  0  0  0  0  0
  -22.0620   -9.0570   20.3810 C   0  0  0  0  0  3  0  0  0  0  0  0
  -22.7970  -10.2390   20.1930 C   0  0  0  0  0  3  0  0  0  0  0  0
  -21.6960   -6.9730   21.4400 O   0  0  0  0  0  0  0  0  0  0  0  0
  -21.6240   -6.2500   22.6040 C   0  0  0  0  0  0  0  0  0  0  0  0
  -21.1570   -6.8210   23.8070 C   0  0  0  0  0  3  0  0  0  0  0  0
  -21.0350   -6.0240   24.9630 C   0  0  0  0  0  3  0  0  0  0  0  0
  -21.3680   -4.6570   24.9150 C   0  0  0  0  0  0  0  0  0  0  0  0
  -21.8270   -4.0860   23.7150 C   0  0  0  0  0  3  0  0  0  0  0  0
  -21.9520   -4.8800   22.5620 C   0  0  0  0  0  0  0  0  0  0  0  0
  -22.3750   -4.3200   21.4030 F   0  0  0  0  0  0  0  0  0  0  0  0
  -21.2420   -3.8890   26.0230 F   0  0  0  0  0  0  0  0  0  0  0  0
  -22.8330  -13.6030   21.0560 C   0  0  0  0  0  0  0  0  0  0  0  0
  -22.0970  -12.9170   21.9240 N   0  0  0  0  0  0  0  0  0  0  0  0
  -22.4050  -14.6290   20.5290 O   0  0  0  0  0  0  0  0  0  0  0  0
  -22.4570  -12.0870   22.3710 H   0  0  0  0  0  0  0  0  0  0  0  0
  -21.1620  -13.2270   22.1460 H   0  0  0  0  0  0  0  0  0  0  0  0
  -25.4760  -15.2400   20.2240 N   0  0  0  0  0  0  0  0  0  0  0  0
  -24.7130  -15.9000   20.3230 H   0  0  0  0  0  0  0  0  0  0  0  0
  -26.3270  -15.6710   19.8870 H   0  0  0  0  0  0  0  0  0  0  0  0
  -30.9000  -20.3210   18.0090 C   0  0  0  0  0  3  0  0  0  0  0  0
  -33.3570  -21.2010   17.5790 C   0  0  0  0  0  2  0  0  0  0  0  0
  -32.8770  -21.8760   18.8430 C   0  0  0  0  0  2  0  0  0  0  0  0
  -32.3430  -20.5140   18.4640 C   0  0  0  0  0  3  0  0  0  0  0  0
  -29.5720  -19.0870   16.0590 C   0  0  0  0  0  2  0  0  0  0  0  0
  -30.7810  -19.7420   15.4340 C   0  0  0  0  0  2  0  0  0  0  0  0
  -30.8250  -19.2970   16.8790 C   0  0  0  0  0  3  0  0  0  0  0  0
  1  4  1  0
  2  6  1  0
  3  1  2  0
  3  5  1  0
  4 11  1  0
  4  6  2  0
  5  2  2  0
  6  7  1  0
  8 10  1  0
  8  9  1  0
 10  9  1  0
 10  3  1  0
 12 11  1  0
 13 24  2  0
 14 12  1  0
 14 19  1  0
 15 23  1  0
 15 25  1  0
 16 22  1  0
 16 18  1  0
 17 23  1  0
 18 19  2  0
 18 17  1  0
 20 14  2  0
 21 20  1  0
 21 16  2  0
 22 15  1  0
 23 13  1  0
 25 27  2  0
 26 25  1  0
 28 26  1  0
 29 38  2  0
 29 34  1  0
 30 26  1  0
 30 34  1  0
 31 30  1  0
 32 33  1  0
 32 31  1  0
 33 29  1  0
 34 35  2  0
 35 36  1  0
 37 36  2  0
 38 37  1  0
 39 13  1  0
 39 40  1  0
 39 49  1  0
 40 43  1  0
 41 45  1  0
 41 40  1  0
 42 41  2  0
 45 44  1  0
 47 45  1  0
 47 48  1  0
 47 46  1  0
 49 52  1  1
 49 50  1  0
 51 49  1  0
 53 96  1  0
 53  5  1  0
 54 56  1  0
 54 57  1  0
 55 57  1  0
 56 53  1  0
 56 55  1  0
 57 66  1  0
 58 66  1  0
 59 64  1  0
 60 61  1  0
 60 59  1  0
 62 61  1  0
 62 71  1  0
 62 63  1  0
 64 58  1  0
 64 63  1  0
 65 58  2  0
 66 67  1  0
 68 69  2  0
 69 88  1  0
 70 69  1  0
 70 73  1  0
 71 68  1  0
 71 72  1  0
 72 70  2  0
 73 74  1  0
 74 75  2  0
 76 79  1  0
 76 75  1  0
 77 76  2  0
 78 77  1  0
 78 73  2  0
 79 80  1  0
 80 81  1  0
 81 82  2  0
 83 82  1  0
 83 87  1  0
 84 83  2  0
 85 80  2  0
 85 84  1  0
 86 85  1  0
 88 89  1  0
 89 92  1  0
 89 91  1  0
 90 88  2  0
 93 94  1  0
 93 68  1  0
 95 93  1  0
 96 99  1  0
 97 99  1  0
 97 98  1  0
 99 98  1  0
100102  1  0
101100  1  0
101102  1  0
102 96  1  0
M  ISO  4  11 101  12 101  58 100  66 100
M  END
>  <TORSDO>  (30) 
F 23

>  <SCORE>  (30) 
-13.361

>  <name>  (30) 
29

>  <ligand_id>  (30) 
29

>  <original_smiles>  (30) 
[H]c1c([H])c([H])c2c(c1[H])C([H])([H])C([H])([H])C([H])([H])C2([H])N([H])C(=O)C1([H])N(C(=O)C([H])(N([H])C(=O)C([H])(N([H])C([H])([H])[H])C([H])([H])[H])C(C([H])([H])[H])(C([H])([H])[H])C([H])([H])[H])C([H])([H])c2c([H])c(OC([H])([H])c3c([H])c(C4([H])C([H])([H])C4([H])[H])c(C([H])(C4([H])C([H])([H])C([H])(N([H])C(=O)N5C([H])([H])C([H])([H])C([H])([H])C([H])(n6nc(-c7c([H])c([H])c(Oc8c([H])c([H])c(F)c([H])c8F)c([H])c7[H])c(C(=O)N([H])[H])c6N([H])[H])C5([H])[H])C4([H])[H])C([H])(C4([H])C([H])([H])C4([H])[H])C4([H])C([H])([H])C4([H])[H])c([H])c3F)c([H])c([H])c2C1([H])[H]

>  <smiles>  (30) 
[H]c1c([H])c([H])c2c(c1[H])C([H])([H])C([H])([H])C([H])([H])C2([H])N([H])C(=O)C1([H])N(C(=O)C([H])(N([H])C(=O)C([H])(N([H])C([H])([H])[H])C([H])([H])[H])C(C([H])([H])[H])(C([H])([H])[H])C([H])([H])[H])C([H])([H])c2c([H])c(OC([H])([H])c3c([H])c(C4([H])C([H])([H])C4([H])[H])c(C([H])(C4([H])C([H])([H])C([H])(N([H])C(=O)N5C([H])([H])C([H])([H])C([H])([H])C([H])(n6nc(-c7c([H])c([H])c(Oc8c([H])c([H])c(F)c([H])c8F)c([H])c7[H])c(C(=O)N([H])[H])c6N([H])[H])C5([H])[H])C4([H])[H])C([H])(C4([H])C([H])([H])C4([H])[H])C4([H])C([H])([H])C4([H])[H])c([H])c3F)c([H])c([H])c2C1([H])[H]

$$$$
30:0:0
     RDKit          3D

102112  0  0  1  0  0  0  0  0999 V2000
  -30.4910  -23.2080   18.1720 C   0  0  0  0  0  3  0  0  0  0  0  0
  -30.6310  -22.0730   17.3500 C   0  0  0  0  0  3  0  0  0  0  0  0
  -29.8180  -20.6850   19.1780 C   0  0  0  0  0  0  0  0  0  0  0  0
  -29.9750  -23.1070   19.4870 C   0  0  0  0  0  0  0  0  0  0  0  0
  -29.6250  -21.8240   20.0110 C   0  0  0  0  0  0  0  0  0  0  0  0
  -30.2610  -20.8240   17.8690 C   0  0  0  0  0  0  0  0  0  0  0  0
  -29.4990  -18.7080   17.9560 C   0  0  0  0  0  2  0  0  0  0  0  0
  -29.5360  -19.2120   19.4210 C   0  0  0  0  0  3  0  0  0  0  0  0
  -29.0340  -21.6910   21.4060 C   0  0  0  0  0  1  0  0  0  0  0  0
  -30.2520  -19.6490   17.1730 O   0  0  0  0  0  0  0  0  0  0  0  0
  -30.6380  -18.4440   20.1960 C   0  0  0  0  0  0  0  0  0  0  0  0
  -31.8310  -18.6670   19.9650 O   0  0  0  0  0  0  0  0  0  0  0  0
  -31.0430  -17.2650   23.5370 C   0  0  0  0  0  2  0  0  0  0  0  0
  -30.1890  -17.4730   21.3050 C   0  0  0  0  0  3  0  0  0  0  0  0
  -31.0550  -15.8640   22.9070 C   0  0  0  0  0  3  0  0  0  0  0  0
  -30.9970  -16.1460   21.3850 C   0  0  0  0  0  3  0  0  0  0  0  0
  -30.4410  -18.1970   22.5690 N   0  0  0  0  0  4  0  0  0  0  0  0
  -31.0990  -18.9410   22.3890 H   0  0  0  0  0  0  0  0  0  0  0  0
  -29.5900  -18.5950   22.9360 H   0  0  0  0  0  0  0  0  0  0  0  0
  -32.1810  -14.8790   24.9820 C   0  0  0  0  0  1  0  0  0  0  0  0
  -32.1850  -13.5380   22.8730 C   0  0  0  0  0  1  0  0  0  0  0  0
  -32.2090  -14.9670   23.4410 C   0  0  0  0  0  3  0  0  0  0  0  0
  -30.3020  -15.0560   20.7650 O   0  0  0  0  0  0  0  0  0  0  0  0
  -30.8490  -14.2740   19.7980 C   0  0  0  0  0  0  0  0  0  0  0  0
  -30.2690  -12.2810   18.4100 C   0  0  0  0  0  2  0  0  0  0  0  0
  -29.2100  -12.6560   17.3560 C   0  0  0  0  0  2  0  0  0  0  0  0
  -27.7860  -12.5530   17.9390 C   0  0  0  0  0  2  0  0  0  0  0  0
  -27.6410  -13.2800   19.3040 C   0  0  0  0  0  3  0  0  0  0  0  0
  -28.7800  -12.8680   20.2590 C   0  0  0  0  0  2  0  0  0  0  0  0
  -30.0540  -13.1390   19.5780 N   0  0  0  0  0  0  0  0  0  0  0  0
  -31.8810  -14.5500   19.1850 O   0  0  0  0  0  0  0  0  0  0  0  0
  -25.3930  -13.9640   20.3540 C   0  0  0  0  0  0  0  0  0  0  0  0
  -24.3100  -13.2290   20.7540 C   0  0  0  0  0  0  0  0  0  0  0  0
  -24.6500  -11.8630   20.5110 C   0  0  0  0  0  0  0  0  0  0  0  0
  -26.3280  -13.0470   19.8980 N   0  0  0  0  0  0  0  0  0  0  0  0
  -25.8900  -11.7720   20.0480 N   0  0  0  0  0  0  0  0  0  0  0  0
  -23.8480  -10.6400   20.6360 C   0  0  0  0  0  0  0  0  0  0  0  0
  -24.3250   -9.5120   21.3390 C   0  0  0  0  0  3  0  0  0  0  0  0
  -23.5280   -8.3530   21.4610 C   0  0  0  0  0  3  0  0  0  0  0  0
  -22.2390   -8.3160   20.8800 C   0  0  0  0  0  0  0  0  0  0  0  0
  -21.7770   -9.4330   20.1610 C   0  0  0  0  0  3  0  0  0  0  0  0
  -22.5740  -10.5830   20.0360 C   0  0  0  0  0  3  0  0  0  0  0  0
  -21.4030   -7.2250   20.9250 O   0  0  0  0  0  0  0  0  0  0  0  0
  -21.4920   -6.2920   21.9260 C   0  0  0  0  0  0  0  0  0  0  0  0
  -21.3970   -6.6510   23.2890 C   0  0  0  0  0  3  0  0  0  0  0  0
  -21.4230   -5.6520   24.2830 C   0  0  0  0  0  3  0  0  0  0  0  0
  -21.5340   -4.2970   23.9180 C   0  0  0  0  0  0  0  0  0  0  0  0
  -21.6240   -3.9380   22.5610 C   0  0  0  0  0  3  0  0  0  0  0  0
  -21.6000   -4.9330   21.5680 C   0  0  0  0  0  0  0  0  0  0  0  0
  -21.6650   -4.5800   20.2620 F   0  0  0  0  0  0  0  0  0  0  0  0
  -21.5520   -3.3370   24.8710 F   0  0  0  0  0  0  0  0  0  0  0  0
  -22.9970  -13.7630   21.2460 C   0  0  0  0  0  0  0  0  0  0  0  0
  -22.3160  -13.0180   22.1090 N   0  0  0  0  0  0  0  0  0  0  0  0
  -22.5880  -14.8720   20.9030 O   0  0  0  0  0  0  0  0  0  0  0  0
  -22.6600  -12.1170   22.4070 H   0  0  0  0  0  0  0  0  0  0  0  0
  -21.4370  -13.3530   22.4780 H   0  0  0  0  0  0  0  0  0  0  0  0
  -25.6540  -15.3320   20.3190 N   0  0  0  0  0  0  0  0  0  0  0  0
  -24.9610  -16.0220   20.5870 H   0  0  0  0  0  0  0  0  0  0  0  0
  -26.4910  -15.7410   19.9240 H   0  0  0  0  0  0  0  0  0  0  0  0
  -29.8190  -24.4130   20.2770 C   0  0  0  0  0  2  0  0  0  0  0  0
  -28.5360  -25.2000   19.9250 C   0  0  0  0  0  2  0  0  0  0  0  0
  -28.5920  -26.5450   20.4210 O   0  0  0  0  0  0  0  0  0  0  0  0
  -24.8970  -31.6660   23.7030 C   0  0  0  0  0  0  0  0  0  0  0  0
  -27.4330  -27.3040   20.4090 C   0  0  0  0  0  0  0  0  0  0  0  0
  -23.6730  -30.4170   21.9530 C   0  0  0  0  0  3  0  0  0  0  0  0
  -25.0960  -28.9090   20.4650 C   0  0  0  0  0  0  0  0  0  0  0  0
  -26.2180  -30.6750   21.8340 C   0  0  0  0  0  2  0  0  0  0  0  0
  -26.2600  -29.3450   21.1100 C   0  0  0  0  0  0  0  0  0  0  0  0
  -27.4290  -28.5500   21.0780 C   0  0  0  0  0  3  0  0  0  0  0  0
  -26.2470  -26.8890   19.7540 C   0  0  0  0  0  3  0  0  0  0  0  0
  -25.0850  -27.6810   19.7840 C   0  0  0  0  0  3  0  0  0  0  0  0
  -23.8870  -29.8160   20.5380 C   0  0  0  0  0  2  0  0  0  0  0  0
  -24.9460  -30.9310   22.5550 N   0  0  0  0  0  0  0  0  0  0  0  0
  -23.8150  -31.9530   24.2340 O   0  0  0  0  0  0  0  0  0  0  0  0
  -22.9600  -29.3660   22.8340 C   0  0  0  0  0  0  0  0  0  0  0  0
  -21.6330  -29.2450   22.6630 N   0  0  0  0  0  0  0  0  0  0  0  0
  -23.5960  -28.6690   23.6270 O   0  0  0  0  0  0  0  0  0  0  0  0
  -21.1840  -29.8620   22.0010 H   0  0  0  0  0  0  0  0  0  0  0  0
  -18.2080  -28.1380   22.9790 C   0  0  0  0  0  0  0  0  0  0  0  0
  -20.7610  -28.2970   23.3550 C   0  0  0  0  0  3  0  0  0  0  0  0
  -20.8400  -26.8940   22.7100 C   0  0  0  0  0  2  0  0  0  0  0  0
  -19.7670  -26.6600   21.6420 C   0  0  0  0  0  2  0  0  0  0  0  0
  -18.3670  -26.8180   22.2430 C   0  0  0  0  0  2  0  0  0  0  0  0
  -19.3340  -28.8390   23.4860 C   0  0  0  0  0  0  0  0  0  0  0  0
  -19.1360  -30.0790   24.1310 C   0  0  0  0  0  3  0  0  0  0  0  0
  -17.8430  -30.6160   24.2780 C   0  0  0  0  0  3  0  0  0  0  0  0
  -16.7300  -29.9100   23.7860 C   0  0  0  0  0  3  0  0  0  0  0  0
  -16.9150  -28.6750   23.1420 C   0  0  0  0  0  3  0  0  0  0  0  0
  -26.1940  -32.2010   24.3860 C   0  0  0  0  0  3  0  0  0  0  0  0
  -25.9230  -33.5750   24.8320 N   0  0  0  0  0  0  0  0  0  0  0  0
  -26.2940  -34.6770   24.1680 C   0  0  0  0  0  0  0  0  0  0  0  0
  -26.9740  -34.6420   23.1370 O   0  0  0  0  0  0  0  0  0  0  0  0
  -25.3240  -33.6780   25.6370 H   0  0  0  0  0  0  0  0  0  0  0  0
  -24.6140  -36.5350   23.9570 C   0  0  0  0  0  1  0  0  0  0  0  0
  -25.8410  -36.0360   24.7360 C   0  0  0  0  0  3  0  0  0  0  0  0
  -27.9980  -36.7870   25.6370 C   0  0  0  0  0  1  0  0  0  0  0  0
  -26.9010  -37.0670   24.7130 N   0  0  0  0  0  0  0  0  0  0  0  0
  -26.5200  -37.9820   24.9410 H   0  0  0  0  0  0  0  0  0  0  0  0
  -26.6750  -31.3070   25.5950 C   0  0  1  0  0  0  0  0  0  0  0  0
  -25.5640  -31.0140   26.6300 C   0  0  0  0  0  1  0  0  0  0  0  0
  -27.2180  -29.9490   25.0890 C   0  0  0  0  0  1  0  0  0  0  0  0
  -27.8410  -32.0070   26.3300 C   0  0  0  0  0  1  0  0  0  0  0  0
  1  4  1  0
  2  6  1  0
  2  1  2  0
  3  8  1  0
  3  5  1  0
  4  5  2  0
  4 60  1  0
  5  9  1  0
  6  3  2  0
  7  8  1  0
  8 11  1  0
 10  6  1  0
 10  7  1  0
 12 11  2  0
 14 11  1  0
 14 16  1  0
 14 17  1  0
 15 22  1  0
 15 13  1  0
 16 23  1  0
 16 15  1  0
 17 19  1  0
 17 13  1  0
 18 17  1  0
 21 22  1  0
 22 20  1  0
 24 23  1  0
 25 30  1  0
 26 27  1  0
 26 25  1  0
 28 27  1  0
 28 35  1  0
 28 29  1  0
 30 24  1  0
 30 29  1  0
 31 24  2  0
 32 33  2  0
 33 52  1  0
 34 37  1  0
 34 33  1  0
 35 36  1  0
 35 32  1  0
 36 34  2  0
 37 38  1  0
 38 39  2  0
 40 43  1  0
 40 39  1  0
 41 40  2  0
 42 41  1  0
 42 37  2  0
 43 44  1  0
 44 45  1  0
 45 46  2  0
 47 46  1  0
 47 51  1  0
 48 47  2  0
 49 44  2  0
 49 48  1  0
 50 49  1  0
 52 53  1  0
 53 55  1  0
 53 56  1  0
 54 52  2  0
 57 32  1  0
 57 58  1  0
 59 57  1  0
 61 60  1  0
 61 62  1  0
 63 74  2  0
 64 62  1  0
 64 69  1  0
 65 73  1  0
 65 75  1  0
 66 72  1  0
 66 68  1  0
 67 73  1  0
 68 67  1  0
 69 68  2  0
 70 71  1  0
 70 64  2  0
 71 66  2  0
 72 65  1  0
 73 63  1  0
 75 77  2  0
 76 75  1  0
 78 76  1  0
 79 88  2  0
 79 84  1  0
 80 76  1  0
 80 84  1  0
 81 80  1  0
 82 83  1  0
 82 81  1  0
 83 79  1  0
 84 85  2  0
 85 86  1  0
 87 86  2  0
 88 87  1  0
 89 63  1  0
 89 90  1  0
 89 99  1  0
 90 93  1  0
 91 95  1  0
 91 90  1  0
 92 91  2  0
 95 94  1  0
 97 95  1  0
 97 98  1  0
 97 96  1  0
 99102  1  1
 99100  1  0
101 99  1  0
M  ISO  4  23 100  24 100  61 101  62 101
M  END
>  <TORSDO>  (31) 
F 22

>  <SCORE>  (31) 
0.592

>  <name>  (31) 
30

>  <ligand_id>  (31) 
30

>  <original_smiles>  (31) 
[H]c1c([H])c([H])c2c(c1[H])C([H])([H])C([H])([H])C([H])([H])C2([H])N([H])C(=O)C1([H])N(C(=O)C([H])(N([H])C(=O)C([H])(N([H])C([H])([H])[H])C([H])([H])[H])C(C([H])([H])[H])(C([H])([H])[H])C([H])([H])[H])C([H])([H])c2c([H])c(OC([H])([H])C([H])([H])c3c([H])c([H])c4c(c3C([H])([H])[H])C([H])(C(=O)C3([H])C([H])(OC(=O)N5C([H])([H])C([H])([H])C([H])([H])C([H])(n6nc(-c7c([H])c([H])c(Oc8c([H])c([H])c(F)c([H])c8F)c([H])c7[H])c(C(=O)N([H])[H])c6N([H])[H])C5([H])[H])C([H])(C([H])(C([H])([H])[H])C([H])([H])[H])C([H])([H])[N+]3([H])[H])C([H])([H])O4)c([H])c([H])c2C1([H])[H]

>  <smiles>  (31) 
[H]c1c([H])c([H])c2c(c1[H])C([H])([H])C([H])([H])C([H])([H])C2([H])N([H])C(=O)C1([H])N(C(=O)C([H])(N([H])C(=O)C([H])(N([H])C([H])([H])[H])C([H])([H])[H])C(C([H])([H])[H])(C([H])([H])[H])C([H])([H])[H])C([H])([H])c2c([H])c(OC([H])([H])C([H])([H])c3c([H])c([H])c4c(c3C([H])([H])[H])C([H])(C(=O)C3([H])C([H])(OC(=O)N5C([H])([H])C([H])([H])C([H])([H])C([H])(n6nc(-c7c([H])c([H])c(Oc8c([H])c([H])c(F)c([H])c8F)c([H])c7[H])c(C(=O)N([H])[H])c6N([H])[H])C5([H])[H])C([H])(C([H])(C([H])([H])[H])C([H])([H])[H])C([H])([H])[N+]3([H])[H])C([H])([H])O4)c([H])c([H])c2C1([H])[H]

$$$$
31:0:0
     RDKit          3D

 96106  0  0  1  0  0  0  0  0999 V2000
  -28.6450  -24.5740   21.4810 C   0  0  0  0  0  3  0  0  0  0  0  0
  -28.0910  -22.8690   19.3100 C   0  0  0  0  0  0  0  0  0  0  0  0
  -28.7390  -23.1610   21.6360 C   0  0  0  0  0  0  0  0  0  0  0  0
  -28.4370  -22.2620   20.5650 C   0  0  0  0  0  0  0  0  0  0  0  0
  -28.1080  -24.3040   19.1520 C   0  0  0  0  0  0  0  0  0  0  0  0
  -28.3140  -25.1830   20.2520 C   0  0  0  0  0  0  0  0  0  0  0  0
  -29.1510  -22.6360   23.0030 C   0  0  0  0  0  1  0  0  0  0  0  0
  -27.9350  -24.9430   17.7770 C   0  0  0  0  0  1  0  0  0  0  0  0
  -26.4350  -22.1740   17.3450 C   0  0  0  0  0  2  0  0  0  0  0  0
  -26.6080  -20.9570   18.2010 C   0  0  0  0  0  2  0  0  0  0  0  0
  -27.7220  -21.9890   18.1330 C   0  0  0  0  0  3  0  0  0  0  0  0
  -28.3250  -26.5890   20.1210 O   0  0  0  0  0  0  0  0  0  0  0  0
  -24.5050  -31.8490   23.2380 C   0  0  0  0  0  0  0  0  0  0  0  0
  -27.1600  -27.3610   20.1480 C   0  0  0  0  0  0  0  0  0  0  0  0
  -23.3060  -30.4420   21.6000 C   0  0  0  0  0  3  0  0  0  0  0  0
  -24.7650  -28.9140   20.1610 C   0  0  0  0  0  0  0  0  0  0  0  0
  -25.8350  -30.8030   21.3940 C   0  0  0  0  0  2  0  0  0  0  0  0
  -25.9280  -29.4270   20.7490 C   0  0  0  0  0  0  0  0  0  0  0  0
  -27.1280  -28.6610   20.7330 C   0  0  0  0  0  3  0  0  0  0  0  0
  -25.9730  -26.8840   19.5530 C   0  0  0  0  0  3  0  0  0  0  0  0
  -24.7870  -27.6440   19.5570 C   0  0  0  0  0  3  0  0  0  0  0  0
  -23.5170  -29.7690   20.2160 C   0  0  0  0  0  2  0  0  0  0  0  0
  -24.5680  -31.0480   22.1350 N   0  0  0  0  0  0  0  0  0  0  0  0
  -23.4240  -32.1100   23.7840 O   0  0  0  0  0  0  0  0  0  0  0  0
  -22.6660  -29.4130   22.5610 C   0  0  0  0  0  0  0  0  0  0  0  0
  -21.3540  -29.1730   22.4000 N   0  0  0  0  0  0  0  0  0  0  0  0
  -23.3490  -28.8330   23.4090 O   0  0  0  0  0  0  0  0  0  0  0  0
  -20.8600  -29.6960   21.6890 H   0  0  0  0  0  0  0  0  0  0  0  0
  -18.0350  -27.7900   22.7800 C   0  0  0  0  0  0  0  0  0  0  0  0
  -20.5550  -28.2150   23.1650 C   0  0  0  0  0  3  0  0  0  0  0  0
  -20.7730  -26.7730   22.6480 C   0  0  0  0  0  2  0  0  0  0  0  0
  -19.7440  -26.3490   21.5940 C   0  0  0  0  0  2  0  0  0  0  0  0
  -18.3250  -26.4310   22.1650 C   0  0  0  0  0  2  0  0  0  0  0  0
  -19.0820  -28.6340   23.2350 C   0  0  0  0  0  0  0  0  0  0  0  0
  -18.7580  -29.9000   23.7670 C   0  0  0  0  0  3  0  0  0  0  0  0
  -17.4190  -30.3250   23.8520 C   0  0  0  0  0  3  0  0  0  0  0  0
  -16.3860  -29.4800   23.4130 C   0  0  0  0  0  3  0  0  0  0  0  0
  -16.6940  -28.2150   22.8830 C   0  0  0  0  0  3  0  0  0  0  0  0
  -25.7860  -32.4930   23.8540 C   0  0  0  0  0  3  0  0  0  0  0  0
  -26.3170  -31.7270   25.1270 C   0  0  1  0  0  0  0  0  0  0  0  0
  -25.2310  -31.4720   26.1980 C   0  0  0  0  0  1  0  0  0  0  0  0
  -26.9170  -30.3580   24.7310 C   0  0  0  0  0  1  0  0  0  0  0  0
  -27.4600  -32.5350   25.7870 C   0  0  0  0  0  1  0  0  0  0  0  0
  -25.4640  -33.8880   24.1870 N   0  0  0  0  0  0  0  0  0  0  0  0
  -25.7780  -34.9450   23.4250 C   0  0  0  0  0  0  0  0  0  0  0  0
  -26.4380  -34.8490   22.3870 O   0  0  0  0  0  0  0  0  0  0  0  0
  -24.8760  -34.0360   24.9930 H   0  0  0  0  0  0  0  0  0  0  0  0
  -24.0280  -36.7210   23.0860 C   0  0  0  0  0  1  0  0  0  0  0  0
  -25.2790  -36.3280   23.8870 C   0  0  0  0  0  3  0  0  0  0  0  0
  -27.4070  -37.2390   24.7080 C   0  0  0  0  0  1  0  0  0  0  0  0
  -26.3010  -37.3920   23.7670 N   0  0  0  0  0  0  0  0  0  0  0  0
  -25.8850  -38.3070   23.9140 H   0  0  0  0  0  0  0  0  0  0  0  0
  -28.3310  -20.7010   20.8300 C   0  0  0  0  0  2  0  0  0  0  0  0
  -29.5460  -19.2160   18.9940 C   0  0  0  0  0  2  0  0  0  0  0  0
  -30.2160  -17.8160   18.9340 C   0  0  0  0  0  2  0  0  0  0  0  0
  -29.3690  -18.2470   21.1540 C   0  0  0  0  0  2  0  0  0  0  0  0
  -29.4790  -19.6580   20.4660 C   0  0  0  0  0  3  0  0  0  0  0  0
  -30.2640  -17.2290   20.3630 C   0  0  0  0  0  3  0  0  0  0  0  0
  -30.6440  -14.6840   20.0830 C   0  0  0  0  0  0  0  0  0  0  0  0
  -30.3620  -12.4670   18.9980 C   0  0  0  0  0  2  0  0  0  0  0  0
  -29.3590  -12.6150   17.8330 C   0  0  0  0  0  2  0  0  0  0  0  0
  -27.9110  -12.4530   18.3360 C   0  0  0  0  0  2  0  0  0  0  0  0
  -27.6170  -13.2980   19.6030 C   0  0  0  0  0  3  0  0  0  0  0  0
  -28.7300  -13.1330   20.6620 C   0  0  0  0  0  2  0  0  0  0  0  0
  -30.0050  -13.4740   20.0180 N   0  0  0  0  0  0  0  0  0  0  0  0
  -31.7930  -14.8230   19.6530 O   0  0  0  0  0  0  0  0  0  0  0  0
  -29.8900  -15.7710   20.4410 N   0  0  0  0  0  0  0  0  0  0  0  0
  -28.9530  -15.5640   20.7520 H   0  0  0  0  0  0  0  0  0  0  0  0
  -25.2740  -13.8870   20.4760 C   0  0  0  0  0  0  0  0  0  0  0  0
  -24.2230  -13.1080   20.8770 C   0  0  0  0  0  0  0  0  0  0  0  0
  -24.6700  -11.7550   20.7700 C   0  0  0  0  0  0  0  0  0  0  0  0
  -26.2960  -13.0080   20.1530 N   0  0  0  0  0  0  0  0  0  0  0  0
  -25.9420  -11.7190   20.3900 N   0  0  0  0  0  0  0  0  0  0  0  0
  -23.9440  -10.4910   20.9540 C   0  0  0  0  0  0  0  0  0  0  0  0
  -24.3660   -9.5270   21.8960 C   0  0  0  0  0  3  0  0  0  0  0  0
  -23.6400   -8.3290   22.0670 C   0  0  0  0  0  3  0  0  0  0  0  0
  -22.4780   -8.0860   21.2970 C   0  0  0  0  0  0  0  0  0  0  0  0
  -22.0770   -9.0380   20.3430 C   0  0  0  0  0  3  0  0  0  0  0  0
  -22.8040  -10.2280   20.1700 C   0  0  0  0  0  3  0  0  0  0  0  0
  -21.7260   -6.9400   21.3760 O   0  0  0  0  0  0  0  0  0  0  0  0
  -21.5880   -6.2490   22.5540 C   0  0  0  0  0  0  0  0  0  0  0  0
  -21.0220   -6.8430   23.7030 C   0  0  0  0  0  3  0  0  0  0  0  0
  -20.8360   -6.0770   24.8720 C   0  0  0  0  0  3  0  0  0  0  0  0
  -21.2050   -4.7190   24.8900 C   0  0  0  0  0  0  0  0  0  0  0  0
  -21.7630   -4.1250   23.7450 C   0  0  0  0  0  3  0  0  0  0  0  0
  -21.9520   -4.8880   22.5790 C   0  0  0  0  0  0  0  0  0  0  0  0
  -22.4710   -4.3060   21.4710 F   0  0  0  0  0  0  0  0  0  0  0  0
  -21.0190   -3.9800   26.0090 F   0  0  0  0  0  0  0  0  0  0  0  0
  -22.8470  -13.5830   21.2430 C   0  0  0  0  0  0  0  0  0  0  0  0
  -22.1640  -12.8620   22.1250 N   0  0  0  0  0  0  0  0  0  0  0  0
  -22.3890  -14.6290   20.7840 O   0  0  0  0  0  0  0  0  0  0  0  0
  -22.5480  -12.0160   22.5170 H   0  0  0  0  0  0  0  0  0  0  0  0
  -21.2420  -13.1600   22.4110 H   0  0  0  0  0  0  0  0  0  0  0  0
  -25.4390  -15.2620   20.3390 N   0  0  0  0  0  0  0  0  0  0  0  0
  -24.6810  -15.9130   20.5080 H   0  0  0  0  0  0  0  0  0  0  0  0
  -26.2600  -15.7050   19.9480 H   0  0  0  0  0  0  0  0  0  0  0  0
  1  3  1  0
  2  4  1  0
  3  7  1  0
  4 53  1  0
  4  3  2  0
  5  2  2  0
  5  6  1  0
  6  1  2  0
  8  5  1  0
  9 11  1  0
  9 10  1  0
 11 10  1  0
 11  2  1  0
 12 14  1  0
 12  6  1  0
 13 24  2  0
 14 19  1  0
 15 23  1  0
 15 25  1  0
 16 22  1  0
 16 18  1  0
 17 23  1  0
 18 17  1  0
 19 18  2  0
 20 21  1  0
 20 14  2  0
 21 16  2  0
 22 15  1  0
 23 13  1  0
 25 27  2  0
 26 25  1  0
 28 26  1  0
 29 38  2  0
 29 34  1  0
 30 26  1  0
 30 34  1  0
 31 30  1  0
 32 33  1  0
 32 31  1  0
 33 29  1  0
 34 35  2  0
 35 36  1  0
 37 36  2  0
 38 37  1  0
 39 13  1  0
 39 44  1  0
 39 40  1  0
 40 43  1  1
 40 41  1  0
 42 40  1  0
 44 47  1  0
 45 49  1  0
 45 44  1  0
 46 45  2  0
 49 48  1  0
 51 49  1  0
 51 52  1  0
 51 50  1  0
 54 57  1  0
 55 54  1  0
 55 58  1  0
 57 53  1  0
 57 56  1  0
 58 67  1  0
 58 56  1  0
 59 67  1  0
 60 65  1  0
 61 62  1  0
 61 60  1  0
 63 62  1  0
 63 72  1  0
 63 64  1  0
 65 59  1  0
 65 64  1  0
 66 59  2  0
 67 68  1  0
 69 70  2  0
 70 89  1  0
 71 70  1  0
 71 74  1  0
 72 73  1  0
 72 69  1  0
 73 71  2  0
 74 75  1  0
 75 76  2  0
 77 80  1  0
 77 76  1  0
 78 77  2  0
 79 78  1  0
 79 74  2  0
 80 81  1  0
 81 86  2  0
 81 82  1  0
 82 83  2  0
 83 84  1  0
 84 88  1  0
 85 84  2  0
 86 85  1  0
 87 86  1  0
 89 90  1  0
 90 93  1  0
 90 92  1  0
 91 89  2  0
 94 69  1  0
 94 95  1  0
 96 94  1  0
M  ISO  4   6 101  12 101  59 100  67 100
M  END
>  <TORSDO>  (32) 
F 19

>  <SCORE>  (32) 
-13.795

>  <name>  (32) 
31

>  <ligand_id>  (32) 
31

>  <original_smiles>  (32) 
[H]c1c([H])c([H])c2c(c1[H])C([H])([H])C([H])([H])C([H])([H])C2([H])N([H])C(=O)C1([H])N(C(=O)C([H])(N([H])C(=O)C([H])(N([H])C([H])([H])[H])C([H])([H])[H])C(C([H])([H])[H])(C([H])([H])[H])C([H])([H])[H])C([H])([H])c2c([H])c(Oc3c([H])c(C([H])([H])[H])c(C([H])([H])C4([H])C([H])([H])C([H])([H])C([H])(N([H])C(=O)N5C([H])([H])C([H])([H])C([H])([H])C([H])(n6nc(-c7c([H])c([H])c(Oc8c([H])c([H])c(F)c([H])c8F)c([H])c7[H])c(C(=O)N([H])[H])c6N([H])[H])C5([H])[H])C4([H])[H])c(C4([H])C([H])([H])C4([H])[H])c3C([H])([H])[H])c([H])c([H])c2C1([H])[H]

>  <smiles>  (32) 
[H]c1c([H])c([H])c2c(c1[H])C([H])([H])C([H])([H])C([H])([H])C2([H])N([H])C(=O)C1([H])N(C(=O)C([H])(N([H])C(=O)C([H])(N([H])C([H])([H])[H])C([H])([H])[H])C(C([H])([H])[H])(C([H])([H])[H])C([H])([H])[H])C([H])([H])c2c([H])c(Oc3c([H])c(C([H])([H])[H])c(C([H])([H])C4([H])C([H])([H])C([H])([H])C([H])(N([H])C(=O)N5C([H])([H])C([H])([H])C([H])([H])C([H])(n6nc(-c7c([H])c([H])c(Oc8c([H])c([H])c(F)c([H])c8F)c([H])c7[H])c(C(=O)N([H])[H])c6N([H])[H])C5([H])[H])C4([H])[H])c(C4([H])C([H])([H])C4([H])[H])c3C([H])([H])[H])c([H])c([H])c2C1([H])[H]

$$$$
32:0:0
     RDKit          3D

 93102  0  0  1  0  0  0  0  0999 V2000
  -28.1590  -22.7580   20.7250 C   0  0  0  0  0  2  0  0  0  0  0  0
  -29.6560  -22.7080   19.3630 C   0  0  0  0  0  2  0  0  0  0  0  0
  -29.0520  -23.9040   20.1770 C   0  0  0  0  0  3  0  0  0  0  0  0
  -29.1560  -21.7090   20.3520 N   0  0  2  0  0  4  0  0  0  0  0  0
  -29.8190  -21.5730   21.1020 H   0  0  0  0  0  0  0  0  0  0  0  0
  -28.5370  -20.3860   19.8710 C   0  0  0  0  0  2  0  0  0  0  0  0
  -29.4100  -16.6240   18.9830 C   0  0  0  0  0  3  0  0  0  0  0  0
  -30.1090  -16.0940   20.0920 C   0  0  0  0  0  0  0  0  0  0  0  0
  -28.9640  -17.9730   18.9110 C   0  0  0  0  0  0  0  0  0  0  0  0
  -30.3350  -17.0000   21.1730 C   0  0  0  0  0  0  0  0  0  0  0  0
  -29.8570  -18.3720   21.1270 C   0  0  0  0  0  0  0  0  0  0  0  0
  -29.1970  -18.9180   19.9650 C   0  0  0  0  0  0  0  0  0  0  0  0
  -28.1770  -18.3370   17.6630 C   0  0  0  0  0  1  0  0  0  0  0  0
  -31.1040  -16.5050   22.4050 C   0  0  0  0  0  1  0  0  0  0  0  0
  -30.0390  -19.2610   22.3540 C   0  0  0  0  0  1  0  0  0  0  0  0
  -30.7560  -14.6960   19.9480 C   0  0  0  0  0  0  0  0  0  0  0  0
  -30.3320  -12.4900   18.9150 C   0  0  0  0  0  2  0  0  0  0  0  0
  -29.3400  -12.6770   17.7470 C   0  0  0  0  0  2  0  0  0  0  0  0
  -27.8990  -12.5340   18.2630 C   0  0  0  0  0  2  0  0  0  0  0  0
  -27.6280  -13.3930   19.5290 C   0  0  0  0  0  3  0  0  0  0  0  0
  -28.7490  -13.2840   20.5790 C   0  0  0  0  0  2  0  0  0  0  0  0
  -30.0290  -13.5390   19.9100 N   0  0  0  0  0  0  0  0  0  0  0  0
  -31.9320  -14.7090   19.5800 O   0  0  0  0  0  0  0  0  0  0  0  0
  -25.3020  -13.9890   20.4340 C   0  0  0  0  0  0  0  0  0  0  0  0
  -24.2510  -13.2160   20.8450 C   0  0  0  0  0  0  0  0  0  0  0  0
  -24.6900  -11.8610   20.7400 C   0  0  0  0  0  0  0  0  0  0  0  0
  -26.3140  -13.1050   20.0990 N   0  0  0  0  0  0  0  0  0  0  0  0
  -25.9580  -11.8160   20.3440 N   0  0  0  0  0  0  0  0  0  0  0  0
  -23.9580  -10.6010   20.9430 C   0  0  0  0  0  0  0  0  0  0  0  0
  -24.3940   -9.6300   21.8710 C   0  0  0  0  0  3  0  0  0  0  0  0
  -23.6590   -8.4370   22.0590 C   0  0  0  0  0  3  0  0  0  0  0  0
  -22.4710   -8.2130   21.3210 C   0  0  0  0  0  0  0  0  0  0  0  0
  -22.0510   -9.1750   20.3860 C   0  0  0  0  0  3  0  0  0  0  0  0
  -22.7870  -10.3570   20.1950 C   0  0  0  0  0  3  0  0  0  0  0  0
  -21.7140   -7.0690   21.4130 O   0  0  0  0  0  0  0  0  0  0  0  0
  -21.6300   -6.3550   22.5840 C   0  0  0  0  0  0  0  0  0  0  0  0
  -21.1820   -6.9460   23.7860 C   0  0  0  0  0  3  0  0  0  0  0  0
  -21.0400   -6.1640   24.9490 C   0  0  0  0  0  3  0  0  0  0  0  0
  -21.3400   -4.7870   24.9100 C   0  0  0  0  0  0  0  0  0  0  0  0
  -21.7810   -4.1950   23.7140 C   0  0  0  0  0  3  0  0  0  0  0  0
  -21.9250   -4.9770   22.5540 C   0  0  0  0  0  0  0  0  0  0  0  0
  -22.3310   -4.3960   21.4000 F   0  0  0  0  0  0  0  0  0  0  0  0
  -21.1960   -4.0330   26.0230 F   0  0  0  0  0  0  0  0  0  0  0  0
  -22.8820  -13.7090   21.2230 C   0  0  0  0  0  0  0  0  0  0  0  0
  -22.2090  -13.0100   22.1300 N   0  0  0  0  0  0  0  0  0  0  0  0
  -22.4200  -14.7510   20.7530 O   0  0  0  0  0  0  0  0  0  0  0  0
  -22.5890  -12.1690   22.5380 H   0  0  0  0  0  0  0  0  0  0  0  0
  -21.2960  -13.3220   22.4300 H   0  0  0  0  0  0  0  0  0  0  0  0
  -25.4820  -15.3630   20.2940 N   0  0  0  0  0  0  0  0  0  0  0  0
  -24.7450  -16.0340   20.4900 H   0  0  0  0  0  0  0  0  0  0  0  0
  -26.3280  -15.7900   19.9360 H   0  0  0  0  0  0  0  0  0  0  0  0
  -28.4390  -25.2020   19.4580 C   0  0  0  0  0  2  0  0  0  0  0  0
  -28.3210  -26.5180   20.1530 O   0  0  0  0  0  0  0  0  0  0  0  0
  -24.5240  -31.8690   23.1870 C   0  0  0  0  0  0  0  0  0  0  0  0
  -27.1740  -27.3370   20.0850 C   0  0  0  0  0  0  0  0  0  0  0  0
  -23.3290  -30.4710   21.5420 C   0  0  0  0  0  3  0  0  0  0  0  0
  -24.7890  -28.9480   20.0970 C   0  0  0  0  0  0  0  0  0  0  0  0
  -25.8660  -30.8020   21.3640 C   0  0  0  0  0  2  0  0  0  0  0  0
  -25.9550  -29.4300   20.7030 C   0  0  0  0  0  0  0  0  0  0  0  0
  -27.1420  -28.6360   20.6910 C   0  0  0  0  0  3  0  0  0  0  0  0
  -25.9730  -26.9170   19.4550 C   0  0  0  0  0  3  0  0  0  0  0  0
  -24.8040  -27.6960   19.4690 C   0  0  0  0  0  3  0  0  0  0  0  0
  -23.5430  -29.8070   20.1570 C   0  0  0  0  0  2  0  0  0  0  0  0
  -24.5910  -31.0650   22.0870 N   0  0  0  0  0  0  0  0  0  0  0  0
  -23.4390  -32.1370   23.7220 O   0  0  0  0  0  0  0  0  0  0  0  0
  -22.6740  -29.4440   22.4970 C   0  0  0  0  0  0  0  0  0  0  0  0
  -21.3520  -29.2460   22.3590 N   0  0  0  0  0  0  0  0  0  0  0  0
  -23.3550  -28.8260   23.3190 O   0  0  0  0  0  0  0  0  0  0  0  0
  -20.8610  -29.7910   21.6650 H   0  0  0  0  0  0  0  0  0  0  0  0
  -17.9900  -27.9990   22.8260 C   0  0  0  0  0  0  0  0  0  0  0  0
  -20.5410  -28.3000   23.1260 C   0  0  0  0  0  3  0  0  0  0  0  0
  -20.6770  -26.8700   22.5560 C   0  0  0  0  0  2  0  0  0  0  0  0
  -19.5920  -26.5260   21.5310 C   0  0  0  0  0  2  0  0  0  0  0  0
  -18.1990  -26.6500   22.1550 C   0  0  0  0  0  2  0  0  0  0  0  0
  -19.0910  -28.7790   23.2660 C   0  0  0  0  0  0  0  0  0  0  0  0
  -18.8430  -30.0430   23.8490 C   0  0  0  0  0  3  0  0  0  0  0  0
  -17.5290  -30.5200   23.9990 C   0  0  0  0  0  3  0  0  0  0  0  0
  -16.4420  -29.7340   23.5770 C   0  0  0  0  0  3  0  0  0  0  0  0
  -16.6740  -28.4760   22.9930 C   0  0  0  0  0  3  0  0  0  0  0  0
  -25.8020  -32.5060   23.8110 C   0  0  0  0  0  3  0  0  0  0  0  0
  -26.3210  -31.7360   25.0870 C   0  0  1  0  0  0  0  0  0  0  0  0
  -25.2230  -31.4900   26.1480 C   0  0  0  0  0  1  0  0  0  0  0  0
  -26.9120  -30.3610   24.6960 C   0  0  0  0  0  1  0  0  0  0  0  0
  -27.4690  -32.5330   25.7520 C   0  0  0  0  0  1  0  0  0  0  0  0
  -25.4850  -33.9020   24.1440 N   0  0  0  0  0  0  0  0  0  0  0  0
  -25.8090  -34.9570   23.3870 C   0  0  0  0  0  0  0  0  0  0  0  0
  -26.4770  -34.8600   22.3540 O   0  0  0  0  0  0  0  0  0  0  0  0
  -24.8900  -34.0510   24.9450 H   0  0  0  0  0  0  0  0  0  0  0  0
  -24.0720  -36.7430   23.0420 C   0  0  0  0  0  1  0  0  0  0  0  0
  -25.3150  -36.3420   23.8510 C   0  0  0  0  0  3  0  0  0  0  0  0
  -27.4440  -37.2350   24.6880 C   0  0  0  0  0  1  0  0  0  0  0  0
  -26.3420  -37.4010   23.7420 N   0  0  0  0  0  0  0  0  0  0  0  0
  -25.9310  -38.3190   23.8930 H   0  0  0  0  0  0  0  0  0  0  0  0
  2  3  1  0
  2  4  1  0
  3 52  1  0
  3  1  1  0
  4  1  1  0
  4  5  1  1
  6 12  1  0
  6  4  1  0
  7  8  1  0
  8 10  2  0
  9  7  2  0
  9 12  1  0
 10 14  1  0
 11 10  1  0
 11 15  1  0
 12 11  2  0
 13  9  1  0
 16  8  1  0
 17 22  1  0
 18 19  1  0
 18 17  1  0
 20 19  1  0
 20 27  1  0
 20 21  1  0
 22 16  1  0
 22 21  1  0
 23 16  2  0
 24 25  2  0
 25 44  1  0
 26 25  1  0
 26 29  1  0
 27 28  1  0
 27 24  1  0
 28 26  2  0
 29 30  1  0
 30 31  2  0
 32 35  1  0
 32 31  1  0
 33 32  2  0
 34 33  1  0
 34 29  2  0
 35 36  1  0
 36 37  1  0
 37 38  2  0
 39 38  1  0
 39 43  1  0
 40 39  2  0
 41 36  2  0
 41 40  1  0
 42 41  1  0
 44 45  1  0
 45 48  1  0
 45 47  1  0
 46 44  2  0
 49 24  1  0
 49 50  1  0
 51 49  1  0
 52 53  1  0
 54 65  2  0
 55 53  1  0
 55 60  1  0
 56 64  1  0
 56 66  1  0
 57 63  1  0
 57 59  1  0
 58 64  1  0
 59 58  1  0
 60 59  2  0
 61 62  1  0
 61 55  2  0
 62 57  2  0
 63 56  1  0
 64 54  1  0
 66 68  2  0
 67 66  1  0
 69 67  1  0
 70 79  2  0
 70 75  1  0
 71 67  1  0
 71 75  1  0
 72 71  1  0
 73 74  1  0
 73 72  1  0
 74 70  1  0
 75 76  2  0
 76 77  1  0
 78 77  2  0
 79 78  1  0
 80 54  1  0
 80 85  1  0
 80 81  1  0
 81 84  1  1
 81 82  1  0
 83 81  1  0
 85 88  1  0
 86 90  1  0
 86 85  1  0
 87 86  2  0
 90 89  1  0
 92 90  1  0
 92 93  1  0
 92 91  1  0
M  ISO  4   8 100  16 100  52 101  53 101
M  END
>  <TORSDO>  (33) 
F 19

>  <SCORE>  (33) 
-13.367

>  <name>  (33) 
32

>  <ligand_id>  (33) 
32

>  <original_smiles>  (33) 
[H]c1c([H])c([H])c2c(c1[H])C([H])([H])C([H])([H])C([H])([H])C2([H])N([H])C(=O)C1([H])N(C(=O)C([H])(N([H])C(=O)C([H])(N([H])C([H])([H])[H])C([H])([H])[H])C(C([H])([H])[H])(C([H])([H])[H])C([H])([H])[H])C([H])([H])c2c([H])c(OC([H])([H])C3([H])C([H])([H])[N+]([H])(C([H])([H])c4c(C([H])([H])[H])c([H])c(C(=O)N5C([H])([H])C([H])([H])C([H])([H])C([H])(n6nc(-c7c([H])c([H])c(Oc8c([H])c([H])c(F)c([H])c8F)c([H])c7[H])c(C(=O)N([H])[H])c6N([H])[H])C5([H])[H])c(C([H])([H])[H])c4C([H])([H])[H])C3([H])[H])c([H])c([H])c2C1([H])[H]

>  <smiles>  (33) 
[H]c1c([H])c([H])c2c(c1[H])C([H])([H])C([H])([H])C([H])([H])C2([H])N([H])C(=O)C1([H])N(C(=O)C([H])(N([H])C(=O)C([H])(N([H])C([H])([H])[H])C([H])([H])[H])C(C([H])([H])[H])(C([H])([H])[H])C([H])([H])[H])C([H])([H])c2c([H])c(OC([H])([H])C3([H])C([H])([H])[N+]([H])(C([H])([H])c4c(C([H])([H])[H])c([H])c(C(=O)N5C([H])([H])C([H])([H])C([H])([H])C([H])(n6nc(-c7c([H])c([H])c(Oc8c([H])c([H])c(F)c([H])c8F)c([H])c7[H])c(C(=O)N([H])[H])c6N([H])[H])C5([H])[H])c(C([H])([H])[H])c4C([H])([H])[H])C3([H])[H])c([H])c([H])c2C1([H])[H]

$$$$
33:0:0
     RDKit          3D

 94104  0  0  1  0  0  0  0  0999 V2000
  -28.7770  -18.9240   19.2940 C   0  0  0  0  0  3  0  0  0  0  0  0
  -28.3010  -20.2690   19.2220 C   0  0  0  0  0  3  0  0  0  0  0  0
  -30.0500  -21.0400   20.7040 C   0  0  0  0  0  3  0  0  0  0  0  0
  -29.9120  -18.6300   20.0770 C   0  0  0  0  0  0  0  0  0  0  0  0
  -30.5100  -19.6890   20.7780 C   0  0  0  0  0  0  0  0  0  0  0  0
  -28.9240  -21.3630   19.8960 C   0  0  0  0  0  0  0  0  0  0  0  0
  -31.6830  -17.6510   21.3750 C   0  0  0  0  0  2  0  0  0  0  0  0
  -31.7070  -19.1960   21.5590 C   0  0  0  0  0  3  0  0  0  0  0  0
  -30.7490  -17.3230   20.1830 C   0  0  0  0  0  3  0  0  0  0  0  0
  -30.8630  -14.7810   20.0470 C   0  0  0  0  0  0  0  0  0  0  0  0
  -30.6150  -12.4590   19.2020 C   0  0  0  0  0  2  0  0  0  0  0  0
  -29.6580  -12.4500   17.9930 C   0  0  0  0  0  2  0  0  0  0  0  0
  -28.1990  -12.3020   18.4660 C   0  0  0  0  0  2  0  0  0  0  0  0
  -27.8400  -13.2790   19.6180 C   0  0  0  0  0  3  0  0  0  0  0  0
  -28.9210  -13.2900   20.7220 C   0  0  0  0  0  2  0  0  0  0  0  0
  -30.2070  -13.5790   20.0770 N   0  0  0  0  0  0  0  0  0  0  0  0
  -32.0320  -14.8420   19.6560 O   0  0  0  0  0  0  0  0  0  0  0  0
  -30.1580  -15.9380   20.2690 N   0  0  0  0  0  0  0  0  0  0  0  0
  -29.1850  -15.8570   20.5220 H   0  0  0  0  0  0  0  0  0  0  0  0
  -25.4950  -13.9020   20.4560 C   0  0  0  0  0  0  0  0  0  0  0  0
  -24.4300  -13.1410   20.8510 C   0  0  0  0  0  0  0  0  0  0  0  0
  -24.8620  -11.7810   20.7700 C   0  0  0  0  0  0  0  0  0  0  0  0
  -26.5110  -13.0080   20.1570 N   0  0  0  0  0  0  0  0  0  0  0  0
  -26.1390  -11.7260   20.4080 N   0  0  0  0  0  0  0  0  0  0  0  0
  -24.1180  -10.5290   20.9600 C   0  0  0  0  0  0  0  0  0  0  0  0
  -24.5310   -9.5580   21.8980 C   0  0  0  0  0  3  0  0  0  0  0  0
  -23.7870   -8.3720   22.0760 C   0  0  0  0  0  3  0  0  0  0  0  0
  -22.6160   -8.1470   21.3140 C   0  0  0  0  0  0  0  0  0  0  0  0
  -22.2210   -9.1070   20.3650 C   0  0  0  0  0  3  0  0  0  0  0  0
  -22.9660  -10.2850   20.1860 C   0  0  0  0  0  3  0  0  0  0  0  0
  -21.8440   -7.0140   21.4010 O   0  0  0  0  0  0  0  0  0  0  0  0
  -21.7220   -6.3140   22.5750 C   0  0  0  0  0  0  0  0  0  0  0  0
  -21.2040   -6.9080   23.7460 C   0  0  0  0  0  3  0  0  0  0  0  0
  -21.0310   -6.1340   24.9110 C   0  0  0  0  0  3  0  0  0  0  0  0
  -21.3660   -4.7670   24.9060 C   0  0  0  0  0  0  0  0  0  0  0  0
  -21.8780   -4.1730   23.7390 C   0  0  0  0  0  3  0  0  0  0  0  0
  -22.0520   -4.9440   22.5760 C   0  0  0  0  0  0  0  0  0  0  0  0
  -22.5250   -4.3610   21.4480 F   0  0  0  0  0  0  0  0  0  0  0  0
  -21.1940   -4.0210   26.0220 F   0  0  0  0  0  0  0  0  0  0  0  0
  -23.0550  -13.6390   21.1910 C   0  0  0  0  0  0  0  0  0  0  0  0
  -22.3470  -12.9360   22.0700 N   0  0  0  0  0  0  0  0  0  0  0  0
  -22.6180  -14.6850   20.7140 O   0  0  0  0  0  0  0  0  0  0  0  0
  -22.7150  -12.0890   22.4770 H   0  0  0  0  0  0  0  0  0  0  0  0
  -21.4270  -13.2500   22.3390 H   0  0  0  0  0  0  0  0  0  0  0  0
  -25.6790  -15.2730   20.3040 N   0  0  0  0  0  0  0  0  0  0  0  0
  -24.9300  -15.9370   20.4590 H   0  0  0  0  0  0  0  0  0  0  0  0
  -26.5180  -15.7040   19.9370 H   0  0  0  0  0  0  0  0  0  0  0  0
  -33.5270  -21.1070   21.6140 C   0  0  0  0  0  2  0  0  0  0  0  0
  -34.2420  -19.8080   21.8920 C   0  0  0  0  0  2  0  0  0  0  0  0
  -32.9930  -19.8140   21.0400 C   0  0  0  0  0  3  0  0  0  0  0  0
  -28.3620  -22.6430   19.7130 O   0  0  0  0  0  0  0  0  0  0  0  0
  -28.9210  -23.9080   20.2010 C   0  0  0  0  0  2  0  0  0  0  0  0
  -27.9320  -25.1120   19.8610 C   0  0  0  0  0  2  0  0  0  0  0  0
  -28.2090  -26.5480   20.1330 O   0  0  0  0  0  0  0  0  0  0  0  0
  -24.5760  -31.9440   23.2770 C   0  0  0  0  0  0  0  0  0  0  0  0
  -27.1110  -27.4280   20.0900 C   0  0  0  0  0  0  0  0  0  0  0  0
  -23.3390  -30.5790   21.6360 C   0  0  0  0  0  3  0  0  0  0  0  0
  -24.7570  -29.0600   20.1520 C   0  0  0  0  0  0  0  0  0  0  0  0
  -25.8770  -30.8910   21.4140 C   0  0  0  0  0  2  0  0  0  0  0  0
  -25.9390  -29.5260   20.7400 C   0  0  0  0  0  0  0  0  0  0  0  0
  -27.1190  -28.7210   20.7040 C   0  0  0  0  0  3  0  0  0  0  0  0
  -25.9050  -27.0350   19.4580 C   0  0  0  0  0  3  0  0  0  0  0  0
  -24.7430  -27.8200   19.5020 C   0  0  0  0  0  3  0  0  0  0  0  0
  -23.5250  -29.9350   20.2390 C   0  0  0  0  0  2  0  0  0  0  0  0
  -24.6170  -31.1540   22.1650 N   0  0  0  0  0  0  0  0  0  0  0  0
  -23.5030  -32.2150   23.8350 O   0  0  0  0  0  0  0  0  0  0  0  0
  -22.6920  -29.5440   22.5870 C   0  0  0  0  0  0  0  0  0  0  0  0
  -21.3690  -29.3430   22.4540 N   0  0  0  0  0  0  0  0  0  0  0  0
  -23.3780  -28.9260   23.4050 O   0  0  0  0  0  0  0  0  0  0  0  0
  -20.8740  -29.8950   21.7680 H   0  0  0  0  0  0  0  0  0  0  0  0
  -18.0180  -28.0580   22.9060 C   0  0  0  0  0  0  0  0  0  0  0  0
  -20.5630  -28.3900   23.2190 C   0  0  0  0  0  3  0  0  0  0  0  0
  -20.7150  -26.9570   22.6590 C   0  0  0  0  0  2  0  0  0  0  0  0
  -19.6400  -26.5950   21.6290 C   0  0  0  0  0  2  0  0  0  0  0  0
  -18.2430  -26.7090   22.2470 C   0  0  0  0  0  2  0  0  0  0  0  0
  -19.1070  -28.8550   23.3490 C   0  0  0  0  0  0  0  0  0  0  0  0
  -18.8430  -30.1160   23.9240 C   0  0  0  0  0  3  0  0  0  0  0  0
  -17.5220  -30.5830   24.0620 C   0  0  0  0  0  3  0  0  0  0  0  0
  -16.4470  -29.7840   23.6360 C   0  0  0  0  0  3  0  0  0  0  0  0
  -16.6960  -28.5240   23.0640 C   0  0  0  0  0  3  0  0  0  0  0  0
  -25.8720  -32.5610   23.8860 C   0  0  0  0  0  3  0  0  0  0  0  0
  -26.3920  -31.7850   25.1580 C   0  0  1  0  0  0  0  0  0  0  0  0
  -25.3060  -31.5600   26.2350 C   0  0  0  0  0  1  0  0  0  0  0  0
  -26.9550  -30.4000   24.7620 C   0  0  0  0  0  1  0  0  0  0  0  0
  -27.5570  -32.5660   25.8080 C   0  0  0  0  0  1  0  0  0  0  0  0
  -25.5820  -33.9630   24.2180 N   0  0  0  0  0  0  0  0  0  0  0  0
  -25.9030  -35.0110   23.4490 C   0  0  0  0  0  0  0  0  0  0  0  0
  -26.5480  -34.9000   22.4020 O   0  0  0  0  0  0  0  0  0  0  0  0
  -25.0070  -34.1240   25.0330 H   0  0  0  0  0  0  0  0  0  0  0  0
  -24.1800  -36.8160   23.1320 C   0  0  0  0  0  1  0  0  0  0  0  0
  -25.4380  -36.4050   23.9140 C   0  0  0  0  0  3  0  0  0  0  0  0
  -27.5950  -37.2800   24.6930 C   0  0  0  0  0  1  0  0  0  0  0  0
  -26.4750  -37.4500   23.7720 N   0  0  0  0  0  0  0  0  0  0  0  0
  -26.0780  -38.3730   23.9190 H   0  0  0  0  0  0  0  0  0  0  0  0
  1  4  1  0
  2  1  2  0
  2  6  1  0
  3  5  1  0
  4  9  1  0
  4  5  2  0
  5  8  1  0
  6  3  2  0
  7  8  1  0
  8 50  1  0
  9 18  1  0
  9  7  1  0
 10 16  1  0
 10 18  1  0
 11 16  1  0
 12 13  1  0
 12 11  1  0
 14 13  1  0
 14 23  1  0
 14 15  1  0
 16 15  1  0
 17 10  2  0
 18 19  1  0
 20 21  2  0
 21 40  1  0
 22 21  1  0
 22 25  1  0
 23 24  1  0
 23 20  1  0
 24 22  2  0
 25 26  1  0
 26 27  2  0
 28 31  1  0
 28 27  1  0
 29 28  2  0
 30 29  1  0
 30 25  2  0
 31 32  1  0
 32 37  2  0
 32 33  1  0
 33 34  2  0
 35 34  1  0
 35 39  1  0
 36 35  2  0
 37 36  1  0
 38 37  1  0
 40 41  1  0
 41 44  1  0
 41 43  1  0
 42 40  2  0
 45 20  1  0
 45 46  1  0
 47 45  1  0
 48 49  1  0
 50 48  1  0
 50 49  1  0
 51  6  1  0
 51 52  1  0
 53 54  1  0
 53 52  1  0
 55 66  2  0
 56 54  1  0
 56 61  1  0
 57 65  1  0
 57 67  1  0
 58 64  1  0
 58 60  1  0
 59 65  1  0
 60 59  1  0
 61 60  2  0
 62 63  1  0
 62 56  2  0
 63 58  2  0
 64 57  1  0
 65 55  1  0
 67 69  2  0
 68 67  1  0
 70 68  1  0
 71 80  2  0
 71 76  1  0
 72 68  1  0
 72 76  1  0
 73 72  1  0
 74 75  1  0
 74 73  1  0
 75 71  1  0
 76 77  2  0
 77 78  1  0
 79 78  2  0
 80 79  1  0
 81 55  1  0
 81 86  1  0
 81 82  1  0
 82 85  1  1
 82 83  1  0
 84 82  1  0
 86 89  1  0
 87 91  1  0
 87 86  1  0
 88 87  2  0
 91 90  1  0
 93 91  1  0
 93 94  1  0
 93 92  1  0
M  ISO  4  10 100  18 100  53 101  54 101
M  END
>  <TORSDO>  (34) 
F 20

>  <SCORE>  (34) 
-14.046

>  <name>  (34) 
33

>  <ligand_id>  (34) 
33

>  <original_smiles>  (34) 
[H]c1c([H])c([H])c2c(c1[H])C([H])([H])C([H])([H])C([H])([H])C2([H])N([H])C(=O)C1([H])N(C(=O)C([H])(N([H])C(=O)C([H])(N([H])C([H])([H])[H])C([H])([H])[H])C(C([H])([H])[H])(C([H])([H])[H])C([H])([H])[H])C([H])([H])c2c([H])c(OC([H])([H])C([H])([H])Oc3c([H])c([H])c4c(c3[H])C([H])(C3([H])C([H])([H])C3([H])[H])C([H])([H])C4([H])N([H])C(=O)N3C([H])([H])C([H])([H])C([H])([H])C([H])(n4nc(-c5c([H])c([H])c(Oc6c([H])c([H])c(F)c([H])c6F)c([H])c5[H])c(C(=O)N([H])[H])c4N([H])[H])C3([H])[H])c([H])c([H])c2C1([H])[H]

>  <smiles>  (34) 
[H]c1c([H])c([H])c2c(c1[H])C([H])([H])C([H])([H])C([H])([H])C2([H])N([H])C(=O)C1([H])N(C(=O)C([H])(N([H])C(=O)C([H])(N([H])C([H])([H])[H])C([H])([H])[H])C(C([H])([H])[H])(C([H])([H])[H])C([H])([H])[H])C([H])([H])c2c([H])c(OC([H])([H])C([H])([H])Oc3c([H])c([H])c4c(c3[H])C([H])(C3([H])C([H])([H])C3([H])[H])C([H])([H])C4([H])N([H])C(=O)N3C([H])([H])C([H])([H])C([H])([H])C([H])(n4nc(-c5c([H])c([H])c(Oc6c([H])c([H])c(F)c([H])c6F)c([H])c5[H])c(C(=O)N([H])[H])c4N([H])[H])C3([H])[H])c([H])c([H])c2C1([H])[H]

$$$$
34:0:0
     RDKit          3D

 92101  0  0  1  0  0  0  0  0999 V2000
  -28.3110  -24.4860   20.2390 C   0  0  0  0  0  3  0  0  0  0  0  0
  -29.2000  -23.1290   18.0860 C   0  0  0  0  0  3  0  0  0  0  0  0
  -28.7230  -23.0860   20.3770 C   0  0  0  0  0  0  0  0  0  0  0  0
  -29.2110  -22.3010   19.2630 C   0  0  0  0  0  0  0  0  0  0  0  0
  -28.3270  -25.2010   18.9990 C   0  0  0  0  0  0  0  0  0  0  0  0
  -28.8050  -24.4550   17.9560 N   0  0  0  0  0  0  0  0  0  0  0  0
  -28.0590  -26.6180   18.7090 O   0  0  0  0  0  0  0  0  0  0  0  0
  -24.7940  -31.5340   23.1170 C   0  0  0  0  0  0  0  0  0  0  0  0
  -26.9380  -27.4630   19.0220 C   0  0  0  0  0  0  0  0  0  0  0  0
  -23.3740  -30.4130   21.4390 C   0  0  0  0  0  3  0  0  0  0  0  0
  -24.6120  -29.1110   19.5960 C   0  0  0  0  0  0  0  0  0  0  0  0
  -25.8780  -30.7540   20.9830 C   0  0  0  0  0  2  0  0  0  0  0  0
  -25.8580  -29.4880   20.1080 C   0  0  0  0  0  0  0  0  0  0  0  0
  -27.0150  -28.6830   19.8040 C   0  0  0  0  0  3  0  0  0  0  0  0
  -25.6590  -27.1770   18.4960 C   0  0  0  0  0  3  0  0  0  0  0  0
  -24.5220  -27.9690   18.7810 C   0  0  0  0  0  3  0  0  0  0  0  0
  -23.4040  -29.9670   19.9520 C   0  0  0  0  0  2  0  0  0  0  0  0
  -24.7090  -30.9130   21.9020 N   0  0  0  0  0  0  0  0  0  0  0  0
  -23.7930  -31.7110   23.8270 O   0  0  0  0  0  0  0  0  0  0  0  0
  -22.8220  -29.2540   22.3040 C   0  0  0  0  0  0  0  0  0  0  0  0
  -21.5070  -28.9890   22.2050 N   0  0  0  0  0  0  0  0  0  0  0  0
  -23.5760  -28.5970   23.0250 O   0  0  0  0  0  0  0  0  0  0  0  0
  -20.9510  -29.5740   21.5970 H   0  0  0  0  0  0  0  0  0  0  0  0
  -18.2990  -27.3400   22.5290 C   0  0  0  0  0  0  0  0  0  0  0  0
  -20.7970  -27.9060   22.8890 C   0  0  0  0  0  3  0  0  0  0  0  0
  -21.0930  -26.5410   22.2260 C   0  0  0  0  0  2  0  0  0  0  0  0
  -20.0650  -26.1540   21.1590 C   0  0  0  0  0  2  0  0  0  0  0  0
  -18.6640  -26.0750   21.7700 C   0  0  0  0  0  2  0  0  0  0  0  0
  -19.3010  -28.2090   23.0400 C   0  0  0  0  0  0  0  0  0  0  0  0
  -18.9060  -29.3880   23.7070 C   0  0  0  0  0  3  0  0  0  0  0  0
  -17.5430  -29.7040   23.8680 C   0  0  0  0  0  3  0  0  0  0  0  0
  -16.5570  -28.8340   23.3710 C   0  0  0  0  0  3  0  0  0  0  0  0
  -16.9360  -27.6540   22.7090 C   0  0  0  0  0  3  0  0  0  0  0  0
  -26.1530  -32.0710   23.6660 C   0  0  0  0  0  3  0  0  0  0  0  0
  -25.9050  -33.3960   24.2560 N   0  0  0  0  0  0  0  0  0  0  0  0
  -26.2210  -34.5610   23.6760 C   0  0  0  0  0  0  0  0  0  0  0  0
  -26.8180  -34.6290   22.5980 O   0  0  0  0  0  0  0  0  0  0  0  0
  -25.3640  -33.4170   25.1090 H   0  0  0  0  0  0  0  0  0  0  0  0
  -24.5510  -36.4420   23.7380 C   0  0  0  0  0  1  0  0  0  0  0  0
  -25.8080  -35.8570   24.4020 C   0  0  0  0  0  3  0  0  0  0  0  0
  -28.0030  -36.5070   25.2890 C   0  0  0  0  0  1  0  0  0  0  0  0
  -26.8760  -36.8790   24.4380 N   0  0  0  0  0  0  0  0  0  0  0  0
  -26.5120  -37.7700   24.7700 H   0  0  0  0  0  0  0  0  0  0  0  0
  -26.8140  -31.1110   24.7310 C   0  0  1  0  0  0  0  0  0  0  0  0
  -25.8620  -30.7060   25.8820 C   0  0  0  0  0  1  0  0  0  0  0  0
  -27.3170  -29.8110   24.0630 C   0  0  0  0  0  1  0  0  0  0  0  0
  -28.0550  -31.7920   25.3530 C   0  0  0  0  0  1  0  0  0  0  0  0
  -28.6300  -22.4780   21.7640 C   0  0  0  0  0  2  0  0  0  0  0  0
  -29.7780  -22.6740   24.1090 C   0  0  0  0  0  2  0  0  0  0  0  0
  -30.5360  -21.6060   23.3710 C   0  0  0  0  0  2  0  0  0  0  0  0
  -29.8750  -22.7290   22.5980 C   0  0  0  0  0  3  0  0  0  0  0  0
  -29.6880  -20.9080   19.1390 O   0  0  0  0  0  0  0  0  0  0  0  0
  -29.6120  -19.6370   20.0150 C   0  0  0  0  0  2  0  0  0  0  0  0
  -30.4490  -18.2130   19.6140 C   0  0  0  0  0  2  0  0  0  0  0  0
  -30.9220  -15.5490   20.0900 C   0  0  0  0  0  0  0  0  0  0  0  0
  -30.9270  -13.0910   19.4730 C   0  0  0  0  0  2  0  0  0  0  0  0
  -30.0330  -12.8210   18.2390 C   0  0  0  0  0  2  0  0  0  0  0  0
  -28.5640  -12.6170   18.6520 C   0  0  0  0  0  2  0  0  0  0  0  0
  -28.0840  -13.6650   19.6920 C   0  0  0  0  0  3  0  0  0  0  0  0
  -29.1070  -13.8780   20.8280 C   0  0  0  0  0  2  0  0  0  0  0  0
  -30.3730  -14.2710   20.1970 N   0  0  0  0  0  0  0  0  0  0  0  0
  -32.1280  -15.6210   19.8310 O   0  0  0  0  0  0  0  0  0  0  0  0
  -30.1170  -16.7210   20.0470 N   0  0  0  0  0  0  0  0  0  0  0  0
  -29.1400  -16.5470   20.2270 H   0  0  0  0  0  0  0  0  0  0  0  0
  -25.7390  -14.2470   20.5330 C   0  0  0  0  0  0  0  0  0  0  0  0
  -24.6610  -13.4740   20.8630 C   0  0  0  0  0  0  0  0  0  0  0  0
  -25.0850  -12.1180   20.7170 C   0  0  0  0  0  0  0  0  0  0  0  0
  -26.7510  -13.3630   20.1990 N   0  0  0  0  0  0  0  0  0  0  0  0
  -26.3690  -12.0720   20.3780 N   0  0  0  0  0  0  0  0  0  0  0  0
  -24.3250  -10.8660   20.8220 C   0  0  0  0  0  0  0  0  0  0  0  0
  -24.6760   -9.8630   21.7530 C   0  0  0  0  0  3  0  0  0  0  0  0
  -23.9150   -8.6760   21.8480 C   0  0  0  0  0  3  0  0  0  0  0  0
  -22.7890   -8.4850   21.0130 C   0  0  0  0  0  0  0  0  0  0  0  0
  -22.4570   -9.4770   20.0710 C   0  0  0  0  0  3  0  0  0  0  0  0
  -23.2190  -10.6540   19.9740 C   0  0  0  0  0  3  0  0  0  0  0  0
  -22.0060   -7.3560   21.0180 O   0  0  0  0  0  0  0  0  0  0  0  0
  -21.7230   -6.6830   22.1800 C   0  0  0  0  0  0  0  0  0  0  0  0
  -21.0750   -7.3100   23.2670 C   0  0  0  0  0  3  0  0  0  0  0  0
  -20.7420   -6.5620   24.4130 C   0  0  0  0  0  3  0  0  0  0  0  0
  -21.0460   -5.1900   24.4730 C   0  0  0  0  0  0  0  0  0  0  0  0
  -21.6860   -4.5620   23.3890 C   0  0  0  0  0  3  0  0  0  0  0  0
  -22.0210   -5.3070   22.2450 C   0  0  0  0  0  0  0  0  0  0  0  0
  -22.6180   -4.6930   21.1950 F   0  0  0  0  0  0  0  0  0  0  0  0
  -20.7190   -4.4690   25.5710 F   0  0  0  0  0  0  0  0  0  0  0  0
  -23.2840  -13.9680   21.1970 C   0  0  0  0  0  0  0  0  0  0  0  0
  -22.5620  -13.2450   22.0460 N   0  0  0  0  0  0  0  0  0  0  0  0
  -22.8570  -15.0290   20.7430 O   0  0  0  0  0  0  0  0  0  0  0  0
  -22.9200  -12.3850   22.4360 H   0  0  0  0  0  0  0  0  0  0  0  0
  -21.6360  -13.5530   22.3090 H   0  0  0  0  0  0  0  0  0  0  0  0
  -25.9380  -15.6230   20.4590 N   0  0  0  0  0  0  0  0  0  0  0  0
  -25.1940  -16.2850   20.6530 H   0  0  0  0  0  0  0  0  0  0  0  0
  -26.7840  -16.0660   20.1280 H   0  0  0  0  0  0  0  0  0  0  0  0
  1  3  2  0
  2  4  2  0
  3 48  1  0
  4  3  1  0
  5  1  1  0
  6  2  1  0
  6  5  2  0
  7  5  1  0
  7  9  1  0
  8 19  2  0
  9 14  1  0
 10 18  1  0
 10 20  1  0
 11 17  1  0
 11 13  1  0
 12 18  1  0
 13 12  1  0
 14 13  2  0
 15 16  1  0
 15  9  2  0
 16 11  2  0
 17 10  1  0
 18  8  1  0
 20 22  2  0
 21 20  1  0
 23 21  1  0
 24 33  2  0
 24 29  1  0
 25 21  1  0
 25 29  1  0
 26 25  1  0
 27 28  1  0
 27 26  1  0
 28 24  1  0
 29 30  2  0
 30 31  1  0
 32 31  2  0
 33 32  1  0
 34  8  1  0
 34 35  1  0
 34 44  1  0
 35 38  1  0
 36 35  1  0
 36 40  1  0
 37 36  2  0
 40 39  1  0
 40 42  1  0
 42 43  1  0
 42 41  1  0
 44 47  1  1
 44 45  1  0
 46 44  1  0
 48 51  1  0
 50 49  1  0
 51 50  1  0
 51 49  1  0
 52  4  1  0
 52 53  1  0
 54 53  1  0
 54 63  1  0
 55 61  1  0
 56 61  1  0
 57 58  1  0
 57 56  1  0
 59 58  1  0
 59 68  1  0
 59 60  1  0
 61 60  1  0
 62 55  2  0
 63 55  1  0
 63 64  1  0
 65 66  2  0
 66 85  1  0
 67 70  1  0
 67 66  1  0
 68 69  1  0
 68 65  1  0
 69 67  2  0
 70 71  1  0
 71 72  2  0
 73 76  1  0
 73 72  1  0
 74 73  2  0
 75 74  1  0
 75 70  2  0
 76 77  1  0
 77 82  2  0
 77 78  1  0
 78 79  2  0
 79 80  1  0
 80 84  1  0
 81 80  2  0
 82 81  1  0
 83 82  1  0
 85 86  1  0
 86 89  1  0
 86 88  1  0
 87 85  2  0
 90 65  1  0
 90 91  1  0
 92 90  1  0
M  ISO  4   5 101   7 101  55 100  63 100
M  END
>  <TORSDO>  (35) 
F 21

>  <SCORE>  (35) 
-12.176

>  <name>  (35) 
34

>  <ligand_id>  (35) 
34

>  <original_smiles>  (35) 
[H]c1nc(Oc2c([H])c([H])c3c(c2[H])C([H])([H])N(C(=O)C([H])(N([H])C(=O)C([H])(N([H])C([H])([H])[H])C([H])([H])[H])C(C([H])([H])[H])(C([H])([H])[H])C([H])([H])[H])C([H])(C(=O)N([H])C2([H])c4c([H])c([H])c([H])c([H])c4C([H])([H])C([H])([H])C2([H])[H])C3([H])[H])c([H])c(C([H])([H])C2([H])C([H])([H])C2([H])[H])c1OC([H])([H])C([H])([H])N([H])C(=O)N1C([H])([H])C([H])([H])C([H])([H])C([H])(n2nc(-c3c([H])c([H])c(Oc4c([H])c([H])c(F)c([H])c4F)c([H])c3[H])c(C(=O)N([H])[H])c2N([H])[H])C1([H])[H]

>  <smiles>  (35) 
[H]c1nc(Oc2c([H])c([H])c3c(c2[H])C([H])([H])N(C(=O)C([H])(N([H])C(=O)C([H])(N([H])C([H])([H])[H])C([H])([H])[H])C(C([H])([H])[H])(C([H])([H])[H])C([H])([H])[H])C([H])(C(=O)N([H])C2([H])c4c([H])c([H])c([H])c([H])c4C([H])([H])C([H])([H])C2([H])[H])C3([H])[H])c([H])c(C([H])([H])C2([H])C([H])([H])C2([H])[H])c1OC([H])([H])C([H])([H])N([H])C(=O)N1C([H])([H])C([H])([H])C([H])([H])C([H])(n2nc(-c3c([H])c([H])c(Oc4c([H])c([H])c(F)c([H])c4F)c([H])c3[H])c(C(=O)N([H])[H])c2N([H])[H])C1([H])[H]

$$$$
35:0:0
     RDKit          3D

103112  0  0  1  0  0  0  0  0999 V2000
  -31.6250  -21.5570   18.6820 C   0  0  0  0  0  0  0  0  0  0  0  0
  -33.2620  -20.9720   20.5290 C   0  0  0  0  0  2  0  0  0  0  0  0
  -30.5460  -20.9010   19.6270 C   0  0  0  0  0  3  0  0  0  0  0  0
  -33.0990  -21.6120   19.1390 C   0  0  0  0  0  3  0  0  0  0  0  0
  -32.5980  -19.5740   20.5270 C   0  0  0  0  0  3  0  0  0  0  0  0
  -31.0890  -19.6930   20.4460 N   0  0  2  0  0  4  0  0  0  0  0  0
  -31.3130  -22.0460   17.5940 O   0  0  0  0  0  0  0  0  0  0  0  0
  -30.8140  -19.9240   21.3900 H   0  0  0  0  0  0  0  0  0  0  0  0
  -30.3910  -23.2420   21.0650 C   0  0  0  0  0  2  0  0  0  0  0  0
  -28.7240  -22.8070   19.3440 C   0  0  0  0  0  2  0  0  0  0  0  0
  -29.5000  -24.3350   21.7490 C   0  0  0  0  0  2  0  0  0  0  0  0
  -27.8050  -23.9470   19.8980 C   0  0  0  0  0  2  0  0  0  0  0  0
  -29.6540  -22.0580   20.3510 C   0  0  0  0  0  3  0  0  0  0  0  0
  -28.3910  -25.0170   20.8920 C   0  0  0  0  0  3  0  0  0  0  0  0
  -28.6560  -26.4260   20.4740 O   0  0  0  0  0  0  0  0  0  0  0  0
  -24.7700  -31.8550   23.2860 C   0  0  0  0  0  0  0  0  0  0  0  0
  -27.5500  -27.2910   20.3830 C   0  0  0  0  0  0  0  0  0  0  0  0
  -23.6470  -30.4150   21.6290 C   0  0  0  0  0  3  0  0  0  0  0  0
  -25.1710  -28.8780   20.2700 C   0  0  0  0  0  0  0  0  0  0  0  0
  -26.1880  -30.7710   21.5300 C   0  0  0  0  0  2  0  0  0  0  0  0
  -26.3140  -29.3880   20.9000 C   0  0  0  0  0  0  0  0  0  0  0  0
  -27.5110  -28.6080   20.9430 C   0  0  0  0  0  3  0  0  0  0  0  0
  -26.3830  -26.8440   19.7280 C   0  0  0  0  0  3  0  0  0  0  0  0
  -25.2100  -27.6130   19.6710 C   0  0  0  0  0  3  0  0  0  0  0  0
  -23.9180  -29.7320   20.2640 C   0  0  0  0  0  2  0  0  0  0  0  0
  -24.8850  -31.0310   22.2040 N   0  0  0  0  0  0  0  0  0  0  0  0
  -23.6640  -32.1190   23.7790 O   0  0  0  0  0  0  0  0  0  0  0  0
  -22.9770  -29.3920   22.5790 C   0  0  0  0  0  0  0  0  0  0  0  0
  -21.6590  -29.1880   22.4120 N   0  0  0  0  0  0  0  0  0  0  0  0
  -23.6420  -28.7910   23.4240 O   0  0  0  0  0  0  0  0  0  0  0  0
  -21.1810  -29.7300   21.7070 H   0  0  0  0  0  0  0  0  0  0  0  0
  -18.2920  -27.9280   22.8040 C   0  0  0  0  0  0  0  0  0  0  0  0
  -20.8320  -28.2450   23.1660 C   0  0  0  0  0  3  0  0  0  0  0  0
  -20.9840  -26.8050   22.6200 C   0  0  0  0  0  2  0  0  0  0  0  0
  -19.9300  -26.4450   21.5690 C   0  0  0  0  0  2  0  0  0  0  0  0
  -18.5210  -26.5710   22.1580 C   0  0  0  0  0  2  0  0  0  0  0  0
  -19.3780  -28.7220   23.2600 C   0  0  0  0  0  0  0  0  0  0  0  0
  -19.1130  -29.9910   23.8190 C   0  0  0  0  0  3  0  0  0  0  0  0
  -17.7930  -30.4670   23.9290 C   0  0  0  0  0  3  0  0  0  0  0  0
  -16.7220  -29.6700   23.4910 C   0  0  0  0  0  3  0  0  0  0  0  0
  -16.9690  -28.4030   22.9320 C   0  0  0  0  0  3  0  0  0  0  0  0
  -26.0190  -32.5210   23.9400 C   0  0  0  0  0  3  0  0  0  0  0  0
  -25.6670  -33.9140   24.2520 N   0  0  0  0  0  0  0  0  0  0  0  0
  -25.9990  -34.9710   23.4970 C   0  0  0  0  0  0  0  0  0  0  0  0
  -26.6980  -34.8770   22.4850 O   0  0  0  0  0  0  0  0  0  0  0  0
  -25.0580  -34.0650   25.0410 H   0  0  0  0  0  0  0  0  0  0  0  0
  -24.2370  -36.7190   23.0910 C   0  0  0  0  0  1  0  0  0  0  0  0
  -25.4680  -36.3500   23.9340 C   0  0  0  0  0  3  0  0  0  0  0  0
  -27.5570  -37.2950   24.8140 C   0  0  0  0  0  1  0  0  0  0  0  0
  -26.4790  -37.4270   23.8370 N   0  0  0  0  0  0  0  0  0  0  0  0
  -26.0480  -38.3390   23.9650 H   0  0  0  0  0  0  0  0  0  0  0  0
  -26.5160  -31.7690   25.2360 C   0  0  1  0  0  0  0  0  0  0  0  0
  -25.3970  -31.5020   26.2710 C   0  0  0  0  0  1  0  0  0  0  0  0
  -27.1470  -30.4070   24.8650 C   0  0  0  0  0  1  0  0  0  0  0  0
  -27.6290  -32.5950   25.9230 C   0  0  0  0  0  1  0  0  0  0  0  0
  -33.8880  -23.8230   20.1320 C   0  0  0  0  0  1  0  0  0  0  0  0
  -34.8420  -23.0050   18.0390 C   0  0  0  0  0  1  0  0  0  0  0  0
  -33.6470  -22.9920   18.9210 N   0  0  1  0  0  4  0  0  0  0  0  0
  -32.9290  -23.4560   18.3780 H   0  0  0  0  0  0  0  0  0  0  0  0
  -33.2310  -18.6260   19.4370 C   0  0  0  0  0  2  0  0  0  0  0  0
  -35.2650  -17.5120   18.3800 C   0  0  0  0  0  1  0  0  0  0  0  0
  -34.7630  -18.4510   19.4890 C   0  0  0  0  0  2  0  0  0  0  0  0
  -30.4050  -18.3340   20.1980 C   0  0  0  0  0  2  0  0  0  0  0  0
  -30.5340  -17.2670   22.5250 C   0  0  0  0  0  1  0  0  0  0  0  0
  -30.9110  -17.0610   21.0460 C   0  0  0  0  0  3  0  0  0  0  0  0
  -31.0870  -14.5970   20.1610 C   0  0  0  0  0  0  0  0  0  0  0  0
  -30.7360  -12.4000   19.0370 C   0  0  0  0  0  2  0  0  0  0  0  0
  -29.7480  -12.5550   17.8580 C   0  0  0  0  0  2  0  0  0  0  0  0
  -28.2890  -12.4340   18.3370 C   0  0  0  0  0  2  0  0  0  0  0  0
  -28.0030  -13.2980   19.5930 C   0  0  0  0  0  3  0  0  0  0  0  0
  -29.0950  -13.1120   20.6700 C   0  0  0  0  0  2  0  0  0  0  0  0
  -30.3900  -13.4200   20.0470 N   0  0  0  0  0  0  0  0  0  0  0  0
  -32.2350  -14.7050   19.7210 O   0  0  0  0  0  0  0  0  0  0  0  0
  -30.4100  -15.6870   20.6500 N   0  0  0  0  0  0  0  0  0  0  0  0
  -29.4580  -15.4840   20.9180 H   0  0  0  0  0  0  0  0  0  0  0  0
  -25.6600  -13.9690   20.4040 C   0  0  0  0  0  0  0  0  0  0  0  0
  -24.5790  -13.2310   20.8030 C   0  0  0  0  0  0  0  0  0  0  0  0
  -24.9890  -11.8640   20.7400 C   0  0  0  0  0  0  0  0  0  0  0  0
  -26.6630  -13.0560   20.1220 N   0  0  0  0  0  0  0  0  0  0  0  0
  -26.2650  -11.7820   20.3830 N   0  0  0  0  0  0  0  0  0  0  0  0
  -24.2220  -10.6290   20.9410 C   0  0  0  0  0  0  0  0  0  0  0  0
  -24.6190   -9.6570   21.8860 C   0  0  0  0  0  3  0  0  0  0  0  0
  -23.8550   -8.4850   22.0750 C   0  0  0  0  0  3  0  0  0  0  0  0
  -22.6770   -8.2780   21.3180 C   0  0  0  0  0  0  0  0  0  0  0  0
  -22.2980   -9.2350   20.3620 C   0  0  0  0  0  3  0  0  0  0  0  0
  -23.0630  -10.3980   20.1720 C   0  0  0  0  0  3  0  0  0  0  0  0
  -21.8860   -7.1580   21.4160 O   0  0  0  0  0  0  0  0  0  0  0  0
  -21.7670   -6.4620   22.5920 C   0  0  0  0  0  0  0  0  0  0  0  0
  -21.2810   -7.0670   23.7710 C   0  0  0  0  0  3  0  0  0  0  0  0
  -21.1060   -6.2970   24.9380 C   0  0  0  0  0  3  0  0  0  0  0  0
  -21.4100   -4.9220   24.9280 C   0  0  0  0  0  0  0  0  0  0  0  0
  -21.8890   -4.3170   23.7520 C   0  0  0  0  0  3  0  0  0  0  0  0
  -22.0630   -5.0850   22.5870 C   0  0  0  0  0  0  0  0  0  0  0  0
  -22.5060   -4.4900   21.4520 F   0  0  0  0  0  0  0  0  0  0  0  0
  -21.2360   -4.1810   26.0460 F   0  0  0  0  0  0  0  0  0  0  0  0
  -23.2120  -13.7590   21.1310 C   0  0  0  0  0  0  0  0  0  0  0  0
  -22.4910  -13.0820   22.0200 N   0  0  0  0  0  0  0  0  0  0  0  0
  -22.7930  -14.8040   20.6350 O   0  0  0  0  0  0  0  0  0  0  0  0
  -22.8420  -12.2360   22.4410 H   0  0  0  0  0  0  0  0  0  0  0  0
  -21.5760  -13.4180   22.2830 H   0  0  0  0  0  0  0  0  0  0  0  0
  -25.8670  -15.3370   20.2380 N   0  0  0  0  0  0  0  0  0  0  0  0
  -25.1180  -16.0090   20.3630 H   0  0  0  0  0  0  0  0  0  0  0  0
  -26.7090  -15.7500   19.8590 H   0  0  0  0  0  0  0  0  0  0  0  0
  1  4  1  0
  3  1  1  0
  3 13  1  0
  3  6  1  0
  4 58  1  0
  4  2  1  0
  5 60  1  0
  5  2  1  0
  6  5  1  0
  6  8  1  1
  7  1  2  0
  9 11  1  0
 10 12  1  0
 12 14  1  0
 13 10  1  0
 13  9  1  0
 14 15  1  0
 14 11  1  0
 16 27  2  0
 17 15  1  0
 17 22  1  0
 18 26  1  0
 18 28  1  0
 19 21  1  0
 20 26  1  0
 21 22  2  0
 21 20  1  0
 23 17  2  0
 24 23  1  0
 24 19  2  0
 25 19  1  0
 25 18  1  0
 26 16  1  0
 28 30  2  0
 29 28  1  0
 31 29  1  0
 32 41  2  0
 32 37  1  0
 33 29  1  0
 33 37  1  0
 34 33  1  0
 35 36  1  0
 35 34  1  0
 36 32  1  0
 37 38  2  0
 38 39  1  0
 40 39  2  0
 41 40  1  0
 42 16  1  0
 42 43  1  0
 42 52  1  0
 43 46  1  0
 44 48  1  0
 44 43  1  0
 45 44  2  0
 48 47  1  0
 50 48  1  0
 50 51  1  0
 50 49  1  0
 52 55  1  1
 52 53  1  0
 54 52  1  0
 57 58  1  0
 58 56  1  0
 58 59  1  6
 60 62  1  0
 61 62  1  0
 63  6  1  0
 63 65  1  0
 65 64  1  0
 66 74  1  0
 67 72  1  0
 68 69  1  0
 68 67  1  0
 70 69  1  0
 70 79  1  0
 70 71  1  0
 72 66  1  0
 72 71  1  0
 73 66  2  0
 74 75  1  0
 74 65  1  0
 76 77  2  0
 77 96  1  0
 78 77  1  0
 78 81  1  0
 79 80  1  0
 79 76  1  0
 80 78  2  0
 81 82  1  0
 82 83  2  0
 84 87  1  0
 84 83  1  0
 85 84  2  0
 86 85  1  0
 86 81  2  0
 87 88  1  0
 88 89  1  0
 89 90  2  0
 91 90  1  0
 91 95  1  0
 92 91  2  0
 93 88  2  0
 93 92  1  0
 94 93  1  0
 96 97  1  0
 97100  1  0
 97 99  1  0
 98 96  2  0
101102  1  0
101 76  1  0
103101  1  0
M  ISO  4  14 101  15 101  66 100  74 100
M  END
>  <TORSDO>  (36) 
F 22

>  <SCORE>  (36) 
-12.986

>  <name>  (36) 
35

>  <ligand_id>  (36) 
35

>  <original_smiles>  (36) 
[H]c1c([H])c([H])c2c(c1[H])C([H])([H])C([H])([H])C([H])([H])C2([H])N([H])C(=O)C1([H])N(C(=O)C([H])(N([H])C(=O)C([H])(N([H])C([H])([H])[H])C([H])([H])[H])C(C([H])([H])[H])(C([H])([H])[H])C([H])([H])[H])C([H])([H])c2c([H])c(OC3([H])C([H])([H])C([H])([H])C([H])(C4([H])C(=O)C([H])([N+]([H])(C([H])([H])[H])C([H])([H])[H])C([H])([H])C([H])(C([H])([H])C([H])([H])C([H])([H])[H])[N+]4([H])C([H])([H])C([H])(N([H])C(=O)N4C([H])([H])C([H])([H])C([H])([H])C([H])(n5nc(-c6c([H])c([H])c(Oc7c([H])c([H])c(F)c([H])c7F)c([H])c6[H])c(C(=O)N([H])[H])c5N([H])[H])C4([H])[H])C([H])([H])[H])C([H])([H])C3([H])[H])c([H])c([H])c2C1([H])[H]

>  <smiles>  (36) 
[H]c1c([H])c([H])c2c(c1[H])C([H])([H])C([H])([H])C([H])([H])C2([H])N([H])C(=O)C1([H])N(C(=O)C([H])(N([H])C(=O)C([H])(N([H])C([H])([H])[H])C([H])([H])[H])C(C([H])([H])[H])(C([H])([H])[H])C([H])([H])[H])C([H])([H])c2c([H])c(OC3([H])C([H])([H])C([H])([H])C([H])(C4([H])C(=O)C([H])([N+]([H])(C([H])([H])[H])C([H])([H])[H])C([H])([H])C([H])(C([H])([H])C([H])([H])C([H])([H])[H])[N+]4([H])C([H])([H])C([H])(N([H])C(=O)N4C([H])([H])C([H])([H])C([H])([H])C([H])(n5nc(-c6c([H])c([H])c(Oc7c([H])c([H])c(F)c([H])c7F)c([H])c6[H])c(C(=O)N([H])[H])c5N([H])[H])C4([H])[H])C([H])([H])[H])C([H])([H])C3([H])[H])c([H])c([H])c2C1([H])[H]

$$$$
36:0:0
     RDKit          3D

 87 95  0  0  1  0  0  0  0  0999 V2000
  -27.6410  -23.0320   20.9510 C   0  0  0  0  0  3  0  0  0  0  0  0
  -28.0160  -23.9730   19.8320 C   0  0  0  0  0  3  0  0  0  0  0  0
  -28.7950  -22.2850   20.2300 C   0  0  0  0  0  0  0  0  0  0  0  0
  -27.7590  -23.4780   22.4000 C   0  0  0  0  0  1  0  0  0  0  0  0
  -30.0290  -22.5510   20.8640 O   0  0  0  0  0  0  0  0  0  0  0  0
  -29.8250  -23.0440   21.6520 H   0  0  0  0  0  0  0  0  0  0  0  0
  -28.1160  -25.6810   20.1860 O   0  0  0  0  0  0  0  0  0  0  0  0
  -24.6720  -31.8820   23.2170 C   0  0  0  0  0  0  0  0  0  0  0  0
  -27.1440  -26.8760   20.1190 C   0  0  0  0  0  0  0  0  0  0  0  0
  -23.4550  -30.5080   21.5800 C   0  0  0  0  0  3  0  0  0  0  0  0
  -24.8780  -28.8850   20.1200 C   0  0  0  0  0  0  0  0  0  0  0  0
  -26.0300  -30.6610   21.4170 C   0  0  0  0  0  2  0  0  0  0  0  0
  -26.0810  -29.2410   20.7400 C   0  0  0  0  0  0  0  0  0  0  0  0
  -27.1980  -28.2600   20.7130 C   0  0  0  0  0  3  0  0  0  0  0  0
  -25.9100  -26.7250   19.4360 C   0  0  0  0  0  3  0  0  0  0  0  0
  -24.8290  -27.6540   19.4450 C   0  0  0  0  0  3  0  0  0  0  0  0
  -23.6720  -29.8310   20.1950 C   0  0  0  0  0  2  0  0  0  0  0  0
  -24.7430  -31.0490   22.1240 N   0  0  0  0  0  0  0  0  0  0  0  0
  -23.5880  -32.1740   23.7510 O   0  0  0  0  0  0  0  0  0  0  0  0
  -22.7600  -29.5150   22.5490 C   0  0  0  0  0  0  0  0  0  0  0  0
  -21.4300  -29.3410   22.4300 N   0  0  0  0  0  0  0  0  0  0  0  0
  -23.4300  -28.8940   23.3780 O   0  0  0  0  0  0  0  0  0  0  0  0
  -20.9410  -29.8940   21.7400 H   0  0  0  0  0  0  0  0  0  0  0  0
  -18.0630  -28.0740   22.9420 C   0  0  0  0  0  0  0  0  0  0  0  0
  -20.6190  -28.3920   23.2020 C   0  0  0  0  0  3  0  0  0  0  0  0
  -20.7450  -26.9600   22.6320 C   0  0  0  0  0  2  0  0  0  0  0  0
  -19.6490  -26.6150   21.6170 C   0  0  0  0  0  2  0  0  0  0  0  0
  -18.2640  -26.7320   22.2620 C   0  0  0  0  0  2  0  0  0  0  0  0
  -19.1670  -28.8610   23.3700 C   0  0  0  0  0  0  0  0  0  0  0  0
  -18.9190  -30.1140   23.9710 C   0  0  0  0  0  3  0  0  0  0  0  0
  -17.6030  -30.5820   24.1460 C   0  0  0  0  0  3  0  0  0  0  0  0
  -16.5150  -29.7940   23.7310 C   0  0  0  0  0  3  0  0  0  0  0  0
  -16.7460  -28.5420   23.1330 C   0  0  0  0  0  3  0  0  0  0  0  0
  -25.9470  -32.5240   23.8460 C   0  0  0  0  0  3  0  0  0  0  0  0
  -26.4540  -31.7600   25.1330 C   0  0  1  0  0  0  0  0  0  0  0  0
  -25.3570  -31.5380   26.2030 C   0  0  0  0  0  1  0  0  0  0  0  0
  -27.0260  -30.3730   24.7640 C   0  0  0  0  0  1  0  0  0  0  0  0
  -27.6090  -32.5510   25.7890 C   0  0  0  0  0  1  0  0  0  0  0  0
  -25.6350  -33.9250   24.1890 N   0  0  0  0  0  0  0  0  0  0  0  0
  -25.9430  -34.9910   23.4380 C   0  0  0  0  0  0  0  0  0  0  0  0
  -26.5760  -34.8980   22.3830 O   0  0  0  0  0  0  0  0  0  0  0  0
  -25.0720  -34.0710   25.0140 H   0  0  0  0  0  0  0  0  0  0  0  0
  -24.2030  -36.7970   23.1760 C   0  0  0  0  0  1  0  0  0  0  0  0
  -25.4770  -36.3800   23.9280 C   0  0  0  0  0  3  0  0  0  0  0  0
  -27.6400  -37.2710   24.6800 C   0  0  0  0  0  1  0  0  0  0  0  0
  -26.5040  -37.4350   23.7790 N   0  0  0  0  0  0  0  0  0  0  0  0
  -26.1020  -38.3550   23.9370 H   0  0  0  0  0  0  0  0  0  0  0  0
  -28.6350  -20.3930   20.1210 C   0  0  0  0  0  3  0  0  0  0  0  0
  -29.7270  -18.8120   20.0830 C   0  0  0  0  0  3  0  0  0  0  0  0
  -30.3090  -15.7130   19.9920 C   0  0  0  0  0  0  0  0  0  0  0  0
  -30.3720  -13.2000   19.1290 C   0  0  0  0  0  2  0  0  0  0  0  0
  -29.4240  -12.8520   17.9500 C   0  0  0  0  0  2  0  0  0  0  0  0
  -28.0210  -12.4940   18.4610 C   0  0  0  0  0  2  0  0  0  0  0  0
  -27.5620  -13.4630   19.5760 C   0  0  0  0  0  3  0  0  0  0  0  0
  -28.6440  -13.7330   20.6460 C   0  0  0  0  0  2  0  0  0  0  0  0
  -29.7880  -14.3550   19.9430 N   0  0  0  0  0  0  0  0  0  0  0  0
  -31.5290  -15.6750   19.7550 O   0  0  0  0  0  0  0  0  0  0  0  0
  -29.5410  -17.0530   20.1140 N   0  0  0  0  0  0  0  0  0  0  0  0
  -28.5690  -16.8240   20.2590 H   0  0  0  0  0  0  0  0  0  0  0  0
  -25.2260  -13.9580   20.4460 C   0  0  0  0  0  0  0  0  0  0  0  0
  -24.1900  -13.1600   20.8460 C   0  0  0  0  0  0  0  0  0  0  0  0
  -24.6740  -11.8170   20.7680 C   0  0  0  0  0  0  0  0  0  0  0  0
  -26.2680  -13.1030   20.1430 N   0  0  0  0  0  0  0  0  0  0  0  0
  -25.9520  -11.8050   20.4010 N   0  0  0  0  0  0  0  0  0  0  0  0
  -23.9680  -10.5400   20.9620 C   0  0  0  0  0  0  0  0  0  0  0  0
  -24.4250   -9.5750   21.8860 C   0  0  0  0  0  3  0  0  0  0  0  0
  -23.7180   -8.3670   22.0710 C   0  0  0  0  0  3  0  0  0  0  0  0
  -22.5360   -8.1170   21.3350 C   0  0  0  0  0  0  0  0  0  0  0  0
  -22.0970   -9.0710   20.3990 C   0  0  0  0  0  3  0  0  0  0  0  0
  -22.8060  -10.2700   20.2120 C   0  0  0  0  0  3  0  0  0  0  0  0
  -21.7990   -6.9620   21.4320 O   0  0  0  0  0  0  0  0  0  0  0  0
  -21.7450   -6.2370   22.5970 C   0  0  0  0  0  0  0  0  0  0  0  0
  -21.2470   -6.7890   23.7970 C   0  0  0  0  0  3  0  0  0  0  0  0
  -21.1450   -5.9890   24.9530 C   0  0  0  0  0  3  0  0  0  0  0  0
  -21.5310   -4.6350   24.9080 C   0  0  0  0  0  0  0  0  0  0  0  0
  -22.0220   -4.0820   23.7120 C   0  0  0  0  0  3  0  0  0  0  0  0
  -22.1260   -4.8810   22.5600 C   0  0  0  0  0  0  0  0  0  0  0  0
  -22.5790   -4.3350   21.4050 F   0  0  0  0  0  0  0  0  0  0  0  0
  -21.4280   -3.8640   26.0150 F   0  0  0  0  0  0  0  0  0  0  0  0
  -22.7980  -13.6150   21.1760 C   0  0  0  0  0  0  0  0  0  0  0  0
  -22.1120  -12.8990   22.0610 N   0  0  0  0  0  0  0  0  0  0  0  0
  -22.3290  -14.6390   20.6850 O   0  0  0  0  0  0  0  0  0  0  0  0
  -22.5080  -12.0740   22.4870 H   0  0  0  0  0  0  0  0  0  0  0  0
  -21.1760  -13.1800   22.3170 H   0  0  0  0  0  0  0  0  0  0  0  0
  -25.3620  -15.3330   20.2780 N   0  0  0  0  0  0  0  0  0  0  0  0
  -24.5950  -15.9790   20.4280 H   0  0  0  0  0  0  0  0  0  0  0  0
  -26.1840  -15.7750   19.8890 H   0  0  0  0  0  0  0  0  0  0  0  0
  1  4  1  0
  2  7  1  0
  2  3  1  0
  2  1  1  0
  3 48  1  0
  3  5  1  0
  3  1  1  0
  5  6  1  0
  8 19  2  0
  9  7  1  0
  9 14  1  0
 10 18  1  0
 10 20  1  0
 11 17  1  0
 11 13  1  0
 12 18  1  0
 13 12  1  0
 14 13  2  0
 15 16  1  0
 15  9  2  0
 16 11  2  0
 17 10  1  0
 18  8  1  0
 20 22  2  0
 21 20  1  0
 23 21  1  0
 24 33  2  0
 24 29  1  0
 25 21  1  0
 25 29  1  0
 26 25  1  0
 27 28  1  0
 27 26  1  0
 28 24  1  0
 29 30  2  0
 30 31  1  0
 32 31  2  0
 33 32  1  0
 34  8  1  0
 34 39  1  0
 34 35  1  0
 35 38  1  1
 35 36  1  0
 37 35  1  0
 39 42  1  0
 40 44  1  0
 40 39  1  0
 41 40  2  0
 44 43  1  0
 46 44  1  0
 46 47  1  0
 46 45  1  0
 49 58  1  0
 49 48  2  0
 50 58  1  0
 51 56  1  0
 52 53  1  0
 52 51  1  0
 54 53  1  0
 54 63  1  0
 54 55  1  0
 56 50  1  0
 56 55  1  0
 57 50  2  0
 58 59  1  0
 60 61  2  0
 61 80  1  0
 62 61  1  0
 62 65  1  0
 63 64  1  0
 63 60  1  0
 64 62  2  0
 65 66  1  0
 66 67  2  0
 68 71  1  0
 68 67  1  0
 69 68  2  0
 70 69  1  0
 70 65  2  0
 71 72  1  0
 72 73  1  0
 73 74  2  0
 75 74  1  0
 75 79  1  0
 76 75  2  0
 77 72  2  0
 77 76  1  0
 78 77  1  0
 80 81  1  0
 81 84  1  0
 81 83  1  0
 82 80  2  0
 85 86  1  0
 85 60  1  0
 87 85  1  0
M  ISO  4   2 101   7 101  50 100  58 100
M  END
>  <TORSDO>  (37) 
F 19

>  <SCORE>  (37) 
-15.795

>  <name>  (37) 
36

>  <ligand_id>  (37) 
36

>  <original_smiles>  (37) 
[H]OC1(C([H])([H])C([H])([H])N([H])C(=O)N2C([H])([H])C([H])([H])C([H])([H])C([H])(n3nc(-c4c([H])c([H])c(Oc5c([H])c([H])c(F)c([H])c5F)c([H])c4[H])c(C(=O)N([H])[H])c3N([H])[H])C2([H])[H])C([H])(Oc2c([H])c([H])c3c(c2[H])C([H])([H])N(C(=O)C([H])(N([H])C(=O)C([H])(N([H])C([H])([H])[H])C([H])([H])[H])C(C([H])([H])[H])(C([H])([H])[H])C([H])([H])[H])C([H])(C(=O)N([H])C2([H])c4c([H])c([H])c([H])c([H])c4C([H])([H])C([H])([H])C2([H])[H])C3([H])[H])C1([H])C([H])([H])[H]

>  <smiles>  (37) 
[H]OC1(C([H])([H])C([H])([H])N([H])C(=O)N2C([H])([H])C([H])([H])C([H])([H])C([H])(n3nc(-c4c([H])c([H])c(Oc5c([H])c([H])c(F)c([H])c5F)c([H])c4[H])c(C(=O)N([H])[H])c3N([H])[H])C2([H])[H])C([H])(Oc2c([H])c([H])c3c(c2[H])C([H])([H])N(C(=O)C([H])(N([H])C(=O)C([H])(N([H])C([H])([H])[H])C([H])([H])[H])C(C([H])([H])[H])(C([H])([H])[H])C([H])([H])[H])C([H])(C(=O)N([H])C2([H])c4c([H])c([H])c([H])c([H])c4C([H])([H])C([H])([H])C2([H])[H])C3([H])[H])C1([H])C([H])([H])[H]

$$$$
37:0:0
     RDKit          3D

 96105  0  0  1  0  0  0  0  0999 V2000
  -27.3110  -20.8890   19.2060 C   0  0  0  0  0  3  0  0  0  0  0  0
  -29.9110  -20.4610   19.9410 C   0  0  0  0  0  3  0  0  0  0  0  0
  -27.7350  -19.5550   19.3940 C   0  0  0  0  0  0  0  0  0  0  0  0
  -29.0840  -19.3210   19.7620 C   0  0  0  0  0  0  0  0  0  0  0  0
  -28.2090  -21.9490   19.4160 C   0  0  0  0  0  0  0  0  0  0  0  0
  -29.4900  -21.7410   19.7880 N   0  0  0  0  0  0  0  0  0  0  0  0
  -26.9280  -17.4270   20.4720 C   0  0  0  0  0  1  0  0  0  0  0  0
  -26.7510  -18.3850   19.2850 C   0  0  0  0  0  3  0  0  0  0  0  0
  -24.7530  -19.3860   17.8620 C   0  0  0  0  0  2  0  0  0  0  0  0
  -24.3500  -17.9920   18.2780 C   0  0  0  0  0  2  0  0  0  0  0  0
  -25.2880  -18.8010   19.1490 C   0  0  0  0  0  3  0  0  0  0  0  0
  -29.5150  -18.0090   19.9080 O   0  0  0  0  0  0  0  0  0  0  0  0
  -30.5380  -17.6880   20.8590 C   0  0  0  0  0  2  0  0  0  0  0  0
  -31.5230  -16.6180   20.3210 C   0  0  0  0  0  2  0  0  0  0  0  0
  -31.7250  -14.1190   20.3750 C   0  0  0  0  0  0  0  0  0  0  0  0
  -31.4730  -11.7160   19.8740 C   0  0  0  0  0  2  0  0  0  0  0  0
  -30.6250  -11.5400   18.5990 C   0  0  0  0  0  2  0  0  0  0  0  0
  -29.1220  -11.5200   18.9430 C   0  0  0  0  0  2  0  0  0  0  0  0
  -28.7000  -12.6870   19.8780 C   0  0  0  0  0  3  0  0  0  0  0  0
  -29.6710  -12.8380   21.0660 C   0  0  0  0  0  2  0  0  0  0  0  0
  -31.0320  -12.9590   20.5230 N   0  0  0  0  0  0  0  0  0  0  0  0
  -32.9100  -14.1590   20.0360 O   0  0  0  0  0  0  0  0  0  0  0  0
  -30.9990  -15.2500   20.4520 N   0  0  0  0  0  0  0  0  0  0  0  0
  -29.9990  -15.1580   20.5320 H   0  0  0  0  0  0  0  0  0  0  0  0
  -26.3870  -13.5400   20.6020 C   0  0  0  0  0  0  0  0  0  0  0  0
  -25.2220  -12.8900   20.8990 C   0  0  0  0  0  0  0  0  0  0  0  0
  -25.5140  -11.4940   20.8040 C   0  0  0  0  0  0  0  0  0  0  0  0
  -27.3150  -12.5520   20.3250 N   0  0  0  0  0  0  0  0  0  0  0  0
  -26.7960  -11.3110   20.5110 N   0  0  0  0  0  0  0  0  0  0  0  0
  -24.6350  -10.3240   20.9170 C   0  0  0  0  0  0  0  0  0  0  0  0
  -24.8570   -9.3230   21.8890 C   0  0  0  0  0  3  0  0  0  0  0  0
  -23.9860   -8.2170   21.9890 C   0  0  0  0  0  3  0  0  0  0  0  0
  -22.8760   -8.1050   21.1180 C   0  0  0  0  0  0  0  0  0  0  0  0
  -22.6720   -9.0930   20.1370 C   0  0  0  0  0  3  0  0  0  0  0  0
  -23.5440  -10.1890   20.0350 C   0  0  0  0  0  3  0  0  0  0  0  0
  -21.9920   -7.0550   21.1290 O   0  0  0  0  0  0  0  0  0  0  0  0
  -21.6690   -6.3980   22.2890 C   0  0  0  0  0  0  0  0  0  0  0  0
  -21.0790   -7.0660   23.3850 C   0  0  0  0  0  3  0  0  0  0  0  0
  -20.6980   -6.3380   24.5300 C   0  0  0  0  0  3  0  0  0  0  0  0
  -20.8990   -4.9460   24.5790 C   0  0  0  0  0  0  0  0  0  0  0  0
  -21.4820   -4.2790   23.4880 C   0  0  0  0  0  3  0  0  0  0  0  0
  -21.8630   -5.0020   22.3440 C   0  0  0  0  0  0  0  0  0  0  0  0
  -22.4040   -4.3530   21.2860 F   0  0  0  0  0  0  0  0  0  0  0  0
  -20.5240   -4.2440   25.6750 F   0  0  0  0  0  0  0  0  0  0  0  0
  -23.8850  -13.5220   21.1700 C   0  0  0  0  0  0  0  0  0  0  0  0
  -23.0660  -12.8850   21.9980 N   0  0  0  0  0  0  0  0  0  0  0  0
  -23.5810  -14.6100   20.6810 O   0  0  0  0  0  0  0  0  0  0  0  0
  -23.3220  -11.9980   22.4060 H   0  0  0  0  0  0  0  0  0  0  0  0
  -22.1650  -13.2870   22.2260 H   0  0  0  0  0  0  0  0  0  0  0  0
  -26.7350  -14.8840   20.5300 N   0  0  0  0  0  0  0  0  0  0  0  0
  -26.0820  -15.6230   20.7560 H   0  0  0  0  0  0  0  0  0  0  0  0
  -27.6690  -15.2200   20.3310 H   0  0  0  0  0  0  0  0  0  0  0  0
  -27.7500  -23.2380   19.2130 O   0  0  0  0  0  0  0  0  0  0  0  0
  -28.6330  -24.3690   19.2410 C   0  0  0  0  0  2  0  0  0  0  0  0
  -28.4480  -25.1830   20.5460 C   0  0  0  0  0  2  0  0  0  0  0  0
  -28.6040  -26.6160   20.4090 O   0  0  0  0  0  0  0  0  0  0  0  0
  -24.8960  -31.9520   23.3880 C   0  0  0  0  0  0  0  0  0  0  0  0
  -27.4490  -27.3760   20.3920 C   0  0  0  0  0  0  0  0  0  0  0  0
  -23.6590  -30.5260   21.7890 C   0  0  0  0  0  3  0  0  0  0  0  0
  -25.0790  -28.9290   20.3910 C   0  0  0  0  0  0  0  0  0  0  0  0
  -26.1930  -30.8300   21.5770 C   0  0  0  0  0  2  0  0  0  0  0  0
  -26.2510  -29.4450   20.9590 C   0  0  0  0  0  0  0  0  0  0  0  0
  -27.4390  -28.6760   20.9520 C   0  0  0  0  0  3  0  0  0  0  0  0
  -26.2600  -26.8810   19.8150 C   0  0  0  0  0  3  0  0  0  0  0  0
  -25.0780  -27.6450   19.8200 C   0  0  0  0  0  3  0  0  0  0  0  0
  -23.8460  -29.8050   20.4270 C   0  0  0  0  0  2  0  0  0  0  0  0
  -24.9340  -31.1200   22.3070 N   0  0  0  0  0  0  0  0  0  0  0  0
  -23.8200  -32.2560   23.9250 O   0  0  0  0  0  0  0  0  0  0  0  0
  -23.0000  -29.5390   22.7790 C   0  0  0  0  0  0  0  0  0  0  0  0
  -21.6890  -29.3060   22.6060 N   0  0  0  0  0  0  0  0  0  0  0  0
  -23.6670  -28.9830   23.6550 O   0  0  0  0  0  0  0  0  0  0  0  0
  -21.2100  -29.8180   21.8770 H   0  0  0  0  0  0  0  0  0  0  0  0
  -18.3480  -27.9750   22.9750 C   0  0  0  0  0  0  0  0  0  0  0  0
  -20.8670  -28.3820   23.3870 C   0  0  0  0  0  3  0  0  0  0  0  0
  -21.0730  -26.9190   22.9230 C   0  0  0  0  0  2  0  0  0  0  0  0
  -20.0560  -26.4690   21.8700 C   0  0  0  0  0  2  0  0  0  0  0  0
  -18.6290  -26.5920   22.4110 C   0  0  0  0  0  2  0  0  0  0  0  0
  -19.3990  -28.8230   23.4130 C   0  0  0  0  0  0  0  0  0  0  0  0
  -19.0860  -30.1150   23.8870 C   0  0  0  0  0  3  0  0  0  0  0  0
  -17.7520  -30.5600   23.9340 C   0  0  0  0  0  3  0  0  0  0  0  0
  -16.7120  -29.7080   23.5190 C   0  0  0  0  0  3  0  0  0  0  0  0
  -17.0110  -28.4200   23.0430 C   0  0  0  0  0  3  0  0  0  0  0  0
  -26.1950  -32.5810   23.9840 C   0  0  0  0  0  3  0  0  0  0  0  0
  -25.9020  -33.9890   24.2910 N   0  0  0  0  0  0  0  0  0  0  0  0
  -26.2240  -35.0240   23.5030 C   0  0  0  0  0  0  0  0  0  0  0  0
  -26.8710  -34.8940   22.4610 O   0  0  0  0  0  0  0  0  0  0  0  0
  -25.3380  -34.1640   25.1090 H   0  0  0  0  0  0  0  0  0  0  0  0
  -24.4880  -36.8120   23.1600 C   0  0  0  0  0  1  0  0  0  0  0  0
  -25.7530  -36.4230   23.9420 C   0  0  0  0  0  3  0  0  0  0  0  0
  -27.9140  -37.3230   24.6830 C   0  0  0  0  0  1  0  0  0  0  0  0
  -26.7810  -37.4730   23.7750 N   0  0  0  0  0  0  0  0  0  0  0  0
  -26.3800  -38.3950   23.9220 H   0  0  0  0  0  0  0  0  0  0  0  0
  -26.7190  -31.8280   25.2690 C   0  0  1  0  0  0  0  0  0  0  0  0
  -25.6290  -31.5730   26.3370 C   0  0  0  0  0  1  0  0  0  0  0  0
  -27.3300  -30.4600   24.8910 C   0  0  0  0  0  1  0  0  0  0  0  0
  -27.8470  -32.6480   25.9350 C   0  0  0  0  0  1  0  0  0  0  0  0
  1  3  2  0
  1  5  1  0
  3  4  1  0
  4 12  1  0
  4  2  2  0
  5  6  2  0
  6  2  1  0
  8  3  1  0
  8  7  1  0
  9 10  1  0
  9 11  1  0
 10 11  1  0
 11  8  1  0
 12 13  1  0
 14 23  1  0
 14 13  1  0
 15 23  1  0
 15 21  1  0
 16 21  1  0
 17 18  1  0
 17 16  1  0
 19 18  1  0
 19 28  1  0
 19 20  1  0
 21 20  1  0
 22 15  2  0
 23 24  1  0
 25 26  2  0
 26 45  1  0
 27 26  1  0
 27 30  1  0
 28 29  1  0
 28 25  1  0
 29 27  2  0
 30 31  1  0
 31 32  2  0
 33 36  1  0
 33 32  1  0
 34 33  2  0
 35 34  1  0
 35 30  2  0
 36 37  1  0
 37 42  2  0
 37 38  1  0
 38 39  2  0
 39 40  1  0
 40 44  1  0
 41 40  2  0
 42 41  1  0
 43 42  1  0
 45 46  1  0
 46 49  1  0
 46 48  1  0
 47 45  2  0
 50 25  1  0
 50 51  1  0
 52 50  1  0
 53 54  1  0
 53  5  1  0
 54 55  1  0
 56 55  1  0
 57 68  2  0
 58 56  1  0
 58 63  1  0
 59 67  1  0
 59 69  1  0
 60 66  1  0
 60 62  1  0
 61 67  1  0
 62 61  1  0
 63 62  2  0
 64 65  1  0
 64 58  2  0
 65 60  2  0
 66 59  1  0
 67 57  1  0
 69 71  2  0
 70 69  1  0
 72 70  1  0
 73 82  2  0
 73 78  1  0
 74 70  1  0
 74 78  1  0
 75 74  1  0
 76 77  1  0
 76 75  1  0
 77 73  1  0
 78 79  2  0
 79 80  1  0
 81 80  2  0
 82 81  1  0
 83 57  1  0
 83 84  1  0
 83 93  1  0
 84 87  1  0
 85 89  1  0
 85 84  1  0
 86 85  2  0
 89 88  1  0
 91 92  1  0
 91 89  1  0
 91 90  1  0
 93 96  1  1
 93 94  1  0
 95 93  1  0
M  ISO  4  15 100  23 100  55 101  56 101
M  END
>  <TORSDO>  (38) 
F 24

>  <SCORE>  (38) 
-7.388

>  <name>  (38) 
37

>  <ligand_id>  (38) 
37

>  <original_smiles>  (38) 
[H]c1nc(OC([H])([H])C([H])([H])Oc2c([H])c([H])c3c(c2[H])C([H])([H])N(C(=O)C([H])(N([H])C(=O)C([H])(N([H])C([H])([H])[H])C([H])([H])[H])C(C([H])([H])[H])(C([H])([H])[H])C([H])([H])[H])C([H])(C(=O)N([H])C2([H])c4c([H])c([H])c([H])c([H])c4C([H])([H])C([H])([H])C2([H])[H])C3([H])[H])c([H])c(C([H])(C([H])([H])[H])C2([H])C([H])([H])C2([H])[H])c1OC([H])([H])C([H])([H])N([H])C(=O)N1C([H])([H])C([H])([H])C([H])([H])C([H])(n2nc(-c3c([H])c([H])c(Oc4c([H])c([H])c(F)c([H])c4F)c([H])c3[H])c(C(=O)N([H])[H])c2N([H])[H])C1([H])[H]

>  <smiles>  (38) 
[H]c1nc(OC([H])([H])C([H])([H])Oc2c([H])c([H])c3c(c2[H])C([H])([H])N(C(=O)C([H])(N([H])C(=O)C([H])(N([H])C([H])([H])[H])C([H])([H])[H])C(C([H])([H])[H])(C([H])([H])[H])C([H])([H])[H])C([H])(C(=O)N([H])C2([H])c4c([H])c([H])c([H])c([H])c4C([H])([H])C([H])([H])C2([H])[H])C3([H])[H])c([H])c(C([H])(C([H])([H])[H])C2([H])C([H])([H])C2([H])[H])c1OC([H])([H])C([H])([H])N([H])C(=O)N1C([H])([H])C([H])([H])C([H])([H])C([H])(n2nc(-c3c([H])c([H])c(Oc4c([H])c([H])c(F)c([H])c4F)c([H])c3[H])c(C(=O)N([H])[H])c2N([H])[H])C1([H])[H]

$$$$
38:0:0
     RDKit          3D

 91100  0  0  1  0  0  0  0  0999 V2000
  -28.3420  -22.8190   18.9350 C   0  0  0  0  0  3  0  0  0  0  0  0
  -29.1440  -20.4670   19.4590 C   0  0  0  0  0  0  0  0  0  0  0  0
  -28.5350  -21.4270   18.5760 C   0  0  0  0  0  0  0  0  0  0  0  0
  -29.5460  -21.0500   20.6810 C   0  0  0  0  0  0  0  0  0  0  0  0
  -28.7420  -23.3580   20.1880 C   0  0  0  0  0  0  0  0  0  0  0  0
  -29.3090  -18.8730   19.1340 C   0  0  0  0  0  2  0  0  0  0  0  0
  -30.2680  -20.0770   21.6480 C   0  0  0  0  0  2  0  0  0  0  0  0
  -30.0110  -18.5060   21.4870 C   0  0  0  0  0  2  0  0  0  0  0  0
  -30.1830  -17.8450   20.0690 C   0  0  0  0  0  3  0  0  0  0  0  0
  -28.0360  -20.9600   17.2220 C   0  0  0  0  0  1  0  0  0  0  0  0
  -29.3470  -22.4070   21.0260 N   0  0  0  0  0  0  0  0  0  0  0  0
  -30.7490  -15.0660   19.8580 C   0  0  0  0  0  0  0  0  0  0  0  0
  -30.5980  -12.6880   18.9520 C   0  0  0  0  0  2  0  0  0  0  0  0
  -29.5850  -12.5990   17.7850 C   0  0  0  0  0  2  0  0  0  0  0  0
  -28.1560  -12.3840   18.3170 C   0  0  0  0  0  2  0  0  0  0  0  0
  -27.8190  -13.3280   19.5010 C   0  0  0  0  0  3  0  0  0  0  0  0
  -28.9460  -13.3700   20.5550 C   0  0  0  0  0  2  0  0  0  0  0  0
  -30.1630  -13.7960   19.8540 N   0  0  0  0  0  0  0  0  0  0  0  0
  -31.9390  -15.1250   19.5250 O   0  0  0  0  0  0  0  0  0  0  0  0
  -29.9590  -16.2530   20.0390 N   0  0  0  0  0  0  0  0  0  0  0  0
  -28.9990  -16.0080   20.2260 H   0  0  0  0  0  0  0  0  0  0  0  0
  -25.5190  -13.9210   20.4460 C   0  0  0  0  0  0  0  0  0  0  0  0
  -24.4680  -13.1520   20.8660 C   0  0  0  0  0  0  0  0  0  0  0  0
  -24.8970  -11.7950   20.7470 C   0  0  0  0  0  0  0  0  0  0  0  0
  -26.5190  -13.0330   20.0910 N   0  0  0  0  0  0  0  0  0  0  0  0
  -26.1600  -11.7460   20.3370 N   0  0  0  0  0  0  0  0  0  0  0  0
  -24.1580  -10.5410   20.9400 C   0  0  0  0  0  0  0  0  0  0  0  0
  -24.5870   -9.5650   21.8650 C   0  0  0  0  0  3  0  0  0  0  0  0
  -23.8460   -8.3770   22.0480 C   0  0  0  0  0  3  0  0  0  0  0  0
  -22.6610   -8.1580   21.3050 C   0  0  0  0  0  0  0  0  0  0  0  0
  -22.2500   -9.1240   20.3690 C   0  0  0  0  0  3  0  0  0  0  0  0
  -22.9920  -10.3020   20.1850 C   0  0  0  0  0  3  0  0  0  0  0  0
  -21.8910   -7.0240   21.3970 O   0  0  0  0  0  0  0  0  0  0  0  0
  -21.7790   -6.3240   22.5720 C   0  0  0  0  0  0  0  0  0  0  0  0
  -21.2670   -6.9150   23.7460 C   0  0  0  0  0  3  0  0  0  0  0  0
  -21.1050   -6.1390   24.9130 C   0  0  0  0  0  3  0  0  0  0  0  0
  -21.4450   -4.7740   24.9030 C   0  0  0  0  0  0  0  0  0  0  0  0
  -21.9520   -4.1820   23.7330 C   0  0  0  0  0  3  0  0  0  0  0  0
  -22.1150   -4.9540   22.5690 C   0  0  0  0  0  0  0  0  0  0  0  0
  -22.5830   -4.3740   21.4380 F   0  0  0  0  0  0  0  0  0  0  0  0
  -21.2840   -4.0260   26.0200 F   0  0  0  0  0  0  0  0  0  0  0  0
  -23.1060  -13.6470   21.2570 C   0  0  0  0  0  0  0  0  0  0  0  0
  -22.4280  -12.9350   22.1500 N   0  0  0  0  0  0  0  0  0  0  0  0
  -22.6550  -14.7000   20.8070 O   0  0  0  0  0  0  0  0  0  0  0  0
  -22.8080  -12.0830   22.5340 H   0  0  0  0  0  0  0  0  0  0  0  0
  -21.5180  -13.2460   22.4550 H   0  0  0  0  0  0  0  0  0  0  0  0
  -25.6970  -15.2950   20.3090 N   0  0  0  0  0  0  0  0  0  0  0  0
  -24.9480  -15.9520   20.4960 H   0  0  0  0  0  0  0  0  0  0  0  0
  -26.5050  -15.7310   19.8850 H   0  0  0  0  0  0  0  0  0  0  0  0
  -28.2870  -24.6450   20.7590 O   0  0  0  0  0  0  0  0  0  0  0  0
  -28.6030  -26.1730   20.1170 O   0  0  0  0  0  0  0  0  0  0  0  0
  -24.5840  -31.6810   23.0890 C   0  0  0  0  0  0  0  0  0  0  0  0
  -27.4930  -27.1040   20.1130 C   0  0  0  0  0  0  0  0  0  0  0  0
  -23.5110  -30.2420   21.3990 C   0  0  0  0  0  3  0  0  0  0  0  0
  -25.0830  -28.7450   20.0140 C   0  0  0  0  0  0  0  0  0  0  0  0
  -26.0540  -30.6270   21.3240 C   0  0  0  0  0  2  0  0  0  0  0  0
  -26.2190  -29.2400   20.6710 C   0  0  0  0  0  0  0  0  0  0  0  0
  -27.4220  -28.4340   20.7060 C   0  0  0  0  0  3  0  0  0  0  0  0
  -26.3310  -26.7140   19.4180 C   0  0  0  0  0  3  0  0  0  0  0  0
  -25.1520  -27.4960   19.3740 C   0  0  0  0  0  3  0  0  0  0  0  0
  -23.8140  -29.5850   20.0250 C   0  0  0  0  0  2  0  0  0  0  0  0
  -24.7340  -30.8740   21.9930 N   0  0  0  0  0  0  0  0  0  0  0  0
  -23.4690  -31.9060   23.5830 O   0  0  0  0  0  0  0  0  0  0  0  0
  -22.8500  -29.1960   22.3320 C   0  0  0  0  0  0  0  0  0  0  0  0
  -21.5280  -28.9940   22.1900 N   0  0  0  0  0  0  0  0  0  0  0  0
  -23.5310  -28.5680   23.1460 O   0  0  0  0  0  0  0  0  0  0  0  0
  -21.0330  -29.5540   21.5100 H   0  0  0  0  0  0  0  0  0  0  0  0
  -18.1710  -27.7150   22.6650 C   0  0  0  0  0  0  0  0  0  0  0  0
  -20.7260  -28.0160   22.9310 C   0  0  0  0  0  3  0  0  0  0  0  0
  -20.8520  -26.6070   22.3070 C   0  0  0  0  0  2  0  0  0  0  0  0
  -19.7510  -26.2990   21.2850 C   0  0  0  0  0  2  0  0  0  0  0  0
  -18.3710  -26.3950   21.9380 C   0  0  0  0  0  2  0  0  0  0  0  0
  -19.2770  -28.4830   23.1160 C   0  0  0  0  0  0  0  0  0  0  0  0
  -19.0350  -29.7180   23.7570 C   0  0  0  0  0  3  0  0  0  0  0  0
  -17.7220  -30.1850   23.9490 C   0  0  0  0  0  3  0  0  0  0  0  0
  -16.6310  -29.4150   23.5110 C   0  0  0  0  0  3  0  0  0  0  0  0
  -16.8560  -28.1800   22.8750 C   0  0  0  0  0  3  0  0  0  0  0  0
  -25.8080  -32.3740   23.7640 C   0  0  0  0  0  3  0  0  0  0  0  0
  -25.4110  -33.7490   24.1070 N   0  0  0  0  0  0  0  0  0  0  0  0
  -25.6920  -34.8330   23.3700 C   0  0  0  0  0  0  0  0  0  0  0  0
  -26.3760  -34.7820   22.3450 O   0  0  0  0  0  0  0  0  0  0  0  0
  -24.8000  -33.8570   24.9030 H   0  0  0  0  0  0  0  0  0  0  0  0
  -23.8620  -36.5300   23.0380 C   0  0  0  0  0  1  0  0  0  0  0  0
  -25.1250  -36.1860   23.8440 C   0  0  0  0  0  3  0  0  0  0  0  0
  -27.1990  -37.1910   24.6930 C   0  0  0  0  0  1  0  0  0  0  0  0
  -26.0950  -37.3000   23.7440 N   0  0  0  0  0  0  0  0  0  0  0  0
  -25.6340  -38.1930   23.8950 H   0  0  0  0  0  0  0  0  0  0  0  0
  -26.3190  -31.6150   25.0510 C   0  0  1  0  0  0  0  0  0  0  0  0
  -25.2030  -31.3100   26.0780 C   0  0  0  0  0  1  0  0  0  0  0  0
  -26.9840  -30.2720   24.6700 C   0  0  0  0  0  1  0  0  0  0  0  0
  -27.4050  -32.4580   25.7600 C   0  0  0  0  0  1  0  0  0  0  0  0
  1  5  1  0
  2  4  2  0
  3  1  2  0
  3  2  1  0
  4 11  1  0
  4  7  1  0
  5 50  1  0
  5 11  2  0
  6  2  1  0
  6  9  1  0
  8  7  1  0
  9 20  1  0
  9  8  1  0
 10  3  1  0
 12 20  1  0
 13 18  1  0
 14 15  1  0
 14 13  1  0
 16 15  1  0
 16 25  1  0
 16 17  1  0
 18 12  1  0
 18 17  1  0
 19 12  2  0
 20 21  1  0
 22 23  2  0
 23 42  1  0
 24 23  1  0
 24 27  1  0
 25 26  1  0
 25 22  1  0
 26 24  2  0
 27 28  1  0
 28 29  2  0
 30 33  1  0
 30 29  1  0
 31 30  2  0
 32 31  1  0
 32 27  2  0
 33 34  1  0
 34 35  1  0
 35 36  2  0
 37 36  1  0
 37 41  1  0
 38 37  2  0
 39 34  2  0
 39 38  1  0
 40 39  1  0
 42 43  1  0
 43 46  1  0
 43 45  1  0
 44 42  2  0
 47 22  1  0
 47 48  1  0
 49 47  1  0
 51 50  1  0
 52 63  2  0
 53 51  1  0
 53 58  1  0
 54 62  1  0
 54 64  1  0
 55 61  1  0
 55 57  1  0
 56 62  1  0
 57 58  2  0
 57 56  1  0
 59 53  2  0
 60 59  1  0
 60 55  2  0
 61 54  1  0
 62 52  1  0
 64 66  2  0
 65 64  1  0
 67 65  1  0
 68 77  2  0
 68 73  1  0
 69 65  1  0
 69 73  1  0
 70 69  1  0
 71 72  1  0
 71 70  1  0
 72 68  1  0
 73 74  2  0
 74 75  1  0
 76 75  2  0
 77 76  1  0
 78 52  1  0
 78 79  1  0
 78 88  1  0
 79 82  1  0
 80 84  1  0
 80 79  1  0
 81 80  2  0
 84 83  1  0
 86 84  1  0
 86 87  1  0
 86 85  1  0
 88 91  1  1
 88 89  1  0
 90 88  1  0
M  ISO  4  12 100  20 100  50 101  51 101
M  END
>  <TORSDO>  (39) 
F 17

>  <SCORE>  (39) 
-15.215

>  <name>  (39) 
38

>  <ligand_id>  (39) 
38

>  <original_smiles>  (39) 
[H]c1c([H])c([H])c2c(c1[H])C([H])([H])C([H])([H])C([H])([H])C2([H])N([H])C(=O)C1([H])N(C(=O)C([H])(N([H])C(=O)C([H])(N([H])C([H])([H])[H])C([H])([H])[H])C(C([H])([H])[H])(C([H])([H])[H])C([H])([H])[H])C([H])([H])c2c([H])c(OOc3nc4c(c(C([H])([H])[H])c3[H])C([H])([H])C([H])(N([H])C(=O)N3C([H])([H])C([H])([H])C([H])([H])C([H])(n5nc(-c6c([H])c([H])c(Oc7c([H])c([H])c(F)c([H])c7F)c([H])c6[H])c(C(=O)N([H])[H])c5N([H])[H])C3([H])[H])C([H])([H])C4([H])[H])c([H])c([H])c2C1([H])[H]

>  <smiles>  (39) 
[H]c1c([H])c([H])c2c(c1[H])C([H])([H])C([H])([H])C([H])([H])C2([H])N([H])C(=O)C1([H])N(C(=O)C([H])(N([H])C(=O)C([H])(N([H])C([H])([H])[H])C([H])([H])[H])C(C([H])([H])[H])(C([H])([H])[H])C([H])([H])[H])C([H])([H])c2c([H])c(OOc3nc4c(c(C([H])([H])[H])c3[H])C([H])([H])C([H])(N([H])C(=O)N3C([H])([H])C([H])([H])C([H])([H])C([H])(n5nc(-c6c([H])c([H])c(Oc7c([H])c([H])c(F)c([H])c7F)c([H])c6[H])c(C(=O)N([H])[H])c5N([H])[H])C3([H])[H])C([H])([H])C4([H])[H])c([H])c([H])c2C1([H])[H]

$$$$
39:0:0
     RDKit          3D

 92101  0  0  1  0  0  0  0  0999 V2000
  -29.0490  -23.6610   23.6240 C   0  0  0  0  0  3  0  0  0  0  0  0
  -29.1530  -24.2820   22.3730 C   0  0  0  0  0  3  0  0  0  0  0  0
  -29.3880  -22.3090   23.7340 C   0  0  0  0  0  3  0  0  0  0  0  0
  -29.5790  -23.5420   21.2500 C   0  0  0  0  0  0  0  0  0  0  0  0
  -29.9000  -22.1450   21.4560 C   0  0  0  0  0  0  0  0  0  0  0  0
  -29.7980  -21.5790   22.6830 N   0  0  0  0  0  0  0  0  0  0  0  0
  -29.7060  -24.3360   19.9260 C   0  0  0  0  0  2  0  0  0  0  0  0
  -28.5660  -25.3830   19.5650 C   0  0  0  0  0  2  0  0  0  0  0  0
  -28.5490  -26.7260   20.1560 O   0  0  0  0  0  0  0  0  0  0  0  0
  -24.6840  -31.9550   23.2190 C   0  0  0  0  0  0  0  0  0  0  0  0
  -27.3750  -27.4950   20.1030 C   0  0  0  0  0  0  0  0  0  0  0  0
  -23.4940  -30.5530   21.5680 C   0  0  0  0  0  3  0  0  0  0  0  0
  -24.9640  -29.0360   20.1280 C   0  0  0  0  0  0  0  0  0  0  0  0
  -26.0240  -30.9150   21.3790 C   0  0  0  0  0  2  0  0  0  0  0  0
  -26.1210  -29.5440   20.7280 C   0  0  0  0  0  0  0  0  0  0  0  0
  -27.3210  -28.7780   20.7190 C   0  0  0  0  0  3  0  0  0  0  0  0
  -26.1880  -27.0320   19.4770 C   0  0  0  0  0  3  0  0  0  0  0  0
  -24.9950  -27.7800   19.5030 C   0  0  0  0  0  3  0  0  0  0  0  0
  -23.7140  -29.8910   20.1830 C   0  0  0  0  0  2  0  0  0  0  0  0
  -24.7520  -31.1590   22.1130 N   0  0  0  0  0  0  0  0  0  0  0  0
  -23.6000  -32.2110   23.7620 O   0  0  0  0  0  0  0  0  0  0  0  0
  -22.8500  -29.5180   22.5210 C   0  0  0  0  0  0  0  0  0  0  0  0
  -21.5270  -29.3210   22.3960 N   0  0  0  0  0  0  0  0  0  0  0  0
  -23.5390  -28.8980   23.3350 O   0  0  0  0  0  0  0  0  0  0  0  0
  -21.0280  -29.8740   21.7130 H   0  0  0  0  0  0  0  0  0  0  0  0
  -18.1700  -28.0650   22.8730 C   0  0  0  0  0  0  0  0  0  0  0  0
  -20.7230  -28.3650   23.1560 C   0  0  0  0  0  3  0  0  0  0  0  0
  -20.8530  -26.9400   22.5710 C   0  0  0  0  0  2  0  0  0  0  0  0
  -19.7620  -26.6060   21.5500 C   0  0  0  0  0  2  0  0  0  0  0  0
  -18.3740  -26.7220   22.1900 C   0  0  0  0  0  2  0  0  0  0  0  0
  -19.2740  -28.8430   23.3110 C   0  0  0  0  0  0  0  0  0  0  0  0
  -19.0330  -30.0990   23.9100 C   0  0  0  0  0  3  0  0  0  0  0  0
  -17.7190  -30.5780   24.0730 C   0  0  0  0  0  3  0  0  0  0  0  0
  -16.6290  -29.7980   23.6510 C   0  0  0  0  0  3  0  0  0  0  0  0
  -16.8550  -28.5420   23.0570 C   0  0  0  0  0  3  0  0  0  0  0  0
  -25.9620  -32.5980   23.8410 C   0  0  0  0  0  3  0  0  0  0  0  0
  -26.4830  -31.8300   25.1170 C   0  0  1  0  0  0  0  0  0  0  0  0
  -25.3920  -31.5790   26.1830 C   0  0  0  0  0  1  0  0  0  0  0  0
  -27.0790  -30.4590   24.7200 C   0  0  0  0  0  1  0  0  0  0  0  0
  -27.6210  -32.6340   25.7870 C   0  0  0  0  0  1  0  0  0  0  0  0
  -25.6410  -33.9930   24.1740 N   0  0  0  0  0  0  0  0  0  0  0  0
  -25.9660  -35.0510   23.4170 C   0  0  0  0  0  0  0  0  0  0  0  0
  -26.6410  -34.9550   22.3880 O   0  0  0  0  0  0  0  0  0  0  0  0
  -25.0450  -34.1420   24.9740 H   0  0  0  0  0  0  0  0  0  0  0  0
  -24.2260  -36.8320   23.0560 C   0  0  0  0  0  1  0  0  0  0  0  0
  -25.4650  -36.4350   23.8750 C   0  0  0  0  0  3  0  0  0  0  0  0
  -27.5860  -37.3370   24.7200 C   0  0  0  0  0  1  0  0  0  0  0  0
  -26.4890  -37.4970   23.7690 N   0  0  0  0  0  0  0  0  0  0  0  0
  -26.0740  -38.4120   23.9170 H   0  0  0  0  0  0  0  0  0  0  0  0
  -30.3590  -21.1040   20.3870 C   0  0  0  0  0  2  0  0  0  0  0  0
  -30.8190  -19.8270   20.9490 O   0  0  0  0  0  0  0  0  0  0  0  0
  -31.0490  -14.8560   20.2750 C   0  0  0  0  0  0  0  0  0  0  0  0
  -30.6840  -12.6320   19.2240 C   0  0  0  0  0  2  0  0  0  0  0  0
  -29.7550  -12.7340   17.9980 C   0  0  0  0  0  2  0  0  0  0  0  0
  -28.2820  -12.5870   18.4260 C   0  0  0  0  0  2  0  0  0  0  0  0
  -27.9260  -13.4780   19.6450 C   0  0  0  0  0  3  0  0  0  0  0  0
  -28.9920  -13.3790   20.7650 C   0  0  0  0  0  2  0  0  0  0  0  0
  -30.2940  -13.7090   20.1650 N   0  0  0  0  0  0  0  0  0  0  0  0
  -32.2370  -14.8200   19.9470 O   0  0  0  0  0  0  0  0  0  0  0  0
  -29.0950  -18.0800   20.7710 C   0  0  0  0  0  2  0  0  0  0  0  0
  -29.1130  -16.5550   20.5390 C   0  0  0  0  0  2  0  0  0  0  0  0
  -31.3340  -17.3440   20.6500 C   0  0  0  0  0  2  0  0  0  0  0  0
  -30.4500  -18.5810   20.3020 C   0  0  0  0  0  3  0  0  0  0  0  0
  -30.5090  -16.0960   20.5820 N   0  0  0  0  0  0  0  0  0  0  0  0
  -25.5460  -14.1220   20.3550 C   0  0  0  0  0  0  0  0  0  0  0  0
  -24.4660  -13.3670   20.7270 C   0  0  0  0  0  0  0  0  0  0  0  0
  -24.9120  -12.0100   20.7120 C   0  0  0  0  0  0  0  0  0  0  0  0
  -26.5790  -13.2230   20.1370 N   0  0  0  0  0  0  0  0  0  0  0  0
  -26.2040  -11.9500   20.4140 N   0  0  0  0  0  0  0  0  0  0  0  0
  -24.1690  -10.7600   20.9090 C   0  0  0  0  0  0  0  0  0  0  0  0
  -24.5820   -9.7990   21.8560 C   0  0  0  0  0  3  0  0  0  0  0  0
  -23.8410   -8.6110   22.0390 C   0  0  0  0  0  3  0  0  0  0  0  0
  -22.6720   -8.3790   21.2750 C   0  0  0  0  0  0  0  0  0  0  0  0
  -22.2800   -9.3290   20.3150 C   0  0  0  0  0  3  0  0  0  0  0  0
  -23.0220  -10.5080   20.1290 C   0  0  0  0  0  3  0  0  0  0  0  0
  -21.9030   -7.2450   21.3670 O   0  0  0  0  0  0  0  0  0  0  0  0
  -21.8250   -6.5220   22.5310 C   0  0  0  0  0  0  0  0  0  0  0  0
  -21.3880   -7.1020   23.7410 C   0  0  0  0  0  3  0  0  0  0  0  0
  -21.2530   -6.3060   24.8950 C   0  0  0  0  0  3  0  0  0  0  0  0
  -21.5460   -4.9300   24.8410 C   0  0  0  0  0  0  0  0  0  0  0  0
  -21.9760   -4.3500   23.6330 C   0  0  0  0  0  3  0  0  0  0  0  0
  -22.1100   -5.1430   22.4820 C   0  0  0  0  0  0  0  0  0  0  0  0
  -22.5030   -4.5720   21.3170 F   0  0  0  0  0  0  0  0  0  0  0  0
  -21.4100   -4.1630   25.9480 F   0  0  0  0  0  0  0  0  0  0  0  0
  -23.0740  -13.8650   20.9830 C   0  0  0  0  0  0  0  0  0  0  0  0
  -22.3350  -13.1920   21.8590 N   0  0  0  0  0  0  0  0  0  0  0  0
  -22.6510  -14.8870   20.4450 O   0  0  0  0  0  0  0  0  0  0  0  0
  -22.6920  -12.3670   22.3160 H   0  0  0  0  0  0  0  0  0  0  0  0
  -21.4000  -13.5080   22.0750 H   0  0  0  0  0  0  0  0  0  0  0  0
  -25.7270  -15.4880   20.1630 N   0  0  0  0  0  0  0  0  0  0  0  0
  -24.9720  -16.1570   20.2650 H   0  0  0  0  0  0  0  0  0  0  0  0
  -26.5860  -15.9090   19.8340 H   0  0  0  0  0  0  0  0  0  0  0  0
  1  3  1  0
  2  1  2  0
  4  5  2  0
  4  2  1  0
  5  6  1  0
  6  3  2  0
  7  4  1  0
  8  7  1  0
  8  9  1  0
 10 21  2  0
 11  9  1  0
 11 16  1  0
 12 20  1  0
 12 22  1  0
 13 19  1  0
 13 15  1  0
 14 20  1  0
 15 14  1  0
 16 15  2  0
 17 18  1  0
 17 11  2  0
 18 13  2  0
 19 12  1  0
 20 10  1  0
 22 24  2  0
 23 22  1  0
 25 23  1  0
 26 35  2  0
 26 31  1  0
 27 23  1  0
 27 31  1  0
 28 27  1  0
 29 30  1  0
 29 28  1  0
 30 26  1  0
 31 32  2  0
 32 33  1  0
 34 33  2  0
 35 34  1  0
 36 10  1  0
 36 41  1  0
 36 37  1  0
 37 40  1  1
 37 38  1  0
 39 37  1  0
 41 44  1  0
 42 46  1  0
 42 41  1  0
 43 42  2  0
 46 45  1  0
 48 46  1  0
 48 49  1  0
 48 47  1  0
 50 51  1  0
 50  5  1  0
 52 64  1  0
 53 58  1  0
 54 55  1  0
 54 53  1  0
 56 55  1  0
 56 68  1  0
 56 57  1  0
 58 52  1  0
 58 57  1  0
 59 52  2  0
 61 64  1  0
 61 60  1  0
 63 62  1  0
 63 60  1  0
 63 51  1  0
 64 62  1  0
 65 66  2  0
 66 85  1  0
 67 66  1  0
 67 70  1  0
 68 65  1  0
 68 69  1  0
 69 67  2  0
 70 71  1  0
 71 72  2  0
 73 76  1  0
 73 72  1  0
 74 73  2  0
 75 74  1  0
 75 70  2  0
 76 77  1  0
 77 78  1  0
 78 79  2  0
 80 79  1  0
 80 84  1  0
 81 80  2  0
 82 77  2  0
 82 81  1  0
 83 82  1  0
 85 86  1  0
 86 89  1  0
 86 88  1  0
 87 85  2  0
 90 91  1  0
 90 65  1  0
 92 90  1  0
M  ISO  4   8 101   9 101  52 100  64 100
M  END
>  <TORSDO>  (40) 
F 20

>  <SCORE>  (40) 
-13.185

>  <name>  (40) 
39

>  <ligand_id>  (40) 
39

>  <original_smiles>  (40) 
[H]c1nc(C([H])([H])OC2([H])C([H])([H])N(C(=O)N3C([H])([H])C([H])([H])C([H])([H])C([H])(n4nc(-c5c([H])c([H])c(Oc6c([H])c([H])c(F)c([H])c6F)c([H])c5[H])c(C(=O)N([H])[H])c4N([H])[H])C3([H])[H])C([H])([H])C2([H])[H])c(C([H])([H])C([H])([H])Oc2c([H])c([H])c3c(c2[H])C([H])([H])N(C(=O)C([H])(N([H])C(=O)C([H])(N([H])C([H])([H])[H])C([H])([H])[H])C(C([H])([H])[H])(C([H])([H])[H])C([H])([H])[H])C([H])(C(=O)N([H])C2([H])c4c([H])c([H])c([H])c([H])c4C([H])([H])C([H])([H])C2([H])[H])C3([H])[H])c([H])c1[H]

>  <smiles>  (40) 
[H]c1nc(C([H])([H])OC2([H])C([H])([H])N(C(=O)N3C([H])([H])C([H])([H])C([H])([H])C([H])(n4nc(-c5c([H])c([H])c(Oc6c([H])c([H])c(F)c([H])c6F)c([H])c5[H])c(C(=O)N([H])[H])c4N([H])[H])C3([H])[H])C([H])([H])C2([H])[H])c(C([H])([H])C([H])([H])Oc2c([H])c([H])c3c(c2[H])C([H])([H])N(C(=O)C([H])(N([H])C(=O)C([H])(N([H])C([H])([H])[H])C([H])([H])[H])C(C([H])([H])[H])(C([H])([H])[H])C([H])([H])[H])C([H])(C(=O)N([H])C2([H])c4c([H])c([H])c([H])c([H])c4C([H])([H])C([H])([H])C2([H])[H])C3([H])[H])c([H])c1[H]

$$$$
40:0:0
     RDKit          3D

 96107  0  0  1  0  0  0  0  0999 V2000
  -28.5550  -20.8550   20.4490 C   0  0  0  0  0  2  0  0  0  0  0  0
  -30.3540  -17.1850   18.9450 C   0  0  0  0  0  3  0  0  0  0  0  0
  -29.6530  -19.3760   18.6100 C   0  0  0  0  0  0  0  0  0  0  0  0
  -29.2310  -19.4870   19.9620 C   0  0  0  0  0  0  0  0  0  0  0  0
  -29.8500  -17.1530   20.2690 C   0  0  0  0  0  0  0  0  0  0  0  0
  -30.2530  -18.2590   18.1320 N   0  0  0  0  0  0  0  0  0  0  0  0
  -29.3100  -18.3470   20.7700 N   0  0  0  0  0  0  0  0  0  0  0  0
  -30.5950  -14.7020   20.6820 C   0  0  0  0  0  0  0  0  0  0  0  0
  -30.4550  -12.4020   19.7350 C   0  0  0  0  0  2  0  0  0  0  0  0
  -29.5920  -12.4860   18.4550 C   0  0  0  0  0  2  0  0  0  0  0  0
  -28.0930  -12.3400   18.7900 C   0  0  0  0  0  2  0  0  0  0  0  0
  -27.6610  -13.2240   19.9920 C   0  0  0  0  0  3  0  0  0  0  0  0
  -28.6580  -13.1290   21.1700 C   0  0  0  0  0  2  0  0  0  0  0  0
  -29.9880  -13.4670   20.6510 N   0  0  0  0  0  0  0  0  0  0  0  0
  -31.7850  -14.8030   20.3670 O   0  0  0  0  0  0  0  0  0  0  0  0
  -29.8170  -15.8260   20.9280 N   0  0  0  0  0  0  0  0  0  0  0  0
  -28.9630  -15.6370   21.4280 H   0  0  0  0  0  0  0  0  0  0  0  0
  -25.2360  -13.8280   20.5770 C   0  0  0  0  0  0  0  0  0  0  0  0
  -24.1500  -13.0660   20.9080 C   0  0  0  0  0  0  0  0  0  0  0  0
  -24.6110  -11.7140   20.9260 C   0  0  0  0  0  0  0  0  0  0  0  0
  -26.2900  -12.9450   20.4120 N   0  0  0  0  0  0  0  0  0  0  0  0
  -25.9160  -11.6670   20.6820 N   0  0  0  0  0  0  0  0  0  0  0  0
  -23.8690  -10.4560   21.1010 C   0  0  0  0  0  0  0  0  0  0  0  0
  -24.2690   -9.4940   22.0520 C   0  0  0  0  0  3  0  0  0  0  0  0
  -23.5330   -8.3000   22.2180 C   0  0  0  0  0  3  0  0  0  0  0  0
  -22.3790   -8.0650   21.4320 C   0  0  0  0  0  0  0  0  0  0  0  0
  -21.9970   -9.0170   20.4720 C   0  0  0  0  0  3  0  0  0  0  0  0
  -22.7340  -10.2020   20.3050 C   0  0  0  0  0  3  0  0  0  0  0  0
  -21.6110   -6.9270   21.5090 O   0  0  0  0  0  0  0  0  0  0  0  0
  -21.5450   -6.1780   22.6570 C   0  0  0  0  0  0  0  0  0  0  0  0
  -21.1220   -6.7310   23.8860 C   0  0  0  0  0  3  0  0  0  0  0  0
  -21.0010   -5.9080   25.0230 C   0  0  0  0  0  3  0  0  0  0  0  0
  -21.2950   -4.5340   24.9330 C   0  0  0  0  0  0  0  0  0  0  0  0
  -21.7110   -3.9800   23.7080 C   0  0  0  0  0  3  0  0  0  0  0  0
  -21.8320   -4.8010   22.5730 C   0  0  0  0  0  0  0  0  0  0  0  0
  -22.2140   -4.2580   21.3910 F   0  0  0  0  0  0  0  0  0  0  0  0
  -21.1720   -3.7430   26.0230 F   0  0  0  0  0  0  0  0  0  0  0  0
  -22.7410  -13.5520   21.0980 C   0  0  0  0  0  0  0  0  0  0  0  0
  -21.9630  -12.8760   21.9370 N   0  0  0  0  0  0  0  0  0  0  0  0
  -22.3360  -14.5670   20.5330 O   0  0  0  0  0  0  0  0  0  0  0  0
  -22.3010  -12.0560   22.4200 H   0  0  0  0  0  0  0  0  0  0  0  0
  -21.0160  -13.1860   22.1020 H   0  0  0  0  0  0  0  0  0  0  0  0
  -25.4140  -15.1960   20.3810 N   0  0  0  0  0  0  0  0  0  0  0  0
  -24.6440  -15.8520   20.4470 H   0  0  0  0  0  0  0  0  0  0  0  0
  -26.2770  -15.6260   20.0730 H   0  0  0  0  0  0  0  0  0  0  0  0
  -28.0070  -20.7280   17.0970 C   0  0  0  0  0  2  0  0  0  0  0  0
  -29.0070  -20.1170   16.1590 C   0  0  0  0  0  2  0  0  0  0  0  0
  -29.4200  -20.4510   17.5840 C   0  0  0  0  0  3  0  0  0  0  0  0
  -29.3900  -22.2120   20.7580 C   0  0  0  0  0  3  0  0  0  0  0  0
  -31.9290  -22.4320   21.5500 C   0  0  0  0  0  2  0  0  0  0  0  0
  -31.6530  -20.9590   21.4150 C   0  0  0  0  0  2  0  0  0  0  0  0
  -30.8860  -21.9500   20.5590 C   0  0  0  0  0  3  0  0  0  0  0  0
  -29.7800  -24.7740   20.6950 C   0  0  0  0  0  2  0  0  0  0  0  0
  -28.9810  -23.6430   20.1050 C   0  0  0  0  0  3  0  0  0  0  0  0
  -28.2970  -25.0050   20.6810 C   0  0  0  0  0  3  0  0  0  0  0  0
  -28.3350  -26.4140   20.1590 O   0  0  0  0  0  0  0  0  0  0  0  0
  -24.6020  -31.8570   23.2080 C   0  0  0  0  0  0  0  0  0  0  0  0
  -27.2000  -27.2480   20.1850 C   0  0  0  0  0  0  0  0  0  0  0  0
  -23.3890  -30.4480   21.5820 C   0  0  0  0  0  3  0  0  0  0  0  0
  -24.8320  -28.8720   20.1680 C   0  0  0  0  0  0  0  0  0  0  0  0
  -25.9270  -30.7580   21.3830 C   0  0  0  0  0  2  0  0  0  0  0  0
  -26.0060  -29.3690   20.7480 C   0  0  0  0  0  0  0  0  0  0  0  0
  -27.1940  -28.5720   20.7370 C   0  0  0  0  0  3  0  0  0  0  0  0
  -26.0030  -26.8010   19.5920 C   0  0  0  0  0  3  0  0  0  0  0  0
  -24.8350  -27.5960   19.5770 C   0  0  0  0  0  3  0  0  0  0  0  0
  -23.5960  -29.7520   20.2100 C   0  0  0  0  0  2  0  0  0  0  0  0
  -24.6590  -31.0410   22.1130 N   0  0  0  0  0  0  0  0  0  0  0  0
  -23.5230  -32.1410   23.7450 O   0  0  0  0  0  0  0  0  0  0  0  0
  -22.7260  -29.4440   22.5560 C   0  0  0  0  0  0  0  0  0  0  0  0
  -21.3990  -29.2710   22.4400 N   0  0  0  0  0  0  0  0  0  0  0  0
  -23.4090  -28.8180   23.3710 O   0  0  0  0  0  0  0  0  0  0  0  0
  -20.9060  -29.8260   21.7550 H   0  0  0  0  0  0  0  0  0  0  0  0
  -18.0200  -28.0930   22.9760 C   0  0  0  0  0  0  0  0  0  0  0  0
  -20.5830  -28.3400   23.2220 C   0  0  0  0  0  3  0  0  0  0  0  0
  -20.6720  -26.9080   22.6490 C   0  0  0  0  0  2  0  0  0  0  0  0
  -19.5600  -26.5860   21.6450 C   0  0  0  0  0  2  0  0  0  0  0  0
  -18.1840  -26.7420   22.3000 C   0  0  0  0  0  2  0  0  0  0  0  0
  -19.1470  -28.8510   23.3920 C   0  0  0  0  0  0  0  0  0  0  0  0
  -18.9400  -30.1170   23.9830 C   0  0  0  0  0  3  0  0  0  0  0  0
  -17.6400  -30.6260   24.1580 C   0  0  0  0  0  3  0  0  0  0  0  0
  -16.5280  -29.8660   23.7580 C   0  0  0  0  0  3  0  0  0  0  0  0
  -16.7180  -28.6010   23.1730 C   0  0  0  0  0  3  0  0  0  0  0  0
  -25.8910  -32.4910   23.8200 C   0  0  0  0  0  3  0  0  0  0  0  0
  -25.5830  -33.8870   24.1610 N   0  0  0  0  0  0  0  0  0  0  0  0
  -25.9090  -34.9450   23.4080 C   0  0  0  0  0  0  0  0  0  0  0  0
  -26.5710  -34.8470   22.3710 O   0  0  0  0  0  0  0  0  0  0  0  0
  -24.9950  -34.0390   24.9680 H   0  0  0  0  0  0  0  0  0  0  0  0
  -24.1800  -36.7390   23.0720 C   0  0  0  0  0  1  0  0  0  0  0  0
  -25.4240  -36.3300   23.8760 C   0  0  0  0  0  3  0  0  0  0  0  0
  -27.5610  -37.2090   24.7060 C   0  0  0  0  0  1  0  0  0  0  0  0
  -26.4560  -37.3850   23.7670 N   0  0  0  0  0  0  0  0  0  0  0  0
  -26.0500  -38.3030   23.9210 H   0  0  0  0  0  0  0  0  0  0  0  0
  -26.4190  -31.7160   25.0900 C   0  0  1  0  0  0  0  0  0  0  0  0
  -25.3370  -31.4730   26.1680 C   0  0  0  0  0  1  0  0  0  0  0  0
  -26.9990  -30.3390   24.6870 C   0  0  0  0  0  1  0  0  0  0  0  0
  -27.5750  -32.5100   25.7450 C   0  0  0  0  0  1  0  0  0  0  0  0
  2  5  1  0
  3  4  2  0
  4  1  1  0
  4  7  1  0
  5  7  2  0
  5 16  1  0
  6  3  1  0
  6  2  2  0
  8 16  1  0
  9 14  1  0
 10 11  1  0
 10  9  1  0
 12 11  1  0
 12 21  1  0
 12 13  1  0
 14  8  1  0
 14 13  1  0
 15  8  2  0
 16 17  1  0
 18 19  2  0
 19 20  1  0
 19 38  1  0
 20 23  1  0
 21 18  1  0
 21 22  1  0
 22 20  2  0
 23 24  1  0
 24 25  2  0
 26 29  1  0
 26 25  1  0
 27 26  2  0
 28 27  1  0
 28 23  2  0
 29 30  1  0
 30 31  1  0
 31 32  2  0
 33 32  1  0
 33 37  1  0
 34 33  2  0
 35 30  2  0
 35 34  1  0
 36 35  1  0
 38 39  1  0
 39 42  1  0
 39 41  1  0
 40 38  2  0
 43 44  1  0
 43 18  1  0
 45 43  1  0
 46 48  1  0
 47 46  1  0
 47 48  1  0
 48  3  1  0
 49  1  1  0
 51 50  1  0
 52 49  1  0
 52 51  1  0
 52 50  1  0
 54 55  1  0
 54 53  1  0
 54 49  1  0
 55 56  1  0
 55 53  1  0
 56 58  1  0
 57 68  2  0
 58 63  1  0
 59 67  1  0
 59 69  1  0
 60 66  1  0
 60 62  1  0
 61 67  1  0
 62 61  1  0
 63 62  2  0
 64 58  2  0
 65 64  1  0
 65 60  2  0
 66 59  1  0
 67 57  1  0
 69 71  2  0
 70 69  1  0
 72 70  1  0
 73 82  2  0
 73 78  1  0
 74 70  1  0
 74 78  1  0
 75 74  1  0
 76 77  1  0
 76 75  1  0
 77 73  1  0
 78 79  2  0
 79 80  1  0
 81 80  2  0
 82 81  1  0
 83 57  1  0
 83 84  1  0
 83 93  1  0
 84 87  1  0
 85 89  1  0
 85 84  1  0
 86 85  2  0
 89 88  1  0
 91 89  1  0
 91 92  1  0
 91 90  1  0
 93 96  1  1
 93 94  1  0
 95 93  1  0
M  ISO  4   8 100  16 100  55 101  56 101
M  END
>  <TORSDO>  (41) 
F 21

>  <SCORE>  (41) 
-13.316

>  <name>  (41) 
40

>  <ligand_id>  (41) 
40

>  <original_smiles>  (41) 
[H]c1nc(C2([H])C([H])([H])C2([H])[H])c(C([H])([H])C([H])(C2([H])C([H])([H])C2([H])[H])C2([H])C([H])([H])C2([H])Oc2c([H])c([H])c3c(c2[H])C([H])([H])N(C(=O)C([H])(N([H])C(=O)C([H])(N([H])C([H])([H])[H])C([H])([H])[H])C(C([H])([H])[H])(C([H])([H])[H])C([H])([H])[H])C([H])(C(=O)N([H])C2([H])c4c([H])c([H])c([H])c([H])c4C([H])([H])C([H])([H])C2([H])[H])C3([H])[H])nc1N([H])C(=O)N1C([H])([H])C([H])([H])C([H])([H])C([H])(n2nc(-c3c([H])c([H])c(Oc4c([H])c([H])c(F)c([H])c4F)c([H])c3[H])c(C(=O)N([H])[H])c2N([H])[H])C1([H])[H]

>  <smiles>  (41) 
[H]c1nc(C2([H])C([H])([H])C2([H])[H])c(C([H])([H])C([H])(C2([H])C([H])([H])C2([H])[H])C2([H])C([H])([H])C2([H])Oc2c([H])c([H])c3c(c2[H])C([H])([H])N(C(=O)C([H])(N([H])C(=O)C([H])(N([H])C([H])([H])[H])C([H])([H])[H])C(C([H])([H])[H])(C([H])([H])[H])C([H])([H])[H])C([H])(C(=O)N([H])C2([H])c4c([H])c([H])c([H])c([H])c4C([H])([H])C([H])([H])C2([H])[H])C3([H])[H])nc1N([H])C(=O)N1C([H])([H])C([H])([H])C([H])([H])C([H])(n2nc(-c3c([H])c([H])c(Oc4c([H])c([H])c(F)c([H])c4F)c([H])c3[H])c(C(=O)N([H])[H])c2N([H])[H])C1([H])[H]

$$$$
41:0:0
     RDKit          3D

 93102  0  0  1  0  0  0  0  0999 V2000
  -29.2600  -22.3880   18.9990 C   0  0  0  0  0  3  0  0  0  0  0  0
  -29.8270  -23.1120   20.0610 C   0  0  0  0  0  0  0  0  0  0  0  0
  -30.5000  -22.3390   21.0160 C   0  0  0  0  0  0  0  0  0  0  0  0
  -30.0330  -20.4240   19.8680 C   0  0  0  0  0  0  0  0  0  0  0  0
  -29.3780  -21.0440   18.9020 N   0  0  0  0  0  0  0  0  0  0  0  0
  -30.5920  -20.9940   20.9240 N   0  0  0  0  0  0  0  0  0  0  0  0
  -30.1300  -19.0510   19.7250 N   0  0  0  0  0  0  0  0  0  0  0  0
  -29.7120  -18.7330   18.8570 H   0  0  0  0  0  0  0  0  0  0  0  0
  -30.4540  -22.6540   23.3320 C   0  0  0  0  0  1  0  0  0  0  0  0
  -31.1020  -22.9250   22.1000 O   0  0  0  0  0  0  0  0  0  0  0  0
  -29.7330  -24.6420   20.1710 C   0  0  0  0  0  2  0  0  0  0  0  0
  -28.3000  -25.2140   20.0630 C   0  0  0  0  0  2  0  0  0  0  0  0
  -28.3170  -26.6460   20.2220 O   0  0  0  0  0  0  0  0  0  0  0  0
  -24.5150  -31.8970   23.2060 C   0  0  0  0  0  0  0  0  0  0  0  0
  -27.1230  -27.3500   20.2190 C   0  0  0  0  0  0  0  0  0  0  0  0
  -23.2910  -30.4690   21.5960 C   0  0  0  0  0  3  0  0  0  0  0  0
  -24.7330  -28.8880   20.2050 C   0  0  0  0  0  0  0  0  0  0  0  0
  -25.8180  -30.8060   21.3800 C   0  0  0  0  0  2  0  0  0  0  0  0
  -25.8980  -29.4150   20.7740 C   0  0  0  0  0  0  0  0  0  0  0  0
  -27.0940  -28.6540   20.7750 C   0  0  0  0  0  3  0  0  0  0  0  0
  -25.9270  -26.8320   19.6690 C   0  0  0  0  0  3  0  0  0  0  0  0
  -24.7430  -27.5960   19.6560 C   0  0  0  0  0  3  0  0  0  0  0  0
  -23.4920  -29.7540   20.2330 C   0  0  0  0  0  2  0  0  0  0  0  0
  -24.5600  -31.0730   22.1190 N   0  0  0  0  0  0  0  0  0  0  0  0
  -23.4380  -32.1900   23.7430 O   0  0  0  0  0  0  0  0  0  0  0  0
  -22.6380  -29.4730   22.5830 C   0  0  0  0  0  0  0  0  0  0  0  0
  -21.3110  -29.2960   22.4660 N   0  0  0  0  0  0  0  0  0  0  0  0
  -23.3210  -28.8630   23.4080 O   0  0  0  0  0  0  0  0  0  0  0  0
  -20.8180  -29.8420   21.7740 H   0  0  0  0  0  0  0  0  0  0  0  0
  -17.9320  -28.1530   23.0210 C   0  0  0  0  0  0  0  0  0  0  0  0
  -20.4940  -28.3820   23.2620 C   0  0  0  0  0  3  0  0  0  0  0  0
  -20.5730  -26.9400   22.7110 C   0  0  0  0  0  2  0  0  0  0  0  0
  -19.4580  -26.6140   21.7120 C   0  0  0  0  0  2  0  0  0  0  0  0
  -18.0830  -26.7880   22.3680 C   0  0  0  0  0  2  0  0  0  0  0  0
  -19.0640  -28.9060   23.4270 C   0  0  0  0  0  0  0  0  0  0  0  0
  -18.8680  -30.1830   23.9980 C   0  0  0  0  0  3  0  0  0  0  0  0
  -17.5720  -30.7040   24.1650 C   0  0  0  0  0  3  0  0  0  0  0  0
  -16.4540  -29.9470   23.7760 C   0  0  0  0  0  3  0  0  0  0  0  0
  -16.6340  -28.6730   23.2080 C   0  0  0  0  0  3  0  0  0  0  0  0
  -25.8070  -32.5330   23.8040 C   0  0  0  0  0  3  0  0  0  0  0  0
  -25.4950  -33.9260   24.1560 N   0  0  0  0  0  0  0  0  0  0  0  0
  -25.8310  -34.9870   23.4110 C   0  0  0  0  0  0  0  0  0  0  0  0
  -26.5030  -34.9000   22.3810 O   0  0  0  0  0  0  0  0  0  0  0  0
  -24.8900  -34.0700   24.9510 H   0  0  0  0  0  0  0  0  0  0  0  0
  -24.1210  -36.7950   23.0530 C   0  0  0  0  0  1  0  0  0  0  0  0
  -25.3390  -36.3670   23.8870 C   0  0  0  0  0  3  0  0  0  0  0  0
  -27.4500  -37.2270   24.7980 C   0  0  0  0  0  1  0  0  0  0  0  0
  -26.3800  -37.4150   23.8180 N   0  0  0  0  0  0  0  0  0  0  0  0
  -25.9750  -38.3360   23.9660 H   0  0  0  0  0  0  0  0  0  0  0  0
  -26.3650  -31.7490   25.0560 C   0  0  1  0  0  0  0  0  0  0  0  0
  -25.2990  -31.4790   26.1430 C   0  0  0  0  0  1  0  0  0  0  0  0
  -26.9560  -30.3840   24.6260 C   0  0  0  0  0  1  0  0  0  0  0  0
  -27.5210  -32.5450   25.7030 C   0  0  0  0  0  1  0  0  0  0  0  0
  -29.8720  -18.1610   20.8520 C   0  0  0  0  0  2  0  0  0  0  0  0
  -30.6250  -15.9710   22.0180 C   0  0  0  0  0  2  0  0  0  0  0  0
  -29.9120  -15.4760   20.7820 C   0  0  0  0  0  3  0  0  0  0  0  0
  -30.6230  -16.8360   20.7810 C   0  0  0  0  0  3  0  0  0  0  0  0
  -30.5460  -14.3170   20.0460 C   0  0  0  0  0  0  0  0  0  0  0  0
  -30.1600  -12.1370   18.9370 C   0  0  0  0  0  2  0  0  0  0  0  0
  -29.1470  -12.3250   17.7910 C   0  0  0  0  0  2  0  0  0  0  0  0
  -27.7050  -12.1750   18.3150 C   0  0  0  0  0  2  0  0  0  0  0  0
  -27.4440  -13.0160   19.5960 C   0  0  0  0  0  3  0  0  0  0  0  0
  -28.5790  -12.8460   20.6330 C   0  0  0  0  0  2  0  0  0  0  0  0
  -29.8590  -13.1430   19.9670 N   0  0  0  0  0  0  0  0  0  0  0  0
  -31.6210  -14.4750   19.4610 O   0  0  0  0  0  0  0  0  0  0  0  0
  -25.1120  -13.5740   20.5270 C   0  0  0  0  0  0  0  0  0  0  0  0
  -24.0820  -12.7810   20.9540 C   0  0  0  0  0  0  0  0  0  0  0  0
  -24.5430  -11.4350   20.8350 C   0  0  0  0  0  0  0  0  0  0  0  0
  -26.1380  -12.7130   20.1710 N   0  0  0  0  0  0  0  0  0  0  0  0
  -25.8030  -11.4180   20.4140 N   0  0  0  0  0  0  0  0  0  0  0  0
  -23.8380  -10.1620   21.0330 C   0  0  0  0  0  0  0  0  0  0  0  0
  -24.3100   -9.1900   21.9450 C   0  0  0  0  0  3  0  0  0  0  0  0
  -23.6010   -7.9830   22.1350 C   0  0  0  0  0  3  0  0  0  0  0  0
  -22.4080   -7.7400   21.4120 C   0  0  0  0  0  0  0  0  0  0  0  0
  -21.9540   -8.7000   20.4900 C   0  0  0  0  0  3  0  0  0  0  0  0
  -22.6630   -9.8980   20.2990 C   0  0  0  0  0  3  0  0  0  0  0  0
  -21.6700   -6.5860   21.5110 O   0  0  0  0  0  0  0  0  0  0  0  0
  -21.6360   -5.8480   22.6680 C   0  0  0  0  0  0  0  0  0  0  0  0
  -21.1550   -6.3900   23.8800 C   0  0  0  0  0  3  0  0  0  0  0  0
  -21.0780   -5.5790   25.0310 C   0  0  0  0  0  3  0  0  0  0  0  0
  -21.4640   -4.2270   24.9660 C   0  0  0  0  0  0  0  0  0  0  0  0
  -21.9410   -3.6850   23.7590 C   0  0  0  0  0  3  0  0  0  0  0  0
  -22.0230   -4.4930   22.6120 C   0  0  0  0  0  0  0  0  0  0  0  0
  -22.4610   -3.9640   21.4440 F   0  0  0  0  0  0  0  0  0  0  0  0
  -21.3820   -3.4440   26.0680 F   0  0  0  0  0  0  0  0  0  0  0  0
  -22.7100  -13.2390   21.3610 C   0  0  0  0  0  0  0  0  0  0  0  0
  -22.0630  -12.5060   22.2600 N   0  0  0  0  0  0  0  0  0  0  0  0
  -22.2290  -14.2840   20.9210 O   0  0  0  0  0  0  0  0  0  0  0  0
  -22.4690  -11.6610   22.6360 H   0  0  0  0  0  0  0  0  0  0  0  0
  -21.1490  -12.7940   22.5810 H   0  0  0  0  0  0  0  0  0  0  0  0
  -25.2520  -14.9540   20.3970 N   0  0  0  0  0  0  0  0  0  0  0  0
  -24.4840  -15.5840   20.6000 H   0  0  0  0  0  0  0  0  0  0  0  0
  -26.0690  -15.4270   20.0270 H   0  0  0  0  0  0  0  0  0  0  0  0
  1  2  2  0
  2 11  1  0
  2  3  1  0
  3 10  1  0
  4  6  1  0
  5  1  1  0
  5  4  2  0
  6  3  2  0
  7  4  1  0
  7 54  1  0
  8  7  1  0
 10  9  1  0
 12 11  1  0
 12 13  1  0
 14 25  2  0
 15 13  1  0
 15 20  1  0
 16 24  1  0
 16 26  1  0
 17 23  1  0
 17 19  1  0
 18 24  1  0
 19 20  2  0
 19 18  1  0
 21 15  2  0
 22 21  1  0
 22 17  2  0
 23 16  1  0
 24 14  1  0
 26 28  2  0
 27 26  1  0
 29 27  1  0
 30 39  2  0
 30 35  1  0
 31 27  1  0
 31 35  1  0
 32 31  1  0
 33 34  1  0
 33 32  1  0
 34 30  1  0
 35 36  2  0
 36 37  1  0
 38 37  2  0
 39 38  1  0
 40 14  1  0
 40 41  1  0
 40 50  1  0
 41 44  1  0
 42 46  1  0
 42 41  1  0
 43 42  2  0
 46 45  1  0
 48 46  1  0
 48 49  1  0
 48 47  1  0
 50 53  1  1
 50 51  1  0
 52 50  1  0
 56 58  1  0
 56 55  1  0
 57 56  1  0
 57 54  1  0
 57 55  1  0
 59 64  1  0
 60 61  1  0
 60 59  1  0
 62 61  1  0
 62 69  1  0
 62 63  1  0
 64 58  1  0
 64 63  1  0
 65 58  2  0
 66 67  2  0
 67 86  1  0
 68 67  1  0
 68 71  1  0
 69 70  1  0
 69 66  1  0
 70 68  2  0
 71 72  1  0
 72 73  2  0
 74 77  1  0
 74 73  1  0
 75 74  2  0
 76 75  1  0
 76 71  2  0
 77 78  1  0
 78 79  1  0
 79 80  2  0
 81 80  1  0
 81 85  1  0
 82 81  2  0
 83 78  2  0
 83 82  1  0
 84 83  1  0
 86 87  1  0
 87 90  1  0
 87 89  1  0
 88 86  2  0
 91 66  1  0
 91 92  1  0
 93 91  1  0
M  ISO  4  12 101  13 101  56 100  58 100
M  END
>  <TORSDO>  (42) 
F 21

>  <SCORE>  (42) 
-12.995

>  <name>  (42) 
41

>  <ligand_id>  (42) 
41

>  <original_smiles>  (42) 
[H]c1nc(N([H])C([H])([H])C2([H])C([H])([H])C2([H])C(=O)N2C([H])([H])C([H])([H])C([H])([H])C([H])(n3nc(-c4c([H])c([H])c(Oc5c([H])c([H])c(F)c([H])c5F)c([H])c4[H])c(C(=O)N([H])[H])c3N([H])[H])C2([H])[H])nc(OC([H])([H])[H])c1C([H])([H])C([H])([H])Oc1c([H])c([H])c2c(c1[H])C([H])([H])N(C(=O)C([H])(N([H])C(=O)C([H])(N([H])C([H])([H])[H])C([H])([H])[H])C(C([H])([H])[H])(C([H])([H])[H])C([H])([H])[H])C([H])(C(=O)N([H])C1([H])c3c([H])c([H])c([H])c([H])c3C([H])([H])C([H])([H])C1([H])[H])C2([H])[H]

>  <smiles>  (42) 
[H]c1nc(N([H])C([H])([H])C2([H])C([H])([H])C2([H])C(=O)N2C([H])([H])C([H])([H])C([H])([H])C([H])(n3nc(-c4c([H])c([H])c(Oc5c([H])c([H])c(F)c([H])c5F)c([H])c4[H])c(C(=O)N([H])[H])c3N([H])[H])C2([H])[H])nc(OC([H])([H])[H])c1C([H])([H])C([H])([H])Oc1c([H])c([H])c2c(c1[H])C([H])([H])N(C(=O)C([H])(N([H])C(=O)C([H])(N([H])C([H])([H])[H])C([H])([H])[H])C(C([H])([H])[H])(C([H])([H])[H])C([H])([H])[H])C([H])(C(=O)N([H])C1([H])c3c([H])c([H])c([H])c([H])c3C([H])([H])C([H])([H])C1([H])[H])C2([H])[H]

$$$$
42:0:0
     RDKit          3D

 94102  0  0  1  0  0  0  0  0999 V2000
  -28.0720  -19.7860   20.7460 C   0  0  0  0  0  3  0  0  0  0  0  0
  -28.6220  -18.5330   20.4050 C   0  0  0  0  0  0  0  0  0  0  0  0
  -30.0220  -18.3300   20.5320 C   0  0  0  0  0  0  0  0  0  0  0  0
  -30.7780  -19.4270   21.0390 C   0  0  0  0  0  0  0  0  0  0  0  0
  -28.9160  -20.8210   21.1670 C   0  0  0  0  0  0  0  0  0  0  0  0
  -27.6930  -17.4670   19.8710 C   0  0  0  0  0  1  0  0  0  0  0  0
  -32.2820  -19.3570   21.2480 C   0  0  0  0  0  1  0  0  0  0  0  0
  -30.2370  -20.6320   21.3400 N   0  0  0  0  0  0  0  0  0  0  0  0
  -28.3930  -22.1000   21.3900 N   0  0  0  0  0  0  0  0  0  0  0  0
  -27.3930  -22.1810   21.2350 H   0  0  0  0  0  0  0  0  0  0  0  0
  -30.9080  -17.3050   18.4390 C   0  0  0  0  0  1  0  0  0  0  0  0
  -30.7450  -17.0820   19.9630 C   0  0  0  0  0  3  0  0  0  0  0  0
  -30.8550  -14.5940   19.9950 C   0  0  0  0  0  0  0  0  0  0  0  0
  -30.4520  -12.4080   18.9570 C   0  0  0  0  0  2  0  0  0  0  0  0
  -29.4640  -12.5820   17.7880 C   0  0  0  0  0  2  0  0  0  0  0  0
  -28.0150  -12.4440   18.2930 C   0  0  0  0  0  2  0  0  0  0  0  0
  -27.7250  -13.3160   19.5460 C   0  0  0  0  0  3  0  0  0  0  0  0
  -28.8420  -13.1830   20.6070 C   0  0  0  0  0  2  0  0  0  0  0  0
  -30.1320  -13.4440   19.9510 N   0  0  0  0  0  0  0  0  0  0  0  0
  -32.0130  -14.6510   19.5800 O   0  0  0  0  0  0  0  0  0  0  0  0
  -30.1870  -15.7380   20.2640 N   0  0  0  0  0  0  0  0  0  0  0  0
  -29.2340  -15.6630   20.5800 H   0  0  0  0  0  0  0  0  0  0  0  0
  -25.3710  -13.8930   20.4130 C   0  0  0  0  0  0  0  0  0  0  0  0
  -24.3310  -13.1150   20.8370 C   0  0  0  0  0  0  0  0  0  0  0  0
  -24.7880  -11.7670   20.7420 C   0  0  0  0  0  0  0  0  0  0  0  0
  -26.4050  -13.0250   20.1020 N   0  0  0  0  0  0  0  0  0  0  0  0
  -26.0590  -11.7360   20.3560 N   0  0  0  0  0  0  0  0  0  0  0  0
  -24.0680  -10.5040   20.9360 C   0  0  0  0  0  0  0  0  0  0  0  0
  -24.4890   -9.5540   21.8910 C   0  0  0  0  0  3  0  0  0  0  0  0
  -23.7650   -8.3550   22.0730 C   0  0  0  0  0  3  0  0  0  0  0  0
  -22.6090   -8.1000   21.2980 C   0  0  0  0  0  0  0  0  0  0  0  0
  -22.2090   -9.0390   20.3310 C   0  0  0  0  0  3  0  0  0  0  0  0
  -22.9320  -10.2290   20.1480 C   0  0  0  0  0  3  0  0  0  0  0  0
  -21.8590   -6.9510   21.3880 O   0  0  0  0  0  0  0  0  0  0  0  0
  -21.7250   -6.2720   22.5730 C   0  0  0  0  0  0  0  0  0  0  0  0
  -21.1530   -6.8730   23.7150 C   0  0  0  0  0  3  0  0  0  0  0  0
  -20.9700   -6.1180   24.8910 C   0  0  0  0  0  3  0  0  0  0  0  0
  -21.3490   -4.7630   24.9230 C   0  0  0  0  0  0  0  0  0  0  0  0
  -21.9160   -4.1620   23.7850 C   0  0  0  0  0  3  0  0  0  0  0  0
  -22.1010   -4.9140   22.6120 C   0  0  0  0  0  0  0  0  0  0  0  0
  -22.6270   -4.3250   21.5110 F   0  0  0  0  0  0  0  0  0  0  0  0
  -21.1670   -4.0340   26.0500 F   0  0  0  0  0  0  0  0  0  0  0  0
  -22.9550  -13.5920   21.2030 C   0  0  0  0  0  0  0  0  0  0  0  0
  -22.2750  -12.8760   22.0910 N   0  0  0  0  0  0  0  0  0  0  0  0
  -22.4950  -14.6360   20.7400 O   0  0  0  0  0  0  0  0  0  0  0  0
  -22.6610  -12.0320   22.4880 H   0  0  0  0  0  0  0  0  0  0  0  0
  -21.3550  -13.1770   22.3800 H   0  0  0  0  0  0  0  0  0  0  0  0
  -25.4990  -15.2620   20.2400 N   0  0  0  0  0  0  0  0  0  0  0  0
  -24.7010  -15.8780   20.3540 H   0  0  0  0  0  0  0  0  0  0  0  0
  -26.2590  -15.6870   19.7290 H   0  0  0  0  0  0  0  0  0  0  0  0
  -29.1880  -23.2430   20.9320 C   0  0  0  0  0  2  0  0  0  0  0  0
  -28.3360  -24.5540   20.8200 C   0  0  0  0  0  2  0  0  0  0  0  0
  -28.8080  -26.0300   21.0370 C   0  0  0  0  0  2  0  0  0  0  0  0
  -28.5620  -26.8720   19.9010 O   0  0  0  0  0  0  0  0  0  0  0  0
  -24.5590  -31.7660   23.1700 C   0  0  0  0  0  0  0  0  0  0  0  0
  -27.3750  -27.5600   19.9460 C   0  0  0  0  0  0  0  0  0  0  0  0
  -23.4130  -30.3930   21.4590 C   0  0  0  0  0  3  0  0  0  0  0  0
  -24.9300  -28.9630   19.9880 C   0  0  0  0  0  0  0  0  0  0  0  0
  -25.9220  -30.8510   21.2980 C   0  0  0  0  0  2  0  0  0  0  0  0
  -26.0610  -29.5090   20.6090 C   0  0  0  0  0  0  0  0  0  0  0  0
  -27.2880  -28.8140   20.5900 C   0  0  0  0  0  3  0  0  0  0  0  0
  -26.2360  -27.0200   19.3190 C   0  0  0  0  0  3  0  0  0  0  0  0
  -25.0110  -27.7160   19.3390 C   0  0  0  0  0  3  0  0  0  0  0  0
  -23.6560  -29.7740   20.0550 C   0  0  0  0  0  2  0  0  0  0  0  0
  -24.6480  -31.0150   22.0360 N   0  0  0  0  0  0  0  0  0  0  0  0
  -23.4650  -31.9790   23.7110 O   0  0  0  0  0  0  0  0  0  0  0  0
  -22.7880  -29.3130   22.3720 C   0  0  0  0  0  0  0  0  0  0  0  0
  -21.4700  -29.0990   22.2280 N   0  0  0  0  0  0  0  0  0  0  0  0
  -23.4850  -28.6740   23.1640 O   0  0  0  0  0  0  0  0  0  0  0  0
  -20.9680  -29.6690   21.5610 H   0  0  0  0  0  0  0  0  0  0  0  0
  -18.1270  -27.7990   22.6590 C   0  0  0  0  0  0  0  0  0  0  0  0
  -20.6760  -28.1050   22.9500 C   0  0  0  0  0  3  0  0  0  0  0  0
  -20.8140  -26.7060   22.3040 C   0  0  0  0  0  2  0  0  0  0  0  0
  -19.7210  -26.4060   21.2740 C   0  0  0  0  0  2  0  0  0  0  0  0
  -18.3360  -26.4880   21.9210 C   0  0  0  0  0  2  0  0  0  0  0  0
  -19.2260  -28.5660   23.1290 C   0  0  0  0  0  0  0  0  0  0  0  0
  -18.9780  -29.7950   23.7780 C   0  0  0  0  0  3  0  0  0  0  0  0
  -17.6620  -30.2580   23.9630 C   0  0  0  0  0  3  0  0  0  0  0  0
  -16.5760  -29.4870   23.5120 C   0  0  0  0  0  3  0  0  0  0  0  0
  -16.8090  -28.2600   22.8660 C   0  0  0  0  0  3  0  0  0  0  0  0
  -25.8200  -32.4110   23.8270 C   0  0  0  0  0  3  0  0  0  0  0  0
  -26.3280  -31.6280   25.1000 C   0  0  1  0  0  0  0  0  0  0  0  0
  -25.2250  -31.3690   26.1520 C   0  0  0  0  0  1  0  0  0  0  0  0
  -26.9240  -30.2600   24.6940 C   0  0  0  0  0  1  0  0  0  0  0  0
  -27.4660  -32.4220   25.7830 C   0  0  0  0  0  1  0  0  0  0  0  0
  -25.4780  -33.7980   24.1700 N   0  0  0  0  0  0  0  0  0  0  0  0
  -25.8050  -34.8660   23.4300 C   0  0  0  0  0  0  0  0  0  0  0  0
  -26.4950  -34.7880   22.4100 O   0  0  0  0  0  0  0  0  0  0  0  0
  -24.8690  -33.9310   24.9630 H   0  0  0  0  0  0  0  0  0  0  0  0
  -24.0550  -36.6330   23.0590 C   0  0  0  0  0  1  0  0  0  0  0  0
  -25.2830  -36.2380   23.8950 C   0  0  0  0  0  3  0  0  0  0  0  0
  -27.3750  -37.1520   24.7980 C   0  0  0  0  0  1  0  0  0  0  0  0
  -26.2990  -37.3100   23.8240 N   0  0  0  0  0  0  0  0  0  0  0  0
  -25.8720  -38.2210   23.9690 H   0  0  0  0  0  0  0  0  0  0  0  0
  1  5  1  0
  2  3  1  0
  2  1  2  0
  3  4  2  0
  4  7  1  0
  4  8  1  0
  5  8  2  0
  5  9  1  0
  6  2  1  0
 10  9  1  0
 12 11  1  0
 12 21  1  0
 12  3  1  0
 13 21  1  0
 14 19  1  0
 15 16  1  0
 15 14  1  0
 17 16  1  0
 17 26  1  0
 17 18  1  0
 19 13  1  0
 19 18  1  0
 20 13  2  0
 21 22  1  0
 23 24  2  0
 24 43  1  0
 25 24  1  0
 25 28  1  0
 26 27  1  0
 26 23  1  0
 27 25  2  0
 28 29  1  0
 29 30  2  0
 31 34  1  0
 31 30  1  0
 32 31  2  0
 33 32  1  0
 33 28  2  0
 34 35  1  0
 35 40  2  0
 35 36  1  0
 36 37  2  0
 37 38  1  0
 38 42  1  0
 39 38  2  0
 40 39  1  0
 41 40  1  0
 43 44  1  0
 44 47  1  0
 44 46  1  0
 45 43  2  0
 48 49  1  0
 48 23  1  0
 50 48  1  0
 51  9  1  0
 52 51  1  0
 52 53  1  0
 54 56  1  0
 54 53  1  0
 55 66  2  0
 56 61  1  0
 57 65  1  0
 57 67  1  0
 58 64  1  0
 58 60  1  0
 59 65  1  0
 60 59  1  0
 61 60  2  0
 62 63  1  0
 62 56  2  0
 63 58  2  0
 64 57  1  0
 65 55  1  0
 67 69  2  0
 68 67  1  0
 70 68  1  0
 71 80  2  0
 71 76  1  0
 72 68  1  0
 72 76  1  0
 73 72  1  0
 74 75  1  0
 74 73  1  0
 75 71  1  0
 76 77  2  0
 77 78  1  0
 79 78  2  0
 80 79  1  0
 81 55  1  0
 81 86  1  0
 81 82  1  0
 82 85  1  1
 82 83  1  0
 84 82  1  0
 86 89  1  0
 87 91  1  0
 87 86  1  0
 88 87  2  0
 91 90  1  0
 93 91  1  0
 93 94  1  0
 93 92  1  0
M  ISO  4  13 100  21 100  53 101  54 101
M  END
>  <TORSDO>  (43) 
F 20

>  <SCORE>  (43) 
-13.856

>  <name>  (43) 
42

>  <ligand_id>  (43) 
42

>  <original_smiles>  (43) 
[H]c1c([H])c([H])c2c(c1[H])C([H])([H])C([H])([H])C([H])([H])C2([H])N([H])C(=O)C1([H])N(C(=O)C([H])(N([H])C(=O)C([H])(N([H])C([H])([H])[H])C([H])([H])[H])C(C([H])([H])[H])(C([H])([H])[H])C([H])([H])[H])C([H])([H])c2c([H])c(OC([H])([H])C([H])([H])C([H])([H])N([H])c3nc(C([H])([H])[H])c(C([H])(N([H])C(=O)N4C([H])([H])C([H])([H])C([H])([H])C([H])(n5nc(-c6c([H])c([H])c(Oc7c([H])c([H])c(F)c([H])c7F)c([H])c6[H])c(C(=O)N([H])[H])c5N([H])[H])C4([H])[H])C([H])([H])[H])c(C([H])([H])[H])c3[H])c([H])c([H])c2C1([H])[H]

>  <smiles>  (43) 
[H]c1c([H])c([H])c2c(c1[H])C([H])([H])C([H])([H])C([H])([H])C2([H])N([H])C(=O)C1([H])N(C(=O)C([H])(N([H])C(=O)C([H])(N([H])C([H])([H])[H])C([H])([H])[H])C(C([H])([H])[H])(C([H])([H])[H])C([H])([H])[H])C([H])([H])c2c([H])c(OC([H])([H])C([H])([H])C([H])([H])N([H])c3nc(C([H])([H])[H])c(C([H])(N([H])C(=O)N4C([H])([H])C([H])([H])C([H])([H])C([H])(n5nc(-c6c([H])c([H])c(Oc7c([H])c([H])c(F)c([H])c7F)c([H])c6[H])c(C(=O)N([H])[H])c5N([H])[H])C4([H])[H])C([H])([H])[H])c(C([H])([H])[H])c3[H])c([H])c([H])c2C1([H])[H]

$$$$
43:0:0
     RDKit          3D

 98108  0  0  1  0  0  0  0  0999 V2000
  -31.1860  -19.6310   19.9140 C   0  0  0  0  0  3  0  0  0  0  0  0
  -29.5190  -18.0180   20.6060 C   0  0  0  0  0  3  0  0  0  0  0  0
  -29.8580  -19.3570   20.3050 C   0  0  0  0  0  0  0  0  0  0  0  0
  -32.1080  -18.5750   19.8690 C   0  0  0  0  0  0  0  0  0  0  0  0
  -30.4870  -16.9910   20.5100 C   0  0  0  0  0  0  0  0  0  0  0  0
  -31.7620  -17.3120   20.1800 N   0  0  0  0  0  0  0  0  0  0  0  0
  -30.7230  -14.5070   20.4050 C   0  0  0  0  0  0  0  0  0  0  0  0
  -30.3380  -12.3440   19.3130 C   0  0  0  0  0  2  0  0  0  0  0  0
  -29.4020  -12.5560   18.1070 C   0  0  0  0  0  2  0  0  0  0  0  0
  -27.9310  -12.4380   18.5450 C   0  0  0  0  0  2  0  0  0  0  0  0
  -27.6020  -13.2850   19.8060 C   0  0  0  0  0  3  0  0  0  0  0  0
  -28.6690  -13.1020   20.9100 C   0  0  0  0  0  2  0  0  0  0  0  0
  -29.9890  -13.3610   20.3180 N   0  0  0  0  0  0  0  0  0  0  0  0
  -31.8910  -14.5310   20.0160 O   0  0  0  0  0  0  0  0  0  0  0  0
  -30.0590  -15.6370   20.7390 N   0  0  0  0  0  0  0  0  0  0  0  0
  -29.1000  -15.5130   21.0140 H   0  0  0  0  0  0  0  0  0  0  0  0
  -25.2090  -13.8840   20.5340 C   0  0  0  0  0  0  0  0  0  0  0  0
  -24.1420  -13.1090   20.9020 C   0  0  0  0  0  0  0  0  0  0  0  0
  -24.6020  -11.7570   20.8610 C   0  0  0  0  0  0  0  0  0  0  0  0
  -26.2530  -13.0040   20.2960 N   0  0  0  0  0  0  0  0  0  0  0  0
  -25.8910  -11.7200   20.5500 N   0  0  0  0  0  0  0  0  0  0  0  0
  -23.8740  -10.4950   21.0450 C   0  0  0  0  0  0  0  0  0  0  0  0
  -24.2990   -9.5260   21.9800 C   0  0  0  0  0  3  0  0  0  0  0  0
  -23.5720   -8.3280   22.1500 C   0  0  0  0  0  3  0  0  0  0  0  0
  -22.4060   -8.0900   21.3860 C   0  0  0  0  0  0  0  0  0  0  0  0
  -21.9990   -9.0480   20.4400 C   0  0  0  0  0  3  0  0  0  0  0  0
  -22.7270  -10.2370   20.2680 C   0  0  0  0  0  3  0  0  0  0  0  0
  -21.6510   -6.9440   21.4660 O   0  0  0  0  0  0  0  0  0  0  0  0
  -21.5760   -6.2120   22.6240 C   0  0  0  0  0  0  0  0  0  0  0  0
  -21.0900   -6.7670   23.8270 C   0  0  0  0  0  3  0  0  0  0  0  0
  -20.9650   -5.9600   24.9760 C   0  0  0  0  0  3  0  0  0  0  0  0
  -21.3160   -4.5970   24.9210 C   0  0  0  0  0  0  0  0  0  0  0  0
  -21.7950   -4.0410   23.7220 C   0  0  0  0  0  3  0  0  0  0  0  0
  -21.9230   -4.8460   22.5770 C   0  0  0  0  0  0  0  0  0  0  0  0
  -22.3640   -4.3000   21.4170 F   0  0  0  0  0  0  0  0  0  0  0  0
  -21.1890   -3.8190   26.0210 F   0  0  0  0  0  0  0  0  0  0  0  0
  -22.7460  -13.5880   21.1800 C   0  0  0  0  0  0  0  0  0  0  0  0
  -22.0150  -12.8850   22.0390 N   0  0  0  0  0  0  0  0  0  0  0  0
  -22.3110  -14.6190   20.6710 O   0  0  0  0  0  0  0  0  0  0  0  0
  -22.3770  -12.0500   22.4740 H   0  0  0  0  0  0  0  0  0  0  0  0
  -21.0800  -13.1900   22.2670 H   0  0  0  0  0  0  0  0  0  0  0  0
  -25.3750  -15.2550   20.3610 N   0  0  0  0  0  0  0  0  0  0  0  0
  -24.6070  -15.9080   20.4730 H   0  0  0  0  0  0  0  0  0  0  0  0
  -26.2130  -15.6900   19.9980 H   0  0  0  0  0  0  0  0  0  0  0  0
  -34.5320  -18.6260   20.6340 C   0  0  0  0  0  1  0  0  0  0  0  0
  -33.5600  -18.8070   19.4580 C   0  0  0  0  0  3  0  0  0  0  0  0
  -33.5960  -18.3540   16.8590 C   0  0  0  0  0  2  0  0  0  0  0  0
  -35.0370  -18.3630   17.3080 C   0  0  0  0  0  2  0  0  0  0  0  0
  -33.9480  -17.9380   18.2680 C   0  0  0  0  0  3  0  0  0  0  0  0
  -28.8790  -20.3260   20.4130 O   0  0  0  0  0  0  0  0  0  0  0  0
  -29.0660  -21.5540   19.7040 C   0  0  0  0  0  2  0  0  0  0  0  0
  -27.8140  -23.1540   21.2930 C   0  0  0  0  0  2  0  0  0  0  0  0
  -27.6840  -23.4930   18.7380 C   0  0  0  0  0  2  0  0  0  0  0  0
  -27.5170  -24.6670   21.2480 C   0  0  0  0  0  2  0  0  0  0  0  0
  -28.5720  -24.7430   18.8810 C   0  0  0  0  0  2  0  0  0  0  0  0
  -27.8380  -22.4740   19.8940 C   0  0  0  0  0  3  0  0  0  0  0  0
  -28.4860  -25.3870   20.2790 C   0  0  0  0  0  3  0  0  0  0  0  0
  -28.4140  -26.8210   20.2340 O   0  0  0  0  0  0  0  0  0  0  0  0
  -24.5580  -31.9370   23.2510 C   0  0  0  0  0  0  0  0  0  0  0  0
  -27.2100  -27.4950   20.1830 C   0  0  0  0  0  0  0  0  0  0  0  0
  -23.3510  -30.5320   21.6080 C   0  0  0  0  0  3  0  0  0  0  0  0
  -24.8040  -28.9880   20.1850 C   0  0  0  0  0  0  0  0  0  0  0  0
  -25.8720  -30.8930   21.4080 C   0  0  0  0  0  2  0  0  0  0  0  0
  -25.9590  -29.5200   20.7720 C   0  0  0  0  0  0  0  0  0  0  0  0
  -27.1590  -28.7810   20.7670 C   0  0  0  0  0  3  0  0  0  0  0  0
  -26.0470  -26.9830   19.5670 C   0  0  0  0  0  3  0  0  0  0  0  0
  -24.8430  -27.7180   19.5820 C   0  0  0  0  0  3  0  0  0  0  0  0
  -23.5600  -29.8450   20.2300 C   0  0  0  0  0  2  0  0  0  0  0  0
  -24.6120  -31.1360   22.1480 N   0  0  0  0  0  0  0  0  0  0  0  0
  -23.4790  -32.2100   23.7920 O   0  0  0  0  0  0  0  0  0  0  0  0
  -22.6980  -29.5140   22.5710 C   0  0  0  0  0  0  0  0  0  0  0  0
  -21.3730  -29.3350   22.4450 N   0  0  0  0  0  0  0  0  0  0  0  0
  -23.3800  -28.8860   23.3840 O   0  0  0  0  0  0  0  0  0  0  0  0
  -20.8850  -29.8970   21.7610 H   0  0  0  0  0  0  0  0  0  0  0  0
  -17.9920  -28.1680   22.9510 C   0  0  0  0  0  0  0  0  0  0  0  0
  -20.5530  -28.3980   23.2120 C   0  0  0  0  0  3  0  0  0  0  0  0
  -20.6360  -26.9700   22.6250 C   0  0  0  0  0  2  0  0  0  0  0  0
  -19.5250  -26.6660   21.6130 C   0  0  0  0  0  2  0  0  0  0  0  0
  -18.1490  -26.8220   22.2660 C   0  0  0  0  0  2  0  0  0  0  0  0
  -19.1210  -28.9160   23.3800 C   0  0  0  0  0  0  0  0  0  0  0  0
  -18.9190  -30.1790   23.9770 C   0  0  0  0  0  3  0  0  0  0  0  0
  -17.6200  -30.6940   24.1500 C   0  0  0  0  0  3  0  0  0  0  0  0
  -16.5050  -29.9430   23.7390 C   0  0  0  0  0  3  0  0  0  0  0  0
  -16.6920  -28.6830   23.1450 C   0  0  0  0  0  3  0  0  0  0  0  0
  -25.8460  -32.5650   23.8710 C   0  0  0  0  0  3  0  0  0  0  0  0
  -25.5480  -33.9660   24.1870 N   0  0  0  0  0  0  0  0  0  0  0  0
  -25.8960  -35.0100   23.4210 C   0  0  0  0  0  0  0  0  0  0  0  0
  -26.5770  -34.8910   22.3980 O   0  0  0  0  0  0  0  0  0  0  0  0
  -24.9490  -34.1340   24.9820 H   0  0  0  0  0  0  0  0  0  0  0  0
  -24.1990  -36.8200   23.0160 C   0  0  0  0  0  1  0  0  0  0  0  0
  -25.4150  -36.4060   23.8600 C   0  0  0  0  0  3  0  0  0  0  0  0
  -27.5380  -37.2730   24.7380 C   0  0  0  0  0  1  0  0  0  0  0  0
  -26.4620  -37.4470   23.7660 N   0  0  0  0  0  0  0  0  0  0  0  0
  -26.0620  -38.3720   23.8950 H   0  0  0  0  0  0  0  0  0  0  0  0
  -26.3560  -31.7990   25.1540 C   0  0  1  0  0  0  0  0  0  0  0  0
  -25.2630  -31.5690   26.2250 C   0  0  0  0  0  1  0  0  0  0  0  0
  -26.9320  -30.4170   24.7660 C   0  0  0  0  0  1  0  0  0  0  0  0
  -27.5060  -32.5950   25.8140 C   0  0  0  0  0  1  0  0  0  0  0  0
  1  3  1  0
  3 50  1  0
  3  2  2  0
  4  1  2  0
  4  6  1  0
  5  2  1  0
  5 15  1  0
  6  5  2  0
  7 15  1  0
  8 13  1  0
  9 10  1  0
  9  8  1  0
 11 10  1  0
 11 20  1  0
 11 12  1  0
 13  7  1  0
 13 12  1  0
 14  7  2  0
 15 16  1  0
 17 18  2  0
 18 37  1  0
 19 18  1  0
 19 22  1  0
 20 17  1  0
 20 21  1  0
 21 19  2  0
 22 23  1  0
 23 24  2  0
 25 28  1  0
 25 24  1  0
 26 25  2  0
 27 26  1  0
 27 22  2  0
 28 29  1  0
 29 30  1  0
 30 31  2  0
 32 31  1  0
 32 36  1  0
 33 32  2  0
 34 29  2  0
 34 33  1  0
 35 34  1  0
 37 38  1  0
 38 41  1  0
 38 40  1  0
 39 37  2  0
 42 43  1  0
 42 17  1  0
 44 42  1  0
 46  4  1  0
 46 45  1  0
 47 48  1  0
 47 49  1  0
 48 49  1  0
 49 46  1  0
 51 50  1  0
 53 55  1  0
 53 56  1  0
 54 52  1  0
 55 57  1  0
 56 51  1  0
 56 52  1  0
 57 58  1  0
 57 54  1  0
 59 70  2  0
 60 58  1  0
 60 65  1  0
 61 69  1  0
 61 71  1  0
 62 68  1  0
 62 64  1  0
 63 69  1  0
 64 63  1  0
 65 64  2  0
 66 67  1  0
 66 60  2  0
 67 62  2  0
 68 61  1  0
 69 59  1  0
 71 73  2  0
 72 71  1  0
 74 72  1  0
 75 84  2  0
 75 80  1  0
 76 72  1  0
 76 80  1  0
 77 76  1  0
 78 79  1  0
 78 77  1  0
 79 75  1  0
 80 81  2  0
 81 82  1  0
 83 82  2  0
 84 83  1  0
 85 59  1  0
 85 86  1  0
 85 95  1  0
 86 89  1  0
 87 91  1  0
 87 86  1  0
 88 87  2  0
 91 90  1  0
 93 91  1  0
 93 94  1  0
 93 92  1  0
 95 98  1  1
 95 96  1  0
 97 95  1  0
M  ISO  4   7 100  15 100  57 101  58 101
M  END
>  <TORSDO>  (44) 
F 21

>  <SCORE>  (44) 
-13.720

>  <name>  (44) 
43

>  <ligand_id>  (44) 
43

>  <original_smiles>  (44) 
[H]c1c([H])c([H])c2c(c1[H])C([H])([H])C([H])([H])C([H])([H])C2([H])N([H])C(=O)C1([H])N(C(=O)C([H])(N([H])C(=O)C([H])(N([H])C([H])([H])[H])C([H])([H])[H])C(C([H])([H])[H])(C([H])([H])[H])C([H])([H])[H])C([H])([H])c2c([H])c(OC3([H])C([H])([H])C([H])([H])C([H])(C([H])([H])Oc4c([H])c(N([H])C(=O)N5C([H])([H])C([H])([H])C([H])([H])C([H])(n6nc(-c7c([H])c([H])c(Oc8c([H])c([H])c(F)c([H])c8F)c([H])c7[H])c(C(=O)N([H])[H])c6N([H])[H])C5([H])[H])nc(C([H])(C([H])([H])[H])C5([H])C([H])([H])C5([H])[H])c4[H])C([H])([H])C3([H])[H])c([H])c([H])c2C1([H])[H]

>  <smiles>  (44) 
[H]c1c([H])c([H])c2c(c1[H])C([H])([H])C([H])([H])C([H])([H])C2([H])N([H])C(=O)C1([H])N(C(=O)C([H])(N([H])C(=O)C([H])(N([H])C([H])([H])[H])C([H])([H])[H])C(C([H])([H])[H])(C([H])([H])[H])C([H])([H])[H])C([H])([H])c2c([H])c(OC3([H])C([H])([H])C([H])([H])C([H])(C([H])([H])Oc4c([H])c(N([H])C(=O)N5C([H])([H])C([H])([H])C([H])([H])C([H])(n6nc(-c7c([H])c([H])c(Oc8c([H])c([H])c(F)c([H])c8F)c([H])c7[H])c(C(=O)N([H])[H])c6N([H])[H])C5([H])[H])nc(C([H])(C([H])([H])[H])C5([H])C([H])([H])C5([H])[H])c4[H])C([H])([H])C3([H])[H])c([H])c([H])c2C1([H])[H]

$$$$
44:0:0
     RDKit          3D

 92101  0  0  1  0  0  0  0  0999 V2000
  -29.5140  -22.7510   21.1990 C   0  0  0  0  0  3  0  0  0  0  0  0
  -27.6690  -22.5260   19.7560 C   0  0  0  0  0  3  0  0  0  0  0  0
  -29.0420  -20.4140   20.2530 C   0  0  0  0  0  0  0  0  0  0  0  0
  -28.4300  -23.4320   20.5500 C   0  0  0  0  0  0  0  0  0  0  0  0
  -29.8210  -21.3330   21.0590 C   0  0  0  0  0  0  0  0  0  0  0  0
  -27.9450  -21.1130   19.6030 C   0  0  0  0  0  0  0  0  0  0  0  0
  -31.0450  -20.8380   21.8130 C   0  0  0  0  0  1  0  0  0  0  0  0
  -26.9860  -20.3720   18.6730 C   0  0  0  0  0  1  0  0  0  0  0  0
  -30.6740  -15.0100   20.3240 C   0  0  0  0  0  0  0  0  0  0  0  0
  -30.4930  -12.6680   19.3810 C   0  0  0  0  0  2  0  0  0  0  0  0
  -29.5780  -12.6230   18.1390 C   0  0  0  0  0  2  0  0  0  0  0  0
  -28.1120  -12.4100   18.5600 C   0  0  0  0  0  2  0  0  0  0  0  0
  -27.6900  -13.3350   19.7360 C   0  0  0  0  0  3  0  0  0  0  0  0
  -28.7430  -13.3950   20.8620 C   0  0  0  0  0  2  0  0  0  0  0  0
  -30.0120  -13.7870   20.2380 N   0  0  0  0  0  0  0  0  0  0  0  0
  -31.9020  -14.9720   20.1830 O   0  0  0  0  0  0  0  0  0  0  0  0
  -29.6910  -17.5140   20.9000 C   0  0  0  0  0  2  0  0  0  0  0  0
  -30.3440  -16.9030   18.7500 C   0  0  0  0  0  2  0  0  0  0  0  0
  -29.3430  -18.8000   19.9450 C   0  0  0  0  0  3  0  0  0  0  0  0
  -30.3840  -18.4630   18.8770 C   0  0  0  0  0  3  0  0  0  0  0  0
  -30.2630  -19.1990   17.5320 C   0  0  0  0  0  1  0  0  0  0  0  0
  -30.0070  -16.2450   20.0500 N   0  0  0  0  0  0  0  0  0  0  0  0
  -25.3040  -13.8860   20.4710 C   0  0  0  0  0  0  0  0  0  0  0  0
  -24.2450  -13.1030   20.8350 C   0  0  0  0  0  0  0  0  0  0  0  0
  -24.7240  -11.7550   20.8130 C   0  0  0  0  0  0  0  0  0  0  0  0
  -26.3570  -13.0190   20.2380 N   0  0  0  0  0  0  0  0  0  0  0  0
  -26.0180  -11.7310   20.5120 N   0  0  0  0  0  0  0  0  0  0  0  0
  -24.0080  -10.4870   21.0020 C   0  0  0  0  0  0  0  0  0  0  0  0
  -24.4320   -9.5320   21.9540 C   0  0  0  0  0  3  0  0  0  0  0  0
  -23.7140   -8.3300   22.1290 C   0  0  0  0  0  3  0  0  0  0  0  0
  -22.5570   -8.0720   21.3560 C   0  0  0  0  0  0  0  0  0  0  0  0
  -22.1540   -9.0140   20.3940 C   0  0  0  0  0  3  0  0  0  0  0  0
  -22.8710  -10.2090   20.2160 C   0  0  0  0  0  3  0  0  0  0  0  0
  -21.8110   -6.9210   21.4410 O   0  0  0  0  0  0  0  0  0  0  0  0
  -21.7310   -6.1980   22.6050 C   0  0  0  0  0  0  0  0  0  0  0  0
  -21.2390   -6.7630   23.8030 C   0  0  0  0  0  3  0  0  0  0  0  0
  -21.1150   -5.9650   24.9590 C   0  0  0  0  0  3  0  0  0  0  0  0
  -21.4660   -4.6020   24.9150 C   0  0  0  0  0  0  0  0  0  0  0  0
  -21.9460   -4.0350   23.7200 C   0  0  0  0  0  3  0  0  0  0  0  0
  -22.0760   -4.8310   22.5690 C   0  0  0  0  0  0  0  0  0  0  0  0
  -22.5210   -4.2770   21.4170 F   0  0  0  0  0  0  0  0  0  0  0  0
  -21.3370   -3.8340   26.0210 F   0  0  0  0  0  0  0  0  0  0  0  0
  -22.8410  -13.5670   21.0920 C   0  0  0  0  0  0  0  0  0  0  0  0
  -22.1100  -12.8620   21.9480 N   0  0  0  0  0  0  0  0  0  0  0  0
  -22.4000  -14.5900   20.5690 O   0  0  0  0  0  0  0  0  0  0  0  0
  -22.4830  -12.0370   22.3980 H   0  0  0  0  0  0  0  0  0  0  0  0
  -21.1640  -13.1480   22.1560 H   0  0  0  0  0  0  0  0  0  0  0  0
  -25.4630  -15.2570   20.2910 N   0  0  0  0  0  0  0  0  0  0  0  0
  -24.7010  -15.9160   20.3950 H   0  0  0  0  0  0  0  0  0  0  0  0
  -26.3280  -15.6910   19.9960 H   0  0  0  0  0  0  0  0  0  0  0  0
  -27.8970  -24.9330   20.9140 C   0  0  0  0  0  2  0  0  0  0  0  0
  -28.2540  -26.2680   20.2550 O   0  0  0  0  0  0  0  0  0  0  0  0
  -24.6300  -31.8880   23.2410 C   0  0  0  0  0  0  0  0  0  0  0  0
  -27.2200  -27.2490   20.1960 C   0  0  0  0  0  0  0  0  0  0  0  0
  -23.4350  -30.4970   21.5940 C   0  0  0  0  0  3  0  0  0  0  0  0
  -24.8900  -28.9500   20.1510 C   0  0  0  0  0  0  0  0  0  0  0  0
  -25.9820  -30.7880   21.4250 C   0  0  0  0  0  2  0  0  0  0  0  0
  -26.0600  -29.4030   20.7740 C   0  0  0  0  0  0  0  0  0  0  0  0
  -27.2310  -28.5660   20.7860 C   0  0  0  0  0  3  0  0  0  0  0  0
  -26.0430  -26.8960   19.5030 C   0  0  0  0  0  3  0  0  0  0  0  0
  -24.8940  -27.7140   19.4880 C   0  0  0  0  0  3  0  0  0  0  0  0
  -23.6520  -29.8300   20.2080 C   0  0  0  0  0  2  0  0  0  0  0  0
  -24.7030  -31.0780   22.1420 N   0  0  0  0  0  0  0  0  0  0  0  0
  -23.5420  -32.1630   23.7710 O   0  0  0  0  0  0  0  0  0  0  0  0
  -22.7700  -29.4780   22.5500 C   0  0  0  0  0  0  0  0  0  0  0  0
  -21.4430  -29.2960   22.4180 N   0  0  0  0  0  0  0  0  0  0  0  0
  -23.4440  -28.8560   23.3740 O   0  0  0  0  0  0  0  0  0  0  0  0
  -20.9620  -29.8430   21.7170 H   0  0  0  0  0  0  0  0  0  0  0  0
  -18.0610  -28.0950   22.9170 C   0  0  0  0  0  0  0  0  0  0  0  0
  -20.6210  -28.3550   23.1830 C   0  0  0  0  0  3  0  0  0  0  0  0
  -20.7190  -26.9270   22.5970 C   0  0  0  0  0  2  0  0  0  0  0  0
  -19.6130  -26.6120   21.5830 C   0  0  0  0  0  2  0  0  0  0  0  0
  -18.2330  -26.7530   22.2290 C   0  0  0  0  0  2  0  0  0  0  0  0
  -19.1800  -28.8560   23.3490 C   0  0  0  0  0  0  0  0  0  0  0  0
  -18.9580  -30.1140   23.9510 C   0  0  0  0  0  3  0  0  0  0  0  0
  -17.6510  -30.6080   24.1340 C   0  0  0  0  0  3  0  0  0  0  0  0
  -16.5490  -29.8420   23.7150 C   0  0  0  0  0  3  0  0  0  0  0  0
  -16.7540  -28.5890   23.1110 C   0  0  0  0  0  3  0  0  0  0  0  0
  -25.9080  -32.5240   23.8700 C   0  0  0  0  0  3  0  0  0  0  0  0
  -25.6000  -33.9280   24.1870 N   0  0  0  0  0  0  0  0  0  0  0  0
  -25.9280  -34.9740   23.4180 C   0  0  0  0  0  0  0  0  0  0  0  0
  -26.5970  -34.8630   22.3870 O   0  0  0  0  0  0  0  0  0  0  0  0
  -25.0180  -34.0920   24.9970 H   0  0  0  0  0  0  0  0  0  0  0  0
  -24.2130  -36.7750   23.0320 C   0  0  0  0  0  1  0  0  0  0  0  0
  -25.4420  -36.3700   23.8600 C   0  0  0  0  0  3  0  0  0  0  0  0
  -27.5720  -37.2460   24.7120 C   0  0  0  0  0  1  0  0  0  0  0  0
  -26.4800  -37.4180   23.7580 N   0  0  0  0  0  0  0  0  0  0  0  0
  -26.0730  -38.3390   23.9000 H   0  0  0  0  0  0  0  0  0  0  0  0
  -26.4090  -31.7650   25.1590 C   0  0  1  0  0  0  0  0  0  0  0  0
  -25.3090  -31.5360   26.2210 C   0  0  0  0  0  1  0  0  0  0  0  0
  -26.9910  -30.3810   24.7880 C   0  0  0  0  0  1  0  0  0  0  0  0
  -27.5640  -32.5610   25.8110 C   0  0  0  0  0  1  0  0  0  0  0  0
  2  4  1  0
  3  5  2  0
  4 51  1  0
  4  1  2  0
  5  1  1  0
  5  7  1  0
  6  2  2  0
  6  3  1  0
  8  6  1  0
 10 15  1  0
 11 12  1  0
 11 10  1  0
 13 12  1  0
 13 26  1  0
 13 14  1  0
 15  9  1  0
 15 14  1  0
 16  9  2  0
 18 20  1  0
 18 22  1  0
 19  3  1  0
 19 17  1  0
 20 21  1  0
 20 19  1  0
 22  9  1  0
 22 17  1  0
 23 24  2  0
 24 43  1  0
 25 24  1  0
 25 28  1  0
 26 23  1  0
 26 27  1  0
 27 25  2  0
 28 29  1  0
 29 30  2  0
 31 34  1  0
 31 30  1  0
 32 31  2  0
 33 32  1  0
 33 28  2  0
 34 35  1  0
 35 36  1  0
 36 37  2  0
 38 37  1  0
 38 42  1  0
 39 38  2  0
 40 35  2  0
 40 39  1  0
 41 40  1  0
 43 44  1  0
 44 47  1  0
 44 46  1  0
 45 43  2  0
 48 49  1  0
 48 23  1  0
 50 48  1  0
 52 51  1  0
 53 64  2  0
 54 52  1  0
 54 59  1  0
 55 63  1  0
 55 65  1  0
 56 62  1  0
 56 58  1  0
 57 63  1  0
 58 59  2  0
 58 57  1  0
 60 54  2  0
 61 60  1  0
 61 56  2  0
 62 55  1  0
 63 53  1  0
 65 67  2  0
 66 65  1  0
 68 66  1  0
 69 78  2  0
 69 74  1  0
 70 66  1  0
 70 74  1  0
 71 70  1  0
 72 73  1  0
 72 71  1  0
 73 69  1  0
 74 75  2  0
 75 76  1  0
 77 76  2  0
 78 77  1  0
 79 53  1  0
 79 80  1  0
 79 89  1  0
 80 83  1  0
 81 85  1  0
 81 80  1  0
 82 81  2  0
 85 84  1  0
 87 85  1  0
 87 88  1  0
 87 86  1  0
 89 92  1  1
 89 90  1  0
 91 89  1  0
M  ISO  4   9 100  22 100  51 101  52 101
M  END
>  <TORSDO>  (45) 
F 17

>  <SCORE>  (45) 
-15.400

>  <name>  (45) 
44

>  <ligand_id>  (45) 
44

>  <original_smiles>  (45) 
[H]c1c([H])c([H])c2c(c1[H])C([H])([H])C([H])([H])C([H])([H])C2([H])N([H])C(=O)C1([H])N(C(=O)C([H])(N([H])C(=O)C([H])(N([H])C([H])([H])[H])C([H])([H])[H])C(C([H])([H])[H])(C([H])([H])[H])C([H])([H])[H])C([H])([H])c2c([H])c(OC([H])([H])c3c([H])c(C([H])([H])[H])c(C4([H])C([H])([H])N(C(=O)N5C([H])([H])C([H])([H])C([H])([H])C([H])(n6nc(-c7c([H])c([H])c(Oc8c([H])c([H])c(F)c([H])c8F)c([H])c7[H])c(C(=O)N([H])[H])c6N([H])[H])C5([H])[H])C([H])([H])C4([H])C([H])([H])[H])c(C([H])([H])[H])c3[H])c([H])c([H])c2C1([H])[H]

>  <smiles>  (45) 
[H]c1c([H])c([H])c2c(c1[H])C([H])([H])C([H])([H])C([H])([H])C2([H])N([H])C(=O)C1([H])N(C(=O)C([H])(N([H])C(=O)C([H])(N([H])C([H])([H])[H])C([H])([H])[H])C(C([H])([H])[H])(C([H])([H])[H])C([H])([H])[H])C([H])([H])c2c([H])c(OC([H])([H])c3c([H])c(C([H])([H])[H])c(C4([H])C([H])([H])N(C(=O)N5C([H])([H])C([H])([H])C([H])([H])C([H])(n6nc(-c7c([H])c([H])c(Oc8c([H])c([H])c(F)c([H])c8F)c([H])c7[H])c(C(=O)N([H])[H])c6N([H])[H])C5([H])[H])C([H])([H])C4([H])C([H])([H])[H])c(C([H])([H])[H])c3[H])c([H])c([H])c2C1([H])[H]

$$$$
45:0:0
     RDKit          3D

 99109  0  0  1  0  0  0  0  0999 V2000
  -30.7800  -14.7230   20.2630 C   0  0  0  0  0  0  0  0  0  0  0  0
  -30.4640  -12.4860   19.2960 C   0  0  0  0  0  2  0  0  0  0  0  0
  -29.5160  -12.5830   18.0860 C   0  0  0  0  0  2  0  0  0  0  0  0
  -28.0600  -12.4080   18.5520 C   0  0  0  0  0  2  0  0  0  0  0  0
  -27.7000  -13.3250   19.7530 C   0  0  0  0  0  3  0  0  0  0  0  0
  -28.7800  -13.2760   20.8590 C   0  0  0  0  0  2  0  0  0  0  0  0
  -30.0850  -13.5510   20.2410 N   0  0  0  0  0  0  0  0  0  0  0  0
  -31.9000  -14.7870   19.7500 O   0  0  0  0  0  0  0  0  0  0  0  0
  -29.6150  -18.2080   20.4160 C   0  0  0  0  0  3  0  0  0  0  0  0
  -31.3790  -19.7620   19.7510 C   0  0  0  0  0  0  0  0  0  0  0  0
  -30.0190  -19.5110   20.0400 C   0  0  0  0  0  0  0  0  0  0  0  0
  -32.2950  -18.7140   20.0040 C   0  0  0  0  0  0  0  0  0  0  0  0
  -30.5800  -17.1800   20.5230 C   0  0  0  0  0  0  0  0  0  0  0  0
  -31.8890  -17.4920   20.3970 N   0  0  0  0  0  0  0  0  0  0  0  0
  -30.1420  -15.8260   20.7180 N   0  0  0  0  0  0  0  0  0  0  0  0
  -29.2040  -15.6900   21.0570 H   0  0  0  0  0  0  0  0  0  0  0  0
  -25.3280  -13.8680   20.5840 C   0  0  0  0  0  0  0  0  0  0  0  0
  -24.2830  -13.0690   20.9650 C   0  0  0  0  0  0  0  0  0  0  0  0
  -24.7590  -11.7260   20.8650 C   0  0  0  0  0  0  0  0  0  0  0  0
  -26.3730  -13.0110   20.2780 N   0  0  0  0  0  0  0  0  0  0  0  0
  -26.0370  -11.7150   20.5070 N   0  0  0  0  0  0  0  0  0  0  0  0
  -24.0540  -10.4480   21.0340 C   0  0  0  0  0  0  0  0  0  0  0  0
  -24.4870   -9.4830   21.9700 C   0  0  0  0  0  3  0  0  0  0  0  0
  -23.7810   -8.2710   22.1270 C   0  0  0  0  0  3  0  0  0  0  0  0
  -22.6280   -8.0150   21.3470 C   0  0  0  0  0  0  0  0  0  0  0  0
  -22.2160   -8.9680   20.3990 C   0  0  0  0  0  3  0  0  0  0  0  0
  -22.9230  -10.1710   20.2400 C   0  0  0  0  0  3  0  0  0  0  0  0
  -21.8950   -6.8550   21.4140 O   0  0  0  0  0  0  0  0  0  0  0  0
  -21.7620   -6.1540   22.5860 C   0  0  0  0  0  0  0  0  0  0  0  0
  -21.1720   -6.7250   23.7340 C   0  0  0  0  0  3  0  0  0  0  0  0
  -20.9910   -5.9450   24.8940 C   0  0  0  0  0  3  0  0  0  0  0  0
  -21.3920   -4.5960   24.9070 C   0  0  0  0  0  0  0  0  0  0  0  0
  -21.9740   -4.0240   23.7610 C   0  0  0  0  0  3  0  0  0  0  0  0
  -22.1560   -4.8000   22.6030 C   0  0  0  0  0  0  0  0  0  0  0  0
  -22.6980   -4.2380   21.4960 F   0  0  0  0  0  0  0  0  0  0  0  0
  -21.2130   -3.8440   26.0190 F   0  0  0  0  0  0  0  0  0  0  0  0
  -22.8930  -13.5190   21.3070 C   0  0  0  0  0  0  0  0  0  0  0  0
  -22.2140  -12.7990   22.1940 N   0  0  0  0  0  0  0  0  0  0  0  0
  -22.4170  -14.5440   20.8230 O   0  0  0  0  0  0  0  0  0  0  0  0
  -22.6110  -11.9650   22.6040 H   0  0  0  0  0  0  0  0  0  0  0  0
  -21.2840  -13.0830   22.4630 H   0  0  0  0  0  0  0  0  0  0  0  0
  -25.4700  -15.2450   20.4490 N   0  0  0  0  0  0  0  0  0  0  0  0
  -24.6970  -15.8840   20.6070 H   0  0  0  0  0  0  0  0  0  0  0  0
  -26.2930  -15.7050   20.0800 H   0  0  0  0  0  0  0  0  0  0  0  0
  -31.0890  -21.6790   17.9720 C   0  0  0  0  0  2  0  0  0  0  0  0
  -32.5170  -21.2190   17.8580 C   0  0  0  0  0  2  0  0  0  0  0  0
  -31.7930  -21.0970   19.1860 C   0  0  0  0  0  3  0  0  0  0  0  0
  -34.3660  -17.7530   18.8760 C   0  0  0  0  0  1  0  0  0  0  0  0
  -34.5490  -18.8230   21.1690 C   0  0  0  0  0  1  0  0  0  0  0  0
  -33.8110  -18.8410   19.8170 C   0  0  0  0  0  3  0  0  0  0  0  0
  -29.0940  -20.5110   19.8510 O   0  0  0  0  0  0  0  0  0  0  0  0
  -28.7280  -21.2490   21.0210 C   0  0  0  0  0  2  0  0  0  0  0  0
  -29.5030  -23.7510   21.0490 C   0  0  0  0  0  2  0  0  0  0  0  0
  -27.7680  -23.0150   19.3350 C   0  0  0  0  0  2  0  0  0  0  0  0
  -29.0270  -25.2310   20.9880 C   0  0  0  0  0  2  0  0  0  0  0  0
  -27.9110  -24.4820   18.8520 C   0  0  0  0  0  2  0  0  0  0  0  0
  -28.3700  -22.7460   20.7420 C   0  0  0  0  0  3  0  0  0  0  0  0
  -27.8510  -25.4870   20.0170 C   0  0  0  0  0  3  0  0  0  0  0  0
  -27.9270  -26.8550   19.5810 O   0  0  0  0  0  0  0  0  0  0  0  0
  -24.4830  -31.9310   23.1700 C   0  0  0  0  0  0  0  0  0  0  0  0
  -26.7770  -27.6070   19.6890 C   0  0  0  0  0  0  0  0  0  0  0  0
  -23.1220  -30.6450   21.5560 C   0  0  0  0  0  3  0  0  0  0  0  0
  -24.4260  -29.1560   19.9500 C   0  0  0  0  0  0  0  0  0  0  0  0
  -25.6320  -30.9710   21.1770 C   0  0  0  0  0  2  0  0  0  0  0  0
  -25.6370  -29.6310   20.4700 C   0  0  0  0  0  0  0  0  0  0  0  0
  -26.8160  -28.8670   20.3280 C   0  0  0  0  0  3  0  0  0  0  0  0
  -25.5480  -27.1490   19.1650 C   0  0  0  0  0  3  0  0  0  0  0  0
  -24.3770  -27.9190   19.2900 C   0  0  0  0  0  3  0  0  0  0  0  0
  -23.2050  -30.0280   20.1340 C   0  0  0  0  0  2  0  0  0  0  0  0
  -24.4360  -31.1930   22.0250 N   0  0  0  0  0  0  0  0  0  0  0  0
  -23.4510  -32.1950   23.8040 O   0  0  0  0  0  0  0  0  0  0  0  0
  -22.5220  -29.5880   22.5100 C   0  0  0  0  0  0  0  0  0  0  0  0
  -21.2000  -29.3750   22.4100 N   0  0  0  0  0  0  0  0  0  0  0  0
  -23.2400  -28.9600   23.2930 O   0  0  0  0  0  0  0  0  0  0  0  0
  -20.6800  -29.9330   21.7480 H   0  0  0  0  0  0  0  0  0  0  0  0
  -17.8820  -28.0340   22.8980 C   0  0  0  0  0  0  0  0  0  0  0  0
  -20.4250  -28.4000   23.1760 C   0  0  0  0  0  3  0  0  0  0  0  0
  -20.5920  -26.9760   22.5970 C   0  0  0  0  0  2  0  0  0  0  0  0
  -19.5050  -26.6070   21.5810 C   0  0  0  0  0  2  0  0  0  0  0  0
  -18.1160  -26.6950   22.2210 C   0  0  0  0  0  2  0  0  0  0  0  0
  -18.9660  -28.8430   23.3310 C   0  0  0  0  0  0  0  0  0  0  0  0
  -18.6910  -30.0970   23.9170 C   0  0  0  0  0  3  0  0  0  0  0  0
  -17.3640  -30.5400   24.0830 C   0  0  0  0  0  3  0  0  0  0  0  0
  -16.2960  -29.7270   23.6670 C   0  0  0  0  0  3  0  0  0  0  0  0
  -16.5560  -28.4770   23.0780 C   0  0  0  0  0  3  0  0  0  0  0  0
  -25.8250  -32.5040   23.7210 C   0  0  0  0  0  3  0  0  0  0  0  0
  -26.4040  -31.6750   24.9340 C   0  0  1  0  0  0  0  0  0  0  0  0
  -25.3780  -31.4320   26.0640 C   0  0  0  0  0  1  0  0  0  0  0  0
  -26.9170  -30.3000   24.4540 C   0  0  0  0  0  1  0  0  0  0  0  0
  -27.6210  -32.4130   25.5400 C   0  0  0  0  0  1  0  0  0  0  0  0
  -25.5870  -33.9000   24.1150 N   0  0  0  0  0  0  0  0  0  0  0  0
  -25.9170  -34.9650   23.3740 C   0  0  0  0  0  0  0  0  0  0  0  0
  -26.5320  -34.8750   22.3090 O   0  0  0  0  0  0  0  0  0  0  0  0
  -25.0470  -34.0460   24.9560 H   0  0  0  0  0  0  0  0  0  0  0  0
  -24.2530  -36.8350   23.1410 C   0  0  0  0  0  1  0  0  0  0  0  0
  -25.5000  -36.3520   23.9000 C   0  0  0  0  0  3  0  0  0  0  0  0
  -27.6850  -37.1210   24.7130 C   0  0  0  0  0  1  0  0  0  0  0  0
  -26.5710  -37.3680   23.8000 N   0  0  0  0  0  0  0  0  0  0  0  0
  -26.2050  -38.2970   23.9920 H   0  0  0  0  0  0  0  0  0  0  0  0
  1 15  1  0
  2  7  1  0
  3  4  1  0
  3  2  1  0
  5  4  1  0
  5 20  1  0
  5  6  1  0
  7  1  1  0
  7  6  1  0
  8  1  2  0
  9 13  1  0
 10 12  2  0
 10 11  1  0
 11  9  2  0
 12 14  1  0
 13 15  1  0
 14 13  2  0
 15 16  1  0
 17 18  2  0
 18 37  1  0
 19 18  1  0
 19 22  1  0
 20 21  1  0
 20 17  1  0
 21 19  2  0
 22 23  1  0
 23 24  2  0
 25 28  1  0
 25 24  1  0
 26 25  2  0
 27 26  1  0
 27 22  2  0
 28 29  1  0
 29 34  2  0
 29 30  1  0
 30 31  2  0
 31 32  1  0
 32 36  1  0
 33 32  2  0
 34 33  1  0
 35 34  1  0
 37 38  1  0
 38 41  1  0
 38 40  1  0
 39 37  2  0
 42 17  1  0
 42 43  1  0
 44 42  1  0
 45 47  1  0
 46 45  1  0
 46 47  1  0
 47 10  1  0
 48 50  1  0
 50 12  1  0
 50 49  1  0
 51 11  1  0
 51 52  1  0
 54 57  1  0
 55 53  1  0
 56 54  1  0
 56 58  1  0
 57 52  1  0
 57 53  1  0
 58 59  1  0
 58 55  1  0
 59 61  1  0
 60 71  2  0
 61 66  1  0
 62 70  1  0
 62 72  1  0
 63 69  1  0
 63 65  1  0
 64 70  1  0
 65 64  1  0
 66 65  2  0
 67 68  1  0
 67 61  2  0
 68 63  2  0
 69 62  1  0
 70 60  1  0
 72 74  2  0
 73 72  1  0
 75 73  1  0
 76 85  2  0
 76 81  1  0
 77 73  1  0
 77 81  1  0
 78 77  1  0
 79 80  1  0
 79 78  1  0
 80 76  1  0
 81 82  2  0
 82 83  1  0
 84 83  2  0
 85 84  1  0
 86 60  1  0
 86 91  1  0
 86 87  1  0
 87 90  1  1
 87 88  1  0
 89 87  1  0
 91 94  1  0
 92 96  1  0
 92 91  1  0
 93 92  2  0
 96 95  1  0
 98 96  1  0
 98 99  1  0
 98 97  1  0
M  ISO  4   1 100  15 100  58 101  59 101
M  END
>  <TORSDO>  (46) 
F 20

>  <SCORE>  (46) 
-13.652

>  <name>  (46) 
45

>  <ligand_id>  (46) 
45

>  <original_smiles>  (46) 
[H]c1c([H])c([H])c2c(c1[H])C([H])([H])C([H])([H])C([H])([H])C2([H])N([H])C(=O)C1([H])N(C(=O)C([H])(N([H])C(=O)C([H])(N([H])C([H])([H])[H])C([H])([H])[H])C(C([H])([H])[H])(C([H])([H])[H])C([H])([H])[H])C([H])([H])c2c([H])c(OC3([H])C([H])([H])C([H])([H])C([H])(C([H])([H])Oc4c([H])c(N([H])C(=O)N5C([H])([H])C([H])([H])C([H])([H])C([H])(n6nc(-c7c([H])c([H])c(Oc8c([H])c([H])c(F)c([H])c8F)c([H])c7[H])c(C(=O)N([H])[H])c6N([H])[H])C5([H])[H])nc(C([H])(C([H])([H])[H])C([H])([H])[H])c4C4([H])C([H])([H])C4([H])[H])C([H])([H])C3([H])[H])c([H])c([H])c2C1([H])[H]

>  <smiles>  (46) 
[H]c1c([H])c([H])c2c(c1[H])C([H])([H])C([H])([H])C([H])([H])C2([H])N([H])C(=O)C1([H])N(C(=O)C([H])(N([H])C(=O)C([H])(N([H])C([H])([H])[H])C([H])([H])[H])C(C([H])([H])[H])(C([H])([H])[H])C([H])([H])[H])C([H])([H])c2c([H])c(OC3([H])C([H])([H])C([H])([H])C([H])(C([H])([H])Oc4c([H])c(N([H])C(=O)N5C([H])([H])C([H])([H])C([H])([H])C([H])(n6nc(-c7c([H])c([H])c(Oc8c([H])c([H])c(F)c([H])c8F)c([H])c7[H])c(C(=O)N([H])[H])c6N([H])[H])C5([H])[H])nc(C([H])(C([H])([H])[H])C([H])([H])[H])c4C4([H])C([H])([H])C4([H])[H])C([H])([H])C3([H])[H])c([H])c([H])c2C1([H])[H]

$$$$
46:0:0
     RDKit          3D

 98107  0  0  1  0  0  0  0  0999 V2000
  -28.8150  -21.1220   20.4570 C   0  0  0  0  0  3  0  0  0  0  0  0
  -29.1220  -22.4820   20.0480 C   0  0  0  0  0  0  0  0  0  0  0  0
  -29.6820  -19.9940   20.1600 C   0  0  0  0  0  0  0  0  0  0  0  0
  -30.3820  -22.6440   19.4370 C   0  0  0  0  0  0  0  0  0  0  0  0
  -30.8320  -20.3400   19.4140 C   0  0  0  0  0  0  0  0  0  0  0  0
  -30.8770  -23.9970   18.9650 C   0  0  0  0  0  1  0  0  0  0  0  0
  -31.1970  -21.6110   19.1430 N   0  0  0  0  0  0  0  0  0  0  0  0
  -31.5890  -19.3630   18.7680 N   0  0  0  0  0  0  0  0  0  0  0  0
  -31.2550  -18.4250   18.9290 H   0  0  0  0  0  0  0  0  0  0  0  0
  -31.2080  -18.7500   16.3270 C   0  0  0  0  0  2  0  0  0  0  0  0
  -30.8860  -20.2220   16.4040 C   0  0  0  0  0  3  0  0  0  0  0  0
  -31.9010  -19.6180   17.3620 C   0  0  0  0  0  3  0  0  0  0  0  0
  -30.2530  -21.1330   14.1440 C   0  0  0  0  0  1  0  0  0  0  0  0
  -31.5500  -22.5760   15.7760 C   0  0  0  0  0  1  0  0  0  0  0  0
  -31.2960  -21.1480   15.2710 C   0  0  0  0  0  3  0  0  0  0  0  0
  -28.0830  -23.6940   20.0500 C   0  0  0  0  0  2  0  0  0  0  0  0
  -28.3560  -25.1340   20.7240 C   0  0  0  0  0  2  0  0  0  0  0  0
  -28.3090  -26.4480   20.0170 O   0  0  0  0  0  0  0  0  0  0  0  0
  -24.5770  -31.8470   23.1420 C   0  0  0  0  0  0  0  0  0  0  0  0
  -27.1760  -27.2780   20.0780 C   0  0  0  0  0  0  0  0  0  0  0  0
  -23.3700  -30.4620   21.4910 C   0  0  0  0  0  3  0  0  0  0  0  0
  -24.8180  -28.9020   20.0680 C   0  0  0  0  0  0  0  0  0  0  0  0
  -25.9110  -30.7690   21.3150 C   0  0  0  0  0  2  0  0  0  0  0  0
  -25.9880  -29.3880   20.6660 C   0  0  0  0  0  0  0  0  0  0  0  0
  -27.1720  -28.5890   20.6560 C   0  0  0  0  0  3  0  0  0  0  0  0
  -25.9850  -26.8400   19.4690 C   0  0  0  0  0  3  0  0  0  0  0  0
  -24.8180  -27.6340   19.4600 C   0  0  0  0  0  3  0  0  0  0  0  0
  -23.5860  -29.7840   20.1110 C   0  0  0  0  0  2  0  0  0  0  0  0
  -24.6390  -31.0430   22.0390 N   0  0  0  0  0  0  0  0  0  0  0  0
  -23.4930  -32.1270   23.6750 O   0  0  0  0  0  0  0  0  0  0  0  0
  -22.6980  -29.4470   22.4470 C   0  0  0  0  0  0  0  0  0  0  0  0
  -21.3670  -29.2980   22.3360 N   0  0  0  0  0  0  0  0  0  0  0  0
  -23.3730  -28.7920   23.2450 O   0  0  0  0  0  0  0  0  0  0  0  0
  -20.8800  -29.8730   21.6630 H   0  0  0  0  0  0  0  0  0  0  0  0
  -17.9690  -28.1820   22.8840 C   0  0  0  0  0  0  0  0  0  0  0  0
  -20.5390  -28.3640   23.1020 C   0  0  0  0  0  3  0  0  0  0  0  0
  -20.5900  -26.9450   22.4880 C   0  0  0  0  0  2  0  0  0  0  0  0
  -19.4570  -26.6790   21.4910 C   0  0  0  0  0  2  0  0  0  0  0  0
  -18.0940  -26.8460   22.1700 C   0  0  0  0  0  2  0  0  0  0  0  0
  -19.1180  -28.9030   23.3070 C   0  0  0  0  0  0  0  0  0  0  0  0
  -18.9470  -30.1560   23.9340 C   0  0  0  0  0  3  0  0  0  0  0  0
  -17.6610  -30.6870   24.1410 C   0  0  0  0  0  3  0  0  0  0  0  0
  -16.5280  -29.9630   23.7360 C   0  0  0  0  0  3  0  0  0  0  0  0
  -16.6830  -28.7120   23.1130 C   0  0  0  0  0  3  0  0  0  0  0  0
  -25.8610  -32.4710   23.7720 C   0  0  0  0  0  3  0  0  0  0  0  0
  -25.5540  -33.8660   24.1220 N   0  0  0  0  0  0  0  0  0  0  0  0
  -25.9000  -34.9300   23.3830 C   0  0  0  0  0  0  0  0  0  0  0  0
  -26.5780  -34.8390   22.3570 O   0  0  0  0  0  0  0  0  0  0  0  0
  -24.9540  -34.0100   24.9200 H   0  0  0  0  0  0  0  0  0  0  0  0
  -24.1830  -36.7370   23.0450 C   0  0  0  0  0  1  0  0  0  0  0  0
  -25.4160  -36.3140   23.8590 C   0  0  0  0  0  3  0  0  0  0  0  0
  -27.5520  -37.1720   24.7160 C   0  0  0  0  0  1  0  0  0  0  0  0
  -26.4560  -37.3630   23.7700 N   0  0  0  0  0  0  0  0  0  0  0  0
  -26.0550  -38.2840   23.9310 H   0  0  0  0  0  0  0  0  0  0  0  0
  -26.3760  -31.6830   25.0390 C   0  0  1  0  0  0  0  0  0  0  0  0
  -25.2830  -31.4410   26.1060 C   0  0  0  0  0  1  0  0  0  0  0  0
  -26.9500  -30.3060   24.6320 C   0  0  0  0  0  1  0  0  0  0  0  0
  -27.5340  -32.4630   25.7070 C   0  0  0  0  0  1  0  0  0  0  0  0
  -29.2910  -18.4620   20.4280 C   0  0  0  0  0  3  0  0  0  0  0  0
  -30.3760  -17.3090   20.7990 C   0  0  0  0  0  3  0  0  0  0  0  0
  -30.7120  -14.7100   20.8470 C   0  0  0  0  0  0  0  0  0  0  0  0
  -30.5530  -12.4330   19.8450 C   0  0  0  0  0  2  0  0  0  0  0  0
  -29.7060  -12.5360   18.5590 C   0  0  0  0  0  2  0  0  0  0  0  0
  -28.2040  -12.3930   18.8830 C   0  0  0  0  0  2  0  0  0  0  0  0
  -27.7630  -13.2790   20.0810 C   0  0  0  0  0  3  0  0  0  0  0  0
  -28.7430  -13.1640   21.2680 C   0  0  0  0  0  2  0  0  0  0  0  0
  -30.0790  -13.4940   20.7620 N   0  0  0  0  0  0  0  0  0  0  0  0
  -31.9190  -14.7940   20.6100 O   0  0  0  0  0  0  0  0  0  0  0  0
  -29.9380  -15.8540   20.9640 N   0  0  0  0  0  0  0  0  0  0  0  0
  -28.9530  -15.7010   21.1260 H   0  0  0  0  0  0  0  0  0  0  0  0
  -25.3330  -13.9030   20.6050 C   0  0  0  0  0  0  0  0  0  0  0  0
  -24.2370  -13.1460   20.9170 C   0  0  0  0  0  0  0  0  0  0  0  0
  -24.6900  -11.7920   20.9600 C   0  0  0  0  0  0  0  0  0  0  0  0
  -26.3860  -13.0110   20.4760 N   0  0  0  0  0  0  0  0  0  0  0  0
  -26.0000  -11.7380   20.7530 N   0  0  0  0  0  0  0  0  0  0  0  0
  -23.9400  -10.5400   21.1320 C   0  0  0  0  0  0  0  0  0  0  0  0
  -24.3240   -9.5750   22.0900 C   0  0  0  0  0  3  0  0  0  0  0  0
  -23.5760   -8.3890   22.2480 C   0  0  0  0  0  3  0  0  0  0  0  0
  -22.4330   -8.1590   21.4490 C   0  0  0  0  0  0  0  0  0  0  0  0
  -22.0690   -9.1100   20.4800 C   0  0  0  0  0  3  0  0  0  0  0  0
  -22.8170  -10.2880   20.3200 C   0  0  0  0  0  3  0  0  0  0  0  0
  -21.6600   -7.0240   21.5170 O   0  0  0  0  0  0  0  0  0  0  0  0
  -21.5840   -6.2710   22.6610 C   0  0  0  0  0  0  0  0  0  0  0  0
  -21.1760   -6.8280   23.8940 C   0  0  0  0  0  3  0  0  0  0  0  0
  -21.0450   -6.0050   25.0280 C   0  0  0  0  0  3  0  0  0  0  0  0
  -21.3110   -4.6260   24.9350 C   0  0  0  0  0  0  0  0  0  0  0  0
  -21.7100   -4.0670   23.7060 C   0  0  0  0  0  3  0  0  0  0  0  0
  -21.8430   -4.8890   22.5730 C   0  0  0  0  0  0  0  0  0  0  0  0
  -22.2070   -4.3450   21.3880 F   0  0  0  0  0  0  0  0  0  0  0  0
  -21.1770   -3.8320   26.0210 F   0  0  0  0  0  0  0  0  0  0  0  0
  -22.8270  -13.6380   21.0680 C   0  0  0  0  0  0  0  0  0  0  0  0
  -22.0340  -12.9770   21.9030 N   0  0  0  0  0  0  0  0  0  0  0  0
  -22.4340  -14.6430   20.4780 O   0  0  0  0  0  0  0  0  0  0  0  0
  -22.3620  -12.1640   22.4060 H   0  0  0  0  0  0  0  0  0  0  0  0
  -21.0830  -13.2880   22.0450 H   0  0  0  0  0  0  0  0  0  0  0  0
  -25.5190  -15.2670   20.3940 N   0  0  0  0  0  0  0  0  0  0  0  0
  -24.7490  -15.9270   20.4220 H   0  0  0  0  0  0  0  0  0  0  0  0
  -26.3820  -15.6820   20.0690 H   0  0  0  0  0  0  0  0  0  0  0  0
  2 16  1  0
  2  1  2  0
  3 59  1  0
  3  1  1  0
  4  2  1  0
  5  3  2  0
  6  4  1  0
  7  5  1  0
  7  4  2  0
  8  9  1  0
  8  5  1  0
 10 11  1  0
 10 12  1  0
 11 15  1  0
 11 12  1  0
 12  8  1  0
 13 15  1  0
 15 14  1  0
 16 17  1  0
 18 20  1  0
 18 17  1  0
 19 30  2  0
 20 25  1  0
 21 29  1  0
 21 31  1  0
 22 28  1  0
 22 24  1  0
 23 29  1  0
 24 23  1  0
 25 24  2  0
 26 20  2  0
 27 26  1  0
 27 22  2  0
 28 21  1  0
 29 19  1  0
 31 33  2  0
 32 31  1  0
 34 32  1  0
 35 44  2  0
 35 40  1  0
 36 32  1  0
 36 40  1  0
 37 36  1  0
 38 39  1  0
 38 37  1  0
 39 35  1  0
 40 41  2  0
 41 42  1  0
 43 42  2  0
 44 43  1  0
 45 19  1  0
 45 46  1  0
 45 55  1  0
 46 49  1  0
 47 51  1  0
 47 46  1  0
 48 47  2  0
 51 50  1  0
 53 51  1  0
 53 54  1  0
 53 52  1  0
 55 58  1  1
 55 56  1  0
 57 55  1  0
 59 60  2  0
 60 69  1  0
 61 69  1  0
 62 67  1  0
 63 64  1  0
 63 62  1  0
 65 64  1  0
 65 74  1  0
 65 66  1  0
 67 61  1  0
 67 66  1  0
 68 61  2  0
 69 70  1  0
 71 72  2  0
 72 73  1  0
 72 91  1  0
 73 76  1  0
 74 71  1  0
 74 75  1  0
 75 73  2  0
 76 77  1  0
 77 78  2  0
 79 82  1  0
 79 78  1  0
 80 79  2  0
 81 80  1  0
 81 76  2  0
 82 83  1  0
 83 84  1  0
 84 85  2  0
 86 85  1  0
 86 90  1  0
 87 86  2  0
 88 83  2  0
 88 87  1  0
 89 88  1  0
 91 92  1  0
 92 95  1  0
 92 94  1  0
 93 91  2  0
 96 97  1  0
 96 71  1  0
 98 96  1  0
M  ISO  4  17 101  18 101  61 100  69 100
M  END
>  <TORSDO>  (47) 
F 23

>  <SCORE>  (47) 
-12.875

>  <name>  (47) 
46

>  <ligand_id>  (47) 
46

>  <original_smiles>  (47) 
[H]c1c([H])c([H])c2c(c1[H])C([H])([H])C([H])([H])C([H])([H])C2([H])N([H])C(=O)C1([H])N(C(=O)C([H])(N([H])C(=O)C([H])(N([H])C([H])([H])[H])C([H])([H])[H])C(C([H])([H])[H])(C([H])([H])[H])C([H])([H])[H])C([H])([H])c2c([H])c(OC([H])([H])C([H])([H])c3c(C([H])([H])[H])nc(N([H])C4([H])C([H])([H])C4([H])C([H])(C([H])([H])[H])C([H])([H])[H])c(C([H])([H])C([H])([H])N([H])C(=O)N4C([H])([H])C([H])([H])C([H])([H])C([H])(n5nc(-c6c([H])c([H])c(Oc7c([H])c([H])c(F)c([H])c7F)c([H])c6[H])c(C(=O)N([H])[H])c5N([H])[H])C4([H])[H])c3[H])c([H])c([H])c2C1([H])[H]

>  <smiles>  (47) 
[H]c1c([H])c([H])c2c(c1[H])C([H])([H])C([H])([H])C([H])([H])C2([H])N([H])C(=O)C1([H])N(C(=O)C([H])(N([H])C(=O)C([H])(N([H])C([H])([H])[H])C([H])([H])[H])C(C([H])([H])[H])(C([H])([H])[H])C([H])([H])[H])C([H])([H])c2c([H])c(OC([H])([H])C([H])([H])c3c(C([H])([H])[H])nc(N([H])C4([H])C([H])([H])C4([H])C([H])(C([H])([H])[H])C([H])([H])[H])c(C([H])([H])C([H])([H])N([H])C(=O)N4C([H])([H])C([H])([H])C([H])([H])C([H])(n5nc(-c6c([H])c([H])c(Oc7c([H])c([H])c(F)c([H])c7F)c([H])c6[H])c(C(=O)N([H])[H])c5N([H])[H])C4([H])[H])c3[H])c([H])c([H])c2C1([H])[H]

$$$$
47:0:0
     RDKit          3D

100110  0  0  1  0  0  0  0  0999 V2000
  -26.7360  -24.0180   20.4850 C   0  0  0  0  0  3  0  0  0  0  0  0
  -28.8670  -22.8480   20.4000 C   0  0  0  0  0  3  0  0  0  0  0  0
  -26.1300  -22.9800   19.7640 C   0  0  0  0  0  0  0  0  0  0  0  0
  -26.8860  -21.8480   19.3520 C   0  0  0  0  0  0  0  0  0  0  0  0
  -28.1140  -24.0220   20.7410 C   0  0  0  0  0  0  0  0  0  0  0  0
  -28.2660  -21.7310   19.7230 C   0  0  0  0  0  0  0  0  0  0  0  0
  -24.6740  -23.1850   19.3480 C   0  0  0  0  0  2  0  0  0  0  0  0
  -24.0390  -21.9700   18.6670 C   0  0  0  0  0  2  0  0  0  0  0  0
  -26.1800  -20.7750   18.4960 C   0  0  0  0  0  3  0  0  0  0  0  0
  -25.0190  -21.3350   17.7690 N   0  0  0  0  0  4  0  0  0  0  0  0
  -25.3520  -22.0300   17.1230 H   0  0  0  0  0  0  0  0  0  0  0  0
  -24.5740  -20.6160   17.2240 H   0  0  0  0  0  0  0  0  0  0  0  0
  -25.0730  -18.3600   18.7980 C   0  0  0  0  0  2  0  0  0  0  0  0
  -26.5080  -18.2580   19.2340 C   0  0  0  0  0  2  0  0  0  0  0  0
  -25.7840  -19.5790   19.3610 C   0  0  0  0  0  3  0  0  0  0  0  0
  -28.9650  -20.5530   19.3080 N   0  0  0  0  0  0  0  0  0  0  0  0
  -28.3790  -19.9080   18.7960 H   0  0  0  0  0  0  0  0  0  0  0  0
  -30.0630  -19.8080   19.9720 C   0  0  0  0  0  2  0  0  0  0  0  0
  -29.8420  -18.2360   19.8690 C   0  0  0  0  0  3  0  0  0  0  0  0
  -31.0110  -17.2050   20.1280 C   0  0  0  0  0  3  0  0  0  0  0  0
  -31.2870  -14.6450   19.9560 C   0  0  0  0  0  0  0  0  0  0  0  0
  -30.9750  -12.3490   19.0730 C   0  0  0  0  0  2  0  0  0  0  0  0
  -29.9990  -12.3770   17.8760 C   0  0  0  0  0  2  0  0  0  0  0  0
  -28.5330  -12.3070   18.3440 C   0  0  0  0  0  2  0  0  0  0  0  0
  -28.2270  -13.2960   19.4960 C   0  0  0  0  0  3  0  0  0  0  0  0
  -29.2990  -13.2070   20.6040 C   0  0  0  0  0  2  0  0  0  0  0  0
  -30.6100  -13.4580   19.9790 N   0  0  0  0  0  0  0  0  0  0  0  0
  -32.4380  -14.7250   19.5150 O   0  0  0  0  0  0  0  0  0  0  0  0
  -30.5850  -15.7700   20.2660 N   0  0  0  0  0  0  0  0  0  0  0  0
  -29.6520  -15.6050   20.6140 H   0  0  0  0  0  0  0  0  0  0  0  0
  -25.9010  -14.0350   20.2980 C   0  0  0  0  0  0  0  0  0  0  0  0
  -24.7960  -13.3290   20.6870 C   0  0  0  0  0  0  0  0  0  0  0  0
  -25.1690  -11.9490   20.6210 C   0  0  0  0  0  0  0  0  0  0  0  0
  -26.8780  -13.0960   20.0210 N   0  0  0  0  0  0  0  0  0  0  0  0
  -26.4470  -11.8330   20.2760 N   0  0  0  0  0  0  0  0  0  0  0  0
  -24.3660  -10.7330   20.8080 C   0  0  0  0  0  0  0  0  0  0  0  0
  -24.7380   -9.7390   21.7380 C   0  0  0  0  0  3  0  0  0  0  0  0
  -23.9370   -8.5910   21.9250 C   0  0  0  0  0  3  0  0  0  0  0  0
  -22.7510   -8.4270   21.1700 C   0  0  0  0  0  0  0  0  0  0  0  0
  -22.3930   -9.4070   20.2280 C   0  0  0  0  0  3  0  0  0  0  0  0
  -23.1940  -10.5500   20.0460 C   0  0  0  0  0  3  0  0  0  0  0  0
  -21.9250   -7.3330   21.2610 O   0  0  0  0  0  0  0  0  0  0  0  0
  -21.7800   -6.6400   22.4340 C   0  0  0  0  0  0  0  0  0  0  0  0
  -21.3460   -7.2680   23.6230 C   0  0  0  0  0  3  0  0  0  0  0  0
  -21.1560   -6.5040   24.7920 C   0  0  0  0  0  3  0  0  0  0  0  0
  -21.3740   -5.1140   24.7700 C   0  0  0  0  0  0  0  0  0  0  0  0
  -21.7940   -4.4870   23.5840 C   0  0  0  0  0  3  0  0  0  0  0  0
  -21.9980   -5.2480   22.4200 C   0  0  0  0  0  0  0  0  0  0  0  0
  -22.3860   -4.6380   21.2740 F   0  0  0  0  0  0  0  0  0  0  0  0
  -21.1790   -4.3760   25.8870 F   0  0  0  0  0  0  0  0  0  0  0  0
  -23.4380  -13.8860   21.0040 C   0  0  0  0  0  0  0  0  0  0  0  0
  -22.7050  -13.2330   21.8990 N   0  0  0  0  0  0  0  0  0  0  0  0
  -23.0360  -14.9300   20.4920 O   0  0  0  0  0  0  0  0  0  0  0  0
  -23.0540  -12.4020   22.3550 H   0  0  0  0  0  0  0  0  0  0  0  0
  -21.7840  -13.5730   22.1450 H   0  0  0  0  0  0  0  0  0  0  0  0
  -26.1540  -15.3880   20.1320 N   0  0  0  0  0  0  0  0  0  0  0  0
  -25.4570  -16.1020   20.3040 H   0  0  0  0  0  0  0  0  0  0  0  0
  -27.0120  -15.7520   19.7390 H   0  0  0  0  0  0  0  0  0  0  0  0
  -28.7050  -25.2730   21.4480 C   0  0  0  0  0  2  0  0  0  0  0  0
  -28.7070  -26.5490   20.7380 O   0  0  0  0  0  0  0  0  0  0  0  0
  -24.7640  -31.9650   23.3570 C   0  0  0  0  0  0  0  0  0  0  0  0
  -27.5540  -27.3200   20.6980 C   0  0  0  0  0  0  0  0  0  0  0  0
  -23.6430  -30.4670   21.7430 C   0  0  0  0  0  3  0  0  0  0  0  0
  -25.1700  -28.8490   20.4910 C   0  0  0  0  0  0  0  0  0  0  0  0
  -26.1850  -30.8050   21.6630 C   0  0  0  0  0  2  0  0  0  0  0  0
  -26.2970  -29.3940   21.1200 C   0  0  0  0  0  0  0  0  0  0  0  0
  -27.4900  -28.6340   21.2340 C   0  0  0  0  0  3  0  0  0  0  0  0
  -26.4300  -26.8290   20.0040 C   0  0  0  0  0  3  0  0  0  0  0  0
  -25.2320  -27.5650   19.9270 C   0  0  0  0  0  3  0  0  0  0  0  0
  -23.9250  -29.7100   20.4230 C   0  0  0  0  0  2  0  0  0  0  0  0
  -24.8810  -31.0980   22.3110 N   0  0  0  0  0  0  0  0  0  0  0  0
  -23.6550  -32.2660   23.8210 O   0  0  0  0  0  0  0  0  0  0  0  0
  -22.9450  -29.5000   22.7250 C   0  0  0  0  0  0  0  0  0  0  0  0
  -21.6450  -29.2460   22.4970 N   0  0  0  0  0  0  0  0  0  0  0  0
  -23.5770  -28.9760   23.6450 O   0  0  0  0  0  0  0  0  0  0  0  0
  -21.1990  -29.7220   21.7250 H   0  0  0  0  0  0  0  0  0  0  0  0
  -18.2730  -27.9870   22.8300 C   0  0  0  0  0  0  0  0  0  0  0  0
  -20.7960  -28.3400   23.2720 C   0  0  0  0  0  3  0  0  0  0  0  0
  -20.9790  -26.8770   22.8110 C   0  0  0  0  0  2  0  0  0  0  0  0
  -19.9670  -26.4500   21.7440 C   0  0  0  0  0  2  0  0  0  0  0  0
  -18.5370  -26.5980   22.2710 C   0  0  0  0  0  2  0  0  0  0  0  0
  -19.3360  -28.8100   23.2880 C   0  0  0  0  0  0  0  0  0  0  0  0
  -19.0420  -30.1040   23.7720 C   0  0  0  0  0  3  0  0  0  0  0  0
  -17.7180  -30.5800   23.7970 C   0  0  0  0  0  3  0  0  0  0  0  0
  -16.6680  -29.7540   23.3600 C   0  0  0  0  0  3  0  0  0  0  0  0
  -16.9450  -28.4580   22.8880 C   0  0  0  0  0  3  0  0  0  0  0  0
  -26.0150  -32.6360   24.0010 C   0  0  0  0  0  3  0  0  0  0  0  0
  -25.6670  -34.0330   24.2960 N   0  0  0  0  0  0  0  0  0  0  0  0
  -25.9720  -35.0730   23.5080 C   0  0  0  0  0  0  0  0  0  0  0  0
  -26.6420  -34.9610   22.4760 O   0  0  0  0  0  0  0  0  0  0  0  0
  -25.0680  -34.1930   25.0940 H   0  0  0  0  0  0  0  0  0  0  0  0
  -24.1740  -36.7910   23.1310 C   0  0  0  0  0  1  0  0  0  0  0  0
  -25.4450  -36.4590   23.9270 C   0  0  0  0  0  3  0  0  0  0  0  0
  -27.5730  -37.4380   24.6730 C   0  0  0  0  0  1  0  0  0  0  0  0
  -26.4400  -37.5400   23.7570 N   0  0  0  0  0  0  0  0  0  0  0  0
  -26.0080  -38.4500   23.8880 H   0  0  0  0  0  0  0  0  0  0  0  0
  -26.5210  -31.8980   25.3010 C   0  0  1  0  0  0  0  0  0  0  0  0
  -25.3850  -31.5510   26.2930 C   0  0  0  0  0  1  0  0  0  0  0  0
  -27.2520  -30.5850   24.9330 C   0  0  0  0  0  1  0  0  0  0  0  0
  -27.5520  -32.7860   26.0390 C   0  0  0  0  0  1  0  0  0  0  0  0
  1  5  1  0
  2  5  2  0
  3  1  2  0
  4  6  2  0
  4  3  1  0
  5 59  1  0
  6  2  1  0
  7  3  1  0
  8  7  1  0
  9  4  1  0
  9 15  1  0
 10  9  1  0
 10  8  1  0
 11 10  1  0
 12 10  1  0
 13 14  1  0
 13 15  1  0
 14 15  1  0
 16  6  1  0
 16 18  1  0
 17 16  1  0
 19 18  1  0
 19 20  2  0
 20 29  1  0
 21 27  1  0
 21 29  1  0
 22 27  1  0
 23 24  1  0
 23 22  1  0
 25 24  1  0
 25 34  1  0
 25 26  1  0
 27 26  1  0
 28 21  2  0
 29 30  1  0
 31 32  2  0
 32 51  1  0
 33 32  1  0
 33 36  1  0
 34 35  1  0
 34 31  1  0
 35 33  2  0
 36 37  1  0
 37 38  2  0
 39 42  1  0
 39 38  1  0
 40 39  2  0
 41 40  1  0
 41 36  2  0
 42 43  1  0
 43 44  1  0
 44 45  2  0
 46 45  1  0
 46 50  1  0
 47 46  2  0
 48 43  2  0
 48 47  1  0
 49 48  1  0
 51 52  1  0
 52 55  1  0
 52 54  1  0
 53 51  2  0
 56 31  1  0
 56 57  1  0
 58 56  1  0
 60 59  1  0
 61 72  2  0
 62 60  1  0
 62 67  1  0
 63 71  1  0
 63 73  1  0
 64 66  1  0
 65 71  1  0
 66 67  2  0
 66 65  1  0
 68 62  2  0
 69 68  1  0
 69 64  2  0
 70 64  1  0
 70 63  1  0
 71 61  1  0
 73 75  2  0
 74 73  1  0
 76 74  1  0
 77 86  2  0
 77 82  1  0
 78 74  1  0
 78 82  1  0
 79 78  1  0
 80 81  1  0
 80 79  1  0
 81 77  1  0
 82 83  2  0
 83 84  1  0
 85 84  2  0
 86 85  1  0
 87 61  1  0
 87 88  1  0
 87 97  1  0
 88 91  1  0
 89 93  1  0
 89 88  1  0
 90 89  2  0
 93 92  1  0
 95 96  1  0
 95 93  1  0
 95 94  1  0
 97100  1  1
 97 98  1  0
 99 97  1  0
M  ISO  4  21 100  29 100  59 101  60 101
M  END
>  <TORSDO>  (48) 
F 22

>  <SCORE>  (48) 
-10.892

>  <name>  (48) 
47

>  <ligand_id>  (48) 
47

>  <original_smiles>  (48) 
[H]c1c([H])c([H])c2c(c1[H])C([H])([H])C([H])([H])C([H])([H])C2([H])N([H])C(=O)C1([H])N(C(=O)C([H])(N([H])C(=O)C([H])(N([H])C([H])([H])[H])C([H])([H])[H])C(C([H])([H])[H])(C([H])([H])[H])C([H])([H])[H])C([H])([H])c2c([H])c(OC([H])([H])c3c([H])c(N([H])C([H])([H])C([H])([H])C([H])([H])N([H])C(=O)N4C([H])([H])C([H])([H])C([H])([H])C([H])(n5nc(-c6c([H])c([H])c(Oc7c([H])c([H])c(F)c([H])c7F)c([H])c6[H])c(C(=O)N([H])[H])c5N([H])[H])C4([H])[H])c4c(c3[H])C([H])([H])C([H])([H])[N+]([H])([H])C4([H])C3([H])C([H])([H])C3([H])[H])c([H])c([H])c2C1([H])[H]

>  <smiles>  (48) 
[H]c1c([H])c([H])c2c(c1[H])C([H])([H])C([H])([H])C([H])([H])C2([H])N([H])C(=O)C1([H])N(C(=O)C([H])(N([H])C(=O)C([H])(N([H])C([H])([H])[H])C([H])([H])[H])C(C([H])([H])[H])(C([H])([H])[H])C([H])([H])[H])C([H])([H])c2c([H])c(OC([H])([H])c3c([H])c(N([H])C([H])([H])C([H])([H])C([H])([H])N([H])C(=O)N4C([H])([H])C([H])([H])C([H])([H])C([H])(n5nc(-c6c([H])c([H])c(Oc7c([H])c([H])c(F)c([H])c7F)c([H])c6[H])c(C(=O)N([H])[H])c5N([H])[H])C4([H])[H])c4c(c3[H])C([H])([H])C([H])([H])[N+]([H])([H])C4([H])C3([H])C([H])([H])C3([H])[H])c([H])c([H])c2C1([H])[H]

$$$$
48:0:0
     RDKit          3D

 94103  0  0  1  0  0  0  0  0999 V2000
  -26.5960  -20.2950   18.0480 C   0  0  0  0  0  3  0  0  0  0  0  0
  -27.0340  -19.3470   18.9820 C   0  0  0  0  0  3  0  0  0  0  0  0
  -27.0920  -21.6080   18.1020 C   0  0  0  0  0  3  0  0  0  0  0  0
  -28.3240  -21.0800   20.1360 C   0  0  0  0  0  0  0  0  0  0  0  0
  -27.9190  -19.7170   20.0160 C   0  0  0  0  0  0  0  0  0  0  0  0
  -28.0080  -22.0150   19.1080 C   0  0  0  0  0  0  0  0  0  0  0  0
  -28.3680  -21.7120   22.6820 C   0  0  0  0  0  2  0  0  0  0  0  0
  -28.8670  -22.9240   21.9450 C   0  0  0  0  0  2  0  0  0  0  0  0
  -29.0800  -21.5360   21.3510 C   0  0  0  0  0  3  0  0  0  0  0  0
  -28.3860  -18.7230   20.8530 O   0  0  0  0  0  0  0  0  0  0  0  0
  -29.4470  -17.9450   20.2790 C   0  0  0  0  0  2  0  0  0  0  0  0
  -29.5360  -16.4660   20.7600 C   0  0  0  0  0  2  0  0  0  0  0  0
  -31.2910  -14.6150   20.0430 C   0  0  0  0  0  0  0  0  0  0  0  0
  -30.8540  -12.4010   19.0620 C   0  0  0  0  0  2  0  0  0  0  0  0
  -29.9130  -12.5240   17.8480 C   0  0  0  0  0  2  0  0  0  0  0  0
  -28.4450  -12.4440   18.3050 C   0  0  0  0  0  2  0  0  0  0  0  0
  -28.1460  -13.4000   19.4860 C   0  0  0  0  0  3  0  0  0  0  0  0
  -29.2070  -13.2710   20.6040 C   0  0  0  0  0  2  0  0  0  0  0  0
  -30.5180  -13.4930   19.9930 N   0  0  0  0  0  0  0  0  0  0  0  0
  -32.4520  -14.6160   19.6500 O   0  0  0  0  0  0  0  0  0  0  0  0
  -30.7630  -15.8430   20.2360 N   0  0  0  0  0  0  0  0  0  0  0  0
  -31.4570  -16.5390   20.0160 H   0  0  0  0  0  0  0  0  0  0  0  0
  -25.8220  -14.1670   20.2770 C   0  0  0  0  0  0  0  0  0  0  0  0
  -24.7140  -13.4660   20.6650 C   0  0  0  0  0  0  0  0  0  0  0  0
  -25.0760  -12.0850   20.6010 C   0  0  0  0  0  0  0  0  0  0  0  0
  -26.7940  -13.2170   20.0020 N   0  0  0  0  0  0  0  0  0  0  0  0
  -26.3520  -11.9590   20.2610 N   0  0  0  0  0  0  0  0  0  0  0  0
  -24.2690  -10.8750   20.7790 C   0  0  0  0  0  0  0  0  0  0  0  0
  -24.6420   -9.8660   21.6940 C   0  0  0  0  0  3  0  0  0  0  0  0
  -23.8370   -8.7190   21.8630 C   0  0  0  0  0  3  0  0  0  0  0  0
  -22.6440   -8.5730   21.1140 C   0  0  0  0  0  0  0  0  0  0  0  0
  -22.2900   -9.5700   20.1870 C   0  0  0  0  0  3  0  0  0  0  0  0
  -23.0960  -10.7070   20.0170 C   0  0  0  0  0  3  0  0  0  0  0  0
  -21.8130   -7.4800   21.1930 O   0  0  0  0  0  0  0  0  0  0  0  0
  -21.6960   -6.7500   22.3500 C   0  0  0  0  0  0  0  0  0  0  0  0
  -21.3190   -7.3450   23.5740 C   0  0  0  0  0  3  0  0  0  0  0  0
  -21.1420   -6.5450   24.7190 C   0  0  0  0  0  3  0  0  0  0  0  0
  -21.3290   -5.1520   24.6420 C   0  0  0  0  0  0  0  0  0  0  0  0
  -21.6990   -4.5570   23.4220 C   0  0  0  0  0  3  0  0  0  0  0  0
  -21.8770   -5.3550   22.2790 C   0  0  0  0  0  0  0  0  0  0  0  0
  -22.2120   -4.7750   21.1000 F   0  0  0  0  0  0  0  0  0  0  0  0
  -21.1530   -4.3810   25.7400 F   0  0  0  0  0  0  0  0  0  0  0  0
  -23.3600  -14.0340   20.9850 C   0  0  0  0  0  0  0  0  0  0  0  0
  -22.6210  -13.3900   21.8800 N   0  0  0  0  0  0  0  0  0  0  0  0
  -22.9710  -15.0840   20.4740 O   0  0  0  0  0  0  0  0  0  0  0  0
  -22.9520  -12.5410   22.3150 H   0  0  0  0  0  0  0  0  0  0  0  0
  -21.7150  -13.7560   22.1430 H   0  0  0  0  0  0  0  0  0  0  0  0
  -26.0690  -15.5240   20.1000 N   0  0  0  0  0  0  0  0  0  0  0  0
  -25.3400  -16.2190   20.2230 H   0  0  0  0  0  0  0  0  0  0  0  0
  -26.9020  -15.8930   19.6640 H   0  0  0  0  0  0  0  0  0  0  0  0
  -28.6190  -23.2680   19.1130 O   0  0  0  0  0  0  0  0  0  0  0  0
  -28.2370  -24.2110   18.0960 C   0  0  0  0  0  2  0  0  0  0  0  0
  -28.9900  -25.5870   18.0120 C   0  0  0  0  0  2  0  0  0  0  0  0
  -28.7080  -26.7630   18.8180 O   0  0  0  0  0  0  0  0  0  0  0  0
  -24.5790  -30.9950   22.7690 C   0  0  0  0  0  0  0  0  0  0  0  0
  -27.4890  -27.4240   18.8520 C   0  0  0  0  0  0  0  0  0  0  0  0
  -23.4450  -29.7860   20.9320 C   0  0  0  0  0  3  0  0  0  0  0  0
  -24.9700  -28.6880   19.1980 C   0  0  0  0  0  0  0  0  0  0  0  0
  -25.9180  -30.4120   20.7460 C   0  0  0  0  0  2  0  0  0  0  0  0
  -26.0960  -29.1880   19.8670 C   0  0  0  0  0  0  0  0  0  0  0  0
  -27.3460  -28.5400   19.7180 C   0  0  0  0  0  3  0  0  0  0  0  0
  -26.3590  -27.0300   18.1020 C   0  0  0  0  0  3  0  0  0  0  0  0
  -25.0960  -27.6060   18.3170 C   0  0  0  0  0  3  0  0  0  0  0  0
  -23.6520  -29.3820   19.4500 C   0  0  0  0  0  2  0  0  0  0  0  0
  -24.6690  -30.4000   21.5480 N   0  0  0  0  0  0  0  0  0  0  0  0
  -23.4970  -31.0640   23.3670 O   0  0  0  0  0  0  0  0  0  0  0  0
  -22.9370  -28.5560   21.7130 C   0  0  0  0  0  0  0  0  0  0  0  0
  -21.6360  -28.2540   21.5670 N   0  0  0  0  0  0  0  0  0  0  0  0
  -23.7060  -27.8850   22.4090 O   0  0  0  0  0  0  0  0  0  0  0  0
  -21.0730  -28.8840   21.0150 H   0  0  0  0  0  0  0  0  0  0  0  0
  -18.4610  -26.5350   21.7860 C   0  0  0  0  0  0  0  0  0  0  0  0
  -20.9520  -27.1060   22.1670 C   0  0  0  0  0  3  0  0  0  0  0  0
  -21.2650  -25.7900   21.4190 C   0  0  0  0  0  2  0  0  0  0  0  0
  -20.2380  -25.4460   20.3370 C   0  0  0  0  0  2  0  0  0  0  0  0
  -18.8330  -25.3260   20.9400 C   0  0  0  0  0  2  0  0  0  0  0  0
  -19.4550  -27.3740   22.3520 C   0  0  0  0  0  0  0  0  0  0  0  0
  -19.0540  -28.4970   23.1120 C   0  0  0  0  0  3  0  0  0  0  0  0
  -17.6920  -28.7830   23.3020 C   0  0  0  0  0  3  0  0  0  0  0  0
  -16.7090  -27.9450   22.7520 C   0  0  0  0  0  3  0  0  0  0  0  0
  -17.0980  -26.8230   21.9970 C   0  0  0  0  0  3  0  0  0  0  0  0
  -25.8210  -31.6420   23.4530 C   0  0  0  0  0  3  0  0  0  0  0  0
  -25.3980  -32.9170   24.0390 N   0  0  0  0  0  0  0  0  0  0  0  0
  -25.6190  -34.1250   23.5010 C   0  0  0  0  0  0  0  0  0  0  0  0
  -26.2730  -34.2940   22.4660 O   0  0  0  0  0  0  0  0  0  0  0  0
  -24.8180  -32.8630   24.8650 H   0  0  0  0  0  0  0  0  0  0  0  0
  -23.7400  -35.7890   23.4980 C   0  0  0  0  0  1  0  0  0  0  0  0
  -25.0190  -35.3430   24.2240 C   0  0  0  0  0  3  0  0  0  0  0  0
  -27.0750  -36.2240   25.2390 C   0  0  0  0  0  1  0  0  0  0  0  0
  -25.9570  -36.4840   24.3320 N   0  0  0  0  0  0  0  0  0  0  0  0
  -25.4720  -37.3160   24.6570 H   0  0  0  0  0  0  0  0  0  0  0  0
  -26.4890  -30.7210   24.5440 C   0  0  1  0  0  0  0  0  0  0  0  0
  -25.4870  -30.1910   25.5920 C   0  0  0  0  0  1  0  0  0  0  0  0
  -27.1780  -29.4980   23.9000 C   0  0  0  0  0  1  0  0  0  0  0  0
  -27.5980  -31.5060   25.2910 C   0  0  0  0  0  1  0  0  0  0  0  0
  1  3  2  0
  1  2  1  0
  2  5  2  0
  3  6  1  0
  4  9  1  0
  5  4  1  0
  5 10  1  0
  6 51  1  0
  6  4  2  0
  8  7  1  0
  9  8  1  0
  9  7  1  0
 11 12  1  0
 11 10  1  0
 13 21  1  0
 14 19  1  0
 15 16  1  0
 15 14  1  0
 17 16  1  0
 17 26  1  0
 17 18  1  0
 19 13  1  0
 19 18  1  0
 20 13  2  0
 21 12  1  0
 22 21  1  0
 23 24  2  0
 24 43  1  0
 25 24  1  0
 25 28  1  0
 26 27  1  0
 26 23  1  0
 27 25  2  0
 28 29  1  0
 29 30  2  0
 31 34  1  0
 31 30  1  0
 32 31  2  0
 33 32  1  0
 33 28  2  0
 34 35  1  0
 35 36  1  0
 36 37  2  0
 38 37  1  0
 38 42  1  0
 39 38  2  0
 40 35  2  0
 40 39  1  0
 41 40  1  0
 43 44  1  0
 44 47  1  0
 44 46  1  0
 45 43  2  0
 48 49  1  0
 48 23  1  0
 50 48  1  0
 52 51  1  0
 53 52  1  0
 53 54  1  0
 54 56  1  0
 55 66  2  0
 56 61  1  0
 57 65  1  0
 57 67  1  0
 58 64  1  0
 58 60  1  0
 59 65  1  0
 60 59  1  0
 61 60  2  0
 62 63  1  0
 62 56  2  0
 63 58  2  0
 64 57  1  0
 65 55  1  0
 67 69  2  0
 68 67  1  0
 70 68  1  0
 71 80  2  0
 71 76  1  0
 72 68  1  0
 72 76  1  0
 73 72  1  0
 74 75  1  0
 74 73  1  0
 75 71  1  0
 76 77  2  0
 77 78  1  0
 79 78  2  0
 80 79  1  0
 81 55  1  0
 81 82  1  0
 81 91  1  0
 82 85  1  0
 83 82  1  0
 83 87  1  0
 84 83  2  0
 87 86  1  0
 87 89  1  0
 89 90  1  0
 89 88  1  0
 91 94  1  1
 91 92  1  0
 93 91  1  0
M  ISO  4  13 100  21 100  53 101  54 101
M  END
>  <TORSDO>  (49) 
F 23

>  <SCORE>  (49) 
-9.537

>  <name>  (49) 
48

>  <ligand_id>  (49) 
48

>  <original_smiles>  (49) 
[H]c1c([H])c(OC([H])([H])C([H])([H])Oc2c([H])c([H])c3c(c2[H])C([H])([H])N(C(=O)C([H])(N([H])C(=O)C([H])(N([H])C([H])([H])[H])C([H])([H])[H])C(C([H])([H])[H])(C([H])([H])[H])C([H])([H])[H])C([H])(C(=O)N([H])C2([H])c4c([H])c([H])c([H])c([H])c4C([H])([H])C([H])([H])C2([H])[H])C3([H])[H])c(C2([H])C([H])([H])C2([H])[H])c(OC([H])([H])C([H])([H])N([H])C(=O)N2C([H])([H])C([H])([H])C([H])([H])C([H])(n3nc(-c4c([H])c([H])c(Oc5c([H])c([H])c(F)c([H])c5F)c([H])c4[H])c(C(=O)N([H])[H])c3N([H])[H])C2([H])[H])c1[H]

>  <smiles>  (49) 
[H]c1c([H])c(OC([H])([H])C([H])([H])Oc2c([H])c([H])c3c(c2[H])C([H])([H])N(C(=O)C([H])(N([H])C(=O)C([H])(N([H])C([H])([H])[H])C([H])([H])[H])C(C([H])([H])[H])(C([H])([H])[H])C([H])([H])[H])C([H])(C(=O)N([H])C2([H])c4c([H])c([H])c([H])c([H])c4C([H])([H])C([H])([H])C2([H])[H])C3([H])[H])c(C2([H])C([H])([H])C2([H])[H])c(OC([H])([H])C([H])([H])N([H])C(=O)N2C([H])([H])C([H])([H])C([H])([H])C([H])(n3nc(-c4c([H])c([H])c(Oc5c([H])c([H])c(F)c([H])c5F)c([H])c4[H])c(C(=O)N([H])[H])c3N([H])[H])C2([H])[H])c1[H]

$$$$
49:0:0
     RDKit          3D

 93102  0  0  1  0  0  0  0  0999 V2000
  -29.5860  -20.5990   21.7260 C   0  0  0  0  0  3  0  0  0  0  0  0
  -29.0370  -21.2130   19.6950 C   0  0  0  0  0  3  0  0  0  0  0  0
  -29.3340  -20.0570   20.4300 C   0  0  0  0  0  0  0  0  0  0  0  0
  -29.4780  -21.9780   21.7240 C   0  0  0  0  0  0  0  0  0  0  0  0
  -29.7200  -22.9200   22.8600 C   0  0  0  0  0  1  0  0  0  0  0  0
  -29.1220  -22.4180   20.4470 N   0  0  0  0  0  0  0  0  0  0  0  0
  -30.7350  -14.8990   20.3830 C   0  0  0  0  0  0  0  0  0  0  0  0
  -30.5730  -12.6120   19.4000 C   0  0  0  0  0  2  0  0  0  0  0  0
  -29.6540  -12.6570   18.1610 C   0  0  0  0  0  2  0  0  0  0  0  0
  -28.1800  -12.4770   18.5730 C   0  0  0  0  0  2  0  0  0  0  0  0
  -27.7730  -13.3750   19.7730 C   0  0  0  0  0  3  0  0  0  0  0  0
  -28.8150  -13.3230   20.9080 C   0  0  0  0  0  2  0  0  0  0  0  0
  -30.1100  -13.6750   20.3180 N   0  0  0  0  0  0  0  0  0  0  0  0
  -31.9580  -14.9690   20.2280 O   0  0  0  0  0  0  0  0  0  0  0  0
  -29.8140  -17.3080   20.9430 C   0  0  0  0  0  2  0  0  0  0  0  0
  -29.9530  -16.5310   18.7410 C   0  0  0  0  0  2  0  0  0  0  0  0
  -29.3260  -18.5060   19.9990 C   0  0  0  0  0  3  0  0  0  0  0  0
  -30.0970  -18.0810   18.7430 C   0  0  0  0  0  3  0  0  0  0  0  0
  -29.9540  -16.0300   20.1330 N   0  0  0  0  0  0  0  0  0  0  0  0
  -25.3660  -13.9410   20.4470 C   0  0  0  0  0  0  0  0  0  0  0  0
  -24.3020  -13.1560   20.8030 C   0  0  0  0  0  0  0  0  0  0  0  0
  -24.7860  -11.8120   20.8040 C   0  0  0  0  0  0  0  0  0  0  0  0
  -26.4270  -13.0730   20.2470 N   0  0  0  0  0  0  0  0  0  0  0  0
  -26.0850  -11.7900   20.5270 N   0  0  0  0  0  0  0  0  0  0  0  0
  -24.0740  -10.5410   20.9970 C   0  0  0  0  0  0  0  0  0  0  0  0
  -24.4970   -9.5950   21.9560 C   0  0  0  0  0  3  0  0  0  0  0  0
  -23.7850   -8.3900   22.1350 C   0  0  0  0  0  3  0  0  0  0  0  0
  -22.6370   -8.1210   21.3530 C   0  0  0  0  0  0  0  0  0  0  0  0
  -22.2340   -9.0560   20.3840 C   0  0  0  0  0  3  0  0  0  0  0  0
  -22.9470  -10.2530   20.2030 C   0  0  0  0  0  3  0  0  0  0  0  0
  -21.8970   -6.9660   21.4410 O   0  0  0  0  0  0  0  0  0  0  0  0
  -21.8250   -6.2440   22.6050 C   0  0  0  0  0  0  0  0  0  0  0  0
  -21.3450   -6.8110   23.8050 C   0  0  0  0  0  3  0  0  0  0  0  0
  -21.2230   -6.0130   24.9600 C   0  0  0  0  0  3  0  0  0  0  0  0
  -21.5700   -4.6500   24.9150 C   0  0  0  0  0  0  0  0  0  0  0  0
  -22.0430   -4.0820   23.7190 C   0  0  0  0  0  3  0  0  0  0  0  0
  -22.1670   -4.8770   22.5660 C   0  0  0  0  0  0  0  0  0  0  0  0
  -22.6030   -4.3200   21.4120 F   0  0  0  0  0  0  0  0  0  0  0  0
  -21.4460   -3.8810   26.0230 F   0  0  0  0  0  0  0  0  0  0  0  0
  -22.8920  -13.6160   21.0330 C   0  0  0  0  0  0  0  0  0  0  0  0
  -22.1530  -12.9220   21.8910 N   0  0  0  0  0  0  0  0  0  0  0  0
  -22.4520  -14.6260   20.4860 O   0  0  0  0  0  0  0  0  0  0  0  0
  -22.5200  -12.1050   22.3550 H   0  0  0  0  0  0  0  0  0  0  0  0
  -21.2060  -13.2120   22.0860 H   0  0  0  0  0  0  0  0  0  0  0  0
  -25.5160  -15.3100   20.2530 N   0  0  0  0  0  0  0  0  0  0  0  0
  -24.7420  -15.9600   20.3410 H   0  0  0  0  0  0  0  0  0  0  0  0
  -26.3770  -15.7560   19.9620 H   0  0  0  0  0  0  0  0  0  0  0  0
  -30.6800  -18.3020   16.2620 C   0  0  0  0  0  1  0  0  0  0  0  0
  -28.2760  -18.6310   16.9790 C   0  0  0  0  0  1  0  0  0  0  0  0
  -29.7520  -18.7710   17.3960 C   0  0  0  0  0  3  0  0  0  0  0  0
  -29.0280  -23.8650   19.9120 C   0  0  0  0  0  3  0  0  0  0  0  0
  -28.1980  -25.0600   20.6370 C   0  0  0  0  0  3  0  0  0  0  0  0
  -28.3810  -26.5050   20.2340 O   0  0  0  0  0  0  0  0  0  0  0  0
  -24.6180  -31.9620   23.2450 C   0  0  0  0  0  0  0  0  0  0  0  0
  -27.2680  -27.3760   20.2150 C   0  0  0  0  0  0  0  0  0  0  0  0
  -23.4330  -30.5470   21.6080 C   0  0  0  0  0  3  0  0  0  0  0  0
  -24.9000  -28.9990   20.1890 C   0  0  0  0  0  0  0  0  0  0  0  0
  -25.9730  -30.8790   21.4280 C   0  0  0  0  0  2  0  0  0  0  0  0
  -26.0660  -29.4940   20.7860 C   0  0  0  0  0  0  0  0  0  0  0  0
  -27.2570  -28.6970   20.7800 C   0  0  0  0  0  3  0  0  0  0  0  0
  -26.0790  -26.9480   19.5880 C   0  0  0  0  0  3  0  0  0  0  0  0
  -24.9110  -27.7350   19.5780 C   0  0  0  0  0  3  0  0  0  0  0  0
  -23.6570  -29.8670   20.2320 C   0  0  0  0  0  2  0  0  0  0  0  0
  -24.6940  -31.1470   22.1500 N   0  0  0  0  0  0  0  0  0  0  0  0
  -23.5310  -32.2310   23.7750 O   0  0  0  0  0  0  0  0  0  0  0  0
  -22.7740  -29.5300   22.5700 C   0  0  0  0  0  0  0  0  0  0  0  0
  -21.4500  -29.3420   22.4390 N   0  0  0  0  0  0  0  0  0  0  0  0
  -23.4540  -28.9140   23.3960 O   0  0  0  0  0  0  0  0  0  0  0  0
  -20.9600  -29.8920   21.7490 H   0  0  0  0  0  0  0  0  0  0  0  0
  -18.0780  -28.1220   22.9430 C   0  0  0  0  0  0  0  0  0  0  0  0
  -20.6350  -28.3980   23.2080 C   0  0  0  0  0  3  0  0  0  0  0  0
  -20.7440  -26.9680   22.6310 C   0  0  0  0  0  2  0  0  0  0  0  0
  -19.6440  -26.6380   21.6180 C   0  0  0  0  0  2  0  0  0  0  0  0
  -18.2630  -26.7750   22.2640 C   0  0  0  0  0  2  0  0  0  0  0  0
  -19.1930  -28.8910   23.3710 C   0  0  0  0  0  0  0  0  0  0  0  0
  -18.9670  -30.1510   23.9670 C   0  0  0  0  0  3  0  0  0  0  0  0
  -17.6590  -30.6440   24.1350 C   0  0  0  0  0  3  0  0  0  0  0  0
  -16.5590  -29.8720   23.7230 C   0  0  0  0  0  3  0  0  0  0  0  0
  -16.7700  -28.6130   23.1320 C   0  0  0  0  0  3  0  0  0  0  0  0
  -25.8920  -32.6100   23.8690 C   0  0  0  0  0  3  0  0  0  0  0  0
  -26.4040  -31.8550   25.1580 C   0  0  1  0  0  0  0  0  0  0  0  0
  -25.3020  -31.6130   26.2170 C   0  0  0  0  0  1  0  0  0  0  0  0
  -27.0050  -30.4810   24.7840 C   0  0  0  0  0  1  0  0  0  0  0  0
  -27.5410  -32.6660   25.8220 C   0  0  0  0  0  1  0  0  0  0  0  0
  -25.5710  -34.0090   24.1860 N   0  0  0  0  0  0  0  0  0  0  0  0
  -25.9080  -35.0590   23.4270 C   0  0  0  0  0  0  0  0  0  0  0  0
  -26.5920  -34.9520   22.4050 O   0  0  0  0  0  0  0  0  0  0  0  0
  -24.9610  -34.1630   24.9760 H   0  0  0  0  0  0  0  0  0  0  0  0
  -24.1880  -36.8510   23.0330 C   0  0  0  0  0  1  0  0  0  0  0  0
  -25.4120  -36.4490   23.8710 C   0  0  0  0  0  3  0  0  0  0  0  0
  -27.5280  -37.3380   24.7450 C   0  0  0  0  0  1  0  0  0  0  0  0
  -26.4470  -37.5020   23.7760 N   0  0  0  0  0  0  0  0  0  0  0  0
  -26.0380  -38.4220   23.9130 H   0  0  0  0  0  0  0  0  0  0  0  0
  2  3  2  0
  2  6  1  0
  3  1  1  0
  4  1  2  0
  4  5  1  0
  6  4  1  0
  8 13  1  0
  9 10  1  0
  9  8  1  0
 11 10  1  0
 11 23  1  0
 11 12  1  0
 13  7  1  0
 13 12  1  0
 14  7  2  0
 16 18  1  0
 16 19  1  0
 17  3  1  0
 17 15  1  0
 18 50  1  0
 18 17  1  0
 19  7  1  0
 19 15  1  0
 20 21  2  0
 21 22  1  0
 21 40  1  0
 22 25  1  0
 23 20  1  0
 23 24  1  0
 24 22  2  0
 25 26  1  0
 26 27  2  0
 28 31  1  0
 28 27  1  0
 29 28  2  0
 30 29  1  0
 30 25  2  0
 31 32  1  0
 32 33  1  0
 33 34  2  0
 35 34  1  0
 35 39  1  0
 36 35  2  0
 37 32  2  0
 37 36  1  0
 38 37  1  0
 40 41  1  0
 41 44  1  0
 41 43  1  0
 42 40  2  0
 45 46  1  0
 45 20  1  0
 47 45  1  0
 48 50  1  0
 49 50  1  0
 51  6  1  0
 51 52  2  0
 53 52  1  0
 54 65  2  0
 55 53  1  0
 55 60  1  0
 56 64  1  0
 56 66  1  0
 57 63  1  0
 57 59  1  0
 58 64  1  0
 59 58  1  0
 60 59  2  0
 61 55  2  0
 62 61  1  0
 62 57  2  0
 63 56  1  0
 64 54  1  0
 66 68  2  0
 67 66  1  0
 69 67  1  0
 70 79  2  0
 70 75  1  0
 71 67  1  0
 71 75  1  0
 72 71  1  0
 73 74  1  0
 73 72  1  0
 74 70  1  0
 75 76  2  0
 76 77  1  0
 78 77  2  0
 79 78  1  0
 80 54  1  0
 80 85  1  0
 80 81  1  0
 81 84  1  1
 81 82  1  0
 83 81  1  0
 85 88  1  0
 86 90  1  0
 86 85  1  0
 87 86  2  0
 90 89  1  0
 92 90  1  0
 92 93  1  0
 92 91  1  0
M  ISO  4   7 100  19 100  52 101  53 101
M  END
>  <TORSDO>  (50) 
F 19

>  <SCORE>  (50) 
-14.372

>  <name>  (50) 
49

>  <ligand_id>  (50) 
49

>  <original_smiles>  (50) 
[H]c1c([H])c([H])c2c(c1[H])C([H])([H])C([H])([H])C([H])([H])C2([H])N([H])C(=O)C1([H])N(C(=O)C([H])(N([H])C(=O)C([H])(N([H])C([H])([H])[H])C([H])([H])[H])C(C([H])([H])[H])(C([H])([H])[H])C([H])([H])[H])C([H])([H])c2c([H])c(OC([H])([H])C([H])([H])n3c([H])c(C4([H])C([H])([H])N(C(=O)N5C([H])([H])C([H])([H])C([H])([H])C([H])(n6nc(-c7c([H])c([H])c(Oc8c([H])c([H])c(F)c([H])c8F)c([H])c7[H])c(C(=O)N([H])[H])c6N([H])[H])C5([H])[H])C([H])([H])C4([H])C([H])(C([H])([H])[H])C([H])([H])[H])c([H])c3C([H])([H])[H])c([H])c([H])c2C1([H])[H]

>  <smiles>  (50) 
[H]c1c([H])c([H])c2c(c1[H])C([H])([H])C([H])([H])C([H])([H])C2([H])N([H])C(=O)C1([H])N(C(=O)C([H])(N([H])C(=O)C([H])(N([H])C([H])([H])[H])C([H])([H])[H])C(C([H])([H])[H])(C([H])([H])[H])C([H])([H])[H])C([H])([H])c2c([H])c(OC([H])([H])C([H])([H])n3c([H])c(C4([H])C([H])([H])N(C(=O)N5C([H])([H])C([H])([H])C([H])([H])C([H])(n6nc(-c7c([H])c([H])c(Oc8c([H])c([H])c(F)c([H])c8F)c([H])c7[H])c(C(=O)N([H])[H])c6N([H])[H])C5([H])[H])C([H])([H])C4([H])C([H])(C([H])([H])[H])C([H])([H])[H])c([H])c3C([H])([H])[H])c([H])c([H])c2C1([H])[H]

$$$$
50:0:0
     RDKit          3D

 97106  0  0  1  0  0  0  0  0999 V2000
  -29.2390  -21.0560   20.4100 C   0  0  0  0  0  0  0  0  0  0  0  0
  -28.9160  -22.5740   18.4850 C   0  0  0  0  0  0  0  0  0  0  0  0
  -28.9070  -21.2050   19.0100 C   0  0  0  0  0  0  0  0  0  0  0  0
  -29.1800  -22.2800   21.1880 C   0  0  0  0  0  3  0  0  0  0  0  0
  -28.7960  -23.7460   19.3170 C   0  0  0  0  0  0  0  0  0  0  0  0
  -29.1930  -17.5650   18.5740 C   0  0  0  0  0  2  0  0  0  0  0  0
  -28.1560  -18.7400   18.6830 C   0  0  0  0  0  2  0  0  0  0  0  0
  -29.6620  -19.6950   21.1340 C   0  0  0  0  0  3  0  0  0  0  0  0
  -30.5600  -18.5310   20.4440 C   0  0  0  0  0  3  0  0  0  0  0  0
  -29.7940  -17.2370   19.9520 C   0  0  0  0  0  3  0  0  0  0  0  0
  -29.2060  -22.8330   17.0030 C   0  0  0  0  0  1  0  0  0  0  0  0
  -29.3800  -22.3350   22.7030 C   0  0  0  0  0  1  0  0  0  0  0  0
  -28.5860  -19.1660   22.1310 C   0  0  0  0  0  1  0  0  0  0  0  0
  -31.7500  -18.1220   21.3350 C   0  0  0  0  0  1  0  0  0  0  0  0
  -27.5920  -20.4470   17.0740 C   0  0  0  0  0  1  0  0  0  0  0  0
  -28.8990  -23.5020   20.6390 N   0  0  0  0  0  0  0  0  0  0  0  0
  -28.5280  -20.0850   18.1600 N   0  0  0  0  0  0  0  0  0  0  0  0
  -28.8210  -24.3050   21.2630 H   0  0  0  0  0  0  0  0  0  0  0  0
  -28.5960  -25.2310   18.7370 C   0  0  0  0  0  2  0  0  0  0  0  0
  -28.4760  -26.4740   19.5590 O   0  0  0  0  0  0  0  0  0  0  0  0
  -24.7350  -31.6200   22.9970 C   0  0  0  0  0  0  0  0  0  0  0  0
  -27.3440  -27.3210   19.5480 C   0  0  0  0  0  0  0  0  0  0  0  0
  -23.5060  -30.3070   21.3080 C   0  0  0  0  0  3  0  0  0  0  0  0
  -24.9430  -28.8920   19.7250 C   0  0  0  0  0  0  0  0  0  0  0  0
  -26.0310  -30.6970   21.0560 C   0  0  0  0  0  2  0  0  0  0  0  0
  -26.1210  -29.3650   20.3170 C   0  0  0  0  0  0  0  0  0  0  0  0
  -27.3180  -28.5880   20.2250 C   0  0  0  0  0  3  0  0  0  0  0  0
  -26.1370  -26.9070   18.9410 C   0  0  0  0  0  3  0  0  0  0  0  0
  -24.9570  -27.6730   19.0290 C   0  0  0  0  0  3  0  0  0  0  0  0
  -23.6840  -29.7240   19.8790 C   0  0  0  0  0  2  0  0  0  0  0  0
  -24.7780  -30.8900   21.8440 N   0  0  0  0  0  0  0  0  0  0  0  0
  -23.6670  -31.8300   23.5910 O   0  0  0  0  0  0  0  0  0  0  0  0
  -22.9020  -29.2160   22.2240 C   0  0  0  0  0  0  0  0  0  0  0  0
  -21.5780  -29.0100   22.1290 N   0  0  0  0  0  0  0  0  0  0  0  0
  -23.6230  -28.5600   22.9800 O   0  0  0  0  0  0  0  0  0  0  0  0
  -21.0540  -29.5990   21.4980 H   0  0  0  0  0  0  0  0  0  0  0  0
  -18.2700  -27.6450   22.6670 C   0  0  0  0  0  0  0  0  0  0  0  0
  -20.8180  -27.9970   22.8630 C   0  0  0  0  0  3  0  0  0  0  0  0
  -20.9560  -26.6090   22.2000 C   0  0  0  0  0  2  0  0  0  0  0  0
  -19.8350  -26.2900   21.2090 C   0  0  0  0  0  2  0  0  0  0  0  0
  -18.4700  -26.3560   21.8960 C   0  0  0  0  0  2  0  0  0  0  0  0
  -19.3700  -28.4280   23.1030 C   0  0  0  0  0  0  0  0  0  0  0  0
  -19.1240  -29.6420   23.7770 C   0  0  0  0  0  3  0  0  0  0  0  0
  -17.8070  -30.0710   24.0260 C   0  0  0  0  0  3  0  0  0  0  0  0
  -16.7200  -29.2860   23.6050 C   0  0  0  0  0  3  0  0  0  0  0  0
  -16.9540  -28.0740   22.9310 C   0  0  0  0  0  3  0  0  0  0  0  0
  -26.0220  -32.2500   23.6140 C   0  0  0  0  0  3  0  0  0  0  0  0
  -25.6870  -33.6150   24.0440 N   0  0  0  0  0  0  0  0  0  0  0  0
  -25.9500  -34.7240   23.3380 C   0  0  0  0  0  0  0  0  0  0  0  0
  -26.5690  -34.7050   22.2710 O   0  0  0  0  0  0  0  0  0  0  0  0
  -25.1230  -33.6980   24.8760 H   0  0  0  0  0  0  0  0  0  0  0  0
  -24.1480  -36.4760   23.1910 C   0  0  0  0  0  1  0  0  0  0  0  0
  -25.4470  -36.0670   23.9030 C   0  0  0  0  0  3  0  0  0  0  0  0
  -27.5940  -36.9850   24.6710 C   0  0  0  0  0  1  0  0  0  0  0  0
  -26.4380  -37.1620   23.7950 N   0  0  0  0  0  0  0  0  0  0  0  0
  -26.0100  -38.0580   24.0120 H   0  0  0  0  0  0  0  0  0  0  0  0
  -26.6020  -31.4180   24.8240 C   0  0  1  0  0  0  0  0  0  0  0  0
  -25.5590  -31.0840   25.9160 C   0  0  0  0  0  1  0  0  0  0  0  0
  -27.2050  -30.0840   24.3310 C   0  0  0  0  0  1  0  0  0  0  0  0
  -27.7520  -32.2090   25.4960 C   0  0  0  0  0  1  0  0  0  0  0  0
  -30.1860  -15.8310   20.2860 O   0  0  0  0  0  0  0  0  0  0  0  0
  -31.0150  -14.8680   19.6140 C   0  0  0  0  0  0  0  0  0  0  0  0
  -30.7410  -12.6070   18.5370 C   0  0  0  0  0  2  0  0  0  0  0  0
  -29.6510  -12.7550   17.4470 C   0  0  0  0  0  2  0  0  0  0  0  0
  -28.2290  -12.6040   18.0330 C   0  0  0  0  0  2  0  0  0  0  0  0
  -28.0210  -13.4410   19.3230 C   0  0  0  0  0  3  0  0  0  0  0  0
  -29.1880  -13.2260   20.3080 C   0  0  0  0  0  2  0  0  0  0  0  0
  -30.4320  -13.5740   19.6090 N   0  0  0  0  0  0  0  0  0  0  0  0
  -32.0650  -15.1330   19.0200 O   0  0  0  0  0  0  0  0  0  0  0  0
  -25.7630  -14.0410   20.3960 C   0  0  0  0  0  0  0  0  0  0  0  0
  -24.7280  -13.2650   20.8520 C   0  0  0  0  0  0  0  0  0  0  0  0
  -25.1350  -11.9110   20.6600 C   0  0  0  0  0  0  0  0  0  0  0  0
  -26.7340  -13.1550   19.9570 N   0  0  0  0  0  0  0  0  0  0  0  0
  -26.3690  -11.8650   20.1720 N   0  0  0  0  0  0  0  0  0  0  0  0
  -24.3950  -10.6540   20.8540 C   0  0  0  0  0  0  0  0  0  0  0  0
  -24.8290   -9.6770   21.7760 C   0  0  0  0  0  3  0  0  0  0  0  0
  -24.0940   -8.4860   21.9570 C   0  0  0  0  0  3  0  0  0  0  0  0
  -22.9080   -8.2650   21.2180 C   0  0  0  0  0  0  0  0  0  0  0  0
  -22.4920   -9.2310   20.2840 C   0  0  0  0  0  3  0  0  0  0  0  0
  -23.2280  -10.4140   20.1000 C   0  0  0  0  0  3  0  0  0  0  0  0
  -22.1410   -7.1280   21.3150 O   0  0  0  0  0  0  0  0  0  0  0  0
  -21.9760   -6.4710   22.5080 C   0  0  0  0  0  0  0  0  0  0  0  0
  -21.4050   -7.1030   23.6340 C   0  0  0  0  0  3  0  0  0  0  0  0
  -21.1870   -6.3700   24.8180 C   0  0  0  0  0  3  0  0  0  0  0  0
  -21.5280   -5.0050   24.8740 C   0  0  0  0  0  0  0  0  0  0  0  0
  -22.0900   -4.3730   23.7520 C   0  0  0  0  0  3  0  0  0  0  0  0
  -22.3110   -5.1040   22.5710 C   0  0  0  0  0  0  0  0  0  0  0  0
  -22.8330   -4.4830   21.4860 F   0  0  0  0  0  0  0  0  0  0  0  0
  -21.3110   -4.2990   26.0080 F   0  0  0  0  0  0  0  0  0  0  0  0
  -23.3960  -13.7530   21.3430 C   0  0  0  0  0  0  0  0  0  0  0  0
  -22.7710  -13.0190   22.2580 N   0  0  0  0  0  0  0  0  0  0  0  0
  -22.9190  -14.8130   20.9460 O   0  0  0  0  0  0  0  0  0  0  0  0
  -23.1600  -12.1510   22.5960 H   0  0  0  0  0  0  0  0  0  0  0  0
  -21.8810  -13.3280   22.6250 H   0  0  0  0  0  0  0  0  0  0  0  0
  -25.9560  -15.4160   20.3000 N   0  0  0  0  0  0  0  0  0  0  0  0
  -25.2530  -16.0940   20.5730 H   0  0  0  0  0  0  0  0  0  0  0  0
  -26.7780  -15.8540   19.9100 H   0  0  0  0  0  0  0  0  0  0  0  0
  1  8  1  0
  1  4  1  0
  2  3  1  0
  2  5  2  0
  3  1  2  0
  4 12  1  0
  5 16  1  0
  6  7  1  0
  6 10  1  0
  8 13  1  0
  9  8  1  0
  9 14  1  0
 10 61  1  0
 10  9  1  0
 11  2  1  0
 15 17  1  0
 16  4  1  0
 16 18  1  0
 17  7  1  0
 17  3  1  0
 19  5  1  0
 19 20  1  0
 21 32  2  0
 22 20  1  0
 22 27  1  0
 23 31  1  0
 23 33  1  0
 24 30  1  0
 24 26  1  0
 25 31  1  0
 26 25  1  0
 27 26  2  0
 28 29  1  0
 28 22  2  0
 29 24  2  0
 30 23  1  0
 31 21  1  0
 33 35  2  0
 34 33  1  0
 36 34  1  0
 37 46  2  0
 37 42  1  0
 38 34  1  0
 38 42  1  0
 39 38  1  0
 40 41  1  0
 40 39  1  0
 41 37  1  0
 42 43  2  0
 43 44  1  0
 45 44  2  0
 46 45  1  0
 47 21  1  0
 47 48  1  0
 47 57  1  0
 48 51  1  0
 49 53  1  0
 49 48  1  0
 50 49  2  0
 53 52  1  0
 55 53  1  0
 55 56  1  0
 55 54  1  0
 57 60  1  1
 57 58  1  0
 59 57  1  0
 62 61  1  0
 63 68  1  0
 64 65  1  0
 64 63  1  0
 66 65  1  0
 66 73  1  0
 66 67  1  0
 68 62  1  0
 68 67  1  0
 69 62  2  0
 70 71  2  0
 71 90  1  0
 72 71  1  0
 72 75  1  0
 73 74  1  0
 73 70  1  0
 74 72  2  0
 75 76  1  0
 76 77  2  0
 78 81  1  0
 78 77  1  0
 79 78  2  0
 80 79  1  0
 80 75  2  0
 81 82  1  0
 82 87  2  0
 82 83  1  0
 83 84  2  0
 84 85  1  0
 85 89  1  0
 86 85  2  0
 87 86  1  0
 88 87  1  0
 90 91  1  0
 91 93  1  0
 91 94  1  0
 92 90  2  0
 95 70  1  0
 95 96  1  0
 97 95  1  0
M  ISO  4  19 101  20 101  61 100  62 100
M  END
>  <TORSDO>  (51) 
F 18

>  <SCORE>  (51) 
-10.199

>  <name>  (51) 
50

>  <ligand_id>  (51) 
50

>  <original_smiles>  (51) 
[H]c1c([H])c([H])c2c(c1[H])C([H])([H])C([H])([H])C([H])([H])C2([H])N([H])C(=O)C1([H])N(C(=O)C([H])(N([H])C(=O)C([H])(N([H])C([H])([H])[H])C([H])([H])[H])C(C([H])([H])[H])(C([H])([H])[H])C([H])([H])[H])C([H])([H])c2c([H])c(OC([H])([H])c3c(C([H])([H])[H])c4c(c(C([H])([H])[H])[n+]3[H])C([H])(C([H])([H])[H])C([H])(C([H])([H])[H])C([H])(OC(=O)N3C([H])([H])C([H])([H])C([H])([H])C([H])(n5nc(-c6c([H])c([H])c(Oc7c([H])c([H])c(F)c([H])c7F)c([H])c6[H])c(C(=O)N([H])[H])c5N([H])[H])C3([H])[H])C([H])([H])C([H])([H])N4C([H])([H])[H])c([H])c([H])c2C1([H])[H]

>  <smiles>  (51) 
[H]c1c([H])c([H])c2c(c1[H])C([H])([H])C([H])([H])C([H])([H])C2([H])N([H])C(=O)C1([H])N(C(=O)C([H])(N([H])C(=O)C([H])(N([H])C([H])([H])[H])C([H])([H])[H])C(C([H])([H])[H])(C([H])([H])[H])C([H])([H])[H])C([H])([H])c2c([H])c(OC([H])([H])c3c(C([H])([H])[H])c4c(c(C([H])([H])[H])[n+]3[H])C([H])(C([H])([H])[H])C([H])(C([H])([H])[H])C([H])(OC(=O)N3C([H])([H])C([H])([H])C([H])([H])C([H])(n5nc(-c6c([H])c([H])c(Oc7c([H])c([H])c(F)c([H])c7F)c([H])c6[H])c(C(=O)N([H])[H])c5N([H])[H])C3([H])[H])C([H])([H])C([H])([H])N4C([H])([H])[H])c([H])c([H])c2C1([H])[H]

$$$$
51:0:0
     RDKit          3D

 91100  0  0  1  0  0  0  0  0999 V2000
  -37.1950  -22.5020   13.7690 C   0  0  0  0  0  3  0  0  0  0  0  0
  -37.0010  -23.7850   14.3160 C   0  0  0  0  0  3  0  0  0  0  0  0
  -37.5940  -24.7510   12.1450 C   0  0  0  0  0  3  0  0  0  0  0  0
  -37.5780  -22.3490   12.4240 C   0  0  0  0  0  0  0  0  0  0  0  0
  -37.8100  -23.4240   11.5580 C   0  0  0  0  0  0  0  0  0  0  0  0
  -37.1760  -24.9600   13.5450 C   0  0  0  0  0  0  0  0  0  0  0  0
  -37.7090  -21.0090   11.7620 C   0  0  0  0  0  3  0  0  0  0  0  0
  -37.8380  -21.3190   10.2670 C   0  0  0  0  0  3  0  0  0  0  0  0
  -38.0680  -22.8470   10.0660 C   0  0  0  0  0  3  0  0  0  0  0  0
  -40.2460  -22.4040    8.3990 C   0  0  0  0  0  0  0  0  0  0  0  0
  -40.5740  -21.0810    6.2960 C   0  0  0  0  0  2  0  0  0  0  0  0
  -39.4150  -21.2700    5.2960 C   0  0  0  0  0  2  0  0  0  0  0  0
  -38.2950  -20.2520    5.5800 C   0  0  0  0  0  2  0  0  0  0  0  0
  -37.9350  -20.1790    7.0880 C   0  0  0  0  0  3  0  0  0  0  0  0
  -39.1910  -20.0750    7.9710 C   0  0  0  0  0  2  0  0  0  0  0  0
  -40.0150  -21.2480    7.6690 N   0  0  0  0  0  0  0  0  0  0  0  0
  -41.2200  -23.0870    8.0850 O   0  0  0  0  0  0  0  0  0  0  0  0
  -39.3660  -23.0380    9.2910 N   0  0  0  0  0  0  0  0  0  0  0  0
  -39.7710  -23.9290    9.5360 H   0  0  0  0  0  0  0  0  0  0  0  0
  -35.6050  -19.1530    7.3480 C   0  0  0  0  0  0  0  0  0  0  0  0
  -35.1860  -17.8760    7.5920 C   0  0  0  0  0  0  0  0  0  0  0  0
  -36.3720  -17.0960    7.7580 C   0  0  0  0  0  0  0  0  0  0  0  0
  -36.9860  -19.1100    7.3680 N   0  0  0  0  0  0  0  0  0  0  0  0
  -37.4460  -17.8710    7.6790 N   0  0  0  0  0  0  0  0  0  0  0  0
  -36.5420  -15.6490    7.9320 C   0  0  0  0  0  0  0  0  0  0  0  0
  -36.0350  -14.9740    9.0640 C   0  0  0  0  0  3  0  0  0  0  0  0
  -36.1990  -13.5790    9.1980 C   0  0  0  0  0  3  0  0  0  0  0  0
  -36.8730  -12.8430    8.1950 C   0  0  0  0  0  0  0  0  0  0  0  0
  -37.3960  -13.5240    7.0810 C   0  0  0  0  0  3  0  0  0  0  0  0
  -37.2360  -14.9140    6.9510 C   0  0  0  0  0  3  0  0  0  0  0  0
  -37.1010  -11.4890    8.2510 O   0  0  0  0  0  0  0  0  0  0  0  0
  -36.3140  -10.5980    7.5660 C   0  0  0  0  0  0  0  0  0  0  0  0
  -36.4040  -10.4490    6.1640 C   0  0  0  0  0  3  0  0  0  0  0  0
  -35.6280   -9.4730    5.5080 C   0  0  0  0  0  3  0  0  0  0  0  0
  -34.7700   -8.6400    6.2510 C   0  0  0  0  0  0  0  0  0  0  0  0
  -34.6840   -8.7810    7.6470 C   0  0  0  0  0  3  0  0  0  0  0  0
  -35.4560   -9.7560    8.3030 C   0  0  0  0  0  0  0  0  0  0  0  0
  -35.3860   -9.8740    9.6510 F   0  0  0  0  0  0  0  0  0  0  0  0
  -34.0290   -7.6970    5.6240 F   0  0  0  0  0  0  0  0  0  0  0  0
  -33.7690  -17.3850    7.5770 C   0  0  0  0  0  0  0  0  0  0  0  0
  -33.4300  -16.4710    8.4780 N   0  0  0  0  0  0  0  0  0  0  0  0
  -32.9420  -17.8490    6.7920 O   0  0  0  0  0  0  0  0  0  0  0  0
  -34.1120  -16.1030    9.1240 H   0  0  0  0  0  0  0  0  0  0  0  0
  -32.4820  -16.1240    8.5160 H   0  0  0  0  0  0  0  0  0  0  0  0
  -34.9300  -20.3410    7.0840 N   0  0  0  0  0  0  0  0  0  0  0  0
  -33.9190  -20.3950    7.0430 H   0  0  0  0  0  0  0  0  0  0  0  0
  -35.3820  -21.2220    6.8800 H   0  0  0  0  0  0  0  0  0  0  0  0
  -36.9160  -26.2340   14.1640 O   0  0  0  0  0  0  0  0  0  0  0  0
  -37.8650  -26.8930   15.1480 C   0  0  0  0  0  2  0  0  0  0  0  0
  -37.4280  -28.2030   16.0260 C   0  0  0  0  0  2  0  0  0  0  0  0
  -37.8900  -29.6280   15.7650 O   0  0  0  0  0  0  0  0  0  0  0  0
  -40.6580  -32.2700   21.9570 C   0  0  0  0  0  0  0  0  0  0  0  0
  -38.9680  -30.2830   16.4170 C   0  0  0  0  0  0  0  0  0  0  0  0
  -41.6320  -33.1050   19.8500 C   0  0  0  0  0  3  0  0  0  0  0  0
  -41.0500  -31.7820   17.7340 C   0  0  0  0  0  0  0  0  0  0  0  0
  -40.6320  -30.7400   19.9610 C   0  0  0  0  0  2  0  0  0  0  0  0
  -40.3020  -30.8540   18.4700 C   0  0  0  0  0  0  0  0  0  0  0  0
  -39.2770  -30.0940   17.8130 C   0  0  0  0  0  3  0  0  0  0  0  0
  -39.7810  -31.2060   15.7260 C   0  0  0  0  0  3  0  0  0  0  0  0
  -40.7970  -31.9430   16.3650 C   0  0  0  0  0  3  0  0  0  0  0  0
  -42.1030  -32.5920   18.4640 C   0  0  0  0  0  2  0  0  0  0  0  0
  -40.9360  -32.0370   20.6390 N   0  0  0  0  0  0  0  0  0  0  0  0
  -40.9850  -33.3310   22.5100 O   0  0  0  0  0  0  0  0  0  0  0  0
  -40.7710  -34.3770   19.6510 C   0  0  0  0  0  0  0  0  0  0  0  0
  -41.3910  -35.4540   19.1340 N   0  0  0  0  0  0  0  0  0  0  0  0
  -39.5700  -34.3750   19.9400 O   0  0  0  0  0  0  0  0  0  0  0  0
  -42.3820  -35.3880   18.9410 H   0  0  0  0  0  0  0  0  0  0  0  0
  -42.0230  -38.8370   18.0070 C   0  0  0  0  0  0  0  0  0  0  0  0
  -40.7540  -36.7340   18.8160 C   0  0  0  0  0  3  0  0  0  0  0  0
  -40.1130  -36.7070   17.4110 C   0  0  0  0  0  2  0  0  0  0  0  0
  -41.0390  -37.2380   16.3140 C   0  0  0  0  0  2  0  0  0  0  0  0
  -41.4490  -38.6820   16.6100 C   0  0  0  0  0  2  0  0  0  0  0  0
  -41.7070  -37.9120   19.0390 C   0  0  0  0  0  0  0  0  0  0  0  0
  -42.2910  -38.0810   20.3130 C   0  0  0  0  0  3  0  0  0  0  0  0
  -43.1720  -39.1480   20.5670 C   0  0  0  0  0  3  0  0  0  0  0  0
  -43.4710  -40.0670   19.5460 C   0  0  0  0  0  3  0  0  0  0  0  0
  -42.8970  -39.9120   18.2710 C   0  0  0  0  0  3  0  0  0  0  0  0
  -39.9300  -31.2100   22.8360 C   0  0  0  0  0  3  0  0  0  0  0  0
  -39.3970  -31.7970   24.2020 C   0  0  1  0  0  0  0  0  0  0  0  0
  -40.4360  -32.6520   24.9620 C   0  0  0  0  0  1  0  0  0  0  0  0
  -38.1430  -32.6720   23.9700 C   0  0  0  0  0  1  0  0  0  0  0  0
  -38.9620  -30.6390   25.1340 C   0  0  0  0  0  1  0  0  0  0  0  0
  -40.8770  -30.1130   23.0830 N   0  0  0  0  0  0  0  0  0  0  0  0
  -40.5630  -28.8110   23.0430 C   0  0  0  0  0  0  0  0  0  0  0  0
  -39.4130  -28.4070   22.8550 O   0  0  0  0  0  0  0  0  0  0  0  0
  -41.8470  -30.3700   23.1850 H   0  0  0  0  0  0  0  0  0  0  0  0
  -42.0470  -27.1290   21.9040 C   0  0  0  0  0  1  0  0  0  0  0  0
  -41.7060  -27.7970   23.2450 C   0  0  0  0  0  3  0  0  0  0  0  0
  -41.4080  -27.2610   25.6230 C   0  0  0  0  0  1  0  0  0  0  0  0
  -41.4000  -26.7590   24.2530 N   0  0  0  0  0  0  0  0  0  0  0  0
  -42.0620  -25.9900   24.1920 H   0  0  0  0  0  0  0  0  0  0  0  0
  1  2  1  0
  3  6  1  0
  4  1  2  0
  5  3  2  0
  5  4  1  0
  6 48  1  0
  6  2  2  0
  7  4  1  0
  8  7  2  0
  9 18  1  0
  9  8  1  0
  9  5  1  0
 10 18  1  0
 11 16  1  0
 12 13  1  0
 12 11  1  0
 14 13  1  0
 14 23  1  0
 14 15  1  0
 16 15  1  0
 16 10  1  0
 17 10  2  0
 18 19  1  0
 20 23  1  0
 20 21  2  0
 21 22  1  0
 22 25  1  0
 23 24  1  0
 24 22  2  0
 25 26  1  0
 26 27  2  0
 28 31  1  0
 28 27  1  0
 29 28  2  0
 30 29  1  0
 30 25  2  0
 32 31  1  0
 32 37  1  0
 33 32  2  0
 34 33  1  0
 34 35  2  0
 35 36  1  0
 36 37  2  0
 37 38  1  0
 39 35  1  0
 40 21  1  0
 40 41  1  0
 41 44  1  0
 41 43  1  0
 42 40  2  0
 45 20  1  0
 46 45  1  0
 47 45  1  0
 48 49  1  0
 49 50  1  0
 51 50  1  0
 51 53  1  0
 52 63  2  0
 53 58  1  0
 54 64  1  0
 54 62  1  0
 55 61  1  0
 55 57  1  0
 56 62  1  0
 57 56  1  0
 58 57  2  0
 59 60  1  0
 59 53  2  0
 60 55  2  0
 61 54  1  0
 62 52  1  0
 64 66  2  0
 65 64  1  0
 67 65  1  0
 68 77  2  0
 68 73  1  0
 69 73  1  0
 69 65  1  0
 70 69  1  0
 71 72  1  0
 71 70  1  0
 72 68  1  0
 73 74  2  0
 74 75  1  0
 76 75  2  0
 77 76  1  0
 78 52  1  0
 78 83  1  0
 78 79  1  0
 79 80  1  1
 79 82  1  0
 81 79  1  0
 83 86  1  0
 84 83  1  0
 84 88  1  0
 85 84  2  0
 88 87  1  0
 88 90  1  0
 90 89  1  0
 91 90  1  0
M  ISO  4  10 100  18 100  50 101  51 101
M  END
>  <TORSDO>  (52) 
F 19

>  <SCORE>  (52) 
-0.707

>  <name>  (52) 
51

>  <ligand_id>  (52) 
51

>  <original_smiles>  (52) 
[H]c1c([H])c([H])c2c(c1[H])C([H])([H])C([H])([H])C([H])([H])C2([H])N([H])C(=O)C1([H])N(C(=O)C([H])(N([H])C(=O)C([H])(N([H])C([H])([H])[H])C([H])([H])[H])C(C([H])([H])[H])(C([H])([H])[H])C([H])([H])[H])C([H])([H])c2c([H])c(OC([H])([H])C([H])([H])Oc3c([H])c([H])c4c(c3[H])C([H])(N([H])C(=O)N3C([H])([H])C([H])([H])C([H])([H])C([H])(n5nc(-c6c([H])c([H])c(Oc7c([H])c([H])c(F)c([H])c7F)c([H])c6[H])c(C(=O)N([H])[H])c5N([H])[H])C3([H])[H])C([H])([H])C4([H])[H])c([H])c([H])c2C1([H])[H]

>  <smiles>  (52) 
[H]c1c([H])c([H])c2c(c1[H])C([H])([H])C([H])([H])C([H])([H])C2([H])N([H])C(=O)C1([H])N(C(=O)C([H])(N([H])C(=O)C([H])(N([H])C([H])([H])[H])C([H])([H])[H])C(C([H])([H])[H])(C([H])([H])[H])C([H])([H])[H])C([H])([H])c2c([H])c(OC([H])([H])C([H])([H])Oc3c([H])c([H])c4c(c3[H])C([H])(N([H])C(=O)N3C([H])([H])C([H])([H])C([H])([H])C([H])(n5nc(-c6c([H])c([H])c(Oc7c([H])c([H])c(F)c([H])c7F)c([H])c6[H])c(C(=O)N([H])[H])c5N([H])[H])C3([H])[H])C([H])([H])C4([H])[H])c([H])c([H])c2C1([H])[H]

$$$$
52:0:0
     RDKit          3D

 92101  0  0  1  0  0  0  0  0999 V2000
  -27.6830  -21.5280   19.6960 C   0  0  0  0  0  2  0  0  0  0  0  0
  -28.7680  -20.9880   20.6070 C   0  0  0  0  0  3  0  0  0  0  0  0
  -28.8420  -22.4540   19.9930 C   0  0  0  0  0  3  0  0  0  0  0  0
  -30.5800  -19.8520   19.2070 C   0  0  0  0  0  3  0  0  0  0  0  0
  -29.3300  -18.3480   20.6110 C   0  0  0  0  0  3  0  0  0  0  0  0
  -29.5560  -19.7080   20.1600 C   0  0  0  0  0  0  0  0  0  0  0  0
  -31.2870  -18.7300   18.7550 C   0  0  0  0  0  0  0  0  0  0  0  0
  -30.1080  -17.2250   20.1310 C   0  0  0  0  0  0  0  0  0  0  0  0
  -32.3520  -18.8790   17.6890 C   0  0  0  0  0  1  0  0  0  0  0  0
  -31.0580  -17.4790   19.2010 N   0  0  0  0  0  0  0  0  0  0  0  0
  -30.6100  -14.7030   20.3350 C   0  0  0  0  0  0  0  0  0  0  0  0
  -30.3670  -12.4470   19.3220 C   0  0  0  0  0  2  0  0  0  0  0  0
  -29.4420  -12.5760   18.0930 C   0  0  0  0  0  2  0  0  0  0  0  0
  -27.9670  -12.4250   18.5120 C   0  0  0  0  0  2  0  0  0  0  0  0
  -27.6020  -13.2930   19.7470 C   0  0  0  0  0  3  0  0  0  0  0  0
  -28.6550  -13.1690   20.8700 C   0  0  0  0  0  2  0  0  0  0  0  0
  -29.9620  -13.4930   20.2870 N   0  0  0  0  0  0  0  0  0  0  0  0
  -31.8060  -14.7560   20.0250 O   0  0  0  0  0  0  0  0  0  0  0  0
  -29.8600  -15.8410   20.5680 N   0  0  0  0  0  0  0  0  0  0  0  0
  -28.9460  -15.6720   20.9560 H   0  0  0  0  0  0  0  0  0  0  0  0
  -25.2100  -13.8860   20.4620 C   0  0  0  0  0  0  0  0  0  0  0  0
  -24.1420  -13.1120   20.8290 C   0  0  0  0  0  0  0  0  0  0  0  0
  -24.6060  -11.7610   20.8020 C   0  0  0  0  0  0  0  0  0  0  0  0
  -26.2540  -13.0070   20.2300 N   0  0  0  0  0  0  0  0  0  0  0  0
  -25.8980  -11.7230   20.4970 N   0  0  0  0  0  0  0  0  0  0  0  0
  -23.8790  -10.4990   20.9910 C   0  0  0  0  0  0  0  0  0  0  0  0
  -24.3040   -9.5350   21.9320 C   0  0  0  0  0  3  0  0  0  0  0  0
  -23.5770   -8.3370   22.1080 C   0  0  0  0  0  3  0  0  0  0  0  0
  -22.4120   -8.0950   21.3420 C   0  0  0  0  0  0  0  0  0  0  0  0
  -22.0080   -9.0480   20.3880 C   0  0  0  0  0  3  0  0  0  0  0  0
  -22.7350  -10.2370   20.2110 C   0  0  0  0  0  3  0  0  0  0  0  0
  -21.6570   -6.9510   21.4270 O   0  0  0  0  0  0  0  0  0  0  0  0
  -21.5970   -6.2120   22.5820 C   0  0  0  0  0  0  0  0  0  0  0  0
  -21.1380   -6.7650   23.7980 C   0  0  0  0  0  3  0  0  0  0  0  0
  -21.0260   -5.9520   24.9430 C   0  0  0  0  0  3  0  0  0  0  0  0
  -21.3640   -4.5870   24.8740 C   0  0  0  0  0  0  0  0  0  0  0  0
  -21.8150   -4.0330   23.6630 C   0  0  0  0  0  3  0  0  0  0  0  0
  -21.9280   -4.8430   22.5190 C   0  0  0  0  0  0  0  0  0  0  0  0
  -22.3430   -4.3000   21.3500 F   0  0  0  0  0  0  0  0  0  0  0  0
  -21.2490   -3.8040   25.9720 F   0  0  0  0  0  0  0  0  0  0  0  0
  -22.7440  -13.5880   21.0950 C   0  0  0  0  0  0  0  0  0  0  0  0
  -22.0110  -12.8920   21.9570 N   0  0  0  0  0  0  0  0  0  0  0  0
  -22.3080  -14.6140   20.5720 O   0  0  0  0  0  0  0  0  0  0  0  0
  -22.3760  -12.0630   22.4030 H   0  0  0  0  0  0  0  0  0  0  0  0
  -21.0720  -13.1930   22.1740 H   0  0  0  0  0  0  0  0  0  0  0  0
  -25.3710  -15.2560   20.2810 N   0  0  0  0  0  0  0  0  0  0  0  0
  -24.5980  -15.9050   20.3870 H   0  0  0  0  0  0  0  0  0  0  0  0
  -26.2010  -15.6920   19.9000 H   0  0  0  0  0  0  0  0  0  0  0  0
  -27.5110  -23.8520   21.7470 C   0  0  0  0  0  1  0  0  0  0  0  0
  -28.6210  -23.8730   20.6840 C   0  0  0  0  0  3  0  0  0  0  0  0
  -28.4120  -25.1130   19.6930 C   0  0  0  0  0  2  0  0  0  0  0  0
  -28.3590  -26.5070   20.2200 O   0  0  0  0  0  0  0  0  0  0  0  0
  -24.5970  -31.8810   23.2330 C   0  0  0  0  0  0  0  0  0  0  0  0
  -27.2130  -27.3240   20.1590 C   0  0  0  0  0  0  0  0  0  0  0  0
  -23.3940  -30.4860   21.5910 C   0  0  0  0  0  3  0  0  0  0  0  0
  -24.8440  -28.9430   20.1590 C   0  0  0  0  0  0  0  0  0  0  0  0
  -25.9330  -30.8080   21.4040 C   0  0  0  0  0  2  0  0  0  0  0  0
  -26.0130  -29.4300   20.7550 C   0  0  0  0  0  0  0  0  0  0  0  0
  -27.1970  -28.6310   20.7450 C   0  0  0  0  0  3  0  0  0  0  0  0
  -26.0120  -26.8930   19.5480 C   0  0  0  0  0  3  0  0  0  0  0  0
  -24.8470  -27.6810   19.5480 C   0  0  0  0  0  3  0  0  0  0  0  0
  -23.6070  -29.8160   20.2080 C   0  0  0  0  0  2  0  0  0  0  0  0
  -24.6620  -31.0760   22.1330 N   0  0  0  0  0  0  0  0  0  0  0  0
  -23.5130  -32.1560   23.7690 O   0  0  0  0  0  0  0  0  0  0  0  0
  -22.7340  -29.4640   22.5480 C   0  0  0  0  0  0  0  0  0  0  0  0
  -21.4080  -29.2880   22.4220 N   0  0  0  0  0  0  0  0  0  0  0  0
  -23.4140  -28.8330   23.3620 O   0  0  0  0  0  0  0  0  0  0  0  0
  -20.9200  -29.8490   21.7380 H   0  0  0  0  0  0  0  0  0  0  0  0
  -18.0280  -28.1030   22.9320 C   0  0  0  0  0  0  0  0  0  0  0  0
  -20.5890  -28.3480   23.1900 C   0  0  0  0  0  3  0  0  0  0  0  0
  -20.6820  -26.9220   22.6030 C   0  0  0  0  0  2  0  0  0  0  0  0
  -19.5720  -26.6110   21.5930 C   0  0  0  0  0  2  0  0  0  0  0  0
  -18.1940  -26.7580   22.2470 C   0  0  0  0  0  2  0  0  0  0  0  0
  -19.1520  -28.8570   23.3620 C   0  0  0  0  0  0  0  0  0  0  0  0
  -18.9430  -30.1160   23.9660 C   0  0  0  0  0  3  0  0  0  0  0  0
  -17.6420  -30.6210   24.1440 C   0  0  0  0  0  3  0  0  0  0  0  0
  -16.5320  -29.8650   23.7310 C   0  0  0  0  0  3  0  0  0  0  0  0
  -16.7260  -28.6090   23.1300 C   0  0  0  0  0  3  0  0  0  0  0  0
  -25.8790  -32.5160   23.8570 C   0  0  0  0  0  3  0  0  0  0  0  0
  -26.3920  -31.7440   25.1340 C   0  0  1  0  0  0  0  0  0  0  0  0
  -25.2960  -31.5020   26.1990 C   0  0  0  0  0  1  0  0  0  0  0  0
  -26.9780  -30.3680   24.7420 C   0  0  0  0  0  1  0  0  0  0  0  0
  -27.5410  -32.5380   25.7980 C   0  0  0  0  0  1  0  0  0  0  0  0
  -25.5680  -33.9130   24.1880 N   0  0  0  0  0  0  0  0  0  0  0  0
  -25.8920  -34.9670   23.4260 C   0  0  0  0  0  0  0  0  0  0  0  0
  -26.5570  -34.8650   22.3920 O   0  0  0  0  0  0  0  0  0  0  0  0
  -24.9770  -34.0670   24.9940 H   0  0  0  0  0  0  0  0  0  0  0  0
  -24.1610  -36.7590   23.0760 C   0  0  0  0  0  1  0  0  0  0  0  0
  -25.4040  -36.3550   23.8860 C   0  0  0  0  0  3  0  0  0  0  0  0
  -27.5350  -37.2440   24.7180 C   0  0  0  0  0  1  0  0  0  0  0  0
  -26.4350  -37.4090   23.7730 N   0  0  0  0  0  0  0  0  0  0  0  0
  -26.0270  -38.3290   23.9190 H   0  0  0  0  0  0  0  0  0  0  0  0
  1  3  1  0
  1  2  1  0
  2  6  1  0
  3  2  1  0
  3 50  1  0
  4  6  1  0
  6  5  2  0
  7 10  1  0
  7  4  2  0
  8 19  1  0
  8  5  1  0
  9  7  1  0
 10  8  2  0
 11 19  1  0
 12 17  1  0
 13 14  1  0
 13 12  1  0
 15 14  1  0
 15 24  1  0
 15 16  1  0
 17 11  1  0
 17 16  1  0
 18 11  2  0
 19 20  1  0
 21 22  2  0
 22 41  1  0
 23 22  1  0
 23 26  1  0
 24 21  1  0
 24 25  1  0
 25 23  2  0
 26 27  1  0
 27 28  2  0
 29 32  1  0
 29 28  1  0
 30 29  2  0
 31 30  1  0
 31 26  2  0
 32 33  1  0
 33 34  1  0
 34 35  2  0
 36 35  1  0
 36 40  1  0
 37 36  2  0
 38 33  2  0
 38 37  1  0
 39 38  1  0
 41 42  1  0
 42 45  1  0
 42 44  1  0
 43 41  2  0
 46 47  1  0
 46 21  1  0
 48 46  1  0
 50 49  1  0
 51 52  1  0
 51 50  1  0
 53 64  2  0
 54 52  1  0
 54 59  1  0
 55 63  1  0
 55 65  1  0
 56 62  1  0
 56 58  1  0
 57 63  1  0
 58 57  1  0
 59 58  2  0
 60 61  1  0
 60 54  2  0
 61 56  2  0
 62 55  1  0
 63 53  1  0
 65 67  2  0
 66 65  1  0
 68 66  1  0
 69 78  2  0
 69 74  1  0
 70 66  1  0
 70 74  1  0
 71 70  1  0
 72 73  1  0
 72 71  1  0
 73 69  1  0
 74 75  2  0
 75 76  1  0
 77 76  2  0
 78 77  1  0
 79 53  1  0
 79 84  1  0
 79 80  1  0
 80 83  1  1
 80 81  1  0
 82 80  1  0
 84 87  1  0
 85 89  1  0
 85 84  1  0
 86 85  2  0
 89 88  1  0
 91 89  1  0
 91 92  1  0
 91 90  1  0
M  ISO  4  11 100  19 100  51 101  52 101
M  END
>  <TORSDO>  (53) 
F 19

>  <SCORE>  (53) 
-14.333

>  <name>  (53) 
52

>  <ligand_id>  (53) 
52

>  <original_smiles>  (53) 
[H]c1c([H])c([H])c2c(c1[H])C([H])([H])C([H])([H])C([H])([H])C2([H])N([H])C(=O)C1([H])N(C(=O)C([H])(N([H])C(=O)C([H])(N([H])C([H])([H])[H])C([H])([H])[H])C(C([H])([H])[H])(C([H])([H])[H])C([H])([H])[H])C([H])([H])c2c([H])c(OC([H])([H])C([H])(C([H])([H])[H])C3([H])C([H])([H])C3([H])c3c([H])c(N([H])C(=O)N4C([H])([H])C([H])([H])C([H])([H])C([H])(n5nc(-c6c([H])c([H])c(Oc7c([H])c([H])c(F)c([H])c7F)c([H])c6[H])c(C(=O)N([H])[H])c5N([H])[H])C4([H])[H])nc(C([H])([H])[H])c3[H])c([H])c([H])c2C1([H])[H]

>  <smiles>  (53) 
[H]c1c([H])c([H])c2c(c1[H])C([H])([H])C([H])([H])C([H])([H])C2([H])N([H])C(=O)C1([H])N(C(=O)C([H])(N([H])C(=O)C([H])(N([H])C([H])([H])[H])C([H])([H])[H])C(C([H])([H])[H])(C([H])([H])[H])C([H])([H])[H])C([H])([H])c2c([H])c(OC([H])([H])C([H])(C([H])([H])[H])C3([H])C([H])([H])C3([H])c3c([H])c(N([H])C(=O)N4C([H])([H])C([H])([H])C([H])([H])C([H])(n5nc(-c6c([H])c([H])c(Oc7c([H])c([H])c(F)c([H])c7F)c([H])c6[H])c(C(=O)N([H])[H])c5N([H])[H])C4([H])[H])nc(C([H])([H])[H])c3[H])c([H])c([H])c2C1([H])[H]

$$$$
53:0:0
     RDKit          3D

 91100  0  0  1  0  0  0  0  0999 V2000
  -30.4480  -15.2820   20.2980 C   0  0  0  0  0  0  0  0  0  0  0  0
  -30.4750  -12.8250   19.4990 C   0  0  0  0  0  2  0  0  0  0  0  0
  -29.5770  -12.6080   18.2550 C   0  0  0  0  0  2  0  0  0  0  0  0
  -28.1180  -12.3460   18.6700 C   0  0  0  0  0  2  0  0  0  0  0  0
  -27.6410  -13.3350   19.7630 C   0  0  0  0  0  3  0  0  0  0  0  0
  -28.6650  -13.4910   20.9080 C   0  0  0  0  0  2  0  0  0  0  0  0
  -29.9160  -13.9680   20.2980 N   0  0  0  0  0  0  0  0  0  0  0  0
  -31.6670  -15.3280   20.0730 O   0  0  0  0  0  0  0  0  0  0  0  0
  -29.2720  -18.7950   19.0310 C   0  0  0  0  0  3  0  0  0  0  0  0
  -29.0670  -21.2310   19.9900 C   0  0  0  0  0  0  0  0  0  0  0  0
  -29.0440  -20.2540   18.9020 C   0  0  0  0  0  0  0  0  0  0  0  0
  -29.3870  -20.4160   21.1630 C   0  0  0  0  0  0  0  0  0  0  0  0
  -29.6010  -18.0680   20.2380 C   0  0  0  0  0  0  0  0  0  0  0  0
  -28.7900  -20.7570   17.4930 C   0  0  0  0  0  1  0  0  0  0  0  0
  -29.6110  -19.0100   21.2660 N   0  0  0  0  0  0  0  0  0  0  0  0
  -29.5950  -16.4740   20.3690 N   0  0  0  0  0  0  0  0  0  0  0  0
  -28.6540  -16.1560   20.5370 H   0  0  0  0  0  0  0  0  0  0  0  0
  -25.2560  -13.9020   20.4770 C   0  0  0  0  0  0  0  0  0  0  0  0
  -24.1880  -13.1260   20.8310 C   0  0  0  0  0  0  0  0  0  0  0  0
  -24.6540  -11.7760   20.8080 C   0  0  0  0  0  0  0  0  0  0  0  0
  -26.3020  -13.0250   20.2490 N   0  0  0  0  0  0  0  0  0  0  0  0
  -25.9510  -11.7410   20.5170 N   0  0  0  0  0  0  0  0  0  0  0  0
  -23.9230  -10.5130   20.9840 C   0  0  0  0  0  0  0  0  0  0  0  0
  -24.3270   -9.5510   21.9350 C   0  0  0  0  0  3  0  0  0  0  0  0
  -23.5940   -8.3560   22.1000 C   0  0  0  0  0  3  0  0  0  0  0  0
  -22.4420   -8.1150   21.3140 C   0  0  0  0  0  0  0  0  0  0  0  0
  -22.0560   -9.0660   20.3530 C   0  0  0  0  0  3  0  0  0  0  0  0
  -22.7910  -10.2530   20.1860 C   0  0  0  0  0  3  0  0  0  0  0  0
  -21.6830   -6.9720   21.3890 O   0  0  0  0  0  0  0  0  0  0  0  0
  -21.5840   -6.2480   22.5500 C   0  0  0  0  0  0  0  0  0  0  0  0
  -21.0980   -6.8200   23.7460 C   0  0  0  0  0  3  0  0  0  0  0  0
  -20.9470   -6.0220   24.8970 C   0  0  0  0  0  3  0  0  0  0  0  0
  -21.2720   -4.6540   24.8540 C   0  0  0  0  0  0  0  0  0  0  0  0
  -21.7510   -4.0810   23.6620 C   0  0  0  0  0  3  0  0  0  0  0  0
  -21.9030   -4.8760   22.5130 C   0  0  0  0  0  0  0  0  0  0  0  0
  -22.3450   -4.3140   21.3620 F   0  0  0  0  0  0  0  0  0  0  0  0
  -21.1180   -3.8850   25.9580 F   0  0  0  0  0  0  0  0  0  0  0  0
  -22.7870  -13.6050   21.0750 C   0  0  0  0  0  0  0  0  0  0  0  0
  -22.0450  -12.9180   21.9360 N   0  0  0  0  0  0  0  0  0  0  0  0
  -22.3570  -14.6250   20.5370 O   0  0  0  0  0  0  0  0  0  0  0  0
  -22.4050  -12.0930   22.3930 H   0  0  0  0  0  0  0  0  0  0  0  0
  -21.1050  -13.2220   22.1440 H   0  0  0  0  0  0  0  0  0  0  0  0
  -25.4190  -15.2730   20.2970 N   0  0  0  0  0  0  0  0  0  0  0  0
  -24.6370  -15.9150   20.3790 H   0  0  0  0  0  0  0  0  0  0  0  0
  -26.2430  -15.7070   19.9070 H   0  0  0  0  0  0  0  0  0  0  0  0
  -28.4520  -23.7250   18.7050 C   0  0  0  0  0  2  0  0  0  0  0  0
  -29.0270  -22.9860   19.9080 C   0  0  0  0  0  3  0  0  0  0  0  0
  -27.9850  -24.3960   19.9710 C   0  0  0  0  0  3  0  0  0  0  0  0
  -28.2220  -26.0070   19.9130 O   0  0  0  0  0  0  0  0  0  0  0  0
  -24.7140  -31.8440   23.0740 C   0  0  0  0  0  0  0  0  0  0  0  0
  -27.1880  -27.0630   19.9070 C   0  0  0  0  0  0  0  0  0  0  0  0
  -23.4730  -30.4810   21.4400 C   0  0  0  0  0  3  0  0  0  0  0  0
  -24.8810  -28.9050   19.9540 C   0  0  0  0  0  0  0  0  0  0  0  0
  -26.0310  -30.7060   21.2270 C   0  0  0  0  0  2  0  0  0  0  0  0
  -26.0840  -29.3120   20.5460 C   0  0  0  0  0  0  0  0  0  0  0  0
  -27.2330  -28.4130   20.4970 C   0  0  0  0  0  3  0  0  0  0  0  0
  -25.9560  -26.7900   19.2760 C   0  0  0  0  0  3  0  0  0  0  0  0
  -24.8390  -27.6630   19.3000 C   0  0  0  0  0  3  0  0  0  0  0  0
  -23.6640  -29.8220   20.0470 C   0  0  0  0  0  2  0  0  0  0  0  0
  -24.7620  -31.0350   21.9680 N   0  0  0  0  0  0  0  0  0  0  0  0
  -23.6390  -32.1270   23.6290 O   0  0  0  0  0  0  0  0  0  0  0  0
  -22.8040  -29.4680   22.4040 C   0  0  0  0  0  0  0  0  0  0  0  0
  -21.4710  -29.3090   22.3100 N   0  0  0  0  0  0  0  0  0  0  0  0
  -23.4890  -28.8260   23.2040 O   0  0  0  0  0  0  0  0  0  0  0  0
  -20.9710  -29.8790   21.6420 H   0  0  0  0  0  0  0  0  0  0  0  0
  -18.0970  -28.1100   22.8870 C   0  0  0  0  0  0  0  0  0  0  0  0
  -20.6640  -28.3610   23.0850 C   0  0  0  0  0  3  0  0  0  0  0  0
  -20.7430  -26.9400   22.4800 C   0  0  0  0  0  2  0  0  0  0  0  0
  -19.6110  -26.6410   21.4900 C   0  0  0  0  0  2  0  0  0  0  0  0
  -18.2490  -26.7760   22.1760 C   0  0  0  0  0  2  0  0  0  0  0  0
  -19.2300  -28.8610   23.3000 C   0  0  0  0  0  0  0  0  0  0  0  0
  -19.0300  -30.1090   23.9290 C   0  0  0  0  0  3  0  0  0  0  0  0
  -17.7310  -30.6060   24.1490 C   0  0  0  0  0  3  0  0  0  0  0  0
  -16.6140  -29.8530   23.7490 C   0  0  0  0  0  3  0  0  0  0  0  0
  -16.7970  -28.6070   23.1240 C   0  0  0  0  0  3  0  0  0  0  0  0
  -26.0030  -32.4710   23.6860 C   0  0  0  0  0  3  0  0  0  0  0  0
  -25.6880  -33.8520   24.0890 N   0  0  0  0  0  0  0  0  0  0  0  0
  -25.9690  -34.9450   23.3660 C   0  0  0  0  0  0  0  0  0  0  0  0
  -26.5840  -34.8970   22.2990 O   0  0  0  0  0  0  0  0  0  0  0  0
  -25.1340  -33.9620   24.9250 H   0  0  0  0  0  0  0  0  0  0  0  0
  -24.1990  -36.7290   23.2050 C   0  0  0  0  0  1  0  0  0  0  0  0
  -25.4960  -36.3080   23.9140 C   0  0  0  0  0  3  0  0  0  0  0  0
  -27.6670  -37.1960   24.6430 C   0  0  0  0  0  1  0  0  0  0  0  0
  -26.5050  -37.3810   23.7780 N   0  0  0  0  0  0  0  0  0  0  0  0
  -26.0970  -38.2880   23.9860 H   0  0  0  0  0  0  0  0  0  0  0  0
  -26.5610  -31.6580   24.9200 C   0  0  1  0  0  0  0  0  0  0  0  0
  -25.5020  -31.3820   26.0140 C   0  0  0  0  0  1  0  0  0  0  0  0
  -27.1350  -30.2950   24.4700 C   0  0  0  0  0  1  0  0  0  0  0  0
  -27.7300  -32.4330   25.5710 C   0  0  0  0  0  1  0  0  0  0  0  0
  -31.0380  -21.4790   22.7650 C   0  0  0  0  0  1  0  0  0  0  0  0
  -29.5690  -21.1370   22.4870 C   0  0  0  0  0  2  0  0  0  0  0  0
  1  7  1  0
  1 16  1  0
  2  7  1  0
  3  4  1  0
  3  2  1  0
  5  4  1  0
  5 21  1  0
  5  6  1  0
  7  6  1  0
  8  1  2  0
  9 13  1  0
 10 12  2  0
 11  9  2  0
 11 10  1  0
 12 15  1  0
 12 91  1  0
 13 16  1  0
 13 15  2  0
 14 11  1  0
 16 17  1  0
 18 19  2  0
 19 38  1  0
 20 19  1  0
 20 23  1  0
 21 18  1  0
 21 22  1  0
 22 20  2  0
 23 24  1  0
 24 25  2  0
 26 29  1  0
 26 25  1  0
 27 26  2  0
 28 27  1  0
 28 23  2  0
 29 30  1  0
 30 31  1  0
 31 32  2  0
 33 32  1  0
 33 37  1  0
 34 33  2  0
 35 30  2  0
 35 34  1  0
 36 35  1  0
 38 39  1  0
 39 42  1  0
 39 41  1  0
 40 38  2  0
 43 44  1  0
 43 18  1  0
 45 43  1  0
 46 47  1  0
 46 48  1  0
 47 48  1  0
 47 10  1  0
 48 49  1  0
 50 61  2  0
 51 49  1  0
 51 56  1  0
 52 60  1  0
 52 62  1  0
 53 59  1  0
 53 55  1  0
 54 60  1  0
 55 54  1  0
 56 55  2  0
 57 58  1  0
 57 51  2  0
 58 53  2  0
 59 52  1  0
 60 50  1  0
 62 64  2  0
 63 62  1  0
 65 63  1  0
 66 75  2  0
 66 71  1  0
 67 63  1  0
 67 71  1  0
 68 67  1  0
 69 70  1  0
 69 68  1  0
 70 66  1  0
 71 72  2  0
 72 73  1  0
 74 73  2  0
 75 74  1  0
 76 50  1  0
 76 77  1  0
 76 86  1  0
 77 80  1  0
 78 82  1  0
 78 77  1  0
 79 78  2  0
 82 81  1  0
 84 82  1  0
 84 85  1  0
 84 83  1  0
 86 89  1  1
 86 87  1  0
 88 86  1  0
 91 90  1  0
M  ISO  4   1 100  16 100  48 101  49 101
M  END
>  <TORSDO>  (54) 
F 17

>  <SCORE>  (54) 
-15.154

>  <name>  (54) 
53

>  <ligand_id>  (54) 
53

>  <original_smiles>  (54) 
[H]c1c([H])c([H])c2c(c1[H])C([H])([H])C([H])([H])C([H])([H])C2([H])N([H])C(=O)C1([H])N(C(=O)C([H])(N([H])C(=O)C([H])(N([H])C([H])([H])[H])C([H])([H])[H])C(C([H])([H])[H])(C([H])([H])[H])C([H])([H])[H])C([H])([H])c2c([H])c(OC3([H])C([H])([H])C3([H])c3c(C([H])([H])C([H])([H])[H])nc(N([H])C(=O)N4C([H])([H])C([H])([H])C([H])([H])C([H])(n5nc(-c6c([H])c([H])c(Oc7c([H])c([H])c(F)c([H])c7F)c([H])c6[H])c(C(=O)N([H])[H])c5N([H])[H])C4([H])[H])c([H])c3C([H])([H])[H])c([H])c([H])c2C1([H])[H]

>  <smiles>  (54) 
[H]c1c([H])c([H])c2c(c1[H])C([H])([H])C([H])([H])C([H])([H])C2([H])N([H])C(=O)C1([H])N(C(=O)C([H])(N([H])C(=O)C([H])(N([H])C([H])([H])[H])C([H])([H])[H])C(C([H])([H])[H])(C([H])([H])[H])C([H])([H])[H])C([H])([H])c2c([H])c(OC3([H])C([H])([H])C3([H])c3c(C([H])([H])C([H])([H])[H])nc(N([H])C(=O)N4C([H])([H])C([H])([H])C([H])([H])C([H])(n5nc(-c6c([H])c([H])c(Oc7c([H])c([H])c(F)c([H])c7F)c([H])c6[H])c(C(=O)N([H])[H])c5N([H])[H])C4([H])[H])c([H])c3C([H])([H])[H])c([H])c([H])c2C1([H])[H]

$$$$
54:0:0
     RDKit          3D

 91100  0  0  1  0  0  0  0  0999 V2000
  -29.9080  -24.5050   19.3200 C   0  0  0  0  0  3  0  0  0  0  0  0
  -30.2200  -23.0970   19.2340 C   0  0  0  0  0  3  0  0  0  0  0  0
  -27.6230  -23.9880   19.4120 C   0  0  0  0  0  3  0  0  0  0  0  0
  -27.9260  -22.5480   19.3080 C   0  0  0  0  0  0  0  0  0  0  0  0
  -28.5970  -25.0570   19.4260 C   0  0  0  0  0  0  0  0  0  0  0  0
  -29.2750  -22.0220   19.2360 C   0  0  0  0  0  0  0  0  0  0  0  0
  -26.4420  -20.7710   18.0770 C   0  0  0  0  0  2  0  0  0  0  0  0
  -25.5090  -21.8700   18.5220 C   0  0  0  0  0  2  0  0  0  0  0  0
  -26.7750  -21.5880   19.3040 C   0  0  0  0  0  3  0  0  0  0  0  0
  -28.4440  -26.5010   19.6580 O   0  0  0  0  0  0  0  0  0  0  0  0
  -24.5640  -31.7560   23.0350 C   0  0  0  0  0  0  0  0  0  0  0  0
  -27.2900  -27.3530   19.7060 C   0  0  0  0  0  0  0  0  0  0  0  0
  -23.4050  -30.4370   21.3010 C   0  0  0  0  0  3  0  0  0  0  0  0
  -24.8990  -28.9970   19.7810 C   0  0  0  0  0  0  0  0  0  0  0  0
  -25.9460  -30.7970   21.1570 C   0  0  0  0  0  2  0  0  0  0  0  0
  -26.0590  -29.4510   20.4210 C   0  0  0  0  0  0  0  0  0  0  0  0
  -27.2510  -28.6430   20.3680 C   0  0  0  0  0  3  0  0  0  0  0  0
  -26.1040  -26.9870   19.0380 C   0  0  0  0  0  3  0  0  0  0  0  0
  -24.9320  -27.7800   19.0770 C   0  0  0  0  0  3  0  0  0  0  0  0
  -23.6450  -29.8530   19.8820 C   0  0  0  0  0  2  0  0  0  0  0  0
  -24.6580  -31.0160   21.8880 N   0  0  0  0  0  0  0  0  0  0  0  0
  -23.4710  -31.9720   23.5810 O   0  0  0  0  0  0  0  0  0  0  0  0
  -22.7590  -29.3500   22.1950 C   0  0  0  0  0  0  0  0  0  0  0  0
  -21.4300  -29.1820   22.0870 N   0  0  0  0  0  0  0  0  0  0  0  0
  -23.4550  -28.6630   22.9460 O   0  0  0  0  0  0  0  0  0  0  0  0
  -20.9240  -29.7880   21.4570 H   0  0  0  0  0  0  0  0  0  0  0  0
  -18.0570  -27.9930   22.6540 C   0  0  0  0  0  0  0  0  0  0  0  0
  -20.6320  -28.1770   22.7960 C   0  0  0  0  0  3  0  0  0  0  0  0
  -20.6670  -26.8190   22.0590 C   0  0  0  0  0  2  0  0  0  0  0  0
  -19.5010  -26.6320   21.0820 C   0  0  0  0  0  2  0  0  0  0  0  0
  -18.1630  -26.7270   21.8200 C   0  0  0  0  0  2  0  0  0  0  0  0
  -19.2160  -28.6820   23.0990 C   0  0  0  0  0  0  0  0  0  0  0  0
  -19.0600  -29.8720   23.8430 C   0  0  0  0  0  3  0  0  0  0  0  0
  -17.7790  -30.3700   24.1440 C   0  0  0  0  0  3  0  0  0  0  0  0
  -16.6360  -29.6760   23.7140 C   0  0  0  0  0  3  0  0  0  0  0  0
  -16.7750  -28.4880   22.9750 C   0  0  0  0  0  3  0  0  0  0  0  0
  -25.8240  -32.3860   23.7080 C   0  0  0  0  0  3  0  0  0  0  0  0
  -26.3270  -31.5740   24.9650 C   0  0  1  0  0  0  0  0  0  0  0  0
  -25.2180  -31.2860   26.0030 C   0  0  0  0  0  1  0  0  0  0  0  0
  -26.9330  -30.2180   24.5360 C   0  0  0  0  0  1  0  0  0  0  0  0
  -27.4560  -32.3550   25.6760 C   0  0  0  0  0  1  0  0  0  0  0  0
  -25.4850  -33.7660   24.0920 N   0  0  0  0  0  0  0  0  0  0  0  0
  -25.7990  -34.8560   23.3790 C   0  0  0  0  0  0  0  0  0  0  0  0
  -26.4710  -34.8070   22.3450 O   0  0  0  0  0  0  0  0  0  0  0  0
  -24.8870  -33.8750   24.8960 H   0  0  0  0  0  0  0  0  0  0  0  0
  -24.0290  -36.6250   23.1140 C   0  0  0  0  0  1  0  0  0  0  0  0
  -25.2890  -36.2170   23.8950 C   0  0  0  0  0  3  0  0  0  0  0  0
  -27.4130  -37.1220   24.7340 C   0  0  0  0  0  1  0  0  0  0  0  0
  -26.2980  -37.2950   23.8070 N   0  0  0  0  0  0  0  0  0  0  0  0
  -25.8730  -38.2010   23.9860 H   0  0  0  0  0  0  0  0  0  0  0  0
  -29.8270  -20.6590   19.1830 O   0  0  0  0  0  0  0  0  0  0  0  0
  -29.2770  -19.2400   19.4010 C   0  0  0  0  0  3  0  0  0  0  0  0
  -30.3210  -17.9080   19.3800 C   0  0  0  0  0  3  0  0  0  0  0  0
  -30.7850  -15.2360   19.7090 C   0  0  0  0  0  0  0  0  0  0  0  0
  -30.6810  -12.8140   18.9920 C   0  0  0  0  0  2  0  0  0  0  0  0
  -29.7170  -12.6620   17.7930 C   0  0  0  0  0  2  0  0  0  0  0  0
  -28.2680  -12.4730   18.2820 C   0  0  0  0  0  2  0  0  0  0  0  0
  -27.8810  -13.4850   19.3930 C   0  0  0  0  0  3  0  0  0  0  0  0
  -28.9670  -13.6030   20.4840 C   0  0  0  0  0  2  0  0  0  0  0  0
  -30.2130  -13.9720   19.8040 N   0  0  0  0  0  0  0  0  0  0  0  0
  -31.9710  -15.3010   19.3730 O   0  0  0  0  0  0  0  0  0  0  0  0
  -29.9930  -16.4130   19.7700 N   0  0  0  0  0  0  0  0  0  0  0  0
  -29.0320  -16.2460   20.0320 H   0  0  0  0  0  0  0  0  0  0  0  0
  -25.5540  -14.1000   20.2610 C   0  0  0  0  0  0  0  0  0  0  0  0
  -24.4950  -13.3410   20.6760 C   0  0  0  0  0  0  0  0  0  0  0  0
  -24.9310  -11.9810   20.6050 C   0  0  0  0  0  0  0  0  0  0  0  0
  -26.5650  -13.2060   19.9560 N   0  0  0  0  0  0  0  0  0  0  0  0
  -26.2030  -11.9250   20.2280 N   0  0  0  0  0  0  0  0  0  0  0  0
  -24.1900  -10.7310   20.8160 C   0  0  0  0  0  0  0  0  0  0  0  0
  -24.5880   -9.7910   21.7910 C   0  0  0  0  0  3  0  0  0  0  0  0
  -23.8460   -8.6070   21.9890 C   0  0  0  0  0  3  0  0  0  0  0  0
  -22.6910   -8.3530   21.2100 C   0  0  0  0  0  0  0  0  0  0  0  0
  -22.3130   -9.2820   20.2250 C   0  0  0  0  0  3  0  0  0  0  0  0
  -23.0550  -10.4580   20.0270 C   0  0  0  0  0  3  0  0  0  0  0  0
  -21.9240   -7.2180   21.3150 O   0  0  0  0  0  0  0  0  0  0  0  0
  -21.7600   -6.5680   22.5120 C   0  0  0  0  0  0  0  0  0  0  0  0
  -21.2150   -7.2140   23.6440 C   0  0  0  0  0  3  0  0  0  0  0  0
  -21.0000   -6.4890   24.8330 C   0  0  0  0  0  3  0  0  0  0  0  0
  -21.3190   -5.1200   24.8900 C   0  0  0  0  0  0  0  0  0  0  0  0
  -21.8580   -4.4740   23.7630 C   0  0  0  0  0  3  0  0  0  0  0  0
  -22.0740   -5.1960   22.5770 C   0  0  0  0  0  0  0  0  0  0  0  0
  -22.5730   -4.5640   21.4880 F   0  0  0  0  0  0  0  0  0  0  0  0
  -21.1050   -4.4210   26.0290 F   0  0  0  0  0  0  0  0  0  0  0  0
  -23.1220  -13.8410   21.0210 C   0  0  0  0  0  0  0  0  0  0  0  0
  -22.4260  -13.1530   21.9180 N   0  0  0  0  0  0  0  0  0  0  0  0
  -22.6800  -14.8790   20.5300 O   0  0  0  0  0  0  0  0  0  0  0  0
  -22.7990  -12.3140   22.3370 H   0  0  0  0  0  0  0  0  0  0  0  0
  -21.5070  -13.4700   22.1910 H   0  0  0  0  0  0  0  0  0  0  0  0
  -25.7310  -15.4700   20.0900 N   0  0  0  0  0  0  0  0  0  0  0  0
  -24.9770  -16.1290   20.2450 H   0  0  0  0  0  0  0  0  0  0  0  0
  -26.5530  -15.8990   19.6840 H   0  0  0  0  0  0  0  0  0  0  0  0
  1  5  1  0
  2  6  1  0
  2  1  2  0
  3  5  2  0
  4  3  1  0
  5 10  1  0
  6  4  2  0
  7  8  1  0
  7  9  1  0
  8  9  1  0
  9  4  1  0
 10 12  1  0
 11 22  2  0
 12 17  1  0
 13 21  1  0
 13 23  1  0
 14 20  1  0
 14 16  1  0
 15 21  1  0
 16 15  1  0
 17 16  2  0
 18 19  1  0
 18 12  2  0
 19 14  2  0
 20 13  1  0
 21 11  1  0
 23 25  2  0
 24 23  1  0
 26 24  1  0
 27 36  2  0
 27 32  1  0
 28 24  1  0
 28 32  1  0
 29 28  1  0
 30 31  1  0
 30 29  1  0
 31 27  1  0
 32 33  2  0
 33 34  1  0
 35 34  2  0
 36 35  1  0
 37 11  1  0
 37 42  1  0
 37 38  1  0
 38 41  1  1
 38 39  1  0
 40 38  1  0
 42 45  1  0
 43 47  1  0
 43 42  1  0
 44 43  2  0
 47 46  1  0
 49 47  1  0
 49 50  1  0
 49 48  1  0
 51  6  1  0
 51 52  1  0
 53 52  2  0
 53 62  1  0
 54 62  1  0
 54 60  1  0
 55 60  1  0
 56 57  1  0
 56 55  1  0
 58 57  1  0
 58 67  1  0
 58 59  1  0
 60 59  1  0
 61 54  2  0
 62 63  1  0
 64 65  2  0
 65 84  1  0
 66 65  1  0
 66 69  1  0
 67 68  1  0
 67 64  1  0
 68 66  2  0
 69 70  1  0
 70 71  2  0
 72 75  1  0
 72 71  1  0
 73 72  2  0
 74 73  1  0
 74 69  2  0
 75 76  1  0
 76 81  2  0
 76 77  1  0
 77 78  2  0
 78 79  1  0
 79 83  1  0
 80 79  2  0
 81 80  1  0
 82 81  1  0
 84 85  1  0
 85 88  1  0
 85 87  1  0
 86 84  2  0
 89 90  1  0
 89 64  1  0
 91 89  1  0
M  ISO  4   5 101  10 101  54 100  62 100
M  END
>  <TORSDO>  (55) 
F 20

>  <SCORE>  (55) 
-13.165

>  <name>  (55) 
54

>  <ligand_id>  (55) 
54

>  <original_smiles>  (55) 
[H]c1c([H])c([H])c2c(c1[H])C([H])([H])C([H])([H])C([H])([H])C2([H])N([H])C(=O)C1([H])N(C(=O)C([H])(N([H])C(=O)C([H])(N([H])C([H])([H])[H])C([H])([H])[H])C(C([H])([H])[H])(C([H])([H])[H])C([H])([H])[H])C([H])([H])c2c([H])c(Oc3c([H])c([H])c(OC([H])([H])C([H])([H])N([H])C(=O)N4C([H])([H])C([H])([H])C([H])([H])C([H])(n5nc(-c6c([H])c([H])c(Oc7c([H])c([H])c(F)c([H])c7F)c([H])c6[H])c(C(=O)N([H])[H])c5N([H])[H])C4([H])[H])c(C4([H])C([H])([H])C4([H])[H])c3[H])c([H])c([H])c2C1([H])[H]

>  <smiles>  (55) 
[H]c1c([H])c([H])c2c(c1[H])C([H])([H])C([H])([H])C([H])([H])C2([H])N([H])C(=O)C1([H])N(C(=O)C([H])(N([H])C(=O)C([H])(N([H])C([H])([H])[H])C([H])([H])[H])C(C([H])([H])[H])(C([H])([H])[H])C([H])([H])[H])C([H])([H])c2c([H])c(Oc3c([H])c([H])c(OC([H])([H])C([H])([H])N([H])C(=O)N4C([H])([H])C([H])([H])C([H])([H])C([H])(n5nc(-c6c([H])c([H])c(Oc7c([H])c([H])c(F)c([H])c7F)c([H])c6[H])c(C(=O)N([H])[H])c5N([H])[H])C4([H])[H])c(C4([H])C([H])([H])C4([H])[H])c3[H])c([H])c([H])c2C1([H])[H]

$$$$
55:0:0
     RDKit          3D

 93102  0  0  1  0  0  0  0  0999 V2000
  -29.4850  -22.7220   21.1700 C   0  0  0  0  0  3  0  0  0  0  0  0
  -28.0570  -22.0770   19.4540 C   0  0  0  0  0  3  0  0  0  0  0  0
  -28.5270  -23.2070   20.2210 C   0  0  0  0  0  0  0  0  0  0  0  0
  -29.8950  -21.3160   21.2650 C   0  0  0  0  0  0  0  0  0  0  0  0
  -29.3680  -20.2610   20.4260 C   0  0  0  0  0  0  0  0  0  0  0  0
  -30.9310  -20.9480   22.3110 C   0  0  0  0  0  1  0  0  0  0  0  0
  -28.4340  -20.7320   19.5380 N   0  0  0  0  0  0  0  0  0  0  0  0
  -30.6270  -15.1620   20.4840 C   0  0  0  0  0  0  0  0  0  0  0  0
  -30.5640  -12.7970   19.5540 C   0  0  0  0  0  2  0  0  0  0  0  0
  -29.6630  -12.7230   18.3000 C   0  0  0  0  0  2  0  0  0  0  0  0
  -28.1930  -12.4930   18.7000 C   0  0  0  0  0  2  0  0  0  0  0  0
  -27.7440  -13.4200   19.8600 C   0  0  0  0  0  3  0  0  0  0  0  0
  -28.7710  -13.4670   21.0100 C   0  0  0  0  0  2  0  0  0  0  0  0
  -30.0440  -13.8960   20.4190 N   0  0  0  0  0  0  0  0  0  0  0  0
  -31.8440  -15.2200   20.2660 O   0  0  0  0  0  0  0  0  0  0  0  0
  -29.7960  -17.5110   21.5180 C   0  0  0  0  0  2  0  0  0  0  0  0
  -29.8770  -18.6550   20.4170 C   0  0  0  0  0  3  0  0  0  0  0  0
  -29.5170  -17.4270   19.4710 C   0  0  0  0  0  3  0  0  0  0  0  0
  -29.8310  -16.3590   20.5240 N   0  0  0  0  0  0  0  0  0  0  0  0
  -25.3470  -13.9660   20.5570 C   0  0  0  0  0  0  0  0  0  0  0  0
  -24.2820  -13.1780   20.8940 C   0  0  0  0  0  0  0  0  0  0  0  0
  -24.7600  -11.8310   20.8660 C   0  0  0  0  0  0  0  0  0  0  0  0
  -26.4020  -13.1000   20.3320 N   0  0  0  0  0  0  0  0  0  0  0  0
  -26.0580  -11.8100   20.5860 N   0  0  0  0  0  0  0  0  0  0  0  0
  -24.0410  -10.5610   21.0310 C   0  0  0  0  0  0  0  0  0  0  0  0
  -24.4530   -9.5950   21.9750 C   0  0  0  0  0  3  0  0  0  0  0  0
  -23.7320   -8.3920   22.1300 C   0  0  0  0  0  3  0  0  0  0  0  0
  -22.5840   -8.1450   21.3380 C   0  0  0  0  0  0  0  0  0  0  0  0
  -22.1920   -9.0990   20.3830 C   0  0  0  0  0  3  0  0  0  0  0  0
  -22.9140  -10.2950   20.2280 C   0  0  0  0  0  3  0  0  0  0  0  0
  -21.8380   -6.9930   21.4000 O   0  0  0  0  0  0  0  0  0  0  0  0
  -21.7410   -6.2590   22.5550 C   0  0  0  0  0  0  0  0  0  0  0  0
  -21.2360   -6.8150   23.7500 C   0  0  0  0  0  3  0  0  0  0  0  0
  -21.0880   -6.0060   24.8950 C   0  0  0  0  0  3  0  0  0  0  0  0
  -21.4360   -4.6430   24.8450 C   0  0  0  0  0  0  0  0  0  0  0  0
  -21.9340   -4.0860   23.6540 C   0  0  0  0  0  3  0  0  0  0  0  0
  -22.0830   -4.8920   22.5110 C   0  0  0  0  0  0  0  0  0  0  0  0
  -22.5440   -4.3460   21.3600 F   0  0  0  0  0  0  0  0  0  0  0  0
  -21.2870   -3.8640   25.9420 F   0  0  0  0  0  0  0  0  0  0  0  0
  -22.8740  -13.6390   21.1330 C   0  0  0  0  0  0  0  0  0  0  0  0
  -22.1360  -12.9380   21.9850 N   0  0  0  0  0  0  0  0  0  0  0  0
  -22.4360  -14.6590   20.5990 O   0  0  0  0  0  0  0  0  0  0  0  0
  -22.5050  -12.1150   22.4370 H   0  0  0  0  0  0  0  0  0  0  0  0
  -21.1910  -13.2280   22.1890 H   0  0  0  0  0  0  0  0  0  0  0  0
  -25.5050  -15.3400   20.3970 N   0  0  0  0  0  0  0  0  0  0  0  0
  -24.7380  -15.9930   20.5040 H   0  0  0  0  0  0  0  0  0  0  0  0
  -26.3730  -15.7860   20.1260 H   0  0  0  0  0  0  0  0  0  0  0  0
  -30.2860  -17.1890   18.1630 C   0  0  0  0  0  2  0  0  0  0  0  0
  -31.2160  -18.1070   15.9940 C   0  0  0  0  0  1  0  0  0  0  0  0
  -28.9270  -18.8460   16.7570 C   0  0  0  0  0  1  0  0  0  0  0  0
  -30.3270  -18.4030   17.2110 C   0  0  0  0  0  3  0  0  0  0  0  0
  -27.7960  -24.7050   20.0500 C   0  0  0  0  0  2  0  0  0  0  0  0
  -28.2200  -26.1960   20.3200 O   0  0  0  0  0  0  0  0  0  0  0  0
  -24.6400  -31.9780   23.3100 C   0  0  0  0  0  0  0  0  0  0  0  0
  -27.2080  -27.2430   20.2480 C   0  0  0  0  0  0  0  0  0  0  0  0
  -23.4440  -30.5900   21.6680 C   0  0  0  0  0  3  0  0  0  0  0  0
  -24.8920  -29.0290   20.2310 C   0  0  0  0  0  0  0  0  0  0  0  0
  -26.0040  -30.8440   21.5090 C   0  0  0  0  0  2  0  0  0  0  0  0
  -26.0770  -29.4550   20.8440 C   0  0  0  0  0  0  0  0  0  0  0  0
  -27.2350  -28.5800   20.8380 C   0  0  0  0  0  3  0  0  0  0  0  0
  -25.9940  -26.9450   19.5840 C   0  0  0  0  0  3  0  0  0  0  0  0
  -24.8660  -27.7890   19.5850 C   0  0  0  0  0  3  0  0  0  0  0  0
  -23.6670  -29.9280   20.2840 C   0  0  0  0  0  2  0  0  0  0  0  0
  -24.7170  -31.1590   22.2160 N   0  0  0  0  0  0  0  0  0  0  0  0
  -23.5530  -32.2590   23.8370 O   0  0  0  0  0  0  0  0  0  0  0  0
  -22.7660  -29.5740   22.6220 C   0  0  0  0  0  0  0  0  0  0  0  0
  -21.4410  -29.3890   22.4850 N   0  0  0  0  0  0  0  0  0  0  0  0
  -23.4360  -28.9550   23.4540 O   0  0  0  0  0  0  0  0  0  0  0  0
  -20.9540  -29.9390   21.7910 H   0  0  0  0  0  0  0  0  0  0  0  0
  -18.0670  -28.1510   22.9650 C   0  0  0  0  0  0  0  0  0  0  0  0
  -20.6210  -28.4450   23.2510 C   0  0  0  0  0  3  0  0  0  0  0  0
  -20.7430  -27.0120   22.6820 C   0  0  0  0  0  2  0  0  0  0  0  0
  -19.6520  -26.6740   21.6600 C   0  0  0  0  0  2  0  0  0  0  0  0
  -18.2640  -26.8040   22.2920 C   0  0  0  0  0  2  0  0  0  0  0  0
  -19.1730  -28.9290   23.4010 C   0  0  0  0  0  0  0  0  0  0  0  0
  -18.9330  -30.1880   23.9920 C   0  0  0  0  0  3  0  0  0  0  0  0
  -17.6210  -30.6720   24.1490 C   0  0  0  0  0  3  0  0  0  0  0  0
  -16.5290  -29.8930   23.7270 C   0  0  0  0  0  3  0  0  0  0  0  0
  -16.7530  -28.6340   23.1420 C   0  0  0  0  0  3  0  0  0  0  0  0
  -25.9160  -32.6150   23.9390 C   0  0  0  0  0  3  0  0  0  0  0  0
  -26.4120  -31.8590   25.2330 C   0  0  1  0  0  0  0  0  0  0  0  0
  -25.3000  -31.6220   26.2810 C   0  0  0  0  0  1  0  0  0  0  0  0
  -27.0150  -30.4810   24.8710 C   0  0  0  0  0  1  0  0  0  0  0  0
  -27.5440  -32.6690   25.9090 C   0  0  0  0  0  1  0  0  0  0  0  0
  -25.6050  -34.0190   24.2560 N   0  0  0  0  0  0  0  0  0  0  0  0
  -25.9240  -35.0660   23.4840 C   0  0  0  0  0  0  0  0  0  0  0  0
  -26.5760  -34.9530   22.4430 O   0  0  0  0  0  0  0  0  0  0  0  0
  -25.0260  -34.1800   25.0660 H   0  0  0  0  0  0  0  0  0  0  0  0
  -24.1740  -36.8480   23.1610 C   0  0  0  0  0  1  0  0  0  0  0  0
  -25.4440  -36.4600   23.9370 C   0  0  0  0  0  3  0  0  0  0  0  0
  -27.5960  -37.3730   24.6900 C   0  0  0  0  0  1  0  0  0  0  0  0
  -26.4660  -37.5170   23.7760 N   0  0  0  0  0  0  0  0  0  0  0  0
  -26.0580  -38.4370   23.9190 H   0  0  0  0  0  0  0  0  0  0  0  0
  1  4  1  0
  2  7  2  0
  2  3  1  0
  3  1  2  0
  4  6  1  0
  5  4  2  0
  7  5  1  0
  8 19  1  0
  9 14  1  0
 10 11  1  0
 10  9  1  0
 12 11  1  0
 12 23  1  0
 12 13  1  0
 14  8  1  0
 14 13  1  0
 15  8  2  0
 17  5  1  0
 17 16  1  0
 18 48  1  0
 18 17  1  0
 18 19  1  0
 19 16  1  0
 20 21  2  0
 21 40  1  0
 22 21  1  0
 22 25  1  0
 23 20  1  0
 23 24  1  0
 24 22  2  0
 25 26  1  0
 26 27  2  0
 28 31  1  0
 28 27  1  0
 29 28  2  0
 30 29  1  0
 30 25  2  0
 31 32  1  0
 32 33  1  0
 33 34  2  0
 35 34  1  0
 35 39  1  0
 36 35  2  0
 37 32  2  0
 37 36  1  0
 38 37  1  0
 40 41  1  0
 41 44  1  0
 41 43  1  0
 42 40  2  0
 45 46  1  0
 45 20  1  0
 47 45  1  0
 49 51  1  0
 50 51  1  0
 51 48  1  0
 52  3  1  0
 52 53  1  0
 54 65  2  0
 55 53  1  0
 55 60  1  0
 56 64  1  0
 56 66  1  0
 57 63  1  0
 57 59  1  0
 58 64  1  0
 59 58  1  0
 60 59  2  0
 61 62  1  0
 61 55  2  0
 62 57  2  0
 63 56  1  0
 64 54  1  0
 66 68  2  0
 67 66  1  0
 69 67  1  0
 70 79  2  0
 70 75  1  0
 71 67  1  0
 71 75  1  0
 72 71  1  0
 73 74  1  0
 73 72  1  0
 74 70  1  0
 75 76  2  0
 76 77  1  0
 78 77  2  0
 79 78  1  0
 80 54  1  0
 80 85  1  0
 80 81  1  0
 81 84  1  1
 81 82  1  0
 83 81  1  0
 85 88  1  0
 86 90  1  0
 86 85  1  0
 87 86  2  0
 90 89  1  0
 92 93  1  0
 92 90  1  0
 92 91  1  0
M  ISO  4   8 100  19 100  52 101  53 101
M  END
>  <TORSDO>  (56) 
F 19

>  <SCORE>  (56) 
-14.363

>  <name>  (56) 
55

>  <ligand_id>  (56) 
55

>  <original_smiles>  (56) 
[H]c1nc(C2([H])C([H])([H])N(C(=O)N3C([H])([H])C([H])([H])C([H])([H])C([H])(n4nc(-c5c([H])c([H])c(Oc6c([H])c([H])c(F)c([H])c6F)c([H])c5[H])c(C(=O)N([H])[H])c4N([H])[H])C3([H])[H])C2([H])C([H])([H])C([H])(C([H])([H])[H])C([H])([H])[H])c(C([H])([H])[H])c([H])c1C([H])([H])Oc1c([H])c([H])c2c(c1[H])C([H])([H])N(C(=O)C([H])(N([H])C(=O)C([H])(N([H])C([H])([H])[H])C([H])([H])[H])C(C([H])([H])[H])(C([H])([H])[H])C([H])([H])[H])C([H])(C(=O)N([H])C1([H])c3c([H])c([H])c([H])c([H])c3C([H])([H])C([H])([H])C1([H])[H])C2([H])[H]

>  <smiles>  (56) 
[H]c1nc(C2([H])C([H])([H])N(C(=O)N3C([H])([H])C([H])([H])C([H])([H])C([H])(n4nc(-c5c([H])c([H])c(Oc6c([H])c([H])c(F)c([H])c6F)c([H])c5[H])c(C(=O)N([H])[H])c4N([H])[H])C3([H])[H])C2([H])C([H])([H])C([H])(C([H])([H])[H])C([H])([H])[H])c(C([H])([H])[H])c([H])c1C([H])([H])Oc1c([H])c([H])c2c(c1[H])C([H])([H])N(C(=O)C([H])(N([H])C(=O)C([H])(N([H])C([H])([H])[H])C([H])([H])[H])C(C([H])([H])[H])(C([H])([H])[H])C([H])([H])[H])C([H])(C(=O)N([H])C1([H])c3c([H])c([H])c([H])c([H])c3C([H])([H])C([H])([H])C1([H])[H])C2([H])[H]

$$$$
56:0:0
     RDKit          3D

 99108  0  0  1  0  0  0  0  0999 V2000
  -33.7000  -20.2310   19.0310 C   0  0  0  0  0  3  0  0  0  0  0  0
  -31.9020  -21.8110   18.7990 C   0  0  0  0  0  3  0  0  0  0  0  0
  -31.3860  -19.3850   18.6950 C   0  0  0  0  0  0  0  0  0  0  0  0
  -33.2600  -21.5530   19.0090 C   0  0  0  0  0  0  0  0  0  0  0  0
  -32.7970  -19.1620   18.8830 C   0  0  0  0  0  0  0  0  0  0  0  0
  -30.9490  -20.7820   18.5900 C   0  0  0  0  0  0  0  0  0  0  0  0
  -34.2440  -22.6900   19.1880 C   0  0  0  0  0  1  0  0  0  0  0  0
  -33.4590  -17.7850   18.9320 C   0  0  0  0  0  1  0  0  0  0  0  0
  -29.3990  -18.0960   17.4660 C   0  0  0  0  0  2  0  0  0  0  0  0
  -28.7350  -18.2890   20.4200 C   0  0  0  0  0  2  0  0  0  0  0  0
  -30.4980  -18.0800   18.5570 C   0  0  0  0  0  3  0  0  0  0  0  0
  -27.9520  -18.1050   18.0060 C   0  0  0  0  0  3  0  0  0  0  0  0
  -27.8620  -18.9300   19.3090 C   0  0  0  0  0  3  0  0  0  0  0  0
  -29.9540  -17.4620   19.9230 C   0  0  0  0  0  3  0  0  0  0  0  0
  -26.9710  -18.5350   16.9050 C   0  0  0  0  0  1  0  0  0  0  0  0
  -26.4180  -19.1250   19.8100 C   0  0  0  0  0  1  0  0  0  0  0  0
  -30.4140  -14.9020   19.7050 C   0  0  0  0  0  0  0  0  0  0  0  0
  -30.2590  -12.5380   18.9560 C   0  0  0  0  0  2  0  0  0  0  0  0
  -29.2610  -12.4420   17.7830 C   0  0  0  0  0  2  0  0  0  0  0  0
  -27.8220  -12.2670   18.3060 C   0  0  0  0  0  2  0  0  0  0  0  0
  -27.4640  -13.2700   19.4390 C   0  0  0  0  0  3  0  0  0  0  0  0
  -28.5780  -13.3480   20.5050 C   0  0  0  0  0  2  0  0  0  0  0  0
  -29.8330  -13.6650   19.8080 N   0  0  0  0  0  0  0  0  0  0  0  0
  -31.5580  -15.0380   19.2710 O   0  0  0  0  0  0  0  0  0  0  0  0
  -29.6120  -15.9900   19.9320 N   0  0  0  0  0  0  0  0  0  0  0  0
  -28.6720  -15.7640   20.2180 H   0  0  0  0  0  0  0  0  0  0  0  0
  -25.1520  -13.8510   20.3890 C   0  0  0  0  0  0  0  0  0  0  0  0
  -24.1120  -13.0720   20.8160 C   0  0  0  0  0  0  0  0  0  0  0  0
  -24.5530  -11.7200   20.6890 C   0  0  0  0  0  0  0  0  0  0  0  0
  -26.1620  -12.9730   20.0280 N   0  0  0  0  0  0  0  0  0  0  0  0
  -25.8110  -11.6830   20.2690 N   0  0  0  0  0  0  0  0  0  0  0  0
  -23.8270  -10.4580   20.8830 C   0  0  0  0  0  0  0  0  0  0  0  0
  -24.2980   -9.4690   21.7760 C   0  0  0  0  0  3  0  0  0  0  0  0
  -23.5730   -8.2720   21.9660 C   0  0  0  0  0  3  0  0  0  0  0  0
  -22.3640   -8.0550   21.2660 C   0  0  0  0  0  0  0  0  0  0  0  0
  -21.9130   -9.0300   20.3600 C   0  0  0  0  0  3  0  0  0  0  0  0
  -22.6380  -10.2170   20.1660 C   0  0  0  0  0  3  0  0  0  0  0  0
  -21.6060   -6.9130   21.3660 O   0  0  0  0  0  0  0  0  0  0  0  0
  -21.5420   -6.1940   22.5310 C   0  0  0  0  0  0  0  0  0  0  0  0
  -21.1120   -6.7750   23.7450 C   0  0  0  0  0  3  0  0  0  0  0  0
  -20.9920   -5.9820   24.9020 C   0  0  0  0  0  3  0  0  0  0  0  0
  -21.2980   -4.6090   24.8520 C   0  0  0  0  0  0  0  0  0  0  0  0
  -21.7270   -4.0290   23.6450 C   0  0  0  0  0  3  0  0  0  0  0  0
  -21.8450   -4.8190   22.4890 C   0  0  0  0  0  0  0  0  0  0  0  0
  -22.2360   -4.2500   21.3240 F   0  0  0  0  0  0  0  0  0  0  0  0
  -21.1770   -3.8460   25.9620 F   0  0  0  0  0  0  0  0  0  0  0  0
  -22.7480  -13.5510   21.2210 C   0  0  0  0  0  0  0  0  0  0  0  0
  -22.0960  -12.8350   22.1330 N   0  0  0  0  0  0  0  0  0  0  0  0
  -22.2720  -14.5900   20.7670 O   0  0  0  0  0  0  0  0  0  0  0  0
  -22.4960  -11.9960   22.5240 H   0  0  0  0  0  0  0  0  0  0  0  0
  -21.1830  -13.1330   22.4460 H   0  0  0  0  0  0  0  0  0  0  0  0
  -25.3110  -15.2270   20.2580 N   0  0  0  0  0  0  0  0  0  0  0  0
  -24.5670  -15.8750   20.4870 H   0  0  0  0  0  0  0  0  0  0  0  0
  -26.1220  -15.6840   19.8630 H   0  0  0  0  0  0  0  0  0  0  0  0
  -29.6540  -21.2250   18.3040 O   0  0  0  0  0  0  0  0  0  0  0  0
  -29.4660  -22.6070   17.8250 C   0  0  0  0  0  2  0  0  0  0  0  0
  -28.9960  -23.7450   18.8240 C   0  0  0  0  0  2  0  0  0  0  0  0
  -28.9470  -25.2010   18.1990 C   0  0  0  0  0  2  0  0  0  0  0  0
  -28.7350  -26.3570   19.0840 O   0  0  0  0  0  0  0  0  0  0  0  0
  -24.7160  -31.0510   22.7520 C   0  0  0  0  0  0  0  0  0  0  0  0
  -27.5350  -27.0770   19.1320 C   0  0  0  0  0  0  0  0  0  0  0  0
  -23.5730  -29.8320   20.9310 C   0  0  0  0  0  3  0  0  0  0  0  0
  -25.0890  -28.5450   19.3260 C   0  0  0  0  0  0  0  0  0  0  0  0
  -26.0940  -30.2840   20.8110 C   0  0  0  0  0  2  0  0  0  0  0  0
  -26.2300  -29.0100   19.9900 C   0  0  0  0  0  0  0  0  0  0  0  0
  -27.4480  -28.2820   19.8920 C   0  0  0  0  0  3  0  0  0  0  0  0
  -26.3580  -26.6420   18.4800 C   0  0  0  0  0  3  0  0  0  0  0  0
  -25.1530  -27.3630   18.5720 C   0  0  0  0  0  3  0  0  0  0  0  0
  -23.8150  -29.3480   19.4760 C   0  0  0  0  0  2  0  0  0  0  0  0
  -24.8110  -30.4020   21.5550 N   0  0  0  0  0  0  0  0  0  0  0  0
  -23.6210  -31.2090   23.3120 O   0  0  0  0  0  0  0  0  0  0  0  0
  -22.9540  -28.6720   21.7470 C   0  0  0  0  0  0  0  0  0  0  0  0
  -21.6300  -28.4830   21.6210 N   0  0  0  0  0  0  0  0  0  0  0  0
  -23.6640  -27.9500   22.4530 O   0  0  0  0  0  0  0  0  0  0  0  0
  -21.1140  -29.1250   21.0360 H   0  0  0  0  0  0  0  0  0  0  0  0
  -18.2820  -27.1730   22.0240 C   0  0  0  0  0  0  0  0  0  0  0  0
  -20.8460  -27.4240   22.2600 C   0  0  0  0  0  3  0  0  0  0  0  0
  -20.9450  -26.0990   21.4670 C   0  0  0  0  0  2  0  0  0  0  0  0
  -19.8200  -25.9200   20.4460 C   0  0  0  0  0  2  0  0  0  0  0  0
  -18.4560  -25.9470   21.1410 C   0  0  0  0  0  2  0  0  0  0  0  0
  -19.4070  -27.8760   22.5360 C   0  0  0  0  0  0  0  0  0  0  0  0
  -19.1950  -29.0300   23.3200 C   0  0  0  0  0  3  0  0  0  0  0  0
  -17.8910  -29.4830   23.5940 C   0  0  0  0  0  3  0  0  0  0  0  0
  -16.7810  -28.7750   23.1010 C   0  0  0  0  0  3  0  0  0  0  0  0
  -16.9790  -27.6210   22.3210 C   0  0  0  0  0  3  0  0  0  0  0  0
  -25.9720  -31.6460   23.4630 C   0  0  0  0  0  3  0  0  0  0  0  0
  -25.6220  -32.9980   23.9230 N   0  0  0  0  0  0  0  0  0  0  0  0
  -25.9690  -34.1290   23.2970 C   0  0  0  0  0  0  0  0  0  0  0  0
  -26.6860  -34.1460   22.2930 O   0  0  0  0  0  0  0  0  0  0  0  0
  -24.9920  -33.0580   24.7080 H   0  0  0  0  0  0  0  0  0  0  0  0
  -24.2290  -35.9280   23.0520 C   0  0  0  0  0  1  0  0  0  0  0  0
  -25.4340  -35.4520   23.8780 C   0  0  0  0  0  3  0  0  0  0  0  0
  -27.5080  -36.2660   24.9110 C   0  0  0  0  0  1  0  0  0  0  0  0
  -26.4520  -36.5240   23.9350 N   0  0  0  0  0  0  0  0  0  0  0  0
  -26.0230  -37.4180   24.1590 H   0  0  0  0  0  0  0  0  0  0  0  0
  -26.4820  -30.7650   24.6670 C   0  0  1  0  0  0  0  0  0  0  0  0
  -25.3770  -30.4040   25.6870 C   0  0  0  0  0  1  0  0  0  0  0  0
  -27.0990  -29.4450   24.1530 C   0  0  0  0  0  1  0  0  0  0  0  0
  -27.6090  -31.5100   25.4220 C   0  0  0  0  0  1  0  0  0  0  0  0
  2  4  2  0
  3  5  1  0
  4  1  1  0
  4  7  1  0
  5  8  1  0
  5  1  2  0
  6  3  2  0
  6  2  1  0
  9 12  1  0
  9 11  1  0
 11  3  1  0
 11 14  1  0
 12 15  1  0
 12 13  1  0
 13 16  1  0
 13 10  1  0
 14 25  1  0
 14 10  1  0
 17 23  1  0
 17 25  1  0
 18 23  1  0
 19 20  1  0
 19 18  1  0
 21 20  1  0
 21 30  1  0
 21 22  1  0
 23 22  1  0
 24 17  2  0
 25 26  1  0
 27 28  2  0
 28 47  1  0
 29 28  1  0
 29 32  1  0
 30 31  1  0
 30 27  1  0
 31 29  2  0
 32 33  1  0
 33 34  2  0
 35 38  1  0
 35 34  1  0
 36 35  2  0
 37 36  1  0
 37 32  2  0
 38 39  1  0
 39 40  1  0
 40 41  2  0
 42 41  1  0
 42 46  1  0
 43 42  2  0
 44 39  2  0
 44 43  1  0
 45 44  1  0
 47 48  1  0
 48 51  1  0
 48 50  1  0
 49 47  2  0
 52 27  1  0
 52 53  1  0
 54 52  1  0
 55  6  1  0
 56 55  1  0
 56 57  1  0
 58 57  1  0
 58 59  1  0
 59 61  1  0
 60 71  2  0
 61 66  1  0
 62 70  1  0
 62 72  1  0
 63 69  1  0
 63 65  1  0
 64 70  1  0
 65 64  1  0
 66 65  2  0
 67 68  1  0
 67 61  2  0
 68 63  2  0
 69 62  1  0
 70 60  1  0
 72 74  2  0
 73 72  1  0
 75 73  1  0
 76 85  2  0
 76 81  1  0
 77 73  1  0
 77 81  1  0
 78 77  1  0
 79 80  1  0
 79 78  1  0
 80 76  1  0
 81 82  2  0
 82 83  1  0
 84 83  2  0
 85 84  1  0
 86 60  1  0
 86 87  1  0
 86 96  1  0
 87 90  1  0
 88 92  1  0
 88 87  1  0
 89 88  2  0
 92 91  1  0
 92 94  1  0
 94 95  1  0
 94 93  1  0
 96 99  1  1
 96 97  1  0
 98 96  1  0
M  ISO  4  17 100  25 100  58 101  59 101
M  END
>  <TORSDO>  (57) 
F 21

>  <SCORE>  (57) 
-10.314

>  <name>  (57) 
56

>  <ligand_id>  (57) 
56

>  <original_smiles>  (57) 
[H]c1c([H])c([H])c2c(c1[H])C([H])([H])C([H])([H])C([H])([H])C2([H])N([H])C(=O)C1([H])N(C(=O)C([H])(N([H])C(=O)C([H])(N([H])C([H])([H])[H])C([H])([H])[H])C(C([H])([H])[H])(C([H])([H])[H])C([H])([H])[H])C([H])([H])c2c([H])c(OC([H])([H])C([H])([H])C([H])([H])Oc3c([H])c(C([H])([H])[H])c([H])c(C([H])([H])[H])c3C3([H])C([H])([H])C([H])(C([H])([H])[H])C([H])(C([H])([H])[H])C([H])([H])C3([H])N([H])C(=O)N3C([H])([H])C([H])([H])C([H])([H])C([H])(n4nc(-c5c([H])c([H])c(Oc6c([H])c([H])c(F)c([H])c6F)c([H])c5[H])c(C(=O)N([H])[H])c4N([H])[H])C3([H])[H])c([H])c([H])c2C1([H])[H]

>  <smiles>  (57) 
[H]c1c([H])c([H])c2c(c1[H])C([H])([H])C([H])([H])C([H])([H])C2([H])N([H])C(=O)C1([H])N(C(=O)C([H])(N([H])C(=O)C([H])(N([H])C([H])([H])[H])C([H])([H])[H])C(C([H])([H])[H])(C([H])([H])[H])C([H])([H])[H])C([H])([H])c2c([H])c(OC([H])([H])C([H])([H])C([H])([H])Oc3c([H])c(C([H])([H])[H])c([H])c(C([H])([H])[H])c3C3([H])C([H])([H])C([H])(C([H])([H])[H])C([H])(C([H])([H])[H])C([H])([H])C3([H])N([H])C(=O)N3C([H])([H])C([H])([H])C([H])([H])C([H])(n4nc(-c5c([H])c([H])c(Oc6c([H])c([H])c(F)c([H])c6F)c([H])c5[H])c(C(=O)N([H])[H])c4N([H])[H])C3([H])[H])c([H])c([H])c2C1([H])[H]

$$$$
57:0:0
     RDKit          3D

 98108  0  0  1  0  0  0  0  0999 V2000
  -30.0530  -22.2980   15.9870 C   0  0  0  0  0  3  0  0  0  0  0  0
  -29.5730  -23.4510   15.3450 C   0  0  0  0  0  3  0  0  0  0  0  0
  -30.0280  -22.2120   17.3910 C   0  0  0  0  0  3  0  0  0  0  0  0
  -29.0870  -24.5190   16.1180 C   0  0  0  0  0  3  0  0  0  0  0  0
  -29.5110  -23.2740   18.1770 C   0  0  0  0  0  0  0  0  0  0  0  0
  -29.4620  -23.2010   19.5990 C   0  0  0  0  0  0  0  0  0  0  0  0
  -28.9940  -24.3640   20.2860 C   0  0  0  0  0  0  0  0  0  0  0  0
  -29.0620  -24.4600   17.5260 C   0  0  0  0  0  0  0  0  0  0  0  0
  -28.6310  -25.5190   19.5420 C   0  0  0  0  0  0  0  0  0  0  0  0
  -28.9350  -24.4170   21.8070 C   0  0  0  0  0  1  0  0  0  0  0  0
  -28.6460  -25.5500   18.1990 N   0  0  0  0  0  0  0  0  0  0  0  0
  -28.4220  -26.7460   20.1530 O   0  0  0  0  0  0  0  0  0  0  0  0
  -24.6100  -31.9020   23.2270 C   0  0  0  0  0  0  0  0  0  0  0  0
  -27.2310  -27.4530   20.1110 C   0  0  0  0  0  0  0  0  0  0  0  0
  -23.3870  -30.4960   21.6010 C   0  0  0  0  0  3  0  0  0  0  0  0
  -24.8250  -28.9560   20.1560 C   0  0  0  0  0  0  0  0  0  0  0  0
  -25.9100  -30.8570   21.3710 C   0  0  0  0  0  2  0  0  0  0  0  0
  -25.9890  -29.4850   20.7290 C   0  0  0  0  0  0  0  0  0  0  0  0
  -27.1890  -28.7390   20.7040 C   0  0  0  0  0  3  0  0  0  0  0  0
  -26.0440  -26.9360   19.5430 C   0  0  0  0  0  3  0  0  0  0  0  0
  -24.8490  -27.6820   19.5610 C   0  0  0  0  0  3  0  0  0  0  0  0
  -23.5790  -29.8120   20.2190 C   0  0  0  0  0  2  0  0  0  0  0  0
  -24.6550  -31.1000   22.1250 N   0  0  0  0  0  0  0  0  0  0  0  0
  -23.5350  -32.1730   23.7810 O   0  0  0  0  0  0  0  0  0  0  0  0
  -22.7500  -29.4760   22.5710 C   0  0  0  0  0  0  0  0  0  0  0  0
  -21.4250  -29.2840   22.4540 N   0  0  0  0  0  0  0  0  0  0  0  0
  -23.4440  -28.8580   23.3840 O   0  0  0  0  0  0  0  0  0  0  0  0
  -20.9270  -29.8340   21.7680 H   0  0  0  0  0  0  0  0  0  0  0  0
  -18.0670  -28.0520   22.9640 C   0  0  0  0  0  0  0  0  0  0  0  0
  -20.6220  -28.3430   23.2330 C   0  0  0  0  0  3  0  0  0  0  0  0
  -20.7410  -26.9080   22.6690 C   0  0  0  0  0  2  0  0  0  0  0  0
  -19.6430  -26.5640   21.6580 C   0  0  0  0  0  2  0  0  0  0  0  0
  -18.2600  -26.6980   22.3010 C   0  0  0  0  0  2  0  0  0  0  0  0
  -19.1760  -28.8310   23.3870 C   0  0  0  0  0  0  0  0  0  0  0  0
  -18.9420  -30.0970   23.9650 C   0  0  0  0  0  3  0  0  0  0  0  0
  -17.6310  -30.5850   24.1260 C   0  0  0  0  0  3  0  0  0  0  0  0
  -16.5360  -29.8030   23.7190 C   0  0  0  0  0  3  0  0  0  0  0  0
  -16.7550  -28.5380   23.1430 C   0  0  0  0  0  3  0  0  0  0  0  0
  -25.9020  -32.5360   23.8310 C   0  0  0  0  0  3  0  0  0  0  0  0
  -26.4460  -31.7600   25.0930 C   0  0  1  0  0  0  0  0  0  0  0  0
  -25.3740  -31.5090   26.1790 C   0  0  0  0  0  1  0  0  0  0  0  0
  -27.0280  -30.3890   24.6800 C   0  0  0  0  0  1  0  0  0  0  0  0
  -27.6050  -32.5550   25.7390 C   0  0  0  0  0  1  0  0  0  0  0  0
  -25.5920  -33.9310   24.1750 N   0  0  0  0  0  0  0  0  0  0  0  0
  -25.9130  -34.9890   23.4190 C   0  0  0  0  0  0  0  0  0  0  0  0
  -26.5720  -34.8950   22.3800 O   0  0  0  0  0  0  0  0  0  0  0  0
  -25.0060  -34.0770   24.9830 H   0  0  0  0  0  0  0  0  0  0  0  0
  -24.1760  -36.7780   23.0900 C   0  0  0  0  0  1  0  0  0  0  0  0
  -25.4240  -36.3730   23.8890 C   0  0  0  0  0  3  0  0  0  0  0  0
  -27.5660  -37.2550   24.7070 C   0  0  0  0  0  1  0  0  0  0  0  0
  -26.4530  -37.4300   23.7770 N   0  0  0  0  0  0  0  0  0  0  0  0
  -26.0460  -38.3480   23.9380 H   0  0  0  0  0  0  0  0  0  0  0  0
  -30.0260  -21.9650   20.3540 C   0  0  0  0  0  2  0  0  0  0  0  0
  -29.2080  -20.6350   20.2780 C   0  0  0  0  0  2  0  0  0  0  0  0
  -29.9100  -19.4730   20.9170 N   0  0  0  0  0  4  0  0  0  0  0  0
  -30.8970  -19.5480   20.7310 H   0  0  0  0  0  0  0  0  0  0  0  0
  -29.7900  -19.5530   21.9140 H   0  0  0  0  0  0  0  0  0  0  0  0
  -30.6530  -14.5970   20.5550 C   0  0  0  0  0  0  0  0  0  0  0  0
  -30.4290  -12.3740   19.5310 C   0  0  0  0  0  2  0  0  0  0  0  0
  -29.5290  -12.5100   18.2850 C   0  0  0  0  0  2  0  0  0  0  0  0
  -28.0390  -12.3790   18.6660 C   0  0  0  0  0  2  0  0  0  0  0  0
  -27.6420  -13.2440   19.8920 C   0  0  0  0  0  3  0  0  0  0  0  0
  -28.6690  -13.1180   21.0390 C   0  0  0  0  0  2  0  0  0  0  0  0
  -29.9990  -13.4060   20.4850 N   0  0  0  0  0  0  0  0  0  0  0  0
  -31.8660  -14.7050   20.3590 O   0  0  0  0  0  0  0  0  0  0  0  0
  -29.8330  -17.7260   19.0750 C   0  0  0  0  0  2  0  0  0  0  0  0
  -29.6250  -16.2080   19.0720 C   0  0  0  0  0  2  0  0  0  0  0  0
  -30.0490  -16.9100   21.2830 C   0  0  0  0  0  2  0  0  0  0  0  0
  -29.4580  -18.1100   20.4960 C   0  0  0  0  0  3  0  0  0  0  0  0
  -29.8620  -15.7020   20.4420 N   0  0  0  0  0  0  0  0  0  0  0  0
  -25.2220  -13.8480   20.5060 C   0  0  0  0  0  0  0  0  0  0  0  0
  -24.1450  -13.0760   20.8470 C   0  0  0  0  0  0  0  0  0  0  0  0
  -24.6190  -11.7270   20.8650 C   0  0  0  0  0  0  0  0  0  0  0  0
  -26.2800  -12.9690   20.3340 N   0  0  0  0  0  0  0  0  0  0  0  0
  -25.9200  -11.6920   20.6110 N   0  0  0  0  0  0  0  0  0  0  0  0
  -23.8980  -10.4630   21.0490 C   0  0  0  0  0  0  0  0  0  0  0  0
  -24.3160   -9.5080   22.0020 C   0  0  0  0  0  3  0  0  0  0  0  0
  -23.5960   -8.3070   22.1750 C   0  0  0  0  0  3  0  0  0  0  0  0
  -22.4430   -8.0520   21.3940 C   0  0  0  0  0  0  0  0  0  0  0  0
  -22.0450   -8.9950   20.4300 C   0  0  0  0  0  3  0  0  0  0  0  0
  -22.7660  -10.1880   20.2550 C   0  0  0  0  0  3  0  0  0  0  0  0
  -21.6950   -6.9030   21.4760 O   0  0  0  0  0  0  0  0  0  0  0  0
  -21.6360   -6.1640   22.6300 C   0  0  0  0  0  0  0  0  0  0  0  0
  -21.2020   -6.7220   23.8520 C   0  0  0  0  0  3  0  0  0  0  0  0
  -21.0930   -5.9080   24.9980 C   0  0  0  0  0  3  0  0  0  0  0  0
  -21.4070   -4.5390   24.9200 C   0  0  0  0  0  0  0  0  0  0  0  0
  -21.8330   -3.9800   23.7040 C   0  0  0  0  0  3  0  0  0  0  0  0
  -21.9450   -4.7900   22.5600 C   0  0  0  0  0  0  0  0  0  0  0  0
  -22.3370   -4.2440   21.3840 F   0  0  0  0  0  0  0  0  0  0  0  0
  -21.2940   -3.7540   26.0180 F   0  0  0  0  0  0  0  0  0  0  0  0
  -22.7350  -13.5450   21.0510 C   0  0  0  0  0  0  0  0  0  0  0  0
  -21.9770  -12.8610   21.9000 N   0  0  0  0  0  0  0  0  0  0  0  0
  -22.3110  -14.5560   20.4920 O   0  0  0  0  0  0  0  0  0  0  0  0
  -22.3310  -12.0440   22.3750 H   0  0  0  0  0  0  0  0  0  0  0  0
  -21.0270  -13.1570   22.0750 H   0  0  0  0  0  0  0  0  0  0  0  0
  -25.3850  -15.2170   20.3070 N   0  0  0  0  0  0  0  0  0  0  0  0
  -24.6130  -15.8700   20.3730 H   0  0  0  0  0  0  0  0  0  0  0  0
  -26.2530  -15.6550   20.0260 H   0  0  0  0  0  0  0  0  0  0  0  0
  1  3  1  0
  2  1  2  0
  2  4  1  0
  3  5  2  0
  4  8  2  0
  5  6  1  0
  6  7  2  0
  6 53  1  0
  7 10  1  0
  8  5  1  0
  8 11  1  0
  9 12  1  0
  9  7  1  0
 11  9  2  0
 13 24  2  0
 14 12  1  0
 14 19  1  0
 15 23  1  0
 15 25  1  0
 16 22  1  0
 16 18  1  0
 17 23  1  0
 18 17  1  0
 19 18  2  0
 20 21  1  0
 20 14  2  0
 21 16  2  0
 22 15  1  0
 23 13  1  0
 25 27  2  0
 26 25  1  0
 28 26  1  0
 29 38  2  0
 29 34  1  0
 30 26  1  0
 30 34  1  0
 31 30  1  0
 32 33  1  0
 32 31  1  0
 33 29  1  0
 34 35  2  0
 35 36  1  0
 37 36  2  0
 38 37  1  0
 39 13  1  0
 39 44  1  0
 39 40  1  0
 40 43  1  1
 40 41  1  0
 42 40  1  0
 44 47  1  0
 45 49  1  0
 45 44  1  0
 46 45  2  0
 49 48  1  0
 51 49  1  0
 51 52  1  0
 51 50  1  0
 54 53  1  0
 54 55  1  0
 55 57  1  0
 56 55  1  0
 59 64  1  0
 60 61  1  0
 60 59  1  0
 62 61  1  0
 62 74  1  0
 62 63  1  0
 64 58  1  0
 64 63  1  0
 65 58  2  0
 66 69  1  0
 67 66  1  0
 67 70  1  0
 69 55  1  0
 69 68  1  0
 70 58  1  0
 70 68  1  0
 71 72  2  0
 72 73  1  0
 72 91  1  0
 73 76  1  0
 74 71  1  0
 74 75  1  0
 75 73  2  0
 76 77  1  0
 77 78  2  0
 79 82  1  0
 79 78  1  0
 80 79  2  0
 81 80  1  0
 81 76  2  0
 82 83  1  0
 83 84  1  0
 84 85  2  0
 86 85  1  0
 86 90  1  0
 87 86  2  0
 88 83  2  0
 88 87  1  0
 89 88  1  0
 91 92  1  0
 92 95  1  0
 92 94  1  0
 93 91  2  0
 96 97  1  0
 96 71  1  0
 98 96  1  0
M  ISO  4   9 101  12 101  58 100  70 100
M  END
>  <TORSDO>  (58) 
F 19

>  <SCORE>  (58) 
-14.243

>  <name>  (58) 
57

>  <ligand_id>  (58) 
57

>  <original_smiles>  (58) 
[H]c1c([H])c([H])c2c(c1[H])C([H])([H])C([H])([H])C([H])([H])C2([H])N([H])C(=O)C1([H])N(C(=O)C([H])(N([H])C(=O)C([H])(N([H])C([H])([H])[H])C([H])([H])[H])C(C([H])([H])[H])(C([H])([H])[H])C([H])([H])[H])C([H])([H])c2c([H])c(Oc3nc4c([H])c([H])c([H])c([H])c4c(C([H])([H])C([H])([H])[N+]([H])([H])C4([H])C([H])([H])N(C(=O)N5C([H])([H])C([H])([H])C([H])([H])C([H])(n6nc(-c7c([H])c([H])c(Oc8c([H])c([H])c(F)c([H])c8F)c([H])c7[H])c(C(=O)N([H])[H])c6N([H])[H])C5([H])[H])C([H])([H])C4([H])[H])c3C([H])([H])[H])c([H])c([H])c2C1([H])[H]

>  <smiles>  (58) 
[H]c1c([H])c([H])c2c(c1[H])C([H])([H])C([H])([H])C([H])([H])C2([H])N([H])C(=O)C1([H])N(C(=O)C([H])(N([H])C(=O)C([H])(N([H])C([H])([H])[H])C([H])([H])[H])C(C([H])([H])[H])(C([H])([H])[H])C([H])([H])[H])C([H])([H])c2c([H])c(Oc3nc4c([H])c([H])c([H])c([H])c4c(C([H])([H])C([H])([H])[N+]([H])([H])C4([H])C([H])([H])N(C(=O)N5C([H])([H])C([H])([H])C([H])([H])C([H])(n6nc(-c7c([H])c([H])c(Oc8c([H])c([H])c(F)c([H])c8F)c([H])c7[H])c(C(=O)N([H])[H])c6N([H])[H])C5([H])[H])C([H])([H])C4([H])[H])c3C([H])([H])[H])c([H])c([H])c2C1([H])[H]

$$$$
58:0:0
     RDKit          3D

 90 98  0  0  1  0  0  0  0  0999 V2000
  -30.3800  -20.1970   19.7830 C   0  0  0  0  0  3  0  0  0  0  0  0
  -30.6820  -18.7730   19.9370 C   0  0  0  0  0  0  0  0  0  0  0  0
  -29.6540  -17.7690   20.0810 C   0  0  0  0  0  0  0  0  0  0  0  0
  -28.3560  -18.3960   20.0480 C   0  0  0  0  0  0  0  0  0  0  0  0
  -29.0420  -20.6980   19.7470 C   0  0  0  0  0  0  0  0  0  0  0  0
  -32.1360  -18.3520   19.9850 C   0  0  0  0  0  1  0  0  0  0  0  0
  -27.0910  -17.6010   20.3120 C   0  0  0  0  0  1  0  0  0  0  0  0
  -28.0880  -19.7370   19.8650 N   0  0  0  0  0  0  0  0  0  0  0  0
  -30.4180  -16.1440   21.9240 C   0  0  0  0  0  1  0  0  0  0  0  0
  -29.8000  -16.1700   20.5120 C   0  0  0  0  0  3  0  0  0  0  0  0
  -30.4190  -14.8530   19.7260 C   0  0  0  0  0  0  0  0  0  0  0  0
  -30.2560  -12.4950   18.7890 C   0  0  0  0  0  2  0  0  0  0  0  0
  -29.2160  -12.4300   17.6450 C   0  0  0  0  0  2  0  0  0  0  0  0
  -27.7940  -12.2180   18.2000 C   0  0  0  0  0  2  0  0  0  0  0  0
  -27.4850  -13.1520   19.3990 C   0  0  0  0  0  3  0  0  0  0  0  0
  -28.6330  -13.1430   20.4320 C   0  0  0  0  0  2  0  0  0  0  0  0
  -29.8520  -13.5790   19.7290 N   0  0  0  0  0  0  0  0  0  0  0  0
  -31.5020  -14.9750   19.1430 O   0  0  0  0  0  0  0  0  0  0  0  0
  -25.1760  -13.7260   20.3560 C   0  0  0  0  0  0  0  0  0  0  0  0
  -24.1470  -12.9520   20.8110 C   0  0  0  0  0  0  0  0  0  0  0  0
  -24.5920  -11.5990   20.6930 C   0  0  0  0  0  0  0  0  0  0  0  0
  -26.1900  -12.8520   20.0030 N   0  0  0  0  0  0  0  0  0  0  0  0
  -25.8480  -11.5620   20.2610 N   0  0  0  0  0  0  0  0  0  0  0  0
  -23.8710  -10.3380   20.9080 C   0  0  0  0  0  0  0  0  0  0  0  0
  -24.3260   -9.3770   21.8360 C   0  0  0  0  0  3  0  0  0  0  0  0
  -23.6020   -8.1820   22.0400 C   0  0  0  0  0  3  0  0  0  0  0  0
  -22.4110   -7.9410   21.3170 C   0  0  0  0  0  0  0  0  0  0  0  0
  -21.9740   -8.8930   20.3780 C   0  0  0  0  0  3  0  0  0  0  0  0
  -22.6980  -10.0780   20.1710 C   0  0  0  0  0  3  0  0  0  0  0  0
  -21.6560   -6.7990   21.4310 O   0  0  0  0  0  0  0  0  0  0  0  0
  -21.5880   -6.0970   22.6090 C   0  0  0  0  0  0  0  0  0  0  0  0
  -21.1120   -6.6870   23.8000 C   0  0  0  0  0  3  0  0  0  0  0  0
  -20.9920   -5.9120   24.9710 C   0  0  0  0  0  3  0  0  0  0  0  0
  -21.3370   -4.5460   24.9500 C   0  0  0  0  0  0  0  0  0  0  0  0
  -21.8060   -3.9570   23.7630 C   0  0  0  0  0  3  0  0  0  0  0  0
  -21.9280   -4.7290   22.5950 C   0  0  0  0  0  0  0  0  0  0  0  0
  -22.3590   -4.1510   21.4490 F   0  0  0  0  0  0  0  0  0  0  0  0
  -21.2150   -3.7990   26.0720 F   0  0  0  0  0  0  0  0  0  0  0  0
  -22.7890  -13.4340   21.2310 C   0  0  0  0  0  0  0  0  0  0  0  0
  -22.1450  -12.7240   22.1510 N   0  0  0  0  0  0  0  0  0  0  0  0
  -22.3120  -14.4730   20.7800 O   0  0  0  0  0  0  0  0  0  0  0  0
  -22.5460  -11.8820   22.5370 H   0  0  0  0  0  0  0  0  0  0  0  0
  -21.2380  -13.0280   22.4760 H   0  0  0  0  0  0  0  0  0  0  0  0
  -25.3210  -15.0970   20.1840 N   0  0  0  0  0  0  0  0  0  0  0  0
  -24.5520  -15.7370   20.3510 H   0  0  0  0  0  0  0  0  0  0  0  0
  -26.0980  -15.5270   19.7010 H   0  0  0  0  0  0  0  0  0  0  0  0
  -28.4950  -22.0280   19.5310 O   0  0  0  0  0  0  0  0  0  0  0  0
  -29.0800  -23.4250   19.6730 C   0  0  0  0  0  3  0  0  0  0  0  0
  -28.0820  -24.7440   19.4180 C   0  0  0  0  0  3  0  0  0  0  0  0
  -28.3360  -26.2490   19.6650 O   0  0  0  0  0  0  0  0  0  0  0  0
  -24.6430  -31.6540   23.0060 C   0  0  0  0  0  0  0  0  0  0  0  0
  -27.2450  -27.1850   19.6750 C   0  0  0  0  0  0  0  0  0  0  0  0
  -23.4300  -30.3190   21.3260 C   0  0  0  0  0  3  0  0  0  0  0  0
  -24.8730  -28.8540   19.7900 C   0  0  0  0  0  0  0  0  0  0  0  0
  -25.9710  -30.6550   21.1110 C   0  0  0  0  0  2  0  0  0  0  0  0
  -26.0570  -29.3020   20.3900 C   0  0  0  0  0  0  0  0  0  0  0  0
  -27.2430  -28.4850   20.3160 C   0  0  0  0  0  3  0  0  0  0  0  0
  -26.0280  -26.8320   19.0480 C   0  0  0  0  0  3  0  0  0  0  0  0
  -24.8690  -27.6310   19.1050 C   0  0  0  0  0  3  0  0  0  0  0  0
  -23.6280  -29.7180   19.9090 C   0  0  0  0  0  2  0  0  0  0  0  0
  -24.7020  -30.8930   21.8710 N   0  0  0  0  0  0  0  0  0  0  0  0
  -23.5660  -31.8880   23.5740 O   0  0  0  0  0  0  0  0  0  0  0  0
  -22.7960  -29.2490   22.2500 C   0  0  0  0  0  0  0  0  0  0  0  0
  -21.4680  -29.0590   22.1480 N   0  0  0  0  0  0  0  0  0  0  0  0
  -23.5000  -28.5930   23.0230 O   0  0  0  0  0  0  0  0  0  0  0  0
  -20.9560  -29.6430   21.5000 H   0  0  0  0  0  0  0  0  0  0  0  0
  -18.1200  -27.7860   22.6790 C   0  0  0  0  0  0  0  0  0  0  0  0
  -20.6820  -28.0710   22.8890 C   0  0  0  0  0  3  0  0  0  0  0  0
  -20.7870  -26.6720   22.2360 C   0  0  0  0  0  2  0  0  0  0  0  0
  -19.6600  -26.3880   21.2370 C   0  0  0  0  0  2  0  0  0  0  0  0
  -18.2960  -26.4780   21.9260 C   0  0  0  0  0  2  0  0  0  0  0  0
  -19.2400  -28.5400   23.1170 C   0  0  0  0  0  0  0  0  0  0  0  0
  -19.0210  -29.7650   23.7840 C   0  0  0  0  0  3  0  0  0  0  0  0
  -17.7140  -30.2350   24.0160 C   0  0  0  0  0  3  0  0  0  0  0  0
  -16.6090  -29.4770   23.5930 C   0  0  0  0  0  3  0  0  0  0  0  0
  -16.8130  -28.2540   22.9300 C   0  0  0  0  0  3  0  0  0  0  0  0
  -25.9250  -32.2810   23.6330 C   0  0  0  0  0  3  0  0  0  0  0  0
  -26.4840  -31.4560   24.8580 C   0  0  1  0  0  0  0  0  0  0  0  0
  -25.4210  -31.1490   25.9380 C   0  0  0  0  0  1  0  0  0  0  0  0
  -27.0780  -30.1090   24.3870 C   0  0  0  0  0  1  0  0  0  0  0  0
  -27.6380  -32.2350   25.5310 C   0  0  0  0  0  1  0  0  0  0  0  0
  -25.5950  -33.6540   24.0480 N   0  0  0  0  0  0  0  0  0  0  0  0
  -25.9010  -34.7570   23.3510 C   0  0  0  0  0  0  0  0  0  0  0  0
  -26.5590  -34.7260   22.3080 O   0  0  0  0  0  0  0  0  0  0  0  0
  -25.0080  -33.7500   24.8620 H   0  0  0  0  0  0  0  0  0  0  0  0
  -24.1380  -36.5400   23.1320 C   0  0  0  0  0  1  0  0  0  0  0  0
  -25.3990  -36.1080   23.8980 C   0  0  0  0  0  3  0  0  0  0  0  0
  -27.5290  -36.9850   24.7520 C   0  0  0  0  0  1  0  0  0  0  0  0
  -26.4130  -37.1830   23.8310 N   0  0  0  0  0  0  0  0  0  0  0  0
  -25.9930  -38.0870   24.0320 H   0  0  0  0  0  0  0  0  0  0  0  0
  1  2  2  0
  2  6  1  0
  2  3  1  0
  3 10  1  0
  4  3  2  0
  4  7  1  0
  5  1  1  0
  5  8  2  0
  8  4  1  0
 10  9  1  0
 11 17  1  0
 11 10  1  0
 12 17  1  0
 13 14  1  0
 13 12  1  0
 15 14  1  0
 15 22  1  0
 15 16  1  0
 17 16  1  0
 18 11  2  0
 19 20  2  0
 20 39  1  0
 21 20  1  0
 21 24  1  0
 22 23  1  0
 22 19  1  0
 23 21  2  0
 24 25  1  0
 25 26  2  0
 27 30  1  0
 27 26  1  0
 28 27  2  0
 29 28  1  0
 29 24  2  0
 30 31  1  0
 31 32  1  0
 32 33  2  0
 34 33  1  0
 34 38  1  0
 35 34  2  0
 36 31  2  0
 36 35  1  0
 37 36  1  0
 39 40  1  0
 40 43  1  0
 40 42  1  0
 41 39  2  0
 44 45  1  0
 44 19  1  0
 46 44  1  0
 47 48  1  0
 47  5  1  0
 49 50  1  0
 49 48  2  0
 50 52  1  0
 51 62  2  0
 52 57  1  0
 53 61  1  0
 53 63  1  0
 54 60  1  0
 54 56  1  0
 55 61  1  0
 56 55  1  0
 57 56  2  0
 58 59  1  0
 58 52  2  0
 59 54  2  0
 60 53  1  0
 61 51  1  0
 63 65  2  0
 64 63  1  0
 66 64  1  0
 67 76  2  0
 67 72  1  0
 68 64  1  0
 68 72  1  0
 69 68  1  0
 70 71  1  0
 70 69  1  0
 71 67  1  0
 72 73  2  0
 73 74  1  0
 75 74  2  0
 76 75  1  0
 77 51  1  0
 77 82  1  0
 77 78  1  0
 78 81  1  1
 78 79  1  0
 80 78  1  0
 82 85  1  0
 83 87  1  0
 83 82  1  0
 84 83  2  0
 87 86  1  0
 89 87  1  0
 89 90  1  0
 89 88  1  0
M  ISO  4  10 100  11 100  49 101  50 101
M  END
>  <TORSDO>  (59) 
F 20

>  <SCORE>  (59) 
-13.204

>  <name>  (59) 
58

>  <ligand_id>  (59) 
58

>  <original_smiles>  (59) 
[H]c1c([H])c([H])c2c(c1[H])C([H])([H])C([H])([H])C([H])([H])C2([H])N([H])C(=O)C1([H])N(C(=O)C([H])(N([H])C(=O)C([H])(N([H])C([H])([H])[H])C([H])([H])[H])C(C([H])([H])[H])(C([H])([H])[H])C([H])([H])[H])C([H])([H])c2c([H])c(OC([H])([H])C([H])([H])Oc3nc(C([H])([H])[H])c(C([H])(C(=O)N4C([H])([H])C([H])([H])C([H])([H])C([H])(n5nc(-c6c([H])c([H])c(Oc7c([H])c([H])c(F)c([H])c7F)c([H])c6[H])c(C(=O)N([H])[H])c5N([H])[H])C4([H])[H])C([H])([H])[H])c(C([H])([H])[H])c3[H])c([H])c([H])c2C1([H])[H]

>  <smiles>  (59) 
[H]c1c([H])c([H])c2c(c1[H])C([H])([H])C([H])([H])C([H])([H])C2([H])N([H])C(=O)C1([H])N(C(=O)C([H])(N([H])C(=O)C([H])(N([H])C([H])([H])[H])C([H])([H])[H])C(C([H])([H])[H])(C([H])([H])[H])C([H])([H])[H])C([H])([H])c2c([H])c(OC([H])([H])C([H])([H])Oc3nc(C([H])([H])[H])c(C([H])(C(=O)N4C([H])([H])C([H])([H])C([H])([H])C([H])(n5nc(-c6c([H])c([H])c(Oc7c([H])c([H])c(F)c([H])c7F)c([H])c6[H])c(C(=O)N([H])[H])c5N([H])[H])C4([H])[H])C([H])([H])[H])c(C([H])([H])[H])c3[H])c([H])c([H])c2C1([H])[H]

$$$$
59:0:0
     RDKit          3D

 96106  0  0  1  0  0  0  0  0999 V2000
  -29.6040  -21.5270   21.7900 C   0  0  0  0  0  2  0  0  0  0  0  0
  -27.9870  -21.0000   19.8600 C   0  0  0  0  0  2  0  0  0  0  0  0
  -28.7890  -22.8110   22.0290 C   0  0  0  0  0  2  0  0  0  0  0  0
  -27.2840  -22.3210   20.1860 C   0  0  0  0  0  2  0  0  0  0  0  0
  -28.8100  -20.4280   21.0380 C   0  0  0  0  0  3  0  0  0  0  0  0
  -28.2660  -23.2930   20.7290 N   0  0  1  0  0  4  0  0  0  0  0  0
  -29.0480  -23.2840   20.0900 H   0  0  0  0  0  0  0  0  0  0  0  0
  -31.4320  -17.2970   19.2260 C   0  0  0  0  0  3  0  0  0  0  0  0
  -29.6550  -17.9720   20.8520 C   0  0  0  0  0  3  0  0  0  0  0  0
  -31.5010  -18.6490   18.9300 C   0  0  0  0  0  0  0  0  0  0  0  0
  -29.7370  -19.3520   20.4970 C   0  0  0  0  0  0  0  0  0  0  0  0
  -30.4800  -16.9590   20.2470 C   0  0  0  0  0  0  0  0  0  0  0  0
  -30.6980  -19.6480   19.5280 C   0  0  0  0  0  0  0  0  0  0  0  0
  -32.1130  -19.6930   18.0670 C   0  0  0  0  0  2  0  0  0  0  0  0
  -31.2090  -20.6790   18.7690 O   0  0  0  0  0  0  0  0  0  0  0  0
  -30.9710  -14.5290   20.2790 C   0  0  0  0  0  0  0  0  0  0  0  0
  -30.6060  -12.3870   19.1590 C   0  0  0  0  0  2  0  0  0  0  0  0
  -29.6580  -12.6370   17.9680 C   0  0  0  0  0  2  0  0  0  0  0  0
  -28.1880  -12.5190   18.4160 C   0  0  0  0  0  2  0  0  0  0  0  0
  -27.8780  -13.3460   19.6930 C   0  0  0  0  0  3  0  0  0  0  0  0
  -28.9490  -13.1110   20.7850 C   0  0  0  0  0  2  0  0  0  0  0  0
  -30.2690  -13.3730   20.1950 N   0  0  0  0  0  0  0  0  0  0  0  0
  -32.1350  -14.6260   19.8860 O   0  0  0  0  0  0  0  0  0  0  0  0
  -30.2620  -15.6070   20.6530 N   0  0  0  0  0  0  0  0  0  0  0  0
  -29.3800  -15.4100   21.1000 H   0  0  0  0  0  0  0  0  0  0  0  0
  -25.4950  -13.9560   20.4530 C   0  0  0  0  0  0  0  0  0  0  0  0
  -24.4290  -13.1850   20.8310 C   0  0  0  0  0  0  0  0  0  0  0  0
  -24.8820  -11.8330   20.7750 C   0  0  0  0  0  0  0  0  0  0  0  0
  -26.5310  -13.0730   20.1930 N   0  0  0  0  0  0  0  0  0  0  0  0
  -26.1670  -11.7900   20.4440 N   0  0  0  0  0  0  0  0  0  0  0  0
  -24.1530  -10.5700   20.9600 C   0  0  0  0  0  0  0  0  0  0  0  0
  -24.5530   -9.6200   21.9250 C   0  0  0  0  0  3  0  0  0  0  0  0
  -23.8250   -8.4230   22.0970 C   0  0  0  0  0  3  0  0  0  0  0  0
  -22.6820   -8.1690   21.3030 C   0  0  0  0  0  0  0  0  0  0  0  0
  -22.3000   -9.1080   20.3280 C   0  0  0  0  0  3  0  0  0  0  0  0
  -23.0300  -10.2960   20.1550 C   0  0  0  0  0  3  0  0  0  0  0  0
  -21.9270   -7.0230   21.3820 O   0  0  0  0  0  0  0  0  0  0  0  0
  -21.7830   -6.3370   22.5610 C   0  0  0  0  0  0  0  0  0  0  0  0
  -21.2130   -6.9320   23.7070 C   0  0  0  0  0  3  0  0  0  0  0  0
  -21.0200   -6.1680   24.8750 C   0  0  0  0  0  3  0  0  0  0  0  0
  -21.3900   -4.8100   24.8980 C   0  0  0  0  0  0  0  0  0  0  0  0
  -21.9520   -4.2140   23.7550 C   0  0  0  0  0  3  0  0  0  0  0  0
  -22.1460   -4.9740   22.5890 C   0  0  0  0  0  0  0  0  0  0  0  0
  -22.6700   -4.3900   21.4850 F   0  0  0  0  0  0  0  0  0  0  0  0
  -21.1990   -4.0730   26.0170 F   0  0  0  0  0  0  0  0  0  0  0  0
  -23.0380  -13.6660   21.1340 C   0  0  0  0  0  0  0  0  0  0  0  0
  -22.3210  -12.9620   22.0000 N   0  0  0  0  0  0  0  0  0  0  0  0
  -22.5980  -14.7010   20.6350 O   0  0  0  0  0  0  0  0  0  0  0  0
  -22.6890  -12.1240   22.4260 H   0  0  0  0  0  0  0  0  0  0  0  0
  -21.3880  -13.2660   22.2450 H   0  0  0  0  0  0  0  0  0  0  0  0
  -25.6640  -15.3280   20.2900 N   0  0  0  0  0  0  0  0  0  0  0  0
  -24.9020  -15.9840   20.4220 H   0  0  0  0  0  0  0  0  0  0  0  0
  -26.5070  -15.7660   19.9380 H   0  0  0  0  0  0  0  0  0  0  0  0
  -27.7550  -24.6850   20.7030 C   0  0  0  0  0  2  0  0  0  0  0  0
  -28.8300  -25.7880   20.8910 C   0  0  0  0  0  2  0  0  0  0  0  0
  -28.6780  -26.9040   20.0050 O   0  0  0  0  0  0  0  0  0  0  0  0
  -24.6680  -31.8370   23.2370 C   0  0  0  0  0  0  0  0  0  0  0  0
  -27.4880  -27.5870   20.0690 C   0  0  0  0  0  0  0  0  0  0  0  0
  -23.5350  -30.4620   21.5230 C   0  0  0  0  0  3  0  0  0  0  0  0
  -25.0580  -29.0160   20.0860 C   0  0  0  0  0  0  0  0  0  0  0  0
  -26.0530  -30.8910   21.4000 C   0  0  0  0  0  2  0  0  0  0  0  0
  -26.1850  -29.5440   20.7280 C   0  0  0  0  0  0  0  0  0  0  0  0
  -27.4040  -28.8290   20.7320 C   0  0  0  0  0  3  0  0  0  0  0  0
  -26.3540  -27.0950   19.3850 C   0  0  0  0  0  3  0  0  0  0  0  0
  -25.1340  -27.7860   19.4180 C   0  0  0  0  0  3  0  0  0  0  0  0
  -23.7920  -29.8380   20.1270 C   0  0  0  0  0  2  0  0  0  0  0  0
  -24.7680  -31.0760   22.1110 N   0  0  0  0  0  0  0  0  0  0  0  0
  -23.5670  -32.0640   23.7590 O   0  0  0  0  0  0  0  0  0  0  0  0
  -22.8930  -29.3890   22.4310 C   0  0  0  0  0  0  0  0  0  0  0  0
  -21.5690  -29.2030   22.2940 N   0  0  0  0  0  0  0  0  0  0  0  0
  -23.5810  -28.7280   23.2130 O   0  0  0  0  0  0  0  0  0  0  0  0
  -21.0750  -29.7890   21.6360 H   0  0  0  0  0  0  0  0  0  0  0  0
  -18.1910  -28.0290   22.7930 C   0  0  0  0  0  0  0  0  0  0  0  0
  -20.7580  -28.2250   23.0180 C   0  0  0  0  0  3  0  0  0  0  0  0
  -20.8230  -26.8370   22.3380 C   0  0  0  0  0  2  0  0  0  0  0  0
  -19.6900  -26.6050   21.3340 C   0  0  0  0  0  2  0  0  0  0  0  0
  -18.3270  -26.7270   22.0230 C   0  0  0  0  0  2  0  0  0  0  0  0
  -19.3330  -28.7410   23.2460 C   0  0  0  0  0  0  0  0  0  0  0  0
  -19.1510  -29.9640   23.9260 C   0  0  0  0  0  3  0  0  0  0  0  0
  -17.8600  -30.4740   24.1600 C   0  0  0  0  0  3  0  0  0  0  0  0
  -16.7330  -29.7580   23.7240 C   0  0  0  0  0  3  0  0  0  0  0  0
  -16.8990  -28.5370   23.0460 C   0  0  0  0  0  3  0  0  0  0  0  0
  -25.9230  -32.4790   23.9060 C   0  0  0  0  0  3  0  0  0  0  0  0
  -26.4080  -31.7020   25.1900 C   0  0  1  0  0  0  0  0  0  0  0  0
  -25.2820  -31.4320   26.2140 C   0  0  0  0  0  1  0  0  0  0  0  0
  -27.0310  -30.3410   24.8020 C   0  0  0  0  0  1  0  0  0  0  0  0
  -27.5190  -32.5090   25.9010 C   0  0  0  0  0  1  0  0  0  0  0  0
  -25.5860  -33.8700   24.2320 N   0  0  0  0  0  0  0  0  0  0  0  0
  -25.9130  -34.9280   23.4780 C   0  0  0  0  0  0  0  0  0  0  0  0
  -26.6050  -34.8370   22.4600 O   0  0  0  0  0  0  0  0  0  0  0  0
  -24.9760  -34.0150   25.0240 H   0  0  0  0  0  0  0  0  0  0  0  0
  -24.1590  -36.6870   23.0940 C   0  0  0  0  0  1  0  0  0  0  0  0
  -25.3930  -36.3070   23.9270 C   0  0  0  0  0  3  0  0  0  0  0  0
  -27.4900  -37.2350   24.8040 C   0  0  0  0  0  1  0  0  0  0  0  0
  -26.4090  -37.3770   23.8320 N   0  0  0  0  0  0  0  0  0  0  0  0
  -25.9820  -38.2900   23.9670 H   0  0  0  0  0  0  0  0  0  0  0  0
  1  3  1  0
  2  4  1  0
  2  5  1  0
  4  6  1  0
  5 11  1  0
  5  1  1  0
  6  3  1  0
  6  7  1  6
  8 12  1  0
 10  8  2  0
 10 13  1  0
 11  9  1  0
 12 24  1  0
 12  9  2  0
 13 11  2  0
 14 15  1  0
 14 10  1  0
 15 13  1  0
 16 24  1  0
 17 22  1  0
 18 19  1  0
 18 17  1  0
 20 19  1  0
 20 29  1  0
 20 21  1  0
 22 16  1  0
 22 21  1  0
 23 16  2  0
 24 25  1  0
 26 27  2  0
 27 46  1  0
 28 27  1  0
 28 31  1  0
 29 30  1  0
 29 26  1  0
 30 28  2  0
 31 32  1  0
 32 33  2  0
 34 37  1  0
 34 33  1  0
 35 34  2  0
 36 35  1  0
 36 31  2  0
 37 38  1  0
 38 43  2  0
 38 39  1  0
 39 40  2  0
 40 41  1  0
 41 45  1  0
 42 41  2  0
 43 42  1  0
 44 43  1  0
 46 47  1  0
 47 50  1  0
 47 49  1  0
 48 46  2  0
 51 52  1  0
 51 26  1  0
 53 51  1  0
 54  6  1  0
 54 55  1  0
 56 58  1  0
 56 55  1  0
 57 68  2  0
 58 63  1  0
 59 67  1  0
 59 69  1  0
 60 66  1  0
 60 62  1  0
 61 67  1  0
 62 63  2  0
 62 61  1  0
 64 65  1  0
 64 58  2  0
 65 60  2  0
 66 59  1  0
 67 57  1  0
 69 71  2  0
 70 69  1  0
 72 70  1  0
 73 82  2  0
 73 78  1  0
 74 70  1  0
 74 78  1  0
 75 74  1  0
 76 77  1  0
 76 75  1  0
 77 73  1  0
 78 79  2  0
 79 80  1  0
 81 80  2  0
 82 81  1  0
 83 57  1  0
 83 88  1  0
 83 84  1  0
 84 87  1  1
 84 85  1  0
 86 84  1  0
 88 91  1  0
 89 93  1  0
 89 88  1  0
 90 89  2  0
 93 92  1  0
 95 93  1  0
 95 96  1  0
 95 94  1  0
M  ISO  4  16 100  24 100  55 101  56 101
M  END
>  <TORSDO>  (60) 
F 19

>  <SCORE>  (60) 
-14.362

>  <name>  (60) 
59

>  <ligand_id>  (60) 
59

>  <original_smiles>  (60) 
[H]c1c([H])c([H])c2c(c1[H])C([H])([H])C([H])([H])C([H])([H])C2([H])N([H])C(=O)C1([H])N(C(=O)C([H])(N([H])C(=O)C([H])(N([H])C([H])([H])[H])C([H])([H])[H])C(C([H])([H])[H])(C([H])([H])[H])C([H])([H])[H])C([H])([H])c2c([H])c(OC([H])([H])C([H])([H])[N+]3([H])C([H])([H])C([H])([H])C([H])(c4c([H])c(N([H])C(=O)N5C([H])([H])C([H])([H])C([H])([H])C([H])(n6nc(-c7c([H])c([H])c(Oc8c([H])c([H])c(F)c([H])c8F)c([H])c7[H])c(C(=O)N([H])[H])c6N([H])[H])C5([H])[H])c([H])c5c4OC5([H])[H])C([H])([H])C3([H])[H])c([H])c([H])c2C1([H])[H]

>  <smiles>  (60) 
[H]c1c([H])c([H])c2c(c1[H])C([H])([H])C([H])([H])C([H])([H])C2([H])N([H])C(=O)C1([H])N(C(=O)C([H])(N([H])C(=O)C([H])(N([H])C([H])([H])[H])C([H])([H])[H])C(C([H])([H])[H])(C([H])([H])[H])C([H])([H])[H])C([H])([H])c2c([H])c(OC([H])([H])C([H])([H])[N+]3([H])C([H])([H])C([H])([H])C([H])(c4c([H])c(N([H])C(=O)N5C([H])([H])C([H])([H])C([H])([H])C([H])(n6nc(-c7c([H])c([H])c(Oc8c([H])c([H])c(F)c([H])c8F)c([H])c7[H])c(C(=O)N([H])[H])c6N([H])[H])C5([H])[H])c([H])c5c4OC5([H])[H])C([H])([H])C3([H])[H])c([H])c([H])c2C1([H])[H]

$$$$
60:0:0
     RDKit          3D

 95104  0  0  1  0  0  0  0  0999 V2000
  -27.8030  -22.3480   19.1400 C   0  0  0  0  0  2  0  0  0  0  0  0
  -27.3790  -23.8570   19.2290 C   0  0  0  0  0  2  0  0  0  0  0  0
  -29.0870  -22.0950   19.9620 C   0  0  0  0  0  3  0  0  0  0  0  0
  -28.3790  -24.7010   20.0680 C   0  0  0  0  0  3  0  0  0  0  0  0
  -29.6060  -23.6360   20.0430 C   0  0  0  0  0  3  0  0  0  0  0  0
  -30.4670  -20.9930   17.9780 C   0  0  0  0  0  1  0  0  0  0  0  0
  -30.0900  -20.8570   19.4660 C   0  0  0  0  0  3  0  0  0  0  0  0
  -30.8530  -14.8700   19.4570 C   0  0  0  0  0  0  0  0  0  0  0  0
  -30.5490  -12.5600   18.4600 C   0  0  0  0  0  2  0  0  0  0  0  0
  -29.4660  -12.5420   17.3560 C   0  0  0  0  0  2  0  0  0  0  0  0
  -28.0630  -12.3460   17.9630 C   0  0  0  0  0  2  0  0  0  0  0  0
  -27.8270  -13.2170   19.2230 C   0  0  0  0  0  3  0  0  0  0  0  0
  -29.0320  -13.1780   20.1900 C   0  0  0  0  0  2  0  0  0  0  0  0
  -30.1970  -13.6370   19.4330 N   0  0  0  0  0  0  0  0  0  0  0  0
  -31.9940  -14.8740   18.9870 O   0  0  0  0  0  0  0  0  0  0  0  0
  -31.2300  -17.1140   20.6100 C   0  0  0  0  0  2  0  0  0  0  0  0
  -31.2680  -18.6170   20.0770 C   0  0  0  0  0  2  0  0  0  0  0  0
  -29.1490  -18.3500   19.0700 C   0  0  0  0  0  2  0  0  0  0  0  0
  -29.0320  -16.8660   19.7180 C   0  0  0  0  0  3  0  0  0  0  0  0
  -30.3250  -16.1020   19.9660 N   0  0  0  0  0  0  0  0  0  0  0  0
  -29.9530  -19.3370   19.8880 N   0  0  2  0  0  4  0  0  0  0  0  0
  -29.5220  -19.3620   20.8010 H   0  0  0  0  0  0  0  0  0  0  0  0
  -25.5850  -13.7600   20.3320 C   0  0  0  0  0  0  0  0  0  0  0  0
  -24.5730  -12.9710   20.8020 C   0  0  0  0  0  0  0  0  0  0  0  0
  -24.9940  -11.6250   20.5880 C   0  0  0  0  0  0  0  0  0  0  0  0
  -26.5680  -12.8960   19.8830 N   0  0  0  0  0  0  0  0  0  0  0  0
  -26.2260  -11.5990   20.0910 N   0  0  0  0  0  0  0  0  0  0  0  0
  -24.2660  -10.3660   20.7680 C   0  0  0  0  0  0  0  0  0  0  0  0
  -24.7490   -9.3490   21.6190 C   0  0  0  0  0  3  0  0  0  0  0  0
  -24.0200   -8.1530   21.7900 C   0  0  0  0  0  3  0  0  0  0  0  0
  -22.7930   -7.9680   21.1100 C   0  0  0  0  0  0  0  0  0  0  0  0
  -22.3300   -8.9730   20.2440 C   0  0  0  0  0  3  0  0  0  0  0  0
  -23.0600  -10.1590   20.0700 C   0  0  0  0  0  3  0  0  0  0  0  0
  -22.0250   -6.8310   21.2000 O   0  0  0  0  0  0  0  0  0  0  0  0
  -21.9900   -6.0760   22.3450 C   0  0  0  0  0  0  0  0  0  0  0  0
  -21.5850   -6.6180   23.5840 C   0  0  0  0  0  3  0  0  0  0  0  0
  -21.4960   -5.7900   24.7190 C   0  0  0  0  0  3  0  0  0  0  0  0
  -21.8000   -4.4180   24.6200 C   0  0  0  0  0  0  0  0  0  0  0  0
  -22.1980   -3.8750   23.3860 C   0  0  0  0  0  3  0  0  0  0  0  0
  -22.2900   -4.7020   22.2520 C   0  0  0  0  0  0  0  0  0  0  0  0
  -22.6550   -4.1680   21.0610 F   0  0  0  0  0  0  0  0  0  0  0  0
  -21.7080   -3.6230   25.7110 F   0  0  0  0  0  0  0  0  0  0  0  0
  -23.2450  -13.4480   21.3160 C   0  0  0  0  0  0  0  0  0  0  0  0
  -22.6330  -12.7060   22.2330 N   0  0  0  0  0  0  0  0  0  0  0  0
  -22.7630  -14.5170   20.9440 O   0  0  0  0  0  0  0  0  0  0  0  0
  -23.0360  -11.8400   22.5640 H   0  0  0  0  0  0  0  0  0  0  0  0
  -21.7450  -13.0060   22.6100 H   0  0  0  0  0  0  0  0  0  0  0  0
  -25.7320  -15.1350   20.2210 N   0  0  0  0  0  0  0  0  0  0  0  0
  -25.0090  -15.7770   20.5270 H   0  0  0  0  0  0  0  0  0  0  0  0
  -26.5280  -15.5970   19.8100 H   0  0  0  0  0  0  0  0  0  0  0  0
  -28.0530  -15.9580   22.0530 C   0  0  0  0  0  1  0  0  0  0  0  0
  -28.1900  -17.0850   21.0210 C   0  0  0  0  0  2  0  0  0  0  0  0
  -31.0180  -24.9750   21.4380 C   0  0  0  0  0  1  0  0  0  0  0  0
  -30.4060  -23.7100   21.2220 O   0  0  0  0  0  0  0  0  0  0  0  0
  -28.5220  -26.2110   19.7440 O   0  0  0  0  0  0  0  0  0  0  0  0
  -24.6840  -31.6080   22.9180 C   0  0  0  0  0  0  0  0  0  0  0  0
  -27.4110  -27.1190   19.7400 C   0  0  0  0  0  0  0  0  0  0  0  0
  -23.5250  -30.2300   21.2350 C   0  0  0  0  0  3  0  0  0  0  0  0
  -25.0220  -28.7590   19.7630 C   0  0  0  0  0  0  0  0  0  0  0  0
  -26.0660  -30.5970   21.0770 C   0  0  0  0  0  2  0  0  0  0  0  0
  -26.1850  -29.2330   20.3820 C   0  0  0  0  0  0  0  0  0  0  0  0
  -27.3830  -28.4290   20.3540 C   0  0  0  0  0  3  0  0  0  0  0  0
  -26.2240  -26.7520   19.0730 C   0  0  0  0  0  3  0  0  0  0  0  0
  -25.0520  -27.5300   19.0920 C   0  0  0  0  0  3  0  0  0  0  0  0
  -23.7640  -29.6070   19.8350 C   0  0  0  0  0  2  0  0  0  0  0  0
  -24.7770  -30.8310   21.7980 N   0  0  0  0  0  0  0  0  0  0  0  0
  -23.5900  -31.8390   23.4570 O   0  0  0  0  0  0  0  0  0  0  0  0
  -22.8850  -29.1660   22.1630 C   0  0  0  0  0  0  0  0  0  0  0  0
  -21.5550  -28.9920   22.0660 N   0  0  0  0  0  0  0  0  0  0  0  0
  -23.5860  -28.5030   22.9300 O   0  0  0  0  0  0  0  0  0  0  0  0
  -21.0460  -29.5820   21.4230 H   0  0  0  0  0  0  0  0  0  0  0  0
  -18.1930  -27.7610   22.6200 C   0  0  0  0  0  0  0  0  0  0  0  0
  -20.7610  -28.0110   22.8120 C   0  0  0  0  0  3  0  0  0  0  0  0
  -20.8400  -26.6130   22.1550 C   0  0  0  0  0  2  0  0  0  0  0  0
  -19.7020  -26.3470   21.1630 C   0  0  0  0  0  2  0  0  0  0  0  0
  -18.3450  -26.4530   21.8620 C   0  0  0  0  0  2  0  0  0  0  0  0
  -19.3270  -28.5010   23.0500 C   0  0  0  0  0  0  0  0  0  0  0  0
  -19.1270  -29.7280   23.7180 C   0  0  0  0  0  3  0  0  0  0  0  0
  -17.8290  -30.2150   23.9600 C   0  0  0  0  0  3  0  0  0  0  0  0
  -16.7110  -29.4710   23.5440 C   0  0  0  0  0  3  0  0  0  0  0  0
  -16.8950  -28.2470   22.8790 C   0  0  0  0  0  3  0  0  0  0  0  0
  -25.9440  -32.2600   23.5650 C   0  0  0  0  0  3  0  0  0  0  0  0
  -26.5030  -31.4410   24.7930 C   0  0  1  0  0  0  0  0  0  0  0  0
  -25.4320  -31.1040   25.8560 C   0  0  0  0  0  1  0  0  0  0  0  0
  -27.1360  -30.1100   24.3250 C   0  0  0  0  0  1  0  0  0  0  0  0
  -27.6310  -32.2450   25.4850 C   0  0  0  0  0  1  0  0  0  0  0  0
  -25.5780  -33.6230   23.9800 N   0  0  0  0  0  0  0  0  0  0  0  0
  -25.8770  -34.7360   23.2960 C   0  0  0  0  0  0  0  0  0  0  0  0
  -26.5570  -34.7230   22.2660 O   0  0  0  0  0  0  0  0  0  0  0  0
  -24.9740  -33.7030   24.7860 H   0  0  0  0  0  0  0  0  0  0  0  0
  -24.1040  -36.4980   23.0300 C   0  0  0  0  0  1  0  0  0  0  0  0
  -25.3380  -36.0730   23.8400 C   0  0  0  0  0  3  0  0  0  0  0  0
  -27.4230  -36.9590   24.7850 C   0  0  0  0  0  1  0  0  0  0  0  0
  -26.3400  -37.1610   23.8280 N   0  0  0  0  0  0  0  0  0  0  0  0
  -25.9020  -38.0560   24.0250 H   0  0  0  0  0  0  0  0  0  0  0  0
  1  2  1  0
  1  3  1  0
  2  4  1  0
  3  7  1  0
  3  5  1  0
  4 55  1  0
  5  4  1  0
  5 54  1  0
  7  6  1  0
  7 21  1  0
  8 20  1  0
  9 14  1  0
 10 11  1  0
 10  9  1  0
 12 11  1  0
 12 26  1  0
 12 13  1  0
 14  8  1  0
 14 13  1  0
 15  8  2  0
 17 16  1  0
 18 19  1  0
 18 21  1  0
 19 20  1  0
 19 52  1  0
 20 16  1  0
 21 17  1  0
 21 22  1  1
 23 24  2  0
 24 43  1  0
 25 28  1  0
 25 24  1  0
 26 27  1  0
 26 23  1  0
 27 25  2  0
 28 29  1  0
 29 30  2  0
 31 34  1  0
 31 30  1  0
 32 31  2  0
 33 32  1  0
 33 28  2  0
 34 35  1  0
 35 36  1  0
 36 37  2  0
 38 37  1  0
 38 42  1  0
 39 38  2  0
 40 35  2  0
 40 39  1  0
 41 40  1  0
 43 44  1  0
 44 46  1  0
 44 47  1  0
 45 43  2  0
 48 23  1  0
 48 49  1  0
 50 48  1  0
 52 51  1  0
 54 53  1  0
 56 67  2  0
 57 55  1  0
 57 62  1  0
 58 66  1  0
 58 68  1  0
 59 65  1  0
 59 61  1  0
 60 66  1  0
 61 60  1  0
 62 61  2  0
 63 64  1  0
 63 57  2  0
 64 59  2  0
 65 58  1  0
 66 56  1  0
 68 70  2  0
 69 68  1  0
 71 69  1  0
 72 81  2  0
 72 77  1  0
 73 69  1  0
 73 77  1  0
 74 73  1  0
 75 76  1  0
 75 74  1  0
 76 72  1  0
 77 78  2  0
 78 79  1  0
 80 79  2  0
 81 80  1  0
 82 56  1  0
 82 87  1  0
 82 83  1  0
 83 86  1  1
 83 84  1  0
 85 83  1  0
 87 90  1  0
 88 92  1  0
 88 87  1  0
 89 88  2  0
 92 91  1  0
 94 92  1  0
 94 95  1  0
 94 93  1  0
M  ISO  4   4 101   8 100  20 100  55 101
M  END
>  <TORSDO>  (61) 
F 19

>  <SCORE>  (61) 
-9.385

>  <name>  (61) 
60

>  <ligand_id>  (61) 
60

>  <original_smiles>  (61) 
[H]c1c([H])c([H])c2c(c1[H])C([H])([H])C([H])([H])C([H])([H])C2([H])N([H])C(=O)C1([H])N(C(=O)C([H])(N([H])C(=O)C([H])(N([H])C([H])([H])[H])C([H])([H])[H])C(C([H])([H])[H])(C([H])([H])[H])C([H])([H])[H])C([H])([H])c2c([H])c(OC3([H])C([H])([H])C([H])([H])C([H])(C([H])(C([H])([H])[H])[N+]4([H])C([H])([H])C([H])([H])N(C(=O)N5C([H])([H])C([H])([H])C([H])([H])C([H])(n6nc(-c7c([H])c([H])c(Oc8c([H])c([H])c(F)c([H])c8F)c([H])c7[H])c(C(=O)N([H])[H])c6N([H])[H])C5([H])[H])C([H])(C([H])([H])C([H])([H])[H])C4([H])[H])C3([H])OC([H])([H])[H])c([H])c([H])c2C1([H])[H]

>  <smiles>  (61) 
[H]c1c([H])c([H])c2c(c1[H])C([H])([H])C([H])([H])C([H])([H])C2([H])N([H])C(=O)C1([H])N(C(=O)C([H])(N([H])C(=O)C([H])(N([H])C([H])([H])[H])C([H])([H])[H])C(C([H])([H])[H])(C([H])([H])[H])C([H])([H])[H])C([H])([H])c2c([H])c(OC3([H])C([H])([H])C([H])([H])C([H])(C([H])(C([H])([H])[H])[N+]4([H])C([H])([H])C([H])([H])N(C(=O)N5C([H])([H])C([H])([H])C([H])([H])C([H])(n6nc(-c7c([H])c([H])c(Oc8c([H])c([H])c(F)c([H])c8F)c([H])c7[H])c(C(=O)N([H])[H])c6N([H])[H])C5([H])[H])C([H])(C([H])([H])C([H])([H])[H])C4([H])[H])C3([H])OC([H])([H])[H])c([H])c([H])c2C1([H])[H]

$$$$
61:0:0
     RDKit          3D

 90 99  0  0  1  0  0  0  0  0999 V2000
  -29.1260  -21.2710   21.1480 C   0  0  0  0  0  3  0  0  0  0  0  0
  -29.5590  -21.1600   18.8260 C   0  0  0  0  0  3  0  0  0  0  0  0
  -28.7660  -22.6670   21.0370 C   0  0  0  0  0  3  0  0  0  0  0  0
  -29.2070  -22.5660   18.7170 C   0  0  0  0  0  3  0  0  0  0  0  0
  -29.5030  -20.4200   20.0510 C   0  0  0  0  0  0  0  0  0  0  0  0
  -28.7640  -23.3960   19.8070 C   0  0  0  0  0  0  0  0  0  0  0  0
  -30.8030  -15.0070   19.6530 C   0  0  0  0  0  0  0  0  0  0  0  0
  -30.5330  -12.6990   18.6520 C   0  0  0  0  0  2  0  0  0  0  0  0
  -29.4860  -12.7020   17.5150 C   0  0  0  0  0  2  0  0  0  0  0  0
  -28.0650  -12.4800   18.0720 C   0  0  0  0  0  2  0  0  0  0  0  0
  -27.7850  -13.3500   19.3240 C   0  0  0  0  0  3  0  0  0  0  0  0
  -28.9550  -13.3150   20.3390 C   0  0  0  0  0  2  0  0  0  0  0  0
  -30.1520  -13.7720   19.6170 N   0  0  0  0  0  0  0  0  0  0  0  0
  -31.9680  -15.0300   19.2400 O   0  0  0  0  0  0  0  0  0  0  0  0
  -30.5810  -17.6960   19.4970 C   0  0  0  0  0  2  0  0  0  0  0  0
  -28.8960  -16.5050   20.6040 C   0  0  0  0  0  2  0  0  0  0  0  0
  -29.6900  -18.8030   20.2820 C   0  0  0  0  0  3  0  0  0  0  0  0
  -28.4120  -17.9620   20.3350 C   0  0  0  0  0  3  0  0  0  0  0  0
  -27.3410  -18.4420   21.3190 C   0  0  0  0  0  1  0  0  0  0  0  0
  -30.1270  -16.2530   19.8390 N   0  0  0  0  0  0  0  0  0  0  0  0
  -25.4860  -13.9160   20.3160 C   0  0  0  0  0  0  0  0  0  0  0  0
  -24.4620  -13.1310   20.7640 C   0  0  0  0  0  0  0  0  0  0  0  0
  -24.9080  -11.7820   20.6300 C   0  0  0  0  0  0  0  0  0  0  0  0
  -26.4990  -13.0440   19.9430 N   0  0  0  0  0  0  0  0  0  0  0  0
  -26.1630  -11.7530   20.1920 N   0  0  0  0  0  0  0  0  0  0  0  0
  -24.1900  -10.5170   20.8330 C   0  0  0  0  0  0  0  0  0  0  0  0
  -24.6410   -9.5460   21.7540 C   0  0  0  0  0  3  0  0  0  0  0  0
  -23.9190   -8.3480   21.9430 C   0  0  0  0  0  3  0  0  0  0  0  0
  -22.7300   -8.1120   21.2120 C   0  0  0  0  0  0  0  0  0  0  0  0
  -22.2970   -9.0720   20.2810 C   0  0  0  0  0  3  0  0  0  0  0  0
  -23.0200  -10.2620   20.0890 C   0  0  0  0  0  3  0  0  0  0  0  0
  -21.9780   -6.9670   21.3130 O   0  0  0  0  0  0  0  0  0  0  0  0
  -21.8550   -6.2880   22.5000 C   0  0  0  0  0  0  0  0  0  0  0  0
  -21.3060   -6.8950   23.6510 C   0  0  0  0  0  3  0  0  0  0  0  0
  -21.1360   -6.1430   24.8300 C   0  0  0  0  0  3  0  0  0  0  0  0
  -21.5030   -4.7840   24.8580 C   0  0  0  0  0  0  0  0  0  0  0  0
  -22.0440   -4.1770   23.7120 C   0  0  0  0  0  3  0  0  0  0  0  0
  -22.2180   -4.9270   22.5350 C   0  0  0  0  0  0  0  0  0  0  0  0
  -22.7210   -4.3330   21.4260 F   0  0  0  0  0  0  0  0  0  0  0  0
  -21.3320   -4.0580   25.9870 F   0  0  0  0  0  0  0  0  0  0  0  0
  -23.1020  -13.6070   21.1910 C   0  0  0  0  0  0  0  0  0  0  0  0
  -22.4720  -12.9030   22.1260 N   0  0  0  0  0  0  0  0  0  0  0  0
  -22.6130  -14.6360   20.7310 O   0  0  0  0  0  0  0  0  0  0  0  0
  -22.8800  -12.0670   22.5170 H   0  0  0  0  0  0  0  0  0  0  0  0
  -21.5610  -13.2030   22.4480 H   0  0  0  0  0  0  0  0  0  0  0  0
  -25.6300  -15.2900   20.1670 N   0  0  0  0  0  0  0  0  0  0  0  0
  -24.8800  -15.9430   20.3630 H   0  0  0  0  0  0  0  0  0  0  0  0
  -26.4510  -15.7380   19.7840 H   0  0  0  0  0  0  0  0  0  0  0  0
  -27.9540  -24.8000   19.5850 C   0  0  0  0  0  2  0  0  0  0  0  0
  -28.3330  -26.2620   19.8880 O   0  0  0  0  0  0  0  0  0  0  0  0
  -24.6090  -31.7010   23.1360 C   0  0  0  0  0  0  0  0  0  0  0  0
  -27.2710  -27.2360   19.8570 C   0  0  0  0  0  0  0  0  0  0  0  0
  -23.4310  -30.3640   21.4380 C   0  0  0  0  0  3  0  0  0  0  0  0
  -24.9040  -28.9140   19.9240 C   0  0  0  0  0  0  0  0  0  0  0  0
  -25.9760  -30.7060   21.2670 C   0  0  0  0  0  2  0  0  0  0  0  0
  -26.0800  -29.3560   20.5460 C   0  0  0  0  0  0  0  0  0  0  0  0
  -27.2650  -28.5360   20.4970 C   0  0  0  0  0  3  0  0  0  0  0  0
  -26.0620  -26.9020   19.1950 C   0  0  0  0  0  3  0  0  0  0  0  0
  -24.9060  -27.6970   19.2370 C   0  0  0  0  0  3  0  0  0  0  0  0
  -23.6560  -29.7750   20.0230 C   0  0  0  0  0  2  0  0  0  0  0  0
  -24.6930  -30.9410   22.0030 N   0  0  0  0  0  0  0  0  0  0  0  0
  -23.5200  -31.9330   23.6820 O   0  0  0  0  0  0  0  0  0  0  0  0
  -22.7870  -29.2870   22.3450 C   0  0  0  0  0  0  0  0  0  0  0  0
  -21.4670  -29.0780   22.2030 N   0  0  0  0  0  0  0  0  0  0  0  0
  -23.4760  -28.6460   23.1430 O   0  0  0  0  0  0  0  0  0  0  0  0
  -20.9670  -29.6470   21.5360 H   0  0  0  0  0  0  0  0  0  0  0  0
  -18.1170  -27.7740   22.6570 C   0  0  0  0  0  0  0  0  0  0  0  0
  -20.6710  -28.0850   22.9300 C   0  0  0  0  0  3  0  0  0  0  0  0
  -20.8050  -26.6860   22.2850 C   0  0  0  0  0  2  0  0  0  0  0  0
  -19.7070  -26.3850   21.2600 C   0  0  0  0  0  2  0  0  0  0  0  0
  -18.3230  -26.4640   21.9130 C   0  0  0  0  0  2  0  0  0  0  0  0
  -19.2190  -28.5420   23.1200 C   0  0  0  0  0  0  0  0  0  0  0  0
  -18.9720  -29.7680   23.7760 C   0  0  0  0  0  3  0  0  0  0  0  0
  -17.6570  -30.2270   23.9730 C   0  0  0  0  0  3  0  0  0  0  0  0
  -16.5700  -29.4570   23.5250 C   0  0  0  0  0  3  0  0  0  0  0  0
  -16.8000  -28.2320   22.8740 C   0  0  0  0  0  3  0  0  0  0  0  0
  -25.8760  -32.3360   23.7860 C   0  0  0  0  0  3  0  0  0  0  0  0
  -25.5500  -33.7270   24.1340 N   0  0  0  0  0  0  0  0  0  0  0  0
  -25.8620  -34.7950   23.3880 C   0  0  0  0  0  0  0  0  0  0  0  0
  -26.5260  -34.7130   22.3510 O   0  0  0  0  0  0  0  0  0  0  0  0
  -24.9580  -33.8630   24.9410 H   0  0  0  0  0  0  0  0  0  0  0  0
  -24.1060  -36.5710   23.0840 C   0  0  0  0  0  1  0  0  0  0  0  0
  -25.3660  -36.1740   23.8700 C   0  0  0  0  0  3  0  0  0  0  0  0
  -27.4930  -37.0870   24.6880 C   0  0  0  0  0  1  0  0  0  0  0  0
  -26.3840  -37.2410   23.7510 N   0  0  0  0  0  0  0  0  0  0  0  0
  -25.9660  -38.1550   23.9010 H   0  0  0  0  0  0  0  0  0  0  0  0
  -26.3750  -31.5510   25.0600 C   0  0  1  0  0  0  0  0  0  0  0  0
  -25.2650  -31.2840   26.1040 C   0  0  0  0  0  1  0  0  0  0  0  0
  -26.9810  -30.1860   24.6600 C   0  0  0  0  0  1  0  0  0  0  0  0
  -27.5020  -32.3490   25.7580 C   0  0  0  0  0  1  0  0  0  0  0  0
  2  5  1  0
  3  1  1  0
  4  2  2  0
  4  6  1  0
  5  1  2  0
  6  3  2  0
  7 20  1  0
  8 13  1  0
  9 10  1  0
  9  8  1  0
 11 10  1  0
 11 24  1  0
 11 12  1  0
 13  7  1  0
 13 12  1  0
 14  7  2  0
 15 20  1  0
 15 17  1  0
 17  5  1  0
 17 18  1  0
 18 16  1  0
 18 19  1  0
 20 16  1  0
 21 22  2  0
 22 41  1  0
 23 22  1  0
 23 26  1  0
 24 25  1  0
 24 21  1  0
 25 23  2  0
 26 27  1  0
 27 28  2  0
 29 32  1  0
 29 28  1  0
 30 29  2  0
 31 30  1  0
 31 26  2  0
 32 33  1  0
 33 38  2  0
 33 34  1  0
 34 35  2  0
 35 36  1  0
 36 40  1  0
 37 36  2  0
 38 37  1  0
 39 38  1  0
 41 42  1  0
 42 45  1  0
 42 44  1  0
 43 41  2  0
 46 21  1  0
 46 47  1  0
 48 46  1  0
 49  6  1  0
 49 50  1  0
 51 62  2  0
 52 50  1  0
 52 57  1  0
 53 61  1  0
 53 63  1  0
 54 60  1  0
 54 56  1  0
 55 61  1  0
 56 55  1  0
 57 56  2  0
 58 59  1  0
 58 52  2  0
 59 54  2  0
 60 53  1  0
 61 51  1  0
 63 65  2  0
 64 63  1  0
 66 64  1  0
 67 76  2  0
 67 72  1  0
 68 64  1  0
 68 72  1  0
 69 68  1  0
 70 71  1  0
 70 69  1  0
 71 67  1  0
 72 73  2  0
 73 74  1  0
 75 74  2  0
 76 75  1  0
 77 51  1  0
 77 78  1  0
 77 87  1  0
 78 81  1  0
 79 83  1  0
 79 78  1  0
 80 79  2  0
 83 82  1  0
 85 83  1  0
 85 86  1  0
 85 84  1  0
 87 90  1  1
 87 88  1  0
 89 87  1  0
M  ISO  4   7 100  20 100  49 101  50 101
M  END
>  <TORSDO>  (62) 
F 17

>  <SCORE>  (62) 
-12.246

>  <name>  (62) 
61

>  <ligand_id>  (62) 
61

>  <original_smiles>  (62) 
[H]c1c([H])c([H])c2c(c1[H])C([H])([H])C([H])([H])C([H])([H])C2([H])N([H])C(=O)C1([H])N(C(=O)C([H])(N([H])C(=O)C([H])(N([H])C([H])([H])[H])C([H])([H])[H])C(C([H])([H])[H])(C([H])([H])[H])C([H])([H])[H])C([H])([H])c2c([H])c(OC([H])([H])c3c([H])c([H])c(C4([H])C([H])([H])N(C(=O)N5C([H])([H])C([H])([H])C([H])([H])C([H])(n6nc(-c7c([H])c([H])c(Oc8c([H])c([H])c(F)c([H])c8F)c([H])c7[H])c(C(=O)N([H])[H])c6N([H])[H])C5([H])[H])C([H])([H])C4([H])C([H])([H])[H])c([H])c3[H])c([H])c([H])c2C1([H])[H]

>  <smiles>  (62) 
[H]c1c([H])c([H])c2c(c1[H])C([H])([H])C([H])([H])C([H])([H])C2([H])N([H])C(=O)C1([H])N(C(=O)C([H])(N([H])C(=O)C([H])(N([H])C([H])([H])[H])C([H])([H])[H])C(C([H])([H])[H])(C([H])([H])[H])C([H])([H])[H])C([H])([H])c2c([H])c(OC([H])([H])c3c([H])c([H])c(C4([H])C([H])([H])N(C(=O)N5C([H])([H])C([H])([H])C([H])([H])C([H])(n6nc(-c7c([H])c([H])c(Oc8c([H])c([H])c(F)c([H])c8F)c([H])c7[H])c(C(=O)N([H])[H])c6N([H])[H])C5([H])[H])C([H])([H])C4([H])C([H])([H])[H])c([H])c3[H])c([H])c([H])c2C1([H])[H]

$$$$
62:0:0
     RDKit          3D

 91100  0  0  1  0  0  0  0  0999 V2000
  -30.4890  -20.4070   19.0140 C   0  0  0  0  0  3  0  0  0  0  0  0
  -29.3040  -18.9890   20.5460 C   0  0  0  0  0  3  0  0  0  0  0  0
  -29.5450  -20.3840   20.0550 C   0  0  0  0  0  0  0  0  0  0  0  0
  -31.1340  -19.2320   18.5670 C   0  0  0  0  0  0  0  0  0  0  0  0
  -29.9780  -17.7490   20.0310 C   0  0  0  0  0  0  0  0  0  0  0  0
  -30.8710  -17.9860   19.0390 N   0  0  0  0  0  0  0  0  0  0  0  0
  -30.4940  -15.0480   20.2660 C   0  0  0  0  0  0  0  0  0  0  0  0
  -30.3560  -12.6680   19.3770 C   0  0  0  0  0  2  0  0  0  0  0  0
  -29.4230  -12.5970   18.1470 C   0  0  0  0  0  2  0  0  0  0  0  0
  -27.9710  -12.3670   18.6040 C   0  0  0  0  0  2  0  0  0  0  0  0
  -27.5600  -13.3180   19.7590 C   0  0  0  0  0  3  0  0  0  0  0  0
  -28.6190  -13.3770   20.8810 C   0  0  0  0  0  2  0  0  0  0  0  0
  -29.8840  -13.7870   20.2550 N   0  0  0  0  0  0  0  0  0  0  0  0
  -31.7000  -15.0490   19.9840 O   0  0  0  0  0  0  0  0  0  0  0  0
  -29.7580  -16.2740   20.4530 N   0  0  0  0  0  0  0  0  0  0  0  0
  -28.8430  -16.1090   20.8410 H   0  0  0  0  0  0  0  0  0  0  0  0
  -25.1900  -13.9010   20.5130 C   0  0  0  0  0  0  0  0  0  0  0  0
  -24.1220  -13.1290   20.8820 C   0  0  0  0  0  0  0  0  0  0  0  0
  -24.5810  -11.7760   20.8470 C   0  0  0  0  0  0  0  0  0  0  0  0
  -26.2280  -13.0180   20.2660 N   0  0  0  0  0  0  0  0  0  0  0  0
  -25.8720  -11.7360   20.5350 N   0  0  0  0  0  0  0  0  0  0  0  0
  -23.8490  -10.5160   21.0340 C   0  0  0  0  0  0  0  0  0  0  0  0
  -24.2770   -9.5410   21.9610 C   0  0  0  0  0  3  0  0  0  0  0  0
  -23.5410   -8.3480   22.1360 C   0  0  0  0  0  3  0  0  0  0  0  0
  -22.3650   -8.1240   21.3840 C   0  0  0  0  0  0  0  0  0  0  0  0
  -21.9550   -9.0870   20.4450 C   0  0  0  0  0  3  0  0  0  0  0  0
  -22.6920  -10.2700   20.2680 C   0  0  0  0  0  3  0  0  0  0  0  0
  -21.6020   -6.9840   21.4670 O   0  0  0  0  0  0  0  0  0  0  0  0
  -21.5490   -6.2350   22.6160 C   0  0  0  0  0  0  0  0  0  0  0  0
  -21.1230   -6.7850   23.8430 C   0  0  0  0  0  3  0  0  0  0  0  0
  -21.0180   -5.9630   24.9840 C   0  0  0  0  0  3  0  0  0  0  0  0
  -21.3320   -4.5940   24.8980 C   0  0  0  0  0  0  0  0  0  0  0  0
  -21.7540   -4.0430   23.6720 C   0  0  0  0  0  3  0  0  0  0  0  0
  -21.8590   -4.8620   22.5350 C   0  0  0  0  0  0  0  0  0  0  0  0
  -22.2440   -4.3210   21.3540 F   0  0  0  0  0  0  0  0  0  0  0  0
  -21.2260   -3.8030   25.9900 F   0  0  0  0  0  0  0  0  0  0  0  0
  -22.7280  -13.6120   21.1550 C   0  0  0  0  0  0  0  0  0  0  0  0
  -21.9940  -12.9140   22.0130 N   0  0  0  0  0  0  0  0  0  0  0  0
  -22.2960  -14.6460   20.6440 O   0  0  0  0  0  0  0  0  0  0  0  0
  -22.3520  -12.0750   22.4430 H   0  0  0  0  0  0  0  0  0  0  0  0
  -21.0620  -13.2240   22.2460 H   0  0  0  0  0  0  0  0  0  0  0  0
  -25.3550  -15.2720   20.3380 N   0  0  0  0  0  0  0  0  0  0  0  0
  -24.5820  -15.9230   20.4380 H   0  0  0  0  0  0  0  0  0  0  0  0
  -26.1960  -15.7110   19.9820 H   0  0  0  0  0  0  0  0  0  0  0  0
  -32.5780  -20.5030   16.7250 C   0  0  0  0  0  2  0  0  0  0  0  0
  -31.9190  -19.3120   16.0630 C   0  0  0  0  0  2  0  0  0  0  0  0
  -32.2350  -19.2740   17.5370 C   0  0  0  0  0  3  0  0  0  0  0  0
  -29.1530  -21.8900   20.6630 C   0  0  0  0  0  2  0  0  0  0  0  0
  -28.1700  -23.1250   20.0400 C   0  0  0  0  0  2  0  0  0  0  0  0
  -28.4620  -24.7710   19.6610 C   0  0  0  0  0  2  0  0  0  0  0  0
  -28.2880  -26.1720   20.3440 O   0  0  0  0  0  0  0  0  0  0  0  0
  -24.6300  -31.8860   23.2120 C   0  0  0  0  0  0  0  0  0  0  0  0
  -27.2230  -27.1450   20.2090 C   0  0  0  0  0  0  0  0  0  0  0  0
  -23.4370  -30.4800   21.5750 C   0  0  0  0  0  3  0  0  0  0  0  0
  -24.8900  -28.9010   20.1520 C   0  0  0  0  0  0  0  0  0  0  0  0
  -25.9910  -30.7440   21.4190 C   0  0  0  0  0  2  0  0  0  0  0  0
  -26.0650  -29.3480   20.7710 C   0  0  0  0  0  0  0  0  0  0  0  0
  -27.2220  -28.4830   20.7870 C   0  0  0  0  0  3  0  0  0  0  0  0
  -26.0240  -26.8010   19.5470 C   0  0  0  0  0  3  0  0  0  0  0  0
  -24.8850  -27.6420   19.5280 C   0  0  0  0  0  3  0  0  0  0  0  0
  -23.6590  -29.7940   20.1980 C   0  0  0  0  0  2  0  0  0  0  0  0
  -24.7070  -31.0610   22.1220 N   0  0  0  0  0  0  0  0  0  0  0  0
  -23.5390  -32.1710   23.7340 O   0  0  0  0  0  0  0  0  0  0  0  0
  -22.7560  -29.4800   22.5430 C   0  0  0  0  0  0  0  0  0  0  0  0
  -21.4270  -29.3150   22.4220 N   0  0  0  0  0  0  0  0  0  0  0  0
  -23.4310  -28.8540   23.3660 O   0  0  0  0  0  0  0  0  0  0  0  0
  -20.9400  -29.8820   21.7440 H   0  0  0  0  0  0  0  0  0  0  0  0
  -18.0360  -28.1340   22.9260 C   0  0  0  0  0  0  0  0  0  0  0  0
  -20.5990  -28.3790   23.1890 C   0  0  0  0  0  3  0  0  0  0  0  0
  -20.6890  -26.9480   22.6120 C   0  0  0  0  0  2  0  0  0  0  0  0
  -19.5800  -26.6310   21.6020 C   0  0  0  0  0  2  0  0  0  0  0  0
  -18.1990  -26.7870   22.2450 C   0  0  0  0  0  2  0  0  0  0  0  0
  -19.1620  -28.8900   23.3530 C   0  0  0  0  0  0  0  0  0  0  0  0
  -18.9500  -30.1550   23.9430 C   0  0  0  0  0  3  0  0  0  0  0  0
  -17.6480  -30.6620   24.1150 C   0  0  0  0  0  3  0  0  0  0  0  0
  -16.5360  -29.9020   23.7050 C   0  0  0  0  0  3  0  0  0  0  0  0
  -16.7320  -28.6420   23.1150 C   0  0  0  0  0  3  0  0  0  0  0  0
  -25.9020  -32.5290   23.8440 C   0  0  0  0  0  3  0  0  0  0  0  0
  -26.4090  -31.7670   25.1280 C   0  0  1  0  0  0  0  0  0  0  0  0
  -25.3080  -31.5350   26.1920 C   0  0  0  0  0  1  0  0  0  0  0  0
  -26.9990  -30.3910   24.7480 C   0  0  0  0  0  1  0  0  0  0  0  0
  -27.5550  -32.5670   25.7930 C   0  0  0  0  0  1  0  0  0  0  0  0
  -25.5860  -33.9280   24.1760 N   0  0  0  0  0  0  0  0  0  0  0  0
  -25.9140  -34.9870   23.4220 C   0  0  0  0  0  0  0  0  0  0  0  0
  -26.5830  -34.8900   22.3890 O   0  0  0  0  0  0  0  0  0  0  0  0
  -25.0040  -34.0830   24.9850 H   0  0  0  0  0  0  0  0  0  0  0  0
  -24.1830  -36.7800   23.0900 C   0  0  0  0  0  1  0  0  0  0  0  0
  -25.4290  -36.3720   23.8910 C   0  0  0  0  0  3  0  0  0  0  0  0
  -27.5610  -37.2610   24.7190 C   0  0  0  0  0  1  0  0  0  0  0  0
  -26.4560  -37.4310   23.7800 N   0  0  0  0  0  0  0  0  0  0  0  0
  -26.0430  -38.3450   23.9340 H   0  0  0  0  0  0  0  0  0  0  0  0
  1  3  1  0
  3  2  2  0
  3 48  1  0
  4  1  2  0
  4  6  1  0
  5 15  1  0
  5  2  1  0
  6  5  2  0
  7 15  1  0
  8 13  1  0
  9 10  1  0
  9  8  1  0
 11 10  1  0
 11 20  1  0
 11 12  1  0
 13  7  1  0
 13 12  1  0
 14  7  2  0
 15 16  1  0
 17 18  2  0
 18 37  1  0
 19 18  1  0
 19 22  1  0
 20 17  1  0
 20 21  1  0
 21 19  2  0
 22 23  1  0
 23 24  2  0
 25 28  1  0
 25 24  1  0
 26 25  2  0
 27 26  1  0
 27 22  2  0
 28 29  1  0
 29 30  1  0
 30 31  2  0
 32 31  1  0
 32 36  1  0
 33 32  2  0
 34 29  2  0
 34 33  1  0
 35 34  1  0
 37 38  1  0
 38 41  1  0
 38 40  1  0
 39 37  2  0
 42 43  1  0
 42 17  1  0
 44 42  1  0
 45 47  1  0
 46 45  1  0
 46 47  1  0
 47  4  1  0
 49 48  1  0
 50 49  1  0
 50 51  1  0
 52 63  2  0
 53 51  1  0
 53 58  1  0
 54 62  1  0
 54 64  1  0
 55 61  1  0
 55 57  1  0
 56 62  1  0
 57 58  2  0
 57 56  1  0
 59 53  2  0
 60 59  1  0
 60 55  2  0
 61 54  1  0
 62 52  1  0
 64 66  2  0
 65 64  1  0
 67 65  1  0
 68 77  2  0
 68 73  1  0
 69 65  1  0
 69 73  1  0
 70 69  1  0
 71 72  1  0
 71 70  1  0
 72 68  1  0
 73 74  2  0
 74 75  1  0
 76 75  2  0
 77 76  1  0
 78 52  1  0
 78 83  1  0
 78 79  1  0
 79 82  1  1
 79 80  1  0
 81 79  1  0
 83 86  1  0
 84 88  1  0
 84 83  1  0
 85 84  2  0
 88 87  1  0
 90 88  1  0
 90 91  1  0
 90 89  1  0
M  ISO  4   7 100  15 100  50 101  51 101
M  END
>  <TORSDO>  (63) 
F 20

>  <SCORE>  (63) 
-15.031

>  <name>  (63) 
62

>  <ligand_id>  (63) 
62

>  <original_smiles>  (63) 
[H]c1c([H])c([H])c2c(c1[H])C([H])([H])C([H])([H])C([H])([H])C2([H])N([H])C(=O)C1([H])N(C(=O)C([H])(N([H])C(=O)C([H])(N([H])C([H])([H])[H])C([H])([H])[H])C(C([H])([H])[H])(C([H])([H])[H])C([H])([H])[H])C([H])([H])c2c([H])c(OC([H])([H])C([H])([H])C([H])([H])c3c([H])c(N([H])C(=O)N4C([H])([H])C([H])([H])C([H])([H])C([H])(n5nc(-c6c([H])c([H])c(Oc7c([H])c([H])c(F)c([H])c7F)c([H])c6[H])c(C(=O)N([H])[H])c5N([H])[H])C4([H])[H])nc(C4([H])C([H])([H])C4([H])[H])c3[H])c([H])c([H])c2C1([H])[H]

>  <smiles>  (63) 
[H]c1c([H])c([H])c2c(c1[H])C([H])([H])C([H])([H])C([H])([H])C2([H])N([H])C(=O)C1([H])N(C(=O)C([H])(N([H])C(=O)C([H])(N([H])C([H])([H])[H])C([H])([H])[H])C(C([H])([H])[H])(C([H])([H])[H])C([H])([H])[H])C([H])([H])c2c([H])c(OC([H])([H])C([H])([H])C([H])([H])c3c([H])c(N([H])C(=O)N4C([H])([H])C([H])([H])C([H])([H])C([H])(n5nc(-c6c([H])c([H])c(Oc7c([H])c([H])c(F)c([H])c7F)c([H])c6[H])c(C(=O)N([H])[H])c5N([H])[H])C4([H])[H])nc(C4([H])C([H])([H])C4([H])[H])c3[H])c([H])c([H])c2C1([H])[H]

$$$$
63:0:0
     RDKit          3D

 99109  0  0  1  0  0  0  0  0999 V2000
  -30.5980  -18.6450   20.8090 C   0  0  0  0  0  3  0  0  0  0  0  0
  -31.2330  -17.3920   20.8650 C   0  0  0  0  0  0  0  0  0  0  0  0
  -31.2020  -19.6160   20.0020 C   0  0  0  0  0  0  0  0  0  0  0  0
  -32.8240  -18.1430   19.4310 C   0  0  0  0  0  0  0  0  0  0  0  0
  -32.3660  -17.1590   20.1720 N   0  0  0  0  0  0  0  0  0  0  0  0
  -32.3150  -19.3560   19.3020 N   0  0  0  0  0  0  0  0  0  0  0  0
  -33.9740  -17.8860   18.7550 N   0  0  0  0  0  0  0  0  0  0  0  0
  -30.7090  -20.9130   19.8520 N   0  0  0  0  0  0  0  0  0  0  0  0
  -34.2050  -16.9090   18.6270 H   0  0  0  0  0  0  0  0  0  0  0  0
  -34.1790  -18.4860   17.9670 H   0  0  0  0  0  0  0  0  0  0  0  0
  -31.2700  -21.5360   19.2830 H   0  0  0  0  0  0  0  0  0  0  0  0
  -30.6420  -16.5020   23.2130 C   0  0  0  0  0  2  0  0  0  0  0  0
  -31.6690  -15.5530   22.6670 C   0  0  0  0  0  2  0  0  0  0  0  0
  -30.7150  -16.2590   21.7130 C   0  0  2  0  0  0  0  0  0  0  0  0
  -29.5820  -15.4760   21.0420 C   0  0  0  0  0  2  0  0  0  0  0  0
  -29.9960  -14.4790   19.9430 C   0  0  0  0  0  0  0  0  0  0  0  0
  -29.7010  -12.3070   18.7970 C   0  0  0  0  0  2  0  0  0  0  0  0
  -28.6140  -12.3690   17.7090 C   0  0  0  0  0  2  0  0  0  0  0  0
  -27.2240  -12.1010   18.3150 C   0  0  0  0  0  2  0  0  0  0  0  0
  -26.9500  -12.9670   19.5720 C   0  0  0  0  0  3  0  0  0  0  0  0
  -28.1330  -12.8960   20.5610 C   0  0  0  0  0  2  0  0  0  0  0  0
  -29.3630  -13.2810   19.8470 N   0  0  0  0  0  0  0  0  0  0  0  0
  -30.9040  -14.7900   19.1690 O   0  0  0  0  0  0  0  0  0  0  0  0
  -24.6360  -13.3990   20.6180 C   0  0  0  0  0  0  0  0  0  0  0  0
  -23.6730  -12.5470   21.0890 C   0  0  0  0  0  0  0  0  0  0  0  0
  -24.2020  -11.2280   20.9350 C   0  0  0  0  0  0  0  0  0  0  0  0
  -25.6890  -12.5930   20.2100 N   0  0  0  0  0  0  0  0  0  0  0  0
  -25.4390  -11.2830   20.4560 N   0  0  0  0  0  0  0  0  0  0  0  0
  -23.5820   -9.9170   21.1620 C   0  0  0  0  0  0  0  0  0  0  0  0
  -24.1170   -9.0020   22.0960 C   0  0  0  0  0  3  0  0  0  0  0  0
  -23.4940   -7.7530   22.3100 C   0  0  0  0  0  3  0  0  0  0  0  0
  -22.3240   -7.4100   21.5900 C   0  0  0  0  0  0  0  0  0  0  0  0
  -21.8120   -8.3170   20.6460 C   0  0  0  0  0  3  0  0  0  0  0  0
  -22.4360   -9.5560   20.4310 C   0  0  0  0  0  3  0  0  0  0  0  0
  -21.6660   -6.2110   21.7140 O   0  0  0  0  0  0  0  0  0  0  0  0
  -21.6380   -5.5240   22.9010 C   0  0  0  0  0  0  0  0  0  0  0  0
  -21.0960   -6.0870   24.0760 C   0  0  0  0  0  3  0  0  0  0  0  0
  -21.0240   -5.3200   25.2570 C   0  0  0  0  0  3  0  0  0  0  0  0
  -21.4850   -3.9900   25.2610 C   0  0  0  0  0  0  0  0  0  0  0  0
  -22.0210   -3.4260   24.0900 C   0  0  0  0  0  3  0  0  0  0  0  0
  -22.0940   -4.1900   22.9130 C   0  0  0  0  0  0  0  0  0  0  0  0
  -22.5920   -3.6340   21.7820 F   0  0  0  0  0  0  0  0  0  0  0  0
  -21.4090   -3.2510   26.3930 F   0  0  0  0  0  0  0  0  0  0  0  0
  -22.3010  -12.9230   21.5670 C   0  0  0  0  0  0  0  0  0  0  0  0
  -21.7430  -12.1530   22.4970 N   0  0  0  0  0  0  0  0  0  0  0  0
  -21.7320  -13.9320   21.1510 O   0  0  0  0  0  0  0  0  0  0  0  0
  -22.2190  -11.3390   22.8540 H   0  0  0  0  0  0  0  0  0  0  0  0
  -20.8280  -12.3850   22.8580 H   0  0  0  0  0  0  0  0  0  0  0  0
  -24.6980  -14.7820   20.4830 N   0  0  0  0  0  0  0  0  0  0  0  0
  -23.9210  -15.3860   20.7270 H   0  0  0  0  0  0  0  0  0  0  0  0
  -25.4790  -15.2830   20.0780 H   0  0  0  0  0  0  0  0  0  0  0  0
  -29.8840  -21.5220   20.8900 C   0  0  0  0  0  2  0  0  0  0  0  0
  -28.2620  -23.4760   21.2880 C   0  0  0  0  0  2  0  0  0  0  0  0
  -30.6120  -23.9710   20.6230 C   0  0  0  0  0  2  0  0  0  0  0  0
  -27.7880  -24.8260   20.7210 C   0  0  0  0  0  2  0  0  0  0  0  0
  -30.1930  -25.3600   20.1040 C   0  0  0  0  0  2  0  0  0  0  0  0
  -29.4640  -22.9520   20.4860 C   0  0  0  0  0  3  0  0  0  0  0  0
  -28.8950  -25.9070   20.7370 C   0  0  0  0  0  3  0  0  0  0  0  0
  -28.6160  -27.0830   19.9660 O   0  0  0  0  0  0  0  0  0  0  0  0
  -24.6330  -31.9420   23.3560 C   0  0  0  0  0  0  0  0  0  0  0  0
  -27.4070  -27.7250   20.0980 C   0  0  0  0  0  0  0  0  0  0  0  0
  -23.4770  -30.6080   21.6230 C   0  0  0  0  0  3  0  0  0  0  0  0
  -24.9820  -29.1720   20.1490 C   0  0  0  0  0  0  0  0  0  0  0  0
  -25.9950  -31.0230   21.4820 C   0  0  0  0  0  2  0  0  0  0  0  0
  -26.1180  -29.6860   20.7870 C   0  0  0  0  0  0  0  0  0  0  0  0
  -27.3330  -28.9660   20.7680 C   0  0  0  0  0  3  0  0  0  0  0  0
  -26.2600  -27.2320   19.4390 C   0  0  0  0  0  3  0  0  0  0  0  0
  -25.0450  -27.9400   19.4750 C   0  0  0  0  0  3  0  0  0  0  0  0
  -23.7200  -30.0030   20.2150 C   0  0  0  0  0  2  0  0  0  0  0  0
  -24.7190  -31.2030   22.2140 N   0  0  0  0  0  0  0  0  0  0  0  0
  -23.5400  -32.1670   23.8950 O   0  0  0  0  0  0  0  0  0  0  0  0
  -22.8310  -29.5260   22.5170 C   0  0  0  0  0  0  0  0  0  0  0  0
  -21.5130  -29.3310   22.3600 N   0  0  0  0  0  0  0  0  0  0  0  0
  -23.5140  -28.8660   23.3060 O   0  0  0  0  0  0  0  0  0  0  0  0
  -21.0250  -29.9150   21.6960 H   0  0  0  0  0  0  0  0  0  0  0  0
  -18.1400  -28.1060   22.7890 C   0  0  0  0  0  0  0  0  0  0  0  0
  -20.6990  -28.3420   23.0650 C   0  0  0  0  0  3  0  0  0  0  0  0
  -20.7980  -26.9570   22.3840 C   0  0  0  0  0  2  0  0  0  0  0  0
  -19.6910  -26.7100   21.3560 C   0  0  0  0  0  2  0  0  0  0  0  0
  -18.3120  -26.8090   22.0160 C   0  0  0  0  0  2  0  0  0  0  0  0
  -19.2620  -28.8340   23.2670 C   0  0  0  0  0  0  0  0  0  0  0  0
  -19.0490  -30.0520   23.9470 C   0  0  0  0  0  3  0  0  0  0  0  0
  -17.7460  -30.5440   24.1530 C   0  0  0  0  0  3  0  0  0  0  0  0
  -16.6390  -29.8120   23.6910 C   0  0  0  0  0  3  0  0  0  0  0  0
  -16.8360  -28.5930   23.0170 C   0  0  0  0  0  3  0  0  0  0  0  0
  -25.9000  -32.5590   24.0290 C   0  0  0  0  0  3  0  0  0  0  0  0
  -26.3740  -31.7670   25.3100 C   0  0  1  0  0  0  0  0  0  0  0  0
  -25.2380  -31.4780   26.3170 C   0  0  0  0  0  1  0  0  0  0  0  0
  -27.0010  -30.4120   24.9070 C   0  0  0  0  0  1  0  0  0  0  0  0
  -27.4770  -32.5660   26.0420 C   0  0  0  0  0  1  0  0  0  0  0  0
  -25.5870  -33.9530   24.3650 N   0  0  0  0  0  0  0  0  0  0  0  0
  -25.9570  -35.0120   23.6320 C   0  0  0  0  0  0  0  0  0  0  0  0
  -26.6670  -34.9180   22.6280 O   0  0  0  0  0  0  0  0  0  0  0  0
  -24.9620  -34.1010   25.1440 H   0  0  0  0  0  0  0  0  0  0  0  0
  -24.2510  -36.8140   23.2240 C   0  0  0  0  0  1  0  0  0  0  0  0
  -25.4550  -36.3970   24.0840 C   0  0  0  0  0  3  0  0  0  0  0  0
  -27.5550  -37.2570   25.0190 C   0  0  0  0  0  1  0  0  0  0  0  0
  -26.4960  -37.4460   24.0310 N   0  0  0  0  0  0  0  0  0  0  0  0
  -26.0870  -38.3650   24.1790 H   0  0  0  0  0  0  0  0  0  0  0  0
  1  2  2  0
  2 14  1  0
  3  1  1  0
  4  5  2  0
  5  2  1  0
  6  4  1  0
  6  3  2  0
  7  4  1  0
  8  3  1  0
  8 52  1  0
  9  7  1  0
 10  7  1  0
 11  8  1  0
 13 12  1  0
 14 13  1  0
 14 12  1  0
 14 15  1  6
 16 15  1  0
 17 22  1  0
 18 19  1  0
 18 17  1  0
 20 19  1  0
 20 27  1  0
 20 21  1  0
 22 16  1  0
 22 21  1  0
 23 16  2  0
 24 25  2  0
 25 44  1  0
 26 25  1  0
 26 29  1  0
 27 28  1  0
 27 24  1  0
 28 26  2  0
 29 30  1  0
 30 31  2  0
 32 35  1  0
 32 31  1  0
 33 32  2  0
 34 33  1  0
 34 29  2  0
 35 36  1  0
 36 41  2  0
 36 37  1  0
 37 38  2  0
 38 39  1  0
 39 43  1  0
 40 39  2  0
 41 40  1  0
 42 41  1  0
 44 45  1  0
 45 47  1  0
 45 48  1  0
 46 44  2  0
 49 24  1  0
 49 50  1  0
 51 49  1  0
 55 58  1  0
 55 53  1  0
 56 54  1  0
 56 58  1  0
 57 54  1  0
 57 52  1  0
 57 53  1  0
 58 59  1  0
 59 61  1  0
 60 71  2  0
 61 66  1  0
 62 70  1  0
 62 72  1  0
 63 69  1  0
 63 65  1  0
 64 70  1  0
 65 64  1  0
 66 65  2  0
 67 68  1  0
 67 61  2  0
 68 63  2  0
 69 62  1  0
 70 60  1  0
 72 74  2  0
 73 72  1  0
 75 73  1  0
 76 85  2  0
 76 81  1  0
 77 73  1  0
 77 81  1  0
 78 77  1  0
 79 80  1  0
 79 78  1  0
 80 76  1  0
 81 82  2  0
 82 83  1  0
 84 83  2  0
 85 84  1  0
 86 60  1  0
 86 91  1  0
 86 87  1  0
 87 90  1  1
 87 88  1  0
 89 87  1  0
 91 94  1  0
 92 96  1  0
 92 91  1  0
 93 92  2  0
 96 95  1  0
 98 96  1  0
 98 99  1  0
 98 97  1  0
M  ISO  4  15 100  16 100  58 101  59 101
M  END
>  <TORSDO>  (64) 
F 20

>  <SCORE>  (64) 
-10.595

>  <name>  (64) 
63

>  <ligand_id>  (64) 
63

>  <original_smiles>  (64) 
[H]c1c(N([H])C([H])([H])C2([H])C([H])([H])C([H])([H])C([H])(Oc3c([H])c([H])c4c(c3[H])C([H])([H])N(C(=O)C([H])(N([H])C(=O)C([H])(N([H])C([H])([H])[H])C([H])([H])[H])C(C([H])([H])[H])(C([H])([H])[H])C([H])([H])[H])C([H])(C(=O)N([H])C3([H])c5c([H])c([H])c([H])c([H])c5C([H])([H])C([H])([H])C3([H])[H])C4([H])[H])C([H])([H])C2([H])[H])nc(N([H])[H])nc1C1(C([H])([H])C(=O)N2C([H])([H])C([H])([H])C([H])([H])C([H])(n3nc(-c4c([H])c([H])c(Oc5c([H])c([H])c(F)c([H])c5F)c([H])c4[H])c(C(=O)N([H])[H])c3N([H])[H])C2([H])[H])C([H])([H])C1([H])[H]

>  <smiles>  (64) 
[H]c1c(N([H])C([H])([H])C2([H])C([H])([H])C([H])([H])C([H])(Oc3c([H])c([H])c4c(c3[H])C([H])([H])N(C(=O)C([H])(N([H])C(=O)C([H])(N([H])C([H])([H])[H])C([H])([H])[H])C(C([H])([H])[H])(C([H])([H])[H])C([H])([H])[H])C([H])(C(=O)N([H])C3([H])c5c([H])c([H])c([H])c([H])c5C([H])([H])C([H])([H])C3([H])[H])C4([H])[H])C([H])([H])C2([H])[H])nc(N([H])[H])nc1C1(C([H])([H])C(=O)N2C([H])([H])C([H])([H])C([H])([H])C([H])(n3nc(-c4c([H])c([H])c(Oc5c([H])c([H])c(F)c([H])c5F)c([H])c4[H])c(C(=O)N([H])[H])c3N([H])[H])C2([H])[H])C([H])([H])C1([H])[H]

$$$$
64:0:0
     RDKit          3D

100110  0  0  1  0  0  0  0  0999 V2000
  -27.6950  -24.2920   20.0020 C   0  0  0  0  0  3  0  0  0  0  0  0
  -28.9180  -20.8820   21.4070 C   0  0  0  0  0  3  0  0  0  0  0  0
  -28.4460  -22.2150   21.3290 C   0  0  0  0  0  3  0  0  0  0  0  0
  -29.4580  -20.9580   19.0510 C   0  0  0  0  0  3  0  0  0  0  0  0
  -29.4080  -20.2240   20.2560 C   0  0  0  0  0  0  0  0  0  0  0  0
  -28.4200  -22.9240   20.1020 C   0  0  0  0  0  0  0  0  0  0  0  0
  -28.9690  -22.2810   18.9580 C   0  0  0  0  0  0  0  0  0  0  0  0
  -29.0140  -22.9640   17.6020 C   0  0  0  0  0  1  0  0  0  0  0  0
  -30.9750  -14.6610   20.1510 C   0  0  0  0  0  0  0  0  0  0  0  0
  -30.6310  -12.4780   19.0740 C   0  0  0  0  0  2  0  0  0  0  0  0
  -29.6490  -12.6660   17.9000 C   0  0  0  0  0  2  0  0  0  0  0  0
  -28.1950  -12.5210   18.3870 C   0  0  0  0  0  2  0  0  0  0  0  0
  -27.8940  -13.3660   19.6550 C   0  0  0  0  0  3  0  0  0  0  0  0
  -28.9980  -13.2030   20.7240 C   0  0  0  0  0  2  0  0  0  0  0  0
  -30.2890  -13.4890   20.0850 N   0  0  0  0  0  0  0  0  0  0  0  0
  -32.1400  -14.7690   19.7530 O   0  0  0  0  0  0  0  0  0  0  0  0
  -29.9880  -18.0340   21.6080 C   0  0  0  0  0  2  0  0  0  0  0  0
  -29.1490  -17.8410   19.3200 C   0  0  0  0  0  2  0  0  0  0  0  0
  -30.7070  -16.6610   21.4790 C   0  0  0  0  0  2  0  0  0  0  0  0
  -29.9080  -16.5150   19.1260 C   0  0  0  0  0  2  0  0  0  0  0  0
  -29.9300  -18.7720   20.2580 C   0  0  0  0  0  3  0  0  0  0  0  0
  -30.2440  -15.7870   20.3740 N   0  0  0  0  0  0  0  0  0  0  0  0
  -25.5370  -13.9500   20.4910 C   0  0  0  0  0  0  0  0  0  0  0  0
  -24.4840  -13.1660   20.8810 C   0  0  0  0  0  0  0  0  0  0  0  0
  -24.9430  -11.8160   20.7910 C   0  0  0  0  0  0  0  0  0  0  0  0
  -26.5680  -13.0750   20.1910 N   0  0  0  0  0  0  0  0  0  0  0  0
  -26.2190  -11.7850   20.4300 N   0  0  0  0  0  0  0  0  0  0  0  0
  -24.2250  -10.5480   20.9750 C   0  0  0  0  0  0  0  0  0  0  0  0
  -24.6540   -9.5870   21.9160 C   0  0  0  0  0  3  0  0  0  0  0  0
  -23.9360   -8.3830   22.0880 C   0  0  0  0  0  3  0  0  0  0  0  0
  -22.7740   -8.1350   21.3180 C   0  0  0  0  0  0  0  0  0  0  0  0
  -22.3640   -9.0850   20.3670 C   0  0  0  0  0  3  0  0  0  0  0  0
  -23.0840  -10.2800   20.1940 C   0  0  0  0  0  3  0  0  0  0  0  0
  -22.0290   -6.9830   21.3980 O   0  0  0  0  0  0  0  0  0  0  0  0
  -21.9100   -6.2830   22.5720 C   0  0  0  0  0  0  0  0  0  0  0  0
  -21.3830   -6.8740   23.7420 C   0  0  0  0  0  3  0  0  0  0  0  0
  -21.2130   -6.0990   24.9070 C   0  0  0  0  0  3  0  0  0  0  0  0
  -21.5610   -4.7350   24.9030 C   0  0  0  0  0  0  0  0  0  0  0  0
  -22.0820   -4.1440   23.7380 C   0  0  0  0  0  3  0  0  0  0  0  0
  -22.2530   -4.9170   22.5750 C   0  0  0  0  0  0  0  0  0  0  0  0
  -22.7350   -4.3370   21.4490 F   0  0  0  0  0  0  0  0  0  0  0  0
  -21.3910   -3.9880   26.0180 F   0  0  0  0  0  0  0  0  0  0  0  0
  -23.1010  -13.6360   21.2290 C   0  0  0  0  0  0  0  0  0  0  0  0
  -22.4120  -12.9120   22.1040 N   0  0  0  0  0  0  0  0  0  0  0  0
  -22.6420  -14.6770   20.7600 O   0  0  0  0  0  0  0  0  0  0  0  0
  -22.7930  -12.0660   22.5020 H   0  0  0  0  0  0  0  0  0  0  0  0
  -21.4860  -13.2090   22.3820 H   0  0  0  0  0  0  0  0  0  0  0  0
  -25.6960  -15.3250   20.3460 N   0  0  0  0  0  0  0  0  0  0  0  0
  -24.9450  -15.9820   20.5190 H   0  0  0  0  0  0  0  0  0  0  0  0
  -26.5510  -15.7700   20.0360 H   0  0  0  0  0  0  0  0  0  0  0  0
  -26.1750  -24.0980   20.2970 C   0  0  0  0  0  2  0  0  0  0  0  0
  -23.9840  -22.4010   17.6100 C   0  0  0  0  0  2  0  0  0  0  0  0
  -22.9980  -23.3680   18.2820 C   0  0  0  0  0  2  0  0  0  0  0  0
  -25.3290  -22.5830   18.3310 C   0  0  0  0  0  2  0  0  0  0  0  0
  -23.7570  -23.9890   19.4610 C   0  0  0  0  0  2  0  0  0  0  0  0
  -25.2390  -23.9250   19.0710 C   0  0  1  0  0  0  0  0  0  0  0  0
  -25.4490  -24.9560   18.1240 O   0  0  0  0  0  0  0  0  0  0  0  0
  -24.8540  -24.7950   17.4010 H   0  0  0  0  0  0  0  0  0  0  0  0
  -28.3440  -25.4430   20.8510 C   0  0  0  0  0  2  0  0  0  0  0  0
  -28.4450  -26.7760   20.2680 O   0  0  0  0  0  0  0  0  0  0  0  0
  -24.6290  -31.9890   23.3320 C   0  0  0  0  0  0  0  0  0  0  0  0
  -27.3080  -27.5600   20.2550 C   0  0  0  0  0  0  0  0  0  0  0  0
  -23.4500  -30.6000   21.6610 C   0  0  0  0  0  3  0  0  0  0  0  0
  -24.9280  -29.0910   20.2320 C   0  0  0  0  0  0  0  0  0  0  0  0
  -25.9810  -30.9610   21.5070 C   0  0  0  0  0  2  0  0  0  0  0  0
  -26.0760  -29.5940   20.8590 C   0  0  0  0  0  0  0  0  0  0  0  0
  -27.2700  -28.8300   20.8790 C   0  0  0  0  0  3  0  0  0  0  0  0
  -26.1680  -27.1220   19.5570 C   0  0  0  0  0  3  0  0  0  0  0  0
  -24.9700  -27.8520   19.5770 C   0  0  0  0  0  3  0  0  0  0  0  0
  -23.6800  -29.9420   20.2760 C   0  0  0  0  0  2  0  0  0  0  0  0
  -24.7050  -31.1980   22.2250 N   0  0  0  0  0  0  0  0  0  0  0  0
  -23.5400  -32.2500   23.8620 O   0  0  0  0  0  0  0  0  0  0  0  0
  -22.7930  -29.5610   22.5990 C   0  0  0  0  0  0  0  0  0  0  0  0
  -21.4720  -29.3680   22.4480 N   0  0  0  0  0  0  0  0  0  0  0  0
  -23.4670  -28.9360   23.4220 O   0  0  0  0  0  0  0  0  0  0  0  0
  -20.9880  -29.9290   21.7610 H   0  0  0  0  0  0  0  0  0  0  0  0
  -18.0950  -28.1670   22.9020 C   0  0  0  0  0  0  0  0  0  0  0  0
  -20.6500  -28.4170   23.1960 C   0  0  0  0  0  3  0  0  0  0  0  0
  -20.7560  -26.9970   22.5950 C   0  0  0  0  0  2  0  0  0  0  0  0
  -19.6600  -26.6930   21.5680 C   0  0  0  0  0  2  0  0  0  0  0  0
  -18.2730  -26.8300   22.2050 C   0  0  0  0  0  2  0  0  0  0  0  0
  -19.2100  -28.9200   23.3530 C   0  0  0  0  0  0  0  0  0  0  0  0
  -18.9900  -30.1740   23.9630 C   0  0  0  0  0  3  0  0  0  0  0  0
  -17.6850  -30.6760   24.1270 C   0  0  0  0  0  3  0  0  0  0  0  0
  -16.5820  -29.9180   23.6950 C   0  0  0  0  0  3  0  0  0  0  0  0
  -16.7880  -28.6670   23.0890 C   0  0  0  0  0  3  0  0  0  0  0  0
  -25.9050  -32.6190   23.9730 C   0  0  0  0  0  3  0  0  0  0  0  0
  -25.5980  -34.0210   24.2840 N   0  0  0  0  0  0  0  0  0  0  0  0
  -25.9240  -35.0610   23.5070 C   0  0  0  0  0  0  0  0  0  0  0  0
  -26.5880  -34.9420   22.4730 O   0  0  0  0  0  0  0  0  0  0  0  0
  -25.0150  -34.1870   25.0910 H   0  0  0  0  0  0  0  0  0  0  0  0
  -24.1840  -36.8390   23.1370 C   0  0  0  0  0  1  0  0  0  0  0  0
  -25.4360  -36.4550   23.9430 C   0  0  0  0  0  3  0  0  0  0  0  0
  -27.5710  -37.3650   24.7420 C   0  0  0  0  0  1  0  0  0  0  0  0
  -26.4630  -37.5110   23.8030 N   0  0  0  0  0  0  0  0  0  0  0  0
  -26.0530  -38.4320   23.9360 H   0  0  0  0  0  0  0  0  0  0  0  0
  -26.3930  -31.8540   25.2640 C   0  0  1  0  0  0  0  0  0  0  0  0
  -25.2720  -31.6070   26.3010 C   0  0  0  0  0  1  0  0  0  0  0  0
  -27.0010  -30.4840   24.8900 C   0  0  0  0  0  1  0  0  0  0  0  0
  -27.5160  -32.6620   25.9570 C   0  0  0  0  0  1  0  0  0  0  0  0
  1  6  1  0
  1 51  1  0
  1 59  1  0
  3  2  1  0
  4  5  1  0
  5  2  2  0
  6  3  2  0
  7  4  2  0
  7  6  1  0
  8  7  1  0
  9 22  1  0
 10 15  1  0
 11 12  1  0
 11 10  1  0
 13 12  1  0
 13 26  1  0
 13 14  1  0
 15  9  1  0
 15 14  1  0
 16  9  2  0
 18 21  1  0
 19 17  1  0
 20 18  1  0
 20 22  1  0
 21  5  1  0
 21 17  1  0
 22 19  1  0
 23 24  2  0
 24 43  1  0
 25 24  1  0
 25 28  1  0
 26 27  1  0
 26 23  1  0
 27 25  2  0
 28 29  1  0
 29 30  2  0
 31 34  1  0
 31 30  1  0
 32 31  2  0
 33 32  1  0
 33 28  2  0
 34 35  1  0
 35 40  2  0
 35 36  1  0
 36 37  2  0
 38 37  1  0
 38 42  1  0
 39 38  2  0
 40 39  1  0
 41 40  1  0
 43 44  1  0
 44 47  1  0
 44 46  1  0
 45 43  2  0
 48 23  1  0
 48 49  1  0
 50 48  1  0
 52 53  1  0
 52 54  1  0
 53 55  1  0
 54 56  1  0
 56 55  1  0
 56 51  1  1
 57 56  1  0
 58 57  1  0
 60 59  1  0
 61 72  2  0
 62 60  1  0
 62 67  1  0
 63 71  1  0
 63 73  1  0
 64 70  1  0
 64 66  1  0
 65 71  1  0
 66 67  2  0
 66 65  1  0
 68 69  1  0
 68 62  2  0
 69 64  2  0
 70 63  1  0
 71 61  1  0
 73 75  2  0
 74 73  1  0
 76 74  1  0
 77 86  2  0
 77 82  1  0
 78 74  1  0
 78 82  1  0
 79 78  1  0
 80 81  1  0
 80 79  1  0
 81 77  1  0
 82 83  2  0
 83 84  1  0
 85 84  2  0
 86 85  1  0
 87 61  1  0
 87 88  1  0
 87 97  1  0
 88 91  1  0
 89 93  1  0
 89 88  1  0
 90 89  2  0
 93 92  1  0
 95 96  1  0
 95 93  1  0
 95 94  1  0
 97100  1  1
 97 98  1  0
 99 97  1  0
M  ISO  4   9 100  22 100  59 101  60 101
M  END
>  <TORSDO>  (65) 
F 21

>  <SCORE>  (65) 
-13.964

>  <name>  (65) 
64

>  <ligand_id>  (65) 
64

>  <original_smiles>  (65) 
[H]OC1(C([H])([H])C([H])(c2c([H])c([H])c(C3([H])C([H])([H])C([H])([H])N(C(=O)N4C([H])([H])C([H])([H])C([H])([H])C([H])(n5nc(-c6c([H])c([H])c(Oc7c([H])c([H])c(F)c([H])c7F)c([H])c6[H])c(C(=O)N([H])[H])c5N([H])[H])C4([H])[H])C([H])([H])C3([H])[H])c([H])c2C([H])([H])[H])C([H])([H])Oc2c([H])c([H])c3c(c2[H])C([H])([H])N(C(=O)C([H])(N([H])C(=O)C([H])(N([H])C([H])([H])[H])C([H])([H])[H])C(C([H])([H])[H])(C([H])([H])[H])C([H])([H])[H])C([H])(C(=O)N([H])C2([H])c4c([H])c([H])c([H])c([H])c4C([H])([H])C([H])([H])C2([H])[H])C3([H])[H])C([H])([H])C([H])([H])C([H])([H])C1([H])[H]

>  <smiles>  (65) 
[H]OC1(C([H])([H])C([H])(c2c([H])c([H])c(C3([H])C([H])([H])C([H])([H])N(C(=O)N4C([H])([H])C([H])([H])C([H])([H])C([H])(n5nc(-c6c([H])c([H])c(Oc7c([H])c([H])c(F)c([H])c7F)c([H])c6[H])c(C(=O)N([H])[H])c5N([H])[H])C4([H])[H])C([H])([H])C3([H])[H])c([H])c2C([H])([H])[H])C([H])([H])Oc2c([H])c([H])c3c(c2[H])C([H])([H])N(C(=O)C([H])(N([H])C(=O)C([H])(N([H])C([H])([H])[H])C([H])([H])[H])C(C([H])([H])[H])(C([H])([H])[H])C([H])([H])[H])C([H])(C(=O)N([H])C2([H])c4c([H])c([H])c([H])c([H])c4C([H])([H])C([H])([H])C2([H])[H])C3([H])[H])C([H])([H])C([H])([H])C([H])([H])C1([H])[H]

$$$$
65:0:0
     RDKit          3D

 94103  0  0  1  0  0  0  0  0999 V2000
  -27.7450  -21.6370   20.6580 C   0  0  0  0  0  3  0  0  0  0  0  0
  -29.7840  -20.8120   19.6740 C   0  0  0  0  0  3  0  0  0  0  0  0
  -27.5090  -20.3300   21.1140 C   0  0  0  0  0  3  0  0  0  0  0  0
  -28.9090  -21.9130   19.9120 C   0  0  0  0  0  0  0  0  0  0  0  0
  -29.4870  -19.5150   20.1930 C   0  0  0  0  0  0  0  0  0  0  0  0
  -28.3550  -19.3020   20.9010 N   0  0  0  0  0  0  0  0  0  0  0  0
  -31.0950  -14.7490   19.5260 C   0  0  0  0  0  0  0  0  0  0  0  0
  -30.6870  -12.5400   18.4700 C   0  0  0  0  0  2  0  0  0  0  0  0
  -29.5750  -12.6570   17.4080 C   0  0  0  0  0  2  0  0  0  0  0  0
  -28.1860  -12.4940   18.0540 C   0  0  0  0  0  2  0  0  0  0  0  0
  -28.0080  -13.3760   19.3190 C   0  0  0  0  0  3  0  0  0  0  0  0
  -29.2150  -13.2300   20.2710 C   0  0  0  0  0  2  0  0  0  0  0  0
  -30.4350  -13.5520   19.5110 N   0  0  0  0  0  0  0  0  0  0  0  0
  -32.0700  -14.9710   18.8010 O   0  0  0  0  0  0  0  0  0  0  0  0
  -32.2290  -17.0920   21.6230 C   0  0  0  0  0  2  0  0  0  0  0  0
  -31.3070  -15.8670   21.6670 C   0  0  0  0  0  2  0  0  0  0  0  0
  -29.8080  -16.8880   19.9970 C   0  0  0  0  0  2  0  0  0  0  0  0
  -30.4850  -18.3120   20.1710 C   0  0  0  0  0  3  0  0  0  0  0  0
  -31.4100  -18.3790   21.4180 C   0  0  0  0  0  3  0  0  0  0  0  0
  -30.6300  -15.7000   20.3820 N   0  0  0  0  0  0  0  0  0  0  0  0
  -25.8080  -13.9760   20.5080 C   0  0  0  0  0  0  0  0  0  0  0  0
  -24.7770  -13.2030   20.9700 C   0  0  0  0  0  0  0  0  0  0  0  0
  -25.1480  -11.8490   20.7030 C   0  0  0  0  0  0  0  0  0  0  0  0
  -26.7460  -13.0920   19.9960 N   0  0  0  0  0  0  0  0  0  0  0  0
  -26.3620  -11.8010   20.1680 N   0  0  0  0  0  0  0  0  0  0  0  0
  -24.3940  -10.6000   20.8740 C   0  0  0  0  0  0  0  0  0  0  0  0
  -24.8240   -9.5940   21.7660 C   0  0  0  0  0  3  0  0  0  0  0  0
  -24.0720   -8.4090   21.9260 C   0  0  0  0  0  3  0  0  0  0  0  0
  -22.8750   -8.2250   21.1940 C   0  0  0  0  0  0  0  0  0  0  0  0
  -22.4630   -9.2200   20.2920 C   0  0  0  0  0  3  0  0  0  0  0  0
  -23.2140  -10.3960   20.1290 C   0  0  0  0  0  3  0  0  0  0  0  0
  -22.0940   -7.0970   21.2660 O   0  0  0  0  0  0  0  0  0  0  0  0
  -21.9360   -6.4040   22.4400 C   0  0  0  0  0  0  0  0  0  0  0  0
  -21.3890   -7.0090   23.5940 C   0  0  0  0  0  3  0  0  0  0  0  0
  -21.1800   -6.2430   24.7570 C   0  0  0  0  0  3  0  0  0  0  0  0
  -21.5040   -4.8730   24.7670 C   0  0  0  0  0  0  0  0  0  0  0  0
  -22.0430   -4.2690   23.6190 C   0  0  0  0  0  3  0  0  0  0  0  0
  -22.2540   -5.0320   22.4570 C   0  0  0  0  0  0  0  0  0  0  0  0
  -22.7530   -4.4400   21.3450 F   0  0  0  0  0  0  0  0  0  0  0  0
  -21.2960   -4.1350   25.8830 F   0  0  0  0  0  0  0  0  0  0  0  0
  -23.4780  -13.6940   21.5410 C   0  0  0  0  0  0  0  0  0  0  0  0
  -22.8890  -12.9400   22.4630 N   0  0  0  0  0  0  0  0  0  0  0  0
  -23.0000  -14.7770   21.2040 O   0  0  0  0  0  0  0  0  0  0  0  0
  -23.2910  -12.0600   22.7520 H   0  0  0  0  0  0  0  0  0  0  0  0
  -22.0260  -13.2480   22.8860 H   0  0  0  0  0  0  0  0  0  0  0  0
  -26.0180  -15.3500   20.4620 N   0  0  0  0  0  0  0  0  0  0  0  0
  -25.3250  -16.0140   20.7890 H   0  0  0  0  0  0  0  0  0  0  0  0
  -26.8340  -15.7950   20.0610 H   0  0  0  0  0  0  0  0  0  0  0  0
  -32.6760  -20.1000   22.5040 C   0  0  0  0  0  1  0  0  0  0  0  0
  -32.2920  -19.4920   21.2770 O   0  0  0  0  0  0  0  0  0  0  0  0
  -29.2140  -23.1880   19.4250 O   0  0  0  0  0  0  0  0  0  0  0  0
  -28.4430  -24.3450   19.8630 C   0  0  0  0  0  2  0  0  0  0  0  0
  -28.8080  -25.6580   19.0920 C   0  0  0  0  0  2  0  0  0  0  0  0
  -28.6750  -26.9180   19.8050 O   0  0  0  0  0  0  0  0  0  0  0  0
  -24.8620  -31.7510   23.4160 C   0  0  0  0  0  0  0  0  0  0  0  0
  -27.4830  -27.6300   19.8530 C   0  0  0  0  0  0  0  0  0  0  0  0
  -23.6390  -30.5200   21.6520 C   0  0  0  0  0  3  0  0  0  0  0  0
  -25.0800  -29.1410   20.0530 C   0  0  0  0  0  0  0  0  0  0  0  0
  -26.1640  -30.8990   21.4620 C   0  0  0  0  0  2  0  0  0  0  0  0
  -26.2450  -29.6000   20.6780 C   0  0  0  0  0  0  0  0  0  0  0  0
  -27.4430  -28.8510   20.5760 C   0  0  0  0  0  3  0  0  0  0  0  0
  -26.2950  -27.1920   19.2250 C   0  0  0  0  0  3  0  0  0  0  0  0
  -25.1030  -27.9390   19.3230 C   0  0  0  0  0  3  0  0  0  0  0  0
  -23.8330  -29.9860   20.2070 C   0  0  0  0  0  2  0  0  0  0  0  0
  -24.9070  -31.0680   22.2350 N   0  0  0  0  0  0  0  0  0  0  0  0
  -23.7880  -31.9590   23.9960 O   0  0  0  0  0  0  0  0  0  0  0  0
  -23.0040  -29.4030   22.5130 C   0  0  0  0  0  0  0  0  0  0  0  0
  -21.6930  -29.1800   22.3320 N   0  0  0  0  0  0  0  0  0  0  0  0
  -23.6910  -28.7440   23.2970 O   0  0  0  0  0  0  0  0  0  0  0  0
  -21.1970  -29.7700   21.6780 H   0  0  0  0  0  0  0  0  0  0  0  0
  -18.3780  -27.7570   22.5680 C   0  0  0  0  0  0  0  0  0  0  0  0
  -20.8970  -28.1500   23.0000 C   0  0  0  0  0  3  0  0  0  0  0  0
  -21.1190  -26.7650   22.3510 C   0  0  0  0  0  2  0  0  0  0  0  0
  -20.0970  -26.4380   21.2580 C   0  0  0  0  0  2  0  0  0  0  0  0
  -18.6750  -26.4630   21.8290 C   0  0  0  0  0  2  0  0  0  0  0  0
  -19.4220  -28.5570   23.1040 C   0  0  0  0  0  0  0  0  0  0  0  0
  -19.0940  -29.7690   23.7500 C   0  0  0  0  0  3  0  0  0  0  0  0
  -17.7540  -30.1810   23.8690 C   0  0  0  0  0  3  0  0  0  0  0  0
  -16.7230  -29.3790   23.3500 C   0  0  0  0  0  3  0  0  0  0  0  0
  -17.0350  -28.1690   22.7050 C   0  0  0  0  0  3  0  0  0  0  0  0
  -26.1540  -32.3220   24.0800 C   0  0  0  0  0  3  0  0  0  0  0  0
  -26.6590  -31.4590   25.3020 C   0  0  1  0  0  0  0  0  0  0  0  0
  -25.5550  -31.1390   26.3370 C   0  0  0  0  0  1  0  0  0  0  0  0
  -27.2550  -30.1180   24.8150 C   0  0  0  0  0  1  0  0  0  0  0  0
  -27.7960  -32.2070   26.0370 C   0  0  0  0  0  1  0  0  0  0  0  0
  -25.8640  -33.6980   24.5050 N   0  0  0  0  0  0  0  0  0  0  0  0
  -26.2310  -34.7960   23.8310 C   0  0  0  0  0  0  0  0  0  0  0  0
  -26.9220  -34.7540   22.8090 O   0  0  0  0  0  0  0  0  0  0  0  0
  -25.2580  -33.8070   25.3050 H   0  0  0  0  0  0  0  0  0  0  0  0
  -24.5590  -36.6540   23.5560 C   0  0  0  0  0  1  0  0  0  0  0  0
  -25.7580  -36.1570   24.3790 C   0  0  0  0  0  3  0  0  0  0  0  0
  -27.8760  -36.9220   25.3560 C   0  0  0  0  0  1  0  0  0  0  0  0
  -26.8180  -37.1880   24.3860 N   0  0  0  0  0  0  0  0  0  0  0  0
  -26.4280  -38.1050   24.5870 H   0  0  0  0  0  0  0  0  0  0  0  0
  1  3  1  0
  2  4  1  0
  2  5  2  0
  4  1  2  0
  5  6  1  0
  6  3  2  0
  7 20  1  0
  8 13  1  0
  9 10  1  0
  9  8  1  0
 11 10  1  0
 11 24  1  0
 11 12  1  0
 13  7  1  0
 13 12  1  0
 14  7  2  0
 15 16  1  0
 17 18  1  0
 17 20  1  0
 18  5  1  0
 18 19  1  0
 19 50  1  0
 19 15  1  0
 20 16  1  0
 21 22  2  0
 22 41  1  0
 23 26  1  0
 23 22  1  0
 24 25  1  0
 24 21  1  0
 25 23  2  0
 26 27  1  0
 27 28  2  0
 29 32  1  0
 29 28  1  0
 30 29  2  0
 31 30  1  0
 31 26  2  0
 32 33  1  0
 33 38  2  0
 33 34  1  0
 34 35  2  0
 35 36  1  0
 36 40  1  0
 37 36  2  0
 38 37  1  0
 39 38  1  0
 41 42  1  0
 42 44  1  0
 42 45  1  0
 43 41  2  0
 46 21  1  0
 46 47  1  0
 48 46  1  0
 50 49  1  0
 51 52  1  0
 51  4  1  0
 53 54  1  0
 53 52  1  0
 54 56  1  0
 55 66  2  0
 56 61  1  0
 57 65  1  0
 57 67  1  0
 58 64  1  0
 58 60  1  0
 59 65  1  0
 60 59  1  0
 61 60  2  0
 62 63  1  0
 62 56  2  0
 63 58  2  0
 64 57  1  0
 65 55  1  0
 67 69  2  0
 68 67  1  0
 70 68  1  0
 71 80  2  0
 71 76  1  0
 72 68  1  0
 72 76  1  0
 73 72  1  0
 74 75  1  0
 74 73  1  0
 75 71  1  0
 76 77  2  0
 77 78  1  0
 79 78  2  0
 80 79  1  0
 81 55  1  0
 81 86  1  0
 81 82  1  0
 82 85  1  1
 82 83  1  0
 84 82  1  0
 86 89  1  0
 87 91  1  0
 87 86  1  0
 88 87  2  0
 91 90  1  0
 91 93  1  0
 93 94  1  0
 93 92  1  0
M  ISO  4   7 100  20 100  53 101  54 101
M  END
>  <TORSDO>  (66) 
F 20

>  <SCORE>  (66) 
-9.925

>  <name>  (66) 
65

>  <ligand_id>  (66) 
65

>  <original_smiles>  (66) 
[H]c1nc(C2([H])C([H])([H])N(C(=O)N3C([H])([H])C([H])([H])C([H])([H])C([H])(n4nc(-c5c([H])c([H])c(Oc6c([H])c([H])c(F)c([H])c6F)c([H])c5[H])c(C(=O)N([H])[H])c4N([H])[H])C3([H])[H])C([H])([H])C([H])([H])C2([H])OC([H])([H])[H])c([H])c(OC([H])([H])C([H])([H])Oc2c([H])c([H])c3c(c2[H])C([H])([H])N(C(=O)C([H])(N([H])C(=O)C([H])(N([H])C([H])([H])[H])C([H])([H])[H])C(C([H])([H])[H])(C([H])([H])[H])C([H])([H])[H])C([H])(C(=O)N([H])C2([H])c4c([H])c([H])c([H])c([H])c4C([H])([H])C([H])([H])C2([H])[H])C3([H])[H])c1[H]

>  <smiles>  (66) 
[H]c1nc(C2([H])C([H])([H])N(C(=O)N3C([H])([H])C([H])([H])C([H])([H])C([H])(n4nc(-c5c([H])c([H])c(Oc6c([H])c([H])c(F)c([H])c6F)c([H])c5[H])c(C(=O)N([H])[H])c4N([H])[H])C3([H])[H])C([H])([H])C([H])([H])C2([H])OC([H])([H])[H])c([H])c(OC([H])([H])C([H])([H])Oc2c([H])c([H])c3c(c2[H])C([H])([H])N(C(=O)C([H])(N([H])C(=O)C([H])(N([H])C([H])([H])[H])C([H])([H])[H])C(C([H])([H])[H])(C([H])([H])[H])C([H])([H])[H])C([H])(C(=O)N([H])C2([H])c4c([H])c([H])c([H])c([H])c4C([H])([H])C([H])([H])C2([H])[H])C3([H])[H])c1[H]

$$$$
66:0:0
     RDKit          3D

 94102  0  0  1  0  0  0  0  0999 V2000
  -31.9090  -24.2100   20.4170 C   0  0  0  0  0  2  0  0  0  0  0  0
  -30.7850  -25.2240   20.5100 C   0  0  0  0  0  2  0  0  0  0  0  0
  -31.2100  -22.8470   20.5670 C   0  0  0  0  0  3  0  0  0  0  0  0
  -29.6270  -24.5060   19.8150 C   0  0  0  0  0  3  0  0  0  0  0  0
  -31.3130  -22.3260   22.0120 C   0  0  0  0  0  1  0  0  0  0  0  0
  -29.7780  -23.0450   20.1930 N   0  0  1  0  0  4  0  0  0  0  0  0
  -29.2850  -22.9290   21.0670 H   0  0  0  0  0  0  0  0  0  0  0  0
  -28.2710  -25.1960   20.1530 C   0  0  0  0  0  2  0  0  0  0  0  0
  -28.3650  -26.6380   19.9800 O   0  0  0  0  0  0  0  0  0  0  0  0
  -24.5910  -31.8310   23.1520 C   0  0  0  0  0  0  0  0  0  0  0  0
  -27.1980  -27.3860   20.0030 C   0  0  0  0  0  0  0  0  0  0  0  0
  -23.3780  -30.4590   21.4940 C   0  0  0  0  0  3  0  0  0  0  0  0
  -24.8170  -28.9340   20.0430 C   0  0  0  0  0  0  0  0  0  0  0  0
  -25.9090  -30.7980   21.3000 C   0  0  0  0  0  2  0  0  0  0  0  0
  -25.9840  -29.4370   20.6340 C   0  0  0  0  0  0  0  0  0  0  0  0
  -27.1780  -28.6750   20.6010 C   0  0  0  0  0  3  0  0  0  0  0  0
  -26.0100  -26.9150   19.4020 C   0  0  0  0  0  3  0  0  0  0  0  0
  -24.8270  -27.6740   19.4260 C   0  0  0  0  0  3  0  0  0  0  0  0
  -23.5790  -29.8010   20.1050 C   0  0  0  0  0  2  0  0  0  0  0  0
  -24.6460  -31.0450   22.0400 N   0  0  0  0  0  0  0  0  0  0  0  0
  -23.5110  -32.0990   23.6950 O   0  0  0  0  0  0  0  0  0  0  0  0
  -22.7220  -29.4260   22.4400 C   0  0  0  0  0  0  0  0  0  0  0  0
  -21.3940  -29.2580   22.3210 N   0  0  0  0  0  0  0  0  0  0  0  0
  -23.4050  -28.7760   23.2380 O   0  0  0  0  0  0  0  0  0  0  0  0
  -20.9060  -29.8260   21.6440 H   0  0  0  0  0  0  0  0  0  0  0  0
  -18.0090  -28.0980   22.8300 C   0  0  0  0  0  0  0  0  0  0  0  0
  -20.5740  -28.3140   23.0790 C   0  0  0  0  0  3  0  0  0  0  0  0
  -20.6500  -26.8960   22.4690 C   0  0  0  0  0  2  0  0  0  0  0  0
  -19.5300  -26.6120   21.4620 C   0  0  0  0  0  2  0  0  0  0  0  0
  -18.1590  -26.7620   22.1240 C   0  0  0  0  0  2  0  0  0  0  0  0
  -19.1440  -28.8350   23.2630 C   0  0  0  0  0  0  0  0  0  0  0  0
  -18.9480  -30.0890   23.8830 C   0  0  0  0  0  3  0  0  0  0  0  0
  -17.6530  -30.6060   24.0720 C   0  0  0  0  0  3  0  0  0  0  0  0
  -16.5330  -29.8660   23.6530 C   0  0  0  0  0  3  0  0  0  0  0  0
  -16.7130  -28.6130   23.0390 C   0  0  0  0  0  3  0  0  0  0  0  0
  -25.8780  -32.4480   23.7790 C   0  0  0  0  0  3  0  0  0  0  0  0
  -25.5680  -33.8350   24.1490 N   0  0  0  0  0  0  0  0  0  0  0  0
  -25.8920  -34.9090   23.4160 C   0  0  0  0  0  0  0  0  0  0  0  0
  -26.5540  -34.8360   22.3790 O   0  0  0  0  0  0  0  0  0  0  0  0
  -24.9730  -33.9640   24.9550 H   0  0  0  0  0  0  0  0  0  0  0  0
  -24.1500  -36.6980   23.1250 C   0  0  0  0  0  1  0  0  0  0  0  0
  -25.4020  -36.2820   23.9130 C   0  0  0  0  0  3  0  0  0  0  0  0
  -27.5440  -37.1520   24.7380 C   0  0  0  0  0  1  0  0  0  0  0  0
  -26.4280  -37.3430   23.8160 N   0  0  0  0  0  0  0  0  0  0  0  0
  -26.0220  -38.2570   23.9940 H   0  0  0  0  0  0  0  0  0  0  0  0
  -26.4040  -31.6440   25.0290 C   0  0  1  0  0  0  0  0  0  0  0  0
  -25.3190  -31.3740   26.0980 C   0  0  0  0  0  1  0  0  0  0  0  0
  -26.9840  -30.2780   24.5930 C   0  0  0  0  0  1  0  0  0  0  0  0
  -27.5610  -32.4200   25.7010 C   0  0  0  0  0  1  0  0  0  0  0  0
  -29.1410  -22.0540   19.2390 C   0  0  0  0  0  2  0  0  0  0  0  0
  -29.1890  -20.1290   17.6080 C   0  0  0  0  0  1  0  0  0  0  0  0
  -29.7170  -20.5830   18.9880 C   0  0  0  0  0  3  0  0  0  0  0  0
  -27.9800  -19.2700   20.4200 C   0  0  0  0  0  1  0  0  0  0  0  0
  -29.4720  -19.4330   20.0570 C   0  0  0  0  0  3  0  0  0  0  0  0
  -30.0400  -18.0130   19.6510 C   0  0  0  0  0  2  0  0  0  0  0  0
  -30.4380  -17.0420   20.8160 C   0  0  0  0  0  2  0  0  0  0  0  0
  -30.6870  -14.5630   20.1930 C   0  0  0  0  0  0  0  0  0  0  0  0
  -30.3450  -12.3650   19.1070 C   0  0  0  0  0  2  0  0  0  0  0  0
  -29.3880  -12.5510   17.9130 C   0  0  0  0  0  2  0  0  0  0  0  0
  -27.9240  -12.4110   18.3780 C   0  0  0  0  0  2  0  0  0  0  0  0
  -27.6080  -13.2720   19.6290 C   0  0  0  0  0  3  0  0  0  0  0  0
  -28.6890  -13.0930   20.7190 C   0  0  0  0  0  2  0  0  0  0  0  0
  -29.9970  -13.3840   20.1090 N   0  0  0  0  0  0  0  0  0  0  0  0
  -31.8170  -14.6990   19.7250 O   0  0  0  0  0  0  0  0  0  0  0  0
  -30.0020  -15.6260   20.6750 N   0  0  0  0  0  0  0  0  0  0  0  0
  -29.0890  -15.4110   21.0430 H   0  0  0  0  0  0  0  0  0  0  0  0
  -25.2300  -13.8970   20.3840 C   0  0  0  0  0  0  0  0  0  0  0  0
  -24.1630  -13.1360   20.7760 C   0  0  0  0  0  0  0  0  0  0  0  0
  -24.6110  -11.7790   20.7420 C   0  0  0  0  0  0  0  0  0  0  0  0
  -26.2640  -13.0050   20.1410 N   0  0  0  0  0  0  0  0  0  0  0  0
  -25.8950  -11.7260   20.4130 N   0  0  0  0  0  0  0  0  0  0  0  0
  -23.8770  -10.5240   20.9570 C   0  0  0  0  0  0  0  0  0  0  0  0
  -24.3250   -9.5510   21.8770 C   0  0  0  0  0  3  0  0  0  0  0  0
  -23.5930   -8.3630   22.0780 C   0  0  0  0  0  3  0  0  0  0  0  0
  -22.3950   -8.1370   21.3580 C   0  0  0  0  0  0  0  0  0  0  0  0
  -21.9640   -9.0980   20.4270 C   0  0  0  0  0  3  0  0  0  0  0  0
  -22.6970  -10.2800   20.2240 C   0  0  0  0  0  3  0  0  0  0  0  0
  -21.6330   -6.9990   21.4650 O   0  0  0  0  0  0  0  0  0  0  0  0
  -21.6200   -6.2470   22.6120 C   0  0  0  0  0  0  0  0  0  0  0  0
  -21.2730   -6.8030   23.8620 C   0  0  0  0  0  3  0  0  0  0  0  0
  -21.2060   -5.9810   25.0050 C   0  0  0  0  0  3  0  0  0  0  0  0
  -21.4740   -4.6020   24.8990 C   0  0  0  0  0  0  0  0  0  0  0  0
  -21.8180   -4.0470   23.6520 C   0  0  0  0  0  3  0  0  0  0  0  0
  -21.8890   -4.8670   22.5120 C   0  0  0  0  0  0  0  0  0  0  0  0
  -22.1950   -4.3220   21.3110 F   0  0  0  0  0  0  0  0  0  0  0  0
  -21.4050   -3.8090   25.9950 F   0  0  0  0  0  0  0  0  0  0  0  0
  -22.7770  -13.6270   21.0740 C   0  0  0  0  0  0  0  0  0  0  0  0
  -22.0600  -12.9450   21.9610 N   0  0  0  0  0  0  0  0  0  0  0  0
  -22.3350  -14.6520   20.5580 O   0  0  0  0  0  0  0  0  0  0  0  0
  -22.4270  -12.1150   22.4030 H   0  0  0  0  0  0  0  0  0  0  0  0
  -21.1320  -13.2600   22.2020 H   0  0  0  0  0  0  0  0  0  0  0  0
  -25.4070  -15.2630   20.1860 N   0  0  0  0  0  0  0  0  0  0  0  0
  -24.6530  -15.9360   20.2870 H   0  0  0  0  0  0  0  0  0  0  0  0
  -26.2570  -15.6790   19.8220 H   0  0  0  0  0  0  0  0  0  0  0  0
  1  2  1  0
  1  3  1  0
  3  5  1  0
  4  8  1  0
  4  6  1  0
  4  2  1  0
  6  3  1  0
  6  7  1  1
  9 11  1  0
  9  8  1  0
 10 21  2  0
 11 16  1  0
 12 20  1  0
 12 22  1  0
 13 19  1  0
 13 15  1  0
 14 20  1  0
 15 14  1  0
 16 15  2  0
 17 18  1  0
 17 11  2  0
 18 13  2  0
 19 12  1  0
 20 10  1  0
 22 24  2  0
 23 22  1  0
 25 23  1  0
 26 35  2  0
 26 31  1  0
 27 23  1  0
 27 31  1  0
 28 27  1  0
 29 30  1  0
 29 28  1  0
 30 26  1  0
 31 32  2  0
 32 33  1  0
 34 33  2  0
 35 34  1  0
 36 10  1  0
 36 37  1  0
 36 46  1  0
 37 40  1  0
 38 42  1  0
 38 37  1  0
 39 38  2  0
 42 41  1  0
 44 42  1  0
 44 45  1  0
 44 43  1  0
 46 49  1  1
 46 47  1  0
 48 46  1  0
 50  6  1  0
 52 51  1  0
 52 50  1  0
 52 54  1  0
 54 53  1  0
 55 54  1  0
 55 56  1  0
 57 65  1  0
 58 63  1  0
 59 60  1  0
 59 58  1  0
 61 60  1  0
 61 70  1  0
 61 62  1  0
 63 57  1  0
 63 62  1  0
 64 57  2  0
 65 56  1  0
 65 66  1  0
 67 68  2  0
 68 87  1  0
 69 68  1  0
 69 72  1  0
 70 67  1  0
 70 71  1  0
 71 69  2  0
 72 73  1  0
 73 74  2  0
 75 78  1  0
 75 74  1  0
 76 75  2  0
 77 76  1  0
 77 72  2  0
 78 79  1  0
 79 80  1  0
 80 81  2  0
 82 81  1  0
 82 86  1  0
 83 82  2  0
 84 79  2  0
 84 83  1  0
 85 84  1  0
 87 88  1  0
 88 91  1  0
 88 90  1  0
 89 87  2  0
 92 93  1  0
 92 67  1  0
 94 92  1  0
M  ISO  4   8 101   9 101  57 100  65 100
M  END
>  <TORSDO>  (67) 
F 22

>  <SCORE>  (67) 
-12.899

>  <name>  (67) 
66

>  <ligand_id>  (67) 
66

>  <original_smiles>  (67) 
[H]c1c([H])c([H])c2c(c1[H])C([H])([H])C([H])([H])C([H])([H])C2([H])N([H])C(=O)C1([H])N(C(=O)C([H])(N([H])C(=O)C([H])(N([H])C([H])([H])[H])C([H])([H])[H])C(C([H])([H])[H])(C([H])([H])[H])C([H])([H])[H])C([H])([H])c2c([H])c(OC([H])([H])C3([H])C([H])([H])C([H])([H])C([H])(C([H])([H])[H])[N+]3([H])C([H])([H])C([H])(C([H])([H])[H])C([H])(C([H])([H])[H])C([H])([H])C([H])([H])N([H])C(=O)N3C([H])([H])C([H])([H])C([H])([H])C([H])(n4nc(-c5c([H])c([H])c(Oc6c([H])c([H])c(F)c([H])c6F)c([H])c5[H])c(C(=O)N([H])[H])c4N([H])[H])C3([H])[H])c([H])c([H])c2C1([H])[H]

>  <smiles>  (67) 
[H]c1c([H])c([H])c2c(c1[H])C([H])([H])C([H])([H])C([H])([H])C2([H])N([H])C(=O)C1([H])N(C(=O)C([H])(N([H])C(=O)C([H])(N([H])C([H])([H])[H])C([H])([H])[H])C(C([H])([H])[H])(C([H])([H])[H])C([H])([H])[H])C([H])([H])c2c([H])c(OC([H])([H])C3([H])C([H])([H])C([H])([H])C([H])(C([H])([H])[H])[N+]3([H])C([H])([H])C([H])(C([H])([H])[H])C([H])(C([H])([H])[H])C([H])([H])C([H])([H])N([H])C(=O)N3C([H])([H])C([H])([H])C([H])([H])C([H])(n4nc(-c5c([H])c([H])c(Oc6c([H])c([H])c(F)c([H])c6F)c([H])c5[H])c(C(=O)N([H])[H])c4N([H])[H])C3([H])[H])c([H])c([H])c2C1([H])[H]

$$$$
67:0:0
     RDKit          3D

 96104  0  0  1  0  0  0  0  0999 V2000
  -29.5990  -20.5920   19.9530 C   0  0  0  0  0  3  0  0  0  0  0  0
  -30.3270  -22.0460   21.7510 C   0  0  0  0  0  3  0  0  0  0  0  0
  -29.9110  -19.4380   20.7280 C   0  0  0  0  0  0  0  0  0  0  0  0
  -30.6240  -20.9240   22.5580 C   0  0  0  0  0  0  0  0  0  0  0  0
  -30.3900  -19.6240   22.0470 C   0  0  0  0  0  0  0  0  0  0  0  0
  -29.7620  -21.9070   20.4620 C   0  0  0  0  0  0  0  0  0  0  0  0
  -30.5680  -18.5030   22.8580 N   0  0  0  0  0  0  0  0  0  0  0  0
  -30.4050  -17.5680   22.5070 H   0  0  0  0  0  0  0  0  0  0  0  0
  -30.9480  -18.5610   23.7940 H   0  0  0  0  0  0  0  0  0  0  0  0
  -29.9600  -22.0040   24.7200 C   0  0  0  0  0  1  0  0  0  0  0  0
  -32.4280  -21.8060   24.1570 C   0  0  0  0  0  1  0  0  0  0  0  0
  -31.0380  -21.1700   24.0120 C   0  0  0  0  0  3  0  0  0  0  0  0
  -29.5750  -18.0110   20.2300 C   0  0  0  0  0  2  0  0  0  0  0  0
  -30.7080  -16.9330   20.3300 C   0  0  0  0  0  2  0  0  0  0  0  0
  -30.9330  -14.4310   19.9380 C   0  0  0  0  0  0  0  0  0  0  0  0
  -30.5100  -12.2570   18.8490 C   0  0  0  0  0  2  0  0  0  0  0  0
  -29.5300  -12.4900   17.6780 C   0  0  0  0  0  2  0  0  0  0  0  0
  -28.0690  -12.4240   18.1660 C   0  0  0  0  0  2  0  0  0  0  0  0
  -27.8230  -13.2830   19.4380 C   0  0  0  0  0  3  0  0  0  0  0  0
  -28.9130  -13.0290   20.5050 C   0  0  0  0  0  2  0  0  0  0  0  0
  -30.2180  -13.2730   19.8740 N   0  0  0  0  0  0  0  0  0  0  0  0
  -32.0920  -14.5240   19.5240 O   0  0  0  0  0  0  0  0  0  0  0  0
  -30.2280  -15.5290   20.2890 N   0  0  0  0  0  0  0  0  0  0  0  0
  -29.2690  -15.3650   20.5550 H   0  0  0  0  0  0  0  0  0  0  0  0
  -25.4910  -14.0190   20.2390 C   0  0  0  0  0  0  0  0  0  0  0  0
  -24.4080  -13.3010   20.6610 C   0  0  0  0  0  0  0  0  0  0  0  0
  -24.8010  -11.9280   20.6260 C   0  0  0  0  0  0  0  0  0  0  0  0
  -26.4820  -13.0830   19.9770 N   0  0  0  0  0  0  0  0  0  0  0  0
  -26.0740  -11.8220   20.2720 N   0  0  0  0  0  0  0  0  0  0  0  0
  -24.0250  -10.7040   20.8510 C   0  0  0  0  0  0  0  0  0  0  0  0
  -24.4400   -9.7330   21.7870 C   0  0  0  0  0  3  0  0  0  0  0  0
  -23.6660   -8.5740   22.0050 C   0  0  0  0  0  3  0  0  0  0  0  0
  -22.4640   -8.3780   21.2850 C   0  0  0  0  0  0  0  0  0  0  0  0
  -22.0720   -9.3360   20.3340 C   0  0  0  0  0  3  0  0  0  0  0  0
  -22.8440  -10.4870   20.1150 C   0  0  0  0  0  3  0  0  0  0  0  0
  -21.6640   -7.2680   21.4070 O   0  0  0  0  0  0  0  0  0  0  0  0
  -21.5940   -6.5560   22.5770 C   0  0  0  0  0  0  0  0  0  0  0  0
  -21.2220   -7.1640   23.7960 C   0  0  0  0  0  3  0  0  0  0  0  0
  -21.0960   -6.3820   24.9620 C   0  0  0  0  0  3  0  0  0  0  0  0
  -21.3280   -4.9960   24.9090 C   0  0  0  0  0  0  0  0  0  0  0  0
  -21.6930   -4.3880   23.6950 C   0  0  0  0  0  3  0  0  0  0  0  0
  -21.8200   -5.1670   22.5310 C   0  0  0  0  0  0  0  0  0  0  0  0
  -22.1500   -4.5730   21.3590 F   0  0  0  0  0  0  0  0  0  0  0  0
  -21.2010   -4.2440   26.0280 F   0  0  0  0  0  0  0  0  0  0  0  0
  -23.0420  -13.8420   20.9800 C   0  0  0  0  0  0  0  0  0  0  0  0
  -22.3270  -13.1930   21.8920 N   0  0  0  0  0  0  0  0  0  0  0  0
  -22.6230  -14.8730   20.4540 O   0  0  0  0  0  0  0  0  0  0  0  0
  -22.6880  -12.3650   22.3410 H   0  0  0  0  0  0  0  0  0  0  0  0
  -21.4030  -13.5230   22.1390 H   0  0  0  0  0  0  0  0  0  0  0  0
  -25.7160  -15.3760   20.0300 N   0  0  0  0  0  0  0  0  0  0  0  0
  -25.0010  -16.0780   20.1820 H   0  0  0  0  0  0  0  0  0  0  0  0
  -26.5720  -15.7630   19.6560 H   0  0  0  0  0  0  0  0  0  0  0  0
  -29.3150  -22.9980   19.7190 O   0  0  0  0  0  0  0  0  0  0  0  0
  -29.1220  -24.2620   20.3980 C   0  0  0  0  0  2  0  0  0  0  0  0
  -28.8150  -25.4670   19.4670 C   0  0  0  0  0  2  0  0  0  0  0  0
  -28.5790  -26.6930   20.1920 O   0  0  0  0  0  0  0  0  0  0  0  0
  -24.6800  -31.7220   23.3790 C   0  0  0  0  0  0  0  0  0  0  0  0
  -27.3700  -27.3730   20.1770 C   0  0  0  0  0  0  0  0  0  0  0  0
  -23.4960  -30.4060   21.6490 C   0  0  0  0  0  3  0  0  0  0  0  0
  -24.9710  -28.8970   20.2060 C   0  0  0  0  0  0  0  0  0  0  0  0
  -26.0270  -30.7480   21.5190 C   0  0  0  0  0  2  0  0  0  0  0  0
  -26.1180  -29.3970   20.8310 C   0  0  0  0  0  0  0  0  0  0  0  0
  -27.3120  -28.6370   20.8200 C   0  0  0  0  0  3  0  0  0  0  0  0
  -26.1960  -26.8920   19.5500 C   0  0  0  0  0  3  0  0  0  0  0  0
  -25.0040  -27.6430   19.5710 C   0  0  0  0  0  3  0  0  0  0  0  0
  -23.7310  -29.7590   20.2550 C   0  0  0  0  0  2  0  0  0  0  0  0
  -24.7520  -30.9730   22.2430 N   0  0  0  0  0  0  0  0  0  0  0  0
  -23.5920  -31.9850   23.9100 O   0  0  0  0  0  0  0  0  0  0  0  0
  -22.8060  -29.3660   22.5610 C   0  0  0  0  0  0  0  0  0  0  0  0
  -21.4870  -29.1860   22.3770 N   0  0  0  0  0  0  0  0  0  0  0  0
  -23.4580  -28.7200   23.3860 O   0  0  0  0  0  0  0  0  0  0  0  0
  -21.0240  -29.7610   21.6860 H   0  0  0  0  0  0  0  0  0  0  0  0
  -18.1100  -27.9430   22.6770 C   0  0  0  0  0  0  0  0  0  0  0  0
  -20.6460  -28.2240   23.0900 C   0  0  0  0  0  3  0  0  0  0  0  0
  -20.7950  -26.8050   22.4960 C   0  0  0  0  0  2  0  0  0  0  0  0
  -19.7510  -26.4880   21.4190 C   0  0  0  0  0  2  0  0  0  0  0  0
  -18.3360  -26.6070   21.9910 C   0  0  0  0  0  2  0  0  0  0  0  0
  -19.1960  -28.7080   23.1790 C   0  0  0  0  0  0  0  0  0  0  0  0
  -18.9310  -29.9570   23.7810 C   0  0  0  0  0  3  0  0  0  0  0  0
  -17.6140  -30.4400   23.8900 C   0  0  0  0  0  3  0  0  0  0  0  0
  -16.5420  -29.6720   23.4030 C   0  0  0  0  0  3  0  0  0  0  0  0
  -16.7910  -28.4260   22.8010 C   0  0  0  0  0  3  0  0  0  0  0  0
  -25.9610  -32.3090   24.0510 C   0  0  0  0  0  3  0  0  0  0  0  0
  -25.6760  -33.7070   24.4040 N   0  0  0  0  0  0  0  0  0  0  0  0
  -26.0480  -34.7660   23.6720 C   0  0  0  0  0  0  0  0  0  0  0  0
  -26.7360  -34.6680   22.6530 O   0  0  0  0  0  0  0  0  0  0  0  0
  -25.0670  -33.8610   25.1950 H   0  0  0  0  0  0  0  0  0  0  0  0
  -24.3560  -36.5960   23.3270 C   0  0  0  0  0  1  0  0  0  0  0  0
  -25.5800  -36.1550   24.1460 C   0  0  0  0  0  3  0  0  0  0  0  0
  -27.7210  -36.9880   25.0130 C   0  0  0  0  0  1  0  0  0  0  0  0
  -26.6310  -37.1920   24.0600 N   0  0  0  0  0  0  0  0  0  0  0  0
  -26.2400  -38.1170   24.2160 H   0  0  0  0  0  0  0  0  0  0  0  0
  -26.4250  -31.4980   25.3220 C   0  0  1  0  0  0  0  0  0  0  0  0
  -25.2980  -31.2700   26.3550 C   0  0  0  0  0  1  0  0  0  0  0  0
  -26.9820  -30.1120   24.9170 C   0  0  0  0  0  1  0  0  0  0  0  0
  -27.5780  -32.2460   26.0300 C   0  0  0  0  0  1  0  0  0  0  0  0
  1  6  2  0
  1  3  1  0
  2  4  2  0
  3  5  2  0
  4 12  1  0
  5  4  1  0
  5  7  1  0
  6  2  1  0
  7  9  1  0
  8  7  1  0
 12 11  1  0
 12 10  1  0
 13 14  1  0
 13  3  1  0
 15 23  1  0
 16 21  1  0
 17 18  1  0
 17 16  1  0
 19 18  1  0
 19 28  1  0
 19 20  1  0
 21 15  1  0
 21 20  1  0
 22 15  2  0
 23 14  1  0
 23 24  1  0
 25 26  2  0
 26 45  1  0
 27 26  1  0
 27 30  1  0
 28 25  1  0
 28 29  1  0
 29 27  2  0
 30 31  1  0
 31 32  2  0
 33 36  1  0
 33 32  1  0
 34 33  2  0
 35 34  1  0
 35 30  2  0
 36 37  1  0
 37 38  1  0
 38 39  2  0
 40 39  1  0
 40 44  1  0
 41 40  2  0
 42 37  2  0
 42 41  1  0
 43 42  1  0
 45 46  1  0
 46 49  1  0
 46 48  1  0
 47 45  2  0
 50 51  1  0
 50 25  1  0
 52 50  1  0
 53 54  1  0
 53  6  1  0
 55 56  1  0
 55 54  1  0
 57 68  2  0
 58 56  1  0
 58 63  1  0
 59 67  1  0
 59 69  1  0
 60 66  1  0
 60 62  1  0
 61 67  1  0
 62 61  1  0
 63 62  2  0
 64 65  1  0
 64 58  2  0
 65 60  2  0
 66 59  1  0
 67 57  1  0
 69 71  2  0
 70 69  1  0
 72 70  1  0
 73 82  2  0
 73 78  1  0
 74 70  1  0
 74 78  1  0
 75 74  1  0
 76 77  1  0
 76 75  1  0
 77 73  1  0
 78 79  2  0
 79 80  1  0
 81 80  2  0
 82 81  1  0
 83 57  1  0
 83 84  1  0
 83 93  1  0
 84 87  1  0
 85 89  1  0
 85 84  1  0
 86 85  2  0
 89 88  1  0
 91 89  1  0
 91 92  1  0
 91 90  1  0
 93 96  1  1
 93 94  1  0
 95 93  1  0
M  ISO  4  15 100  23 100  55 101  56 101
M  END
>  <TORSDO>  (68) 
F 23

>  <SCORE>  (68) 
-12.027

>  <name>  (68) 
67

>  <ligand_id>  (68) 
67

>  <original_smiles>  (68) 
[H]c1c([H])c([H])c2c(c1[H])C([H])([H])C([H])([H])C([H])([H])C2([H])N([H])C(=O)C1([H])N(C(=O)C([H])(N([H])C(=O)C([H])(N([H])C([H])([H])[H])C([H])([H])[H])C(C([H])([H])[H])(C([H])([H])[H])C([H])([H])[H])C([H])([H])c2c([H])c(OC([H])([H])C([H])([H])Oc3c([H])c(C([H])([H])C([H])([H])N([H])C(=O)N4C([H])([H])C([H])([H])C([H])([H])C([H])(n5nc(-c6c([H])c([H])c(Oc7c([H])c([H])c(F)c([H])c7F)c([H])c6[H])c(C(=O)N([H])[H])c5N([H])[H])C4([H])[H])c(N([H])[H])c(C([H])(C([H])([H])[H])C([H])([H])[H])c3[H])c([H])c([H])c2C1([H])[H]

>  <smiles>  (68) 
[H]c1c([H])c([H])c2c(c1[H])C([H])([H])C([H])([H])C([H])([H])C2([H])N([H])C(=O)C1([H])N(C(=O)C([H])(N([H])C(=O)C([H])(N([H])C([H])([H])[H])C([H])([H])[H])C(C([H])([H])[H])(C([H])([H])[H])C([H])([H])[H])C([H])([H])c2c([H])c(OC([H])([H])C([H])([H])Oc3c([H])c(C([H])([H])C([H])([H])N([H])C(=O)N4C([H])([H])C([H])([H])C([H])([H])C([H])(n5nc(-c6c([H])c([H])c(Oc7c([H])c([H])c(F)c([H])c7F)c([H])c6[H])c(C(=O)N([H])[H])c5N([H])[H])C4([H])[H])c(N([H])[H])c(C([H])(C([H])([H])[H])C([H])([H])[H])c3[H])c([H])c([H])c2C1([H])[H]

$$$$
68:0:0
     RDKit          3D

 95 92  0  0  1  0  0  0  0  0999 V2000
  -25.6540  -12.5800   18.5650 C   0  0  0  0  0 15  0  0  0  0  0  0
  -24.9550  -14.7300   18.5820 C   0  0  0  0  0 15  0  0  0  0  0  0
  -26.2120  -15.2850   22.0610 C   0  0  0  0  0 15  0  0  0  0  0  0
  -26.8490  -11.7550   20.4060 C   0  0  0  0  0  1  0  0  0  0  0  0
  -27.0500  -13.2270   22.0940 C   0  0  0  0  0  1  0  0  0  0  0  0
  -25.2940  -16.2110   20.2570 C   0  0  0  0  0  1  0  0  0  0  0  0
  -27.7440  -12.7780   23.3640 C   0  0  0  0  0  1  0  0  0  0  0  0
  -27.6610  -10.4300   20.4760 C   0  0  0  0  0  3  0  0  0  0  0  0
  -26.9400   -9.3550   19.7770 N   0  0  0  0  0  4  0  0  0  0  0  0
  -26.9330   -9.5040   18.7840 H   0  0  0  0  0  0  0  0  0  0  0  0
  -25.9880   -9.3240   20.1000 H   0  0  0  0  0  0  0  0  0  0  0  0
  -27.3660   -8.4630   19.9660 H   0  0  0  0  0  0  0  0  0  0  0  0
  -29.2190  -10.3620   20.1290 C   0  0  0  0  0  2  0  0  0  0  0  0
  -30.7400  -12.9080   19.7300 C   0  0  1  0  0  0  0  0  0  0  0  0
  -31.4560  -11.9180   18.7380 C   0  0  0  0  0  2  0  0  0  0  0  0
  -30.1200  -11.9660   17.5950 C   0  0  0  0  0  2  0  0  0  0  0  0
  -28.6090  -12.3570   18.1190 C   0  0  0  0  0  2  0  0  0  0  0  0
  -28.4460  -13.4180   19.3870 C   0  0  0  0  0  3  0  0  0  0  0  0
  -29.5730  -13.5380   20.7200 C   0  0  0  0  0  2  0  0  0  0  0  0
  -31.0670  -12.5180   20.4860 N   0  0  0  0  0  2  0  0  0  0  0  0
  -31.6200  -13.9380   19.7460 O   0  0  0  0  0  1  0  0  0  0  0  0
  -30.1880  -11.4740   20.4470 N   0  0  0  0  0  0  0  0  0  0  0  0
  -30.7170  -11.3000   21.2870 H   0  0  0  0  0  0  0  0  0  0  0  0
  -26.4200  -14.2730   20.2760 C   0  0  0  0  0  0  0  0  0  0  0  0
  -24.7120  -13.5880   20.8000 C   0  0  0  0  0  0  0  0  0  0  0  0
  -24.6070  -12.2350   20.9040 C   0  0  0  0  0  2  0  0  0  0  0  0
  -27.1170  -13.7920   19.9190 N   0  0  0  0  0  2  0  0  0  0  0  0
  -25.4430  -13.4250   20.5840 N   0  0  0  0  0  2  0  0  0  0  0  0
  -24.2070  -10.6760   21.0760 C   0  0  0  0  0  3  0  0  0  0  0  0
  -24.6180   -9.7260   22.0960 C   0  0  0  0  0  3  0  0  0  0  0  0
  -24.0200   -8.4260   22.2840 C   0  0  0  0  0  3  0  0  0  0  0  0
  -22.9380   -7.9990   21.4740 C   0  0  0  0  0  0  0  0  0  0  0  0
  -22.5760   -8.8720   20.4290 C   0  0  0  0  0  3  0  0  0  0  0  0
  -23.1940  -10.1400   20.2350 C   0  0  0  0  0  3  0  0  0  0  0  0
  -22.2390   -6.7970   21.5800 O   0  0  0  0  0  0  0  0  0  0  0  0
  -21.9920   -6.1280   22.7680 C   0  0  0  0  0  0  0  0  0  0  0  0
  -21.4090   -6.7610   23.8890 C   0  0  0  0  0  3  0  0  0  0  0  0
  -21.1300   -6.0250   25.0620 C   0  0  0  0  0  3  0  0  0  0  0  0
  -21.4220   -4.6490   25.1230 C   0  0  0  0  0  0  0  0  0  0  0  0
  -21.9730   -4.0030   24.0040 C   0  0  0  0  0  3  0  0  0  0  0  0
  -22.2460   -4.7360   22.8310 C   0  0  0  0  0  0  0  0  0  0  0  0
  -22.7500   -4.0880   21.7540 F   0  0  0  0  0  0  0  0  0  0  0  0
  -21.1710   -3.9450   26.2550 F   0  0  0  0  0  0  0  0  0  0  0  0
  -23.1610  -13.9520   21.1610 C   0  0  0  0  0  0  0  0  0  0  0  0
  -22.5190  -13.2020   22.0880 N   0  0  0  0  0  0  0  0  0  0  0  0
  -22.5320  -14.7440   20.4900 O   0  0  0  0  0  0  0  0  0  0  0  0
  -23.0150  -12.5230   22.6450 H   0  0  0  0  0  0  0  0  0  0  0  0
  -21.5410  -13.3680   22.2770 H   0  0  0  0  0  0  0  0  0  0  0  0
  -27.3210  -15.4380   20.0980 N   0  0  0  0  0  4  0  0  0  0  0  0
  -27.0060  -16.3670   20.3430 H   0  0  0  0  0  0  0  0  0  0  0  0
  -28.2680  -15.4170   19.7560 H   0  0  0  0  0  0  0  0  0  0  0  0
  -25.5600  -18.0030   19.8380 O   0  0  0  0  0  1  0  0  0  0  0  0
  -26.5030  -19.8750   19.8760 C   0  0  0  0  0 15  0  0  0  0  0  0
  -26.6830  -22.1950   19.5010 C   0  0  0  0  0 15  0  0  0  0  0  0
  -27.5620  -24.1060   19.5390 O   0  0  0  0  0  1  0  0  0  0  0  0
  -25.4560  -31.2420   22.8950 C   0  0  0  0  0  0  0  0  0  0  0  0
  -27.2420  -25.7810   19.5410 C   0  0  0  0  0  0  0  0  0  0  0  0
  -24.2570  -30.0190   21.1600 C   0  0  0  0  0  3  0  0  0  0  0  0
  -25.5900  -28.4360   19.5490 C   0  0  0  0  0  0  0  0  0  0  0  0
  -26.8330  -29.8810   21.1070 C   0  0  0  0  0  2  0  0  0  0  0  0
  -26.7530  -28.4630   20.3130 C   0  0  0  0  0  0  0  0  0  0  0  0
  -27.5840  -27.1600   20.2770 C   0  0  0  0  0  3  0  0  0  0  0  0
  -26.2720  -26.2040   18.6130 C   0  0  0  0  0  3  0  0  0  0  0  0
  -25.4570  -27.3750   18.6490 C   0  0  0  0  0  3  0  0  0  0  0  0
  -24.4890  -29.5010   19.7090 C   0  0  0  0  0  2  0  0  0  0  0  0
  -25.5560  -30.4360   21.7690 N   0  0  0  0  0  0  0  0  0  0  0  0
  -24.3560  -31.5200   23.4110 O   0  0  0  0  0  0  0  0  0  0  0  0
  -23.5390  -28.9490   22.0280 C   0  0  0  0  0  0  0  0  0  0  0  0
  -22.1990  -28.8390   21.9350 N   0  0  0  0  0  0  0  0  0  0  0  0
  -24.2000  -28.2270   22.7780 O   0  0  0  0  0  0  0  0  0  0  0  0
  -21.7090  -29.4730   21.3210 H   0  0  0  0  0  0  0  0  0  0  0  0
  -18.8100  -27.6410   22.4620 C   0  0  0  0  0  0  0  0  0  0  0  0
  -21.3840  -27.8340   22.6310 C   0  0  0  0  0  3  0  0  0  0  0  0
  -21.4270  -26.4780   21.8890 C   0  0  0  0  0  2  0  0  0  0  0  0
  -20.2760  -26.3010   20.8930 C   0  0  0  0  0  2  0  0  0  0  0  0
  -18.9280  -26.3860   21.6120 C   0  0  0  0  0  2  0  0  0  0  0  0
  -19.9620  -28.3290   22.9270 C   0  0  0  0  0  0  0  0  0  0  0  0
  -19.7940  -29.5040   23.6910 C   0  0  0  0  0  3  0  0  0  0  0  0
  -18.5070  -29.9920   23.9900 C   0  0  0  0  0  3  0  0  0  0  0  0
  -17.3700  -29.3000   23.5370 C   0  0  0  0  0  3  0  0  0  0  0  0
  -17.5230  -28.1250   22.7790 C   0  0  0  0  0  3  0  0  0  0  0  0
  -26.6980  -31.8690   23.5970 C   0  0  0  0  0  3  0  0  0  0  0  0
  -26.2980  -33.1650   24.1990 N   0  0  0  0  0  0  0  0  0  0  0  0
  -26.5650  -34.3810   23.7020 C   0  0  0  0  0  0  0  0  0  0  0  0
  -27.2240  -34.5410   22.6740 O   0  0  0  0  0  0  0  0  0  0  0  0
  -25.7010  -33.1100   25.0120 H   0  0  0  0  0  0  0  0  0  0  0  0
  -24.7460  -36.1330   23.7750 C   0  0  0  0  0  1  0  0  0  0  0  0
  -26.0220  -35.6170   24.4600 C   0  0  0  0  0  3  0  0  0  0  0  0
  -28.1230  -36.4230   25.4520 C   0  0  0  0  0  1  0  0  0  0  0  0
  -26.9990  -36.7250   24.5700 N   0  0  0  0  0  0  0  0  0  0  0  0
  -26.5480  -37.5700   24.9100 H   0  0  0  0  0  0  0  0  0  0  0  0
  -27.2970  -30.9440   24.7310 C   0  0  1  0  0  0  0  0  0  0  0  0
  -26.2510  -30.4700   25.7700 C   0  0  0  0  0  1  0  0  0  0  0  0
  -27.9550  -29.6820   24.1400 C   0  0  0  0  0  1  0  0  0  0  0  0
  -28.4160  -31.6980   25.4870 C   0  0  0  0  0  1  0  0  0  0  0  0
  5  7  1  0
  8  4  1  0
  9 12  1  0
  9 11  1  0
  9  8  1  0
 10  9  1  0
 13 22  1  0
 13  8  1  0
 14 21  1  6
 14 20  1  0
 14 19  1  0
 15 14  1  0
 16 17  1  0
 16 15  1  0
 17 18  1  0
 18 27  1  0
 18 19  1  0
 22 20  1  0
 22 23  1  0
 24 28  1  0
 25 26  2  0
 25 44  1  0
 27 24  1  0
 28 25  1  0
 29 30  1  0
 30 31  2  0
 32 35  1  0
 32 31  1  0
 33 32  2  0
 34 33  1  0
 34 29  2  0
 35 36  1  0
 36 41  2  0
 36 37  1  0
 37 38  2  0
 38 39  1  0
 39 43  1  0
 40 39  2  0
 41 40  1  0
 42 41  1  0
 44 45  1  0
 45 48  1  0
 45 47  1  0
 46 44  2  0
 49 24  2  0
 49 50  1  0
 51 49  1  0
 52  6  1  0
 55 57  1  0
 56 67  2  0
 57 62  1  0
 58 66  1  0
 58 68  1  0
 59 65  1  0
 59 61  1  0
 60 66  1  0
 61 60  1  0
 62 61  2  0
 63 64  1  0
 63 57  2  0
 64 59  2  0
 65 58  1  0
 66 56  1  0
 68 70  2  0
 69 68  1  0
 71 69  1  0
 72 81  2  0
 72 77  1  0
 73 69  1  0
 73 77  1  0
 74 73  1  0
 75 76  1  0
 75 74  1  0
 76 72  1  0
 77 78  2  0
 78 79  1  0
 80 79  2  0
 81 80  1  0
 82 56  1  0
 82 83  1  0
 82 92  1  0
 83 86  1  0
 84 83  1  0
 84 88  1  0
 85 84  2  0
 88 87  1  0
 88 90  1  0
 90 91  1  0
 90 89  1  0
 92 95  1  1
 92 93  1  0
 94 92  1  0
M  ISO  4  14 100  22 100  54 101  55 101
M  END
>  <TORSDO>  (69) 
F 22

>  <SCORE>  (69) 
-1.824

>  <name>  (69) 
68

>  <ligand_id>  (69) 
68

>  <original_smiles>  (69) 
[H]c1c([H])c([H])c2c(c1[H])C([H])([H])C([H])([H])C([H])([H])C2([H])N([H])C(=O)C1([H])N(C(=O)C([H])(N([H])C(=O)C([H])(N([H])C([H])([H])[H])C([H])([H])[H])C(C([H])([H])[H])(C([H])([H])[H])C([H])([H])[H])C([H])([H])c2c([H])c(OC([H])([H])C([H])([H])Oc3c([H])c([H])c(C([H])(C([H])([H])N([H])C(=O)N4C([H])([H])C([H])([H])C([H])([H])C([H])(n5nc(-c6c([H])c([H])c(Oc7c([H])c([H])c(F)c([H])c7F)c([H])c6[H])c(C(=O)N([H])[H])c5N([H])[H])C4([H])[H])[N+]([H])([H])[H])c(C([H])([H])[H])c3[H])c([H])c([H])c2C1([H])[H]

>  <smiles>  (69) 
[H]c1c([H])c([H])c2c(c1[H])C([H])([H])C([H])([H])C([H])([H])C2([H])N([H])C(=O)C1([H])N(C(=O)C([H])(N([H])C(=O)C([H])(N([H])C([H])([H])[H])C([H])([H])[H])C(C([H])([H])[H])(C([H])([H])[H])C([H])([H])[H])C([H])([H])c2c([H])c(OC([H])([H])C([H])([H])Oc3c([H])c([H])c(C([H])(C([H])([H])N([H])C(=O)N4C([H])([H])C([H])([H])C([H])([H])C([H])(n5nc(-c6c([H])c([H])c(Oc7c([H])c([H])c(F)c([H])c7F)c([H])c6[H])c(C(=O)N([H])[H])c5N([H])[H])C4([H])[H])[N+]([H])([H])[H])c(C([H])([H])[H])c3[H])c([H])c([H])c2C1([H])[H]

$$$$
69:0:0
     RDKit          3D

 92101  0  0  1  0  0  0  0  0999 V2000
  -30.2190  -21.5540   20.1580 C   0  0  0  0  0  3  0  0  0  0  0  0
  -27.6130  -22.0640   19.5700 C   0  0  0  0  0  0  0  0  0  0  0  0
  -29.4310  -20.3640   19.9690 C   0  0  0  0  0  0  0  0  0  0  0  0
  -28.0620  -20.6910   19.7500 C   0  0  0  0  0  0  0  0  0  0  0  0
  -28.4860  -23.2040   19.7880 C   0  0  0  0  0  0  0  0  0  0  0  0
  -27.0600  -19.5420   19.6510 C   0  0  0  0  0  1  0  0  0  0  0  0
  -29.7840  -22.8780   20.0950 N   0  0  0  0  0  0  0  0  0  0  0  0
  -25.6720  -21.6340   17.7920 C   0  0  0  0  0  2  0  0  0  0  0  0
  -25.8400  -23.1220   17.8660 C   0  0  0  0  0  2  0  0  0  0  0  0
  -26.1880  -22.2700   19.0810 C   0  0  0  0  0  3  0  0  0  0  0  0
  -30.0490  -18.8610   19.6910 C   0  0  0  0  0  2  0  0  0  0  0  0
  -30.1240  -17.5490   20.6960 C   0  0  0  0  0  2  0  0  0  0  0  0
  -30.6740  -14.9360   19.9940 C   0  0  0  0  0  0  0  0  0  0  0  0
  -30.4430  -12.6430   18.9580 C   0  0  0  0  0  2  0  0  0  0  0  0
  -29.4220  -12.6390   17.7970 C   0  0  0  0  0  2  0  0  0  0  0  0
  -27.9870  -12.4550   18.3240 C   0  0  0  0  0  2  0  0  0  0  0  0
  -27.6750  -13.3720   19.5340 C   0  0  0  0  0  3  0  0  0  0  0  0
  -28.7990  -13.3200   20.5900 C   0  0  0  0  0  2  0  0  0  0  0  0
  -30.0430  -13.7060   19.9120 N   0  0  0  0  0  0  0  0  0  0  0  0
  -31.8670  -15.0220   19.6880 O   0  0  0  0  0  0  0  0  0  0  0  0
  -29.8880  -16.0760   20.2280 N   0  0  0  0  0  0  0  0  0  0  0  0
  -28.9100  -15.8240   20.2490 H   0  0  0  0  0  0  0  0  0  0  0  0
  -25.3480  -13.9850   20.4180 C   0  0  0  0  0  0  0  0  0  0  0  0
  -24.2930  -13.2190   20.8340 C   0  0  0  0  0  0  0  0  0  0  0  0
  -24.7340  -11.8630   20.7530 C   0  0  0  0  0  0  0  0  0  0  0  0
  -26.3610  -13.0960   20.1050 N   0  0  0  0  0  0  0  0  0  0  0  0
  -26.0040  -11.8120   20.3700 N   0  0  0  0  0  0  0  0  0  0  0  0
  -23.9980  -10.6080   20.9550 C   0  0  0  0  0  0  0  0  0  0  0  0
  -24.4520   -9.6250   21.8610 C   0  0  0  0  0  3  0  0  0  0  0  0
  -23.7160   -8.4350   22.0540 C   0  0  0  0  0  3  0  0  0  0  0  0
  -22.5130   -8.2230   21.3390 C   0  0  0  0  0  0  0  0  0  0  0  0
  -22.0780   -9.1970   20.4210 C   0  0  0  0  0  3  0  0  0  0  0  0
  -22.8130  -10.3760   20.2290 C   0  0  0  0  0  3  0  0  0  0  0  0
  -21.7450   -7.0890   21.4430 O   0  0  0  0  0  0  0  0  0  0  0  0
  -21.7210   -6.3400   22.5920 C   0  0  0  0  0  0  0  0  0  0  0  0
  -21.3400   -6.8930   23.8350 C   0  0  0  0  0  3  0  0  0  0  0  0
  -21.2590   -6.0710   24.9760 C   0  0  0  0  0  3  0  0  0  0  0  0
  -21.5520   -4.6980   24.8790 C   0  0  0  0  0  0  0  0  0  0  0  0
  -21.9230   -4.1440   23.6390 C   0  0  0  0  0  3  0  0  0  0  0  0
  -22.0040   -4.9620   22.4990 C   0  0  0  0  0  0  0  0  0  0  0  0
  -22.3440   -4.4180   21.3060 F   0  0  0  0  0  0  0  0  0  0  0  0
  -21.4660   -3.9080   25.9730 F   0  0  0  0  0  0  0  0  0  0  0  0
  -22.9220  -13.7140   21.1920 C   0  0  0  0  0  0  0  0  0  0  0  0
  -22.2370  -13.0150   22.0880 N   0  0  0  0  0  0  0  0  0  0  0  0
  -22.4690  -14.7530   20.7110 O   0  0  0  0  0  0  0  0  0  0  0  0
  -22.6160  -12.1700   22.4890 H   0  0  0  0  0  0  0  0  0  0  0  0
  -21.3200  -13.3250   22.3780 H   0  0  0  0  0  0  0  0  0  0  0  0
  -25.5190  -15.3580   20.2560 N   0  0  0  0  0  0  0  0  0  0  0  0
  -24.7540  -16.0060   20.4060 H   0  0  0  0  0  0  0  0  0  0  0  0
  -26.3270  -15.7910   19.8320 H   0  0  0  0  0  0  0  0  0  0  0  0
  -27.9760  -24.7310   19.4040 C   0  0  0  0  0  2  0  0  0  0  0  0
  -28.3430  -26.1610   19.8800 O   0  0  0  0  0  0  0  0  0  0  0  0
  -24.5640  -31.6570   23.0110 C   0  0  0  0  0  0  0  0  0  0  0  0
  -27.3040  -27.1640   19.7990 C   0  0  0  0  0  0  0  0  0  0  0  0
  -23.4250  -30.3000   21.3000 C   0  0  0  0  0  3  0  0  0  0  0  0
  -24.9330  -28.8540   19.8100 C   0  0  0  0  0  0  0  0  0  0  0  0
  -25.9720  -30.6440   21.1820 C   0  0  0  0  0  2  0  0  0  0  0  0
  -26.0890  -29.2880   20.4710 C   0  0  0  0  0  0  0  0  0  0  0  0
  -27.2710  -28.4540   20.4630 C   0  0  0  0  0  3  0  0  0  0  0  0
  -26.1270  -26.8650   19.0690 C   0  0  0  0  0  3  0  0  0  0  0  0
  -24.9680  -27.6560   19.0920 C   0  0  0  0  0  3  0  0  0  0  0  0
  -23.6750  -29.7030   19.8910 C   0  0  0  0  0  2  0  0  0  0  0  0
  -24.6720  -30.8900   21.8830 N   0  0  0  0  0  0  0  0  0  0  0  0
  -23.4660  -31.8810   23.5420 O   0  0  0  0  0  0  0  0  0  0  0  0
  -22.7740  -29.2240   22.2050 C   0  0  0  0  0  0  0  0  0  0  0  0
  -21.4430  -29.0530   22.0970 N   0  0  0  0  0  0  0  0  0  0  0  0
  -23.4670  -28.5500   22.9720 O   0  0  0  0  0  0  0  0  0  0  0  0
  -20.9390  -29.6440   21.4510 H   0  0  0  0  0  0  0  0  0  0  0  0
  -18.0660  -27.8500   22.6340 C   0  0  0  0  0  0  0  0  0  0  0  0
  -20.6380  -28.0670   22.8260 C   0  0  0  0  0  3  0  0  0  0  0  0
  -20.7020  -26.6800   22.1450 C   0  0  0  0  0  2  0  0  0  0  0  0
  -19.5580  -26.4440   21.1530 C   0  0  0  0  0  2  0  0  0  0  0  0
  -18.2020  -26.5540   21.8540 C   0  0  0  0  0  2  0  0  0  0  0  0
  -19.2100  -28.5680   23.0760 C   0  0  0  0  0  0  0  0  0  0  0  0
  -19.0280  -29.7850   23.7700 C   0  0  0  0  0  3  0  0  0  0  0  0
  -17.7370  -30.2800   24.0270 C   0  0  0  0  0  3  0  0  0  0  0  0
  -16.6090  -29.5560   23.6000 C   0  0  0  0  0  3  0  0  0  0  0  0
  -16.7750  -28.3450   22.9080 C   0  0  0  0  0  3  0  0  0  0  0  0
  -25.8160  -32.3080   23.6760 C   0  0  0  0  0  3  0  0  0  0  0  0
  -26.3290  -31.5110   24.9390 C   0  0  1  0  0  0  0  0  0  0  0  0
  -25.2220  -31.2180   25.9800 C   0  0  0  0  0  1  0  0  0  0  0  0
  -26.9490  -30.1560   24.5230 C   0  0  0  0  0  1  0  0  0  0  0  0
  -27.4520  -32.3120   25.6380 C   0  0  0  0  0  1  0  0  0  0  0  0
  -25.4590  -33.6860   24.0460 N   0  0  0  0  0  0  0  0  0  0  0  0
  -25.7680  -34.7750   23.3260 C   0  0  0  0  0  0  0  0  0  0  0  0
  -26.4470  -34.7250   22.2970 O   0  0  0  0  0  0  0  0  0  0  0  0
  -24.8490  -33.7920   24.8420 H   0  0  0  0  0  0  0  0  0  0  0  0
  -23.9780  -36.5250   23.0320 C   0  0  0  0  0  1  0  0  0  0  0  0
  -25.2380  -36.1330   23.8240 C   0  0  0  0  0  3  0  0  0  0  0  0
  -27.3430  -37.0610   24.6750 C   0  0  0  0  0  1  0  0  0  0  0  0
  -26.2350  -37.2200   23.7390 N   0  0  0  0  0  0  0  0  0  0  0  0
  -25.8020  -38.1200   23.9200 H   0  0  0  0  0  0  0  0  0  0  0  0
  2  4  2  0
  2  5  1  0
  3  1  2  0
  4  3  1  0
  5  7  2  0
  6  4  1  0
  7  1  1  0
  8  9  1  0
  8 10  1  0
  9 10  1  0
 10  2  1  0
 11  3  1  0
 11 12  1  0
 13 21  1  0
 14 19  1  0
 15 16  1  0
 15 14  1  0
 17 16  1  0
 17 26  1  0
 17 18  1  0
 19 13  1  0
 19 18  1  0
 20 13  2  0
 21 22  1  0
 21 12  1  0
 23 24  2  0
 24 43  1  0
 25 24  1  0
 25 28  1  0
 26 27  1  0
 26 23  1  0
 27 25  2  0
 28 29  1  0
 29 30  2  0
 31 34  1  0
 31 30  1  0
 32 31  2  0
 33 32  1  0
 33 28  2  0
 34 35  1  0
 35 36  1  0
 36 37  2  0
 38 37  1  0
 38 42  1  0
 39 38  2  0
 40 35  2  0
 40 39  1  0
 41 40  1  0
 43 44  1  0
 44 47  1  0
 44 46  1  0
 45 43  2  0
 48 49  1  0
 48 23  1  0
 50 48  1  0
 51  5  1  0
 51 52  1  0
 53 64  2  0
 54 52  1  0
 54 59  1  0
 55 63  1  0
 55 65  1  0
 56 62  1  0
 56 58  1  0
 57 63  1  0
 58 57  1  0
 59 58  2  0
 60 61  1  0
 60 54  2  0
 61 56  2  0
 62 55  1  0
 63 53  1  0
 65 67  2  0
 66 65  1  0
 68 66  1  0
 69 78  2  0
 69 74  1  0
 70 66  1  0
 70 74  1  0
 71 70  1  0
 72 73  1  0
 72 71  1  0
 73 69  1  0
 74 75  2  0
 75 76  1  0
 77 76  2  0
 78 77  1  0
 79 53  1  0
 79 84  1  0
 79 80  1  0
 80 83  1  1
 80 81  1  0
 82 80  1  0
 84 87  1  0
 85 89  1  0
 85 84  1  0
 86 85  2  0
 89 88  1  0
 91 89  1  0
 91 92  1  0
 91 90  1  0
M  ISO  4  13 100  21 100  51 101  52 101
M  END
>  <TORSDO>  (70) 
F 20

>  <SCORE>  (70) 
-13.297

>  <name>  (70) 
69

>  <ligand_id>  (70) 
69

>  <original_smiles>  (70) 
[H]c1nc(C([H])([H])Oc2c([H])c([H])c3c(c2[H])C([H])([H])N(C(=O)C([H])(N([H])C(=O)C([H])(N([H])C([H])([H])[H])C([H])([H])[H])C(C([H])([H])[H])(C([H])([H])[H])C([H])([H])[H])C([H])(C(=O)N([H])C2([H])c4c([H])c([H])c([H])c([H])c4C([H])([H])C([H])([H])C2([H])[H])C3([H])[H])c(C2([H])C([H])([H])C2([H])[H])c(C([H])([H])[H])c1C([H])([H])C([H])([H])N([H])C(=O)N1C([H])([H])C([H])([H])C([H])([H])C([H])(n2nc(-c3c([H])c([H])c(Oc4c([H])c([H])c(F)c([H])c4F)c([H])c3[H])c(C(=O)N([H])[H])c2N([H])[H])C1([H])[H]

>  <smiles>  (70) 
[H]c1nc(C([H])([H])Oc2c([H])c([H])c3c(c2[H])C([H])([H])N(C(=O)C([H])(N([H])C(=O)C([H])(N([H])C([H])([H])[H])C([H])([H])[H])C(C([H])([H])[H])(C([H])([H])[H])C([H])([H])[H])C([H])(C(=O)N([H])C2([H])c4c([H])c([H])c([H])c([H])c4C([H])([H])C([H])([H])C2([H])[H])C3([H])[H])c(C2([H])C([H])([H])C2([H])[H])c(C([H])([H])[H])c1C([H])([H])C([H])([H])N([H])C(=O)N1C([H])([H])C([H])([H])C([H])([H])C([H])(n2nc(-c3c([H])c([H])c(Oc4c([H])c([H])c(F)c([H])c4F)c([H])c3[H])c(C(=O)N([H])[H])c2N([H])[H])C1([H])[H]

$$$$
70:0:0
     RDKit          3D

 92101  0  0  1  0  0  0  0  0999 V2000
  -28.7560  -22.5620   18.6150 C   0  0  0  0  0  3  0  0  0  0  0  0
  -29.1550  -21.3710   17.9480 C   0  0  0  0  0  3  0  0  0  0  0  0
  -28.9070  -21.2550   20.6440 C   0  0  0  0  0  3  0  0  0  0  0  0
  -29.3130  -19.9080   19.9740 C   0  0  0  0  0  0  0  0  0  0  0  0
  -28.6210  -22.6560   20.0160 C   0  0  0  0  0  0  0  0  0  0  0  0
  -29.4660  -20.1370   18.5860 C   0  0  0  0  0  0  0  0  0  0  0  0
  -30.0040  -18.3510   20.4830 C   0  0  0  0  0  3  0  0  0  0  0  0
  -31.4130  -18.5090   19.8590 C   0  0  0  0  0  3  0  0  0  0  0  0
  -31.2710  -18.5970   18.3010 C   0  0  0  0  0  3  0  0  0  0  0  0
  -32.2160  -19.6710   20.4930 C   0  0  0  0  0  1  0  0  0  0  0  0
  -32.4200  -19.3330   17.5860 C   0  0  0  0  0  1  0  0  0  0  0  0
  -30.0330  -19.1520   17.8210 O   0  0  0  0  0  0  0  0  0  0  0  0
  -30.3710  -15.3610   20.2640 C   0  0  0  0  0  0  0  0  0  0  0  0
  -30.3350  -12.9010   19.3920 C   0  0  0  0  0  2  0  0  0  0  0  0
  -29.4100  -12.6400   18.1770 C   0  0  0  0  0  2  0  0  0  0  0  0
  -27.9710  -12.3570   18.6370 C   0  0  0  0  0  2  0  0  0  0  0  0
  -27.5160  -13.3330   19.7510 C   0  0  0  0  0  3  0  0  0  0  0  0
  -28.5740  -13.5310   20.8580 C   0  0  0  0  0  2  0  0  0  0  0  0
  -29.7800  -14.0590   20.1930 N   0  0  0  0  0  0  0  0  0  0  0  0
  -31.5970  -15.2900   20.1040 O   0  0  0  0  0  0  0  0  0  0  0  0
  -29.6560  -16.6880   20.3170 N   0  0  0  0  0  0  0  0  0  0  0  0
  -28.6600  -16.5320   20.3570 H   0  0  0  0  0  0  0  0  0  0  0  0
  -25.1560  -13.8780   20.5350 C   0  0  0  0  0  0  0  0  0  0  0  0
  -24.1000  -13.0980   20.9110 C   0  0  0  0  0  0  0  0  0  0  0  0
  -24.5710  -11.7480   20.8740 C   0  0  0  0  0  0  0  0  0  0  0  0
  -26.1990  -13.0060   20.2790 N   0  0  0  0  0  0  0  0  0  0  0  0
  -25.8600  -11.7180   20.5530 N   0  0  0  0  0  0  0  0  0  0  0  0
  -23.8460  -10.4850   21.0660 C   0  0  0  0  0  0  0  0  0  0  0  0
  -24.2850   -9.5120   21.9900 C   0  0  0  0  0  3  0  0  0  0  0  0
  -23.5570   -8.3160   22.1710 C   0  0  0  0  0  3  0  0  0  0  0  0
  -22.3760   -8.0840   21.4260 C   0  0  0  0  0  0  0  0  0  0  0  0
  -21.9580   -9.0440   20.4890 C   0  0  0  0  0  3  0  0  0  0  0  0
  -22.6860  -10.2320   20.3070 C   0  0  0  0  0  3  0  0  0  0  0  0
  -21.6190   -6.9410   21.5180 O   0  0  0  0  0  0  0  0  0  0  0  0
  -21.5800   -6.1930   22.6650 C   0  0  0  0  0  0  0  0  0  0  0  0
  -21.1620   -6.7410   23.8990 C   0  0  0  0  0  3  0  0  0  0  0  0
  -21.0710   -5.9170   25.0390 C   0  0  0  0  0  3  0  0  0  0  0  0
  -21.3900   -4.5480   24.9470 C   0  0  0  0  0  0  0  0  0  0  0  0
  -21.8020   -4.0020   23.7200 C   0  0  0  0  0  3  0  0  0  0  0  0
  -21.8940   -4.8220   22.5820 C   0  0  0  0  0  0  0  0  0  0  0  0
  -22.2700   -4.2850   21.3960 F   0  0  0  0  0  0  0  0  0  0  0  0
  -21.2960   -3.7570   26.0400 F   0  0  0  0  0  0  0  0  0  0  0  0
  -22.7040  -13.5720   21.1850 C   0  0  0  0  0  0  0  0  0  0  0  0
  -21.9820  -12.8750   22.0550 N   0  0  0  0  0  0  0  0  0  0  0  0
  -22.2630  -14.5940   20.6620 O   0  0  0  0  0  0  0  0  0  0  0  0
  -22.3550  -12.0470   22.4960 H   0  0  0  0  0  0  0  0  0  0  0  0
  -21.0430  -13.1730   22.2840 H   0  0  0  0  0  0  0  0  0  0  0  0
  -25.3150  -15.2490   20.3600 N   0  0  0  0  0  0  0  0  0  0  0  0
  -24.5490  -15.9050   20.4820 H   0  0  0  0  0  0  0  0  0  0  0  0
  -26.1550  -15.6850   20.0050 H   0  0  0  0  0  0  0  0  0  0  0  0
  -28.0250  -24.2070   20.6250 C   0  0  0  0  0  2  0  0  0  0  0  0
  -28.2180  -25.8100   20.2030 O   0  0  0  0  0  0  0  0  0  0  0  0
  -24.6380  -31.8470   23.1830 C   0  0  0  0  0  0  0  0  0  0  0  0
  -27.2020  -26.9150   20.2230 C   0  0  0  0  0  0  0  0  0  0  0  0
  -23.4490  -30.4330   21.5560 C   0  0  0  0  0  3  0  0  0  0  0  0
  -24.9030  -28.8100   20.1590 C   0  0  0  0  0  0  0  0  0  0  0  0
  -26.0180  -30.6430   21.4080 C   0  0  0  0  0  2  0  0  0  0  0  0
  -26.0930  -29.2200   20.7720 C   0  0  0  0  0  0  0  0  0  0  0  0
  -27.2400  -28.2970   20.7690 C   0  0  0  0  0  3  0  0  0  0  0  0
  -25.9770  -26.6640   19.5660 C   0  0  0  0  0  3  0  0  0  0  0  0
  -24.8720  -27.5520   19.5340 C   0  0  0  0  0  3  0  0  0  0  0  0
  -23.6830  -29.7320   20.1880 C   0  0  0  0  0  2  0  0  0  0  0  0
  -24.7250  -31.0030   22.1020 N   0  0  0  0  0  0  0  0  0  0  0  0
  -23.5480  -32.1380   23.7010 O   0  0  0  0  0  0  0  0  0  0  0  0
  -22.7540  -29.4470   22.5310 C   0  0  0  0  0  0  0  0  0  0  0  0
  -21.4220  -29.2860   22.4160 N   0  0  0  0  0  0  0  0  0  0  0  0
  -23.4210  -28.8240   23.3610 O   0  0  0  0  0  0  0  0  0  0  0  0
  -20.9340  -29.8430   21.7300 H   0  0  0  0  0  0  0  0  0  0  0  0
  -18.0400  -28.0870   22.9550 C   0  0  0  0  0  0  0  0  0  0  0  0
  -20.6030  -28.3540   23.1980 C   0  0  0  0  0  3  0  0  0  0  0  0
  -20.6960  -26.9170   22.6290 C   0  0  0  0  0  2  0  0  0  0  0  0
  -19.5860  -26.5910   21.6250 C   0  0  0  0  0  2  0  0  0  0  0  0
  -18.2090  -26.7380   22.2790 C   0  0  0  0  0  2  0  0  0  0  0  0
  -19.1620  -28.8530   23.3710 C   0  0  0  0  0  0  0  0  0  0  0  0
  -18.9440  -30.1140   23.9680 C   0  0  0  0  0  3  0  0  0  0  0  0
  -17.6400  -30.6100   24.1480 C   0  0  0  0  0  3  0  0  0  0  0  0
  -16.5330  -29.8430   23.7460 C   0  0  0  0  0  3  0  0  0  0  0  0
  -16.7350  -28.5830   23.1550 C   0  0  0  0  0  3  0  0  0  0  0  0
  -25.9070  -32.5020   23.8080 C   0  0  0  0  0  3  0  0  0  0  0  0
  -25.5830  -33.9030   24.1330 N   0  0  0  0  0  0  0  0  0  0  0  0
  -25.9110  -34.9620   23.3800 C   0  0  0  0  0  0  0  0  0  0  0  0
  -26.5780  -34.8620   22.3470 O   0  0  0  0  0  0  0  0  0  0  0  0
  -24.9930  -34.0530   24.9370 H   0  0  0  0  0  0  0  0  0  0  0  0
  -24.1810  -36.7600   23.0340 C   0  0  0  0  0  1  0  0  0  0  0  0
  -25.4230  -36.3490   23.8430 C   0  0  0  0  0  3  0  0  0  0  0  0
  -27.5540  -37.2420   24.6750 C   0  0  0  0  0  1  0  0  0  0  0  0
  -26.4520  -37.4060   23.7310 N   0  0  0  0  0  0  0  0  0  0  0  0
  -26.0430  -38.3240   23.8810 H   0  0  0  0  0  0  0  0  0  0  0  0
  -26.4140  -31.7530   25.1020 C   0  0  1  0  0  0  0  0  0  0  0  0
  -25.3140  -31.5350   26.1680 C   0  0  0  0  0  1  0  0  0  0  0  0
  -27.0000  -30.3680   24.7460 C   0  0  0  0  0  1  0  0  0  0  0  0
  -27.5590  -32.5590   25.7610 C   0  0  0  0  0  1  0  0  0  0  0  0
  1  5  1  0
  2  6  1  0
  2  1  2  0
  4  7  1  0
  4  3  1  0
  5 51  1  0
  5  3  2  0
  6  4  2  0
  7 21  1  0
  8  7  1  0
  8 10  1  0
  9 11  1  0
  9  8  1  0
 12  9  1  0
 12  6  1  0
 13 21  1  0
 14 19  1  0
 15 16  1  0
 15 14  1  0
 17 16  1  0
 17 26  1  0
 17 18  1  0
 19 13  1  0
 19 18  1  0
 20 13  2  0
 21 22  1  0
 23 24  2  0
 24 43  1  0
 25 24  1  0
 25 28  1  0
 26 23  1  0
 26 27  1  0
 27 25  2  0
 28 29  1  0
 29 30  2  0
 31 34  1  0
 31 30  1  0
 32 31  2  0
 33 32  1  0
 33 28  2  0
 34 35  1  0
 35 36  1  0
 36 37  2  0
 38 37  1  0
 38 42  1  0
 39 38  2  0
 40 35  2  0
 40 39  1  0
 41 40  1  0
 43 44  1  0
 44 47  1  0
 44 46  1  0
 45 43  2  0
 48 49  1  0
 48 23  1  0
 50 48  1  0
 52 54  1  0
 52 51  1  0
 53 64  2  0
 54 59  1  0
 55 63  1  0
 55 65  1  0
 56 62  1  0
 56 58  1  0
 57 63  1  0
 58 57  1  0
 59 58  2  0
 60 54  2  0
 61 60  1  0
 61 56  2  0
 62 55  1  0
 63 53  1  0
 65 67  2  0
 66 65  1  0
 68 66  1  0
 69 78  2  0
 69 74  1  0
 70 66  1  0
 70 74  1  0
 71 70  1  0
 72 73  1  0
 72 71  1  0
 73 69  1  0
 74 75  2  0
 75 76  1  0
 77 76  2  0
 78 77  1  0
 79 53  1  0
 79 80  1  0
 79 89  1  0
 80 83  1  0
 81 85  1  0
 81 80  1  0
 82 81  2  0
 85 84  1  0
 87 85  1  0
 87 88  1  0
 87 86  1  0
 89 92  1  1
 89 90  1  0
 91 89  1  0
M  ISO  4  13 100  21 100  51 101  52 101
M  END
>  <TORSDO>  (71) 
F 17

>  <SCORE>  (71) 
-16.918

>  <name>  (71) 
70

>  <ligand_id>  (71) 
70

>  <original_smiles>  (71) 
[H]c1c([H])c([H])c2c(c1[H])C([H])([H])C([H])([H])C([H])([H])C2([H])N([H])C(=O)C1([H])N(C(=O)C([H])(N([H])C(=O)C([H])(N([H])C([H])([H])[H])C([H])([H])[H])C(C([H])([H])[H])(C([H])([H])[H])C([H])([H])[H])C([H])([H])c2c([H])c(OC([H])([H])c3c([H])c([H])c4c(c3[H])C([H])(N([H])C(=O)N3C([H])([H])C([H])([H])C([H])([H])C([H])(n5nc(-c6c([H])c([H])c(Oc7c([H])c([H])c(F)c([H])c7F)c([H])c6[H])c(C(=O)N([H])[H])c5N([H])[H])C3([H])[H])C([H])(C([H])([H])[H])C([H])(C([H])([H])[H])O4)c([H])c([H])c2C1([H])[H]

>  <smiles>  (71) 
[H]c1c([H])c([H])c2c(c1[H])C([H])([H])C([H])([H])C([H])([H])C2([H])N([H])C(=O)C1([H])N(C(=O)C([H])(N([H])C(=O)C([H])(N([H])C([H])([H])[H])C([H])([H])[H])C(C([H])([H])[H])(C([H])([H])[H])C([H])([H])[H])C([H])([H])c2c([H])c(OC([H])([H])c3c([H])c([H])c4c(c3[H])C([H])(N([H])C(=O)N3C([H])([H])C([H])([H])C([H])([H])C([H])(n5nc(-c6c([H])c([H])c(Oc7c([H])c([H])c(F)c([H])c7F)c([H])c6[H])c(C(=O)N([H])[H])c5N([H])[H])C3([H])[H])C([H])(C([H])([H])[H])C([H])(C([H])([H])[H])O4)c([H])c([H])c2C1([H])[H]

$$$$
71:0:0
     RDKit          3D

 93102  0  0  1  0  0  0  0  0999 V2000
  -29.9400  -22.8560   20.5560 C   0  0  0  0  0  3  0  0  0  0  0  0
  -28.1390  -22.0850   19.2470 C   0  0  0  0  0  3  0  0  0  0  0  0
  -29.6450  -20.3130   20.2460 C   0  0  0  0  0  0  0  0  0  0  0  0
  -28.7870  -23.2300   19.8040 C   0  0  0  0  0  0  0  0  0  0  0  0
  -30.3550  -21.4730   20.7680 C   0  0  0  0  0  0  0  0  0  0  0  0
  -28.5300  -20.7110   19.4370 C   0  0  0  0  0  0  0  0  0  0  0  0
  -31.6200  -21.2890   21.5880 C   0  0  0  0  0  1  0  0  0  0  0  0
  -31.7230  -17.7430   20.9150 C   0  0  0  0  0  2  0  0  0  0  0  0
  -29.9030  -18.7270   20.6260 C   0  0  0  0  0  3  0  0  0  0  0  0
  -30.6080  -17.4280   19.9180 C   0  0  0  0  0  3  0  0  0  0  0  0
  -30.8750  -18.6300   21.7000 O   0  0  0  0  0  0  0  0  0  0  0  0
  -30.8260  -14.7650   19.8390 C   0  0  0  0  0  0  0  0  0  0  0  0
  -30.4980  -12.4980   18.8080 C   0  0  0  0  0  2  0  0  0  0  0  0
  -29.4830  -12.5880   17.6460 C   0  0  0  0  0  2  0  0  0  0  0  0
  -28.0450  -12.4220   18.1740 C   0  0  0  0  0  2  0  0  0  0  0  0
  -27.7660  -13.3010   19.4220 C   0  0  0  0  0  3  0  0  0  0  0  0
  -28.8980  -13.2030   20.4690 C   0  0  0  0  0  2  0  0  0  0  0  0
  -30.1520  -13.5570   19.7920 N   0  0  0  0  0  0  0  0  0  0  0  0
  -31.9860  -14.8110   19.4220 O   0  0  0  0  0  0  0  0  0  0  0  0
  -30.1500  -15.9540   20.1410 N   0  0  0  0  0  0  0  0  0  0  0  0
  -29.1990  -15.8380   20.4600 H   0  0  0  0  0  0  0  0  0  0  0  0
  -25.4460  -13.9160   20.3180 C   0  0  0  0  0  0  0  0  0  0  0  0
  -24.3930  -13.1550   20.7460 C   0  0  0  0  0  0  0  0  0  0  0  0
  -24.8290  -11.7970   20.6650 C   0  0  0  0  0  0  0  0  0  0  0  0
  -26.4550  -13.0230   19.9990 N   0  0  0  0  0  0  0  0  0  0  0  0
  -26.0960  -11.7420   20.2730 N   0  0  0  0  0  0  0  0  0  0  0  0
  -24.0910  -10.5450   20.8830 C   0  0  0  0  0  0  0  0  0  0  0  0
  -24.5310   -9.5810   21.8170 C   0  0  0  0  0  3  0  0  0  0  0  0
  -23.7940   -8.3950   22.0230 C   0  0  0  0  0  3  0  0  0  0  0  0
  -22.6020   -8.1650   21.2960 C   0  0  0  0  0  0  0  0  0  0  0  0
  -22.1800   -9.1160   20.3520 C   0  0  0  0  0  3  0  0  0  0  0  0
  -22.9170  -10.2940   20.1430 C   0  0  0  0  0  3  0  0  0  0  0  0
  -21.8350   -7.0310   21.4130 O   0  0  0  0  0  0  0  0  0  0  0  0
  -21.7580   -6.3310   22.5900 C   0  0  0  0  0  0  0  0  0  0  0  0
  -21.3120   -6.9330   23.7870 C   0  0  0  0  0  3  0  0  0  0  0  0
  -21.1830   -6.1590   24.9580 C   0  0  0  0  0  3  0  0  0  0  0  0
  -21.4880   -4.7860   24.9340 C   0  0  0  0  0  0  0  0  0  0  0  0
  -21.9260   -4.1840   23.7410 C   0  0  0  0  0  3  0  0  0  0  0  0
  -22.0570   -4.9530   22.5720 C   0  0  0  0  0  0  0  0  0  0  0  0
  -22.4600   -4.3640   21.4200 F   0  0  0  0  0  0  0  0  0  0  0  0
  -21.3560   -4.0410   26.0560 F   0  0  0  0  0  0  0  0  0  0  0  0
  -23.0260  -13.6540   21.1130 C   0  0  0  0  0  0  0  0  0  0  0  0
  -22.3480  -12.9660   22.0240 N   0  0  0  0  0  0  0  0  0  0  0  0
  -22.5710  -14.6890   20.6250 O   0  0  0  0  0  0  0  0  0  0  0  0
  -22.7310  -12.1290   22.4380 H   0  0  0  0  0  0  0  0  0  0  0  0
  -21.4320  -13.2810   22.3120 H   0  0  0  0  0  0  0  0  0  0  0  0
  -25.6220  -15.2860   20.1470 N   0  0  0  0  0  0  0  0  0  0  0  0
  -24.8680  -15.9450   20.3060 H   0  0  0  0  0  0  0  0  0  0  0  0
  -26.4390  -15.7130   19.7290 H   0  0  0  0  0  0  0  0  0  0  0  0
  -26.4830  -19.2140   19.5970 C   0  0  0  0  0  1  0  0  0  0  0  0
  -27.6720  -19.6630   18.7390 C   0  0  0  0  0  2  0  0  0  0  0  0
  -28.1840  -24.6890   19.4000 C   0  0  0  0  0  2  0  0  0  0  0  0
  -28.5090  -26.1230   19.8350 O   0  0  0  0  0  0  0  0  0  0  0  0
  -24.6640  -31.5790   22.8910 C   0  0  0  0  0  0  0  0  0  0  0  0
  -27.4400  -27.0840   19.7510 C   0  0  0  0  0  0  0  0  0  0  0  0
  -23.5260  -30.1780   21.2140 C   0  0  0  0  0  3  0  0  0  0  0  0
  -25.0430  -28.7180   19.7530 C   0  0  0  0  0  0  0  0  0  0  0  0
  -26.0690  -30.5560   21.0720 C   0  0  0  0  0  2  0  0  0  0  0  0
  -26.2000  -29.1910   20.3870 C   0  0  0  0  0  0  0  0  0  0  0  0
  -27.3980  -28.3870   20.3820 C   0  0  0  0  0  3  0  0  0  0  0  0
  -26.2590  -26.7310   19.0500 C   0  0  0  0  0  3  0  0  0  0  0  0
  -25.0830  -27.4990   19.0720 C   0  0  0  0  0  3  0  0  0  0  0  0
  -23.7780  -29.5540   19.8180 C   0  0  0  0  0  2  0  0  0  0  0  0
  -24.7710  -30.7900   21.7800 N   0  0  0  0  0  0  0  0  0  0  0  0
  -23.5650  -31.8060   23.4200 O   0  0  0  0  0  0  0  0  0  0  0  0
  -22.8900  -29.1140   22.1430 C   0  0  0  0  0  0  0  0  0  0  0  0
  -21.5580  -28.9520   22.0650 N   0  0  0  0  0  0  0  0  0  0  0  0
  -23.5960  -28.4420   22.9010 O   0  0  0  0  0  0  0  0  0  0  0  0
  -21.0450  -29.5460   21.4300 H   0  0  0  0  0  0  0  0  0  0  0  0
  -18.1890  -27.7820   22.6980 C   0  0  0  0  0  0  0  0  0  0  0  0
  -20.7650  -27.9780   22.8210 C   0  0  0  0  0  3  0  0  0  0  0  0
  -20.7980  -26.5880   22.1460 C   0  0  0  0  0  2  0  0  0  0  0  0
  -19.6280  -26.3550   21.1840 C   0  0  0  0  0  2  0  0  0  0  0  0
  -18.2920  -26.4800   21.9220 C   0  0  0  0  0  2  0  0  0  0  0  0
  -19.3490  -28.4930   23.1070 C   0  0  0  0  0  0  0  0  0  0  0  0
  -19.1940  -29.7150   23.7980 C   0  0  0  0  0  3  0  0  0  0  0  0
  -17.9140  -30.2250   24.0810 C   0  0  0  0  0  3  0  0  0  0  0  0
  -16.7690  -29.5100   23.6870 C   0  0  0  0  0  3  0  0  0  0  0  0
  -16.9080  -28.2900   23.0020 C   0  0  0  0  0  3  0  0  0  0  0  0
  -25.9140  -32.2490   23.5350 C   0  0  0  0  0  3  0  0  0  0  0  0
  -26.4850  -31.4400   24.7650 C   0  0  1  0  0  0  0  0  0  0  0  0
  -25.4190  -31.0960   25.8320 C   0  0  0  0  0  1  0  0  0  0  0  0
  -27.1290  -30.1140   24.3010 C   0  0  0  0  0  1  0  0  0  0  0  0
  -27.6050  -32.2560   25.4530 C   0  0  0  0  0  1  0  0  0  0  0  0
  -25.5290  -33.6070   23.9480 N   0  0  0  0  0  0  0  0  0  0  0  0
  -25.8460  -34.7260   23.2830 C   0  0  0  0  0  0  0  0  0  0  0  0
  -26.5620  -34.7260   22.2780 O   0  0  0  0  0  0  0  0  0  0  0  0
  -24.8970  -33.6780   24.7310 H   0  0  0  0  0  0  0  0  0  0  0  0
  -24.0660  -36.4780   22.9760 C   0  0  0  0  0  1  0  0  0  0  0  0
  -25.2820  -36.0570   23.8170 C   0  0  0  0  0  3  0  0  0  0  0  0
  -27.3340  -36.9570   24.8240 C   0  0  0  0  0  1  0  0  0  0  0  0
  -26.2750  -37.1530   23.8370 N   0  0  0  0  0  0  0  0  0  0  0  0
  -25.8250  -38.0440   24.0260 H   0  0  0  0  0  0  0  0  0  0  0  0
  1  5  1  0
  2  6  2  0
  2  4  1  0
  3  5  2  0
  4  1  2  0
  5  7  1  0
  6  3  1  0
  8 11  1  0
  9  3  1  0
  9 11  1  0
 10 20  1  0
 10  9  1  0
 10  8  1  0
 12 20  1  0
 13 18  1  0
 14 15  1  0
 14 13  1  0
 16 15  1  0
 16 25  1  0
 16 17  1  0
 18 12  1  0
 18 17  1  0
 19 12  2  0
 20 21  1  0
 22 23  2  0
 23 42  1  0
 24 23  1  0
 24 27  1  0
 25 26  1  0
 25 22  1  0
 26 24  2  0
 27 28  1  0
 28 29  2  0
 30 33  1  0
 30 29  1  0
 31 30  2  0
 32 31  1  0
 32 27  2  0
 33 34  1  0
 34 35  1  0
 35 36  2  0
 37 36  1  0
 37 41  1  0
 38 37  2  0
 39 34  2  0
 39 38  1  0
 40 39  1  0
 42 43  1  0
 43 46  1  0
 43 45  1  0
 44 42  2  0
 47 48  1  0
 47 22  1  0
 49 47  1  0
 51  6  1  0
 51 50  1  0
 52  4  1  0
 52 53  1  0
 54 65  2  0
 55 53  1  0
 55 60  1  0
 56 64  1  0
 56 66  1  0
 57 63  1  0
 57 59  1  0
 58 64  1  0
 59 58  1  0
 60 59  2  0
 61 62  1  0
 61 55  2  0
 62 57  2  0
 63 56  1  0
 64 54  1  0
 66 68  2  0
 67 66  1  0
 69 67  1  0
 70 79  2  0
 70 75  1  0
 71 67  1  0
 71 75  1  0
 72 71  1  0
 73 74  1  0
 73 72  1  0
 74 70  1  0
 75 76  2  0
 76 77  1  0
 78 77  2  0
 79 78  1  0
 80 54  1  0
 80 85  1  0
 80 81  1  0
 81 84  1  1
 81 82  1  0
 83 81  1  0
 85 88  1  0
 86 90  1  0
 86 85  1  0
 87 86  2  0
 90 89  1  0
 90 92  1  0
 92 93  1  0
 92 91  1  0
M  ISO  4  12 100  20 100  52 101  53 101
M  END
>  <TORSDO>  (72) 
F 19

>  <SCORE>  (72) 
-13.307

>  <name>  (72) 
71

>  <ligand_id>  (72) 
71

>  <original_smiles>  (72) 
[H]c1c([H])c([H])c2c(c1[H])C([H])([H])C([H])([H])C([H])([H])C2([H])N([H])C(=O)C1([H])N(C(=O)C([H])(N([H])C(=O)C([H])(N([H])C([H])([H])[H])C([H])([H])[H])C(C([H])([H])[H])(C([H])([H])[H])C([H])([H])[H])C([H])([H])c2c([H])c(OC([H])([H])c3c([H])c(C([H])([H])[H])c(C4([H])OC([H])([H])C4([H])N([H])C(=O)N4C([H])([H])C([H])([H])C([H])([H])C([H])(n5nc(-c6c([H])c([H])c(Oc7c([H])c([H])c(F)c([H])c7F)c([H])c6[H])c(C(=O)N([H])[H])c5N([H])[H])C4([H])[H])c(C([H])([H])C([H])([H])[H])c3[H])c([H])c([H])c2C1([H])[H]

>  <smiles>  (72) 
[H]c1c([H])c([H])c2c(c1[H])C([H])([H])C([H])([H])C([H])([H])C2([H])N([H])C(=O)C1([H])N(C(=O)C([H])(N([H])C(=O)C([H])(N([H])C([H])([H])[H])C([H])([H])[H])C(C([H])([H])[H])(C([H])([H])[H])C([H])([H])[H])C([H])([H])c2c([H])c(OC([H])([H])c3c([H])c(C([H])([H])[H])c(C4([H])OC([H])([H])C4([H])N([H])C(=O)N4C([H])([H])C([H])([H])C([H])([H])C([H])(n5nc(-c6c([H])c([H])c(Oc7c([H])c([H])c(F)c([H])c7F)c([H])c6[H])c(C(=O)N([H])[H])c5N([H])[H])C4([H])[H])c(C([H])([H])C([H])([H])[H])c3[H])c([H])c([H])c2C1([H])[H]

$$$$
72:0:0
     RDKit          3D

 95104  0  0  1  0  0  0  0  0999 V2000
  -30.8520  -19.7480   18.2930 C   0  0  0  0  0  3  0  0  0  0  0  0
  -29.0830  -20.7610   19.6170 C   0  0  0  0  0  3  0  0  0  0  0  0
  -30.3440  -22.1320   18.0520 C   0  0  0  0  0  3  0  0  0  0  0  0
  -29.8400  -19.6020   19.2630 C   0  0  0  0  0  0  0  0  0  0  0  0
  -31.0970  -20.9960   17.6900 C   0  0  0  0  0  0  0  0  0  0  0  0
  -29.3200  -22.0440   19.0280 C   0  0  0  0  0  0  0  0  0  0  0  0
  -30.8330  -15.0540   19.8970 C   0  0  0  0  0  0  0  0  0  0  0  0
  -30.5870  -12.7780   18.9750 C   0  0  0  0  0  2  0  0  0  0  0  0
  -29.5960  -12.8460   17.7960 C   0  0  0  0  0  2  0  0  0  0  0  0
  -28.1540  -12.6560   18.3030 C   0  0  0  0  0  2  0  0  0  0  0  0
  -27.8190  -13.5720   19.5120 C   0  0  0  0  0  3  0  0  0  0  0  0
  -28.9300  -13.5300   20.5840 C   0  0  0  0  0  2  0  0  0  0  0  0
  -30.2050  -13.8410   19.9220 N   0  0  0  0  0  0  0  0  0  0  0  0
  -31.9810  -15.1770   19.4640 O   0  0  0  0  0  0  0  0  0  0  0  0
  -29.4820  -16.9300   19.0570 C   0  0  0  0  0  2  0  0  0  0  0  0
  -29.5990  -18.2060   19.9010 C   0  0  0  0  0  3  0  0  0  0  0  0
  -30.7070  -17.4370   20.6340 C   0  0  0  0  0  3  0  0  0  0  0  0
  -30.0790  -16.1600   20.1750 N   0  0  0  0  0  0  0  0  0  0  0  0
  -25.4810  -14.1360   20.4130 C   0  0  0  0  0  0  0  0  0  0  0  0
  -24.4390  -13.3440   20.8170 C   0  0  0  0  0  0  0  0  0  0  0  0
  -24.9000  -11.9960   20.6960 C   0  0  0  0  0  0  0  0  0  0  0  0
  -26.5070  -13.2690   20.0740 N   0  0  0  0  0  0  0  0  0  0  0  0
  -26.1670  -11.9760   20.3040 N   0  0  0  0  0  0  0  0  0  0  0  0
  -24.1890  -10.7250   20.8800 C   0  0  0  0  0  0  0  0  0  0  0  0
  -24.5980   -9.7830   21.8490 C   0  0  0  0  0  3  0  0  0  0  0  0
  -23.8860   -8.5750   22.0170 C   0  0  0  0  0  3  0  0  0  0  0  0
  -22.7530   -8.3010   21.2160 C   0  0  0  0  0  0  0  0  0  0  0  0
  -22.3650   -9.2320   20.2360 C   0  0  0  0  0  3  0  0  0  0  0  0
  -23.0770  -10.4310   20.0650 C   0  0  0  0  0  3  0  0  0  0  0  0
  -22.0160   -7.1430   21.2910 O   0  0  0  0  0  0  0  0  0  0  0  0
  -21.8360   -6.4820   22.4790 C   0  0  0  0  0  0  0  0  0  0  0  0
  -21.1840   -7.0850   23.5780 C   0  0  0  0  0  3  0  0  0  0  0  0
  -20.9570   -6.3450   24.7550 C   0  0  0  0  0  3  0  0  0  0  0  0
  -21.3740   -5.0030   24.8350 C   0  0  0  0  0  0  0  0  0  0  0  0
  -22.0180   -4.3990   23.7410 C   0  0  0  0  0  3  0  0  0  0  0  0
  -22.2470   -5.1360   22.5670 C   0  0  0  0  0  0  0  0  0  0  0  0
  -22.8490   -4.5440   21.5080 F   0  0  0  0  0  0  0  0  0  0  0  0
  -21.1500   -4.2900   25.9630 F   0  0  0  0  0  0  0  0  0  0  0  0
  -23.0630  -13.8050   21.1990 C   0  0  0  0  0  0  0  0  0  0  0  0
  -22.3960  -13.0730   22.0850 N   0  0  0  0  0  0  0  0  0  0  0  0
  -22.5900  -14.8470   20.7500 O   0  0  0  0  0  0  0  0  0  0  0  0
  -22.7930  -12.2290   22.4700 H   0  0  0  0  0  0  0  0  0  0  0  0
  -21.4760  -13.3660   22.3860 H   0  0  0  0  0  0  0  0  0  0  0  0
  -25.6350  -15.5130   20.2870 N   0  0  0  0  0  0  0  0  0  0  0  0
  -24.8830  -16.1660   20.4860 H   0  0  0  0  0  0  0  0  0  0  0  0
  -26.4810  -15.9670   19.9690 H   0  0  0  0  0  0  0  0  0  0  0  0
  -31.2070  -16.2790   22.9140 C   0  0  0  0  0  1  0  0  0  0  0  0
  -31.7670  -18.7190   22.5500 C   0  0  0  0  0  1  0  0  0  0  0  0
  -30.8230  -17.5700   22.1670 C   0  0  0  0  0  3  0  0  0  0  0  0
  -32.0780  -21.0980   16.7460 O   0  0  0  0  0  0  0  0  0  0  0  0
  -32.1270  -21.9570   16.3380 H   0  0  0  0  0  0  0  0  0  0  0  0
  -28.5150  -23.1230   19.4050 O   0  0  0  0  0  0  0  0  0  0  0  0
  -28.9720  -24.5090   19.3550 C   0  0  0  0  0  2  0  0  0  0  0  0
  -27.7880  -25.5040   19.1370 C   0  0  0  0  0  2  0  0  0  0  0  0
  -28.0080  -26.9260   19.4080 O   0  0  0  0  0  0  0  0  0  0  0  0
  -24.4640  -31.9410   23.1370 C   0  0  0  0  0  0  0  0  0  0  0  0
  -26.8670  -27.7230   19.5200 C   0  0  0  0  0  0  0  0  0  0  0  0
  -23.1470  -30.6720   21.4780 C   0  0  0  0  0  3  0  0  0  0  0  0
  -24.4920  -29.2660   19.8310 C   0  0  0  0  0  0  0  0  0  0  0  0
  -25.6610  -31.0400   21.1380 C   0  0  0  0  0  2  0  0  0  0  0  0
  -25.6970  -29.7240   20.3780 C   0  0  0  0  0  0  0  0  0  0  0  0
  -26.8870  -28.9600   20.2210 C   0  0  0  0  0  3  0  0  0  0  0  0
  -25.6350  -27.3090   18.9580 C   0  0  0  0  0  3  0  0  0  0  0  0
  -24.4580  -28.0590   19.1200 C   0  0  0  0  0  3  0  0  0  0  0  0
  -23.2580  -30.1160   20.0360 C   0  0  0  0  0  2  0  0  0  0  0  0
  -24.4460  -31.2290   21.9740 N   0  0  0  0  0  0  0  0  0  0  0  0
  -23.4220  -32.1640   23.7710 O   0  0  0  0  0  0  0  0  0  0  0  0
  -22.5630  -29.5700   22.3940 C   0  0  0  0  0  0  0  0  0  0  0  0
  -21.2480  -29.3200   22.2740 N   0  0  0  0  0  0  0  0  0  0  0  0
  -23.2900  -28.9450   23.1710 O   0  0  0  0  0  0  0  0  0  0  0  0
  -20.7190  -29.8800   21.6200 H   0  0  0  0  0  0  0  0  0  0  0  0
  -17.9710  -27.8550   22.6920 C   0  0  0  0  0  0  0  0  0  0  0  0
  -20.4970  -28.3020   23.0080 C   0  0  0  0  0  3  0  0  0  0  0  0
  -20.7180  -26.8980   22.3980 C   0  0  0  0  0  2  0  0  0  0  0  0
  -19.6580  -26.5190   21.3590 C   0  0  0  0  0  2  0  0  0  0  0  0
  -18.2610  -26.5400   21.9860 C   0  0  0  0  0  2  0  0  0  0  0  0
  -19.0220  -28.6890   23.1570 C   0  0  0  0  0  0  0  0  0  0  0  0
  -18.6990  -29.9150   23.7780 C   0  0  0  0  0  3  0  0  0  0  0  0
  -17.3580  -30.3120   23.9360 C   0  0  0  0  0  3  0  0  0  0  0  0
  -16.3210  -29.4750   23.4860 C   0  0  0  0  0  3  0  0  0  0  0  0
  -16.6270  -28.2480   22.8700 C   0  0  0  0  0  3  0  0  0  0  0  0
  -25.7890  -32.5300   23.7120 C   0  0  0  0  0  3  0  0  0  0  0  0
  -25.5250  -33.9250   24.0880 N   0  0  0  0  0  0  0  0  0  0  0  0
  -25.8730  -34.9900   23.3530 C   0  0  0  0  0  0  0  0  0  0  0  0
  -26.5220  -34.8970   22.3070 O   0  0  0  0  0  0  0  0  0  0  0  0
  -24.9480  -34.0740   24.9030 H   0  0  0  0  0  0  0  0  0  0  0  0
  -24.1980  -36.8440   23.0680 C   0  0  0  0  0  1  0  0  0  0  0  0
  -25.4320  -36.3770   23.8570 C   0  0  0  0  0  3  0  0  0  0  0  0
  -27.5910  -37.1790   24.7090 C   0  0  0  0  0  1  0  0  0  0  0  0
  -26.4970  -37.4010   23.7680 N   0  0  0  0  0  0  0  0  0  0  0  0
  -26.1180  -38.3300   23.9340 H   0  0  0  0  0  0  0  0  0  0  0  0
  -26.3450  -31.7170   24.9460 C   0  0  1  0  0  0  0  0  0  0  0  0
  -25.2920  -31.4630   26.0480 C   0  0  0  0  0  1  0  0  0  0  0  0
  -26.8960  -30.3440   24.4930 C   0  0  0  0  0  1  0  0  0  0  0  0
  -27.5330  -32.4780   25.5800 C   0  0  0  0  0  1  0  0  0  0  0  0
  1  4  1  0
  3  6  2  0
  4  2  2  0
  5  3  1  0
  5  1  2  0
  6 52  1  0
  6  2  1  0
  7 13  1  0
  7 18  1  0
  8 13  1  0
  9 10  1  0
  9  8  1  0
 11 10  1  0
 11 22  1  0
 11 12  1  0
 13 12  1  0
 14  7  2  0
 15 16  1  0
 15 18  1  0
 16  4  1  0
 16 17  1  0
 17 49  1  0
 18 17  1  0
 19 20  2  0
 20 39  1  0
 21 20  1  0
 21 24  1  0
 22 23  1  0
 22 19  1  0
 23 21  2  0
 24 25  1  0
 25 26  2  0
 27 30  1  0
 27 26  1  0
 28 27  2  0
 29 28  1  0
 29 24  2  0
 30 31  1  0
 31 36  2  0
 31 32  1  0
 32 33  2  0
 33 34  1  0
 34 38  1  0
 35 34  2  0
 36 35  1  0
 37 36  1  0
 39 40  1  0
 40 43  1  0
 40 42  1  0
 41 39  2  0
 44 19  1  0
 44 45  1  0
 46 44  1  0
 49 48  1  0
 49 47  1  0
 50  5  1  0
 51 50  1  0
 53 52  1  0
 54 53  1  0
 54 55  1  0
 55 57  1  0
 56 67  2  0
 57 62  1  0
 58 66  1  0
 58 68  1  0
 59 65  1  0
 59 61  1  0
 60 66  1  0
 61 60  1  0
 62 61  2  0
 63 64  1  0
 63 57  2  0
 64 59  2  0
 65 58  1  0
 66 56  1  0
 68 70  2  0
 69 68  1  0
 71 69  1  0
 72 81  2  0
 72 77  1  0
 73 69  1  0
 73 77  1  0
 74 73  1  0
 75 76  1  0
 75 74  1  0
 76 72  1  0
 77 78  2  0
 78 79  1  0
 80 79  2  0
 81 80  1  0
 82 56  1  0
 82 83  1  0
 82 92  1  0
 83 86  1  0
 84 88  1  0
 84 83  1  0
 85 84  2  0
 88 87  1  0
 90 88  1  0
 90 91  1  0
 90 89  1  0
 92 95  1  1
 92 93  1  0
 94 92  1  0
M  ISO  4   7 100  18 100  54 101  55 101
M  END
>  <TORSDO>  (73) 
F 21

>  <SCORE>  (73) 
-11.940

>  <name>  (73) 
72

>  <ligand_id>  (73) 
72

>  <original_smiles>  (73) 
[H]Oc1c([H])c(OC([H])([H])C([H])([H])Oc2c([H])c([H])c3c(c2[H])C([H])([H])N(C(=O)C([H])(N([H])C(=O)C([H])(N([H])C([H])([H])[H])C([H])([H])[H])C(C([H])([H])[H])(C([H])([H])[H])C([H])([H])[H])C([H])(C(=O)N([H])C2([H])c4c([H])c([H])c([H])c([H])c4C([H])([H])C([H])([H])C2([H])[H])C3([H])[H])c([H])c(C2([H])C([H])([H])N(C(=O)N3C([H])([H])C([H])([H])C([H])([H])C([H])(n4nc(-c5c([H])c([H])c(Oc6c([H])c([H])c(F)c([H])c6F)c([H])c5[H])c(C(=O)N([H])[H])c4N([H])[H])C3([H])[H])C2([H])C([H])(C([H])([H])[H])C([H])([H])[H])c1[H]

>  <smiles>  (73) 
[H]Oc1c([H])c(OC([H])([H])C([H])([H])Oc2c([H])c([H])c3c(c2[H])C([H])([H])N(C(=O)C([H])(N([H])C(=O)C([H])(N([H])C([H])([H])[H])C([H])([H])[H])C(C([H])([H])[H])(C([H])([H])[H])C([H])([H])[H])C([H])(C(=O)N([H])C2([H])c4c([H])c([H])c([H])c([H])c4C([H])([H])C([H])([H])C2([H])[H])C3([H])[H])c([H])c(C2([H])C([H])([H])N(C(=O)N3C([H])([H])C([H])([H])C([H])([H])C([H])(n4nc(-c5c([H])c([H])c(Oc6c([H])c([H])c(F)c([H])c6F)c([H])c5[H])c(C(=O)N([H])[H])c4N([H])[H])C3([H])[H])C2([H])C([H])(C([H])([H])[H])C([H])([H])[H])c1[H]

$$$$
74:0:0
     RDKit          3D

 93102  0  0  1  0  0  0  0  0999 V2000
  -30.7650  -14.9650   20.3010 C   0  0  0  0  0  0  0  0  0  0  0  0
  -30.8010  -12.4760   19.8290 C   0  0  0  0  0  2  0  0  0  0  0  0
  -29.9750  -12.1790   18.5540 C   0  0  0  0  0  2  0  0  0  0  0  0
  -28.4790  -12.0100   18.8890 C   0  0  0  0  0  2  0  0  0  0  0  0
  -27.9560  -13.1250   19.8300 C   0  0  0  0  0  3  0  0  0  0  0  0
  -28.9070  -13.3620   21.0240 C   0  0  0  0  0  2  0  0  0  0  0  0
  -30.2300  -13.6900   20.4720 N   0  0  0  0  0  0  0  0  0  0  0  0
  -31.9760  -15.0560   20.0660 O   0  0  0  0  0  0  0  0  0  0  0  0
  -28.4500  -18.0740   19.8980 C   0  0  0  0  0  3  0  0  0  0  0  0
  -28.1080  -19.4300   19.5500 C   0  0  0  0  0  0  0  0  0  0  0  0
  -29.0790  -20.3960   19.1220 C   0  0  0  0  0  0  0  0  0  0  0  0
  -30.3940  -19.7880   19.1180 C   0  0  0  0  0  0  0  0  0  0  0  0
  -29.7600  -17.5230   19.8500 C   0  0  0  0  0  0  0  0  0  0  0  0
  -31.5810  -20.6380   18.7140 C   0  0  0  0  0  1  0  0  0  0  0  0
  -30.7040  -18.4530   19.4500 N   0  0  0  0  0  0  0  0  0  0  0  0
  -29.8610  -16.0510   20.2460 N   0  0  0  0  0  0  0  0  0  0  0  0
  -28.9550  -15.6950   20.4990 H   0  0  0  0  0  0  0  0  0  0  0  0
  -25.5530  -13.8030   20.4130 C   0  0  0  0  0  0  0  0  0  0  0  0
  -24.4460  -13.0740   20.7460 C   0  0  0  0  0  0  0  0  0  0  0  0
  -24.8660  -11.7100   20.7800 C   0  0  0  0  0  0  0  0  0  0  0  0
  -26.5800  -12.8860   20.2560 N   0  0  0  0  0  0  0  0  0  0  0  0
  -26.1700  -11.6230   20.5410 N   0  0  0  0  0  0  0  0  0  0  0  0
  -24.0880  -10.4770   20.9660 C   0  0  0  0  0  0  0  0  0  0  0  0
  -24.4510   -9.5120   21.9310 C   0  0  0  0  0  3  0  0  0  0  0  0
  -23.6760   -8.3460   22.1050 C   0  0  0  0  0  3  0  0  0  0  0  0
  -22.5220   -8.1340   21.3120 C   0  0  0  0  0  0  0  0  0  0  0  0
  -22.1760   -9.0880   20.3380 C   0  0  0  0  0  3  0  0  0  0  0  0
  -22.9530  -10.2460   20.1630 C   0  0  0  0  0  3  0  0  0  0  0  0
  -21.7250   -7.0180   21.3920 O   0  0  0  0  0  0  0  0  0  0  0  0
  -21.6160   -6.2930   22.5520 C   0  0  0  0  0  0  0  0  0  0  0  0
  -21.1300   -6.8670   23.7460 C   0  0  0  0  0  3  0  0  0  0  0  0
  -20.9690   -6.0670   24.8960 C   0  0  0  0  0  3  0  0  0  0  0  0
  -21.2840   -4.6960   24.8510 C   0  0  0  0  0  0  0  0  0  0  0  0
  -21.7640   -4.1230   23.6610 C   0  0  0  0  0  3  0  0  0  0  0  0
  -21.9270   -4.9190   22.5140 C   0  0  0  0  0  0  0  0  0  0  0  0
  -22.3690   -4.3570   21.3630 F   0  0  0  0  0  0  0  0  0  0  0  0
  -21.1230   -3.9270   25.9530 F   0  0  0  0  0  0  0  0  0  0  0  0
  -23.0510  -13.6040   20.9190 C   0  0  0  0  0  0  0  0  0  0  0  0
  -22.2640  -12.9870   21.7930 N   0  0  0  0  0  0  0  0  0  0  0  0
  -22.6660  -14.6030   20.3110 O   0  0  0  0  0  0  0  0  0  0  0  0
  -22.5880  -12.1830   22.3080 H   0  0  0  0  0  0  0  0  0  0  0  0
  -21.3260  -13.3270   21.9510 H   0  0  0  0  0  0  0  0  0  0  0  0
  -25.7700  -15.1610   20.2040 N   0  0  0  0  0  0  0  0  0  0  0  0
  -25.0050  -15.8260   20.2440 H   0  0  0  0  0  0  0  0  0  0  0  0
  -26.6120  -15.5510   19.8080 H   0  0  0  0  0  0  0  0  0  0  0  0
  -25.5310  -18.9500   19.2010 C   0  0  0  0  0  2  0  0  0  0  0  0
  -25.8440  -20.2350   18.4760 C   0  0  0  0  0  2  0  0  0  0  0  0
  -26.6640  -19.8320   19.6810 C   0  0  0  0  0  3  0  0  0  0  0  0
  -28.6070  -21.7620   18.7480 N   0  0  0  0  0  0  0  0  0  0  0  0
  -27.6020  -21.7590   18.5920 H   0  0  0  0  0  0  0  0  0  0  0  0
  -29.1300  -23.2210   18.6450 C   0  0  0  0  0  3  0  0  0  0  0  0
  -28.0330  -24.5000   18.6220 C   0  0  0  0  0  3  0  0  0  0  0  0
  -28.2620  -26.0120   18.8880 O   0  0  0  0  0  0  0  0  0  0  0  0
  -24.3770  -31.0010   22.6450 C   0  0  0  0  0  0  0  0  0  0  0  0
  -27.1580  -26.9340   18.9580 C   0  0  0  0  0  0  0  0  0  0  0  0
  -23.2390  -29.8350   20.7940 C   0  0  0  0  0  3  0  0  0  0  0  0
  -24.7550  -28.5600   19.1610 C   0  0  0  0  0  0  0  0  0  0  0  0
  -25.7800  -30.2260   20.7000 C   0  0  0  0  0  2  0  0  0  0  0  0
  -25.9120  -28.9570   19.8440 C   0  0  0  0  0  0  0  0  0  0  0  0
  -27.1140  -28.1660   19.7250 C   0  0  0  0  0  3  0  0  0  0  0  0
  -25.9680  -26.6370   18.2560 C   0  0  0  0  0  3  0  0  0  0  0  0
  -24.7950  -27.4150   18.3530 C   0  0  0  0  0  3  0  0  0  0  0  0
  -23.4930  -29.3880   19.3300 C   0  0  0  0  0  2  0  0  0  0  0  0
  -24.4830  -30.3670   21.4380 N   0  0  0  0  0  0  0  0  0  0  0  0
  -23.2780  -31.1570   23.1990 O   0  0  0  0  0  0  0  0  0  0  0  0
  -22.5960  -28.6650   21.5790 C   0  0  0  0  0  0  0  0  0  0  0  0
  -21.2630  -28.5110   21.4690 N   0  0  0  0  0  0  0  0  0  0  0  0
  -23.2960  -27.9030   22.2510 O   0  0  0  0  0  0  0  0  0  0  0  0
  -20.7540  -29.1820   20.9110 H   0  0  0  0  0  0  0  0  0  0  0  0
  -17.9050  -27.2030   21.8320 C   0  0  0  0  0  0  0  0  0  0  0  0
  -20.4680  -27.4470   22.0850 C   0  0  0  0  0  3  0  0  0  0  0  0
  -20.5660  -26.1350   21.2720 C   0  0  0  0  0  2  0  0  0  0  0  0
  -19.4440  -25.9790   20.2400 C   0  0  0  0  0  2  0  0  0  0  0  0
  -18.0770  -25.9930   20.9280 C   0  0  0  0  0  2  0  0  0  0  0  0
  -19.0280  -27.8940   22.3610 C   0  0  0  0  0  0  0  0  0  0  0  0
  -18.8120  -29.0320   23.1690 C   0  0  0  0  0  3  0  0  0  0  0  0
  -17.5070  -29.4810   23.4480 C   0  0  0  0  0  3  0  0  0  0  0  0
  -16.4010  -28.7840   22.9320 C   0  0  0  0  0  3  0  0  0  0  0  0
  -16.6000  -27.6470   22.1310 C   0  0  0  0  0  3  0  0  0  0  0  0
  -25.6270  -31.5770   23.3770 C   0  0  0  0  0  3  0  0  0  0  0  0
  -26.0960  -30.6870   24.5950 C   0  0  1  0  0  0  0  0  0  0  0  0
  -24.9640  -30.3610   25.5990 C   0  0  0  0  0  1  0  0  0  0  0  0
  -26.6870  -29.3470   24.1020 C   0  0  0  0  0  1  0  0  0  0  0  0
  -27.2230  -31.4110   25.3690 C   0  0  0  0  0  1  0  0  0  0  0  0
  -25.2930  -32.9350   23.8320 N   0  0  0  0  0  0  0  0  0  0  0  0
  -25.7380  -34.0640   23.2640 C   0  0  0  0  0  0  0  0  0  0  0  0
  -26.5380  -34.0660   22.3250 O   0  0  0  0  0  0  0  0  0  0  0  0
  -24.5980  -33.0070   24.5610 H   0  0  0  0  0  0  0  0  0  0  0  0
  -24.1720  -35.9920   22.8630 C   0  0  0  0  0  1  0  0  0  0  0  0
  -25.2150  -35.4010   23.8260 C   0  0  0  0  0  3  0  0  0  0  0  0
  -27.1620  -36.0360   25.1810 C   0  0  0  0  0  1  0  0  0  0  0  0
  -26.2820  -36.3950   24.0710 N   0  0  0  0  0  0  0  0  0  0  0  0
  -25.8840  -37.3090   24.2650 H   0  0  0  0  0  0  0  0  0  0  0  0
  1  7  1  0
  2  7  1  0
  3  4  1  0
  3  2  1  0
  5  4  1  0
  5 21  1  0
  5  6  1  0
  7  6  1  0
  8  1  2  0
 10 48  1  0
 10  9  2  0
 11 10  1  0
 12 11  2  0
 12 15  1  0
 13  9  1  0
 13 16  1  0
 14 12  1  0
 15 13  2  0
 16  1  1  0
 16 17  1  0
 18 19  2  0
 19 20  1  0
 19 38  1  0
 20 23  1  0
 21 18  1  0
 21 22  1  0
 22 20  2  0
 23 24  1  0
 24 25  2  0
 26 29  1  0
 26 25  1  0
 27 26  2  0
 28 27  1  0
 28 23  2  0
 29 30  1  0
 30 31  1  0
 31 32  2  0
 33 32  1  0
 33 37  1  0
 34 33  2  0
 35 30  2  0
 35 34  1  0
 36 35  1  0
 38 39  1  0
 39 42  1  0
 39 41  1  0
 40 38  2  0
 43 44  1  0
 43 18  1  0
 45 43  1  0
 46 48  1  0
 47 46  1  0
 47 48  1  0
 49 11  1  0
 50 49  1  0
 51 49  1  0
 52 51  2  0
 52 53  1  0
 53 55  1  0
 54 65  2  0
 55 60  1  0
 56 64  1  0
 56 66  1  0
 57 63  1  0
 57 59  1  0
 58 64  1  0
 59 58  1  0
 60 59  2  0
 61 62  1  0
 61 55  2  0
 62 57  2  0
 63 56  1  0
 64 54  1  0
 66 68  2  0
 67 66  1  0
 69 67  1  0
 70 79  2  0
 70 75  1  0
 71 67  1  0
 71 75  1  0
 72 71  1  0
 73 74  1  0
 73 72  1  0
 74 70  1  0
 75 76  2  0
 76 77  1  0
 78 77  2  0
 79 78  1  0
 80 54  1  0
 80 85  1  0
 80 81  1  0
 81 84  1  1
 81 82  1  0
 83 81  1  0
 85 88  1  0
 86 90  1  0
 86 85  1  0
 87 86  2  0
 90 89  1  0
 90 92  1  0
 92 93  1  0
 92 91  1  0
M  ISO  4   1 100  16 100  52 101  53 101
M  END
>  <TORSDO>  (74) 
F 19

>  <SCORE>  (74) 
-10.531

>  <name>  (74) 
74

>  <ligand_id>  (74) 
74

>  <original_smiles>  (74) 
[H]c1c([H])c([H])c2c(c1[H])C([H])([H])C([H])([H])C([H])([H])C2([H])N([H])C(=O)C1([H])N(C(=O)C([H])(N([H])C(=O)C([H])(N([H])C([H])([H])[H])C([H])([H])[H])C(C([H])([H])[H])(C([H])([H])[H])C([H])([H])[H])C([H])([H])c2c([H])c(OC([H])([H])C([H])([H])N([H])c3c(C([H])([H])[H])nc(N([H])C(=O)N4C([H])([H])C([H])([H])C([H])([H])C([H])(n5nc(-c6c([H])c([H])c(Oc7c([H])c([H])c(F)c([H])c7F)c([H])c6[H])c(C(=O)N([H])[H])c5N([H])[H])C4([H])[H])c([H])c3C3([H])C([H])([H])C3([H])[H])c([H])c([H])c2C1([H])[H]

>  <smiles>  (74) 
[H]c1c([H])c([H])c2c(c1[H])C([H])([H])C([H])([H])C([H])([H])C2([H])N([H])C(=O)C1([H])N(C(=O)C([H])(N([H])C(=O)C([H])(N([H])C([H])([H])[H])C([H])([H])[H])C(C([H])([H])[H])(C([H])([H])[H])C([H])([H])[H])C([H])([H])c2c([H])c(OC([H])([H])C([H])([H])N([H])c3c(C([H])([H])[H])nc(N([H])C(=O)N4C([H])([H])C([H])([H])C([H])([H])C([H])(n5nc(-c6c([H])c([H])c(Oc7c([H])c([H])c(F)c([H])c7F)c([H])c6[H])c(C(=O)N([H])[H])c5N([H])[H])C4([H])[H])c([H])c3C3([H])C([H])([H])C3([H])[H])c([H])c([H])c2C1([H])[H]

$$$$
76:0:0
     RDKit          3D

 92100  0  0  1  0  0  0  0  0999 V2000
  -28.8310  -19.6610   18.5400 C   0  0  0  0  0  3  0  0  0  0  0  0
  -29.7420  -19.1700   17.5970 C   0  0  0  0  0  3  0  0  0  0  0  0
  -29.0820  -19.4460   19.9110 C   0  0  0  0  0  3  0  0  0  0  0  0
  -29.9390  -18.1460   20.1470 C   0  0  0  0  0  3  0  0  0  0  0  0
  -31.0320  -18.1960   19.2540 C   0  0  0  0  0  0  0  0  0  0  0  0
  -30.8990  -18.5860   17.9680 N   0  0  0  0  0  0  0  0  0  0  0  0
  -30.3760  -15.2670   20.3070 C   0  0  0  0  0  0  0  0  0  0  0  0
  -30.3490  -12.8120   19.4560 C   0  0  0  0  0  2  0  0  0  0  0  0
  -29.4460  -12.6040   18.2130 C   0  0  0  0  0  2  0  0  0  0  0  0
  -27.9940  -12.3370   18.6470 C   0  0  0  0  0  2  0  0  0  0  0  0
  -27.5350  -13.3020   19.7710 C   0  0  0  0  0  3  0  0  0  0  0  0
  -28.5760  -13.4550   20.8990 C   0  0  0  0  0  2  0  0  0  0  0  0
  -29.8000  -13.9640   20.2690 N   0  0  0  0  0  0  0  0  0  0  0  0
  -31.5930  -15.2030   20.0960 O   0  0  0  0  0  0  0  0  0  0  0  0
  -29.6370  -16.5680   20.4220 N   0  0  0  0  0  0  0  0  0  0  0  0
  -28.6710  -16.4010   20.6670 H   0  0  0  0  0  0  0  0  0  0  0  0
  -25.1660  -13.8550   20.5290 C   0  0  0  0  0  0  0  0  0  0  0  0
  -24.1060  -13.0740   20.8980 C   0  0  0  0  0  0  0  0  0  0  0  0
  -24.5750  -11.7240   20.8630 C   0  0  0  0  0  0  0  0  0  0  0  0
  -26.2100  -12.9810   20.2830 N   0  0  0  0  0  0  0  0  0  0  0  0
  -25.8680  -11.6940   20.5540 N   0  0  0  0  0  0  0  0  0  0  0  0
  -23.8500  -10.4620   21.0500 C   0  0  0  0  0  0  0  0  0  0  0  0
  -24.2820   -9.4950   21.9840 C   0  0  0  0  0  3  0  0  0  0  0  0
  -23.5560   -8.2970   22.1630 C   0  0  0  0  0  3  0  0  0  0  0  0
  -22.3850   -8.0580   21.4040 C   0  0  0  0  0  0  0  0  0  0  0  0
  -21.9710   -9.0150   20.4600 C   0  0  0  0  0  3  0  0  0  0  0  0
  -22.6980  -10.2030   20.2810 C   0  0  0  0  0  3  0  0  0  0  0  0
  -21.6300   -6.9130   21.4880 O   0  0  0  0  0  0  0  0  0  0  0  0
  -21.5830   -6.1660   22.6380 C   0  0  0  0  0  0  0  0  0  0  0  0
  -21.1510   -6.7140   23.8670 C   0  0  0  0  0  3  0  0  0  0  0  0
  -21.0480   -5.8930   25.0060 C   0  0  0  0  0  3  0  0  0  0  0  0
  -21.3690   -4.5260   24.9230 C   0  0  0  0  0  0  0  0  0  0  0  0
  -21.7920   -3.9750   23.6990 C   0  0  0  0  0  3  0  0  0  0  0  0
  -21.8950   -4.7930   22.5600 C   0  0  0  0  0  0  0  0  0  0  0  0
  -22.2830   -4.2530   21.3800 F   0  0  0  0  0  0  0  0  0  0  0  0
  -21.2640   -3.7370   26.0170 F   0  0  0  0  0  0  0  0  0  0  0  0
  -22.7070  -13.5480   21.1640 C   0  0  0  0  0  0  0  0  0  0  0  0
  -21.9730  -12.8530   22.0240 N   0  0  0  0  0  0  0  0  0  0  0  0
  -22.2740  -14.5750   20.6430 O   0  0  0  0  0  0  0  0  0  0  0  0
  -22.3360  -12.0230   22.4700 H   0  0  0  0  0  0  0  0  0  0  0  0
  -21.0350  -13.1590   22.2430 H   0  0  0  0  0  0  0  0  0  0  0  0
  -25.3290  -15.2270   20.3500 N   0  0  0  0  0  0  0  0  0  0  0  0
  -24.5640  -15.8830   20.4730 H   0  0  0  0  0  0  0  0  0  0  0  0
  -26.1680  -15.6590   19.9900 H   0  0  0  0  0  0  0  0  0  0  0  0
  -28.8000  -20.9710   20.7020 C   0  0  0  0  0  2  0  0  0  0  0  0
  -28.6970  -22.6630   20.0540 C   0  0  0  0  0  3  0  0  0  0  0  0
  -27.9970  -24.2290   20.6220 C   0  0  0  0  0  3  0  0  0  0  0  0
  -28.1900  -25.8370   20.2760 O   0  0  0  0  0  0  0  0  0  0  0  0
  -24.6270  -31.8350   23.2080 C   0  0  0  0  0  0  0  0  0  0  0  0
  -27.1690  -26.9200   20.2600 C   0  0  0  0  0  0  0  0  0  0  0  0
  -23.4340  -30.4240   21.5790 C   0  0  0  0  0  3  0  0  0  0  0  0
  -24.8810  -28.8050   20.1740 C   0  0  0  0  0  0  0  0  0  0  0  0
  -26.0000  -30.6320   21.4330 C   0  0  0  0  0  2  0  0  0  0  0  0
  -26.0660  -29.2130   20.7990 C   0  0  0  0  0  0  0  0  0  0  0  0
  -27.2090  -28.2950   20.8090 C   0  0  0  0  0  3  0  0  0  0  0  0
  -25.9540  -26.6600   19.5900 C   0  0  0  0  0  3  0  0  0  0  0  0
  -24.8530  -27.5500   19.5430 C   0  0  0  0  0  3  0  0  0  0  0  0
  -23.6630  -29.7260   20.2100 C   0  0  0  0  0  2  0  0  0  0  0  0
  -24.7090  -30.9920   22.1270 N   0  0  0  0  0  0  0  0  0  0  0  0
  -23.5370  -32.1280   23.7270 O   0  0  0  0  0  0  0  0  0  0  0  0
  -22.7380  -29.4370   22.5540 C   0  0  0  0  0  0  0  0  0  0  0  0
  -21.4070  -29.2800   22.4330 N   0  0  0  0  0  0  0  0  0  0  0  0
  -23.4030  -28.8160   23.3870 O   0  0  0  0  0  0  0  0  0  0  0  0
  -20.9240  -29.8350   21.7400 H   0  0  0  0  0  0  0  0  0  0  0  0
  -18.0180  -28.0920   22.9600 C   0  0  0  0  0  0  0  0  0  0  0  0
  -20.5810  -28.3500   23.2120 C   0  0  0  0  0  3  0  0  0  0  0  0
  -20.6740  -26.9150   22.6440 C   0  0  0  0  0  2  0  0  0  0  0  0
  -19.5660  -26.5920   21.6350 C   0  0  0  0  0  2  0  0  0  0  0  0
  -18.1880  -26.7420   22.2840 C   0  0  0  0  0  2  0  0  0  0  0  0
  -19.1420  -28.8560   23.3800 C   0  0  0  0  0  0  0  0  0  0  0  0
  -18.9250  -30.1160   23.9740 C   0  0  0  0  0  3  0  0  0  0  0  0
  -17.6200  -30.6170   24.1520 C   0  0  0  0  0  3  0  0  0  0  0  0
  -16.5140  -29.8520   23.7440 C   0  0  0  0  0  3  0  0  0  0  0  0
  -16.7130  -28.5920   23.1540 C   0  0  0  0  0  3  0  0  0  0  0  0
  -25.8980  -32.4830   23.8390 C   0  0  0  0  0  3  0  0  0  0  0  0
  -25.5790  -33.8840   24.1630 N   0  0  0  0  0  0  0  0  0  0  0  0
  -25.9180  -34.9450   23.4160 C   0  0  0  0  0  0  0  0  0  0  0  0
  -26.5950  -34.8420   22.3880 O   0  0  0  0  0  0  0  0  0  0  0  0
  -24.9840  -34.0340   24.9640 H   0  0  0  0  0  0  0  0  0  0  0  0
  -24.2030  -36.7540   23.0500 C   0  0  0  0  0  1  0  0  0  0  0  0
  -25.4340  -36.3370   23.8730 C   0  0  0  0  0  3  0  0  0  0  0  0
  -27.5660  -37.2100   24.7270 C   0  0  0  0  0  1  0  0  0  0  0  0
  -26.4750  -37.3860   23.7720 N   0  0  0  0  0  0  0  0  0  0  0  0
  -26.0750  -38.3090   23.9130 H   0  0  0  0  0  0  0  0  0  0  0  0
  -26.3970  -31.7290   25.1360 C   0  0  1  0  0  0  0  0  0  0  0  0
  -25.2930  -31.5170   26.1970 C   0  0  0  0  0  1  0  0  0  0  0  0
  -26.9770  -30.3410   24.7820 C   0  0  0  0  0  1  0  0  0  0  0  0
  -27.5440  -32.5310   25.7960 C   0  0  0  0  0  1  0  0  0  0  0  0
  -32.2420  -17.6460   19.5820 O   0  0  0  0  0  0  0  0  0  0  0  0
  -33.3690  -18.5030   19.4710 C   0  0  0  0  0  2  0  0  0  0  0  0
  -34.6910  -20.3020   20.7060 C   0  0  0  0  0  1  0  0  0  0  0  0
  -33.5350  -19.2930   20.7800 C   0  0  0  0  0  2  0  0  0  0  0  0
  1  3  1  0
  2  6  1  0
  2  1  2  0
  3  4  1  0
  3 45  1  0
  4 15  1  0
  5 89  1  0
  5  4  1  0
  6  5  2  0
  7 15  1  0
  8 13  1  0
  9 10  1  0
  9  8  1  0
 11 10  1  0
 11 20  1  0
 11 12  1  0
 13  7  1  0
 13 12  1  0
 14  7  2  0
 15 16  1  0
 17 18  2  0
 18 37  1  0
 19 18  1  0
 19 22  1  0
 20 17  1  0
 20 21  1  0
 21 19  2  0
 22 23  1  0
 23 24  2  0
 25 28  1  0
 25 24  1  0
 26 25  2  0
 27 26  1  0
 27 22  2  0
 28 29  1  0
 29 30  1  0
 30 31  2  0
 32 31  1  0
 32 36  1  0
 33 32  2  0
 34 29  2  0
 34 33  1  0
 35 34  1  0
 37 38  1  0
 38 41  1  0
 38 40  1  0
 39 37  2  0
 42 43  1  0
 42 17  1  0
 44 42  1  0
 46 47  2  0
 46 45  1  0
 48 47  1  0
 49 60  2  0
 50 48  1  0
 50 55  1  0
 51 59  1  0
 51 61  1  0
 52 58  1  0
 52 54  1  0
 53 59  1  0
 54 55  2  0
 54 53  1  0
 56 50  2  0
 57 56  1  0
 57 52  2  0
 58 51  1  0
 59 49  1  0
 61 63  2  0
 62 61  1  0
 64 62  1  0
 65 74  2  0
 65 70  1  0
 66 62  1  0
 66 70  1  0
 67 66  1  0
 68 69  1  0
 68 67  1  0
 69 65  1  0
 70 71  2  0
 71 72  1  0
 73 72  2  0
 74 73  1  0
 75 49  1  0
 75 76  1  0
 75 85  1  0
 76 79  1  0
 77 81  1  0
 77 76  1  0
 78 77  2  0
 81 80  1  0
 83 81  1  0
 83 84  1  0
 83 82  1  0
 85 88  1  1
 85 86  1  0
 87 85  1  0
 90 89  1  0
 90 92  1  0
 91 92  1  0
M  ISO  4   7 100  15 100  47 101  48 101
M  END
>  <TORSDO>  (75) 
F 22

>  <SCORE>  (75) 
-15.001

>  <name>  (75) 
76

>  <ligand_id>  (75) 
76

>  <original_smiles>  (75) 
[H]c1nc(OC([H])([H])C([H])([H])C([H])([H])[H])c(N([H])C(=O)N2C([H])([H])C([H])([H])C([H])([H])C([H])(n3nc(-c4c([H])c([H])c(Oc5c([H])c([H])c(F)c([H])c5F)c([H])c4[H])c(C(=O)N([H])[H])c3N([H])[H])C2([H])[H])c(C([H])([H])C([H])([H])C([H])([H])Oc2c([H])c([H])c3c(c2[H])C([H])([H])N(C(=O)C([H])(N([H])C(=O)C([H])(N([H])C([H])([H])[H])C([H])([H])[H])C(C([H])([H])[H])(C([H])([H])[H])C([H])([H])[H])C([H])(C(=O)N([H])C2([H])c4c([H])c([H])c([H])c([H])c4C([H])([H])C([H])([H])C2([H])[H])C3([H])[H])c1[H]

>  <smiles>  (75) 
[H]c1nc(OC([H])([H])C([H])([H])C([H])([H])[H])c(N([H])C(=O)N2C([H])([H])C([H])([H])C([H])([H])C([H])(n3nc(-c4c([H])c([H])c(Oc5c([H])c([H])c(F)c([H])c5F)c([H])c4[H])c(C(=O)N([H])[H])c3N([H])[H])C2([H])[H])c(C([H])([H])C([H])([H])C([H])([H])Oc2c([H])c([H])c3c(c2[H])C([H])([H])N(C(=O)C([H])(N([H])C(=O)C([H])(N([H])C([H])([H])[H])C([H])([H])[H])C(C([H])([H])[H])(C([H])([H])[H])C([H])([H])[H])C([H])(C(=O)N([H])C2([H])c4c([H])c([H])c([H])c([H])c4C([H])([H])C([H])([H])C2([H])[H])C3([H])[H])c1[H]

$$$$
77:0:0
     RDKit          3D

 95105  0  0  1  0  0  0  0  0999 V2000
  -30.1920  -23.6150   16.6810 C   0  0  0  0  0  3  0  0  0  0  0  0
  -29.7440  -24.8820   17.0780 C   0  0  0  0  0  3  0  0  0  0  0  0
  -29.4040  -24.0530   19.3360 C   0  0  0  0  0  3  0  0  0  0  0  0
  -30.2530  -22.5410   17.5950 C   0  0  0  0  0  0  0  0  0  0  0  0
  -29.3500  -25.1190   18.4060 C   0  0  0  0  0  0  0  0  0  0  0  0
  -29.8550  -22.7610   18.9440 C   0  0  0  0  0  0  0  0  0  0  0  0
  -30.9010  -20.8440   15.6490 C   0  0  0  0  0  2  0  0  0  0  0  0
  -29.8600  -20.1770   16.5080 C   0  0  0  0  0  2  0  0  0  0  0  0
  -30.7810  -21.2100   17.1180 C   0  0  0  0  0  3  0  0  0  0  0  0
  -28.9330  -26.5450   18.7630 C   0  0  0  0  0  2  0  0  0  0  0  0
  -28.3860  -26.7240   20.0680 O   0  0  0  0  0  0  0  0  0  0  0  0
  -24.6000  -31.8770   23.2190 C   0  0  0  0  0  0  0  0  0  0  0  0
  -27.2230  -27.4560   20.1000 C   0  0  0  0  0  0  0  0  0  0  0  0
  -23.3800  -30.4780   21.5830 C   0  0  0  0  0  3  0  0  0  0  0  0
  -24.8220  -28.9420   20.1450 C   0  0  0  0  0  0  0  0  0  0  0  0
  -25.9010  -30.8390   21.3660 C   0  0  0  0  0  2  0  0  0  0  0  0
  -25.9820  -29.4680   20.7280 C   0  0  0  0  0  0  0  0  0  0  0  0
  -27.1840  -28.7260   20.7160 C   0  0  0  0  0  3  0  0  0  0  0  0
  -26.0470  -26.9340   19.5220 C   0  0  0  0  0  3  0  0  0  0  0  0
  -24.8470  -27.6710   19.5430 C   0  0  0  0  0  3  0  0  0  0  0  0
  -23.5780  -29.8000   20.2010 C   0  0  0  0  0  2  0  0  0  0  0  0
  -24.6460  -31.0800   22.1140 N   0  0  0  0  0  0  0  0  0  0  0  0
  -23.5250  -32.1490   23.7690 O   0  0  0  0  0  0  0  0  0  0  0  0
  -22.7370  -29.4560   22.5480 C   0  0  0  0  0  0  0  0  0  0  0  0
  -21.4120  -29.2750   22.4300 N   0  0  0  0  0  0  0  0  0  0  0  0
  -23.4260  -28.8290   23.3550 O   0  0  0  0  0  0  0  0  0  0  0  0
  -20.9160  -29.8330   21.7490 H   0  0  0  0  0  0  0  0  0  0  0  0
  -18.0410  -28.0820   22.9480 C   0  0  0  0  0  0  0  0  0  0  0  0
  -20.6000  -28.3370   23.2050 C   0  0  0  0  0  3  0  0  0  0  0  0
  -20.6980  -26.9070   22.6250 C   0  0  0  0  0  2  0  0  0  0  0  0
  -19.5890  -26.5880   21.6170 C   0  0  0  0  0  2  0  0  0  0  0  0
  -18.2120  -26.7330   22.2700 C   0  0  0  0  0  2  0  0  0  0  0  0
  -19.1630  -28.8420   23.3720 C   0  0  0  0  0  0  0  0  0  0  0  0
  -18.9500  -30.1060   23.9650 C   0  0  0  0  0  3  0  0  0  0  0  0
  -17.6470  -30.6090   24.1380 C   0  0  0  0  0  3  0  0  0  0  0  0
  -16.5390  -29.8460   23.7310 C   0  0  0  0  0  3  0  0  0  0  0  0
  -16.7370  -28.5840   23.1410 C   0  0  0  0  0  3  0  0  0  0  0  0
  -25.8930  -32.5050   23.8280 C   0  0  0  0  0  3  0  0  0  0  0  0
  -25.5890  -33.9000   24.1710 N   0  0  0  0  0  0  0  0  0  0  0  0
  -25.9180  -34.9570   23.4180 C   0  0  0  0  0  0  0  0  0  0  0  0
  -26.5830  -34.8610   22.3830 O   0  0  0  0  0  0  0  0  0  0  0  0
  -24.9980  -34.0490   24.9770 H   0  0  0  0  0  0  0  0  0  0  0  0
  -24.1900  -36.7530   23.0820 C   0  0  0  0  0  1  0  0  0  0  0  0
  -25.4330  -36.3420   23.8880 C   0  0  0  0  0  3  0  0  0  0  0  0
  -27.5710  -37.2150   24.7180 C   0  0  0  0  0  1  0  0  0  0  0  0
  -26.4650  -37.3950   23.7820 N   0  0  0  0  0  0  0  0  0  0  0  0
  -26.0620  -38.3140   23.9420 H   0  0  0  0  0  0  0  0  0  0  0  0
  -26.4310  -31.7220   25.0900 C   0  0  1  0  0  0  0  0  0  0  0  0
  -25.3530  -31.4740   26.1720 C   0  0  0  0  0  1  0  0  0  0  0  0
  -27.0080  -30.3500   24.6760 C   0  0  0  0  0  1  0  0  0  0  0  0
  -27.5900  -32.5120   25.7420 C   0  0  0  0  0  1  0  0  0  0  0  0
  -29.9870  -21.6580   20.0060 C   0  0  0  0  0  2  0  0  0  0  0  0
  -29.1130  -20.5450   19.8060 O   0  0  0  0  0  0  0  0  0  0  0  0
  -28.7440  -18.2340   19.3340 C   0  0  0  0  0  2  0  0  0  0  0  0
  -29.4760  -18.1640   20.6530 C   0  0  0  0  0  3  0  0  0  0  0  0
  -29.7770  -19.2860   19.6710 C   0  0  0  0  0  3  0  0  0  0  0  0
  -31.4720  -17.4300   22.0180 C   0  0  0  0  0  1  0  0  0  0  0  0
  -30.5030  -17.0530   20.8850 C   0  0  0  0  0  3  0  0  0  0  0  0
  -29.8520  -15.6520   21.1120 C   0  0  0  0  0  2  0  0  0  0  0  0
  -30.5830  -14.4540   20.4500 C   0  0  0  0  0  0  0  0  0  0  0  0
  -30.3040  -12.3020   19.2670 C   0  0  0  0  0  2  0  0  0  0  0  0
  -29.3570  -12.5140   18.0690 C   0  0  0  0  0  2  0  0  0  0  0  0
  -27.8840  -12.3640   18.5000 C   0  0  0  0  0  2  0  0  0  0  0  0
  -27.5460  -13.1920   19.7670 C   0  0  0  0  0  3  0  0  0  0  0  0
  -28.6040  -12.9690   20.8710 C   0  0  0  0  0  2  0  0  0  0  0  0
  -29.9280  -13.2710   20.3060 N   0  0  0  0  0  0  0  0  0  0  0  0
  -31.7030  -14.6370   19.9610 O   0  0  0  0  0  0  0  0  0  0  0  0
  -25.1430  -13.7880   20.4750 C   0  0  0  0  0  0  0  0  0  0  0  0
  -24.0810  -13.0090   20.8520 C   0  0  0  0  0  0  0  0  0  0  0  0
  -24.5550  -11.6620   20.8350 C   0  0  0  0  0  0  0  0  0  0  0  0
  -26.1950  -12.9130   20.2500 N   0  0  0  0  0  0  0  0  0  0  0  0
  -25.8450  -11.6310   20.5250 N   0  0  0  0  0  0  0  0  0  0  0  0
  -23.8410  -10.3950   21.0390 C   0  0  0  0  0  0  0  0  0  0  0  0
  -24.2940   -9.4330   21.9700 C   0  0  0  0  0  3  0  0  0  0  0  0
  -23.5800   -8.2310   22.1620 C   0  0  0  0  0  3  0  0  0  0  0  0
  -22.3990   -7.9810   21.4220 C   0  0  0  0  0  0  0  0  0  0  0  0
  -21.9670   -8.9310   20.4800 C   0  0  0  0  0  3  0  0  0  0  0  0
  -22.6810  -10.1250   20.2870 C   0  0  0  0  0  3  0  0  0  0  0  0
  -21.6560   -6.8300   21.5210 O   0  0  0  0  0  0  0  0  0  0  0  0
  -21.6450   -6.0780   22.6690 C   0  0  0  0  0  0  0  0  0  0  0  0
  -21.2600   -6.6230   23.9130 C   0  0  0  0  0  3  0  0  0  0  0  0
  -21.1960   -5.7980   25.0530 C   0  0  0  0  0  3  0  0  0  0  0  0
  -21.5060   -4.4290   24.9510 C   0  0  0  0  0  0  0  0  0  0  0  0
  -21.8840   -3.8830   23.7120 C   0  0  0  0  0  3  0  0  0  0  0  0
  -21.9500   -4.7050   22.5730 C   0  0  0  0  0  0  0  0  0  0  0  0
  -22.2940   -4.1700   21.3770 F   0  0  0  0  0  0  0  0  0  0  0  0
  -21.4370   -3.6330   26.0440 F   0  0  0  0  0  0  0  0  0  0  0  0
  -22.6800  -13.4760   21.1210 C   0  0  0  0  0  0  0  0  0  0  0  0
  -21.9610  -12.7820   21.9970 N   0  0  0  0  0  0  0  0  0  0  0  0
  -22.2300  -14.4890   20.5890 O   0  0  0  0  0  0  0  0  0  0  0  0
  -22.3380  -11.9630   22.4490 H   0  0  0  0  0  0  0  0  0  0  0  0
  -21.0210  -13.0760   22.2200 H   0  0  0  0  0  0  0  0  0  0  0  0
  -25.2950  -15.1580   20.2840 N   0  0  0  0  0  0  0  0  0  0  0  0
  -24.5250  -15.8080   20.3920 H   0  0  0  0  0  0  0  0  0  0  0  0
  -26.1460  -15.6030   19.9660 H   0  0  0  0  0  0  0  0  0  0  0  0
  1  2  2  0
  1  4  1  0
  2  5  1  0
  4  6  2  0
  5 10  1  0
  5  3  2  0
  6  3  1  0
  6 52  1  0
  7  8  1  0
  7  9  1  0
  8  9  1  0
  9  4  1  0
 10 11  1  0
 11 13  1  0
 12 23  2  0
 13 18  1  0
 14 22  1  0
 14 24  1  0
 15 21  1  0
 15 17  1  0
 16 22  1  0
 17 16  1  0
 18 17  2  0
 19 20  1  0
 19 13  2  0
 20 15  2  0
 21 14  1  0
 22 12  1  0
 24 26  2  0
 25 24  1  0
 27 25  1  0
 28 37  2  0
 28 33  1  0
 29 25  1  0
 29 33  1  0
 30 29  1  0
 31 32  1  0
 31 30  1  0
 32 28  1  0
 33 34  2  0
 34 35  1  0
 36 35  2  0
 37 36  1  0
 38 12  1  0
 38 39  1  0
 38 48  1  0
 39 42  1  0
 40 44  1  0
 40 39  1  0
 41 40  2  0
 44 43  1  0
 46 44  1  0
 46 47  1  0
 46 45  1  0
 48 51  1  1
 48 49  1  0
 50 48  1  0
 53 52  1  0
 54 56  1  0
 54 55  1  0
 55 58  1  0
 56 53  1  0
 56 55  1  0
 58 59  1  0
 58 57  1  0
 60 59  1  0
 61 66  1  0
 62 63  1  0
 62 61  1  0
 64 63  1  0
 64 71  1  0
 64 65  1  0
 66 60  1  0
 66 65  1  0
 67 60  2  0
 68 69  2  0
 69 88  1  0
 70 69  1  0
 70 73  1  0
 71 68  1  0
 71 72  1  0
 72 70  2  0
 73 74  1  0
 74 75  2  0
 76 79  1  0
 76 75  1  0
 77 76  2  0
 78 77  1  0
 78 73  2  0
 79 80  1  0
 80 81  1  0
 81 82  2  0
 83 82  1  0
 83 87  1  0
 84 83  2  0
 85 80  2  0
 85 84  1  0
 86 85  1  0
 88 89  1  0
 89 92  1  0
 89 91  1  0
 90 88  2  0
 93 94  1  0
 93 68  1  0
 95 93  1  0
M  ISO  4  10 101  11 101  59 100  60 100
M  END
>  <TORSDO>  (76) 
F 23

>  <SCORE>  (76) 
-12.639

>  <name>  (76) 
77

>  <ligand_id>  (76) 
77

>  <original_smiles>  (76) 
[H]c1c([H])c([H])c2c(c1[H])C([H])([H])C([H])([H])C([H])([H])C2([H])N([H])C(=O)C1([H])N(C(=O)C([H])(N([H])C(=O)C([H])(N([H])C([H])([H])[H])C([H])([H])[H])C(C([H])([H])[H])(C([H])([H])[H])C([H])([H])[H])C([H])([H])c2c([H])c(OC([H])([H])c3c([H])c([H])c(C4([H])C([H])([H])C4([H])[H])c(C([H])([H])OC4([H])C([H])([H])C4([H])C([H])(C([H])([H])[H])C([H])([H])C(=O)N4C([H])([H])C([H])([H])C([H])([H])C([H])(n5nc(-c6c([H])c([H])c(Oc7c([H])c([H])c(F)c([H])c7F)c([H])c6[H])c(C(=O)N([H])[H])c5N([H])[H])C4([H])[H])c3[H])c([H])c([H])c2C1([H])[H]

>  <smiles>  (76) 
[H]c1c([H])c([H])c2c(c1[H])C([H])([H])C([H])([H])C([H])([H])C2([H])N([H])C(=O)C1([H])N(C(=O)C([H])(N([H])C(=O)C([H])(N([H])C([H])([H])[H])C([H])([H])[H])C(C([H])([H])[H])(C([H])([H])[H])C([H])([H])[H])C([H])([H])c2c([H])c(OC([H])([H])c3c([H])c([H])c(C4([H])C([H])([H])C4([H])[H])c(C([H])([H])OC4([H])C([H])([H])C4([H])C([H])(C([H])([H])[H])C([H])([H])C(=O)N4C([H])([H])C([H])([H])C([H])([H])C([H])(n5nc(-c6c([H])c([H])c(Oc7c([H])c([H])c(F)c([H])c7F)c([H])c6[H])c(C(=O)N([H])[H])c5N([H])[H])C4([H])[H])c3[H])c([H])c([H])c2C1([H])[H]

$$$$
78:0:0
     RDKit          3D

 95104  0  0  1  0  0  0  0  0999 V2000
  -28.8290  -21.9230   18.4060 C   0  0  0  0  0  2  0  0  0  0  0  0
  -30.2210  -21.3150   18.4870 C   0  0  0  0  0  3  0  0  0  0  0  0
  -29.8730  -22.5390   19.3120 C   0  0  0  0  0  3  0  0  0  0  0  0
  -31.7800  -19.4160   19.0710 C   0  0  0  0  0  3  0  0  0  0  0  0
  -32.0920  -18.2270   19.7600 C   0  0  0  0  0  3  0  0  0  0  0  0
  -29.5230  -19.3310   19.9520 C   0  0  0  0  0  3  0  0  0  0  0  0
  -30.4960  -19.9940   19.1690 C   0  0  0  0  0  0  0  0  0  0  0  0
  -31.1290  -17.5920   20.5710 C   0  0  0  0  0  0  0  0  0  0  0  0
  -29.8260  -18.1430   20.6510 C   0  0  0  0  0  0  0  0  0  0  0  0
  -28.7490  -17.5040   21.5100 C   0  0  0  0  0  1  0  0  0  0  0  0
  -31.5350  -16.3550   21.3690 C   0  0  0  0  0  2  0  0  0  0  0  0
  -31.2410  -14.2560   20.0720 C   0  0  0  0  0  0  0  0  0  0  0  0
  -30.7310  -12.1500   18.8920 C   0  0  0  0  0  2  0  0  0  0  0  0
  -29.7610  -12.3990   17.7210 C   0  0  0  0  0  2  0  0  0  0  0  0
  -28.3030  -12.3430   18.2070 C   0  0  0  0  0  2  0  0  0  0  0  0
  -28.0570  -13.2200   19.4620 C   0  0  0  0  0  3  0  0  0  0  0  0
  -29.1310  -12.9480   20.5380 C   0  0  0  0  0  2  0  0  0  0  0  0
  -30.4590  -13.1550   19.9300 N   0  0  0  0  0  0  0  0  0  0  0  0
  -32.2760  -14.4410   19.4230 O   0  0  0  0  0  0  0  0  0  0  0  0
  -30.8240  -15.1410   20.9810 N   0  0  0  0  0  0  0  0  0  0  0  0
  -29.9700  -14.9240   21.4710 H   0  0  0  0  0  0  0  0  0  0  0  0
  -25.7190  -13.9690   20.2450 C   0  0  0  0  0  0  0  0  0  0  0  0
  -24.6220  -13.2590   20.6530 C   0  0  0  0  0  0  0  0  0  0  0  0
  -25.0030  -11.8840   20.6140 C   0  0  0  0  0  0  0  0  0  0  0  0
  -26.7060  -13.0290   19.9870 N   0  0  0  0  0  0  0  0  0  0  0  0
  -26.2780  -11.7700   20.2620 N   0  0  0  0  0  0  0  0  0  0  0  0
  -24.2140  -10.6660   20.8370 C   0  0  0  0  0  0  0  0  0  0  0  0
  -24.5960   -9.7020   21.7960 C   0  0  0  0  0  3  0  0  0  0  0  0
  -23.8110   -8.5480   22.0040 C   0  0  0  0  0  3  0  0  0  0  0  0
  -22.6290   -8.3490   21.2520 C   0  0  0  0  0  0  0  0  0  0  0  0
  -22.2650   -9.3000   20.2820 C   0  0  0  0  0  3  0  0  0  0  0  0
  -23.0490  -10.4470   20.0740 C   0  0  0  0  0  3  0  0  0  0  0  0
  -21.8170   -7.2470   21.3680 O   0  0  0  0  0  0  0  0  0  0  0  0
  -21.7050   -6.5560   22.5480 C   0  0  0  0  0  0  0  0  0  0  0  0
  -21.2850   -7.1840   23.7400 C   0  0  0  0  0  3  0  0  0  0  0  0
  -21.1160   -6.4240   24.9150 C   0  0  0  0  0  3  0  0  0  0  0  0
  -21.3560   -5.0370   24.8970 C   0  0  0  0  0  0  0  0  0  0  0  0
  -21.7680   -4.4080   23.7090 C   0  0  0  0  0  3  0  0  0  0  0  0
  -21.9390   -5.1660   22.5370 C   0  0  0  0  0  0  0  0  0  0  0  0
  -22.3160   -4.5530   21.3890 F   0  0  0  0  0  0  0  0  0  0  0  0
  -21.1870   -4.3050   26.0230 F   0  0  0  0  0  0  0  0  0  0  0  0
  -23.2640  -13.8170   20.9710 C   0  0  0  0  0  0  0  0  0  0  0  0
  -22.5350  -13.1720   21.8750 N   0  0  0  0  0  0  0  0  0  0  0  0
  -22.8630  -14.8580   20.4530 O   0  0  0  0  0  0  0  0  0  0  0  0
  -22.8710  -12.3270   22.3120 H   0  0  0  0  0  0  0  0  0  0  0  0
  -21.6260  -13.5300   22.1350 H   0  0  0  0  0  0  0  0  0  0  0  0
  -25.9590  -15.3270   20.0530 N   0  0  0  0  0  0  0  0  0  0  0  0
  -25.2400  -16.0290   20.1850 H   0  0  0  0  0  0  0  0  0  0  0  0
  -26.8240  -15.7090   19.6910 H   0  0  0  0  0  0  0  0  0  0  0  0
  -30.4050  -23.8190   18.7920 N   0  0  0  0  0  4  0  0  0  0  0  0
  -30.1550  -23.9430   17.8220 H   0  0  0  0  0  0  0  0  0  0  0  0
  -31.4120  -23.7570   18.8190 H   0  0  0  0  0  0  0  0  0  0  0  0
  -30.0250  -25.0140   19.5880 C   0  0  0  0  0  2  0  0  0  0  0  0
  -28.5600  -25.4660   19.4190 C   0  0  0  0  0  2  0  0  0  0  0  0
  -28.4310  -26.7130   20.1090 O   0  0  0  0  0  0  0  0  0  0  0  0
  -24.6250  -31.8440   23.2180 C   0  0  0  0  0  0  0  0  0  0  0  0
  -27.2240  -27.3810   20.1140 C   0  0  0  0  0  0  0  0  0  0  0  0
  -23.3940  -30.4400   21.5940 C   0  0  0  0  0  3  0  0  0  0  0  0
  -24.8250  -28.8830   20.1640 C   0  0  0  0  0  0  0  0  0  0  0  0
  -25.9200  -30.7800   21.3710 C   0  0  0  0  0  2  0  0  0  0  0  0
  -25.9890  -29.4060   20.7390 C   0  0  0  0  0  0  0  0  0  0  0  0
  -27.1860  -28.6580   20.7170 C   0  0  0  0  0  3  0  0  0  0  0  0
  -26.0360  -26.8610   19.5480 C   0  0  0  0  0  3  0  0  0  0  0  0
  -24.8410  -27.6080   19.5720 C   0  0  0  0  0  3  0  0  0  0  0  0
  -23.5850  -29.7480   20.2190 C   0  0  0  0  0  2  0  0  0  0  0  0
  -24.6650  -31.0380   22.1190 N   0  0  0  0  0  0  0  0  0  0  0  0
  -23.5510  -32.1270   23.7660 O   0  0  0  0  0  0  0  0  0  0  0  0
  -22.7470  -29.4290   22.5660 C   0  0  0  0  0  0  0  0  0  0  0  0
  -21.4200  -29.2540   22.4510 N   0  0  0  0  0  0  0  0  0  0  0  0
  -23.4350  -28.8040   23.3780 O   0  0  0  0  0  0  0  0  0  0  0  0
  -20.9260  -29.8120   21.7680 H   0  0  0  0  0  0  0  0  0  0  0  0
  -18.0460  -28.0720   22.9710 C   0  0  0  0  0  0  0  0  0  0  0  0
  -20.6040  -28.3250   23.2320 C   0  0  0  0  0  3  0  0  0  0  0  0
  -20.7010  -26.8890   22.6660 C   0  0  0  0  0  2  0  0  0  0  0  0
  -19.5940  -26.5600   21.6600 C   0  0  0  0  0  2  0  0  0  0  0  0
  -18.2140  -26.7170   22.3070 C   0  0  0  0  0  2  0  0  0  0  0  0
  -19.1690  -28.8350   23.3890 C   0  0  0  0  0  0  0  0  0  0  0  0
  -18.9570  -30.1060   23.9660 C   0  0  0  0  0  3  0  0  0  0  0  0
  -17.6550  -30.6130   24.1330 C   0  0  0  0  0  3  0  0  0  0  0  0
  -16.5460  -29.8470   23.7320 C   0  0  0  0  0  3  0  0  0  0  0  0
  -16.7440  -28.5800   23.1560 C   0  0  0  0  0  3  0  0  0  0  0  0
  -25.9220  -32.4720   23.8210 C   0  0  0  0  0  3  0  0  0  0  0  0
  -25.6150  -33.8640   24.1750 N   0  0  0  0  0  0  0  0  0  0  0  0
  -25.9280  -34.9260   23.4210 C   0  0  0  0  0  0  0  0  0  0  0  0
  -26.5770  -34.8380   22.3750 O   0  0  0  0  0  0  0  0  0  0  0  0
  -25.0370  -34.0060   24.9900 H   0  0  0  0  0  0  0  0  0  0  0  0
  -24.1870  -36.7170   23.1240 C   0  0  0  0  0  1  0  0  0  0  0  0
  -25.4460  -36.3070   23.9040 C   0  0  0  0  0  3  0  0  0  0  0  0
  -27.5940  -37.1900   24.7010 C   0  0  0  0  0  1  0  0  0  0  0  0
  -26.4710  -37.3670   23.7860 N   0  0  0  0  0  0  0  0  0  0  0  0
  -26.0630  -38.2820   23.9590 H   0  0  0  0  0  0  0  0  0  0  0  0
  -26.4700  -31.6840   25.0740 C   0  0  1  0  0  0  0  0  0  0  0  0
  -25.4010  -31.4160   26.1610 C   0  0  0  0  0  1  0  0  0  0  0  0
  -27.0580  -30.3180   24.6480 C   0  0  0  0  0  1  0  0  0  0  0  0
  -27.6290  -32.4770   25.7250 C   0  0  0  0  0  1  0  0  0  0  0  0
  1  2  1  0
  1  3  1  0
  2  7  1  0
  2  3  1  0
  3 50  1  0
  4  7  2  0
  4  5  1  0
  5  8  2  0
  6  9  2  0
  7  6  1  0
  8  9  1  0
  8 11  1  0
  9 10  1  0
 12 20  1  0
 13 18  1  0
 14 15  1  0
 14 13  1  0
 16 15  1  0
 16 25  1  0
 16 17  1  0
 18 12  1  0
 18 17  1  0
 19 12  2  0
 20 11  1  0
 20 21  1  0
 22 23  2  0
 23 42  1  0
 24 23  1  0
 24 27  1  0
 25 22  1  0
 25 26  1  0
 26 24  2  0
 27 28  1  0
 28 29  2  0
 30 33  1  0
 30 29  1  0
 31 30  2  0
 32 31  1  0
 32 27  2  0
 33 34  1  0
 34 35  1  0
 35 36  2  0
 37 36  1  0
 37 41  1  0
 38 37  2  0
 39 34  2  0
 39 38  1  0
 40 39  1  0
 42 43  1  0
 43 46  1  0
 43 45  1  0
 44 42  2  0
 47 48  1  0
 47 22  1  0
 49 47  1  0
 50 52  1  0
 50 53  1  0
 51 50  1  0
 54 53  1  0
 54 55  1  0
 55 57  1  0
 56 67  2  0
 57 62  1  0
 58 66  1  0
 58 68  1  0
 59 65  1  0
 59 61  1  0
 60 66  1  0
 61 60  1  0
 62 61  2  0
 63 64  1  0
 63 57  2  0
 64 59  2  0
 65 58  1  0
 66 56  1  0
 68 70  2  0
 69 68  1  0
 71 69  1  0
 72 81  2  0
 72 77  1  0
 73 69  1  0
 73 77  1  0
 74 73  1  0
 75 76  1  0
 75 74  1  0
 76 72  1  0
 77 78  2  0
 78 79  1  0
 80 79  2  0
 81 80  1  0
 82 56  1  0
 82 83  1  0
 82 92  1  0
 83 86  1  0
 84 88  1  0
 84 83  1  0
 85 84  2  0
 88 87  1  0
 90 88  1  0
 90 91  1  0
 90 89  1  0
 92 95  1  1
 92 93  1  0
 94 92  1  0
M  ISO  4  12 100  20 100  54 101  55 101
M  END
>  <TORSDO>  (77) 
F 21

>  <SCORE>  (77) 
-12.399

>  <name>  (77) 
78

>  <ligand_id>  (77) 
78

>  <original_smiles>  (77) 
[H]c1c([H])c([H])c2c(c1[H])C([H])([H])C([H])([H])C([H])([H])C2([H])N([H])C(=O)C1([H])N(C(=O)C([H])(N([H])C(=O)C([H])(N([H])C([H])([H])[H])C([H])([H])[H])C(C([H])([H])[H])(C([H])([H])[H])C([H])([H])[H])C([H])([H])c2c([H])c(OC([H])([H])C([H])([H])[N+]([H])([H])C3([H])C([H])([H])C3([H])c3c([H])c([H])c(C([H])([H])N([H])C(=O)N4C([H])([H])C([H])([H])C([H])([H])C([H])(n5nc(-c6c([H])c([H])c(Oc7c([H])c([H])c(F)c([H])c7F)c([H])c6[H])c(C(=O)N([H])[H])c5N([H])[H])C4([H])[H])c(C([H])([H])[H])c3[H])c([H])c([H])c2C1([H])[H]

>  <smiles>  (77) 
[H]c1c([H])c([H])c2c(c1[H])C([H])([H])C([H])([H])C([H])([H])C2([H])N([H])C(=O)C1([H])N(C(=O)C([H])(N([H])C(=O)C([H])(N([H])C([H])([H])[H])C([H])([H])[H])C(C([H])([H])[H])(C([H])([H])[H])C([H])([H])[H])C([H])([H])c2c([H])c(OC([H])([H])C([H])([H])[N+]([H])([H])C3([H])C([H])([H])C3([H])c3c([H])c([H])c(C([H])([H])N([H])C(=O)N4C([H])([H])C([H])([H])C([H])([H])C([H])(n5nc(-c6c([H])c([H])c(Oc7c([H])c([H])c(F)c([H])c7F)c([H])c6[H])c(C(=O)N([H])[H])c5N([H])[H])C4([H])[H])c(C([H])([H])[H])c3[H])c([H])c([H])c2C1([H])[H]

$$$$
79:0:0
     RDKit          3D

 93102  0  0  1  0  0  0  0  0999 V2000
  -30.0190  -21.1390   23.2710 C   0  0  0  0  0  3  0  0  0  0  0  0
  -29.6690  -22.1680   22.3730 C   0  0  0  0  0  3  0  0  0  0  0  0
  -30.1010  -20.6710   20.4850 C   0  0  0  0  0  3  0  0  0  0  0  0
  -30.4340  -19.6270   21.4030 C   0  0  0  0  0  0  0  0  0  0  0  0
  -30.4080  -19.8890   22.7670 C   0  0  0  0  0  0  0  0  0  0  0  0
  -29.7290  -21.9720   20.9670 C   0  0  0  0  0  0  0  0  0  0  0  0
  -30.9860  -17.7060   22.6800 C   0  0  0  0  0  2  0  0  0  0  0  0
  -30.9610  -18.1940   21.2060 C   0  0  0  0  0  3  0  0  0  0  0  0
  -30.8170  -18.8400   23.5360 O   0  0  0  0  0  0  0  0  0  0  0  0
  -30.5260  -17.3880   18.7800 C   0  0  0  0  0  1  0  0  0  0  0  0
  -30.1750  -17.2080   20.2680 C   0  0  0  0  0  3  0  0  0  0  0  0
  -31.0020  -14.7240   20.3310 C   0  0  0  0  0  0  0  0  0  0  0  0
  -30.7610  -12.5010   19.2780 C   0  0  0  0  0  2  0  0  0  0  0  0
  -29.8340  -12.6670   18.0520 C   0  0  0  0  0  2  0  0  0  0  0  0
  -28.3510  -12.5490   18.4600 C   0  0  0  0  0  2  0  0  0  0  0  0
  -28.0000  -13.4220   19.6940 C   0  0  0  0  0  3  0  0  0  0  0  0
  -29.0370  -13.2210   20.8240 C   0  0  0  0  0  2  0  0  0  0  0  0
  -30.3720  -13.5150   20.2720 N   0  0  0  0  0  0  0  0  0  0  0  0
  -32.1510  -14.8970   19.9170 O   0  0  0  0  0  0  0  0  0  0  0  0
  -30.1840  -15.7600   20.6520 N   0  0  0  0  0  0  0  0  0  0  0  0
  -29.3030  -15.4410   21.0280 H   0  0  0  0  0  0  0  0  0  0  0  0
  -25.6070  -14.0890   20.3620 C   0  0  0  0  0  0  0  0  0  0  0  0
  -24.5180  -13.3430   20.7280 C   0  0  0  0  0  0  0  0  0  0  0  0
  -24.9510  -11.9820   20.7190 C   0  0  0  0  0  0  0  0  0  0  0  0
  -26.6350  -13.1830   20.1560 N   0  0  0  0  0  0  0  0  0  0  0  0
  -26.2440  -11.9110   20.4290 N   0  0  0  0  0  0  0  0  0  0  0  0
  -24.1970  -10.7380   20.9150 C   0  0  0  0  0  0  0  0  0  0  0  0
  -24.5830   -9.7840   21.8810 C   0  0  0  0  0  3  0  0  0  0  0  0
  -23.8320   -8.6030   22.0640 C   0  0  0  0  0  3  0  0  0  0  0  0
  -22.6780   -8.3680   21.2780 C   0  0  0  0  0  0  0  0  0  0  0  0
  -22.3100   -9.3100   20.3010 C   0  0  0  0  0  3  0  0  0  0  0  0
  -23.0630  -10.4820   20.1170 C   0  0  0  0  0  3  0  0  0  0  0  0
  -21.9020   -7.2390   21.3670 O   0  0  0  0  0  0  0  0  0  0  0  0
  -21.7820   -6.5380   22.5410 C   0  0  0  0  0  0  0  0  0  0  0  0
  -21.2900   -7.1400   23.7200 C   0  0  0  0  0  3  0  0  0  0  0  0
  -21.1180   -6.3660   24.8840 C   0  0  0  0  0  3  0  0  0  0  0  0
  -21.4260   -4.9930   24.8720 C   0  0  0  0  0  0  0  0  0  0  0  0
  -21.9100   -4.3910   23.6960 C   0  0  0  0  0  3  0  0  0  0  0  0
  -22.0840   -5.1610   22.5330 C   0  0  0  0  0  0  0  0  0  0  0  0
  -22.5310   -4.5730   21.3980 F   0  0  0  0  0  0  0  0  0  0  0  0
  -21.2520   -4.2470   25.9880 F   0  0  0  0  0  0  0  0  0  0  0  0
  -23.1270  -13.8530   20.9750 C   0  0  0  0  0  0  0  0  0  0  0  0
  -22.3780  -13.1890   21.8490 N   0  0  0  0  0  0  0  0  0  0  0  0
  -22.7130  -14.8740   20.4280 O   0  0  0  0  0  0  0  0  0  0  0  0
  -22.7250  -12.3630   22.3140 H   0  0  0  0  0  0  0  0  0  0  0  0
  -21.4440  -13.5130   22.0580 H   0  0  0  0  0  0  0  0  0  0  0  0
  -25.8020  -15.4530   20.1690 N   0  0  0  0  0  0  0  0  0  0  0  0
  -25.0430  -16.1210   20.2520 H   0  0  0  0  0  0  0  0  0  0  0  0
  -26.6570  -15.8680   19.8190 H   0  0  0  0  0  0  0  0  0  0  0  0
  -29.4060  -22.9880   20.0620 O   0  0  0  0  0  0  0  0  0  0  0  0
  -29.5640  -24.4020   20.3980 C   0  0  0  0  0  2  0  0  0  0  0  0
  -28.3290  -25.2830   20.0170 C   0  0  0  0  0  2  0  0  0  0  0  0
  -28.4760  -26.7250   20.1980 O   0  0  0  0  0  0  0  0  0  0  0  0
  -24.6570  -31.9630   23.2630 C   0  0  0  0  0  0  0  0  0  0  0  0
  -27.3170  -27.5010   20.1620 C   0  0  0  0  0  0  0  0  0  0  0  0
  -23.4590  -30.5630   21.6170 C   0  0  0  0  0  3  0  0  0  0  0  0
  -24.9200  -29.0410   20.1800 C   0  0  0  0  0  0  0  0  0  0  0  0
  -25.9890  -30.9230   21.4220 C   0  0  0  0  0  2  0  0  0  0  0  0
  -26.0820  -29.5540   20.7690 C   0  0  0  0  0  0  0  0  0  0  0  0
  -27.2830  -28.7950   20.7530 C   0  0  0  0  0  3  0  0  0  0  0  0
  -26.1300  -27.0250   19.5570 C   0  0  0  0  0  3  0  0  0  0  0  0
  -24.9420  -27.7780   19.5670 C   0  0  0  0  0  3  0  0  0  0  0  0
  -23.6730  -29.8950   20.2330 C   0  0  0  0  0  2  0  0  0  0  0  0
  -24.7200  -31.1650   22.1580 N   0  0  0  0  0  0  0  0  0  0  0  0
  -23.5730  -32.2270   23.8030 O   0  0  0  0  0  0  0  0  0  0  0  0
  -22.8130  -29.5330   22.5720 C   0  0  0  0  0  0  0  0  0  0  0  0
  -21.4950  -29.3190   22.4240 N   0  0  0  0  0  0  0  0  0  0  0  0
  -23.4960  -28.9280   23.4040 O   0  0  0  0  0  0  0  0  0  0  0  0
  -21.0040  -29.8610   21.7270 H   0  0  0  0  0  0  0  0  0  0  0  0
  -18.1450  -28.0290   22.8580 C   0  0  0  0  0  0  0  0  0  0  0  0
  -20.6870  -28.3660   23.1870 C   0  0  0  0  0  3  0  0  0  0  0  0
  -20.8460  -26.9320   22.6320 C   0  0  0  0  0  2  0  0  0  0  0  0
  -19.7790  -26.5640   21.5970 C   0  0  0  0  0  2  0  0  0  0  0  0
  -18.3770  -26.6770   22.2050 C   0  0  0  0  0  2  0  0  0  0  0  0
  -19.2300  -28.8290   23.3050 C   0  0  0  0  0  0  0  0  0  0  0  0
  -18.9610  -30.0930   23.8740 C   0  0  0  0  0  3  0  0  0  0  0  0
  -17.6390  -30.5570   24.0010 C   0  0  0  0  0  3  0  0  0  0  0  0
  -16.5670  -29.7560   23.5720 C   0  0  0  0  0  3  0  0  0  0  0  0
  -16.8220  -28.4930   23.0060 C   0  0  0  0  0  3  0  0  0  0  0  0
  -25.9380  -32.6010   23.8840 C   0  0  0  0  0  3  0  0  0  0  0  0
  -26.4540  -31.8370   25.1640 C   0  0  1  0  0  0  0  0  0  0  0  0
  -25.3570  -31.5870   26.2250 C   0  0  0  0  0  1  0  0  0  0  0  0
  -27.0550  -30.4650   24.7750 C   0  0  0  0  0  1  0  0  0  0  0  0
  -27.5920  -32.6430   25.8330 C   0  0  0  0  0  1  0  0  0  0  0  0
  -25.6230  -33.9990   24.2060 N   0  0  0  0  0  0  0  0  0  0  0  0
  -25.9600  -35.0510   23.4480 C   0  0  0  0  0  0  0  0  0  0  0  0
  -26.6400  -34.9450   22.4220 O   0  0  0  0  0  0  0  0  0  0  0  0
  -25.0210  -34.1550   25.0010 H   0  0  0  0  0  0  0  0  0  0  0  0
  -24.2380  -36.8430   23.0660 C   0  0  0  0  0  1  0  0  0  0  0  0
  -25.4670  -36.4390   23.8960 C   0  0  0  0  0  3  0  0  0  0  0  0
  -27.5880  -37.3260   24.7600 C   0  0  0  0  0  1  0  0  0  0  0  0
  -26.5010  -37.4920   23.7980 N   0  0  0  0  0  0  0  0  0  0  0  0
  -26.0930  -38.4130   23.9360 H   0  0  0  0  0  0  0  0  0  0  0  0
  2  1  2  0
  3  6  2  0
  3  4  1  0
  4  5  2  0
  5  1  1  0
  5  9  1  0
  6  2  1  0
  7  9  1  0
  8 11  1  0
  8  4  1  0
  8  7  1  0
 11 10  1  0
 11 20  1  0
 12 20  1  0
 13 18  1  0
 14 15  1  0
 14 13  1  0
 16 15  1  0
 16 25  1  0
 16 17  1  0
 18 12  1  0
 18 17  1  0
 19 12  2  0
 20 21  1  0
 22 23  2  0
 23 42  1  0
 24 23  1  0
 24 27  1  0
 25 22  1  0
 25 26  1  0
 26 24  2  0
 27 28  1  0
 28 29  2  0
 30 33  1  0
 30 29  1  0
 31 30  2  0
 32 31  1  0
 32 27  2  0
 33 34  1  0
 34 35  1  0
 35 36  2  0
 37 36  1  0
 37 41  1  0
 38 37  2  0
 39 34  2  0
 39 38  1  0
 40 39  1  0
 42 43  1  0
 43 46  1  0
 43 45  1  0
 44 42  2  0
 47 48  1  0
 47 22  1  0
 49 47  1  0
 50 51  1  0
 50  6  1  0
 52 53  1  0
 52 51  1  0
 54 65  2  0
 55 53  1  0
 55 60  1  0
 56 64  1  0
 56 66  1  0
 57 63  1  0
 57 59  1  0
 58 64  1  0
 59 58  1  0
 60 59  2  0
 61 62  1  0
 61 55  2  0
 62 57  2  0
 63 56  1  0
 64 54  1  0
 66 68  2  0
 67 66  1  0
 69 67  1  0
 70 79  2  0
 70 75  1  0
 71 67  1  0
 71 75  1  0
 72 71  1  0
 73 74  1  0
 73 72  1  0
 74 70  1  0
 75 76  2  0
 76 77  1  0
 78 77  2  0
 79 78  1  0
 80 54  1  0
 80 85  1  0
 80 81  1  0
 81 84  1  1
 81 82  1  0
 83 81  1  0
 85 88  1  0
 86 90  1  0
 86 85  1  0
 87 86  2  0
 90 89  1  0
 92 90  1  0
 92 93  1  0
 92 91  1  0
M  ISO  4  12 100  20 100  52 101  53 101
M  END
>  <TORSDO>  (78) 
F 20

>  <SCORE>  (78) 
-13.061

>  <name>  (78) 
79

>  <ligand_id>  (78) 
79

>  <original_smiles>  (78) 
[H]c1c([H])c([H])c2c(c1[H])C([H])([H])C([H])([H])C([H])([H])C2([H])N([H])C(=O)C1([H])N(C(=O)C([H])(N([H])C(=O)C([H])(N([H])C([H])([H])[H])C([H])([H])[H])C(C([H])([H])[H])(C([H])([H])[H])C([H])([H])[H])C([H])([H])c2c([H])c(OC([H])([H])C([H])([H])Oc3c([H])c([H])c4c(c3[H])C([H])(C([H])(N([H])C(=O)N3C([H])([H])C([H])([H])C([H])([H])C([H])(n5nc(-c6c([H])c([H])c(Oc7c([H])c([H])c(F)c([H])c7F)c([H])c6[H])c(C(=O)N([H])[H])c5N([H])[H])C3([H])[H])C([H])([H])[H])C([H])([H])O4)c([H])c([H])c2C1([H])[H]

>  <smiles>  (78) 
[H]c1c([H])c([H])c2c(c1[H])C([H])([H])C([H])([H])C([H])([H])C2([H])N([H])C(=O)C1([H])N(C(=O)C([H])(N([H])C(=O)C([H])(N([H])C([H])([H])[H])C([H])([H])[H])C(C([H])([H])[H])(C([H])([H])[H])C([H])([H])[H])C([H])([H])c2c([H])c(OC([H])([H])C([H])([H])Oc3c([H])c([H])c4c(c3[H])C([H])(C([H])(N([H])C(=O)N3C([H])([H])C([H])([H])C([H])([H])C([H])(n5nc(-c6c([H])c([H])c(Oc7c([H])c([H])c(F)c([H])c7F)c([H])c6[H])c(C(=O)N([H])[H])c5N([H])[H])C3([H])[H])C([H])([H])[H])C([H])([H])O4)c([H])c([H])c2C1([H])[H]

$$$$
80:0:0
     RDKit          3D

 98106  0  0  1  0  0  0  0  0999 V2000
  -30.3050  -22.5050   19.3980 C   0  0  0  0  0  3  0  0  0  0  0  0
  -30.5680  -20.1040   19.0510 C   0  0  0  0  0  3  0  0  0  0  0  0
  -29.5380  -20.9390   21.0940 C   0  0  0  0  0  3  0  0  0  0  0  0
  -30.7310  -21.4310   18.5890 C   0  0  0  0  0  0  0  0  0  0  0  0
  -29.7110  -22.2720   20.6570 C   0  0  0  0  0  0  0  0  0  0  0  0
  -29.9700  -19.8480   20.3060 C   0  0  0  0  0  0  0  0  0  0  0  0
  -29.8010  -18.5400   20.7900 N   0  0  0  0  0  0  0  0  0  0  0  0
  -29.4270  -18.4590   21.7320 H   0  0  0  0  0  0  0  0  0  0  0  0
  -30.8430  -17.5670   20.4750 C   0  0  0  0  0  2  0  0  0  0  0  0
  -30.5570  -16.8410   22.9630 C   0  0  0  0  0  1  0  0  0  0  0  0
  -30.9770  -16.4430   21.5350 C   0  0  0  0  0  3  0  0  0  0  0  0
  -30.7700  -14.3300   20.2260 C   0  0  0  0  0  0  0  0  0  0  0  0
  -30.3410  -12.2300   19.0070 C   0  0  0  0  0  2  0  0  0  0  0  0
  -29.3600  -12.4620   17.8410 C   0  0  0  0  0  2  0  0  0  0  0  0
  -27.9030  -12.3440   18.3260 C   0  0  0  0  0  2  0  0  0  0  0  0
  -27.6290  -13.1860   19.6020 C   0  0  0  0  0  3  0  0  0  0  0  0
  -28.7140  -12.9320   20.6710 C   0  0  0  0  0  2  0  0  0  0  0  0
  -30.0300  -13.2020   20.0650 N   0  0  0  0  0  0  0  0  0  0  0  0
  -31.8070  -14.5520   19.5940 O   0  0  0  0  0  0  0  0  0  0  0  0
  -30.3020  -15.2120   21.1210 N   0  0  0  0  0  0  0  0  0  0  0  0
  -29.4320  -14.9810   21.5760 H   0  0  0  0  0  0  0  0  0  0  0  0
  -25.2690  -13.8390   20.3980 C   0  0  0  0  0  0  0  0  0  0  0  0
  -24.1980  -13.0860   20.7990 C   0  0  0  0  0  0  0  0  0  0  0  0
  -24.6290  -11.7240   20.7400 C   0  0  0  0  0  0  0  0  0  0  0  0
  -26.2860  -12.9370   20.1240 N   0  0  0  0  0  0  0  0  0  0  0  0
  -25.9060  -11.6600   20.3850 N   0  0  0  0  0  0  0  0  0  0  0  0
  -23.8830  -10.4760   20.9470 C   0  0  0  0  0  0  0  0  0  0  0  0
  -24.3150   -9.5040   21.8770 C   0  0  0  0  0  3  0  0  0  0  0  0
  -23.5720   -8.3200   22.0700 C   0  0  0  0  0  3  0  0  0  0  0  0
  -22.3830   -8.0990   21.3340 C   0  0  0  0  0  0  0  0  0  0  0  0
  -21.9710   -9.0600   20.3940 C   0  0  0  0  0  3  0  0  0  0  0  0
  -22.7150  -10.2360   20.1990 C   0  0  0  0  0  3  0  0  0  0  0  0
  -21.6120   -6.9680   21.4380 O   0  0  0  0  0  0  0  0  0  0  0  0
  -21.5470   -6.2440   22.6010 C   0  0  0  0  0  0  0  0  0  0  0  0
  -21.1120   -6.8200   23.8140 C   0  0  0  0  0  3  0  0  0  0  0  0
  -20.9960   -6.0220   24.9700 C   0  0  0  0  0  3  0  0  0  0  0  0
  -21.3030   -4.6490   24.9130 C   0  0  0  0  0  0  0  0  0  0  0  0
  -21.7310   -4.0720   23.7050 C   0  0  0  0  0  3  0  0  0  0  0  0
  -21.8500   -4.8670   22.5510 C   0  0  0  0  0  0  0  0  0  0  0  0
  -22.2420   -4.3030   21.3840 F   0  0  0  0  0  0  0  0  0  0  0  0
  -21.1830   -3.8820   26.0220 F   0  0  0  0  0  0  0  0  0  0  0  0
  -22.8230  -13.5890   21.1280 C   0  0  0  0  0  0  0  0  0  0  0  0
  -22.1130  -12.9000   22.0150 N   0  0  0  0  0  0  0  0  0  0  0  0
  -22.3860  -14.6280   20.6340 O   0  0  0  0  0  0  0  0  0  0  0  0
  -22.4800  -12.0590   22.4360 H   0  0  0  0  0  0  0  0  0  0  0  0
  -21.1910  -13.2180   22.2780 H   0  0  0  0  0  0  0  0  0  0  0  0
  -25.4570  -15.2060   20.2260 N   0  0  0  0  0  0  0  0  0  0  0  0
  -24.7130  -15.8800   20.3710 H   0  0  0  0  0  0  0  0  0  0  0  0
  -26.3160  -15.6290   19.8920 H   0  0  0  0  0  0  0  0  0  0  0  0
  -29.2930  -23.3150   21.5020 N   0  0  0  0  0  0  0  0  0  0  0  0
  -28.8890  -23.0890   22.4080 H   0  0  0  0  0  0  0  0  0  0  0  0
  -29.4470  -24.7310   21.1660 C   0  0  0  0  0  2  0  0  0  0  0  0
  -28.2720  -25.2740   20.3360 C   0  0  0  0  0  2  0  0  0  0  0  0
  -28.3860  -26.6960   20.2360 O   0  0  0  0  0  0  0  0  0  0  0  0
  -24.5730  -31.8720   23.2360 C   0  0  0  0  0  0  0  0  0  0  0  0
  -27.2070  -27.4070   20.2050 C   0  0  0  0  0  0  0  0  0  0  0  0
  -23.3610  -30.4550   21.6100 C   0  0  0  0  0  3  0  0  0  0  0  0
  -24.8090  -28.9020   20.2010 C   0  0  0  0  0  0  0  0  0  0  0  0
  -25.8860  -30.8130   21.4020 C   0  0  0  0  0  2  0  0  0  0  0  0
  -25.9680  -29.4370   20.7780 C   0  0  0  0  0  0  0  0  0  0  0  0
  -27.1700  -28.6970   20.7730 C   0  0  0  0  0  3  0  0  0  0  0  0
  -26.0330  -26.8840   19.6150 C   0  0  0  0  0  3  0  0  0  0  0  0
  -24.8360  -27.6240   19.6160 C   0  0  0  0  0  3  0  0  0  0  0  0
  -23.5660  -29.7600   20.2370 C   0  0  0  0  0  2  0  0  0  0  0  0
  -24.6250  -31.0620   22.1420 N   0  0  0  0  0  0  0  0  0  0  0  0
  -23.4930  -32.1520   23.7750 O   0  0  0  0  0  0  0  0  0  0  0  0
  -22.7100  -29.4460   22.5830 C   0  0  0  0  0  0  0  0  0  0  0  0
  -21.3860  -29.2630   22.4550 N   0  0  0  0  0  0  0  0  0  0  0  0
  -23.3940  -28.8290   23.4050 O   0  0  0  0  0  0  0  0  0  0  0  0
  -20.8970  -29.8110   21.7630 H   0  0  0  0  0  0  0  0  0  0  0  0
  -18.0070  -28.0970   22.9730 C   0  0  0  0  0  0  0  0  0  0  0  0
  -20.5670  -28.3360   23.2350 C   0  0  0  0  0  3  0  0  0  0  0  0
  -20.6570  -26.9010   22.6660 C   0  0  0  0  0  2  0  0  0  0  0  0
  -19.5480  -26.5810   21.6590 C   0  0  0  0  0  2  0  0  0  0  0  0
  -18.1700  -26.7420   22.3070 C   0  0  0  0  0  2  0  0  0  0  0  0
  -19.1330  -28.8530   23.3950 C   0  0  0  0  0  0  0  0  0  0  0  0
  -18.9270  -30.1230   23.9760 C   0  0  0  0  0  3  0  0  0  0  0  0
  -17.6270  -30.6350   24.1430 C   0  0  0  0  0  3  0  0  0  0  0  0
  -16.5150  -29.8760   23.7390 C   0  0  0  0  0  3  0  0  0  0  0  0
  -16.7060  -28.6090   23.1590 C   0  0  0  0  0  3  0  0  0  0  0  0
  -25.8610  -32.5060   23.8480 C   0  0  0  0  0  3  0  0  0  0  0  0
  -25.5540  -33.9050   24.1760 N   0  0  0  0  0  0  0  0  0  0  0  0
  -25.8870  -34.9550   23.4130 C   0  0  0  0  0  0  0  0  0  0  0  0
  -26.5590  -34.8480   22.3830 O   0  0  0  0  0  0  0  0  0  0  0  0
  -24.9580  -34.0620   24.9740 H   0  0  0  0  0  0  0  0  0  0  0  0
  -24.1650  -36.7510   23.0410 C   0  0  0  0  0  1  0  0  0  0  0  0
  -25.3970  -36.3440   23.8650 C   0  0  0  0  0  3  0  0  0  0  0  0
  -27.5240  -37.2250   24.7190 C   0  0  0  0  0  1  0  0  0  0  0  0
  -26.4330  -37.3940   23.7620 N   0  0  0  0  0  0  0  0  0  0  0  0
  -26.0280  -38.3160   23.9040 H   0  0  0  0  0  0  0  0  0  0  0  0
  -26.3880  -31.7370   25.1210 C   0  0  1  0  0  0  0  0  0  0  0  0
  -25.3030  -31.4950   26.1950 C   0  0  0  0  0  1  0  0  0  0  0  0
  -26.9730  -30.3620   24.7220 C   0  0  0  0  0  1  0  0  0  0  0  0
  -27.5410  -32.5340   25.7750 C   0  0  0  0  0  1  0  0  0  0  0  0
  -31.3860  -20.5950   16.2340 C   0  0  0  0  0  1  0  0  0  0  0  0
  -31.3730  -21.7500   17.2450 C   0  0  0  0  0  3  0  0  0  0  0  0
  -32.6990  -22.2110   17.4130 O   0  0  0  0  0  0  0  0  0  0  0  0
  -33.1890  -21.5160   17.8420 H   0  0  0  0  0  0  0  0  0  0  0  0
  1  5  1  0
  2  6  2  0
  4  2  1  0
  4  1  2  0
  5  3  2  0
  5 50  1  0
  6  7  1  0
  6  3  1  0
  7  8  1  0
  9  7  1  0
  9 11  1  0
 11 10  1  0
 12 20  1  0
 13 18  1  0
 14 15  1  0
 14 13  1  0
 16 15  1  0
 16 25  1  0
 16 17  1  0
 18 12  1  0
 18 17  1  0
 19 12  2  0
 20 11  1  0
 20 21  1  0
 22 23  2  0
 23 42  1  0
 24 23  1  0
 24 27  1  0
 25 26  1  0
 25 22  1  0
 26 24  2  0
 27 28  1  0
 28 29  2  0
 30 33  1  0
 30 29  1  0
 31 30  2  0
 32 31  1  0
 32 27  2  0
 33 34  1  0
 34 35  1  0
 35 36  2  0
 37 36  1  0
 37 41  1  0
 38 37  2  0
 39 34  2  0
 39 38  1  0
 40 39  1  0
 42 43  1  0
 43 46  1  0
 43 45  1  0
 44 42  2  0
 47 48  1  0
 47 22  1  0
 49 47  1  0
 50 51  1  0
 52 50  1  0
 53 52  1  0
 54 53  1  0
 55 66  2  0
 56 54  1  0
 56 61  1  0
 57 65  1  0
 57 67  1  0
 58 64  1  0
 58 60  1  0
 59 65  1  0
 60 59  1  0
 61 60  2  0
 62 63  1  0
 62 56  2  0
 63 58  2  0
 64 57  1  0
 65 55  1  0
 67 69  2  0
 68 67  1  0
 70 68  1  0
 71 80  2  0
 71 76  1  0
 72 68  1  0
 72 76  1  0
 73 72  1  0
 74 75  1  0
 74 73  1  0
 75 71  1  0
 76 77  2  0
 77 78  1  0
 79 78  2  0
 80 79  1  0
 81 55  1  0
 81 82  1  0
 81 91  1  0
 82 85  1  0
 83 87  1  0
 83 82  1  0
 84 83  2  0
 87 86  1  0
 89 87  1  0
 89 90  1  0
 89 88  1  0
 91 94  1  1
 91 92  1  0
 93 91  1  0
 96 95  1  0
 96 97  1  0
 96  4  1  0
 97 98  1  0
M  ISO  4  12 100  20 100  53 101  54 101
M  END
>  <TORSDO>  (79) 
F 24

>  <SCORE>  (79) 
-12.518

>  <name>  (79) 
80

>  <ligand_id>  (79) 
80

>  <original_smiles>  (79) 
[H]OC([H])(c1c([H])c(N([H])C([H])([H])C([H])([H])Oc2c([H])c([H])c3c(c2[H])C([H])([H])N(C(=O)C([H])(N([H])C(=O)C([H])(N([H])C([H])([H])[H])C([H])([H])[H])C(C([H])([H])[H])(C([H])([H])[H])C([H])([H])[H])C([H])(C(=O)N([H])C2([H])c4c([H])c([H])c([H])c([H])c4C([H])([H])C([H])([H])C2([H])[H])C3([H])[H])c([H])c(N([H])C([H])([H])C([H])(N([H])C(=O)N2C([H])([H])C([H])([H])C([H])([H])C([H])(n3nc(-c4c([H])c([H])c(Oc5c([H])c([H])c(F)c([H])c5F)c([H])c4[H])c(C(=O)N([H])[H])c3N([H])[H])C2([H])[H])C([H])([H])[H])c1[H])C([H])([H])[H]

>  <smiles>  (79) 
[H]OC([H])(c1c([H])c(N([H])C([H])([H])C([H])([H])Oc2c([H])c([H])c3c(c2[H])C([H])([H])N(C(=O)C([H])(N([H])C(=O)C([H])(N([H])C([H])([H])[H])C([H])([H])[H])C(C([H])([H])[H])(C([H])([H])[H])C([H])([H])[H])C([H])(C(=O)N([H])C2([H])c4c([H])c([H])c([H])c([H])c4C([H])([H])C([H])([H])C2([H])[H])C3([H])[H])c([H])c(N([H])C([H])([H])C([H])(N([H])C(=O)N2C([H])([H])C([H])([H])C([H])([H])C([H])(n3nc(-c4c([H])c([H])c(Oc5c([H])c([H])c(F)c([H])c5F)c([H])c4[H])c(C(=O)N([H])[H])c3N([H])[H])C2([H])[H])C([H])([H])[H])c1[H])C([H])([H])[H]

$$$$
81:0:0
     RDKit          3D

 91100  0  0  1  0  0  0  0  0999 V2000
  -29.3140  -19.1060   21.3890 C   0  0  0  0  0  3  0  0  0  0  0  0
  -28.8890  -20.4650   21.5320 C   0  0  0  0  0  3  0  0  0  0  0  0
  -29.6080  -21.0000   19.2860 C   0  0  0  0  0  3  0  0  0  0  0  0
  -29.9020  -18.6840   20.1780 C   0  0  0  0  0  0  0  0  0  0  0  0
  -30.0160  -19.6380   19.1530 C   0  0  0  0  0  0  0  0  0  0  0  0
  -29.0400  -21.4530   20.5110 C   0  0  0  0  0  0  0  0  0  0  0  0
  -30.6820  -19.0320   17.9440 C   0  0  0  0  0  2  0  0  0  0  0  0
  -30.8310  -17.5260   18.2870 C   0  0  0  0  0  2  0  0  0  0  0  0
  -30.6290  -17.3520   19.8180 C   0  0  0  0  0  3  0  0  0  0  0  0
  -30.8520  -14.8210   19.9930 C   0  0  0  0  0  0  0  0  0  0  0  0
  -30.5520  -12.5850   18.9670 C   0  0  0  0  0  2  0  0  0  0  0  0
  -29.5660  -12.7160   17.7880 C   0  0  0  0  0  2  0  0  0  0  0  0
  -28.1150  -12.5530   18.2790 C   0  0  0  0  0  2  0  0  0  0  0  0
  -27.8060  -13.4120   19.5350 C   0  0  0  0  0  3  0  0  0  0  0  0
  -28.9160  -13.2960   20.6040 C   0  0  0  0  0  2  0  0  0  0  0  0
  -30.1890  -13.6230   19.9540 N   0  0  0  0  0  0  0  0  0  0  0  0
  -32.0270  -14.8940   19.6280 O   0  0  0  0  0  0  0  0  0  0  0  0
  -30.1250  -15.9740   20.1820 N   0  0  0  0  0  0  0  0  0  0  0  0
  -29.1540  -15.8830   20.4370 H   0  0  0  0  0  0  0  0  0  0  0  0
  -25.4510  -13.9850   20.3780 C   0  0  0  0  0  0  0  0  0  0  0  0
  -24.4060  -13.2020   20.7890 C   0  0  0  0  0  0  0  0  0  0  0  0
  -24.8740  -11.8540   20.7260 C   0  0  0  0  0  0  0  0  0  0  0  0
  -26.4880  -13.1140   20.0860 N   0  0  0  0  0  0  0  0  0  0  0  0
  -26.1500  -11.8260   20.3580 N   0  0  0  0  0  0  0  0  0  0  0  0
  -24.1650  -10.5860   20.9400 C   0  0  0  0  0  0  0  0  0  0  0  0
  -24.6090   -9.6410   21.8930 C   0  0  0  0  0  3  0  0  0  0  0  0
  -23.8980   -8.4380   22.0920 C   0  0  0  0  0  3  0  0  0  0  0  0
  -22.7290   -8.1710   21.3410 C   0  0  0  0  0  0  0  0  0  0  0  0
  -22.3040   -9.1030   20.3780 C   0  0  0  0  0  3  0  0  0  0  0  0
  -23.0160  -10.2980   20.1760 C   0  0  0  0  0  3  0  0  0  0  0  0
  -21.9900   -7.0170   21.4490 O   0  0  0  0  0  0  0  0  0  0  0  0
  -21.9140   -6.3190   22.6260 C   0  0  0  0  0  0  0  0  0  0  0  0
  -21.3890   -6.8960   23.8030 C   0  0  0  0  0  3  0  0  0  0  0  0
  -21.2670   -6.1200   24.9740 C   0  0  0  0  0  3  0  0  0  0  0  0
  -21.6570   -4.7680   24.9670 C   0  0  0  0  0  0  0  0  0  0  0  0
  -22.1740   -4.1900   23.7940 C   0  0  0  0  0  3  0  0  0  0  0  0
  -22.2990   -4.9620   22.6270 C   0  0  0  0  0  0  0  0  0  0  0  0
  -22.7780   -4.3950   21.4940 F   0  0  0  0  0  0  0  0  0  0  0  0
  -21.5320   -4.0190   26.0880 F   0  0  0  0  0  0  0  0  0  0  0  0
  -23.0210  -13.6690   21.1270 C   0  0  0  0  0  0  0  0  0  0  0  0
  -22.3350  -12.9600   22.0160 N   0  0  0  0  0  0  0  0  0  0  0  0
  -22.5560  -14.6970   20.6360 O   0  0  0  0  0  0  0  0  0  0  0  0
  -22.7250  -12.1280   22.4320 H   0  0  0  0  0  0  0  0  0  0  0  0
  -21.4060  -13.2530   22.2830 H   0  0  0  0  0  0  0  0  0  0  0  0
  -25.6000  -15.3570   20.2010 N   0  0  0  0  0  0  0  0  0  0  0  0
  -24.8360  -16.0080   20.3440 H   0  0  0  0  0  0  0  0  0  0  0  0
  -26.4300  -15.8000   19.8270 H   0  0  0  0  0  0  0  0  0  0  0  0
  -28.6210  -22.7700   20.7980 O   0  0  0  0  0  0  0  0  0  0  0  0
  -28.8360  -23.9360   19.9330 C   0  0  0  0  0  2  0  0  0  0  0  0
  -28.2740  -25.2810   20.5910 C   0  0  0  0  0  2  0  0  0  0  0  0
  -28.4430  -26.6130   19.9600 O   0  0  0  0  0  0  0  0  0  0  0  0
  -24.6420  -31.8400   23.1850 C   0  0  0  0  0  0  0  0  0  0  0  0
  -27.3230  -27.4530   19.9690 C   0  0  0  0  0  0  0  0  0  0  0  0
  -23.4590  -30.4840   21.4930 C   0  0  0  0  0  3  0  0  0  0  0  0
  -24.9350  -29.0130   20.0100 C   0  0  0  0  0  0  0  0  0  0  0  0
  -25.9910  -30.8570   21.3200 C   0  0  0  0  0  2  0  0  0  0  0  0
  -26.0950  -29.5050   20.6240 C   0  0  0  0  0  0  0  0  0  0  0  0
  -27.2960  -28.7380   20.5920 C   0  0  0  0  0  3  0  0  0  0  0  0
  -26.1460  -27.0110   19.3320 C   0  0  0  0  0  3  0  0  0  0  0  0
  -24.9620  -27.7710   19.3550 C   0  0  0  0  0  3  0  0  0  0  0  0
  -23.6820  -29.8600   20.0900 C   0  0  0  0  0  2  0  0  0  0  0  0
  -24.7170  -31.0770   22.0560 N   0  0  0  0  0  0  0  0  0  0  0  0
  -23.5550  -32.0780   23.7320 O   0  0  0  0  0  0  0  0  0  0  0  0
  -22.8150  -29.4220   22.4170 C   0  0  0  0  0  0  0  0  0  0  0  0
  -21.4960  -29.2160   22.2730 N   0  0  0  0  0  0  0  0  0  0  0  0
  -23.5040  -28.7870   23.2200 O   0  0  0  0  0  0  0  0  0  0  0  0
  -20.9990  -29.7780   21.5960 H   0  0  0  0  0  0  0  0  0  0  0  0
  -18.1420  -27.9320   22.7160 C   0  0  0  0  0  0  0  0  0  0  0  0
  -20.6930  -28.2360   23.0080 C   0  0  0  0  0  3  0  0  0  0  0  0
  -20.8280  -26.8270   22.3840 C   0  0  0  0  0  2  0  0  0  0  0  0
  -19.7390  -26.5160   21.3540 C   0  0  0  0  0  2  0  0  0  0  0  0
  -18.3520  -26.6120   21.9950 C   0  0  0  0  0  2  0  0  0  0  0  0
  -19.2430  -28.7030   23.1780 C   0  0  0  0  0  0  0  0  0  0  0  0
  -18.9940  -29.9400   23.8110 C   0  0  0  0  0  3  0  0  0  0  0  0
  -17.6780  -30.4070   23.9870 C   0  0  0  0  0  3  0  0  0  0  0  0
  -16.5920  -29.6340   23.5440 C   0  0  0  0  0  3  0  0  0  0  0  0
  -16.8250  -28.3980   22.9150 C   0  0  0  0  0  3  0  0  0  0  0  0
  -25.9170  -32.4710   23.8290 C   0  0  0  0  0  3  0  0  0  0  0  0
  -26.4260  -31.6820   25.0960 C   0  0  1  0  0  0  0  0  0  0  0  0
  -25.3240  -31.4120   26.1480 C   0  0  0  0  0  1  0  0  0  0  0  0
  -27.0270  -30.3160   24.6880 C   0  0  0  0  0  1  0  0  0  0  0  0
  -27.5640  -32.4730   25.7830 C   0  0  0  0  0  1  0  0  0  0  0  0
  -25.5960  -33.8610   24.1800 N   0  0  0  0  0  0  0  0  0  0  0  0
  -25.9320  -34.9300   23.4450 C   0  0  0  0  0  0  0  0  0  0  0  0
  -26.6150  -34.8480   22.4200 O   0  0  0  0  0  0  0  0  0  0  0  0
  -24.9930  -33.9970   24.9780 H   0  0  0  0  0  0  0  0  0  0  0  0
  -24.2100  -36.7270   23.0880 C   0  0  0  0  0  1  0  0  0  0  0  0
  -25.4310  -36.3080   23.9210 C   0  0  0  0  0  3  0  0  0  0  0  0
  -27.5360  -37.1830   24.8300 C   0  0  0  0  0  1  0  0  0  0  0  0
  -26.4620  -37.3650   23.8560 N   0  0  0  0  0  0  0  0  0  0  0  0
  -26.0480  -38.2800   24.0090 H   0  0  0  0  0  0  0  0  0  0  0  0
  1  2  1  0
  3  6  1  0
  4  1  2  0
  5  3  2  0
  5  4  1  0
  6 48  1  0
  6  2  2  0
  7  8  1  0
  7  5  1  0
  8  9  1  0
  9  4  1  0
  9 18  1  0
 10 18  1  0
 11 16  1  0
 12 13  1  0
 12 11  1  0
 14 13  1  0
 14 23  1  0
 14 15  1  0
 16 10  1  0
 16 15  1  0
 17 10  2  0
 18 19  1  0
 20 21  2  0
 21 40  1  0
 22 21  1  0
 22 25  1  0
 23 24  1  0
 23 20  1  0
 24 22  2  0
 25 26  1  0
 26 27  2  0
 28 31  1  0
 28 27  1  0
 29 28  2  0
 30 29  1  0
 30 25  2  0
 31 32  1  0
 32 37  2  0
 32 33  1  0
 33 34  2  0
 35 34  1  0
 35 39  1  0
 36 35  2  0
 37 36  1  0
 38 37  1  0
 40 41  1  0
 41 44  1  0
 41 43  1  0
 42 40  2  0
 45 46  1  0
 45 20  1  0
 47 45  1  0
 49 50  1  0
 49 48  1  0
 51 53  1  0
 51 50  1  0
 52 63  2  0
 53 58  1  0
 54 62  1  0
 54 64  1  0
 55 61  1  0
 55 57  1  0
 56 62  1  0
 57 56  1  0
 58 57  2  0
 59 60  1  0
 59 53  2  0
 60 55  2  0
 61 54  1  0
 62 52  1  0
 64 66  2  0
 65 64  1  0
 67 65  1  0
 68 77  2  0
 68 73  1  0
 69 65  1  0
 69 73  1  0
 70 69  1  0
 71 72  1  0
 71 70  1  0
 72 68  1  0
 73 74  2  0
 74 75  1  0
 76 75  2  0
 77 76  1  0
 78 52  1  0
 78 83  1  0
 78 79  1  0
 79 82  1  1
 79 80  1  0
 81 79  1  0
 83 86  1  0
 84 88  1  0
 84 83  1  0
 85 84  2  0
 88 87  1  0
 90 88  1  0
 90 91  1  0
 90 89  1  0
M  ISO  4  10 100  18 100  50 101  51 101
M  END
>  <TORSDO>  (80) 
F 19

>  <SCORE>  (80) 
-13.104

>  <name>  (80) 
81

>  <ligand_id>  (80) 
81

>  <original_smiles>  (80) 
[H]c1c([H])c([H])c2c(c1[H])C([H])([H])C([H])([H])C([H])([H])C2([H])N([H])C(=O)C1([H])N(C(=O)C([H])(N([H])C(=O)C([H])(N([H])C([H])([H])[H])C([H])([H])[H])C(C([H])([H])[H])(C([H])([H])[H])C([H])([H])[H])C([H])([H])c2c([H])c(OC([H])([H])C([H])([H])Oc3c([H])c([H])c4c(c3[H])C([H])([H])C([H])([H])C4([H])N([H])C(=O)N3C([H])([H])C([H])([H])C([H])([H])C([H])(n4nc(-c5c([H])c([H])c(Oc6c([H])c([H])c(F)c([H])c6F)c([H])c5[H])c(C(=O)N([H])[H])c4N([H])[H])C3([H])[H])c([H])c([H])c2C1([H])[H]

>  <smiles>  (80) 
[H]c1c([H])c([H])c2c(c1[H])C([H])([H])C([H])([H])C([H])([H])C2([H])N([H])C(=O)C1([H])N(C(=O)C([H])(N([H])C(=O)C([H])(N([H])C([H])([H])[H])C([H])([H])[H])C(C([H])([H])[H])(C([H])([H])[H])C([H])([H])[H])C([H])([H])c2c([H])c(OC([H])([H])C([H])([H])Oc3c([H])c([H])c4c(c3[H])C([H])([H])C([H])([H])C4([H])N([H])C(=O)N3C([H])([H])C([H])([H])C([H])([H])C([H])(n4nc(-c5c([H])c([H])c(Oc6c([H])c([H])c(F)c([H])c6F)c([H])c5[H])c(C(=O)N([H])[H])c4N([H])[H])C3([H])[H])c([H])c([H])c2C1([H])[H]

$$$$
82:0:0
     RDKit          3D

 93102  0  0  1  0  0  0  0  0999 V2000
  -28.7100  -22.4460   21.0080 C   0  0  0  0  0  3  0  0  0  0  0  0
  -27.1930  -23.0240   19.1970 C   0  0  0  0  0  3  0  0  0  0  0  0
  -29.0180  -21.2280   20.3690 C   0  0  0  0  0  3  0  0  0  0  0  0
  -27.5170  -21.8140   18.5510 C   0  0  0  0  0  3  0  0  0  0  0  0
  -27.7730  -23.3400   20.4390 C   0  0  0  0  0  0  0  0  0  0  0  0
  -28.4270  -20.9070   19.1220 C   0  0  0  0  0  0  0  0  0  0  0  0
  -26.7550  -24.1980   22.6000 C   0  0  0  0  0  2  0  0  0  0  0  0
  -25.8480  -24.7150   21.5230 C   0  0  0  0  0  2  0  0  0  0  0  0
  -27.3380  -24.5370   21.2370 C   0  0  2  0  0  0  0  0  0  0  0  0
  -28.3190  -25.7320   21.1460 C   0  0  0  0  0  2  0  0  0  0  0  0
  -28.2560  -26.6500   20.0300 O   0  0  0  0  0  0  0  0  0  0  0  0
  -24.5420  -31.8750   23.1790 C   0  0  0  0  0  0  0  0  0  0  0  0
  -27.1470  -27.4540   20.0410 C   0  0  0  0  0  0  0  0  0  0  0  0
  -23.3310  -30.5000   21.5170 C   0  0  0  0  0  3  0  0  0  0  0  0
  -24.7820  -28.9860   20.0570 C   0  0  0  0  0  0  0  0  0  0  0  0
  -25.8580  -30.8470   21.3270 C   0  0  0  0  0  2  0  0  0  0  0  0
  -25.9350  -29.4830   20.6770 C   0  0  0  0  0  0  0  0  0  0  0  0
  -27.1280  -28.7200   20.6790 C   0  0  0  0  0  3  0  0  0  0  0  0
  -25.9900  -26.9920   19.3860 C   0  0  0  0  0  3  0  0  0  0  0  0
  -24.8070  -27.7480   19.3980 C   0  0  0  0  0  3  0  0  0  0  0  0
  -23.5360  -29.8450   20.1260 C   0  0  0  0  0  2  0  0  0  0  0  0
  -24.5950  -31.0870   22.0670 N   0  0  0  0  0  0  0  0  0  0  0  0
  -23.4640  -32.1430   23.7250 O   0  0  0  0  0  0  0  0  0  0  0  0
  -22.6870  -29.4610   22.4620 C   0  0  0  0  0  0  0  0  0  0  0  0
  -21.3610  -29.2930   22.3430 N   0  0  0  0  0  0  0  0  0  0  0  0
  -23.3730  -28.8160   23.2580 O   0  0  0  0  0  0  0  0  0  0  0  0
  -20.8740  -29.8670   21.6710 H   0  0  0  0  0  0  0  0  0  0  0  0
  -17.9780  -28.1470   22.8740 C   0  0  0  0  0  0  0  0  0  0  0  0
  -20.5430  -28.3470   23.1010 C   0  0  0  0  0  3  0  0  0  0  0  0
  -20.6080  -26.9330   22.4760 C   0  0  0  0  0  2  0  0  0  0  0  0
  -19.4790  -26.6640   21.4760 C   0  0  0  0  0  2  0  0  0  0  0  0
  -18.1140  -26.8160   22.1530 C   0  0  0  0  0  2  0  0  0  0  0  0
  -19.1190  -28.8730   23.3040 C   0  0  0  0  0  0  0  0  0  0  0  0
  -18.9390  -30.1220   23.9360 C   0  0  0  0  0  3  0  0  0  0  0  0
  -17.6480  -30.6430   24.1460 C   0  0  0  0  0  3  0  0  0  0  0  0
  -16.5210  -29.9130   23.7320 C   0  0  0  0  0  3  0  0  0  0  0  0
  -16.6860  -28.6660   23.1020 C   0  0  0  0  0  3  0  0  0  0  0  0
  -25.8330  -32.4940   23.8020 C   0  0  0  0  0  3  0  0  0  0  0  0
  -25.5300  -33.8910   24.1460 N   0  0  0  0  0  0  0  0  0  0  0  0
  -25.8670  -34.9470   23.3950 C   0  0  0  0  0  0  0  0  0  0  0  0
  -26.5370  -34.8490   22.3630 O   0  0  0  0  0  0  0  0  0  0  0  0
  -24.9350  -34.0420   24.9480 H   0  0  0  0  0  0  0  0  0  0  0  0
  -24.1440  -36.7470   23.0500 C   0  0  0  0  0  1  0  0  0  0  0  0
  -25.3820  -36.3310   23.8630 C   0  0  0  0  0  3  0  0  0  0  0  0
  -27.5150  -37.2020   24.7100 C   0  0  0  0  0  1  0  0  0  0  0  0
  -26.4160  -37.3840   23.7650 N   0  0  0  0  0  0  0  0  0  0  0  0
  -26.0120  -38.3040   23.9210 H   0  0  0  0  0  0  0  0  0  0  0  0
  -26.3490  -31.7070   25.0690 C   0  0  1  0  0  0  0  0  0  0  0  0
  -25.2560  -31.4620   26.1350 C   0  0  0  0  0  1  0  0  0  0  0  0
  -26.9260  -30.3310   24.6590 C   0  0  0  0  0  1  0  0  0  0  0  0
  -27.5020  -32.4890   25.7410 C   0  0  0  0  0  1  0  0  0  0  0  0
  -28.6730  -19.7520   18.4070 O   0  0  0  0  0  0  0  0  0  0  0  0
  -29.7570  -18.9080   18.7920 C   0  0  0  0  0  2  0  0  0  0  0  0
  -29.3270  -17.8270   19.8000 C   0  0  0  0  0  2  0  0  0  0  0  0
  -30.4640  -16.8410   20.1140 C   0  0  0  0  0  2  0  0  0  0  0  0
  -30.7250  -14.4340   20.4450 C   0  0  0  0  0  0  0  0  0  0  0  0
  -30.3850  -12.2740   19.3730 C   0  0  0  0  0  2  0  0  0  0  0  0
  -29.4900  -12.5470   18.1470 C   0  0  0  0  0  2  0  0  0  0  0  0
  -27.9970  -12.4480   18.5260 C   0  0  0  0  0  2  0  0  0  0  0  0
  -27.6410  -13.2740   19.7990 C   0  0  0  0  0  3  0  0  0  0  0  0
  -28.6770  -13.0340   20.9170 C   0  0  0  0  0  2  0  0  0  0  0  0
  -30.0210  -13.2790   20.3730 N   0  0  0  0  0  0  0  0  0  0  0  0
  -31.9150  -14.5400   20.1310 O   0  0  0  0  0  0  0  0  0  0  0  0
  -29.9610  -15.5270   20.5090 N   0  0  0  0  0  0  0  0  0  0  0  0
  -28.9660  -15.3880   20.5570 H   0  0  0  0  0  0  0  0  0  0  0  0
  -25.2360  -13.8970   20.4690 C   0  0  0  0  0  0  0  0  0  0  0  0
  -24.1550  -13.1340   20.8160 C   0  0  0  0  0  0  0  0  0  0  0  0
  -24.6130  -11.7820   20.8150 C   0  0  0  0  0  0  0  0  0  0  0  0
  -26.2780  -13.0120   20.2620 N   0  0  0  0  0  0  0  0  0  0  0  0
  -25.9110  -11.7320   20.5350 N   0  0  0  0  0  0  0  0  0  0  0  0
  -23.8820  -10.5190   21.0200 C   0  0  0  0  0  0  0  0  0  0  0  0
  -24.3070   -9.5620   21.9650 C   0  0  0  0  0  3  0  0  0  0  0  0
  -23.5810   -8.3660   22.1410 C   0  0  0  0  0  3  0  0  0  0  0  0
  -22.4110   -8.1260   21.3780 C   0  0  0  0  0  0  0  0  0  0  0  0
  -22.0160   -9.0700   20.4170 C   0  0  0  0  0  3  0  0  0  0  0  0
  -22.7430  -10.2550   20.2350 C   0  0  0  0  0  3  0  0  0  0  0  0
  -21.6440   -6.9920   21.4770 O   0  0  0  0  0  0  0  0  0  0  0  0
  -21.5830   -6.2530   22.6310 C   0  0  0  0  0  0  0  0  0  0  0  0
  -21.1630   -6.8150   23.8540 C   0  0  0  0  0  3  0  0  0  0  0  0
  -21.0540   -6.0050   24.9970 C   0  0  0  0  0  3  0  0  0  0  0  0
  -21.3500   -4.6330   24.9210 C   0  0  0  0  0  0  0  0  0  0  0  0
  -21.7740   -4.0700   23.7050 C   0  0  0  0  0  3  0  0  0  0  0  0
  -21.8910   -4.8810   22.5620 C   0  0  0  0  0  0  0  0  0  0  0  0
  -22.2800   -4.3280   21.3900 F   0  0  0  0  0  0  0  0  0  0  0  0
  -21.2310   -3.8540   26.0200 F   0  0  0  0  0  0  0  0  0  0  0  0
  -22.7540  -13.6120   21.0460 C   0  0  0  0  0  0  0  0  0  0  0  0
  -22.0170  -12.9240   21.9120 N   0  0  0  0  0  0  0  0  0  0  0  0
  -22.3310  -14.6330   20.5050 O   0  0  0  0  0  0  0  0  0  0  0  0
  -22.3760  -12.1060   22.3730 H   0  0  0  0  0  0  0  0  0  0  0  0
  -21.0720  -13.2130   22.1150 H   0  0  0  0  0  0  0  0  0  0  0  0
  -25.3970  -15.2710   20.2950 N   0  0  0  0  0  0  0  0  0  0  0  0
  -24.6190  -15.9040   20.4450 H   0  0  0  0  0  0  0  0  0  0  0  0
  -26.2590  -15.7360   20.0320 H   0  0  0  0  0  0  0  0  0  0  0  0
  2  5  2  0
  3  1  2  0
  4  6  2  0
  4  2  1  0
  5  1  1  0
  5  9  1  0
  6  3  1  0
  8  7  1  0
  9  8  1  0
  9  7  1  0
  9 10  1  1
 11 13  1  0
 11 10  1  0
 12 23  2  0
 13 18  1  0
 14 22  1  0
 14 24  1  0
 15 21  1  0
 15 17  1  0
 16 22  1  0
 17 18  2  0
 17 16  1  0
 19 20  1  0
 19 13  2  0
 20 15  2  0
 21 14  1  0
 22 12  1  0
 24 26  2  0
 25 24  1  0
 27 25  1  0
 28 37  2  0
 28 33  1  0
 29 25  1  0
 29 33  1  0
 30 29  1  0
 31 32  1  0
 31 30  1  0
 32 28  1  0
 33 34  2  0
 34 35  1  0
 36 35  2  0
 37 36  1  0
 38 12  1  0
 38 39  1  0
 38 48  1  0
 39 42  1  0
 40 44  1  0
 40 39  1  0
 41 40  2  0
 44 43  1  0
 46 44  1  0
 46 47  1  0
 46 45  1  0
 48 51  1  1
 48 49  1  0
 50 48  1  0
 52 53  1  0
 52  6  1  0
 53 54  1  0
 54 55  1  0
 55 64  1  0
 56 64  1  0
 57 62  1  0
 58 59  1  0
 58 57  1  0
 60 59  1  0
 60 69  1  0
 60 61  1  0
 62 56  1  0
 62 61  1  0
 63 56  2  0
 64 65  1  0
 66 67  2  0
 67 86  1  0
 68 67  1  0
 68 71  1  0
 69 66  1  0
 69 70  1  0
 70 68  2  0
 71 72  1  0
 72 73  2  0
 74 77  1  0
 74 73  1  0
 75 74  2  0
 76 75  1  0
 76 71  2  0
 77 78  1  0
 78 79  1  0
 79 80  2  0
 81 80  1  0
 81 85  1  0
 82 81  2  0
 83 78  2  0
 83 82  1  0
 84 83  1  0
 86 87  1  0
 87 90  1  0
 87 89  1  0
 88 86  2  0
 91 92  1  0
 91 66  1  0
 93 91  1  0
M  ISO  4  10 101  11 101  56 100  64 100
M  END
>  <TORSDO>  (81) 
F 22

>  <SCORE>  (81) 
-12.866

>  <name>  (81) 
82

>  <ligand_id>  (81) 
82

>  <original_smiles>  (81) 
[H]c1c([H])c([H])c2c(c1[H])C([H])([H])C([H])([H])C([H])([H])C2([H])N([H])C(=O)C1([H])N(C(=O)C([H])(N([H])C(=O)C([H])(N([H])C([H])([H])[H])C([H])([H])[H])C(C([H])([H])[H])(C([H])([H])[H])C([H])([H])[H])C([H])([H])c2c([H])c(OC([H])([H])C3(c4c([H])c([H])c(OC([H])([H])C([H])([H])C([H])([H])N([H])C(=O)N5C([H])([H])C([H])([H])C([H])([H])C([H])(n6nc(-c7c([H])c([H])c(Oc8c([H])c([H])c(F)c([H])c8F)c([H])c7[H])c(C(=O)N([H])[H])c6N([H])[H])C5([H])[H])c([H])c4[H])C([H])([H])C3([H])[H])c([H])c([H])c2C1([H])[H]

>  <smiles>  (81) 
[H]c1c([H])c([H])c2c(c1[H])C([H])([H])C([H])([H])C([H])([H])C2([H])N([H])C(=O)C1([H])N(C(=O)C([H])(N([H])C(=O)C([H])(N([H])C([H])([H])[H])C([H])([H])[H])C(C([H])([H])[H])(C([H])([H])[H])C([H])([H])[H])C([H])([H])c2c([H])c(OC([H])([H])C3(c4c([H])c([H])c(OC([H])([H])C([H])([H])C([H])([H])N([H])C(=O)N5C([H])([H])C([H])([H])C([H])([H])C([H])(n6nc(-c7c([H])c([H])c(Oc8c([H])c([H])c(F)c([H])c8F)c([H])c7[H])c(C(=O)N([H])[H])c6N([H])[H])C5([H])[H])c([H])c4[H])C([H])([H])C3([H])[H])c([H])c([H])c2C1([H])[H]

$$$$
83:0:0
     RDKit          3D

 92101  0  0  1  0  0  0  0  0999 V2000
  -30.4010  -19.0710   18.4890 C   0  0  0  0  0  3  0  0  0  0  0  0
  -30.2290  -20.3000   19.1310 C   0  0  0  0  0  3  0  0  0  0  0  0
  -30.2230  -17.8510   19.1770 C   0  0  0  0  0  0  0  0  0  0  0  0
  -30.0480  -17.8690   20.5970 C   0  0  0  0  0  0  0  0  0  0  0  0
  -29.8670  -20.3270   20.4790 C   0  0  0  0  0  0  0  0  0  0  0  0
  -29.8320  -19.1230   21.1940 N   0  0  0  0  0  0  0  0  0  0  0  0
  -30.7900  -15.4580   21.3870 C   0  0  0  0  0  0  0  0  0  0  0  0
  -30.8730  -13.0580   20.6910 C   0  0  0  0  0  2  0  0  0  0  0  0
  -30.1790  -12.9140   19.3210 C   0  0  0  0  0  2  0  0  0  0  0  0
  -28.6530  -12.7570   19.4850 C   0  0  0  0  0  2  0  0  0  0  0  0
  -28.0350  -13.7410   20.5150 C   0  0  0  0  0  3  0  0  0  0  0  0
  -28.8770  -13.8290   21.8050 C   0  0  0  0  0  2  0  0  0  0  0  0
  -30.2430  -14.1930   21.4090 N   0  0  0  0  0  0  0  0  0  0  0  0
  -32.0160  -15.5800   21.2770 O   0  0  0  0  0  0  0  0  0  0  0  0
  -29.9350  -16.5590   21.3090 N   0  0  0  0  0  0  0  0  0  0  0  0
  -29.0030  -16.3600   21.6350 H   0  0  0  0  0  0  0  0  0  0  0  0
  -25.5590  -14.2950   20.8920 C   0  0  0  0  0  0  0  0  0  0  0  0
  -24.4600  -13.5030   21.0870 C   0  0  0  0  0  0  0  0  0  0  0  0
  -24.9400  -12.1570   21.0980 C   0  0  0  0  0  0  0  0  0  0  0  0
  -26.6360  -13.4310   20.7950 N   0  0  0  0  0  0  0  0  0  0  0  0
  -26.2620  -12.1390   20.9840 N   0  0  0  0  0  0  0  0  0  0  0  0
  -24.2100  -10.8830   21.1480 C   0  0  0  0  0  0  0  0  0  0  0  0
  -24.4880   -9.9120   22.1340 C   0  0  0  0  0  3  0  0  0  0  0  0
  -23.7590   -8.7040   22.1740 C   0  0  0  0  0  3  0  0  0  0  0  0
  -22.7380   -8.4590   21.2240 C   0  0  0  0  0  0  0  0  0  0  0  0
  -22.4810   -9.4200   20.2300 C   0  0  0  0  0  3  0  0  0  0  0  0
  -23.2110  -10.6200   20.1890 C   0  0  0  0  0  3  0  0  0  0  0  0
  -21.9970   -7.3030   21.1700 O   0  0  0  0  0  0  0  0  0  0  0  0
  -21.7020   -6.5840   22.2990 C   0  0  0  0  0  0  0  0  0  0  0  0
  -20.9930   -7.1500   23.3800 C   0  0  0  0  0  3  0  0  0  0  0  0
  -20.6500   -6.3550   24.4920 C   0  0  0  0  0  3  0  0  0  0  0  0
  -21.0070   -4.9940   24.5230 C   0  0  0  0  0  0  0  0  0  0  0  0
  -21.7080   -4.4250   23.4440 C   0  0  0  0  0  3  0  0  0  0  0  0
  -22.0520   -5.2180   22.3340 C   0  0  0  0  0  0  0  0  0  0  0  0
  -22.7090   -4.6610   21.2890 F   0  0  0  0  0  0  0  0  0  0  0  0
  -20.6720   -4.2280   25.5860 F   0  0  0  0  0  0  0  0  0  0  0  0
  -23.0310  -13.9590   21.1560 C   0  0  0  0  0  0  0  0  0  0  0  0
  -22.1950  -13.2450   21.9000 N   0  0  0  0  0  0  0  0  0  0  0  0
  -22.6620  -14.9850   20.5850 O   0  0  0  0  0  0  0  0  0  0  0  0
  -22.5050  -12.4150   22.3850 H   0  0  0  0  0  0  0  0  0  0  0  0
  -21.2320  -13.5330   21.9880 H   0  0  0  0  0  0  0  0  0  0  0  0
  -25.7280  -15.6700   20.7590 N   0  0  0  0  0  0  0  0  0  0  0  0
  -24.9330  -16.2970   20.7160 H   0  0  0  0  0  0  0  0  0  0  0  0
  -26.5920  -16.1110   20.4680 H   0  0  0  0  0  0  0  0  0  0  0  0
  -29.8530  -16.6140   16.8370 C   0  0  0  0  0  2  0  0  0  0  0  0
  -28.8000  -16.1480   17.8020 C   0  0  0  0  0  2  0  0  0  0  0  0
  -30.1500  -16.6020   18.3290 C   0  0  0  0  0  3  0  0  0  0  0  0
  -29.6140  -21.5760   21.1250 O   0  0  0  0  0  0  0  0  0  0  0  0
  -29.0270  -22.7590   20.3970 C   0  0  0  0  0  3  0  0  0  0  0  0
  -29.3680  -24.3110   20.7620 C   0  0  0  0  0  3  0  0  0  0  0  0
  -28.4140  -25.4910   20.1760 C   0  0  0  0  0  2  0  0  0  0  0  0
  -28.6380  -26.9730   20.3760 O   0  0  0  0  0  0  0  0  0  0  0  0
  -24.7420  -32.1170   23.7160 C   0  0  0  0  0  0  0  0  0  0  0  0
  -27.5280  -27.8590   20.3390 C   0  0  0  0  0  0  0  0  0  0  0  0
  -23.6150  -30.8510   21.9220 C   0  0  0  0  0  3  0  0  0  0  0  0
  -25.1380  -29.4640   20.3990 C   0  0  0  0  0  0  0  0  0  0  0  0
  -26.1560  -31.2210   21.8450 C   0  0  0  0  0  2  0  0  0  0  0  0
  -26.2830  -29.9060   21.0740 C   0  0  0  0  0  0  0  0  0  0  0  0
  -27.4790  -29.1170   21.0340 C   0  0  0  0  0  3  0  0  0  0  0  0
  -26.3610  -27.5000   19.6250 C   0  0  0  0  0  3  0  0  0  0  0  0
  -25.1840  -28.2730   19.6610 C   0  0  0  0  0  3  0  0  0  0  0  0
  -23.8830  -30.3120   20.4930 C   0  0  0  0  0  2  0  0  0  0  0  0
  -24.8550  -31.4100   22.5520 N   0  0  0  0  0  0  0  0  0  0  0  0
  -23.6380  -32.3240   24.2410 O   0  0  0  0  0  0  0  0  0  0  0  0
  -22.9480  -29.7390   22.7680 C   0  0  0  0  0  0  0  0  0  0  0  0
  -21.6340  -29.5330   22.5710 N   0  0  0  0  0  0  0  0  0  0  0  0
  -23.6130  -29.0680   23.5610 O   0  0  0  0  0  0  0  0  0  0  0  0
  -21.1570  -30.1300   21.9120 H   0  0  0  0  0  0  0  0  0  0  0  0
  -18.2890  -28.1680   22.8050 C   0  0  0  0  0  0  0  0  0  0  0  0
  -20.8170  -28.5100   23.2280 C   0  0  0  0  0  3  0  0  0  0  0  0
  -21.0090  -27.1300   22.5590 C   0  0  0  0  0  2  0  0  0  0  0  0
  -19.9740  -26.8370   21.4670 C   0  0  0  0  0  2  0  0  0  0  0  0
  -18.5570  -26.8810   22.0440 C   0  0  0  0  0  2  0  0  0  0  0  0
  -19.3500  -28.9410   23.3470 C   0  0  0  0  0  0  0  0  0  0  0  0
  -19.0450  -30.1460   24.0160 C   0  0  0  0  0  3  0  0  0  0  0  0
  -17.7130  -30.5800   24.1500 C   0  0  0  0  0  3  0  0  0  0  0  0
  -16.6660  -29.8040   23.6230 C   0  0  0  0  0  3  0  0  0  0  0  0
  -16.9540  -28.6000   22.9560 C   0  0  0  0  0  3  0  0  0  0  0  0
  -25.9920  -32.7170   24.4310 C   0  0  0  0  0  3  0  0  0  0  0  0
  -25.6710  -34.1050   24.7990 N   0  0  0  0  0  0  0  0  0  0  0  0
  -26.0750  -35.1860   24.1180 C   0  0  0  0  0  0  0  0  0  0  0  0
  -26.8230  -35.1180   23.1390 O   0  0  0  0  0  0  0  0  0  0  0  0
  -25.0200  -34.2330   25.5590 H   0  0  0  0  0  0  0  0  0  0  0  0
  -24.4110  -37.0250   23.7020 C   0  0  0  0  0  1  0  0  0  0  0  0
  -25.5690  -36.5590   24.5990 C   0  0  0  0  0  3  0  0  0  0  0  0
  -27.6310  -37.3630   25.6600 C   0  0  0  0  0  1  0  0  0  0  0  0
  -26.6220  -37.5970   24.6300 N   0  0  0  0  0  0  0  0  0  0  0  0
  -26.2190  -38.5170   24.7830 H   0  0  0  0  0  0  0  0  0  0  0  0
  -26.4320  -31.8930   25.7040 C   0  0  1  0  0  0  0  0  0  0  0  0
  -25.2760  -31.6060   26.6900 C   0  0  0  0  0  1  0  0  0  0  0  0
  -27.0470  -30.5350   25.2930 C   0  0  0  0  0  1  0  0  0  0  0  0
  -27.5370  -32.6630   26.4670 C   0  0  0  0  0  1  0  0  0  0  0  0
  1  2  2  0
  1  3  1  0
  2  5  1  0
  3  4  2  0
  4  6  1  0
  4 15  1  0
  5 48  1  0
  5  6  2  0
  7 13  1  0
  8 13  1  0
  9 10  1  0
  9  8  1  0
 11 10  1  0
 11 20  1  0
 11 12  1  0
 13 12  1  0
 14  7  2  0
 15  7  1  0
 15 16  1  0
 17 18  2  0
 18 19  1  0
 18 37  1  0
 19 22  1  0
 20 17  1  0
 20 21  1  0
 21 19  2  0
 22 23  1  0
 23 24  2  0
 25 24  1  0
 26 25  2  0
 27 26  1  0
 27 22  2  0
 28 25  1  0
 28 29  1  0
 29 34  2  0
 29 30  1  0
 30 31  2  0
 31 32  1  0
 32 36  1  0
 33 32  2  0
 34 33  1  0
 35 34  1  0
 37 38  1  0
 38 41  1  0
 38 40  1  0
 39 37  2  0
 42 17  1  0
 43 42  1  0
 44 42  1  0
 45 46  1  0
 45 47  1  0
 46 47  1  0
 47  3  1  0
 49 50  2  0
 49 48  1  0
 51 52  1  0
 51 50  1  0
 53 64  2  0
 54 52  1  0
 54 59  1  0
 55 63  1  0
 55 65  1  0
 56 62  1  0
 56 58  1  0
 57 63  1  0
 58 57  1  0
 59 58  2  0
 60 61  1  0
 60 54  2  0
 61 56  2  0
 62 55  1  0
 63 53  1  0
 65 67  2  0
 66 65  1  0
 68 66  1  0
 69 78  2  0
 69 74  1  0
 70 66  1  0
 70 74  1  0
 71 70  1  0
 72 73  1  0
 72 71  1  0
 73 69  1  0
 74 75  2  0
 75 76  1  0
 77 76  2  0
 78 77  1  0
 79 53  1  0
 79 80  1  0
 79 89  1  0
 80 83  1  0
 81 85  1  0
 81 80  1  0
 82 81  2  0
 85 84  1  0
 85 87  1  0
 87 88  1  0
 87 86  1  0
 89 92  1  1
 89 90  1  0
 91 89  1  0
M  ISO  4   7 100  15 100  51 101  52 101
M  END
>  <TORSDO>  (82) 
F 21

>  <SCORE>  (82) 
-7.371

>  <name>  (82) 
83

>  <ligand_id>  (82) 
83

>  <original_smiles>  (82) 
[H]c1c(OC([H])([H])C([H])([H])C([H])([H])Oc2c([H])c([H])c3c(c2[H])C([H])([H])N(C(=O)C([H])(N([H])C(=O)C([H])(N([H])C([H])([H])[H])C([H])([H])[H])C(C([H])([H])[H])(C([H])([H])[H])C([H])([H])[H])C([H])(C(=O)N([H])C2([H])c4c([H])c([H])c([H])c([H])c4C([H])([H])C([H])([H])C2([H])[H])C3([H])[H])nc(N([H])C(=O)N2C([H])([H])C([H])([H])C([H])([H])C([H])(n3nc(-c4c([H])c([H])c(Oc5c([H])c([H])c(F)c([H])c5F)c([H])c4[H])c(C(=O)N([H])[H])c3N([H])[H])C2([H])[H])c(C2([H])C([H])([H])C2([H])[H])c1[H]

>  <smiles>  (82) 
[H]c1c(OC([H])([H])C([H])([H])C([H])([H])Oc2c([H])c([H])c3c(c2[H])C([H])([H])N(C(=O)C([H])(N([H])C(=O)C([H])(N([H])C([H])([H])[H])C([H])([H])[H])C(C([H])([H])[H])(C([H])([H])[H])C([H])([H])[H])C([H])(C(=O)N([H])C2([H])c4c([H])c([H])c([H])c([H])c4C([H])([H])C([H])([H])C2([H])[H])C3([H])[H])nc(N([H])C(=O)N2C([H])([H])C([H])([H])C([H])([H])C([H])(n3nc(-c4c([H])c([H])c(Oc5c([H])c([H])c(F)c([H])c5F)c([H])c4[H])c(C(=O)N([H])[H])c3N([H])[H])C2([H])[H])c(C2([H])C([H])([H])C2([H])[H])c1[H]

$$$$
84:0:0
     RDKit          3D

 92101  0  0  1  0  0  0  0  0999 V2000
  -30.1020  -22.6430   19.3040 C   0  0  0  0  0  3  0  0  0  0  0  0
  -28.0160  -22.4300   20.5010 C   0  0  0  0  0  3  0  0  0  0  0  0
  -30.5310  -21.4040   19.8340 C   0  0  0  0  0  3  0  0  0  0  0  0
  -28.4320  -21.1680   21.0120 C   0  0  0  0  0  3  0  0  0  0  0  0
  -28.8230  -23.1750   19.6000 C   0  0  0  0  0  0  0  0  0  0  0  0
  -29.6880  -20.6210   20.6510 C   0  0  0  0  0  0  0  0  0  0  0  0
  -26.9890  -24.0170   17.9540 C   0  0  0  0  0  2  0  0  0  0  0  0
  -28.3010  -23.9970   17.2510 C   0  0  0  0  0  2  0  0  0  0  0  0
  -28.2600  -24.3230   18.7470 C   0  0  2  0  0  0  0  0  0  0  0  0
  -28.7330  -25.7900   19.0550 C   0  0  0  0  0  2  0  0  0  0  0  0
  -28.3550  -26.5880   20.2120 O   0  0  0  0  0  0  0  0  0  0  0  0
  -24.5940  -31.8890   23.2480 C   0  0  0  0  0  0  0  0  0  0  0  0
  -27.2220  -27.3920   20.1670 C   0  0  0  0  0  0  0  0  0  0  0  0
  -23.3870  -30.4910   21.6080 C   0  0  0  0  0  3  0  0  0  0  0  0
  -24.8400  -28.9520   20.1830 C   0  0  0  0  0  0  0  0  0  0  0  0
  -25.9210  -30.8310   21.4170 C   0  0  0  0  0  2  0  0  0  0  0  0
  -26.0060  -29.4570   20.7720 C   0  0  0  0  0  0  0  0  0  0  0  0
  -27.2010  -28.6840   20.7640 C   0  0  0  0  0  3  0  0  0  0  0  0
  -26.0240  -26.9120   19.6100 C   0  0  0  0  0  3  0  0  0  0  0  0
  -24.8460  -27.6760   19.6010 C   0  0  0  0  0  3  0  0  0  0  0  0
  -23.5980  -29.8140   20.2280 C   0  0  0  0  0  2  0  0  0  0  0  0
  -24.6530  -31.0860   22.1490 N   0  0  0  0  0  0  0  0  0  0  0  0
  -23.5120  -32.1650   23.7860 O   0  0  0  0  0  0  0  0  0  0  0  0
  -22.7300  -29.4720   22.5680 C   0  0  0  0  0  0  0  0  0  0  0  0
  -21.4060  -29.2890   22.4400 N   0  0  0  0  0  0  0  0  0  0  0  0
  -23.4090  -28.8500   23.3890 O   0  0  0  0  0  0  0  0  0  0  0  0
  -20.9160  -29.8450   21.7530 H   0  0  0  0  0  0  0  0  0  0  0  0
  -18.0280  -28.0960   22.9260 C   0  0  0  0  0  0  0  0  0  0  0  0
  -20.5850  -28.3520   23.2090 C   0  0  0  0  0  3  0  0  0  0  0  0
  -20.6880  -26.9200   22.6370 C   0  0  0  0  0  2  0  0  0  0  0  0
  -19.5910  -26.5980   21.6160 C   0  0  0  0  0  2  0  0  0  0  0  0
  -18.2070  -26.7440   22.2560 C   0  0  0  0  0  2  0  0  0  0  0  0
  -19.1450  -28.8580   23.3600 C   0  0  0  0  0  0  0  0  0  0  0  0
  -18.9240  -30.1240   23.9440 C   0  0  0  0  0  3  0  0  0  0  0  0
  -17.6210  -30.6280   24.1010 C   0  0  0  0  0  3  0  0  0  0  0  0
  -16.5170  -29.8620   23.6860 C   0  0  0  0  0  3  0  0  0  0  0  0
  -16.7210  -28.5980   23.1060 C   0  0  0  0  0  3  0  0  0  0  0  0
  -25.8800  -32.5200   23.8680 C   0  0  0  0  0  3  0  0  0  0  0  0
  -25.5720  -33.9200   24.1940 N   0  0  0  0  0  0  0  0  0  0  0  0
  -25.9100  -34.9690   23.4320 C   0  0  0  0  0  0  0  0  0  0  0  0
  -26.5830  -34.8610   22.4040 O   0  0  0  0  0  0  0  0  0  0  0  0
  -24.9670  -34.0790   24.9870 H   0  0  0  0  0  0  0  0  0  0  0  0
  -24.1860  -36.7620   23.0670 C   0  0  0  0  0  1  0  0  0  0  0  0
  -25.4230  -36.3590   23.8840 C   0  0  0  0  0  3  0  0  0  0  0  0
  -27.5580  -37.2400   24.7170 C   0  0  0  0  0  1  0  0  0  0  0  0
  -26.4580  -37.4110   23.7710 N   0  0  0  0  0  0  0  0  0  0  0  0
  -26.0520  -38.3320   23.9210 H   0  0  0  0  0  0  0  0  0  0  0  0
  -26.3960  -31.7520   25.1470 C   0  0  1  0  0  0  0  0  0  0  0  0
  -25.3060  -31.5180   26.2180 C   0  0  0  0  0  1  0  0  0  0  0  0
  -26.9740  -30.3710   24.7600 C   0  0  0  0  0  1  0  0  0  0  0  0
  -27.5480  -32.5460   25.8080 C   0  0  0  0  0  1  0  0  0  0  0  0
  -30.1660  -19.4080   21.1300 O   0  0  0  0  0  0  0  0  0  0  0  0
  -29.5120  -18.1740   20.7600 C   0  0  0  0  0  2  0  0  0  0  0  0
  -30.4840  -16.9800   21.0430 C   0  0  0  0  0  2  0  0  0  0  0  0
  -30.6520  -14.5290   20.4170 C   0  0  0  0  0  0  0  0  0  0  0  0
  -30.3510  -12.3540   19.2830 C   0  0  0  0  0  2  0  0  0  0  0  0
  -29.4010  -12.5190   18.0800 C   0  0  0  0  0  2  0  0  0  0  0  0
  -27.9330  -12.3720   18.5260 C   0  0  0  0  0  2  0  0  0  0  0  0
  -27.5940  -13.2360   19.7700 C   0  0  0  0  0  3  0  0  0  0  0  0
  -28.6550  -13.0580   20.8790 C   0  0  0  0  0  2  0  0  0  0  0  0
  -29.9690  -13.3570   20.2920 N   0  0  0  0  0  0  0  0  0  0  0  0
  -31.8150  -14.6560   20.0260 O   0  0  0  0  0  0  0  0  0  0  0  0
  -29.9460  -15.6080   20.8350 N   0  0  0  0  0  0  0  0  0  0  0  0
  -28.9720  -15.4580   21.0550 H   0  0  0  0  0  0  0  0  0  0  0  0
  -25.2070  -13.8520   20.4990 C   0  0  0  0  0  0  0  0  0  0  0  0
  -24.1390  -13.0830   20.8770 C   0  0  0  0  0  0  0  0  0  0  0  0
  -24.5940  -11.7300   20.8470 C   0  0  0  0  0  0  0  0  0  0  0  0
  -26.2450  -12.9660   20.2620 N   0  0  0  0  0  0  0  0  0  0  0  0
  -25.8840  -11.6860   20.5330 N   0  0  0  0  0  0  0  0  0  0  0  0
  -23.8640  -10.4710   21.0460 C   0  0  0  0  0  0  0  0  0  0  0  0
  -24.3040   -9.5010   21.9720 C   0  0  0  0  0  3  0  0  0  0  0  0
  -23.5770   -8.3060   22.1550 C   0  0  0  0  0  3  0  0  0  0  0  0
  -22.3950   -8.0740   21.4130 C   0  0  0  0  0  0  0  0  0  0  0  0
  -21.9740   -9.0340   20.4770 C   0  0  0  0  0  3  0  0  0  0  0  0
  -22.7030  -10.2210   20.2900 C   0  0  0  0  0  3  0  0  0  0  0  0
  -21.6390   -6.9310   21.5080 O   0  0  0  0  0  0  0  0  0  0  0  0
  -21.6100   -6.1780   22.6550 C   0  0  0  0  0  0  0  0  0  0  0  0
  -21.2170   -6.7250   23.8950 C   0  0  0  0  0  3  0  0  0  0  0  0
  -21.1320   -5.9010   25.0340 C   0  0  0  0  0  3  0  0  0  0  0  0
  -21.4330   -4.5290   24.9360 C   0  0  0  0  0  0  0  0  0  0  0  0
  -21.8180   -3.9800   23.7000 C   0  0  0  0  0  3  0  0  0  0  0  0
  -21.9050   -4.8020   22.5630 C   0  0  0  0  0  0  0  0  0  0  0  0
  -22.2580   -4.2640   21.3700 F   0  0  0  0  0  0  0  0  0  0  0  0
  -21.3460   -3.7340   26.0290 F   0  0  0  0  0  0  0  0  0  0  0  0
  -22.7430  -13.5690   21.1480 C   0  0  0  0  0  0  0  0  0  0  0  0
  -22.0100  -12.8810   22.0170 N   0  0  0  0  0  0  0  0  0  0  0  0
  -22.3090  -14.5910   20.6240 O   0  0  0  0  0  0  0  0  0  0  0  0
  -22.3710  -12.0530   22.4680 H   0  0  0  0  0  0  0  0  0  0  0  0
  -21.0740  -13.1910   22.2330 H   0  0  0  0  0  0  0  0  0  0  0  0
  -25.3700  -15.2230   20.3180 N   0  0  0  0  0  0  0  0  0  0  0  0
  -24.5930  -15.8680   20.4330 H   0  0  0  0  0  0  0  0  0  0  0  0
  -26.2010  -15.6710   19.9560 H   0  0  0  0  0  0  0  0  0  0  0  0
  1  5  2  0
  1  3  1  0
  2  4  2  0
  3  6  2  0
  5  2  1  0
  6  4  1  0
  6 52  1  0
  7  9  1  0
  8  7  1  0
  8  9  1  0
  9 10  1  6
  9  5  1  0
 10 11  1  0
 12 23  2  0
 13 11  1  0
 13 18  1  0
 14 22  1  0
 14 24  1  0
 15 21  1  0
 15 17  1  0
 16 22  1  0
 17 16  1  0
 18 17  2  0
 19 13  2  0
 20 19  1  0
 20 15  2  0
 21 14  1  0
 22 12  1  0
 24 26  2  0
 25 24  1  0
 27 25  1  0
 28 37  2  0
 28 33  1  0
 29 25  1  0
 29 33  1  0
 30 29  1  0
 31 32  1  0
 31 30  1  0
 32 28  1  0
 33 34  2  0
 34 35  1  0
 36 35  2  0
 37 36  1  0
 38 12  1  0
 38 39  1  0
 38 48  1  0
 39 42  1  0
 40 44  1  0
 40 39  1  0
 41 40  2  0
 44 43  1  0
 46 44  1  0
 46 47  1  0
 46 45  1  0
 48 51  1  1
 48 49  1  0
 50 48  1  0
 53 54  1  0
 53 52  1  0
 55 63  1  0
 56 61  1  0
 57 58  1  0
 57 56  1  0
 59 58  1  0
 59 68  1  0
 59 60  1  0
 61 55  1  0
 61 60  1  0
 62 55  2  0
 63 54  1  0
 63 64  1  0
 65 66  2  0
 66 85  1  0
 67 66  1  0
 67 70  1  0
 68 65  1  0
 68 69  1  0
 69 67  2  0
 70 71  1  0
 71 72  2  0
 73 76  1  0
 73 72  1  0
 74 73  2  0
 75 74  1  0
 75 70  2  0
 76 77  1  0
 77 78  1  0
 78 79  2  0
 80 79  1  0
 80 84  1  0
 81 80  2  0
 82 77  2  0
 82 81  1  0
 83 82  1  0
 85 86  1  0
 86 89  1  0
 86 88  1  0
 87 85  2  0
 90 91  1  0
 90 65  1  0
 92 90  1  0
M  ISO  4  10 101  11 101  55 100  63 100
M  END
>  <TORSDO>  (83) 
F 21

>  <SCORE>  (83) 
-13.585

>  <name>  (83) 
84

>  <ligand_id>  (83) 
84

>  <original_smiles>  (83) 
[H]c1c([H])c([H])c2c(c1[H])C([H])([H])C([H])([H])C([H])([H])C2([H])N([H])C(=O)C1([H])N(C(=O)C([H])(N([H])C(=O)C([H])(N([H])C([H])([H])[H])C([H])([H])[H])C(C([H])([H])[H])(C([H])([H])[H])C([H])([H])[H])C([H])([H])c2c([H])c(OC([H])([H])C3(c4c([H])c([H])c(OC([H])([H])C([H])([H])N([H])C(=O)N5C([H])([H])C([H])([H])C([H])([H])C([H])(n6nc(-c7c([H])c([H])c(Oc8c([H])c([H])c(F)c([H])c8F)c([H])c7[H])c(C(=O)N([H])[H])c6N([H])[H])C5([H])[H])c([H])c4[H])C([H])([H])C3([H])[H])c([H])c([H])c2C1([H])[H]

>  <smiles>  (83) 
[H]c1c([H])c([H])c2c(c1[H])C([H])([H])C([H])([H])C([H])([H])C2([H])N([H])C(=O)C1([H])N(C(=O)C([H])(N([H])C(=O)C([H])(N([H])C([H])([H])[H])C([H])([H])[H])C(C([H])([H])[H])(C([H])([H])[H])C([H])([H])[H])C([H])([H])c2c([H])c(OC([H])([H])C3(c4c([H])c([H])c(OC([H])([H])C([H])([H])N([H])C(=O)N5C([H])([H])C([H])([H])C([H])([H])C([H])(n6nc(-c7c([H])c([H])c(Oc8c([H])c([H])c(F)c([H])c8F)c([H])c7[H])c(C(=O)N([H])[H])c6N([H])[H])C5([H])[H])c([H])c4[H])C([H])([H])C3([H])[H])c([H])c([H])c2C1([H])[H]

$$$$
85:0:0
     RDKit          3D

 96106  0  0  1  0  0  0  0  0999 V2000
  -29.9670  -23.8160   19.7730 C   0  0  0  0  0  3  0  0  0  0  0  0
  -28.1720  -23.2210   21.2290 C   0  0  0  0  0  3  0  0  0  0  0  0
  -30.4100  -22.4500   19.7420 C   0  0  0  0  0  0  0  0  0  0  0  0
  -29.7580  -21.4260   20.5260 C   0  0  0  0  0  0  0  0  0  0  0  0
  -28.8600  -24.2420   20.5410 C   0  0  0  0  0  0  0  0  0  0  0  0
  -28.5950  -21.8640   21.2370 C   0  0  0  0  0  0  0  0  0  0  0  0
  -27.7860  -20.9130   22.1090 C   0  0  0  0  0  1  0  0  0  0  0  0
  -31.7950  -19.6180   20.6970 C   0  0  0  0  0  2  0  0  0  0  0  0
  -31.8900  -18.0770   20.6990 C   0  0  0  0  0  2  0  0  0  0  0  0
  -29.6180  -18.6720   20.1050 C   0  0  0  0  0  2  0  0  0  0  0  0
  -30.2910  -19.9350   20.7710 C   0  0  0  0  0  3  0  0  0  0  0  0
  -30.7180  -17.5520   19.8390 C   0  0  1  0  0  0  0  0  0  0  0  0
  -31.0760  -17.6350   18.3370 C   0  0  0  0  0  1  0  0  0  0  0  0
  -31.0630  -14.9610   19.9210 C   0  0  0  0  0  0  0  0  0  0  0  0
  -30.7490  -12.6960   18.9500 C   0  0  0  0  0  2  0  0  0  0  0  0
  -29.7520  -12.7810   17.7770 C   0  0  0  0  0  2  0  0  0  0  0  0
  -28.3090  -12.6160   18.2890 C   0  0  0  0  0  2  0  0  0  0  0  0
  -28.0000  -13.5260   19.5100 C   0  0  0  0  0  3  0  0  0  0  0  0
  -29.1190  -13.4620   20.5750 C   0  0  0  0  0  2  0  0  0  0  0  0
  -30.3930  -13.7640   19.9100 N   0  0  0  0  0  0  0  0  0  0  0  0
  -32.2180  -15.0260   19.5000 O   0  0  0  0  0  0  0  0  0  0  0  0
  -30.3520  -16.1140   20.1830 N   0  0  0  0  0  0  0  0  0  0  0  0
  -29.4190  -15.9700   20.5380 H   0  0  0  0  0  0  0  0  0  0  0  0
  -25.6720  -14.1200   20.4190 C   0  0  0  0  0  0  0  0  0  0  0  0
  -24.6190  -13.3430   20.8250 C   0  0  0  0  0  0  0  0  0  0  0  0
  -25.0560  -11.9880   20.7040 C   0  0  0  0  0  0  0  0  0  0  0  0
  -26.6830  -13.2370   20.0750 N   0  0  0  0  0  0  0  0  0  0  0  0
  -26.3230  -11.9470   20.3090 N   0  0  0  0  0  0  0  0  0  0  0  0
  -24.3210  -10.7280   20.8870 C   0  0  0  0  0  0  0  0  0  0  0  0
  -24.7170   -9.7740   21.8490 C   0  0  0  0  0  3  0  0  0  0  0  0
  -23.9810   -8.5810   22.0210 C   0  0  0  0  0  3  0  0  0  0  0  0
  -22.8350   -8.3340   21.2270 C   0  0  0  0  0  0  0  0  0  0  0  0
  -22.4590   -9.2760   20.2540 C   0  0  0  0  0  3  0  0  0  0  0  0
  -23.1950  -10.4590   20.0810 C   0  0  0  0  0  3  0  0  0  0  0  0
  -22.0760   -7.1910   21.3040 O   0  0  0  0  0  0  0  0  0  0  0  0
  -21.8830   -6.5320   22.4920 C   0  0  0  0  0  0  0  0  0  0  0  0
  -21.2550   -7.1530   23.5930 C   0  0  0  0  0  3  0  0  0  0  0  0
  -21.0140   -6.4210   24.7730 C   0  0  0  0  0  3  0  0  0  0  0  0
  -21.3920   -5.0670   24.8510 C   0  0  0  0  0  0  0  0  0  0  0  0
  -22.0130   -4.4440   23.7540 C   0  0  0  0  0  3  0  0  0  0  0  0
  -22.2550   -5.1750   22.5770 C   0  0  0  0  0  0  0  0  0  0  0  0
  -22.8330   -4.5650   21.5130 F   0  0  0  0  0  0  0  0  0  0  0  0
  -21.1550   -4.3590   25.9800 F   0  0  0  0  0  0  0  0  0  0  0  0
  -23.2500  -13.8280   21.2100 C   0  0  0  0  0  0  0  0  0  0  0  0
  -22.5750  -13.1110   22.1040 N   0  0  0  0  0  0  0  0  0  0  0  0
  -22.7910  -14.8740   20.7550 O   0  0  0  0  0  0  0  0  0  0  0  0
  -22.9560  -12.2610   22.4890 H   0  0  0  0  0  0  0  0  0  0  0  0
  -21.6630  -13.4220   22.4070 H   0  0  0  0  0  0  0  0  0  0  0  0
  -25.8460  -15.4940   20.2900 N   0  0  0  0  0  0  0  0  0  0  0  0
  -25.1040  -16.1560   20.4890 H   0  0  0  0  0  0  0  0  0  0  0  0
  -26.6780  -15.9340   19.9170 H   0  0  0  0  0  0  0  0  0  0  0  0
  -31.8590  -22.8880   17.5800 C   0  0  0  0  0  2  0  0  0  0  0  0
  -31.6330  -21.4000   17.6390 C   0  0  0  0  0  2  0  0  0  0  0  0
  -31.6450  -22.2050   18.9190 C   0  0  0  0  0  3  0  0  0  0  0  0
  -28.4550  -25.7300   20.8260 C   0  0  0  0  0  2  0  0  0  0  0  0
  -28.5850  -26.7950   19.8300 O   0  0  0  0  0  0  0  0  0  0  0  0
  -24.7240  -31.9070   23.1060 C   0  0  0  0  0  0  0  0  0  0  0  0
  -27.4760  -27.6350   19.8180 C   0  0  0  0  0  0  0  0  0  0  0  0
  -23.5530  -30.5270   21.4260 C   0  0  0  0  0  3  0  0  0  0  0  0
  -25.0470  -29.1060   19.9120 C   0  0  0  0  0  0  0  0  0  0  0  0
  -26.0670  -30.9740   21.2130 C   0  0  0  0  0  2  0  0  0  0  0  0
  -26.1980  -29.6280   20.5180 C   0  0  0  0  0  0  0  0  0  0  0  0
  -27.4200  -28.8980   20.4740 C   0  0  0  0  0  3  0  0  0  0  0  0
  -26.3140  -27.1630   19.1780 C   0  0  0  0  0  3  0  0  0  0  0  0
  -25.1040  -27.8780   19.2320 C   0  0  0  0  0  3  0  0  0  0  0  0
  -23.7680  -29.9110   20.0190 C   0  0  0  0  0  2  0  0  0  0  0  0
  -24.8010  -31.1500   21.9750 N   0  0  0  0  0  0  0  0  0  0  0  0
  -23.6380  -32.1180   23.6660 O   0  0  0  0  0  0  0  0  0  0  0  0
  -22.9490  -29.4460   22.3540 C   0  0  0  0  0  0  0  0  0  0  0  0
  -21.6260  -29.2390   22.2540 N   0  0  0  0  0  0  0  0  0  0  0  0
  -23.6680  -28.7990   23.1210 O   0  0  0  0  0  0  0  0  0  0  0  0
  -21.1070  -29.8140   21.6060 H   0  0  0  0  0  0  0  0  0  0  0  0
  -18.2920  -27.9520   22.8000 C   0  0  0  0  0  0  0  0  0  0  0  0
  -20.8530  -28.2440   22.9960 C   0  0  0  0  0  3  0  0  0  0  0  0
  -20.9590  -26.8510   22.3340 C   0  0  0  0  0  2  0  0  0  0  0  0
  -19.8270  -26.5640   21.3440 C   0  0  0  0  0  2  0  0  0  0  0  0
  -18.4680  -26.6460   22.0430 C   0  0  0  0  0  2  0  0  0  0  0  0
  -19.4110  -28.7100   23.2330 C   0  0  0  0  0  0  0  0  0  0  0  0
  -19.1910  -29.9330   23.9040 C   0  0  0  0  0  3  0  0  0  0  0  0
  -17.8850  -30.3990   24.1420 C   0  0  0  0  0  3  0  0  0  0  0  0
  -16.7800  -29.6360   23.7260 C   0  0  0  0  0  3  0  0  0  0  0  0
  -16.9840  -28.4140   23.0610 C   0  0  0  0  0  3  0  0  0  0  0  0
  -25.9900  -32.5650   23.7370 C   0  0  0  0  0  3  0  0  0  0  0  0
  -26.5400  -31.7790   24.9880 C   0  0  1  0  0  0  0  0  0  0  0  0
  -25.4600  -31.4690   26.0520 C   0  0  0  0  0  1  0  0  0  0  0  0
  -27.1730  -30.4360   24.5520 C   0  0  0  0  0  1  0  0  0  0  0  0
  -27.6660  -32.5960   25.6660 C   0  0  0  0  0  1  0  0  0  0  0  0
  -25.6360  -33.9440   24.1010 N   0  0  0  0  0  0  0  0  0  0  0  0
  -25.9330  -35.0260   23.3680 C   0  0  0  0  0  0  0  0  0  0  0  0
  -26.6000  -34.9690   22.3310 O   0  0  0  0  0  0  0  0  0  0  0  0
  -25.0350  -34.0590   24.9040 H   0  0  0  0  0  0  0  0  0  0  0  0
  -24.1510  -36.7780   23.0650 C   0  0  0  0  0  1  0  0  0  0  0  0
  -25.4050  -36.3870   23.8630 C   0  0  0  0  0  3  0  0  0  0  0  0
  -27.5080  -37.3200   24.7210 C   0  0  0  0  0  1  0  0  0  0  0  0
  -26.4060  -37.4710   23.7750 N   0  0  0  0  0  0  0  0  0  0  0  0
  -25.9710  -38.3750   23.9360 H   0  0  0  0  0  0  0  0  0  0  0  0
  1  5  1  0
  2  6  1  0
  3  1  2  0
  3  4  1  0
  4  6  2  0
  5 55  1  0
  5  2  2  0
  6  7  1  0
  8  9  1  0
  8 11  1  0
 10 11  1  0
 11  4  1  0
 12 13  1  6
 12 10  1  0
 12 22  1  0
 12  9  1  0
 14 22  1  0
 15 20  1  0
 16 17  1  0
 16 15  1  0
 18 17  1  0
 18 27  1  0
 18 19  1  0
 20 14  1  0
 20 19  1  0
 21 14  2  0
 22 23  1  0
 24 25  2  0
 25 44  1  0
 26 25  1  0
 26 29  1  0
 27 28  1  0
 27 24  1  0
 28 26  2  0
 29 30  1  0
 30 31  2  0
 32 35  1  0
 32 31  1  0
 33 32  2  0
 34 33  1  0
 34 29  2  0
 35 36  1  0
 36 41  2  0
 36 37  1  0
 37 38  2  0
 38 39  1  0
 39 43  1  0
 40 39  2  0
 41 40  1  0
 42 41  1  0
 44 45  1  0
 45 48  1  0
 45 47  1  0
 46 44  2  0
 49 24  1  0
 49 50  1  0
 51 49  1  0
 52 53  1  0
 52 54  1  0
 53 54  1  0
 54  3  1  0
 56 55  1  0
 57 68  2  0
 58 56  1  0
 58 63  1  0
 59 67  1  0
 59 69  1  0
 60 66  1  0
 60 62  1  0
 61 67  1  0
 62 61  1  0
 63 62  2  0
 64 65  1  0
 64 58  2  0
 65 60  2  0
 66 59  1  0
 67 57  1  0
 69 71  2  0
 70 69  1  0
 72 70  1  0
 73 82  2  0
 73 78  1  0
 74 70  1  0
 74 78  1  0
 75 74  1  0
 76 77  1  0
 76 75  1  0
 77 73  1  0
 78 79  2  0
 79 80  1  0
 81 80  2  0
 82 81  1  0
 83 57  1  0
 83 88  1  0
 83 84  1  0
 84 87  1  1
 84 85  1  0
 86 84  1  0
 88 91  1  0
 89 93  1  0
 89 88  1  0
 90 89  2  0
 93 92  1  0
 95 93  1  0
 95 96  1  0
 95 94  1  0
M  ISO  4  14 100  22 100  55 101  56 101
M  END
>  <TORSDO>  (84) 
F 19

>  <SCORE>  (84) 
-11.918

>  <name>  (84) 
85

>  <ligand_id>  (84) 
85

>  <original_smiles>  (84) 
[H]c1c([H])c([H])c2c(c1[H])C([H])([H])C([H])([H])C([H])([H])C2([H])N([H])C(=O)C1([H])N(C(=O)C([H])(N([H])C(=O)C([H])(N([H])C([H])([H])[H])C([H])([H])[H])C(C([H])([H])[H])(C([H])([H])[H])C([H])([H])[H])C([H])([H])c2c([H])c(OC([H])([H])c3c([H])c(C([H])([H])[H])c(C4([H])C([H])([H])C([H])([H])C(N([H])C(=O)N5C([H])([H])C([H])([H])C([H])([H])C([H])(n6nc(-c7c([H])c([H])c(Oc8c([H])c([H])c(F)c([H])c8F)c([H])c7[H])c(C(=O)N([H])[H])c6N([H])[H])C5([H])[H])(C([H])([H])[H])C4([H])[H])c(C4([H])C([H])([H])C4([H])[H])c3[H])c([H])c([H])c2C1([H])[H]

>  <smiles>  (84) 
[H]c1c([H])c([H])c2c(c1[H])C([H])([H])C([H])([H])C([H])([H])C2([H])N([H])C(=O)C1([H])N(C(=O)C([H])(N([H])C(=O)C([H])(N([H])C([H])([H])[H])C([H])([H])[H])C(C([H])([H])[H])(C([H])([H])[H])C([H])([H])[H])C([H])([H])c2c([H])c(OC([H])([H])c3c([H])c(C([H])([H])[H])c(C4([H])C([H])([H])C([H])([H])C(N([H])C(=O)N5C([H])([H])C([H])([H])C([H])([H])C([H])(n6nc(-c7c([H])c([H])c(Oc8c([H])c([H])c(F)c([H])c8F)c([H])c7[H])c(C(=O)N([H])[H])c6N([H])[H])C5([H])[H])(C([H])([H])[H])C4([H])[H])c(C4([H])C([H])([H])C4([H])[H])c3[H])c([H])c([H])c2C1([H])[H]

$$$$
86:0:0
     RDKit          3D

 97107  0  0  1  0  0  0  0  0999 V2000
  -30.6470  -21.8730   19.4130 C   0  0  0  0  0  3  0  0  0  0  0  0
  -28.9490  -20.1340   20.6630 C   0  0  0  0  0  3  0  0  0  0  0  0
  -30.8520  -20.4950   19.2130 C   0  0  0  0  0  0  0  0  0  0  0  0
  -29.9880  -19.5780   19.8720 C   0  0  0  0  0  0  0  0  0  0  0  0
  -29.6000  -22.3330   20.2210 C   0  0  0  0  0  0  0  0  0  0  0  0
  -28.7560  -21.4740   20.8410 N   0  0  0  0  0  0  0  0  0  0  0  0
  -30.6160  -14.5770   19.9500 C   0  0  0  0  0  0  0  0  0  0  0  0
  -30.2560  -12.3920   18.8920 C   0  0  0  0  0  2  0  0  0  0  0  0
  -29.2230  -12.5880   17.7610 C   0  0  0  0  0  2  0  0  0  0  0  0
  -27.7810  -12.4870   18.3010 C   0  0  0  0  0  2  0  0  0  0  0  0
  -27.5450  -13.2830   19.6140 C   0  0  0  0  0  3  0  0  0  0  0  0
  -28.6970  -13.0910   20.6250 C   0  0  0  0  0  2  0  0  0  0  0  0
  -29.9550  -13.3890   19.9290 N   0  0  0  0  0  0  0  0  0  0  0  0
  -31.8040  -14.6720   19.6320 O   0  0  0  0  0  0  0  0  0  0  0  0
  -29.3230  -17.6000   18.4240 C   0  0  0  0  0  2  0  0  0  0  0  0
  -29.4970  -16.0870   18.4570 C   0  0  0  0  0  2  0  0  0  0  0  0
  -30.1570  -18.0590   19.6020 C   0  0  0  0  0  3  0  0  0  0  0  0
  -29.8540  -16.9390   20.6460 C   0  0  0  0  0  3  0  0  0  0  0  0
  -29.8070  -15.6730   19.8460 N   0  0  0  0  0  0  0  0  0  0  0  0
  -25.2190  -13.8700   20.5310 C   0  0  0  0  0  0  0  0  0  0  0  0
  -24.1770  -13.0880   20.9500 C   0  0  0  0  0  0  0  0  0  0  0  0
  -24.6300  -11.7370   20.8380 C   0  0  0  0  0  0  0  0  0  0  0  0
  -26.2410  -12.9940   20.1960 N   0  0  0  0  0  0  0  0  0  0  0  0
  -25.8930  -11.7060   20.4390 N   0  0  0  0  0  0  0  0  0  0  0  0
  -23.9130  -10.4720   21.0390 C   0  0  0  0  0  0  0  0  0  0  0  0
  -24.3820   -9.5000   21.9490 C   0  0  0  0  0  3  0  0  0  0  0  0
  -23.6670   -8.2970   22.1390 C   0  0  0  0  0  3  0  0  0  0  0  0
  -22.4730   -8.0610   21.4160 C   0  0  0  0  0  0  0  0  0  0  0  0
  -22.0280   -9.0220   20.4940 C   0  0  0  0  0  3  0  0  0  0  0  0
  -22.7420  -10.2150   20.3040 C   0  0  0  0  0  3  0  0  0  0  0  0
  -21.7260   -6.9120   21.5140 O   0  0  0  0  0  0  0  0  0  0  0  0
  -21.6710   -6.1870   22.6770 C   0  0  0  0  0  0  0  0  0  0  0  0
  -21.2260   -6.7560   23.8890 C   0  0  0  0  0  3  0  0  0  0  0  0
  -21.1230   -5.9570   25.0450 C   0  0  0  0  0  3  0  0  0  0  0  0
  -21.4550   -4.5890   24.9890 C   0  0  0  0  0  0  0  0  0  0  0  0
  -21.8920   -4.0210   23.7800 C   0  0  0  0  0  3  0  0  0  0  0  0
  -21.9990   -4.8180   22.6270 C   0  0  0  0  0  0  0  0  0  0  0  0
  -22.4020   -4.2620   21.4590 F   0  0  0  0  0  0  0  0  0  0  0  0
  -21.3480   -3.8180   26.0950 F   0  0  0  0  0  0  0  0  0  0  0  0
  -22.8080  -13.5600   21.3430 C   0  0  0  0  0  0  0  0  0  0  0  0
  -22.1450  -12.8370   22.2380 N   0  0  0  0  0  0  0  0  0  0  0  0
  -22.3370  -14.6040   20.8930 O   0  0  0  0  0  0  0  0  0  0  0  0
  -22.5400  -11.9890   22.6180 H   0  0  0  0  0  0  0  0  0  0  0  0
  -21.2290  -13.1340   22.5470 H   0  0  0  0  0  0  0  0  0  0  0  0
  -25.3810  -15.2460   20.3890 N   0  0  0  0  0  0  0  0  0  0  0  0
  -24.6290  -15.9010   20.5720 H   0  0  0  0  0  0  0  0  0  0  0  0
  -26.2230  -15.6880   20.0430 H   0  0  0  0  0  0  0  0  0  0  0  0
  -32.2160  -17.1950   21.7350 C   0  0  0  0  0  1  0  0  0  0  0  0
  -30.1710  -17.8130   23.0450 C   0  0  0  0  0  1  0  0  0  0  0  0
  -30.7190  -16.8930   21.9470 C   0  0  0  0  0  3  0  0  0  0  0  0
  -33.2080  -19.4000   18.6860 C   0  0  0  0  0  2  0  0  0  0  0  0
  -33.2470  -20.8160   18.1680 C   0  0  0  0  0  2  0  0  0  0  0  0
  -31.9280  -20.0750   18.2450 C   0  0  0  0  0  3  0  0  0  0  0  0
  -29.4570  -23.7090   20.3470 O   0  0  0  0  0  0  0  0  0  0  0  0
  -28.3650  -24.3040   21.0600 C   0  0  0  0  0  2  0  0  0  0  0  0
  -28.6490  -25.8200   21.3090 C   0  0  0  0  0  2  0  0  0  0  0  0
  -28.4450  -26.6950   20.1810 O   0  0  0  0  0  0  0  0  0  0  0  0
  -24.5850  -31.8980   23.2180 C   0  0  0  0  0  0  0  0  0  0  0  0
  -27.2910  -27.4470   20.2030 C   0  0  0  0  0  0  0  0  0  0  0  0
  -23.4050  -30.4770   21.5690 C   0  0  0  0  0  3  0  0  0  0  0  0
  -24.8880  -28.9390   20.1670 C   0  0  0  0  0  0  0  0  0  0  0  0
  -25.9300  -30.8500   21.3980 C   0  0  0  0  0  2  0  0  0  0  0  0
  -26.0340  -29.4740   20.7700 C   0  0  0  0  0  0  0  0  0  0  0  0
  -27.2420  -28.7350   20.7860 C   0  0  0  0  0  3  0  0  0  0  0  0
  -26.1350  -26.9290   19.5880 C   0  0  0  0  0  3  0  0  0  0  0  0
  -24.9330  -27.6660   19.5710 C   0  0  0  0  0  3  0  0  0  0  0  0
  -23.6350  -29.7900   20.1960 C   0  0  0  0  0  2  0  0  0  0  0  0
  -24.6560  -31.0910   22.1190 N   0  0  0  0  0  0  0  0  0  0  0  0
  -23.4960  -32.1660   23.7440 O   0  0  0  0  0  0  0  0  0  0  0  0
  -22.7510  -29.4570   22.5300 C   0  0  0  0  0  0  0  0  0  0  0  0
  -21.4270  -29.2710   22.3970 N   0  0  0  0  0  0  0  0  0  0  0  0
  -23.4320  -28.8370   23.3510 O   0  0  0  0  0  0  0  0  0  0  0  0
  -20.9410  -29.8250   21.7070 H   0  0  0  0  0  0  0  0  0  0  0  0
  -18.0510  -28.0770   22.8820 C   0  0  0  0  0  0  0  0  0  0  0  0
  -20.6090  -28.3290   23.1610 C   0  0  0  0  0  3  0  0  0  0  0  0
  -20.7100  -26.9000   22.5780 C   0  0  0  0  0  2  0  0  0  0  0  0
  -19.6090  -26.5860   21.5600 C   0  0  0  0  0  2  0  0  0  0  0  0
  -18.2250  -26.7310   22.1990 C   0  0  0  0  0  2  0  0  0  0  0  0
  -19.1690  -28.8360   23.3170 C   0  0  0  0  0  0  0  0  0  0  0  0
  -18.9500  -30.1010   23.9080 C   0  0  0  0  0  3  0  0  0  0  0  0
  -17.6440  -30.6020   24.0720 C   0  0  0  0  0  3  0  0  0  0  0  0
  -16.5400  -29.8370   23.6560 C   0  0  0  0  0  3  0  0  0  0  0  0
  -16.7450  -28.5780   23.0630 C   0  0  0  0  0  3  0  0  0  0  0  0
  -25.8610  -32.5370   23.8480 C   0  0  0  0  0  3  0  0  0  0  0  0
  -25.5390  -33.9330   24.1780 N   0  0  0  0  0  0  0  0  0  0  0  0
  -25.8710  -34.9880   23.4220 C   0  0  0  0  0  0  0  0  0  0  0  0
  -26.5540  -34.8910   22.3990 O   0  0  0  0  0  0  0  0  0  0  0  0
  -24.9400  -34.0840   24.9750 H   0  0  0  0  0  0  0  0  0  0  0  0
  -24.1340  -36.7660   23.0430 C   0  0  0  0  0  1  0  0  0  0  0  0
  -25.3660  -36.3710   23.8750 C   0  0  0  0  0  3  0  0  0  0  0  0
  -27.4800  -37.2680   24.7430 C   0  0  0  0  0  1  0  0  0  0  0  0
  -26.3920  -37.4330   23.7830 N   0  0  0  0  0  0  0  0  0  0  0  0
  -25.9760  -38.3490   23.9280 H   0  0  0  0  0  0  0  0  0  0  0  0
  -26.3780  -31.7670   25.1250 C   0  0  1  0  0  0  0  0  0  0  0  0
  -25.2800  -31.5070   26.1840 C   0  0  0  0  0  1  0  0  0  0  0  0
  -26.9830  -30.4000   24.7290 C   0  0  0  0  0  1  0  0  0  0  0  0
  -27.5170  -32.5710   25.7970 C   0  0  0  0  0  1  0  0  0  0  0  0
  1  5  1  0
  2  6  1  0
  3  1  2  0
  3  4  1  0
  4  2  2  0
  5 54  1  0
  5  6  2  0
  8 13  1  0
  9 10  1  0
  9  8  1  0
 11 10  1  0
 11 23  1  0
 11 12  1  0
 13  7  1  0
 13 12  1  0
 14  7  2  0
 15 16  1  0
 15 17  1  0
 16 19  1  0
 17  4  1  0
 17 18  1  0
 18 50  1  0
 19  7  1  0
 19 18  1  0
 20 21  2  0
 21 40  1  0
 22 21  1  0
 22 25  1  0
 23 24  1  0
 23 20  1  0
 24 22  2  0
 25 26  1  0
 26 27  2  0
 28 31  1  0
 28 27  1  0
 29 28  2  0
 30 29  1  0
 30 25  2  0
 31 32  1  0
 32 33  1  0
 33 34  2  0
 35 34  1  0
 35 39  1  0
 36 35  2  0
 37 32  2  0
 37 36  1  0
 38 37  1  0
 40 41  1  0
 41 44  1  0
 41 43  1  0
 42 40  2  0
 45 20  1  0
 45 46  1  0
 47 45  1  0
 48 50  1  0
 50 49  1  0
 52 53  1  0
 52 51  1  0
 53 51  1  0
 53  3  1  0
 54 55  1  0
 55 56  1  0
 57 59  1  0
 57 56  1  0
 58 69  2  0
 59 64  1  0
 60 68  1  0
 60 70  1  0
 61 67  1  0
 61 63  1  0
 62 68  1  0
 63 64  2  0
 63 62  1  0
 65 59  2  0
 66 65  1  0
 66 61  2  0
 67 60  1  0
 68 58  1  0
 70 72  2  0
 71 70  1  0
 73 71  1  0
 74 83  2  0
 74 79  1  0
 75 71  1  0
 75 79  1  0
 76 75  1  0
 77 78  1  0
 77 76  1  0
 78 74  1  0
 79 80  2  0
 80 81  1  0
 82 81  2  0
 83 82  1  0
 84 58  1  0
 84 85  1  0
 84 94  1  0
 85 88  1  0
 86 90  1  0
 86 85  1  0
 87 86  2  0
 90 89  1  0
 92 90  1  0
 92 93  1  0
 92 91  1  0
 94 97  1  1
 94 95  1  0
 96 94  1  0
M  ISO  4   7 100  19 100  56 101  57 101
M  END
>  <TORSDO>  (85) 
F 21

>  <SCORE>  (85) 
-11.784

>  <name>  (85) 
86

>  <ligand_id>  (85) 
86

>  <original_smiles>  (85) 
[H]c1nc(OC([H])([H])C([H])([H])Oc2c([H])c([H])c3c(c2[H])C([H])([H])N(C(=O)C([H])(N([H])C(=O)C([H])(N([H])C([H])([H])[H])C([H])([H])[H])C(C([H])([H])[H])(C([H])([H])[H])C([H])([H])[H])C([H])(C(=O)N([H])C2([H])c4c([H])c([H])c([H])c([H])c4C([H])([H])C([H])([H])C2([H])[H])C3([H])[H])c([H])c(C2([H])C([H])([H])C2([H])[H])c1C1([H])C([H])([H])C([H])([H])N(C(=O)N2C([H])([H])C([H])([H])C([H])([H])C([H])(n3nc(-c4c([H])c([H])c(Oc5c([H])c([H])c(F)c([H])c5F)c([H])c4[H])c(C(=O)N([H])[H])c3N([H])[H])C2([H])[H])C1([H])C([H])(C([H])([H])[H])C([H])([H])[H]

>  <smiles>  (85) 
[H]c1nc(OC([H])([H])C([H])([H])Oc2c([H])c([H])c3c(c2[H])C([H])([H])N(C(=O)C([H])(N([H])C(=O)C([H])(N([H])C([H])([H])[H])C([H])([H])[H])C(C([H])([H])[H])(C([H])([H])[H])C([H])([H])[H])C([H])(C(=O)N([H])C2([H])c4c([H])c([H])c([H])c([H])c4C([H])([H])C([H])([H])C2([H])[H])C3([H])[H])c([H])c(C2([H])C([H])([H])C2([H])[H])c1C1([H])C([H])([H])C([H])([H])N(C(=O)N2C([H])([H])C([H])([H])C([H])([H])C([H])(n3nc(-c4c([H])c([H])c(Oc5c([H])c([H])c(F)c([H])c5F)c([H])c4[H])c(C(=O)N([H])[H])c3N([H])[H])C2([H])[H])C1([H])C([H])(C([H])([H])[H])C([H])([H])[H]

$$$$
87:0:0
     RDKit          3D

 94103  0  0  1  0  0  0  0  0999 V2000
  -30.8090  -20.2770   21.2790 C   0  0  0  0  0  3  0  0  0  0  0  0
  -29.1450  -21.0000   19.2080 C   0  0  0  0  0  0  0  0  0  0  0  0
  -30.4180  -19.2590   20.3810 C   0  0  0  0  0  0  0  0  0  0  0  0
  -29.5630  -19.6410   19.3130 C   0  0  0  0  0  0  0  0  0  0  0  0
  -29.5810  -21.9290   20.1850 C   0  0  0  0  0  0  0  0  0  0  0  0
  -29.0580  -18.6110   18.3060 C   0  0  0  0  0  1  0  0  0  0  0  0
  -30.4080  -21.5690   21.1920 N   0  0  0  0  0  0  0  0  0  0  0  0
  -28.6220  -21.4530   16.6560 C   0  0  0  0  0  2  0  0  0  0  0  0
  -28.3360  -22.7500   17.3640 C   0  0  0  0  0  2  0  0  0  0  0  0
  -28.1990  -21.4370   18.1120 C   0  0  0  0  0  3  0  0  0  0  0  0
  -30.9350  -17.8070   20.5740 C   0  0  0  0  0  2  0  0  0  0  0  0
  -29.8660  -16.8450   21.1660 C   0  0  0  0  0  2  0  0  0  0  0  0
  -30.7620  -14.5130   20.4200 C   0  0  0  0  0  0  0  0  0  0  0  0
  -30.4590  -12.4190   19.1270 C   0  0  0  0  0  2  0  0  0  0  0  0
  -29.4770  -12.6970   17.9670 C   0  0  0  0  0  2  0  0  0  0  0  0
  -28.0110  -12.5510   18.4240 C   0  0  0  0  0  2  0  0  0  0  0  0
  -27.7230  -13.3070   19.7490 C   0  0  0  0  0  3  0  0  0  0  0  0
  -28.8020  -12.9710   20.8060 C   0  0  0  0  0  2  0  0  0  0  0  0
  -30.1220  -13.3200   20.2420 N   0  0  0  0  0  0  0  0  0  0  0  0
  -31.8090  -14.8080   19.8360 O   0  0  0  0  0  0  0  0  0  0  0  0
  -30.0880  -15.3790   21.2050 N   0  0  0  0  0  0  0  0  0  0  0  0
  -29.3680  -14.9030   21.7280 H   0  0  0  0  0  0  0  0  0  0  0  0
  -25.3420  -13.9200   20.5240 C   0  0  0  0  0  0  0  0  0  0  0  0
  -24.2740  -13.1470   20.8950 C   0  0  0  0  0  0  0  0  0  0  0  0
  -24.7190  -11.7930   20.8110 C   0  0  0  0  0  0  0  0  0  0  0  0
  -26.3740  -13.0340   20.2440 N   0  0  0  0  0  0  0  0  0  0  0  0
  -26.0010  -11.7490   20.4700 N   0  0  0  0  0  0  0  0  0  0  0  0
  -23.9850  -10.5330   20.9810 C   0  0  0  0  0  0  0  0  0  0  0  0
  -24.4000   -9.5550   21.9110 C   0  0  0  0  0  3  0  0  0  0  0  0
  -23.6660   -8.3580   22.0670 C   0  0  0  0  0  3  0  0  0  0  0  0
  -22.5040   -8.1330   21.2940 C   0  0  0  0  0  0  0  0  0  0  0  0
  -22.1100   -9.0980   20.3510 C   0  0  0  0  0  3  0  0  0  0  0  0
  -22.8430  -10.2860   20.1930 C   0  0  0  0  0  3  0  0  0  0  0  0
  -21.7420   -6.9900   21.3600 O   0  0  0  0  0  0  0  0  0  0  0  0
  -21.6470   -6.2550   22.5150 C   0  0  0  0  0  0  0  0  0  0  0  0
  -21.1170   -6.8010   23.7050 C   0  0  0  0  0  3  0  0  0  0  0  0
  -20.9730   -5.9910   24.8480 C   0  0  0  0  0  3  0  0  0  0  0  0
  -21.3480   -4.6340   24.8020 C   0  0  0  0  0  0  0  0  0  0  0  0
  -21.8710   -4.0880   23.6170 C   0  0  0  0  0  3  0  0  0  0  0  0
  -22.0170   -4.8960   22.4760 C   0  0  0  0  0  0  0  0  0  0  0  0
  -22.5020   -4.3590   21.3310 F   0  0  0  0  0  0  0  0  0  0  0  0
  -21.2020   -3.8530   25.8980 F   0  0  0  0  0  0  0  0  0  0  0  0
  -22.8890  -13.6290   21.2180 C   0  0  0  0  0  0  0  0  0  0  0  0
  -22.1700  -12.9050   22.0700 N   0  0  0  0  0  0  0  0  0  0  0  0
  -22.4530  -14.6810   20.7530 O   0  0  0  0  0  0  0  0  0  0  0  0
  -22.5360  -12.0510   22.4650 H   0  0  0  0  0  0  0  0  0  0  0  0
  -21.2410  -13.2060   22.3270 H   0  0  0  0  0  0  0  0  0  0  0  0
  -25.5200  -15.2920   20.3860 N   0  0  0  0  0  0  0  0  0  0  0  0
  -24.7690  -15.9550   20.5430 H   0  0  0  0  0  0  0  0  0  0  0  0
  -26.3740  -15.7300   20.0640 H   0  0  0  0  0  0  0  0  0  0  0  0
  -29.1250  -23.2440   20.1200 O   0  0  0  0  0  0  0  0  0  0  0  0
  -29.5170  -24.2510   21.0750 C   0  0  0  0  0  2  0  0  0  0  0  0
  -28.4040  -25.3310   21.2320 C   0  0  0  0  0  2  0  0  0  0  0  0
  -28.6190  -26.6200   20.6000 O   0  0  0  0  0  0  0  0  0  0  0  0
  -24.6960  -31.9250   23.3700 C   0  0  0  0  0  0  0  0  0  0  0  0
  -27.4750  -27.3970   20.5150 C   0  0  0  0  0  0  0  0  0  0  0  0
  -23.5600  -30.4700   21.7270 C   0  0  0  0  0  3  0  0  0  0  0  0
  -25.0750  -28.9060   20.3950 C   0  0  0  0  0  0  0  0  0  0  0  0
  -26.0930  -30.8370   21.6100 C   0  0  0  0  0  2  0  0  0  0  0  0
  -26.2120  -29.4490   21.0090 C   0  0  0  0  0  0  0  0  0  0  0  0
  -27.4180  -28.7040   21.0600 C   0  0  0  0  0  3  0  0  0  0  0  0
  -26.3230  -26.8830   19.8800 C   0  0  0  0  0  3  0  0  0  0  0  0
  -25.1280  -27.6230   19.8260 C   0  0  0  0  0  3  0  0  0  0  0  0
  -23.8230  -29.7550   20.3750 C   0  0  0  0  0  2  0  0  0  0  0  0
  -24.8000  -31.0940   22.2930 N   0  0  0  0  0  0  0  0  0  0  0  0
  -23.5950  -32.2020   23.8640 O   0  0  0  0  0  0  0  0  0  0  0  0
  -22.8810  -29.4710   22.6930 C   0  0  0  0  0  0  0  0  0  0  0  0
  -21.5670  -29.2600   22.5130 N   0  0  0  0  0  0  0  0  0  0  0  0
  -23.5380  -28.8870   23.5580 O   0  0  0  0  0  0  0  0  0  0  0  0
  -21.1000  -29.7820   21.7840 H   0  0  0  0  0  0  0  0  0  0  0  0
  -18.1850  -28.0530   22.9280 C   0  0  0  0  0  0  0  0  0  0  0  0
  -20.7320  -28.3340   23.2770 C   0  0  0  0  0  3  0  0  0  0  0  0
  -20.8610  -26.8900   22.7380 C   0  0  0  0  0  2  0  0  0  0  0  0
  -19.7950  -26.5370   21.6970 C   0  0  0  0  0  2  0  0  0  0  0  0
  -18.3920  -26.6910   22.2910 C   0  0  0  0  0  2  0  0  0  0  0  0
  -19.2860  -28.8330   23.3770 C   0  0  0  0  0  0  0  0  0  0  0  0
  -19.0400  -30.1080   23.9300 C   0  0  0  0  0  3  0  0  0  0  0  0
  -17.7280  -30.6040   24.0410 C   0  0  0  0  0  3  0  0  0  0  0  0
  -16.6420  -29.8230   23.6110 C   0  0  0  0  0  3  0  0  0  0  0  0
  -16.8710  -28.5490   23.0590 C   0  0  0  0  0  3  0  0  0  0  0  0
  -25.9540  -32.5860   24.0150 C   0  0  0  0  0  3  0  0  0  0  0  0
  -25.6230  -33.9900   24.2930 N   0  0  0  0  0  0  0  0  0  0  0  0
  -25.9910  -35.0240   23.5270 C   0  0  0  0  0  0  0  0  0  0  0  0
  -26.7150  -34.9000   22.5350 O   0  0  0  0  0  0  0  0  0  0  0  0
  -24.9910  -34.1630   25.0620 H   0  0  0  0  0  0  0  0  0  0  0  0
  -24.3010  -36.8140   23.0140 C   0  0  0  0  0  1  0  0  0  0  0  0
  -25.4760  -36.4210   23.9230 C   0  0  0  0  0  3  0  0  0  0  0  0
  -27.5370  -37.3230   24.9050 C   0  0  0  0  0  1  0  0  0  0  0  0
  -26.5170  -37.4710   23.8710 N   0  0  0  0  0  0  0  0  0  0  0  0
  -26.1030  -38.3950   23.9640 H   0  0  0  0  0  0  0  0  0  0  0  0
  -26.4340  -31.8560   25.3290 C   0  0  1  0  0  0  0  0  0  0  0  0
  -25.3030  -31.6200   26.3580 C   0  0  0  0  0  1  0  0  0  0  0  0
  -27.0610  -30.4830   24.9930 C   0  0  0  0  0  1  0  0  0  0  0  0
  -27.5420  -32.6880   26.0170 C   0  0  0  0  0  1  0  0  0  0  0  0
  2  4  2  0
  2  5  1  0
  3 11  1  0
  3  1  2  0
  4  3  1  0
  5  7  2  0
  6  4  1  0
  7  1  1  0
  8  9  1  0
  8 10  1  0
  9 10  1  0
 10  2  1  0
 11 12  1  0
 12 21  1  0
 13 21  1  0
 14 19  1  0
 15 16  1  0
 15 14  1  0
 17 16  1  0
 17 26  1  0
 17 18  1  0
 19 13  1  0
 19 18  1  0
 20 13  2  0
 21 22  1  0
 23 24  2  0
 24 43  1  0
 25 24  1  0
 25 28  1  0
 26 27  1  0
 26 23  1  0
 27 25  2  0
 28 29  1  0
 29 30  2  0
 31 34  1  0
 31 30  1  0
 32 31  2  0
 33 32  1  0
 33 28  2  0
 34 35  1  0
 35 36  1  0
 36 37  2  0
 38 37  1  0
 38 42  1  0
 39 38  2  0
 40 35  2  0
 40 39  1  0
 41 40  1  0
 43 44  1  0
 44 47  1  0
 44 46  1  0
 45 43  2  0
 48 23  1  0
 48 49  1  0
 50 48  1  0
 51  5  1  0
 51 52  1  0
 52 53  1  0
 54 53  1  0
 55 66  2  0
 56 54  1  0
 56 61  1  0
 57 65  1  0
 57 67  1  0
 58 60  1  0
 59 65  1  0
 60 61  2  0
 60 59  1  0
 62 56  2  0
 63 62  1  0
 63 58  2  0
 64 58  1  0
 64 57  1  0
 65 55  1  0
 67 69  2  0
 68 67  1  0
 70 68  1  0
 71 80  2  0
 71 76  1  0
 72 68  1  0
 72 76  1  0
 73 72  1  0
 74 75  1  0
 74 73  1  0
 75 71  1  0
 76 77  2  0
 77 78  1  0
 79 78  2  0
 80 79  1  0
 81 55  1  0
 81 82  1  0
 81 91  1  0
 82 85  1  0
 83 87  1  0
 83 82  1  0
 84 83  2  0
 87 86  1  0
 89 87  1  0
 89 90  1  0
 89 88  1  0
 91 94  1  1
 91 92  1  0
 93 91  1  0
M  ISO  4  13 100  21 100  53 101  54 101
M  END
>  <TORSDO>  (86) 
F 22

>  <SCORE>  (86) 
-12.959

>  <name>  (86) 
87

>  <ligand_id>  (86) 
87

>  <original_smiles>  (86) 
[H]c1nc(OC([H])([H])C([H])([H])Oc2c([H])c([H])c3c(c2[H])C([H])([H])N(C(=O)C([H])(N([H])C(=O)C([H])(N([H])C([H])([H])[H])C([H])([H])[H])C(C([H])([H])[H])(C([H])([H])[H])C([H])([H])[H])C([H])(C(=O)N([H])C2([H])c4c([H])c([H])c([H])c([H])c4C([H])([H])C([H])([H])C2([H])[H])C3([H])[H])c(C2([H])C([H])([H])C2([H])[H])c(C([H])([H])[H])c1C([H])([H])C([H])([H])N([H])C(=O)N1C([H])([H])C([H])([H])C([H])([H])C([H])(n2nc(-c3c([H])c([H])c(Oc4c([H])c([H])c(F)c([H])c4F)c([H])c3[H])c(C(=O)N([H])[H])c2N([H])[H])C1([H])[H]

>  <smiles>  (86) 
[H]c1nc(OC([H])([H])C([H])([H])Oc2c([H])c([H])c3c(c2[H])C([H])([H])N(C(=O)C([H])(N([H])C(=O)C([H])(N([H])C([H])([H])[H])C([H])([H])[H])C(C([H])([H])[H])(C([H])([H])[H])C([H])([H])[H])C([H])(C(=O)N([H])C2([H])c4c([H])c([H])c([H])c([H])c4C([H])([H])C([H])([H])C2([H])[H])C3([H])[H])c(C2([H])C([H])([H])C2([H])[H])c(C([H])([H])[H])c1C([H])([H])C([H])([H])N([H])C(=O)N1C([H])([H])C([H])([H])C([H])([H])C([H])(n2nc(-c3c([H])c([H])c(Oc4c([H])c([H])c(F)c([H])c4F)c([H])c3[H])c(C(=O)N([H])[H])c2N([H])[H])C1([H])[H]

$$$$
88:0:0
     RDKit          3D

 94104  0  0  1  0  0  0  0  0999 V2000
  -30.4330  -19.8940   19.1490 C   0  0  0  0  0  3  0  0  0  0  0  0
  -28.1690  -19.4600   19.5780 C   0  0  0  0  0  3  0  0  0  0  0  0
  -30.7380  -18.4600   19.2980 C   0  0  0  0  0  0  0  0  0  0  0  0
  -28.4380  -18.0540   19.7650 C   0  0  0  0  0  0  0  0  0  0  0  0
  -29.7380  -17.4540   19.6120 C   0  0  0  0  0  0  0  0  0  0  0  0
  -29.1180  -20.4700   19.2450 C   0  0  0  0  0  0  0  0  0  0  0  0
  -30.6880  -14.8280   19.3900 C   0  0  0  0  0  0  0  0  0  0  0  0
  -30.5590  -12.4430   18.5420 C   0  0  0  0  0  2  0  0  0  0  0  0
  -29.5100  -12.3580   17.4070 C   0  0  0  0  0  2  0  0  0  0  0  0
  -28.0940  -12.1470   17.9780 C   0  0  0  0  0  2  0  0  0  0  0  0
  -27.7890  -13.0980   19.1640 C   0  0  0  0  0  3  0  0  0  0  0  0
  -28.9450  -13.1320   20.1870 C   0  0  0  0  0  2  0  0  0  0  0  0
  -30.1540  -13.5430   19.4590 N   0  0  0  0  0  0  0  0  0  0  0  0
  -31.8360  -14.9480   18.9510 O   0  0  0  0  0  0  0  0  0  0  0  0
  -29.8360  -15.9190   19.6910 N   0  0  0  0  0  0  0  0  0  0  0  0
  -29.0000  -15.5400   20.1050 H   0  0  0  0  0  0  0  0  0  0  0  0
  -25.5050  -13.6840   20.1630 C   0  0  0  0  0  0  0  0  0  0  0  0
  -24.4790  -12.9140   20.6350 C   0  0  0  0  0  0  0  0  0  0  0  0
  -24.9150  -11.5580   20.5110 C   0  0  0  0  0  0  0  0  0  0  0  0
  -26.5050  -12.8030   19.7900 N   0  0  0  0  0  0  0  0  0  0  0  0
  -26.1640  -11.5150   20.0600 N   0  0  0  0  0  0  0  0  0  0  0  0
  -24.1920  -10.3010   20.7370 C   0  0  0  0  0  0  0  0  0  0  0  0
  -24.5820   -9.3960   21.7490 C   0  0  0  0  0  3  0  0  0  0  0  0
  -23.8560   -8.2030   21.9600 C   0  0  0  0  0  3  0  0  0  0  0  0
  -22.7280   -7.9070   21.1580 C   0  0  0  0  0  0  0  0  0  0  0  0
  -22.3590   -8.8000   20.1370 C   0  0  0  0  0  3  0  0  0  0  0  0
  -23.0850   -9.9830   19.9260 C   0  0  0  0  0  3  0  0  0  0  0  0
  -21.9810   -6.7600   21.2750 O   0  0  0  0  0  0  0  0  0  0  0  0
  -21.6870   -6.2130   22.4980 C   0  0  0  0  0  0  0  0  0  0  0  0
  -21.0360   -6.9530   23.5080 C   0  0  0  0  0  3  0  0  0  0  0  0
  -20.6900   -6.3320   24.7250 C   0  0  0  0  0  3  0  0  0  0  0  0
  -20.9860   -4.9720   24.9310 C   0  0  0  0  0  0  0  0  0  0  0  0
  -21.6310   -4.2310   23.9250 C   0  0  0  0  0  3  0  0  0  0  0  0
  -21.9780   -4.8490   22.7110 C   0  0  0  0  0  0  0  0  0  0  0  0
  -22.5800   -4.1260   21.7360 F   0  0  0  0  0  0  0  0  0  0  0  0
  -20.6470   -4.3720   26.0970 F   0  0  0  0  0  0  0  0  0  0  0  0
  -23.1280  -13.4010   21.0720 C   0  0  0  0  0  0  0  0  0  0  0  0
  -22.5010  -12.7080   22.0150 N   0  0  0  0  0  0  0  0  0  0  0  0
  -22.6420  -14.4330   20.6100 O   0  0  0  0  0  0  0  0  0  0  0  0
  -22.9100  -11.8750   22.4110 H   0  0  0  0  0  0  0  0  0  0  0  0
  -21.6010  -13.0200   22.3520 H   0  0  0  0  0  0  0  0  0  0  0  0
  -25.6570  -15.0550   19.9890 N   0  0  0  0  0  0  0  0  0  0  0  0
  -24.8780  -15.6850   20.1420 H   0  0  0  0  0  0  0  0  0  0  0  0
  -26.3910  -15.4670   19.4290 H   0  0  0  0  0  0  0  0  0  0  0  0
  -33.1300  -18.7470   18.1800 C   0  0  0  0  0  2  0  0  0  0  0  0
  -32.5620  -17.4190   17.7450 C   0  0  0  0  0  2  0  0  0  0  0  0
  -32.1560  -18.0110   19.0760 C   0  0  0  0  0  3  0  0  0  0  0  0
  -26.7920  -17.0420   21.5270 C   0  0  0  0  0  2  0  0  0  0  0  0
  -27.3140  -15.8570   20.7540 C   0  0  0  0  0  2  0  0  0  0  0  0
  -27.2330  -17.2150   20.0900 C   0  0  0  0  0  3  0  0  0  0  0  0
  -28.6000  -21.8150   18.9910 O   0  0  0  0  0  0  0  0  0  0  0  0
  -29.2390  -23.1860   18.7540 C   0  0  0  0  0  2  0  0  0  0  0  0
  -28.2650  -24.5290   18.4690 C   0  0  0  0  0  2  0  0  0  0  0  0
  -28.5460  -26.0450   18.6650 O   0  0  0  0  0  0  0  0  0  0  0  0
  -24.8990  -31.0670   22.6260 C   0  0  0  0  0  0  0  0  0  0  0  0
  -27.4670  -26.9930   18.7880 C   0  0  0  0  0  0  0  0  0  0  0  0
  -23.6780  -29.9580   20.7950 C   0  0  0  0  0  3  0  0  0  0  0  0
  -25.1140  -28.6740   19.0970 C   0  0  0  0  0  0  0  0  0  0  0  0
  -26.2260  -30.2850   20.6330 C   0  0  0  0  0  2  0  0  0  0  0  0
  -26.3020  -29.0300   19.7490 C   0  0  0  0  0  0  0  0  0  0  0  0
  -27.4780  -28.2100   19.5780 C   0  0  0  0  0  3  0  0  0  0  0  0
  -26.2470  -26.7370   18.1200 C   0  0  0  0  0  3  0  0  0  0  0  0
  -25.0980  -27.5420   18.2710 C   0  0  0  0  0  3  0  0  0  0  0  0
  -23.8780  -29.5320   19.3160 C   0  0  0  0  0  2  0  0  0  0  0  0
  -24.9550  -30.4480   21.4080 N   0  0  0  0  0  0  0  0  0  0  0  0
  -23.8210  -31.2430   23.2150 O   0  0  0  0  0  0  0  0  0  0  0  0
  -23.0310  -28.7900   21.5800 C   0  0  0  0  0  0  0  0  0  0  0  0
  -21.6970  -28.6520   21.4810 N   0  0  0  0  0  0  0  0  0  0  0  0
  -23.7290  -28.0190   22.2420 O   0  0  0  0  0  0  0  0  0  0  0  0
  -21.1880  -29.3270   20.9290 H   0  0  0  0  0  0  0  0  0  0  0  0
  -18.3140  -27.4780   22.0240 C   0  0  0  0  0  0  0  0  0  0  0  0
  -20.8960  -27.5920   22.1010 C   0  0  0  0  0  3  0  0  0  0  0  0
  -20.8750  -26.3220   21.2200 C   0  0  0  0  0  2  0  0  0  0  0  0
  -19.6770  -26.2680   20.2670 C   0  0  0  0  0  2  0  0  0  0  0  0
  -18.3630  -26.3100   21.0530 C   0  0  0  0  0  2  0  0  0  0  0  0
  -19.5030  -28.0910   22.5040 C   0  0  0  0  0  0  0  0  0  0  0  0
  -19.3990  -29.1930   23.3790 C   0  0  0  0  0  3  0  0  0  0  0  0
  -18.1390  -29.6840   23.7730 C   0  0  0  0  0  3  0  0  0  0  0  0
  -16.9660  -29.0660   23.3050 C   0  0  0  0  0  3  0  0  0  0  0  0
  -17.0560  -27.9620   22.4380 C   0  0  0  0  0  3  0  0  0  0  0  0
  -26.1840  -31.6020   23.3280 C   0  0  0  0  0  3  0  0  0  0  0  0
  -25.8470  -32.8890   23.9570 N   0  0  0  0  0  0  0  0  0  0  0  0
  -26.0910  -34.0900   23.4150 C   0  0  0  0  0  0  0  0  0  0  0  0
  -26.6900  -34.2320   22.3470 O   0  0  0  0  0  0  0  0  0  0  0  0
  -25.3030  -32.8480   24.8050 H   0  0  0  0  0  0  0  0  0  0  0  0
  -24.2680  -35.8190   23.5730 C   0  0  0  0  0  1  0  0  0  0  0  0
  -25.5920  -35.3320   24.1820 C   0  0  0  0  0  3  0  0  0  0  0  0
  -27.7550  -36.1580   25.0030 C   0  0  0  0  0  1  0  0  0  0  0  0
  -26.5690  -36.4440   24.2010 N   0  0  0  0  0  0  0  0  0  0  0  0
  -26.1400  -37.2920   24.5600 H   0  0  0  0  0  0  0  0  0  0  0  0
  -26.7640  -30.6010   24.4020 C   0  0  1  0  0  0  0  0  0  0  0  0
  -25.7130  -30.1020   25.4200 C   0  0  0  0  0  1  0  0  0  0  0  0
  -27.3850  -29.3610   23.7210 C   0  0  0  0  0  1  0  0  0  0  0  0
  -27.9040  -31.2880   25.1930 C   0  0  0  0  0  1  0  0  0  0  0  0
  1  6  2  0
  1  3  1  0
  2  4  2  0
  3  5  2  0
  4 50  1  0
  5 15  1  0
  5  4  1  0
  6  2  1  0
  7 13  1  0
  7 15  1  0
  8 13  1  0
  9 10  1  0
  9  8  1  0
 11 10  1  0
 11 20  1  0
 11 12  1  0
 13 12  1  0
 14  7  2  0
 15 16  1  0
 17 18  2  0
 18 37  1  0
 19 18  1  0
 19 22  1  0
 20 21  1  0
 20 17  1  0
 21 19  2  0
 22 23  1  0
 23 24  2  0
 25 28  1  0
 25 24  1  0
 26 25  2  0
 27 26  1  0
 27 22  2  0
 28 29  1  0
 29 34  2  0
 29 30  1  0
 30 31  2  0
 31 32  1  0
 32 36  1  0
 33 32  2  0
 34 33  1  0
 35 34  1  0
 37 38  1  0
 38 41  1  0
 38 40  1  0
 39 37  2  0
 42 43  1  0
 42 17  1  0
 44 42  1  0
 45 47  1  0
 46 45  1  0
 46 47  1  0
 47  3  1  0
 49 48  1  0
 50 49  1  0
 50 48  1  0
 51  6  1  0
 52 51  1  0
 53 54  1  0
 53 52  1  0
 54 56  1  0
 55 66  2  0
 56 61  1  0
 57 65  1  0
 57 67  1  0
 58 64  1  0
 58 60  1  0
 59 65  1  0
 60 59  1  0
 61 60  2  0
 62 63  1  0
 62 56  2  0
 63 58  2  0
 64 57  1  0
 65 55  1  0
 67 69  2  0
 68 67  1  0
 70 68  1  0
 71 80  2  0
 71 76  1  0
 72 68  1  0
 72 76  1  0
 73 72  1  0
 74 75  1  0
 74 73  1  0
 75 71  1  0
 76 77  2  0
 77 78  1  0
 79 78  2  0
 80 79  1  0
 81 55  1  0
 81 82  1  0
 81 91  1  0
 82 85  1  0
 83 82  1  0
 83 87  1  0
 84 83  2  0
 87 86  1  0
 87 89  1  0
 89 90  1  0
 89 88  1  0
 91 94  1  1
 91 92  1  0
 93 91  1  0
M  ISO  4   7 100  15 100  53 101  54 101
M  END
>  <TORSDO>  (87) 
F 21

>  <SCORE>  (87) 
-7.456

>  <name>  (87) 
88

>  <ligand_id>  (87) 
88

>  <original_smiles>  (87) 
[H]c1c([H])c([H])c2c(c1[H])C([H])([H])C([H])([H])C([H])([H])C2([H])N([H])C(=O)C1([H])N(C(=O)C([H])(N([H])C(=O)C([H])(N([H])C([H])([H])[H])C([H])([H])[H])C(C([H])([H])[H])(C([H])([H])[H])C([H])([H])[H])C([H])([H])c2c([H])c(OC([H])([H])C([H])([H])Oc3c([H])c(C4([H])C([H])([H])C4([H])[H])c(N([H])C(=O)N4C([H])([H])C([H])([H])C([H])([H])C([H])(n5nc(-c6c([H])c([H])c(Oc7c([H])c([H])c(F)c([H])c7F)c([H])c6[H])c(C(=O)N([H])[H])c5N([H])[H])C4([H])[H])c(C4([H])C([H])([H])C4([H])[H])c3[H])c([H])c([H])c2C1([H])[H]

>  <smiles>  (87) 
[H]c1c([H])c([H])c2c(c1[H])C([H])([H])C([H])([H])C([H])([H])C2([H])N([H])C(=O)C1([H])N(C(=O)C([H])(N([H])C(=O)C([H])(N([H])C([H])([H])[H])C([H])([H])[H])C(C([H])([H])[H])(C([H])([H])[H])C([H])([H])[H])C([H])([H])c2c([H])c(OC([H])([H])C([H])([H])Oc3c([H])c(C4([H])C([H])([H])C4([H])[H])c(N([H])C(=O)N4C([H])([H])C([H])([H])C([H])([H])C([H])(n5nc(-c6c([H])c([H])c(Oc7c([H])c([H])c(F)c([H])c7F)c([H])c6[H])c(C(=O)N([H])[H])c5N([H])[H])C4([H])[H])c(C4([H])C([H])([H])C4([H])[H])c3[H])c([H])c([H])c2C1([H])[H]

$$$$
89:0:0
     RDKit          3D

100110  0  0  1  0  0  0  0  0999 V2000
  -28.9850  -21.4850   20.4310 C   0  0  0  0  0  3  0  0  0  0  0  0
  -30.2060  -22.6460   18.9910 C   0  0  0  0  0  0  0  0  0  0  0  0
  -29.0400  -22.7430   19.8280 C   0  0  0  0  0  0  0  0  0  0  0  0
  -30.8280  -21.4250   19.1570 C   0  0  0  0  0  0  0  0  0  0  0  0
  -30.0230  -20.6440   19.9900 N   0  0  0  0  0  0  0  0  0  0  0  0
  -30.6670  -18.0430   19.5160 C   0  0  0  0  0  2  0  0  0  0  0  0
  -29.4340  -18.2250   21.1590 C   0  0  0  0  0  2  0  0  0  0  0  0
  -30.3570  -19.2670   20.4500 C   0  0  0  0  0  3  0  0  0  0  0  0
  -30.4680  -17.1240   20.7450 C   0  0  0  0  0  3  0  0  0  0  0  0
  -30.7040  -14.6500   20.0850 C   0  0  0  0  0  0  0  0  0  0  0  0
  -30.3930  -12.4560   18.9650 C   0  0  0  0  0  2  0  0  0  0  0  0
  -29.3840  -12.6210   17.8090 C   0  0  0  0  0  2  0  0  0  0  0  0
  -27.9370  -12.4640   18.3190 C   0  0  0  0  0  2  0  0  0  0  0  0
  -27.6570  -13.3030   19.5940 C   0  0  0  0  0  3  0  0  0  0  0  0
  -28.7740  -13.1170   20.6440 C   0  0  0  0  0  2  0  0  0  0  0  0
  -30.0480  -13.4540   19.9950 N   0  0  0  0  0  0  0  0  0  0  0  0
  -31.8530  -14.7890   19.6580 O   0  0  0  0  0  0  0  0  0  0  0  0
  -29.9750  -15.7290   20.5040 N   0  0  0  0  0  0  0  0  0  0  0  0
  -29.0220  -15.5320   20.7720 H   0  0  0  0  0  0  0  0  0  0  0  0
  -25.3150  -13.9030   20.4650 C   0  0  0  0  0  0  0  0  0  0  0  0
  -24.2640  -13.1290   20.8740 C   0  0  0  0  0  0  0  0  0  0  0  0
  -24.7110  -11.7750   20.7820 C   0  0  0  0  0  0  0  0  0  0  0  0
  -26.3370  -13.0210   20.1490 N   0  0  0  0  0  0  0  0  0  0  0  0
  -25.9820  -11.7350   20.4000 N   0  0  0  0  0  0  0  0  0  0  0  0
  -23.9860  -10.5140   20.9800 C   0  0  0  0  0  0  0  0  0  0  0  0
  -24.4330   -9.5400   21.8990 C   0  0  0  0  0  3  0  0  0  0  0  0
  -23.7080   -8.3430   22.0850 C   0  0  0  0  0  3  0  0  0  0  0  0
  -22.5210   -8.1120   21.3490 C   0  0  0  0  0  0  0  0  0  0  0  0
  -22.0930   -9.0740   20.4180 C   0  0  0  0  0  3  0  0  0  0  0  0
  -22.8190  -10.2620   20.2300 C   0  0  0  0  0  3  0  0  0  0  0  0
  -21.7660   -6.9690   21.4450 O   0  0  0  0  0  0  0  0  0  0  0  0
  -21.7030   -6.2420   22.6070 C   0  0  0  0  0  0  0  0  0  0  0  0
  -21.2070   -6.7970   23.8070 C   0  0  0  0  0  3  0  0  0  0  0  0
  -21.0960   -5.9950   24.9600 C   0  0  0  0  0  3  0  0  0  0  0  0
  -21.4690   -4.6380   24.9130 C   0  0  0  0  0  0  0  0  0  0  0  0
  -21.9570   -4.0820   23.7190 C   0  0  0  0  0  3  0  0  0  0  0  0
  -22.0710   -4.8820   22.5670 C   0  0  0  0  0  0  0  0  0  0  0  0
  -22.5220   -4.3360   21.4120 F   0  0  0  0  0  0  0  0  0  0  0  0
  -21.3540   -3.8650   26.0190 F   0  0  0  0  0  0  0  0  0  0  0  0
  -22.8890  -13.6090   21.2360 C   0  0  0  0  0  0  0  0  0  0  0  0
  -22.2010  -12.8920   22.1180 N   0  0  0  0  0  0  0  0  0  0  0  0
  -22.4350  -14.6550   20.7720 O   0  0  0  0  0  0  0  0  0  0  0  0
  -22.5820  -12.0460   22.5140 H   0  0  0  0  0  0  0  0  0  0  0  0
  -21.2800  -13.1960   22.4020 H   0  0  0  0  0  0  0  0  0  0  0  0
  -25.4820  -15.2760   20.3130 N   0  0  0  0  0  0  0  0  0  0  0  0
  -24.7230  -15.9290   20.4760 H   0  0  0  0  0  0  0  0  0  0  0  0
  -26.3040  -15.7190   19.9240 H   0  0  0  0  0  0  0  0  0  0  0  0
  -31.5970  -24.8270   18.4870 C   0  0  0  0  0  2  0  0  0  0  0  0
  -30.2830  -25.1120   17.8110 C   0  0  0  0  0  2  0  0  0  0  0  0
  -30.7380  -23.6800   18.0040 C   0  0  0  0  0  3  0  0  0  0  0  0
  -33.3340  -21.8140   18.7240 C   0  0  0  0  0  1  0  0  0  0  0  0
  -31.9560  -20.4340   17.1180 C   0  0  0  0  0  1  0  0  0  0  0  0
  -32.1210  -20.8820   18.5770 C   0  0  0  0  0  3  0  0  0  0  0  0
  -28.0290  -23.9470   19.9330 C   0  0  0  0  0  3  0  0  0  0  0  0
  -26.7020  -23.4220   20.3160 N   0  0  0  0  0  4  0  0  0  0  0  0
  -26.7220  -23.0470   21.2490 H   0  0  0  0  0  0  0  0  0  0  0  0
  -26.4350  -22.6860   19.6860 H   0  0  0  0  0  0  0  0  0  0  0  0
  -25.9970  -24.1350   20.2790 H   0  0  0  0  0  0  0  0  0  0  0  0
  -28.4180  -25.2130   20.8260 C   0  0  0  0  0  2  0  0  0  0  0  0
  -28.4000  -26.5800   20.2710 O   0  0  0  0  0  0  0  0  0  0  0  0
  -24.5780  -31.9120   23.2480 C   0  0  0  0  0  0  0  0  0  0  0  0
  -27.2420  -27.3510   20.2880 C   0  0  0  0  0  0  0  0  0  0  0  0
  -23.3940  -30.4890   21.6110 C   0  0  0  0  0  3  0  0  0  0  0  0
  -24.8640  -28.9180   20.2300 C   0  0  0  0  0  0  0  0  0  0  0  0
  -25.9280  -30.8230   21.4460 C   0  0  0  0  0  2  0  0  0  0  0  0
  -26.0190  -29.4340   20.8300 C   0  0  0  0  0  0  0  0  0  0  0  0
  -27.2140  -28.6610   20.8460 C   0  0  0  0  0  3  0  0  0  0  0  0
  -26.0700  -26.8740   19.6670 C   0  0  0  0  0  3  0  0  0  0  0  0
  -24.8880  -27.6420   19.6410 C   0  0  0  0  0  3  0  0  0  0  0  0
  -23.6230  -29.7880   20.2460 C   0  0  0  0  0  2  0  0  0  0  0  0
  -24.6520  -31.0940   22.1600 N   0  0  0  0  0  0  0  0  0  0  0  0
  -23.4900  -32.1940   23.7700 O   0  0  0  0  0  0  0  0  0  0  0  0
  -22.7260  -29.4840   22.5790 C   0  0  0  0  0  0  0  0  0  0  0  0
  -21.4010  -29.3050   22.4420 N   0  0  0  0  0  0  0  0  0  0  0  0
  -23.3990  -28.8670   23.4090 O   0  0  0  0  0  0  0  0  0  0  0  0
  -20.9190  -29.8540   21.7450 H   0  0  0  0  0  0  0  0  0  0  0  0
  -18.0130  -28.1540   22.9550 C   0  0  0  0  0  0  0  0  0  0  0  0
  -20.5750  -28.3780   23.2160 C   0  0  0  0  0  3  0  0  0  0  0  0
  -20.6560  -26.9470   22.6370 C   0  0  0  0  0  2  0  0  0  0  0  0
  -19.5450  -26.6400   21.6270 C   0  0  0  0  0  2  0  0  0  0  0  0
  -18.1670  -26.8030   22.2770 C   0  0  0  0  0  2  0  0  0  0  0  0
  -19.1430  -28.9010   23.3820 C   0  0  0  0  0  0  0  0  0  0  0  0
  -18.9440  -30.1660   23.9750 C   0  0  0  0  0  3  0  0  0  0  0  0
  -17.6470  -30.6840   24.1480 C   0  0  0  0  0  3  0  0  0  0  0  0
  -16.5310  -29.9340   23.7380 C   0  0  0  0  0  3  0  0  0  0  0  0
  -16.7150  -28.6720   23.1480 C   0  0  0  0  0  3  0  0  0  0  0  0
  -25.8550  -32.5530   23.8760 C   0  0  0  0  0  3  0  0  0  0  0  0
  -25.5420  -33.9550   24.1860 N   0  0  0  0  0  0  0  0  0  0  0  0
  -25.8860  -34.9990   23.4210 C   0  0  0  0  0  0  0  0  0  0  0  0
  -26.5730  -34.8840   22.4010 O   0  0  0  0  0  0  0  0  0  0  0  0
  -24.9380  -34.1190   24.9780 H   0  0  0  0  0  0  0  0  0  0  0  0
  -24.1810  -36.8000   23.0010 C   0  0  0  0  0  1  0  0  0  0  0  0
  -25.3920  -36.3930   23.8550 C   0  0  0  0  0  3  0  0  0  0  0  0
  -27.4970  -37.2770   24.7600 C   0  0  0  0  0  1  0  0  0  0  0  0
  -26.4350  -37.4390   23.7720 N   0  0  0  0  0  0  0  0  0  0  0  0
  -26.0270  -38.3630   23.8920 H   0  0  0  0  0  0  0  0  0  0  0  0
  -26.3590  -31.7990   25.1680 C   0  0  1  0  0  0  0  0  0  0  0  0
  -25.2530  -31.5660   26.2220 C   0  0  0  0  0  1  0  0  0  0  0  0
  -26.9550  -30.4210   24.7980 C   0  0  0  0  0  1  0  0  0  0  0  0
  -27.4950  -32.6070   25.8380 C   0  0  0  0  0  1  0  0  0  0  0  0
  2  4  2  0
  2  3  1  0
  3 54  1  0
  3  1  2  0
  4  5  1  0
  5  1  1  0
  5  8  1  0
  6  9  1  0
  8  6  1  0
  8  7  1  0
  9 18  1  0
  9  7  1  0
 10 18  1  0
 11 16  1  0
 12 13  1  0
 12 11  1  0
 14 13  1  0
 14 23  1  0
 14 15  1  0
 16 10  1  0
 16 15  1  0
 17 10  2  0
 18 19  1  0
 20 21  2  0
 21 40  1  0
 22 21  1  0
 22 25  1  0
 23 24  1  0
 23 20  1  0
 24 22  2  0
 25 26  1  0
 26 27  2  0
 28 31  1  0
 28 27  1  0
 29 28  2  0
 30 29  1  0
 30 25  2  0
 31 32  1  0
 32 33  1  0
 33 34  2  0
 35 34  1  0
 35 39  1  0
 36 35  2  0
 37 32  2  0
 37 36  1  0
 38 37  1  0
 40 41  1  0
 41 44  1  0
 41 43  1  0
 42 40  2  0
 45 20  1  0
 45 46  1  0
 47 45  1  0
 49 50  1  0
 49 48  1  0
 50 48  1  0
 50  2  1  0
 52 53  1  0
 53 51  1  0
 53  4  1  0
 54 55  1  0
 54 59  1  0
 55 56  1  0
 57 55  1  0
 58 55  1  0
 60 62  1  0
 60 59  1  0
 61 72  2  0
 62 67  1  0
 63 71  1  0
 63 73  1  0
 64 70  1  0
 64 66  1  0
 65 71  1  0
 66 67  2  0
 66 65  1  0
 68 62  2  0
 69 68  1  0
 69 64  2  0
 70 63  1  0
 71 61  1  0
 73 75  2  0
 74 73  1  0
 76 74  1  0
 77 86  2  0
 77 82  1  0
 78 74  1  0
 78 82  1  0
 79 78  1  0
 80 81  1  0
 80 79  1  0
 81 77  1  0
 82 83  2  0
 83 84  1  0
 85 84  2  0
 86 85  1  0
 87 61  1  0
 87 88  1  0
 87 97  1  0
 88 91  1  0
 89 93  1  0
 89 88  1  0
 90 89  2  0
 93 92  1  0
 95 93  1  0
 95 96  1  0
 95 94  1  0
 97100  1  1
 97 98  1  0
 99 97  1  0
M  ISO  4  10 100  18 100  59 101  60 101
M  END
>  <TORSDO>  (88) 
F 22

>  <SCORE>  (88) 
-13.246

>  <name>  (88) 
89

>  <ligand_id>  (88) 
89

>  <original_smiles>  (88) 
[H]c1c([H])c([H])c2c(c1[H])C([H])([H])C([H])([H])C([H])([H])C2([H])N([H])C(=O)C1([H])N(C(=O)C([H])(N([H])C(=O)C([H])(N([H])C([H])([H])[H])C([H])([H])[H])C(C([H])([H])[H])(C([H])([H])[H])C([H])([H])[H])C([H])([H])c2c([H])c(OC([H])([H])C([H])(c3c(C4([H])C([H])([H])C4([H])[H])c(C([H])(C([H])([H])[H])C([H])([H])[H])n(C4([H])C([H])([H])C([H])(N([H])C(=O)N5C([H])([H])C([H])([H])C([H])([H])C([H])(n6nc(-c7c([H])c([H])c(Oc8c([H])c([H])c(F)c([H])c8F)c([H])c7[H])c(C(=O)N([H])[H])c6N([H])[H])C5([H])[H])C4([H])[H])c3[H])[N+]([H])([H])[H])c([H])c([H])c2C1([H])[H]

>  <smiles>  (88) 
[H]c1c([H])c([H])c2c(c1[H])C([H])([H])C([H])([H])C([H])([H])C2([H])N([H])C(=O)C1([H])N(C(=O)C([H])(N([H])C(=O)C([H])(N([H])C([H])([H])[H])C([H])([H])[H])C(C([H])([H])[H])(C([H])([H])[H])C([H])([H])[H])C([H])([H])c2c([H])c(OC([H])([H])C([H])(c3c(C4([H])C([H])([H])C4([H])[H])c(C([H])(C([H])([H])[H])C([H])([H])[H])n(C4([H])C([H])([H])C([H])(N([H])C(=O)N5C([H])([H])C([H])([H])C([H])([H])C([H])(n6nc(-c7c([H])c([H])c(Oc8c([H])c([H])c(F)c([H])c8F)c([H])c7[H])c(C(=O)N([H])[H])c6N([H])[H])C5([H])[H])C4([H])[H])c3[H])[N+]([H])([H])[H])c([H])c([H])c2C1([H])[H]

$$$$
90:0:0
     RDKit          3D

 95104  0  0  1  0  0  0  0  0999 V2000
  -29.6130  -23.7520   19.4280 C   0  0  0  0  0  3  0  0  0  0  0  0
  -29.6030  -22.3730   19.0680 C   0  0  0  0  0  3  0  0  0  0  0  0
  -27.6750  -23.3930   20.8110 C   0  0  0  0  0  3  0  0  0  0  0  0
  -28.6330  -24.2920   20.2970 C   0  0  0  0  0  0  0  0  0  0  0  0
  -28.6110  -21.4750   19.5460 C   0  0  0  0  0  0  0  0  0  0  0  0
  -27.6560  -22.0170   20.4620 C   0  0  0  0  0  0  0  0  0  0  0  0
  -26.5710  -21.1640   21.1010 C   0  0  0  0  0  1  0  0  0  0  0  0
  -28.6680  -25.7550   20.8250 C   0  0  0  0  0  2  0  0  0  0  0  0
  -28.5280  -26.8420   19.8800 O   0  0  0  0  0  0  0  0  0  0  0  0
  -24.6030  -31.8870   23.1840 C   0  0  0  0  0  0  0  0  0  0  0  0
  -27.3670  -27.5910   19.9630 C   0  0  0  0  0  0  0  0  0  0  0  0
  -23.4440  -30.5160   21.4840 C   0  0  0  0  0  3  0  0  0  0  0  0
  -24.9450  -29.0650   20.0120 C   0  0  0  0  0  0  0  0  0  0  0  0
  -25.9640  -30.9360   21.3160 C   0  0  0  0  0  2  0  0  0  0  0  0
  -26.0890  -29.5870   20.6300 C   0  0  0  0  0  0  0  0  0  0  0  0
  -27.3060  -28.8570   20.6040 C   0  0  0  0  0  3  0  0  0  0  0  0
  -26.2080  -27.0930   19.3400 C   0  0  0  0  0  3  0  0  0  0  0  0
  -25.0010  -27.8190   19.3640 C   0  0  0  0  0  3  0  0  0  0  0  0
  -23.6800  -29.8950   20.0800 C   0  0  0  0  0  2  0  0  0  0  0  0
  -24.6890  -31.1280   22.0540 N   0  0  0  0  0  0  0  0  0  0  0  0
  -23.5130  -32.1090   23.7270 O   0  0  0  0  0  0  0  0  0  0  0  0
  -22.8130  -29.4430   22.4020 C   0  0  0  0  0  0  0  0  0  0  0  0
  -21.4900  -29.2450   22.2760 N   0  0  0  0  0  0  0  0  0  0  0  0
  -23.5110  -28.7950   23.1860 O   0  0  0  0  0  0  0  0  0  0  0  0
  -20.9870  -29.8240   21.6170 H   0  0  0  0  0  0  0  0  0  0  0  0
  -18.1330  -28.0060   22.7780 C   0  0  0  0  0  0  0  0  0  0  0  0
  -20.6950  -28.2590   23.0080 C   0  0  0  0  0  3  0  0  0  0  0  0
  -20.7890  -26.8660   22.3440 C   0  0  0  0  0  2  0  0  0  0  0  0
  -19.6650  -26.5990   21.3380 C   0  0  0  0  0  2  0  0  0  0  0  0
  -18.2980  -26.7000   22.0200 C   0  0  0  0  0  2  0  0  0  0  0  0
  -19.2580  -28.7460   23.2280 C   0  0  0  0  0  0  0  0  0  0  0  0
  -19.0490  -29.9710   23.8970 C   0  0  0  0  0  3  0  0  0  0  0  0
  -17.7470  -30.4560   24.1220 C   0  0  0  0  0  3  0  0  0  0  0  0
  -16.6360  -29.7120   23.6900 C   0  0  0  0  0  3  0  0  0  0  0  0
  -16.8300  -28.4890   23.0240 C   0  0  0  0  0  3  0  0  0  0  0  0
  -25.8680  -32.5280   23.8350 C   0  0  0  0  0  3  0  0  0  0  0  0
  -26.3740  -31.7510   25.1120 C   0  0  1  0  0  0  0  0  0  0  0  0
  -25.2640  -31.4820   26.1560 C   0  0  0  0  0  1  0  0  0  0  0  0
  -26.9890  -30.3890   24.7130 C   0  0  0  0  0  1  0  0  0  0  0  0
  -27.4970  -32.5570   25.8060 C   0  0  0  0  0  1  0  0  0  0  0  0
  -25.5360  -33.9200   24.1730 N   0  0  0  0  0  0  0  0  0  0  0  0
  -25.8640  -34.9830   23.4270 C   0  0  0  0  0  0  0  0  0  0  0  0
  -26.5480  -34.8980   22.4040 O   0  0  0  0  0  0  0  0  0  0  0  0
  -24.9310  -34.0590   24.9690 H   0  0  0  0  0  0  0  0  0  0  0  0
  -24.1180  -36.7560   23.0620 C   0  0  0  0  0  1  0  0  0  0  0  0
  -25.3510  -36.3600   23.8900 C   0  0  0  0  0  3  0  0  0  0  0  0
  -27.4580  -37.2680   24.7670 C   0  0  0  0  0  1  0  0  0  0  0  0
  -26.3720  -37.4290   23.8030 N   0  0  0  0  0  0  0  0  0  0  0  0
  -25.9510  -38.3420   23.9490 H   0  0  0  0  0  0  0  0  0  0  0  0
  -28.4990  -20.0030   19.0010 C   0  0  0  0  0  3  0  0  0  0  0  0
  -31.3820  -14.8530   19.7100 C   0  0  0  0  0  0  0  0  0  0  0  0
  -31.0100  -12.5150   18.9980 C   0  0  0  0  0  2  0  0  0  0  0  0
  -30.0300  -12.4850   17.8070 C   0  0  0  0  0  2  0  0  0  0  0  0
  -28.5740  -12.4360   18.3080 C   0  0  0  0  0  2  0  0  0  0  0  0
  -28.2800  -13.4870   19.4130 C   0  0  0  0  0  3  0  0  0  0  0  0
  -29.3800  -13.4900   20.4940 C   0  0  0  0  0  2  0  0  0  0  0  0
  -30.6630  -13.6940   19.8130 N   0  0  0  0  0  0  0  0  0  0  0  0
  -32.5600  -14.8200   19.3350 O   0  0  0  0  0  0  0  0  0  0  0  0
  -30.1650  -18.0900   18.1350 C   0  0  0  0  0  2  0  0  0  0  0  0
  -29.2360  -17.9280   20.4240 C   0  0  0  0  0  2  0  0  0  0  0  0
  -31.1760  -16.9810   18.5350 C   0  0  0  0  0  2  0  0  0  0  0  0
  -30.3010  -16.8400   20.7540 C   0  0  0  0  0  2  0  0  0  0  0  0
  -29.6550  -18.9490   19.3230 C   0  0  0  0  0  3  0  0  0  0  0  0
  -30.6910  -16.0380   19.5780 N   0  0  0  0  0  0  0  0  0  0  0  0
  -26.0240  -14.2630   20.3670 C   0  0  0  0  0  0  0  0  0  0  0  0
  -24.9150  -13.5730   20.7720 C   0  0  0  0  0  0  0  0  0  0  0  0
  -25.2310  -12.1880   20.6170 C   0  0  0  0  0  0  0  0  0  0  0  0
  -26.9520  -13.3040   19.9910 N   0  0  0  0  0  0  0  0  0  0  0  0
  -26.4840  -12.0460   20.2020 N   0  0  0  0  0  0  0  0  0  0  0  0
  -24.3940  -10.9920   20.7830 C   0  0  0  0  0  0  0  0  0  0  0  0
  -24.7580   -9.9530   21.6660 C   0  0  0  0  0  3  0  0  0  0  0  0
  -23.9260   -8.8220   21.8220 C   0  0  0  0  0  3  0  0  0  0  0  0
  -22.7170   -8.7250   21.0940 C   0  0  0  0  0  0  0  0  0  0  0  0
  -22.3700   -9.7540   20.1980 C   0  0  0  0  0  3  0  0  0  0  0  0
  -23.2020  -10.8750   20.0400 C   0  0  0  0  0  3  0  0  0  0  0  0
  -21.8590   -7.6540   21.1630 O   0  0  0  0  0  0  0  0  0  0  0  0
  -21.7250   -6.9120   22.3090 C   0  0  0  0  0  0  0  0  0  0  0  0
  -21.3140   -7.4940   23.5290 C   0  0  0  0  0  3  0  0  0  0  0  0
  -21.1220   -6.6830   24.6650 C   0  0  0  0  0  3  0  0  0  0  0  0
  -21.3280   -5.2920   24.5830 C   0  0  0  0  0  0  0  0  0  0  0  0
  -21.7290   -4.7110   23.3680 C   0  0  0  0  0  3  0  0  0  0  0  0
  -21.9240   -5.5190   22.2330 C   0  0  0  0  0  0  0  0  0  0  0  0
  -22.2910   -4.9510   21.0590 F   0  0  0  0  0  0  0  0  0  0  0  0
  -21.1340   -4.5120   25.6720 F   0  0  0  0  0  0  0  0  0  0  0  0
  -23.5990  -14.1640   21.1860 C   0  0  0  0  0  0  0  0  0  0  0  0
  -22.8800  -13.4940   22.0790 N   0  0  0  0  0  0  0  0  0  0  0  0
  -23.2220  -15.2520   20.7530 O   0  0  0  0  0  0  0  0  0  0  0  0
  -23.1990  -12.6120   22.4510 H   0  0  0  0  0  0  0  0  0  0  0  0
  -21.9970  -13.8690   22.3970 H   0  0  0  0  0  0  0  0  0  0  0  0
  -26.3160  -15.6190   20.2640 N   0  0  0  0  0  0  0  0  0  0  0  0
  -25.6340  -16.3370   20.4790 H   0  0  0  0  0  0  0  0  0  0  0  0
  -27.1870  -15.9890   19.9070 H   0  0  0  0  0  0  0  0  0  0  0  0
  -28.7090  -20.6680   16.4630 C   0  0  0  0  0  1  0  0  0  0  0  0
  -26.4460  -20.4280   17.5040 C   0  0  0  0  0  1  0  0  0  0  0  0
  -27.9030  -19.9340   17.5530 C   0  0  0  0  0  3  0  0  0  0  0  0
  1  4  1  0
  2  1  2  0
  2  5  1  0
  4  3  2  0
  4  8  1  0
  5  6  2  0
  6  3  1  0
  6  7  1  0
  9 11  1  0
  9  8  1  0
 10 21  2  0
 11 16  1  0
 12 20  1  0
 12 22  1  0
 13 19  1  0
 13 15  1  0
 14 20  1  0
 15 14  1  0
 16 15  2  0
 17 18  1  0
 17 11  2  0
 18 13  2  0
 19 12  1  0
 20 10  1  0
 22 24  2  0
 23 22  1  0
 25 23  1  0
 26 35  2  0
 26 31  1  0
 27 23  1  0
 27 31  1  0
 28 27  1  0
 29 30  1  0
 29 28  1  0
 30 26  1  0
 31 32  2  0
 32 33  1  0
 34 33  2  0
 35 34  1  0
 36 10  1  0
 36 41  1  0
 36 37  1  0
 37 40  1  1
 37 38  1  0
 39 37  1  0
 41 44  1  0
 42 46  1  0
 42 41  1  0
 43 42  2  0
 46 45  1  0
 48 46  1  0
 48 49  1  0
 48 47  1  0
 50 95  1  0
 50  5  1  0
 51 57  1  0
 52 57  1  0
 53 54  1  0
 53 52  1  0
 55 54  1  0
 55 68  1  0
 55 56  1  0
 57 56  1  0
 58 51  2  0
 59 61  1  0
 59 63  1  0
 60 62  1  0
 61 64  1  0
 63 50  1  0
 63 60  1  0
 64 51  1  0
 64 62  1  0
 65 66  2  0
 66 85  1  0
 67 66  1  0
 67 70  1  0
 68 69  1  0
 68 65  1  0
 69 67  2  0
 70 71  1  0
 71 72  2  0
 73 76  1  0
 73 72  1  0
 74 73  2  0
 75 74  1  0
 75 70  2  0
 76 77  1  0
 77 78  1  0
 78 79  2  0
 80 79  1  0
 80 84  1  0
 81 80  2  0
 82 77  2  0
 82 81  1  0
 83 82  1  0
 85 86  1  0
 86 89  1  0
 86 88  1  0
 87 85  2  0
 90 65  1  0
 90 91  1  0
 92 90  1  0
 93 95  1  0
 94 95  1  0
M  ISO  4   8 101   9 101  51 100  64 100
M  END
>  <TORSDO>  (89) 
F 19

>  <SCORE>  (89) 
-11.435

>  <name>  (89) 
90

>  <ligand_id>  (89) 
90

>  <original_smiles>  (89) 
[H]c1c([H])c([H])c2c(c1[H])C([H])([H])C([H])([H])C([H])([H])C2([H])N([H])C(=O)C1([H])N(C(=O)C([H])(N([H])C(=O)C([H])(N([H])C([H])([H])[H])C([H])([H])[H])C(C([H])([H])[H])(C([H])([H])[H])C([H])([H])[H])C([H])([H])c2c([H])c(OC([H])([H])c3c([H])c([H])c(C([H])(C([H])(C([H])([H])[H])C([H])([H])[H])C4([H])C([H])([H])C([H])([H])N(C(=O)N5C([H])([H])C([H])([H])C([H])([H])C([H])(n6nc(-c7c([H])c([H])c(Oc8c([H])c([H])c(F)c([H])c8F)c([H])c7[H])c(C(=O)N([H])[H])c6N([H])[H])C5([H])[H])C([H])([H])C4([H])[H])c(C([H])([H])[H])c3[H])c([H])c([H])c2C1([H])[H]

>  <smiles>  (89) 
[H]c1c([H])c([H])c2c(c1[H])C([H])([H])C([H])([H])C([H])([H])C2([H])N([H])C(=O)C1([H])N(C(=O)C([H])(N([H])C(=O)C([H])(N([H])C([H])([H])[H])C([H])([H])[H])C(C([H])([H])[H])(C([H])([H])[H])C([H])([H])[H])C([H])([H])c2c([H])c(OC([H])([H])c3c([H])c([H])c(C([H])(C([H])(C([H])([H])[H])C([H])([H])[H])C4([H])C([H])([H])C([H])([H])N(C(=O)N5C([H])([H])C([H])([H])C([H])([H])C([H])(n6nc(-c7c([H])c([H])c(Oc8c([H])c([H])c(F)c([H])c8F)c([H])c7[H])c(C(=O)N([H])[H])c6N([H])[H])C5([H])[H])C([H])([H])C4([H])[H])c(C([H])([H])[H])c3[H])c([H])c([H])c2C1([H])[H]

$$$$
91:0:0
     RDKit          3D

 85 93  0  0  1  0  0  0  0  0999 V2000
  -29.5500  -21.3650   18.9700 C   0  0  0  0  0  3  0  0  0  0  0  0
  -29.8910  -19.7350   18.9790 C   0  0  0  0  0  3  0  0  0  0  0  0
  -28.5600  -20.3190   20.7340 C   0  0  0  0  0  2  0  0  0  0  0  0
  -28.8830  -22.0450   20.2550 C   0  0  0  0  0  3  0  0  0  0  0  0
  -29.6080  -18.8990   20.3060 C   0  0  0  0  0  3  0  0  0  0  0  0
  -30.2430  -15.7380   20.2350 C   0  0  0  0  0  0  0  0  0  0  0  0
  -30.3550  -13.1890   19.4200 C   0  0  0  0  0  2  0  0  0  0  0  0
  -29.4640  -12.7590   18.2200 C   0  0  0  0  0  2  0  0  0  0  0  0
  -28.0480  -12.3930   18.6880 C   0  0  0  0  0  2  0  0  0  0  0  0
  -27.5320  -13.3980   19.7410 C   0  0  0  0  0  3  0  0  0  0  0  0
  -28.5640  -13.7340   20.8440 C   0  0  0  0  0  2  0  0  0  0  0  0
  -29.7230  -14.3670   20.1710 N   0  0  0  0  0  0  0  0  0  0  0  0
  -31.4770  -15.6730   20.0740 O   0  0  0  0  0  0  0  0  0  0  0  0
  -29.4780  -17.1070   20.2920 N   0  0  0  0  0  0  0  0  0  0  0  0
  -28.4980  -16.8680   20.3580 H   0  0  0  0  0  0  0  0  0  0  0  0
  -25.1740  -13.9100   20.5300 C   0  0  0  0  0  0  0  0  0  0  0  0
  -24.1220  -13.1200   20.8980 C   0  0  0  0  0  0  0  0  0  0  0  0
  -24.6010  -11.7740   20.8530 C   0  0  0  0  0  0  0  0  0  0  0  0
  -26.2220  -13.0480   20.2700 N   0  0  0  0  0  0  0  0  0  0  0  0
  -25.8930  -11.7540   20.5320 N   0  0  0  0  0  0  0  0  0  0  0  0
  -23.8810  -10.5060   21.0340 C   0  0  0  0  0  0  0  0  0  0  0  0
  -24.3060   -9.5430   21.9750 C   0  0  0  0  0  3  0  0  0  0  0  0
  -23.5820   -8.3430   22.1470 C   0  0  0  0  0  3  0  0  0  0  0  0
  -22.4190   -8.0980   21.3790 C   0  0  0  0  0  0  0  0  0  0  0  0
  -22.0140   -9.0500   20.4280 C   0  0  0  0  0  3  0  0  0  0  0  0
  -22.7380  -10.2410   20.2540 C   0  0  0  0  0  3  0  0  0  0  0  0
  -21.6680   -6.9500   21.4610 O   0  0  0  0  0  0  0  0  0  0  0  0
  -21.5880   -6.2220   22.6220 C   0  0  0  0  0  0  0  0  0  0  0  0
  -21.0950   -6.7830   23.8200 C   0  0  0  0  0  3  0  0  0  0  0  0
  -20.9650   -5.9810   24.9710 C   0  0  0  0  0  3  0  0  0  0  0  0
  -21.3180   -4.6200   24.9250 C   0  0  0  0  0  0  0  0  0  0  0  0
  -21.8030   -4.0580   23.7310 C   0  0  0  0  0  3  0  0  0  0  0  0
  -21.9350   -4.8570   22.5820 C   0  0  0  0  0  0  0  0  0  0  0  0
  -22.3830   -4.3050   21.4290 F   0  0  0  0  0  0  0  0  0  0  0  0
  -21.1860   -3.8470   26.0280 F   0  0  0  0  0  0  0  0  0  0  0  0
  -22.7230  -13.5870   21.1720 C   0  0  0  0  0  0  0  0  0  0  0  0
  -22.0040  -12.8870   22.0420 N   0  0  0  0  0  0  0  0  0  0  0  0
  -22.2780  -14.6080   20.6520 O   0  0  0  0  0  0  0  0  0  0  0  0
  -22.3780  -12.0610   22.4850 H   0  0  0  0  0  0  0  0  0  0  0  0
  -21.0650  -13.1820   22.2690 H   0  0  0  0  0  0  0  0  0  0  0  0
  -25.3230  -15.2830   20.3610 N   0  0  0  0  0  0  0  0  0  0  0  0
  -24.5480  -15.9280   20.4740 H   0  0  0  0  0  0  0  0  0  0  0  0
  -26.1570  -15.7270   19.9980 H   0  0  0  0  0  0  0  0  0  0  0  0
  -27.9530  -23.7790   20.1800 C   0  0  0  0  0  2  0  0  0  0  0  0
  -28.1470  -25.5430   20.2390 O   0  0  0  0  0  0  0  0  0  0  0  0
  -24.6720  -31.8690   23.1900 C   0  0  0  0  0  0  0  0  0  0  0  0
  -27.1750  -26.7650   20.2000 C   0  0  0  0  0  0  0  0  0  0  0  0
  -23.4760  -30.4770   21.5560 C   0  0  0  0  0  3  0  0  0  0  0  0
  -24.9150  -28.8170   20.1440 C   0  0  0  0  0  0  0  0  0  0  0  0
  -26.0560  -30.6030   21.4310 C   0  0  0  0  0  2  0  0  0  0  0  0
  -26.1140  -29.1680   20.7750 C   0  0  0  0  0  0  0  0  0  0  0  0
  -27.2270  -28.1710   20.7680 C   0  0  0  0  0  3  0  0  0  0  0  0
  -25.9390  -26.6280   19.5160 C   0  0  0  0  0  3  0  0  0  0  0  0
  -24.8670  -27.5740   19.4890 C   0  0  0  0  0  3  0  0  0  0  0  0
  -23.7120  -29.7760   20.1860 C   0  0  0  0  0  2  0  0  0  0  0  0
  -24.7600  -31.0170   22.1120 N   0  0  0  0  0  0  0  0  0  0  0  0
  -23.5800  -32.1760   23.7010 O   0  0  0  0  0  0  0  0  0  0  0  0
  -22.7550  -29.5040   22.5300 C   0  0  0  0  0  0  0  0  0  0  0  0
  -21.4210  -29.3570   22.4060 N   0  0  0  0  0  0  0  0  0  0  0  0
  -23.4080  -28.8800   23.3690 O   0  0  0  0  0  0  0  0  0  0  0  0
  -20.9440  -29.9120   21.7090 H   0  0  0  0  0  0  0  0  0  0  0  0
  -18.0270  -28.1710   22.9330 C   0  0  0  0  0  0  0  0  0  0  0  0
  -20.5910  -28.4260   23.1810 C   0  0  0  0  0  3  0  0  0  0  0  0
  -20.6800  -26.9930   22.6060 C   0  0  0  0  0  2  0  0  0  0  0  0
  -19.5710  -26.6790   21.5960 C   0  0  0  0  0  2  0  0  0  0  0  0
  -18.1940  -26.8250   22.2470 C   0  0  0  0  0  2  0  0  0  0  0  0
  -19.1510  -28.9300   23.3560 C   0  0  0  0  0  0  0  0  0  0  0  0
  -18.9370  -30.1850   23.9630 C   0  0  0  0  0  3  0  0  0  0  0  0
  -17.6330  -30.6850   24.1460 C   0  0  0  0  0  3  0  0  0  0  0  0
  -16.5240  -29.9250   23.7350 C   0  0  0  0  0  3  0  0  0  0  0  0
  -16.7220  -28.6690   23.1340 C   0  0  0  0  0  3  0  0  0  0  0  0
  -25.9380  -32.5150   23.8300 C   0  0  0  0  0  3  0  0  0  0  0  0
  -25.6200  -33.9170   24.1680 N   0  0  0  0  0  0  0  0  0  0  0  0
  -25.9390  -34.9840   23.4210 C   0  0  0  0  0  0  0  0  0  0  0  0
  -26.5870  -34.8910   22.3760 O   0  0  0  0  0  0  0  0  0  0  0  0
  -25.0410  -34.0630   24.9820 H   0  0  0  0  0  0  0  0  0  0  0  0
  -24.1980  -36.7850   23.1460 C   0  0  0  0  0  1  0  0  0  0  0  0
  -25.4670  -36.3720   23.9070 C   0  0  0  0  0  3  0  0  0  0  0  0
  -27.6250  -37.2650   24.6720 C   0  0  0  0  0  1  0  0  0  0  0  0
  -26.4930  -37.4290   23.7630 N   0  0  0  0  0  0  0  0  0  0  0  0
  -26.0890  -38.3470   23.9240 H   0  0  0  0  0  0  0  0  0  0  0  0
  -26.4320  -31.7540   25.1240 C   0  0  1  0  0  0  0  0  0  0  0  0
  -25.3250  -31.5390   26.1840 C   0  0  0  0  0  1  0  0  0  0  0  0
  -27.0090  -30.3670   24.7670 C   0  0  0  0  0  1  0  0  0  0  0  0
  -27.5820  -32.5470   25.7900 C   0  0  0  0  0  1  0  0  0  0  0  0
  1  2  2  0
  1  4  1  0
  2  5  1  0
  4 44  1  0
  4  3  1  0
  5 14  1  0
  5  3  1  0
  6 14  1  0
  7 12  1  0
  8  9  1  0
  8  7  1  0
 10  9  1  0
 10 19  1  0
 10 11  1  0
 12  6  1  0
 12 11  1  0
 13  6  2  0
 14 15  1  0
 16 17  2  0
 17 36  1  0
 18 17  1  0
 18 21  1  0
 19 16  1  0
 19 20  1  0
 20 18  2  0
 21 22  1  0
 22 23  2  0
 24 27  1  0
 24 23  1  0
 25 24  2  0
 26 25  1  0
 26 21  2  0
 27 28  1  0
 28 29  1  0
 29 30  2  0
 31 30  1  0
 31 35  1  0
 32 31  2  0
 33 28  2  0
 33 32  1  0
 34 33  1  0
 36 37  1  0
 37 40  1  0
 37 39  1  0
 38 36  2  0
 41 42  1  0
 41 16  1  0
 43 41  1  0
 44 45  1  0
 46 57  2  0
 47 45  1  0
 47 52  1  0
 48 56  1  0
 48 58  1  0
 49 55  1  0
 49 51  1  0
 50 56  1  0
 51 50  1  0
 52 51  2  0
 53 47  2  0
 54 53  1  0
 54 49  2  0
 55 48  1  0
 56 46  1  0
 58 60  2  0
 59 58  1  0
 61 59  1  0
 62 71  2  0
 62 67  1  0
 63 59  1  0
 63 67  1  0
 64 63  1  0
 65 66  1  0
 65 64  1  0
 66 62  1  0
 67 68  2  0
 68 69  1  0
 70 69  2  0
 71 70  1  0
 72 46  1  0
 72 73  1  0
 72 82  1  0
 73 76  1  0
 74 78  1  0
 74 73  1  0
 75 74  2  0
 78 77  1  0
 80 78  1  0
 80 81  1  0
 80 79  1  0
 82 85  1  1
 82 83  1  0
 84 82  1  0
M  ISO  4   6 100  14 100  44 101  45 101
M  END
>  <TORSDO>  (90) 
F 17

>  <SCORE>  (90) 
-16.399

>  <name>  (90) 
91

>  <ligand_id>  (90) 
91

>  <original_smiles>  (90) 
[H]c1c([H])c([H])c2c(c1[H])C([H])([H])C([H])([H])C([H])([H])C2([H])N([H])C(=O)C1([H])N(C(=O)C([H])(N([H])C(=O)C([H])(N([H])C([H])([H])[H])C([H])([H])[H])C(C([H])([H])[H])(C([H])([H])[H])C([H])([H])[H])C([H])([H])c2c([H])c(OC([H])([H])C3([H])C([H])([H])C([H])([H])C([H])(N([H])C(=O)N4C([H])([H])C([H])([H])C([H])([H])C([H])(n5nc(-c6c([H])c([H])c(Oc7c([H])c([H])c(F)c([H])c7F)c([H])c6[H])c(C(=O)N([H])[H])c5N([H])[H])C4([H])[H])C3([H])[H])c([H])c([H])c2C1([H])[H]

>  <smiles>  (90) 
[H]c1c([H])c([H])c2c(c1[H])C([H])([H])C([H])([H])C([H])([H])C2([H])N([H])C(=O)C1([H])N(C(=O)C([H])(N([H])C(=O)C([H])(N([H])C([H])([H])[H])C([H])([H])[H])C(C([H])([H])[H])(C([H])([H])[H])C([H])([H])[H])C([H])([H])c2c([H])c(OC([H])([H])C3([H])C([H])([H])C([H])([H])C([H])(N([H])C(=O)N4C([H])([H])C([H])([H])C([H])([H])C([H])(n5nc(-c6c([H])c([H])c(Oc7c([H])c([H])c(F)c([H])c7F)c([H])c6[H])c(C(=O)N([H])[H])c5N([H])[H])C4([H])[H])C3([H])[H])c([H])c([H])c2C1([H])[H]

$$$$
92:0:0
     RDKit          3D

 94102  0  0  1  0  0  0  0  0999 V2000
  -27.6910  -22.2110   21.4840 C   0  0  0  0  0  3  0  0  0  0  0  0
  -27.0900  -23.5490   21.0550 C   0  0  0  0  0  3  0  0  0  0  0  0
  -28.8400  -22.2970   20.4610 C   0  0  0  0  0  3  0  0  0  0  0  0
  -28.2050  -23.7890   20.0240 C   0  0  0  0  0  3  0  0  0  0  0  0
  -28.0070  -21.9580   22.9510 C   0  0  0  0  0  1  0  0  0  0  0  0
  -25.6250  -23.6200   20.6250 C   0  0  0  0  0  1  0  0  0  0  0  0
  -29.2730  -20.9340   19.5630 C   0  0  0  0  0  2  0  0  0  0  0  0
  -28.9200  -19.3110   19.8930 C   0  0  0  0  0  3  0  0  0  0  0  0
  -27.8560  -18.7940   18.9720 N   0  0  0  0  0  4  0  0  0  0  0  0
  -28.2400  -18.6400   18.0530 H   0  0  0  0  0  0  0  0  0  0  0  0
  -27.6100  -17.8910   19.3420 H   0  0  0  0  0  0  0  0  0  0  0  0
  -25.3630  -18.6020   18.7000 C   0  0  0  0  0  1  0  0  0  0  0  0
  -26.5640  -20.5110   17.6650 C   0  0  0  0  0  1  0  0  0  0  0  0
  -26.5700  -19.5270   18.8590 C   0  0  0  0  0  3  0  0  0  0  0  0
  -30.0860  -18.1000   19.8940 C   0  0  0  0  0  2  0  0  0  0  0  0
  -29.7940  -16.5020   20.3130 C   0  0  0  0  0  2  0  0  0  0  0  0
  -30.6590  -15.1600   19.8830 C   0  0  0  0  0  0  0  0  0  0  0  0
  -30.5570  -12.7900   18.9790 C   0  0  0  0  0  2  0  0  0  0  0  0
  -29.5640  -12.7400   17.7940 C   0  0  0  0  0  2  0  0  0  0  0  0
  -28.1170  -12.5440   18.2880 C   0  0  0  0  0  2  0  0  0  0  0  0
  -27.7730  -13.4930   19.4610 C   0  0  0  0  0  3  0  0  0  0  0  0
  -28.8680  -13.4890   20.5450 C   0  0  0  0  0  2  0  0  0  0  0  0
  -30.1240  -13.8790   19.8970 N   0  0  0  0  0  0  0  0  0  0  0  0
  -31.8120  -15.2850   19.4490 O   0  0  0  0  0  0  0  0  0  0  0  0
  -25.4790  -14.1320   20.3830 C   0  0  0  0  0  0  0  0  0  0  0  0
  -24.4030  -13.3950   20.7840 C   0  0  0  0  0  0  0  0  0  0  0  0
  -24.7900  -12.0280   20.6280 C   0  0  0  0  0  0  0  0  0  0  0  0
  -26.4550  -13.2260   20.0180 N   0  0  0  0  0  0  0  0  0  0  0  0
  -26.0550  -11.9480   20.2260 N   0  0  0  0  0  0  0  0  0  0  0  0
  -24.0120  -10.7950   20.7750 C   0  0  0  0  0  0  0  0  0  0  0  0
  -24.4640   -9.7320   21.5870 C   0  0  0  0  0  3  0  0  0  0  0  0
  -23.6910   -8.5600   21.7240 C   0  0  0  0  0  3  0  0  0  0  0  0
  -22.4520   -8.4440   21.0490 C   0  0  0  0  0  0  0  0  0  0  0  0
  -22.0180   -9.4960   20.2240 C   0  0  0  0  0  3  0  0  0  0  0  0
  -22.7910  -10.6610   20.0850 C   0  0  0  0  0  3  0  0  0  0  0  0
  -21.6460   -7.3340   21.1040 O   0  0  0  0  0  0  0  0  0  0  0  0
  -21.6480   -6.4960   22.1910 C   0  0  0  0  0  0  0  0  0  0  0  0
  -21.3530   -6.9630   23.4900 C   0  0  0  0  0  3  0  0  0  0  0  0
  -21.2990   -6.0580   24.5680 C   0  0  0  0  0  3  0  0  0  0  0  0
  -21.5280   -4.6870   24.3490 C   0  0  0  0  0  0  0  0  0  0  0  0
  -21.8140   -4.2180   23.0550 C   0  0  0  0  0  3  0  0  0  0  0  0
  -21.8720   -5.1210   21.9780 C   0  0  0  0  0  0  0  0  0  0  0  0
  -22.1280   -4.6620   20.7290 F   0  0  0  0  0  0  0  0  0  0  0  0
  -21.4650   -3.8150   25.3830 F   0  0  0  0  0  0  0  0  0  0  0  0
  -23.0560  -13.9240   21.1820 C   0  0  0  0  0  0  0  0  0  0  0  0
  -22.3590  -13.2110   22.0580 N   0  0  0  0  0  0  0  0  0  0  0  0
  -22.6400  -15.0010   20.7560 O   0  0  0  0  0  0  0  0  0  0  0  0
  -22.7180  -12.3400   22.4200 H   0  0  0  0  0  0  0  0  0  0  0  0
  -21.4560  -13.5380   22.3680 H   0  0  0  0  0  0  0  0  0  0  0  0
  -25.7080  -15.4920   20.2520 N   0  0  0  0  0  0  0  0  0  0  0  0
  -24.8870  -16.0850   20.3120 H   0  0  0  0  0  0  0  0  0  0  0  0
  -26.3340  -15.7660   19.5080 H   0  0  0  0  0  0  0  0  0  0  0  0
  -28.8220  -25.2890   20.2690 C   0  0  0  0  0  2  0  0  0  0  0  0
  -28.4250  -26.6450   19.6970 O   0  0  0  0  0  0  0  0  0  0  0  0
  -24.5540  -31.8580   23.1200 C   0  0  0  0  0  0  0  0  0  0  0  0
  -27.2470  -27.4070   19.9010 C   0  0  0  0  0  0  0  0  0  0  0  0
  -23.3570  -30.4570   21.4810 C   0  0  0  0  0  3  0  0  0  0  0  0
  -24.8230  -28.9730   19.9850 C   0  0  0  0  0  0  0  0  0  0  0  0
  -25.8760  -30.8570   21.2290 C   0  0  0  0  0  2  0  0  0  0  0  0
  -25.9920  -29.4820   20.5640 C   0  0  0  0  0  0  0  0  0  0  0  0
  -27.2050  -28.7170   20.5000 C   0  0  0  0  0  3  0  0  0  0  0  0
  -26.0520  -26.9700   19.2970 C   0  0  0  0  0  3  0  0  0  0  0  0
  -24.8580  -27.7250   19.3390 C   0  0  0  0  0  3  0  0  0  0  0  0
  -23.5590  -29.8130   20.0820 C   0  0  0  0  0  2  0  0  0  0  0  0
  -24.6180  -31.0770   22.0010 N   0  0  0  0  0  0  0  0  0  0  0  0
  -23.4780  -32.0800   23.6950 O   0  0  0  0  0  0  0  0  0  0  0  0
  -22.7580  -29.3980   22.4390 C   0  0  0  0  0  0  0  0  0  0  0  0
  -21.4390  -29.1630   22.3350 N   0  0  0  0  0  0  0  0  0  0  0  0
  -23.4800  -28.7920   23.2340 O   0  0  0  0  0  0  0  0  0  0  0  0
  -20.9100  -29.7150   21.6750 H   0  0  0  0  0  0  0  0  0  0  0  0
  -18.1480  -27.7420   22.8500 C   0  0  0  0  0  0  0  0  0  0  0  0
  -20.6840  -28.1660   23.0990 C   0  0  0  0  0  3  0  0  0  0  0  0
  -20.8740  -26.7490   22.5070 C   0  0  0  0  0  2  0  0  0  0  0  0
  -19.7850  -26.3650   21.5020 C   0  0  0  0  0  2  0  0  0  0  0  0
  -18.4070  -26.4080   22.1700 C   0  0  0  0  0  2  0  0  0  0  0  0
  -19.2170  -28.5760   23.2720 C   0  0  0  0  0  0  0  0  0  0  0  0
  -18.9200  -29.8200   23.8700 C   0  0  0  0  0  3  0  0  0  0  0  0
  -17.5870  -30.2360   24.0460 C   0  0  0  0  0  3  0  0  0  0  0  0
  -16.5320  -29.4000   23.6390 C   0  0  0  0  0  3  0  0  0  0  0  0
  -16.8130  -28.1550   23.0490 C   0  0  0  0  0  3  0  0  0  0  0  0
  -25.8290  -32.5260   23.7220 C   0  0  0  0  0  3  0  0  0  0  0  0
  -25.4900  -33.9190   24.0540 N   0  0  0  0  0  0  0  0  0  0  0  0
  -25.7900  -34.9780   23.2910 C   0  0  0  0  0  0  0  0  0  0  0  0
  -26.4490  -34.8870   22.2520 O   0  0  0  0  0  0  0  0  0  0  0  0
  -24.8990  -34.0580   24.8610 H   0  0  0  0  0  0  0  0  0  0  0  0
  -24.0180  -36.7340   22.9620 C   0  0  0  0  0  1  0  0  0  0  0  0
  -25.2790  -36.3570   23.7540 C   0  0  0  0  0  3  0  0  0  0  0  0
  -27.4080  -37.2920   24.5480 C   0  0  0  0  0  1  0  0  0  0  0  0
  -26.2870  -37.4330   23.6230 N   0  0  0  0  0  0  0  0  0  0  0  0
  -25.8620  -38.3440   23.7740 H   0  0  0  0  0  0  0  0  0  0  0  0
  -26.3780  -31.7730   24.9970 C   0  0  1  0  0  0  0  0  0  0  0  0
  -25.3000  -31.5010   26.0730 C   0  0  0  0  0  1  0  0  0  0  0  0
  -27.0010  -30.4140   24.6000 C   0  0  0  0  0  1  0  0  0  0  0  0
  -27.5070  -32.6030   25.6500 C   0  0  0  0  0  1  0  0  0  0  0  0
  1  5  1  0
  2  6  1  0
  2  1  1  0
  3  7  1  0
  3  1  1  0
  4 53  1  0
  4  3  1  0
  4  2  1  0
  8  7  1  0
  8 15  1  0
  9 11  1  0
  9  8  1  0
 10  9  1  0
 12 14  1  0
 13 14  1  0
 14  9  1  0
 15 16  1  0
 17 23  1  0
 17 16  1  0
 18 23  1  0
 19 20  1  0
 19 18  1  0
 21 20  1  0
 21 28  1  0
 21 22  1  0
 23 22  1  0
 24 17  2  0
 25 26  2  0
 26 45  1  0
 27 30  1  0
 27 26  1  0
 28 29  1  0
 28 25  1  0
 29 27  2  0
 30 31  1  0
 31 32  2  0
 33 36  1  0
 33 32  1  0
 34 33  2  0
 35 34  1  0
 35 30  2  0
 36 37  1  0
 37 38  1  0
 38 39  2  0
 40 39  1  0
 40 44  1  0
 41 40  2  0
 42 37  2  0
 42 41  1  0
 43 42  1  0
 45 46  1  0
 46 49  1  0
 46 48  1  0
 47 45  2  0
 50 51  1  0
 50 25  1  0
 52 50  1  0
 54 56  1  0
 54 53  1  0
 55 66  2  0
 56 61  1  0
 57 65  1  0
 57 67  1  0
 58 64  1  0
 58 60  1  0
 59 65  1  0
 60 59  1  0
 61 60  2  0
 62 63  1  0
 62 56  2  0
 63 58  2  0
 64 57  1  0
 65 55  1  0
 67 69  2  0
 68 67  1  0
 70 68  1  0
 71 80  2  0
 71 76  1  0
 72 68  1  0
 72 76  1  0
 73 72  1  0
 74 75  1  0
 74 73  1  0
 75 71  1  0
 76 77  2  0
 77 78  1  0
 79 78  2  0
 80 79  1  0
 81 55  1  0
 81 82  1  0
 81 91  1  0
 82 85  1  0
 83 87  1  0
 83 82  1  0
 84 83  2  0
 87 86  1  0
 89 87  1  0
 89 90  1  0
 89 88  1  0
 91 94  1  1
 91 92  1  0
 93 91  1  0
M  ISO  4  16 100  17 100  53 101  54 101
M  END
>  <TORSDO>  (91) 
F 23

>  <SCORE>  (91) 
-9.914

>  <name>  (91) 
92

>  <ligand_id>  (91) 
92

>  <original_smiles>  (91) 
[H]c1c([H])c([H])c2c(c1[H])C([H])([H])C([H])([H])C([H])([H])C2([H])N([H])C(=O)C1([H])N(C(=O)C([H])(N([H])C(=O)C([H])(N([H])C([H])([H])[H])C([H])([H])[H])C(C([H])([H])[H])(C([H])([H])[H])C([H])([H])[H])C([H])([H])c2c([H])c(OC([H])([H])C3([H])C([H])(C([H])([H])[H])C([H])(C([H])([H])[H])C3([H])C([H])([H])C([H])(C([H])([H])C([H])([H])C(=O)N3C([H])([H])C([H])([H])C([H])([H])C([H])(n4nc(-c5c([H])c([H])c(Oc6c([H])c([H])c(F)c([H])c6F)c([H])c5[H])c(C(=O)N([H])[H])c4N([H])[H])C3([H])[H])[N+]([H])([H])C([H])(C([H])([H])[H])C([H])([H])[H])c([H])c([H])c2C1([H])[H]

>  <smiles>  (91) 
[H]c1c([H])c([H])c2c(c1[H])C([H])([H])C([H])([H])C([H])([H])C2([H])N([H])C(=O)C1([H])N(C(=O)C([H])(N([H])C(=O)C([H])(N([H])C([H])([H])[H])C([H])([H])[H])C(C([H])([H])[H])(C([H])([H])[H])C([H])([H])[H])C([H])([H])c2c([H])c(OC([H])([H])C3([H])C([H])(C([H])([H])[H])C([H])(C([H])([H])[H])C3([H])C([H])([H])C([H])(C([H])([H])C([H])([H])C(=O)N3C([H])([H])C([H])([H])C([H])([H])C([H])(n4nc(-c5c([H])c([H])c(Oc6c([H])c([H])c(F)c([H])c6F)c([H])c5[H])c(C(=O)N([H])[H])c4N([H])[H])C3([H])[H])[N+]([H])([H])C([H])(C([H])([H])[H])C([H])([H])[H])c([H])c([H])c2C1([H])[H]

$$$$
93:0:0
     RDKit          3D

 97107  0  0  1  0  0  0  0  0999 V2000
  -30.4470  -23.7480   19.7010 C   0  0  0  0  0  3  0  0  0  0  0  0
  -28.6730  -22.8190   20.9960 C   0  0  0  0  0  3  0  0  0  0  0  0
  -29.1890  -23.9470   20.3030 C   0  0  0  0  0  0  0  0  0  0  0  0
  -31.0870  -22.4740   19.7780 C   0  0  0  0  0  0  0  0  0  0  0  0
  -30.4570  -21.3820   20.4560 C   0  0  0  0  0  0  0  0  0  0  0  0
  -29.2770  -21.5970   21.0840 N   0  0  0  0  0  0  0  0  0  0  0  0
  -32.4370  -22.3260   19.0840 C   0  0  0  0  0  2  0  0  0  0  0  0
  -34.9740  -22.3250   19.3340 C   0  0  0  0  0  1  0  0  0  0  0  0
  -33.6270  -22.5160   20.0400 C   0  0  0  0  0  2  0  0  0  0  0  0
  -28.2460  -25.1600   19.9910 C   0  0  0  0  0  2  0  0  0  0  0  0
  -28.5600  -26.5970   20.2060 O   0  0  0  0  0  0  0  0  0  0  0  0
  -24.5880  -31.8760   23.1850 C   0  0  0  0  0  0  0  0  0  0  0  0
  -27.4400  -27.4570   20.1180 C   0  0  0  0  0  0  0  0  0  0  0  0
  -23.4770  -30.4510   21.5080 C   0  0  0  0  0  3  0  0  0  0  0  0
  -25.0190  -28.9950   20.0900 C   0  0  0  0  0  0  0  0  0  0  0  0
  -26.0110  -30.8690   21.3870 C   0  0  0  0  0  2  0  0  0  0  0  0
  -26.1600  -29.5070   20.7220 C   0  0  0  0  0  0  0  0  0  0  0  0
  -27.3730  -28.7490   20.7340 C   0  0  0  0  0  3  0  0  0  0  0  0
  -26.2700  -27.0270   19.4380 C   0  0  0  0  0  3  0  0  0  0  0  0
  -25.0780  -27.7600   19.4390 C   0  0  0  0  0  3  0  0  0  0  0  0
  -23.7470  -29.8140   20.1240 C   0  0  0  0  0  2  0  0  0  0  0  0
  -24.7090  -31.0820   22.0820 N   0  0  0  0  0  0  0  0  0  0  0  0
  -23.4830  -32.1020   23.6980 O   0  0  0  0  0  0  0  0  0  0  0  0
  -22.8400  -29.3910   22.4390 C   0  0  0  0  0  0  0  0  0  0  0  0
  -21.5270  -29.1570   22.2800 N   0  0  0  0  0  0  0  0  0  0  0  0
  -23.5280  -28.7840   23.2650 O   0  0  0  0  0  0  0  0  0  0  0  0
  -21.0290  -29.7010   21.5890 H   0  0  0  0  0  0  0  0  0  0  0  0
  -18.1870  -27.8360   22.7190 C   0  0  0  0  0  0  0  0  0  0  0  0
  -20.7310  -28.1790   23.0250 C   0  0  0  0  0  3  0  0  0  0  0  0
  -20.8890  -26.7620   22.4280 C   0  0  0  0  0  2  0  0  0  0  0  0
  -19.8110  -26.4180   21.3950 C   0  0  0  0  0  2  0  0  0  0  0  0
  -18.4170  -26.5060   22.0230 C   0  0  0  0  0  2  0  0  0  0  0  0
  -19.2740  -28.6300   23.1750 C   0  0  0  0  0  0  0  0  0  0  0  0
  -19.0030  -29.8740   23.7850 C   0  0  0  0  0  3  0  0  0  0  0  0
  -17.6790  -30.3270   23.9420 C   0  0  0  0  0  3  0  0  0  0  0  0
  -16.6070  -29.5320   23.5000 C   0  0  0  0  0  3  0  0  0  0  0  0
  -16.8620  -28.2880   22.8960 C   0  0  0  0  0  3  0  0  0  0  0  0
  -25.8290  -32.5550   23.8380 C   0  0  0  0  0  3  0  0  0  0  0  0
  -25.4500  -33.9340   24.1790 N   0  0  0  0  0  0  0  0  0  0  0  0
  -25.7440  -35.0090   23.4360 C   0  0  0  0  0  0  0  0  0  0  0  0
  -26.4310  -34.9470   22.4130 O   0  0  0  0  0  0  0  0  0  0  0  0
  -24.8360  -34.0520   24.9720 H   0  0  0  0  0  0  0  0  0  0  0  0
  -23.9410  -36.7270   23.0800 C   0  0  0  0  0  1  0  0  0  0  0  0
  -25.1890  -36.3690   23.9030 C   0  0  0  0  0  3  0  0  0  0  0  0
  -27.2680  -37.3420   24.7770 C   0  0  0  0  0  1  0  0  0  0  0  0
  -26.1760  -37.4690   23.8170 N   0  0  0  0  0  0  0  0  0  0  0  0
  -25.7260  -38.3680   23.9640 H   0  0  0  0  0  0  0  0  0  0  0  0
  -26.3530  -31.7900   25.1150 C   0  0  1  0  0  0  0  0  0  0  0  0
  -25.2480  -31.4800   26.1520 C   0  0  0  0  0  1  0  0  0  0  0  0
  -27.0110  -30.4480   24.7180 C   0  0  0  0  0  1  0  0  0  0  0  0
  -27.4510  -32.6270   25.8120 C   0  0  0  0  0  1  0  0  0  0  0  0
  -31.1340  -19.9580   20.5630 C   0  0  0  0  0  2  0  0  0  0  0  0
  -31.3450  -14.9530   20.2450 C   0  0  0  0  0  0  0  0  0  0  0  0
  -31.0360  -12.7990   19.0410 C   0  0  0  0  0  2  0  0  0  0  0  0
  -30.0200  -12.9930   17.8950 C   0  0  0  0  0  2  0  0  0  0  0  0
  -28.5800  -12.7910   18.4030 C   0  0  0  0  0  2  0  0  0  0  0  0
  -28.2930  -13.5490   19.7270 C   0  0  0  0  0  3  0  0  0  0  0  0
  -29.4280  -13.3550   20.7570 C   0  0  0  0  0  2  0  0  0  0  0  0
  -30.6840  -13.7570   20.1110 N   0  0  0  0  0  0  0  0  0  0  0  0
  -32.4790  -15.0870   19.7790 O   0  0  0  0  0  0  0  0  0  0  0  0
  -30.2600  -16.4250   21.9380 C   0  0  0  0  0  2  0  0  0  0  0  0
  -30.5920  -17.9210   22.1390 C   0  0  0  0  0  3  0  0  0  0  0  0
  -30.3340  -18.5910   20.7820 C   0  0  0  0  0  3  0  0  0  0  0  0
  -30.7260  -17.3880   19.8270 C   0  0  0  0  0  3  0  0  0  0  0  0
  -29.8310  -18.5540   23.3100 C   0  0  0  0  0  1  0  0  0  0  0  0
  -30.6080  -16.0800   20.5590 N   0  0  0  0  0  0  0  0  0  0  0  0
  -25.9440  -14.0230   20.6510 C   0  0  0  0  0  0  0  0  0  0  0  0
  -24.9180  -13.1940   21.0160 C   0  0  0  0  0  0  0  0  0  0  0  0
  -25.4010  -11.8610   20.8380 C   0  0  0  0  0  0  0  0  0  0  0  0
  -26.9870  -13.1920   20.2760 N   0  0  0  0  0  0  0  0  0  0  0  0
  -26.6700  -11.8820   20.4490 N   0  0  0  0  0  0  0  0  0  0  0  0
  -24.7100  -10.5700   20.9600 C   0  0  0  0  0  0  0  0  0  0  0  0
  -25.0950   -9.6160   21.9270 C   0  0  0  0  0  3  0  0  0  0  0  0
  -24.4020   -8.3910   22.0400 C   0  0  0  0  0  3  0  0  0  0  0  0
  -23.3110   -8.1110   21.1830 C   0  0  0  0  0  0  0  0  0  0  0  0
  -22.9470   -9.0540   20.2060 C   0  0  0  0  0  3  0  0  0  0  0  0
  -23.6410  -10.2710   20.0920 C   0  0  0  0  0  3  0  0  0  0  0  0
  -22.5970   -6.9370   21.2020 O   0  0  0  0  0  0  0  0  0  0  0  0
  -22.2860   -6.3030   22.3770 C   0  0  0  0  0  0  0  0  0  0  0  0
  -21.5470   -6.9440   23.3970 C   0  0  0  0  0  3  0  0  0  0  0  0
  -21.1890   -6.2330   24.5590 C   0  0  0  0  0  3  0  0  0  0  0  0
  -21.5580   -4.8810   24.7010 C   0  0  0  0  0  0  0  0  0  0  0  0
  -22.2860   -4.2390   23.6850 C   0  0  0  0  0  3  0  0  0  0  0  0
  -22.6460   -4.9480   22.5250 C   0  0  0  0  0  0  0  0  0  0  0  0
  -23.3310   -4.3190   21.5380 F   0  0  0  0  0  0  0  0  0  0  0  0
  -21.2060   -4.1960   25.8140 F   0  0  0  0  0  0  0  0  0  0  0  0
  -23.5330  -13.6100   21.4170 C   0  0  0  0  0  0  0  0  0  0  0  0
  -22.8900  -12.8420   22.2900 N   0  0  0  0  0  0  0  0  0  0  0  0
  -23.0320  -14.6520   20.9960 O   0  0  0  0  0  0  0  0  0  0  0  0
  -23.3130  -11.9960   22.6450 H   0  0  0  0  0  0  0  0  0  0  0  0
  -21.9670  -13.1020   22.6070 H   0  0  0  0  0  0  0  0  0  0  0  0
  -26.0730  -15.4070   20.5890 N   0  0  0  0  0  0  0  0  0  0  0  0
  -25.3060  -16.0320   20.8120 H   0  0  0  0  0  0  0  0  0  0  0  0
  -26.9050  -15.8940   20.2810 H   0  0  0  0  0  0  0  0  0  0  0  0
  -30.0030  -18.5240   17.5400 C   0  0  0  0  0  2  0  0  0  0  0  0
  -30.5250  -17.1500   17.1940 C   0  0  0  0  0  2  0  0  0  0  0  0
  -29.9010  -17.4040   18.5470 C   0  0  0  0  0  3  0  0  0  0  0  0
  1  4  2  0
  1  3  1  0
  2  6  1  0
  3  2  2  0
  4  5  1  0
  5 52  1  0
  5  6  2  0
  7  4  1  0
  7  9  1  0
  8  9  1  0
 10 11  1  0
 10  3  1  0
 12 23  2  0
 13 11  1  0
 13 18  1  0
 14 22  1  0
 14 24  1  0
 15 21  1  0
 15 17  1  0
 16 22  1  0
 17 18  2  0
 17 16  1  0
 19 20  1  0
 19 13  2  0
 20 15  2  0
 21 14  1  0
 22 12  1  0
 24 26  2  0
 25 24  1  0
 27 25  1  0
 28 37  2  0
 28 33  1  0
 29 25  1  0
 29 33  1  0
 30 29  1  0
 31 32  1  0
 31 30  1  0
 32 28  1  0
 33 34  2  0
 34 35  1  0
 36 35  2  0
 37 36  1  0
 38 12  1  0
 38 39  1  0
 38 48  1  0
 39 42  1  0
 40 44  1  0
 40 39  1  0
 41 40  2  0
 44 43  1  0
 46 44  1  0
 46 47  1  0
 46 45  1  0
 48 51  1  1
 48 49  1  0
 50 48  1  0
 53 66  1  0
 54 59  1  0
 55 56  1  0
 55 54  1  0
 57 56  1  0
 57 70  1  0
 57 58  1  0
 59 53  1  0
 59 58  1  0
 60 53  2  0
 61 62  1  0
 62 65  1  0
 63 52  1  0
 63 62  1  0
 64 97  1  0
 64 66  1  0
 64 63  1  0
 66 61  1  0
 67 68  2  0
 68 87  1  0
 69 72  1  0
 69 68  1  0
 70 71  1  0
 70 67  1  0
 71 69  2  0
 72 73  1  0
 73 74  2  0
 75 78  1  0
 75 74  1  0
 76 75  2  0
 77 76  1  0
 77 72  2  0
 78 79  1  0
 79 84  2  0
 79 80  1  0
 80 81  2  0
 81 82  1  0
 82 86  1  0
 83 82  2  0
 84 83  1  0
 85 84  1  0
 87 88  1  0
 88 91  1  0
 88 90  1  0
 89 87  2  0
 92 67  1  0
 92 93  1  0
 94 92  1  0
 95 97  1  0
 96 95  1  0
 96 97  1  0
M  ISO  4  10 101  11 101  53 100  66 100
M  END
>  <TORSDO>  (92) 
F 21

>  <SCORE>  (92) 
-10.160

>  <name>  (92) 
93

>  <ligand_id>  (92) 
93

>  <original_smiles>  (92) 
[H]c1nc(C([H])([H])C2([H])C([H])(C3([H])C([H])([H])C3([H])[H])N(C(=O)N3C([H])([H])C([H])([H])C([H])([H])C([H])(n4nc(-c5c([H])c([H])c(Oc6c([H])c([H])c(F)c([H])c6F)c([H])c5[H])c(C(=O)N([H])[H])c4N([H])[H])C3([H])[H])C([H])([H])C2([H])C([H])([H])[H])c(C([H])([H])C([H])([H])C([H])([H])[H])c([H])c1C([H])([H])Oc1c([H])c([H])c2c(c1[H])C([H])([H])N(C(=O)C([H])(N([H])C(=O)C([H])(N([H])C([H])([H])[H])C([H])([H])[H])C(C([H])([H])[H])(C([H])([H])[H])C([H])([H])[H])C([H])(C(=O)N([H])C1([H])c3c([H])c([H])c([H])c([H])c3C([H])([H])C([H])([H])C1([H])[H])C2([H])[H]

>  <smiles>  (92) 
[H]c1nc(C([H])([H])C2([H])C([H])(C3([H])C([H])([H])C3([H])[H])N(C(=O)N3C([H])([H])C([H])([H])C([H])([H])C([H])(n4nc(-c5c([H])c([H])c(Oc6c([H])c([H])c(F)c([H])c6F)c([H])c5[H])c(C(=O)N([H])[H])c4N([H])[H])C3([H])[H])C([H])([H])C2([H])C([H])([H])[H])c(C([H])([H])C([H])([H])C([H])([H])[H])c([H])c1C([H])([H])Oc1c([H])c([H])c2c(c1[H])C([H])([H])N(C(=O)C([H])(N([H])C(=O)C([H])(N([H])C([H])([H])[H])C([H])([H])[H])C(C([H])([H])[H])(C([H])([H])[H])C([H])([H])[H])C([H])(C(=O)N([H])C1([H])c3c([H])c([H])c([H])c([H])c3C([H])([H])C([H])([H])C1([H])[H])C2([H])[H]

$$$$
94:0:0
     RDKit          3D

 93102  0  0  1  0  0  0  0  0999 V2000
  -30.1050  -19.2510   21.9570 C   0  0  0  0  0  3  0  0  0  0  0  0
  -31.4860  -19.0360   22.1280 C   0  0  0  0  0  3  0  0  0  0  0  0
  -29.5720  -18.9450   20.6920 C   0  0  0  0  0  0  0  0  0  0  0  0
  -30.2500  -17.7340   20.1230 C   0  0  0  0  0  0  0  0  0  0  0  0
  -31.6500  -17.9400   20.0940 C   0  0  0  0  0  0  0  0  0  0  0  0
  -32.2660  -18.5340   21.1410 N   0  0  0  0  0  0  0  0  0  0  0  0
  -30.5820  -15.0200   20.2180 C   0  0  0  0  0  0  0  0  0  0  0  0
  -30.4160  -12.6750   19.2910 C   0  0  0  0  0  2  0  0  0  0  0  0
  -29.4710  -12.6290   18.0700 C   0  0  0  0  0  2  0  0  0  0  0  0
  -28.0160  -12.4140   18.5250 C   0  0  0  0  0  2  0  0  0  0  0  0
  -27.6210  -13.3410   19.7050 C   0  0  0  0  0  3  0  0  0  0  0  0
  -28.6920  -13.3710   20.8140 C   0  0  0  0  0  2  0  0  0  0  0  0
  -29.9500  -13.7790   20.1780 N   0  0  0  0  0  0  0  0  0  0  0  0
  -31.7920  -15.0060   19.9900 O   0  0  0  0  0  0  0  0  0  0  0  0
  -29.8510  -16.2490   20.3000 N   0  0  0  0  0  0  0  0  0  0  0  0
  -28.8690  -16.1050   20.4790 H   0  0  0  0  0  0  0  0  0  0  0  0
  -25.2470  -13.9010   20.4740 C   0  0  0  0  0  0  0  0  0  0  0  0
  -24.1930  -13.1170   20.8530 C   0  0  0  0  0  0  0  0  0  0  0  0
  -24.6690  -11.7700   20.8200 C   0  0  0  0  0  0  0  0  0  0  0  0
  -26.2940  -13.0320   20.2230 N   0  0  0  0  0  0  0  0  0  0  0  0
  -25.9580  -11.7450   20.4980 N   0  0  0  0  0  0  0  0  0  0  0  0
  -23.9550  -10.5010   21.0140 C   0  0  0  0  0  0  0  0  0  0  0  0
  -24.4010   -9.5390   21.9470 C   0  0  0  0  0  3  0  0  0  0  0  0
  -23.6870   -8.3350   22.1300 C   0  0  0  0  0  3  0  0  0  0  0  0
  -22.5120   -8.0860   21.3810 C   0  0  0  0  0  0  0  0  0  0  0  0
  -22.0860   -9.0360   20.4370 C   0  0  0  0  0  3  0  0  0  0  0  0
  -22.8010  -10.2310   20.2510 C   0  0  0  0  0  3  0  0  0  0  0  0
  -21.7670   -6.9350   21.4750 O   0  0  0  0  0  0  0  0  0  0  0  0
  -21.7300   -6.1940   22.6300 C   0  0  0  0  0  0  0  0  0  0  0  0
  -21.3040   -6.7460   23.8570 C   0  0  0  0  0  3  0  0  0  0  0  0
  -21.2160   -5.9310   25.0030 C   0  0  0  0  0  3  0  0  0  0  0  0
  -21.5420   -4.5640   24.9230 C   0  0  0  0  0  0  0  0  0  0  0  0
  -21.9600   -4.0100   23.7000 C   0  0  0  0  0  3  0  0  0  0  0  0
  -22.0520   -4.8240   22.5570 C   0  0  0  0  0  0  0  0  0  0  0  0
  -22.4340   -4.2810   21.3750 F   0  0  0  0  0  0  0  0  0  0  0  0
  -21.4490   -3.7790   26.0210 F   0  0  0  0  0  0  0  0  0  0  0  0
  -22.7930  -13.5830   21.1300 C   0  0  0  0  0  0  0  0  0  0  0  0
  -22.0720  -12.8800   21.9960 N   0  0  0  0  0  0  0  0  0  0  0  0
  -22.3470  -14.6070   20.6130 O   0  0  0  0  0  0  0  0  0  0  0  0
  -22.4450  -12.0530   22.4380 H   0  0  0  0  0  0  0  0  0  0  0  0
  -21.1320  -13.1730   22.2210 H   0  0  0  0  0  0  0  0  0  0  0  0
  -25.3980  -15.2730   20.2900 N   0  0  0  0  0  0  0  0  0  0  0  0
  -24.6270  -15.9210   20.4080 H   0  0  0  0  0  0  0  0  0  0  0  0
  -26.2330  -15.7150   19.9280 H   0  0  0  0  0  0  0  0  0  0  0  0
  -32.9650  -18.5900   17.9300 C   0  0  0  0  0  2  0  0  0  0  0  0
  -32.0330  -17.4740   17.5210 C   0  0  0  0  0  2  0  0  0  0  0  0
  -32.5450  -17.5530   18.9450 C   0  0  0  0  0  3  0  0  0  0  0  0
  -29.2340  -20.3660   19.9200 C   0  0  0  0  0  3  0  0  0  0  0  0
  -28.8060  -21.8350   20.6570 C   0  0  0  0  0  3  0  0  0  0  0  0
  -30.2490  -23.7420   19.6040 C   0  0  0  0  0  1  0  0  0  0  0  0
  -28.8000  -23.3800   19.9570 C   0  0  0  0  0  3  0  0  0  0  0  0
  -28.0990  -24.7600   20.6450 C   0  0  0  0  0  2  0  0  0  0  0  0
  -28.3000  -26.2590   20.2630 O   0  0  0  0  0  0  0  0  0  0  0  0
  -24.6160  -31.9300   23.2370 C   0  0  0  0  0  0  0  0  0  0  0  0
  -27.2240  -27.2150   20.2510 C   0  0  0  0  0  0  0  0  0  0  0  0
  -23.4280  -30.5170   21.6040 C   0  0  0  0  0  3  0  0  0  0  0  0
  -24.8860  -28.9370   20.1980 C   0  0  0  0  0  0  0  0  0  0  0  0
  -25.9780  -30.8010   21.4360 C   0  0  0  0  0  2  0  0  0  0  0  0
  -26.0610  -29.4010   20.8040 C   0  0  0  0  0  0  0  0  0  0  0  0
  -27.2330  -28.5560   20.8100 C   0  0  0  0  0  3  0  0  0  0  0  0
  -26.0260  -26.8510   19.6050 C   0  0  0  0  0  3  0  0  0  0  0  0
  -24.8810  -27.6760   19.5830 C   0  0  0  0  0  3  0  0  0  0  0  0
  -23.6520  -29.8260   20.2340 C   0  0  0  0  0  2  0  0  0  0  0  0
  -24.6950  -31.1040   22.1480 N   0  0  0  0  0  0  0  0  0  0  0  0
  -23.5270  -32.2100   23.7600 O   0  0  0  0  0  0  0  0  0  0  0  0
  -22.7520  -29.5140   22.5710 C   0  0  0  0  0  0  0  0  0  0  0  0
  -21.4260  -29.3330   22.4360 N   0  0  0  0  0  0  0  0  0  0  0  0
  -23.4230  -28.8980   23.4030 O   0  0  0  0  0  0  0  0  0  0  0  0
  -20.9400  -29.8810   21.7410 H   0  0  0  0  0  0  0  0  0  0  0  0
  -18.0510  -28.1150   22.9240 C   0  0  0  0  0  0  0  0  0  0  0  0
  -20.6060  -28.3970   23.2090 C   0  0  0  0  0  3  0  0  0  0  0  0
  -20.7210  -26.9600   22.6480 C   0  0  0  0  0  2  0  0  0  0  0  0
  -19.6280  -26.6210   21.6290 C   0  0  0  0  0  2  0  0  0  0  0  0
  -18.2400  -26.7630   22.2600 C   0  0  0  0  0  2  0  0  0  0  0  0
  -19.1600  -28.8890   23.3550 C   0  0  0  0  0  0  0  0  0  0  0  0
  -18.9270  -30.1550   23.9360 C   0  0  0  0  0  3  0  0  0  0  0  0
  -17.6170  -30.6450   24.0910 C   0  0  0  0  0  3  0  0  0  0  0  0
  -16.5210  -29.8680   23.6760 C   0  0  0  0  0  3  0  0  0  0  0  0
  -16.7390  -28.6060   23.0970 C   0  0  0  0  0  3  0  0  0  0  0  0
  -25.8900  -32.5750   23.8650 C   0  0  0  0  0  3  0  0  0  0  0  0
  -25.5720  -33.9760   24.1860 N   0  0  0  0  0  0  0  0  0  0  0  0
  -25.9020  -35.0280   23.4260 C   0  0  0  0  0  0  0  0  0  0  0  0
  -26.5750  -34.9230   22.3970 O   0  0  0  0  0  0  0  0  0  0  0  0
  -24.9800  -34.1320   24.9880 H   0  0  0  0  0  0  0  0  0  0  0  0
  -24.1720  -36.8190   23.0590 C   0  0  0  0  0  1  0  0  0  0  0  0
  -25.4090  -36.4180   23.8770 C   0  0  0  0  0  3  0  0  0  0  0  0
  -27.5360  -37.3120   24.7180 C   0  0  0  0  0  1  0  0  0  0  0  0
  -26.4390  -37.4740   23.7670 N   0  0  0  0  0  0  0  0  0  0  0  0
  -26.0290  -38.3930   23.9070 H   0  0  0  0  0  0  0  0  0  0  0  0
  -26.3960  -31.8190   25.1550 C   0  0  1  0  0  0  0  0  0  0  0  0
  -25.2930  -31.5880   26.2160 C   0  0  0  0  0  1  0  0  0  0  0  0
  -26.9850  -30.4390   24.7830 C   0  0  0  0  0  1  0  0  0  0  0  0
  -27.5380  -32.6230   25.8200 C   0  0  0  0  0  1  0  0  0  0  0  0
  1  2  1  0
  3  1  2  0
  4 15  1  0
  4  3  1  0
  5  4  2  0
  5  6  1  0
  6  2  2  0
  7 15  1  0
  8 13  1  0
  9 10  1  0
  9  8  1  0
 11 10  1  0
 11 20  1  0
 11 12  1  0
 13  7  1  0
 13 12  1  0
 14  7  2  0
 15 16  1  0
 17 18  2  0
 18 37  1  0
 19 18  1  0
 19 22  1  0
 20 17  1  0
 20 21  1  0
 21 19  2  0
 22 23  1  0
 23 24  2  0
 25 28  1  0
 25 24  1  0
 26 25  2  0
 27 26  1  0
 27 22  2  0
 28 29  1  0
 29 30  1  0
 30 31  2  0
 32 31  1  0
 32 36  1  0
 33 32  2  0
 34 29  2  0
 34 33  1  0
 35 34  1  0
 37 38  1  0
 38 41  1  0
 38 40  1  0
 39 37  2  0
 42 43  1  0
 42 17  1  0
 44 42  1  0
 45 47  1  0
 46 45  1  0
 46 47  1  0
 47  5  1  0
 48 49  2  0
 48  3  1  0
 51 50  1  0
 51 52  1  0
 51 49  1  0
 53 52  1  0
 54 65  2  0
 55 53  1  0
 55 60  1  0
 56 64  1  0
 56 66  1  0
 57 63  1  0
 57 59  1  0
 58 64  1  0
 59 60  2  0
 59 58  1  0
 61 55  2  0
 62 61  1  0
 62 57  2  0
 63 56  1  0
 64 54  1  0
 66 68  2  0
 67 66  1  0
 69 67  1  0
 70 79  2  0
 70 75  1  0
 71 67  1  0
 71 75  1  0
 72 71  1  0
 73 74  1  0
 73 72  1  0
 74 70  1  0
 75 76  2  0
 76 77  1  0
 78 77  2  0
 79 78  1  0
 80 54  1  0
 80 81  1  0
 80 90  1  0
 81 84  1  0
 82 86  1  0
 82 81  1  0
 83 82  2  0
 86 85  1  0
 88 86  1  0
 88 89  1  0
 88 87  1  0
 90 93  1  1
 90 91  1  0
 92 90  1  0
M  ISO  4   7 100  15 100  52 101  53 101
M  END
>  <TORSDO>  (93) 
F 21

>  <SCORE>  (93) 
-14.258

>  <name>  (93) 
94

>  <ligand_id>  (93) 
94

>  <original_smiles>  (93) 
[H]c1nc(C2([H])C([H])([H])C2([H])[H])c(N([H])C(=O)N2C([H])([H])C([H])([H])C([H])([H])C([H])(n3nc(-c4c([H])c([H])c(Oc5c([H])c([H])c(F)c([H])c5F)c([H])c4[H])c(C(=O)N([H])[H])c3N([H])[H])C2([H])[H])c(C([H])([H])C([H])([H])C([H])(C([H])([H])[H])C([H])([H])Oc2c([H])c([H])c3c(c2[H])C([H])([H])N(C(=O)C([H])(N([H])C(=O)C([H])(N([H])C([H])([H])[H])C([H])([H])[H])C(C([H])([H])[H])(C([H])([H])[H])C([H])([H])[H])C([H])(C(=O)N([H])C2([H])c4c([H])c([H])c([H])c([H])c4C([H])([H])C([H])([H])C2([H])[H])C3([H])[H])c1[H]

>  <smiles>  (93) 
[H]c1nc(C2([H])C([H])([H])C2([H])[H])c(N([H])C(=O)N2C([H])([H])C([H])([H])C([H])([H])C([H])(n3nc(-c4c([H])c([H])c(Oc5c([H])c([H])c(F)c([H])c5F)c([H])c4[H])c(C(=O)N([H])[H])c3N([H])[H])C2([H])[H])c(C([H])([H])C([H])([H])C([H])(C([H])([H])[H])C([H])([H])Oc2c([H])c([H])c3c(c2[H])C([H])([H])N(C(=O)C([H])(N([H])C(=O)C([H])(N([H])C([H])([H])[H])C([H])([H])[H])C(C([H])([H])[H])(C([H])([H])[H])C([H])([H])[H])C([H])(C(=O)N([H])C2([H])c4c([H])c([H])c([H])c([H])c4C([H])([H])C([H])([H])C2([H])[H])C3([H])[H])c1[H]

$$$$
95:0:0
     RDKit          3D

 92101  0  0  1  0  0  0  0  0999 V2000
  -31.8860  -20.3910   20.1660 C   0  0  0  0  0  3  0  0  0  0  0  0
  -30.9520  -21.4260   20.3920 C   0  0  0  0  0  3  0  0  0  0  0  0
  -29.1450  -19.7890   20.2170 C   0  0  0  0  0  3  0  0  0  0  0  0
  -31.4370  -19.0790   19.9320 C   0  0  0  0  0  0  0  0  0  0  0  0
  -30.0990  -18.7020   20.0460 C   0  0  0  0  0  0  0  0  0  0  0  0
  -29.5550  -21.1880   20.3480 C   0  0  0  0  0  0  0  0  0  0  0  0
  -32.2410  -18.0280   19.2160 C   0  0  0  0  0  2  0  0  0  0  0  0
  -29.9320  -17.2250   19.4670 C   0  0  0  0  0  3  0  0  0  0  0  0
  -31.1510  -17.2010   18.4910 C   0  0  0  0  0  3  0  0  0  0  0  0
  -30.7950  -17.8320   17.1300 C   0  0  0  0  0  1  0  0  0  0  0  0
  -30.6170  -14.7600   20.2800 C   0  0  0  0  0  0  0  0  0  0  0  0
  -30.3690  -12.4860   19.2980 C   0  0  0  0  0  2  0  0  0  0  0  0
  -29.4340  -12.5810   18.0720 C   0  0  0  0  0  2  0  0  0  0  0  0
  -27.9630  -12.4220   18.5050 C   0  0  0  0  0  2  0  0  0  0  0  0
  -27.5990  -13.3090   19.7250 C   0  0  0  0  0  3  0  0  0  0  0  0
  -28.6620  -13.2230   20.8450 C   0  0  0  0  0  2  0  0  0  0  0  0
  -29.9600  -13.5500   20.2450 N   0  0  0  0  0  0  0  0  0  0  0  0
  -31.8230  -14.7840   20.0290 O   0  0  0  0  0  0  0  0  0  0  0  0
  -29.8580  -15.9290   20.3080 N   0  0  0  0  0  0  0  0  0  0  0  0
  -28.9280  -15.7630   20.6610 H   0  0  0  0  0  0  0  0  0  0  0  0
  -25.2150  -13.9090   20.4530 C   0  0  0  0  0  0  0  0  0  0  0  0
  -24.1480  -13.1400   20.8280 C   0  0  0  0  0  0  0  0  0  0  0  0
  -24.6070  -11.7880   20.8060 C   0  0  0  0  0  0  0  0  0  0  0  0
  -26.2570  -13.0260   20.2210 N   0  0  0  0  0  0  0  0  0  0  0  0
  -25.8990  -11.7460   20.4980 N   0  0  0  0  0  0  0  0  0  0  0  0
  -23.8760  -10.5290   21.0030 C   0  0  0  0  0  0  0  0  0  0  0  0
  -24.3100   -9.5600   21.9340 C   0  0  0  0  0  3  0  0  0  0  0  0
  -23.5800   -8.3670   22.1200 C   0  0  0  0  0  3  0  0  0  0  0  0
  -22.4000   -8.1340   21.3730 C   0  0  0  0  0  0  0  0  0  0  0  0
  -21.9840   -9.0920   20.4310 C   0  0  0  0  0  3  0  0  0  0  0  0
  -22.7160  -10.2770   20.2440 C   0  0  0  0  0  3  0  0  0  0  0  0
  -21.6390   -6.9930   21.4670 O   0  0  0  0  0  0  0  0  0  0  0  0
  -21.6020   -6.2480   22.6180 C   0  0  0  0  0  0  0  0  0  0  0  0
  -21.1990   -6.8020   23.8520 C   0  0  0  0  0  3  0  0  0  0  0  0
  -21.1070   -5.9820   24.9950 C   0  0  0  0  0  3  0  0  0  0  0  0
  -21.4070   -4.6110   24.9050 C   0  0  0  0  0  0  0  0  0  0  0  0
  -21.8040   -4.0560   23.6750 C   0  0  0  0  0  3  0  0  0  0  0  0
  -21.8970   -4.8710   22.5340 C   0  0  0  0  0  0  0  0  0  0  0  0
  -22.2580   -4.3280   21.3480 F   0  0  0  0  0  0  0  0  0  0  0  0
  -21.3120   -3.8210   26.0010 F   0  0  0  0  0  0  0  0  0  0  0  0
  -22.7520  -13.6240   21.0940 C   0  0  0  0  0  0  0  0  0  0  0  0
  -22.0200  -12.9370   21.9640 N   0  0  0  0  0  0  0  0  0  0  0  0
  -22.3180  -14.6460   20.5640 O   0  0  0  0  0  0  0  0  0  0  0  0
  -22.3850  -12.1110   22.4150 H   0  0  0  0  0  0  0  0  0  0  0  0
  -21.0830  -13.2430   22.1850 H   0  0  0  0  0  0  0  0  0  0  0  0
  -25.3810  -15.2790   20.2660 N   0  0  0  0  0  0  0  0  0  0  0  0
  -24.6110  -15.9310   20.3700 H   0  0  0  0  0  0  0  0  0  0  0  0
  -26.2200  -15.7140   19.9060 H   0  0  0  0  0  0  0  0  0  0  0  0
  -28.6420  -22.2890   20.3690 O   0  0  0  0  0  0  0  0  0  0  0  0
  -29.0830  -23.7260   20.3830 C   0  0  0  0  0  3  0  0  0  0  0  0
  -27.9900  -24.8920   20.1160 C   0  0  0  0  0  3  0  0  0  0  0  0
  -28.2720  -26.3700   20.2450 O   0  0  0  0  0  0  0  0  0  0  0  0
  -24.6120  -31.8920   23.2410 C   0  0  0  0  0  0  0  0  0  0  0  0
  -27.1820  -27.2750   20.1850 C   0  0  0  0  0  0  0  0  0  0  0  0
  -23.3980  -30.4990   21.6070 C   0  0  0  0  0  3  0  0  0  0  0  0
  -24.8360  -28.9410   20.1750 C   0  0  0  0  0  0  0  0  0  0  0  0
  -25.9440  -30.7940   21.4200 C   0  0  0  0  0  2  0  0  0  0  0  0
  -26.0140  -29.4110   20.7700 C   0  0  0  0  0  0  0  0  0  0  0  0
  -27.1900  -28.5920   20.7620 C   0  0  0  0  0  3  0  0  0  0  0  0
  -25.9770  -26.8790   19.5600 C   0  0  0  0  0  3  0  0  0  0  0  0
  -24.8240  -27.6840   19.5580 C   0  0  0  0  0  3  0  0  0  0  0  0
  -23.6070  -29.8260   20.2260 C   0  0  0  0  0  2  0  0  0  0  0  0
  -24.6710  -31.0800   22.1450 N   0  0  0  0  0  0  0  0  0  0  0  0
  -23.5300  -32.1760   23.7760 O   0  0  0  0  0  0  0  0  0  0  0  0
  -22.7320  -29.4860   22.5690 C   0  0  0  0  0  0  0  0  0  0  0  0
  -21.4060  -29.3080   22.4400 N   0  0  0  0  0  0  0  0  0  0  0  0
  -23.4080  -28.8630   23.3930 O   0  0  0  0  0  0  0  0  0  0  0  0
  -20.9180  -29.8620   21.7490 H   0  0  0  0  0  0  0  0  0  0  0  0
  -18.0270  -28.1080   22.9380 C   0  0  0  0  0  0  0  0  0  0  0  0
  -20.5850  -28.3730   23.2140 C   0  0  0  0  0  3  0  0  0  0  0  0
  -20.6900  -26.9390   22.6480 C   0  0  0  0  0  2  0  0  0  0  0  0
  -19.5920  -26.6080   21.6320 C   0  0  0  0  0  2  0  0  0  0  0  0
  -18.2080  -26.7550   22.2710 C   0  0  0  0  0  2  0  0  0  0  0  0
  -19.1430  -28.8740   23.3670 C   0  0  0  0  0  0  0  0  0  0  0  0
  -18.9200  -30.1400   23.9520 C   0  0  0  0  0  3  0  0  0  0  0  0
  -17.6130  -30.6390   24.1110 C   0  0  0  0  0  3  0  0  0  0  0  0
  -16.5120  -29.8710   23.6980 C   0  0  0  0  0  3  0  0  0  0  0  0
  -16.7200  -28.6060   23.1170 C   0  0  0  0  0  3  0  0  0  0  0  0
  -25.8970  -32.5210   23.8600 C   0  0  0  0  0  3  0  0  0  0  0  0
  -26.4170  -31.7450   25.1320 C   0  0  1  0  0  0  0  0  0  0  0  0
  -25.3290  -31.5070   26.2030 C   0  0  0  0  0  1  0  0  0  0  0  0
  -26.9950  -30.3670   24.7350 C   0  0  0  0  0  1  0  0  0  0  0  0
  -27.5730  -32.5360   25.7900 C   0  0  0  0  0  1  0  0  0  0  0  0
  -25.5900  -33.9190   24.1980 N   0  0  0  0  0  0  0  0  0  0  0  0
  -25.9090  -34.9750   23.4370 C   0  0  0  0  0  0  0  0  0  0  0  0
  -26.5620  -34.8760   22.3950 O   0  0  0  0  0  0  0  0  0  0  0  0
  -25.0070  -34.0700   25.0080 H   0  0  0  0  0  0  0  0  0  0  0  0
  -24.1690  -36.7660   23.1240 C   0  0  0  0  0  1  0  0  0  0  0  0
  -25.4280  -36.3620   23.9070 C   0  0  0  0  0  3  0  0  0  0  0  0
  -27.5780  -37.2510   24.6960 C   0  0  0  0  0  1  0  0  0  0  0  0
  -26.4560  -37.4180   23.7750 N   0  0  0  0  0  0  0  0  0  0  0  0
  -26.0510  -38.3370   23.9320 H   0  0  0  0  0  0  0  0  0  0  0  0
  1  2  1  0
  3  6  1  0
  4  5  1  0
  4  1  2  0
  5  3  2  0
  6 49  1  0
  6  2  2  0
  7  4  1  0
  8  5  1  0
  8 19  1  0
  9 10  1  0
  9  7  1  0
  9  8  1  0
 11 19  1  0
 12 17  1  0
 13 14  1  0
 13 12  1  0
 15 14  1  0
 15 24  1  0
 15 16  1  0
 17 11  1  0
 17 16  1  0
 18 11  2  0
 19 20  1  0
 21 22  2  0
 22 41  1  0
 23 22  1  0
 23 26  1  0
 24 21  1  0
 24 25  1  0
 25 23  2  0
 26 27  1  0
 27 28  2  0
 29 32  1  0
 29 28  1  0
 30 29  2  0
 31 30  1  0
 31 26  2  0
 32 33  1  0
 33 34  1  0
 34 35  2  0
 36 35  1  0
 36 40  1  0
 37 36  2  0
 38 33  2  0
 38 37  1  0
 39 38  1  0
 41 42  1  0
 42 45  1  0
 42 44  1  0
 43 41  2  0
 46 47  1  0
 46 21  1  0
 48 46  1  0
 49 50  1  0
 51 52  1  0
 51 50  2  0
 53 64  2  0
 54 52  1  0
 54 59  1  0
 55 63  1  0
 55 65  1  0
 56 62  1  0
 56 58  1  0
 57 63  1  0
 58 57  1  0
 59 58  2  0
 60 54  2  0
 61 60  1  0
 61 56  2  0
 62 55  1  0
 63 53  1  0
 65 67  2  0
 66 65  1  0
 68 66  1  0
 69 78  2  0
 69 74  1  0
 70 66  1  0
 70 74  1  0
 71 70  1  0
 72 73  1  0
 72 71  1  0
 73 69  1  0
 74 75  2  0
 75 76  1  0
 77 76  2  0
 78 77  1  0
 79 53  1  0
 79 84  1  0
 79 80  1  0
 80 83  1  1
 80 81  1  0
 82 80  1  0
 84 87  1  0
 85 89  1  0
 85 84  1  0
 86 85  2  0
 89 88  1  0
 91 89  1  0
 91 92  1  0
 91 90  1  0
M  ISO  4  11 100  19 100  51 101  52 101
M  END
>  <TORSDO>  (94) 
F 19

>  <SCORE>  (94) 
-14.293

>  <name>  (94) 
95

>  <ligand_id>  (94) 
95

>  <original_smiles>  (94) 
[H]c1c([H])c([H])c2c(c1[H])C([H])([H])C([H])([H])C([H])([H])C2([H])N([H])C(=O)C1([H])N(C(=O)C([H])(N([H])C(=O)C([H])(N([H])C([H])([H])[H])C([H])([H])[H])C(C([H])([H])[H])(C([H])([H])[H])C([H])([H])[H])C([H])([H])c2c([H])c(OC([H])([H])C([H])([H])Oc3c([H])c([H])c4c(c3[H])C([H])(N([H])C(=O)N3C([H])([H])C([H])([H])C([H])([H])C([H])(n5nc(-c6c([H])c([H])c(Oc7c([H])c([H])c(F)c([H])c7F)c([H])c6[H])c(C(=O)N([H])[H])c5N([H])[H])C3([H])[H])C([H])(C([H])([H])[H])C4([H])[H])c([H])c([H])c2C1([H])[H]

>  <smiles>  (94) 
[H]c1c([H])c([H])c2c(c1[H])C([H])([H])C([H])([H])C([H])([H])C2([H])N([H])C(=O)C1([H])N(C(=O)C([H])(N([H])C(=O)C([H])(N([H])C([H])([H])[H])C([H])([H])[H])C(C([H])([H])[H])(C([H])([H])[H])C([H])([H])[H])C([H])([H])c2c([H])c(OC([H])([H])C([H])([H])Oc3c([H])c([H])c4c(c3[H])C([H])(N([H])C(=O)N3C([H])([H])C([H])([H])C([H])([H])C([H])(n5nc(-c6c([H])c([H])c(Oc7c([H])c([H])c(F)c([H])c7F)c([H])c6[H])c(C(=O)N([H])[H])c5N([H])[H])C3([H])[H])C([H])(C([H])([H])[H])C4([H])[H])c([H])c([H])c2C1([H])[H]

$$$$
96:0:0
     RDKit          3D

 95104  0  0  1  0  0  0  0  0999 V2000
  -29.9890  -20.4440   21.3080 C   0  0  0  0  0  3  0  0  0  0  0  0
  -30.6720  -19.3660   21.9000 C   0  0  0  0  0  0  0  0  0  0  0  0
  -30.4390  -18.0310   21.4470 C   0  0  0  0  0  0  0  0  0  0  0  0
  -29.0600  -20.2750   20.2830 C   0  0  0  0  0  0  0  0  0  0  0  0
  -29.5440  -17.7940   20.3510 C   0  0  0  0  0  0  0  0  0  0  0  0
  -28.7880  -24.0100   18.8980 C   0  0  0  0  0  2  0  0  0  0  0  0
  -27.6340  -23.9050   20.9730 C   0  0  0  0  0  2  0  0  0  0  0  0
  -28.6650  -22.3990   18.7010 C   0  0  0  0  0  2  0  0  0  0  0  0
  -27.4620  -22.3000   20.8110 C   0  0  0  0  0  2  0  0  0  0  0  0
  -27.6510  -24.8170   19.6750 C   0  0  0  0  0  3  0  0  0  0  0  0
  -28.8590  -18.9410   19.8170 N   0  0  0  0  0  0  0  0  0  0  0  0
  -28.3800  -21.5440   19.8950 N   0  0  0  0  0  0  0  0  0  0  0  0
  -30.9480  -20.5810   24.1280 C   0  0  0  0  0  1  0  0  0  0  0  0
  -32.9000  -20.4070   22.5070 C   0  0  0  0  0  1  0  0  0  0  0  0
  -31.6310  -19.7250   23.0470 C   0  0  0  0  0  3  0  0  0  0  0  0
  -32.4110  -16.3790   21.6180 C   0  0  0  0  0  1  0  0  0  0  0  0
  -31.0800  -16.8690   22.2190 C   0  0  0  0  0  2  0  0  0  0  0  0
  -27.8010  -26.3780   19.8260 O   0  0  0  0  0  0  0  0  0  0  0  0
  -24.3600  -31.9570   23.2290 C   0  0  0  0  0  0  0  0  0  0  0  0
  -26.7250  -27.3440   19.8730 C   0  0  0  0  0  0  0  0  0  0  0  0
  -23.0560  -30.6250   21.6170 C   0  0  0  0  0  3  0  0  0  0  0  0
  -24.4060  -29.1000   20.0480 C   0  0  0  0  0  0  0  0  0  0  0  0
  -25.5960  -30.8910   21.3030 C   0  0  0  0  0  2  0  0  0  0  0  0
  -25.6220  -29.5210   20.5970 C   0  0  0  0  0  0  0  0  0  0  0  0
  -26.7800  -28.6600   20.4900 C   0  0  0  0  0  3  0  0  0  0  0  0
  -25.4790  -27.0320   19.2840 C   0  0  0  0  0  3  0  0  0  0  0  0
  -24.3470  -27.8710   19.3760 C   0  0  0  0  0  3  0  0  0  0  0  0
  -23.1870  -29.9970   20.2050 C   0  0  0  0  0  2  0  0  0  0  0  0
  -24.3610  -31.1780   22.1040 N   0  0  0  0  0  0  0  0  0  0  0  0
  -23.3110  -32.2220   23.8350 O   0  0  0  0  0  0  0  0  0  0  0  0
  -22.4340  -29.5840   22.5820 C   0  0  0  0  0  0  0  0  0  0  0  0
  -21.1210  -29.3260   22.4450 N   0  0  0  0  0  0  0  0  0  0  0  0
  -23.1360  -29.0110   23.4190 O   0  0  0  0  0  0  0  0  0  0  0  0
  -20.6070  -29.8430   21.7450 H   0  0  0  0  0  0  0  0  0  0  0  0
  -17.8450  -27.8370   22.8560 C   0  0  0  0  0  0  0  0  0  0  0  0
  -20.3540  -28.3450   23.2190 C   0  0  0  0  0  3  0  0  0  0  0  0
  -20.6110  -26.9090   22.7070 C   0  0  0  0  0  2  0  0  0  0  0  0
  -19.5900  -26.4500   21.6610 C   0  0  0  0  0  2  0  0  0  0  0  0
  -18.1730  -26.4880   22.2400 C   0  0  0  0  0  2  0  0  0  0  0  0
  -18.8690  -28.7170   23.3010 C   0  0  0  0  0  0  0  0  0  0  0  0
  -18.5070  -29.9720   23.8360 C   0  0  0  0  0  3  0  0  0  0  0  0
  -17.1550  -30.3510   23.9350 C   0  0  0  0  0  3  0  0  0  0  0  0
  -16.1450  -29.4710   23.5040 C   0  0  0  0  0  3  0  0  0  0  0  0
  -16.4910  -28.2170   22.9700 C   0  0  0  0  0  3  0  0  0  0  0  0
  -25.6780  -32.5680   23.7990 C   0  0  0  0  0  3  0  0  0  0  0  0
  -26.2330  -31.7840   25.0520 C   0  0  1  0  0  0  0  0  0  0  0  0
  -25.1740  -31.5380   26.1530 C   0  0  0  0  0  1  0  0  0  0  0  0
  -26.8000  -30.4080   24.6360 C   0  0  0  0  0  1  0  0  0  0  0  0
  -27.4080  -32.5710   25.6790 C   0  0  0  0  0  1  0  0  0  0  0  0
  -25.4040  -33.9710   24.1520 N   0  0  0  0  0  0  0  0  0  0  0  0
  -25.7050  -35.0250   23.3820 C   0  0  0  0  0  0  0  0  0  0  0  0
  -26.3080  -34.9190   22.3100 O   0  0  0  0  0  0  0  0  0  0  0  0
  -24.8600  -34.1280   24.9870 H   0  0  0  0  0  0  0  0  0  0  0  0
  -23.9780  -36.8430   23.1640 C   0  0  0  0  0  1  0  0  0  0  0  0
  -25.2710  -36.4190   23.8780 C   0  0  0  0  0  3  0  0  0  0  0  0
  -27.4680  -37.2800   24.5600 C   0  0  0  0  0  1  0  0  0  0  0  0
  -26.3050  -37.4600   23.6940 N   0  0  0  0  0  0  0  0  0  0  0  0
  -25.9200  -38.3840   23.8710 H   0  0  0  0  0  0  0  0  0  0  0  0
  -29.1930  -16.4100   19.9710 O   0  0  0  0  0  0  0  0  0  0  0  0
  -30.0760  -15.2040   19.5480 C   0  0  0  0  0  0  0  0  0  0  0  0
  -29.8980  -12.8100   18.6500 C   0  0  0  0  0  2  0  0  0  0  0  0
  -28.8340  -12.7490   17.5300 C   0  0  0  0  0  2  0  0  0  0  0  0
  -27.4350  -12.4990   18.1270 C   0  0  0  0  0  2  0  0  0  0  0  0
  -27.1360  -13.4120   19.3430 C   0  0  0  0  0  3  0  0  0  0  0  0
  -28.3050  -13.4740   20.3450 C   0  0  0  0  0  2  0  0  0  0  0  0
  -29.4950  -13.8840   19.6000 N   0  0  0  0  0  0  0  0  0  0  0  0
  -31.2020  -15.3290   19.0600 O   0  0  0  0  0  0  0  0  0  0  0  0
  -24.8720  -13.9090   20.4210 C   0  0  0  0  0  0  0  0  0  0  0  0
  -23.8750  -13.0990   20.8890 C   0  0  0  0  0  0  0  0  0  0  0  0
  -24.3480  -11.7590   20.7310 C   0  0  0  0  0  0  0  0  0  0  0  0
  -25.8810  -13.0640   19.9960 N   0  0  0  0  0  0  0  0  0  0  0  0
  -25.5850  -11.7620   20.2490 N   0  0  0  0  0  0  0  0  0  0  0  0
  -23.6650  -10.4770   20.9550 C   0  0  0  0  0  0  0  0  0  0  0  0
  -24.1560   -9.5290   21.8790 C   0  0  0  0  0  3  0  0  0  0  0  0
  -23.4710   -8.3130   22.0900 C   0  0  0  0  0  3  0  0  0  0  0  0
  -22.2790   -8.0370   21.3790 C   0  0  0  0  0  0  0  0  0  0  0  0
  -21.8060   -8.9730   20.4440 C   0  0  0  0  0  3  0  0  0  0  0  0
  -22.4930  -10.1800   20.2300 C   0  0  0  0  0  3  0  0  0  0  0  0
  -21.5620   -6.8720   21.5000 O   0  0  0  0  0  0  0  0  0  0  0  0
  -21.5040   -6.1810   22.6840 C   0  0  0  0  0  0  0  0  0  0  0  0
  -21.0050   -6.7680   23.8660 C   0  0  0  0  0  3  0  0  0  0  0  0
  -20.9010   -6.0010   25.0430 C   0  0  0  0  0  3  0  0  0  0  0  0
  -21.2840   -4.6470   25.0390 C   0  0  0  0  0  0  0  0  0  0  0  0
  -21.7760   -4.0580   23.8610 C   0  0  0  0  0  3  0  0  0  0  0  0
  -21.8830   -4.8230   22.6860 C   0  0  0  0  0  0  0  0  0  0  0  0
  -22.3380   -4.2460   21.5470 F   0  0  0  0  0  0  0  0  0  0  0  0
  -21.1770   -3.9060   26.1670 F   0  0  0  0  0  0  0  0  0  0  0  0
  -22.5220  -13.5390   21.3660 C   0  0  0  0  0  0  0  0  0  0  0  0
  -21.9290  -12.7950   22.2930 N   0  0  0  0  0  0  0  0  0  0  0  0
  -22.0060  -14.5770   20.9550 O   0  0  0  0  0  0  0  0  0  0  0  0
  -22.3660  -11.9560   22.6460 H   0  0  0  0  0  0  0  0  0  0  0  0
  -21.0270  -13.0690   22.6550 H   0  0  0  0  0  0  0  0  0  0  0  0
  -24.9960  -15.2900   20.2950 N   0  0  0  0  0  0  0  0  0  0  0  0
  -24.2480  -15.9260   20.5480 H   0  0  0  0  0  0  0  0  0  0  0  0
  -25.7940  -15.7610   19.8870 H   0  0  0  0  0  0  0  0  0  0  0  0
  1  2  1  0
  2 15  1  0
  3  2  2  0
  3 17  1  0
  4  1  2  0
  5  3  1  0
  6 10  1  0
  8  6  1  0
  8 12  1  0
  9  7  1  0
 10 18  1  0
 10  7  1  0
 11  4  1  0
 11  5  2  0
 12  4  1  0
 12  9  1  0
 14 15  1  0
 15 13  1  0
 16 17  1  0
 18 20  1  0
 19 30  2  0
 20 25  1  0
 21 29  1  0
 21 31  1  0
 22 28  1  0
 22 24  1  0
 23 29  1  0
 24 23  1  0
 25 24  2  0
 26 27  1  0
 26 20  2  0
 27 22  2  0
 28 21  1  0
 29 19  1  0
 31 33  2  0
 32 31  1  0
 34 32  1  0
 35 44  2  0
 35 40  1  0
 36 32  1  0
 36 40  1  0
 37 36  1  0
 38 39  1  0
 38 37  1  0
 39 35  1  0
 40 41  2  0
 41 42  1  0
 43 42  2  0
 44 43  1  0
 45 19  1  0
 45 50  1  0
 45 46  1  0
 46 49  1  1
 46 47  1  0
 48 46  1  0
 50 53  1  0
 51 55  1  0
 51 50  1  0
 52 51  2  0
 55 54  1  0
 57 58  1  0
 57 55  1  0
 57 56  1  0
 59  5  1  0
 60 66  1  0
 60 59  1  0
 61 66  1  0
 62 63  1  0
 62 61  1  0
 64 63  1  0
 64 71  1  0
 64 65  1  0
 66 65  1  0
 67 60  2  0
 68 69  2  0
 69 88  1  0
 70 69  1  0
 70 73  1  0
 71 72  1  0
 71 68  1  0
 72 70  2  0
 73 74  1  0
 74 75  2  0
 76 79  1  0
 76 75  1  0
 77 76  2  0
 78 77  1  0
 78 73  2  0
 79 80  1  0
 80 85  2  0
 80 81  1  0
 81 82  2  0
 83 82  1  0
 83 87  1  0
 84 83  2  0
 85 84  1  0
 86 85  1  0
 88 89  1  0
 89 91  1  0
 89 92  1  0
 90 88  2  0
 93 68  1  0
 93 94  1  0
 95 93  1  0
M  ISO  4  10 101  18 101  59 100  60 100
M  END
>  <TORSDO>  (95) 
F 19

>  <SCORE>  (95) 
-12.109

>  <name>  (95) 
96

>  <ligand_id>  (95) 
96

>  <original_smiles>  (95) 
[H]c1c([H])c([H])c2c(c1[H])C([H])([H])C([H])([H])C([H])([H])C2([H])N([H])C(=O)C1([H])N(C(=O)C([H])(N([H])C(=O)C([H])(N([H])C([H])([H])[H])C([H])([H])[H])C(C([H])([H])[H])(C([H])([H])[H])C([H])([H])[H])C([H])([H])c2c([H])c(OC3([H])C([H])([H])C([H])([H])N(c4nc(OC(=O)N5C([H])([H])C([H])([H])C([H])([H])C([H])(n6nc(-c7c([H])c([H])c(Oc8c([H])c([H])c(F)c([H])c8F)c([H])c7[H])c(C(=O)N([H])[H])c6N([H])[H])C5([H])[H])c(C([H])([H])C([H])([H])[H])c(C([H])(C([H])([H])[H])C([H])([H])[H])c4[H])C([H])([H])C3([H])[H])c([H])c([H])c2C1([H])[H]

>  <smiles>  (95) 
[H]c1c([H])c([H])c2c(c1[H])C([H])([H])C([H])([H])C([H])([H])C2([H])N([H])C(=O)C1([H])N(C(=O)C([H])(N([H])C(=O)C([H])(N([H])C([H])([H])[H])C([H])([H])[H])C(C([H])([H])[H])(C([H])([H])[H])C([H])([H])[H])C([H])([H])c2c([H])c(OC3([H])C([H])([H])C([H])([H])N(c4nc(OC(=O)N5C([H])([H])C([H])([H])C([H])([H])C([H])(n6nc(-c7c([H])c([H])c(Oc8c([H])c([H])c(F)c([H])c8F)c([H])c7[H])c(C(=O)N([H])[H])c6N([H])[H])C5([H])[H])c(C([H])([H])C([H])([H])[H])c(C([H])(C([H])([H])[H])C([H])([H])[H])c4[H])C([H])([H])C3([H])[H])c([H])c([H])c2C1([H])[H]

$$$$
