0:0:0
     RDKit          3D

 96105  0  0  1  0  0  0  0  0999 V2000
  -29.0190  -19.9340   20.8620 C   0  0  0  0  0  3  0  0  0  0  0  0
  -28.7490  -21.2970   21.1050 C   0  0  0  0  0  3  0  0  0  0  0  0
  -30.8330  -21.9140   20.0420 C   0  0  0  0  0  3  0  0  0  0  0  0
  -30.2030  -19.5310   20.2030 C   0  0  0  0  0  0  0  0  0  0  0  0
  -31.1280  -20.5450   19.8170 C   0  0  0  0  0  0  0  0  0  0  0  0
  -29.6290  -22.3060   20.6690 C   0  0  0  0  0  0  0  0  0  0  0  0
  -32.4420  -20.1980   19.1340 C   0  0  0  0  0  1  0  0  0  0  0  0
  -30.6020  -14.5710   19.9340 C   0  0  0  0  0  0  0  0  0  0  0  0
  -30.2210  -12.3900   18.8740 C   0  0  0  0  0  2  0  0  0  0  0  0
  -29.2040  -12.6000   17.7340 C   0  0  0  0  0  2  0  0  0  0  0  0
  -27.7610  -12.4660   18.2630 C   0  0  0  0  0  2  0  0  0  0  0  0
  -27.5050  -13.2800   19.5610 C   0  0  0  0  0  3  0  0  0  0  0  0
  -28.6500  -13.1100   20.5890 C   0  0  0  0  0  2  0  0  0  0  0  0
  -29.9180  -13.3930   19.9030 N   0  0  0  0  0  0  0  0  0  0  0  0
  -31.7840  -14.6580   19.6020 O   0  0  0  0  0  0  0  0  0  0  0  0
  -29.5910  -17.7250   18.5550 C   0  0  0  0  0  2  0  0  0  0  0  0
  -29.5380  -16.1980   18.5270 C   0  0  0  0  0  2  0  0  0  0  0  0
  -30.4090  -18.0530   19.7920 C   0  0  0  0  0  3  0  0  0  0  0  0
  -29.9760  -16.9000   20.7410 C   0  0  0  0  0  3  0  0  0  0  0  0
  -29.8230  -15.6870   19.8890 N   0  0  0  0  0  0  0  0  0  0  0  0
  -25.1660  -13.8420   20.4590 C   0  0  0  0  0  0  0  0  0  0  0  0
  -24.1330  -13.0500   20.8820 C   0  0  0  0  0  0  0  0  0  0  0  0
  -24.6040  -11.7050   20.7880 C   0  0  0  0  0  0  0  0  0  0  0  0
  -26.1990  -12.9780   20.1380 N   0  0  0  0  0  0  0  0  0  0  0  0
  -25.8690  -11.6860   20.3950 N   0  0  0  0  0  0  0  0  0  0  0  0
  -23.9010  -10.4330   20.9950 C   0  0  0  0  0  0  0  0  0  0  0  0
  -24.3530   -9.4870   21.9430 C   0  0  0  0  0  3  0  0  0  0  0  0
  -23.6500   -8.2780   22.1370 C   0  0  0  0  0  3  0  0  0  0  0  0
  -22.4820   -8.0080   21.3840 C   0  0  0  0  0  0  0  0  0  0  0  0
  -22.0500   -8.9420   20.4280 C   0  0  0  0  0  3  0  0  0  0  0  0
  -22.7540  -10.1420   20.2310 C   0  0  0  0  0  3  0  0  0  0  0  0
  -21.7510   -6.8510   21.4890 O   0  0  0  0  0  0  0  0  0  0  0  0
  -21.6650   -6.1550   22.6690 C   0  0  0  0  0  0  0  0  0  0  0  0
  -21.1320   -6.7350   23.8400 C   0  0  0  0  0  3  0  0  0  0  0  0
  -20.9990   -5.9630   25.0120 C   0  0  0  0  0  3  0  0  0  0  0  0
  -21.3890   -4.6100   25.0120 C   0  0  0  0  0  0  0  0  0  0  0  0
  -21.9140   -4.0290   23.8450 C   0  0  0  0  0  3  0  0  0  0  0  0
  -22.0480   -4.7980   22.6760 C   0  0  0  0  0  0  0  0  0  0  0  0
  -22.5340   -4.2250   21.5480 F   0  0  0  0  0  0  0  0  0  0  0  0
  -21.2550   -3.8650   26.1350 F   0  0  0  0  0  0  0  0  0  0  0  0
  -22.7550  -13.5060   21.2640 C   0  0  0  0  0  0  0  0  0  0  0  0
  -22.0910  -12.7720   22.1510 N   0  0  0  0  0  0  0  0  0  0  0  0
  -22.2800  -14.5460   20.8140 O   0  0  0  0  0  0  0  0  0  0  0  0
  -22.4900  -11.9280   22.5360 H   0  0  0  0  0  0  0  0  0  0  0  0
  -21.1710  -13.0610   22.4510 H   0  0  0  0  0  0  0  0  0  0  0  0
  -25.3070  -15.2170   20.3040 N   0  0  0  0  0  0  0  0  0  0  0  0
  -24.5510  -15.8670   20.4900 H   0  0  0  0  0  0  0  0  0  0  0  0
  -26.1430  -15.6700   19.9530 H   0  0  0  0  0  0  0  0  0  0  0  0
  -32.2560  -17.0930   22.0500 C   0  0  0  0  0  1  0  0  0  0  0  0
  -30.7630  -16.7270   22.0750 C   0  0  0  0  0  3  0  0  0  0  0  0
  -30.1580  -17.5390   23.0610 O   0  0  0  0  0  0  0  0  0  0  0  0
  -30.1430  -18.4340   22.7280 H   0  0  0  0  0  0  0  0  0  0  0  0
  -29.2730  -23.6200   20.9070 O   0  0  0  0  0  0  0  0  0  0  0  0
  -29.6270  -24.6170   19.9380 C   0  0  0  0  0  2  0  0  0  0  0  0
  -28.3710  -25.4400   19.5620 C   0  0  0  0  0  2  0  0  0  0  0  0
  -28.3420  -26.7490   20.1590 O   0  0  0  0  0  0  0  0  0  0  0  0
  -24.5230  -31.9460   23.2110 C   0  0  0  0  0  0  0  0  0  0  0  0
  -27.1540  -27.4630   20.1370 C   0  0  0  0  0  0  0  0  0  0  0  0
  -23.3080  -30.5200   21.5980 C   0  0  0  0  0  3  0  0  0  0  0  0
  -24.7500  -28.9730   20.1730 C   0  0  0  0  0  0  0  0  0  0  0  0
  -25.8320  -30.8700   21.3840 C   0  0  0  0  0  2  0  0  0  0  0  0
  -25.9110  -29.4940   20.7550 C   0  0  0  0  0  0  0  0  0  0  0  0
  -27.1090  -28.7420   20.7420 C   0  0  0  0  0  3  0  0  0  0  0  0
  -25.9700  -26.9690   19.5360 C   0  0  0  0  0  3  0  0  0  0  0  0
  -24.7750  -27.7090   19.5630 C   0  0  0  0  0  3  0  0  0  0  0  0
  -23.5050  -29.8270   20.2240 C   0  0  0  0  0  2  0  0  0  0  0  0
  -24.5730  -31.1280   22.1210 N   0  0  0  0  0  0  0  0  0  0  0  0
  -23.4450  -32.2260   23.7530 O   0  0  0  0  0  0  0  0  0  0  0  0
  -22.6670  -29.5090   22.5760 C   0  0  0  0  0  0  0  0  0  0  0  0
  -21.3430  -29.3150   22.4540 N   0  0  0  0  0  0  0  0  0  0  0  0
  -23.3570  -28.9010   23.3980 O   0  0  0  0  0  0  0  0  0  0  0  0
  -20.8470  -29.8600   21.7620 H   0  0  0  0  0  0  0  0  0  0  0  0
  -17.9780  -28.1120   22.9820 C   0  0  0  0  0  0  0  0  0  0  0  0
  -20.5350  -28.3820   23.2380 C   0  0  0  0  0  3  0  0  0  0  0  0
  -20.6400  -26.9450   22.6740 C   0  0  0  0  0  2  0  0  0  0  0  0
  -19.5350  -26.6080   21.6710 C   0  0  0  0  0  2  0  0  0  0  0  0
  -18.1550  -26.7560   22.3200 C   0  0  0  0  0  2  0  0  0  0  0  0
  -19.0950  -28.8840   23.3970 C   0  0  0  0  0  0  0  0  0  0  0  0
  -18.8770  -30.1540   23.9720 C   0  0  0  0  0  3  0  0  0  0  0  0
  -17.5720  -30.6530   24.1390 C   0  0  0  0  0  3  0  0  0  0  0  0
  -16.4680  -29.8790   23.7430 C   0  0  0  0  0  3  0  0  0  0  0  0
  -16.6720  -28.6100   23.1690 C   0  0  0  0  0  3  0  0  0  0  0  0
  -25.8150  -32.5860   23.8100 C   0  0  0  0  0  3  0  0  0  0  0  0
  -25.4980  -33.9780   24.1600 N   0  0  0  0  0  0  0  0  0  0  0  0
  -25.8120  -35.0420   23.4100 C   0  0  0  0  0  0  0  0  0  0  0  0
  -26.4710  -34.9570   22.3700 O   0  0  0  0  0  0  0  0  0  0  0  0
  -24.9130  -34.1190   24.9700 H   0  0  0  0  0  0  0  0  0  0  0  0
  -24.0740  -36.8280   23.0760 C   0  0  0  0  0  1  0  0  0  0  0  0
  -25.3150  -36.4190   23.8860 C   0  0  0  0  0  3  0  0  0  0  0  0
  -27.4380  -37.3050   24.7440 C   0  0  0  0  0  1  0  0  0  0  0  0
  -26.3410  -37.4810   23.7960 N   0  0  0  0  0  0  0  0  0  0  0  0
  -25.9280  -38.3950   23.9560 H   0  0  0  0  0  0  0  0  0  0  0  0
  -26.3670  -31.8090   25.0680 C   0  0  1  0  0  0  0  0  0  0  0  0
  -25.2920  -31.5210   26.1410 C   0  0  0  0  0  1  0  0  0  0  0  0
  -26.9870  -30.4560   24.6450 C   0  0  0  0  0  1  0  0  0  0  0  0
  -27.4990  -32.6260   25.7340 C   0  0  0  0  0  1  0  0  0  0  0  0
  1  2  1  0
  3  6  1  0
  4  1  2  0
  5  3  2  0
  5  4  1  0
  6 53  1  0
  6  2  2  0
  7  5  1  0
  9 14  1  0
 10 11  1  0
 10  9  1  0
 12 11  1  0
 12 24  1  0
 12 13  1  0
 14  8  1  0
 14 13  1  0
 15  8  2  0
 16 18  1  0
 17 16  1  0
 17 20  1  0
 18  4  1  0
 18 19  1  0
 19 50  1  0
 20  8  1  0
 20 19  1  0
 21 22  2  0
 22 41  1  0
 23 22  1  0
 23 26  1  0
 24 25  1  0
 24 21  1  0
 25 23  2  0
 26 27  1  0
 27 28  2  0
 29 32  1  0
 29 28  1  0
 30 29  2  0
 31 30  1  0
 31 26  2  0
 32 33  1  0
 33 38  2  0
 33 34  1  0
 34 35  2  0
 36 35  1  0
 36 40  1  0
 37 36  2  0
 38 37  1  0
 39 38  1  0
 41 42  1  0
 42 45  1  0
 42 44  1  0
 43 41  2  0
 46 21  1  0
 46 47  1  0
 48 46  1  0
 50 49  1  0
 50 51  1  0
 52 51  1  0
 54 53  1  0
 55 54  1  0
 55 56  1  0
 57 68  2  0
 58 56  1  0
 58 63  1  0
 59 67  1  0
 59 69  1  0
 60 66  1  0
 60 62  1  0
 61 67  1  0
 62 61  1  0
 63 62  2  0
 64 65  1  0
 64 58  2  0
 65 60  2  0
 66 59  1  0
 67 57  1  0
 69 71  2  0
 70 69  1  0
 72 70  1  0
 73 82  2  0
 73 78  1  0
 74 70  1  0
 74 78  1  0
 75 74  1  0
 76 77  1  0
 76 75  1  0
 77 73  1  0
 78 79  2  0
 79 80  1  0
 81 80  2  0
 82 81  1  0
 83 57  1  0
 83 84  1  0
 83 93  1  0
 84 87  1  0
 85 89  1  0
 85 84  1  0
 86 85  2  0
 89 88  1  0
 91 89  1  0
 91 92  1  0
 91 90  1  0
 93 96  1  1
 93 94  1  0
 95 93  1  0
M  ISO  4   8 100  20 100  55 101  56 101
M  END
>  <TORSDO>  (1) 
F 21

>  <SCORE>  (1) 
-12.122

>  <name>  (1) 
0

>  <ligand_id>  (1) 
0

>  <original_smiles>  (1) 
[H]OC([H])(C([H])([H])[H])C1([H])N(C(=O)N2C([H])([H])C([H])([H])C([H])([H])C([H])(n3nc(-c4c([H])c([H])c(Oc5c([H])c([H])c(F)c([H])c5F)c([H])c4[H])c(C(=O)N([H])[H])c3N([H])[H])C2([H])[H])C([H])([H])C([H])([H])C1([H])c1c([H])c([H])c(OC([H])([H])C([H])([H])Oc2c([H])c([H])c3c(c2[H])C([H])([H])N(C(=O)C([H])(N([H])C(=O)C([H])(N([H])C([H])([H])[H])C([H])([H])[H])C(C([H])([H])[H])(C([H])([H])[H])C([H])([H])[H])C([H])(C(=O)N([H])C2([H])c4c([H])c([H])c([H])c([H])c4C([H])([H])C([H])([H])C2([H])[H])C3([H])[H])c([H])c1C([H])([H])[H]

>  <smiles>  (1) 
[H]OC([H])(C([H])([H])[H])C1([H])N(C(=O)N2C([H])([H])C([H])([H])C([H])([H])C([H])(n3nc(-c4c([H])c([H])c(Oc5c([H])c([H])c(F)c([H])c5F)c([H])c4[H])c(C(=O)N([H])[H])c3N([H])[H])C2([H])[H])C([H])([H])C([H])([H])C1([H])c1c([H])c([H])c(OC([H])([H])C([H])([H])Oc2c([H])c([H])c3c(c2[H])C([H])([H])N(C(=O)C([H])(N([H])C(=O)C([H])(N([H])C([H])([H])[H])C([H])([H])[H])C(C([H])([H])[H])(C([H])([H])[H])C([H])([H])[H])C([H])(C(=O)N([H])C2([H])c4c([H])c([H])c([H])c([H])c4C([H])([H])C([H])([H])C2([H])[H])C3([H])[H])c([H])c1C([H])([H])[H]

$$$$
1:0:0
     RDKit          3D

 99108  0  0  1  0  0  0  0  0999 V2000
  -28.7470  -22.4500   20.1360 C   0  0  0  0  0  3  0  0  0  0  0  0
  -30.9880  -21.5390   20.0580 C   0  0  0  0  0  3  0  0  0  0  0  0
  -29.2110  -23.8000   19.8250 C   0  0  0  0  0  0  0  0  0  0  0  0
  -30.6030  -23.9370   19.5830 C   0  0  0  0  0  0  0  0  0  0  0  0
  -31.4920  -22.8350   19.7860 C   0  0  0  0  0  0  0  0  0  0  0  0
  -29.6150  -21.2830   20.2230 C   0  0  0  0  0  0  0  0  0  0  0  0
  -31.1240  -25.2590   19.0000 C   0  0  0  0  0  3  0  0  0  0  0  0
  -30.1180  -26.0780   18.1480 C   0  0  0  0  0  3  0  0  0  0  0  0
  -28.2600  -25.0370   19.4400 C   0  0  0  0  0  3  0  0  0  0  0  0
  -28.6870  -25.4840   18.0120 C   0  0  0  0  0  3  0  0  0  0  0  0
  -33.5490  -22.5650   18.3280 C   0  0  0  0  0  1  0  0  0  0  0  0
  -33.7470  -22.2630   20.8400 C   0  0  0  0  0  1  0  0  0  0  0  0
  -33.0150  -22.9940   19.7010 C   0  0  0  0  0  3  0  0  0  0  0  0
  -27.0970  -23.9150   16.7500 C   0  0  0  0  0  1  0  0  0  0  0  0
  -29.0610  -24.8570   15.5210 C   0  0  0  0  0  1  0  0  0  0  0  0
  -28.5530  -24.3910   16.9030 C   0  0  0  0  0  3  0  0  0  0  0  0
  -29.1940  -19.9220   20.5160 N   0  0  0  0  0  0  0  0  0  0  0  0
  -28.2170  -19.8420   20.7910 H   0  0  0  0  0  0  0  0  0  0  0  0
  -29.7630  -18.6250   19.9440 C   0  0  0  0  0  2  0  0  0  0  0  0
  -30.1460  -17.3850   20.9250 C   0  0  0  0  0  2  0  0  0  0  0  0
  -30.6280  -14.7950   20.3860 C   0  0  0  0  0  0  0  0  0  0  0  0
  -30.4550  -12.5070   19.3740 C   0  0  0  0  0  2  0  0  0  0  0  0
  -29.5210  -12.5480   18.1460 C   0  0  0  0  0  2  0  0  0  0  0  0
  -28.0460  -12.3750   18.5650 C   0  0  0  0  0  2  0  0  0  0  0  0
  -27.6620  -13.2740   19.7700 C   0  0  0  0  0  3  0  0  0  0  0  0
  -28.7140  -13.1990   20.8960 C   0  0  0  0  0  2  0  0  0  0  0  0
  -30.0100  -13.5670   20.3060 N   0  0  0  0  0  0  0  0  0  0  0  0
  -31.8280  -14.9010   20.1080 O   0  0  0  0  0  0  0  0  0  0  0  0
  -29.8340  -15.9170   20.5890 N   0  0  0  0  0  0  0  0  0  0  0  0
  -28.8590  -15.6860   20.6950 H   0  0  0  0  0  0  0  0  0  0  0  0
  -25.2700  -13.8690   20.4670 C   0  0  0  0  0  0  0  0  0  0  0  0
  -24.2020  -13.0990   20.8380 C   0  0  0  0  0  0  0  0  0  0  0  0
  -24.6650  -11.7480   20.8240 C   0  0  0  0  0  0  0  0  0  0  0  0
  -26.3160  -12.9870   20.2530 N   0  0  0  0  0  0  0  0  0  0  0  0
  -25.9600  -11.7060   20.5320 N   0  0  0  0  0  0  0  0  0  0  0  0
  -23.9310  -10.4910   21.0150 C   0  0  0  0  0  0  0  0  0  0  0  0
  -24.3460   -9.5360   21.9690 C   0  0  0  0  0  3  0  0  0  0  0  0
  -23.6160   -8.3410   22.1490 C   0  0  0  0  0  3  0  0  0  0  0  0
  -22.4570   -8.0920   21.3760 C   0  0  0  0  0  0  0  0  0  0  0  0
  -22.0630   -9.0360   20.4110 C   0  0  0  0  0  3  0  0  0  0  0  0
  -22.7940  -10.2230   20.2290 C   0  0  0  0  0  3  0  0  0  0  0  0
  -21.7010   -6.9500   21.4640 O   0  0  0  0  0  0  0  0  0  0  0  0
  -21.6260   -6.2250   22.6260 C   0  0  0  0  0  0  0  0  0  0  0  0
  -21.1600   -6.7950   23.8320 C   0  0  0  0  0  3  0  0  0  0  0  0
  -21.0320   -5.9960   24.9860 C   0  0  0  0  0  3  0  0  0  0  0  0
  -21.3610   -4.6280   24.9340 C   0  0  0  0  0  0  0  0  0  0  0  0
  -21.8240   -4.0580   23.7340 C   0  0  0  0  0  3  0  0  0  0  0  0
  -21.9530   -4.8550   22.5830 C   0  0  0  0  0  0  0  0  0  0  0  0
  -22.3750   -4.2980   21.4230 F   0  0  0  0  0  0  0  0  0  0  0  0
  -21.2330   -3.8550   26.0380 F   0  0  0  0  0  0  0  0  0  0  0  0
  -22.8030  -13.5790   21.0890 C   0  0  0  0  0  0  0  0  0  0  0  0
  -22.0660  -12.8940   21.9540 N   0  0  0  0  0  0  0  0  0  0  0  0
  -22.3700  -14.5990   20.5550 O   0  0  0  0  0  0  0  0  0  0  0  0
  -22.4240  -12.0710   22.4130 H   0  0  0  0  0  0  0  0  0  0  0  0
  -21.1250  -13.1980   22.1660 H   0  0  0  0  0  0  0  0  0  0  0  0
  -25.4320  -15.2390   20.2710 N   0  0  0  0  0  0  0  0  0  0  0  0
  -24.6450  -15.8740   20.3420 H   0  0  0  0  0  0  0  0  0  0  0  0
  -26.2580  -15.6720   19.8820 H   0  0  0  0  0  0  0  0  0  0  0  0
  -28.2630  -26.3540   20.1890 O   0  0  0  0  0  0  0  0  0  0  0  0
  -24.7020  -31.8870   23.3110 C   0  0  0  0  0  0  0  0  0  0  0  0
  -27.1740  -27.2730   20.1300 C   0  0  0  0  0  0  0  0  0  0  0  0
  -23.4430  -30.5340   21.6780 C   0  0  0  0  0  3  0  0  0  0  0  0
  -24.8400  -28.9760   20.1990 C   0  0  0  0  0  0  0  0  0  0  0  0
  -25.9910  -30.7870   21.4580 C   0  0  0  0  0  2  0  0  0  0  0  0
  -26.0320  -29.4140   20.7870 C   0  0  0  0  0  0  0  0  0  0  0  0
  -27.1950  -28.5730   20.7490 C   0  0  0  0  0  3  0  0  0  0  0  0
  -25.9490  -26.9140   19.5130 C   0  0  0  0  0  3  0  0  0  0  0  0
  -24.8050  -27.7320   19.5550 C   0  0  0  0  0  3  0  0  0  0  0  0
  -23.6200  -29.8750   20.2850 C   0  0  0  0  0  2  0  0  0  0  0  0
  -24.7320  -31.0880   22.2040 N   0  0  0  0  0  0  0  0  0  0  0  0
  -23.6340  -32.1780   23.8690 O   0  0  0  0  0  0  0  0  0  0  0  0
  -22.7770  -29.5160   22.6380 C   0  0  0  0  0  0  0  0  0  0  0  0
  -21.4550  -29.3230   22.4980 N   0  0  0  0  0  0  0  0  0  0  0  0
  -23.4520  -28.9040   23.4710 O   0  0  0  0  0  0  0  0  0  0  0  0
  -20.9670  -29.8650   21.7990 H   0  0  0  0  0  0  0  0  0  0  0  0
  -18.0980  -28.0360   22.9220 C   0  0  0  0  0  0  0  0  0  0  0  0
  -20.6380  -28.3820   23.2690 C   0  0  0  0  0  3  0  0  0  0  0  0
  -20.8030  -26.9390   22.7390 C   0  0  0  0  0  2  0  0  0  0  0  0
  -19.7460  -26.5550   21.6990 C   0  0  0  0  0  2  0  0  0  0  0  0
  -18.3390  -26.6750   22.2900 C   0  0  0  0  0  2  0  0  0  0  0  0
  -19.1790  -28.8440   23.3670 C   0  0  0  0  0  0  0  0  0  0  0  0
  -18.9010  -30.1150   23.9160 C   0  0  0  0  0  3  0  0  0  0  0  0
  -17.5760  -30.5790   24.0250 C   0  0  0  0  0  3  0  0  0  0  0  0
  -16.5100  -29.7680   23.5970 C   0  0  0  0  0  3  0  0  0  0  0  0
  -16.7720  -28.4990   23.0510 C   0  0  0  0  0  3  0  0  0  0  0  0
  -26.0070  -32.4920   23.9140 C   0  0  0  0  0  3  0  0  0  0  0  0
  -25.7320  -33.8950   24.2550 N   0  0  0  0  0  0  0  0  0  0  0  0
  -26.0400  -34.9430   23.4780 C   0  0  0  0  0  0  0  0  0  0  0  0
  -26.6570  -34.8280   22.4160 O   0  0  0  0  0  0  0  0  0  0  0  0
  -25.1790  -34.0600   25.0840 H   0  0  0  0  0  0  0  0  0  0  0  0
  -24.3040  -36.7480   23.2340 C   0  0  0  0  0  1  0  0  0  0  0  0
  -25.5970  -36.3400   23.9570 C   0  0  0  0  0  3  0  0  0  0  0  0
  -27.7880  -37.2190   24.6290 C   0  0  0  0  0  1  0  0  0  0  0  0
  -26.6270  -37.3830   23.7620 N   0  0  0  0  0  0  0  0  0  0  0  0
  -26.2360  -38.3070   23.9270 H   0  0  0  0  0  0  0  0  0  0  0  0
  -26.5230  -31.7080   25.1830 C   0  0  1  0  0  0  0  0  0  0  0  0
  -25.4400  -31.4960   26.2670 C   0  0  0  0  0  1  0  0  0  0  0  0
  -27.0720  -30.3180   24.7880 C   0  0  0  0  0  1  0  0  0  0  0  0
  -27.6990  -32.4780   25.8310 C   0  0  0  0  0  1  0  0  0  0  0  0
  1  6  1  0
  2  6  2  0
  3  1  2  0
  4  5  2  0
  4  3  1  0
  5  2  1  0
  6 17  1  0
  7  4  1  0
  8  7  2  0
  9  3  1  0
  9 59  1  0
 10 16  1  0
 10  8  1  0
 10  9  1  0
 11 13  1  0
 13  5  1  0
 13 12  1  0
 14 16  1  0
 15 16  1  0
 17 18  1  0
 19 17  1  0
 19 20  1  0
 21 29  1  0
 22 27  1  0
 23 24  1  0
 23 22  1  0
 25 24  1  0
 25 34  1  0
 25 26  1  0
 27 21  1  0
 27 26  1  0
 28 21  2  0
 29 30  1  0
 29 20  1  0
 31 32  2  0
 32 51  1  0
 33 32  1  0
 33 36  1  0
 34 31  1  0
 34 35  1  0
 35 33  2  0
 36 37  1  0
 37 38  2  0
 39 42  1  0
 39 38  1  0
 40 39  2  0
 41 40  1  0
 41 36  2  0
 42 43  1  0
 43 44  1  0
 44 45  2  0
 46 45  1  0
 46 50  1  0
 47 46  2  0
 48 43  2  0
 48 47  1  0
 49 48  1  0
 51 52  1  0
 52 55  1  0
 52 54  1  0
 53 51  2  0
 56 57  1  0
 56 31  1  0
 58 56  1  0
 60 71  2  0
 61 59  1  0
 61 66  1  0
 62 70  1  0
 62 72  1  0
 63 69  1  0
 63 65  1  0
 64 70  1  0
 65 64  1  0
 66 65  2  0
 67 68  1  0
 67 61  2  0
 68 63  2  0
 69 62  1  0
 70 60  1  0
 72 74  2  0
 73 72  1  0
 75 73  1  0
 76 85  2  0
 76 81  1  0
 77 73  1  0
 77 81  1  0
 78 77  1  0
 79 80  1  0
 79 78  1  0
 80 76  1  0
 81 82  2  0
 82 83  1  0
 84 83  2  0
 85 84  1  0
 86 60  1  0
 86 87  1  0
 86 96  1  0
 87 90  1  0
 88 92  1  0
 88 87  1  0
 89 88  2  0
 92 91  1  0
 94 95  1  0
 94 92  1  0
 94 93  1  0
 96 99  1  1
 96 97  1  0
 98 96  1  0
M  ISO  4   9 101  21 100  29 100  59 101
M  END
>  <TORSDO>  (2) 
F 21

>  <SCORE>  (2) 
-12.742

>  <name>  (2) 
1

>  <ligand_id>  (2) 
1

>  <original_smiles>  (2) 
[H]c1c([H])c([H])c2c(c1[H])C([H])([H])C([H])([H])C([H])([H])C2([H])N([H])C(=O)C1([H])N(C(=O)C([H])(N([H])C(=O)C([H])(N([H])C([H])([H])[H])C([H])([H])[H])C(C([H])([H])[H])(C([H])([H])[H])C([H])([H])[H])C([H])([H])c2c([H])c(OC3([H])c4c([H])c(N([H])C([H])([H])C([H])([H])N([H])C(=O)N5C([H])([H])C([H])([H])C([H])([H])C([H])(n6nc(-c7c([H])c([H])c(Oc8c([H])c([H])c(F)c([H])c8F)c([H])c7[H])c(C(=O)N([H])[H])c6N([H])[H])C5([H])[H])c([H])c(C([H])(C([H])([H])[H])C([H])([H])[H])c4C([H])([H])C([H])([H])C3([H])C([H])(C([H])([H])[H])C([H])([H])[H])c([H])c([H])c2C1([H])[H]

>  <smiles>  (2) 
[H]c1c([H])c([H])c2c(c1[H])C([H])([H])C([H])([H])C([H])([H])C2([H])N([H])C(=O)C1([H])N(C(=O)C([H])(N([H])C(=O)C([H])(N([H])C([H])([H])[H])C([H])([H])[H])C(C([H])([H])[H])(C([H])([H])[H])C([H])([H])[H])C([H])([H])c2c([H])c(OC3([H])c4c([H])c(N([H])C([H])([H])C([H])([H])N([H])C(=O)N5C([H])([H])C([H])([H])C([H])([H])C([H])(n6nc(-c7c([H])c([H])c(Oc8c([H])c([H])c(F)c([H])c8F)c([H])c7[H])c(C(=O)N([H])[H])c6N([H])[H])C5([H])[H])c([H])c(C([H])(C([H])([H])[H])C([H])([H])[H])c4C([H])([H])C([H])([H])C3([H])C([H])(C([H])([H])[H])C([H])([H])[H])c([H])c([H])c2C1([H])[H]

$$$$
2:0:0
     RDKit          3D

 95105  0  0  1  0  0  0  0  0999 V2000
  -30.0610  -19.8560   21.5190 C   0  0  0  0  0  3  0  0  0  0  0  0
  -29.0850  -19.6990   20.5040 C   0  0  0  0  0  0  0  0  0  0  0  0
  -29.8440  -22.2650   21.4310 C   0  0  0  0  0  0  0  0  0  0  0  0
  -28.9370  -22.1470   20.3890 C   0  0  0  0  0  0  0  0  0  0  0  0
  -30.4310  -21.1270   22.0130 C   0  0  0  0  0  0  0  0  0  0  0  0
  -28.5410  -20.8800   19.8920 C   0  0  0  0  0  0  0  0  0  0  0  0
  -30.0610  -23.7080   21.8120 C   0  0  0  0  0  2  0  0  0  0  0  0
  -28.4470  -23.5140   19.9450 C   0  0  0  0  0  2  0  0  0  0  0  0
  -29.3850  -24.5180   20.6730 C   0  0  0  0  0  3  0  0  0  0  0  0
  -31.3880  -21.2460   23.1830 C   0  0  0  0  0  1  0  0  0  0  0  0
  -27.5380  -20.8660   18.7420 C   0  0  0  0  0  1  0  0  0  0  0  0
  -30.8710  -14.5550   20.0500 C   0  0  0  0  0  0  0  0  0  0  0  0
  -30.4580  -12.4070   18.9180 C   0  0  0  0  0  2  0  0  0  0  0  0
  -29.4620  -12.6560   17.7690 C   0  0  0  0  0  2  0  0  0  0  0  0
  -28.0150  -12.5030   18.2740 C   0  0  0  0  0  2  0  0  0  0  0  0
  -27.7510  -13.3010   19.5830 C   0  0  0  0  0  3  0  0  0  0  0  0
  -28.8750  -13.1000   20.6230 C   0  0  0  0  0  2  0  0  0  0  0  0
  -30.1550  -13.3990   19.9620 N   0  0  0  0  0  0  0  0  0  0  0  0
  -32.0370  -14.6270   19.6410 O   0  0  0  0  0  0  0  0  0  0  0  0
  -29.2500  -17.6590   18.9040 C   0  0  0  0  0  2  0  0  0  0  0  0
  -28.6120  -17.2600   21.3610 C   0  0  0  0  0  2  0  0  0  0  0  0
  -30.4910  -16.7990   19.2090 C   0  0  0  0  0  2  0  0  0  0  0  0
  -29.8410  -16.3120   21.4500 C   0  0  0  0  0  2  0  0  0  0  0  0
  -28.6010  -18.2690   20.1640 C   0  0  0  0  0  3  0  0  0  0  0  0
  -30.1530  -15.7060   20.1430 N   0  0  0  0  0  0  0  0  0  0  0  0
  -25.3990  -13.8650   20.4500 C   0  0  0  0  0  0  0  0  0  0  0  0
  -24.3570  -13.0800   20.8630 C   0  0  0  0  0  0  0  0  0  0  0  0
  -24.8170  -11.7310   20.7590 C   0  0  0  0  0  0  0  0  0  0  0  0
  -26.4320  -12.9970   20.1350 N   0  0  0  0  0  0  0  0  0  0  0  0
  -26.0880  -11.7050   20.3730 N   0  0  0  0  0  0  0  0  0  0  0  0
  -24.1000  -10.4640   20.9450 C   0  0  0  0  0  0  0  0  0  0  0  0
  -24.5370   -9.5040   21.8840 C   0  0  0  0  0  3  0  0  0  0  0  0
  -23.8260   -8.2990   22.0590 C   0  0  0  0  0  3  0  0  0  0  0  0
  -22.6630   -8.0440   21.2960 C   0  0  0  0  0  0  0  0  0  0  0  0
  -22.2440   -8.9940   20.3480 C   0  0  0  0  0  3  0  0  0  0  0  0
  -22.9540  -10.1930   20.1730 C   0  0  0  0  0  3  0  0  0  0  0  0
  -21.9240   -6.8890   21.3790 O   0  0  0  0  0  0  0  0  0  0  0  0
  -21.7920   -6.2010   22.5590 C   0  0  0  0  0  0  0  0  0  0  0  0
  -21.2330   -6.7980   23.7100 C   0  0  0  0  0  3  0  0  0  0  0  0
  -21.0550   -6.0380   24.8820 C   0  0  0  0  0  3  0  0  0  0  0  0
  -21.4210   -4.6800   24.9020 C   0  0  0  0  0  0  0  0  0  0  0  0
  -21.9670   -4.0790   23.7530 C   0  0  0  0  0  3  0  0  0  0  0  0
  -22.1500   -4.8380   22.5850 C   0  0  0  0  0  0  0  0  0  0  0  0
  -22.6590   -4.2490   21.4760 F   0  0  0  0  0  0  0  0  0  0  0  0
  -21.2430   -3.9460   26.0230 F   0  0  0  0  0  0  0  0  0  0  0  0
  -22.9790  -13.5480   21.2350 C   0  0  0  0  0  0  0  0  0  0  0  0
  -22.3110  -12.8160   22.1190 N   0  0  0  0  0  0  0  0  0  0  0  0
  -22.5080  -14.5900   20.7800 O   0  0  0  0  0  0  0  0  0  0  0  0
  -22.7110  -11.9720   22.5010 H   0  0  0  0  0  0  0  0  0  0  0  0
  -21.3930  -13.1090   22.4200 H   0  0  0  0  0  0  0  0  0  0  0  0
  -25.5440  -15.2370   20.2850 N   0  0  0  0  0  0  0  0  0  0  0  0
  -24.7500  -15.8630   20.3440 H   0  0  0  0  0  0  0  0  0  0  0  0
  -26.3340  -15.6450   19.8040 H   0  0  0  0  0  0  0  0  0  0  0  0
  -28.7200  -25.8360   21.1340 C   0  0  0  0  0  2  0  0  0  0  0  0
  -28.5770  -26.7370   20.0300 O   0  0  0  0  0  0  0  0  0  0  0  0
  -24.5720  -31.7410   23.1340 C   0  0  0  0  0  0  0  0  0  0  0  0
  -27.4060  -27.4530   20.0340 C   0  0  0  0  0  0  0  0  0  0  0  0
  -23.4440  -30.3410   21.4340 C   0  0  0  0  0  3  0  0  0  0  0  0
  -24.9750  -28.8820   20.0060 C   0  0  0  0  0  0  0  0  0  0  0  0
  -25.9570  -30.7840   21.2980 C   0  0  0  0  0  2  0  0  0  0  0  0
  -26.0990  -29.4270   20.6420 C   0  0  0  0  0  0  0  0  0  0  0  0
  -27.3190  -28.7150   20.6620 C   0  0  0  0  0  3  0  0  0  0  0  0
  -26.2740  -26.9190   19.3860 C   0  0  0  0  0  3  0  0  0  0  0  0
  -25.0560  -27.6290   19.3750 C   0  0  0  0  0  3  0  0  0  0  0  0
  -23.7050  -29.7030   20.0420 C   0  0  0  0  0  2  0  0  0  0  0  0
  -24.6760  -30.9690   22.0150 N   0  0  0  0  0  0  0  0  0  0  0  0
  -23.4730  -31.9640   23.6570 O   0  0  0  0  0  0  0  0  0  0  0  0
  -22.8080  -29.2760   22.3560 C   0  0  0  0  0  0  0  0  0  0  0  0
  -21.4860  -29.0780   22.2170 N   0  0  0  0  0  0  0  0  0  0  0  0
  -23.4990  -28.6380   23.1530 O   0  0  0  0  0  0  0  0  0  0  0  0
  -20.9920  -29.6380   21.5390 H   0  0  0  0  0  0  0  0  0  0  0  0
  -18.1250  -27.8520   22.6950 C   0  0  0  0  0  0  0  0  0  0  0  0
  -20.6840  -28.1060   22.9570 C   0  0  0  0  0  3  0  0  0  0  0  0
  -20.7890  -26.7030   22.3160 C   0  0  0  0  0  2  0  0  0  0  0  0
  -19.6790  -26.4210   21.2990 C   0  0  0  0  0  2  0  0  0  0  0  0
  -18.3010  -26.5340   21.9590 C   0  0  0  0  0  2  0  0  0  0  0  0
  -19.2450  -28.5970   23.1500 C   0  0  0  0  0  0  0  0  0  0  0  0
  -19.0260  -29.8330   23.7970 C   0  0  0  0  0  3  0  0  0  0  0  0
  -17.7220  -30.3200   23.9960 C   0  0  0  0  0  3  0  0  0  0  0  0
  -16.6160  -29.5710   23.5590 C   0  0  0  0  0  3  0  0  0  0  0  0
  -16.8190  -28.3380   22.9120 C   0  0  0  0  0  3  0  0  0  0  0  0
  -25.8260  -32.3970   23.7930 C   0  0  0  0  0  3  0  0  0  0  0  0
  -25.4750  -33.7830   24.1310 N   0  0  0  0  0  0  0  0  0  0  0  0
  -25.8030  -34.8510   23.3930 C   0  0  0  0  0  0  0  0  0  0  0  0
  -26.5040  -34.7750   22.3780 O   0  0  0  0  0  0  0  0  0  0  0  0
  -24.8580  -33.9150   24.9200 H   0  0  0  0  0  0  0  0  0  0  0  0
  -24.0510  -36.6100   22.9960 C   0  0  0  0  0  1  0  0  0  0  0  0
  -25.2680  -36.2210   23.8500 C   0  0  0  0  0  3  0  0  0  0  0  0
  -27.3450  -37.1420   24.7800 C   0  0  0  0  0  1  0  0  0  0  0  0
  -26.2800  -37.2970   23.7940 N   0  0  0  0  0  0  0  0  0  0  0  0
  -25.8480  -38.2060   23.9360 H   0  0  0  0  0  0  0  0  0  0  0  0
  -26.3350  -31.6210   25.0690 C   0  0  1  0  0  0  0  0  0  0  0  0
  -25.2250  -31.3370   26.1060 C   0  0  0  0  0  1  0  0  0  0  0  0
  -26.9660  -30.2670   24.6680 C   0  0  0  0  0  1  0  0  0  0  0  0
  -27.4490  -32.4360   25.7680 C   0  0  0  0  0  1  0  0  0  0  0  0
  1  5  1  0
  2  1  2  0
  3  7  1  0
  3  5  2  0
  4  3  1  0
  5 10  1  0
  6  4  2  0
  6  2  1  0
  8  4  1  0
  8  9  1  0
  9 54  1  0
  9  7  1  0
 11  6  1  0
 12 25  1  0
 13 18  1  0
 14 15  1  0
 14 13  1  0
 16 15  1  0
 16 29  1  0
 16 17  1  0
 18 12  1  0
 18 17  1  0
 19 12  2  0
 20 22  1  0
 20 24  1  0
 21 23  1  0
 22 25  1  0
 24  2  1  0
 24 21  1  0
 25 23  1  0
 26 27  2  0
 27 46  1  0
 28 27  1  0
 28 31  1  0
 29 30  1  0
 29 26  1  0
 30 28  2  0
 31 32  1  0
 32 33  2  0
 34 37  1  0
 34 33  1  0
 35 34  2  0
 36 35  1  0
 36 31  2  0
 37 38  1  0
 38 43  2  0
 38 39  1  0
 39 40  2  0
 40 41  1  0
 41 45  1  0
 42 41  2  0
 43 42  1  0
 44 43  1  0
 46 47  1  0
 47 50  1  0
 47 49  1  0
 48 46  2  0
 51 52  1  0
 51 26  1  0
 53 51  1  0
 55 57  1  0
 55 54  1  0
 56 67  2  0
 57 62  1  0
 58 66  1  0
 58 68  1  0
 59 65  1  0
 59 61  1  0
 60 66  1  0
 61 62  2  0
 61 60  1  0
 63 57  2  0
 64 63  1  0
 64 59  2  0
 65 58  1  0
 66 56  1  0
 68 70  2  0
 69 68  1  0
 71 69  1  0
 72 81  2  0
 72 77  1  0
 73 69  1  0
 73 77  1  0
 74 73  1  0
 75 76  1  0
 75 74  1  0
 76 72  1  0
 77 78  2  0
 78 79  1  0
 80 79  2  0
 81 80  1  0
 82 56  1  0
 82 83  1  0
 82 92  1  0
 83 86  1  0
 84 88  1  0
 84 83  1  0
 85 84  2  0
 88 87  1  0
 90 88  1  0
 90 91  1  0
 90 89  1  0
 92 95  1  1
 92 93  1  0
 94 92  1  0
M  ISO  4  12 100  25 100  54 101  55 101
M  END
>  <TORSDO>  (3) 
F 17

>  <SCORE>  (3) 
-14.748

>  <name>  (3) 
2

>  <ligand_id>  (3) 
2

>  <original_smiles>  (3) 
[H]c1c([H])c([H])c2c(c1[H])C([H])([H])C([H])([H])C([H])([H])C2([H])N([H])C(=O)C1([H])N(C(=O)C([H])(N([H])C(=O)C([H])(N([H])C([H])([H])[H])C([H])([H])[H])C(C([H])([H])[H])(C([H])([H])[H])C([H])([H])[H])C([H])([H])c2c([H])c(OC([H])([H])C3([H])C([H])([H])c4c(C([H])([H])[H])c([H])c(C5([H])C([H])([H])C([H])([H])N(C(=O)N6C([H])([H])C([H])([H])C([H])([H])C([H])(n7nc(-c8c([H])c([H])c(Oc9c([H])c([H])c(F)c([H])c9F)c([H])c8[H])c(C(=O)N([H])[H])c7N([H])[H])C6([H])[H])C([H])([H])C5([H])[H])c(C([H])([H])[H])c4C3([H])[H])c([H])c([H])c2C1([H])[H]

>  <smiles>  (3) 
[H]c1c([H])c([H])c2c(c1[H])C([H])([H])C([H])([H])C([H])([H])C2([H])N([H])C(=O)C1([H])N(C(=O)C([H])(N([H])C(=O)C([H])(N([H])C([H])([H])[H])C([H])([H])[H])C(C([H])([H])[H])(C([H])([H])[H])C([H])([H])[H])C([H])([H])c2c([H])c(OC([H])([H])C3([H])C([H])([H])c4c(C([H])([H])[H])c([H])c(C5([H])C([H])([H])C([H])([H])N(C(=O)N6C([H])([H])C([H])([H])C([H])([H])C([H])(n7nc(-c8c([H])c([H])c(Oc9c([H])c([H])c(F)c([H])c9F)c([H])c8[H])c(C(=O)N([H])[H])c7N([H])[H])C6([H])[H])C([H])([H])C5([H])[H])c(C([H])([H])[H])c4C3([H])[H])c([H])c([H])c2C1([H])[H]

$$$$
3:0:0
     RDKit          3D

 95105  0  0  1  0  0  0  0  0999 V2000
  -29.2470  -21.0260   20.3350 C   0  0  0  0  0  3  0  0  0  0  0  0
  -29.7040  -19.6890   20.4070 C   0  0  0  0  0  3  0  0  0  0  0  0
  -30.0720  -21.4210   22.5640 C   0  0  0  0  0  3  0  0  0  0  0  0
  -29.4080  -21.9160   21.4210 C   0  0  0  0  0  0  0  0  0  0  0  0
  -30.3250  -19.1760   21.5720 C   0  0  0  0  0  0  0  0  0  0  0  0
  -30.5240  -20.0810   22.6580 C   0  0  0  0  0  0  0  0  0  0  0  0
  -31.1650  -14.6670   19.2960 C   0  0  0  0  0  0  0  0  0  0  0  0
  -30.4780  -12.6620   18.0290 C   0  0  0  0  0  2  0  0  0  0  0  0
  -29.3640  -13.0300   17.0370 C   0  0  0  0  0  2  0  0  0  0  0  0
  -27.9770  -12.9200   17.6930 C   0  0  0  0  0  2  0  0  0  0  0  0
  -27.9200  -13.5960   19.0920 C   0  0  0  0  0  3  0  0  0  0  0  0
  -29.1510  -13.2630   19.9590 C   0  0  0  0  0  2  0  0  0  0  0  0
  -30.3680  -13.5640   19.1810 N   0  0  0  0  0  0  0  0  0  0  0  0
  -32.0110  -14.9760   18.4510 O   0  0  0  0  0  0  0  0  0  0  0  0
  -30.9220  -15.4980   22.8790 C   0  0  0  0  0  2  0  0  0  0  0  0
  -30.1010  -16.7770   22.6430 C   0  0  0  0  0  2  0  0  0  0  0  0
  -31.6540  -15.0130   21.6200 C   0  0  0  0  0  2  0  0  0  0  0  0
  -30.8510  -16.9170   20.2570 C   0  0  0  0  0  2  0  0  0  0  0  0
  -30.8200  -17.6980   21.6210 C   0  0  0  0  0  3  0  0  0  0  0  0
  -30.9810  -15.4420   20.3910 N   0  0  0  0  0  0  0  0  0  0  0  0
  -25.7570  -14.1820   20.3470 C   0  0  0  0  0  0  0  0  0  0  0  0
  -24.7510  -13.4030   20.8590 C   0  0  0  0  0  0  0  0  0  0  0  0
  -25.1200  -12.0520   20.5860 C   0  0  0  0  0  0  0  0  0  0  0  0
  -26.6800  -13.2990   19.8050 N   0  0  0  0  0  0  0  0  0  0  0  0
  -26.3090  -12.0060   19.9950 N   0  0  0  0  0  0  0  0  0  0  0  0
  -24.3780  -10.8010   20.8060 C   0  0  0  0  0  0  0  0  0  0  0  0
  -24.8460   -9.8060   21.6880 C   0  0  0  0  0  3  0  0  0  0  0  0
  -24.1060   -8.6220   21.8910 C   0  0  0  0  0  3  0  0  0  0  0  0
  -22.8800   -8.4210   21.2130 C   0  0  0  0  0  0  0  0  0  0  0  0
  -22.4320   -9.4050   20.3140 C   0  0  0  0  0  3  0  0  0  0  0  0
  -23.1780  -10.5780   20.1090 C   0  0  0  0  0  3  0  0  0  0  0  0
  -22.1110   -7.2890   21.3250 O   0  0  0  0  0  0  0  0  0  0  0  0
  -21.9620   -6.6340   22.5220 C   0  0  0  0  0  0  0  0  0  0  0  0
  -21.4860   -7.2920   23.6790 C   0  0  0  0  0  3  0  0  0  0  0  0
  -21.2830   -6.5620   24.8700 C   0  0  0  0  0  3  0  0  0  0  0  0
  -21.5470   -5.1790   24.8990 C   0  0  0  0  0  0  0  0  0  0  0  0
  -22.0150   -4.5240   23.7460 C   0  0  0  0  0  3  0  0  0  0  0  0
  -22.2200   -5.2520   22.5620 C   0  0  0  0  0  0  0  0  0  0  0  0
  -22.6500   -4.6100   21.4490 F   0  0  0  0  0  0  0  0  0  0  0  0
  -21.3440   -4.4780   26.0390 F   0  0  0  0  0  0  0  0  0  0  0  0
  -23.4670  -13.8910   21.4740 C   0  0  0  0  0  0  0  0  0  0  0  0
  -22.9300  -13.1500   22.4360 N   0  0  0  0  0  0  0  0  0  0  0  0
  -22.9600  -14.9550   21.1260 O   0  0  0  0  0  0  0  0  0  0  0  0
  -23.3720  -12.2950   22.7380 H   0  0  0  0  0  0  0  0  0  0  0  0
  -22.0560  -13.4180   22.8640 H   0  0  0  0  0  0  0  0  0  0  0  0
  -25.9610  -15.5540   20.2760 N   0  0  0  0  0  0  0  0  0  0  0  0
  -25.2670  -16.2290   20.5820 H   0  0  0  0  0  0  0  0  0  0  0  0
  -26.7740  -15.9810   19.8430 H   0  0  0  0  0  0  0  0  0  0  0  0
  -27.6780  -23.6990   20.5410 C   0  0  0  0  0  2  0  0  0  0  0  0
  -28.8390  -23.3360   21.4360 C   0  0  0  0  0  3  0  0  0  0  0  0
  -28.9990  -24.4100   20.3510 C   0  0  0  0  0  3  0  0  0  0  0  0
  -29.1040  -25.9070   20.7000 C   0  0  0  0  0  2  0  0  0  0  0  0
  -28.9470  -26.8030   19.5750 O   0  0  0  0  0  0  0  0  0  0  0  0
  -24.7130  -31.4190   22.9380 C   0  0  0  0  0  0  0  0  0  0  0  0
  -27.7500  -27.4830   19.5710 C   0  0  0  0  0  0  0  0  0  0  0  0
  -23.6380  -30.0420   21.1830 C   0  0  0  0  0  3  0  0  0  0  0  0
  -25.2300  -28.7630   19.6510 C   0  0  0  0  0  0  0  0  0  0  0  0
  -26.1130  -30.6610   21.0200 C   0  0  0  0  0  2  0  0  0  0  0  0
  -26.3320  -29.3520   20.2860 C   0  0  0  0  0  0  0  0  0  0  0  0
  -27.5960  -28.7180   20.2450 C   0  0  0  0  0  3  0  0  0  0  0  0
  -26.6400  -26.9200   18.9100 C   0  0  0  0  0  3  0  0  0  0  0  0
  -25.3780  -27.5460   18.9600 C   0  0  0  0  0  3  0  0  0  0  0  0
  -23.9070  -29.4920   19.7570 C   0  0  0  0  0  2  0  0  0  0  0  0
  -24.8380  -30.7170   21.7750 N   0  0  0  0  0  0  0  0  0  0  0  0
  -23.6130  -31.5430   23.4940 O   0  0  0  0  0  0  0  0  0  0  0  0
  -23.0880  -28.8940   22.0600 C   0  0  0  0  0  0  0  0  0  0  0  0
  -21.7960  -28.5730   21.8850 N   0  0  0  0  0  0  0  0  0  0  0  0
  -23.8220  -28.2980   22.8530 O   0  0  0  0  0  0  0  0  0  0  0  0
  -21.2590  -29.1130   21.2220 H   0  0  0  0  0  0  0  0  0  0  0  0
  -18.5890  -26.9300   22.1590 C   0  0  0  0  0  0  0  0  0  0  0  0
  -21.0760  -27.5000   22.5710 C   0  0  0  0  0  3  0  0  0  0  0  0
  -21.3900  -26.1250   21.9350 C   0  0  0  0  0  2  0  0  0  0  0  0
  -20.3850  -25.7170   20.8540 C   0  0  0  0  0  2  0  0  0  0  0  0
  -18.9690  -25.6510   21.4320 C   0  0  0  0  0  2  0  0  0  0  0  0
  -19.5780  -27.8060   22.6790 C   0  0  0  0  0  0  0  0  0  0  0  0
  -19.1710  -29.0000   23.3150 C   0  0  0  0  0  3  0  0  0  0  0  0
  -17.8070  -29.3210   23.4350 C   0  0  0  0  0  3  0  0  0  0  0  0
  -16.8310  -28.4430   22.9320 C   0  0  0  0  0  3  0  0  0  0  0  0
  -17.2220  -27.2490   22.3010 C   0  0  0  0  0  3  0  0  0  0  0  0
  -25.9370  -32.1170   23.6110 C   0  0  0  0  0  3  0  0  0  0  0  0
  -26.5200  -31.3070   24.8320 C   0  0  1  0  0  0  0  0  0  0  0  0
  -25.4530  -30.9010   25.8750 C   0  0  0  0  0  1  0  0  0  0  0  0
  -27.2200  -30.0170   24.3430 C   0  0  0  0  0  1  0  0  0  0  0  0
  -27.5980  -32.1500   25.5530 C   0  0  0  0  0  1  0  0  0  0  0  0
  -25.5060  -33.4570   24.0330 N   0  0  0  0  0  0  0  0  0  0  0  0
  -25.7520  -34.5820   23.3520 C   0  0  0  0  0  0  0  0  0  0  0  0
  -26.4330  -34.6090   22.3240 O   0  0  0  0  0  0  0  0  0  0  0  0
  -24.8970  -33.5030   24.8370 H   0  0  0  0  0  0  0  0  0  0  0  0
  -23.8620  -36.2260   23.1150 C   0  0  0  0  0  1  0  0  0  0  0  0
  -25.1420  -35.8890   23.8970 C   0  0  0  0  0  3  0  0  0  0  0  0
  -27.1940  -36.9100   24.7750 C   0  0  0  0  0  1  0  0  0  0  0  0
  -26.0730  -37.0370   23.8480 N   0  0  0  0  0  0  0  0  0  0  0  0
  -25.5850  -37.9040   24.0580 H   0  0  0  0  0  0  0  0  0  0  0  0
  -30.7050  -20.0340   25.0530 C   0  0  0  0  0  1  0  0  0  0  0  0
  -31.2240  -19.6720   23.7680 O   0  0  0  0  0  0  0  0  0  0  0  0
  1  2  2  0
  1  4  1  0
  2  5  1  0
  3  6  1  0
  4  3  2  0
  5  6  2  0
  6 95  1  0
  7 20  1  0
  8 13  1  0
  9 10  1  0
  9  8  1  0
 11 10  1  0
 11 24  1  0
 11 12  1  0
 13  7  1  0
 13 12  1  0
 14  7  2  0
 16 15  1  0
 17 15  1  0
 18 20  1  0
 18 19  1  0
 19  5  1  0
 19 16  1  0
 20 17  1  0
 21 22  2  0
 22 41  1  0
 23 26  1  0
 23 22  1  0
 24 25  1  0
 24 21  1  0
 25 23  2  0
 26 27  1  0
 27 28  2  0
 29 32  1  0
 29 28  1  0
 30 29  2  0
 31 30  1  0
 31 26  2  0
 32 33  1  0
 33 38  2  0
 33 34  1  0
 34 35  2  0
 35 36  1  0
 36 40  1  0
 37 36  2  0
 38 37  1  0
 39 38  1  0
 41 42  1  0
 42 44  1  0
 42 45  1  0
 43 41  2  0
 46 21  1  0
 46 47  1  0
 48 46  1  0
 49 50  1  0
 50  4  1  0
 51 49  1  0
 51 52  1  0
 51 50  1  0
 53 52  1  0
 54 65  2  0
 55 53  1  0
 55 60  1  0
 56 64  1  0
 56 66  1  0
 57 63  1  0
 57 59  1  0
 58 64  1  0
 59 58  1  0
 60 59  2  0
 61 62  1  0
 61 55  2  0
 62 57  2  0
 63 56  1  0
 64 54  1  0
 66 68  2  0
 67 66  1  0
 69 67  1  0
 70 79  2  0
 70 75  1  0
 71 67  1  0
 71 75  1  0
 72 71  1  0
 73 74  1  0
 73 72  1  0
 74 70  1  0
 75 76  2  0
 76 77  1  0
 78 77  2  0
 79 78  1  0
 80 54  1  0
 80 85  1  0
 80 81  1  0
 81 84  1  1
 81 82  1  0
 83 81  1  0
 85 88  1  0
 86 90  1  0
 86 85  1  0
 87 86  2  0
 90 89  1  0
 92 90  1  0
 92 93  1  0
 92 91  1  0
 95 94  1  0
M  ISO  4   7 100  20 100  52 101  53 101
M  END
>  <TORSDO>  (4) 
F 19

>  <SCORE>  (4) 
-6.923

>  <name>  (4) 
3

>  <ligand_id>  (4) 
3

>  <original_smiles>  (4) 
[H]c1c([H])c([H])c2c(c1[H])C([H])([H])C([H])([H])C([H])([H])C2([H])N([H])C(=O)C1([H])N(C(=O)C([H])(N([H])C(=O)C([H])(N([H])C([H])([H])[H])C([H])([H])[H])C(C([H])([H])[H])(C([H])([H])[H])C([H])([H])[H])C([H])([H])c2c([H])c(OC([H])([H])C3([H])C([H])([H])C3([H])c3c([H])c([H])c(C4([H])C([H])([H])N(C(=O)N5C([H])([H])C([H])([H])C([H])([H])C([H])(n6nc(-c7c([H])c([H])c(Oc8c([H])c([H])c(F)c([H])c8F)c([H])c7[H])c(C(=O)N([H])[H])c6N([H])[H])C5([H])[H])C([H])([H])C([H])([H])C4([H])[H])c(OC([H])([H])[H])c3[H])c([H])c([H])c2C1([H])[H]

>  <smiles>  (4) 
[H]c1c([H])c([H])c2c(c1[H])C([H])([H])C([H])([H])C([H])([H])C2([H])N([H])C(=O)C1([H])N(C(=O)C([H])(N([H])C(=O)C([H])(N([H])C([H])([H])[H])C([H])([H])[H])C(C([H])([H])[H])(C([H])([H])[H])C([H])([H])[H])C([H])([H])c2c([H])c(OC([H])([H])C3([H])C([H])([H])C3([H])c3c([H])c([H])c(C4([H])C([H])([H])N(C(=O)N5C([H])([H])C([H])([H])C([H])([H])C([H])(n6nc(-c7c([H])c([H])c(Oc8c([H])c([H])c(F)c([H])c8F)c([H])c7[H])c(C(=O)N([H])[H])c6N([H])[H])C5([H])[H])C([H])([H])C([H])([H])C4([H])[H])c(OC([H])([H])[H])c3[H])c([H])c([H])c2C1([H])[H]

$$$$
4:0:0
     RDKit          3D

102111  0  0  1  0  0  0  0  0999 V2000
  -28.6850  -21.9920   18.9160 C   0  0  0  0  0  3  0  0  0  0  0  0
  -27.0050  -23.6160   18.2740 C   0  0  0  0  0  3  0  0  0  0  0  0
  -26.4380  -21.2270   18.2990 C   0  0  0  0  0  0  0  0  0  0  0  0
  -27.7710  -20.9320   18.7070 C   0  0  0  0  0  0  0  0  0  0  0  0
  -28.3000  -23.3360   18.7580 C   0  0  0  0  0  0  0  0  0  0  0  0
  -26.0850  -22.5750   18.0420 C   0  0  0  0  0  0  0  0  0  0  0  0
  -24.1380  -20.0390   18.8780 C   0  0  0  0  0  2  0  0  0  0  0  0
  -25.2090  -18.9920   19.0230 C   0  0  0  0  0  2  0  0  0  0  0  0
  -25.4110  -20.1410   18.0560 C   0  0  0  0  0  3  0  0  0  0  0  0
  -28.2440  -19.4790   18.8650 C   0  0  0  0  0  2  0  0  0  0  0  0
  -29.6960  -19.3240   19.1000 N   0  0  0  0  0  4  0  0  0  0  0  0
  -30.1790  -19.5440   18.2450 H   0  0  0  0  0  0  0  0  0  0  0  0
  -29.9840  -19.9790   19.8090 H   0  0  0  0  0  0  0  0  0  0  0  0
  -30.0590  -17.9570   19.5230 C   0  0  0  0  0  2  0  0  0  0  0  0
  -32.1630  -18.7440   20.7830 C   0  0  0  0  0  1  0  0  0  0  0  0
  -31.5690  -17.7410   19.7790 C   0  0  0  0  0  3  0  0  0  0  0  0
  -32.2600  -15.3480   19.6840 C   0  0  0  0  0  0  0  0  0  0  0  0
  -31.9760  -12.9500   19.1960 C   0  0  0  0  0  2  0  0  0  0  0  0
  -31.0310  -12.7600   17.9910 C   0  0  0  0  0  2  0  0  0  0  0  0
  -29.5530  -12.7640   18.4280 C   0  0  0  0  0  2  0  0  0  0  0  0
  -29.2100  -13.9640   19.3480 C   0  0  0  0  0  3  0  0  0  0  0  0
  -30.2480  -14.0710   20.4900 C   0  0  0  0  0  2  0  0  0  0  0  0
  -31.5990  -14.1830   19.8960 N   0  0  0  0  0  0  0  0  0  0  0  0
  -33.2480  -15.4670   18.9520 O   0  0  0  0  0  0  0  0  0  0  0  0
  -31.7040  -16.3880   20.3110 N   0  0  0  0  0  0  0  0  0  0  0  0
  -31.0180  -16.1150   20.9990 H   0  0  0  0  0  0  0  0  0  0  0  0
  -26.9410  -14.8850   20.1710 C   0  0  0  0  0  0  0  0  0  0  0  0
  -25.7920  -14.2540   20.5670 C   0  0  0  0  0  0  0  0  0  0  0  0
  -26.0560  -12.8540   20.4650 C   0  0  0  0  0  0  0  0  0  0  0  0
  -27.8450  -13.8750   19.8670 N   0  0  0  0  0  0  0  0  0  0  0  0
  -27.3140  -12.6480   20.0990 N   0  0  0  0  0  0  0  0  0  0  0  0
  -25.1700  -11.6970   20.6410 C   0  0  0  0  0  0  0  0  0  0  0  0
  -25.4610  -10.6830   21.5790 C   0  0  0  0  0  3  0  0  0  0  0  0
  -24.5840   -9.5900   21.7440 C   0  0  0  0  0  3  0  0  0  0  0  0
  -23.4020   -9.5030   20.9710 C   0  0  0  0  0  0  0  0  0  0  0  0
  -23.1280  -10.5050   20.0220 C   0  0  0  0  0  3  0  0  0  0  0  0
  -24.0050  -11.5910   19.8570 C   0  0  0  0  0  3  0  0  0  0  0  0
  -22.5050   -8.4660   21.0480 O   0  0  0  0  0  0  0  0  0  0  0  0
  -22.3190   -7.7590   22.2110 C   0  0  0  0  0  0  0  0  0  0  0  0
  -21.8640   -8.3780   23.3960 C   0  0  0  0  0  3  0  0  0  0  0  0
  -21.6140   -7.6020   24.5450 C   0  0  0  0  0  3  0  0  0  0  0  0
  -21.8130   -6.2090   24.5110 C   0  0  0  0  0  0  0  0  0  0  0  0
  -22.2610   -5.5900   23.3310 C   0  0  0  0  0  3  0  0  0  0  0  0
  -22.5100   -6.3620   22.1840 C   0  0  0  0  0  0  0  0  0  0  0  0
  -22.9190   -5.7560   21.0430 F   0  0  0  0  0  0  0  0  0  0  0  0
  -21.5690   -5.4640   25.6140 F   0  0  0  0  0  0  0  0  0  0  0  0
  -24.4860  -14.9100   20.9090 C   0  0  0  0  0  0  0  0  0  0  0  0
  -23.7210  -14.3190   21.8190 N   0  0  0  0  0  0  0  0  0  0  0  0
  -24.1610  -15.9840   20.4040 O   0  0  0  0  0  0  0  0  0  0  0  0
  -23.9960  -13.4500   22.2500 H   0  0  0  0  0  0  0  0  0  0  0  0
  -22.8470  -14.7470   22.0890 H   0  0  0  0  0  0  0  0  0  0  0  0
  -27.2820  -16.2260   20.0150 N   0  0  0  0  0  0  0  0  0  0  0  0
  -26.4920  -16.8650   20.0040 H   0  0  0  0  0  0  0  0  0  0  0  0
  -27.9430  -16.4440   19.2820 H   0  0  0  0  0  0  0  0  0  0  0  0
  -29.2300  -24.3090   19.0450 O   0  0  0  0  0  0  0  0  0  0  0  0
  -28.8070  -25.4050   19.8570 C   0  0  0  0  0  2  0  0  0  0  0  0
  -29.7050  -26.6220   19.5770 C   0  0  0  0  0  2  0  0  0  0  0  0
  -29.3930  -27.7120   20.4450 O   0  0  0  0  0  0  0  0  0  0  0  0
  -24.7910  -31.9860   23.7550 C   0  0  0  0  0  0  0  0  0  0  0  0
  -28.1390  -28.2870   20.3920 C   0  0  0  0  0  0  0  0  0  0  0  0
  -23.8950  -30.7720   21.7940 C   0  0  0  0  0  3  0  0  0  0  0  0
  -25.6220  -29.5770   20.3500 C   0  0  0  0  0  0  0  0  0  0  0  0
  -26.3870  -31.3360   21.9540 C   0  0  0  0  0  2  0  0  0  0  0  0
  -26.6590  -30.0890   21.1410 C   0  0  0  0  0  0  0  0  0  0  0  0
  -27.9150  -29.4470   21.1670 C   0  0  0  0  0  3  0  0  0  0  0  0
  -27.0780  -27.7830   19.6010 C   0  0  0  0  0  3  0  0  0  0  0  0
  -25.8260  -28.4180   19.5850 C   0  0  0  0  0  3  0  0  0  0  0  0
  -24.3110  -30.3280   20.3670 C   0  0  0  0  0  2  0  0  0  0  0  0
  -25.0360  -31.3690   22.5640 N   0  0  0  0  0  0  0  0  0  0  0  0
  -23.6390  -32.0980   24.1930 O   0  0  0  0  0  0  0  0  0  0  0  0
  -23.2350  -29.5720   22.5110 C   0  0  0  0  0  0  0  0  0  0  0  0
  -21.9270  -29.3810   22.2710 N   0  0  0  0  0  0  0  0  0  0  0  0
  -23.8950  -28.8270   23.2370 O   0  0  0  0  0  0  0  0  0  0  0  0
  -21.4560  -30.0420   21.6670 H   0  0  0  0  0  0  0  0  0  0  0  0
  -18.5530  -28.1050   22.4560 C   0  0  0  0  0  0  0  0  0  0  0  0
  -21.1070  -28.2960   22.8060 C   0  0  0  0  0  3  0  0  0  0  0  0
  -21.2210  -27.0270   21.9280 C   0  0  0  0  0  2  0  0  0  0  0  0
  -20.1280  -26.9330   20.8590 C   0  0  0  0  0  2  0  0  0  0  0  0
  -18.7420  -26.9350   21.5050 C   0  0  0  0  0  2  0  0  0  0  0  0
  -19.6660  -28.7530   23.0550 C   0  0  0  0  0  0  0  0  0  0  0  0
  -19.4380  -29.8580   23.9040 C   0  0  0  0  0  3  0  0  0  0  0  0
  -18.1300  -30.3130   24.1590 C   0  0  0  0  0  3  0  0  0  0  0  0
  -17.0320  -29.6590   23.5750 C   0  0  0  0  0  3  0  0  0  0  0  0
  -17.2460  -28.5530   22.7310 C   0  0  0  0  0  3  0  0  0  0  0  0
  -25.9460  -32.5980   24.6080 C   0  0  0  0  0  3  0  0  0  0  0  0
  -25.6400  -34.0210   24.8080 N   0  0  0  0  0  0  0  0  0  0  0  0
  -26.1770  -35.0200   24.0930 C   0  0  0  0  0  0  0  0  0  0  0  0
  -27.0480  -34.8400   23.2380 O   0  0  0  0  0  0  0  0  0  0  0  0
  -24.8960  -34.2380   25.4540 H   0  0  0  0  0  0  0  0  0  0  0  0
  -24.6360  -36.8450   23.3080 C   0  0  0  0  0  1  0  0  0  0  0  0
  -25.6670  -36.4460   24.3770 C   0  0  0  0  0  3  0  0  0  0  0  0
  -27.6370  -37.2890   25.5720 C   0  0  0  0  0  1  0  0  0  0  0  0
  -26.7460  -37.4560   24.4270 N   0  0  0  0  0  0  0  0  0  0  0  0
  -26.3590  -38.3960   24.4630 H   0  0  0  0  0  0  0  0  0  0  0  0
  -26.1500  -31.8700   25.9930 C   0  0  1  0  0  0  0  0  0  0  0  0
  -24.8440  -31.7000   26.8040 C   0  0  0  0  0  1  0  0  0  0  0  0
  -26.7620  -30.4650   25.7840 C   0  0  0  0  0  1  0  0  0  0  0  0
  -27.1520  -32.6670   26.8610 C   0  0  0  0  0  1  0  0  0  0  0  0
  -24.8240  -22.8760   17.6000 O   0  0  0  0  0  0  0  0  0  0  0  0
  -24.7570  -23.8750   16.5930 C   0  0  0  0  0  2  0  0  0  0  0  0
  -23.0700  -24.9280   14.9800 C   0  0  0  0  0  1  0  0  0  0  0  0
  -23.2880  -23.9820   16.1660 C   0  0  0  0  0  2  0  0  0  0  0  0
  2  5  2  0
  3  4  1  0
  4 10  1  0
  4  1  2  0
  5  1  1  0
  5 55  1  0
  6  2  1  0
  6  3  2  0
  7  8  1  0
  9  3  1  0
  9  7  1  0
  9  8  1  0
 10 11  1  0
 11 14  1  0
 11 13  1  0
 12 11  1  0
 14 16  1  0
 16 25  1  0
 16 15  1  0
 17 23  1  0
 17 25  1  0
 18 23  1  0
 19 20  1  0
 19 18  1  0
 21 20  1  0
 21 30  1  0
 21 22  1  0
 23 22  1  0
 24 17  2  0
 25 26  1  0
 27 28  2  0
 28 47  1  0
 29 28  1  0
 29 32  1  0
 30 31  1  0
 30 27  1  0
 31 29  2  0
 32 33  1  0
 33 34  2  0
 35 38  1  0
 35 34  1  0
 36 35  2  0
 37 36  1  0
 37 32  2  0
 38 39  1  0
 39 40  1  0
 40 41  2  0
 42 41  1  0
 42 46  1  0
 43 42  2  0
 44 39  2  0
 44 43  1  0
 45 44  1  0
 47 48  1  0
 48 51  1  0
 48 50  1  0
 49 47  2  0
 52 27  1  0
 53 52  1  0
 54 52  1  0
 55 56  1  0
 57 56  1  0
 57 58  1  0
 59 70  2  0
 60 58  1  0
 60 65  1  0
 61 71  1  0
 61 69  1  0
 62 68  1  0
 62 64  1  0
 63 69  1  0
 64 65  2  0
 64 63  1  0
 66 60  2  0
 67 66  1  0
 67 62  2  0
 68 61  1  0
 69 59  1  0
 71 73  2  0
 72 71  1  0
 74 72  1  0
 75 84  2  0
 75 80  1  0
 76 72  1  0
 76 80  1  0
 77 76  1  0
 78 79  1  0
 78 77  1  0
 79 75  1  0
 80 81  2  0
 81 82  1  0
 83 82  2  0
 84 83  1  0
 85 59  1  0
 85 86  1  0
 85 95  1  0
 86 89  1  0
 87 91  1  0
 87 86  1  0
 88 87  2  0
 91 90  1  0
 91 93  1  0
 93 94  1  0
 93 92  1  0
 95 96  1  1
 95 98  1  0
 97 95  1  0
 99  6  1  0
100 99  1  0
101102  1  0
102100  1  0
M  ISO  4  17 100  25 100  57 101  58 101
M  END
>  <TORSDO>  (5) 
F 27

>  <SCORE>  (5) 
-6.663

>  <name>  (5) 
4

>  <ligand_id>  (5) 
4

>  <original_smiles>  (5) 
[H]c1c([H])c([H])c2c(c1[H])C([H])([H])C([H])([H])C([H])([H])C2([H])N([H])C(=O)C1([H])N(C(=O)C([H])(N([H])C(=O)C([H])(N([H])C([H])([H])[H])C([H])([H])[H])C(C([H])([H])[H])(C([H])([H])[H])C([H])([H])[H])C([H])([H])c2c([H])c(OC([H])([H])C([H])([H])Oc3c([H])c(OC([H])([H])C([H])([H])C([H])([H])[H])c(C4([H])C([H])([H])C4([H])[H])c(C([H])([H])[N+]([H])([H])C([H])([H])C([H])(N([H])C(=O)N4C([H])([H])C([H])([H])C([H])([H])C([H])(n5nc(-c6c([H])c([H])c(Oc7c([H])c([H])c(F)c([H])c7F)c([H])c6[H])c(C(=O)N([H])[H])c5N([H])[H])C4([H])[H])C([H])([H])[H])c3[H])c([H])c([H])c2C1([H])[H]

>  <smiles>  (5) 
[H]c1c([H])c([H])c2c(c1[H])C([H])([H])C([H])([H])C([H])([H])C2([H])N([H])C(=O)C1([H])N(C(=O)C([H])(N([H])C(=O)C([H])(N([H])C([H])([H])[H])C([H])([H])[H])C(C([H])([H])[H])(C([H])([H])[H])C([H])([H])[H])C([H])([H])c2c([H])c(OC([H])([H])C([H])([H])Oc3c([H])c(OC([H])([H])C([H])([H])C([H])([H])[H])c(C4([H])C([H])([H])C4([H])[H])c(C([H])([H])[N+]([H])([H])C([H])([H])C([H])(N([H])C(=O)N4C([H])([H])C([H])([H])C([H])([H])C([H])(n5nc(-c6c([H])c([H])c(Oc7c([H])c([H])c(F)c([H])c7F)c([H])c6[H])c(C(=O)N([H])[H])c5N([H])[H])C4([H])[H])C([H])([H])[H])c3[H])c([H])c([H])c2C1([H])[H]

$$$$
5:0:0
     RDKit          3D

100110  0  0  1  0  0  0  0  0999 V2000
  -29.3900  -22.1340   22.4710 C   0  0  0  0  0  3  0  0  0  0  0  0
  -29.3820  -19.9960   21.3020 C   0  0  0  0  0  3  0  0  0  0  0  0
  -30.5370  -21.7500   23.1930 C   0  0  0  0  0  0  0  0  0  0  0  0
  -30.5700  -19.6120   21.9750 C   0  0  0  0  0  0  0  0  0  0  0  0
  -28.8160  -21.2780   21.5100 C   0  0  0  0  0  0  0  0  0  0  0  0
  -31.1480  -20.5050   22.9080 C   0  0  0  0  0  0  0  0  0  0  0  0
  -31.3040  -22.1970   25.6640 C   0  0  0  0  0  2  0  0  0  0  0  0
  -30.1870  -23.1680   25.3660 C   0  0  0  0  0  2  0  0  0  0  0  0
  -31.0760  -22.6720   24.2480 C   0  0  0  0  0  3  0  0  0  0  0  0
  -31.2680  -18.4080   21.7500 N   0  0  0  0  0  0  0  0  0  0  0  0
  -32.0910  -18.3090   22.3410 H   0  0  0  0  0  0  0  0  0  0  0  0
  -30.6710  -17.1570   21.2830 C   0  0  0  0  0  2  0  0  0  0  0  0
  -31.4960  -14.5600   19.7540 C   0  0  0  0  0  0  0  0  0  0  0  0
  -31.1140  -12.2520   19.0350 C   0  0  0  0  0  2  0  0  0  0  0  0
  -30.1470  -12.2850   17.8310 C   0  0  0  0  0  2  0  0  0  0  0  0
  -28.6790  -12.3020   18.3030 C   0  0  0  0  0  2  0  0  0  0  0  0
  -28.3990  -13.3300   19.4330 C   0  0  0  0  0  3  0  0  0  0  0  0
  -29.4840  -13.2750   20.5320 C   0  0  0  0  0  2  0  0  0  0  0  0
  -30.7930  -13.4060   19.8830 N   0  0  0  0  0  0  0  0  0  0  0  0
  -32.7170  -14.5820   19.5870 O   0  0  0  0  0  0  0  0  0  0  0  0
  -31.5650  -17.1530   17.5510 C   0  0  0  0  0  2  0  0  0  0  0  0
  -31.7720  -17.7060   18.9510 C   0  0  0  0  0  2  0  0  0  0  0  0
  -30.9110  -15.7800   17.7750 C   0  0  0  0  0  2  0  0  0  0  0  0
  -30.6970  -16.9580   19.7470 C   0  0  0  0  0  3  0  0  0  0  0  0
  -30.7510  -15.5730   19.2320 N   0  0  0  0  0  0  0  0  0  0  0  0
  -26.1170  -14.1390   20.3020 C   0  0  0  0  0  0  0  0  0  0  0  0
  -24.9960  -13.4600   20.6940 C   0  0  0  0  0  0  0  0  0  0  0  0
  -25.3200  -12.0720   20.5940 C   0  0  0  0  0  0  0  0  0  0  0  0
  -27.0570  -13.1690   19.9860 N   0  0  0  0  0  0  0  0  0  0  0  0
  -26.5850  -11.9200   20.2260 N   0  0  0  0  0  0  0  0  0  0  0  0
  -24.4850  -10.8790   20.7720 C   0  0  0  0  0  0  0  0  0  0  0  0
  -24.8400   -9.8550   21.6780 C   0  0  0  0  0  3  0  0  0  0  0  0
  -24.0090   -8.7270   21.8450 C   0  0  0  0  0  3  0  0  0  0  0  0
  -22.8090   -8.6130   21.1050 C   0  0  0  0  0  0  0  0  0  0  0  0
  -22.4710   -9.6230   20.1870 C   0  0  0  0  0  3  0  0  0  0  0  0
  -23.3010  -10.7440   20.0180 C   0  0  0  0  0  3  0  0  0  0  0  0
  -21.9530   -7.5410   21.1840 O   0  0  0  0  0  0  0  0  0  0  0  0
  -21.8040   -6.8220   22.3430 C   0  0  0  0  0  0  0  0  0  0  0  0
  -21.4010   -7.4310   23.5520 C   0  0  0  0  0  3  0  0  0  0  0  0
  -21.1930   -6.6440   24.7010 C   0  0  0  0  0  3  0  0  0  0  0  0
  -21.3780   -5.2490   24.6430 C   0  0  0  0  0  0  0  0  0  0  0  0
  -21.7740   -4.6410   23.4390 C   0  0  0  0  0  3  0  0  0  0  0  0
  -21.9830   -5.4250   22.2920 C   0  0  0  0  0  0  0  0  0  0  0  0
  -22.3440   -4.8300   21.1290 F   0  0  0  0  0  0  0  0  0  0  0  0
  -21.1710   -4.4920   25.7450 F   0  0  0  0  0  0  0  0  0  0  0  0
  -23.6660  -14.0590   21.0480 C   0  0  0  0  0  0  0  0  0  0  0  0
  -22.9180  -13.4130   21.9360 N   0  0  0  0  0  0  0  0  0  0  0  0
  -23.3020  -15.1340   20.5720 O   0  0  0  0  0  0  0  0  0  0  0  0
  -23.2260  -12.5420   22.3450 H   0  0  0  0  0  0  0  0  0  0  0  0
  -22.0260  -13.7940   22.2130 H   0  0  0  0  0  0  0  0  0  0  0  0
  -26.4120  -15.4920   20.1640 N   0  0  0  0  0  0  0  0  0  0  0  0
  -25.7250  -16.2170   20.3370 H   0  0  0  0  0  0  0  0  0  0  0  0
  -27.2950  -15.8540   19.8270 H   0  0  0  0  0  0  0  0  0  0  0  0
  -33.4750  -20.7020   22.9920 C   0  0  0  0  0  1  0  0  0  0  0  0
  -32.3010  -20.1290   23.5540 O   0  0  0  0  0  0  0  0  0  0  0  0
  -27.6980  -21.6650   20.8020 O   0  0  0  0  0  0  0  0  0  0  0  0
  -27.9050  -22.6610   19.7880 C   0  0  0  0  0  2  0  0  0  0  0  0
  -27.5090  -24.0990   20.1990 C   0  0  0  0  0  2  0  0  0  0  0  0
  -27.7900  -25.1240   19.0760 C   0  0  0  0  0  2  0  0  0  0  0  0
  -27.8200  -26.4850   19.5270 O   0  0  0  0  0  0  0  0  0  0  0  0
  -24.4800  -31.6560   23.0650 C   0  0  0  0  0  0  0  0  0  0  0  0
  -26.6620  -27.2310   19.6170 C   0  0  0  0  0  0  0  0  0  0  0  0
  -23.0910  -30.4040   21.4450 C   0  0  0  0  0  3  0  0  0  0  0  0
  -24.3560  -28.8620   19.8560 C   0  0  0  0  0  0  0  0  0  0  0  0
  -25.6130  -30.6360   21.0930 C   0  0  0  0  0  2  0  0  0  0  0  0
  -25.5760  -29.2940   20.3900 C   0  0  0  0  0  0  0  0  0  0  0  0
  -26.7270  -28.4860   20.2680 C   0  0  0  0  0  3  0  0  0  0  0  0
  -25.4190  -26.8110   19.0870 C   0  0  0  0  0  3  0  0  0  0  0  0
  -24.2730  -27.6200   19.2040 C   0  0  0  0  0  3  0  0  0  0  0  0
  -23.1670  -29.7810   20.0250 C   0  0  0  0  0  2  0  0  0  0  0  0
  -24.4170  -30.9100   21.9260 N   0  0  0  0  0  0  0  0  0  0  0  0
  -23.4550  -31.9590   23.6890 O   0  0  0  0  0  0  0  0  0  0  0  0
  -22.4460  -29.3740   22.4010 C   0  0  0  0  0  0  0  0  0  0  0  0
  -21.1180  -29.2070   22.2920 N   0  0  0  0  0  0  0  0  0  0  0  0
  -23.1370  -28.7320   23.1960 O   0  0  0  0  0  0  0  0  0  0  0  0
  -20.6210  -29.7820   21.6260 H   0  0  0  0  0  0  0  0  0  0  0  0
  -17.7600  -27.9580   22.7400 C   0  0  0  0  0  0  0  0  0  0  0  0
  -20.3050  -28.2640   23.0600 C   0  0  0  0  0  3  0  0  0  0  0  0
  -20.4450  -26.8280   22.5040 C   0  0  0  0  0  2  0  0  0  0  0  0
  -19.3700  -26.4730   21.4720 C   0  0  0  0  0  2  0  0  0  0  0  0
  -17.9740  -26.6020   22.0870 C   0  0  0  0  0  2  0  0  0  0  0  0
  -18.8560  -28.7450   23.1820 C   0  0  0  0  0  0  0  0  0  0  0  0
  -18.6030  -30.0140   23.7470 C   0  0  0  0  0  3  0  0  0  0  0  0
  -17.2870  -30.4950   23.8780 C   0  0  0  0  0  3  0  0  0  0  0  0
  -16.2050  -29.7040   23.4540 C   0  0  0  0  0  3  0  0  0  0  0  0
  -16.4430  -28.4370   22.8910 C   0  0  0  0  0  3  0  0  0  0  0  0
  -25.8380  -32.1850   23.6240 C   0  0  0  0  0  3  0  0  0  0  0  0
  -25.6290  -33.5740   24.0540 N   0  0  0  0  0  0  0  0  0  0  0  0
  -25.9820  -34.6520   23.3410 C   0  0  0  0  0  0  0  0  0  0  0  0
  -26.5920  -34.5780   22.2720 O   0  0  0  0  0  0  0  0  0  0  0  0
  -25.0870  -33.7090   24.8940 H   0  0  0  0  0  0  0  0  0  0  0  0
  -24.3490  -36.5580   23.1810 C   0  0  0  0  0  1  0  0  0  0  0  0
  -25.5990  -36.0340   23.9070 C   0  0  0  0  0  3  0  0  0  0  0  0
  -27.8180  -36.7410   24.6880 C   0  0  0  0  0  1  0  0  0  0  0  0
  -26.6870  -37.0320   23.8090 N   0  0  0  0  0  0  0  0  0  0  0  0
  -26.3430  -37.9620   24.0330 H   0  0  0  0  0  0  0  0  0  0  0  0
  -26.4040  -31.3130   24.8120 C   0  0  1  0  0  0  0  0  0  0  0  0
  -25.3810  -31.0660   25.9440 C   0  0  0  0  0  1  0  0  0  0  0  0
  -26.8820  -29.9350   24.2980 C   0  0  0  0  0  1  0  0  0  0  0  0
  -27.6400  -32.0090   25.4310 C   0  0  0  0  0  1  0  0  0  0  0  0
  1  3  1  0
  2  5  1  0
  2  4  2  0
  3  9  1  0
  4  6  1  0
  5  1  2  0
  6  3  2  0
  6 55  1  0
  8  7  1  0
  9  8  1  0
  9  7  1  0
 10  4  1  0
 10 11  1  0
 12 10  1  0
 13 19  1  0
 14 19  1  0
 15 16  1  0
 15 14  1  0
 17 16  1  0
 17 29  1  0
 17 18  1  0
 19 18  1  0
 20 13  2  0
 21 23  1  0
 21 22  1  0
 22 24  1  0
 23 25  1  0
 24 12  1  0
 25 24  1  0
 25 13  1  0
 26 27  2  0
 27 46  1  0
 28 27  1  0
 28 31  1  0
 29 30  1  0
 29 26  1  0
 30 28  2  0
 31 32  1  0
 32 33  2  0
 34 37  1  0
 34 33  1  0
 35 34  2  0
 36 35  1  0
 36 31  2  0
 37 38  1  0
 38 39  1  0
 39 40  2  0
 41 40  1  0
 41 45  1  0
 42 41  2  0
 43 38  2  0
 43 42  1  0
 44 43  1  0
 46 47  1  0
 47 50  1  0
 47 49  1  0
 48 46  2  0
 51 26  1  0
 51 52  1  0
 53 51  1  0
 54 55  1  0
 56  5  1  0
 57 58  1  0
 57 56  1  0
 59 60  1  0
 59 58  1  0
 60 62  1  0
 61 72  2  0
 62 67  1  0
 63 71  1  0
 63 73  1  0
 64 70  1  0
 64 66  1  0
 65 71  1  0
 66 65  1  0
 67 66  2  0
 68 69  1  0
 68 62  2  0
 69 64  2  0
 70 63  1  0
 71 61  1  0
 73 75  2  0
 74 73  1  0
 76 74  1  0
 77 86  2  0
 77 82  1  0
 78 74  1  0
 78 82  1  0
 79 78  1  0
 80 81  1  0
 80 79  1  0
 81 77  1  0
 82 83  2  0
 83 84  1  0
 85 84  2  0
 86 85  1  0
 87 61  1  0
 87 88  1  0
 87 97  1  0
 88 91  1  0
 89 93  1  0
 89 88  1  0
 90 89  2  0
 93 92  1  0
 95 93  1  0
 95 96  1  0
 95 94  1  0
 97100  1  1
 97 98  1  0
 99 97  1  0
M  ISO  4  13 100  25 100  59 101  60 101
M  END
>  <TORSDO>  (6) 
F 24

>  <SCORE>  (6) 
-9.109

>  <name>  (6) 
5

>  <ligand_id>  (6) 
5

>  <original_smiles>  (6) 
[H]c1c([H])c([H])c2c(c1[H])C([H])([H])C([H])([H])C([H])([H])C2([H])N([H])C(=O)C1([H])N(C(=O)C([H])(N([H])C(=O)C([H])(N([H])C([H])([H])[H])C([H])([H])[H])C(C([H])([H])[H])(C([H])([H])[H])C([H])([H])[H])C([H])([H])c2c([H])c(OC([H])([H])C([H])([H])C([H])([H])Oc3c([H])c(N([H])C([H])([H])C4([H])N(C(=O)N5C([H])([H])C([H])([H])C([H])([H])C([H])(n6nc(-c7c([H])c([H])c(Oc8c([H])c([H])c(F)c([H])c8F)c([H])c7[H])c(C(=O)N([H])[H])c6N([H])[H])C5([H])[H])C([H])([H])C([H])([H])C4([H])[H])c(OC([H])([H])[H])c(C4([H])C([H])([H])C4([H])[H])c3[H])c([H])c([H])c2C1([H])[H]

>  <smiles>  (6) 
[H]c1c([H])c([H])c2c(c1[H])C([H])([H])C([H])([H])C([H])([H])C2([H])N([H])C(=O)C1([H])N(C(=O)C([H])(N([H])C(=O)C([H])(N([H])C([H])([H])[H])C([H])([H])[H])C(C([H])([H])[H])(C([H])([H])[H])C([H])([H])[H])C([H])([H])c2c([H])c(OC([H])([H])C([H])([H])C([H])([H])Oc3c([H])c(N([H])C([H])([H])C4([H])N(C(=O)N5C([H])([H])C([H])([H])C([H])([H])C([H])(n6nc(-c7c([H])c([H])c(Oc8c([H])c([H])c(F)c([H])c8F)c([H])c7[H])c(C(=O)N([H])[H])c6N([H])[H])C5([H])[H])C([H])([H])C([H])([H])C4([H])[H])c(OC([H])([H])[H])c(C4([H])C([H])([H])C4([H])[H])c3[H])c([H])c([H])c2C1([H])[H]

$$$$
6:0:0
     RDKit          3D

 94103  0  0  1  0  0  0  0  0999 V2000
  -29.6630  -22.9520   21.7060 C   0  0  0  0  0  2  0  0  0  0  0  0
  -27.3300  -22.5770   20.8950 C   0  0  0  0  0  2  0  0  0  0  0  0
  -29.6210  -24.2950   20.8370 C   0  0  0  0  0  2  0  0  0  0  0  0
  -27.1790  -24.1180   21.1560 C   0  0  0  0  0  2  0  0  0  0  0  0
  -28.5230  -21.8630   21.6220 C   0  0  0  0  0  3  0  0  0  0  0  0
  -28.2550  -24.9300   20.3950 C   0  0  0  0  0  3  0  0  0  0  0  0
  -28.2800  -26.4220   20.4940 O   0  0  0  0  0  0  0  0  0  0  0  0
  -24.5660  -31.9350   23.2490 C   0  0  0  0  0  0  0  0  0  0  0  0
  -27.1420  -27.2370   20.3770 C   0  0  0  0  0  0  0  0  0  0  0  0
  -23.3360  -30.4560   21.7030 C   0  0  0  0  0  3  0  0  0  0  0  0
  -24.7640  -28.8390   20.3230 C   0  0  0  0  0  0  0  0  0  0  0  0
  -25.8680  -30.7800   21.4430 C   0  0  0  0  0  2  0  0  0  0  0  0
  -25.9410  -29.3690   20.8650 C   0  0  0  0  0  0  0  0  0  0  0  0
  -27.1310  -28.5820   20.8690 C   0  0  0  0  0  3  0  0  0  0  0  0
  -25.9430  -26.7620   19.8020 C   0  0  0  0  0  3  0  0  0  0  0  0
  -24.7670  -27.5400   19.7820 C   0  0  0  0  0  3  0  0  0  0  0  0
  -23.5290  -29.7210   20.3490 C   0  0  0  0  0  2  0  0  0  0  0  0
  -24.6110  -31.0790   22.1870 N   0  0  0  0  0  0  0  0  0  0  0  0
  -23.4920  -32.2300   23.7950 O   0  0  0  0  0  0  0  0  0  0  0  0
  -22.6980  -29.4820   22.7210 C   0  0  0  0  0  0  0  0  0  0  0  0
  -21.4240  -29.1140   22.4920 N   0  0  0  0  0  0  0  0  0  0  0  0
  -23.3520  -29.0530   23.6750 O   0  0  0  0  0  0  0  0  0  0  0  0
  -20.9510  -29.5230   21.6980 H   0  0  0  0  0  0  0  0  0  0  0  0
  -18.2160  -27.4620   22.7550 C   0  0  0  0  0  0  0  0  0  0  0  0
  -20.6420  -28.1770   23.2990 C   0  0  0  0  0  3  0  0  0  0  0  0
  -21.0280  -26.7130   22.9890 C   0  0  0  0  0  2  0  0  0  0  0  0
  -20.1500  -26.0680   21.9110 C   0  0  0  0  0  2  0  0  0  0  0  0
  -18.6820  -26.0760   22.3410 C   0  0  0  0  0  2  0  0  0  0  0  0
  -19.1370  -28.4520   23.1900 C   0  0  0  0  0  0  0  0  0  0  0  0
  -18.6530  -29.7340   23.5330 C   0  0  0  0  0  3  0  0  0  0  0  0
  -17.2800  -30.0310   23.4440 C   0  0  0  0  0  3  0  0  0  0  0  0
  -16.3720  -29.0440   23.0250 C   0  0  0  0  0  3  0  0  0  0  0  0
  -16.8390  -27.7620   22.6880 C   0  0  0  0  0  3  0  0  0  0  0  0
  -25.8570  -32.6030   23.8160 C   0  0  0  0  0  3  0  0  0  0  0  0
  -26.4400  -31.8530   25.0770 C   0  0  1  0  0  0  0  0  0  0  0  0
  -25.3790  -31.5380   26.1580 C   0  0  0  0  0  1  0  0  0  0  0  0
  -27.1050  -30.5200   24.6580 C   0  0  0  0  0  1  0  0  0  0  0  0
  -27.5390  -32.7180   25.7380 C   0  0  0  0  0  1  0  0  0  0  0  0
  -25.5230  -33.9940   24.1520 N   0  0  0  0  0  0  0  0  0  0  0  0
  -25.8500  -35.0590   23.4110 C   0  0  0  0  0  0  0  0  0  0  0  0
  -26.5390  -34.9770   22.3910 O   0  0  0  0  0  0  0  0  0  0  0  0
  -24.9060  -34.1290   24.9410 H   0  0  0  0  0  0  0  0  0  0  0  0
  -24.1130  -36.8460   23.0420 C   0  0  0  0  0  1  0  0  0  0  0  0
  -25.3360  -36.4350   23.8770 C   0  0  0  0  0  3  0  0  0  0  0  0
  -27.4560  -37.3120   24.7560 C   0  0  0  0  0  1  0  0  0  0  0  0
  -26.3580  -37.5010   23.8110 N   0  0  0  0  0  0  0  0  0  0  0  0
  -25.9400  -38.4100   23.9890 H   0  0  0  0  0  0  0  0  0  0  0  0
  -28.9580  -20.3690   21.1090 C   0  0  0  0  0  2  0  0  0  0  0  0
  -34.7820  -19.4050   21.4160 C   0  0  0  0  0  0  0  0  0  0  0  0
  -37.0810  -20.3050   21.0610 C   0  0  0  0  0  2  0  0  0  0  0  0
  -36.9330  -21.7240   20.4680 C   0  0  0  0  0  2  0  0  0  0  0  0
  -36.7950  -21.6620   18.9320 C   0  0  0  0  0  2  0  0  0  0  0  0
  -35.7770  -20.5890   18.4540 C   0  0  0  0  0  3  0  0  0  0  0  0
  -35.9820  -19.2480   19.1920 C   0  0  0  0  0  2  0  0  0  0  0  0
  -35.8960  -19.5370   20.6240 N   0  0  0  0  0  0  0  0  0  0  0  0
  -34.8970  -19.4560   22.6480 O   0  0  0  0  0  0  0  0  0  0  0  0
  -31.0690  -18.6760   20.8640 C   0  0  0  0  0  2  0  0  0  0  0  0
  -31.4450  -21.0700   20.3800 C   0  0  0  0  0  2  0  0  0  0  0  0
  -32.6140  -18.4760   20.5310 C   0  0  0  0  0  2  0  0  0  0  0  0
  -32.7390  -20.7970   21.2340 C   0  0  0  0  0  2  0  0  0  0  0  0
  -30.3260  -19.9570   20.3030 C   0  0  2  0  0  0  0  0  0  0  0  0
  -33.5380  -19.6080   20.8330 N   0  0  0  0  0  0  0  0  0  0  0  0
  -34.7300  -20.4320   16.1140 C   0  0  0  0  0  0  0  0  0  0  0  0
  -35.2830  -20.3340   14.8620 C   0  0  0  0  0  0  0  0  0  0  0  0
  -36.6950  -20.2850   15.0570 C   0  0  0  0  0  0  0  0  0  0  0  0
  -35.7970  -20.4320   17.0010 N   0  0  0  0  0  0  0  0  0  0  0  0
  -36.9830  -20.2860   16.3550 N   0  0  0  0  0  0  0  0  0  0  0  0
  -37.7930  -20.2950   14.0800 C   0  0  0  0  0  0  0  0  0  0  0  0
  -38.9330  -19.4770   14.2440 C   0  0  0  0  0  3  0  0  0  0  0  0
  -39.9670  -19.4910   13.2830 C   0  0  0  0  0  3  0  0  0  0  0  0
  -39.8670  -20.3230   12.1450 C   0  0  0  0  0  0  0  0  0  0  0  0
  -38.7420  -21.1520   11.9980 C   0  0  0  0  0  3  0  0  0  0  0  0
  -37.7160  -21.1430   12.9560 C   0  0  0  0  0  3  0  0  0  0  0  0
  -40.8340  -20.4220   11.1750 O   0  0  0  0  0  0  0  0  0  0  0  0
  -41.8500  -19.5060   11.0780 C   0  0  0  0  0  0  0  0  0  0  0  0
  -41.5960  -18.1190   11.0070 C   0  0  0  0  0  3  0  0  0  0  0  0
  -42.6660  -17.2140   10.8370 C   0  0  0  0  0  3  0  0  0  0  0  0
  -43.9840  -17.6960   10.7280 C   0  0  0  0  0  0  0  0  0  0  0  0
  -44.2380  -19.0760   10.7910 C   0  0  0  0  0  3  0  0  0  0  0  0
  -43.1750  -19.9790   10.9630 C   0  0  0  0  0  0  0  0  0  0  0  0
  -43.4220  -21.3100   11.0040 F   0  0  0  0  0  0  0  0  0  0  0  0
  -45.0090  -16.8270   10.5570 F   0  0  0  0  0  0  0  0  0  0  0  0
  -34.5410  -20.3830   13.5580 C   0  0  0  0  0  0  0  0  0  0  0  0
  -35.0360  -19.6760   12.5440 N   0  0  0  0  0  0  0  0  0  0  0  0
  -33.4930  -21.0130   13.4390 O   0  0  0  0  0  0  0  0  0  0  0  0
  -35.8870  -19.1420   12.6460 H   0  0  0  0  0  0  0  0  0  0  0  0
  -34.5520  -19.6630   11.6580 H   0  0  0  0  0  0  0  0  0  0  0  0
  -33.4220  -20.5440   16.5590 N   0  0  0  0  0  0  0  0  0  0  0  0
  -32.6560  -20.6450   15.9020 H   0  0  0  0  0  0  0  0  0  0  0  0
  -33.1410  -20.6820   17.5220 H   0  0  0  0  0  0  0  0  0  0  0  0
  -29.9690  -19.6460   18.8150 C   0  0  0  0  0  2  0  0  0  0  0  0
  -28.8890  -21.7220   17.5920 C   0  0  0  0  0  1  0  0  0  0  0  0
  -28.3240  -19.3790   16.9380 C   0  0  0  0  0  1  0  0  0  0  0  0
  -28.7260  -20.2850   18.1280 C   0  0  0  0  0  3  0  0  0  0  0  0
  2  4  1  0
  2  5  1  0
  3  1  1  0
  5 48  1  0
  5  1  1  0
  6  7  1  0
  6  3  1  0
  6  4  1  0
  8 19  2  0
  9  7  1  0
  9 14  1  0
 10 18  1  0
 10 20  1  0
 11 17  1  0
 11 13  1  0
 12 18  1  0
 13 14  2  0
 13 12  1  0
 15  9  2  0
 16 15  1  0
 16 11  2  0
 17 10  1  0
 18  8  1  0
 20 22  2  0
 21 20  1  0
 23 21  1  0
 24 29  1  0
 25 21  1  0
 26 25  1  0
 27 28  1  0
 27 26  1  0
 28 24  1  0
 29 25  1  0
 29 30  2  0
 31 30  1  0
 32 31  2  0
 33 24  2  0
 33 32  1  0
 34  8  1  0
 34 39  1  0
 34 35  1  0
 35 38  1  1
 35 36  1  0
 37 35  1  0
 39 42  1  0
 40 44  1  0
 40 39  1  0
 41 40  2  0
 44 43  1  0
 46 44  1  0
 46 47  1  0
 46 45  1  0
 49 56  2  0
 51 50  1  0
 52 51  1  0
 53 66  1  0
 53 52  1  0
 53 54  1  0
 54 55  1  0
 55 50  1  0
 55 49  1  0
 58 60  1  0
 59 62  1  0
 59 57  1  0
 61 91  1  6
 61 58  1  0
 61 57  1  0
 61 48  1  0
 62 60  1  0
 62 49  1  0
 63 88  1  0
 63 66  1  0
 64 65  1  0
 64 63  2  0
 65 67  2  0
 67 66  1  0
 68 69  1  0
 68 65  1  0
 70 69  2  0
 71 70  1  0
 72 71  2  0
 72 73  1  0
 73 68  2  0
 74 71  1  0
 75 74  1  0
 76 75  1  0
 77 76  2  0
 78 79  2  0
 78 77  1  0
 79 80  1  0
 80 81  1  0
 80 75  2  0
 82 78  1  0
 83 64  1  0
 84 86  1  0
 84 83  1  0
 85 83  2  0
 87 84  1  0
 88 90  1  0
 89 88  1  0
 92 94  1  0
 93 94  1  0
 94 91  1  0
M  ISO  4   6 101   7 101  49 100  62 100
M  END
>  <TORSDO>  (7) 
F 19

>  <SCORE>  (7) 
-8.009

>  <name>  (7) 
6

>  <ligand_id>  (7) 
6

>  <original_smiles>  (7) 
[H]c1c([H])c([H])c2c(c1[H])C([H])([H])C([H])([H])C([H])([H])C2([H])N([H])C(=O)C1([H])N(C(=O)C([H])(N([H])C(=O)C([H])(N([H])C([H])([H])[H])C([H])([H])[H])C(C([H])([H])[H])(C([H])([H])[H])C([H])([H])[H])C([H])([H])c2c([H])c(OC3([H])C([H])([H])C([H])([H])C([H])(C([H])([H])C4(C([H])([H])C([H])(C([H])([H])[H])C([H])([H])[H])C([H])([H])C([H])([H])N(C(=O)N5C([H])([H])C([H])([H])C([H])([H])C([H])(n6nc(-c7c([H])c([H])c(Oc8c([H])c([H])c(F)c([H])c8F)c([H])c7[H])c(C(=O)N([H])[H])c6N([H])[H])C5([H])[H])C([H])([H])C4([H])[H])C([H])([H])C3([H])[H])c([H])c([H])c2C1([H])[H]

>  <smiles>  (7) 
[H]c1c([H])c([H])c2c(c1[H])C([H])([H])C([H])([H])C([H])([H])C2([H])N([H])C(=O)C1([H])N(C(=O)C([H])(N([H])C(=O)C([H])(N([H])C([H])([H])[H])C([H])([H])[H])C(C([H])([H])[H])(C([H])([H])[H])C([H])([H])[H])C([H])([H])c2c([H])c(OC3([H])C([H])([H])C([H])([H])C([H])(C([H])([H])C4(C([H])([H])C([H])(C([H])([H])[H])C([H])([H])[H])C([H])([H])C([H])([H])N(C(=O)N5C([H])([H])C([H])([H])C([H])([H])C([H])(n6nc(-c7c([H])c([H])c(Oc8c([H])c([H])c(F)c([H])c8F)c([H])c7[H])c(C(=O)N([H])[H])c6N([H])[H])C5([H])[H])C([H])([H])C4([H])[H])C([H])([H])C3([H])[H])c([H])c([H])c2C1([H])[H]

$$$$
7:0:0
     RDKit          3D

 96106  0  0  1  0  0  0  0  0999 V2000
  -31.0420  -22.3170   20.9840 C   0  0  0  0  0  3  0  0  0  0  0  0
  -28.7420  -21.9040   20.4660 C   0  0  0  0  0  3  0  0  0  0  0  0
  -31.3310  -20.9240   20.9780 C   0  0  0  0  0  0  0  0  0  0  0  0
  -30.3070  -19.9530   20.7330 C   0  0  0  0  0  0  0  0  0  0  0  0
  -29.7600  -22.8550   20.7260 C   0  0  0  0  0  0  0  0  0  0  0  0
  -29.0050  -20.4930   20.4720 C   0  0  0  0  0  0  0  0  0  0  0  0
  -33.9290  -21.3030   20.6750 C   0  0  0  0  0  2  0  0  0  0  0  0
  -33.6390  -19.8980   20.2090 C   0  0  0  0  0  2  0  0  0  0  0  0
  -32.7590  -20.5370   21.2600 C   0  0  0  0  0  3  0  0  0  0  0  0
  -31.3950  -17.7680   21.8040 C   0  0  0  0  0  2  0  0  0  0  0  0
  -30.6390  -18.4170   20.6560 C   0  0  0  0  0  3  0  0  0  0  0  0
  -30.0350  -17.2250   21.4800 C   0  0  0  0  0  3  0  0  0  0  0  0
  -30.7410  -14.7820   20.7650 C   0  0  0  0  0  0  0  0  0  0  0  0
  -30.6090  -12.5500   19.6630 C   0  0  0  0  0  2  0  0  0  0  0  0
  -29.7130  -12.6740   18.4110 C   0  0  0  0  0  2  0  0  0  0  0  0
  -28.2250  -12.4950   18.7760 C   0  0  0  0  0  2  0  0  0  0  0  0
  -27.8040  -13.3550   19.9980 C   0  0  0  0  0  3  0  0  0  0  0  0
  -28.8150  -13.1990   21.1550 C   0  0  0  0  0  2  0  0  0  0  0  0
  -30.1430  -13.5580   20.6340 N   0  0  0  0  0  0  0  0  0  0  0  0
  -31.9250  -14.9560   20.4640 O   0  0  0  0  0  0  0  0  0  0  0  0
  -29.8890  -15.8030   21.0880 N   0  0  0  0  0  0  0  0  0  0  0  0
  -28.9430  -15.4660   21.1920 H   0  0  0  0  0  0  0  0  0  0  0  0
  -25.3740  -13.9390   20.5980 C   0  0  0  0  0  0  0  0  0  0  0  0
  -24.2980  -13.1580   20.9240 C   0  0  0  0  0  0  0  0  0  0  0  0
  -24.7760  -11.8110   20.9300 C   0  0  0  0  0  0  0  0  0  0  0  0
  -26.4370  -13.0670   20.4230 N   0  0  0  0  0  0  0  0  0  0  0  0
  -26.0800  -11.7840   20.6840 N   0  0  0  0  0  0  0  0  0  0  0  0
  -24.0560  -10.5430   21.0990 C   0  0  0  0  0  0  0  0  0  0  0  0
  -24.4510   -9.5930   22.0660 C   0  0  0  0  0  3  0  0  0  0  0  0
  -23.7310   -8.3900   22.2230 C   0  0  0  0  0  3  0  0  0  0  0  0
  -22.6010   -8.1280   21.4110 C   0  0  0  0  0  0  0  0  0  0  0  0
  -22.2270   -9.0660   20.4330 C   0  0  0  0  0  3  0  0  0  0  0  0
  -22.9480  -10.2610   20.2760 C   0  0  0  0  0  3  0  0  0  0  0  0
  -21.8570   -6.9760   21.4740 O   0  0  0  0  0  0  0  0  0  0  0  0
  -21.7520   -6.2500   22.6340 C   0  0  0  0  0  0  0  0  0  0  0  0
  -21.2000   -6.8020   23.8110 C   0  0  0  0  0  3  0  0  0  0  0  0
  -21.0470   -5.9990   24.9590 C   0  0  0  0  0  3  0  0  0  0  0  0
  -21.4350   -4.6460   24.9310 C   0  0  0  0  0  0  0  0  0  0  0  0
  -21.9790   -4.0940   23.7580 C   0  0  0  0  0  3  0  0  0  0  0  0
  -22.1340   -4.8940   22.6120 C   0  0  0  0  0  0  0  0  0  0  0  0
  -22.6390   -4.3510   21.4780 F   0  0  0  0  0  0  0  0  0  0  0  0
  -21.2810   -3.8730   26.0310 F   0  0  0  0  0  0  0  0  0  0  0  0
  -22.8840  -13.6220   21.1200 C   0  0  0  0  0  0  0  0  0  0  0  0
  -22.1220  -12.9270   21.9590 N   0  0  0  0  0  0  0  0  0  0  0  0
  -22.4600  -14.6350   20.5670 O   0  0  0  0  0  0  0  0  0  0  0  0
  -22.4770  -12.1060   22.4270 H   0  0  0  0  0  0  0  0  0  0  0  0
  -21.1720  -13.2220   22.1340 H   0  0  0  0  0  0  0  0  0  0  0  0
  -25.5320  -15.3090   20.4160 N   0  0  0  0  0  0  0  0  0  0  0  0
  -24.7490  -15.9500   20.4760 H   0  0  0  0  0  0  0  0  0  0  0  0
  -26.3810  -15.7550   20.0950 H   0  0  0  0  0  0  0  0  0  0  0  0
  -29.6010  -24.4190   20.7910 C   0  0  0  0  0  2  0  0  0  0  0  0
  -28.3360  -25.2010   20.2650 C   0  0  0  0  0  2  0  0  0  0  0  0
  -28.4470  -26.6630   20.4220 O   0  0  0  0  0  0  0  0  0  0  0  0
  -24.5760  -31.9700   23.3480 C   0  0  0  0  0  0  0  0  0  0  0  0
  -27.2980  -27.4570   20.3470 C   0  0  0  0  0  0  0  0  0  0  0  0
  -23.4170  -30.5570   21.6850 C   0  0  0  0  0  3  0  0  0  0  0  0
  -24.9100  -29.0210   20.2900 C   0  0  0  0  0  0  0  0  0  0  0  0
  -25.9530  -30.9080   21.5490 C   0  0  0  0  0  2  0  0  0  0  0  0
  -26.0590  -29.5310   20.9070 C   0  0  0  0  0  0  0  0  0  0  0  0
  -27.2550  -28.7590   20.9250 C   0  0  0  0  0  3  0  0  0  0  0  0
  -26.1270  -26.9890   19.7080 C   0  0  0  0  0  3  0  0  0  0  0  0
  -24.9450  -27.7550   19.6840 C   0  0  0  0  0  3  0  0  0  0  0  0
  -23.6630  -29.8810   20.3110 C   0  0  0  0  0  2  0  0  0  0  0  0
  -24.6660  -31.1620   22.2510 N   0  0  0  0  0  0  0  0  0  0  0  0
  -23.4810  -32.2380   23.8600 O   0  0  0  0  0  0  0  0  0  0  0  0
  -22.7470  -29.5360   22.6330 C   0  0  0  0  0  0  0  0  0  0  0  0
  -21.4320  -29.3210   22.4540 N   0  0  0  0  0  0  0  0  0  0  0  0
  -23.4080  -28.9400   23.4860 O   0  0  0  0  0  0  0  0  0  0  0  0
  -20.9570  -29.8550   21.7410 H   0  0  0  0  0  0  0  0  0  0  0  0
  -18.0740  -28.0270   22.8130 C   0  0  0  0  0  0  0  0  0  0  0  0
  -20.6060  -28.3730   23.2050 C   0  0  0  0  0  3  0  0  0  0  0  0
  -20.7820  -26.9350   22.6670 C   0  0  0  0  0  2  0  0  0  0  0  0
  -19.7430  -26.5550   21.6060 C   0  0  0  0  0  2  0  0  0  0  0  0
  -18.3260  -26.6710   22.1760 C   0  0  0  0  0  2  0  0  0  0  0  0
  -19.1460  -28.8330   23.2820 C   0  0  0  0  0  0  0  0  0  0  0  0
  -18.8580  -30.1010   23.8320 C   0  0  0  0  0  3  0  0  0  0  0  0
  -17.5320  -30.5630   23.9220 C   0  0  0  0  0  3  0  0  0  0  0  0
  -16.4740  -29.7540   23.4730 C   0  0  0  0  0  3  0  0  0  0  0  0
  -16.7450  -28.4890   22.9240 C   0  0  0  0  0  3  0  0  0  0  0  0
  -25.8430  -32.6130   23.9950 C   0  0  0  0  0  3  0  0  0  0  0  0
  -25.5340  -34.0230   24.2690 N   0  0  0  0  0  0  0  0  0  0  0  0
  -25.8900  -35.0470   23.4820 C   0  0  0  0  0  0  0  0  0  0  0  0
  -26.5840  -34.9030   22.4720 O   0  0  0  0  0  0  0  0  0  0  0  0
  -24.9200  -34.2080   25.0500 H   0  0  0  0  0  0  0  0  0  0  0  0
  -24.1850  -36.8370   23.0200 C   0  0  0  0  0  1  0  0  0  0  0  0
  -25.4000  -36.4520   23.8800 C   0  0  0  0  0  3  0  0  0  0  0  0
  -27.5090  -37.3570   24.7530 C   0  0  0  0  0  1  0  0  0  0  0  0
  -26.4440  -37.4940   23.7630 N   0  0  0  0  0  0  0  0  0  0  0  0
  -26.0390  -38.4220   23.8610 H   0  0  0  0  0  0  0  0  0  0  0  0
  -26.3070  -31.8790   25.3120 C   0  0  1  0  0  0  0  0  0  0  0  0
  -25.1710  -31.6750   26.3430 C   0  0  0  0  0  1  0  0  0  0  0  0
  -26.9020  -30.4900   24.9840 C   0  0  0  0  0  1  0  0  0  0  0  0
  -27.4340  -32.6900   25.9950 C   0  0  0  0  0  1  0  0  0  0  0  0
  -27.8440  -19.5540   20.1750 C   0  0  0  0  0  2  0  0  0  0  0  0
  -26.8310  -17.9080   18.5110 C   0  0  0  0  0  1  0  0  0  0  0  0
  -27.8720  -19.0110   18.7380 C   0  0  0  0  0  2  0  0  0  0  0  0
  2  6  2  0
  2  5  1  0
  3  1  1  0
  3  9  1  0
  4  3  2  0
  5 51  1  0
  5  1  2  0
  6  4  1  0
  7  9  1  0
  8  7  1  0
  8  9  1  0
 11  4  1  0
 11 12  1  0
 11 10  1  0
 12 21  1  0
 12 10  1  0
 13 21  1  0
 14 19  1  0
 15 16  1  0
 15 14  1  0
 17 16  1  0
 17 26  1  0
 17 18  1  0
 19 13  1  0
 19 18  1  0
 20 13  2  0
 21 22  1  0
 23 24  2  0
 24 25  1  0
 24 43  1  0
 25 28  1  0
 26 23  1  0
 26 27  1  0
 27 25  2  0
 28 29  1  0
 29 30  2  0
 31 34  1  0
 31 30  1  0
 32 31  2  0
 33 32  1  0
 33 28  2  0
 34 35  1  0
 35 36  1  0
 36 37  2  0
 38 37  1  0
 38 42  1  0
 39 38  2  0
 40 35  2  0
 40 39  1  0
 41 40  1  0
 43 44  1  0
 44 47  1  0
 44 46  1  0
 45 43  2  0
 48 49  1  0
 48 23  1  0
 50 48  1  0
 52 53  1  0
 52 51  1  0
 54 65  2  0
 55 53  1  0
 55 60  1  0
 56 64  1  0
 56 66  1  0
 57 63  1  0
 57 59  1  0
 58 64  1  0
 59 60  2  0
 59 58  1  0
 61 55  2  0
 62 61  1  0
 62 57  2  0
 63 56  1  0
 64 54  1  0
 66 68  2  0
 67 66  1  0
 69 67  1  0
 70 79  2  0
 70 75  1  0
 71 67  1  0
 71 75  1  0
 72 71  1  0
 73 74  1  0
 73 72  1  0
 74 70  1  0
 75 76  2  0
 76 77  1  0
 78 77  2  0
 79 78  1  0
 80 54  1  0
 80 81  1  0
 80 90  1  0
 81 84  1  0
 82 86  1  0
 82 81  1  0
 83 82  2  0
 86 85  1  0
 88 89  1  0
 88 86  1  0
 88 87  1  0
 90 93  1  1
 90 91  1  0
 92 90  1  0
 94  6  1  0
 95 96  1  0
 96 94  1  0
M  ISO  4  13 100  21 100  52 101  53 101
M  END
>  <TORSDO>  (8) 
F 22

>  <SCORE>  (8) 
-13.127

>  <name>  (8) 
7

>  <ligand_id>  (8) 
7

>  <original_smiles>  (8) 
[H]c1c([H])c([H])c2c(c1[H])C([H])([H])C([H])([H])C([H])([H])C2([H])N([H])C(=O)C1([H])N(C(=O)C([H])(N([H])C(=O)C([H])(N([H])C([H])([H])[H])C([H])([H])[H])C(C([H])([H])[H])(C([H])([H])[H])C([H])([H])[H])C([H])([H])c2c([H])c(OC([H])([H])C([H])([H])c3c([H])c(C([H])([H])C([H])([H])C([H])([H])[H])c(C4([H])C([H])([H])C4([H])N([H])C(=O)N4C([H])([H])C([H])([H])C([H])([H])C([H])(n5nc(-c6c([H])c([H])c(Oc7c([H])c([H])c(F)c([H])c7F)c([H])c6[H])c(C(=O)N([H])[H])c5N([H])[H])C4([H])[H])c(C4([H])C([H])([H])C4([H])[H])c3[H])c([H])c([H])c2C1([H])[H]

>  <smiles>  (8) 
[H]c1c([H])c([H])c2c(c1[H])C([H])([H])C([H])([H])C([H])([H])C2([H])N([H])C(=O)C1([H])N(C(=O)C([H])(N([H])C(=O)C([H])(N([H])C([H])([H])[H])C([H])([H])[H])C(C([H])([H])[H])(C([H])([H])[H])C([H])([H])[H])C([H])([H])c2c([H])c(OC([H])([H])C([H])([H])c3c([H])c(C([H])([H])C([H])([H])C([H])([H])[H])c(C4([H])C([H])([H])C4([H])N([H])C(=O)N4C([H])([H])C([H])([H])C([H])([H])C([H])(n5nc(-c6c([H])c([H])c(Oc7c([H])c([H])c(F)c([H])c7F)c([H])c6[H])c(C(=O)N([H])[H])c5N([H])[H])C4([H])[H])c(C4([H])C([H])([H])C4([H])[H])c3[H])c([H])c([H])c2C1([H])[H]

$$$$
8:0:0
     RDKit          3D

 96104  0  0  1  0  0  0  0  0999 V2000
  -31.1080  -22.2870   21.9310 C   0  0  0  0  0  3  0  0  0  0  0  0
  -30.3140  -23.3310   21.4110 C   0  0  0  0  0  0  0  0  0  0  0  0
  -30.8740  -20.9330   21.6480 C   0  0  0  0  0  0  0  0  0  0  0  0
  -29.2490  -23.0460   20.4930 C   0  0  0  0  0  0  0  0  0  0  0  0
  -29.0350  -21.6340   20.1980 C   0  0  0  0  0  0  0  0  0  0  0  0
  -29.8240  -20.5750   20.7710 C   0  0  0  0  0  0  0  0  0  0  0  0
  -31.7120  -19.9120   22.4020 C   0  0  0  0  0  1  0  0  0  0  0  0
  -27.8950  -21.1470   19.3050 C   0  0  0  0  0  1  0  0  0  0  0  0
  -31.7820  -25.4220   21.1820 C   0  0  0  0  0  1  0  0  0  0  0  0
  -30.6670  -24.7090   21.9710 C   0  0  0  0  0  2  0  0  0  0  0  0
  -28.3180  -24.1910   19.8850 C   0  0  0  0  0  3  0  0  0  0  0  0
  -26.1700  -23.1270   21.0190 C   0  0  0  0  0  1  0  0  0  0  0  0
  -26.9800  -24.3780   20.6540 C   0  0  0  0  0  2  0  0  0  0  0  0
  -28.9010  -25.6470   19.6420 C   0  0  0  0  0  2  0  0  0  0  0  0
  -28.2240  -26.5600   18.7540 O   0  0  0  0  0  0  0  0  0  0  0  0
  -24.7280  -31.4050   22.8550 C   0  0  0  0  0  0  0  0  0  0  0  0
  -27.1020  -27.2830   19.1220 C   0  0  0  0  0  0  0  0  0  0  0  0
  -23.4070  -30.2310   21.1260 C   0  0  0  0  0  3  0  0  0  0  0  0
  -24.7500  -28.8400   19.4620 C   0  0  0  0  0  0  0  0  0  0  0  0
  -25.9300  -30.5560   20.8340 C   0  0  0  0  0  2  0  0  0  0  0  0
  -25.9540  -29.2570   20.0490 C   0  0  0  0  0  0  0  0  0  0  0  0
  -27.1360  -28.4840   19.8840 C   0  0  0  0  0  3  0  0  0  0  0  0
  -25.8820  -26.8970   18.5360 C   0  0  0  0  0  3  0  0  0  0  0  0
  -24.7100  -27.6570   18.7050 C   0  0  0  0  0  3  0  0  0  0  0  0
  -23.5310  -29.7110   19.6680 C   0  0  0  0  0  2  0  0  0  0  0  0
  -24.7110  -30.7410   21.6640 N   0  0  0  0  0  0  0  0  0  0  0  0
  -23.6820  -31.6250   23.4820 O   0  0  0  0  0  0  0  0  0  0  0  0
  -22.7830  -29.1130   21.9950 C   0  0  0  0  0  0  0  0  0  0  0  0
  -21.4470  -28.9870   21.9460 N   0  0  0  0  0  0  0  0  0  0  0  0
  -23.4970  -28.3650   22.6680 O   0  0  0  0  0  0  0  0  0  0  0  0
  -20.9320  -29.6410   21.3740 H   0  0  0  0  0  0  0  0  0  0  0  0
  -18.0720  -27.8490   22.5690 C   0  0  0  0  0  0  0  0  0  0  0  0
  -20.6520  -27.9780   22.6470 C   0  0  0  0  0  3  0  0  0  0  0  0
  -20.6420  -26.6410   21.8700 C   0  0  0  0  0  2  0  0  0  0  0  0
  -19.4460  -26.5040   20.9230 C   0  0  0  0  0  2  0  0  0  0  0  0
  -18.1300  -26.6060   21.6980 C   0  0  0  0  0  2  0  0  0  0  0  0
  -19.2570  -28.5030   23.0020 C   0  0  0  0  0  0  0  0  0  0  0  0
  -19.1460  -29.6750   23.7810 C   0  0  0  0  0  3  0  0  0  0  0  0
  -17.8840  -30.1930   24.1280 C   0  0  0  0  0  3  0  0  0  0  0  0
  -16.7160  -29.5330   23.7110 C   0  0  0  0  0  3  0  0  0  0  0  0
  -16.8100  -28.3630   22.9370 C   0  0  0  0  0  3  0  0  0  0  0  0
  -26.0560  -31.9400   23.4730 C   0  0  0  0  0  3  0  0  0  0  0  0
  -25.7890  -33.2800   24.0120 N   0  0  0  0  0  0  0  0  0  0  0  0
  -26.1110  -34.4250   23.3970 C   0  0  0  0  0  0  0  0  0  0  0  0
  -26.7370  -34.4600   22.3340 O   0  0  0  0  0  0  0  0  0  0  0  0
  -25.2360  -33.3290   24.8550 H   0  0  0  0  0  0  0  0  0  0  0  0
  -24.4080  -36.2760   23.3710 C   0  0  0  0  0  1  0  0  0  0  0  0
  -25.6700  -35.7410   24.0670 C   0  0  0  0  0  3  0  0  0  0  0  0
  -27.8500  -36.4660   24.9320 C   0  0  0  0  0  1  0  0  0  0  0  0
  -26.7200  -36.7840   24.0650 N   0  0  0  0  0  0  0  0  0  0  0  0
  -26.3380  -37.6800   24.3560 H   0  0  0  0  0  0  0  0  0  0  0  0
  -26.6440  -30.9970   24.5940 C   0  0  1  0  0  0  0  0  0  0  0  0
  -25.6210  -30.6250   25.6920 C   0  0  0  0  0  1  0  0  0  0  0  0
  -27.1730  -29.6810   23.9790 C   0  0  0  0  0  1  0  0  0  0  0  0
  -27.8540  -31.6790   25.2750 C   0  0  0  0  0  1  0  0  0  0  0  0
  -29.4350  -19.2390   20.5740 O   0  0  0  0  0  0  0  0  0  0  0  0
  -30.3280  -18.2090   20.0550 C   0  0  0  0  0  2  0  0  0  0  0  0
  -30.6610  -17.0110   21.0310 C   0  0  0  0  0  2  0  0  0  0  0  0
  -30.9190  -14.5650   20.2660 C   0  0  0  0  0  0  0  0  0  0  0  0
  -30.6320  -12.3170   19.2390 C   0  0  0  0  0  2  0  0  0  0  0  0
  -29.6810  -12.4280   18.0300 C   0  0  0  0  0  2  0  0  0  0  0  0
  -28.2090  -12.3130   18.4770 C   0  0  0  0  0  2  0  0  0  0  0  0
  -27.8800  -13.2280   19.6880 C   0  0  0  0  0  3  0  0  0  0  0  0
  -28.9420  -13.0840   20.7990 C   0  0  0  0  0  2  0  0  0  0  0  0
  -30.2510  -13.3740   20.1940 N   0  0  0  0  0  0  0  0  0  0  0  0
  -32.0740  -14.6940   19.8550 O   0  0  0  0  0  0  0  0  0  0  0  0
  -30.1900  -15.6370   20.6740 N   0  0  0  0  0  0  0  0  0  0  0  0
  -29.2230  -15.4380   20.8830 H   0  0  0  0  0  0  0  0  0  0  0  0
  -25.5120  -13.9020   20.4280 C   0  0  0  0  0  0  0  0  0  0  0  0
  -24.4290  -13.1580   20.8150 C   0  0  0  0  0  0  0  0  0  0  0  0
  -24.8530  -11.7960   20.7800 C   0  0  0  0  0  0  0  0  0  0  0  0
  -26.5300  -12.9910   20.1870 N   0  0  0  0  0  0  0  0  0  0  0  0
  -26.1390  -11.7200   20.4580 N   0  0  0  0  0  0  0  0  0  0  0  0
  -24.0950  -10.5540   20.9780 C   0  0  0  0  0  0  0  0  0  0  0  0
  -24.5180   -9.5730   21.9010 C   0  0  0  0  0  3  0  0  0  0  0  0
  -23.7610   -8.3970   22.0910 C   0  0  0  0  0  3  0  0  0  0  0  0
  -22.5680   -8.1940   21.3590 C   0  0  0  0  0  0  0  0  0  0  0  0
  -22.1650   -9.1630   20.4250 C   0  0  0  0  0  3  0  0  0  0  0  0
  -22.9200  -10.3320   20.2310 C   0  0  0  0  0  3  0  0  0  0  0  0
  -21.7840   -7.0690   21.4580 O   0  0  0  0  0  0  0  0  0  0  0  0
  -21.7390   -6.3250   22.6080 C   0  0  0  0  0  0  0  0  0  0  0  0
  -21.3460   -6.8830   23.8450 C   0  0  0  0  0  3  0  0  0  0  0  0
  -21.2480   -6.0660   24.9880 C   0  0  0  0  0  3  0  0  0  0  0  0
  -21.5290   -4.6870   24.8960 C   0  0  0  0  0  0  0  0  0  0  0  0
  -21.9140   -4.1300   23.6630 C   0  0  0  0  0  3  0  0  0  0  0  0
  -22.0150   -4.9460   22.5230 C   0  0  0  0  0  0  0  0  0  0  0  0
  -22.3640   -4.3990   21.3330 F   0  0  0  0  0  0  0  0  0  0  0  0
  -21.4290   -3.8980   25.9900 F   0  0  0  0  0  0  0  0  0  0  0  0
  -23.0500  -13.6750   21.1060 C   0  0  0  0  0  0  0  0  0  0  0  0
  -22.3220  -12.9990   21.9880 N   0  0  0  0  0  0  0  0  0  0  0  0
  -22.6310  -14.7080   20.5860 O   0  0  0  0  0  0  0  0  0  0  0  0
  -22.6780  -12.1630   22.4300 H   0  0  0  0  0  0  0  0  0  0  0  0
  -21.3930  -13.3180   22.2230 H   0  0  0  0  0  0  0  0  0  0  0  0
  -25.7100  -15.2660   20.2430 N   0  0  0  0  0  0  0  0  0  0  0  0
  -24.9560  -15.9330   20.3560 H   0  0  0  0  0  0  0  0  0  0  0  0
  -26.5550  -15.6860   19.8760 H   0  0  0  0  0  0  0  0  0  0  0  0
  2  1  2  0
  2 10  1  0
  3  1  1  0
  3  7  1  0
  4  2  1  0
  5  4  2  0
  5  6  1  0
  6  3  2  0
  8  5  1  0
  9 10  1  0
 11 14  1  0
 11  4  1  0
 11 13  1  0
 13 12  1  0
 15 17  1  0
 15 14  1  0
 16 27  2  0
 17 22  1  0
 18 26  1  0
 18 28  1  0
 19 25  1  0
 19 21  1  0
 20 26  1  0
 21 20  1  0
 22 21  2  0
 23 24  1  0
 23 17  2  0
 24 19  2  0
 25 18  1  0
 26 16  1  0
 28 30  2  0
 29 28  1  0
 31 29  1  0
 32 41  2  0
 32 37  1  0
 33 29  1  0
 33 37  1  0
 34 33  1  0
 35 36  1  0
 35 34  1  0
 36 32  1  0
 37 38  2  0
 38 39  1  0
 40 39  2  0
 41 40  1  0
 42 16  1  0
 42 43  1  0
 42 52  1  0
 43 46  1  0
 44 43  1  0
 44 48  1  0
 45 44  2  0
 48 47  1  0
 50 48  1  0
 50 51  1  0
 50 49  1  0
 52 55  1  1
 52 53  1  0
 54 52  1  0
 56  6  1  0
 57 56  1  0
 57 58  1  0
 59 67  1  0
 60 65  1  0
 61 62  1  0
 61 60  1  0
 63 62  1  0
 63 72  1  0
 63 64  1  0
 65 59  1  0
 65 64  1  0
 66 59  2  0
 67 68  1  0
 67 58  1  0
 69 70  2  0
 70 89  1  0
 71 70  1  0
 71 74  1  0
 72 69  1  0
 72 73  1  0
 73 71  2  0
 74 75  1  0
 75 76  2  0
 77 80  1  0
 77 76  1  0
 78 77  2  0
 79 78  1  0
 79 74  2  0
 80 81  1  0
 81 82  1  0
 82 83  2  0
 84 83  1  0
 84 88  1  0
 85 84  2  0
 86 81  2  0
 86 85  1  0
 87 86  1  0
 89 90  1  0
 90 93  1  0
 90 92  1  0
 91 89  2  0
 94 95  1  0
 94 69  1  0
 96 94  1  0
M  ISO  4  14 101  15 101  59 100  67 100
M  END
>  <TORSDO>  (9) 
F 23

>  <SCORE>  (9) 
-11.587

>  <name>  (9) 
8

>  <ligand_id>  (9) 
8

>  <original_smiles>  (9) 
[H]c1c([H])c([H])c2c(c1[H])C([H])([H])C([H])([H])C([H])([H])C2([H])N([H])C(=O)C1([H])N(C(=O)C([H])(N([H])C(=O)C([H])(N([H])C([H])([H])[H])C([H])([H])[H])C(C([H])([H])[H])(C([H])([H])[H])C([H])([H])[H])C([H])([H])c2c([H])c(OC([H])([H])C([H])(c3c(C([H])([H])[H])c(OC([H])([H])C([H])([H])N([H])C(=O)N4C([H])([H])C([H])([H])C([H])([H])C([H])(n5nc(-c6c([H])c([H])c(Oc7c([H])c([H])c(F)c([H])c7F)c([H])c6[H])c(C(=O)N([H])[H])c5N([H])[H])C4([H])[H])c(C([H])([H])[H])c([H])c3C([H])([H])C([H])([H])[H])C([H])([H])C([H])([H])[H])c([H])c([H])c2C1([H])[H]

>  <smiles>  (9) 
[H]c1c([H])c([H])c2c(c1[H])C([H])([H])C([H])([H])C([H])([H])C2([H])N([H])C(=O)C1([H])N(C(=O)C([H])(N([H])C(=O)C([H])(N([H])C([H])([H])[H])C([H])([H])[H])C(C([H])([H])[H])(C([H])([H])[H])C([H])([H])[H])C([H])([H])c2c([H])c(OC([H])([H])C([H])(c3c(C([H])([H])[H])c(OC([H])([H])C([H])([H])N([H])C(=O)N4C([H])([H])C([H])([H])C([H])([H])C([H])(n5nc(-c6c([H])c([H])c(Oc7c([H])c([H])c(F)c([H])c7F)c([H])c6[H])c(C(=O)N([H])[H])c5N([H])[H])C4([H])[H])c(C([H])([H])[H])c([H])c3C([H])([H])C([H])([H])[H])C([H])([H])C([H])([H])[H])c([H])c([H])c2C1([H])[H]

$$$$
9:0:0
     RDKit          3D

 94102  0  0  1  0  0  0  0  0999 V2000
  -30.0380  -23.3310   20.3890 C   0  0  0  0  0  3  0  0  0  0  0  0
  -28.0710  -22.4040   19.3690 C   0  0  0  0  0  3  0  0  0  0  0  0
  -28.7650  -23.5570   19.8250 C   0  0  0  0  0  0  0  0  0  0  0  0
  -30.5770  -22.0050   20.4660 C   0  0  0  0  0  0  0  0  0  0  0  0
  -28.6040  -21.0840   19.3950 C   0  0  0  0  0  0  0  0  0  0  0  0
  -29.8810  -20.8490   19.9840 C   0  0  0  0  0  0  0  0  0  0  0  0
  -31.9740  -21.8320   21.0290 C   0  0  0  0  0  1  0  0  0  0  0  0
  -26.6230  -19.4980   19.5380 C   0  0  0  0  0  1  0  0  0  0  0  0
  -27.8120  -19.9730   18.6870 C   0  0  0  0  0  3  0  0  0  0  0  0
  -28.4830  -20.6620   16.2890 C   0  0  0  0  0  1  0  0  0  0  0  0
  -27.3380  -20.3420   17.2600 C   0  0  0  0  0  2  0  0  0  0  0  0
  -28.0640  -24.9180   19.5090 C   0  0  0  0  0  2  0  0  0  0  0  0
  -28.4250  -26.2950   19.9360 O   0  0  0  0  0  0  0  0  0  0  0  0
  -24.6070  -31.6330   23.0150 C   0  0  0  0  0  0  0  0  0  0  0  0
  -27.3340  -27.1970   19.8650 C   0  0  0  0  0  0  0  0  0  0  0  0
  -23.4460  -30.2390   21.3480 C   0  0  0  0  0  3  0  0  0  0  0  0
  -24.9380  -28.7790   19.8880 C   0  0  0  0  0  0  0  0  0  0  0  0
  -25.9840  -30.6160   21.1900 C   0  0  0  0  0  2  0  0  0  0  0  0
  -26.0970  -29.2580   20.5140 C   0  0  0  0  0  0  0  0  0  0  0  0
  -27.2950  -28.4780   20.5070 C   0  0  0  0  0  3  0  0  0  0  0  0
  -26.1520  -26.8210   19.1690 C   0  0  0  0  0  3  0  0  0  0  0  0
  -24.9700  -27.5650   19.2060 C   0  0  0  0  0  3  0  0  0  0  0  0
  -23.6800  -29.6140   19.9520 C   0  0  0  0  0  2  0  0  0  0  0  0
  -24.6970  -30.8460   21.9050 N   0  0  0  0  0  0  0  0  0  0  0  0
  -23.5140  -31.8700   23.5480 O   0  0  0  0  0  0  0  0  0  0  0  0
  -22.8110  -29.1780   22.2770 C   0  0  0  0  0  0  0  0  0  0  0  0
  -21.4830  -28.9890   22.1650 N   0  0  0  0  0  0  0  0  0  0  0  0
  -23.5070  -28.5320   23.0660 O   0  0  0  0  0  0  0  0  0  0  0  0
  -20.9790  -29.5670   21.5060 H   0  0  0  0  0  0  0  0  0  0  0  0
  -18.1200  -27.7680   22.7010 C   0  0  0  0  0  0  0  0  0  0  0  0
  -20.6850  -28.0210   22.9180 C   0  0  0  0  0  3  0  0  0  0  0  0
  -20.7720  -26.6110   22.2900 C   0  0  0  0  0  2  0  0  0  0  0  0
  -19.6450  -26.3230   21.2930 C   0  0  0  0  0  2  0  0  0  0  0  0
  -18.2800  -26.4440   21.9740 C   0  0  0  0  0  2  0  0  0  0  0  0
  -19.2490  -28.5160   23.1310 C   0  0  0  0  0  0  0  0  0  0  0  0
  -19.0440  -29.7570   23.7720 C   0  0  0  0  0  3  0  0  0  0  0  0
  -17.7440  -30.2490   23.9900 C   0  0  0  0  0  3  0  0  0  0  0  0
  -16.6300  -29.4970   23.5770 C   0  0  0  0  0  3  0  0  0  0  0  0
  -16.8190  -28.2600   22.9360 C   0  0  0  0  0  3  0  0  0  0  0  0
  -25.8690  -32.2860   23.6510 C   0  0  0  0  0  3  0  0  0  0  0  0
  -25.5100  -33.6600   24.0280 N   0  0  0  0  0  0  0  0  0  0  0  0
  -25.8200  -34.7520   23.3140 C   0  0  0  0  0  0  0  0  0  0  0  0
  -26.5050  -34.7090   22.2900 O   0  0  0  0  0  0  0  0  0  0  0  0
  -24.9050  -33.7660   24.8280 H   0  0  0  0  0  0  0  0  0  0  0  0
  -24.0400  -36.5030   23.0060 C   0  0  0  0  0  1  0  0  0  0  0  0
  -25.2820  -36.1050   23.8170 C   0  0  0  0  0  3  0  0  0  0  0  0
  -27.3760  -37.0240   24.7140 C   0  0  0  0  0  1  0  0  0  0  0  0
  -26.2830  -37.1930   23.7610 N   0  0  0  0  0  0  0  0  0  0  0  0
  -25.8440  -38.0940   23.9360 H   0  0  0  0  0  0  0  0  0  0  0  0
  -26.4150  -31.4910   24.9000 C   0  0  1  0  0  0  0  0  0  0  0  0
  -25.3350  -31.1800   25.9640 C   0  0  0  0  0  1  0  0  0  0  0  0
  -27.0450  -30.1480   24.4640 C   0  0  0  0  0  1  0  0  0  0  0  0
  -27.5400  -32.3060   25.5820 C   0  0  0  0  0  1  0  0  0  0  0  0
  -30.5590  -19.6130   19.9420 O   0  0  0  0  0  0  0  0  0  0  0  0
  -30.1110  -18.3910   20.6150 C   0  0  0  0  0  2  0  0  0  0  0  0
  -30.6450  -17.0890   19.8870 C   0  0  0  0  0  2  0  0  0  0  0  0
  -30.9110  -14.5690   20.0780 C   0  0  0  0  0  0  0  0  0  0  0  0
  -30.5100  -12.4000   18.9580 C   0  0  0  0  0  2  0  0  0  0  0  0
  -29.5430  -12.6350   17.7780 C   0  0  0  0  0  2  0  0  0  0  0  0
  -28.0840  -12.5090   18.2520 C   0  0  0  0  0  2  0  0  0  0  0  0
  -27.8000  -13.3370   19.5330 C   0  0  0  0  0  3  0  0  0  0  0  0
  -28.8910  -13.1260   20.6110 C   0  0  0  0  0  2  0  0  0  0  0  0
  -30.1940  -13.4060   19.9930 N   0  0  0  0  0  0  0  0  0  0  0  0
  -32.0690  -14.6350   19.6610 O   0  0  0  0  0  0  0  0  0  0  0  0
  -30.2410  -15.7210   20.3780 N   0  0  0  0  0  0  0  0  0  0  0  0
  -29.2990  -15.6190   20.7270 H   0  0  0  0  0  0  0  0  0  0  0  0
  -25.4290  -13.9730   20.2910 C   0  0  0  0  0  0  0  0  0  0  0  0
  -24.3600  -13.2170   20.6880 C   0  0  0  0  0  0  0  0  0  0  0  0
  -24.8050  -11.8590   20.6680 C   0  0  0  0  0  0  0  0  0  0  0  0
  -26.4600  -13.0780   20.0510 N   0  0  0  0  0  0  0  0  0  0  0  0
  -26.0890  -11.8010   20.3390 N   0  0  0  0  0  0  0  0  0  0  0  0
  -24.0660  -10.6100   20.8870 C   0  0  0  0  0  0  0  0  0  0  0  0
  -24.4760   -9.6670   21.8570 C   0  0  0  0  0  3  0  0  0  0  0  0
  -23.7380   -8.4830   22.0610 C   0  0  0  0  0  3  0  0  0  0  0  0
  -22.5740   -8.2320   21.2970 C   0  0  0  0  0  0  0  0  0  0  0  0
  -22.1820   -9.1600   20.3190 C   0  0  0  0  0  3  0  0  0  0  0  0
  -22.9210  -10.3380   20.1120 C   0  0  0  0  0  3  0  0  0  0  0  0
  -21.8050   -7.0980   21.4110 O   0  0  0  0  0  0  0  0  0  0  0  0
  -21.6980   -6.4190   22.5980 C   0  0  0  0  0  0  0  0  0  0  0  0
  -21.2130   -7.0380   23.7720 C   0  0  0  0  0  3  0  0  0  0  0  0
  -21.0530   -6.2840   24.9500 C   0  0  0  0  0  3  0  0  0  0  0  0
  -21.3640   -4.9110   24.9580 C   0  0  0  0  0  0  0  0  0  0  0  0
  -21.8410   -4.2930   23.7890 C   0  0  0  0  0  3  0  0  0  0  0  0
  -22.0040   -5.0430   22.6120 C   0  0  0  0  0  0  0  0  0  0  0  0
  -22.4430   -4.4360   21.4840 F   0  0  0  0  0  0  0  0  0  0  0  0
  -21.2040   -4.1860   26.0890 F   0  0  0  0  0  0  0  0  0  0  0  0
  -22.9750  -13.7160   20.9810 C   0  0  0  0  0  0  0  0  0  0  0  0
  -22.2600  -13.0440   21.8770 N   0  0  0  0  0  0  0  0  0  0  0  0
  -22.5370  -14.7360   20.4500 O   0  0  0  0  0  0  0  0  0  0  0  0
  -22.6300  -12.2180   22.3230 H   0  0  0  0  0  0  0  0  0  0  0  0
  -21.3330  -13.3600   22.1210 H   0  0  0  0  0  0  0  0  0  0  0  0
  -25.6030  -15.3400   20.0890 N   0  0  0  0  0  0  0  0  0  0  0  0
  -24.8330  -15.9920   20.1880 H   0  0  0  0  0  0  0  0  0  0  0  0
  -26.4400  -15.7680   19.7150 H   0  0  0  0  0  0  0  0  0  0  0  0
  1  4  1  0
  2  5  2  0
  2  3  1  0
  3  1  2  0
  4  7  1  0
  5  6  1  0
  6  4  2  0
  9  5  1  0
  9  8  1  0
 10 11  1  0
 11  9  1  0
 12  3  1  0
 12 13  1  0
 14 25  2  0
 15 13  1  0
 15 20  1  0
 16 24  1  0
 16 26  1  0
 17 23  1  0
 17 19  1  0
 18 24  1  0
 19 18  1  0
 20 19  2  0
 21 22  1  0
 21 15  2  0
 22 17  2  0
 23 16  1  0
 24 14  1  0
 26 28  2  0
 27 26  1  0
 29 27  1  0
 30 39  2  0
 30 35  1  0
 31 27  1  0
 31 35  1  0
 32 31  1  0
 33 34  1  0
 33 32  1  0
 34 30  1  0
 35 36  2  0
 36 37  1  0
 38 37  2  0
 39 38  1  0
 40 14  1  0
 40 41  1  0
 40 50  1  0
 41 44  1  0
 42 46  1  0
 42 41  1  0
 43 42  2  0
 46 45  1  0
 48 46  1  0
 48 49  1  0
 48 47  1  0
 50 53  1  1
 50 51  1  0
 52 50  1  0
 54  6  1  0
 54 55  1  0
 56 65  1  0
 56 55  1  0
 57 65  1  0
 58 63  1  0
 59 60  1  0
 59 58  1  0
 61 60  1  0
 61 70  1  0
 61 62  1  0
 63 57  1  0
 63 62  1  0
 64 57  2  0
 65 66  1  0
 67 68  2  0
 68 87  1  0
 69 68  1  0
 69 72  1  0
 70 67  1  0
 70 71  1  0
 71 69  2  0
 72 73  1  0
 73 74  2  0
 75 78  1  0
 75 74  1  0
 76 75  2  0
 77 76  1  0
 77 72  2  0
 78 79  1  0
 79 84  2  0
 79 80  1  0
 80 81  2  0
 81 82  1  0
 82 86  1  0
 83 82  2  0
 84 83  1  0
 85 84  1  0
 87 88  1  0
 88 91  1  0
 88 90  1  0
 89 87  2  0
 92 93  1  0
 92 67  1  0
 94 92  1  0
M  ISO  4  12 101  13 101  57 100  65 100
M  END
>  <TORSDO>  (10) 
F 22

>  <SCORE>  (10) 
-12.075

>  <name>  (10) 
9

>  <ligand_id>  (10) 
9

>  <original_smiles>  (10) 
[H]c1c([H])c([H])c2c(c1[H])C([H])([H])C([H])([H])C([H])([H])C2([H])N([H])C(=O)C1([H])N(C(=O)C([H])(N([H])C(=O)C([H])(N([H])C([H])([H])[H])C([H])([H])[H])C(C([H])([H])[H])(C([H])([H])[H])C([H])([H])[H])C([H])([H])c2c([H])c(OC([H])([H])c3c([H])c(C([H])([H])[H])c(OC([H])([H])C([H])([H])N([H])C(=O)N4C([H])([H])C([H])([H])C([H])([H])C([H])(n5nc(-c6c([H])c([H])c(Oc7c([H])c([H])c(F)c([H])c7F)c([H])c6[H])c(C(=O)N([H])[H])c5N([H])[H])C4([H])[H])c(C([H])(C([H])([H])[H])C([H])([H])C([H])([H])[H])c3[H])c([H])c([H])c2C1([H])[H]

>  <smiles>  (10) 
[H]c1c([H])c([H])c2c(c1[H])C([H])([H])C([H])([H])C([H])([H])C2([H])N([H])C(=O)C1([H])N(C(=O)C([H])(N([H])C(=O)C([H])(N([H])C([H])([H])[H])C([H])([H])[H])C(C([H])([H])[H])(C([H])([H])[H])C([H])([H])[H])C([H])([H])c2c([H])c(OC([H])([H])c3c([H])c(C([H])([H])[H])c(OC([H])([H])C([H])([H])N([H])C(=O)N4C([H])([H])C([H])([H])C([H])([H])C([H])(n5nc(-c6c([H])c([H])c(Oc7c([H])c([H])c(F)c([H])c7F)c([H])c6[H])c(C(=O)N([H])[H])c5N([H])[H])C4([H])[H])c(C([H])(C([H])([H])[H])C([H])([H])C([H])([H])[H])c3[H])c([H])c([H])c2C1([H])[H]

$$$$
10:0:0
     RDKit          3D

 99108  0  0  1  0  0  0  0  0999 V2000
  -31.1340  -20.6800   22.2150 C   0  0  0  0  0  2  0  0  0  0  0  0
  -29.6970  -18.9630   20.9040 C   0  0  0  0  0  3  0  0  0  0  0  0
  -31.4730  -18.1900   22.3830 C   0  0  0  0  0  3  0  0  0  0  0  0
  -29.3840  -17.6270   20.5670 C   0  0  0  0  0  0  0  0  0  0  0  0
  -30.7410  -19.2560   21.8130 C   0  0  0  0  0  0  0  0  0  0  0  0
  -30.1420  -16.5780   21.1440 C   0  0  0  0  0  0  0  0  0  0  0  0
  -31.1740  -16.8490   22.0640 C   0  0  0  0  0  0  0  0  0  0  0  0
  -30.3090  -14.4970   19.8760 C   0  0  0  0  0  0  0  0  0  0  0  0
  -29.8490  -12.5480   18.4380 C   0  0  0  0  0  2  0  0  0  0  0  0
  -28.7560  -12.9120   17.4150 C   0  0  0  0  0  2  0  0  0  0  0  0
  -27.3490  -12.7030   18.0120 C   0  0  0  0  0  2  0  0  0  0  0  0
  -27.1880  -13.3430   19.4170 C   0  0  0  0  0  3  0  0  0  0  0  0
  -28.3720  -12.9460   20.3250 C   0  0  0  0  0  2  0  0  0  0  0  0
  -29.6200  -13.3490   19.6470 N   0  0  0  0  0  0  0  0  0  0  0  0
  -31.2820  -14.8570   19.2010 O   0  0  0  0  0  0  0  0  0  0  0  0
  -29.8030  -15.2370   20.8650 N   0  0  0  0  0  0  0  0  0  0  0  0
  -28.9650  -14.8760   21.2910 H   0  0  0  0  0  0  0  0  0  0  0  0
  -24.8330  -13.8290   20.3490 C   0  0  0  0  0  0  0  0  0  0  0  0
  -23.8510  -13.0020   20.8220 C   0  0  0  0  0  0  0  0  0  0  0  0
  -24.3780  -11.6780   20.7330 C   0  0  0  0  0  0  0  0  0  0  0  0
  -25.8990  -13.0070   20.0160 N   0  0  0  0  0  0  0  0  0  0  0  0
  -25.6300  -11.7060   20.2970 N   0  0  0  0  0  0  0  0  0  0  0  0
  -23.7440  -10.3780   20.9830 C   0  0  0  0  0  0  0  0  0  0  0  0
  -24.2570   -9.4830   21.9470 C   0  0  0  0  0  3  0  0  0  0  0  0
  -23.6210   -8.2450   22.1820 C   0  0  0  0  0  3  0  0  0  0  0  0
  -22.4590   -7.8940   21.4540 C   0  0  0  0  0  0  0  0  0  0  0  0
  -21.9670   -8.7800   20.4790 C   0  0  0  0  0  3  0  0  0  0  0  0
  -22.6050  -10.0090   20.2420 C   0  0  0  0  0  3  0  0  0  0  0  0
  -21.7920   -6.7040   21.5970 O   0  0  0  0  0  0  0  0  0  0  0  0
  -21.7450   -6.0450   22.8000 C   0  0  0  0  0  0  0  0  0  0  0  0
  -21.2220   -6.6520   23.9630 C   0  0  0  0  0  3  0  0  0  0  0  0
  -21.1310   -5.9160   25.1610 C   0  0  0  0  0  3  0  0  0  0  0  0
  -21.5490   -4.5710   25.1960 C   0  0  0  0  0  0  0  0  0  0  0  0
  -22.0630   -3.9630   24.0370 C   0  0  0  0  0  3  0  0  0  0  0  0
  -22.1570   -4.6970   22.8420 C   0  0  0  0  0  0  0  0  0  0  0  0
  -22.6340   -4.1000   21.7230 F   0  0  0  0  0  0  0  0  0  0  0  0
  -21.4530   -3.8610   26.3430 F   0  0  0  0  0  0  0  0  0  0  0  0
  -22.4650  -13.4020   21.2390 C   0  0  0  0  0  0  0  0  0  0  0  0
  -21.8830  -12.6890   22.1960 N   0  0  0  0  0  0  0  0  0  0  0  0
  -21.9070  -14.3840   20.7480 O   0  0  0  0  0  0  0  0  0  0  0  0
  -22.3480  -11.8970   22.6130 H   0  0  0  0  0  0  0  0  0  0  0  0
  -20.9560  -12.9380   22.5140 H   0  0  0  0  0  0  0  0  0  0  0  0
  -24.8980  -15.2040   20.1580 N   0  0  0  0  0  0  0  0  0  0  0  0
  -24.1010  -15.8050   20.3410 H   0  0  0  0  0  0  0  0  0  0  0  0
  -25.6550  -15.6780   19.6880 H   0  0  0  0  0  0  0  0  0  0  0  0
  -28.5230  -17.0950   18.1450 C   0  0  0  0  0  2  0  0  0  0  0  0
  -27.7290  -18.2960   18.5910 C   0  0  0  0  0  2  0  0  0  0  0  0
  -28.2540  -17.3170   19.6180 C   0  0  0  0  0  3  0  0  0  0  0  0
  -31.6420  -15.5760   23.9980 C   0  0  0  0  0  1  0  0  0  0  0  0
  -31.8690  -15.7980   22.6140 O   0  0  0  0  0  0  0  0  0  0  0  0
  -30.4490  -21.8830   21.5150 C   0  0  0  0  0  2  0  0  0  0  0  0
  -29.0870  -22.1810   22.0270 N   0  0  0  0  0  4  0  0  0  0  0  0
  -29.0150  -21.7750   22.9470 H   0  0  0  0  0  0  0  0  0  0  0  0
  -28.3860  -21.7310   21.4600 H   0  0  0  0  0  0  0  0  0  0  0  0
  -28.7530  -23.6230   22.1710 C   0  0  0  0  0  2  0  0  0  0  0  0
  -27.5950  -23.8130   19.8960 C   0  0  0  0  0  1  0  0  0  0  0  0
  -28.6430  -24.4280   20.8440 C   0  0  0  0  0  3  0  0  0  0  0  0
  -28.3270  -25.9140   21.1630 C   0  0  0  0  0  2  0  0  0  0  0  0
  -28.2050  -26.7400   19.9980 O   0  0  0  0  0  0  0  0  0  0  0  0
  -24.5490  -31.9140   23.2340 C   0  0  0  0  0  0  0  0  0  0  0  0
  -27.0790  -27.5240   20.0140 C   0  0  0  0  0  0  0  0  0  0  0  0
  -23.2960  -30.5710   21.5770 C   0  0  0  0  0  3  0  0  0  0  0  0
  -24.7040  -29.0460   20.0940 C   0  0  0  0  0  0  0  0  0  0  0  0
  -25.8210  -30.9060   21.3440 C   0  0  0  0  0  2  0  0  0  0  0  0
  -25.8790  -29.5490   20.6730 C   0  0  0  0  0  0  0  0  0  0  0  0
  -27.0720  -28.7970   20.6280 C   0  0  0  0  0  3  0  0  0  0  0  0
  -25.8940  -27.0330   19.4310 C   0  0  0  0  0  3  0  0  0  0  0  0
  -24.7060  -27.7880   19.4690 C   0  0  0  0  0  3  0  0  0  0  0  0
  -23.4740  -29.9200   20.1780 C   0  0  0  0  0  2  0  0  0  0  0  0
  -24.5740  -31.1420   22.1110 N   0  0  0  0  0  0  0  0  0  0  0  0
  -23.4820  -32.1870   23.8010 O   0  0  0  0  0  0  0  0  0  0  0  0
  -22.6450  -29.5380   22.5240 C   0  0  0  0  0  0  0  0  0  0  0  0
  -21.3180  -29.3690   22.4060 N   0  0  0  0  0  0  0  0  0  0  0  0
  -23.3300  -28.8900   23.3180 O   0  0  0  0  0  0  0  0  0  0  0  0
  -20.8240  -29.9480   21.7410 H   0  0  0  0  0  0  0  0  0  0  0  0
  -17.9390  -28.1930   22.9180 C   0  0  0  0  0  0  0  0  0  0  0  0
  -20.5010  -28.4240   23.1690 C   0  0  0  0  0  3  0  0  0  0  0  0
  -20.5850  -27.0010   22.5710 C   0  0  0  0  0  2  0  0  0  0  0  0
  -19.4720  -26.7060   21.5600 C   0  0  0  0  0  2  0  0  0  0  0  0
  -18.0960  -26.8540   22.2160 C   0  0  0  0  0  2  0  0  0  0  0  0
  -19.0690  -28.9370   23.3480 C   0  0  0  0  0  0  0  0  0  0  0  0
  -18.8700  -30.1930   23.9610 C   0  0  0  0  0  3  0  0  0  0  0  0
  -17.5720  -30.7080   24.1440 C   0  0  0  0  0  3  0  0  0  0  0  0
  -16.4550  -29.9640   23.7270 C   0  0  0  0  0  3  0  0  0  0  0  0
  -16.6400  -28.7070   23.1210 C   0  0  0  0  0  3  0  0  0  0  0  0
  -25.8540  -32.5140   23.8440 C   0  0  0  0  0  3  0  0  0  0  0  0
  -25.5820  -33.9210   24.1670 N   0  0  0  0  0  0  0  0  0  0  0  0
  -25.9640  -34.9620   23.4160 C   0  0  0  0  0  0  0  0  0  0  0  0
  -26.6540  -34.8390   22.3990 O   0  0  0  0  0  0  0  0  0  0  0  0
  -24.9710  -34.0920   24.9530 H   0  0  0  0  0  0  0  0  0  0  0  0
  -24.3100  -36.8090   23.0100 C   0  0  0  0  0  1  0  0  0  0  0  0
  -25.5100  -36.3630   23.8640 C   0  0  0  0  0  3  0  0  0  0  0  0
  -27.6470  -37.1590   24.7730 C   0  0  0  0  0  1  0  0  0  0  0  0
  -26.5790  -37.3820   23.7980 N   0  0  0  0  0  0  0  0  0  0  0  0
  -26.1980  -38.3110   23.9560 H   0  0  0  0  0  0  0  0  0  0  0  0
  -26.3590  -31.7350   25.1200 C   0  0  1  0  0  0  0  0  0  0  0  0
  -25.2650  -31.5300   26.1940 C   0  0  0  0  0  1  0  0  0  0  0  0
  -26.9080  -30.3460   24.7290 C   0  0  0  0  0  1  0  0  0  0  0  0
  -27.5270  -32.5060   25.7760 C   0  0  0  0  0  1  0  0  0  0  0  0
  2  5  1  0
  4  2  2  0
  4  6  1  0
  5  1  1  0
  5  3  2  0
  6  7  2  0
  7  3  1  0
  7 50  1  0
  8 16  1  0
  9 14  1  0
 10 11  1  0
 10  9  1  0
 12 11  1  0
 12 21  1  0
 12 13  1  0
 14  8  1  0
 14 13  1  0
 15  8  2  0
 16  6  1  0
 16 17  1  0
 18 19  2  0
 19 38  1  0
 20 19  1  0
 20 23  1  0
 21 22  1  0
 21 18  1  0
 22 20  2  0
 23 24  1  0
 24 25  2  0
 26 29  1  0
 26 25  1  0
 27 26  2  0
 28 27  1  0
 28 23  2  0
 29 30  1  0
 30 35  2  0
 30 31  1  0
 31 32  2  0
 32 33  1  0
 33 37  1  0
 34 33  2  0
 35 34  1  0
 36 35  1  0
 38 39  1  0
 39 42  1  0
 39 41  1  0
 40 38  2  0
 43 44  1  0
 43 18  1  0
 45 43  1  0
 46 47  1  0
 46 48  1  0
 47 48  1  0
 48  4  1  0
 50 49  1  0
 51 52  1  0
 51  1  1  0
 52 55  1  0
 52 53  1  0
 54 52  1  0
 57 56  1  0
 57 58  1  0
 57 55  1  0
 59 61  1  0
 59 58  1  0
 60 71  2  0
 61 66  1  0
 62 70  1  0
 62 72  1  0
 63 69  1  0
 63 65  1  0
 64 70  1  0
 65 64  1  0
 66 65  2  0
 67 68  1  0
 67 61  2  0
 68 63  2  0
 69 62  1  0
 70 60  1  0
 72 74  2  0
 73 72  1  0
 75 73  1  0
 76 85  2  0
 76 81  1  0
 77 73  1  0
 77 81  1  0
 78 77  1  0
 79 80  1  0
 79 78  1  0
 80 76  1  0
 81 82  2  0
 82 83  1  0
 84 83  2  0
 85 84  1  0
 86 60  1  0
 86 87  1  0
 86 96  1  0
 87 90  1  0
 88 92  1  0
 88 87  1  0
 89 88  2  0
 92 91  1  0
 94 92  1  0
 94 95  1  0
 94 93  1  0
 96 99  1  1
 96 97  1  0
 98 96  1  0
M  ISO  4   8 100  16 100  58 101  59 101
M  END
>  <TORSDO>  (11) 
F 24

>  <SCORE>  (11) 
-6.941

>  <name>  (11) 
10

>  <ligand_id>  (11) 
10

>  <original_smiles>  (11) 
[H]c1c([H])c([H])c2c(c1[H])C([H])([H])C([H])([H])C([H])([H])C2([H])N([H])C(=O)C1([H])N(C(=O)C([H])(N([H])C(=O)C([H])(N([H])C([H])([H])[H])C([H])([H])[H])C(C([H])([H])[H])(C([H])([H])[H])C([H])([H])[H])C([H])([H])c2c([H])c(OC([H])([H])C([H])(C([H])([H])[H])C([H])([H])[N+]([H])([H])C([H])([H])C([H])([H])c3c([H])c(OC([H])([H])[H])c(N([H])C(=O)N4C([H])([H])C([H])([H])C([H])([H])C([H])(n5nc(-c6c([H])c([H])c(Oc7c([H])c([H])c(F)c([H])c7F)c([H])c6[H])c(C(=O)N([H])[H])c5N([H])[H])C4([H])[H])c(C4([H])C([H])([H])C4([H])[H])c3[H])c([H])c([H])c2C1([H])[H]

>  <smiles>  (11) 
[H]c1c([H])c([H])c2c(c1[H])C([H])([H])C([H])([H])C([H])([H])C2([H])N([H])C(=O)C1([H])N(C(=O)C([H])(N([H])C(=O)C([H])(N([H])C([H])([H])[H])C([H])([H])[H])C(C([H])([H])[H])(C([H])([H])[H])C([H])([H])[H])C([H])([H])c2c([H])c(OC([H])([H])C([H])(C([H])([H])[H])C([H])([H])[N+]([H])([H])C([H])([H])C([H])([H])c3c([H])c(OC([H])([H])[H])c(N([H])C(=O)N4C([H])([H])C([H])([H])C([H])([H])C([H])(n5nc(-c6c([H])c([H])c(Oc7c([H])c([H])c(F)c([H])c7F)c([H])c6[H])c(C(=O)N([H])[H])c5N([H])[H])C4([H])[H])c(C4([H])C([H])([H])C4([H])[H])c3[H])c([H])c([H])c2C1([H])[H]

$$$$
11:0:0
     RDKit          3D

100109  0  0  1  0  0  0  0  0999 V2000
  -27.5830  -21.3400   19.8540 C   0  0  0  0  0  3  0  0  0  0  0  0
  -30.1870  -20.5200   19.2100 C   0  0  0  0  0  3  0  0  0  0  0  0
  -28.6160  -22.3000   19.7950 C   0  0  0  0  0  0  0  0  0  0  0  0
  -29.9120  -21.8950   19.3830 C   0  0  0  0  0  0  0  0  0  0  0  0
  -27.8470  -19.9720   19.6200 C   0  0  0  0  0  0  0  0  0  0  0  0
  -29.1850  -19.5520   19.4080 C   0  0  0  0  0  0  0  0  0  0  0  0
  -31.0120  -22.9130   19.1200 C   0  0  0  0  0  1  0  0  0  0  0  0
  -26.8180  -19.0220   19.5870 N   0  0  0  0  0  0  0  0  0  0  0  0
  -27.1080  -18.0930   19.3030 H   0  0  0  0  0  0  0  0  0  0  0  0
  -25.1080  -19.8410   17.8320 C   0  0  0  0  0  2  0  0  0  0  0  0
  -24.6620  -18.4940   18.3550 C   0  0  0  0  0  2  0  0  0  0  0  0
  -25.4600  -19.4170   19.2410 C   0  0  0  0  0  3  0  0  0  0  0  0
  -28.3170  -23.7380   20.2130 C   0  0  0  0  0  2  0  0  0  0  0  0
  -28.7890  -23.9550   21.6020 N   0  0  0  0  0  4  0  0  0  0  0  0
  -29.7610  -23.6930   21.6540 H   0  0  0  0  0  0  0  0  0  0  0  0
  -28.2870  -23.3040   22.1820 H   0  0  0  0  0  0  0  0  0  0  0  0
  -28.6040  -25.3140   22.1810 C   0  0  0  0  0  2  0  0  0  0  0  0
  -29.3120  -26.4340   21.3940 C   0  0  0  0  0  2  0  0  0  0  0  0
  -28.6020  -26.6910   20.1830 O   0  0  0  0  0  0  0  0  0  0  0  0
  -24.6500  -31.8390   23.2180 C   0  0  0  0  0  0  0  0  0  0  0  0
  -27.4340  -27.4210   20.2490 C   0  0  0  0  0  0  0  0  0  0  0  0
  -23.4970  -30.4150   21.5550 C   0  0  0  0  0  3  0  0  0  0  0  0
  -25.0040  -28.8680   20.1970 C   0  0  0  0  0  0  0  0  0  0  0  0
  -26.0200  -30.7920   21.4190 C   0  0  0  0  0  2  0  0  0  0  0  0
  -26.1380  -29.4160   20.8130 C   0  0  0  0  0  0  0  0  0  0  0  0
  -27.3530  -28.7000   20.8450 C   0  0  0  0  0  3  0  0  0  0  0  0
  -26.2920  -26.8820   19.6240 C   0  0  0  0  0  3  0  0  0  0  0  0
  -25.0750  -27.5930   19.6060 C   0  0  0  0  0  3  0  0  0  0  0  0
  -23.7470  -29.7120   20.1950 C   0  0  0  0  0  2  0  0  0  0  0  0
  -24.7400  -31.0340   22.1210 N   0  0  0  0  0  0  0  0  0  0  0  0
  -23.5560  -32.1080   23.7300 O   0  0  0  0  0  0  0  0  0  0  0  0
  -22.8300  -29.4030   22.5120 C   0  0  0  0  0  0  0  0  0  0  0  0
  -21.5140  -29.1940   22.3440 N   0  0  0  0  0  0  0  0  0  0  0  0
  -23.4930  -28.7950   23.3560 O   0  0  0  0  0  0  0  0  0  0  0  0
  -21.0380  -29.7330   21.6340 H   0  0  0  0  0  0  0  0  0  0  0  0
  -18.1440  -27.9620   22.7540 C   0  0  0  0  0  0  0  0  0  0  0  0
  -20.6880  -28.2590   23.1040 C   0  0  0  0  0  3  0  0  0  0  0  0
  -20.8260  -26.8190   22.5570 C   0  0  0  0  0  2  0  0  0  0  0  0
  -19.7630  -26.4650   21.5120 C   0  0  0  0  0  2  0  0  0  0  0  0
  -18.3580  -26.6030   22.1070 C   0  0  0  0  0  2  0  0  0  0  0  0
  -19.2370  -28.7450   23.2090 C   0  0  0  0  0  0  0  0  0  0  0  0
  -18.9850  -30.0140   23.7730 C   0  0  0  0  0  3  0  0  0  0  0  0
  -17.6700  -30.5030   23.8870 C   0  0  0  0  0  3  0  0  0  0  0  0
  -16.5890  -29.7180   23.4500 C   0  0  0  0  0  3  0  0  0  0  0  0
  -16.8270  -28.4500   22.8900 C   0  0  0  0  0  3  0  0  0  0  0  0
  -25.9190  -32.4850   23.8610 C   0  0  0  0  0  3  0  0  0  0  0  0
  -26.4270  -31.7140   25.1400 C   0  0  1  0  0  0  0  0  0  0  0  0
  -25.3200  -31.4430   26.1860 C   0  0  0  0  0  1  0  0  0  0  0  0
  -27.0550  -30.3520   24.7490 C   0  0  0  0  0  1  0  0  0  0  0  0
  -27.5440  -32.5310   25.8330 C   0  0  0  0  0  1  0  0  0  0  0  0
  -25.5890  -33.8770   24.1860 N   0  0  0  0  0  0  0  0  0  0  0  0
  -25.9200  -34.9320   23.4290 C   0  0  0  0  0  0  0  0  0  0  0  0
  -26.6070  -34.8350   22.4070 O   0  0  0  0  0  0  0  0  0  0  0  0
  -24.9730  -34.0250   24.9720 H   0  0  0  0  0  0  0  0  0  0  0  0
  -24.1690  -36.7000   23.0480 C   0  0  0  0  0  1  0  0  0  0  0  0
  -25.4050  -36.3140   23.8770 C   0  0  0  0  0  3  0  0  0  0  0  0
  -27.5190  -37.2320   24.7230 C   0  0  0  0  0  1  0  0  0  0  0  0
  -26.4220  -37.3820   23.7730 N   0  0  0  0  0  0  0  0  0  0  0  0
  -26.0000  -38.2950   23.9090 H   0  0  0  0  0  0  0  0  0  0  0  0
  -29.5500  -18.2240   19.4150 O   0  0  0  0  0  0  0  0  0  0  0  0
  -29.3320  -17.5670   20.6720 C   0  0  0  0  0  2  0  0  0  0  0  0
  -30.5650  -16.7590   21.1410 C   0  0  0  0  0  2  0  0  0  0  0  0
  -30.9770  -14.3700   20.4920 C   0  0  0  0  0  0  0  0  0  0  0  0
  -30.6490  -12.2440   19.2960 C   0  0  0  0  0  2  0  0  0  0  0  0
  -29.7100  -12.4940   18.0970 C   0  0  0  0  0  2  0  0  0  0  0  0
  -28.2310  -12.3930   18.5230 C   0  0  0  0  0  2  0  0  0  0  0  0
  -27.9140  -13.2180   19.8010 C   0  0  0  0  0  3  0  0  0  0  0  0
  -28.9570  -12.9260   20.9050 C   0  0  0  0  0  2  0  0  0  0  0  0
  -30.2950  -13.2050   20.3490 N   0  0  0  0  0  0  0  0  0  0  0  0
  -32.0850  -14.5890   19.9920 O   0  0  0  0  0  0  0  0  0  0  0  0
  -30.2810  -15.3270   21.1120 N   0  0  0  0  0  0  0  0  0  0  0  0
  -29.3900  -15.0430   21.4890 H   0  0  0  0  0  0  0  0  0  0  0  0
  -25.5240  -13.8880   20.4740 C   0  0  0  0  0  0  0  0  0  0  0  0
  -24.4320  -13.1430   20.8390 C   0  0  0  0  0  0  0  0  0  0  0  0
  -24.8620  -11.7820   20.8260 C   0  0  0  0  0  0  0  0  0  0  0  0
  -26.5500  -12.9790   20.2700 N   0  0  0  0  0  0  0  0  0  0  0  0
  -26.1540  -11.7070   20.5330 N   0  0  0  0  0  0  0  0  0  0  0  0
  -24.1060  -10.5360   21.0180 C   0  0  0  0  0  0  0  0  0  0  0  0
  -24.5140   -9.5600   21.9550 C   0  0  0  0  0  3  0  0  0  0  0  0
  -23.7610   -8.3790   22.1300 C   0  0  0  0  0  3  0  0  0  0  0  0
  -22.5900   -8.1650   21.3660 C   0  0  0  0  0  0  0  0  0  0  0  0
  -22.2020   -9.1270   20.4190 C   0  0  0  0  0  3  0  0  0  0  0  0
  -22.9540  -10.3010   20.2430 C   0  0  0  0  0  3  0  0  0  0  0  0
  -21.8090   -7.0370   21.4560 O   0  0  0  0  0  0  0  0  0  0  0  0
  -21.7340   -6.3040   22.6120 C   0  0  0  0  0  0  0  0  0  0  0  0
  -21.3120   -6.8760   23.8310 C   0  0  0  0  0  3  0  0  0  0  0  0
  -21.1800   -6.0690   24.9780 C   0  0  0  0  0  3  0  0  0  0  0  0
  -21.4580   -4.6910   24.9050 C   0  0  0  0  0  0  0  0  0  0  0  0
  -21.8800   -4.1200   23.6930 C   0  0  0  0  0  3  0  0  0  0  0  0
  -22.0120   -4.9240   22.5480 C   0  0  0  0  0  0  0  0  0  0  0  0
  -22.3980   -4.3650   21.3750 F   0  0  0  0  0  0  0  0  0  0  0  0
  -21.3190   -3.9150   26.0040 F   0  0  0  0  0  0  0  0  0  0  0  0
  -23.0420  -13.6550   21.0940 C   0  0  0  0  0  0  0  0  0  0  0  0
  -22.3060  -12.9900   21.9770 N   0  0  0  0  0  0  0  0  0  0  0  0
  -22.6220  -14.6720   20.5460 O   0  0  0  0  0  0  0  0  0  0  0  0
  -22.6690  -12.1650   22.4300 H   0  0  0  0  0  0  0  0  0  0  0  0
  -21.3740  -13.3080   22.2050 H   0  0  0  0  0  0  0  0  0  0  0  0
  -25.7230  -15.2480   20.2750 N   0  0  0  0  0  0  0  0  0  0  0  0
  -24.9610  -15.9170   20.2830 H   0  0  0  0  0  0  0  0  0  0  0  0
  -26.5710  -15.6150   19.8660 H   0  0  0  0  0  0  0  0  0  0  0  0
  2  4  1  0
  2  6  2  0
  3  1  1  0
  3 13  1  0
  4  3  2  0
  5  1  2  0
  6 60  1  0
  6  5  1  0
  7  4  1  0
  8  5  1  0
  9  8  1  0
 10 11  1  0
 10 12  1  0
 11 12  1  0
 12  8  1  0
 13 14  1  0
 14 15  1  0
 14 17  1  0
 14 16  1  0
 18 17  1  0
 19 21  1  0
 19 18  1  0
 20 31  2  0
 21 26  1  0
 22 30  1  0
 22 32  1  0
 23 25  1  0
 24 30  1  0
 25 26  2  0
 25 24  1  0
 27 21  2  0
 28 27  1  0
 28 23  2  0
 29 23  1  0
 29 22  1  0
 30 20  1  0
 32 34  2  0
 33 32  1  0
 35 33  1  0
 36 45  2  0
 36 41  1  0
 37 33  1  0
 37 41  1  0
 38 37  1  0
 39 40  1  0
 39 38  1  0
 40 36  1  0
 41 42  2  0
 42 43  1  0
 44 43  2  0
 45 44  1  0
 46 20  1  0
 46 51  1  0
 46 47  1  0
 47 50  1  1
 47 48  1  0
 49 47  1  0
 51 54  1  0
 52 56  1  0
 52 51  1  0
 53 52  2  0
 56 55  1  0
 58 56  1  0
 58 59  1  0
 58 57  1  0
 60 61  1  0
 61 62  1  0
 63 71  1  0
 64 69  1  0
 65 66  1  0
 65 64  1  0
 67 66  1  0
 67 76  1  0
 67 68  1  0
 69 63  1  0
 69 68  1  0
 70 63  2  0
 71 62  1  0
 71 72  1  0
 73 74  2  0
 74 93  1  0
 75 74  1  0
 75 78  1  0
 76 73  1  0
 76 77  1  0
 77 75  2  0
 78 79  1  0
 79 80  2  0
 81 84  1  0
 81 80  1  0
 82 81  2  0
 83 82  1  0
 83 78  2  0
 84 85  1  0
 85 86  1  0
 86 87  2  0
 88 87  1  0
 88 92  1  0
 89 88  2  0
 90 85  2  0
 90 89  1  0
 91 90  1  0
 93 94  1  0
 94 97  1  0
 94 96  1  0
 95 93  2  0
 98 99  1  0
 98 73  1  0
100 98  1  0
M  ISO  4  18 101  19 101  63 100  71 100
M  END
>  <TORSDO>  (12) 
F 25

>  <SCORE>  (12) 
-10.029

>  <name>  (12) 
11

>  <ligand_id>  (12) 
11

>  <original_smiles>  (12) 
[H]c1c([H])c([H])c2c(c1[H])C([H])([H])C([H])([H])C([H])([H])C2([H])N([H])C(=O)C1([H])N(C(=O)C([H])(N([H])C(=O)C([H])(N([H])C([H])([H])[H])C([H])([H])[H])C(C([H])([H])[H])(C([H])([H])[H])C([H])([H])[H])C([H])([H])c2c([H])c(OC([H])([H])C([H])([H])[N+]([H])([H])C([H])([H])c3c([H])c(N([H])C4([H])C([H])([H])C4([H])[H])c(OC([H])([H])C([H])([H])N([H])C(=O)N4C([H])([H])C([H])([H])C([H])([H])C([H])(n5nc(-c6c([H])c([H])c(Oc7c([H])c([H])c(F)c([H])c7F)c([H])c6[H])c(C(=O)N([H])[H])c5N([H])[H])C4([H])[H])c([H])c3C([H])([H])[H])c([H])c([H])c2C1([H])[H]

>  <smiles>  (12) 
[H]c1c([H])c([H])c2c(c1[H])C([H])([H])C([H])([H])C([H])([H])C2([H])N([H])C(=O)C1([H])N(C(=O)C([H])(N([H])C(=O)C([H])(N([H])C([H])([H])[H])C([H])([H])[H])C(C([H])([H])[H])(C([H])([H])[H])C([H])([H])[H])C([H])([H])c2c([H])c(OC([H])([H])C([H])([H])[N+]([H])([H])C([H])([H])c3c([H])c(N([H])C4([H])C([H])([H])C4([H])[H])c(OC([H])([H])C([H])([H])N([H])C(=O)N4C([H])([H])C([H])([H])C([H])([H])C([H])(n5nc(-c6c([H])c([H])c(Oc7c([H])c([H])c(F)c([H])c7F)c([H])c6[H])c(C(=O)N([H])[H])c5N([H])[H])C4([H])[H])c([H])c3C([H])([H])[H])c([H])c([H])c2C1([H])[H]

$$$$
12:0:0
     RDKit          3D

 94104  0  0  1  0  0  0  0  0999 V2000
  -28.7370  -23.4200   19.7890 C   0  0  0  0  0  3  0  0  0  0  0  0
  -29.6250  -23.2230   17.6130 C   0  0  0  0  0  3  0  0  0  0  0  0
  -29.0440  -22.0350   20.0650 C   0  0  0  0  0  0  0  0  0  0  0  0
  -29.6700  -21.1550   19.1070 C   0  0  0  0  0  0  0  0  0  0  0  0
  -28.9860  -24.0920   18.5580 C   0  0  0  0  0  0  0  0  0  0  0  0
  -29.9610  -21.8320   17.8710 C   0  0  0  0  0  0  0  0  0  0  0  0
  -30.7130  -20.9500   16.5920 Cl  0  0  0  0  0  0  0  0  0  0  0  0
  -31.8810  -18.7850   19.2710 C   0  0  0  0  0  2  0  0  0  0  0  0
  -29.9820  -19.5850   19.4740 C   0  0  0  0  0  3  0  0  0  0  0  0
  -30.5660  -18.2550   18.7030 C   0  0  0  0  0  3  0  0  0  0  0  0
  -31.1890  -19.5690   20.2830 O   0  0  0  0  0  0  0  0  0  0  0  0
  -31.2480  -15.7310   19.3430 C   0  0  0  0  0  0  0  0  0  0  0  0
  -31.3680  -13.2320   19.0630 C   0  0  0  0  0  2  0  0  0  0  0  0
  -30.4710  -12.7800   17.8870 C   0  0  0  0  0  2  0  0  0  0  0  0
  -29.0180  -12.5720   18.3520 C   0  0  0  0  0  2  0  0  0  0  0  0
  -28.5040  -13.7400   19.2340 C   0  0  0  0  0  3  0  0  0  0  0  0
  -29.5210  -14.1370   20.3250 C   0  0  0  0  0  2  0  0  0  0  0  0
  -30.7760  -14.4660   19.6400 N   0  0  0  0  0  0  0  0  0  0  0  0
  -32.4290  -15.8590   19.0080 O   0  0  0  0  0  0  0  0  0  0  0  0
  -30.3480  -16.8020   19.2240 N   0  0  0  0  0  0  0  0  0  0  0  0
  -29.3980  -16.5830   19.4800 H   0  0  0  0  0  0  0  0  0  0  0  0
  -26.1660  -14.3570   20.0680 C   0  0  0  0  0  0  0  0  0  0  0  0
  -25.1120  -13.5950   20.4950 C   0  0  0  0  0  0  0  0  0  0  0  0
  -25.5630  -12.2400   20.4560 C   0  0  0  0  0  0  0  0  0  0  0  0
  -27.1870  -13.4650   19.7910 N   0  0  0  0  0  0  0  0  0  0  0  0
  -26.8360  -12.1880   20.0880 N   0  0  0  0  0  0  0  0  0  0  0  0
  -24.8350  -10.9860   20.6890 C   0  0  0  0  0  0  0  0  0  0  0  0
  -25.2000  -10.1020   21.7280 C   0  0  0  0  0  3  0  0  0  0  0  0
  -24.4730   -8.9110   21.9440 C   0  0  0  0  0  3  0  0  0  0  0  0
  -23.3660   -8.5950   21.1200 C   0  0  0  0  0  0  0  0  0  0  0  0
  -23.0220   -9.4680   20.0720 C   0  0  0  0  0  3  0  0  0  0  0  0
  -23.7500  -10.6500   19.8550 C   0  0  0  0  0  3  0  0  0  0  0  0
  -22.6160   -7.4510   21.2390 O   0  0  0  0  0  0  0  0  0  0  0  0
  -22.2280   -6.9710   22.4640 C   0  0  0  0  0  0  0  0  0  0  0  0
  -21.4480   -7.7430   23.3530 C   0  0  0  0  0  3  0  0  0  0  0  0
  -21.0130   -7.1850   24.5720 C   0  0  0  0  0  3  0  0  0  0  0  0
  -21.3430   -5.8570   24.8980 C   0  0  0  0  0  0  0  0  0  0  0  0
  -22.1140   -5.0860   24.0110 C   0  0  0  0  0  3  0  0  0  0  0  0
  -22.5520   -5.6400   22.7950 C   0  0  0  0  0  0  0  0  0  0  0  0
  -23.2760   -4.8850   21.9340 F   0  0  0  0  0  0  0  0  0  0  0  0
  -20.9180   -5.3190   26.0650 F   0  0  0  0  0  0  0  0  0  0  0  0
  -23.7340  -14.0890   20.8250 C   0  0  0  0  0  0  0  0  0  0  0  0
  -23.0720  -13.4510   21.7850 N   0  0  0  0  0  0  0  0  0  0  0  0
  -23.2560  -15.0740   20.2650 O   0  0  0  0  0  0  0  0  0  0  0  0
  -23.4750  -12.6560   22.2560 H   0  0  0  0  0  0  0  0  0  0  0  0
  -22.1500  -13.7650   22.0540 H   0  0  0  0  0  0  0  0  0  0  0  0
  -26.3350  -15.7230   19.8680 N   0  0  0  0  0  0  0  0  0  0  0  0
  -25.5730  -16.3820   19.9840 H   0  0  0  0  0  0  0  0  0  0  0  0
  -27.1530  -16.1390   19.4440 H   0  0  0  0  0  0  0  0  0  0  0  0
  -28.1910  -22.4590   22.5220 C   0  0  0  0  0  2  0  0  0  0  0  0
  -29.4370  -21.6210   22.6510 C   0  0  0  0  0  2  0  0  0  0  0  0
  -28.5890  -21.5130   21.4050 C   0  0  0  0  0  3  0  0  0  0  0  0
  -28.2170  -25.4850   18.2100 C   0  0  0  0  0  2  0  0  0  0  0  0
  -28.4370  -26.9180   18.7210 O   0  0  0  0  0  0  0  0  0  0  0  0
  -24.6160  -31.4040   23.0860 C   0  0  0  0  0  0  0  0  0  0  0  0
  -27.3000  -27.7790   18.9080 C   0  0  0  0  0  0  0  0  0  0  0  0
  -23.3880  -30.2220   21.3070 C   0  0  0  0  0  3  0  0  0  0  0  0
  -24.8180  -29.1760   19.4560 C   0  0  0  0  0  0  0  0  0  0  0  0
  -25.8650  -30.8380   20.9770 C   0  0  0  0  0  2  0  0  0  0  0  0
  -26.0050  -29.6280   20.0440 C   0  0  0  0  0  0  0  0  0  0  0  0
  -27.2420  -28.9410   19.7720 C   0  0  0  0  0  3  0  0  0  0  0  0
  -26.0760  -27.4630   18.2670 C   0  0  0  0  0  3  0  0  0  0  0  0
  -24.8620  -28.1060   18.5580 C   0  0  0  0  0  3  0  0  0  0  0  0
  -23.5170  -29.8740   19.8030 C   0  0  0  0  0  2  0  0  0  0  0  0
  -24.6460  -30.8320   21.8450 N   0  0  0  0  0  0  0  0  0  0  0  0
  -23.5740  -31.4380   23.7580 O   0  0  0  0  0  0  0  0  0  0  0  0
  -22.9360  -28.9630   22.0880 C   0  0  0  0  0  0  0  0  0  0  0  0
  -21.6890  -28.5150   21.8610 N   0  0  0  0  0  0  0  0  0  0  0  0
  -23.7120  -28.3960   22.8630 O   0  0  0  0  0  0  0  0  0  0  0  0
  -21.1060  -29.0390   21.2230 H   0  0  0  0  0  0  0  0  0  0  0  0
  -18.7550  -26.3920   21.8230 C   0  0  0  0  0  0  0  0  0  0  0  0
  -21.0830  -27.3250   22.4610 C   0  0  0  0  0  3  0  0  0  0  0  0
  -21.6560  -26.0310   21.8340 C   0  0  0  0  0  2  0  0  0  0  0  0
  -20.8220  -25.5090   20.6600 C   0  0  0  0  0  2  0  0  0  0  0  0
  -19.3890  -25.2100   21.1080 C   0  0  0  0  0  2  0  0  0  0  0  0
  -19.5500  -27.3920   22.4440 C   0  0  0  0  0  0  0  0  0  0  0  0
  -18.9110  -28.4870   23.0660 C   0  0  0  0  0  3  0  0  0  0  0  0
  -17.5070  -28.5900   23.0760 C   0  0  0  0  0  3  0  0  0  0  0  0
  -16.7240  -27.5900   22.4740 C   0  0  0  0  0  3  0  0  0  0  0  0
  -17.3480  -26.4930   21.8530 C   0  0  0  0  0  3  0  0  0  0  0  0
  -25.8850  -32.0580   23.7120 C   0  0  0  0  0  3  0  0  0  0  0  0
  -26.4350  -31.2720   24.9660 C   0  0  1  0  0  0  0  0  0  0  0  0
  -25.3610  -30.9890   26.0420 C   0  0  0  0  0  1  0  0  0  0  0  0
  -27.0460  -29.9160   24.5420 C   0  0  0  0  0  1  0  0  0  0  0  0
  -27.5750  -32.0820   25.6290 C   0  0  0  0  0  1  0  0  0  0  0  0
  -25.5360  -33.4370   24.0850 N   0  0  0  0  0  0  0  0  0  0  0  0
  -25.8550  -34.5260   23.3720 C   0  0  0  0  0  0  0  0  0  0  0  0
  -26.5400  -34.4760   22.3480 O   0  0  0  0  0  0  0  0  0  0  0  0
  -24.9290  -33.5480   24.8840 H   0  0  0  0  0  0  0  0  0  0  0  0
  -24.0820  -36.2870   23.0750 C   0  0  0  0  0  1  0  0  0  0  0  0
  -25.3300  -35.8850   23.8770 C   0  0  0  0  0  3  0  0  0  0  0  0
  -27.4330  -36.7980   24.7560 C   0  0  0  0  0  1  0  0  0  0  0  0
  -26.3340  -36.9690   23.8120 N   0  0  0  0  0  0  0  0  0  0  0  0
  -25.8990  -37.8690   23.9950 H   0  0  0  0  0  0  0  0  0  0  0  0
  1  3  1  0
  2  6  2  0
  2  5  1  0
  3 52  1  0
  4  3  2  0
  5  1  2  0
  6  4  1  0
  7  6  1  0
  8 11  1  0
  9  4  1  0
  9 11  1  0
 10 20  1  0
 10  8  1  0
 10  9  1  0
 12 18  1  0
 13 18  1  0
 14 15  1  0
 14 13  1  0
 16 15  1  0
 16 25  1  0
 16 17  1  0
 18 17  1  0
 19 12  2  0
 20 12  1  0
 20 21  1  0
 22 23  2  0
 23 42  1  0
 24 23  1  0
 24 27  1  0
 25 22  1  0
 25 26  1  0
 26 24  2  0
 27 28  1  0
 28 29  2  0
 30 33  1  0
 30 29  1  0
 31 30  2  0
 32 31  1  0
 32 27  2  0
 33 34  1  0
 34 39  2  0
 34 35  1  0
 35 36  2  0
 36 37  1  0
 37 41  1  0
 38 37  2  0
 39 38  1  0
 40 39  1  0
 42 43  1  0
 43 46  1  0
 43 45  1  0
 44 42  2  0
 47 48  1  0
 47 22  1  0
 49 47  1  0
 50 51  1  0
 52 50  1  0
 52 51  1  0
 53  5  1  0
 53 54  1  0
 54 56  1  0
 55 66  2  0
 56 61  1  0
 57 65  1  0
 57 67  1  0
 58 64  1  0
 58 60  1  0
 59 65  1  0
 60 59  1  0
 61 60  2  0
 62 63  1  0
 62 56  2  0
 63 58  2  0
 64 57  1  0
 65 55  1  0
 67 69  2  0
 68 67  1  0
 70 68  1  0
 71 80  2  0
 71 76  1  0
 72 68  1  0
 73 72  1  0
 74 75  1  0
 74 73  1  0
 75 71  1  0
 76 72  1  0
 76 77  2  0
 77 78  1  0
 79 78  2  0
 80 79  1  0
 81 55  1  0
 81 86  1  0
 81 82  1  0
 82 85  1  1
 82 83  1  0
 84 82  1  0
 86 89  1  0
 87 91  1  0
 87 86  1  0
 88 87  2  0
 91 90  1  0
 93 91  1  0
 93 94  1  0
 93 92  1  0
M  ISO  4  12 100  20 100  53 101  54 101
M  END
>  <TORSDO>  (13) 
F 19

>  <SCORE>  (13) 
-10.375

>  <name>  (13) 
12

>  <ligand_id>  (13) 
12

>  <original_smiles>  (13) 
[H]c1c([H])c([H])c2c(c1[H])C([H])([H])C([H])([H])C([H])([H])C2([H])N([H])C(=O)C1([H])N(C(=O)C([H])(N([H])C(=O)C([H])(N([H])C([H])([H])[H])C([H])([H])[H])C(C([H])([H])[H])(C([H])([H])[H])C([H])([H])[H])C([H])([H])c2c([H])c(OC([H])([H])c3c([H])c(Cl)c(C4([H])OC([H])([H])C4([H])N([H])C(=O)N4C([H])([H])C([H])([H])C([H])([H])C([H])(n5nc(-c6c([H])c([H])c(Oc7c([H])c([H])c(F)c([H])c7F)c([H])c6[H])c(C(=O)N([H])[H])c5N([H])[H])C4([H])[H])c(C4([H])C([H])([H])C4([H])[H])c3[H])c([H])c([H])c2C1([H])[H]

>  <smiles>  (13) 
[H]c1c([H])c([H])c2c(c1[H])C([H])([H])C([H])([H])C([H])([H])C2([H])N([H])C(=O)C1([H])N(C(=O)C([H])(N([H])C(=O)C([H])(N([H])C([H])([H])[H])C([H])([H])[H])C(C([H])([H])[H])(C([H])([H])[H])C([H])([H])[H])C([H])([H])c2c([H])c(OC([H])([H])c3c([H])c(Cl)c(C4([H])OC([H])([H])C4([H])N([H])C(=O)N4C([H])([H])C([H])([H])C([H])([H])C([H])(n5nc(-c6c([H])c([H])c(Oc7c([H])c([H])c(F)c([H])c7F)c([H])c6[H])c(C(=O)N([H])[H])c5N([H])[H])C4([H])[H])c(C4([H])C([H])([H])C4([H])[H])c3[H])c([H])c([H])c2C1([H])[H]

$$$$
13:0:0
     RDKit          3D

 99108  0  0  1  0  0  0  0  0999 V2000
  -27.2930  -23.2410   21.8900 C   0  0  0  0  0  3  0  0  0  0  0  0
  -26.6620  -24.8410   20.1770 C   0  0  0  0  0  3  0  0  0  0  0  0
  -27.0020  -22.1740   21.0210 C   0  0  0  0  0  0  0  0  0  0  0  0
  -26.4030  -23.7900   19.2730 C   0  0  0  0  0  0  0  0  0  0  0  0
  -26.6370  -22.4480   19.6730 C   0  0  0  0  0  0  0  0  0  0  0  0
  -27.1840  -24.5750   21.4550 C   0  0  0  0  0  0  0  0  0  0  0  0
  -27.1220  -20.7630   21.5860 C   0  0  0  0  0  1  0  0  0  0  0  0
  -25.9330  -24.1410   17.8690 C   0  0  0  0  0  1  0  0  0  0  0  0
  -26.7210  -21.3490   18.6220 C   0  0  0  0  0  2  0  0  0  0  0  0
  -28.1630  -21.2200   18.3510 N   0  0  0  0  0  4  0  0  0  0  0  0
  -28.6370  -21.2500   19.2370 H   0  0  0  0  0  0  0  0  0  0  0  0
  -28.4560  -22.0360   17.8380 H   0  0  0  0  0  0  0  0  0  0  0  0
  -28.6170  -20.0330   17.6180 C   0  0  0  0  0  2  0  0  0  0  0  0
  -32.4090  -16.4800   19.8500 C   0  0  0  0  0  0  0  0  0  0  0  0
  -32.1500  -14.1130   19.3060 C   0  0  0  0  0  2  0  0  0  0  0  0
  -31.3060  -14.0270   18.0160 C   0  0  0  0  0  2  0  0  0  0  0  0
  -29.7980  -14.0060   18.3470 C   0  0  0  0  0  2  0  0  0  0  0  0
  -29.3780  -15.1180   19.3480 C   0  0  0  0  0  3  0  0  0  0  0  0
  -30.3540  -15.2000   20.5430 C   0  0  0  0  0  2  0  0  0  0  0  0
  -31.7210  -15.3220   20.0130 N   0  0  0  0  0  0  0  0  0  0  0  0
  -33.6250  -16.5230   19.6350 O   0  0  0  0  0  0  0  0  0  0  0  0
  -30.5460  -18.3870   17.3640 C   0  0  0  0  0  2  0  0  0  0  0  0
  -29.9010  -19.1850   19.6920 C   0  0  0  0  0  2  0  0  0  0  0  0
  -31.8700  -17.9190   17.9840 C   0  0  0  0  0  2  0  0  0  0  0  0
  -31.2180  -18.5880   20.2230 C   0  0  0  0  0  2  0  0  0  0  0  0
  -29.9680  -19.5500   18.1870 C   0  0  0  0  0  3  0  0  0  0  0  0
  -31.6410  -17.4780   19.3660 N   0  0  0  0  0  0  0  0  0  0  0  0
  -27.0090  -15.9230   19.9600 C   0  0  0  0  0  0  0  0  0  0  0  0
  -25.8690  -15.2460   20.2940 C   0  0  0  0  0  0  0  0  0  0  0  0
  -26.2150  -13.8610   20.2600 C   0  0  0  0  0  0  0  0  0  0  0  0
  -27.9900  -14.9590   19.7740 N   0  0  0  0  0  0  0  0  0  0  0  0
  -27.5070  -13.7120   20.0040 N   0  0  0  0  0  0  0  0  0  0  0  0
  -25.3750  -12.6670   20.3920 C   0  0  0  0  0  0  0  0  0  0  0  0
  -25.7180  -11.6200   21.2750 C   0  0  0  0  0  3  0  0  0  0  0  0
  -24.8850  -10.4870   21.3960 C   0  0  0  0  0  3  0  0  0  0  0  0
  -23.6950  -10.3980   20.6340 C   0  0  0  0  0  0  0  0  0  0  0  0
  -23.3720  -11.4320   19.7370 C   0  0  0  0  0  3  0  0  0  0  0  0
  -24.2050  -12.5560   19.6150 C   0  0  0  0  0  3  0  0  0  0  0  0
  -22.8340   -9.3270   20.6740 O   0  0  0  0  0  0  0  0  0  0  0  0
  -22.6880   -8.5660   21.8050 C   0  0  0  0  0  0  0  0  0  0  0  0
  -22.3170   -9.1320   23.0450 C   0  0  0  0  0  3  0  0  0  0  0  0
  -22.1090   -8.3030   24.1650 C   0  0  0  0  0  3  0  0  0  0  0  0
  -22.2630   -6.9080   24.0490 C   0  0  0  0  0  0  0  0  0  0  0  0
  -22.6280   -6.3410   22.8150 C   0  0  0  0  0  3  0  0  0  0  0  0
  -22.8350   -7.1680   21.6960 C   0  0  0  0  0  0  0  0  0  0  0  0
  -23.1680   -6.6140   20.5050 F   0  0  0  0  0  0  0  0  0  0  0  0
  -22.0580   -6.1090   25.1230 F   0  0  0  0  0  0  0  0  0  0  0  0
  -24.5090  -15.8440   20.5130 C   0  0  0  0  0  0  0  0  0  0  0  0
  -23.6810  -15.2010   21.3270 N   0  0  0  0  0  0  0  0  0  0  0  0
  -24.1880  -16.9150   19.9970 O   0  0  0  0  0  0  0  0  0  0  0  0
  -23.9560  -14.3390   21.7730 H   0  0  0  0  0  0  0  0  0  0  0  0
  -22.7630  -15.5770   21.5130 H   0  0  0  0  0  0  0  0  0  0  0  0
  -27.2740  -17.2690   19.7650 N   0  0  0  0  0  0  0  0  0  0  0  0
  -28.1110  -17.5650   19.2850 H   0  0  0  0  0  0  0  0  0  0  0  0
  -26.5170  -17.9420   19.7360 H   0  0  0  0  0  0  0  0  0  0  0  0
  -27.6300  -25.6140   22.2320 O   0  0  0  0  0  0  0  0  0  0  0  0
  -29.0460  -25.5940   22.4350 C   0  0  0  0  0  2  0  0  0  0  0  0
  -29.6880  -26.9480   22.0910 C   0  0  0  0  0  2  0  0  0  0  0  0
  -29.3580  -27.3460   20.7550 O   0  0  0  0  0  0  0  0  0  0  0  0
  -24.7580  -31.9920   23.5180 C   0  0  0  0  0  0  0  0  0  0  0  0
  -28.1460  -27.9800   20.6390 C   0  0  0  0  0  0  0  0  0  0  0  0
  -23.8690  -30.5260   21.7300 C   0  0  0  0  0  3  0  0  0  0  0  0
  -25.6100  -29.1940   20.4230 C   0  0  0  0  0  0  0  0  0  0  0  0
  -26.3410  -31.1570   21.7920 C   0  0  0  0  0  2  0  0  0  0  0  0
  -26.6300  -29.8220   21.1480 C   0  0  0  0  0  0  0  0  0  0  0  0
  -27.8950  -29.2220   21.2620 C   0  0  0  0  0  3  0  0  0  0  0  0
  -27.1320  -27.3790   19.8690 C   0  0  0  0  0  3  0  0  0  0  0  0
  -25.8560  -27.9690   19.7760 C   0  0  0  0  0  3  0  0  0  0  0  0
  -24.2810  -29.9100   20.3650 C   0  0  0  0  0  2  0  0  0  0  0  0
  -24.9990  -31.2400   22.4080 N   0  0  0  0  0  0  0  0  0  0  0  0
  -23.6080  -32.1390   23.9530 O   0  0  0  0  0  0  0  0  0  0  0  0
  -23.2360  -29.4170   22.6000 C   0  0  0  0  0  0  0  0  0  0  0  0
  -21.9640  -29.0930   22.3200 N   0  0  0  0  0  0  0  0  0  0  0  0
  -23.8920  -28.8540   23.4810 O   0  0  0  0  0  0  0  0  0  0  0  0
  -21.4940  -29.6060   21.5870 H   0  0  0  0  0  0  0  0  0  0  0  0
  -18.6960  -27.5620   22.4490 C   0  0  0  0  0  0  0  0  0  0  0  0
  -21.1770  -28.0550   22.9810 C   0  0  0  0  0  3  0  0  0  0  0  0
  -21.4780  -26.6630   22.3800 C   0  0  0  0  0  2  0  0  0  0  0  0
  -20.5180  -26.2720   21.2530 C   0  0  0  0  0  2  0  0  0  0  0  0
  -19.0730  -26.2600   21.7610 C   0  0  0  0  0  2  0  0  0  0  0  0
  -19.6860  -28.4120   23.0090 C   0  0  0  0  0  0  0  0  0  0  0  0
  -19.2900  -29.6250   23.6130 C   0  0  0  0  0  3  0  0  0  0  0  0
  -17.9320  -29.9950   23.6600 C   0  0  0  0  0  3  0  0  0  0  0  0
  -16.9540  -29.1440   23.1180 C   0  0  0  0  0  3  0  0  0  0  0  0
  -17.3350  -27.9290   22.5210 C   0  0  0  0  0  3  0  0  0  0  0  0
  -25.9100  -32.7280   24.2750 C   0  0  0  0  0  3  0  0  0  0  0  0
  -25.4910  -34.1210   24.4740 N   0  0  0  0  0  0  0  0  0  0  0  0
  -25.8830  -35.1480   23.7070 C   0  0  0  0  0  0  0  0  0  0  0  0
  -26.7010  -35.0270   22.7910 O   0  0  0  0  0  0  0  0  0  0  0  0
  -24.7780  -34.2850   25.1700 H   0  0  0  0  0  0  0  0  0  0  0  0
  -24.1380  -36.8140   22.9980 C   0  0  0  0  0  1  0  0  0  0  0  0
  -25.2660  -36.5280   24.0030 C   0  0  0  0  0  3  0  0  0  0  0  0
  -27.2300  -37.5590   25.0530 C   0  0  0  0  0  1  0  0  0  0  0  0
  -26.2490  -37.6320   23.9710 N   0  0  0  0  0  0  0  0  0  0  0  0
  -25.7820  -38.5330   24.0260 H   0  0  0  0  0  0  0  0  0  0  0  0
  -26.2810  -32.0500   25.6510 C   0  0  1  0  0  0  0  0  0  0  0  0
  -25.0560  -31.7380   26.5400 C   0  0  0  0  0  1  0  0  0  0  0  0
  -27.0440  -30.7250   25.4160 C   0  0  0  0  0  1  0  0  0  0  0  0
  -27.2330  -32.9710   26.4510 C   0  0  0  0  0  1  0  0  0  0  0  0
  2  6  2  0
  3  7  1  0
  3  1  2  0
  4  5  2  0
  4  2  1  0
  5  3  1  0
  6  1  1  0
  6 56  1  0
  8  4  1  0
  9  5  1  0
 10  9  1  0
 10 11  1  0
 12 10  1  0
 13 10  1  0
 14 20  1  0
 15 20  1  0
 16 17  1  0
 16 15  1  0
 18 17  1  0
 18 31  1  0
 18 19  1  0
 20 19  1  0
 21 14  2  0
 22 24  1  0
 22 26  1  0
 23 25  1  0
 24 27  1  0
 26 13  1  0
 26 23  1  0
 27 14  1  0
 27 25  1  0
 28 29  2  0
 29 48  1  0
 30 29  1  0
 30 33  1  0
 31 28  1  0
 31 32  1  0
 32 30  2  0
 33 34  1  0
 34 35  2  0
 36 39  1  0
 36 35  1  0
 37 36  2  0
 38 37  1  0
 38 33  2  0
 39 40  1  0
 40 41  1  0
 41 42  2  0
 43 42  1  0
 43 47  1  0
 44 43  2  0
 45 40  2  0
 45 44  1  0
 46 45  1  0
 48 49  1  0
 49 52  1  0
 49 51  1  0
 50 48  2  0
 53 28  1  0
 54 53  1  0
 55 53  1  0
 56 57  1  0
 58 57  1  0
 59 58  1  0
 60 71  2  0
 61 59  1  0
 61 66  1  0
 62 70  1  0
 62 72  1  0
 63 65  1  0
 64 70  1  0
 65 66  2  0
 65 64  1  0
 67 61  2  0
 68 67  1  0
 68 63  2  0
 69 63  1  0
 69 62  1  0
 70 60  1  0
 72 74  2  0
 73 72  1  0
 75 73  1  0
 76 85  2  0
 76 81  1  0
 77 73  1  0
 77 81  1  0
 78 77  1  0
 79 80  1  0
 79 78  1  0
 80 76  1  0
 81 82  2  0
 82 83  1  0
 84 83  2  0
 85 84  1  0
 86 60  1  0
 86 87  1  0
 86 96  1  0
 87 90  1  0
 88 92  1  0
 88 87  1  0
 89 88  2  0
 92 91  1  0
 94 92  1  0
 94 95  1  0
 94 93  1  0
 96 99  1  1
 96 97  1  0
 98 96  1  0
M  ISO  4  14 100  27 100  58 101  59 101
M  END
>  <TORSDO>  (14) 
F 22

>  <SCORE>  (14) 
-4.986

>  <name>  (14) 
13

>  <ligand_id>  (14) 
13

>  <original_smiles>  (14) 
[H]c1c([H])c([H])c2c(c1[H])C([H])([H])C([H])([H])C([H])([H])C2([H])N([H])C(=O)C1([H])N(C(=O)C([H])(N([H])C(=O)C([H])(N([H])C([H])([H])[H])C([H])([H])[H])C(C([H])([H])[H])(C([H])([H])[H])C([H])([H])[H])C([H])([H])c2c([H])c(OC([H])([H])C([H])([H])Oc3c([H])c(C([H])([H])[H])c(C([H])([H])[N+]([H])([H])C([H])([H])C4([H])C([H])([H])C([H])([H])N(C(=O)N5C([H])([H])C([H])([H])C([H])([H])C([H])(n6nc(-c7c([H])c([H])c(Oc8c([H])c([H])c(F)c([H])c8F)c([H])c7[H])c(C(=O)N([H])[H])c6N([H])[H])C5([H])[H])C([H])([H])C4([H])[H])c(C([H])([H])[H])c3[H])c([H])c([H])c2C1([H])[H]

>  <smiles>  (14) 
[H]c1c([H])c([H])c2c(c1[H])C([H])([H])C([H])([H])C([H])([H])C2([H])N([H])C(=O)C1([H])N(C(=O)C([H])(N([H])C(=O)C([H])(N([H])C([H])([H])[H])C([H])([H])[H])C(C([H])([H])[H])(C([H])([H])[H])C([H])([H])[H])C([H])([H])c2c([H])c(OC([H])([H])C([H])([H])Oc3c([H])c(C([H])([H])[H])c(C([H])([H])[N+]([H])([H])C([H])([H])C4([H])C([H])([H])C([H])([H])N(C(=O)N5C([H])([H])C([H])([H])C([H])([H])C([H])(n6nc(-c7c([H])c([H])c(Oc8c([H])c([H])c(F)c([H])c8F)c([H])c7[H])c(C(=O)N([H])[H])c6N([H])[H])C5([H])[H])C([H])([H])C4([H])[H])c(C([H])([H])[H])c3[H])c([H])c([H])c2C1([H])[H]

$$$$
14:0:0
     RDKit          3D

106116  0  0  1  0  0  0  0  0999 V2000
  -29.3730  -20.1580   21.5040 C   0  0  0  0  0  3  0  0  0  0  0  0
  -31.6980  -18.8130   22.2560 C   0  0  0  0  0  3  0  0  0  0  0  0
  -30.3550  -20.8570   22.2470 C   0  0  0  0  0  0  0  0  0  0  0  0
  -29.5480  -18.8170   21.1020 C   0  0  0  0  0  0  0  0  0  0  0  0
  -31.5220  -20.1550   22.6470 C   0  0  0  0  0  0  0  0  0  0  0  0
  -30.7380  -18.1440   21.4670 C   0  0  0  0  0  0  0  0  0  0  0  0
  -32.6120  -20.8060   23.4870 C   0  0  0  0  0  1  0  0  0  0  0  0
  -31.2190  -23.2150   21.8440 C   0  0  0  0  0  2  0  0  0  0  0  0
  -28.7400  -22.9010   22.3860 C   0  0  0  0  0  2  0  0  0  0  0  0
  -30.6720  -24.5870   21.4260 C   0  0  0  0  0  2  0  0  0  0  0  0
  -28.4620  -23.5010   20.9860 C   0  0  0  0  0  2  0  0  0  0  0  0
  -30.1730  -22.3450   22.5800 C   0  0  0  0  0  3  0  0  0  0  0  0
  -29.5270  -24.4270   20.4950 N   0  0  1  0  0  4  0  0  0  0  0  0
  -29.9260  -23.9700   19.6850 H   0  0  0  0  0  0  0  0  0  0  0  0
  -29.0070  -25.7270   20.0030 C   0  0  0  0  0  2  0  0  0  0  0  0
  -28.3560  -25.6190   18.6110 C   0  0  0  0  0  2  0  0  0  0  0  0
  -28.0550  -26.9260   18.1360 O   0  0  0  0  0  0  0  0  0  0  0  0
  -24.4610  -30.8930   22.8030 C   0  0  0  0  0  0  0  0  0  0  0  0
  -26.8390  -27.4490   18.5020 C   0  0  0  0  0  0  0  0  0  0  0  0
  -23.0860  -29.7210   21.1120 C   0  0  0  0  0  3  0  0  0  0  0  0
  -24.3770  -28.6330   19.2030 C   0  0  0  0  0  0  0  0  0  0  0  0
  -25.5080  -30.3690   20.6070 C   0  0  0  0  0  2  0  0  0  0  0  0
  -25.5750  -29.1620   19.6980 C   0  0  0  0  0  0  0  0  0  0  0  0
  -26.8080  -28.5790   19.3440 C   0  0  0  0  0  3  0  0  0  0  0  0
  -25.6240  -26.9160   18.0130 C   0  0  0  0  0  3  0  0  0  0  0  0
  -24.3950  -27.5040   18.3650 C   0  0  0  0  0  3  0  0  0  0  0  0
  -23.1040  -29.3370   19.6080 C   0  0  0  0  0  2  0  0  0  0  0  0
  -24.3780  -30.3320   21.5630 N   0  0  0  0  0  0  0  0  0  0  0  0
  -23.4730  -30.9450   23.5500 O   0  0  0  0  0  0  0  0  0  0  0  0
  -22.6800  -28.4740   21.9300 C   0  0  0  0  0  0  0  0  0  0  0  0
  -21.3980  -28.0900   21.8390 N   0  0  0  0  0  0  0  0  0  0  0  0
  -23.5140  -27.8610   22.6020 O   0  0  0  0  0  0  0  0  0  0  0  0
  -20.7740  -28.6530   21.2760 H   0  0  0  0  0  0  0  0  0  0  0  0
  -18.3550  -26.1660   22.1280 C   0  0  0  0  0  0  0  0  0  0  0  0
  -20.7990  -26.9260   22.4880 C   0  0  0  0  0  3  0  0  0  0  0  0
  -21.2050  -25.6170   21.7710 C   0  0  0  0  0  2  0  0  0  0  0  0
  -20.1990  -25.1790   20.7020 C   0  0  0  0  0  2  0  0  0  0  0  0
  -18.8160  -24.9620   21.3230 C   0  0  0  0  0  2  0  0  0  0  0  0
  -19.2860  -27.0970   22.6610 C   0  0  0  0  0  0  0  0  0  0  0  0
  -18.8040  -28.2180   23.3720 C   0  0  0  0  0  3  0  0  0  0  0  0
  -17.4210  -28.4150   23.5530 C   0  0  0  0  0  3  0  0  0  0  0  0
  -16.5050  -27.4830   23.0360 C   0  0  0  0  0  3  0  0  0  0  0  0
  -16.9730  -26.3580   22.3300 C   0  0  0  0  0  3  0  0  0  0  0  0
  -25.7910  -31.5170   23.3330 C   0  0  0  0  0  3  0  0  0  0  0  0
  -26.5360  -30.6010   24.3790 C   0  0  1  0  0  0  0  0  0  0  0  0
  -25.6340  -30.1250   25.5420 C   0  0  0  0  0  1  0  0  0  0  0  0
  -27.1160  -29.3450   23.6880 C   0  0  0  0  0  1  0  0  0  0  0  0
  -27.7340  -31.3670   24.9890 C   0  0  0  0  0  1  0  0  0  0  0  0
  -25.4620  -32.8210   23.9250 N   0  0  0  0  0  0  0  0  0  0  0  0
  -25.6960  -34.0030   23.3370 C   0  0  0  0  0  0  0  0  0  0  0  0
  -26.2840  -34.1090   22.2570 O   0  0  0  0  0  0  0  0  0  0  0  0
  -24.9320  -32.8080   24.7840 H   0  0  0  0  0  0  0  0  0  0  0  0
  -23.9000  -35.7600   23.4030 C   0  0  0  0  0  1  0  0  0  0  0  0
  -25.1980  -35.2670   24.0620 C   0  0  0  0  0  3  0  0  0  0  0  0
  -27.3550  -36.0660   24.9220 C   0  0  0  0  0  1  0  0  0  0  0  0
  -26.1920  -36.3620   24.0880 N   0  0  0  0  0  0  0  0  0  0  0  0
  -25.7690  -37.2220   24.4240 H   0  0  0  0  0  0  0  0  0  0  0  0
  -30.9630  -16.8220   21.0630 N   0  0  0  0  0  0  0  0  0  0  0  0
  -30.4890  -16.5630   20.2080 H   0  0  0  0  0  0  0  0  0  0  0  0
  -32.3430  -16.3470   21.1020 C   0  0  0  0  0  2  0  0  0  0  0  0
  -34.0730  -14.8470   20.0040 C   0  0  0  0  0  1  0  0  0  0  0  0
  -32.6740  -15.4670   19.8840 C   0  0  0  0  0  3  0  0  0  0  0  0
  -31.4630  -13.6390   18.6650 C   0  0  0  0  0  0  0  0  0  0  0  0
  -30.7950  -11.3140   18.2190 C   0  0  0  0  0  2  0  0  0  0  0  0
  -29.5970  -11.1510   17.2740 C   0  0  0  0  0  2  0  0  0  0  0  0
  -28.2770  -11.2280   18.0590 C   0  0  0  0  0  2  0  0  0  0  0  0
  -28.2050  -12.4810   18.9700 C   0  0  0  0  0  3  0  0  0  0  0  0
  -29.4840  -12.6180   19.8250 C   0  0  0  0  0  2  0  0  0  0  0  0
  -30.6650  -12.5840   18.9410 N   0  0  0  0  0  0  0  0  0  0  0  0
  -32.1400  -13.7440   17.6360 O   0  0  0  0  0  0  0  0  0  0  0  0
  -31.6510  -14.4340   19.7230 N   0  0  0  0  0  0  0  0  0  0  0  0
  -31.0970  -14.2280   20.5410 H   0  0  0  0  0  0  0  0  0  0  0  0
  -26.3570  -13.5090   20.4410 C   0  0  0  0  0  0  0  0  0  0  0  0
  -25.2410  -12.9660   21.0210 C   0  0  0  0  0  0  0  0  0  0  0  0
  -25.2570  -11.5780   20.6850 C   0  0  0  0  0  0  0  0  0  0  0  0
  -27.0000  -12.4610   19.8000 N   0  0  0  0  0  0  0  0  0  0  0  0
  -26.3530  -11.2840   19.9960 N   0  0  0  0  0  0  0  0  0  0  0  0
  -24.2650  -10.5230   20.9310 C   0  0  0  0  0  0  0  0  0  0  0  0
  -24.5880   -9.3610   21.6660 C   0  0  0  0  0  3  0  0  0  0  0  0
  -23.6120   -8.3700   21.9040 C   0  0  0  0  0  3  0  0  0  0  0  0
  -22.2970   -8.5340   21.4090 C   0  0  0  0  0  0  0  0  0  0  0  0
  -21.9860   -9.6810   20.6590 C   0  0  0  0  0  3  0  0  0  0  0  0
  -22.9600  -10.6650   20.4180 C   0  0  0  0  0  3  0  0  0  0  0  0
  -21.2920   -7.6110   21.5700 O   0  0  0  0  0  0  0  0  0  0  0  0
  -21.2250   -6.8030   22.6760 C   0  0  0  0  0  0  0  0  0  0  0  0
  -21.1180   -7.3340   23.9800 C   0  0  0  0  0  3  0  0  0  0  0  0
  -20.9820   -6.4670   25.0840 C   0  0  0  0  0  3  0  0  0  0  0  0
  -20.9450   -5.0740   24.8850 C   0  0  0  0  0  0  0  0  0  0  0  0
  -21.0460   -4.5440   23.5860 C   0  0  0  0  0  3  0  0  0  0  0  0
  -21.1830   -5.4080   22.4850 C   0  0  0  0  0  0  0  0  0  0  0  0
  -21.2590   -4.8930   21.2340 F   0  0  0  0  0  0  0  0  0  0  0  0
  -20.8070   -4.2420   25.9440 F   0  0  0  0  0  0  0  0  0  0  0  0
  -24.1660  -13.7080   21.7630 C   0  0  0  0  0  0  0  0  0  0  0  0
  -23.5480  -13.0670   22.7480 N   0  0  0  0  0  0  0  0  0  0  0  0
  -23.9020  -14.8810   21.5020 O   0  0  0  0  0  0  0  0  0  0  0  0
  -23.7780  -12.1120   22.9760 H   0  0  0  0  0  0  0  0  0  0  0  0
  -22.8320  -13.5410   23.2830 H   0  0  0  0  0  0  0  0  0  0  0  0
  -26.8670  -14.8020   20.3890 N   0  0  0  0  0  0  0  0  0  0  0  0
  -26.3810  -15.5910   20.8010 H   0  0  0  0  0  0  0  0  0  0  0  0
  -27.6900  -15.0680   19.8660 H   0  0  0  0  0  0  0  0  0  0  0  0
  -28.4250  -18.1370   20.3090 C   0  0  0  0  0  2  0  0  0  0  0  0
  -26.7900  -18.3280   18.2890 C   0  0  0  0  0  2  0  0  0  0  0  0
  -26.8390  -19.6980   18.9110 C   0  0  0  0  0  2  0  0  0  0  0  0
  -28.0580  -18.7980   18.9750 C   0  0  1  0  0  0  0  0  0  0  0  0
  -30.0450  -17.8940   17.6450 C   0  0  0  0  0  1  0  0  0  0  0  0
  -29.2660  -19.1310   18.1020 C   0  0  0  0  0  2  0  0  0  0  0  0
  1  3  1  0
  2  5  1  0
  3  5  2  0
  4  6  1  0
  4  1  2  0
  5  7  1  0
  6  2  2  0
  8 12  1  0
  9 12  1  0
 10  8  1  0
 11  9  1  0
 12  3  1  0
 13 11  1  0
 13 10  1  0
 13 14  1  6
 15 13  1  0
 16 15  1  0
 17 19  1  0
 17 16  1  0
 18 29  2  0
 19 24  1  0
 20 28  1  0
 20 30  1  0
 21 27  1  0
 21 23  1  0
 22 28  1  0
 23 22  1  0
 24 23  2  0
 25 26  1  0
 25 19  2  0
 26 21  2  0
 27 20  1  0
 28 18  1  0
 30 32  2  0
 31 30  1  0
 33 31  1  0
 34 43  2  0
 34 39  1  0
 35 31  1  0
 35 39  1  0
 36 35  1  0
 37 38  1  0
 37 36  1  0
 38 34  1  0
 39 40  2  0
 40 41  1  0
 42 41  2  0
 43 42  1  0
 44 18  1  0
 44 49  1  0
 44 45  1  0
 45 48  1  1
 45 46  1  0
 47 45  1  0
 49 52  1  0
 50 49  1  0
 50 54  1  0
 51 50  2  0
 54 53  1  0
 54 56  1  0
 56 57  1  0
 56 55  1  0
 58 60  1  0
 58  6  1  0
 59 58  1  0
 62 61  1  0
 62 60  1  0
 63 69  1  0
 63 71  1  0
 64 69  1  0
 65 66  1  0
 65 64  1  0
 67 66  1  0
 67 76  1  0
 67 68  1  0
 69 68  1  0
 70 63  2  0
 71 62  1  0
 71 72  1  0
 73 74  2  0
 74 93  1  0
 75 78  1  0
 75 74  1  0
 76 77  1  0
 76 73  1  0
 77 75  2  0
 78 79  1  0
 79 80  2  0
 81 84  1  0
 81 80  1  0
 82 81  2  0
 83 82  1  0
 83 78  2  0
 84 85  1  0
 85 86  1  0
 86 87  2  0
 88 87  1  0
 88 92  1  0
 89 88  2  0
 90 85  2  0
 90 89  1  0
 91 90  1  0
 93 94  1  0
 94 96  1  0
 94 97  1  0
 95 93  2  0
 98 73  1  0
 98 99  1  0
100 98  1  0
101  4  1  0
102103  1  0
102104  1  0
103104  1  0
104101  1  1
105106  1  0
106104  1  0
M  ISO  4  16 101  17 101  63 100  71 100
M  END
>  <TORSDO>  (15) 
F 25

>  <SCORE>  (15) 
-5.898

>  <name>  (15) 
14

>  <ligand_id>  (15) 
14

>  <original_smiles>  (15) 
[H]c1c([H])c([H])c2c(c1[H])C([H])([H])C([H])([H])C([H])([H])C2([H])N([H])C(=O)C1([H])N(C(=O)C([H])(N([H])C(=O)C([H])(N([H])C([H])([H])[H])C([H])([H])[H])C(C([H])([H])[H])(C([H])([H])[H])C([H])([H])[H])C([H])([H])c2c([H])c(OC([H])([H])C([H])([H])[N+]3([H])C([H])([H])C([H])([H])C([H])(c4c([H])c(C([H])([H])C5(C([H])([H])C([H])([H])[H])C([H])([H])C5([H])[H])c(N([H])C([H])([H])C([H])(N([H])C(=O)N5C([H])([H])C([H])([H])C([H])([H])C([H])(n6nc(-c7c([H])c([H])c(Oc8c([H])c([H])c(F)c([H])c8F)c([H])c7[H])c(C(=O)N([H])[H])c6N([H])[H])C5([H])[H])C([H])([H])[H])c([H])c4C([H])([H])[H])C([H])([H])C3([H])[H])c([H])c([H])c2C1([H])[H]

>  <smiles>  (15) 
[H]c1c([H])c([H])c2c(c1[H])C([H])([H])C([H])([H])C([H])([H])C2([H])N([H])C(=O)C1([H])N(C(=O)C([H])(N([H])C(=O)C([H])(N([H])C([H])([H])[H])C([H])([H])[H])C(C([H])([H])[H])(C([H])([H])[H])C([H])([H])[H])C([H])([H])c2c([H])c(OC([H])([H])C([H])([H])[N+]3([H])C([H])([H])C([H])([H])C([H])(c4c([H])c(C([H])([H])C5(C([H])([H])C([H])([H])[H])C([H])([H])C5([H])[H])c(N([H])C([H])([H])C([H])(N([H])C(=O)N5C([H])([H])C([H])([H])C([H])([H])C([H])(n6nc(-c7c([H])c([H])c(Oc8c([H])c([H])c(F)c([H])c8F)c([H])c7[H])c(C(=O)N([H])[H])c6N([H])[H])C5([H])[H])C([H])([H])[H])c([H])c4C([H])([H])[H])C([H])([H])C3([H])[H])c([H])c([H])c2C1([H])[H]

$$$$
15:0:0
     RDKit          3D

 98107  0  0  1  0  0  0  0  0999 V2000
  -29.3530  -23.2050   21.5730 C   0  0  0  0  0  3  0  0  0  0  0  0
  -31.5350  -23.4470   20.5410 C   0  0  0  0  0  3  0  0  0  0  0  0
  -29.3780  -21.8160   21.3390 C   0  0  0  0  0  0  0  0  0  0  0  0
  -31.5930  -22.0560   20.3110 C   0  0  0  0  0  0  0  0  0  0  0  0
  -30.5070  -21.2240   20.7100 C   0  0  0  0  0  0  0  0  0  0  0  0
  -30.4190  -24.0230   21.1730 C   0  0  0  0  0  0  0  0  0  0  0  0
  -28.1670  -21.0050   21.7790 C   0  0  0  0  0  1  0  0  0  0  0  0
  -30.5450  -19.7120   20.4670 C   0  0  0  0  0  2  0  0  0  0  0  0
  -30.9190  -18.9000   21.7240 C   0  0  0  0  0  2  0  0  0  0  0  0
  -30.5360  -14.4780   19.9610 C   0  0  0  0  0  0  0  0  0  0  0  0
  -30.0540  -12.4620   18.6310 C   0  0  0  0  0  2  0  0  0  0  0  0
  -28.9970  -12.7660   17.5550 C   0  0  0  0  0  2  0  0  0  0  0  0
  -27.5780  -12.5800   18.1230 C   0  0  0  0  0  2  0  0  0  0  0  0
  -27.3740  -13.3340   19.4640 C   0  0  0  0  0  3  0  0  0  0  0  0
  -28.5280  -13.0250   20.4440 C   0  0  0  0  0  2  0  0  0  0  0  0
  -29.8040  -13.3490   19.7770 N   0  0  0  0  0  0  0  0  0  0  0  0
  -31.4720  -14.8040   19.2210 O   0  0  0  0  0  0  0  0  0  0  0  0
  -31.3210  -16.5440   22.6930 C   0  0  0  0  0  2  0  0  0  0  0  0
  -30.9070  -15.1310   22.2570 C   0  0  0  0  0  2  0  0  0  0  0  0
  -29.9520  -16.6900   20.7590 C   0  0  0  0  0  2  0  0  0  0  0  0
  -31.1210  -17.4000   21.4460 C   0  0  0  0  0  3  0  0  0  0  0  0
  -30.1650  -15.2600   20.9940 N   0  0  0  0  0  0  0  0  0  0  0  0
  -25.0330  -13.8850   20.3890 C   0  0  0  0  0  0  0  0  0  0  0  0
  -24.0160  -13.0850   20.8370 C   0  0  0  0  0  0  0  0  0  0  0  0
  -24.4960  -11.7430   20.7390 C   0  0  0  0  0  0  0  0  0  0  0  0
  -26.0710  -13.0280   20.0520 N   0  0  0  0  0  0  0  0  0  0  0  0
  -25.7540  -11.7350   20.3150 N   0  0  0  0  0  0  0  0  0  0  0  0
  -23.8150  -10.4630   20.9710 C   0  0  0  0  0  0  0  0  0  0  0  0
  -24.3060   -9.5220   21.9040 C   0  0  0  0  0  3  0  0  0  0  0  0
  -23.6210   -8.3070   22.1220 C   0  0  0  0  0  3  0  0  0  0  0  0
  -22.4340   -8.0220   21.4070 C   0  0  0  0  0  0  0  0  0  0  0  0
  -21.9640   -8.9520   20.4620 C   0  0  0  0  0  3  0  0  0  0  0  0
  -22.6490  -10.1580   20.2420 C   0  0  0  0  0  3  0  0  0  0  0  0
  -21.7190   -6.8550   21.5340 O   0  0  0  0  0  0  0  0  0  0  0  0
  -21.6840   -6.1560   22.7140 C   0  0  0  0  0  0  0  0  0  0  0  0
  -21.2400   -6.7480   23.9170 C   0  0  0  0  0  3  0  0  0  0  0  0
  -21.1540   -5.9720   25.0910 C   0  0  0  0  0  3  0  0  0  0  0  0
  -21.5020   -4.6090   25.0630 C   0  0  0  0  0  0  0  0  0  0  0  0
  -21.9410   -4.0180   23.8650 C   0  0  0  0  0  3  0  0  0  0  0  0
  -22.0280   -4.7900   22.6920 C   0  0  0  0  0  0  0  0  0  0  0  0
  -22.4310   -4.2110   21.5360 F   0  0  0  0  0  0  0  0  0  0  0  0
  -21.4130   -3.8620   26.1880 F   0  0  0  0  0  0  0  0  0  0  0  0
  -22.6400  -13.5290   21.2440 C   0  0  0  0  0  0  0  0  0  0  0  0
  -22.0080  -12.8040   22.1610 N   0  0  0  0  0  0  0  0  0  0  0  0
  -22.1360  -14.5530   20.7860 O   0  0  0  0  0  0  0  0  0  0  0  0
  -22.4280  -11.9740   22.5540 H   0  0  0  0  0  0  0  0  0  0  0  0
  -21.0870  -13.0800   22.4720 H   0  0  0  0  0  0  0  0  0  0  0  0
  -25.1600  -15.2600   20.2220 N   0  0  0  0  0  0  0  0  0  0  0  0
  -24.4010  -15.9030   20.4180 H   0  0  0  0  0  0  0  0  0  0  0  0
  -25.9800  -15.7170   19.8430 H   0  0  0  0  0  0  0  0  0  0  0  0
  -32.8420  -21.5030   19.6360 C   0  0  0  0  0  2  0  0  0  0  0  0
  -33.6420  -20.7610   20.5450 O   0  0  0  0  0  0  0  0  0  0  0  0
  -35.6490  -19.5390   21.0180 C   0  0  0  0  0  1  0  0  0  0  0  0
  -34.8430  -20.2850   19.9550 C   0  0  0  0  0  2  0  0  0  0  0  0
  -30.3330  -25.3620   21.4540 O   0  0  0  0  0  0  0  0  0  0  0  0
  -30.7210  -26.2590   20.4210 C   0  0  0  0  0  2  0  0  0  0  0  0
  -29.6770  -27.3760   20.4300 C   0  0  0  0  0  2  0  0  0  0  0  0
  -28.4540  -26.8260   19.9460 O   0  0  0  0  0  0  0  0  0  0  0  0
  -24.6180  -31.8990   23.2180 C   0  0  0  0  0  0  0  0  0  0  0  0
  -27.3050  -27.5780   20.0420 C   0  0  0  0  0  0  0  0  0  0  0  0
  -23.4070  -30.5090   21.5630 C   0  0  0  0  0  3  0  0  0  0  0  0
  -24.8670  -29.0060   20.1090 C   0  0  0  0  0  0  0  0  0  0  0  0
  -25.9170  -30.9140   21.3390 C   0  0  0  0  0  2  0  0  0  0  0  0
  -26.0170  -29.5520   20.6890 C   0  0  0  0  0  0  0  0  0  0  0  0
  -27.2360  -28.8490   20.6600 C   0  0  0  0  0  3  0  0  0  0  0  0
  -26.1360  -27.0320   19.4740 C   0  0  0  0  0  3  0  0  0  0  0  0
  -24.9170  -27.7390   19.5000 C   0  0  0  0  0  3  0  0  0  0  0  0
  -23.6100  -29.8420   20.1750 C   0  0  0  0  0  2  0  0  0  0  0  0
  -24.6660  -31.1200   22.1000 N   0  0  0  0  0  0  0  0  0  0  0  0
  -23.5400  -32.1530   23.7730 O   0  0  0  0  0  0  0  0  0  0  0  0
  -22.7780  -29.4670   22.5160 C   0  0  0  0  0  0  0  0  0  0  0  0
  -21.4560  -29.2720   22.3940 N   0  0  0  0  0  0  0  0  0  0  0  0
  -23.4760  -28.8380   23.3150 O   0  0  0  0  0  0  0  0  0  0  0  0
  -20.9550  -29.8370   21.7220 H   0  0  0  0  0  0  0  0  0  0  0  0
  -18.0940  -28.0550   22.9060 C   0  0  0  0  0  0  0  0  0  0  0  0
  -20.6540  -28.3150   23.1550 C   0  0  0  0  0  3  0  0  0  0  0  0
  -20.7550  -26.8980   22.5460 C   0  0  0  0  0  2  0  0  0  0  0  0
  -19.6420  -26.5910   21.5380 C   0  0  0  0  0  2  0  0  0  0  0  0
  -18.2660  -26.7200   22.2000 C   0  0  0  0  0  2  0  0  0  0  0  0
  -19.2160  -28.8120   23.3380 C   0  0  0  0  0  0  0  0  0  0  0  0
  -19.0020  -30.0620   23.9550 C   0  0  0  0  0  3  0  0  0  0  0  0
  -17.6980  -30.5590   24.1420 C   0  0  0  0  0  3  0  0  0  0  0  0
  -16.5900  -29.7990   23.7280 C   0  0  0  0  0  3  0  0  0  0  0  0
  -16.7900  -28.5480   23.1150 C   0  0  0  0  0  3  0  0  0  0  0  0
  -25.9060  -32.5280   23.8380 C   0  0  0  0  0  3  0  0  0  0  0  0
  -25.6040  -33.9280   24.1590 N   0  0  0  0  0  0  0  0  0  0  0  0
  -25.9570  -34.9770   23.4020 C   0  0  0  0  0  0  0  0  0  0  0  0
  -26.6470  -34.8650   22.3840 O   0  0  0  0  0  0  0  0  0  0  0  0
  -24.9970  -34.0910   24.9490 H   0  0  0  0  0  0  0  0  0  0  0  0
  -24.2500  -36.7780   22.9960 C   0  0  0  0  0  1  0  0  0  0  0  0
  -25.4670  -36.3680   23.8440 C   0  0  0  0  0  3  0  0  0  0  0  0
  -27.5850  -37.2340   24.7340 C   0  0  0  0  0  1  0  0  0  0  0  0
  -26.5100  -37.4130   23.7600 N   0  0  0  0  0  0  0  0  0  0  0  0
  -26.1090  -38.3370   23.9000 H   0  0  0  0  0  0  0  0  0  0  0  0
  -26.4260  -31.7580   25.1130 C   0  0  1  0  0  0  0  0  0  0  0  0
  -25.3310  -31.5060   26.1750 C   0  0  0  0  0  1  0  0  0  0  0  0
  -27.0200  -30.3860   24.7150 C   0  0  0  0  0  1  0  0  0  0  0  0
  -27.5670  -32.5590   25.7860 C   0  0  0  0  0  1  0  0  0  0  0  0
  2  6  1  0
  3  1  1  0
  3  7  1  0
  4  2  2  0
  4  5  1  0
  5  3  2  0
  6 55  1  0
  6  1  2  0
  8  5  1  0
  8  9  1  0
 10 22  1  0
 11 16  1  0
 12 13  1  0
 12 11  1  0
 14 13  1  0
 14 26  1  0
 14 15  1  0
 16 10  1  0
 16 15  1  0
 17 10  2  0
 19 18  1  0
 20 22  1  0
 20 21  1  0
 21  9  1  0
 21 18  1  0
 22 19  1  0
 23 24  2  0
 24 43  1  0
 25 24  1  0
 25 28  1  0
 26 27  1  0
 26 23  1  0
 27 25  2  0
 28 29  1  0
 29 30  2  0
 31 34  1  0
 31 30  1  0
 32 31  2  0
 33 32  1  0
 33 28  2  0
 34 35  1  0
 35 36  1  0
 36 37  2  0
 38 37  1  0
 38 42  1  0
 39 38  2  0
 40 35  2  0
 40 39  1  0
 41 40  1  0
 43 44  1  0
 44 47  1  0
 44 46  1  0
 45 43  2  0
 48 23  1  0
 48 49  1  0
 50 48  1  0
 51  4  1  0
 51 52  1  0
 54 52  1  0
 54 53  1  0
 56 57  1  0
 56 55  1  0
 58 60  1  0
 58 57  1  0
 59 70  2  0
 60 65  1  0
 61 69  1  0
 61 71  1  0
 62 68  1  0
 62 64  1  0
 63 69  1  0
 64 63  1  0
 65 64  2  0
 66 67  1  0
 66 60  2  0
 67 62  2  0
 68 61  1  0
 69 59  1  0
 71 73  2  0
 72 71  1  0
 74 72  1  0
 75 84  2  0
 75 80  1  0
 76 72  1  0
 76 80  1  0
 77 76  1  0
 78 79  1  0
 78 77  1  0
 79 75  1  0
 80 81  2  0
 81 82  1  0
 83 82  2  0
 84 83  1  0
 85 59  1  0
 85 86  1  0
 85 95  1  0
 86 89  1  0
 87 91  1  0
 87 86  1  0
 88 87  2  0
 91 90  1  0
 93 91  1  0
 93 94  1  0
 93 92  1  0
 95 98  1  1
 95 96  1  0
 97 95  1  0
M  ISO  4  10 100  22 100  57 101  58 101
M  END
>  <TORSDO>  (16) 
F 24

>  <SCORE>  (16) 
-10.919

>  <name>  (16) 
15

>  <ligand_id>  (16) 
15

>  <original_smiles>  (16) 
[H]c1c([H])c([H])c2c(c1[H])C([H])([H])C([H])([H])C([H])([H])C2([H])N([H])C(=O)C1([H])N(C(=O)C([H])(N([H])C(=O)C([H])(N([H])C([H])([H])[H])C([H])([H])[H])C(C([H])([H])[H])(C([H])([H])[H])C([H])([H])[H])C([H])([H])c2c([H])c(OC([H])([H])C([H])([H])Oc3c([H])c(C([H])([H])[H])c(C([H])([H])C([H])([H])C4([H])C([H])([H])N(C(=O)N5C([H])([H])C([H])([H])C([H])([H])C([H])(n6nc(-c7c([H])c([H])c(Oc8c([H])c([H])c(F)c([H])c8F)c([H])c7[H])c(C(=O)N([H])[H])c6N([H])[H])C5([H])[H])C([H])([H])C4([H])[H])c(C([H])([H])OC([H])([H])C([H])([H])[H])c3[H])c([H])c([H])c2C1([H])[H]

>  <smiles>  (16) 
[H]c1c([H])c([H])c2c(c1[H])C([H])([H])C([H])([H])C([H])([H])C2([H])N([H])C(=O)C1([H])N(C(=O)C([H])(N([H])C(=O)C([H])(N([H])C([H])([H])[H])C([H])([H])[H])C(C([H])([H])[H])(C([H])([H])[H])C([H])([H])[H])C([H])([H])c2c([H])c(OC([H])([H])C([H])([H])Oc3c([H])c(C([H])([H])[H])c(C([H])([H])C([H])([H])C4([H])C([H])([H])N(C(=O)N5C([H])([H])C([H])([H])C([H])([H])C([H])(n6nc(-c7c([H])c([H])c(Oc8c([H])c([H])c(F)c([H])c8F)c([H])c7[H])c(C(=O)N([H])[H])c6N([H])[H])C5([H])[H])C([H])([H])C4([H])[H])c(C([H])([H])OC([H])([H])C([H])([H])[H])c3[H])c([H])c([H])c2C1([H])[H]

$$$$
16:0:0
     RDKit          3D

 97106  0  0  1  0  0  0  0  0999 V2000
  -29.6640  -22.7000   18.5160 C   0  0  0  0  0  2  0  0  0  0  0  0
  -31.0650  -22.6660   20.6000 C   0  0  0  0  0  2  0  0  0  0  0  0
  -30.0180  -24.1860   18.3270 C   0  0  0  0  0  2  0  0  0  0  0  0
  -31.3960  -24.1530   20.3740 C   0  0  0  0  0  2  0  0  0  0  0  0
  -30.7870  -21.9600   19.2610 C   0  0  0  0  0  3  0  0  0  0  0  0
  -30.3120  -24.8470   19.6270 N   0  0  1  0  0  4  0  0  0  0  0  0
  -29.4770  -24.7660   20.1940 H   0  0  0  0  0  0  0  0  0  0  0  0
  -29.4200  -19.9890   20.1740 C   0  0  0  0  0  3  0  0  0  0  0  0
  -31.3130  -19.5490   18.7240 C   0  0  0  0  0  3  0  0  0  0  0  0
  -30.4970  -20.4690   19.4030 C   0  0  0  0  0  0  0  0  0  0  0  0
  -29.1700  -18.6030   20.2830 C   0  0  0  0  0  0  0  0  0  0  0  0
  -31.0740  -18.1640   18.8060 C   0  0  0  0  0  0  0  0  0  0  0  0
  -30.0040  -17.6700   19.6060 C   0  0  0  0  0  0  0  0  0  0  0  0
  -27.9780  -18.1580   21.1170 C   0  0  0  0  0  1  0  0  0  0  0  0
  -31.9990  -17.2630   18.0030 C   0  0  0  0  0  1  0  0  0  0  0  0
  -29.7230  -16.1610   19.7060 C   0  0  0  0  0  2  0  0  0  0  0  0
  -31.2060  -14.2440   19.9200 C   0  0  0  0  0  0  0  0  0  0  0  0
  -30.7070  -12.0300   18.9660 C   0  0  0  0  0  2  0  0  0  0  0  0
  -29.7450  -12.1630   17.7710 C   0  0  0  0  0  2  0  0  0  0  0  0
  -28.2810  -12.1320   18.2520 C   0  0  0  0  0  2  0  0  0  0  0  0
  -28.0150  -13.1130   19.4230 C   0  0  0  0  0  3  0  0  0  0  0  0
  -29.0950  -12.9790   20.5210 C   0  0  0  0  0  2  0  0  0  0  0  0
  -30.4170  -13.1360   19.8910 N   0  0  0  0  0  0  0  0  0  0  0  0
  -32.3400  -14.2650   19.4350 O   0  0  0  0  0  0  0  0  0  0  0  0
  -31.5010  -16.0920   21.4480 C   0  0  0  0  0  1  0  0  0  0  0  0
  -30.6830  -15.3540   20.4840 N   0  0  0  0  0  0  0  0  0  0  0  0
  -25.7170  -13.9370   20.2310 C   0  0  0  0  0  0  0  0  0  0  0  0
  -24.6020  -13.2630   20.6490 C   0  0  0  0  0  0  0  0  0  0  0  0
  -24.9420  -11.8760   20.6080 C   0  0  0  0  0  0  0  0  0  0  0  0
  -26.6680  -12.9640   19.9630 N   0  0  0  0  0  0  0  0  0  0  0  0
  -26.2090  -11.7200   20.2480 N   0  0  0  0  0  0  0  0  0  0  0  0
  -24.1180  -10.6820   20.8320 C   0  0  0  0  0  0  0  0  0  0  0  0
  -24.5010   -9.6850   21.7570 C   0  0  0  0  0  3  0  0  0  0  0  0
  -23.6850   -8.5530   21.9680 C   0  0  0  0  0  3  0  0  0  0  0  0
  -22.4710   -8.4120   21.2550 C   0  0  0  0  0  0  0  0  0  0  0  0
  -22.1060   -9.3960   20.3190 C   0  0  0  0  0  3  0  0  0  0  0  0
  -22.9230  -10.5190   20.1050 C   0  0  0  0  0  3  0  0  0  0  0  0
  -21.6260   -7.3360   21.3770 O   0  0  0  0  0  0  0  0  0  0  0  0
  -21.5620   -6.5990   22.5320 C   0  0  0  0  0  0  0  0  0  0  0  0
  -21.2300   -7.1850   23.7730 C   0  0  0  0  0  3  0  0  0  0  0  0
  -21.1080   -6.3800   24.9230 C   0  0  0  0  0  3  0  0  0  0  0  0
  -21.3080   -4.9890   24.8330 C   0  0  0  0  0  0  0  0  0  0  0  0
  -21.6330   -4.4020   23.5970 C   0  0  0  0  0  3  0  0  0  0  0  0
  -21.7570   -5.2060   22.4490 C   0  0  0  0  0  0  0  0  0  0  0  0
  -22.0510   -4.6320   21.2570 F   0  0  0  0  0  0  0  0  0  0  0  0
  -21.1820   -4.2130   25.9350 F   0  0  0  0  0  0  0  0  0  0  0  0
  -23.2620  -13.8610   20.9700 C   0  0  0  0  0  0  0  0  0  0  0  0
  -22.5160  -13.2400   21.8790 N   0  0  0  0  0  0  0  0  0  0  0  0
  -22.8900  -14.9110   20.4500 O   0  0  0  0  0  0  0  0  0  0  0  0
  -22.8320  -12.3920   22.3240 H   0  0  0  0  0  0  0  0  0  0  0  0
  -21.6180  -13.6250   22.1340 H   0  0  0  0  0  0  0  0  0  0  0  0
  -25.9900  -15.2870   20.0350 N   0  0  0  0  0  0  0  0  0  0  0  0
  -25.2810  -16.0010   20.1640 H   0  0  0  0  0  0  0  0  0  0  0  0
  -26.8450  -15.6490   19.6340 H   0  0  0  0  0  0  0  0  0  0  0  0
  -30.5420  -26.3120   19.5150 C   0  0  0  0  0  2  0  0  0  0  0  0
  -29.2480  -27.0620   19.1690 C   0  0  0  0  0  2  0  0  0  0  0  0
  -28.2760  -26.6520   20.1230 O   0  0  0  0  0  0  0  0  0  0  0  0
  -24.5870  -31.8500   23.2540 C   0  0  0  0  0  0  0  0  0  0  0  0
  -27.1350  -27.4060   20.1360 C   0  0  0  0  0  0  0  0  0  0  0  0
  -23.3360  -30.4560   21.6350 C   0  0  0  0  0  3  0  0  0  0  0  0
  -24.7490  -28.8990   20.1930 C   0  0  0  0  0  0  0  0  0  0  0  0
  -25.8560  -30.7980   21.3890 C   0  0  0  0  0  2  0  0  0  0  0  0
  -25.9190  -29.4250   20.7570 C   0  0  0  0  0  0  0  0  0  0  0  0
  -27.1170  -28.6830   20.7330 C   0  0  0  0  0  3  0  0  0  0  0  0
  -25.9540  -26.8730   19.5860 C   0  0  0  0  0  3  0  0  0  0  0  0
  -24.7590  -27.6190   19.6070 C   0  0  0  0  0  3  0  0  0  0  0  0
  -23.5130  -29.7650   20.2550 C   0  0  0  0  0  2  0  0  0  0  0  0
  -24.6120  -31.0480   22.1510 N   0  0  0  0  0  0  0  0  0  0  0  0
  -23.5190  -32.1360   23.8120 O   0  0  0  0  0  0  0  0  0  0  0  0
  -22.6900  -29.4470   22.6110 C   0  0  0  0  0  0  0  0  0  0  0  0
  -21.3660  -29.2590   22.4860 N   0  0  0  0  0  0  0  0  0  0  0  0
  -23.3760  -28.8340   23.4320 O   0  0  0  0  0  0  0  0  0  0  0  0
  -20.8750  -29.8040   21.7910 H   0  0  0  0  0  0  0  0  0  0  0  0
  -18.0020  -28.0340   22.9610 C   0  0  0  0  0  0  0  0  0  0  0  0
  -20.5510  -28.3310   23.2690 C   0  0  0  0  0  3  0  0  0  0  0  0
  -20.6810  -26.8870   22.7310 C   0  0  0  0  0  2  0  0  0  0  0  0
  -19.6010  -26.5240   21.7070 C   0  0  0  0  0  2  0  0  0  0  0  0
  -18.2060  -26.6690   22.3260 C   0  0  0  0  0  2  0  0  0  0  0  0
  -19.1040  -28.8210   23.3890 C   0  0  0  0  0  0  0  0  0  0  0  0
  -18.8600  -30.0970   23.9410 C   0  0  0  0  0  3  0  0  0  0  0  0
  -17.5480  -30.5870   24.0710 C   0  0  0  0  0  3  0  0  0  0  0  0
  -16.4600  -29.7970   23.6610 C   0  0  0  0  0  3  0  0  0  0  0  0
  -16.6870  -28.5230   23.1130 C   0  0  0  0  0  3  0  0  0  0  0  0
  -25.8930  -32.4650   23.8490 C   0  0  0  0  0  3  0  0  0  0  0  0
  -26.4310  -31.6830   25.1100 C   0  0  1  0  0  0  0  0  0  0  0  0
  -25.3590  -31.4490   26.2000 C   0  0  0  0  0  1  0  0  0  0  0  0
  -26.9940  -30.3040   24.6950 C   0  0  0  0  0  1  0  0  0  0  0  0
  -27.6000  -32.4650   25.7520 C   0  0  0  0  0  1  0  0  0  0  0  0
  -25.6070  -33.8660   24.1870 N   0  0  0  0  0  0  0  0  0  0  0  0
  -25.9460  -34.9150   23.4260 C   0  0  0  0  0  0  0  0  0  0  0  0
  -26.6030  -34.8050   22.3870 O   0  0  0  0  0  0  0  0  0  0  0  0
  -25.0230  -34.0250   24.9950 H   0  0  0  0  0  0  0  0  0  0  0  0
  -24.2340  -36.7270   23.0950 C   0  0  0  0  0  1  0  0  0  0  0  0
  -25.4800  -36.3070   23.8910 C   0  0  0  0  0  3  0  0  0  0  0  0
  -27.6360  -37.1630   24.6950 C   0  0  0  0  0  1  0  0  0  0  0  0
  -26.5220  -37.3490   23.7680 N   0  0  0  0  0  0  0  0  0  0  0  0
  -26.1300  -38.2730   23.9270 H   0  0  0  0  0  0  0  0  0  0  0  0
  1  5  1  0
  3  1  1  0
  3  6  1  0
  4  2  1  0
  5 10  1  0
  5  2  1  0
  6  7  1  1
  6  4  1  0
  8 11  1  0
  9 12  2  0
  9 10  1  0
 10  8  2  0
 11 14  1  0
 12 13  1  0
 13 16  1  0
 13 11  2  0
 15 12  1  0
 16 26  1  0
 17 26  1  0
 18 23  1  0
 19 20  1  0
 19 18  1  0
 21 20  1  0
 21 30  1  0
 21 22  1  0
 23 17  1  0
 23 22  1  0
 24 17  2  0
 26 25  1  0
 27 28  2  0
 28 47  1  0
 29 28  1  0
 29 32  1  0
 30 27  1  0
 30 31  1  0
 31 29  2  0
 32 33  1  0
 33 34  2  0
 35 38  1  0
 35 34  1  0
 36 35  2  0
 37 36  1  0
 37 32  2  0
 38 39  1  0
 39 40  1  0
 40 41  2  0
 42 41  1  0
 42 46  1  0
 43 42  2  0
 44 39  2  0
 44 43  1  0
 45 44  1  0
 47 48  1  0
 48 51  1  0
 48 50  1  0
 49 47  2  0
 52 53  1  0
 52 27  1  0
 54 52  1  0
 55  6  1  0
 56 55  1  0
 56 57  1  0
 57 59  1  0
 58 69  2  0
 59 64  1  0
 60 68  1  0
 60 70  1  0
 61 67  1  0
 61 63  1  0
 62 68  1  0
 63 62  1  0
 64 63  2  0
 65 66  1  0
 65 59  2  0
 66 61  2  0
 67 60  1  0
 68 58  1  0
 70 72  2  0
 71 70  1  0
 73 71  1  0
 74 83  2  0
 74 79  1  0
 75 71  1  0
 75 79  1  0
 76 75  1  0
 77 78  1  0
 77 76  1  0
 78 74  1  0
 79 80  2  0
 80 81  1  0
 82 81  2  0
 83 82  1  0
 84 58  1  0
 84 89  1  0
 84 85  1  0
 85 88  1  1
 85 86  1  0
 87 85  1  0
 89 92  1  0
 90 94  1  0
 90 89  1  0
 91 90  2  0
 94 93  1  0
 96 94  1  0
 96 97  1  0
 96 95  1  0
M  ISO  4  17 100  26 100  56 101  57 101
M  END
>  <TORSDO>  (17) 
F 20

>  <SCORE>  (17) 
-12.858

>  <name>  (17) 
16

>  <ligand_id>  (17) 
16

>  <original_smiles>  (17) 
[H]c1c([H])c([H])c2c(c1[H])C([H])([H])C([H])([H])C([H])([H])C2([H])N([H])C(=O)C1([H])N(C(=O)C([H])(N([H])C(=O)C([H])(N([H])C([H])([H])[H])C([H])([H])[H])C(C([H])([H])[H])(C([H])([H])[H])C([H])([H])[H])C([H])([H])c2c([H])c(OC([H])([H])C([H])([H])[N+]3([H])C([H])([H])C([H])([H])C([H])(c4c([H])c(C([H])([H])[H])c(C([H])([H])N(C(=O)N5C([H])([H])C([H])([H])C([H])([H])C([H])(n6nc(-c7c([H])c([H])c(Oc8c([H])c([H])c(F)c([H])c8F)c([H])c7[H])c(C(=O)N([H])[H])c6N([H])[H])C5([H])[H])C([H])([H])[H])c(C([H])([H])[H])c4[H])C([H])([H])C3([H])[H])c([H])c([H])c2C1([H])[H]

>  <smiles>  (17) 
[H]c1c([H])c([H])c2c(c1[H])C([H])([H])C([H])([H])C([H])([H])C2([H])N([H])C(=O)C1([H])N(C(=O)C([H])(N([H])C(=O)C([H])(N([H])C([H])([H])[H])C([H])([H])[H])C(C([H])([H])[H])(C([H])([H])[H])C([H])([H])[H])C([H])([H])c2c([H])c(OC([H])([H])C([H])([H])[N+]3([H])C([H])([H])C([H])([H])C([H])(c4c([H])c(C([H])([H])[H])c(C([H])([H])N(C(=O)N5C([H])([H])C([H])([H])C([H])([H])C([H])(n6nc(-c7c([H])c([H])c(Oc8c([H])c([H])c(F)c([H])c8F)c([H])c7[H])c(C(=O)N([H])[H])c6N([H])[H])C5([H])[H])C([H])([H])[H])c(C([H])([H])[H])c4[H])C([H])([H])C3([H])[H])c([H])c([H])c2C1([H])[H]

$$$$
17:0:0
     RDKit          3D

 93102  0  0  1  0  0  0  0  0999 V2000
  -29.7400  -23.1400   20.5250 C   0  0  0  0  0  2  0  0  0  0  0  0
  -27.3430  -23.0210   20.0990 C   0  0  0  0  0  2  0  0  0  0  0  0
  -29.5580  -24.5090   21.2810 C   0  0  0  0  0  2  0  0  0  0  0  0
  -27.0620  -24.2850   20.9560 C   0  0  0  0  0  2  0  0  0  0  0  0
  -28.5310  -22.1640   20.6390 C   0  0  0  0  0  3  0  0  0  0  0  0
  -28.2280  -25.3160   21.0860 C   0  0  0  0  0  3  0  0  0  0  0  0
  -28.3130  -26.4770   20.1800 O   0  0  0  0  0  0  0  0  0  0  0  0
  -24.6190  -31.8720   23.2330 C   0  0  0  0  0  0  0  0  0  0  0  0
  -27.2230  -27.3450   20.1660 C   0  0  0  0  0  0  0  0  0  0  0  0
  -23.4120  -30.4720   21.5940 C   0  0  0  0  0  3  0  0  0  0  0  0
  -24.8620  -28.9350   20.1580 C   0  0  0  0  0  0  0  0  0  0  0  0
  -25.9480  -30.8020   21.4040 C   0  0  0  0  0  2  0  0  0  0  0  0
  -26.0250  -29.4250   20.7630 C   0  0  0  0  0  0  0  0  0  0  0  0
  -27.2130  -28.6340   20.7710 C   0  0  0  0  0  3  0  0  0  0  0  0
  -26.0590  -26.9270   19.4920 C   0  0  0  0  0  3  0  0  0  0  0  0
  -24.8770  -27.6880   19.5140 C   0  0  0  0  0  3  0  0  0  0  0  0
  -23.6210  -29.8010   20.2110 C   0  0  0  0  0  2  0  0  0  0  0  0
  -24.6780  -31.0670   22.1330 N   0  0  0  0  0  0  0  0  0  0  0  0
  -23.5370  -32.1480   23.7710 O   0  0  0  0  0  0  0  0  0  0  0  0
  -22.7580  -29.4520   22.5540 C   0  0  0  0  0  0  0  0  0  0  0  0
  -21.4310  -29.2740   22.4310 N   0  0  0  0  0  0  0  0  0  0  0  0
  -23.4400  -28.8230   23.3670 O   0  0  0  0  0  0  0  0  0  0  0  0
  -20.9420  -29.8330   21.7470 H   0  0  0  0  0  0  0  0  0  0  0  0
  -18.0540  -28.0820   22.9440 C   0  0  0  0  0  0  0  0  0  0  0  0
  -20.6130  -28.3360   23.2040 C   0  0  0  0  0  3  0  0  0  0  0  0
  -20.7100  -26.9050   22.6250 C   0  0  0  0  0  2  0  0  0  0  0  0
  -19.6030  -26.5870   21.6160 C   0  0  0  0  0  2  0  0  0  0  0  0
  -18.2250  -26.7330   22.2650 C   0  0  0  0  0  2  0  0  0  0  0  0
  -19.1750  -28.8410   23.3690 C   0  0  0  0  0  0  0  0  0  0  0  0
  -18.9600  -30.1040   23.9630 C   0  0  0  0  0  3  0  0  0  0  0  0
  -17.6570  -30.6060   24.1370 C   0  0  0  0  0  3  0  0  0  0  0  0
  -16.5490  -29.8430   23.7260 C   0  0  0  0  0  3  0  0  0  0  0  0
  -16.7490  -28.5830   23.1340 C   0  0  0  0  0  3  0  0  0  0  0  0
  -25.9050  -32.5040   23.8520 C   0  0  0  0  0  3  0  0  0  0  0  0
  -26.4280  -31.7270   25.1220 C   0  0  1  0  0  0  0  0  0  0  0  0
  -25.3410  -31.4830   26.1940 C   0  0  0  0  0  1  0  0  0  0  0  0
  -27.0120  -30.3520   24.7250 C   0  0  0  0  0  1  0  0  0  0  0  0
  -27.5830  -32.5210   25.7790 C   0  0  0  0  0  1  0  0  0  0  0  0
  -25.5940  -33.9000   24.1850 N   0  0  0  0  0  0  0  0  0  0  0  0
  -25.9220  -34.9550   23.4270 C   0  0  0  0  0  0  0  0  0  0  0  0
  -26.5870  -34.8540   22.3920 O   0  0  0  0  0  0  0  0  0  0  0  0
  -24.9980  -34.0530   24.9850 H   0  0  0  0  0  0  0  0  0  0  0  0
  -24.1860  -36.7430   23.0860 C   0  0  0  0  0  1  0  0  0  0  0  0
  -25.4330  -36.3410   23.8890 C   0  0  0  0  0  3  0  0  0  0  0  0
  -27.5750  -37.2260   24.7020 C   0  0  0  0  0  1  0  0  0  0  0  0
  -26.4630  -37.3980   23.7710 N   0  0  0  0  0  0  0  0  0  0  0  0
  -26.0540  -38.3160   23.9300 H   0  0  0  0  0  0  0  0  0  0  0  0
  -28.6830  -20.7330   19.9340 C   0  0  0  0  0  3  0  0  0  0  0  0
  -30.8890  -19.2860   19.7430 C   0  0  0  0  0  2  0  0  0  0  0  0
  -31.2450  -17.7810   19.9050 C   0  0  0  0  0  2  0  0  0  0  0  0
  -29.0370  -18.1410   20.7550 C   0  0  0  0  0  2  0  0  0  0  0  0
  -29.6160  -19.5940   20.5640 C   0  0  0  0  0  3  0  0  0  0  0  0
  -30.2400  -17.1550   20.8940 C   0  0  0  0  0  3  0  0  0  0  0  0
  -30.6600  -14.6170   20.3880 C   0  0  0  0  0  0  0  0  0  0  0  0
  -30.4060  -12.3910   19.3180 C   0  0  0  0  0  2  0  0  0  0  0  0
  -29.4680  -12.5300   18.1010 C   0  0  0  0  0  2  0  0  0  0  0  0
  -27.9920  -12.3900   18.5240 C   0  0  0  0  0  2  0  0  0  0  0  0
  -27.6380  -13.2500   19.7670 C   0  0  0  0  0  3  0  0  0  0  0  0
  -28.6970  -13.0970   20.8820 C   0  0  0  0  0  2  0  0  0  0  0  0
  -30.0080  -13.4180   20.2980 N   0  0  0  0  0  0  0  0  0  0  0  0
  -31.8340  -14.7410   20.0330 O   0  0  0  0  0  0  0  0  0  0  0  0
  -29.8930  -15.7030   20.7040 N   0  0  0  0  0  0  0  0  0  0  0  0
  -28.9320  -15.4690   20.9070 H   0  0  0  0  0  0  0  0  0  0  0  0
  -25.2430  -13.8580   20.4690 C   0  0  0  0  0  0  0  0  0  0  0  0
  -24.1730  -13.0880   20.8390 C   0  0  0  0  0  0  0  0  0  0  0  0
  -24.6330  -11.7360   20.8220 C   0  0  0  0  0  0  0  0  0  0  0  0
  -26.2880  -12.9730   20.2500 N   0  0  0  0  0  0  0  0  0  0  0  0
  -25.9260  -11.6940   20.5220 N   0  0  0  0  0  0  0  0  0  0  0  0
  -23.9040  -10.4770   21.0200 C   0  0  0  0  0  0  0  0  0  0  0  0
  -24.3380   -9.5100   21.9530 C   0  0  0  0  0  3  0  0  0  0  0  0
  -23.6090   -8.3150   22.1400 C   0  0  0  0  0  3  0  0  0  0  0  0
  -22.4310   -8.0800   21.3940 C   0  0  0  0  0  0  0  0  0  0  0  0
  -22.0150   -9.0340   20.4480 C   0  0  0  0  0  3  0  0  0  0  0  0
  -22.7450  -10.2200   20.2590 C   0  0  0  0  0  3  0  0  0  0  0  0
  -21.6730   -6.9380   21.4890 O   0  0  0  0  0  0  0  0  0  0  0  0
  -21.6380   -6.1920   22.6410 C   0  0  0  0  0  0  0  0  0  0  0  0
  -21.2410   -6.7470   23.8780 C   0  0  0  0  0  3  0  0  0  0  0  0
  -21.1550   -5.9280   25.0200 C   0  0  0  0  0  3  0  0  0  0  0  0
  -21.4520   -4.5550   24.9280 C   0  0  0  0  0  0  0  0  0  0  0  0
  -21.8400   -4.0010   23.6960 C   0  0  0  0  0  3  0  0  0  0  0  0
  -21.9310   -4.8170   22.5550 C   0  0  0  0  0  0  0  0  0  0  0  0
  -22.2850   -4.2730   21.3660 F   0  0  0  0  0  0  0  0  0  0  0  0
  -21.3610   -3.7660   26.0240 F   0  0  0  0  0  0  0  0  0  0  0  0
  -22.7750  -13.5690   21.1010 C   0  0  0  0  0  0  0  0  0  0  0  0
  -22.0450  -12.8820   21.9720 N   0  0  0  0  0  0  0  0  0  0  0  0
  -22.3390  -14.5880   20.5670 O   0  0  0  0  0  0  0  0  0  0  0  0
  -22.4110  -12.0570   22.4240 H   0  0  0  0  0  0  0  0  0  0  0  0
  -21.1050  -13.1820   22.1880 H   0  0  0  0  0  0  0  0  0  0  0  0
  -25.4090  -15.2260   20.2750 N   0  0  0  0  0  0  0  0  0  0  0  0
  -24.6360  -15.8770   20.3570 H   0  0  0  0  0  0  0  0  0  0  0  0
  -26.2490  -15.6600   19.9190 H   0  0  0  0  0  0  0  0  0  0  0  0
  -27.3840  -20.1720   19.8490 O   0  0  0  0  0  0  0  0  0  0  0  0
  -27.0890  -19.9910   20.7350 H   0  0  0  0  0  0  0  0  0  0  0  0
  1  5  1  0
  1  3  1  0
  2  5  1  0
  2  4  1  0
  4  6  1  0
  5 48  1  0
  6  7  1  0
  6  3  1  0
  8 19  2  0
  9  7  1  0
  9 14  1  0
 10 18  1  0
 10 20  1  0
 11 17  1  0
 11 13  1  0
 12 18  1  0
 13 14  2  0
 13 12  1  0
 15 16  1  0
 15  9  2  0
 16 11  2  0
 17 10  1  0
 18  8  1  0
 20 22  2  0
 21 20  1  0
 23 21  1  0
 24 33  2  0
 24 29  1  0
 25 21  1  0
 25 29  1  0
 26 25  1  0
 27 28  1  0
 27 26  1  0
 28 24  1  0
 29 30  2  0
 30 31  1  0
 32 31  2  0
 33 32  1  0
 34  8  1  0
 34 39  1  0
 34 35  1  0
 35 38  1  1
 35 36  1  0
 37 35  1  0
 39 42  1  0
 40 44  1  0
 40 39  1  0
 41 40  2  0
 44 43  1  0
 46 44  1  0
 46 47  1  0
 46 45  1  0
 48 92  1  0
 49 50  1  0
 49 52  1  0
 50 53  1  0
 51 53  1  0
 52 48  1  0
 52 51  1  0
 53 62  1  0
 54 62  1  0
 55 60  1  0
 56 57  1  0
 56 55  1  0
 58 57  1  0
 58 67  1  0
 58 59  1  0
 60 54  1  0
 60 59  1  0
 61 54  2  0
 62 63  1  0
 64 65  2  0
 65 84  1  0
 66 65  1  0
 66 69  1  0
 67 64  1  0
 67 68  1  0
 68 66  2  0
 69 70  1  0
 70 71  2  0
 72 75  1  0
 72 71  1  0
 73 72  2  0
 74 73  1  0
 74 69  2  0
 75 76  1  0
 76 77  1  0
 77 78  2  0
 79 78  1  0
 79 83  1  0
 80 79  2  0
 81 76  2  0
 81 80  1  0
 82 81  1  0
 84 85  1  0
 85 88  1  0
 85 87  1  0
 86 84  2  0
 89 90  1  0
 89 64  1  0
 91 89  1  0
 92 93  1  0
M  ISO  4   6 101   7 101  54 100  62 100
M  END
>  <TORSDO>  (18) 
F 19

>  <SCORE>  (18) 
-14.719

>  <name>  (18) 
17

>  <ligand_id>  (18) 
17

>  <original_smiles>  (18) 
[H]OC([H])(C1([H])C([H])([H])C([H])([H])C([H])(Oc2c([H])c([H])c3c(c2[H])C([H])([H])N(C(=O)C([H])(N([H])C(=O)C([H])(N([H])C([H])([H])[H])C([H])([H])[H])C(C([H])([H])[H])(C([H])([H])[H])C([H])([H])[H])C([H])(C(=O)N([H])C2([H])c4c([H])c([H])c([H])c([H])c4C([H])([H])C([H])([H])C2([H])[H])C3([H])[H])C([H])([H])C1([H])[H])C1([H])C([H])([H])C([H])([H])C([H])(N([H])C(=O)N2C([H])([H])C([H])([H])C([H])([H])C([H])(n3nc(-c4c([H])c([H])c(Oc5c([H])c([H])c(F)c([H])c5F)c([H])c4[H])c(C(=O)N([H])[H])c3N([H])[H])C2([H])[H])C1([H])[H]

>  <smiles>  (18) 
[H]OC([H])(C1([H])C([H])([H])C([H])([H])C([H])(Oc2c([H])c([H])c3c(c2[H])C([H])([H])N(C(=O)C([H])(N([H])C(=O)C([H])(N([H])C([H])([H])[H])C([H])([H])[H])C(C([H])([H])[H])(C([H])([H])[H])C([H])([H])[H])C([H])(C(=O)N([H])C2([H])c4c([H])c([H])c([H])c([H])c4C([H])([H])C([H])([H])C2([H])[H])C3([H])[H])C([H])([H])C1([H])[H])C1([H])C([H])([H])C([H])([H])C([H])(N([H])C(=O)N2C([H])([H])C([H])([H])C([H])([H])C([H])(n3nc(-c4c([H])c([H])c(Oc5c([H])c([H])c(F)c([H])c5F)c([H])c4[H])c(C(=O)N([H])[H])c3N([H])[H])C2([H])[H])C1([H])[H]

$$$$
18:0:0
     RDKit          3D

 93102  0  0  1  0  0  0  0  0999 V2000
  -29.1230  -19.0870   20.8230 C   0  0  0  0  0  3  0  0  0  0  0  0
  -31.2840  -19.6420   19.9500 C   0  0  0  0  0  3  0  0  0  0  0  0
  -29.5320  -21.4100   19.9620 C   0  0  0  0  0  0  0  0  0  0  0  0
  -30.4370  -18.6660   20.5280 C   0  0  0  0  0  0  0  0  0  0  0  0
  -28.6780  -20.4190   20.5600 C   0  0  0  0  0  0  0  0  0  0  0  0
  -30.8620  -20.9750   19.6720 C   0  0  0  0  0  0  0  0  0  0  0  0
  -27.2460  -20.7450   20.9600 C   0  0  0  0  0  1  0  0  0  0  0  0
  -31.9040  -21.8920   19.0500 C   0  0  0  0  0  1  0  0  0  0  0  0
  -29.1870  -23.2890   18.1020 C   0  0  0  0  0  2  0  0  0  0  0  0
  -29.1080  -24.8370   18.0990 C   0  0  0  0  0  2  0  0  0  0  0  0
  -29.2340  -24.1520   20.3860 C   0  0  0  0  0  2  0  0  0  0  0  0
  -28.9720  -22.8380   19.5620 C   0  0  0  0  0  3  0  0  0  0  0  0
  -28.5830  -25.2600   19.4860 C   0  0  0  0  0  3  0  0  0  0  0  0
  -28.7240  -26.7080   19.7630 O   0  0  0  0  0  0  0  0  0  0  0  0
  -24.6460  -31.6480   23.0610 C   0  0  0  0  0  0  0  0  0  0  0  0
  -27.5620  -27.4980   19.7310 C   0  0  0  0  0  0  0  0  0  0  0  0
  -23.5510  -30.3140   21.2980 C   0  0  0  0  0  3  0  0  0  0  0  0
  -25.1120  -28.9690   19.7910 C   0  0  0  0  0  0  0  0  0  0  0  0
  -26.0720  -30.7890   21.1950 C   0  0  0  0  0  2  0  0  0  0  0  0
  -26.2410  -29.4740   20.4480 C   0  0  0  0  0  0  0  0  0  0  0  0
  -27.4700  -28.7510   20.4100 C   0  0  0  0  0  3  0  0  0  0  0  0
  -26.4030  -27.0540   19.0510 C   0  0  0  0  0  3  0  0  0  0  0  0
  -25.1930  -27.7640   19.0860 C   0  0  0  0  0  3  0  0  0  0  0  0
  -23.8270  -29.7630   19.8760 C   0  0  0  0  0  2  0  0  0  0  0  0
  -24.7730  -30.9300   21.9090 N   0  0  0  0  0  0  0  0  0  0  0  0
  -23.5380  -31.8240   23.5900 O   0  0  0  0  0  0  0  0  0  0  0  0
  -22.9330  -29.1890   22.1620 C   0  0  0  0  0  0  0  0  0  0  0  0
  -21.6110  -28.9890   22.0360 N   0  0  0  0  0  0  0  0  0  0  0  0
  -23.6410  -28.5050   22.9060 O   0  0  0  0  0  0  0  0  0  0  0  0
  -21.0970  -29.5970   21.4130 H   0  0  0  0  0  0  0  0  0  0  0  0
  -18.2580  -27.7230   22.5370 C   0  0  0  0  0  0  0  0  0  0  0  0
  -20.8260  -27.9630   22.7250 C   0  0  0  0  0  3  0  0  0  0  0  0
  -20.9030  -26.6100   21.9820 C   0  0  0  0  0  2  0  0  0  0  0  0
  -19.7590  -26.4010   20.9860 C   0  0  0  0  0  2  0  0  0  0  0  0
  -18.4050  -26.4630   21.7010 C   0  0  0  0  0  2  0  0  0  0  0  0
  -19.3950  -28.4360   23.0040 C   0  0  0  0  0  0  0  0  0  0  0  0
  -19.2010  -29.6210   23.7480 C   0  0  0  0  0  3  0  0  0  0  0  0
  -17.9040  -30.0920   24.0280 C   0  0  0  0  0  3  0  0  0  0  0  0
  -16.7840  -29.3730   23.5750 C   0  0  0  0  0  3  0  0  0  0  0  0
  -16.9620  -28.1910   22.8360 C   0  0  0  0  0  3  0  0  0  0  0  0
  -25.8790  -32.3030   23.7560 C   0  0  0  0  0  3  0  0  0  0  0  0
  -25.5070  -33.6780   24.1140 N   0  0  0  0  0  0  0  0  0  0  0  0
  -25.8000  -34.7610   23.3810 C   0  0  0  0  0  0  0  0  0  0  0  0
  -26.4810  -34.7090   22.3540 O   0  0  0  0  0  0  0  0  0  0  0  0
  -24.9020  -33.7890   24.9150 H   0  0  0  0  0  0  0  0  0  0  0  0
  -23.9820  -36.4720   23.0730 C   0  0  0  0  0  1  0  0  0  0  0  0
  -25.2500  -36.1170   23.8650 C   0  0  0  0  0  3  0  0  0  0  0  0
  -27.3400  -37.1000   24.6980 C   0  0  0  0  0  1  0  0  0  0  0  0
  -26.2280  -37.2210   23.7600 N   0  0  0  0  0  0  0  0  0  0  0  0
  -25.7770  -38.1180   23.9180 H   0  0  0  0  0  0  0  0  0  0  0  0
  -26.3670  -31.5080   25.0290 C   0  0  1  0  0  0  0  0  0  0  0  0
  -25.2410  -31.2040   26.0430 C   0  0  0  0  0  1  0  0  0  0  0  0
  -27.0100  -30.1620   24.6220 C   0  0  0  0  0  1  0  0  0  0  0  0
  -27.4640  -32.3180   25.7600 C   0  0  0  0  0  1  0  0  0  0  0  0
  -31.0260  -17.2900   20.9850 C   0  0  0  0  0  2  0  0  0  0  0  0
  -31.0050  -14.8410   20.3430 C   0  0  0  0  0  0  0  0  0  0  0  0
  -30.6920  -12.6200   19.2860 C   0  0  0  0  0  2  0  0  0  0  0  0
  -29.7670  -12.7570   18.0600 C   0  0  0  0  0  2  0  0  0  0  0  0
  -28.2930  -12.6230   18.4840 C   0  0  0  0  0  2  0  0  0  0  0  0
  -27.9380  -13.5050   19.7110 C   0  0  0  0  0  3  0  0  0  0  0  0
  -28.9900  -13.3750   20.8350 C   0  0  0  0  0  2  0  0  0  0  0  0
  -30.3040  -13.6700   20.2490 N   0  0  0  0  0  0  0  0  0  0  0  0
  -32.1720  -14.9080   19.9550 O   0  0  0  0  0  0  0  0  0  0  0  0
  -30.3480  -15.9760   20.7320 N   0  0  0  0  0  0  0  0  0  0  0  0
  -29.3750  -15.8940   20.9810 H   0  0  0  0  0  0  0  0  0  0  0  0
  -25.5570  -14.1270   20.4460 C   0  0  0  0  0  0  0  0  0  0  0  0
  -24.4770  -13.3640   20.7980 C   0  0  0  0  0  0  0  0  0  0  0  0
  -24.9160  -12.0060   20.7380 C   0  0  0  0  0  0  0  0  0  0  0  0
  -26.5860  -13.2340   20.1930 N   0  0  0  0  0  0  0  0  0  0  0  0
  -26.2050  -11.9530   20.4300 N   0  0  0  0  0  0  0  0  0  0  0  0
  -24.1670  -10.7530   20.9000 C   0  0  0  0  0  0  0  0  0  0  0  0
  -24.5620   -9.7700   21.8330 C   0  0  0  0  0  3  0  0  0  0  0  0
  -23.8140   -8.5840   21.9850 C   0  0  0  0  0  3  0  0  0  0  0  0
  -22.6540   -8.3710   21.2030 C   0  0  0  0  0  0  0  0  0  0  0  0
  -22.2770   -9.3430   20.2590 C   0  0  0  0  0  3  0  0  0  0  0  0
  -23.0260  -10.5210   20.1050 C   0  0  0  0  0  3  0  0  0  0  0  0
  -21.8800   -7.2370   21.2630 O   0  0  0  0  0  0  0  0  0  0  0  0
  -21.7720   -6.4990   22.4140 C   0  0  0  0  0  0  0  0  0  0  0  0
  -21.2630   -7.0520   23.6090 C   0  0  0  0  0  3  0  0  0  0  0  0
  -21.1050   -6.2390   24.7490 C   0  0  0  0  0  3  0  0  0  0  0  0
  -21.4480   -4.8740   24.6950 C   0  0  0  0  0  0  0  0  0  0  0  0
  -21.9510   -4.3210   23.5050 C   0  0  0  0  0  3  0  0  0  0  0  0
  -22.1100   -5.1310   22.3670 C   0  0  0  0  0  0  0  0  0  0  0  0
  -22.5760   -4.5880   21.2160 F   0  0  0  0  0  0  0  0  0  0  0  0
  -21.2890   -4.0920   25.7880 F   0  0  0  0  0  0  0  0  0  0  0  0
  -23.0890  -13.8610   21.0800 C   0  0  0  0  0  0  0  0  0  0  0  0
  -22.3490  -13.1610   21.9330 N   0  0  0  0  0  0  0  0  0  0  0  0
  -22.6690  -14.9030   20.5800 O   0  0  0  0  0  0  0  0  0  0  0  0
  -22.7040  -12.3180   22.3590 H   0  0  0  0  0  0  0  0  0  0  0  0
  -21.4180  -13.4750   22.1650 H   0  0  0  0  0  0  0  0  0  0  0  0
  -25.7440  -15.4980   20.2950 N   0  0  0  0  0  0  0  0  0  0  0  0
  -24.9850  -16.1600   20.4100 H   0  0  0  0  0  0  0  0  0  0  0  0
  -26.5970  -15.9290   19.9590 H   0  0  0  0  0  0  0  0  0  0  0  0
  2  4  1  0
  3  5  2  0
  4  1  2  0
  4 55  1  0
  5  1  1  0
  5  7  1  0
  6  2  2  0
  6  3  1  0
  8  6  1  0
  9 12  1  0
 10  9  1  0
 10 13  1  0
 12  3  1  0
 12 11  1  0
 13 14  1  0
 13 11  1  0
 15 26  2  0
 16 14  1  0
 16 21  1  0
 17 25  1  0
 17 27  1  0
 18 24  1  0
 18 20  1  0
 19 25  1  0
 20 19  1  0
 21 20  2  0
 22 23  1  0
 22 16  2  0
 23 18  2  0
 24 17  1  0
 25 15  1  0
 27 29  2  0
 28 27  1  0
 30 28  1  0
 31 40  2  0
 31 36  1  0
 32 28  1  0
 32 36  1  0
 33 32  1  0
 34 35  1  0
 34 33  1  0
 35 31  1  0
 36 37  2  0
 37 38  1  0
 39 38  2  0
 40 39  1  0
 41 15  1  0
 41 42  1  0
 41 51  1  0
 42 45  1  0
 43 47  1  0
 43 42  1  0
 44 43  2  0
 47 46  1  0
 49 47  1  0
 49 50  1  0
 49 48  1  0
 51 54  1  1
 51 52  1  0
 53 51  1  0
 56 64  1  0
 57 62  1  0
 58 59  1  0
 58 57  1  0
 60 59  1  0
 60 69  1  0
 60 61  1  0
 62 56  1  0
 62 61  1  0
 63 56  2  0
 64 65  1  0
 64 55  1  0
 66 67  2  0
 67 86  1  0
 68 67  1  0
 68 71  1  0
 69 70  1  0
 69 66  1  0
 70 68  2  0
 71 72  1  0
 72 73  2  0
 74 77  1  0
 74 73  1  0
 75 74  2  0
 76 75  1  0
 76 71  2  0
 77 78  1  0
 78 79  1  0
 79 80  2  0
 81 80  1  0
 81 85  1  0
 82 81  2  0
 83 78  2  0
 83 82  1  0
 84 83  1  0
 86 87  1  0
 87 90  1  0
 87 89  1  0
 88 86  2  0
 91 92  1  0
 91 66  1  0
 93 91  1  0
M  ISO  4  13 101  14 101  56 100  64 100
M  END
>  <TORSDO>  (19) 
F 18

>  <SCORE>  (19) 
-12.794

>  <name>  (19) 
18

>  <ligand_id>  (19) 
18

>  <original_smiles>  (19) 
[H]c1c([H])c([H])c2c(c1[H])C([H])([H])C([H])([H])C([H])([H])C2([H])N([H])C(=O)C1([H])N(C(=O)C([H])(N([H])C(=O)C([H])(N([H])C([H])([H])[H])C([H])([H])[H])C(C([H])([H])[H])(C([H])([H])[H])C([H])([H])[H])C([H])([H])c2c([H])c(OC3([H])C([H])([H])C([H])([H])C([H])(c4c(C([H])([H])[H])c([H])c(C([H])([H])N([H])C(=O)N5C([H])([H])C([H])([H])C([H])([H])C([H])(n6nc(-c7c([H])c([H])c(Oc8c([H])c([H])c(F)c([H])c8F)c([H])c7[H])c(C(=O)N([H])[H])c6N([H])[H])C5([H])[H])c([H])c4C([H])([H])[H])C3([H])[H])c([H])c([H])c2C1([H])[H]

>  <smiles>  (19) 
[H]c1c([H])c([H])c2c(c1[H])C([H])([H])C([H])([H])C([H])([H])C2([H])N([H])C(=O)C1([H])N(C(=O)C([H])(N([H])C(=O)C([H])(N([H])C([H])([H])[H])C([H])([H])[H])C(C([H])([H])[H])(C([H])([H])[H])C([H])([H])[H])C([H])([H])c2c([H])c(OC3([H])C([H])([H])C([H])([H])C([H])(c4c(C([H])([H])[H])c([H])c(C([H])([H])N([H])C(=O)N5C([H])([H])C([H])([H])C([H])([H])C([H])(n6nc(-c7c([H])c([H])c(Oc8c([H])c([H])c(F)c([H])c8F)c([H])c7[H])c(C(=O)N([H])[H])c6N([H])[H])C5([H])[H])c([H])c4C([H])([H])[H])C3([H])[H])c([H])c([H])c2C1([H])[H]

$$$$
19:0:0
     RDKit          3D

101109  0  0  1  0  0  0  0  0999 V2000
  -27.7060  -20.7920   20.6030 C   0  0  0  0  0  3  0  0  0  0  0  0
  -28.6310  -19.7390   20.4690 C   0  0  0  0  0  3  0  0  0  0  0  0
  -29.3430  -22.3530   19.7440 C   0  0  0  0  0  3  0  0  0  0  0  0
  -30.2910  -21.3090   19.6160 C   0  0  0  0  0  0  0  0  0  0  0  0
  -28.0450  -22.1100   20.2450 C   0  0  0  0  0  0  0  0  0  0  0  0
  -29.9330  -19.9800   19.9640 C   0  0  0  0  0  0  0  0  0  0  0  0
  -31.7340  -22.7650   18.0850 C   0  0  0  0  0  1  0  0  0  0  0  0
  -31.7120  -21.6290   19.1250 C   0  0  0  0  0  3  0  0  0  0  0  0
  -32.7540  -21.8810   20.2560 C   0  0  0  0  0  2  0  0  0  0  0  0
  -32.3070  -21.6800   21.7190 C   0  0  0  0  0  2  0  0  0  0  0  0
  -31.9000  -20.2850   22.0070 N   0  0  0  0  0  4  0  0  0  0  0  0
  -32.6370  -19.6850   21.6720 H   0  0  0  0  0  0  0  0  0  0  0  0
  -31.0690  -20.0710   21.4740 H   0  0  0  0  0  0  0  0  0  0  0  0
  -31.0660  -18.5680   23.5860 C   0  0  0  0  0  1  0  0  0  0  0  0
  -30.7780  -21.0140   24.1410 C   0  0  0  0  0  1  0  0  0  0  0  0
  -31.6760  -19.9730   23.4410 C   0  0  0  0  0  3  0  0  0  0  0  0
  -27.0770  -23.0740   20.4310 O   0  0  0  0  0  0  0  0  0  0  0  0
  -27.4380  -24.4520   20.5750 C   0  0  0  0  0  2  0  0  0  0  0  0
  -27.7270  -25.0960   19.1910 C   0  0  0  0  0  2  0  0  0  0  0  0
  -27.9070  -26.5240   19.2080 O   0  0  0  0  0  0  0  0  0  0  0  0
  -24.7160  -31.4340   23.1930 C   0  0  0  0  0  0  0  0  0  0  0  0
  -26.7940  -27.3300   19.3260 C   0  0  0  0  0  0  0  0  0  0  0  0
  -23.2980  -30.3640   21.4710 C   0  0  0  0  0  3  0  0  0  0  0  0
  -24.5270  -28.9660   19.7270 C   0  0  0  0  0  0  0  0  0  0  0  0
  -25.8200  -30.5900   21.1220 C   0  0  0  0  0  2  0  0  0  0  0  0
  -25.7550  -29.3210   20.2990 C   0  0  0  0  0  0  0  0  0  0  0  0
  -26.8920  -28.5080   20.0980 C   0  0  0  0  0  3  0  0  0  0  0  0
  -25.5560  -27.0140   18.7170 C   0  0  0  0  0  3  0  0  0  0  0  0
  -24.4220  -27.8170   18.9280 C   0  0  0  0  0  3  0  0  0  0  0  0
  -23.3570  -29.8820   19.9960 C   0  0  0  0  0  2  0  0  0  0  0  0
  -24.6360  -30.8010   21.9880 N   0  0  0  0  0  0  0  0  0  0  0  0
  -23.6960  -31.6880   23.8500 O   0  0  0  0  0  0  0  0  0  0  0  0
  -22.6410  -29.2570   22.3290 C   0  0  0  0  0  0  0  0  0  0  0  0
  -21.3040  -29.1550   22.2510 N   0  0  0  0  0  0  0  0  0  0  0  0
  -23.3300  -28.5000   23.0170 O   0  0  0  0  0  0  0  0  0  0  0  0
  -20.8130  -29.8180   21.6680 H   0  0  0  0  0  0  0  0  0  0  0  0
  -17.9110  -28.0000   22.6980 C   0  0  0  0  0  0  0  0  0  0  0  0
  -20.4780  -28.1620   22.9360 C   0  0  0  0  0  3  0  0  0  0  0  0
  -20.5310  -26.8000   22.2060 C   0  0  0  0  0  2  0  0  0  0  0  0
  -19.3950  -26.6070   21.1960 C   0  0  0  0  0  2  0  0  0  0  0  0
  -18.0360  -26.7190   21.8920 C   0  0  0  0  0  2  0  0  0  0  0  0
  -19.0590  -28.6850   23.1790 C   0  0  0  0  0  0  0  0  0  0  0  0
  -18.8870  -29.8860   23.9020 C   0  0  0  0  0  3  0  0  0  0  0  0
  -17.5990  -30.4010   24.1450 C   0  0  0  0  0  3  0  0  0  0  0  0
  -16.4660  -29.7150   23.6750 C   0  0  0  0  0  3  0  0  0  0  0  0
  -16.6240  -28.5150   22.9580 C   0  0  0  0  0  3  0  0  0  0  0  0
  -26.0850  -31.8830   23.7930 C   0  0  0  0  0  3  0  0  0  0  0  0
  -25.9030  -33.2340   24.3390 N   0  0  0  0  0  0  0  0  0  0  0  0
  -26.2850  -34.3590   23.7210 C   0  0  0  0  0  0  0  0  0  0  0  0
  -26.8950  -34.3600   22.6490 O   0  0  0  0  0  0  0  0  0  0  0  0
  -25.3610  -33.3110   25.1870 H   0  0  0  0  0  0  0  0  0  0  0  0
  -24.6840  -36.2980   23.7300 C   0  0  0  0  0  1  0  0  0  0  0  0
  -25.9310  -35.6950   24.3980 C   0  0  0  0  0  3  0  0  0  0  0  0
  -28.1680  -36.3010   25.2160 C   0  0  0  0  0  1  0  0  0  0  0  0
  -27.0370  -36.6790   24.3710 N   0  0  0  0  0  0  0  0  0  0  0  0
  -26.7130  -37.5960   24.6640 H   0  0  0  0  0  0  0  0  0  0  0  0
  -26.6290  -30.9000   24.9000 C   0  0  1  0  0  0  0  0  0  0  0  0
  -25.6010  -30.5920   26.0150 C   0  0  0  0  0  1  0  0  0  0  0  0
  -27.0570  -29.5570   24.2670 C   0  0  0  0  0  1  0  0  0  0  0  0
  -27.8940  -31.5010   25.5570 C   0  0  0  0  0  1  0  0  0  0  0  0
  -30.8960  -18.9960   19.8300 O   0  0  0  0  0  0  0  0  0  0  0  0
  -30.5120  -17.6230   19.8880 C   0  0  0  0  0  2  0  0  0  0  0  0
  -31.7560  -16.7190   19.9870 C   0  0  0  0  0  2  0  0  0  0  0  0
  -31.7800  -14.2750   19.3720 C   0  0  0  0  0  0  0  0  0  0  0  0
  -31.4010  -11.8770   18.9080 C   0  0  0  0  0  2  0  0  0  0  0  0
  -30.3710  -11.6820   17.7790 C   0  0  0  0  0  2  0  0  0  0  0  0
  -28.9310  -11.7100   18.3310 C   0  0  0  0  0  2  0  0  0  0  0  0
  -28.6720  -12.9390   19.2400 C   0  0  0  0  0  3  0  0  0  0  0  0
  -29.7880  -13.0520   20.3000 C   0  0  0  0  0  2  0  0  0  0  0  0
  -31.0880  -13.1310   19.6070 N   0  0  0  0  0  0  0  0  0  0  0  0
  -32.7320  -14.3560   18.5880 O   0  0  0  0  0  0  0  0  0  0  0  0
  -31.3520  -15.3190   20.0930 N   0  0  0  0  0  0  0  0  0  0  0  0
  -30.6070  -15.1160   20.7420 H   0  0  0  0  0  0  0  0  0  0  0  0
  -26.5250  -13.9120   20.2860 C   0  0  0  0  0  0  0  0  0  0  0  0
  -25.3790  -13.3180   20.7400 C   0  0  0  0  0  0  0  0  0  0  0  0
  -25.5650  -11.9120   20.5590 C   0  0  0  0  0  0  0  0  0  0  0  0
  -27.3510  -12.8790   19.8650 N   0  0  0  0  0  0  0  0  0  0  0  0
  -26.7780  -11.6680   20.0820 N   0  0  0  0  0  0  0  0  0  0  0  0
  -24.6380  -10.7920   20.7580 C   0  0  0  0  0  0  0  0  0  0  0  0
  -24.9440   -9.7260   21.6330 C   0  0  0  0  0  3  0  0  0  0  0  0
  -24.0280   -8.6680   21.8170 C   0  0  0  0  0  3  0  0  0  0  0  0
  -22.7920   -8.6690   21.1320 C   0  0  0  0  0  0  0  0  0  0  0  0
  -22.5030   -9.7200   20.2430 C   0  0  0  0  0  3  0  0  0  0  0  0
  -23.4170  -10.7700   20.0540 C   0  0  0  0  0  3  0  0  0  0  0  0
  -21.8530   -7.6720   21.2300 O   0  0  0  0  0  0  0  0  0  0  0  0
  -21.6840   -6.9530   22.3890 C   0  0  0  0  0  0  0  0  0  0  0  0
  -21.3350   -7.5760   23.6070 C   0  0  0  0  0  3  0  0  0  0  0  0
  -21.1040   -6.7930   24.7560 C   0  0  0  0  0  3  0  0  0  0  0  0
  -21.2120   -5.3910   24.6880 C   0  0  0  0  0  0  0  0  0  0  0  0
  -21.5580   -4.7680   23.4760 C   0  0  0  0  0  3  0  0  0  0  0  0
  -21.7900   -5.5480   22.3270 C   0  0  0  0  0  0  0  0  0  0  0  0
  -22.1000   -4.9430   21.1560 F   0  0  0  0  0  0  0  0  0  0  0  0
  -20.9800   -4.6400   25.7890 F   0  0  0  0  0  0  0  0  0  0  0  0
  -24.1390  -14.0140   21.2230 C   0  0  0  0  0  0  0  0  0  0  0  0
  -23.4150  -13.4050   22.1550 N   0  0  0  0  0  0  0  0  0  0  0  0
  -23.8310  -15.1320   20.8090 O   0  0  0  0  0  0  0  0  0  0  0  0
  -23.6810  -12.4990   22.5130 H   0  0  0  0  0  0  0  0  0  0  0  0
  -22.5860  -13.8530   22.5180 H   0  0  0  0  0  0  0  0  0  0  0  0
  -26.9250  -15.2400   20.1790 N   0  0  0  0  0  0  0  0  0  0  0  0
  -26.3140  -16.0090   20.4340 H   0  0  0  0  0  0  0  0  0  0  0  0
  -27.7900  -15.5460   19.7520 H   0  0  0  0  0  0  0  0  0  0  0  0
  2  1  1  0
  3  5  1  0
  4  3  2  0
  4  6  1  0
  5 17  1  0
  5  1  2  0
  6  2  2  0
  8  7  1  0
  8  4  1  0
  8  9  1  0
  9 10  1  0
 10 11  1  0
 11 16  1  0
 12 11  1  0
 13 11  1  0
 16 14  1  0
 16 15  1  0
 17 18  1  0
 19 20  1  0
 19 18  1  0
 20 22  1  0
 21 32  2  0
 22 27  1  0
 23 31  1  0
 23 33  1  0
 24 30  1  0
 24 26  1  0
 25 31  1  0
 26 25  1  0
 27 26  2  0
 28 29  1  0
 28 22  2  0
 29 24  2  0
 30 23  1  0
 31 21  1  0
 33 35  2  0
 34 33  1  0
 36 34  1  0
 37 46  2  0
 37 42  1  0
 38 34  1  0
 38 42  1  0
 39 38  1  0
 40 41  1  0
 40 39  1  0
 41 37  1  0
 42 43  2  0
 43 44  1  0
 45 44  2  0
 46 45  1  0
 47 21  1  0
 47 48  1  0
 47 57  1  0
 48 51  1  0
 49 48  1  0
 49 53  1  0
 50 49  2  0
 53 52  1  0
 55 53  1  0
 55 56  1  0
 55 54  1  0
 57 60  1  1
 57 58  1  0
 59 57  1  0
 61 62  1  0
 61  6  1  0
 62 63  1  0
 63 72  1  0
 64 70  1  0
 64 72  1  0
 65 70  1  0
 66 67  1  0
 66 65  1  0
 68 67  1  0
 68 77  1  0
 68 69  1  0
 70 69  1  0
 71 64  2  0
 72 73  1  0
 74 75  2  0
 75 94  1  0
 76 75  1  0
 76 79  1  0
 77 78  1  0
 77 74  1  0
 78 76  2  0
 79 80  1  0
 80 81  2  0
 82 85  1  0
 82 81  1  0
 83 82  2  0
 84 83  1  0
 84 79  2  0
 85 86  1  0
 86 87  1  0
 87 88  2  0
 89 88  1  0
 89 93  1  0
 90 89  2  0
 91 86  2  0
 91 90  1  0
 92 91  1  0
 94 95  1  0
 95 97  1  0
 95 98  1  0
 96 94  2  0
 99 74  1  0
 99100  1  0
101 99  1  0
M  ISO  4  19 101  20 101  64 100  72 100
M  END
>  <TORSDO>  (20) 
F 27

>  <SCORE>  (20) 
-9.969

>  <name>  (20) 
19

>  <ligand_id>  (20) 
19

>  <original_smiles>  (20) 
[H]c1c([H])c([H])c2c(c1[H])C([H])([H])C([H])([H])C([H])([H])C2([H])N([H])C(=O)C1([H])N(C(=O)C([H])(N([H])C(=O)C([H])(N([H])C([H])([H])[H])C([H])([H])[H])C(C([H])([H])[H])(C([H])([H])[H])C([H])([H])[H])C([H])([H])c2c([H])c(OC([H])([H])C([H])([H])Oc3c([H])c([H])c(OC([H])([H])C([H])([H])N([H])C(=O)N4C([H])([H])C([H])([H])C([H])([H])C([H])(n5nc(-c6c([H])c([H])c(Oc7c([H])c([H])c(F)c([H])c7F)c([H])c6[H])c(C(=O)N([H])[H])c5N([H])[H])C4([H])[H])c(C([H])(C([H])([H])[H])C([H])([H])C([H])([H])[N+]([H])([H])C([H])(C([H])([H])[H])C([H])([H])[H])c3[H])c([H])c([H])c2C1([H])[H]

>  <smiles>  (20) 
[H]c1c([H])c([H])c2c(c1[H])C([H])([H])C([H])([H])C([H])([H])C2([H])N([H])C(=O)C1([H])N(C(=O)C([H])(N([H])C(=O)C([H])(N([H])C([H])([H])[H])C([H])([H])[H])C(C([H])([H])[H])(C([H])([H])[H])C([H])([H])[H])C([H])([H])c2c([H])c(OC([H])([H])C([H])([H])Oc3c([H])c([H])c(OC([H])([H])C([H])([H])N([H])C(=O)N4C([H])([H])C([H])([H])C([H])([H])C([H])(n5nc(-c6c([H])c([H])c(Oc7c([H])c([H])c(F)c([H])c7F)c([H])c6[H])c(C(=O)N([H])[H])c5N([H])[H])C4([H])[H])c(C([H])(C([H])([H])[H])C([H])([H])C([H])([H])[N+]([H])([H])C([H])(C([H])([H])[H])C([H])([H])[H])c3[H])c([H])c([H])c2C1([H])[H]

$$$$
20:0:0
     RDKit          3D

 98106  0  0  1  0  0  0  0  0999 V2000
  -30.2610  -20.8200   18.6450 C   0  0  0  0  0  3  0  0  0  0  0  0
  -27.6200  -21.3770   19.3840 C   0  0  0  0  0  3  0  0  0  0  0  0
  -29.3040  -19.7840   18.6370 C   0  0  0  0  0  0  0  0  0  0  0  0
  -29.8890  -22.1420   18.9440 C   0  0  0  0  0  0  0  0  0  0  0  0
  -27.9500  -20.0680   18.9510 C   0  0  0  0  0  0  0  0  0  0  0  0
  -28.5760  -22.4100   19.4040 C   0  0  0  0  0  0  0  0  0  0  0  0
  -30.4570  -23.9150   17.5420 C   0  0  0  0  0  1  0  0  0  0  0  0
  -30.7990  -23.1350   18.6870 O   0  0  0  0  0  0  0  0  0  0  0  0
  -25.6290  -19.3890   18.9330 C   0  0  0  0  0  1  0  0  0  0  0  0
  -27.0160  -19.0560   18.8110 O   0  0  0  0  0  0  0  0  0  0  0  0
  -29.7490  -18.3850   18.2260 C   0  0  0  0  0  2  0  0  0  0  0  0
  -29.8020  -17.4500   19.3680 N   0  0  0  0  0  4  0  0  0  0  0  0
  -29.8300  -16.5200   18.9860 H   0  0  0  0  0  0  0  0  0  0  0  0
  -28.9460  -17.5490   19.8890 H   0  0  0  0  0  0  0  0  0  0  0  0
  -30.9740  -17.5930   20.2630 C   0  0  0  0  0  2  0  0  0  0  0  0
  -30.9150  -16.6350   21.4760 C   0  0  0  0  0  2  0  0  0  0  0  0
  -30.9950  -14.3630   20.4260 C   0  0  0  0  0  0  0  0  0  0  0  0
  -30.6590  -12.2000   19.2910 C   0  0  0  0  0  2  0  0  0  0  0  0
  -29.7030  -12.3580   18.0920 C   0  0  0  0  0  2  0  0  0  0  0  0
  -28.2320  -12.2520   18.5430 C   0  0  0  0  0  2  0  0  0  0  0  0
  -27.9140  -13.1450   19.7720 C   0  0  0  0  0  3  0  0  0  0  0  0
  -28.9680  -12.9350   20.8790 C   0  0  0  0  0  2  0  0  0  0  0  0
  -30.2980  -13.2070   20.2980 N   0  0  0  0  0  0  0  0  0  0  0  0
  -32.0580  -14.5960   19.8420 O   0  0  0  0  0  0  0  0  0  0  0  0
  -30.3910  -15.3030   21.1670 N   0  0  0  0  0  0  0  0  0  0  0  0
  -29.5300  -15.0290   21.6200 H   0  0  0  0  0  0  0  0  0  0  0  0
  -25.5430  -13.8180   20.5190 C   0  0  0  0  0  0  0  0  0  0  0  0
  -24.4560  -13.0730   20.8960 C   0  0  0  0  0  0  0  0  0  0  0  0
  -24.8770  -11.7100   20.8380 C   0  0  0  0  0  0  0  0  0  0  0  0
  -26.5580  -12.9090   20.2630 N   0  0  0  0  0  0  0  0  0  0  0  0
  -26.1610  -11.6360   20.5090 N   0  0  0  0  0  0  0  0  0  0  0  0
  -24.1190  -10.4660   21.0230 C   0  0  0  0  0  0  0  0  0  0  0  0
  -24.5180   -9.4900   21.9610 C   0  0  0  0  0  3  0  0  0  0  0  0
  -23.7620   -8.3090   22.1330 C   0  0  0  0  0  3  0  0  0  0  0  0
  -22.5920   -8.0990   21.3660 C   0  0  0  0  0  0  0  0  0  0  0  0
  -22.2100   -9.0650   20.4170 C   0  0  0  0  0  3  0  0  0  0  0  0
  -22.9660  -10.2360   20.2440 C   0  0  0  0  0  3  0  0  0  0  0  0
  -21.8090   -6.9720   21.4460 O   0  0  0  0  0  0  0  0  0  0  0  0
  -21.7140   -6.2450   22.6060 C   0  0  0  0  0  0  0  0  0  0  0  0
  -21.2320   -6.8150   23.8050 C   0  0  0  0  0  3  0  0  0  0  0  0
  -21.0840   -6.0140   24.9540 C   0  0  0  0  0  3  0  0  0  0  0  0
  -21.4040   -4.6440   24.9060 C   0  0  0  0  0  0  0  0  0  0  0  0
  -21.8790   -4.0740   23.7100 C   0  0  0  0  0  3  0  0  0  0  0  0
  -22.0290   -4.8720   22.5630 C   0  0  0  0  0  0  0  0  0  0  0  0
  -22.4660   -4.3140   21.4090 F   0  0  0  0  0  0  0  0  0  0  0  0
  -21.2550   -3.8730   26.0070 F   0  0  0  0  0  0  0  0  0  0  0  0
  -23.0780  -13.5890   21.1950 C   0  0  0  0  0  0  0  0  0  0  0  0
  -22.3470  -12.9080   22.0720 N   0  0  0  0  0  0  0  0  0  0  0  0
  -22.6590  -14.6280   20.6880 O   0  0  0  0  0  0  0  0  0  0  0  0
  -22.6970  -12.0650   22.5020 H   0  0  0  0  0  0  0  0  0  0  0  0
  -21.4240  -13.2350   22.3160 H   0  0  0  0  0  0  0  0  0  0  0  0
  -25.7440  -15.1840   20.3540 N   0  0  0  0  0  0  0  0  0  0  0  0
  -24.9940  -15.8570   20.4770 H   0  0  0  0  0  0  0  0  0  0  0  0
  -26.5800  -15.5940   19.9630 H   0  0  0  0  0  0  0  0  0  0  0  0
  -28.1440  -23.6500   19.8080 O   0  0  0  0  0  0  0  0  0  0  0  0
  -29.0000  -24.3930   20.6720 C   0  0  0  0  0  2  0  0  0  0  0  0
  -28.2030  -25.6210   21.1110 C   0  0  0  0  0  2  0  0  0  0  0  0
  -27.9780  -26.4280   19.9570 O   0  0  0  0  0  0  0  0  0  0  0  0
  -24.4880  -31.7250   23.1560 C   0  0  0  0  0  0  0  0  0  0  0  0
  -26.8470  -27.1910   20.0310 C   0  0  0  0  0  0  0  0  0  0  0  0
  -23.1650  -30.3610   21.5640 C   0  0  0  0  0  3  0  0  0  0  0  0
  -24.5080  -28.7530   20.1090 C   0  0  0  0  0  0  0  0  0  0  0  0
  -25.6880  -30.6290   21.2700 C   0  0  0  0  0  2  0  0  0  0  0  0
  -25.6970  -29.2430   20.6630 C   0  0  0  0  0  0  0  0  0  0  0  0
  -26.8700  -28.4620   20.6360 C   0  0  0  0  0  3  0  0  0  0  0  0
  -25.6530  -26.7050   19.4670 C   0  0  0  0  0  3  0  0  0  0  0  0
  -24.4780  -27.4790   19.5090 C   0  0  0  0  0  3  0  0  0  0  0  0
  -23.2960  -29.6560   20.1850 C   0  0  0  0  0  2  0  0  0  0  0  0
  -24.4670  -30.9210   22.0530 N   0  0  0  0  0  0  0  0  0  0  0  0
  -23.4390  -32.0460   23.7320 O   0  0  0  0  0  0  0  0  0  0  0  0
  -22.5050  -29.3800   22.5590 C   0  0  0  0  0  0  0  0  0  0  0  0
  -21.1770  -29.2130   22.4450 N   0  0  0  0  0  0  0  0  0  0  0  0
  -23.1850  -28.7690   23.3870 O   0  0  0  0  0  0  0  0  0  0  0  0
  -20.6880  -29.7640   21.7510 H   0  0  0  0  0  0  0  0  0  0  0  0
  -17.8000  -28.0420   22.9410 C   0  0  0  0  0  0  0  0  0  0  0  0
  -20.3520  -28.3060   23.2430 C   0  0  0  0  0  3  0  0  0  0  0  0
  -20.4610  -26.8500   22.7300 C   0  0  0  0  0  2  0  0  0  0  0  0
  -19.3720  -26.4870   21.7150 C   0  0  0  0  0  2  0  0  0  0  0  0
  -17.9810  -26.6620   22.3310 C   0  0  0  0  0  2  0  0  0  0  0  0
  -18.9110  -28.8190   23.3550 C   0  0  0  0  0  0  0  0  0  0  0  0
  -18.6850  -30.1070   23.8860 C   0  0  0  0  0  3  0  0  0  0  0  0
  -17.3780  -30.6150   24.0120 C   0  0  0  0  0  3  0  0  0  0  0  0
  -16.2800  -29.8340   23.6130 C   0  0  0  0  0  3  0  0  0  0  0  0
  -16.4930  -28.5510   23.0820 C   0  0  0  0  0  3  0  0  0  0  0  0
  -25.8210  -32.3010   23.7230 C   0  0  0  0  0  3  0  0  0  0  0  0
  -26.3830  -31.4750   24.9440 C   0  0  1  0  0  0  0  0  0  0  0  0
  -25.3400  -31.2160   26.0570 C   0  0  0  0  0  1  0  0  0  0  0  0
  -26.9150  -30.1010   24.4710 C   0  0  0  0  0  1  0  0  0  0  0  0
  -27.5860  -32.2200   25.5720 C   0  0  0  0  0  1  0  0  0  0  0  0
  -25.5730  -33.6970   24.1060 N   0  0  0  0  0  0  0  0  0  0  0  0
  -25.9220  -34.7590   23.3660 C   0  0  0  0  0  0  0  0  0  0  0  0
  -26.5590  -34.6630   22.3130 O   0  0  0  0  0  0  0  0  0  0  0  0
  -25.0070  -33.8460   24.9280 H   0  0  0  0  0  0  0  0  0  0  0  0
  -24.2680  -36.6350   23.0920 C   0  0  0  0  0  1  0  0  0  0  0  0
  -25.4970  -36.1500   23.8770 C   0  0  0  0  0  3  0  0  0  0  0  0
  -27.6680  -36.9200   24.7230 C   0  0  0  0  0  1  0  0  0  0  0  0
  -26.5710  -37.1630   23.7910 N   0  0  0  0  0  0  0  0  0  0  0  0
  -26.2020  -38.0920   23.9680 H   0  0  0  0  0  0  0  0  0  0  0  0
  1  4  1  0
  2  6  1  0
  3  1  2  0
  3  5  1  0
  4  6  2  0
  5  2  2  0
  6 55  1  0
  7  8  1  0
  8  4  1  0
 10  9  1  0
 10  5  1  0
 11  3  1  0
 11 12  1  0
 12 14  1  0
 12 15  1  0
 13 12  1  0
 15 16  1  0
 17 25  1  0
 18 23  1  0
 19 20  1  0
 19 18  1  0
 21 20  1  0
 21 30  1  0
 21 22  1  0
 23 17  1  0
 23 22  1  0
 24 17  2  0
 25 16  1  0
 25 26  1  0
 27 28  2  0
 28 47  1  0
 29 28  1  0
 29 32  1  0
 30 31  1  0
 30 27  1  0
 31 29  2  0
 32 33  1  0
 33 34  2  0
 35 38  1  0
 35 34  1  0
 36 35  2  0
 37 36  1  0
 37 32  2  0
 38 39  1  0
 39 40  1  0
 40 41  2  0
 42 41  1  0
 42 46  1  0
 43 42  2  0
 44 39  2  0
 44 43  1  0
 45 44  1  0
 47 48  1  0
 48 51  1  0
 48 50  1  0
 49 47  2  0
 52 53  1  0
 52 27  1  0
 54 52  1  0
 55 56  1  0
 56 57  1  0
 58 60  1  0
 58 57  1  0
 59 70  2  0
 60 65  1  0
 61 69  1  0
 61 71  1  0
 62 68  1  0
 62 64  1  0
 63 69  1  0
 64 63  1  0
 65 64  2  0
 66 67  1  0
 66 60  2  0
 67 62  2  0
 68 61  1  0
 69 59  1  0
 71 73  2  0
 72 71  1  0
 74 72  1  0
 75 84  2  0
 75 80  1  0
 76 72  1  0
 76 80  1  0
 77 76  1  0
 78 79  1  0
 78 77  1  0
 79 75  1  0
 80 81  2  0
 81 82  1  0
 83 82  2  0
 84 83  1  0
 85 59  1  0
 85 90  1  0
 85 86  1  0
 86 89  1  1
 86 87  1  0
 88 86  1  0
 90 93  1  0
 91 95  1  0
 91 90  1  0
 92 91  2  0
 95 94  1  0
 97 95  1  0
 97 98  1  0
 97 96  1  0
M  ISO  4  17 100  25 100  57 101  58 101
M  END
>  <TORSDO>  (21) 
F 25

>  <SCORE>  (21) 
-11.562

>  <name>  (21) 
20

>  <ligand_id>  (21) 
20

>  <original_smiles>  (21) 
[H]c1c([H])c([H])c2c(c1[H])C([H])([H])C([H])([H])C([H])([H])C2([H])N([H])C(=O)C1([H])N(C(=O)C([H])(N([H])C(=O)C([H])(N([H])C([H])([H])[H])C([H])([H])[H])C(C([H])([H])[H])(C([H])([H])[H])C([H])([H])[H])C([H])([H])c2c([H])c(OC([H])([H])C([H])([H])Oc3c([H])c(OC([H])([H])[H])c(C([H])([H])[N+]([H])([H])C([H])([H])C([H])([H])N([H])C(=O)N4C([H])([H])C([H])([H])C([H])([H])C([H])(n5nc(-c6c([H])c([H])c(Oc7c([H])c([H])c(F)c([H])c7F)c([H])c6[H])c(C(=O)N([H])[H])c5N([H])[H])C4([H])[H])c([H])c3OC([H])([H])[H])c([H])c([H])c2C1([H])[H]

>  <smiles>  (21) 
[H]c1c([H])c([H])c2c(c1[H])C([H])([H])C([H])([H])C([H])([H])C2([H])N([H])C(=O)C1([H])N(C(=O)C([H])(N([H])C(=O)C([H])(N([H])C([H])([H])[H])C([H])([H])[H])C(C([H])([H])[H])(C([H])([H])[H])C([H])([H])[H])C([H])([H])c2c([H])c(OC([H])([H])C([H])([H])Oc3c([H])c(OC([H])([H])[H])c(C([H])([H])[N+]([H])([H])C([H])([H])C([H])([H])N([H])C(=O)N4C([H])([H])C([H])([H])C([H])([H])C([H])(n5nc(-c6c([H])c([H])c(Oc7c([H])c([H])c(F)c([H])c7F)c([H])c6[H])c(C(=O)N([H])[H])c5N([H])[H])C4([H])[H])c([H])c3OC([H])([H])[H])c([H])c([H])c2C1([H])[H]

$$$$
21:0:0
     RDKit          3D

 94103  0  0  1  0  0  0  0  0999 V2000
  -28.7650  -22.8250   20.9980 C   0  0  0  0  0  3  0  0  0  0  0  0
  -26.1530  -23.2570   20.1850 C   0  0  0  0  0  0  0  0  0  0  0  0
  -26.7500  -21.9730   20.0890 C   0  0  0  0  0  0  0  0  0  0  0  0
  -28.1690  -24.1440   21.0920 C   0  0  0  0  0  0  0  0  0  0  0  0
  -26.8080  -24.3690   20.7000 C   0  0  0  0  0  0  0  0  0  0  0  0
  -28.0500  -21.6860   20.4930 C   0  0  0  0  0  0  0  0  0  0  0  0
  -24.8370  -22.7910   19.6160 C   0  0  0  0  0  2  0  0  0  0  0  0
  -25.5080  -21.3380   19.5130 C   0  0  0  0  0  2  0  0  0  0  0  0
  -26.0780  -25.6950   20.8300 C   0  0  0  0  0  1  0  0  0  0  0  0
  -28.9830  -25.3310   21.6290 C   0  0  0  0  0  2  0  0  0  0  0  0
  -29.6490  -26.2020   20.5300 C   0  0  0  0  0  2  0  0  0  0  0  0
  -29.5710  -27.6220   20.7930 O   0  0  0  0  0  0  0  0  0  0  0  0
  -24.9320  -32.0590   23.8780 C   0  0  0  0  0  0  0  0  0  0  0  0
  -28.3500  -28.2660   20.6800 C   0  0  0  0  0  0  0  0  0  0  0  0
  -24.0930  -30.8280   21.9070 C   0  0  0  0  0  3  0  0  0  0  0  0
  -25.8580  -29.6140   20.5250 C   0  0  0  0  0  0  0  0  0  0  0  0
  -26.5830  -31.3720   22.1400 C   0  0  0  0  0  2  0  0  0  0  0  0
  -26.8730  -30.1140   21.3470 C   0  0  0  0  0  0  0  0  0  0  0  0
  -28.1190  -29.4470   21.4260 C   0  0  0  0  0  3  0  0  0  0  0  0
  -27.3250  -27.8100   19.8180 C   0  0  0  0  0  3  0  0  0  0  0  0
  -26.0810  -28.4610   19.7550 C   0  0  0  0  0  3  0  0  0  0  0  0
  -24.5500  -30.3710   20.4960 C   0  0  0  0  0  2  0  0  0  0  0  0
  -25.2120  -31.4280   22.7020 N   0  0  0  0  0  0  0  0  0  0  0  0
  -23.7670  -32.1800   24.2780 O   0  0  0  0  0  0  0  0  0  0  0  0
  -23.4070  -29.6370   22.6160 C   0  0  0  0  0  0  0  0  0  0  0  0
  -22.1190  -29.4210   22.3080 N   0  0  0  0  0  0  0  0  0  0  0  0
  -24.0360  -28.9190   23.3980 O   0  0  0  0  0  0  0  0  0  0  0  0
  -21.6730  -30.0600   21.6670 H   0  0  0  0  0  0  0  0  0  0  0  0
  -18.7590  -28.0880   22.3280 C   0  0  0  0  0  0  0  0  0  0  0  0
  -21.2820  -28.3380   22.8250 C   0  0  0  0  0  3  0  0  0  0  0  0
  -21.4700  -27.0430   22.0000 C   0  0  0  0  0  2  0  0  0  0  0  0
  -20.4490  -26.8940   20.8680 C   0  0  0  0  0  2  0  0  0  0  0  0
  -19.0230  -26.8950   21.4250 C   0  0  0  0  0  2  0  0  0  0  0  0
  -19.8210  -28.7750   22.9720 C   0  0  0  0  0  0  0  0  0  0  0  0
  -19.5230  -29.8990   23.7720 C   0  0  0  0  0  3  0  0  0  0  0  0
  -18.1950  -30.3370   23.9330 C   0  0  0  0  0  3  0  0  0  0  0  0
  -17.1460  -29.6440   23.3060 C   0  0  0  0  0  3  0  0  0  0  0  0
  -17.4280  -28.5210   22.5090 C   0  0  0  0  0  3  0  0  0  0  0  0
  -26.0600  -32.6810   24.7590 C   0  0  0  0  0  3  0  0  0  0  0  0
  -25.6930  -34.0790   25.0250 N   0  0  0  0  0  0  0  0  0  0  0  0
  -26.1590  -35.1300   24.3370 C   0  0  0  0  0  0  0  0  0  0  0  0
  -27.0080  -35.0270   23.4480 O   0  0  0  0  0  0  0  0  0  0  0  0
  -24.9580  -34.2350   25.6990 H   0  0  0  0  0  0  0  0  0  0  0  0
  -24.5010  -36.9050   23.6790 C   0  0  0  0  0  1  0  0  0  0  0  0
  -25.5900  -36.5180   24.6920 C   0  0  0  0  0  3  0  0  0  0  0  0
  -27.5680  -37.4110   25.8430 C   0  0  0  0  0  1  0  0  0  0  0  0
  -26.6200  -37.5790   24.7450 N   0  0  0  0  0  0  0  0  0  0  0  0
  -26.1890  -38.4950   24.8350 H   0  0  0  0  0  0  0  0  0  0  0  0
  -26.2950  -31.9000   26.1110 C   0  0  1  0  0  0  0  0  0  0  0  0
  -24.9960  -31.6210   26.9000 C   0  0  0  0  0  1  0  0  0  0  0  0
  -26.9880  -30.5440   25.8430 C   0  0  0  0  0  1  0  0  0  0  0  0
  -27.2450  -32.7090   27.0250 C   0  0  0  0  0  1  0  0  0  0  0  0
  -28.4640  -20.3800   20.3540 O   0  0  0  0  0  0  0  0  0  0  0  0
  -29.8180  -19.9830   20.5430 C   0  0  0  0  0  2  0  0  0  0  0  0
  -29.7380  -18.4350   20.5620 C   0  0  0  0  0  2  0  0  0  0  0  0
  -31.0610  -17.6420   20.6510 C   0  0  0  0  0  2  0  0  0  0  0  0
  -31.5270  -15.1640   20.5710 C   0  0  0  0  0  0  0  0  0  0  0  0
  -31.3380  -12.8240   19.8100 C   0  0  0  0  0  2  0  0  0  0  0  0
  -30.5130  -12.7910   18.5050 C   0  0  0  0  0  2  0  0  0  0  0  0
  -29.0010  -12.7240   18.8080 C   0  0  0  0  0  2  0  0  0  0  0  0
  -28.5540  -13.7820   19.8510 C   0  0  0  0  0  3  0  0  0  0  0  0
  -29.4920  -13.7650   21.0790 C   0  0  0  0  0  2  0  0  0  0  0  0
  -30.8720  -13.9720   20.6030 N   0  0  0  0  0  0  0  0  0  0  0  0
  -32.6760  -15.2980   20.1400 O   0  0  0  0  0  0  0  0  0  0  0  0
  -30.7720  -16.2240   20.9050 N   0  0  0  0  0  0  0  0  0  0  0  0
  -29.8500  -16.0050   21.2490 H   0  0  0  0  0  0  0  0  0  0  0  0
  -26.1620  -14.5510   20.4150 C   0  0  0  0  0  0  0  0  0  0  0  0
  -25.0210  -13.8520   20.7000 C   0  0  0  0  0  0  0  0  0  0  0  0
  -25.3860  -12.4710   20.6670 C   0  0  0  0  0  0  0  0  0  0  0  0
  -27.1560  -13.6010   20.2320 N   0  0  0  0  0  0  0  0  0  0  0  0
  -26.6870  -12.3440   20.4380 N   0  0  0  0  0  0  0  0  0  0  0  0
  -24.5620  -11.2610   20.7830 C   0  0  0  0  0  0  0  0  0  0  0  0
  -24.8860  -10.2310   21.6940 C   0  0  0  0  0  3  0  0  0  0  0  0
  -24.0700   -9.0830   21.7980 C   0  0  0  0  0  3  0  0  0  0  0  0
  -22.9160   -8.9590   20.9900 C   0  0  0  0  0  0  0  0  0  0  0  0
  -22.6110   -9.9750   20.0680 C   0  0  0  0  0  3  0  0  0  0  0  0
  -23.4260  -11.1150   19.9620 C   0  0  0  0  0  3  0  0  0  0  0  0
  -22.0790   -7.8700   21.0040 O   0  0  0  0  0  0  0  0  0  0  0  0
  -21.9540   -7.0730   22.1140 C   0  0  0  0  0  0  0  0  0  0  0  0
  -21.5540   -7.5930   23.3640 C   0  0  0  0  0  3  0  0  0  0  0  0
  -21.3710   -6.7280   24.4600 C   0  0  0  0  0  3  0  0  0  0  0  0
  -21.5790   -5.3430   24.3080 C   0  0  0  0  0  0  0  0  0  0  0  0
  -21.9730   -4.8230   23.0630 C   0  0  0  0  0  3  0  0  0  0  0  0
  -22.1570   -5.6860   21.9680 C   0  0  0  0  0  0  0  0  0  0  0  0
  -22.5160   -5.1770   20.7650 F   0  0  0  0  0  0  0  0  0  0  0  0
  -21.3940   -4.5100   25.3590 F   0  0  0  0  0  0  0  0  0  0  0  0
  -23.6460  -14.4230   20.8950 C   0  0  0  0  0  0  0  0  0  0  0  0
  -22.8200  -13.7670   21.7020 N   0  0  0  0  0  0  0  0  0  0  0  0
  -23.3130  -15.4850   20.3700 O   0  0  0  0  0  0  0  0  0  0  0  0
  -23.1020  -12.9090   22.1520 H   0  0  0  0  0  0  0  0  0  0  0  0
  -21.8940  -14.1310   21.8750 H   0  0  0  0  0  0  0  0  0  0  0  0
  -26.4380  -15.9100   20.2770 N   0  0  0  0  0  0  0  0  0  0  0  0
  -25.7170  -16.6200   20.3480 H   0  0  0  0  0  0  0  0  0  0  0  0
  -27.3370  -16.2830   20.0010 H   0  0  0  0  0  0  0  0  0  0  0  0
  1  4  1  0
  2  5  1  0
  3  2  2  0
  3  6  1  0
  4 10  1  0
  5  9  1  0
  5  4  2  0
  6  1  2  0
  7  2  1  0
  8  7  1  0
  8  3  1  0
 11 12  1  0
 11 10  1  0
 13 24  2  0
 14 12  1  0
 14 19  1  0
 15 25  1  0
 15 23  1  0
 16 18  1  0
 17 23  1  0
 18 19  2  0
 18 17  1  0
 20 14  2  0
 21 20  1  0
 21 16  2  0
 22 16  1  0
 22 15  1  0
 23 13  1  0
 25 27  2  0
 26 25  1  0
 28 26  1  0
 29 38  2  0
 29 34  1  0
 30 26  1  0
 30 34  1  0
 31 30  1  0
 32 33  1  0
 32 31  1  0
 33 29  1  0
 34 35  2  0
 35 36  1  0
 37 36  2  0
 38 37  1  0
 39 13  1  0
 39 40  1  0
 39 49  1  0
 40 43  1  0
 41 45  1  0
 41 40  1  0
 42 41  2  0
 45 44  1  0
 45 47  1  0
 47 48  1  0
 47 46  1  0
 49 50  1  1
 49 52  1  0
 51 49  1  0
 53  6  1  0
 53 54  1  0
 54 55  1  0
 55 56  1  0
 56 65  1  0
 57 63  1  0
 57 65  1  0
 58 63  1  0
 59 60  1  0
 59 58  1  0
 61 60  1  0
 61 70  1  0
 61 62  1  0
 63 62  1  0
 64 57  2  0
 65 66  1  0
 67 68  2  0
 68 87  1  0
 69 68  1  0
 69 72  1  0
 70 67  1  0
 70 71  1  0
 71 69  2  0
 72 73  1  0
 73 74  2  0
 75 78  1  0
 75 74  1  0
 76 75  2  0
 77 76  1  0
 77 72  2  0
 78 79  1  0
 79 80  1  0
 80 81  2  0
 82 81  1  0
 82 86  1  0
 83 82  2  0
 84 79  2  0
 84 83  1  0
 85 84  1  0
 87 88  1  0
 88 91  1  0
 88 90  1  0
 89 87  2  0
 92 93  1  0
 92 67  1  0
 94 92  1  0
M  ISO  4  11 101  12 101  57 100  65 100
M  END
>  <TORSDO>  (22) 
F 22

>  <SCORE>  (22) 
-9.162

>  <name>  (22) 
21

>  <ligand_id>  (22) 
21

>  <original_smiles>  (22) 
[H]c1c([H])c([H])c2c(c1[H])C([H])([H])C([H])([H])C([H])([H])C2([H])N([H])C(=O)C1([H])N(C(=O)C([H])(N([H])C(=O)C([H])(N([H])C([H])([H])[H])C([H])([H])[H])C(C([H])([H])[H])(C([H])([H])[H])C([H])([H])[H])C([H])([H])c2c([H])c(OC([H])([H])C([H])([H])c3c([H])c(OC([H])([H])C([H])([H])C([H])([H])N([H])C(=O)N4C([H])([H])C([H])([H])C([H])([H])C([H])(n5nc(-c6c([H])c([H])c(Oc7c([H])c([H])c(F)c([H])c7F)c([H])c6[H])c(C(=O)N([H])[H])c5N([H])[H])C4([H])[H])c4c(c3C([H])([H])[H])C([H])([H])C4([H])[H])c([H])c([H])c2C1([H])[H]

>  <smiles>  (22) 
[H]c1c([H])c([H])c2c(c1[H])C([H])([H])C([H])([H])C([H])([H])C2([H])N([H])C(=O)C1([H])N(C(=O)C([H])(N([H])C(=O)C([H])(N([H])C([H])([H])[H])C([H])([H])[H])C(C([H])([H])[H])(C([H])([H])[H])C([H])([H])[H])C([H])([H])c2c([H])c(OC([H])([H])C([H])([H])c3c([H])c(OC([H])([H])C([H])([H])C([H])([H])N([H])C(=O)N4C([H])([H])C([H])([H])C([H])([H])C([H])(n5nc(-c6c([H])c([H])c(Oc7c([H])c([H])c(F)c([H])c7F)c([H])c6[H])c(C(=O)N([H])[H])c5N([H])[H])C4([H])[H])c4c(c3C([H])([H])[H])C([H])([H])C4([H])[H])c([H])c([H])c2C1([H])[H]

$$$$
22:0:0
     RDKit          3D

 97106  0  0  1  0  0  0  0  0999 V2000
  -30.7450  -20.2690   21.1370 C   0  0  0  0  0  3  0  0  0  0  0  0
  -28.6000  -20.8680   19.5100 C   0  0  0  0  0  0  0  0  0  0  0  0
  -30.1570  -19.2020   20.4180 C   0  0  0  0  0  0  0  0  0  0  0  0
  -29.0570  -19.5160   19.5790 C   0  0  0  0  0  0  0  0  0  0  0  0
  -29.2530  -21.8540   20.2960 C   0  0  0  0  0  0  0  0  0  0  0  0
  -28.3720  -18.4210   18.7610 C   0  0  0  0  0  1  0  0  0  0  0  0
  -30.3090  -21.5540   21.0850 N   0  0  0  0  0  0  0  0  0  0  0  0
  -27.4300  -22.4720   17.6610 C   0  0  0  0  0  2  0  0  0  0  0  0
  -25.9460  -22.5720   18.0120 C   0  0  0  0  0  2  0  0  0  0  0  0
  -27.4230  -21.2570   18.5900 C   0  0  0  0  0  3  0  0  0  0  0  0
  -26.2660  -21.8630   19.2500 N   0  0  0  0  0  4  0  0  0  0  0  0
  -25.5540  -21.2170   19.5530 H   0  0  0  0  0  0  0  0  0  0  0  0
  -26.5260  -22.5100   19.9750 H   0  0  0  0  0  0  0  0  0  0  0  0
  -30.7180  -17.7630   20.5420 C   0  0  0  0  0  2  0  0  0  0  0  0
  -29.8250  -16.8400   21.4170 C   0  0  0  0  0  2  0  0  0  0  0  0
  -30.6130  -14.4920   20.5540 C   0  0  0  0  0  0  0  0  0  0  0  0
  -30.3410  -12.3990   19.2510 C   0  0  0  0  0  2  0  0  0  0  0  0
  -29.3700  -12.6640   18.0780 C   0  0  0  0  0  2  0  0  0  0  0  0
  -27.8990  -12.5100   18.5180 C   0  0  0  0  0  2  0  0  0  0  0  0
  -27.5870  -13.2650   19.8360 C   0  0  0  0  0  3  0  0  0  0  0  0
  -28.6550  -12.9400   20.9070 C   0  0  0  0  0  2  0  0  0  0  0  0
  -29.9780  -13.3000   20.3570 N   0  0  0  0  0  0  0  0  0  0  0  0
  -31.6840  -14.7830   20.0130 O   0  0  0  0  0  0  0  0  0  0  0  0
  -29.8940  -15.3650   21.2890 N   0  0  0  0  0  0  0  0  0  0  0  0
  -29.1040  -14.9060   21.7190 H   0  0  0  0  0  0  0  0  0  0  0  0
  -25.1850  -13.8630   20.5540 C   0  0  0  0  0  0  0  0  0  0  0  0
  -24.1180  -13.0870   20.9190 C   0  0  0  0  0  0  0  0  0  0  0  0
  -24.5790  -11.7360   20.8690 C   0  0  0  0  0  0  0  0  0  0  0  0
  -26.2320  -12.9860   20.3110 N   0  0  0  0  0  0  0  0  0  0  0  0
  -25.8680  -11.7000   20.5530 N   0  0  0  0  0  0  0  0  0  0  0  0
  -23.8550  -10.4710   21.0480 C   0  0  0  0  0  0  0  0  0  0  0  0
  -24.2730   -9.5100   21.9940 C   0  0  0  0  0  3  0  0  0  0  0  0
  -23.5520   -8.3090   22.1600 C   0  0  0  0  0  3  0  0  0  0  0  0
  -22.3980   -8.0600   21.3800 C   0  0  0  0  0  0  0  0  0  0  0  0
  -22.0000   -9.0100   20.4230 C   0  0  0  0  0  3  0  0  0  0  0  0
  -22.7220  -10.2040   20.2550 C   0  0  0  0  0  3  0  0  0  0  0  0
  -21.6490   -6.9110   21.4550 O   0  0  0  0  0  0  0  0  0  0  0  0
  -21.5530   -6.1880   22.6180 C   0  0  0  0  0  0  0  0  0  0  0  0
  -21.0570   -6.7570   23.8100 C   0  0  0  0  0  3  0  0  0  0  0  0
  -20.9110   -5.9590   24.9640 C   0  0  0  0  0  3  0  0  0  0  0  0
  -21.2510   -4.5930   24.9230 C   0  0  0  0  0  0  0  0  0  0  0  0
  -21.7420   -4.0250   23.7340 C   0  0  0  0  0  3  0  0  0  0  0  0
  -21.8900   -4.8210   22.5850 C   0  0  0  0  0  0  0  0  0  0  0  0
  -22.3420   -4.2630   21.4360 F   0  0  0  0  0  0  0  0  0  0  0  0
  -21.1050   -3.8250   26.0280 F   0  0  0  0  0  0  0  0  0  0  0  0
  -22.7220  -13.5600   21.2090 C   0  0  0  0  0  0  0  0  0  0  0  0
  -22.0000  -12.8490   22.0690 N   0  0  0  0  0  0  0  0  0  0  0  0
  -22.2790  -14.5920   20.7070 O   0  0  0  0  0  0  0  0  0  0  0  0
  -22.3700  -12.0120   22.4940 H   0  0  0  0  0  0  0  0  0  0  0  0
  -21.0630  -13.1460   22.3020 H   0  0  0  0  0  0  0  0  0  0  0  0
  -25.3500  -15.2360   20.3910 N   0  0  0  0  0  0  0  0  0  0  0  0
  -24.5840  -15.8900   20.5040 H   0  0  0  0  0  0  0  0  0  0  0  0
  -26.2010  -15.6740   20.0620 H   0  0  0  0  0  0  0  0  0  0  0  0
  -28.7520  -23.1580   20.2920 O   0  0  0  0  0  0  0  0  0  0  0  0
  -29.3370  -24.2260   21.0710 C   0  0  0  0  0  2  0  0  0  0  0  0
  -28.2970  -25.3620   21.3440 C   0  0  0  0  0  2  0  0  0  0  0  0
  -28.4860  -26.6420   20.6840 O   0  0  0  0  0  0  0  0  0  0  0  0
  -24.5500  -31.9960   23.3610 C   0  0  0  0  0  0  0  0  0  0  0  0
  -27.3380  -27.4160   20.5900 C   0  0  0  0  0  0  0  0  0  0  0  0
  -23.4180  -30.5120   21.7410 C   0  0  0  0  0  3  0  0  0  0  0  0
  -24.9370  -28.9260   20.4380 C   0  0  0  0  0  0  0  0  0  0  0  0
  -25.9520  -30.8760   21.6260 C   0  0  0  0  0  2  0  0  0  0  0  0
  -26.0720  -29.4780   21.0460 C   0  0  0  0  0  0  0  0  0  0  0  0
  -27.2780  -28.7330   21.1130 C   0  0  0  0  0  3  0  0  0  0  0  0
  -26.1870  -26.8970   19.9570 C   0  0  0  0  0  3  0  0  0  0  0  0
  -24.9920  -27.6350   19.8880 C   0  0  0  0  0  3  0  0  0  0  0  0
  -23.6850  -29.7760   20.4020 C   0  0  0  0  0  2  0  0  0  0  0  0
  -24.6560  -31.1470   22.2990 N   0  0  0  0  0  0  0  0  0  0  0  0
  -23.4460  -32.2840   23.8440 O   0  0  0  0  0  0  0  0  0  0  0  0
  -22.7350  -29.5300   22.7220 C   0  0  0  0  0  0  0  0  0  0  0  0
  -21.4270  -29.2990   22.5250 N   0  0  0  0  0  0  0  0  0  0  0  0
  -23.3840  -28.9790   23.6150 O   0  0  0  0  0  0  0  0  0  0  0  0
  -20.9650  -29.7970   21.7760 H   0  0  0  0  0  0  0  0  0  0  0  0
  -18.0750  -27.9860   22.8500 C   0  0  0  0  0  0  0  0  0  0  0  0
  -20.5900  -28.3820   23.2970 C   0  0  0  0  0  3  0  0  0  0  0  0
  -20.7970  -26.9190   22.8410 C   0  0  0  0  0  2  0  0  0  0  0  0
  -19.7930  -26.4730   21.7730 C   0  0  0  0  0  2  0  0  0  0  0  0
  -18.3590  -26.6000   22.2960 C   0  0  0  0  0  2  0  0  0  0  0  0
  -19.1240  -28.8280   23.3060 C   0  0  0  0  0  0  0  0  0  0  0  0
  -18.8070  -30.1200   23.7800 C   0  0  0  0  0  3  0  0  0  0  0  0
  -17.4750  -30.5710   23.8070 C   0  0  0  0  0  3  0  0  0  0  0  0
  -16.4390  -29.7270   23.3720 C   0  0  0  0  0  3  0  0  0  0  0  0
  -16.7380  -28.4370   22.8990 C   0  0  0  0  0  3  0  0  0  0  0  0
  -25.8050  -32.6680   24.0000 C   0  0  0  0  0  3  0  0  0  0  0  0
  -25.4620  -34.0690   24.2830 N   0  0  0  0  0  0  0  0  0  0  0  0
  -25.7910  -35.1060   23.5010 C   0  0  0  0  0  0  0  0  0  0  0  0
  -26.4870  -34.9850   22.4880 O   0  0  0  0  0  0  0  0  0  0  0  0
  -24.8530  -34.2360   25.0700 H   0  0  0  0  0  0  0  0  0  0  0  0
  -24.0330  -36.8480   23.0640 C   0  0  0  0  0  1  0  0  0  0  0  0
  -25.2690  -36.4960   23.9080 C   0  0  0  0  0  3  0  0  0  0  0  0
  -27.3700  -37.4520   24.7440 C   0  0  0  0  0  1  0  0  0  0  0  0
  -26.2810  -37.5670   23.7770 N   0  0  0  0  0  0  0  0  0  0  0  0
  -25.8530  -38.4830   23.8890 H   0  0  0  0  0  0  0  0  0  0  0  0
  -26.2990  -31.9410   25.3100 C   0  0  1  0  0  0  0  0  0  0  0  0
  -25.1750  -31.6840   26.3410 C   0  0  0  0  0  1  0  0  0  0  0  0
  -26.9460  -30.5800   24.9650 C   0  0  0  0  0  1  0  0  0  0  0  0
  -27.3950  -32.7880   25.9980 C   0  0  0  0  0  1  0  0  0  0  0  0
  2  4  2  0
  2  5  1  0
  3 14  1  0
  3  1  2  0
  4  3  1  0
  5  7  2  0
  6  4  1  0
  7  1  1  0
  8  9  1  0
  8 10  1  0
  9 11  1  0
 10 11  1  0
 10  2  1  0
 11 12  1  0
 11 13  1  0
 14 15  1  0
 16 24  1  0
 17 22  1  0
 18 19  1  0
 18 17  1  0
 20 19  1  0
 20 29  1  0
 20 21  1  0
 22 16  1  0
 22 21  1  0
 23 16  2  0
 24 15  1  0
 24 25  1  0
 26 27  2  0
 27 46  1  0
 28 27  1  0
 28 31  1  0
 29 30  1  0
 29 26  1  0
 30 28  2  0
 31 32  1  0
 32 33  2  0
 34 37  1  0
 34 33  1  0
 35 34  2  0
 36 35  1  0
 36 31  2  0
 37 38  1  0
 38 39  1  0
 39 40  2  0
 41 40  1  0
 41 45  1  0
 42 41  2  0
 43 38  2  0
 43 42  1  0
 44 43  1  0
 46 47  1  0
 47 50  1  0
 47 49  1  0
 48 46  2  0
 51 52  1  0
 51 26  1  0
 53 51  1  0
 54  5  1  0
 54 55  1  0
 55 56  1  0
 57 56  1  0
 58 69  2  0
 59 57  1  0
 59 64  1  0
 60 68  1  0
 60 70  1  0
 61 63  1  0
 62 68  1  0
 63 64  2  0
 63 62  1  0
 65 59  2  0
 66 65  1  0
 66 61  2  0
 67 61  1  0
 67 60  1  0
 68 58  1  0
 70 72  2  0
 71 70  1  0
 73 71  1  0
 74 83  2  0
 74 79  1  0
 75 71  1  0
 75 79  1  0
 76 75  1  0
 77 78  1  0
 77 76  1  0
 78 74  1  0
 79 80  2  0
 80 81  1  0
 82 81  2  0
 83 82  1  0
 84 58  1  0
 84 85  1  0
 84 94  1  0
 85 88  1  0
 86 90  1  0
 86 85  1  0
 87 86  2  0
 90 89  1  0
 92 93  1  0
 92 90  1  0
 92 91  1  0
 94 97  1  1
 94 95  1  0
 96 94  1  0
M  ISO  4  16 100  24 100  56 101  57 101
M  END
>  <TORSDO>  (23) 
F 22

>  <SCORE>  (23) 
-13.348

>  <name>  (23) 
22

>  <ligand_id>  (23) 
22

>  <original_smiles>  (23) 
[H]c1nc(OC([H])([H])C([H])([H])Oc2c([H])c([H])c3c(c2[H])C([H])([H])N(C(=O)C([H])(N([H])C(=O)C([H])(N([H])C([H])([H])[H])C([H])([H])[H])C(C([H])([H])[H])(C([H])([H])[H])C([H])([H])[H])C([H])(C(=O)N([H])C2([H])c4c([H])c([H])c([H])c([H])c4C([H])([H])C([H])([H])C2([H])[H])C3([H])[H])c(C2([H])C([H])([H])C([H])([H])[N+]2([H])[H])c(C([H])([H])[H])c1C([H])([H])C([H])([H])N([H])C(=O)N1C([H])([H])C([H])([H])C([H])([H])C([H])(n2nc(-c3c([H])c([H])c(Oc4c([H])c([H])c(F)c([H])c4F)c([H])c3[H])c(C(=O)N([H])[H])c2N([H])[H])C1([H])[H]

>  <smiles>  (23) 
[H]c1nc(OC([H])([H])C([H])([H])Oc2c([H])c([H])c3c(c2[H])C([H])([H])N(C(=O)C([H])(N([H])C(=O)C([H])(N([H])C([H])([H])[H])C([H])([H])[H])C(C([H])([H])[H])(C([H])([H])[H])C([H])([H])[H])C([H])(C(=O)N([H])C2([H])c4c([H])c([H])c([H])c([H])c4C([H])([H])C([H])([H])C2([H])[H])C3([H])[H])c(C2([H])C([H])([H])C([H])([H])[N+]2([H])[H])c(C([H])([H])[H])c1C([H])([H])C([H])([H])N([H])C(=O)N1C([H])([H])C([H])([H])C([H])([H])C([H])(n2nc(-c3c([H])c([H])c(Oc4c([H])c([H])c(F)c([H])c4F)c([H])c3[H])c(C(=O)N([H])[H])c2N([H])[H])C1([H])[H]

$$$$
23:0:0
     RDKit          3D

 93101  0  0  1  0  0  0  0  0999 V2000
  -28.1290  -24.7220   20.4220 C   0  0  0  0  0  3  0  0  0  0  0  0
  -29.8050  -23.5290   18.6580 C   0  0  0  0  0  3  0  0  0  0  0  0
  -28.5250  -23.3320   20.6190 C   0  0  0  0  0  0  0  0  0  0  0  0
  -29.4330  -22.6350   19.7280 C   0  0  0  0  0  0  0  0  0  0  0  0
  -28.5970  -25.5330   19.3470 C   0  0  0  0  0  0  0  0  0  0  0  0
  -29.4420  -24.8670   18.4920 N   0  0  0  0  0  0  0  0  0  0  0  0
  -29.0600  -22.4620   22.9400 C   0  0  0  0  0  1  0  0  0  0  0  0
  -27.9740  -22.6230   21.8580 C   0  0  0  0  0  3  0  0  0  0  0  0
  -26.2100  -22.8030   23.7390 C   0  0  0  0  0  1  0  0  0  0  0  0
  -26.7180  -23.3440   22.3940 C   0  0  0  0  0  2  0  0  0  0  0  0
  -30.0940  -21.3220   20.0160 N   0  0  0  0  0  0  0  0  0  0  0  0
  -30.5270  -21.3550   20.9380 H   0  0  0  0  0  0  0  0  0  0  0  0
  -29.8130  -19.8260   19.6710 C   0  0  0  0  0  3  0  0  0  0  0  0
  -30.8360  -18.5900   20.2080 C   0  0  0  0  0  3  0  0  0  0  0  0
  -31.3180  -15.8810   20.3640 C   0  0  0  0  0  0  0  0  0  0  0  0
  -31.3360  -13.4240   19.7420 C   0  0  0  0  0  2  0  0  0  0  0  0
  -30.5160  -13.1810   18.4530 C   0  0  0  0  0  2  0  0  0  0  0  0
  -29.0240  -12.9890   18.7830 C   0  0  0  0  0  2  0  0  0  0  0  0
  -28.4970  -14.0500   19.7870 C   0  0  0  0  0  3  0  0  0  0  0  0
  -29.4470  -14.2430   20.9850 C   0  0  0  0  0  2  0  0  0  0  0  0
  -30.7550  -14.6090   20.4330 N   0  0  0  0  0  0  0  0  0  0  0  0
  -32.5410  -15.9490   20.1990 O   0  0  0  0  0  0  0  0  0  0  0  0
  -30.5030  -17.0460   20.2850 N   0  0  0  0  0  0  0  0  0  0  0  0
  -29.5170  -16.8460   20.3470 H   0  0  0  0  0  0  0  0  0  0  0  0
  -26.1040  -14.6820   20.4290 C   0  0  0  0  0  0  0  0  0  0  0  0
  -25.0010  -13.9300   20.7220 C   0  0  0  0  0  0  0  0  0  0  0  0
  -25.4240  -12.5670   20.6690 C   0  0  0  0  0  0  0  0  0  0  0  0
  -27.1290  -13.7780   20.2090 N   0  0  0  0  0  0  0  0  0  0  0  0
  -26.7270  -12.4990   20.4220 N   0  0  0  0  0  0  0  0  0  0  0  0
  -24.6510  -11.3240   20.7810 C   0  0  0  0  0  0  0  0  0  0  0  0
  -24.9310  -10.3670   21.7820 C   0  0  0  0  0  3  0  0  0  0  0  0
  -24.1590   -9.1890   21.8820 C   0  0  0  0  0  3  0  0  0  0  0  0
  -23.0940   -8.9600   20.9780 C   0  0  0  0  0  0  0  0  0  0  0  0
  -22.8360   -9.9040   19.9690 C   0  0  0  0  0  3  0  0  0  0  0  0
  -23.6070  -11.0740   19.8680 C   0  0  0  0  0  3  0  0  0  0  0  0
  -22.3070   -7.8330   20.9830 O   0  0  0  0  0  0  0  0  0  0  0  0
  -21.9630   -7.2010   22.1500 C   0  0  0  0  0  0  0  0  0  0  0  0
  -21.2490   -7.8620   23.1730 C   0  0  0  0  0  3  0  0  0  0  0  0
  -20.8550   -7.1550   24.3280 C   0  0  0  0  0  3  0  0  0  0  0  0
  -21.1630   -5.7880   24.4560 C   0  0  0  0  0  0  0  0  0  0  0  0
  -21.8690   -5.1260   23.4350 C   0  0  0  0  0  3  0  0  0  0  0  0
  -22.2650   -5.8300   22.2840 C   0  0  0  0  0  0  0  0  0  0  0  0
  -22.9270   -5.1830   21.2950 F   0  0  0  0  0  0  0  0  0  0  0  0
  -20.7780   -5.1060   25.5600 F   0  0  0  0  0  0  0  0  0  0  0  0
  -23.6060  -14.4440   20.9360 C   0  0  0  0  0  0  0  0  0  0  0  0
  -22.8220  -13.7630   21.7630 N   0  0  0  0  0  0  0  0  0  0  0  0
  -23.2210  -15.4850   20.4060 O   0  0  0  0  0  0  0  0  0  0  0  0
  -23.1460  -12.9190   22.2150 H   0  0  0  0  0  0  0  0  0  0  0  0
  -21.8850  -14.0880   21.9480 H   0  0  0  0  0  0  0  0  0  0  0  0
  -26.3160  -16.0520   20.3020 N   0  0  0  0  0  0  0  0  0  0  0  0
  -25.5600  -16.7220   20.3910 H   0  0  0  0  0  0  0  0  0  0  0  0
  -27.1790  -16.4720   19.9840 H   0  0  0  0  0  0  0  0  0  0  0  0
  -28.4710  -26.9920   19.2020 O   0  0  0  0  0  0  0  0  0  0  0  0
  -24.7990  -31.9260   23.2780 C   0  0  0  0  0  0  0  0  0  0  0  0
  -27.3330  -27.8400   19.4320 C   0  0  0  0  0  0  0  0  0  0  0  0
  -23.5390  -30.7320   21.5260 C   0  0  0  0  0  3  0  0  0  0  0  0
  -24.9400  -29.4430   19.8000 C   0  0  0  0  0  0  0  0  0  0  0  0
  -26.0600  -31.1410   21.2420 C   0  0  0  0  0  2  0  0  0  0  0  0
  -26.1380  -29.8580   20.3960 C   0  0  0  0  0  0  0  0  0  0  0  0
  -27.3320  -29.0740   20.1970 C   0  0  0  0  0  3  0  0  0  0  0  0
  -26.1070  -27.5200   18.8160 C   0  0  0  0  0  3  0  0  0  0  0  0
  -24.9330  -28.2880   18.9990 C   0  0  0  0  0  3  0  0  0  0  0  0
  -23.6880  -30.2680   20.0530 C   0  0  0  0  0  2  0  0  0  0  0  0
  -24.8230  -31.2810   22.0730 N   0  0  0  0  0  0  0  0  0  0  0  0
  -23.7430  -32.0810   23.9100 O   0  0  0  0  0  0  0  0  0  0  0  0
  -22.9640  -29.5660   22.3680 C   0  0  0  0  0  0  0  0  0  0  0  0
  -21.6450  -29.3240   22.2570 N   0  0  0  0  0  0  0  0  0  0  0  0
  -23.7040  -28.8860   23.0820 O   0  0  0  0  0  0  0  0  0  0  0  0
  -21.1020  -29.9270   21.6550 H   0  0  0  0  0  0  0  0  0  0  0  0
  -18.3670  -27.8580   22.7150 C   0  0  0  0  0  0  0  0  0  0  0  0
  -20.9150  -28.2430   22.9210 C   0  0  0  0  0  3  0  0  0  0  0  0
  -21.0730  -26.9110   22.1500 C   0  0  0  0  0  2  0  0  0  0  0  0
  -19.9480  -26.6620   21.1410 C   0  0  0  0  0  2  0  0  0  0  0  0
  -18.5900  -26.6300   21.8500 C   0  0  0  0  0  2  0  0  0  0  0  0
  -19.4570  -28.6250   23.2050 C   0  0  0  0  0  0  0  0  0  0  0  0
  -19.1920  -29.7770   23.9760 C   0  0  0  0  0  3  0  0  0  0  0  0
  -17.8680  -30.1650   24.2590 C   0  0  0  0  0  3  0  0  0  0  0  0
  -16.7920  -29.3960   23.7820 C   0  0  0  0  0  3  0  0  0  0  0  0
  -17.0430  -28.2430   23.0160 C   0  0  0  0  0  3  0  0  0  0  0  0
  -26.0950  -32.5170   23.9150 C   0  0  0  0  0  3  0  0  0  0  0  0
  -25.7990  -33.8960   24.3360 N   0  0  0  0  0  0  0  0  0  0  0  0
  -26.0980  -34.9930   23.6260 C   0  0  0  0  0  0  0  0  0  0  0  0
  -26.7200  -34.9480   22.5620 O   0  0  0  0  0  0  0  0  0  0  0  0
  -25.2380  -34.0020   25.1680 H   0  0  0  0  0  0  0  0  0  0  0  0
  -24.3460  -36.7930   23.4730 C   0  0  0  0  0  1  0  0  0  0  0  0
  -25.6350  -36.3520   24.1850 C   0  0  0  0  0  3  0  0  0  0  0  0
  -27.8060  -37.2150   24.9450 C   0  0  0  0  0  1  0  0  0  0  0  0
  -26.6570  -37.4160   24.0660 N   0  0  0  0  0  0  0  0  0  0  0  0
  -26.2580  -38.3280   24.2720 H   0  0  0  0  0  0  0  0  0  0  0  0
  -26.6260  -31.6710   25.1390 C   0  0  1  0  0  0  0  0  0  0  0  0
  -25.5480  -31.3840   26.2100 C   0  0  0  0  0  1  0  0  0  0  0  0
  -27.1880  -30.3120   24.6630 C   0  0  0  0  0  1  0  0  0  0  0  0
  -27.7960  -32.4170   25.8230 C   0  0  0  0  0  1  0  0  0  0  0  0
  1  3  2  0
  2  4  2  0
  3  8  1  0
  4 11  1  0
  4  3  1  0
  5  1  1  0
  6  2  1  0
  6  5  2  0
  8 10  1  0
  8  7  1  0
 10  9  1  0
 11 12  1  0
 13 11  1  0
 13 14  2  0
 14 23  1  0
 15 21  1  0
 16 21  1  0
 17 18  1  0
 17 16  1  0
 19 18  1  0
 19 28  1  0
 19 20  1  0
 21 20  1  0
 22 15  2  0
 23 24  1  0
 23 15  1  0
 25 26  2  0
 26 45  1  0
 27 26  1  0
 27 30  1  0
 28 29  1  0
 28 25  1  0
 29 27  2  0
 30 31  1  0
 31 32  2  0
 33 36  1  0
 33 32  1  0
 34 33  2  0
 35 34  1  0
 35 30  2  0
 36 37  1  0
 37 42  2  0
 37 38  1  0
 38 39  2  0
 39 40  1  0
 40 44  1  0
 41 40  2  0
 42 41  1  0
 43 42  1  0
 45 46  1  0
 46 49  1  0
 46 48  1  0
 47 45  2  0
 50 51  1  0
 50 25  1  0
 52 50  1  0
 53  5  1  0
 53 55  1  0
 54 65  2  0
 55 60  1  0
 56 64  1  0
 56 66  1  0
 57 63  1  0
 57 59  1  0
 58 64  1  0
 59 58  1  0
 60 59  2  0
 61 62  1  0
 61 55  2  0
 62 57  2  0
 63 56  1  0
 64 54  1  0
 66 68  2  0
 67 66  1  0
 69 67  1  0
 70 79  2  0
 70 75  1  0
 71 67  1  0
 71 75  1  0
 72 71  1  0
 73 74  1  0
 73 72  1  0
 74 70  1  0
 75 76  2  0
 76 77  1  0
 78 77  2  0
 79 78  1  0
 80 54  1  0
 80 81  1  0
 80 90  1  0
 81 84  1  0
 82 86  1  0
 82 81  1  0
 83 82  2  0
 86 85  1  0
 88 86  1  0
 88 89  1  0
 88 87  1  0
 90 93  1  1
 90 91  1  0
 92 90  1  0
M  ISO  4   5 101  15 100  23 100  53 101
M  END
>  <TORSDO>  (24) 
F 21

>  <SCORE>  (24) 
-4.781

>  <name>  (24) 
23

>  <ligand_id>  (24) 
23

>  <original_smiles>  (24) 
[H]c1nc(Oc2c([H])c([H])c3c(c2[H])C([H])([H])N(C(=O)C([H])(N([H])C(=O)C([H])(N([H])C([H])([H])[H])C([H])([H])[H])C(C([H])([H])[H])(C([H])([H])[H])C([H])([H])[H])C([H])(C(=O)N([H])C2([H])c4c([H])c([H])c([H])c([H])c4C([H])([H])C([H])([H])C2([H])[H])C3([H])[H])c([H])c(C([H])(C([H])([H])[H])C([H])([H])C([H])([H])[H])c1N([H])C([H])([H])C([H])([H])N([H])C(=O)N1C([H])([H])C([H])([H])C([H])([H])C([H])(n2nc(-c3c([H])c([H])c(Oc4c([H])c([H])c(F)c([H])c4F)c([H])c3[H])c(C(=O)N([H])[H])c2N([H])[H])C1([H])[H]

>  <smiles>  (24) 
[H]c1nc(Oc2c([H])c([H])c3c(c2[H])C([H])([H])N(C(=O)C([H])(N([H])C(=O)C([H])(N([H])C([H])([H])[H])C([H])([H])[H])C(C([H])([H])[H])(C([H])([H])[H])C([H])([H])[H])C([H])(C(=O)N([H])C2([H])c4c([H])c([H])c([H])c([H])c4C([H])([H])C([H])([H])C2([H])[H])C3([H])[H])c([H])c(C([H])(C([H])([H])[H])C([H])([H])C([H])([H])[H])c1N([H])C([H])([H])C([H])([H])N([H])C(=O)N1C([H])([H])C([H])([H])C([H])([H])C([H])(n2nc(-c3c([H])c([H])c(Oc4c([H])c([H])c(F)c([H])c4F)c([H])c3[H])c(C(=O)N([H])[H])c2N([H])[H])C1([H])[H]

$$$$
24:0:0
     RDKit          3D

103 98  0  0  1  0  0  0  0  0999 V2000
  -24.0430  -14.4770   19.2940 C   0  0  0  0  0 15  0  0  0  0  0  0
  -24.8470  -16.4740   19.6450 C   0  0  0  0  0 15  0  0  0  0  0  0
  -27.7400  -15.0050   21.4600 C   0  0  0  0  0  1  0  0  0  0  0  0
  -25.0400  -12.6440   19.9080 C   0  0  0  0  0  1  0  0  0  0  0  0
  -26.9880  -12.8100   21.1170 C   0  0  0  0  0  3  0  0  0  0  0  0
  -26.7840  -16.8030   20.5380 C   0  0  0  0  0  1  0  0  0  0  0  0
  -22.9740  -11.4830   18.9330 C   0  0  0  0  0  2  0  0  0  0  0  0
  -24.3650  -11.3170   19.5540 C   0  0  0  0  0  3  0  0  0  0  0  0
  -23.1430  -10.5470   20.0730 C   0  0  0  0  0  3  0  0  0  0  0  0
  -24.1220   -8.1880   20.3000 C   0  0  0  0  0  1  0  0  0  0  0  0
  -23.0060   -9.0570   19.7280 C   0  0  0  0  0  3  0  0  0  0  0  0
  -20.6860   -8.0910   18.9640 C   0  0  0  0  0  2  0  0  0  0  0  0
  -21.3050   -7.0350   19.8460 C   0  0  0  0  0  2  0  0  0  0  0  0
  -21.6370   -8.4940   20.0730 C   0  0  0  0  0  3  0  0  0  0  0  0
  -27.6140  -18.3610   20.1950 O   0  0  0  0  0  1  0  0  0  0  0  0
  -28.3830  -19.7800   18.9850 C   0  0  0  0  0 15  0  0  0  0  0  0
  -29.3590  -21.7750   18.5570 C   0  0  0  0  0 15  0  0  0  0  0  0
  -30.3270  -23.1690   17.4500 O   0  0  0  0  0  1  0  0  0  0  0  0
  -34.8730  -29.5600   19.3370 C   0  0  0  0  0  0  0  0  0  0  0  0
  -30.7800  -24.7750   17.4540 C   0  0  0  0  0  0  0  0  0  0  0  0
  -32.4820  -29.3500   19.7940 C   0  0  0  0  0  3  0  0  0  0  0  0
  -31.0550  -27.7590   18.2860 C   0  0  0  0  0  0  0  0  0  0  0  0
  -33.3770  -28.2630   17.6320 C   0  0  0  0  0  2  0  0  0  0  0  0
  -32.1620  -27.1980   17.6510 C   0  0  0  0  0  0  0  0  0  0  0  0
  -32.0060  -25.7380   17.2060 C   0  0  0  0  0  3  0  0  0  0  0  0
  -29.7520  -25.6740   17.8040 C   0  0  0  0  0  3  0  0  0  0  0  0
  -29.8650  -27.0230   18.2490 C   0  0  0  0  0  3  0  0  0  0  0  0
  -31.1500  -29.1060   19.0250 C   0  0  0  0  0  2  0  0  0  0  0  0
  -33.6510  -29.0770   18.9040 N   0  0  0  0  0  0  0  0  0  0  0  0
  -35.0070  -30.1280   20.4380 O   0  0  0  0  0  0  0  0  0  0  0  0
  -32.5350  -28.4990   21.0920 C   0  0  0  0  0  0  0  0  0  0  0  0
  -31.6530  -28.7710   22.0740 N   0  0  0  0  0  0  0  0  0  0  0  0
  -33.3700  -27.5980   21.1990 O   0  0  0  0  0  0  0  0  0  0  0  0
  -31.0070  -29.5380   21.9390 H   0  0  0  0  0  0  0  0  0  0  0  0
  -29.6190  -28.3280   25.0530 C   0  0  0  0  0  0  0  0  0  0  0  0
  -31.5210  -28.0140   23.3270 C   0  0  0  0  0  3  0  0  0  0  0  0
  -30.9080  -26.6170   23.0690 C   0  0  0  0  0  2  0  0  0  0  0  0
  -29.3850  -26.5880   23.2330 C   0  0  0  0  0  2  0  0  0  0  0  0
  -28.9900  -27.0070   24.6510 C   0  0  0  0  0  2  0  0  0  0  0  0
  -30.7980  -28.8090   24.4230 C   0  0  0  0  0  0  0  0  0  0  0  0
  -31.3230  -30.0580   24.8190 C   0  0  0  0  0  3  0  0  0  0  0  0
  -30.6930  -30.8190   25.8240 C   0  0  0  0  0  3  0  0  0  0  0  0
  -29.5330  -30.3310   26.4510 C   0  0  0  0  0  3  0  0  0  0  0  0
  -29.0020  -29.0880   26.0690 C   0  0  0  0  0  3  0  0  0  0  0  0
  -36.1670  -29.4430   18.4770 C   0  0  0  0  0  3  0  0  0  0  0  0
  -37.0490  -28.1900   18.8600 C   0  0  1  0  0  0  0  0  0  0  0  0
  -37.3750  -28.0950   20.3700 C   0  0  0  0  0  1  0  0  0  0  0  0
  -36.3590  -26.8690   18.4590 C   0  0  0  0  0  1  0  0  0  0  0  0
  -38.3860  -28.2310   18.0820 C   0  0  0  0  0  1  0  0  0  0  0  0
  -36.9680  -30.6740   18.6660 N   0  0  0  0  0  0  0  0  0  0  0  0
  -37.0240  -31.7120   17.8190 C   0  0  0  0  0  0  0  0  0  0  0  0
  -36.4210  -31.7200   16.7450 O   0  0  0  0  0  0  0  0  0  0  0  0
  -37.4400  -30.7600   19.5530 H   0  0  0  0  0  0  0  0  0  0  0  0
  -36.9900  -34.0450   18.7850 C   0  0  0  0  0  1  0  0  0  0  0  0
  -37.8860  -32.9310   18.2200 C   0  0  0  0  0  3  0  0  0  0  0  0
  -39.7780  -32.5910   16.6850 C   0  0  0  0  0  1  0  0  0  0  0  0
  -38.6980  -33.4780   17.1080 N   0  0  0  0  0  0  0  0  0  0  0  0
  -39.1070  -34.3720   17.3680 H   0  0  0  0  0  0  0  0  0  0  0  0
  -27.9730  -11.5780   20.4940 C   0  0  0  0  0  2  0  0  0  0  0  0
  -29.9660  -11.9820   19.2460 N   0  0  0  0  0  0  0  0  0  0  0  0
  -30.2970  -12.8250   19.6960 H   0  0  0  0  0  0  0  0  0  0  0  0
  -29.5510  -12.2580   18.3710 H   0  0  0  0  0  0  0  0  0  0  0  0
  -31.2860  -11.3960   18.7980 C   0  0  0  0  0  2  0  0  0  0  0  0
  -32.6770  -13.5130   18.3740 C   0  0  0  0  0  1  0  0  0  0  0  0
  -32.4130  -12.3270   19.3130 C   0  0  0  0  0  3  0  0  0  0  0  0
  -31.9260  -11.9470   21.6500 C   0  0  0  0  0  0  0  0  0  0  0  0
  -30.4930   -9.7090   20.8860 C   0  0  0  0  0  1  0  0  0  0  0  0
  -29.1540   -9.5060   19.3250 C   0  0  0  0  0 15  0  0  0  0  0  0
  -27.9600  -11.0760   18.8460 C   0  0  0  0  0  1  0  0  0  0  0  0
  -28.2130  -12.8270   19.9330 C   0  0  0  0  0  1  0  0  0  0  0  0
  -29.6660  -12.7630   21.5280 C   0  0  0  0  0  1  0  0  0  0  0  0
  -30.7250  -11.3470   21.7460 N   0  0  0  0  0  0  0  0  0  0  0  0
  -32.9590  -11.4230   21.8930 O   0  0  0  0  0  0  0  0  0  0  0  0
  -32.0810  -12.8370   20.6530 N   0  0  0  0  0  0  0  0  0  0  0  0
  -32.7130  -13.5740   20.9270 H   0  0  0  0  0  0  0  0  0  0  0  0
  -25.5900  -13.7350   21.9380 C   0  0  0  0  0  1  0  0  0  0  0  0
  -24.3730  -13.0140   22.3960 C   0  0  0  0  0  0  0  0  0  0  0  0
  -24.8370  -11.7510   22.6730 C   0  0  0  0  0  2  0  0  0  0  0  0
  -26.6410  -13.6920   20.8060 N   0  0  0  0  0  4  0  0  0  0  0  0
  -25.4070  -13.0720   22.2170 N   0  0  0  0  0  2  0  0  0  0  0  0
  -23.7630  -10.5410   22.6150 C   0  0  0  0  0  3  0  0  0  0  0  0
  -24.1560   -9.2170   23.0220 C   0  0  0  0  0  3  0  0  0  0  0  0
  -23.2660   -8.1030   23.1990 C   0  0  0  0  0  3  0  0  0  0  0  0
  -21.8770   -8.2260   22.9660 C   0  0  0  0  0  0  0  0  0  0  0  0
  -21.4570   -9.4820   22.4690 C   0  0  0  0  0  3  0  0  0  0  0  0
  -22.3630  -10.5780   22.2810 C   0  0  0  0  0  3  0  0  0  0  0  0
  -20.9420   -7.2010   23.1240 O   0  0  0  0  0  0  0  0  0  0  0  0
  -21.1320   -6.1020   23.9530 C   0  0  0  0  0  0  0  0  0  0  0  0
  -21.3130   -6.2460   25.3470 C   0  0  0  0  0  3  0  0  0  0  0  0
  -21.4590   -5.1100   26.1740 C   0  0  0  0  0  3  0  0  0  0  0  0
  -21.4140   -3.8170   25.6190 C   0  0  0  0  0  0  0  0  0  0  0  0
  -21.2040   -3.6610   24.2390 C   0  0  0  0  0  3  0  0  0  0  0  0
  -21.0590   -4.7930   23.4120 C   0  0  0  0  0  0  0  0  0  0  0  0
  -20.8350   -4.6130   22.0880 F   0  0  0  0  0  0  0  0  0  0  0  0
  -21.5670   -2.7290   26.4110 F   0  0  0  0  0  0  0  0  0  0  0  0
  -22.9720  -13.5950   22.5850 C   0  0  0  0  0  0  0  0  0  0  0  0
  -22.2250  -13.0770   23.5420 N   0  0  0  0  0  0  0  0  0  0  0  0
  -22.6290  -14.5640   21.9200 O   0  0  0  0  0  0  0  0  0  0  0  0
  -22.5470  -12.2900   24.0890 H   0  0  0  0  0  0  0  0  0  0  0  0
  -21.3170  -13.4730   23.7320 H   0  0  0  0  0  0  0  0  0  0  0  0
  -26.6690  -14.1000   20.6050 N   0  0  0  0  0  4  0  0  0  0  0  0
  -26.1710  -13.6250   19.8470 H   0  0  0  0  0  0  0  0  0  0  0  0
  -26.5010  -15.0840   20.4500 H   0  0  0  0  0  0  0  0  0  0  0  0
  7  8  1  0
  7  9  1  0
  8  4  1  0
  8  9  1  0
  9 11  1  0
 11 14  1  0
 11 10  1  0
 12 13  1  0
 12 14  1  0
 13 14  1  0
 15  6  1  0
 18 20  1  0
 19 30  2  0
 20 26  1  0
 21 31  1  0
 22 28  1  0
 23 24  1  0
 23 29  1  0
 24 22  2  0
 25 20  2  0
 25 24  1  0
 26 27  2  0
 27 22  1  0
 28 21  1  0
 29 19  1  0
 29 21  1  0
 31 33  2  0
 31 32  1  0
 34 32  1  0
 35 44  1  0
 36 32  1  0
 36 40  1  0
 37 38  1  0
 37 36  1  0
 38 39  1  0
 39 35  1  0
 40 41  1  0
 40 35  2  0
 41 42  2  0
 42 43  1  0
 44 43  2  0
 45 50  1  0
 45 46  1  0
 45 19  1  0
 46 47  1  1
 48 46  1  0
 49 46  1  0
 50 53  1  0
 51 55  1  0
 51 50  1  0
 52 51  2  0
 55 54  1  0
 56 57  1  0
 57 58  1  0
 57 55  1  0
 60 61  1  0
 62 60  1  0
 63 60  1  0
 63 65  1  0
 65 64  1  0
 65 74  1  0
 66 72  1  0
 66 73  2  0
 67 72  1  0
 69 59  1  0
 70 59  1  0
 71 72  1  0
 74 75  1  0
 74 66  1  0
 76 80  1  0
 77 96  1  0
 77 78  2  0
 79  5  3  0
 80 77  1  0
 81 82  1  0
 82 83  2  0
 84 87  1  0
 84 83  1  0
 85 84  2  0
 86 85  1  0
 86 81  2  0
 87 88  1  0
 88 89  1  0
 89 90  2  0
 91 90  1  0
 91 95  1  0
 92 91  2  0
 93 88  2  0
 93 92  1  0
 94 93  1  0
 96 97  1  0
 97100  1  0
 97 99  1  0
 98 96  2  0
101 79  1  0
101  3  1  0
102101  1  0
103101  1  0
M  ISO  4  17 101  18 101  66 100  74 100
M  END
>  <TORSDO>  (25) 
F 26

>  <SCORE>  (25) 
9.857

>  <name>  (25) 
24

>  <ligand_id>  (25) 
24

>  <original_smiles>  (25) 
[H]c1c([H])c([H])c2c(c1[H])C([H])([H])C([H])([H])C([H])([H])C2([H])N([H])C(=O)C1([H])N(C(=O)C([H])(N([H])C(=O)C([H])(N([H])C([H])([H])[H])C([H])([H])[H])C(C([H])([H])[H])(C([H])([H])[H])C([H])([H])[H])C([H])([H])c2c([H])c(OC([H])([H])C([H])([H])Oc3c([H])c([H])c(C4([H])C([H])([H])C4([H])C([H])(C([H])([H])[H])C4([H])C([H])([H])C4([H])[H])c(C([H])([H])[N+]([H])([H])C([H])([H])C([H])(N([H])C(=O)N4C([H])([H])C([H])([H])C([H])([H])C([H])(n5nc(-c6c([H])c([H])c(Oc7c([H])c([H])c(F)c([H])c7F)c([H])c6[H])c(C(=O)N([H])[H])c5N([H])[H])C4([H])[H])C([H])([H])[H])c3[H])c([H])c([H])c2C1([H])[H]

>  <smiles>  (25) 
[H]c1c([H])c([H])c2c(c1[H])C([H])([H])C([H])([H])C([H])([H])C2([H])N([H])C(=O)C1([H])N(C(=O)C([H])(N([H])C(=O)C([H])(N([H])C([H])([H])[H])C([H])([H])[H])C(C([H])([H])[H])(C([H])([H])[H])C([H])([H])[H])C([H])([H])c2c([H])c(OC([H])([H])C([H])([H])Oc3c([H])c([H])c(C4([H])C([H])([H])C4([H])C([H])(C([H])([H])[H])C4([H])C([H])([H])C4([H])[H])c(C([H])([H])[N+]([H])([H])C([H])([H])C([H])(N([H])C(=O)N4C([H])([H])C([H])([H])C([H])([H])C([H])(n5nc(-c6c([H])c([H])c(Oc7c([H])c([H])c(F)c([H])c7F)c([H])c6[H])c(C(=O)N([H])[H])c5N([H])[H])C4([H])[H])C([H])([H])[H])c3[H])c([H])c([H])c2C1([H])[H]

$$$$
25:0:0
     RDKit          3D

101110  0  0  1  0  0  0  0  0999 V2000
  -29.3680  -20.1100   20.8660 C   0  0  0  0  0  3  0  0  0  0  0  0
  -31.8900  -19.2980   21.7520 C   0  0  0  0  0  3  0  0  0  0  0  0
  -30.0300  -20.8760   21.8530 C   0  0  0  0  0  0  0  0  0  0  0  0
  -29.9550  -18.9540   20.3110 C   0  0  0  0  0  0  0  0  0  0  0  0
  -31.2520  -18.5630   20.7310 C   0  0  0  0  0  0  0  0  0  0  0  0
  -31.2880  -20.4390   22.3350 C   0  0  0  0  0  0  0  0  0  0  0  0
  -30.3990  -23.3810   22.1630 C   0  0  0  0  0  2  0  0  0  0  0  0
  -27.9970  -22.5330   21.9300 C   0  0  0  0  0  2  0  0  0  0  0  0
  -29.7220  -24.6300   21.5760 C   0  0  0  0  0  2  0  0  0  0  0  0
  -27.8990  -23.2800   20.5750 C   0  0  0  0  0  2  0  0  0  0  0  0
  -29.4350  -22.1870   22.3910 C   0  0  0  0  0  3  0  0  0  0  0  0
  -28.9860  -24.2760   20.3390 N   0  0  1  0  0  4  0  0  0  0  0  0
  -29.6700  -23.8060   19.7620 H   0  0  0  0  0  0  0  0  0  0  0  0
  -28.5590  -25.4820   19.5770 C   0  0  0  0  0  2  0  0  0  0  0  0
  -28.1430  -25.1940   18.1110 C   0  0  0  0  0  2  0  0  0  0  0  0
  -27.7770  -26.3960   17.4220 O   0  0  0  0  0  0  0  0  0  0  0  0
  -24.9250  -30.4610   22.4780 C   0  0  0  0  0  0  0  0  0  0  0  0
  -26.6400  -27.0450   17.8460 C   0  0  0  0  0  0  0  0  0  0  0  0
  -23.3230  -29.4660   20.8770 C   0  0  0  0  0  3  0  0  0  0  0  0
  -24.3500  -28.3900   18.8080 C   0  0  0  0  0  0  0  0  0  0  0  0
  -25.7290  -29.9670   20.1750 C   0  0  0  0  0  2  0  0  0  0  0  0
  -25.6260  -28.8030   19.2110 C   0  0  0  0  0  0  0  0  0  0  0  0
  -26.7730  -28.1380   18.7280 C   0  0  0  0  0  3  0  0  0  0  0  0
  -25.3460  -26.6480   17.4340 C   0  0  0  0  0  3  0  0  0  0  0  0
  -24.2040  -27.3110   17.9180 C   0  0  0  0  0  3  0  0  0  0  0  0
  -23.1740  -29.1580   19.3640 C   0  0  0  0  0  2  0  0  0  0  0  0
  -24.6920  -29.9630   21.2320 N   0  0  0  0  0  0  0  0  0  0  0  0
  -24.0140  -30.5480   23.3140 O   0  0  0  0  0  0  0  0  0  0  0  0
  -22.9010  -28.2140   21.6790 C   0  0  0  0  0  0  0  0  0  0  0  0
  -21.6010  -27.8830   21.6290 N   0  0  0  0  0  0  0  0  0  0  0  0
  -23.7360  -27.5500   22.3010 O   0  0  0  0  0  0  0  0  0  0  0  0
  -20.9800  -28.4830   21.1050 H   0  0  0  0  0  0  0  0  0  0  0  0
  -18.5260  -26.0090   21.9130 C   0  0  0  0  0  0  0  0  0  0  0  0
  -20.9840  -26.7250   22.2740 C   0  0  0  0  0  3  0  0  0  0  0  0
  -21.3640  -25.4130   21.5480 C   0  0  0  0  0  2  0  0  0  0  0  0
  -20.3490  -24.9990   20.4780 C   0  0  0  0  0  2  0  0  0  0  0  0
  -18.9630  -24.8020   21.1010 C   0  0  0  0  0  2  0  0  0  0  0  0
  -19.4730  -26.9200   22.4510 C   0  0  0  0  0  0  0  0  0  0  0  0
  -19.0120  -28.0460   23.1680 C   0  0  0  0  0  3  0  0  0  0  0  0
  -17.6340  -28.2650   23.3560 C   0  0  0  0  0  3  0  0  0  0  0  0
  -16.7010  -27.3500   22.8350 C   0  0  0  0  0  3  0  0  0  0  0  0
  -17.1480  -26.2250   22.1190 C   0  0  0  0  0  3  0  0  0  0  0  0
  -26.3390  -30.9670   22.9060 C   0  0  0  0  0  3  0  0  0  0  0  0
  -26.1440  -32.1300   23.7820 N   0  0  0  0  0  0  0  0  0  0  0  0
  -26.3930  -33.3970   23.4290 C   0  0  0  0  0  0  0  0  0  0  0  0
  -26.8850  -33.7060   22.3390 O   0  0  0  0  0  0  0  0  0  0  0  0
  -25.6900  -31.9560   24.6660 H   0  0  0  0  0  0  0  0  0  0  0  0
  -24.7370  -35.1950   24.0230 C   0  0  0  0  0  1  0  0  0  0  0  0
  -26.0410  -34.5000   24.4450 C   0  0  0  0  0  3  0  0  0  0  0  0
  -28.3040  -34.9780   25.2700 C   0  0  0  0  0  1  0  0  0  0  0  0
  -27.1110  -35.5070   24.6140 N   0  0  0  0  0  0  0  0  0  0  0  0
  -26.7780  -36.2990   25.1550 H   0  0  0  0  0  0  0  0  0  0  0  0
  -27.2020  -29.8610   23.6270 C   0  0  1  0  0  0  0  0  0  0  0  0
  -26.4670  -29.1620   24.7930 C   0  0  0  0  0  1  0  0  0  0  0  0
  -27.6400  -28.7700   22.6220 C   0  0  0  0  0  1  0  0  0  0  0  0
  -28.4980  -30.4910   24.1890 C   0  0  0  0  0  1  0  0  0  0  0  0
  -33.1870  -20.7980   23.7730 C   0  0  0  0  0  1  0  0  0  0  0  0
  -31.8840  -21.1720   23.3410 O   0  0  0  0  0  0  0  0  0  0  0  0
  -29.1670  -18.1910   19.2540 C   0  0  0  0  0  2  0  0  0  0  0  0
  -28.5890  -17.9690   16.7810 C   0  0  0  0  0  1  0  0  0  0  0  0
  -29.4620  -18.6750   17.8260 C   0  0  0  0  0  2  0  0  0  0  0  0
  -32.0350  -17.4390   20.0530 C   0  0  0  0  0  2  0  0  0  0  0  0
  -32.2040  -16.1490   20.8830 C   0  0  0  0  0  2  0  0  0  0  0  0
  -31.4490  -14.1730   19.5930 C   0  0  0  0  0  0  0  0  0  0  0  0
  -31.0350  -11.8200   18.9940 C   0  0  0  0  0  2  0  0  0  0  0  0
  -30.0280  -11.6570   17.8440 C   0  0  0  0  0  2  0  0  0  0  0  0
  -28.5900  -11.6270   18.3890 C   0  0  0  0  0  2  0  0  0  0  0  0
  -28.2950  -12.8100   19.3460 C   0  0  0  0  0  3  0  0  0  0  0  0
  -29.4020  -12.9510   20.4130 C   0  0  0  0  0  2  0  0  0  0  0  0
  -30.7080  -13.0470   19.7340 N   0  0  0  0  0  0  0  0  0  0  0  0
  -32.3580  -14.2930   18.7650 O   0  0  0  0  0  0  0  0  0  0  0  0
  -31.2540  -15.0900   20.5460 N   0  0  0  0  0  0  0  0  0  0  0  0
  -30.5080  -14.9110   21.2020 H   0  0  0  0  0  0  0  0  0  0  0  0
  -26.0740  -13.6710   20.3260 C   0  0  0  0  0  0  0  0  0  0  0  0
  -24.9610  -13.0170   20.7800 C   0  0  0  0  0  0  0  0  0  0  0  0
  -25.2430  -11.6230   20.6530 C   0  0  0  0  0  0  0  0  0  0  0  0
  -26.9730  -12.6830   19.9560 N   0  0  0  0  0  0  0  0  0  0  0  0
  -26.4800  -11.4430   20.2070 N   0  0  0  0  0  0  0  0  0  0  0  0
  -24.3880  -10.4510   20.8770 C   0  0  0  0  0  0  0  0  0  0  0  0
  -24.7350   -9.4490   21.8100 C   0  0  0  0  0  3  0  0  0  0  0  0
  -23.8880   -8.3400   22.0200 C   0  0  0  0  0  3  0  0  0  0  0  0
  -22.6770   -8.2250   21.2970 C   0  0  0  0  0  0  0  0  0  0  0  0
  -22.3480   -9.2120   20.3510 C   0  0  0  0  0  3  0  0  0  0  0  0
  -23.1940  -10.3130   20.1400 C   0  0  0  0  0  3  0  0  0  0  0  0
  -21.8050   -7.1700   21.4150 O   0  0  0  0  0  0  0  0  0  0  0  0
  -21.6440   -6.4980   22.6010 C   0  0  0  0  0  0  0  0  0  0  0  0
  -21.2100   -7.1530   23.7740 C   0  0  0  0  0  3  0  0  0  0  0  0
  -20.9920   -6.4120   24.9530 C   0  0  0  0  0  3  0  0  0  0  0  0
  -21.1970   -5.0190   24.9590 C   0  0  0  0  0  0  0  0  0  0  0  0
  -21.6240   -4.3660   23.7890 C   0  0  0  0  0  3  0  0  0  0  0  0
  -21.8440   -5.1030   22.6120 C   0  0  0  0  0  0  0  0  0  0  0  0
  -22.2350   -4.4660   21.4830 F   0  0  0  0  0  0  0  0  0  0  0  0
  -20.9800   -4.3060   26.0880 F   0  0  0  0  0  0  0  0  0  0  0  0
  -23.6690  -13.6470   21.2190 C   0  0  0  0  0  0  0  0  0  0  0  0
  -22.9690  -13.0180   22.1570 N   0  0  0  0  0  0  0  0  0  0  0  0
  -23.2990  -14.7280   20.7650 O   0  0  0  0  0  0  0  0  0  0  0  0
  -23.2830  -12.1410   22.5430 H   0  0  0  0  0  0  0  0  0  0  0  0
  -22.1060  -13.4200   22.4930 H   0  0  0  0  0  0  0  0  0  0  0  0
  -26.3920  -15.0190   20.1800 N   0  0  0  0  0  0  0  0  0  0  0  0
  -25.7350  -15.7590   20.4000 H   0  0  0  0  0  0  0  0  0  0  0  0
  -27.2690  -15.3640   19.8090 H   0  0  0  0  0  0  0  0  0  0  0  0
  1  3  1  0
  2  6  1  0
  3  6  2  0
  4  5  1  0
  4  1  2  0
  5  2  2  0
  6 58  1  0
  7 11  1  0
  8 11  1  0
  9  7  1  0
 10  8  1  0
 11  3  1  0
 12 10  1  0
 12  9  1  0
 12 13  1  6
 14 12  1  0
 15 14  1  0
 16 18  1  0
 16 15  1  0
 17 28  2  0
 18 23  1  0
 19 27  1  0
 19 29  1  0
 20 22  1  0
 20 26  1  0
 21 27  1  0
 22 21  1  0
 23 22  2  0
 24 18  2  0
 24 25  1  0
 25 20  2  0
 26 19  1  0
 27 17  1  0
 29 31  2  0
 30 29  1  0
 32 30  1  0
 33 42  2  0
 33 38  1  0
 34 30  1  0
 34 38  1  0
 35 34  1  0
 36 37  1  0
 36 35  1  0
 37 33  1  0
 38 39  2  0
 39 40  1  0
 41 40  2  0
 42 41  1  0
 43 17  1  0
 43 53  1  0
 43 44  1  0
 44 47  1  0
 45 44  1  0
 45 49  1  0
 46 45  2  0
 49 48  1  0
 49 51  1  0
 51 52  1  0
 51 50  1  0
 53 56  1  1
 53 54  1  0
 55 53  1  0
 58 57  1  0
 59  4  1  0
 60 61  1  0
 61 59  1  0
 62  5  1  0
 62 63  1  0
 64 70  1  0
 64 72  1  0
 65 70  1  0
 66 67  1  0
 66 65  1  0
 68 67  1  0
 68 77  1  0
 68 69  1  0
 70 69  1  0
 71 64  2  0
 72 63  1  0
 72 73  1  0
 74 75  2  0
 75 94  1  0
 76 75  1  0
 76 79  1  0
 77 78  1  0
 77 74  1  0
 78 76  2  0
 79 80  1  0
 80 81  2  0
 82 85  1  0
 82 81  1  0
 83 82  2  0
 84 83  1  0
 84 79  2  0
 85 86  1  0
 86 91  2  0
 86 87  1  0
 87 88  2  0
 88 89  1  0
 89 93  1  0
 90 89  2  0
 91 90  1  0
 92 91  1  0
 94 95  1  0
 95 98  1  0
 95 97  1  0
 96 94  2  0
 99 74  1  0
 99100  1  0
101 99  1  0
M  ISO  4  15 101  16 101  64 100  72 100
M  END
>  <TORSDO>  (26) 
F 24

>  <SCORE>  (26) 
-8.947

>  <name>  (26) 
25

>  <ligand_id>  (26) 
25

>  <original_smiles>  (26) 
[H]c1c([H])c([H])c2c(c1[H])C([H])([H])C([H])([H])C([H])([H])C2([H])N([H])C(=O)C1([H])N(C(=O)C([H])(N([H])C(=O)C([H])(N([H])C([H])([H])[H])C([H])([H])[H])C(C([H])([H])[H])(C([H])([H])[H])C([H])([H])[H])C([H])([H])c2c([H])c(OC([H])([H])C([H])([H])[N+]3([H])C([H])([H])C([H])([H])C([H])(c4c([H])c(C([H])([H])C([H])([H])C([H])([H])[H])c(C([H])([H])C([H])([H])N([H])C(=O)N5C([H])([H])C([H])([H])C([H])([H])C([H])(n6nc(-c7c([H])c([H])c(Oc8c([H])c([H])c(F)c([H])c8F)c([H])c7[H])c(C(=O)N([H])[H])c6N([H])[H])C5([H])[H])c([H])c4OC([H])([H])[H])C([H])([H])C3([H])[H])c([H])c([H])c2C1([H])[H]

>  <smiles>  (26) 
[H]c1c([H])c([H])c2c(c1[H])C([H])([H])C([H])([H])C([H])([H])C2([H])N([H])C(=O)C1([H])N(C(=O)C([H])(N([H])C(=O)C([H])(N([H])C([H])([H])[H])C([H])([H])[H])C(C([H])([H])[H])(C([H])([H])[H])C([H])([H])[H])C([H])([H])c2c([H])c(OC([H])([H])C([H])([H])[N+]3([H])C([H])([H])C([H])([H])C([H])(c4c([H])c(C([H])([H])C([H])([H])C([H])([H])[H])c(C([H])([H])C([H])([H])N([H])C(=O)N5C([H])([H])C([H])([H])C([H])([H])C([H])(n6nc(-c7c([H])c([H])c(Oc8c([H])c([H])c(F)c([H])c8F)c([H])c7[H])c(C(=O)N([H])[H])c6N([H])[H])C5([H])[H])c([H])c4OC([H])([H])[H])C([H])([H])C3([H])[H])c([H])c([H])c2C1([H])[H]

$$$$
26:0:0
     RDKit          3D

103112  0  0  1  0  0  0  0  0999 V2000
  -29.6990  -24.0170   23.7670 C   0  0  0  0  0  1  0  0  0  0  0  0
  -30.4870  -23.9060   22.4490 C   0  0  0  0  0  3  0  0  0  0  0  0
  -29.4230  -27.0610   19.6310 C   0  0  0  0  0  3  0  0  0  0  0  0
  -28.7710  -25.2540   21.1170 C   0  0  0  0  0  3  0  0  0  0  0  0
  -30.7700  -26.9040   20.0090 C   0  0  0  0  0  0  0  0  0  0  0  0
  -30.1230  -25.0570   21.4960 C   0  0  0  0  0  0  0  0  0  0  0  0
  -28.4260  -26.2430   20.1790 C   0  0  0  0  0  0  0  0  0  0  0  0
  -31.1250  -25.9200   20.9720 C   0  0  0  0  0  0  0  0  0  0  0  0
  -31.7970  -27.7600   19.2850 C   0  0  0  0  0  1  0  0  0  0  0  0
  -27.1950  -26.2450   19.5810 O   0  0  0  0  0  0  0  0  0  0  0  0
  -24.2750  -31.6800   23.3010 C   0  0  0  0  0  0  0  0  0  0  0  0
  -26.1600  -27.0700   19.9320 C   0  0  0  0  0  0  0  0  0  0  0  0
  -22.7820  -30.4430   21.7670 C   0  0  0  0  0  3  0  0  0  0  0  0
  -23.9360  -28.7860   20.2150 C   0  0  0  0  0  0  0  0  0  0  0  0
  -25.3030  -30.5470   21.3390 C   0  0  0  0  0  2  0  0  0  0  0  0
  -25.1940  -29.1830   20.6910 C   0  0  0  0  0  0  0  0  0  0  0  0
  -26.3150  -28.3310   20.5530 C   0  0  0  0  0  3  0  0  0  0  0  0
  -24.8870  -26.6810   19.4740 C   0  0  0  0  0  3  0  0  0  0  0  0
  -23.7730  -27.5250   19.6120 C   0  0  0  0  0  3  0  0  0  0  0  0
  -22.7970  -29.7650   20.3730 C   0  0  0  0  0  2  0  0  0  0  0  0
  -24.1450  -30.9020   22.1910 N   0  0  0  0  0  0  0  0  0  0  0  0
  -23.2840  -32.0520   23.9440 O   0  0  0  0  0  0  0  0  0  0  0  0
  -22.1180  -29.4770   22.7740 C   0  0  0  0  0  0  0  0  0  0  0  0
  -20.8010  -29.2660   22.6200 N   0  0  0  0  0  0  0  0  0  0  0  0
  -22.7890  -28.9120   23.6420 O   0  0  0  0  0  0  0  0  0  0  0  0
  -20.3300  -29.7590   21.8740 H   0  0  0  0  0  0  0  0  0  0  0  0
  -17.4750  -27.8930   22.9680 C   0  0  0  0  0  0  0  0  0  0  0  0
  -19.9740  -28.3690   23.4270 C   0  0  0  0  0  3  0  0  0  0  0  0
  -20.2230  -26.8930   23.0420 C   0  0  0  0  0  2  0  0  0  0  0  0
  -19.2440  -26.3710   21.9850 C   0  0  0  0  0  2  0  0  0  0  0  0
  -17.8000  -26.4890   22.4840 C   0  0  0  0  0  2  0  0  0  0  0  0
  -18.4980  -28.7800   23.3960 C   0  0  0  0  0  0  0  0  0  0  0  0
  -18.1470  -30.0840   23.8050 C   0  0  0  0  0  3  0  0  0  0  0  0
  -16.8060  -30.5080   23.7910 C   0  0  0  0  0  3  0  0  0  0  0  0
  -15.7940  -29.6230   23.3820 C   0  0  0  0  0  3  0  0  0  0  0  0
  -16.1290  -28.3180   22.9780 C   0  0  0  0  0  3  0  0  0  0  0  0
  -25.6740  -32.1610   23.8000 C   0  0  0  0  0  3  0  0  0  0  0  0
  -25.5290  -33.5560   24.2370 N   0  0  0  0  0  0  0  0  0  0  0  0
  -26.0310  -34.6150   23.5860 C   0  0  0  0  0  0  0  0  0  0  0  0
  -26.7400  -34.5100   22.5810 O   0  0  0  0  0  0  0  0  0  0  0  0
  -24.9080  -33.7270   25.0140 H   0  0  0  0  0  0  0  0  0  0  0  0
  -24.5840  -36.6530   23.3010 C   0  0  0  0  0  1  0  0  0  0  0  0
  -25.6970  -36.0120   24.1430 C   0  0  0  0  0  3  0  0  0  0  0  0
  -27.8670  -36.5030   25.1800 C   0  0  0  0  0  1  0  0  0  0  0  0
  -26.8660  -36.9180   24.2010 N   0  0  0  0  0  0  0  0  0  0  0  0
  -26.5750  -37.8650   24.4310 H   0  0  0  0  0  0  0  0  0  0  0  0
  -26.2630  -31.2650   24.9580 C   0  0  1  0  0  0  0  0  0  0  0  0
  -25.2720  -31.0200   26.1190 C   0  0  0  0  0  1  0  0  0  0  0  0
  -26.6960  -29.8820   24.4170 C   0  0  0  0  0  1  0  0  0  0  0  0
  -27.5340  -31.9290   25.5380 C   0  0  0  0  0  1  0  0  0  0  0  0
  -32.4350  -25.7530   21.3600 O   0  0  0  0  0  0  0  0  0  0  0  0
  -34.5330  -26.9610   21.2980 C   0  0  0  0  0  1  0  0  0  0  0  0
  -33.0900  -26.9370   21.8170 C   0  0  0  0  0  2  0  0  0  0  0  0
  -30.3370  -22.4980   21.8130 C   0  0  0  0  0  2  0  0  0  0  0  0
  -31.3950  -22.2000   20.8200 N   0  0  0  0  0  4  0  0  0  0  0  0
  -31.6470  -23.0710   20.3810 H   0  0  0  0  0  0  0  0  0  0  0  0
  -32.2190  -21.8470   21.2790 H   0  0  0  0  0  0  0  0  0  0  0  0
  -31.0120  -21.2730   19.7350 C   0  0  0  0  0  2  0  0  0  0  0  0
  -32.2460  -19.0710   20.0340 C   0  0  0  0  0  3  0  0  0  0  0  0
  -32.2780  -17.6910   20.3240 C   0  0  0  0  0  3  0  0  0  0  0  0
  -29.8780  -19.1340   20.5680 C   0  0  0  0  0  3  0  0  0  0  0  0
  -31.0470  -19.8020   20.1420 C   0  0  0  0  0  0  0  0  0  0  0  0
  -31.1000  -17.0080   20.7170 C   0  0  0  0  0  0  0  0  0  0  0  0
  -29.9040  -17.7530   20.8580 C   0  0  0  0  0  0  0  0  0  0  0  0
  -28.4460  -16.9700   21.3610 Cl  0  0  0  0  0  0  0  0  0  0  0  0
  -31.5880  -14.6090   20.2420 C   0  0  0  0  0  0  0  0  0  0  0  0
  -31.1320  -12.4810   19.0880 C   0  0  0  0  0  2  0  0  0  0  0  0
  -30.2090  -12.7610   17.8860 C   0  0  0  0  0  2  0  0  0  0  0  0
  -28.7320  -12.7120   18.3160 C   0  0  0  0  0  2  0  0  0  0  0  0
  -28.4480  -13.5670   19.5800 C   0  0  0  0  0  3  0  0  0  0  0  0
  -29.4870  -13.2780   20.6870 C   0  0  0  0  0  2  0  0  0  0  0  0
  -30.8350  -13.4820   20.1230 N   0  0  0  0  0  0  0  0  0  0  0  0
  -32.6880  -14.7300   19.6960 O   0  0  0  0  0  0  0  0  0  0  0  0
  -31.0290  -15.6000   20.9520 N   0  0  0  0  0  0  0  0  0  0  0  0
  -30.2200  -15.3160   21.4860 H   0  0  0  0  0  0  0  0  0  0  0  0
  -26.1040  -14.3200   20.3390 C   0  0  0  0  0  0  0  0  0  0  0  0
  -24.9830  -13.6120   20.6850 C   0  0  0  0  0  0  0  0  0  0  0  0
  -25.3400  -12.2340   20.5830 C   0  0  0  0  0  0  0  0  0  0  0  0
  -27.0780  -13.3750   20.0580 N   0  0  0  0  0  0  0  0  0  0  0  0
  -26.6220  -12.1120   20.2570 N   0  0  0  0  0  0  0  0  0  0  0  0
  -24.5210  -11.0220   20.7190 C   0  0  0  0  0  0  0  0  0  0  0  0
  -24.8660   -9.9970   21.6260 C   0  0  0  0  0  3  0  0  0  0  0  0
  -24.0540   -8.8490   21.7540 C   0  0  0  0  0  3  0  0  0  0  0  0
  -22.8810   -8.7190   20.9740 C   0  0  0  0  0  0  0  0  0  0  0  0
  -22.5520   -9.7320   20.0570 C   0  0  0  0  0  3  0  0  0  0  0  0
  -23.3650  -10.8720   19.9280 C   0  0  0  0  0  3  0  0  0  0  0  0
  -22.0450   -7.6280   21.0120 O   0  0  0  0  0  0  0  0  0  0  0  0
  -21.8510   -6.9110   22.1630 C   0  0  0  0  0  0  0  0  0  0  0  0
  -21.3970   -7.5200   23.3530 C   0  0  0  0  0  3  0  0  0  0  0  0
  -21.1430   -6.7330   24.4950 C   0  0  0  0  0  3  0  0  0  0  0  0
  -21.3360   -5.3400   24.4470 C   0  0  0  0  0  0  0  0  0  0  0  0
  -21.7840   -4.7300   23.2610 C   0  0  0  0  0  3  0  0  0  0  0  0
  -22.0380   -5.5140   22.1230 C   0  0  0  0  0  0  0  0  0  0  0  0
  -22.4500   -4.9200   20.9770 F   0  0  0  0  0  0  0  0  0  0  0  0
  -21.0850   -4.5820   25.5400 F   0  0  0  0  0  0  0  0  0  0  0  0
  -23.6280  -14.1790   21.0020 C   0  0  0  0  0  0  0  0  0  0  0  0
  -22.8750  -13.5150   21.8710 N   0  0  0  0  0  0  0  0  0  0  0  0
  -23.2520  -15.2450   20.5150 O   0  0  0  0  0  0  0  0  0  0  0  0
  -23.1920  -12.6520   22.2850 H   0  0  0  0  0  0  0  0  0  0  0  0
  -21.9670  -13.8780   22.1260 H   0  0  0  0  0  0  0  0  0  0  0  0
  -26.3670  -15.6800   20.2250 N   0  0  0  0  0  0  0  0  0  0  0  0
  -25.6610  -16.3850   20.4000 H   0  0  0  0  0  0  0  0  0  0  0  0
  -27.2630  -16.0740   19.9690 H   0  0  0  0  0  0  0  0  0  0  0  0
  2  1  1  0
  3  5  2  0
  3  7  1  0
  4  6  1  0
  5  8  1  0
  6  2  1  0
  7  4  2  0
  8 51  1  0
  8  6  2  0
  9  5  1  0
 10 12  1  0
 10  7  1  0
 11 22  2  0
 12 17  1  0
 13 21  1  0
 13 23  1  0
 14 20  1  0
 14 16  1  0
 15 21  1  0
 16 15  1  0
 17 16  2  0
 18 19  1  0
 18 12  2  0
 19 14  2  0
 20 13  1  0
 21 11  1  0
 23 25  2  0
 24 23  1  0
 26 24  1  0
 27 36  2  0
 27 32  1  0
 28 24  1  0
 29 28  1  0
 30 31  1  0
 30 29  1  0
 31 27  1  0
 32 28  1  0
 32 33  2  0
 34 33  1  0
 35 34  2  0
 36 35  1  0
 37 11  1  0
 37 38  1  0
 37 47  1  0
 38 41  1  0
 39 43  1  0
 39 38  1  0
 40 39  2  0
 43 42  1  0
 43 45  1  0
 45 46  1  0
 45 44  1  0
 47 50  1  1
 47 48  1  0
 49 47  1  0
 51 53  1  0
 52 53  1  0
 54  2  1  0
 55 57  1  0
 55 54  1  0
 56 55  1  0
 58 62  1  0
 58 55  1  0
 59 62  2  0
 59 60  1  0
 60 63  2  0
 61 64  2  0
 62 61  1  0
 63 64  1  0
 63 74  1  0
 64 65  1  0
 66 74  1  0
 67 72  1  0
 68 69  1  0
 68 67  1  0
 70 69  1  0
 70 79  1  0
 70 71  1  0
 72 66  1  0
 72 71  1  0
 73 66  2  0
 74 75  1  0
 76 77  2  0
 77 96  1  0
 78 77  1  0
 78 81  1  0
 79 80  1  0
 79 76  1  0
 80 78  2  0
 81 82  1  0
 82 83  2  0
 84 87  1  0
 84 83  1  0
 85 84  2  0
 86 85  1  0
 86 81  2  0
 87 88  1  0
 88 89  1  0
 89 90  2  0
 91 90  1  0
 91 95  1  0
 92 91  2  0
 93 88  2  0
 93 92  1  0
 94 93  1  0
 96 97  1  0
 97100  1  0
 97 99  1  0
 98 96  2  0
101 76  1  0
101102  1  0
103101  1  0
M  ISO  4   7 101  10 101  66 100  74 100
M  END
>  <TORSDO>  (27) 
F 23

>  <SCORE>  (27) 
-10.411

>  <name>  (27) 
26

>  <ligand_id>  (27) 
26

>  <original_smiles>  (27) 
[H]c1c([H])c([H])c2c(c1[H])C([H])([H])C([H])([H])C([H])([H])C2([H])N([H])C(=O)C1([H])N(C(=O)C([H])(N([H])C(=O)C([H])(N([H])C([H])([H])[H])C([H])([H])[H])C(C([H])([H])[H])(C([H])([H])[H])C([H])([H])[H])C([H])([H])c2c([H])c(Oc3c([H])c(C([H])([H])[H])c(OC([H])([H])C([H])([H])[H])c(C([H])(C([H])([H])[H])C([H])([H])[N+]([H])([H])C([H])([H])c4c([H])c([H])c(N([H])C(=O)N5C([H])([H])C([H])([H])C([H])([H])C([H])(n6nc(-c7c([H])c([H])c(Oc8c([H])c([H])c(F)c([H])c8F)c([H])c7[H])c(C(=O)N([H])[H])c6N([H])[H])C5([H])[H])c(Cl)c4[H])c3[H])c([H])c([H])c2C1([H])[H]

>  <smiles>  (27) 
[H]c1c([H])c([H])c2c(c1[H])C([H])([H])C([H])([H])C([H])([H])C2([H])N([H])C(=O)C1([H])N(C(=O)C([H])(N([H])C(=O)C([H])(N([H])C([H])([H])[H])C([H])([H])[H])C(C([H])([H])[H])(C([H])([H])[H])C([H])([H])[H])C([H])([H])c2c([H])c(Oc3c([H])c(C([H])([H])[H])c(OC([H])([H])C([H])([H])[H])c(C([H])(C([H])([H])[H])C([H])([H])[N+]([H])([H])C([H])([H])c4c([H])c([H])c(N([H])C(=O)N5C([H])([H])C([H])([H])C([H])([H])C([H])(n6nc(-c7c([H])c([H])c(Oc8c([H])c([H])c(F)c([H])c8F)c([H])c7[H])c(C(=O)N([H])[H])c6N([H])[H])C5([H])[H])c(Cl)c4[H])c3[H])c([H])c([H])c2C1([H])[H]

$$$$
27:0:0
     RDKit          3D

 91 99  0  0  1  0  0  0  0  0999 V2000
  -29.5180  -23.2440   21.6960 C   0  0  0  0  0  3  0  0  0  0  0  0
  -28.2840  -22.9500   19.6600 C   0  0  0  0  0  3  0  0  0  0  0  0
  -28.6560  -23.8140   20.7250 C   0  0  0  0  0  0  0  0  0  0  0  0
  -29.9750  -21.8930   21.6190 C   0  0  0  0  0  0  0  0  0  0  0  0
  -28.7410  -21.5930   19.5690 C   0  0  0  0  0  0  0  0  0  0  0  0
  -29.5870  -21.0220   20.5650 C   0  0  0  0  0  0  0  0  0  0  0  0
  -30.9010  -21.3670   22.7010 C   0  0  0  0  0  1  0  0  0  0  0  0
  -28.3250  -20.7700   18.3650 C   0  0  0  0  0  1  0  0  0  0  0  0
  -27.9510  -25.2010   20.9900 C   0  0  0  0  0  2  0  0  0  0  0  0
  -28.2770  -26.4490   20.2590 O   0  0  0  0  0  0  0  0  0  0  0  0
  -24.5840  -31.8860   23.2580 C   0  0  0  0  0  0  0  0  0  0  0  0
  -27.2030  -27.3470   20.1970 C   0  0  0  0  0  0  0  0  0  0  0  0
  -23.3820  -30.4800   21.6220 C   0  0  0  0  0  3  0  0  0  0  0  0
  -24.8370  -28.9450   20.1830 C   0  0  0  0  0  0  0  0  0  0  0  0
  -25.9180  -30.8150   21.4300 C   0  0  0  0  0  2  0  0  0  0  0  0
  -26.0040  -29.4390   20.7820 C   0  0  0  0  0  0  0  0  0  0  0  0
  -27.1950  -28.6500   20.7830 C   0  0  0  0  0  3  0  0  0  0  0  0
  -26.0240  -26.9170   19.5530 C   0  0  0  0  0  3  0  0  0  0  0  0
  -24.8480  -27.6910   19.5560 C   0  0  0  0  0  3  0  0  0  0  0  0
  -23.5930  -29.8090   20.2400 C   0  0  0  0  0  2  0  0  0  0  0  0
  -24.6470  -31.0780   22.1590 N   0  0  0  0  0  0  0  0  0  0  0  0
  -23.5020  -32.1570   23.7970 O   0  0  0  0  0  0  0  0  0  0  0  0
  -22.7280  -29.4590   22.5850 C   0  0  0  0  0  0  0  0  0  0  0  0
  -21.4030  -29.2730   22.4590 N   0  0  0  0  0  0  0  0  0  0  0  0
  -23.4130  -28.8390   23.4030 O   0  0  0  0  0  0  0  0  0  0  0  0
  -20.9110  -29.8260   21.7710 H   0  0  0  0  0  0  0  0  0  0  0  0
  -18.0330  -28.0590   22.9650 C   0  0  0  0  0  0  0  0  0  0  0  0
  -20.5910  -28.3330   23.2320 C   0  0  0  0  0  3  0  0  0  0  0  0
  -20.7010  -26.9020   22.6600 C   0  0  0  0  0  2  0  0  0  0  0  0
  -19.5990  -26.5690   21.6490 C   0  0  0  0  0  2  0  0  0  0  0  0
  -18.2160  -26.7090   22.2920 C   0  0  0  0  0  2  0  0  0  0  0  0
  -19.1480  -28.8290   23.3920 C   0  0  0  0  0  0  0  0  0  0  0  0
  -18.9230  -30.0910   23.9800 C   0  0  0  0  0  3  0  0  0  0  0  0
  -17.6160  -30.5850   24.1490 C   0  0  0  0  0  3  0  0  0  0  0  0
  -16.5150  -29.8130   23.7380 C   0  0  0  0  0  3  0  0  0  0  0  0
  -16.7250  -28.5520   23.1510 C   0  0  0  0  0  3  0  0  0  0  0  0
  -25.8680  -32.5240   23.8750 C   0  0  0  0  0  3  0  0  0  0  0  0
  -26.3820  -31.7670   25.1610 C   0  0  1  0  0  0  0  0  0  0  0  0
  -25.2860  -31.5430   26.2280 C   0  0  0  0  0  1  0  0  0  0  0  0
  -26.9670  -30.3860   24.7870 C   0  0  0  0  0  1  0  0  0  0  0  0
  -27.5310  -32.5700   25.8150 C   0  0  0  0  0  1  0  0  0  0  0  0
  -25.5590  -33.9260   24.1880 N   0  0  0  0  0  0  0  0  0  0  0  0
  -25.8980  -34.9700   23.4210 C   0  0  0  0  0  0  0  0  0  0  0  0
  -26.5730  -34.8550   22.3950 O   0  0  0  0  0  0  0  0  0  0  0  0
  -24.9640  -34.0910   24.9870 H   0  0  0  0  0  0  0  0  0  0  0  0
  -24.1810  -36.7680   23.0320 C   0  0  0  0  0  1  0  0  0  0  0  0
  -25.4110  -36.3640   23.8620 C   0  0  0  0  0  3  0  0  0  0  0  0
  -27.5390  -37.2440   24.7120 C   0  0  0  0  0  1  0  0  0  0  0  0
  -26.4490  -37.4120   23.7550 N   0  0  0  0  0  0  0  0  0  0  0  0
  -26.0450  -38.3340   23.8940 H   0  0  0  0  0  0  0  0  0  0  0  0
  -30.1890  -19.7490   20.4650 O   0  0  0  0  0  0  0  0  0  0  0  0
  -29.4730  -18.4800   20.6410 C   0  0  0  0  0  2  0  0  0  0  0  0
  -30.4570  -17.2240   20.5600 C   0  0  0  0  0  2  0  0  0  0  0  0
  -30.6470  -14.6790   20.3960 C   0  0  0  0  0  0  0  0  0  0  0  0
  -30.3870  -12.4450   19.3450 C   0  0  0  0  0  2  0  0  0  0  0  0
  -29.4470  -12.5650   18.1270 C   0  0  0  0  0  2  0  0  0  0  0  0
  -27.9780  -12.4000   18.5620 C   0  0  0  0  0  2  0  0  0  0  0  0
  -27.6190  -13.2750   19.7940 C   0  0  0  0  0  3  0  0  0  0  0  0
  -28.6800  -13.1580   20.9100 C   0  0  0  0  0  2  0  0  0  0  0  0
  -29.9830  -13.4840   20.3170 N   0  0  0  0  0  0  0  0  0  0  0  0
  -31.8170  -14.7810   20.0250 O   0  0  0  0  0  0  0  0  0  0  0  0
  -29.9300  -15.8130   20.6840 N   0  0  0  0  0  0  0  0  0  0  0  0
  -28.9630  -15.6950   20.9430 H   0  0  0  0  0  0  0  0  0  0  0  0
  -25.2280  -13.8600   20.5230 C   0  0  0  0  0  0  0  0  0  0  0  0
  -24.1650  -13.0820   20.8920 C   0  0  0  0  0  0  0  0  0  0  0  0
  -24.6310  -11.7320   20.8570 C   0  0  0  0  0  0  0  0  0  0  0  0
  -26.2750  -12.9850   20.2850 N   0  0  0  0  0  0  0  0  0  0  0  0
  -25.9220  -11.6990   20.5470 N   0  0  0  0  0  0  0  0  0  0  0  0
  -23.9100  -10.4670   21.0450 C   0  0  0  0  0  0  0  0  0  0  0  0
  -24.3440   -9.5000   21.9760 C   0  0  0  0  0  3  0  0  0  0  0  0
  -23.6230   -8.2990   22.1540 C   0  0  0  0  0  3  0  0  0  0  0  0
  -22.4520   -8.0580   21.3970 C   0  0  0  0  0  0  0  0  0  0  0  0
  -22.0360   -9.0140   20.4520 C   0  0  0  0  0  3  0  0  0  0  0  0
  -22.7580  -10.2060   20.2740 C   0  0  0  0  0  3  0  0  0  0  0  0
  -21.7010   -6.9100   21.4820 O   0  0  0  0  0  0  0  0  0  0  0  0
  -21.6510   -6.1660   22.6340 C   0  0  0  0  0  0  0  0  0  0  0  0
  -21.2060   -6.7150   23.8560 C   0  0  0  0  0  3  0  0  0  0  0  0
  -21.1050   -5.8980   24.9990 C   0  0  0  0  0  3  0  0  0  0  0  0
  -21.4390   -4.5330   24.9210 C   0  0  0  0  0  0  0  0  0  0  0  0
  -21.8770   -3.9830   23.7030 C   0  0  0  0  0  3  0  0  0  0  0  0
  -21.9800   -4.7980   22.5630 C   0  0  0  0  0  0  0  0  0  0  0  0
  -22.3820   -4.2590   21.3870 F   0  0  0  0  0  0  0  0  0  0  0  0
  -21.3340   -3.7450   26.0170 F   0  0  0  0  0  0  0  0  0  0  0  0
  -22.7670  -13.5530   21.1690 C   0  0  0  0  0  0  0  0  0  0  0  0
  -22.0450  -12.8510   22.0350 N   0  0  0  0  0  0  0  0  0  0  0  0
  -22.3240  -14.5790   20.6530 O   0  0  0  0  0  0  0  0  0  0  0  0
  -22.4170  -12.0200   22.4700 H   0  0  0  0  0  0  0  0  0  0  0  0
  -21.1070  -13.1470   22.2660 H   0  0  0  0  0  0  0  0  0  0  0  0
  -25.3870  -15.2320   20.3480 N   0  0  0  0  0  0  0  0  0  0  0  0
  -24.6150  -15.8810   20.4510 H   0  0  0  0  0  0  0  0  0  0  0  0
  -26.2290  -15.6710   19.9970 H   0  0  0  0  0  0  0  0  0  0  0  0
  2  3  1  0
  3  9  1  0
  3  1  2  0
  4  1  1  0
  4  7  1  0
  5  2  2  0
  5  6  1  0
  6  4  2  0
  8  5  1  0
 10  9  1  0
 11 22  2  0
 12 10  1  0
 12 17  1  0
 13 21  1  0
 13 23  1  0
 14 20  1  0
 14 16  1  0
 15 21  1  0
 16 17  2  0
 16 15  1  0
 18 19  1  0
 18 12  2  0
 19 14  2  0
 20 13  1  0
 21 11  1  0
 23 25  2  0
 24 23  1  0
 26 24  1  0
 27 36  2  0
 27 32  1  0
 28 24  1  0
 28 32  1  0
 29 28  1  0
 30 31  1  0
 30 29  1  0
 31 27  1  0
 32 33  2  0
 33 34  1  0
 35 34  2  0
 36 35  1  0
 37 11  1  0
 37 42  1  0
 37 38  1  0
 38 41  1  1
 38 39  1  0
 40 38  1  0
 42 45  1  0
 43 47  1  0
 43 42  1  0
 44 43  2  0
 47 46  1  0
 49 47  1  0
 49 50  1  0
 49 48  1  0
 51  6  1  0
 51 52  1  0
 53 52  1  0
 53 62  1  0
 54 62  1  0
 55 60  1  0
 56 57  1  0
 56 55  1  0
 58 57  1  0
 58 67  1  0
 58 59  1  0
 60 54  1  0
 60 59  1  0
 61 54  2  0
 62 63  1  0
 64 65  2  0
 65 84  1  0
 66 65  1  0
 66 69  1  0
 67 64  1  0
 67 68  1  0
 68 66  2  0
 69 70  1  0
 70 71  2  0
 72 75  1  0
 72 71  1  0
 73 72  2  0
 74 73  1  0
 74 69  2  0
 75 76  1  0
 76 77  1  0
 77 78  2  0
 79 78  1  0
 79 83  1  0
 80 79  2  0
 81 76  2  0
 81 80  1  0
 82 81  1  0
 84 85  1  0
 85 88  1  0
 85 87  1  0
 86 84  2  0
 89 90  1  0
 89 64  1  0
 91 89  1  0
M  ISO  4   9 101  10 101  54 100  62 100
M  END
>  <TORSDO>  (28) 
F 20

>  <SCORE>  (28) 
-13.994

>  <name>  (28) 
27

>  <ligand_id>  (28) 
27

>  <original_smiles>  (28) 
[H]c1c([H])c([H])c2c(c1[H])C([H])([H])C([H])([H])C([H])([H])C2([H])N([H])C(=O)C1([H])N(C(=O)C([H])(N([H])C(=O)C([H])(N([H])C([H])([H])[H])C([H])([H])[H])C(C([H])([H])[H])(C([H])([H])[H])C([H])([H])[H])C([H])([H])c2c([H])c(OC([H])([H])c3c([H])c(C([H])([H])[H])c(OC([H])([H])C([H])([H])N([H])C(=O)N4C([H])([H])C([H])([H])C([H])([H])C([H])(n5nc(-c6c([H])c([H])c(Oc7c([H])c([H])c(F)c([H])c7F)c([H])c6[H])c(C(=O)N([H])[H])c5N([H])[H])C4([H])[H])c(C([H])([H])[H])c3[H])c([H])c([H])c2C1([H])[H]

>  <smiles>  (28) 
[H]c1c([H])c([H])c2c(c1[H])C([H])([H])C([H])([H])C([H])([H])C2([H])N([H])C(=O)C1([H])N(C(=O)C([H])(N([H])C(=O)C([H])(N([H])C([H])([H])[H])C([H])([H])[H])C(C([H])([H])[H])(C([H])([H])[H])C([H])([H])[H])C([H])([H])c2c([H])c(OC([H])([H])c3c([H])c(C([H])([H])[H])c(OC([H])([H])C([H])([H])N([H])C(=O)N4C([H])([H])C([H])([H])C([H])([H])C([H])(n5nc(-c6c([H])c([H])c(Oc7c([H])c([H])c(F)c([H])c7F)c([H])c6[H])c(C(=O)N([H])[H])c5N([H])[H])C4([H])[H])c(C([H])([H])[H])c3[H])c([H])c([H])c2C1([H])[H]

$$$$
28:0:0
     RDKit          3D

 97106  0  0  1  0  0  0  0  0999 V2000
  -29.0750  -20.9100   20.7790 C   0  0  0  0  0  3  0  0  0  0  0  0
  -27.7500  -22.2300   19.2270 C   0  0  0  0  0  3  0  0  0  0  0  0
  -27.9230  -19.8060   18.9240 C   0  0  0  0  0  0  0  0  0  0  0  0
  -28.7350  -19.7150   20.0890 C   0  0  0  0  0  0  0  0  0  0  0  0
  -28.5860  -22.1750   20.3590 C   0  0  0  0  0  0  0  0  0  0  0  0
  -27.3760  -21.0560   18.5400 C   0  0  0  0  0  0  0  0  0  0  0  0
  -28.7150  -17.6060   17.7250 C   0  0  0  0  0  2  0  0  0  0  0  0
  -28.1160  -18.4780   16.6530 C   0  0  0  0  0  2  0  0  0  0  0  0
  -27.6210  -18.5920   18.0830 C   0  0  0  0  0  3  0  0  0  0  0  0
  -29.1150  -18.4370   20.5710 N   0  0  0  0  0  0  0  0  0  0  0  0
  -28.6520  -17.6800   20.0790 H   0  0  0  0  0  0  0  0  0  0  0  0
  -30.5200  -18.1210   20.8270 C   0  0  0  0  0  2  0  0  0  0  0  0
  -30.7030  -16.9680   21.8520 C   0  0  0  0  0  2  0  0  0  0  0  0
  -30.8520  -14.7050   20.7530 C   0  0  0  0  0  0  0  0  0  0  0  0
  -30.5730  -12.6110   19.4630 C   0  0  0  0  0  2  0  0  0  0  0  0
  -29.6670  -12.8810   18.2440 C   0  0  0  0  0  2  0  0  0  0  0  0
  -28.1840  -12.7200   18.6280 C   0  0  0  0  0  2  0  0  0  0  0  0
  -27.8150  -13.4940   19.9220 C   0  0  0  0  0  3  0  0  0  0  0  0
  -28.8380  -13.2120   21.0450 C   0  0  0  0  0  2  0  0  0  0  0  0
  -30.1740  -13.5440   20.5290 N   0  0  0  0  0  0  0  0  0  0  0  0
  -31.9800  -14.9160   20.3030 O   0  0  0  0  0  0  0  0  0  0  0  0
  -30.1770  -15.6610   21.4200 N   0  0  0  0  0  0  0  0  0  0  0  0
  -29.2470  -15.4210   21.7260 H   0  0  0  0  0  0  0  0  0  0  0  0
  -25.3930  -14.0670   20.5670 C   0  0  0  0  0  0  0  0  0  0  0  0
  -24.3170  -13.2760   20.8740 C   0  0  0  0  0  0  0  0  0  0  0  0
  -24.7890  -11.9290   20.8220 C   0  0  0  0  0  0  0  0  0  0  0  0
  -26.4500  -13.1980   20.3480 N   0  0  0  0  0  0  0  0  0  0  0  0
  -26.0900  -11.9080   20.5580 N   0  0  0  0  0  0  0  0  0  0  0  0
  -24.0670  -10.6570   20.9510 C   0  0  0  0  0  0  0  0  0  0  0  0
  -24.4620   -9.6720   21.8850 C   0  0  0  0  0  3  0  0  0  0  0  0
  -23.7370   -8.4670   22.0040 C   0  0  0  0  0  3  0  0  0  0  0  0
  -22.6050   -8.2370   21.1860 C   0  0  0  0  0  0  0  0  0  0  0  0
  -22.2310   -9.2090   20.2430 C   0  0  0  0  0  3  0  0  0  0  0  0
  -22.9570  -10.4070   20.1210 C   0  0  0  0  0  3  0  0  0  0  0  0
  -21.8560   -7.0850   21.2130 O   0  0  0  0  0  0  0  0  0  0  0  0
  -21.7260   -6.3370   22.3550 C   0  0  0  0  0  0  0  0  0  0  0  0
  -21.1970   -6.8790   23.5460 C   0  0  0  0  0  3  0  0  0  0  0  0
  -21.0180   -6.0570   24.6770 C   0  0  0  0  0  3  0  0  0  0  0  0
  -21.3600   -4.6930   24.6180 C   0  0  0  0  0  0  0  0  0  0  0  0
  -21.8840   -4.1500   23.4310 C   0  0  0  0  0  3  0  0  0  0  0  0
  -22.0640   -4.9700   22.3030 C   0  0  0  0  0  0  0  0  0  0  0  0
  -22.5520   -4.4370   21.1560 F   0  0  0  0  0  0  0  0  0  0  0  0
  -21.1810   -3.8990   25.7010 F   0  0  0  0  0  0  0  0  0  0  0  0
  -22.9090  -13.7370   21.1120 C   0  0  0  0  0  0  0  0  0  0  0  0
  -22.1690  -13.0230   21.9540 N   0  0  0  0  0  0  0  0  0  0  0  0
  -22.4700  -14.7600   20.5880 O   0  0  0  0  0  0  0  0  0  0  0  0
  -22.5400  -12.1950   22.3940 H   0  0  0  0  0  0  0  0  0  0  0  0
  -21.2210  -13.3050   22.1590 H   0  0  0  0  0  0  0  0  0  0  0  0
  -25.5490  -15.4410   20.4370 N   0  0  0  0  0  0  0  0  0  0  0  0
  -24.7710  -16.0800   20.5580 H   0  0  0  0  0  0  0  0  0  0  0  0
  -26.4120  -15.9020   20.1780 H   0  0  0  0  0  0  0  0  0  0  0  0
  -25.3620  -21.9640   17.6510 C   0  0  0  0  0  1  0  0  0  0  0  0
  -26.4900  -21.1030   17.4860 O   0  0  0  0  0  0  0  0  0  0  0  0
  -28.9240  -23.2970   21.0970 O   0  0  0  0  0  0  0  0  0  0  0  0
  -28.1510  -24.5090   20.9610 C   0  0  0  0  0  2  0  0  0  0  0  0
  -28.7850  -25.5140   19.9690 C   0  0  0  0  0  2  0  0  0  0  0  0
  -28.6470  -26.8880   20.3630 O   0  0  0  0  0  0  0  0  0  0  0  0
  -24.6670  -31.9760   23.3030 C   0  0  0  0  0  0  0  0  0  0  0  0
  -27.4300  -27.5390   20.3140 C   0  0  0  0  0  0  0  0  0  0  0  0
  -23.5080  -30.5450   21.6490 C   0  0  0  0  0  3  0  0  0  0  0  0
  -25.0050  -29.0090   20.2640 C   0  0  0  0  0  0  0  0  0  0  0  0
  -26.0300  -30.9350   21.4910 C   0  0  0  0  0  2  0  0  0  0  0  0
  -26.1440  -29.5590   20.8660 C   0  0  0  0  0  0  0  0  0  0  0  0
  -27.3540  -28.8310   20.8850 C   0  0  0  0  0  3  0  0  0  0  0  0
  -26.2670  -26.9920   19.7240 C   0  0  0  0  0  3  0  0  0  0  0  0
  -25.0620  -27.7240   19.6950 C   0  0  0  0  0  3  0  0  0  0  0  0
  -23.7490  -29.8510   20.2800 C   0  0  0  0  0  2  0  0  0  0  0  0
  -24.7520  -31.1690   22.2060 N   0  0  0  0  0  0  0  0  0  0  0  0
  -23.5730  -32.2390   23.8220 O   0  0  0  0  0  0  0  0  0  0  0  0
  -22.8540  -29.5260   22.6100 C   0  0  0  0  0  0  0  0  0  0  0  0
  -21.5360  -29.3190   22.4580 N   0  0  0  0  0  0  0  0  0  0  0  0
  -23.5310  -28.9230   23.4450 O   0  0  0  0  0  0  0  0  0  0  0  0
  -21.0480  -29.8620   21.7610 H   0  0  0  0  0  0  0  0  0  0  0  0
  -18.1680  -28.0980   22.9410 C   0  0  0  0  0  0  0  0  0  0  0  0
  -20.7220  -28.3700   23.2210 C   0  0  0  0  0  3  0  0  0  0  0  0
  -20.8350  -26.9430   22.6380 C   0  0  0  0  0  2  0  0  0  0  0  0
  -19.7390  -26.6180   21.6190 C   0  0  0  0  0  2  0  0  0  0  0  0
  -18.3550  -26.7520   22.2590 C   0  0  0  0  0  2  0  0  0  0  0  0
  -19.2790  -28.8640   23.3780 C   0  0  0  0  0  0  0  0  0  0  0  0
  -19.0530  -30.1240   23.9730 C   0  0  0  0  0  3  0  0  0  0  0  0
  -17.7450  -30.6180   24.1360 C   0  0  0  0  0  3  0  0  0  0  0  0
  -16.6480  -29.8500   23.7140 C   0  0  0  0  0  3  0  0  0  0  0  0
  -16.8590  -28.5910   23.1220 C   0  0  0  0  0  3  0  0  0  0  0  0
  -25.9340  -32.6300   23.9430 C   0  0  0  0  0  3  0  0  0  0  0  0
  -25.6040  -34.0280   24.2460 N   0  0  0  0  0  0  0  0  0  0  0  0
  -25.9410  -35.0730   23.4790 C   0  0  0  0  0  0  0  0  0  0  0  0
  -26.6310  -34.9630   22.4620 O   0  0  0  0  0  0  0  0  0  0  0  0
  -24.9900  -34.1900   25.0320 H   0  0  0  0  0  0  0  0  0  0  0  0
  -24.1880  -36.8330   23.0780 C   0  0  0  0  0  1  0  0  0  0  0  0
  -25.4280  -36.4610   23.9070 C   0  0  0  0  0  3  0  0  0  0  0  0
  -27.5450  -37.3860   24.7410 C   0  0  0  0  0  1  0  0  0  0  0  0
  -26.4450  -37.5300   23.7900 N   0  0  0  0  0  0  0  0  0  0  0  0
  -26.0240  -38.4440   23.9290 H   0  0  0  0  0  0  0  0  0  0  0  0
  -26.4360  -31.8820   25.2370 C   0  0  1  0  0  0  0  0  0  0  0  0
  -25.3170  -31.6130   26.2730 C   0  0  0  0  0  1  0  0  0  0  0  0
  -27.0760  -30.5230   24.8690 C   0  0  0  0  0  1  0  0  0  0  0  0
  -27.5430  -32.7150   25.9270 C   0  0  0  0  0  1  0  0  0  0  0  0
  2  5  2  0
  3  4  1  0
  4 10  1  0
  4  1  2  0
  5  1  1  0
  5 54  1  0
  6  3  2  0
  6  2  1  0
  7  9  1  0
  8  7  1  0
  8  9  1  0
  9  3  1  0
 10 12  1  0
 11 10  1  0
 12 13  1  0
 14 22  1  0
 15 20  1  0
 16 17  1  0
 16 15  1  0
 18 17  1  0
 18 27  1  0
 18 19  1  0
 20 14  1  0
 20 19  1  0
 21 14  2  0
 22 23  1  0
 22 13  1  0
 24 25  2  0
 25 44  1  0
 26 25  1  0
 26 29  1  0
 27 28  1  0
 27 24  1  0
 28 26  2  0
 29 30  1  0
 30 31  2  0
 32 35  1  0
 32 31  1  0
 33 32  2  0
 34 33  1  0
 34 29  2  0
 35 36  1  0
 36 37  1  0
 37 38  2  0
 39 38  1  0
 39 43  1  0
 40 39  2  0
 41 36  2  0
 41 40  1  0
 42 41  1  0
 44 45  1  0
 45 48  1  0
 45 47  1  0
 46 44  2  0
 49 50  1  0
 49 24  1  0
 51 49  1  0
 53 52  1  0
 53  6  1  0
 55 54  1  0
 56 57  1  0
 56 55  1  0
 58 69  2  0
 59 57  1  0
 59 64  1  0
 60 68  1  0
 60 70  1  0
 61 67  1  0
 61 63  1  0
 62 68  1  0
 63 64  2  0
 63 62  1  0
 65 59  2  0
 66 65  1  0
 66 61  2  0
 67 60  1  0
 68 58  1  0
 70 72  2  0
 71 70  1  0
 73 71  1  0
 74 83  2  0
 74 79  1  0
 75 71  1  0
 75 79  1  0
 76 75  1  0
 77 78  1  0
 77 76  1  0
 78 74  1  0
 79 80  2  0
 80 81  1  0
 82 81  2  0
 83 82  1  0
 84 58  1  0
 84 85  1  0
 84 94  1  0
 85 88  1  0
 86 90  1  0
 86 85  1  0
 87 86  2  0
 90 89  1  0
 92 90  1  0
 92 93  1  0
 92 91  1  0
 94 97  1  1
 94 95  1  0
 96 94  1  0
M  ISO  4  14 100  22 100  56 101  57 101
M  END
>  <TORSDO>  (29) 
F 24

>  <SCORE>  (29) 
-12.904

>  <name>  (29) 
28

>  <ligand_id>  (29) 
28

>  <original_smiles>  (29) 
[H]c1c([H])c([H])c2c(c1[H])C([H])([H])C([H])([H])C([H])([H])C2([H])N([H])C(=O)C1([H])N(C(=O)C([H])(N([H])C(=O)C([H])(N([H])C([H])([H])[H])C([H])([H])[H])C(C([H])([H])[H])(C([H])([H])[H])C([H])([H])[H])C([H])([H])c2c([H])c(OC([H])([H])C([H])([H])Oc3c([H])c(OC([H])([H])[H])c(C4([H])C([H])([H])C4([H])[H])c(N([H])C([H])([H])C([H])([H])N([H])C(=O)N4C([H])([H])C([H])([H])C([H])([H])C([H])(n5nc(-c6c([H])c([H])c(Oc7c([H])c([H])c(F)c([H])c7F)c([H])c6[H])c(C(=O)N([H])[H])c5N([H])[H])C4([H])[H])c3[H])c([H])c([H])c2C1([H])[H]

>  <smiles>  (29) 
[H]c1c([H])c([H])c2c(c1[H])C([H])([H])C([H])([H])C([H])([H])C2([H])N([H])C(=O)C1([H])N(C(=O)C([H])(N([H])C(=O)C([H])(N([H])C([H])([H])[H])C([H])([H])[H])C(C([H])([H])[H])(C([H])([H])[H])C([H])([H])[H])C([H])([H])c2c([H])c(OC([H])([H])C([H])([H])Oc3c([H])c(OC([H])([H])[H])c(C4([H])C([H])([H])C4([H])[H])c(N([H])C([H])([H])C([H])([H])N([H])C(=O)N4C([H])([H])C([H])([H])C([H])([H])C([H])(n5nc(-c6c([H])c([H])c(Oc7c([H])c([H])c(F)c([H])c7F)c([H])c6[H])c(C(=O)N([H])[H])c5N([H])[H])C4([H])[H])c3[H])c([H])c([H])c2C1([H])[H]

$$$$
29:0:0
     RDKit          3D

 98107  0  0  1  0  0  0  0  0999 V2000
  -32.0350  -20.8330   21.5040 C   0  0  0  0  0  3  0  0  0  0  0  0
  -31.3720  -19.6110   21.7280 C   0  0  0  0  0  3  0  0  0  0  0  0
  -30.9780  -21.0080   19.3380 C   0  0  0  0  0  3  0  0  0  0  0  0
  -31.8600  -21.5410   20.2970 C   0  0  0  0  0  0  0  0  0  0  0  0
  -30.2410  -19.8260   19.5850 C   0  0  0  0  0  0  0  0  0  0  0  0
  -30.4790  -19.0780   20.7690 C   0  0  0  0  0  0  0  0  0  0  0  0
  -31.8520  -24.0750   19.6230 C   0  0  0  0  0  2  0  0  0  0  0  0
  -32.8620  -23.4350   18.6980 C   0  0  0  0  0  2  0  0  0  0  0  0
  -32.6010  -22.8380   20.0680 C   0  0  0  0  0  3  0  0  0  0  0  0
  -29.1700  -19.3810   18.5860 C   0  0  0  0  0  2  0  0  0  0  0  0
  -28.2990  -20.5270   18.0100 C   0  0  0  0  0  2  0  0  0  0  0  0
  -27.7450  -21.4110   19.0650 N   0  0  0  0  0  4  0  0  0  0  0  0
  -28.3940  -21.4050   19.8380 H   0  0  0  0  0  0  0  0  0  0  0  0
  -26.8780  -21.0180   19.4020 H   0  0  0  0  0  0  0  0  0  0  0  0
  -27.5270  -22.8140   18.6320 C   0  0  0  0  0  2  0  0  0  0  0  0
  -27.3830  -23.7760   19.8280 C   0  0  0  0  0  2  0  0  0  0  0  0
  -27.6570  -25.1210   19.4330 O   0  0  0  0  0  0  0  0  0  0  0  0
  -24.9430  -30.4390   23.2740 C   0  0  0  0  0  0  0  0  0  0  0  0
  -26.6360  -26.0340   19.5570 C   0  0  0  0  0  0  0  0  0  0  0  0
  -23.4860  -29.5620   21.4790 C   0  0  0  0  0  3  0  0  0  0  0  0
  -24.5970  -27.9680   19.8310 C   0  0  0  0  0  0  0  0  0  0  0  0
  -26.0310  -29.4200   21.2770 C   0  0  0  0  0  2  0  0  0  0  0  0
  -25.8360  -28.1650   20.4530 C   0  0  0  0  0  0  0  0  0  0  0  0
  -26.8630  -27.2070   20.3070 C   0  0  0  0  0  3  0  0  0  0  0  0
  -25.3810  -25.8460   18.9340 C   0  0  0  0  0  3  0  0  0  0  0  0
  -24.3630  -26.8080   19.0710 C   0  0  0  0  0  3  0  0  0  0  0  0
  -23.5610  -29.0530   20.0170 C   0  0  0  0  0  2  0  0  0  0  0  0
  -24.8410  -29.8070   22.0710 N   0  0  0  0  0  0  0  0  0  0  0  0
  -23.9370  -30.8530   23.8670 O   0  0  0  0  0  0  0  0  0  0  0  0
  -22.6280  -28.5730   22.3000 C   0  0  0  0  0  0  0  0  0  0  0  0
  -21.2960  -28.6930   22.1760 N   0  0  0  0  0  0  0  0  0  0  0  0
  -23.1570  -27.7060   23.0020 O   0  0  0  0  0  0  0  0  0  0  0  0
  -20.9410  -29.4320   21.5840 H   0  0  0  0  0  0  0  0  0  0  0  0
  -17.7410  -28.2010   22.5830 C   0  0  0  0  0  0  0  0  0  0  0  0
  -20.2900  -27.8530   22.8230 C   0  0  0  0  0  3  0  0  0  0  0  0
  -20.0830  -26.5350   22.0430 C   0  0  0  0  0  2  0  0  0  0  0  0
  -18.9430  -26.6110   21.0210 C   0  0  0  0  0  2  0  0  0  0  0  0
  -17.6220  -26.9580   21.7160 C   0  0  0  0  0  2  0  0  0  0  0  0
  -18.9960  -28.6290   23.0880 C   0  0  0  0  0  0  0  0  0  0  0  0
  -19.0560  -29.8100   23.8610 C   0  0  0  0  0  3  0  0  0  0  0  0
  -17.8940  -30.5570   24.1260 C   0  0  0  0  0  3  0  0  0  0  0  0
  -16.6520  -30.1180   23.6390 C   0  0  0  0  0  3  0  0  0  0  0  0
  -16.5750  -28.9400   22.8750 C   0  0  0  0  0  3  0  0  0  0  0  0
  -26.3250  -30.6950   23.9510 C   0  0  0  0  0  3  0  0  0  0  0  0
  -26.6940  -29.6160   25.0420 C   0  0  1  0  0  0  0  0  0  0  0  0
  -25.5810  -29.3870   26.0920 C   0  0  0  0  0  1  0  0  0  0  0  0
  -26.9990  -28.2560   24.3740 C   0  0  0  0  0  1  0  0  0  0  0  0
  -27.9830  -30.0410   25.7870 C   0  0  0  0  0  1  0  0  0  0  0  0
  -26.2860  -32.0400   24.5390 N   0  0  0  0  0  0  0  0  0  0  0  0
  -26.8880  -33.1170   24.0120 C   0  0  0  0  0  0  0  0  0  0  0  0
  -27.5980  -33.0620   23.0040 O   0  0  0  0  0  0  0  0  0  0  0  0
  -25.6750  -32.1730   25.3290 H   0  0  0  0  0  0  0  0  0  0  0  0
  -25.6420  -35.3010   23.9150 C   0  0  0  0  0  1  0  0  0  0  0  0
  -26.6610  -34.4700   24.7120 C   0  0  0  0  0  3  0  0  0  0  0  0
  -28.8170  -34.6580   25.8700 C   0  0  0  0  0  1  0  0  0  0  0  0
  -27.9040  -35.2510   24.8990 N   0  0  0  0  0  0  0  0  0  0  0  0
  -27.6920  -36.2000   25.1990 H   0  0  0  0  0  0  0  0  0  0  0  0
  -29.8340  -17.8610   20.9250 O   0  0  0  0  0  0  0  0  0  0  0  0
  -30.1750  -17.0100   22.0280 C   0  0  0  0  0  2  0  0  0  0  0  0
  -31.2420  -15.9350   21.6940 C   0  0  0  0  0  2  0  0  0  0  0  0
  -31.0750  -13.9090   20.2210 C   0  0  0  0  0  0  0  0  0  0  0  0
  -30.4920  -12.0130   18.7490 C   0  0  0  0  0  2  0  0  0  0  0  0
  -29.4770  -12.4500   17.6760 C   0  0  0  0  0  2  0  0  0  0  0  0
  -28.0330  -12.3690   18.2120 C   0  0  0  0  0  2  0  0  0  0  0  0
  -27.8680  -13.0420   19.5970 C   0  0  0  0  0  3  0  0  0  0  0  0
  -28.9700  -12.5640   20.5660 C   0  0  0  0  0  2  0  0  0  0  0  0
  -30.2800  -12.8410   19.9450 N   0  0  0  0  0  0  0  0  0  0  0  0
  -32.0970  -14.1770   19.5830 O   0  0  0  0  0  0  0  0  0  0  0  0
  -30.6480  -14.6770   21.2310 N   0  0  0  0  0  0  0  0  0  0  0  0
  -29.8280  -14.3500   21.7190 H   0  0  0  0  0  0  0  0  0  0  0  0
  -25.5460  -13.7360   20.4630 C   0  0  0  0  0  0  0  0  0  0  0  0
  -24.4680  -13.0000   20.8760 C   0  0  0  0  0  0  0  0  0  0  0  0
  -24.8630  -11.6320   20.7770 C   0  0  0  0  0  0  0  0  0  0  0  0
  -26.5330  -12.8160   20.1460 N   0  0  0  0  0  0  0  0  0  0  0  0
  -26.1280  -11.5440   20.3900 N   0  0  0  0  0  0  0  0  0  0  0  0
  -24.0910  -10.3990   20.9770 C   0  0  0  0  0  0  0  0  0  0  0  0
  -24.5080   -9.4090   21.8930 C   0  0  0  0  0  3  0  0  0  0  0  0
  -23.7430   -8.2370   22.0790 C   0  0  0  0  0  3  0  0  0  0  0  0
  -22.5440   -8.0480   21.3500 C   0  0  0  0  0  0  0  0  0  0  0  0
  -22.1460   -9.0270   20.4220 C   0  0  0  0  0  3  0  0  0  0  0  0
  -22.9110  -10.1900   20.2350 C   0  0  0  0  0  3  0  0  0  0  0  0
  -21.7450   -6.9360   21.4480 O   0  0  0  0  0  0  0  0  0  0  0  0
  -21.6490   -6.2200   22.6140 C   0  0  0  0  0  0  0  0  0  0  0  0
  -21.1670   -6.8000   23.8080 C   0  0  0  0  0  3  0  0  0  0  0  0
  -21.0250   -6.0100   24.9670 C   0  0  0  0  0  3  0  0  0  0  0  0
  -21.3460   -4.6390   24.9300 C   0  0  0  0  0  0  0  0  0  0  0  0
  -21.8160   -4.0590   23.7370 C   0  0  0  0  0  3  0  0  0  0  0  0
  -21.9640   -4.8460   22.5830 C   0  0  0  0  0  0  0  0  0  0  0  0
  -22.4000   -4.2780   21.4320 F   0  0  0  0  0  0  0  0  0  0  0  0
  -21.2000   -3.8750   26.0380 F   0  0  0  0  0  0  0  0  0  0  0  0
  -23.1120  -13.5270   21.2500 C   0  0  0  0  0  0  0  0  0  0  0  0
  -22.4150  -12.8390   22.1490 N   0  0  0  0  0  0  0  0  0  0  0  0
  -22.6870  -14.5830   20.7840 O   0  0  0  0  0  0  0  0  0  0  0  0
  -22.7770  -11.9870   22.5520 H   0  0  0  0  0  0  0  0  0  0  0  0
  -21.5060  -13.1680   22.4380 H   0  0  0  0  0  0  0  0  0  0  0  0
  -25.7620  -15.1020   20.3170 N   0  0  0  0  0  0  0  0  0  0  0  0
  -25.0330  -15.7860   20.4930 H   0  0  0  0  0  0  0  0  0  0  0  0
  -26.6090  -15.5150   19.9450 H   0  0  0  0  0  0  0  0  0  0  0  0
  1  2  1  0
  3  5  2  0
  3  4  1  0
  4  1  2  0
  5  6  1  0
  6 58  1  0
  6  2  2  0
  7  9  1  0
  8  7  1  0
  8  9  1  0
  9  4  1  0
 10  5  1  0
 11 10  1  0
 11 12  1  0
 12 14  1  0
 12 13  1  0
 15 12  1  0
 15 16  1  0
 17 19  1  0
 17 16  1  0
 18 29  2  0
 19 24  1  0
 20 28  1  0
 20 30  1  0
 21 27  1  0
 21 23  1  0
 22 28  1  0
 23 22  1  0
 24 23  2  0
 25 26  1  0
 25 19  2  0
 26 21  2  0
 27 20  1  0
 28 18  1  0
 30 32  2  0
 31 30  1  0
 33 31  1  0
 34 43  2  0
 34 39  1  0
 35 31  1  0
 35 39  1  0
 36 35  1  0
 37 38  1  0
 37 36  1  0
 38 34  1  0
 39 40  2  0
 40 41  1  0
 42 41  2  0
 43 42  1  0
 44 18  1  0
 44 49  1  0
 44 45  1  0
 45 48  1  1
 45 46  1  0
 47 45  1  0
 49 52  1  0
 50 49  1  0
 50 54  1  0
 51 50  2  0
 54 53  1  0
 54 56  1  0
 56 57  1  0
 56 55  1  0
 58 59  1  0
 60 59  1  0
 61 69  1  0
 62 67  1  0
 63 64  1  0
 63 62  1  0
 65 64  1  0
 65 74  1  0
 65 66  1  0
 67 61  1  0
 67 66  1  0
 68 61  2  0
 69 60  1  0
 69 70  1  0
 71 72  2  0
 72 91  1  0
 73 72  1  0
 73 76  1  0
 74 75  1  0
 74 71  1  0
 75 73  2  0
 76 77  1  0
 77 78  2  0
 79 82  1  0
 79 78  1  0
 80 79  2  0
 81 80  1  0
 81 76  2  0
 82 83  1  0
 83 84  1  0
 84 85  2  0
 86 85  1  0
 86 90  1  0
 87 86  2  0
 88 83  2  0
 88 87  1  0
 89 88  1  0
 91 92  1  0
 92 95  1  0
 92 94  1  0
 93 91  2  0
 96 71  1  0
 96 97  1  0
 98 96  1  0
M  ISO  4  16 101  17 101  61 100  69 100
M  END
>  <TORSDO>  (30) 
F 25

>  <SCORE>  (30) 
-10.669

>  <name>  (30) 
29

>  <ligand_id>  (30) 
29

>  <original_smiles>  (30) 
[H]c1c([H])c([H])c2c(c1[H])C([H])([H])C([H])([H])C([H])([H])C2([H])N([H])C(=O)C1([H])N(C(=O)C([H])(N([H])C(=O)C([H])(N([H])C([H])([H])[H])C([H])([H])[H])C(C([H])([H])[H])(C([H])([H])[H])C([H])([H])[H])C([H])([H])c2c([H])c(OC([H])([H])C([H])([H])[N+]([H])([H])C([H])([H])C([H])([H])c3c([H])c(C4([H])C([H])([H])C4([H])[H])c([H])c([H])c3OC([H])([H])C([H])([H])N([H])C(=O)N3C([H])([H])C([H])([H])C([H])([H])C([H])(n4nc(-c5c([H])c([H])c(Oc6c([H])c([H])c(F)c([H])c6F)c([H])c5[H])c(C(=O)N([H])[H])c4N([H])[H])C3([H])[H])c([H])c([H])c2C1([H])[H]

>  <smiles>  (30) 
[H]c1c([H])c([H])c2c(c1[H])C([H])([H])C([H])([H])C([H])([H])C2([H])N([H])C(=O)C1([H])N(C(=O)C([H])(N([H])C(=O)C([H])(N([H])C([H])([H])[H])C([H])([H])[H])C(C([H])([H])[H])(C([H])([H])[H])C([H])([H])[H])C([H])([H])c2c([H])c(OC([H])([H])C([H])([H])[N+]([H])([H])C([H])([H])C([H])([H])c3c([H])c(C4([H])C([H])([H])C4([H])[H])c([H])c([H])c3OC([H])([H])C([H])([H])N([H])C(=O)N3C([H])([H])C([H])([H])C([H])([H])C([H])(n4nc(-c5c([H])c([H])c(Oc6c([H])c([H])c(F)c([H])c6F)c([H])c5[H])c(C(=O)N([H])[H])c4N([H])[H])C3([H])[H])c([H])c([H])c2C1([H])[H]

$$$$
30:0:0
     RDKit          3D

 94103  0  0  1  0  0  0  0  0999 V2000
  -30.9060  -18.8290   19.1290 C   0  0  0  0  0  3  0  0  0  0  0  0
  -29.1340  -20.8300   19.7820 C   0  0  0  0  0  0  0  0  0  0  0  0
  -29.9810  -18.5500   20.1660 C   0  0  0  0  0  0  0  0  0  0  0  0
  -29.0210  -19.5820   20.4780 C   0  0  0  0  0  0  0  0  0  0  0  0
  -30.1400  -20.9840   18.8390 C   0  0  0  0  0  0  0  0  0  0  0  0
  -30.1620  -22.3900   18.2670 C   0  0  0  0  0  2  0  0  0  0  0  0
  -28.3580  -22.1680   19.8840 C   0  0  0  0  0  3  0  0  0  0  0  0
  -27.9360  -19.3830   21.5280 C   0  0  0  0  0  1  0  0  0  0  0  0
  -26.8240  -22.0320   19.8690 C   0  0  0  0  0  1  0  0  0  0  0  0
  -30.9990  -20.0120   18.4730 N   0  0  0  0  0  0  0  0  0  0  0  0
  -28.8410  -22.9290   18.6790 N   0  0  1  0  0  4  0  0  0  0  0  0
  -28.2750  -22.5070   17.9580 H   0  0  0  0  0  0  0  0  0  0  0  0
  -30.2390  -17.2600   21.0190 C   0  0  0  0  0  2  0  0  0  0  0  0
  -30.5400  -14.8630   20.1550 C   0  0  0  0  0  0  0  0  0  0  0  0
  -30.3050  -12.6680   19.0240 C   0  0  0  0  0  2  0  0  0  0  0  0
  -29.3220  -12.8140   17.8450 C   0  0  0  0  0  2  0  0  0  0  0  0
  -27.8660  -12.6340   18.3190 C   0  0  0  0  0  2  0  0  0  0  0  0
  -27.5390  -13.4700   19.5860 C   0  0  0  0  0  3  0  0  0  0  0  0
  -28.6300  -13.2980   20.6630 C   0  0  0  0  0  2  0  0  0  0  0  0
  -29.9140  -13.6560   20.0450 N   0  0  0  0  0  0  0  0  0  0  0  0
  -31.6940  -15.0340   19.7510 O   0  0  0  0  0  0  0  0  0  0  0  0
  -29.7740  -15.9110   20.5800 N   0  0  0  0  0  0  0  0  0  0  0  0
  -28.8170  -15.6800   20.8010 H   0  0  0  0  0  0  0  0  0  0  0  0
  -25.1600  -14.0310   20.3750 C   0  0  0  0  0  0  0  0  0  0  0  0
  -24.1170  -13.2390   20.7730 C   0  0  0  0  0  0  0  0  0  0  0  0
  -24.6020  -11.8970   20.7230 C   0  0  0  0  0  0  0  0  0  0  0  0
  -26.2100  -13.1680   20.1060 N   0  0  0  0  0  0  0  0  0  0  0  0
  -25.8820  -11.8790   20.3770 N   0  0  0  0  0  0  0  0  0  0  0  0
  -23.9020  -10.6210   20.9280 C   0  0  0  0  0  0  0  0  0  0  0  0
  -24.3670   -9.6640   21.8570 C   0  0  0  0  0  3  0  0  0  0  0  0
  -23.6670   -8.4530   22.0470 C   0  0  0  0  0  3  0  0  0  0  0  0
  -22.4880   -8.1910   21.3100 C   0  0  0  0  0  0  0  0  0  0  0  0
  -22.0430   -9.1380   20.3690 C   0  0  0  0  0  3  0  0  0  0  0  0
  -22.7440  -10.3400   20.1770 C   0  0  0  0  0  3  0  0  0  0  0  0
  -21.7560   -7.0320   21.4120 O   0  0  0  0  0  0  0  0  0  0  0  0
  -21.7340   -6.2950   22.5670 C   0  0  0  0  0  0  0  0  0  0  0  0
  -21.3060   -6.8450   23.7950 C   0  0  0  0  0  3  0  0  0  0  0  0
  -21.2320   -6.0330   24.9440 C   0  0  0  0  0  3  0  0  0  0  0  0
  -21.5750   -4.6700   24.8650 C   0  0  0  0  0  0  0  0  0  0  0  0
  -21.9970   -4.1180   23.6420 C   0  0  0  0  0  3  0  0  0  0  0  0
  -22.0720   -4.9280   22.4960 C   0  0  0  0  0  0  0  0  0  0  0  0
  -22.4580   -4.3870   21.3160 F   0  0  0  0  0  0  0  0  0  0  0  0
  -21.4980   -3.8870   25.9660 F   0  0  0  0  0  0  0  0  0  0  0  0
  -22.7210  -13.6920   21.0870 C   0  0  0  0  0  0  0  0  0  0  0  0
  -22.0300  -12.9810   21.9700 N   0  0  0  0  0  0  0  0  0  0  0  0
  -22.2510  -14.7110   20.5830 O   0  0  0  0  0  0  0  0  0  0  0  0
  -22.4220  -12.1550   22.3970 H   0  0  0  0  0  0  0  0  0  0  0  0
  -21.0940  -13.2670   22.2230 H   0  0  0  0  0  0  0  0  0  0  0  0
  -25.2980  -15.4060   20.1970 N   0  0  0  0  0  0  0  0  0  0  0  0
  -24.5190  -16.0440   20.3160 H   0  0  0  0  0  0  0  0  0  0  0  0
  -26.1180  -15.8560   19.8110 H   0  0  0  0  0  0  0  0  0  0  0  0
  -28.5580  -24.4040   18.4600 C   0  0  0  0  0  3  0  0  0  0  0  0
  -28.8670  -25.4580   19.5800 C   0  0  0  0  0  3  0  0  0  0  0  0
  -28.7540  -26.8820   19.2330 O   0  0  0  0  0  0  0  0  0  0  0  0
  -24.6350  -31.5490   22.8330 C   0  0  0  0  0  0  0  0  0  0  0  0
  -27.5360  -27.5470   19.3440 C   0  0  0  0  0  0  0  0  0  0  0  0
  -23.5090  -30.2060   21.0930 C   0  0  0  0  0  3  0  0  0  0  0  0
  -25.0450  -28.9120   19.5190 C   0  0  0  0  0  0  0  0  0  0  0  0
  -26.0030  -30.7600   20.8950 C   0  0  0  0  0  2  0  0  0  0  0  0
  -26.1780  -29.4570   20.1360 C   0  0  0  0  0  0  0  0  0  0  0  0
  -27.4270  -28.7850   20.0390 C   0  0  0  0  0  3  0  0  0  0  0  0
  -26.3780  -27.0440   18.7130 C   0  0  0  0  0  3  0  0  0  0  0  0
  -25.1440  -27.7100   18.8020 C   0  0  0  0  0  3  0  0  0  0  0  0
  -23.7430  -29.6720   19.6550 C   0  0  0  0  0  2  0  0  0  0  0  0
  -24.7340  -30.8500   21.6670 N   0  0  0  0  0  0  0  0  0  0  0  0
  -23.5460  -31.6890   23.4070 O   0  0  0  0  0  0  0  0  0  0  0  0
  -22.9570  -29.0560   21.9680 C   0  0  0  0  0  0  0  0  0  0  0  0
  -21.6410  -28.8010   21.8640 N   0  0  0  0  0  0  0  0  0  0  0  0
  -23.7060  -28.4010   22.6980 O   0  0  0  0  0  0  0  0  0  0  0  0
  -21.0920  -29.3880   21.2500 H   0  0  0  0  0  0  0  0  0  0  0  0
  -18.3620  -27.3680   22.3700 C   0  0  0  0  0  0  0  0  0  0  0  0
  -20.9120  -27.7420   22.5620 C   0  0  0  0  0  3  0  0  0  0  0  0
  -21.0620  -26.3880   21.8310 C   0  0  0  0  0  2  0  0  0  0  0  0
  -19.9310  -26.1110   20.8360 C   0  0  0  0  0  2  0  0  0  0  0  0
  -18.5760  -26.1090   21.5490 C   0  0  0  0  0  2  0  0  0  0  0  0
  -19.4580  -28.1420   22.8340 C   0  0  0  0  0  0  0  0  0  0  0  0
  -19.2030  -29.3210   23.5670 C   0  0  0  0  0  3  0  0  0  0  0  0
  -17.8840  -29.7280   23.8400 C   0  0  0  0  0  3  0  0  0  0  0  0
  -16.8020  -28.9480   23.3960 C   0  0  0  0  0  3  0  0  0  0  0  0
  -17.0410  -27.7700   22.6650 C   0  0  0  0  0  3  0  0  0  0  0  0
  -25.8790  -32.2240   23.4890 C   0  0  0  0  0  3  0  0  0  0  0  0
  -26.4750  -31.3930   24.6910 C   0  0  1  0  0  0  0  0  0  0  0  0
  -25.4240  -30.9920   25.7520 C   0  0  0  0  0  1  0  0  0  0  0  0
  -27.1480  -30.0990   24.1770 C   0  0  0  0  0  1  0  0  0  0  0  0
  -27.5790  -32.2130   25.3980 C   0  0  0  0  0  1  0  0  0  0  0  0
  -25.4720  -33.5630   23.9360 N   0  0  0  0  0  0  0  0  0  0  0  0
  -25.7240  -34.6980   23.2700 C   0  0  0  0  0  0  0  0  0  0  0  0
  -26.3940  -34.7320   22.2350 O   0  0  0  0  0  0  0  0  0  0  0  0
  -24.8750  -33.6060   24.7490 H   0  0  0  0  0  0  0  0  0  0  0  0
  -23.8640  -36.3810   23.0710 C   0  0  0  0  0  1  0  0  0  0  0  0
  -25.1380  -36.0040   23.8440 C   0  0  0  0  0  3  0  0  0  0  0  0
  -27.2050  -36.9740   24.7430 C   0  0  0  0  0  1  0  0  0  0  0  0
  -26.0880  -37.1360   23.8170 N   0  0  0  0  0  0  0  0  0  0  0  0
  -25.6160  -38.0090   24.0410 H   0  0  0  0  0  0  0  0  0  0  0  0
  1  3  1  0
  2  7  1  0
  2  4  1  0
  3  4  2  0
  3 13  1  0
  4  8  1  0
  5  2  2  0
  6 11  1  0
  6  5  1  0
  7  9  1  0
 10  5  1  0
 10  1  2  0
 11  7  1  0
 11 12  1  6
 14 22  1  0
 15 20  1  0
 16 17  1  0
 16 15  1  0
 18 17  1  0
 18 27  1  0
 18 19  1  0
 20 14  1  0
 20 19  1  0
 21 14  2  0
 22 23  1  0
 22 13  1  0
 24 25  2  0
 25 44  1  0
 26 25  1  0
 26 29  1  0
 27 24  1  0
 27 28  1  0
 28 26  2  0
 29 30  1  0
 30 31  2  0
 32 35  1  0
 32 31  1  0
 33 32  2  0
 34 33  1  0
 34 29  2  0
 35 36  1  0
 36 37  1  0
 37 38  2  0
 39 38  1  0
 39 43  1  0
 40 39  2  0
 41 36  2  0
 41 40  1  0
 42 41  1  0
 44 45  1  0
 45 48  1  0
 45 47  1  0
 46 44  2  0
 49 50  1  0
 49 24  1  0
 51 49  1  0
 52 11  1  0
 52 53  2  0
 54 56  1  0
 54 53  1  0
 55 66  2  0
 56 61  1  0
 57 65  1  0
 57 67  1  0
 58 64  1  0
 58 60  1  0
 59 65  1  0
 60 59  1  0
 61 60  2  0
 62 63  1  0
 62 56  2  0
 63 58  2  0
 64 57  1  0
 65 55  1  0
 67 69  2  0
 68 67  1  0
 70 68  1  0
 71 80  2  0
 71 76  1  0
 72 68  1  0
 72 76  1  0
 73 72  1  0
 74 75  1  0
 74 73  1  0
 75 71  1  0
 76 77  2  0
 77 78  1  0
 79 78  2  0
 80 79  1  0
 81 55  1  0
 81 86  1  0
 81 82  1  0
 82 85  1  1
 82 83  1  0
 84 82  1  0
 86 89  1  0
 87 91  1  0
 87 86  1  0
 88 87  2  0
 91 90  1  0
 93 91  1  0
 93 94  1  0
 93 92  1  0
M  ISO  4  14 100  22 100  53 101  54 101
M  END
>  <TORSDO>  (31) 
F 19

>  <SCORE>  (31) 
-10.712

>  <name>  (31) 
30

>  <ligand_id>  (31) 
30

>  <original_smiles>  (31) 
[H]c1nc2c(c(C([H])([H])[H])c1C([H])([H])N([H])C(=O)N1C([H])([H])C([H])([H])C([H])([H])C([H])(n3nc(-c4c([H])c([H])c(Oc5c([H])c([H])c(F)c([H])c5F)c([H])c4[H])c(C(=O)N([H])[H])c3N([H])[H])C1([H])[H])C([H])(C([H])([H])[H])[N+]([H])(C([H])([H])C([H])([H])Oc1c([H])c([H])c3c(c1[H])C([H])([H])N(C(=O)C([H])(N([H])C(=O)C([H])(N([H])C([H])([H])[H])C([H])([H])[H])C(C([H])([H])[H])(C([H])([H])[H])C([H])([H])[H])C([H])(C(=O)N([H])C1([H])c4c([H])c([H])c([H])c([H])c4C([H])([H])C([H])([H])C1([H])[H])C3([H])[H])C2([H])[H]

>  <smiles>  (31) 
[H]c1nc2c(c(C([H])([H])[H])c1C([H])([H])N([H])C(=O)N1C([H])([H])C([H])([H])C([H])([H])C([H])(n3nc(-c4c([H])c([H])c(Oc5c([H])c([H])c(F)c([H])c5F)c([H])c4[H])c(C(=O)N([H])[H])c3N([H])[H])C1([H])[H])C([H])(C([H])([H])[H])[N+]([H])(C([H])([H])C([H])([H])Oc1c([H])c([H])c3c(c1[H])C([H])([H])N(C(=O)C([H])(N([H])C(=O)C([H])(N([H])C([H])([H])[H])C([H])([H])[H])C(C([H])([H])[H])(C([H])([H])[H])C([H])([H])[H])C([H])(C(=O)N([H])C1([H])c4c([H])c([H])c([H])c([H])c4C([H])([H])C([H])([H])C1([H])[H])C3([H])[H])C2([H])[H]

$$$$
31:0:0
     RDKit          3D

 92100  0  0  1  0  0  0  0  0999 V2000
  -29.1040  -19.7100   19.2610 C   0  0  0  0  0  3  0  0  0  0  0  0
  -29.4080  -18.2960   19.2050 C   0  0  0  0  0  3  0  0  0  0  0  0
  -30.4190  -18.4520   21.3420 C   0  0  0  0  0  3  0  0  0  0  0  0
  -29.4150  -20.5710   20.3670 C   0  0  0  0  0  0  0  0  0  0  0  0
  -30.0560  -17.5840   20.2610 C   0  0  0  0  0  0  0  0  0  0  0  0
  -30.1520  -19.8830   21.3950 C   0  0  0  0  0  0  0  0  0  0  0  0
  -30.9280  -15.0130   20.1380 C   0  0  0  0  0  0  0  0  0  0  0  0
  -30.8550  -12.6680   19.2180 C   0  0  0  0  0  2  0  0  0  0  0  0
  -29.8790  -12.6220   18.0200 C   0  0  0  0  0  2  0  0  0  0  0  0
  -28.4290  -12.4010   18.4980 C   0  0  0  0  0  2  0  0  0  0  0  0
  -28.0480  -13.3400   19.6730 C   0  0  0  0  0  3  0  0  0  0  0  0
  -29.1330  -13.3290   20.7720 C   0  0  0  0  0  2  0  0  0  0  0  0
  -30.3910  -13.7380   20.1370 N   0  0  0  0  0  0  0  0  0  0  0  0
  -32.1000  -15.1700   19.7790 O   0  0  0  0  0  0  0  0  0  0  0  0
  -30.0480  -16.0790   20.3820 N   0  0  0  0  0  0  0  0  0  0  0  0
  -29.1330  -15.7190   20.6100 H   0  0  0  0  0  0  0  0  0  0  0  0
  -25.7100  -13.9280   20.5440 C   0  0  0  0  0  0  0  0  0  0  0  0
  -24.6480  -13.1520   20.9220 C   0  0  0  0  0  0  0  0  0  0  0  0
  -25.0880  -11.7990   20.8030 C   0  0  0  0  0  0  0  0  0  0  0  0
  -26.7240  -13.0470   20.2100 N   0  0  0  0  0  0  0  0  0  0  0  0
  -26.3620  -11.7580   20.4320 N   0  0  0  0  0  0  0  0  0  0  0  0
  -24.3540  -10.5370   20.9650 C   0  0  0  0  0  0  0  0  0  0  0  0
  -24.7450   -9.5700   21.9150 C   0  0  0  0  0  3  0  0  0  0  0  0
  -24.0110   -8.3740   22.0610 C   0  0  0  0  0  3  0  0  0  0  0  0
  -22.8720   -8.1380   21.2580 C   0  0  0  0  0  0  0  0  0  0  0  0
  -22.4990   -9.0950   20.2970 C   0  0  0  0  0  3  0  0  0  0  0  0
  -23.2340  -10.2830   20.1480 C   0  0  0  0  0  3  0  0  0  0  0  0
  -22.1140   -6.9930   21.3140 O   0  0  0  0  0  0  0  0  0  0  0  0
  -21.8770   -6.3450   22.4990 C   0  0  0  0  0  0  0  0  0  0  0  0
  -21.2220   -6.9790   23.5780 C   0  0  0  0  0  3  0  0  0  0  0  0
  -20.9330   -6.2540   24.7510 C   0  0  0  0  0  3  0  0  0  0  0  0
  -21.2930   -4.8960   24.8460 C   0  0  0  0  0  0  0  0  0  0  0  0
  -21.9400   -4.2610   23.7720 C   0  0  0  0  0  3  0  0  0  0  0  0
  -22.2290   -4.9840   22.6000 C   0  0  0  0  0  0  0  0  0  0  0  0
  -22.8350   -4.3630   21.5600 F   0  0  0  0  0  0  0  0  0  0  0  0
  -21.0090   -4.1970   25.9710 F   0  0  0  0  0  0  0  0  0  0  0  0
  -23.2720  -13.6370   21.2800 C   0  0  0  0  0  0  0  0  0  0  0  0
  -22.5760  -12.9140   22.1510 N   0  0  0  0  0  0  0  0  0  0  0  0
  -22.8280  -14.6900   20.8270 O   0  0  0  0  0  0  0  0  0  0  0  0
  -22.9500  -12.0620   22.5440 H   0  0  0  0  0  0  0  0  0  0  0  0
  -21.6560  -13.2180   22.4330 H   0  0  0  0  0  0  0  0  0  0  0  0
  -25.8880  -15.3040   20.4340 N   0  0  0  0  0  0  0  0  0  0  0  0
  -25.1450  -15.9590   20.6510 H   0  0  0  0  0  0  0  0  0  0  0  0
  -26.7270  -15.7580   20.0930 H   0  0  0  0  0  0  0  0  0  0  0  0
  -31.6880  -20.2320   23.2110 C   0  0  0  0  0  1  0  0  0  0  0  0
  -30.5280  -20.6430   22.4830 O   0  0  0  0  0  0  0  0  0  0  0  0
  -28.7180  -22.0420   20.5780 C   0  0  0  0  0  3  0  0  0  0  0  0
  -27.4080  -22.0170   20.0330 O   0  0  0  0  0  0  0  0  0  0  0  0
  -27.4840  -21.9870   19.0860 H   0  0  0  0  0  0  0  0  0  0  0  0
  -29.2990  -23.5540   20.2280 C   0  0  0  0  0  3  0  0  0  0  0  0
  -28.2890  -24.8720   20.3430 C   0  0  0  0  0  3  0  0  0  0  0  0
  -28.6080  -26.3710   20.1690 O   0  0  0  0  0  0  0  0  0  0  0  0
  -24.7910  -31.7960   23.2740 C   0  0  0  0  0  0  0  0  0  0  0  0
  -27.5370  -27.3210   20.1040 C   0  0  0  0  0  0  0  0  0  0  0  0
  -23.6630  -30.4690   21.5300 C   0  0  0  0  0  3  0  0  0  0  0  0
  -25.1790  -29.0060   20.0700 C   0  0  0  0  0  0  0  0  0  0  0  0
  -26.2110  -30.7940   21.4560 C   0  0  0  0  0  2  0  0  0  0  0  0
  -26.3300  -29.4440   20.7390 C   0  0  0  0  0  0  0  0  0  0  0  0
  -27.5100  -28.6170   20.7450 C   0  0  0  0  0  3  0  0  0  0  0  0
  -26.3670  -26.9870   19.3820 C   0  0  0  0  0  3  0  0  0  0  0  0
  -25.2110  -27.7900   19.3730 C   0  0  0  0  0  3  0  0  0  0  0  0
  -23.9370  -29.8770   20.1230 C   0  0  0  0  0  2  0  0  0  0  0  0
  -24.9050  -31.0380   22.1430 N   0  0  0  0  0  0  0  0  0  0  0  0
  -23.6860  -32.0370   23.7850 O   0  0  0  0  0  0  0  0  0  0  0  0
  -22.9790  -29.3950   22.4140 C   0  0  0  0  0  0  0  0  0  0  0  0
  -21.6540  -29.2340   22.2610 N   0  0  0  0  0  0  0  0  0  0  0  0
  -23.6410  -28.7160   23.2000 O   0  0  0  0  0  0  0  0  0  0  0  0
  -21.1770  -29.8330   21.6010 H   0  0  0  0  0  0  0  0  0  0  0  0
  -18.2590  -28.0640   22.7050 C   0  0  0  0  0  0  0  0  0  0  0  0
  -20.8270  -28.2490   22.9620 C   0  0  0  0  0  3  0  0  0  0  0  0
  -20.8900  -26.8690   22.2640 C   0  0  0  0  0  2  0  0  0  0  0  0
  -19.7690  -26.6570   21.2430 C   0  0  0  0  0  2  0  0  0  0  0  0
  -18.3970  -26.7760   21.9120 C   0  0  0  0  0  2  0  0  0  0  0  0
  -19.3980  -28.7630   23.1860 C   0  0  0  0  0  0  0  0  0  0  0  0
  -19.2120  -29.9750   23.8850 C   0  0  0  0  0  3  0  0  0  0  0  0
  -17.9190  -30.4830   24.1120 C   0  0  0  0  0  3  0  0  0  0  0  0
  -16.7950  -29.7780   23.6500 C   0  0  0  0  0  3  0  0  0  0  0  0
  -16.9670  -28.5690   22.9510 C   0  0  0  0  0  3  0  0  0  0  0  0
  -26.0410  -32.4150   23.9690 C   0  0  0  0  0  3  0  0  0  0  0  0
  -25.7090  -33.8000   24.3340 N   0  0  0  0  0  0  0  0  0  0  0  0
  -26.0100  -34.8780   23.5980 C   0  0  0  0  0  0  0  0  0  0  0  0
  -26.6710  -34.8120   22.5580 O   0  0  0  0  0  0  0  0  0  0  0  0
  -25.1210  -33.9220   25.1460 H   0  0  0  0  0  0  0  0  0  0  0  0
  -24.2260  -36.6300   23.3280 C   0  0  0  0  0  1  0  0  0  0  0  0
  -25.5030  -36.2460   24.0920 C   0  0  0  0  0  3  0  0  0  0  0  0
  -27.6340  -37.1840   24.8780 C   0  0  0  0  0  1  0  0  0  0  0  0
  -26.5030  -37.3290   23.9630 N   0  0  0  0  0  0  0  0  0  0  0  0
  -26.0750  -38.2360   24.1280 H   0  0  0  0  0  0  0  0  0  0  0  0
  -26.5040  -31.6070   25.2440 C   0  0  1  0  0  0  0  0  0  0  0  0
  -25.3670  -31.3340   26.2560 C   0  0  0  0  0  1  0  0  0  0  0  0
  -27.1100  -30.2430   24.8400 C   0  0  0  0  0  1  0  0  0  0  0  0
  -27.6200  -32.3850   25.9770 C   0  0  0  0  0  1  0  0  0  0  0  0
  1  4  1  0
  2  1  2  0
  2  5  1  0
  3  6  1  0
  4 47  1  0
  4  6  2  0
  5 15  1  0
  5  3  2  0
  6 46  1  0
  7 15  1  0
  8 13  1  0
  9 10  1  0
  9  8  1  0
 11 10  1  0
 11 20  1  0
 11 12  1  0
 13  7  1  0
 13 12  1  0
 14  7  2  0
 15 16  1  0
 17 18  2  0
 18 37  1  0
 19 18  1  0
 19 22  1  0
 20 21  1  0
 20 17  1  0
 21 19  2  0
 22 23  1  0
 23 24  2  0
 25 28  1  0
 25 24  1  0
 26 25  2  0
 27 26  1  0
 27 22  2  0
 28 29  1  0
 29 34  2  0
 29 30  1  0
 30 31  2  0
 31 32  1  0
 32 36  1  0
 33 32  2  0
 34 33  1  0
 35 34  1  0
 37 38  1  0
 38 41  1  0
 38 40  1  0
 39 37  2  0
 42 17  1  0
 42 43  1  0
 44 42  1  0
 46 45  1  0
 47 50  1  0
 48 47  1  0
 49 48  1  0
 50 51  2  0
 52 51  1  0
 53 64  2  0
 54 52  1  0
 54 59  1  0
 55 63  1  0
 55 65  1  0
 56 62  1  0
 56 58  1  0
 57 63  1  0
 58 59  2  0
 58 57  1  0
 60 54  2  0
 61 60  1  0
 61 56  2  0
 62 55  1  0
 63 53  1  0
 65 67  2  0
 66 65  1  0
 68 66  1  0
 69 78  2  0
 69 74  1  0
 70 66  1  0
 70 74  1  0
 71 70  1  0
 72 73  1  0
 72 71  1  0
 73 69  1  0
 74 75  2  0
 75 76  1  0
 77 76  2  0
 78 77  1  0
 79 53  1  0
 79 80  1  0
 79 89  1  0
 80 83  1  0
 81 85  1  0
 81 80  1  0
 82 81  2  0
 85 84  1  0
 87 85  1  0
 87 88  1  0
 87 86  1  0
 89 92  1  1
 89 90  1  0
 91 89  1  0
M  ISO  4   7 100  15 100  51 101  52 101
M  END
>  <TORSDO>  (32) 
F 21

>  <SCORE>  (32) 
-13.279

>  <name>  (32) 
31

>  <ligand_id>  (32) 
31

>  <original_smiles>  (32) 
[H]OC([H])(c1c([H])c([H])c(N([H])C(=O)N2C([H])([H])C([H])([H])C([H])([H])C([H])(n3nc(-c4c([H])c([H])c(Oc5c([H])c([H])c(F)c([H])c5F)c([H])c4[H])c(C(=O)N([H])[H])c3N([H])[H])C2([H])[H])c([H])c1OC([H])([H])[H])C([H])([H])C([H])([H])Oc1c([H])c([H])c2c(c1[H])C([H])([H])N(C(=O)C([H])(N([H])C(=O)C([H])(N([H])C([H])([H])[H])C([H])([H])[H])C(C([H])([H])[H])(C([H])([H])[H])C([H])([H])[H])C([H])(C(=O)N([H])C1([H])c3c([H])c([H])c([H])c([H])c3C([H])([H])C([H])([H])C1([H])[H])C2([H])[H]

>  <smiles>  (32) 
[H]OC([H])(c1c([H])c([H])c(N([H])C(=O)N2C([H])([H])C([H])([H])C([H])([H])C([H])(n3nc(-c4c([H])c([H])c(Oc5c([H])c([H])c(F)c([H])c5F)c([H])c4[H])c(C(=O)N([H])[H])c3N([H])[H])C2([H])[H])c([H])c1OC([H])([H])[H])C([H])([H])C([H])([H])Oc1c([H])c([H])c2c(c1[H])C([H])([H])N(C(=O)C([H])(N([H])C(=O)C([H])(N([H])C([H])([H])[H])C([H])([H])[H])C(C([H])([H])[H])(C([H])([H])[H])C([H])([H])[H])C([H])(C(=O)N([H])C1([H])c3c([H])c([H])c([H])c([H])c3C([H])([H])C([H])([H])C1([H])[H])C2([H])[H]

$$$$
32:0:0
     RDKit          3D

 93101  0  0  1  0  0  0  0  0999 V2000
  -27.1960  -19.5270   19.1060 C   0  0  0  0  0  3  0  0  0  0  0  0
  -27.2430  -21.9420   18.7880 C   0  0  0  0  0  3  0  0  0  0  0  0
  -26.6600  -20.6880   18.5170 C   0  0  0  0  0  0  0  0  0  0  0  0
  -28.8790  -20.8810   20.2580 C   0  0  0  0  0  0  0  0  0  0  0  0
  -28.3080  -19.6110   19.9620 C   0  0  0  0  0  0  0  0  0  0  0  0
  -28.3470  -22.0600   19.6750 C   0  0  0  0  0  0  0  0  0  0  0  0
  -25.4410  -20.5880   17.6210 C   0  0  0  0  0  1  0  0  0  0  0  0
  -30.0600  -20.9730   21.2140 C   0  0  0  0  0  1  0  0  0  0  0  0
  -28.7750  -18.4550   20.5470 O   0  0  0  0  0  0  0  0  0  0  0  0
  -29.9370  -17.9040   19.9400 C   0  0  0  0  0  2  0  0  0  0  0  0
  -30.7510  -17.1230   20.9870 C   0  0  0  0  0  2  0  0  0  0  0  0
  -31.0050  -14.6650   20.7370 C   0  0  0  0  0  0  0  0  0  0  0  0
  -30.6970  -12.5240   19.5790 C   0  0  0  0  0  2  0  0  0  0  0  0
  -29.8060  -12.7670   18.3450 C   0  0  0  0  0  2  0  0  0  0  0  0
  -28.3160  -12.6420   18.7250 C   0  0  0  0  0  2  0  0  0  0  0  0
  -27.9430  -13.4690   19.9850 C   0  0  0  0  0  3  0  0  0  0  0  0
  -28.9610  -13.2420   21.1290 C   0  0  0  0  0  2  0  0  0  0  0  0
  -30.3080  -13.5080   20.6000 N   0  0  0  0  0  0  0  0  0  0  0  0
  -32.1640  -14.8030   20.3420 O   0  0  0  0  0  0  0  0  0  0  0  0
  -30.2940  -15.7320   21.1280 N   0  0  0  0  0  0  0  0  0  0  0  0
  -29.3330  -15.5820   21.3980 H   0  0  0  0  0  0  0  0  0  0  0  0
  -25.5210  -14.0850   20.5990 C   0  0  0  0  0  0  0  0  0  0  0  0
  -24.4360  -13.3150   20.9250 C   0  0  0  0  0  0  0  0  0  0  0  0
  -24.8930  -11.9610   20.9070 C   0  0  0  0  0  0  0  0  0  0  0  0
  -26.5720  -13.2000   20.4130 N   0  0  0  0  0  0  0  0  0  0  0  0
  -26.1940  -11.9180   20.6520 N   0  0  0  0  0  0  0  0  0  0  0  0
  -24.1570  -10.7000   21.0610 C   0  0  0  0  0  0  0  0  0  0  0  0
  -24.5360   -9.7380   22.0250 C   0  0  0  0  0  3  0  0  0  0  0  0
  -23.7980   -8.5420   22.1710 C   0  0  0  0  0  3  0  0  0  0  0  0
  -22.6720   -8.2990   21.3500 C   0  0  0  0  0  0  0  0  0  0  0  0
  -22.3130   -9.2480   20.3780 C   0  0  0  0  0  3  0  0  0  0  0  0
  -23.0510  -10.4350   20.2300 C   0  0  0  0  0  3  0  0  0  0  0  0
  -21.9150   -7.1520   21.4000 O   0  0  0  0  0  0  0  0  0  0  0  0
  -21.7780   -6.4310   22.5590 C   0  0  0  0  0  0  0  0  0  0  0  0
  -21.1780   -6.9820   23.7140 C   0  0  0  0  0  3  0  0  0  0  0  0
  -20.9910   -6.1820   24.8580 C   0  0  0  0  0  3  0  0  0  0  0  0
  -21.3970   -4.8340   24.8510 C   0  0  0  0  0  0  0  0  0  0  0  0
  -21.9880   -4.2830   23.7010 C   0  0  0  0  0  3  0  0  0  0  0  0
  -22.1760   -5.0790   22.5580 C   0  0  0  0  0  0  0  0  0  0  0  0
  -22.7280   -4.5370   21.4460 F   0  0  0  0  0  0  0  0  0  0  0  0
  -21.2110   -4.0640   25.9500 F   0  0  0  0  0  0  0  0  0  0  0  0
  -23.0310  -13.7950   21.1490 C   0  0  0  0  0  0  0  0  0  0  0  0
  -22.2690  -13.0950   21.9840 N   0  0  0  0  0  0  0  0  0  0  0  0
  -22.6160  -14.8240   20.6180 O   0  0  0  0  0  0  0  0  0  0  0  0
  -22.6180  -12.2630   22.4340 H   0  0  0  0  0  0  0  0  0  0  0  0
  -21.3250  -13.4000   22.1780 H   0  0  0  0  0  0  0  0  0  0  0  0
  -25.6970  -15.4570   20.4280 N   0  0  0  0  0  0  0  0  0  0  0  0
  -24.9240  -16.1110   20.4770 H   0  0  0  0  0  0  0  0  0  0  0  0
  -26.5630  -15.8920   20.1360 H   0  0  0  0  0  0  0  0  0  0  0  0
  -28.9250  -23.2720   20.0220 O   0  0  0  0  0  0  0  0  0  0  0  0
  -28.3080  -24.4990   19.6220 C   0  0  0  0  0  2  0  0  0  0  0  0
  -28.7510  -25.6580   20.5380 C   0  0  0  0  0  2  0  0  0  0  0  0
  -28.7000  -26.9550   19.9310 O   0  0  0  0  0  0  0  0  0  0  0  0
  -24.5190  -31.7190   23.1910 C   0  0  0  0  0  0  0  0  0  0  0  0
  -27.4890  -27.6050   19.9680 C   0  0  0  0  0  0  0  0  0  0  0  0
  -23.4520  -30.3850   21.4050 C   0  0  0  0  0  3  0  0  0  0  0  0
  -25.0350  -29.0070   19.9520 C   0  0  0  0  0  0  0  0  0  0  0  0
  -25.9650  -30.8540   21.3580 C   0  0  0  0  0  2  0  0  0  0  0  0
  -26.1370  -29.5290   20.6430 C   0  0  0  0  0  0  0  0  0  0  0  0
  -27.3660  -28.8350   20.6520 C   0  0  0  0  0  3  0  0  0  0  0  0
  -26.3720  -27.0950   19.2710 C   0  0  0  0  0  3  0  0  0  0  0  0
  -25.1480  -27.7870   19.2650 C   0  0  0  0  0  3  0  0  0  0  0  0
  -23.7560  -29.8140   19.9930 C   0  0  0  0  0  2  0  0  0  0  0  0
  -24.6610  -30.9970   22.0450 N   0  0  0  0  0  0  0  0  0  0  0  0
  -23.4020  -31.9120   23.6890 O   0  0  0  0  0  0  0  0  0  0  0  0
  -22.8010  -29.2730   22.2580 C   0  0  0  0  0  0  0  0  0  0  0  0
  -21.4760  -29.1080   22.1120 N   0  0  0  0  0  0  0  0  0  0  0  0
  -23.4820  -28.5670   23.0040 O   0  0  0  0  0  0  0  0  0  0  0  0
  -20.9810  -29.7450   21.5040 H   0  0  0  0  0  0  0  0  0  0  0  0
  -18.0880  -27.9540   22.5600 C   0  0  0  0  0  0  0  0  0  0  0  0
  -20.6570  -28.1010   22.7810 C   0  0  0  0  0  3  0  0  0  0  0  0
  -20.6980  -26.7530   22.0240 C   0  0  0  0  0  2  0  0  0  0  0  0
  -19.5610  -26.5990   21.0050 C   0  0  0  0  0  2  0  0  0  0  0  0
  -18.1970  -26.7090   21.6950 C   0  0  0  0  0  2  0  0  0  0  0  0
  -19.2420  -28.6210   23.0480 C   0  0  0  0  0  0  0  0  0  0  0  0
  -19.0850  -29.8080   23.7980 C   0  0  0  0  0  3  0  0  0  0  0  0
  -17.8030  -30.3200   24.0700 C   0  0  0  0  0  3  0  0  0  0  0  0
  -16.6600  -29.6400   23.6120 C   0  0  0  0  0  3  0  0  0  0  0  0
  -16.8040  -28.4600   22.8630 C   0  0  0  0  0  3  0  0  0  0  0  0
  -25.7450  -32.3540   23.9160 C   0  0  0  0  0  3  0  0  0  0  0  0
  -25.4150  -33.7580   24.1870 N   0  0  0  0  0  0  0  0  0  0  0  0
  -25.8330  -34.7930   23.4460 C   0  0  0  0  0  0  0  0  0  0  0  0
  -26.6020  -34.6650   22.4890 O   0  0  0  0  0  0  0  0  0  0  0  0
  -24.7390  -33.9350   24.9160 H   0  0  0  0  0  0  0  0  0  0  0  0
  -24.1650  -36.5880   22.8870 C   0  0  0  0  0  1  0  0  0  0  0  0
  -25.3140  -36.1940   23.8280 C   0  0  0  0  0  3  0  0  0  0  0  0
  -27.3480  -37.0880   24.8680 C   0  0  0  0  0  1  0  0  0  0  0  0
  -26.3620  -37.2360   23.8010 N   0  0  0  0  0  0  0  0  0  0  0  0
  -25.9540  -38.1630   23.8730 H   0  0  0  0  0  0  0  0  0  0  0  0
  -26.1370  -31.6030   25.2460 C   0  0  1  0  0  0  0  0  0  0  0  0
  -24.9480  -31.3850   26.2110 C   0  0  0  0  0  1  0  0  0  0  0  0
  -26.7460  -30.2180   24.9270 C   0  0  0  0  0  1  0  0  0  0  0  0
  -27.2320  -32.4000   25.9940 C   0  0  0  0  0  1  0  0  0  0  0  0
  1  5  1  0
  2  6  2  0
  3  2  1  0
  3  1  2  0
  4  8  1  0
  5  4  2  0
  5  9  1  0
  6 50  1  0
  6  4  1  0
  7  3  1  0
 10  9  1  0
 10 11  1  0
 11 20  1  0
 12 20  1  0
 13 18  1  0
 14 15  1  0
 14 13  1  0
 16 15  1  0
 16 25  1  0
 16 17  1  0
 18 12  1  0
 18 17  1  0
 19 12  2  0
 20 21  1  0
 22 23  2  0
 23 42  1  0
 24 23  1  0
 24 27  1  0
 25 22  1  0
 25 26  1  0
 26 24  2  0
 27 28  1  0
 28 29  2  0
 30 33  1  0
 30 29  1  0
 31 30  2  0
 32 31  1  0
 32 27  2  0
 33 34  1  0
 34 35  1  0
 35 36  2  0
 37 36  1  0
 37 41  1  0
 38 37  2  0
 39 34  2  0
 39 38  1  0
 40 39  1  0
 42 43  1  0
 43 46  1  0
 43 45  1  0
 44 42  2  0
 47 48  1  0
 47 22  1  0
 49 47  1  0
 51 50  1  0
 51 52  1  0
 53 55  1  0
 53 52  1  0
 54 65  2  0
 55 60  1  0
 56 64  1  0
 56 66  1  0
 57 63  1  0
 57 59  1  0
 58 64  1  0
 59 60  2  0
 59 58  1  0
 61 55  2  0
 62 61  1  0
 62 57  2  0
 63 56  1  0
 64 54  1  0
 66 68  2  0
 67 66  1  0
 69 67  1  0
 70 79  2  0
 70 75  1  0
 71 67  1  0
 71 75  1  0
 72 71  1  0
 73 74  1  0
 73 72  1  0
 74 70  1  0
 75 76  2  0
 76 77  1  0
 78 77  2  0
 79 78  1  0
 80 54  1  0
 80 81  1  0
 80 90  1  0
 81 84  1  0
 82 86  1  0
 82 81  1  0
 83 82  2  0
 86 85  1  0
 88 86  1  0
 88 89  1  0
 88 87  1  0
 90 93  1  1
 90 91  1  0
 92 90  1  0
M  ISO  4  12 100  20 100  52 101  53 101
M  END
>  <TORSDO>  (33) 
F 22

>  <SCORE>  (33) 
-13.185

>  <name>  (33) 
32

>  <ligand_id>  (33) 
32

>  <original_smiles>  (33) 
[H]c1c([H])c([H])c2c(c1[H])C([H])([H])C([H])([H])C([H])([H])C2([H])N([H])C(=O)C1([H])N(C(=O)C([H])(N([H])C(=O)C([H])(N([H])C([H])([H])[H])C([H])([H])[H])C(C([H])([H])[H])(C([H])([H])[H])C([H])([H])[H])C([H])([H])c2c([H])c(OC([H])([H])C([H])([H])Oc3c([H])c(C([H])([H])[H])c([H])c(OC([H])([H])C([H])([H])N([H])C(=O)N4C([H])([H])C([H])([H])C([H])([H])C([H])(n5nc(-c6c([H])c([H])c(Oc7c([H])c([H])c(F)c([H])c7F)c([H])c6[H])c(C(=O)N([H])[H])c5N([H])[H])C4([H])[H])c3C([H])([H])[H])c([H])c([H])c2C1([H])[H]

>  <smiles>  (33) 
[H]c1c([H])c([H])c2c(c1[H])C([H])([H])C([H])([H])C([H])([H])C2([H])N([H])C(=O)C1([H])N(C(=O)C([H])(N([H])C(=O)C([H])(N([H])C([H])([H])[H])C([H])([H])[H])C(C([H])([H])[H])(C([H])([H])[H])C([H])([H])[H])C([H])([H])c2c([H])c(OC([H])([H])C([H])([H])Oc3c([H])c(C([H])([H])[H])c([H])c(OC([H])([H])C([H])([H])N([H])C(=O)N4C([H])([H])C([H])([H])C([H])([H])C([H])(n5nc(-c6c([H])c([H])c(Oc7c([H])c([H])c(F)c([H])c7F)c([H])c6[H])c(C(=O)N([H])[H])c5N([H])[H])C4([H])[H])c3C([H])([H])[H])c([H])c([H])c2C1([H])[H]

$$$$
33:0:0
     RDKit          3D

 93101  0  0  1  0  0  0  0  0999 V2000
  -28.2350  -22.5650   19.2900 C   0  0  0  0  0  3  0  0  0  0  0  0
  -30.1050  -22.0320   21.2430 C   0  0  0  0  0  3  0  0  0  0  0  0
  -28.6600  -23.6660   20.0780 C   0  0  0  0  0  0  0  0  0  0  0  0
  -28.7220  -21.2320   19.4310 C   0  0  0  0  0  0  0  0  0  0  0  0
  -29.6240  -23.3730   21.0740 C   0  0  0  0  0  0  0  0  0  0  0  0
  -29.6620  -20.9230   20.4590 C   0  0  0  0  0  0  0  0  0  0  0  0
  -30.1350  -24.4800   21.9760 C   0  0  0  0  0  1  0  0  0  0  0  0
  -28.3130  -20.6630   16.9620 C   0  0  0  0  0  1  0  0  0  0  0  0
  -26.8120  -19.7160   18.7680 C   0  0  0  0  0  1  0  0  0  0  0  0
  -28.2360  -20.1870   18.4240 C   0  0  0  0  0  3  0  0  0  0  0  0
  -27.8800  -25.0070   19.8280 C   0  0  0  0  0  2  0  0  0  0  0  0
  -28.2560  -26.3940   20.2010 O   0  0  0  0  0  0  0  0  0  0  0  0
  -24.5890  -31.8740   23.2170 C   0  0  0  0  0  0  0  0  0  0  0  0
  -27.1780  -27.3110   20.1290 C   0  0  0  0  0  0  0  0  0  0  0  0
  -23.3820  -30.4860   21.5770 C   0  0  0  0  0  3  0  0  0  0  0  0
  -24.8250  -28.9580   20.1370 C   0  0  0  0  0  0  0  0  0  0  0  0
  -25.9280  -30.7940   21.3970 C   0  0  0  0  0  2  0  0  0  0  0  0
  -26.0020  -29.4200   20.7420 C   0  0  0  0  0  0  0  0  0  0  0  0
  -27.1810  -28.6090   20.7350 C   0  0  0  0  0  3  0  0  0  0  0  0
  -25.9720  -26.9360   19.4730 C   0  0  0  0  0  3  0  0  0  0  0  0
  -24.8150  -27.7210   19.4940 C   0  0  0  0  0  3  0  0  0  0  0  0
  -23.5920  -29.8310   20.1910 C   0  0  0  0  0  2  0  0  0  0  0  0
  -24.6520  -31.0670   22.1190 N   0  0  0  0  0  0  0  0  0  0  0  0
  -23.5050  -32.1500   23.7520 O   0  0  0  0  0  0  0  0  0  0  0  0
  -22.7220  -29.4580   22.5290 C   0  0  0  0  0  0  0  0  0  0  0  0
  -21.3950  -29.2820   22.4040 N   0  0  0  0  0  0  0  0  0  0  0  0
  -23.4010  -28.8260   23.3410 O   0  0  0  0  0  0  0  0  0  0  0  0
  -20.9060  -29.8430   21.7220 H   0  0  0  0  0  0  0  0  0  0  0  0
  -18.0160  -28.0910   22.9110 C   0  0  0  0  0  0  0  0  0  0  0  0
  -20.5760  -28.3450   23.1760 C   0  0  0  0  0  3  0  0  0  0  0  0
  -20.6740  -26.9130   22.5990 C   0  0  0  0  0  2  0  0  0  0  0  0
  -19.5690  -26.5930   21.5870 C   0  0  0  0  0  2  0  0  0  0  0  0
  -18.1880  -26.7420   22.2330 C   0  0  0  0  0  2  0  0  0  0  0  0
  -19.1370  -28.8510   23.3390 C   0  0  0  0  0  0  0  0  0  0  0  0
  -18.9220  -30.1140   23.9330 C   0  0  0  0  0  3  0  0  0  0  0  0
  -17.6190  -30.6180   24.1010 C   0  0  0  0  0  3  0  0  0  0  0  0
  -16.5120  -29.8550   23.6890 C   0  0  0  0  0  3  0  0  0  0  0  0
  -16.7110  -28.5940   23.0990 C   0  0  0  0  0  3  0  0  0  0  0  0
  -25.8730  -32.5050   23.8340 C   0  0  0  0  0  3  0  0  0  0  0  0
  -25.5640  -33.9030   24.1650 N   0  0  0  0  0  0  0  0  0  0  0  0
  -25.8930  -34.9550   23.4050 C   0  0  0  0  0  0  0  0  0  0  0  0
  -26.5590  -34.8530   22.3720 O   0  0  0  0  0  0  0  0  0  0  0  0
  -24.9760  -34.0570   24.9710 H   0  0  0  0  0  0  0  0  0  0  0  0
  -24.1680  -36.7520   23.0520 C   0  0  0  0  0  1  0  0  0  0  0  0
  -25.4060  -36.3430   23.8650 C   0  0  0  0  0  3  0  0  0  0  0  0
  -27.5380  -37.2260   24.7070 C   0  0  0  0  0  1  0  0  0  0  0  0
  -26.4400  -37.3940   23.7580 N   0  0  0  0  0  0  0  0  0  0  0  0
  -26.0330  -38.3140   23.9040 H   0  0  0  0  0  0  0  0  0  0  0  0
  -26.3890  -31.7320   25.1100 C   0  0  1  0  0  0  0  0  0  0  0  0
  -25.2950  -31.4940   26.1770 C   0  0  0  0  0  1  0  0  0  0  0  0
  -26.9720  -30.3540   24.7190 C   0  0  0  0  0  1  0  0  0  0  0  0
  -27.5390  -32.5260   25.7710 C   0  0  0  0  0  1  0  0  0  0  0  0
  -30.2850  -19.6710   20.6500 O   0  0  0  0  0  0  0  0  0  0  0  0
  -29.5810  -18.4040   20.9020 C   0  0  0  0  0  2  0  0  0  0  0  0
  -30.5470  -17.1490   20.7730 C   0  0  0  0  0  2  0  0  0  0  0  0
  -30.6460  -14.6380   20.3750 C   0  0  0  0  0  0  0  0  0  0  0  0
  -30.3280  -12.4600   19.2290 C   0  0  0  0  0  2  0  0  0  0  0  0
  -29.3720  -12.6400   18.0320 C   0  0  0  0  0  2  0  0  0  0  0  0
  -27.9100  -12.4740   18.4860 C   0  0  0  0  0  2  0  0  0  0  0  0
  -27.5780  -13.3060   19.7540 C   0  0  0  0  0  3  0  0  0  0  0  0
  -28.6550  -13.1350   20.8490 C   0  0  0  0  0  2  0  0  0  0  0  0
  -29.9570  -13.4620   20.2500 N   0  0  0  0  0  0  0  0  0  0  0  0
  -31.8000  -14.7490   19.9580 O   0  0  0  0  0  0  0  0  0  0  0  0
  -29.9750  -15.7540   20.7920 N   0  0  0  0  0  0  0  0  0  0  0  0
  -29.0170  -15.6370   21.0900 H   0  0  0  0  0  0  0  0  0  0  0  0
  -25.1870  -13.8770   20.5010 C   0  0  0  0  0  0  0  0  0  0  0  0
  -24.1320  -13.0930   20.8790 C   0  0  0  0  0  0  0  0  0  0  0  0
  -24.6070  -11.7460   20.8400 C   0  0  0  0  0  0  0  0  0  0  0  0
  -26.2380  -13.0090   20.2540 N   0  0  0  0  0  0  0  0  0  0  0  0
  -25.8950  -11.7210   20.5190 N   0  0  0  0  0  0  0  0  0  0  0  0
  -23.8940  -10.4760   21.0340 C   0  0  0  0  0  0  0  0  0  0  0  0
  -24.3460   -9.5080   21.9570 C   0  0  0  0  0  3  0  0  0  0  0  0
  -23.6320   -8.3040   22.1390 C   0  0  0  0  0  3  0  0  0  0  0  0
  -22.4510   -8.0600   21.4000 C   0  0  0  0  0  0  0  0  0  0  0  0
  -22.0190   -9.0170   20.4640 C   0  0  0  0  0  3  0  0  0  0  0  0
  -22.7330  -10.2120   20.2800 C   0  0  0  0  0  3  0  0  0  0  0  0
  -21.7060   -6.9090   21.4910 O   0  0  0  0  0  0  0  0  0  0  0  0
  -21.6750   -6.1610   22.6420 C   0  0  0  0  0  0  0  0  0  0  0  0
  -21.2450   -6.7060   23.8720 C   0  0  0  0  0  3  0  0  0  0  0  0
  -21.1630   -5.8850   25.0140 C   0  0  0  0  0  3  0  0  0  0  0  0
  -21.5000   -4.5200   24.9270 C   0  0  0  0  0  0  0  0  0  0  0  0
  -21.9240   -3.9770   23.7010 C   0  0  0  0  0  3  0  0  0  0  0  0
  -22.0080   -4.7940   22.5610 C   0  0  0  0  0  0  0  0  0  0  0  0
  -22.3960   -4.2610   21.3790 F   0  0  0  0  0  0  0  0  0  0  0  0
  -21.4140   -3.7290   26.0210 F   0  0  0  0  0  0  0  0  0  0  0  0
  -22.7330  -13.5560   21.1650 C   0  0  0  0  0  0  0  0  0  0  0  0
  -22.0210  -12.8520   22.0370 N   0  0  0  0  0  0  0  0  0  0  0  0
  -22.2810  -14.5790   20.6520 O   0  0  0  0  0  0  0  0  0  0  0  0
  -22.4000  -12.0230   22.4710 H   0  0  0  0  0  0  0  0  0  0  0  0
  -21.0830  -13.1460   22.2750 H   0  0  0  0  0  0  0  0  0  0  0  0
  -25.3380  -15.2510   20.3250 N   0  0  0  0  0  0  0  0  0  0  0  0
  -24.5630  -15.8940   20.4420 H   0  0  0  0  0  0  0  0  0  0  0  0
  -26.1760  -15.6970   19.9770 H   0  0  0  0  0  0  0  0  0  0  0  0
  1  4  2  0
  1  3  1  0
  3  5  2  0
  4  6  1  0
  5  2  1  0
  5  7  1  0
  6 53  1  0
  6  2  2  0
  8 10  1  0
 10  9  1  0
 10  4  1  0
 11  3  1  0
 11 12  1  0
 13 24  2  0
 14 12  1  0
 14 19  1  0
 15 23  1  0
 15 25  1  0
 16 22  1  0
 16 18  1  0
 17 23  1  0
 18 17  1  0
 19 18  2  0
 20 21  1  0
 20 14  2  0
 21 16  2  0
 22 15  1  0
 23 13  1  0
 25 27  2  0
 26 25  1  0
 28 26  1  0
 29 38  2  0
 29 34  1  0
 30 26  1  0
 30 34  1  0
 31 30  1  0
 32 33  1  0
 32 31  1  0
 33 29  1  0
 34 35  2  0
 35 36  1  0
 37 36  2  0
 38 37  1  0
 39 13  1  0
 39 40  1  0
 39 49  1  0
 40 43  1  0
 41 45  1  0
 41 40  1  0
 42 41  2  0
 45 44  1  0
 47 45  1  0
 47 48  1  0
 47 46  1  0
 49 52  1  1
 49 50  1  0
 51 49  1  0
 53 54  1  0
 55 64  1  0
 55 54  1  0
 56 64  1  0
 57 62  1  0
 58 59  1  0
 58 57  1  0
 60 59  1  0
 60 69  1  0
 60 61  1  0
 62 56  1  0
 62 61  1  0
 63 56  2  0
 64 65  1  0
 66 67  2  0
 67 86  1  0
 68 67  1  0
 68 71  1  0
 69 66  1  0
 69 70  1  0
 70 68  2  0
 71 72  1  0
 72 73  2  0
 74 77  1  0
 74 73  1  0
 75 74  2  0
 76 75  1  0
 76 71  2  0
 77 78  1  0
 78 79  1  0
 79 80  2  0
 81 80  1  0
 81 85  1  0
 82 81  2  0
 83 78  2  0
 83 82  1  0
 84 83  1  0
 86 87  1  0
 87 90  1  0
 87 89  1  0
 88 86  2  0
 91 92  1  0
 91 66  1  0
 93 91  1  0
M  ISO  4  11 101  12 101  56 100  64 100
M  END
>  <TORSDO>  (34) 
F 21

>  <SCORE>  (34) 
-13.570

>  <name>  (34) 
33

>  <ligand_id>  (34) 
33

>  <original_smiles>  (34) 
[H]c1c([H])c([H])c2c(c1[H])C([H])([H])C([H])([H])C([H])([H])C2([H])N([H])C(=O)C1([H])N(C(=O)C([H])(N([H])C(=O)C([H])(N([H])C([H])([H])[H])C([H])([H])[H])C(C([H])([H])[H])(C([H])([H])[H])C([H])([H])[H])C([H])([H])c2c([H])c(OC([H])([H])c3c([H])c(C([H])(C([H])([H])[H])C([H])([H])[H])c(OC([H])([H])C([H])([H])N([H])C(=O)N4C([H])([H])C([H])([H])C([H])([H])C([H])(n5nc(-c6c([H])c([H])c(Oc7c([H])c([H])c(F)c([H])c7F)c([H])c6[H])c(C(=O)N([H])[H])c5N([H])[H])C4([H])[H])c([H])c3C([H])([H])[H])c([H])c([H])c2C1([H])[H]

>  <smiles>  (34) 
[H]c1c([H])c([H])c2c(c1[H])C([H])([H])C([H])([H])C([H])([H])C2([H])N([H])C(=O)C1([H])N(C(=O)C([H])(N([H])C(=O)C([H])(N([H])C([H])([H])[H])C([H])([H])[H])C(C([H])([H])[H])(C([H])([H])[H])C([H])([H])[H])C([H])([H])c2c([H])c(OC([H])([H])c3c([H])c(C([H])(C([H])([H])[H])C([H])([H])[H])c(OC([H])([H])C([H])([H])N([H])C(=O)N4C([H])([H])C([H])([H])C([H])([H])C([H])(n5nc(-c6c([H])c([H])c(Oc7c([H])c([H])c(F)c([H])c7F)c([H])c6[H])c(C(=O)N([H])[H])c5N([H])[H])C4([H])[H])c([H])c3C([H])([H])[H])c([H])c([H])c2C1([H])[H]

$$$$
34:0:0
     RDKit          3D

101110  0  0  1  0  0  0  0  0999 V2000
  -30.9240  -20.2770   20.7000 C   0  0  0  0  0  3  0  0  0  0  0  0
  -28.4420  -21.4360   20.0850 C   0  0  0  0  0  3  0  0  0  0  0  0
  -30.7690  -21.6780   20.7780 C   0  0  0  0  0  0  0  0  0  0  0  0
  -28.6010  -20.0330   19.9910 C   0  0  0  0  0  0  0  0  0  0  0  0
  -29.8380  -19.4340   20.3450 C   0  0  0  0  0  0  0  0  0  0  0  0
  -29.5130  -22.2590   20.5070 C   0  0  0  0  0  0  0  0  0  0  0  0
  -33.8170  -23.5250   20.7120 C   0  0  0  0  0  2  0  0  0  0  0  0
  -33.4190  -22.1160   21.1680 C   0  0  0  0  0  2  0  0  0  0  0  0
  -32.4120  -23.6410   20.1190 C   0  0  0  0  0  2  0  0  0  0  0  0
  -31.9490  -22.5810   21.1370 C   0  0  0  0  0  3  0  0  0  0  0  0
  -27.4440  -19.1700   19.4840 C   0  0  0  0  0  2  0  0  0  0  0  0
  -26.8400  -18.2340   20.5470 C   0  0  0  0  0  2  0  0  0  0  0  0
  -25.7830  -17.3600   19.9940 N   0  0  0  0  0  4  0  0  0  0  0  0
  -25.0660  -17.8940   19.5380 H   0  0  0  0  0  0  0  0  0  0  0  0
  -25.3480  -16.8440   20.7380 H   0  0  0  0  0  0  0  0  0  0  0  0
  -26.1540  -16.6940   19.3340 H   0  0  0  0  0  0  0  0  0  0  0  0
  -29.9070  -18.0500   20.3200 O   0  0  0  0  0  0  0  0  0  0  0  0
  -31.1110  -17.3990   20.7460 C   0  0  0  0  0  2  0  0  0  0  0  0
  -30.8110  -16.2890   21.7740 C   0  0  0  0  0  2  0  0  0  0  0  0
  -30.6470  -14.1950   20.4220 C   0  0  0  0  0  0  0  0  0  0  0  0
  -30.3740  -11.9470   19.4370 C   0  0  0  0  0  2  0  0  0  0  0  0
  -29.4220  -11.9600   18.2280 C   0  0  0  0  0  2  0  0  0  0  0  0
  -27.9570  -11.8220   18.6850 C   0  0  0  0  0  2  0  0  0  0  0  0
  -27.5920  -12.8120   19.8220 C   0  0  0  0  0  3  0  0  0  0  0  0
  -28.6430  -12.7520   20.9480 C   0  0  0  0  0  2  0  0  0  0  0  0
  -29.9670  -13.0210   20.3550 N   0  0  0  0  0  0  0  0  0  0  0  0
  -31.6950  -14.4140   19.8090 O   0  0  0  0  0  0  0  0  0  0  0  0
  -30.1220  -15.1090   21.2500 N   0  0  0  0  0  0  0  0  0  0  0  0
  -29.2450  -14.8620   21.6860 H   0  0  0  0  0  0  0  0  0  0  0  0
  -25.2250  -13.4680   20.5960 C   0  0  0  0  0  0  0  0  0  0  0  0
  -24.1500  -12.7120   20.9830 C   0  0  0  0  0  0  0  0  0  0  0  0
  -24.5820  -11.3520   20.9300 C   0  0  0  0  0  0  0  0  0  0  0  0
  -26.2440  -12.5670   20.3310 N   0  0  0  0  0  0  0  0  0  0  0  0
  -25.8620  -11.2910   20.5910 N   0  0  0  0  0  0  0  0  0  0  0  0
  -23.8390  -10.1010   21.1330 C   0  0  0  0  0  0  0  0  0  0  0  0
  -24.2590   -9.1370   22.0760 C   0  0  0  0  0  3  0  0  0  0  0  0
  -23.5180   -7.9500   22.2650 C   0  0  0  0  0  3  0  0  0  0  0  0
  -22.3450   -7.7180   21.5110 C   0  0  0  0  0  0  0  0  0  0  0  0
  -21.9440   -8.6700   20.5580 C   0  0  0  0  0  3  0  0  0  0  0  0
  -22.6830   -9.8490   20.3670 C   0  0  0  0  0  3  0  0  0  0  0  0
  -21.5760   -6.5830   21.6100 O   0  0  0  0  0  0  0  0  0  0  0  0
  -21.4960   -5.8650   22.7760 C   0  0  0  0  0  0  0  0  0  0  0  0
  -21.0370   -6.4490   23.9780 C   0  0  0  0  0  3  0  0  0  0  0  0
  -20.9050   -5.6570   25.1370 C   0  0  0  0  0  3  0  0  0  0  0  0
  -21.2200   -4.2860   25.0950 C   0  0  0  0  0  0  0  0  0  0  0  0
  -21.6700   -3.7030   23.8960 C   0  0  0  0  0  3  0  0  0  0  0  0
  -21.8040   -4.4910   22.7410 C   0  0  0  0  0  0  0  0  0  0  0  0
  -22.2190   -3.9200   21.5840 F   0  0  0  0  0  0  0  0  0  0  0  0
  -21.0850   -3.5230   26.2070 F   0  0  0  0  0  0  0  0  0  0  0  0
  -22.7690  -13.2120   21.2870 C   0  0  0  0  0  0  0  0  0  0  0  0
  -22.0570  -12.5370   22.1840 N   0  0  0  0  0  0  0  0  0  0  0  0
  -22.3350  -14.2370   20.7630 O   0  0  0  0  0  0  0  0  0  0  0  0
  -22.4250  -11.7070   22.6220 H   0  0  0  0  0  0  0  0  0  0  0  0
  -21.1310  -12.8560   22.4300 H   0  0  0  0  0  0  0  0  0  0  0  0
  -25.4140  -14.8400   20.4230 N   0  0  0  0  0  0  0  0  0  0  0  0
  -24.5380  -15.3090   20.2090 H   0  0  0  0  0  0  0  0  0  0  0  0
  -26.1160  -15.0700   19.7300 H   0  0  0  0  0  0  0  0  0  0  0  0
  -29.3810  -23.6140   20.7110 O   0  0  0  0  0  0  0  0  0  0  0  0
  -28.5120  -24.3500   19.8590 C   0  0  0  0  0  2  0  0  0  0  0  0
  -28.7940  -25.8460   20.1100 C   0  0  0  0  0  2  0  0  0  0  0  0
  -28.3370  -26.6490   19.0300 O   0  0  0  0  0  0  0  0  0  0  0  0
  -24.7830  -31.3950   22.9970 C   0  0  0  0  0  0  0  0  0  0  0  0
  -27.1870  -27.3510   19.2690 C   0  0  0  0  0  0  0  0  0  0  0  0
  -23.4680  -30.2240   21.2580 C   0  0  0  0  0  3  0  0  0  0  0  0
  -24.8210  -28.8470   19.5920 C   0  0  0  0  0  0  0  0  0  0  0  0
  -25.9860  -30.5750   20.9760 C   0  0  0  0  0  2  0  0  0  0  0  0
  -26.0130  -29.2850   20.1840 C   0  0  0  0  0  0  0  0  0  0  0  0
  -27.2000  -28.5390   20.0300 C   0  0  0  0  0  3  0  0  0  0  0  0
  -25.9860  -26.9130   18.6780 C   0  0  0  0  0  3  0  0  0  0  0  0
  -24.7980  -27.6550   18.8430 C   0  0  0  0  0  3  0  0  0  0  0  0
  -23.5980  -29.7120   19.7990 C   0  0  0  0  0  2  0  0  0  0  0  0
  -24.7670  -30.7370   21.8030 N   0  0  0  0  0  0  0  0  0  0  0  0
  -23.7330  -31.6140   23.6180 O   0  0  0  0  0  0  0  0  0  0  0  0
  -22.8440  -29.1030   22.1180 C   0  0  0  0  0  0  0  0  0  0  0  0
  -21.5130  -28.9480   22.0240 N   0  0  0  0  0  0  0  0  0  0  0  0
  -23.5510  -28.3750   22.8210 O   0  0  0  0  0  0  0  0  0  0  0  0
  -21.0050  -29.5870   21.4280 H   0  0  0  0  0  0  0  0  0  0  0  0
  -18.1480  -27.7200   22.4950 C   0  0  0  0  0  0  0  0  0  0  0  0
  -20.7150  -27.9330   22.7110 C   0  0  0  0  0  3  0  0  0  0  0  0
  -20.7880  -26.5750   21.9730 C   0  0  0  0  0  2  0  0  0  0  0  0
  -19.6530  -26.3760   20.9640 C   0  0  0  0  0  2  0  0  0  0  0  0
  -18.2930  -26.4550   21.6650 C   0  0  0  0  0  2  0  0  0  0  0  0
  -19.2870  -28.4220   22.9730 C   0  0  0  0  0  0  0  0  0  0  0  0
  -19.1010  -29.6130   23.7080 C   0  0  0  0  0  3  0  0  0  0  0  0
  -17.8060  -30.1040   23.9630 C   0  0  0  0  0  3  0  0  0  0  0  0
  -16.6830  -29.3960   23.5040 C   0  0  0  0  0  3  0  0  0  0  0  0
  -16.8530  -28.2040   22.7770 C   0  0  0  0  0  3  0  0  0  0  0  0
  -26.1110  -31.9230   23.6230 C   0  0  0  0  0  3  0  0  0  0  0  0
  -26.7000  -30.9650   24.7290 C   0  0  1  0  0  0  0  0  0  0  0  0
  -25.6730  -30.5670   25.8160 C   0  0  0  0  0  1  0  0  0  0  0  0
  -27.2340  -29.6590   24.0930 C   0  0  0  0  0  1  0  0  0  0  0  0
  -27.9060  -31.6410   25.4230 C   0  0  0  0  0  1  0  0  0  0  0  0
  -25.8360  -33.2540   24.1730 N   0  0  0  0  0  0  0  0  0  0  0  0
  -26.1560  -34.4080   23.5690 C   0  0  0  0  0  0  0  0  0  0  0  0
  -26.7890  -34.4580   22.5100 O   0  0  0  0  0  0  0  0  0  0  0  0
  -25.2600  -33.2860   25.0030 H   0  0  0  0  0  0  0  0  0  0  0  0
  -24.4490  -36.2560   23.5520 C   0  0  0  0  0  1  0  0  0  0  0  0
  -25.7060  -35.7120   24.2510 C   0  0  0  0  0  3  0  0  0  0  0  0
  -27.8780  -36.4310   25.1480 C   0  0  0  0  0  1  0  0  0  0  0  0
  -26.7540  -36.7560   24.2730 N   0  0  0  0  0  0  0  0  0  0  0  0
  -26.3660  -37.6460   24.5730 H   0  0  0  0  0  0  0  0  0  0  0  0
  1  3  1  0
  2  6  1  0
  3 10  1  0
  4  2  2  0
  4  5  1  0
  5  1  2  0
  6 58  1  0
  6  3  2  0
  7  8  1  0
  9  7  1  0
  9 10  1  0
 10  8  1  0
 11  4  1  0
 11 12  1  0
 13 12  1  0
 13 15  1  0
 14 13  1  0
 16 13  1  0
 17  5  1  0
 17 18  1  0
 18 19  1  0
 20 28  1  0
 21 26  1  0
 22 23  1  0
 22 21  1  0
 24 23  1  0
 24 33  1  0
 24 25  1  0
 26 20  1  0
 26 25  1  0
 27 20  2  0
 28 29  1  0
 28 19  1  0
 30 31  2  0
 31 50  1  0
 32 31  1  0
 32 35  1  0
 33 34  1  0
 33 30  1  0
 34 32  2  0
 35 36  1  0
 36 37  2  0
 38 41  1  0
 38 37  1  0
 39 38  2  0
 40 39  1  0
 40 35  2  0
 41 42  1  0
 42 43  1  0
 43 44  2  0
 45 44  1  0
 45 49  1  0
 46 45  2  0
 47 42  2  0
 47 46  1  0
 48 47  1  0
 50 51  1  0
 51 54  1  0
 51 53  1  0
 52 50  2  0
 55 30  1  0
 56 55  1  0
 57 55  1  0
 59 60  1  0
 59 58  1  0
 61 63  1  0
 61 60  1  0
 62 73  2  0
 63 68  1  0
 64 72  1  0
 64 74  1  0
 65 71  1  0
 65 67  1  0
 66 72  1  0
 67 66  1  0
 68 67  2  0
 69 70  1  0
 69 63  2  0
 70 65  2  0
 71 64  1  0
 72 62  1  0
 74 76  2  0
 75 74  1  0
 77 75  1  0
 78 87  2  0
 78 83  1  0
 79 75  1  0
 79 83  1  0
 80 79  1  0
 81 82  1  0
 81 80  1  0
 82 78  1  0
 83 84  2  0
 84 85  1  0
 86 85  2  0
 87 86  1  0
 88 62  1  0
 88 93  1  0
 88 89  1  0
 89 92  1  1
 89 90  1  0
 91 89  1  0
 93 96  1  0
 94 93  1  0
 94 98  1  0
 95 94  2  0
 98 97  1  0
 98100  1  0
100101  1  0
100 99  1  0
M  ISO  4  20 100  28 100  60 101  61 101
M  END
>  <TORSDO>  (35) 
F 26

>  <SCORE>  (35) 
-9.545

>  <name>  (35) 
34

>  <ligand_id>  (35) 
34

>  <original_smiles>  (35) 
[H]c1c([H])c([H])c2c(c1[H])C([H])([H])C([H])([H])C([H])([H])C2([H])N([H])C(=O)C1([H])N(C(=O)C([H])(N([H])C(=O)C([H])(N([H])C([H])([H])[H])C([H])([H])[H])C(C([H])([H])[H])(C([H])([H])[H])C([H])([H])[H])C([H])([H])c2c([H])c(OC([H])([H])C([H])([H])Oc3c([H])c(C([H])([H])C([H])([H])[N+]([H])([H])[H])c(OC([H])([H])C([H])([H])N([H])C(=O)N4C([H])([H])C([H])([H])C([H])([H])C([H])(n5nc(-c6c([H])c([H])c(Oc7c([H])c([H])c(F)c([H])c7F)c([H])c6[H])c(C(=O)N([H])[H])c5N([H])[H])C4([H])[H])c([H])c3C3([H])C([H])([H])C([H])([H])C3([H])[H])c([H])c([H])c2C1([H])[H]

>  <smiles>  (35) 
[H]c1c([H])c([H])c2c(c1[H])C([H])([H])C([H])([H])C([H])([H])C2([H])N([H])C(=O)C1([H])N(C(=O)C([H])(N([H])C(=O)C([H])(N([H])C([H])([H])[H])C([H])([H])[H])C(C([H])([H])[H])(C([H])([H])[H])C([H])([H])[H])C([H])([H])c2c([H])c(OC([H])([H])C([H])([H])Oc3c([H])c(C([H])([H])C([H])([H])[N+]([H])([H])[H])c(OC([H])([H])C([H])([H])N([H])C(=O)N4C([H])([H])C([H])([H])C([H])([H])C([H])(n5nc(-c6c([H])c([H])c(Oc7c([H])c([H])c(F)c([H])c7F)c([H])c6[H])c(C(=O)N([H])[H])c5N([H])[H])C4([H])[H])c([H])c3C3([H])C([H])([H])C([H])([H])C3([H])[H])c([H])c([H])c2C1([H])[H]

$$$$
35:0:0
     RDKit          3D

100109  0  0  1  0  0  0  0  0999 V2000
  -27.4830  -19.3510   19.1600 C   0  0  0  0  0  3  0  0  0  0  0  0
  -28.8020  -19.6240   21.1590 C   0  0  0  0  0  3  0  0  0  0  0  0
  -27.6260  -20.7180   18.8480 C   0  0  0  0  0  0  0  0  0  0  0  0
  -28.5730  -21.5160   19.5830 C   0  0  0  0  0  0  0  0  0  0  0  0
  -28.1560  -18.7850   20.2460 C   0  0  0  0  0  0  0  0  0  0  0  0
  -29.0330  -20.9690   20.8350 C   0  0  0  0  0  0  0  0  0  0  0  0
  -29.9780  -21.8160   22.0160 Cl  0  0  0  0  0  0  0  0  0  0  0  0
  -25.6290  -22.1580   17.8970 C   0  0  0  0  0  2  0  0  0  0  0  0
  -25.3190  -20.7100   17.6270 C   0  0  0  0  0  2  0  0  0  0  0  0
  -26.7630  -21.1690   17.7010 C   0  0  0  0  0  3  0  0  0  0  0  0
  -28.5670  -23.5320   17.7890 C   0  0  0  0  0  1  0  0  0  0  0  0
  -29.2800  -22.7480   18.9210 C   0  0  0  0  0  3  0  0  0  0  0  0
  -30.1030  -23.5910   19.8280 N   0  0  0  0  0  4  0  0  0  0  0  0
  -30.0460  -23.1680   20.7470 H   0  0  0  0  0  0  0  0  0  0  0  0
  -31.0550  -23.4470   19.5290 H   0  0  0  0  0  0  0  0  0  0  0  0
  -30.9810  -25.6390   20.8840 C   0  0  0  0  0  1  0  0  0  0  0  0
  -29.9130  -25.0610   19.9380 C   0  0  0  0  0  3  0  0  0  0  0  0
  -28.5000  -25.4850   20.3870 C   0  0  0  0  0  2  0  0  0  0  0  0
  -28.4420  -26.8680   20.0730 O   0  0  0  0  0  0  0  0  0  0  0  0
  -24.5650  -31.8920   23.1990 C   0  0  0  0  0  0  0  0  0  0  0  0
  -27.2280  -27.4970   20.1150 C   0  0  0  0  0  0  0  0  0  0  0  0
  -23.3540  -30.4710   21.5720 C   0  0  0  0  0  3  0  0  0  0  0  0
  -24.8100  -28.9450   20.1400 C   0  0  0  0  0  0  0  0  0  0  0  0
  -25.8690  -30.8700   21.3390 C   0  0  0  0  0  2  0  0  0  0  0  0
  -25.9640  -29.4950   20.7140 C   0  0  0  0  0  0  0  0  0  0  0  0
  -27.1770  -28.7810   20.6940 C   0  0  0  0  0  3  0  0  0  0  0  0
  -26.0610  -26.9470   19.5390 C   0  0  0  0  0  3  0  0  0  0  0  0
  -24.8550  -27.6710   19.5470 C   0  0  0  0  0  3  0  0  0  0  0  0
  -23.5530  -29.7800   20.1960 C   0  0  0  0  0  2  0  0  0  0  0  0
  -24.6140  -31.0940   22.0940 N   0  0  0  0  0  0  0  0  0  0  0  0
  -23.4890  -32.1510   23.7520 O   0  0  0  0  0  0  0  0  0  0  0  0
  -22.7260  -29.4470   22.5430 C   0  0  0  0  0  0  0  0  0  0  0  0
  -21.4010  -29.2580   22.4300 N   0  0  0  0  0  0  0  0  0  0  0  0
  -23.4240  -28.8220   23.3450 O   0  0  0  0  0  0  0  0  0  0  0  0
  -20.9030  -29.8140   21.7490 H   0  0  0  0  0  0  0  0  0  0  0  0
  -18.0360  -28.0520   22.9470 C   0  0  0  0  0  0  0  0  0  0  0  0
  -20.5960  -28.3170   23.2040 C   0  0  0  0  0  3  0  0  0  0  0  0
  -20.7000  -26.8850   22.6250 C   0  0  0  0  0  2  0  0  0  0  0  0
  -19.5920  -26.5600   21.6190 C   0  0  0  0  0  2  0  0  0  0  0  0
  -18.2150  -26.7010   22.2730 C   0  0  0  0  0  2  0  0  0  0  0  0
  -19.1560  -28.8180   23.3680 C   0  0  0  0  0  0  0  0  0  0  0  0
  -18.9380  -30.0830   23.9550 C   0  0  0  0  0  3  0  0  0  0  0  0
  -17.6320  -30.5830   24.1250 C   0  0  0  0  0  3  0  0  0  0  0  0
  -16.5280  -29.8110   23.7240 C   0  0  0  0  0  3  0  0  0  0  0  0
  -16.7320  -28.5460   23.1440 C   0  0  0  0  0  3  0  0  0  0  0  0
  -25.8540  -32.5310   23.8060 C   0  0  0  0  0  3  0  0  0  0  0  0
  -25.5340  -33.9220   24.1530 N   0  0  0  0  0  0  0  0  0  0  0  0
  -25.8480  -34.9850   23.3990 C   0  0  0  0  0  0  0  0  0  0  0  0
  -26.5080  -34.8980   22.3600 O   0  0  0  0  0  0  0  0  0  0  0  0
  -24.9470  -34.0640   24.9600 H   0  0  0  0  0  0  0  0  0  0  0  0
  -24.0920  -36.7560   23.0820 C   0  0  0  0  0  1  0  0  0  0  0  0
  -25.3480  -36.3630   23.8760 C   0  0  0  0  0  3  0  0  0  0  0  0
  -27.4840  -37.2640   24.6860 C   0  0  0  0  0  1  0  0  0  0  0  0
  -26.3670  -37.4290   23.7590 N   0  0  0  0  0  0  0  0  0  0  0  0
  -25.9530  -38.3440   23.9180 H   0  0  0  0  0  0  0  0  0  0  0  0
  -26.4040  -31.7520   25.0630 C   0  0  1  0  0  0  0  0  0  0  0  0
  -25.3340  -31.4850   26.1470 C   0  0  0  0  0  1  0  0  0  0  0  0
  -26.9970  -30.3870   24.6370 C   0  0  0  0  0  1  0  0  0  0  0  0
  -27.5590  -32.5510   25.7140 C   0  0  0  0  0  1  0  0  0  0  0  0
  -28.3410  -17.4330   20.2960 O   0  0  0  0  0  0  0  0  0  0  0  0
  -29.6730  -17.1240   19.8760 C   0  0  0  0  0  2  0  0  0  0  0  0
  -30.5150  -16.6100   21.0610 C   0  0  0  0  0  2  0  0  0  0  0  0
  -30.9050  -14.3160   20.3060 C   0  0  0  0  0  0  0  0  0  0  0  0
  -30.4970  -12.2750   19.0010 C   0  0  0  0  0  2  0  0  0  0  0  0
  -29.5160  -12.5690   17.8460 C   0  0  0  0  0  2  0  0  0  0  0  0
  -28.0520  -12.4680   18.3130 C   0  0  0  0  0  2  0  0  0  0  0  0
  -27.7840  -13.2440   19.6300 C   0  0  0  0  0  3  0  0  0  0  0  0
  -28.8570  -12.9090   20.6910 C   0  0  0  0  0  2  0  0  0  0  0  0
  -30.1870  -13.1840   20.1120 N   0  0  0  0  0  0  0  0  0  0  0  0
  -31.9220  -14.6100   19.6710 O   0  0  0  0  0  0  0  0  0  0  0  0
  -30.3540  -15.1700   21.1700 N   0  0  0  0  0  0  0  0  0  0  0  0
  -29.5500  -14.8390   21.6810 H   0  0  0  0  0  0  0  0  0  0  0  0
  -25.3960  -13.8950   20.3480 C   0  0  0  0  0  0  0  0  0  0  0  0
  -24.3210  -13.1420   20.7360 C   0  0  0  0  0  0  0  0  0  0  0  0
  -24.7610  -11.7830   20.7100 C   0  0  0  0  0  0  0  0  0  0  0  0
  -26.4290  -12.9980   20.1200 N   0  0  0  0  0  0  0  0  0  0  0  0
  -26.0460  -11.7220   20.3840 N   0  0  0  0  0  0  0  0  0  0  0  0
  -24.0200  -10.5340   20.9220 C   0  0  0  0  0  0  0  0  0  0  0  0
  -24.4530   -9.5720   21.8600 C   0  0  0  0  0  3  0  0  0  0  0  0
  -23.7140   -8.3860   22.0610 C   0  0  0  0  0  3  0  0  0  0  0  0
  -22.5280   -8.1540   21.3230 C   0  0  0  0  0  0  0  0  0  0  0  0
  -22.1130   -9.1060   20.3770 C   0  0  0  0  0  3  0  0  0  0  0  0
  -22.8530  -10.2840   20.1750 C   0  0  0  0  0  3  0  0  0  0  0  0
  -21.7630   -7.0180   21.4310 O   0  0  0  0  0  0  0  0  0  0  0  0
  -21.7170   -6.2890   22.5920 C   0  0  0  0  0  0  0  0  0  0  0  0
  -21.3110   -6.8640   23.8160 C   0  0  0  0  0  3  0  0  0  0  0  0
  -21.2100   -6.0630   24.9710 C   0  0  0  0  0  3  0  0  0  0  0  0
  -21.5050   -4.6880   24.9010 C   0  0  0  0  0  0  0  0  0  0  0  0
  -21.9050   -4.1130   23.6820 C   0  0  0  0  0  3  0  0  0  0  0  0
  -22.0070   -4.9110   22.5300 C   0  0  0  0  0  0  0  0  0  0  0  0
  -22.3690   -4.3460   21.3530 F   0  0  0  0  0  0  0  0  0  0  0  0
  -21.4040   -3.9160   26.0100 F   0  0  0  0  0  0  0  0  0  0  0  0
  -22.9360  -13.6450   21.0280 C   0  0  0  0  0  0  0  0  0  0  0  0
  -22.2170  -12.9610   21.9130 N   0  0  0  0  0  0  0  0  0  0  0  0
  -22.5020  -14.6730   20.5100 O   0  0  0  0  0  0  0  0  0  0  0  0
  -22.5890  -12.1290   22.3440 H   0  0  0  0  0  0  0  0  0  0  0  0
  -21.2910  -13.2740   22.1620 H   0  0  0  0  0  0  0  0  0  0  0  0
  -25.5830  -15.2610   20.1640 N   0  0  0  0  0  0  0  0  0  0  0  0
  -24.8350  -15.9300   20.3030 H   0  0  0  0  0  0  0  0  0  0  0  0
  -26.4570  -15.6900   19.8820 H   0  0  0  0  0  0  0  0  0  0  0  0
  1  5  1  0
  3  1  2  0
  3  4  1  0
  4  6  2  0
  5 60  1  0
  5  2  2  0
  6  2  1  0
  6  7  1  0
  9 10  1  0
  9  8  1  0
 10  8  1  0
 10  3  1  0
 12 11  1  0
 12  4  1  0
 12 13  1  0
 13 17  1  0
 13 14  1  0
 15 13  1  0
 17 18  1  0
 17 16  1  0
 19 21  1  0
 19 18  1  0
 20 31  2  0
 21 26  1  0
 22 30  1  0
 22 32  1  0
 23 29  1  0
 23 25  1  0
 24 30  1  0
 25 24  1  0
 26 25  2  0
 27 28  1  0
 27 21  2  0
 28 23  2  0
 29 22  1  0
 30 20  1  0
 32 34  2  0
 33 32  1  0
 35 33  1  0
 36 45  2  0
 36 41  1  0
 37 33  1  0
 37 41  1  0
 38 37  1  0
 39 40  1  0
 39 38  1  0
 40 36  1  0
 41 42  2  0
 42 43  1  0
 44 43  2  0
 45 44  1  0
 46 20  1  0
 46 47  1  0
 46 56  1  0
 47 50  1  0
 48 52  1  0
 48 47  1  0
 49 48  2  0
 52 51  1  0
 54 52  1  0
 54 55  1  0
 54 53  1  0
 56 59  1  1
 56 57  1  0
 58 56  1  0
 61 60  1  0
 61 62  1  0
 62 71  1  0
 63 71  1  0
 64 69  1  0
 65 66  1  0
 65 64  1  0
 67 66  1  0
 67 76  1  0
 67 68  1  0
 69 63  1  0
 69 68  1  0
 70 63  2  0
 71 72  1  0
 73 74  2  0
 74 93  1  0
 75 74  1  0
 75 78  1  0
 76 73  1  0
 76 77  1  0
 77 75  2  0
 78 79  1  0
 79 80  2  0
 81 84  1  0
 81 80  1  0
 82 81  2  0
 83 82  1  0
 83 78  2  0
 84 85  1  0
 85 86  1  0
 86 87  2  0
 88 87  1  0
 88 92  1  0
 89 88  2  0
 90 85  2  0
 90 89  1  0
 91 90  1  0
 93 94  1  0
 94 97  1  0
 94 96  1  0
 95 93  2  0
 98 99  1  0
 98 73  1  0
100 98  1  0
M  ISO  4  18 101  19 101  63 100  71 100
M  END
>  <TORSDO>  (36) 
F 24

>  <SCORE>  (36) 
-12.863

>  <name>  (36) 
35

>  <ligand_id>  (36) 
35

>  <original_smiles>  (36) 
[H]c1c([H])c([H])c2c(c1[H])C([H])([H])C([H])([H])C([H])([H])C2([H])N([H])C(=O)C1([H])N(C(=O)C([H])(N([H])C(=O)C([H])(N([H])C([H])([H])[H])C([H])([H])[H])C(C([H])([H])[H])(C([H])([H])[H])C([H])([H])[H])C([H])([H])c2c([H])c(OC([H])([H])C([H])(C([H])([H])[H])[N+]([H])([H])C([H])(c3c(Cl)c([H])c(OC([H])([H])C([H])([H])N([H])C(=O)N4C([H])([H])C([H])([H])C([H])([H])C([H])(n5nc(-c6c([H])c([H])c(Oc7c([H])c([H])c(F)c([H])c7F)c([H])c6[H])c(C(=O)N([H])[H])c5N([H])[H])C4([H])[H])c([H])c3C3([H])C([H])([H])C3([H])[H])C([H])([H])[H])c([H])c([H])c2C1([H])[H]

>  <smiles>  (36) 
[H]c1c([H])c([H])c2c(c1[H])C([H])([H])C([H])([H])C([H])([H])C2([H])N([H])C(=O)C1([H])N(C(=O)C([H])(N([H])C(=O)C([H])(N([H])C([H])([H])[H])C([H])([H])[H])C(C([H])([H])[H])(C([H])([H])[H])C([H])([H])[H])C([H])([H])c2c([H])c(OC([H])([H])C([H])(C([H])([H])[H])[N+]([H])([H])C([H])(c3c(Cl)c([H])c(OC([H])([H])C([H])([H])N([H])C(=O)N4C([H])([H])C([H])([H])C([H])([H])C([H])(n5nc(-c6c([H])c([H])c(Oc7c([H])c([H])c(F)c([H])c7F)c([H])c6[H])c(C(=O)N([H])[H])c5N([H])[H])C4([H])[H])c([H])c3C3([H])C([H])([H])C3([H])[H])C([H])([H])[H])c([H])c([H])c2C1([H])[H]

$$$$
36:0:0
     RDKit          3D

 93102  0  0  1  0  0  0  0  0999 V2000
  -30.8160  -14.5870   20.4180 C   0  0  0  0  0  0  0  0  0  0  0  0
  -30.5070  -12.3190   19.4620 C   0  0  0  0  0  2  0  0  0  0  0  0
  -29.5930  -12.3390   18.2220 C   0  0  0  0  0  2  0  0  0  0  0  0
  -28.1160  -12.1850   18.6320 C   0  0  0  0  0  2  0  0  0  0  0  0
  -27.7270  -13.1500   19.7750 C   0  0  0  0  0  3  0  0  0  0  0  0
  -28.7710  -13.1050   20.9290 C   0  0  0  0  0  2  0  0  0  0  0  0
  -30.0850  -13.4240   20.3510 N   0  0  0  0  0  0  0  0  0  0  0  0
  -31.9970  -14.5720   20.0580 O   0  0  0  0  0  0  0  0  0  0  0  0
  -28.7000  -19.8830   20.9970 C   0  0  0  0  0  3  0  0  0  0  0  0
  -30.9280  -20.8270   20.9100 C   0  0  0  0  0  3  0  0  0  0  0  0
  -29.2530  -18.5960   21.1310 C   0  0  0  0  0  0  0  0  0  0  0  0
  -30.6400  -18.3810   21.1050 C   0  0  0  0  0  0  0  0  0  0  0  0
  -31.4850  -19.5240   21.0300 C   0  0  0  0  0  0  0  0  0  0  0  0
  -29.5230  -21.0140   20.8630 C   0  0  0  0  0  0  0  0  0  0  0  0
  -28.3620  -17.4000   21.2660 C   0  0  0  0  0  2  0  0  0  0  0  0
  -31.1800  -16.9290   21.1440 C   0  0  0  0  0  2  0  0  0  0  0  0
  -28.8880  -16.2320   20.4280 C   0  0  0  0  0  3  0  0  0  0  0  0
  -32.9970  -19.3780   21.0510 C   0  0  0  0  0  1  0  0  0  0  0  0
  -28.7940  -16.5230   18.9120 C   0  0  0  0  0  1  0  0  0  0  0  0
  -30.2540  -15.7930   20.8020 N   0  0  0  0  0  0  0  0  0  0  0  0
  -25.3650  -13.8700   20.4970 C   0  0  0  0  0  0  0  0  0  0  0  0
  -24.2600  -13.1410   20.8440 C   0  0  0  0  0  0  0  0  0  0  0  0
  -24.6620  -11.7710   20.7860 C   0  0  0  0  0  0  0  0  0  0  0  0
  -26.3680  -12.9420   20.2510 N   0  0  0  0  0  0  0  0  0  0  0  0
  -25.9490  -11.6750   20.4840 N   0  0  0  0  0  0  0  0  0  0  0  0
  -23.8830  -10.5400   20.9370 C   0  0  0  0  0  0  0  0  0  0  0  0
  -24.2970   -9.5100   21.8090 C   0  0  0  0  0  3  0  0  0  0  0  0
  -23.5210   -8.3390   21.9480 C   0  0  0  0  0  3  0  0  0  0  0  0
  -22.3230   -8.1910   21.2130 C   0  0  0  0  0  0  0  0  0  0  0  0
  -21.9300   -9.2100   20.3270 C   0  0  0  0  0  3  0  0  0  0  0  0
  -22.7040  -10.3720   20.1840 C   0  0  0  0  0  3  0  0  0  0  0  0
  -21.5190   -7.0780   21.2660 O   0  0  0  0  0  0  0  0  0  0  0  0
  -21.4950   -6.2610   22.3670 C   0  0  0  0  0  0  0  0  0  0  0  0
  -21.1820   -6.7510   23.6540 C   0  0  0  0  0  3  0  0  0  0  0  0
  -21.1030   -5.8640   24.7460 C   0  0  0  0  0  3  0  0  0  0  0  0
  -21.3240   -4.4880   24.5530 C   0  0  0  0  0  0  0  0  0  0  0  0
  -21.6300   -3.9960   23.2710 C   0  0  0  0  0  3  0  0  0  0  0  0
  -21.7120   -4.8810   22.1810 C   0  0  0  0  0  0  0  0  0  0  0  0
  -21.9870   -4.3990   20.9450 F   0  0  0  0  0  0  0  0  0  0  0  0
  -21.2400   -3.6340   25.6000 F   0  0  0  0  0  0  0  0  0  0  0  0
  -22.8810  -13.6730   21.1130 C   0  0  0  0  0  0  0  0  0  0  0  0
  -22.1160  -12.9920   21.9580 N   0  0  0  0  0  0  0  0  0  0  0  0
  -22.4910  -14.7260   20.6100 O   0  0  0  0  0  0  0  0  0  0  0  0
  -22.4450  -12.1400   22.3890 H   0  0  0  0  0  0  0  0  0  0  0  0
  -21.1910  -13.3290   22.1840 H   0  0  0  0  0  0  0  0  0  0  0  0
  -25.5850  -15.2360   20.3450 N   0  0  0  0  0  0  0  0  0  0  0  0
  -24.8330  -15.9080   20.4450 H   0  0  0  0  0  0  0  0  0  0  0  0
  -26.4360  -15.6450   19.9830 H   0  0  0  0  0  0  0  0  0  0  0  0
  -28.8580  -22.2130   20.6830 O   0  0  0  0  0  0  0  0  0  0  0  0
  -29.5530  -23.4590   20.6480 C   0  0  0  0  0  2  0  0  0  0  0  0
  -28.5530  -24.5290   20.1410 C   0  0  0  0  0  2  0  0  0  0  0  0
  -28.9640  -25.9940   20.4100 C   0  0  0  0  0  2  0  0  0  0  0  0
  -28.4730  -26.8700   19.3940 O   0  0  0  0  0  0  0  0  0  0  0  0
  -24.5680  -31.6650   23.0020 C   0  0  0  0  0  0  0  0  0  0  0  0
  -27.2720  -27.5080   19.6010 C   0  0  0  0  0  0  0  0  0  0  0  0
  -23.3620  -30.3350   21.2970 C   0  0  0  0  0  3  0  0  0  0  0  0
  -24.8290  -28.9220   19.7560 C   0  0  0  0  0  0  0  0  0  0  0  0
  -25.8690  -30.7760   21.0740 C   0  0  0  0  0  2  0  0  0  0  0  0
  -25.9800  -29.4440   20.3610 C   0  0  0  0  0  0  0  0  0  0  0  0
  -27.2050  -28.7400   20.2880 C   0  0  0  0  0  3  0  0  0  0  0  0
  -26.1080  -26.9930   18.9940 C   0  0  0  0  0  3  0  0  0  0  0  0
  -24.8860  -27.6940   19.0730 C   0  0  0  0  0  3  0  0  0  0  0  0
  -23.5620  -29.7420   19.8750 C   0  0  0  0  0  2  0  0  0  0  0  0
  -24.6170  -30.9380   21.8500 N   0  0  0  0  0  0  0  0  0  0  0  0
  -23.4930  -31.8740   23.5810 O   0  0  0  0  0  0  0  0  0  0  0  0
  -22.7580  -29.2400   22.2050 C   0  0  0  0  0  0  0  0  0  0  0  0
  -21.4330  -29.0420   22.1020 N   0  0  0  0  0  0  0  0  0  0  0  0
  -23.4770  -28.5780   22.9570 O   0  0  0  0  0  0  0  0  0  0  0  0
  -20.9150  -29.6340   21.4690 H   0  0  0  0  0  0  0  0  0  0  0  0
  -18.0980  -27.7470   22.6020 C   0  0  0  0  0  0  0  0  0  0  0  0
  -20.6560  -28.0390   22.8300 C   0  0  0  0  0  3  0  0  0  0  0  0
  -20.7710  -26.6510   22.1560 C   0  0  0  0  0  2  0  0  0  0  0  0
  -19.6500  -26.3760   21.1480 C   0  0  0  0  0  2  0  0  0  0  0  0
  -18.2830  -26.4490   21.8360 C   0  0  0  0  0  2  0  0  0  0  0  0
  -19.2130  -28.5010   23.0560 C   0  0  0  0  0  0  0  0  0  0  0  0
  -18.9850  -29.7190   23.7340 C   0  0  0  0  0  3  0  0  0  0  0  0
  -17.6770  -30.1810   23.9650 C   0  0  0  0  0  3  0  0  0  0  0  0
  -16.5770  -29.4220   23.5280 C   0  0  0  0  0  3  0  0  0  0  0  0
  -16.7890  -28.2080   22.8530 C   0  0  0  0  0  3  0  0  0  0  0  0
  -25.8520  -32.2890   23.6330 C   0  0  0  0  0  3  0  0  0  0  0  0
  -26.4090  -31.4600   24.8550 C   0  0  1  0  0  0  0  0  0  0  0  0
  -25.3440  -31.1490   25.9320 C   0  0  0  0  0  1  0  0  0  0  0  0
  -27.0010  -30.1140   24.3760 C   0  0  0  0  0  1  0  0  0  0  0  0
  -27.5630  -32.2360   25.5310 C   0  0  0  0  0  1  0  0  0  0  0  0
  -25.5230  -33.6600   24.0420 N   0  0  0  0  0  0  0  0  0  0  0  0
  -25.8110  -34.7560   23.3260 C   0  0  0  0  0  0  0  0  0  0  0  0
  -26.4530  -34.7180   22.2740 O   0  0  0  0  0  0  0  0  0  0  0  0
  -24.9470  -33.7600   24.8640 H   0  0  0  0  0  0  0  0  0  0  0  0
  -24.0220  -36.5120   23.1160 C   0  0  0  0  0  1  0  0  0  0  0  0
  -25.3030  -36.1080   23.8620 C   0  0  0  0  0  3  0  0  0  0  0  0
  -27.4460  -37.0160   24.6490 C   0  0  0  0  0  1  0  0  0  0  0  0
  -26.3020  -37.1950   23.7590 N   0  0  0  0  0  0  0  0  0  0  0  0
  -25.8780  -38.0960   23.9620 H   0  0  0  0  0  0  0  0  0  0  0  0
  1 20  1  0
  2  7  1  0
  3  4  1  0
  3  2  1  0
  5  4  1  0
  5 24  1  0
  5  6  1  0
  7  1  1  0
  7  6  1  0
  8  1  2  0
  9 11  1  0
 10 13  2  0
 11 15  1  0
 12 11  2  0
 12 16  1  0
 13 18  1  0
 13 12  1  0
 14 10  1  0
 14  9  2  0
 17 19  1  0
 17 20  1  0
 17 15  1  0
 20 16  1  0
 21 22  2  0
 22 41  1  0
 23 22  1  0
 23 26  1  0
 24 25  1  0
 24 21  1  0
 25 23  2  0
 26 27  1  0
 27 28  2  0
 29 32  1  0
 29 28  1  0
 30 29  2  0
 31 30  1  0
 31 26  2  0
 32 33  1  0
 33 34  1  0
 34 35  2  0
 36 35  1  0
 36 40  1  0
 37 36  2  0
 38 33  2  0
 38 37  1  0
 39 38  1  0
 41 42  1  0
 42 45  1  0
 42 44  1  0
 43 41  2  0
 46 47  1  0
 46 21  1  0
 48 46  1  0
 49 14  1  0
 50 49  1  0
 51 52  1  0
 51 50  1  0
 53 55  1  0
 53 52  1  0
 54 65  2  0
 55 60  1  0
 56 64  1  0
 56 66  1  0
 57 63  1  0
 57 59  1  0
 58 64  1  0
 59 58  1  0
 60 59  2  0
 61 62  1  0
 61 55  2  0
 62 57  2  0
 63 56  1  0
 64 54  1  0
 66 68  2  0
 67 66  1  0
 69 67  1  0
 70 79  2  0
 70 75  1  0
 71 67  1  0
 71 75  1  0
 72 71  1  0
 73 74  1  0
 73 72  1  0
 74 70  1  0
 75 76  2  0
 76 77  1  0
 78 77  2  0
 79 78  1  0
 80 54  1  0
 80 85  1  0
 80 81  1  0
 81 84  1  1
 81 82  1  0
 83 81  1  0
 85 88  1  0
 86 90  1  0
 86 85  1  0
 87 86  2  0
 90 89  1  0
 92 90  1  0
 92 93  1  0
 92 91  1  0
M  ISO  4   1 100  20 100  52 101  53 101
M  END
>  <TORSDO>  (37) 
F 19

>  <SCORE>  (37) 
-12.673

>  <name>  (37) 
36

>  <ligand_id>  (37) 
36

>  <original_smiles>  (37) 
[H]c1c([H])c([H])c2c(c1[H])C([H])([H])C([H])([H])C([H])([H])C2([H])N([H])C(=O)C1([H])N(C(=O)C([H])(N([H])C(=O)C([H])(N([H])C([H])([H])[H])C([H])([H])[H])C(C([H])([H])[H])(C([H])([H])[H])C([H])([H])[H])C([H])([H])c2c([H])c(OC([H])([H])C([H])([H])C([H])([H])Oc3c([H])c(C([H])([H])[H])c4c(c3[H])C([H])([H])C([H])(C([H])([H])[H])N(C(=O)N3C([H])([H])C([H])([H])C([H])([H])C([H])(n5nc(-c6c([H])c([H])c(Oc7c([H])c([H])c(F)c([H])c7F)c([H])c6[H])c(C(=O)N([H])[H])c5N([H])[H])C3([H])[H])C4([H])[H])c([H])c([H])c2C1([H])[H]

>  <smiles>  (37) 
[H]c1c([H])c([H])c2c(c1[H])C([H])([H])C([H])([H])C([H])([H])C2([H])N([H])C(=O)C1([H])N(C(=O)C([H])(N([H])C(=O)C([H])(N([H])C([H])([H])[H])C([H])([H])[H])C(C([H])([H])[H])(C([H])([H])[H])C([H])([H])[H])C([H])([H])c2c([H])c(OC([H])([H])C([H])([H])C([H])([H])Oc3c([H])c(C([H])([H])[H])c4c(c3[H])C([H])([H])C([H])(C([H])([H])[H])N(C(=O)N3C([H])([H])C([H])([H])C([H])([H])C([H])(n5nc(-c6c([H])c([H])c(Oc7c([H])c([H])c(F)c([H])c7F)c([H])c6[H])c(C(=O)N([H])[H])c5N([H])[H])C3([H])[H])C4([H])[H])c([H])c([H])c2C1([H])[H]

$$$$
37:0:0
     RDKit          3D

 97 95  0  0  1  0  0  0  0  0999 V2000
  -26.6070  -12.8330   22.2970 C   0  0  0  0  0 15  0  0  0  0  0  0
  -26.3050  -14.3430   18.2020 C   0  0  0  0  0 15  0  0  0  0  0  0
  -27.2540  -11.3750   20.7070 C   0  0  0  0  0  1  0  0  0  0  0  0
  -25.8160  -14.8600   21.8760 C   0  0  0  0  0  2  0  0  0  0  0  0
  -27.0410  -12.2230   18.5260 C   0  0  0  0  0  1  0  0  0  0  0  0
  -25.7560  -15.7920   19.8620 C   0  0  0  0  0  1  0  0  0  0  0  0
  -25.4860  -15.7360   23.0620 C   0  0  0  0  0  1  0  0  0  0  0  0
  -27.3350  -11.3630   17.3120 C   0  0  0  0  0  1  0  0  0  0  0  0
  -27.8510   -9.9830   21.1260 C   0  0  0  0  0  2  0  0  0  0  0  0
  -29.3510   -9.8590   21.2310 N   0  0  0  0  0  4  0  0  0  0  0  0
  -29.7630  -10.3920   20.4790 H   0  0  0  0  0  0  0  0  0  0  0  0
  -29.5720   -8.8880   21.0640 H   0  0  0  0  0  0  0  0  0  0  0  0
  -30.0260  -10.2370   22.5290 C   0  0  0  0  0  2  0  0  0  0  0  0
  -31.4830  -10.8680   22.4090 C   0  0  0  0  0  2  0  0  0  0  0  0
  -31.7190  -12.3900   22.8010 C   0  0  0  0  0  2  0  0  0  0  0  0
  -32.1970  -13.5830   20.5520 C   0  0  0  0  0  0  0  0  0  0  0  0
  -31.5760  -11.7560   19.0470 C   0  0  0  0  0  2  0  0  0  0  0  0
  -30.6300  -11.8370   17.8460 C   0  0  0  0  0  2  0  0  0  0  0  0
  -29.1710  -11.9730   18.2500 C   0  0  0  0  0  2  0  0  0  0  0  0
  -29.0740  -13.1030   19.2930 C   0  0  0  0  0  3  0  0  0  0  0  0
  -29.9400  -13.0260   20.5030 C   0  0  0  0  0  2  0  0  0  0  0  0
  -31.2810  -12.7510   20.0840 N   0  0  0  0  0  0  0  0  0  0  0  0
  -32.9110  -14.2890   19.8350 O   0  0  0  0  0  0  0  0  0  0  0  0
  -32.4480  -13.2990   21.8530 N   0  0  0  0  0  0  0  0  0  0  0  0
  -33.1780  -13.8590   22.2700 H   0  0  0  0  0  0  0  0  0  0  0  0
  -27.0400  -14.1610   20.0870 C   0  0  0  0  0  0  0  0  0  0  0  0
  -25.2730  -13.6240   20.5850 C   0  0  2  0  0  0  0  0  0  0  0  0
  -25.0570  -12.2960   20.6620 C   0  0  0  0  0  1  0  0  0  0  0  0
  -27.7400  -13.6050   19.7780 N   0  0  0  0  0  2  0  0  0  0  0  0
  -26.0140  -13.4100   20.3880 N   0  0  0  0  0  2  0  0  0  0  0  0
  -24.5430  -10.7690   20.7450 C   0  0  0  0  0  3  0  0  0  0  0  0
  -24.9330   -9.7370   21.6850 C   0  0  0  0  0  3  0  0  0  0  0  0
  -24.2960   -8.4510   21.7920 C   0  0  0  0  0  3  0  0  0  0  0  0
  -23.1730   -8.1350   20.9870 C   0  0  0  0  0  0  0  0  0  0  0  0
  -22.8250   -9.0900   20.0130 C   0  0  0  0  0  3  0  0  0  0  0  0
  -23.4970  -10.3390   19.8840 C   0  0  0  0  0  3  0  0  0  0  0  0
  -22.4120   -6.9690   21.0520 O   0  0  0  0  0  0  0  0  0  0  0  0
  -22.2130   -6.2270   22.2040 C   0  0  0  0  0  0  0  0  0  0  0  0
  -21.7610   -6.8050   23.4120 C   0  0  0  0  0  3  0  0  0  0  0  0
  -21.5230   -5.9980   24.5470 C   0  0  0  0  0  3  0  0  0  0  0  0
  -21.7210   -4.6060   24.4830 C   0  0  0  0  0  0  0  0  0  0  0  0
  -22.1440   -4.0180   23.2780 C   0  0  0  0  0  3  0  0  0  0  0  0
  -22.3780   -4.8210   22.1450 C   0  0  0  0  0  0  0  0  0  0  0  0
  -22.7560   -4.2310   20.9860 F   0  0  0  0  0  0  0  0  0  0  0  0
  -21.5140   -3.8320   25.5750 F   0  0  0  0  0  0  0  0  0  0  0  0
  -23.7210  -14.0900   20.7970 C   0  0  0  0  0  0  0  0  0  0  0  0
  -22.9400  -13.3700   21.6380 N   0  0  0  0  0  0  0  0  0  0  0  0
  -23.1990  -14.9280   20.0880 O   0  0  0  0  0  0  0  0  0  0  0  0
  -23.3280  -12.6360   22.2090 H   0  0  0  0  0  0  0  0  0  0  0  0
  -21.9560  -13.5900   21.7240 H   0  0  0  0  0  0  0  0  0  0  0  0
  -28.0120  -15.2440   19.8370 N   0  0  0  0  0  4  0  0  0  0  0  0
  -27.7320  -16.2020   19.9890 H   0  0  0  0  0  0  0  0  0  0  0  0
  -28.9790  -15.1400   19.5810 H   0  0  0  0  0  0  0  0  0  0  0  0
  -25.9880  -17.6190   19.6180 O   0  0  0  0  0  1  0  0  0  0  0  0
  -26.8330  -19.5180   19.9200 C   0  0  0  0  0 15  0  0  0  0  0  0
  -26.9530  -21.8690   19.7480 C   0  0  0  0  0 15  0  0  0  0  0  0
  -27.8030  -23.7940   19.9170 O   0  0  0  0  0  1  0  0  0  0  0  0
  -25.4430  -31.0000   22.9590 C   0  0  0  0  0  0  0  0  0  0  0  0
  -27.4680  -25.4690   19.8710 C   0  0  0  0  0  0  0  0  0  0  0  0
  -24.3690  -29.7380   21.1700 C   0  0  0  0  0  3  0  0  0  0  0  0
  -25.8110  -28.1210   19.6950 C   0  0  0  0  0  0  0  0  0  0  0  0
  -26.9420  -29.6090   21.2970 C   0  0  0  0  0  2  0  0  0  0  0  0
  -26.9190  -28.1730   20.5330 C   0  0  0  0  0  0  0  0  0  0  0  0
  -27.7530  -26.8740   20.5890 C   0  0  0  0  0  3  0  0  0  0  0  0
  -26.5620  -25.8690   18.8710 C   0  0  0  0  0  3  0  0  0  0  0  0
  -25.7400  -27.0320   18.8200 C   0  0  0  0  0  3  0  0  0  0  0  0
  -24.7020  -29.1880   19.7510 C   0  0  0  0  0  2  0  0  0  0  0  0
  -25.6230  -30.1750   21.8570 N   0  0  0  0  0  0  0  0  0  0  0  0
  -24.3100  -31.2800   23.3940 O   0  0  0  0  0  0  0  0  0  0  0  0
  -23.5940  -28.6830   22.0080 C   0  0  0  0  0  0  0  0  0  0  0  0
  -22.2660  -28.5640   21.8220 N   0  0  0  0  0  0  0  0  0  0  0  0
  -24.2030  -27.9770   22.8170 O   0  0  0  0  0  0  0  0  0  0  0  0
  -21.8190  -29.1850   21.1630 H   0  0  0  0  0  0  0  0  0  0  0  0
  -18.8480  -27.3600   22.1270 C   0  0  0  0  0  0  0  0  0  0  0  0
  -21.4020  -27.5710   22.4790 C   0  0  0  0  0  3  0  0  0  0  0  0
  -21.5050  -26.2000   21.7700 C   0  0  0  0  0  2  0  0  0  0  0  0
  -20.4310  -25.9950   20.6990 C   0  0  0  0  0  2  0  0  0  0  0  0
  -19.0340  -26.0880   21.3170 C   0  0  0  0  0  2  0  0  0  0  0  0
  -19.9600  -28.0660   22.6580 C   0  0  0  0  0  0  0  0  0  0  0  0
  -19.7300  -29.2550   23.3830 C   0  0  0  0  0  3  0  0  0  0  0  0
  -18.4210  -29.7390   23.5790 C   0  0  0  0  0  3  0  0  0  0  0  0
  -17.3250  -29.0290   23.0600 C   0  0  0  0  0  3  0  0  0  0  0  0
  -17.5380  -27.8410   22.3400 C   0  0  0  0  0  3  0  0  0  0  0  0
  -26.6320  -31.6430   23.7380 C   0  0  0  0  0  3  0  0  0  0  0  0
  -26.2200  -32.9930   24.1960 N   0  0  0  0  0  0  0  0  0  0  0  0
  -26.5770  -34.1590   23.6380 C   0  0  0  0  0  0  0  0  0  0  0  0
  -27.3360  -34.2180   22.6690 O   0  0  0  0  0  0  0  0  0  0  0  0
  -25.5400  -33.0180   24.9430 H   0  0  0  0  0  0  0  0  0  0  0  0
  -24.8270  -35.9680   23.3930 C   0  0  0  0  0  1  0  0  0  0  0  0
  -26.0080  -35.4660   24.2410 C   0  0  0  0  0  3  0  0  0  0  0  0
  -28.0310  -36.2820   25.3810 C   0  0  0  0  0  1  0  0  0  0  0  0
  -27.0120  -36.5480   24.3680 N   0  0  0  0  0  0  0  0  0  0  0  0
  -26.5650  -37.4320   24.5920 H   0  0  0  0  0  0  0  0  0  0  0  0
  -27.0800  -30.7930   24.9930 C   0  0  1  0  0  0  0  0  0  0  0  0
  -25.9170  -30.4400   25.9530 C   0  0  0  0  0  1  0  0  0  0  0  0
  -27.7390  -29.4660   24.5670 C   0  0  0  0  0  1  0  0  0  0  0  0
  -28.1560  -31.5690   25.7900 C   0  0  0  0  0  1  0  0  0  0  0  0
  3  9  1  0
  4  7  1  0
  8  5  1  0
  9 10  1  0
 10 13  1  0
 11 10  1  0
 12 10  1  0
 14 13  1  0
 14 15  1  0
 16 24  1  0
 17 22  1  0
 18 19  1  0
 18 17  1  0
 19 20  1  0
 20 29  1  0
 20 21  1  0
 22 21  1  0
 22 16  1  0
 23 16  2  0
 24 25  1  0
 24 15  1  0
 26 30  1  0
 27 28  1  1
 27 46  1  0
 27  4  1  0
 29 26  1  0
 30 27  1  0
 31 32  1  0
 32 33  2  0
 34 37  1  0
 34 33  1  0
 35 34  2  0
 36 35  1  0
 36 31  2  0
 37 38  1  0
 38 39  1  0
 39 40  2  0
 41 40  1  0
 41 45  1  0
 42 41  2  0
 43 38  2  0
 43 42  1  0
 44 43  1  0
 46 47  1  0
 47 50  1  0
 47 49  1  0
 48 46  2  0
 51 52  1  0
 51 26  2  0
 53 51  1  0
 54  6  1  0
 58 69  2  0
 59 57  1  0
 59 64  1  0
 60 68  1  0
 60 70  1  0
 61 67  1  0
 61 63  1  0
 62 68  1  0
 63 64  2  0
 63 62  1  0
 65 59  2  0
 66 65  1  0
 66 61  2  0
 67 60  1  0
 68 58  1  0
 70 72  2  0
 71 70  1  0
 73 71  1  0
 74 83  2  0
 74 79  1  0
 75 71  1  0
 75 79  1  0
 76 75  1  0
 77 78  1  0
 77 76  1  0
 78 74  1  0
 79 80  2  0
 80 81  1  0
 82 81  2  0
 83 82  1  0
 84 58  1  0
 84 85  1  0
 84 94  1  0
 85 88  1  0
 86 85  1  0
 86 90  1  0
 87 86  2  0
 90 89  1  0
 90 92  1  0
 92 93  1  0
 92 91  1  0
 94 97  1  1
 94 95  1  0
 96 94  1  0
M  ISO  4  16 100  24 100  56 101  57 101
M  END
>  <TORSDO>  (38) 
F 24

>  <SCORE>  (38) 
-0.491

>  <name>  (38) 
37

>  <ligand_id>  (38) 
37

>  <original_smiles>  (38) 
[H]c1c([H])c([H])c2c(c1[H])C([H])([H])C([H])([H])C([H])([H])C2([H])N([H])C(=O)C1([H])N(C(=O)C([H])(N([H])C(=O)C([H])(N([H])C([H])([H])[H])C([H])([H])[H])C(C([H])([H])[H])(C([H])([H])[H])C([H])([H])[H])C([H])([H])c2c([H])c(OC([H])([H])C([H])([H])Oc3c([H])c(C([H])([H])[H])c(C([H])([H])[N+]([H])([H])C([H])([H])C([H])([H])C([H])([H])N([H])C(=O)N4C([H])([H])C([H])([H])C([H])([H])C([H])(n5nc(-c6c([H])c([H])c(Oc7c([H])c([H])c(F)c([H])c7F)c([H])c6[H])c(C(=O)N([H])[H])c5N([H])[H])C4([H])[H])c([H])c3C([H])([H])[H])c([H])c([H])c2C1([H])[H]

>  <smiles>  (38) 
[H]c1c([H])c([H])c2c(c1[H])C([H])([H])C([H])([H])C([H])([H])C2([H])N([H])C(=O)C1([H])N(C(=O)C([H])(N([H])C(=O)C([H])(N([H])C([H])([H])[H])C([H])([H])[H])C(C([H])([H])[H])(C([H])([H])[H])C([H])([H])[H])C([H])([H])c2c([H])c(OC([H])([H])C([H])([H])Oc3c([H])c(C([H])([H])[H])c(C([H])([H])[N+]([H])([H])C([H])([H])C([H])([H])C([H])([H])N([H])C(=O)N4C([H])([H])C([H])([H])C([H])([H])C([H])(n5nc(-c6c([H])c([H])c(Oc7c([H])c([H])c(F)c([H])c7F)c([H])c6[H])c(C(=O)N([H])[H])c5N([H])[H])C4([H])[H])c([H])c3C([H])([H])[H])c([H])c([H])c2C1([H])[H]

$$$$
38:0:0
     RDKit          3D

 95104  0  0  1  0  0  0  0  0999 V2000
  -27.9160  -20.4630   20.2630 C   0  0  0  0  0  3  0  0  0  0  0  0
  -27.9330  -21.8700   20.0610 C   0  0  0  0  0  3  0  0  0  0  0  0
  -30.3190  -20.4150   20.2680 C   0  0  0  0  0  3  0  0  0  0  0  0
  -29.1030  -19.6950   20.3670 C   0  0  0  0  0  0  0  0  0  0  0  0
  -29.1440  -22.5950   19.9530 C   0  0  0  0  0  0  0  0  0  0  0  0
  -30.3530  -21.8370   20.0560 C   0  0  0  0  0  0  0  0  0  0  0  0
  -29.0020  -18.1510   20.6350 C   0  0  0  0  0  2  0  0  0  0  0  0
  -30.1910  -17.1610   20.3040 C   0  0  0  0  0  2  0  0  0  0  0  0
  -30.6450  -14.6290   20.2040 C   0  0  0  0  0  0  0  0  0  0  0  0
  -30.3700  -12.4160   19.1260 C   0  0  0  0  0  2  0  0  0  0  0  0
  -29.3950  -12.5780   17.9380 C   0  0  0  0  0  2  0  0  0  0  0  0
  -27.9350  -12.4230   18.4100 C   0  0  0  0  0  2  0  0  0  0  0  0
  -27.6200  -13.2750   19.6680 C   0  0  0  0  0  3  0  0  0  0  0  0
  -28.7080  -13.0990   20.7520 C   0  0  0  0  0  2  0  0  0  0  0  0
  -30.0030  -13.4230   20.1380 N   0  0  0  0  0  0  0  0  0  0  0  0
  -31.7970  -14.7760   19.7890 O   0  0  0  0  0  0  0  0  0  0  0  0
  -29.8760  -15.7090   20.5290 N   0  0  0  0  0  0  0  0  0  0  0  0
  -28.9420  -15.4950   20.8430 H   0  0  0  0  0  0  0  0  0  0  0  0
  -25.2510  -13.8790   20.4620 C   0  0  0  0  0  0  0  0  0  0  0  0
  -24.1920  -13.1070   20.8530 C   0  0  0  0  0  0  0  0  0  0  0  0
  -24.6460  -11.7540   20.7930 C   0  0  0  0  0  0  0  0  0  0  0  0
  -26.2840  -12.9970   20.1880 N   0  0  0  0  0  0  0  0  0  0  0  0
  -25.9260  -11.7130   20.4480 N   0  0  0  0  0  0  0  0  0  0  0  0
  -23.9190  -10.4920   20.9850 C   0  0  0  0  0  0  0  0  0  0  0  0
  -24.3480   -9.5290   21.9250 C   0  0  0  0  0  3  0  0  0  0  0  0
  -23.6210   -8.3320   22.1050 C   0  0  0  0  0  3  0  0  0  0  0  0
  -22.4520   -8.0900   21.3460 C   0  0  0  0  0  0  0  0  0  0  0  0
  -22.0430   -9.0420   20.3950 C   0  0  0  0  0  3  0  0  0  0  0  0
  -22.7690  -10.2300   20.2130 C   0  0  0  0  0  3  0  0  0  0  0  0
  -21.6980   -6.9460   21.4350 O   0  0  0  0  0  0  0  0  0  0  0  0
  -21.6190   -6.2250   22.6000 C   0  0  0  0  0  0  0  0  0  0  0  0
  -21.1110   -6.7890   23.7910 C   0  0  0  0  0  3  0  0  0  0  0  0
  -20.9810   -5.9920   24.9470 C   0  0  0  0  0  3  0  0  0  0  0  0
  -21.3500   -4.6350   24.9120 C   0  0  0  0  0  0  0  0  0  0  0  0
  -21.8490   -4.0700   23.7250 C   0  0  0  0  0  3  0  0  0  0  0  0
  -21.9800   -4.8630   22.5720 C   0  0  0  0  0  0  0  0  0  0  0  0
  -22.4420   -4.3100   21.4250 F   0  0  0  0  0  0  0  0  0  0  0  0
  -21.2180   -3.8670   26.0190 F   0  0  0  0  0  0  0  0  0  0  0  0
  -22.8050  -13.5870   21.1700 C   0  0  0  0  0  0  0  0  0  0  0  0
  -22.0960  -12.8780   22.0400 N   0  0  0  0  0  0  0  0  0  0  0  0
  -22.3590  -14.6240   20.6800 O   0  0  0  0  0  0  0  0  0  0  0  0
  -22.4690  -12.0370   22.4550 H   0  0  0  0  0  0  0  0  0  0  0  0
  -21.1670  -13.1820   22.2980 H   0  0  0  0  0  0  0  0  0  0  0  0
  -25.4190  -15.2510   20.2940 N   0  0  0  0  0  0  0  0  0  0  0  0
  -24.6490  -15.9020   20.4090 H   0  0  0  0  0  0  0  0  0  0  0  0
  -26.2450  -15.6820   19.9000 H   0  0  0  0  0  0  0  0  0  0  0  0
  -29.1360  -24.1320   19.5930 C   0  0  0  0  0  3  0  0  0  0  0  0
  -29.2880  -25.3680   17.2510 C   0  0  0  0  0  2  0  0  0  0  0  0
  -29.6310  -23.9170   17.0110 C   0  0  0  0  0  2  0  0  0  0  0  0
  -28.7020  -24.2970   18.1420 C   0  0  0  0  0  3  0  0  0  0  0  0
  -28.3380  -25.1370   20.5210 C   0  0  0  0  0  2  0  0  0  0  0  0
  -28.4530  -26.5740   20.1960 O   0  0  0  0  0  0  0  0  0  0  0  0
  -24.5970  -31.8630   23.2190 C   0  0  0  0  0  0  0  0  0  0  0  0
  -27.3020  -27.3660   20.1810 C   0  0  0  0  0  0  0  0  0  0  0  0
  -23.4290  -30.4600   21.5520 C   0  0  0  0  0  3  0  0  0  0  0  0
  -24.9130  -28.9260   20.1460 C   0  0  0  0  0  0  0  0  0  0  0  0
  -25.9630  -30.8110   21.4040 C   0  0  0  0  0  2  0  0  0  0  0  0
  -26.0660  -29.4360   20.7560 C   0  0  0  0  0  0  0  0  0  0  0  0
  -27.2660  -28.6680   20.7580 C   0  0  0  0  0  3  0  0  0  0  0  0
  -26.1290  -26.8980   19.5510 C   0  0  0  0  0  3  0  0  0  0  0  0
  -24.9440  -27.6610   19.5360 C   0  0  0  0  0  3  0  0  0  0  0  0
  -23.6670  -29.7860   20.1750 C   0  0  0  0  0  2  0  0  0  0  0  0
  -24.6810  -31.0610   22.1160 N   0  0  0  0  0  0  0  0  0  0  0  0
  -23.5050  -32.1300   23.7380 O   0  0  0  0  0  0  0  0  0  0  0  0
  -22.7600  -29.4360   22.5010 C   0  0  0  0  0  0  0  0  0  0  0  0
  -21.4350  -29.2660   22.3660 N   0  0  0  0  0  0  0  0  0  0  0  0
  -23.4340  -28.7990   23.3150 O   0  0  0  0  0  0  0  0  0  0  0  0
  -20.9530  -29.8350   21.6840 H   0  0  0  0  0  0  0  0  0  0  0  0
  -18.0440  -28.1110   22.8640 C   0  0  0  0  0  0  0  0  0  0  0  0
  -20.6080  -28.3240   23.1220 C   0  0  0  0  0  3  0  0  0  0  0  0
  -20.6840  -26.9050   22.5140 C   0  0  0  0  0  2  0  0  0  0  0  0
  -19.5690  -26.6220   21.5010 C   0  0  0  0  0  2  0  0  0  0  0  0
  -18.1940  -26.7740   22.1580 C   0  0  0  0  0  2  0  0  0  0  0  0
  -19.1790  -28.8450   23.3020 C   0  0  0  0  0  0  0  0  0  0  0  0
  -18.9840  -30.0980   23.9250 C   0  0  0  0  0  3  0  0  0  0  0  0
  -17.6890  -30.6160   24.1120 C   0  0  0  0  0  3  0  0  0  0  0  0
  -16.5700  -29.8780   23.6900 C   0  0  0  0  0  3  0  0  0  0  0  0
  -16.7480  -28.6270   23.0720 C   0  0  0  0  0  3  0  0  0  0  0  0
  -25.8660  -32.5010   23.8630 C   0  0  0  0  0  3  0  0  0  0  0  0
  -25.5500  -33.9010   24.1800 N   0  0  0  0  0  0  0  0  0  0  0  0
  -25.8890  -34.9510   23.4200 C   0  0  0  0  0  0  0  0  0  0  0  0
  -26.5720  -34.8420   22.3970 O   0  0  0  0  0  0  0  0  0  0  0  0
  -24.9470  -34.0600   24.9730 H   0  0  0  0  0  0  0  0  0  0  0  0
  -24.1690  -36.7410   23.0200 C   0  0  0  0  0  1  0  0  0  0  0  0
  -25.3900  -36.3400   23.8620 C   0  0  0  0  0  3  0  0  0  0  0  0
  -27.4990  -37.2310   24.7480 C   0  0  0  0  0  1  0  0  0  0  0  0
  -26.4260  -37.3930   23.7710 N   0  0  0  0  0  0  0  0  0  0  0  0
  -26.0150  -38.3130   23.9010 H   0  0  0  0  0  0  0  0  0  0  0  0
  -26.3590  -31.7380   25.1530 C   0  0  1  0  0  0  0  0  0  0  0  0
  -25.2430  -31.5030   26.1980 C   0  0  0  0  0  1  0  0  0  0  0  0
  -26.9560  -30.3620   24.7780 C   0  0  0  0  0  1  0  0  0  0  0  0
  -27.4920  -32.5400   25.8370 C   0  0  0  0  0  1  0  0  0  0  0  0
  -31.5370  -22.5330   19.9220 O   0  0  0  0  0  0  0  0  0  0  0  0
  -33.9020  -22.7800   19.5900 C   0  0  0  0  0  1  0  0  0  0  0  0
  -32.7580  -21.8040   19.8690 C   0  0  0  0  0  2  0  0  0  0  0  0
  1  4  1  0
  2  1  2  0
  3  4  2  0
  4  7  1  0
  5  6  2  0
  5  2  1  0
  6  3  1  0
  8 17  1  0
  8  7  1  0
  9 17  1  0
 10 15  1  0
 11 12  1  0
 11 10  1  0
 13 12  1  0
 13 22  1  0
 13 14  1  0
 15  9  1  0
 15 14  1  0
 16  9  2  0
 17 18  1  0
 19 20  2  0
 20 39  1  0
 21 20  1  0
 21 24  1  0
 22 23  1  0
 22 19  1  0
 23 21  2  0
 24 25  1  0
 25 26  2  0
 27 30  1  0
 27 26  1  0
 28 27  2  0
 29 28  1  0
 29 24  2  0
 30 31  1  0
 31 32  1  0
 32 33  2  0
 34 33  1  0
 34 38  1  0
 35 34  2  0
 36 31  2  0
 36 35  1  0
 37 36  1  0
 39 40  1  0
 40 43  1  0
 40 42  1  0
 41 39  2  0
 44 45  1  0
 44 19  1  0
 46 44  1  0
 47  5  1  0
 47 51  1  0
 48 50  1  0
 49 48  1  0
 49 50  1  0
 50 47  1  0
 52 51  1  0
 53 64  2  0
 54 52  1  0
 54 59  1  0
 55 63  1  0
 55 65  1  0
 56 62  1  0
 56 58  1  0
 57 63  1  0
 58 59  2  0
 58 57  1  0
 60 54  2  0
 61 60  1  0
 61 56  2  0
 62 55  1  0
 63 53  1  0
 65 67  2  0
 66 65  1  0
 68 66  1  0
 69 78  2  0
 69 74  1  0
 70 66  1  0
 70 74  1  0
 71 70  1  0
 72 73  1  0
 72 71  1  0
 73 69  1  0
 74 75  2  0
 75 76  1  0
 77 76  2  0
 78 77  1  0
 79 53  1  0
 79 80  1  0
 79 89  1  0
 80 83  1  0
 81 85  1  0
 81 80  1  0
 82 81  2  0
 85 84  1  0
 87 85  1  0
 87 88  1  0
 87 86  1  0
 89 92  1  1
 89 90  1  0
 91 89  1  0
 93  6  1  0
 94 95  1  0
 95 93  1  0
M  ISO  4   9 100  17 100  51 101  52 101
M  END
>  <TORSDO>  (39) 
F 23

>  <SCORE>  (39) 
-12.932

>  <name>  (39) 
38

>  <ligand_id>  (39) 
38

>  <original_smiles>  (39) 
[H]c1c([H])c([H])c2c(c1[H])C([H])([H])C([H])([H])C([H])([H])C2([H])N([H])C(=O)C1([H])N(C(=O)C([H])(N([H])C(=O)C([H])(N([H])C([H])([H])[H])C([H])([H])[H])C(C([H])([H])[H])(C([H])([H])[H])C([H])([H])[H])C([H])([H])c2c([H])c(OC([H])([H])C([H])(c3c([H])c([H])c(C([H])([H])C([H])([H])N([H])C(=O)N4C([H])([H])C([H])([H])C([H])([H])C([H])(n5nc(-c6c([H])c([H])c(Oc7c([H])c([H])c(F)c([H])c7F)c([H])c6[H])c(C(=O)N([H])[H])c5N([H])[H])C4([H])[H])c([H])c3OC([H])([H])C([H])([H])[H])C3([H])C([H])([H])C3([H])[H])c([H])c([H])c2C1([H])[H]

>  <smiles>  (39) 
[H]c1c([H])c([H])c2c(c1[H])C([H])([H])C([H])([H])C([H])([H])C2([H])N([H])C(=O)C1([H])N(C(=O)C([H])(N([H])C(=O)C([H])(N([H])C([H])([H])[H])C([H])([H])[H])C(C([H])([H])[H])(C([H])([H])[H])C([H])([H])[H])C([H])([H])c2c([H])c(OC([H])([H])C([H])(c3c([H])c([H])c(C([H])([H])C([H])([H])N([H])C(=O)N4C([H])([H])C([H])([H])C([H])([H])C([H])(n5nc(-c6c([H])c([H])c(Oc7c([H])c([H])c(F)c([H])c7F)c([H])c6[H])c(C(=O)N([H])[H])c5N([H])[H])C4([H])[H])c([H])c3OC([H])([H])C([H])([H])[H])C3([H])C([H])([H])C3([H])[H])c([H])c([H])c2C1([H])[H]

$$$$
39:0:0
     RDKit          3D

 99108  0  0  1  0  0  0  0  0999 V2000
  -31.6870  -25.9980   10.0680 C   0  0  0  0  0  3  0  0  0  0  0  0
  -31.3590  -25.3400    8.8710 C   0  0  0  0  0  3  0  0  0  0  0  0
  -29.5020  -25.4420   10.9670 C   0  0  0  0  0  3  0  0  0  0  0  0
  -29.1700  -24.7590    9.7790 C   0  0  0  0  0  0  0  0  0  0  0  0
  -30.7660  -26.0190   11.1390 C   0  0  0  0  0  0  0  0  0  0  0  0
  -30.1180  -24.6890    8.7300 C   0  0  0  0  0  0  0  0  0  0  0  0
  -29.8500  -23.9720    7.5940 O   0  0  0  0  0  0  0  0  0  0  0  0
  -29.6830  -24.7560    6.4250 C   0  0  0  0  0  2  0  0  0  0  0  0
  -30.6720  -24.3680    5.3050 C   0  0  0  0  0  2  0  0  0  0  0  0
  -31.6370  -25.5350    5.0480 C   0  0  0  0  0  2  0  0  0  0  0  0
  -32.0900  -27.1850    3.2400 C   0  0  0  0  0  0  0  0  0  0  0  0
  -33.7920  -28.9770    3.2210 C   0  0  0  0  0  2  0  0  0  0  0  0
  -35.1970  -28.4420    3.5630 C   0  0  0  0  0  2  0  0  0  0  0  0
  -35.4150  -28.3400    5.0900 C   0  0  0  0  0  2  0  0  0  0  0  0
  -34.2230  -27.6640    5.8190 C   0  0  0  0  0  3  0  0  0  0  0  0
  -32.9050  -28.3310    5.3610 C   0  0  0  0  0  2  0  0  0  0  0  0
  -32.7920  -28.1440    3.9050 N   0  0  0  0  0  0  0  0  0  0  0  0
  -32.1350  -27.0640    2.0110 O   0  0  0  0  0  0  0  0  0  0  0  0
  -31.2380  -26.4200    3.9440 N   0  0  0  0  0  0  0  0  0  0  0  0
  -30.5400  -26.0000    3.3460 H   0  0  0  0  0  0  0  0  0  0  0  0
  -35.0390  -26.8020    8.1150 C   0  0  0  0  0  0  0  0  0  0  0  0
  -34.9480  -27.3330    9.3720 C   0  0  0  0  0  0  0  0  0  0  0  0
  -34.2410  -28.5650    9.2260 C   0  0  0  0  0  0  0  0  0  0  0  0
  -34.3870  -27.6930    7.2730 N   0  0  0  0  0  0  0  0  0  0  0  0
  -33.8670  -28.7390    7.9650 N   0  0  0  0  0  0  0  0  0  0  0  0
  -33.9450  -29.6220   10.1990 C   0  0  0  0  0  0  0  0  0  0  0  0
  -32.7340  -29.6360   10.9290 C   0  0  0  0  0  3  0  0  0  0  0  0
  -32.4790  -30.6540   11.8710 C   0  0  0  0  0  3  0  0  0  0  0  0
  -33.4420  -31.6660   12.0960 C   0  0  0  0  0  0  0  0  0  0  0  0
  -34.6350  -31.6600   11.3530 C   0  0  0  0  0  3  0  0  0  0  0  0
  -34.8840  -30.6490   10.4110 C   0  0  0  0  0  3  0  0  0  0  0  0
  -33.2720  -32.7060   12.9780 O   0  0  0  0  0  0  0  0  0  0  0  0
  -33.0340  -32.4870   14.3110 C   0  0  0  0  0  0  0  0  0  0  0  0
  -33.8040  -31.5750   15.0660 C   0  0  0  0  0  3  0  0  0  0  0  0
  -33.5680  -31.4300   16.4490 C   0  0  0  0  0  3  0  0  0  0  0  0
  -32.5730  -32.2040   17.0780 C   0  0  0  0  0  0  0  0  0  0  0  0
  -31.8130  -33.1180   16.3280 C   0  0  0  0  0  3  0  0  0  0  0  0
  -32.0430  -33.2590   14.9490 C   0  0  0  0  0  0  0  0  0  0  0  0
  -31.3190  -34.1540   14.2360 F   0  0  0  0  0  0  0  0  0  0  0  0
  -32.3540  -32.0740   18.4060 F   0  0  0  0  0  0  0  0  0  0  0  0
  -35.5690  -26.7830   10.6260 C   0  0  0  0  0  0  0  0  0  0  0  0
  -34.8210  -26.7470   11.7230 N   0  0  0  0  0  0  0  0  0  0  0  0
  -36.7140  -26.3360   10.6240 O   0  0  0  0  0  0  0  0  0  0  0  0
  -33.8680  -27.0800   11.7180 H   0  0  0  0  0  0  0  0  0  0  0  0
  -35.2040  -26.3680   12.5780 H   0  0  0  0  0  0  0  0  0  0  0  0
  -35.6390  -25.6450    7.6230 N   0  0  0  0  0  0  0  0  0  0  0  0
  -36.1950  -25.0580    8.2350 H   0  0  0  0  0  0  0  0  0  0  0  0
  -35.7340  -25.4070    6.6460 H   0  0  0  0  0  0  0  0  0  0  0  0
  -31.0350  -26.5810   12.3560 O   0  0  0  0  0  0  0  0  0  0  0  0
  -31.7130  -25.7590   13.2940 C   0  0  0  0  0  2  0  0  0  0  0  0
  -31.2350  -26.1110   14.7110 C   0  0  0  0  0  2  0  0  0  0  0  0
  -31.2900  -24.9670   15.5520 O   0  0  0  0  0  0  0  0  0  0  0  0
  -31.7290  -17.9420   16.3550 C   0  0  0  0  0  0  0  0  0  0  0  0
  -30.9440  -23.7420   15.0260 C   0  0  0  0  0  0  0  0  0  0  0  0
  -30.7060  -18.7030   14.2320 C   0  0  0  0  0  3  0  0  0  0  0  0
  -30.1760  -21.1910   14.0980 C   0  0  0  0  0  0  0  0  0  0  0  0
  -30.5790  -20.1490   16.3370 C   0  0  0  0  0  2  0  0  0  0  0  0
  -30.5720  -21.3590   15.4280 C   0  0  0  0  0  0  0  0  0  0  0  0
  -30.9490  -22.6330   15.8970 C   0  0  0  0  0  3  0  0  0  0  0  0
  -30.5700  -23.5520   13.6760 C   0  0  0  0  0  3  0  0  0  0  0  0
  -30.1830  -22.2810   13.2130 C   0  0  0  0  0  3  0  0  0  0  0  0
  -29.7540  -19.8000   13.6860 C   0  0  0  0  0  2  0  0  0  0  0  0
  -31.0550  -18.9130   15.6760 N   0  0  0  0  0  0  0  0  0  0  0  0
  -32.0200  -16.8650   15.8150 O   0  0  0  0  0  0  0  0  0  0  0  0
  -31.9410  -18.6200   13.3060 C   0  0  0  0  0  0  0  0  0  0  0  0
  -31.7870  -17.9410   12.1590 N   0  0  0  0  0  0  0  0  0  0  0  0
  -32.9960  -19.1790   13.6150 O   0  0  0  0  0  0  0  0  0  0  0  0
  -30.8960  -17.4960   11.9910 H   0  0  0  0  0  0  0  0  0  0  0  0
  -32.5200  -16.2330    9.0620 C   0  0  0  0  0  0  0  0  0  0  0  0
  -32.8030  -17.7710   11.1200 C   0  0  0  0  0  3  0  0  0  0  0  0
  -32.7780  -18.9470   10.1160 C   0  0  0  0  0  2  0  0  0  0  0  0
  -31.8980  -18.6780    8.8920 C   0  0  0  0  0  2  0  0  0  0  0  0
  -32.3830  -17.4340    8.1430 C   0  0  0  0  0  2  0  0  0  0  0  0
  -32.7020  -16.3900   10.4620 C   0  0  0  0  0  0  0  0  0  0  0  0
  -32.7890  -15.2410   11.2770 C   0  0  0  0  0  3  0  0  0  0  0  0
  -32.6960  -13.9520   10.7190 C   0  0  0  0  0  3  0  0  0  0  0  0
  -32.5310  -13.8020    9.3310 C   0  0  0  0  0  3  0  0  0  0  0  0
  -32.4480  -14.9380    8.5070 C   0  0  0  0  0  3  0  0  0  0  0  0
  -32.1390  -18.1220   17.8510 C   0  0  0  0  0  3  0  0  0  0  0  0
  -33.5940  -17.5990   18.1630 C   0  0  1  0  0  0  0  0  0  0  0  0
  -33.6500  -16.0960   18.5200 C   0  0  0  0  0  1  0  0  0  0  0  0
  -34.5340  -17.8360   16.9560 C   0  0  0  0  0  1  0  0  0  0  0  0
  -34.1930  -18.3890   19.3520 C   0  0  0  0  0  1  0  0  0  0  0  0
  -31.1440  -17.4200   18.6730 N   0  0  0  0  0  0  0  0  0  0  0  0
  -30.2690  -18.0240   19.4900 C   0  0  0  0  0  0  0  0  0  0  0  0
  -30.2700  -19.2410   19.6900 O   0  0  0  0  0  0  0  0  0  0  0  0
  -31.0590  -16.4250   18.5240 H   0  0  0  0  0  0  0  0  0  0  0  0
  -27.8250  -17.7270   19.9970 C   0  0  0  0  0  1  0  0  0  0  0  0
  -29.2290  -17.1370   20.1990 C   0  0  0  0  0  3  0  0  0  0  0  0
  -30.7260  -16.2350   21.9250 C   0  0  0  0  0  1  0  0  0  0  0  0
  -29.4920  -16.9630   21.6430 N   0  0  0  0  0  0  0  0  0  0  0  0
  -28.7260  -16.4670   22.0910 H   0  0  0  0  0  0  0  0  0  0  0  0
  -27.7870  -24.1200    9.6620 C   0  0  0  0  0  3  0  0  0  0  0  0
  -28.5260  -21.6860   10.2960 C   0  0  0  0  0  2  0  0  0  0  0  0
  -27.0970  -21.5410    9.8320 C   0  0  0  0  0  2  0  0  0  0  0  0
  -27.9590  -22.6520    9.2780 C   0  0  0  0  0  3  0  0  0  0  0  0
  -26.3330  -26.2040    9.3060 C   0  0  0  0  0  1  0  0  0  0  0  0
  -25.7050  -24.0400    8.1680 C   0  0  0  0  0  1  0  0  0  0  0  0
  -26.8710  -24.9010    8.6780 C   0  0  0  0  0  3  0  0  0  0  0  0
  1  5  1  0
  2  1  2  0
  3  5  2  0
  4  3  1  0
  5 49  1  0
  6  2  1  0
  6  4  2  0
  7  6  1  0
  8  7  1  0
  9  8  1  0
 10  9  1  0
 11 17  1  0
 11 19  1  0
 12 13  1  0
 12 17  1  0
 13 14  1  0
 15 14  1  0
 15 24  1  0
 16 15  1  0
 17 16  1  0
 18 11  2  0
 19 10  1  0
 20 19  1  0
 21 22  2  0
 22 41  1  0
 23 22  1  0
 23 26  1  0
 24 25  1  0
 24 21  1  0
 25 23  2  0
 26 31  2  0
 26 27  1  0
 27 28  2  0
 28 29  1  0
 29 32  1  0
 30 29  2  0
 31 30  1  0
 32 33  1  0
 33 38  2  0
 33 34  1  0
 34 35  2  0
 35 36  1  0
 36 40  1  0
 37 36  2  0
 38 37  1  0
 39 38  1  0
 41 42  1  0
 42 45  1  0
 43 41  2  0
 44 42  1  0
 46 21  1  0
 46 47  1  0
 48 46  1  0
 49 50  1  0
 50 51  1  0
 51 52  1  0
 54 52  1  0
 54 59  1  0
 55 65  1  0
 55 63  1  0
 56 58  1  0
 58 59  2  0
 58 57  1  0
 60 54  2  0
 61 60  1  0
 61 56  2  0
 62 56  1  0
 62 55  1  0
 63 57  1  0
 63 53  1  0
 64 53  2  0
 65 67  2  0
 66 65  1  0
 68 66  1  0
 69 74  1  0
 70 66  1  0
 71 70  1  0
 72 71  1  0
 73 72  1  0
 73 69  1  0
 74 70  1  0
 74 75  2  0
 76 75  1  0
 77 76  2  0
 78 69  2  0
 78 77  1  0
 79 53  1  0
 79 80  1  0
 79 84  1  0
 80 81  1  1
 80 83  1  0
 82 80  1  0
 84 85  1  0
 85 86  2  0
 85 89  1  0
 87 84  1  0
 89 88  1  0
 89 91  1  0
 91 90  1  0
 91 92  1  0
 93 99  1  0
 93  4  1  0
 95 94  1  0
 96 93  1  0
 96 95  1  0
 96 94  1  0
 98 99  1  0
 99 97  1  0
M  ISO  4  11 100  19 100  51 101  52 101
M  END
>  <TORSDO>  (40) 
F 26

>  <SCORE>  (40) 
-3.435

>  <name>  (40) 
39

>  <ligand_id>  (40) 
39

>  <original_smiles>  (40) 
[H]c1c([H])c([H])c2c(c1[H])C([H])([H])C([H])([H])C([H])([H])C2([H])N([H])C(=O)C1([H])N(C(=O)C([H])(N([H])C(=O)C([H])(N([H])C([H])([H])[H])C([H])([H])[H])C(C([H])([H])[H])(C([H])([H])[H])C([H])([H])[H])C([H])([H])c2c([H])c(OC([H])([H])C([H])([H])Oc3c([H])c([H])c(OC([H])([H])C([H])([H])C([H])([H])N([H])C(=O)N4C([H])([H])C([H])([H])C([H])([H])C([H])(n5nc(-c6c([H])c([H])c(Oc7c([H])c([H])c(F)c([H])c7F)c([H])c6[H])c(C(=O)N([H])[H])c5N([H])[H])C4([H])[H])c(C([H])(C([H])(C([H])([H])[H])C([H])([H])[H])C4([H])C([H])([H])C4([H])[H])c3[H])c([H])c([H])c2C1([H])[H]

>  <smiles>  (40) 
[H]c1c([H])c([H])c2c(c1[H])C([H])([H])C([H])([H])C([H])([H])C2([H])N([H])C(=O)C1([H])N(C(=O)C([H])(N([H])C(=O)C([H])(N([H])C([H])([H])[H])C([H])([H])[H])C(C([H])([H])[H])(C([H])([H])[H])C([H])([H])[H])C([H])([H])c2c([H])c(OC([H])([H])C([H])([H])Oc3c([H])c([H])c(OC([H])([H])C([H])([H])C([H])([H])N([H])C(=O)N4C([H])([H])C([H])([H])C([H])([H])C([H])(n5nc(-c6c([H])c([H])c(Oc7c([H])c([H])c(F)c([H])c7F)c([H])c6[H])c(C(=O)N([H])[H])c5N([H])[H])C4([H])[H])c(C([H])(C([H])(C([H])([H])[H])C([H])([H])[H])C4([H])C([H])([H])C4([H])[H])c3[H])c([H])c([H])c2C1([H])[H]

$$$$
41:0:0
     RDKit          3D

 95 98  0  0  1  0  0  0  0  0999 V2000
  -23.2600  -27.8650   24.0380 C   0  0  0  0  0  3  0  0  0  0  0  0
  -22.3650  -28.9100   23.0860 C   0  0  0  0  0  2  0  0  0  0  0  0
  -21.7710  -26.0510   22.9320 C   0  0  0  0  0  2  0  0  0  0  0  0
  -23.7310  -26.2720   23.9440 C   0  0  0  0  0  0  0  0  0  0  0  0
  -23.4060  -25.0310   22.9480 C   0  0  0  0  0  2  0  0  0  0  0  0
  -21.2240  -28.0840   21.9340 C   0  0  0  0  0  2  0  0  0  0  0  0
  -24.7380  -26.7140   26.3160 C   0  0  0  0  0  2  0  0  0  0  0  0
  -26.1800  -27.0460   25.9640 C   0  0  0  0  0  2  0  0  0  0  0  0
  -24.7340  -25.8960   25.0270 C   0  0  0  0  0  3  0  0  0  0  0  0
  -26.0960  -26.3050   24.7160 O   0  0  0  0  0  0  0  0  0  0  0  0
  -24.7760  -22.9580   22.3670 C   0  0  0  0  0 15  0  0  0  0  0  0
  -26.7390  -21.2630   21.4450 C   0  0  0  0  0 15  0  0  0  0  0  0
  -29.4970  -17.9640   20.4500 C   0  0  0  0  0  2  0  0  0  0  0  0
  -30.9940  -15.4840   19.2470 C   0  0  0  0  0  2  0  0  0  0  0  0
  -30.6180  -14.3220   18.1590 C   0  0  0  0  0  2  0  0  0  0  0  0
  -29.4680  -13.4280   18.6190 C   0  0  0  0  0  2  0  0  0  0  0  0
  -28.6750  -14.3570   19.5260 C   0  0  0  0  0  3  0  0  0  0  0  0
  -29.4210  -15.0630   20.6860 C   0  0  0  0  0  2  0  0  0  0  0  0
  -29.8390  -16.3680   20.1070 N   0  0  0  0  0  0  0  0  0  0  0  0
  -30.7660  -18.0940   20.0960 O   0  0  0  0  0  1  0  0  0  0  0  0
  -28.0930  -19.3010   20.9620 N   0  0  0  0  0  1  0  0  0  0  0  0
  -28.8860  -19.9300   20.9450 H   0  0  0  0  0  0  0  0  0  0  0  0
  -26.5220  -14.7380   20.5780 C   0  0  0  0  0  0  0  0  0  0  0  0
  -25.5560  -13.9070   21.0230 C   0  0  0  0  0  0  0  0  0  0  0  0
  -26.0160  -12.5790   20.7530 C   0  0  0  0  0  0  0  0  0  0  0  0
  -27.4730  -13.8960   20.0600 N   0  0  0  0  0  0  0  0  0  0  0  0
  -27.2280  -12.5860   20.2250 N   0  0  0  0  0  0  0  0  0  0  0  0
  -25.3320  -11.3030   20.8940 C   0  0  0  0  0  0  0  0  0  0  0  0
  -25.7330  -10.3480   21.8500 C   0  0  0  0  0  3  0  0  0  0  0  0
  -25.0290   -9.1330   21.9700 C   0  0  0  0  0  3  0  0  0  0  0  0
  -23.9170   -8.8760   21.1320 C   0  0  0  0  0  0  0  0  0  0  0  0
  -23.5440   -9.8240   20.1640 C   0  0  0  0  0  3  0  0  0  0  0  0
  -24.2480  -11.0290   20.0420 C   0  0  0  0  0  3  0  0  0  0  0  0
  -23.1810   -7.7180   21.1640 O   0  0  0  0  0  0  0  0  0  0  0  0
  -22.7360   -7.1880   22.3450 C   0  0  0  0  0  0  0  0  0  0  0  0
  -22.0280   -7.9600   23.2910 C   0  0  0  0  0  3  0  0  0  0  0  0
  -21.5270   -7.3530   24.4600 C   0  0  0  0  0  3  0  0  0  0  0  0
  -21.7260   -5.9750   24.6780 C   0  0  0  0  0  0  0  0  0  0  0  0
  -22.4280   -5.2060   23.7340 C   0  0  0  0  0  3  0  0  0  0  0  0
  -22.9310   -5.8120   22.5700 C   0  0  0  0  0  0  0  0  0  0  0  0
  -23.5890   -5.0630   21.6510 F   0  0  0  0  0  0  0  0  0  0  0  0
  -21.2380   -5.3890   25.7960 F   0  0  0  0  0  0  0  0  0  0  0  0
  -24.2410  -14.3500   21.5660 C   0  0  0  0  0  0  0  0  0  0  0  0
  -23.6730  -13.5810   22.4850 N   0  0  0  0  0  0  0  0  0  0  0  0
  -23.7410  -15.4160   21.2120 O   0  0  0  0  0  0  0  0  0  0  0  0
  -24.1060  -12.7200   22.7880 H   0  0  0  0  0  0  0  0  0  0  0  0
  -22.7900  -13.8560   22.8910 H   0  0  0  0  0  0  0  0  0  0  0  0
  -26.6680  -16.1270   20.5500 N   0  0  0  0  0  0  0  0  0  0  0  0
  -25.9170  -16.7420   20.8450 H   0  0  0  0  0  0  0  0  0  0  0  0
  -27.3860  -16.6070   20.0240 H   0  0  0  0  0  0  0  0  0  0  0  0
  -21.2710  -28.4590   20.4080 O   0  0  0  0  0  0  0  0  0  0  0  0
  -22.0690  -27.8350   19.0310 C   0  0  0  0  0  2  0  0  0  0  0  0
  -23.4750  -26.6630   18.8020 C   0  0  0  0  0  2  0  0  0  0  0  0
  -25.1360  -26.4750   19.3430 C   0  0  0  0  0  2  0  0  0  0  0  0
  -26.5290  -26.5720   18.6220 O   0  0  0  0  0  0  0  0  0  0  0  0
  -24.8840  -31.5480   22.7020 C   0  0  0  0  0  0  0  0  0  0  0  0
  -26.7940  -27.8520   18.3460 C   0  0  0  0  0  3  0  0  0  0  0  0
  -23.6100  -30.3770   20.9840 C   0  0  0  0  0  3  0  0  0  0  0  0
  -24.8020  -29.6670   18.8850 C   0  0  0  0  0  3  0  0  0  0  0  0
  -26.0740  -30.8110   20.6550 C   0  0  0  0  0  2  0  0  0  0  0  0
  -25.9830  -29.7160   19.6230 C   0  0  0  0  0  0  0  0  0  0  0  0
  -27.0030  -28.7680   19.3970 C   0  0  0  0  0  3  0  0  0  0  0  0
  -25.8900  -28.1410   17.3430 C   0  0  0  0  0  3  0  0  0  0  0  0
  -24.8280  -29.0020   17.6580 C   0  0  0  0  0  3  0  0  0  0  0  0
  -23.6390  -30.4660   19.4470 C   0  0  0  0  0  2  0  0  0  0  0  0
  -24.8520  -30.9940   21.4710 N   0  0  0  0  0  0  0  0  0  0  0  0
  -23.8560  -31.7030   23.3770 O   0  0  0  0  0  0  0  0  0  0  0  0
  -23.6840  -28.9360   21.5430 C   0  0  0  0  0  0  0  0  0  0  0  0
  -23.1490  -27.9030   20.8830 N   0  0  0  0  0  0  0  0  0  0  0  0
  -24.1950  -28.6890   22.6220 O   0  0  0  0  0  0  0  0  0  0  0  0
  -22.8410  -28.2370   19.9880 H   0  0  0  0  0  0  0  0  0  0  0  0
  -18.2280  -26.8810   21.7050 C   0  0  0  0  0  0  0  0  0  0  0  0
  -22.4540  -26.4030   21.1260 C   0  0  0  0  0  2  0  0  0  0  0  0
  -21.4820  -25.6060   19.5210 C   0  0  0  0  0  1  0  0  0  0  0  0
  -19.6910  -25.8170   19.2920 C   0  0  0  0  0  2  0  0  0  0  0  0
  -18.3500  -26.0330   20.3560 C   0  0  0  0  0  2  0  0  0  0  0  0
  -19.4280  -26.7540   22.6840 C   0  0  0  0  0  3  0  0  0  0  0  0
  -19.0270  -28.1400   23.3840 C   0  0  0  0  0  3  0  0  0  0  0  0
  -18.0150  -29.2080   23.2260 C   0  0  0  0  0  3  0  0  0  0  0  0
  -16.9340  -29.0150   22.3800 C   0  0  0  0  0  3  0  0  0  0  0  0
  -17.0710  -27.8160   21.6560 C   0  0  0  0  0  3  0  0  0  0  0  0
  -26.2430  -31.9940   23.2990 C   0  0  0  0  0  3  0  0  0  0  0  0
  -25.9990  -33.2640   23.9790 N   0  0  0  0  0  0  0  0  0  0  0  0
  -26.2210  -34.4610   23.4230 C   0  0  0  0  0  0  0  0  0  0  0  0
  -26.7370  -34.6010   22.3090 O   0  0  0  0  0  0  0  0  0  0  0  0
  -25.5340  -33.2230   24.8740 H   0  0  0  0  0  0  0  0  0  0  0  0
  -24.4940  -36.2600   23.6980 C   0  0  0  0  0  1  0  0  0  0  0  0
  -25.8150  -35.6980   24.2410 C   0  0  0  0  0  3  0  0  0  0  0  0
  -28.0540  -36.3730   24.9810 C   0  0  0  0  0  1  0  0  0  0  0  0
  -26.8490  -36.7550   24.2500 N   0  0  0  0  0  0  0  0  0  0  0  0
  -26.4840  -37.6090   24.6620 H   0  0  0  0  0  0  0  0  0  0  0  0
  -26.8790  -30.9260   24.2690 C   0  0  1  0  0  0  0  0  0  0  0  0
  -25.9060  -30.4250   25.3590 C   0  0  0  0  0  1  0  0  0  0  0  0
  -27.4110  -29.6860   23.5080 C   0  0  0  0  0  1  0  0  0  0  0  0
  -28.1130  -31.5520   24.9560 C   0  0  0  0  0  1  0  0  0  0  0  0
  2  1  1  0
  3  5  1  0
  4  1  2  0
  5  4  1  0
  6  2  1  0
  8  7  1  0
  9  4  1  0
  9  7  1  0
 10  9  1  0
 10  8  1  0
 14 19  1  0
 15 16  1  0
 15 14  1  0
 17 16  1  0
 17 26  1  0
 17 18  1  0
 19 13  1  0
 19 18  1  0
 20 13  1  0
 22 21  1  0
 23 24  2  0
 24 43  1  0
 25 28  1  0
 25 24  1  0
 26 27  1  0
 26 23  1  0
 27 25  2  0
 28 29  1  0
 29 30  2  0
 31 34  1  0
 31 30  1  0
 32 31  2  0
 33 32  1  0
 33 28  2  0
 34 35  1  0
 35 40  2  0
 35 36  1  0
 36 37  2  0
 37 38  1  0
 38 42  1  0
 39 38  2  0
 40 39  1  0
 41 40  1  0
 43 44  1  0
 44 46  1  0
 44 47  1  0
 45 43  2  0
 48 23  1  0
 48 49  1  0
 50 48  1  0
 51  6  1  0
 52 51  1  0
 53 52  1  0
 53 54  1  0
 55 54  1  0
 56 67  2  0
 57 63  1  0
 57 55  1  0
 57 62  1  0
 58 65  1  0
 58 66  1  0
 58 68  1  0
 59 64  1  0
 59 65  1  0
 59 61  1  0
 60 66  1  0
 61 60  1  0
 62 61  2  0
 63 64  2  0
 66 56  1  0
 68 70  2  0
 69 73  1  0
 69 68  1  0
 71 69  1  0
 72 77  1  0
 73  3  1  0
 75 74  1  0
 75 76  1  0
 76 72  1  0
 77 78  2  0
 79 78  1  0
 80 79  2  0
 81 72  2  0
 81 80  1  0
 82 56  1  0
 82 83  1  0
 82 92  1  0
 83 86  1  0
 84 83  1  0
 84 88  1  0
 85 84  2  0
 88 87  1  0
 88 90  1  0
 90 91  1  0
 90 89  1  0
 92 95  1  1
 92 93  1  0
 94 92  1  0
M  ISO  4  13 100  21 100  54 101  55 101
M  END
>  <TORSDO>  (41) 
F 23

>  <SCORE>  (41) 
-5.833

>  <name>  (41) 
41

>  <ligand_id>  (41) 
41

>  <original_smiles>  (41) 
[H]c1c([H])c([H])c2c(c1[H])C([H])([H])C([H])([H])C([H])([H])C2([H])N([H])C(=O)C1([H])N(C(=O)C([H])(N([H])C(=O)C([H])(N([H])C([H])([H])[H])C([H])([H])[H])C(C([H])([H])[H])(C([H])([H])[H])C([H])([H])[H])C([H])([H])c2c([H])c(OC([H])([H])C([H])([H])C([H])([H])Oc3c([H])c([H])c(C4([H])OC([H])([H])C4([H])[H])c(C([H])([H])C([H])([H])N([H])C(=O)N4C([H])([H])C([H])([H])C([H])([H])C([H])(n5nc(-c6c([H])c([H])c(Oc7c([H])c([H])c(F)c([H])c7F)c([H])c6[H])c(C(=O)N([H])[H])c5N([H])[H])C4([H])[H])c3[H])c([H])c([H])c2C1([H])[H]

>  <smiles>  (41) 
[H]c1c([H])c([H])c2c(c1[H])C([H])([H])C([H])([H])C([H])([H])C2([H])N([H])C(=O)C1([H])N(C(=O)C([H])(N([H])C(=O)C([H])(N([H])C([H])([H])[H])C([H])([H])[H])C(C([H])([H])[H])(C([H])([H])[H])C([H])([H])[H])C([H])([H])c2c([H])c(OC([H])([H])C([H])([H])C([H])([H])Oc3c([H])c([H])c(C4([H])OC([H])([H])C4([H])[H])c(C([H])([H])C([H])([H])N([H])C(=O)N4C([H])([H])C([H])([H])C([H])([H])C([H])(n5nc(-c6c([H])c([H])c(Oc7c([H])c([H])c(F)c([H])c7F)c([H])c6[H])c(C(=O)N([H])[H])c5N([H])[H])C4([H])[H])c3[H])c([H])c([H])c2C1([H])[H]

$$$$
42:0:0
     RDKit          3D

 95105  0  0  1  0  0  0  0  0999 V2000
  -29.4130  -16.8830   18.9710 C   0  0  0  0  0  3  0  0  0  0  0  0
  -29.3300  -19.3010   19.1870 C   0  0  0  0  0  0  0  0  0  0  0  0
  -29.8140  -19.2190   20.4840 C   0  0  0  0  0  0  0  0  0  0  0  0
  -29.1280  -18.1480   18.4040 C   0  0  0  0  0  0  0  0  0  0  0  0
  -30.0940  -17.9460   21.0710 C   0  0  0  0  0  0  0  0  0  0  0  0
  -29.8900  -16.7510   20.3030 C   0  0  0  0  0  0  0  0  0  0  0  0
  -29.0830  -20.7310   18.7670 C   0  0  0  0  0  2  0  0  0  0  0  0
  -29.9490  -20.6270   21.0760 C   0  0  0  0  0  2  0  0  0  0  0  0
  -29.3070  -21.6220   20.0340 C   0  0  0  0  0  3  0  0  0  0  0  0
  -28.6030  -18.2580   16.9850 C   0  0  0  0  0  1  0  0  0  0  0  0
  -30.5740  -17.8520   22.5070 C   0  0  0  0  0  1  0  0  0  0  0  0
  -30.0590  -22.9950   19.7690 C   0  0  0  0  0  3  0  0  0  0  0  0
  -31.0010  -24.4860   17.7910 C   0  0  0  0  0  2  0  0  0  0  0  0
  -31.2830  -23.0550   17.4070 C   0  0  0  0  0  2  0  0  0  0  0  0
  -30.0940  -23.3810   18.2890 C   0  0  0  0  0  3  0  0  0  0  0  0
  -29.6520  -24.2550   20.6330 C   0  0  0  0  0  2  0  0  0  0  0  0
  -28.4580  -25.1560   20.1580 C   0  0  0  0  0  2  0  0  0  0  0  0
  -28.5520  -26.5660   20.5200 O   0  0  0  0  0  0  0  0  0  0  0  0
  -24.6710  -31.9140   23.2820 C   0  0  0  0  0  0  0  0  0  0  0  0
  -27.4060  -27.3500   20.4070 C   0  0  0  0  0  0  0  0  0  0  0  0
  -23.5250  -30.4720   21.6380 C   0  0  0  0  0  3  0  0  0  0  0  0
  -25.0240  -28.9060   20.2940 C   0  0  0  0  0  0  0  0  0  0  0  0
  -26.0620  -30.8140   21.5230 C   0  0  0  0  0  2  0  0  0  0  0  0
  -26.1670  -29.4260   20.9150 C   0  0  0  0  0  0  0  0  0  0  0  0
  -27.3590  -28.6560   20.9660 C   0  0  0  0  0  3  0  0  0  0  0  0
  -26.2420  -26.8730   19.7580 C   0  0  0  0  0  3  0  0  0  0  0  0
  -25.0600  -27.6330   19.7100 C   0  0  0  0  0  3  0  0  0  0  0  0
  -23.7810  -29.7670   20.2810 C   0  0  0  0  0  2  0  0  0  0  0  0
  -24.7690  -31.0840   22.2050 N   0  0  0  0  0  0  0  0  0  0  0  0
  -23.5710  -32.1980   23.7780 O   0  0  0  0  0  0  0  0  0  0  0  0
  -22.8400  -29.4720   22.5980 C   0  0  0  0  0  0  0  0  0  0  0  0
  -21.5250  -29.2690   22.4180 N   0  0  0  0  0  0  0  0  0  0  0  0
  -23.4920  -28.8820   23.4640 O   0  0  0  0  0  0  0  0  0  0  0  0
  -21.0590  -29.7960   21.6930 H   0  0  0  0  0  0  0  0  0  0  0  0
  -18.1520  -28.0210   22.7870 C   0  0  0  0  0  0  0  0  0  0  0  0
  -20.6860  -28.3450   23.1810 C   0  0  0  0  0  3  0  0  0  0  0  0
  -20.8480  -26.8940   22.6700 C   0  0  0  0  0  2  0  0  0  0  0  0
  -19.8090  -26.5080   21.6140 C   0  0  0  0  0  2  0  0  0  0  0  0
  -18.3910  -26.6490   22.1750 C   0  0  0  0  0  2  0  0  0  0  0  0
  -19.2300  -28.8220   23.2450 C   0  0  0  0  0  0  0  0  0  0  0  0
  -18.9550  -30.1030   23.7720 C   0  0  0  0  0  3  0  0  0  0  0  0
  -17.6340  -30.5830   23.8470 C   0  0  0  0  0  3  0  0  0  0  0  0
  -16.5700  -29.7790   23.4050 C   0  0  0  0  0  3  0  0  0  0  0  0
  -16.8280  -28.5000   22.8820 C   0  0  0  0  0  3  0  0  0  0  0  0
  -25.9330  -32.5660   23.9290 C   0  0  0  0  0  3  0  0  0  0  0  0
  -25.6050  -33.9660   24.2290 N   0  0  0  0  0  0  0  0  0  0  0  0
  -25.9380  -35.0070   23.4550 C   0  0  0  0  0  0  0  0  0  0  0  0
  -26.6250  -34.8910   22.4370 O   0  0  0  0  0  0  0  0  0  0  0  0
  -24.9970  -34.1290   25.0180 H   0  0  0  0  0  0  0  0  0  0  0  0
  -24.1890  -36.7690   23.0490 C   0  0  0  0  0  1  0  0  0  0  0  0
  -25.4290  -36.3980   23.8780 C   0  0  0  0  0  3  0  0  0  0  0  0
  -27.5450  -37.3300   24.7070 C   0  0  0  0  0  1  0  0  0  0  0  0
  -26.4490  -37.4620   23.7510 N   0  0  0  0  0  0  0  0  0  0  0  0
  -26.0300  -38.3800   23.8750 H   0  0  0  0  0  0  0  0  0  0  0  0
  -26.4210  -31.8170   25.2300 C   0  0  1  0  0  0  0  0  0  0  0  0
  -25.2990  -31.5840   26.2700 C   0  0  0  0  0  1  0  0  0  0  0  0
  -27.0250  -30.4390   24.8750 C   0  0  0  0  0  1  0  0  0  0  0  0
  -27.5460  -32.6300   25.9120 C   0  0  0  0  0  1  0  0  0  0  0  0
  -30.0430  -15.4740   20.8500 O   0  0  0  0  0  0  0  0  0  0  0  0
  -30.8070  -14.4940   20.2310 C   0  0  0  0  0  0  0  0  0  0  0  0
  -30.4020  -12.3900   18.9570 C   0  0  0  0  0  2  0  0  0  0  0  0
  -29.4160  -12.7340   17.8180 C   0  0  0  0  0  2  0  0  0  0  0  0
  -27.9560  -12.6080   18.3010 C   0  0  0  0  0  2  0  0  0  0  0  0
  -27.7030  -13.3420   19.6450 C   0  0  0  0  0  3  0  0  0  0  0  0
  -28.7930  -13.0050   20.6860 C   0  0  0  0  0  2  0  0  0  0  0  0
  -30.1030  -13.2840   20.0840 N   0  0  0  0  0  0  0  0  0  0  0  0
  -31.9070  -14.7230   19.7200 O   0  0  0  0  0  0  0  0  0  0  0  0
  -25.3310  -13.9540   20.4300 C   0  0  0  0  0  0  0  0  0  0  0  0
  -24.2700  -13.1850   20.8260 C   0  0  0  0  0  0  0  0  0  0  0  0
  -24.7220  -11.8300   20.7730 C   0  0  0  0  0  0  0  0  0  0  0  0
  -26.3640  -13.0690   20.1630 N   0  0  0  0  0  0  0  0  0  0  0  0
  -26.0030  -11.7860   20.4250 N   0  0  0  0  0  0  0  0  0  0  0  0
  -23.9950  -10.5720   20.9800 C   0  0  0  0  0  0  0  0  0  0  0  0
  -24.4480   -9.5990   21.8980 C   0  0  0  0  0  3  0  0  0  0  0  0
  -23.7210   -8.4040   22.0910 C   0  0  0  0  0  3  0  0  0  0  0  0
  -22.5280   -8.1730   21.3660 C   0  0  0  0  0  0  0  0  0  0  0  0
  -22.0940   -9.1350   20.4360 C   0  0  0  0  0  3  0  0  0  0  0  0
  -22.8210  -10.3210   20.2410 C   0  0  0  0  0  3  0  0  0  0  0  0
  -21.7710   -7.0310   21.4690 O   0  0  0  0  0  0  0  0  0  0  0  0
  -21.7400   -6.2900   22.6220 C   0  0  0  0  0  0  0  0  0  0  0  0
  -21.3400   -6.8460   23.8560 C   0  0  0  0  0  3  0  0  0  0  0  0
  -21.2580   -6.0300   25.0030 C   0  0  0  0  0  3  0  0  0  0  0  0
  -21.5640   -4.6600   24.9160 C   0  0  0  0  0  0  0  0  0  0  0  0
  -21.9570   -4.1010   23.6860 C   0  0  0  0  0  3  0  0  0  0  0  0
  -22.0420   -4.9150   22.5420 C   0  0  0  0  0  0  0  0  0  0  0  0
  -22.4010   -4.3680   21.3560 F   0  0  0  0  0  0  0  0  0  0  0  0
  -21.4790   -3.8740   26.0150 F   0  0  0  0  0  0  0  0  0  0  0  0
  -22.8850  -13.6680   21.1450 C   0  0  0  0  0  0  0  0  0  0  0  0
  -22.1830  -12.9730   22.0340 N   0  0  0  0  0  0  0  0  0  0  0  0
  -22.4350  -14.6970   20.6440 O   0  0  0  0  0  0  0  0  0  0  0  0
  -22.5590  -12.1400   22.4610 H   0  0  0  0  0  0  0  0  0  0  0  0
  -21.2540  -13.2760   22.2900 H   0  0  0  0  0  0  0  0  0  0  0  0
  -25.4990  -15.3240   20.2570 N   0  0  0  0  0  0  0  0  0  0  0  0
  -24.7460  -15.9870   20.4000 H   0  0  0  0  0  0  0  0  0  0  0  0
  -26.3570  -15.7600   19.9400 H   0  0  0  0  0  0  0  0  0  0  0  0
  1  6  1  0
  2  3  2  0
  3  5  1  0
  3  8  1  0
  4  1  2  0
  4  2  1  0
  5 11  1  0
  6 59  1  0
  6  5  2  0
  7  2  1  0
  7  9  1  0
  9 12  1  0
  9  8  1  0
 10  4  1  0
 12 16  1  0
 13 15  1  0
 14 13  1  0
 14 15  1  0
 15 12  1  0
 17 18  1  0
 17 16  1  0
 19 30  2  0
 20 18  1  0
 20 25  1  0
 21 29  1  0
 21 31  1  0
 22 24  1  0
 23 29  1  0
 24 25  2  0
 24 23  1  0
 26 20  2  0
 27 26  1  0
 27 22  2  0
 28 22  1  0
 28 21  1  0
 29 19  1  0
 31 33  2  0
 32 31  1  0
 34 32  1  0
 35 44  2  0
 35 40  1  0
 36 32  1  0
 36 40  1  0
 37 36  1  0
 38 39  1  0
 38 37  1  0
 39 35  1  0
 40 41  2  0
 41 42  1  0
 43 42  2  0
 44 43  1  0
 45 19  1  0
 45 46  1  0
 45 55  1  0
 46 49  1  0
 47 51  1  0
 47 46  1  0
 48 47  2  0
 51 50  1  0
 53 54  1  0
 53 51  1  0
 53 52  1  0
 55 58  1  1
 55 56  1  0
 57 55  1  0
 60 59  1  0
 61 66  1  0
 62 63  1  0
 62 61  1  0
 64 63  1  0
 64 71  1  0
 64 65  1  0
 66 60  1  0
 66 65  1  0
 67 60  2  0
 68 69  2  0
 69 88  1  0
 70 69  1  0
 70 73  1  0
 71 72  1  0
 71 68  1  0
 72 70  2  0
 73 74  1  0
 74 75  2  0
 76 79  1  0
 76 75  1  0
 77 76  2  0
 78 77  1  0
 78 73  2  0
 79 80  1  0
 80 81  1  0
 81 82  2  0
 83 82  1  0
 83 87  1  0
 84 83  2  0
 85 80  2  0
 85 84  1  0
 86 85  1  0
 88 89  1  0
 89 92  1  0
 89 91  1  0
 90 88  2  0
 93 94  1  0
 93 68  1  0
 95 93  1  0
M  ISO  4  17 101  18 101  59 100  60 100
M  END
>  <TORSDO>  (42) 
F 21

>  <SCORE>  (42) 
-13.403

>  <name>  (42) 
42

>  <ligand_id>  (42) 
42

>  <original_smiles>  (42) 
[H]c1c([H])c([H])c2c(c1[H])C([H])([H])C([H])([H])C([H])([H])C2([H])N([H])C(=O)C1([H])N(C(=O)C([H])(N([H])C(=O)C([H])(N([H])C([H])([H])[H])C([H])([H])[H])C(C([H])([H])[H])(C([H])([H])[H])C([H])([H])[H])C([H])([H])c2c([H])c(OC([H])([H])C([H])([H])C([H])(C3([H])C([H])([H])c4c(C([H])([H])[H])c([H])c(OC(=O)N5C([H])([H])C([H])([H])C([H])([H])C([H])(n6nc(-c7c([H])c([H])c(Oc8c([H])c([H])c(F)c([H])c8F)c([H])c7[H])c(C(=O)N([H])[H])c6N([H])[H])C5([H])[H])c(C([H])([H])[H])c4C3([H])[H])C3([H])C([H])([H])C3([H])[H])c([H])c([H])c2C1([H])[H]

>  <smiles>  (42) 
[H]c1c([H])c([H])c2c(c1[H])C([H])([H])C([H])([H])C([H])([H])C2([H])N([H])C(=O)C1([H])N(C(=O)C([H])(N([H])C(=O)C([H])(N([H])C([H])([H])[H])C([H])([H])[H])C(C([H])([H])[H])(C([H])([H])[H])C([H])([H])[H])C([H])([H])c2c([H])c(OC([H])([H])C([H])([H])C([H])(C3([H])C([H])([H])c4c(C([H])([H])[H])c([H])c(OC(=O)N5C([H])([H])C([H])([H])C([H])([H])C([H])(n6nc(-c7c([H])c([H])c(Oc8c([H])c([H])c(F)c([H])c8F)c([H])c7[H])c(C(=O)N([H])[H])c6N([H])[H])C5([H])[H])c(C([H])([H])[H])c4C3([H])[H])C3([H])C([H])([H])C3([H])[H])c([H])c([H])c2C1([H])[H]

$$$$
43:0:0
     RDKit          3D

 97105  0  0  1  0  0  0  0  0999 V2000
  -31.4810  -22.2010   19.0600 C   0  0  0  0  0  1  0  0  0  0  0  0
  -29.9480  -22.2650   19.1870 C   0  0  0  0  0  3  0  0  0  0  0  0
  -27.5800  -19.3380   19.6270 C   0  0  0  0  0  2  0  0  0  0  0  0
  -27.7930  -20.8040   19.3280 C   0  0  0  0  0  3  0  0  0  0  0  0
  -28.8350  -18.9150   20.4200 C   0  0  0  0  0  3  0  0  0  0  0  0
  -29.3120  -20.8440   19.1450 C   0  0  0  0  0  3  0  0  0  0  0  0
  -26.9940  -21.2980   18.1090 C   0  0  0  0  0  1  0  0  0  0  0  0
  -29.8150  -19.9280   20.1270 O   0  0  0  0  0  0  0  0  0  0  0  0
  -29.2850  -17.4560   20.0830 C   0  0  0  0  0  3  0  0  0  0  0  0
  -28.1200  -16.6410   20.0630 O   0  0  0  0  0  0  0  0  0  0  0  0
  -27.4720  -17.1200   19.5600 H   0  0  0  0  0  0  0  0  0  0  0  0
  -30.3080  -16.8060   21.0580 C   0  0  0  0  0  2  0  0  0  0  0  0
  -30.7790  -14.3940   20.4530 C   0  0  0  0  0  0  0  0  0  0  0  0
  -30.4910  -12.2000   19.3490 C   0  0  0  0  0  2  0  0  0  0  0  0
  -29.5640  -12.3740   18.1280 C   0  0  0  0  0  2  0  0  0  0  0  0
  -28.0850  -12.2480   18.5410 C   0  0  0  0  0  2  0  0  0  0  0  0
  -27.7360  -13.1300   19.7700 C   0  0  0  0  0  3  0  0  0  0  0  0
  -28.7740  -12.9290   20.8990 C   0  0  0  0  0  2  0  0  0  0  0  0
  -30.1130  -13.2120   20.3470 N   0  0  0  0  0  0  0  0  0  0  0  0
  -31.8590  -14.6200   19.9020 O   0  0  0  0  0  0  0  0  0  0  0  0
  -30.1160  -15.3470   21.1170 N   0  0  0  0  0  0  0  0  0  0  0  0
  -29.2170  -15.0720   21.4810 H   0  0  0  0  0  0  0  0  0  0  0  0
  -25.3470  -13.7870   20.4680 C   0  0  0  0  0  0  0  0  0  0  0  0
  -24.2600  -13.0380   20.8330 C   0  0  0  0  0  0  0  0  0  0  0  0
  -24.6950  -11.6780   20.8060 C   0  0  0  0  0  0  0  0  0  0  0  0
  -26.3750  -12.8860   20.2430 N   0  0  0  0  0  0  0  0  0  0  0  0
  -25.9850  -11.6110   20.4990 N   0  0  0  0  0  0  0  0  0  0  0  0
  -23.9440  -10.4310   21.0000 C   0  0  0  0  0  0  0  0  0  0  0  0
  -24.3420   -9.4730   21.9580 C   0  0  0  0  0  3  0  0  0  0  0  0
  -23.5950   -8.2870   22.1370 C   0  0  0  0  0  3  0  0  0  0  0  0
  -22.4370   -8.0550   21.3580 C   0  0  0  0  0  0  0  0  0  0  0  0
  -22.0580   -9.0030   20.3910 C   0  0  0  0  0  3  0  0  0  0  0  0
  -22.8040  -10.1790   20.2090 C   0  0  0  0  0  3  0  0  0  0  0  0
  -21.6620   -6.9240   21.4460 O   0  0  0  0  0  0  0  0  0  0  0  0
  -21.5670   -6.2070   22.6120 C   0  0  0  0  0  0  0  0  0  0  0  0
  -21.0810   -6.7850   23.8060 C   0  0  0  0  0  3  0  0  0  0  0  0
  -20.9320   -5.9930   24.9630 C   0  0  0  0  0  3  0  0  0  0  0  0
  -21.2580   -4.6240   24.9250 C   0  0  0  0  0  0  0  0  0  0  0  0
  -21.7350   -4.0440   23.7360 C   0  0  0  0  0  3  0  0  0  0  0  0
  -21.8870   -4.8340   22.5830 C   0  0  0  0  0  0  0  0  0  0  0  0
  -22.3280   -4.2660   21.4340 F   0  0  0  0  0  0  0  0  0  0  0  0
  -21.1080   -3.8620   26.0330 F   0  0  0  0  0  0  0  0  0  0  0  0
  -22.8740  -13.5440   21.1070 C   0  0  0  0  0  0  0  0  0  0  0  0
  -22.1310  -12.8610   21.9730 N   0  0  0  0  0  0  0  0  0  0  0  0
  -22.4570  -14.5780   20.5890 O   0  0  0  0  0  0  0  0  0  0  0  0
  -22.4750  -12.0190   22.4120 H   0  0  0  0  0  0  0  0  0  0  0  0
  -21.1990  -13.1810   22.1930 H   0  0  0  0  0  0  0  0  0  0  0  0
  -25.5470  -15.1520   20.3010 N   0  0  0  0  0  0  0  0  0  0  0  0
  -24.8380  -15.8380   20.5300 H   0  0  0  0  0  0  0  0  0  0  0  0
  -26.4900  -15.5350   20.2820 H   0  0  0  0  0  0  0  0  0  0  0  0
  -29.5300  -23.0680   20.3740 N   0  0  0  0  0  4  0  0  0  0  0  0
  -30.0500  -22.7490   21.1780 H   0  0  0  0  0  0  0  0  0  0  0  0
  -28.5610  -22.8540   20.5680 H   0  0  0  0  0  0  0  0  0  0  0  0
  -30.4990  -25.1260   21.3970 C   0  0  0  0  0  1  0  0  0  0  0  0
  -29.6490  -24.5550   20.2460 C   0  0  0  0  0  3  0  0  0  0  0  0
  -28.2540  -25.2270   20.1670 C   0  0  0  0  0  2  0  0  0  0  0  0
  -28.3570  -26.6510   20.0120 O   0  0  0  0  0  0  0  0  0  0  0  0
  -24.5450  -31.7790   23.1650 C   0  0  0  0  0  0  0  0  0  0  0  0
  -27.1760  -27.3680   20.0240 C   0  0  0  0  0  0  0  0  0  0  0  0
  -23.3350  -30.4080   21.4990 C   0  0  0  0  0  3  0  0  0  0  0  0
  -24.7850  -28.8840   20.0560 C   0  0  0  0  0  0  0  0  0  0  0  0
  -25.8620  -30.7600   21.3080 C   0  0  0  0  0  2  0  0  0  0  0  0
  -25.9430  -29.3940   20.6530 C   0  0  0  0  0  0  0  0  0  0  0  0
  -27.1420  -28.6450   20.6330 C   0  0  0  0  0  3  0  0  0  0  0  0
  -25.9970  -26.8750   19.4170 C   0  0  0  0  0  3  0  0  0  0  0  0
  -24.8070  -27.6250   19.4350 C   0  0  0  0  0  3  0  0  0  0  0  0
  -23.5440  -29.7480   20.1120 C   0  0  0  0  0  2  0  0  0  0  0  0
  -24.5990  -30.9960   22.0490 N   0  0  0  0  0  0  0  0  0  0  0  0
  -23.4650  -32.0470   23.7080 O   0  0  0  0  0  0  0  0  0  0  0  0
  -22.6780  -29.3750   22.4420 C   0  0  0  0  0  0  0  0  0  0  0  0
  -21.3470  -29.2240   22.3290 N   0  0  0  0  0  0  0  0  0  0  0  0
  -23.3600  -28.7140   23.2300 O   0  0  0  0  0  0  0  0  0  0  0  0
  -20.8610  -29.8100   21.6650 H   0  0  0  0  0  0  0  0  0  0  0  0
  -17.9510  -28.1130   22.8660 C   0  0  0  0  0  0  0  0  0  0  0  0
  -20.5220  -28.2840   23.0850 C   0  0  0  0  0  3  0  0  0  0  0  0
  -20.5660  -26.8710   22.4600 C   0  0  0  0  0  2  0  0  0  0  0  0
  -19.4340  -26.6180   21.4600 C   0  0  0  0  0  2  0  0  0  0  0  0
  -18.0710  -26.7830   22.1400 C   0  0  0  0  0  2  0  0  0  0  0  0
  -19.1020  -28.8250   23.2950 C   0  0  0  0  0  0  0  0  0  0  0  0
  -18.9380  -30.0730   23.9350 C   0  0  0  0  0  3  0  0  0  0  0  0
  -17.6530  -30.6080   24.1480 C   0  0  0  0  0  3  0  0  0  0  0  0
  -16.5160  -29.8920   23.7330 C   0  0  0  0  0  3  0  0  0  0  0  0
  -16.6660  -28.6460   23.0990 C   0  0  0  0  0  3  0  0  0  0  0  0
  -25.8330  -32.3920   23.7980 C   0  0  0  0  0  3  0  0  0  0  0  0
  -25.5350  -33.7890   24.1380 N   0  0  0  0  0  0  0  0  0  0  0  0
  -25.8950  -34.8440   23.3950 C   0  0  0  0  0  0  0  0  0  0  0  0
  -26.5830  -34.7410   22.3750 O   0  0  0  0  0  0  0  0  0  0  0  0
  -24.9230  -33.9440   24.9270 H   0  0  0  0  0  0  0  0  0  0  0  0
  -24.2050  -36.6680   23.0130 C   0  0  0  0  0  1  0  0  0  0  0  0
  -25.4170  -36.2340   23.8550 C   0  0  0  0  0  3  0  0  0  0  0  0
  -27.5390  -37.0750   24.7600 C   0  0  0  0  0  1  0  0  0  0  0  0
  -26.4690  -37.2720   23.7850 N   0  0  0  0  0  0  0  0  0  0  0  0
  -26.0750  -38.1970   23.9300 H   0  0  0  0  0  0  0  0  0  0  0  0
  -26.3410  -31.6000   25.0660 C   0  0  1  0  0  0  0  0  0  0  0  0
  -25.2440  -31.3570   26.1280 C   0  0  0  0  0  1  0  0  0  0  0  0
  -26.9140  -30.2240   24.6530 C   0  0  0  0  0  1  0  0  0  0  0  0
  -27.4980  -32.3770   25.7380 C   0  0  0  0  0  1  0  0  0  0  0  0
  2  1  1  0
  2 51  1  0
  3  5  1  0
  4  7  1  0
  4  3  1  0
  5  9  1  0
  6  2  1  0
  6  4  1  0
  6  8  1  0
  8  5  1  0
  9 12  1  0
 10  9  1  0
 11 10  1  0
 12 21  1  0
 13 21  1  0
 14 19  1  0
 15 16  1  0
 15 14  1  0
 17 16  1  0
 17 26  1  0
 17 18  1  0
 19 13  1  0
 19 18  1  0
 20 13  2  0
 21 22  1  0
 23 24  2  0
 24 43  1  0
 25 24  1  0
 25 28  1  0
 26 23  1  0
 26 27  1  0
 27 25  2  0
 28 29  1  0
 29 30  2  0
 31 34  1  0
 31 30  1  0
 32 31  2  0
 33 32  1  0
 33 28  2  0
 34 35  1  0
 35 36  1  0
 36 37  2  0
 38 37  1  0
 38 42  1  0
 39 38  2  0
 40 35  2  0
 40 39  1  0
 41 40  1  0
 43 44  1  0
 44 47  1  0
 44 46  1  0
 45 43  2  0
 48 23  1  0
 48 49  1  0
 50 48  1  0
 51 53  1  0
 51 52  1  0
 55 51  1  0
 55 54  1  0
 56 55  1  0
 57 59  1  0
 57 56  1  0
 58 69  2  0
 59 64  1  0
 60 68  1  0
 60 70  1  0
 61 67  1  0
 61 63  1  0
 62 68  1  0
 63 62  1  0
 64 63  2  0
 65 66  1  0
 65 59  2  0
 66 61  2  0
 67 60  1  0
 68 58  1  0
 70 72  2  0
 71 70  1  0
 73 71  1  0
 74 83  2  0
 74 79  1  0
 75 71  1  0
 75 79  1  0
 76 75  1  0
 77 78  1  0
 77 76  1  0
 78 74  1  0
 79 80  2  0
 80 81  1  0
 82 81  2  0
 83 82  1  0
 84 58  1  0
 84 85  1  0
 84 94  1  0
 85 88  1  0
 86 90  1  0
 86 85  1  0
 87 86  2  0
 90 89  1  0
 92 90  1  0
 92 93  1  0
 92 91  1  0
 94 97  1  1
 94 95  1  0
 96 94  1  0
M  ISO  4  13 100  21 100  56 101  57 101
M  END
>  <TORSDO>  (43) 
F 23

>  <SCORE>  (43) 
-13.140

>  <name>  (43) 
43

>  <ligand_id>  (43) 
43

>  <original_smiles>  (43) 
[H]OC([H])(C([H])([H])N([H])C(=O)N1C([H])([H])C([H])([H])C([H])([H])C([H])(n2nc(-c3c([H])c([H])c(Oc4c([H])c([H])c(F)c([H])c4F)c([H])c3[H])c(C(=O)N([H])[H])c2N([H])[H])C1([H])[H])C1([H])OC([H])(C([H])(C([H])([H])[H])[N+]([H])([H])C([H])(C([H])([H])[H])C([H])([H])Oc2c([H])c([H])c3c(c2[H])C([H])([H])N(C(=O)C([H])(N([H])C(=O)C([H])(N([H])C([H])([H])[H])C([H])([H])[H])C(C([H])([H])[H])(C([H])([H])[H])C([H])([H])[H])C([H])(C(=O)N([H])C2([H])c4c([H])c([H])c([H])c([H])c4C([H])([H])C([H])([H])C2([H])[H])C3([H])[H])C([H])(C([H])([H])[H])C1([H])[H]

>  <smiles>  (43) 
[H]OC([H])(C([H])([H])N([H])C(=O)N1C([H])([H])C([H])([H])C([H])([H])C([H])(n2nc(-c3c([H])c([H])c(Oc4c([H])c([H])c(F)c([H])c4F)c([H])c3[H])c(C(=O)N([H])[H])c2N([H])[H])C1([H])[H])C1([H])OC([H])(C([H])(C([H])([H])[H])[N+]([H])([H])C([H])(C([H])([H])[H])C([H])([H])Oc2c([H])c([H])c3c(c2[H])C([H])([H])N(C(=O)C([H])(N([H])C(=O)C([H])(N([H])C([H])([H])[H])C([H])([H])[H])C(C([H])([H])[H])(C([H])([H])[H])C([H])([H])[H])C([H])(C(=O)N([H])C2([H])c4c([H])c([H])c([H])c([H])c4C([H])([H])C([H])([H])C2([H])[H])C3([H])[H])C([H])(C([H])([H])[H])C1([H])[H]

$$$$
44:0:0
     RDKit          3D

 98108  0  0  1  0  0  0  0  0999 V2000
  -28.1280  -22.6290   20.9170 C   0  0  0  0  0  3  0  0  0  0  0  0
  -28.6620  -21.3090   20.8850 C   0  0  0  0  0  3  0  0  0  0  0  0
  -29.7670  -23.3620   19.3290 C   0  0  0  0  0  3  0  0  0  0  0  0
  -28.6440  -23.6890   20.1220 C   0  0  0  0  0  0  0  0  0  0  0  0
  -30.3260  -22.0410   19.2920 C   0  0  0  0  0  0  0  0  0  0  0  0
  -29.7610  -20.9650   20.0600 C   0  0  0  0  0  0  0  0  0  0  0  0
  -30.2980  -19.6340   19.9990 N   0  0  0  0  0  0  0  0  0  0  0  0
  -31.1700  -19.5570   19.4880 H   0  0  0  0  0  0  0  0  0  0  0  0
  -30.7130  -14.6780   19.9780 C   0  0  0  0  0  0  0  0  0  0  0  0
  -30.4030  -12.4430   18.9300 C   0  0  0  0  0  2  0  0  0  0  0  0
  -29.3860  -12.5510   17.7720 C   0  0  0  0  0  2  0  0  0  0  0  0
  -27.9480  -12.3740   18.2950 C   0  0  0  0  0  2  0  0  0  0  0  0
  -27.6600  -13.2320   19.5560 C   0  0  0  0  0  3  0  0  0  0  0  0
  -28.7930  -13.1070   20.6000 C   0  0  0  0  0  2  0  0  0  0  0  0
  -30.0470  -13.4760   19.9280 N   0  0  0  0  0  0  0  0  0  0  0  0
  -31.8480  -14.7650   19.4980 O   0  0  0  0  0  0  0  0  0  0  0  0
  -29.5400  -17.7890   21.5870 C   0  0  0  0  0  2  0  0  0  0  0  0
  -29.3690  -16.2520   21.4450 C   0  0  0  0  0  2  0  0  0  0  0  0
  -30.2630  -17.1150   19.4380 C   0  0  0  0  0  2  0  0  0  0  0  0
  -29.5820  -18.3330   20.1600 C   0  0  0  0  0  3  0  0  0  0  0  0
  -29.9890  -15.8420   20.1770 N   0  0  0  0  0  0  0  0  0  0  0  0
  -25.3200  -13.7940   20.4460 C   0  0  0  0  0  0  0  0  0  0  0  0
  -24.2850  -13.0050   20.8670 C   0  0  0  0  0  0  0  0  0  0  0  0
  -24.7520  -11.6580   20.7790 C   0  0  0  0  0  0  0  0  0  0  0  0
  -26.3520  -12.9270   20.1260 N   0  0  0  0  0  0  0  0  0  0  0  0
  -26.0200  -11.6360   20.3860 N   0  0  0  0  0  0  0  0  0  0  0  0
  -24.0470  -10.3870   20.9900 C   0  0  0  0  0  0  0  0  0  0  0  0
  -24.5040   -9.4350   21.9270 C   0  0  0  0  0  3  0  0  0  0  0  0
  -23.7990   -8.2300   22.1260 C   0  0  0  0  0  3  0  0  0  0  0  0
  -22.6210   -7.9660   21.3860 C   0  0  0  0  0  0  0  0  0  0  0  0
  -22.1830   -8.9070   20.4370 C   0  0  0  0  0  3  0  0  0  0  0  0
  -22.8900  -10.1050   20.2370 C   0  0  0  0  0  3  0  0  0  0  0  0
  -21.8850   -6.8110   21.4950 O   0  0  0  0  0  0  0  0  0  0  0  0
  -21.8010   -6.1190   22.6770 C   0  0  0  0  0  0  0  0  0  0  0  0
  -21.3140   -6.7200   23.8580 C   0  0  0  0  0  3  0  0  0  0  0  0
  -21.1780   -5.9530   25.0330 C   0  0  0  0  0  3  0  0  0  0  0  0
  -21.5190   -4.5860   25.0260 C   0  0  0  0  0  0  0  0  0  0  0  0
  -21.9970   -3.9860   23.8490 C   0  0  0  0  0  3  0  0  0  0  0  0
  -22.1350   -4.7500   22.6770 C   0  0  0  0  0  0  0  0  0  0  0  0
  -22.5750   -4.1600   21.5400 F   0  0  0  0  0  0  0  0  0  0  0  0
  -21.3810   -3.8480   26.1520 F   0  0  0  0  0  0  0  0  0  0  0  0
  -22.9080  -13.4660   21.2430 C   0  0  0  0  0  0  0  0  0  0  0  0
  -22.2510  -12.7590   22.1560 N   0  0  0  0  0  0  0  0  0  0  0  0
  -22.4230  -14.4900   20.7630 O   0  0  0  0  0  0  0  0  0  0  0  0
  -22.6580  -11.9300   22.5650 H   0  0  0  0  0  0  0  0  0  0  0  0
  -21.3310  -13.0520   22.4520 H   0  0  0  0  0  0  0  0  0  0  0  0
  -25.4650  -15.1700   20.2850 N   0  0  0  0  0  0  0  0  0  0  0  0
  -24.7070  -15.8220   20.4610 H   0  0  0  0  0  0  0  0  0  0  0  0
  -26.2940  -15.6190   19.9180 H   0  0  0  0  0  0  0  0  0  0  0  0
  -27.7770  -24.9810   19.9010 C   0  0  0  0  0  2  0  0  0  0  0  0
  -28.1800  -26.3890   20.1730 O   0  0  0  0  0  0  0  0  0  0  0  0
  -24.6020  -31.8710   23.2650 C   0  0  0  0  0  0  0  0  0  0  0  0
  -27.1140  -27.3170   20.1060 C   0  0  0  0  0  0  0  0  0  0  0  0
  -23.3630  -30.5090   21.6280 C   0  0  0  0  0  3  0  0  0  0  0  0
  -24.7770  -28.9810   20.1520 C   0  0  0  0  0  0  0  0  0  0  0  0
  -25.9070  -30.7990   21.4150 C   0  0  0  0  0  2  0  0  0  0  0  0
  -25.9610  -29.4310   20.7470 C   0  0  0  0  0  0  0  0  0  0  0  0
  -27.1340  -28.6100   20.7210 C   0  0  0  0  0  3  0  0  0  0  0  0
  -25.9060  -26.9560   19.4530 C   0  0  0  0  0  3  0  0  0  0  0  0
  -24.7520  -27.7480   19.4960 C   0  0  0  0  0  3  0  0  0  0  0  0
  -23.5500  -29.8630   20.2320 C   0  0  0  0  0  2  0  0  0  0  0  0
  -24.6440  -31.0750   22.1590 N   0  0  0  0  0  0  0  0  0  0  0  0
  -23.5280  -32.1530   23.8160 O   0  0  0  0  0  0  0  0  0  0  0  0
  -22.7040  -29.4790   22.5790 C   0  0  0  0  0  0  0  0  0  0  0  0
  -21.3780  -29.3000   22.4530 N   0  0  0  0  0  0  0  0  0  0  0  0
  -23.3860  -28.8480   23.3900 O   0  0  0  0  0  0  0  0  0  0  0  0
  -20.8860  -29.8610   21.7710 H   0  0  0  0  0  0  0  0  0  0  0  0
  -18.0060  -28.0840   22.9430 C   0  0  0  0  0  0  0  0  0  0  0  0
  -20.5620  -28.3570   23.2210 C   0  0  0  0  0  3  0  0  0  0  0  0
  -20.6740  -26.9250   22.6490 C   0  0  0  0  0  2  0  0  0  0  0  0
  -19.5770  -26.5950   21.6310 C   0  0  0  0  0  2  0  0  0  0  0  0
  -18.1920  -26.7340   22.2700 C   0  0  0  0  0  2  0  0  0  0  0  0
  -19.1190  -28.8520   23.3760 C   0  0  0  0  0  0  0  0  0  0  0  0
  -18.8910  -30.1140   23.9650 C   0  0  0  0  0  3  0  0  0  0  0  0
  -17.5820  -30.6080   24.1250 C   0  0  0  0  0  3  0  0  0  0  0  0
  -16.4840  -29.8370   23.7080 C   0  0  0  0  0  3  0  0  0  0  0  0
  -16.6960  -28.5760   23.1230 C   0  0  0  0  0  3  0  0  0  0  0  0
  -25.8980  -32.4850   23.8750 C   0  0  0  0  0  3  0  0  0  0  0  0
  -25.6070  -33.8840   24.2200 N   0  0  0  0  0  0  0  0  0  0  0  0
  -25.9200  -34.9380   23.4550 C   0  0  0  0  0  0  0  0  0  0  0  0
  -26.5570  -34.8350   22.4030 O   0  0  0  0  0  0  0  0  0  0  0  0
  -25.0390  -34.0380   25.0390 H   0  0  0  0  0  0  0  0  0  0  0  0
  -24.1830  -36.7360   23.1730 C   0  0  0  0  0  1  0  0  0  0  0  0
  -25.4550  -36.3270   23.9330 C   0  0  0  0  0  3  0  0  0  0  0  0
  -27.6240  -37.2060   24.6790 C   0  0  0  0  0  1  0  0  0  0  0  0
  -26.4850  -37.3770   23.7790 N   0  0  0  0  0  0  0  0  0  0  0  0
  -26.0870  -38.2980   23.9460 H   0  0  0  0  0  0  0  0  0  0  0  0
  -26.4220  -31.6960   25.1380 C   0  0  1  0  0  0  0  0  0  0  0  0
  -25.3390  -31.4590   26.2160 C   0  0  0  0  0  1  0  0  0  0  0  0
  -26.9880  -30.3160   24.7290 C   0  0  0  0  0  1  0  0  0  0  0  0
  -27.5870  -32.4740   25.7930 C   0  0  0  0  0  1  0  0  0  0  0  0
  -31.5100  -21.8140   18.3400 C   0  0  0  0  0  3  0  0  0  0  0  0
  -33.4920  -22.3010   20.0040 C   0  0  0  0  0  2  0  0  0  0  0  0
  -34.1220  -22.1800   18.6390 C   0  0  0  0  0  2  0  0  0  0  0  0
  -32.6970  -22.6700   18.7700 C   0  0  0  0  0  3  0  0  0  0  0  0
  -29.8250  -21.3040   16.4580 C   0  0  0  0  0  1  0  0  0  0  0  0
  -32.2560  -21.6140   15.8860 C   0  0  0  0  0  1  0  0  0  0  0  0
  -31.1290  -22.0310   16.8470 C   0  0  0  0  0  3  0  0  0  0  0  0
  2  1  1  0
  3  4  1  0
  4  1  2  0
  5  3  2  0
  5  6  1  0
  6  2  2  0
  7  6  1  0
  8  7  1  0
  9 21  1  0
 10 15  1  0
 11 12  1  0
 11 10  1  0
 13 12  1  0
 13 25  1  0
 13 14  1  0
 15  9  1  0
 15 14  1  0
 16  9  2  0
 18 17  1  0
 19 20  1  0
 19 21  1  0
 20  7  1  0
 20 17  1  0
 21 18  1  0
 22 23  2  0
 23 42  1  0
 24 23  1  0
 24 27  1  0
 25 26  1  0
 25 22  1  0
 26 24  2  0
 27 28  1  0
 28 29  2  0
 30 33  1  0
 30 29  1  0
 31 30  2  0
 32 31  1  0
 32 27  2  0
 33 34  1  0
 34 35  1  0
 35 36  2  0
 37 36  1  0
 37 41  1  0
 38 37  2  0
 39 34  2  0
 39 38  1  0
 40 39  1  0
 42 43  1  0
 43 46  1  0
 43 45  1  0
 44 42  2  0
 47 22  1  0
 47 48  1  0
 49 47  1  0
 50  4  1  0
 50 51  1  0
 52 63  2  0
 53 51  1  0
 53 58  1  0
 54 62  1  0
 54 64  1  0
 55 61  1  0
 55 57  1  0
 56 62  1  0
 57 56  1  0
 58 57  2  0
 59 60  1  0
 59 53  2  0
 60 55  2  0
 61 54  1  0
 62 52  1  0
 64 66  2  0
 65 64  1  0
 67 65  1  0
 68 77  2  0
 68 73  1  0
 69 65  1  0
 69 73  1  0
 70 69  1  0
 71 72  1  0
 71 70  1  0
 72 68  1  0
 73 74  2  0
 74 75  1  0
 76 75  2  0
 77 76  1  0
 78 52  1  0
 78 79  1  0
 78 88  1  0
 79 82  1  0
 80 84  1  0
 80 79  1  0
 81 80  2  0
 84 83  1  0
 86 84  1  0
 86 87  1  0
 86 85  1  0
 88 91  1  1
 88 89  1  0
 90 88  1  0
 92 98  1  0
 92 95  1  0
 92  5  1  0
 94 95  1  0
 94 93  1  0
 95 93  1  0
 96 98  1  0
 97 98  1  0
M  ISO  4   9 100  21 100  50 101  51 101
M  END
>  <TORSDO>  (44) 
F 21

>  <SCORE>  (44) 
-13.131

>  <name>  (44) 
44

>  <ligand_id>  (44) 
44

>  <original_smiles>  (44) 
[H]c1c([H])c([H])c2c(c1[H])C([H])([H])C([H])([H])C([H])([H])C2([H])N([H])C(=O)C1([H])N(C(=O)C([H])(N([H])C(=O)C([H])(N([H])C([H])([H])[H])C([H])([H])[H])C(C([H])([H])[H])(C([H])([H])[H])C([H])([H])[H])C([H])([H])c2c([H])c(OC([H])([H])c3c([H])c([H])c(N([H])C4([H])C([H])([H])N(C(=O)N5C([H])([H])C([H])([H])C([H])([H])C([H])(n6nc(-c7c([H])c([H])c(Oc8c([H])c([H])c(F)c([H])c8F)c([H])c7[H])c(C(=O)N([H])[H])c6N([H])[H])C5([H])[H])C([H])([H])C4([H])[H])c(C([H])(C([H])(C([H])([H])[H])C([H])([H])[H])C4([H])C([H])([H])C4([H])[H])c3[H])c([H])c([H])c2C1([H])[H]

>  <smiles>  (44) 
[H]c1c([H])c([H])c2c(c1[H])C([H])([H])C([H])([H])C([H])([H])C2([H])N([H])C(=O)C1([H])N(C(=O)C([H])(N([H])C(=O)C([H])(N([H])C([H])([H])[H])C([H])([H])[H])C(C([H])([H])[H])(C([H])([H])[H])C([H])([H])[H])C([H])([H])c2c([H])c(OC([H])([H])c3c([H])c([H])c(N([H])C4([H])C([H])([H])N(C(=O)N5C([H])([H])C([H])([H])C([H])([H])C([H])(n6nc(-c7c([H])c([H])c(Oc8c([H])c([H])c(F)c([H])c8F)c([H])c7[H])c(C(=O)N([H])[H])c6N([H])[H])C5([H])[H])C([H])([H])C4([H])[H])c(C([H])(C([H])(C([H])([H])[H])C([H])([H])[H])C4([H])C([H])([H])C4([H])[H])c3[H])c([H])c([H])c2C1([H])[H]

$$$$
45:0:0
     RDKit          3D

 95103  0  0  1  0  0  0  0  0999 V2000
  -27.8560  -20.8900   19.9770 C   0  0  0  0  0  3  0  0  0  0  0  0
  -27.9250  -19.5830   19.4580 C   0  0  0  0  0  3  0  0  0  0  0  0
  -29.7690  -20.4160   21.3870 C   0  0  0  0  0  3  0  0  0  0  0  0
  -29.8700  -19.1040   20.8440 C   0  0  0  0  0  0  0  0  0  0  0  0
  -28.7660  -21.3320   20.9690 C   0  0  0  0  0  0  0  0  0  0  0  0
  -28.9300  -18.6840   19.8770 C   0  0  0  0  0  0  0  0  0  0  0  0
  -31.0470  -18.1890   21.2160 C   0  0  0  0  0  2  0  0  0  0  0  0
  -30.7750  -17.0870   22.2770 C   0  0  0  0  0  2  0  0  0  0  0  0
  -31.0500  -14.8700   21.0750 C   0  0  0  0  0  0  0  0  0  0  0  0
  -30.8420  -12.8300   19.6910 C   0  0  0  0  0  2  0  0  0  0  0  0
  -29.9750  -13.1330   18.4530 C   0  0  0  0  0  2  0  0  0  0  0  0
  -28.4760  -12.9690   18.7760 C   0  0  0  0  0  2  0  0  0  0  0  0
  -28.0620  -13.6920   20.0860 C   0  0  0  0  0  3  0  0  0  0  0  0
  -29.0400  -13.3560   21.2300 C   0  0  0  0  0  2  0  0  0  0  0  0
  -30.3940  -13.7160   20.7770 N   0  0  0  0  0  0  0  0  0  0  0  0
  -32.1950  -15.1130   20.6830 O   0  0  0  0  0  0  0  0  0  0  0  0
  -30.3260  -15.7840   21.7540 N   0  0  0  0  0  0  0  0  0  0  0  0
  -29.3810  -15.5150   21.9790 H   0  0  0  0  0  0  0  0  0  0  0  0
  -25.5990  -14.2570   20.5730 C   0  0  0  0  0  0  0  0  0  0  0  0
  -24.5200  -13.4660   20.8600 C   0  0  0  0  0  0  0  0  0  0  0  0
  -25.0110  -12.1250   20.8940 C   0  0  0  0  0  0  0  0  0  0  0  0
  -26.6780  -13.3960   20.4490 N   0  0  0  0  0  0  0  0  0  0  0  0
  -26.3230  -12.1100   20.6980 N   0  0  0  0  0  0  0  0  0  0  0  0
  -24.2990  -10.8490   21.0460 C   0  0  0  0  0  0  0  0  0  0  0  0
  -24.6540   -9.9210   22.0490 C   0  0  0  0  0  3  0  0  0  0  0  0
  -23.9430   -8.7090   22.1860 C   0  0  0  0  0  3  0  0  0  0  0  0
  -22.8650   -8.4170   21.3180 C   0  0  0  0  0  0  0  0  0  0  0  0
  -22.5310   -9.3340   20.3060 C   0  0  0  0  0  3  0  0  0  0  0  0
  -23.2420  -10.5370   20.1680 C   0  0  0  0  0  3  0  0  0  0  0  0
  -22.1350   -7.2540   21.3610 O   0  0  0  0  0  0  0  0  0  0  0  0
  -21.9030   -6.5910   22.5390 C   0  0  0  0  0  0  0  0  0  0  0  0
  -21.2750   -7.2200   23.6360 C   0  0  0  0  0  3  0  0  0  0  0  0
  -20.9940   -6.4820   24.8040 C   0  0  0  0  0  3  0  0  0  0  0  0
  -21.3310   -5.1180   24.8740 C   0  0  0  0  0  0  0  0  0  0  0  0
  -21.9510   -4.4870   23.7800 C   0  0  0  0  0  3  0  0  0  0  0  0
  -22.2330   -5.2230   22.6150 C   0  0  0  0  0  0  0  0  0  0  0  0
  -22.8120   -4.6070   21.5560 F   0  0  0  0  0  0  0  0  0  0  0  0
  -21.0540   -4.4060   25.9910 F   0  0  0  0  0  0  0  0  0  0  0  0
  -23.0930  -13.9140   21.0050 C   0  0  0  0  0  0  0  0  0  0  0  0
  -22.3180  -13.2320   21.8410 N   0  0  0  0  0  0  0  0  0  0  0  0
  -22.6710  -14.9050   20.4110 O   0  0  0  0  0  0  0  0  0  0  0  0
  -22.6700  -12.4310   22.3450 H   0  0  0  0  0  0  0  0  0  0  0  0
  -21.3590  -13.5160   21.9810 H   0  0  0  0  0  0  0  0  0  0  0  0
  -25.7490  -15.6300   20.3940 N   0  0  0  0  0  0  0  0  0  0  0  0
  -24.9630  -16.2680   20.4480 H   0  0  0  0  0  0  0  0  0  0  0  0
  -26.6270  -16.0970   20.1960 H   0  0  0  0  0  0  0  0  0  0  0  0
  -28.7310  -22.6000   21.5500 O   0  0  0  0  0  0  0  0  0  0  0  0
  -27.6930  -23.5290   21.1720 C   0  0  0  0  0  2  0  0  0  0  0  0
  -27.7960  -24.9180   21.8570 C   0  0  0  0  0  2  0  0  0  0  0  0
  -28.7260  -25.9950   21.2360 C   0  0  0  0  0  2  0  0  0  0  0  0
  -28.2390  -26.6510   20.0580 O   0  0  0  0  0  0  0  0  0  0  0  0
  -24.5890  -31.9590   23.2290 C   0  0  0  0  0  0  0  0  0  0  0  0
  -27.1020  -27.4190   20.1740 C   0  0  0  0  0  0  0  0  0  0  0  0
  -23.3290  -30.5490   21.6350 C   0  0  0  0  0  3  0  0  0  0  0  0
  -24.7330  -28.9620   20.2100 C   0  0  0  0  0  0  0  0  0  0  0  0
  -25.8560  -30.8620   21.3820 C   0  0  0  0  0  2  0  0  0  0  0  0
  -25.9110  -29.4740   20.7730 C   0  0  0  0  0  0  0  0  0  0  0  0
  -27.1000  -28.7070   20.7610 C   0  0  0  0  0  3  0  0  0  0  0  0
  -25.9140  -26.9260   19.6000 C   0  0  0  0  0  3  0  0  0  0  0  0
  -24.7290  -27.6850   19.6250 C   0  0  0  0  0  3  0  0  0  0  0  0
  -23.5030  -29.8420   20.2640 C   0  0  0  0  0  2  0  0  0  0  0  0
  -24.6110  -31.1400   22.1390 N   0  0  0  0  0  0  0  0  0  0  0  0
  -23.5240  -32.2560   23.7860 O   0  0  0  0  0  0  0  0  0  0  0  0
  -22.6830  -29.5530   22.6240 C   0  0  0  0  0  0  0  0  0  0  0  0
  -21.3800  -29.2850   22.4380 N   0  0  0  0  0  0  0  0  0  0  0  0
  -23.3520  -29.0220   23.5150 O   0  0  0  0  0  0  0  0  0  0  0  0
  -20.9010  -29.7670   21.6910 H   0  0  0  0  0  0  0  0  0  0  0  0
  -18.0540  -27.9240   22.8300 C   0  0  0  0  0  0  0  0  0  0  0  0
  -20.5740  -28.3490   23.2210 C   0  0  0  0  0  3  0  0  0  0  0  0
  -20.7910  -26.8940   22.7440 C   0  0  0  0  0  2  0  0  0  0  0  0
  -19.7690  -26.4450   21.6960 C   0  0  0  0  0  2  0  0  0  0  0  0
  -18.3450  -26.5470   22.2540 C   0  0  0  0  0  2  0  0  0  0  0  0
  -19.1030  -28.7750   23.2700 C   0  0  0  0  0  0  0  0  0  0  0  0
  -18.7810  -30.0570   23.7650 C   0  0  0  0  0  3  0  0  0  0  0  0
  -17.4430  -30.4910   23.8250 C   0  0  0  0  0  3  0  0  0  0  0  0
  -16.4090  -29.6380   23.4030 C   0  0  0  0  0  3  0  0  0  0  0  0
  -16.7150  -28.3560   22.9120 C   0  0  0  0  0  3  0  0  0  0  0  0
  -25.8960  -32.5790   23.8120 C   0  0  0  0  0  3  0  0  0  0  0  0
  -26.4710  -31.7770   25.0440 C   0  0  1  0  0  0  0  0  0  0  0  0
  -25.4040  -31.4260   26.1070 C   0  0  0  0  0  1  0  0  0  0  0  0
  -27.1260  -30.4560   24.5770 C   0  0  0  0  0  1  0  0  0  0  0  0
  -27.5820  -32.6020   25.7350 C   0  0  0  0  0  1  0  0  0  0  0  0
  -25.5980  -33.9670   24.1900 N   0  0  0  0  0  0  0  0  0  0  0  0
  -25.9190  -35.0410   23.4560 C   0  0  0  0  0  0  0  0  0  0  0  0
  -26.5710  -34.9670   22.4110 O   0  0  0  0  0  0  0  0  0  0  0  0
  -25.0180  -34.0990   25.0050 H   0  0  0  0  0  0  0  0  0  0  0  0
  -24.1860  -36.8430   23.1860 C   0  0  0  0  0  1  0  0  0  0  0  0
  -25.4420  -36.4150   23.9620 C   0  0  0  0  0  3  0  0  0  0  0  0
  -27.5950  -37.2730   24.7740 C   0  0  0  0  0  1  0  0  0  0  0  0
  -26.4740  -37.4710   23.8580 N   0  0  0  0  0  0  0  0  0  0  0  0
  -26.0730  -38.3850   24.0410 H   0  0  0  0  0  0  0  0  0  0  0  0
  -28.9950  -17.3980   19.3920 O   0  0  0  0  0  0  0  0  0  0  0  0
  -29.5800  -17.2170   18.1050 C   0  0  0  0  0  2  0  0  0  0  0  0
  -31.6760  -17.7310   16.7460 C   0  0  0  0  0  1  0  0  0  0  0  0
  -31.0260  -17.7270   18.1350 C   0  0  0  0  0  2  0  0  0  0  0  0
  1  5  1  0
  2  6  1  0
  2  1  2  0
  4  7  1  0
  4  3  1  0
  5  3  2  0
  5 47  1  0
  6  4  2  0
  7  8  1  0
  9 17  1  0
 10 15  1  0
 11 12  1  0
 11 10  1  0
 13 12  1  0
 13 22  1  0
 13 14  1  0
 15  9  1  0
 15 14  1  0
 16  9  2  0
 17 18  1  0
 17  8  1  0
 19 20  2  0
 20 21  1  0
 20 39  1  0
 21 24  1  0
 22 19  1  0
 22 23  1  0
 23 21  2  0
 24 25  1  0
 25 26  2  0
 27 30  1  0
 27 26  1  0
 28 27  2  0
 29 28  1  0
 29 24  2  0
 30 31  1  0
 31 36  2  0
 31 32  1  0
 32 33  2  0
 33 34  1  0
 34 38  1  0
 35 34  2  0
 36 35  1  0
 37 36  1  0
 39 40  1  0
 40 43  1  0
 40 42  1  0
 41 39  2  0
 44 45  1  0
 44 19  1  0
 46 44  1  0
 48 47  1  0
 48 49  1  0
 50 49  1  0
 51 53  1  0
 51 50  1  0
 52 63  2  0
 53 58  1  0
 54 62  1  0
 54 64  1  0
 55 61  1  0
 55 57  1  0
 56 62  1  0
 57 56  1  0
 58 57  2  0
 59 60  1  0
 59 53  2  0
 60 55  2  0
 61 54  1  0
 62 52  1  0
 64 66  2  0
 65 64  1  0
 67 65  1  0
 68 77  2  0
 68 73  1  0
 69 65  1  0
 69 73  1  0
 70 69  1  0
 71 72  1  0
 71 70  1  0
 72 68  1  0
 73 74  2  0
 74 75  1  0
 76 75  2  0
 77 76  1  0
 78 52  1  0
 78 83  1  0
 78 79  1  0
 79 82  1  1
 79 80  1  0
 81 79  1  0
 83 86  1  0
 84 88  1  0
 84 83  1  0
 85 84  2  0
 88 87  1  0
 90 88  1  0
 90 91  1  0
 90 89  1  0
 92  6  1  0
 93 95  1  0
 93 92  1  0
 94 95  1  0
M  ISO  4   9 100  17 100  50 101  51 101
M  END
>  <TORSDO>  (45) 
F 25

>  <SCORE>  (45) 
-11.985

>  <name>  (45) 
45

>  <ligand_id>  (45) 
45

>  <original_smiles>  (45) 
[H]c1c([H])c([H])c2c(c1[H])C([H])([H])C([H])([H])C([H])([H])C2([H])N([H])C(=O)C1([H])N(C(=O)C([H])(N([H])C(=O)C([H])(N([H])C([H])([H])[H])C([H])([H])[H])C(C([H])([H])[H])(C([H])([H])[H])C([H])([H])[H])C([H])([H])c2c([H])c(OC([H])([H])C([H])([H])C([H])([H])Oc3c([H])c([H])c(OC([H])([H])C([H])([H])C([H])([H])[H])c(C([H])([H])C([H])([H])N([H])C(=O)N4C([H])([H])C([H])([H])C([H])([H])C([H])(n5nc(-c6c([H])c([H])c(Oc7c([H])c([H])c(F)c([H])c7F)c([H])c6[H])c(C(=O)N([H])[H])c5N([H])[H])C4([H])[H])c3[H])c([H])c([H])c2C1([H])[H]

>  <smiles>  (45) 
[H]c1c([H])c([H])c2c(c1[H])C([H])([H])C([H])([H])C([H])([H])C2([H])N([H])C(=O)C1([H])N(C(=O)C([H])(N([H])C(=O)C([H])(N([H])C([H])([H])[H])C([H])([H])[H])C(C([H])([H])[H])(C([H])([H])[H])C([H])([H])[H])C([H])([H])c2c([H])c(OC([H])([H])C([H])([H])C([H])([H])Oc3c([H])c([H])c(OC([H])([H])C([H])([H])C([H])([H])[H])c(C([H])([H])C([H])([H])N([H])C(=O)N4C([H])([H])C([H])([H])C([H])([H])C([H])(n5nc(-c6c([H])c([H])c(Oc7c([H])c([H])c(F)c([H])c7F)c([H])c6[H])c(C(=O)N([H])[H])c5N([H])[H])C4([H])[H])c3[H])c([H])c([H])c2C1([H])[H]

$$$$
46:0:0
     RDKit          3D

 96105  0  0  1  0  0  0  0  0999 V2000
  -30.2350  -20.1670   19.8810 C   0  0  0  0  0  3  0  0  0  0  0  0
  -30.7590  -21.9600   18.3610 C   0  0  0  0  0  3  0  0  0  0  0  0
  -30.4390  -19.2300   18.8350 C   0  0  0  0  0  0  0  0  0  0  0  0
  -30.3590  -21.5610   19.6540 C   0  0  0  0  0  0  0  0  0  0  0  0
  -30.8000  -19.7670   17.5600 C   0  0  0  0  0  0  0  0  0  0  0  0
  -31.0040  -18.9230   16.3030 C   0  0  0  0  0  1  0  0  0  0  0  0
  -30.9810  -21.0910   17.3520 N   0  0  0  0  0  0  0  0  0  0  0  0
  -31.4060  -14.5250   19.1520 C   0  0  0  0  0  0  0  0  0  0  0  0
  -30.7290  -12.4600   17.9970 C   0  0  0  0  0  2  0  0  0  0  0  0
  -29.5230  -12.7380   17.0820 C   0  0  0  0  0  2  0  0  0  0  0  0
  -28.2070  -12.5580   17.8660 C   0  0  0  0  0  2  0  0  0  0  0  0
  -28.2000  -13.3320   19.2200 C   0  0  0  0  0  3  0  0  0  0  0  0
  -29.5070  -13.0850   20.0090 C   0  0  0  0  0  2  0  0  0  0  0  0
  -30.6390  -13.3940   19.1290 N   0  0  0  0  0  0  0  0  0  0  0  0
  -32.5350  -14.5450   18.6550 O   0  0  0  0  0  0  0  0  0  0  0  0
  -30.9840  -16.7210   18.1850 C   0  0  0  0  0  2  0  0  0  0  0  0
  -30.2120  -17.7090   19.0580 C   0  0  0  0  0  3  0  0  0  0  0  0
  -30.7650  -16.8070   20.2130 C   0  0  0  0  0  3  0  0  0  0  0  0
  -30.7030  -15.6940   19.2100 N   0  0  0  0  0  0  0  0  0  0  0  0
  -26.2850  -13.8670   20.8410 C   0  0  0  0  0  0  0  0  0  0  0  0
  -25.2250  -13.1260   21.2930 C   0  0  0  0  0  0  0  0  0  0  0  0
  -25.3950  -11.8230   20.7320 C   0  0  0  0  0  0  0  0  0  0  0  0
  -27.0240  -13.0280   20.0280 N   0  0  0  0  0  0  0  0  0  0  0  0
  -26.5160  -11.7680   20.0230 N   0  0  0  0  0  0  0  0  0  0  0  0
  -24.5220  -10.6420   20.7780 C   0  0  0  0  0  0  0  0  0  0  0  0
  -24.9200   -9.4570   21.4300 C   0  0  0  0  0  3  0  0  0  0  0  0
  -24.0550   -8.3410   21.4810 C   0  0  0  0  0  3  0  0  0  0  0  0
  -22.7750   -8.4080   20.8770 C   0  0  0  0  0  0  0  0  0  0  0  0
  -22.3970   -9.5850   20.2070 C   0  0  0  0  0  3  0  0  0  0  0  0
  -23.2620  -10.6890   20.1560 C   0  0  0  0  0  3  0  0  0  0  0  0
  -21.8760   -7.3680   20.8620 O   0  0  0  0  0  0  0  0  0  0  0  0
  -21.7360   -6.5180   21.9290 C   0  0  0  0  0  0  0  0  0  0  0  0
  -21.3750   -6.9820   23.2130 C   0  0  0  0  0  3  0  0  0  0  0  0
  -21.1740   -6.0620   24.2640 C   0  0  0  0  0  3  0  0  0  0  0  0
  -21.3180   -4.6810   24.0270 C   0  0  0  0  0  0  0  0  0  0  0  0
  -21.6620   -4.2170   22.7460 C   0  0  0  0  0  3  0  0  0  0  0  0
  -21.8660   -5.1320   21.7010 C   0  0  0  0  0  0  0  0  0  0  0  0
  -22.1830   -4.6780   20.4620 F   0  0  0  0  0  0  0  0  0  0  0  0
  -21.1110   -3.7970   25.0310 F   0  0  0  0  0  0  0  0  0  0  0  0
  -24.0690  -13.6260   22.1140 C   0  0  0  0  0  0  0  0  0  0  0  0
  -23.4950  -12.7800   22.9630 N   0  0  0  0  0  0  0  0  0  0  0  0
  -23.6920  -14.7930   22.0350 O   0  0  0  0  0  0  0  0  0  0  0  0
  -23.8230  -11.8320   23.0670 H   0  0  0  0  0  0  0  0  0  0  0  0
  -22.7140  -13.0950   23.5180 H   0  0  0  0  0  0  0  0  0  0  0  0
  -26.6720  -15.1860   21.0450 N   0  0  0  0  0  0  0  0  0  0  0  0
  -26.2010  -15.8050   21.6960 H   0  0  0  0  0  0  0  0  0  0  0  0
  -27.5630  -15.5460   20.7340 H   0  0  0  0  0  0  0  0  0  0  0  0
  -29.9840  -16.4220   21.5070 C   0  0  0  0  0  2  0  0  0  0  0  0
  -29.8790  -17.4660   22.6350 C   0  0  0  0  0  2  0  0  0  0  0  0
  -29.6000  -16.7870   23.8580 O   0  0  0  0  0  0  0  0  0  0  0  0
  -29.3800  -17.4170   24.5360 H   0  0  0  0  0  0  0  0  0  0  0  0
  -30.1200  -22.4580   20.6830 O   0  0  0  0  0  0  0  0  0  0  0  0
  -29.4250  -23.6890   20.3880 C   0  0  0  0  0  2  0  0  0  0  0  0
  -30.2220  -24.9330   20.8270 C   0  0  0  0  0  2  0  0  0  0  0  0
  -29.3800  -26.2250   21.0350 C   0  0  0  0  0  2  0  0  0  0  0  0
  -28.7490  -26.6130   19.8190 O   0  0  0  0  0  0  0  0  0  0  0  0
  -24.5600  -31.5690   22.9330 C   0  0  0  0  0  0  0  0  0  0  0  0
  -27.5710  -27.3340   19.8970 C   0  0  0  0  0  0  0  0  0  0  0  0
  -23.5210  -30.2010   21.1510 C   0  0  0  0  0  3  0  0  0  0  0  0
  -25.1260  -28.7500   19.8010 C   0  0  0  0  0  0  0  0  0  0  0  0
  -26.0400  -30.6330   21.1570 C   0  0  0  0  0  2  0  0  0  0  0  0
  -26.2180  -29.2800   20.4990 C   0  0  0  0  0  0  0  0  0  0  0  0
  -27.4430  -28.5760   20.5630 C   0  0  0  0  0  3  0  0  0  0  0  0
  -26.4650  -26.8170   19.1930 C   0  0  0  0  0  3  0  0  0  0  0  0
  -25.2380  -27.5110   19.1490 C   0  0  0  0  0  3  0  0  0  0  0  0
  -23.8550  -29.5720   19.7730 C   0  0  0  0  0  2  0  0  0  0  0  0
  -24.7180  -30.8180   21.8080 N   0  0  0  0  0  0  0  0  0  0  0  0
  -23.4350  -31.7930   23.4070 O   0  0  0  0  0  0  0  0  0  0  0  0
  -22.8320  -29.1330   22.0290 C   0  0  0  0  0  0  0  0  0  0  0  0
  -21.5050  -28.9880   21.8730 N   0  0  0  0  0  0  0  0  0  0  0  0
  -23.4890  -28.4360   22.8060 O   0  0  0  0  0  0  0  0  0  0  0  0
  -21.0370  -29.5990   21.2180 H   0  0  0  0  0  0  0  0  0  0  0  0
  -18.0890  -27.9220   22.3580 C   0  0  0  0  0  0  0  0  0  0  0  0
  -20.6600  -28.0120   22.5630 C   0  0  0  0  0  3  0  0  0  0  0  0
  -20.6680  -26.6520   21.8290 C   0  0  0  0  0  2  0  0  0  0  0  0
  -19.5200  -26.5060   20.8260 C   0  0  0  0  0  2  0  0  0  0  0  0
  -18.1650  -26.6520   21.5240 C   0  0  0  0  0  2  0  0  0  0  0  0
  -19.2590  -28.5690   22.8310 C   0  0  0  0  0  0  0  0  0  0  0  0
  -19.1310  -29.7650   23.5700 C   0  0  0  0  0  3  0  0  0  0  0  0
  -17.8610  -30.3120   23.8390 C   0  0  0  0  0  3  0  0  0  0  0  0
  -16.7040  -29.6650   23.3730 C   0  0  0  0  0  3  0  0  0  0  0  0
  -16.8190  -28.4700   22.6380 C   0  0  0  0  0  3  0  0  0  0  0  0
  -25.7780  -32.2110   23.6720 C   0  0  0  0  0  3  0  0  0  0  0  0
  -25.3600  -33.5390   24.1370 N   0  0  0  0  0  0  0  0  0  0  0  0
  -25.6360  -34.6880   23.5040 C   0  0  0  0  0  0  0  0  0  0  0  0
  -26.3410  -34.7450   22.4930 O   0  0  0  0  0  0  0  0  0  0  0  0
  -24.7290  -33.5580   24.9260 H   0  0  0  0  0  0  0  0  0  0  0  0
  -23.7930  -36.3860   23.2880 C   0  0  0  0  0  1  0  0  0  0  0  0
  -25.0400  -35.9800   24.0920 C   0  0  0  0  0  3  0  0  0  0  0  0
  -27.0830  -36.9270   25.0770 C   0  0  0  0  0  1  0  0  0  0  0  0
  -25.9970  -37.1080   24.1170 N   0  0  0  0  0  0  0  0  0  0  0  0
  -25.5180  -37.9760   24.3400 H   0  0  0  0  0  0  0  0  0  0  0  0
  -26.3120  -31.3390   24.8730 C   0  0  1  0  0  0  0  0  0  0  0  0
  -25.2090  -30.9020   25.8620 C   0  0  0  0  0  1  0  0  0  0  0  0
  -27.0230  -30.0680   24.3540 C   0  0  0  0  0  1  0  0  0  0  0  0
  -27.3740  -32.1380   25.6620 C   0  0  0  0  0  1  0  0  0  0  0  0
  2  4  2  0
  3  1  2  0
  4  1  1  0
  4 52  1  0
  5  3  1  0
  6  5  1  0
  7  5  2  0
  7  2  1  0
  8 19  1  0
  9 14  1  0
 10 11  1  0
 10  9  1  0
 12 11  1  0
 12 13  1  0
 12 23  1  0
 14  8  1  0
 14 13  1  0
 15  8  2  0
 16 17  1  0
 16 19  1  0
 17  3  1  0
 17 18  1  0
 18 48  1  0
 19 18  1  0
 20 45  1  0
 20 21  2  0
 21 40  1  0
 22 25  1  0
 22 21  1  0
 23 20  1  0
 24 23  1  0
 24 22  2  0
 25 26  1  0
 26 27  2  0
 28 27  1  0
 29 28  2  0
 30 29  1  0
 30 25  2  0
 31 28  1  0
 31 32  1  0
 32 33  1  0
 33 34  2  0
 35 34  1  0
 35 39  1  0
 36 35  2  0
 37 32  2  0
 37 36  1  0
 38 37  1  0
 40 41  1  0
 41 43  1  0
 41 44  1  0
 42 40  2  0
 45 46  1  0
 47 45  1  0
 48 49  1  0
 49 50  1  0
 50 51  1  0
 53 52  1  0
 53 54  1  0
 54 55  1  0
 56 58  1  0
 56 55  1  0
 57 68  2  0
 58 63  1  0
 59 67  1  0
 59 69  1  0
 60 62  1  0
 61 67  1  0
 62 63  2  0
 62 61  1  0
 64 58  2  0
 65 64  1  0
 65 60  2  0
 66 60  1  0
 66 59  1  0
 67 57  1  0
 69 71  2  0
 70 69  1  0
 72 70  1  0
 73 82  2  0
 73 78  1  0
 74 70  1  0
 74 78  1  0
 75 74  1  0
 76 77  1  0
 76 75  1  0
 77 73  1  0
 78 79  2  0
 79 80  1  0
 81 80  2  0
 82 81  1  0
 83 57  1  0
 83 84  1  0
 83 93  1  0
 84 87  1  0
 85 89  1  0
 85 84  1  0
 86 85  2  0
 89 88  1  0
 89 91  1  0
 91 92  1  0
 91 90  1  0
 93 96  1  1
 93 94  1  0
 95 93  1  0
M  ISO  4   8 100  19 100  55 101  56 101
M  END
>  <TORSDO>  (46) 
F 23

>  <SCORE>  (46) 
-5.733

>  <name>  (46) 
46

>  <ligand_id>  (46) 
46

>  <original_smiles>  (46) 
[H]OC([H])([H])C([H])([H])C1([H])N(C(=O)N2C([H])([H])C([H])([H])C([H])([H])C([H])(n3nc(-c4c([H])c([H])c(Oc5c([H])c([H])c(F)c([H])c5F)c([H])c4[H])c(C(=O)N([H])[H])c3N([H])[H])C2([H])[H])C([H])([H])C1([H])c1c(C([H])([H])[H])nc([H])c(OC([H])([H])C([H])([H])C([H])([H])Oc2c([H])c([H])c3c(c2[H])C([H])([H])N(C(=O)C([H])(N([H])C(=O)C([H])(N([H])C([H])([H])[H])C([H])([H])[H])C(C([H])([H])[H])(C([H])([H])[H])C([H])([H])[H])C([H])(C(=O)N([H])C2([H])c4c([H])c([H])c([H])c([H])c4C([H])([H])C([H])([H])C2([H])[H])C3([H])[H])c1[H]

>  <smiles>  (46) 
[H]OC([H])([H])C([H])([H])C1([H])N(C(=O)N2C([H])([H])C([H])([H])C([H])([H])C([H])(n3nc(-c4c([H])c([H])c(Oc5c([H])c([H])c(F)c([H])c5F)c([H])c4[H])c(C(=O)N([H])[H])c3N([H])[H])C2([H])[H])C([H])([H])C1([H])c1c(C([H])([H])[H])nc([H])c(OC([H])([H])C([H])([H])C([H])([H])Oc2c([H])c([H])c3c(c2[H])C([H])([H])N(C(=O)C([H])(N([H])C(=O)C([H])(N([H])C([H])([H])[H])C([H])([H])[H])C(C([H])([H])[H])(C([H])([H])[H])C([H])([H])[H])C([H])(C(=O)N([H])C2([H])c4c([H])c([H])c([H])c([H])c4C([H])([H])C([H])([H])C2([H])[H])C3([H])[H])c1[H]

$$$$
47:0:0
     RDKit          3D

 94103  0  0  1  0  0  0  0  0999 V2000
  -27.8730  -21.7920   20.1390 C   0  0  0  0  0  3  0  0  0  0  0  0
  -28.4280  -20.5170   20.3800 C   0  0  0  0  0  3  0  0  0  0  0  0
  -30.0570  -22.6110   19.4790 C   0  0  0  0  0  3  0  0  0  0  0  0
  -30.6350  -21.3510   19.7590 C   0  0  0  0  0  0  0  0  0  0  0  0
  -28.6860  -22.8560   19.6840 C   0  0  0  0  0  0  0  0  0  0  0  0
  -29.8150  -20.2800   20.2040 C   0  0  0  0  0  0  0  0  0  0  0  0
  -32.9940  -20.5500   20.6400 C   0  0  0  0  0  2  0  0  0  0  0  0
  -32.9810  -22.0510   20.5020 C   0  0  0  0  0  2  0  0  0  0  0  0
  -32.1230  -21.2090   19.5860 C   0  0  2  0  0  0  0  0  0  0  0  0
  -32.5040  -21.1050   18.1140 C   0  0  0  0  0  1  0  0  0  0  0  0
  -28.1080  -24.2510   19.4110 C   0  0  0  0  0  2  0  0  0  0  0  0
  -28.4680  -25.3090   20.4940 C   0  0  0  0  0  2  0  0  0  0  0  0
  -28.4380  -26.6990   20.0990 O   0  0  0  0  0  0  0  0  0  0  0  0
  -24.5530  -31.8470   23.2180 C   0  0  0  0  0  0  0  0  0  0  0  0
  -27.2490  -27.4010   20.1580 C   0  0  0  0  0  0  0  0  0  0  0  0
  -23.3800  -30.4530   21.5440 C   0  0  0  0  0  3  0  0  0  0  0  0
  -24.8600  -28.9220   20.1360 C   0  0  0  0  0  0  0  0  0  0  0  0
  -25.9110  -30.8050   21.4030 C   0  0  0  0  0  2  0  0  0  0  0  0
  -26.0070  -29.4380   20.7520 C   0  0  0  0  0  0  0  0  0  0  0  0
  -27.2040  -28.6840   20.7560 C   0  0  0  0  0  3  0  0  0  0  0  0
  -26.0800  -26.9070   19.5450 C   0  0  0  0  0  3  0  0  0  0  0  0
  -24.8920  -27.6590   19.5230 C   0  0  0  0  0  3  0  0  0  0  0  0
  -23.6160  -29.7770   20.1640 C   0  0  0  0  0  2  0  0  0  0  0  0
  -24.6310  -31.0500   22.1140 N   0  0  0  0  0  0  0  0  0  0  0  0
  -23.4620  -32.1200   23.7380 O   0  0  0  0  0  0  0  0  0  0  0  0
  -22.7070  -29.4300   22.4850 C   0  0  0  0  0  0  0  0  0  0  0  0
  -21.3810  -29.2640   22.3440 N   0  0  0  0  0  0  0  0  0  0  0  0
  -23.3730  -28.7880   23.3000 O   0  0  0  0  0  0  0  0  0  0  0  0
  -20.8980  -29.8360   21.6640 H   0  0  0  0  0  0  0  0  0  0  0  0
  -17.9870  -28.1330   22.8450 C   0  0  0  0  0  0  0  0  0  0  0  0
  -20.5530  -28.3250   23.0990 C   0  0  0  0  0  3  0  0  0  0  0  0
  -20.6200  -26.9100   22.4790 C   0  0  0  0  0  2  0  0  0  0  0  0
  -19.5040  -26.6400   21.4670 C   0  0  0  0  0  2  0  0  0  0  0  0
  -18.1300  -26.8000   22.1290 C   0  0  0  0  0  2  0  0  0  0  0  0
  -19.1280  -28.8540   23.2880 C   0  0  0  0  0  0  0  0  0  0  0  0
  -18.9440  -30.1040   23.9210 C   0  0  0  0  0  3  0  0  0  0  0  0
  -17.6550  -30.6330   24.1090 C   0  0  0  0  0  3  0  0  0  0  0  0
  -16.5290  -29.9080   23.6850 C   0  0  0  0  0  3  0  0  0  0  0  0
  -16.6950  -28.6570   23.0620 C   0  0  0  0  0  3  0  0  0  0  0  0
  -25.8280  -32.4750   23.8650 C   0  0  0  0  0  3  0  0  0  0  0  0
  -25.5170  -33.8740   24.1860 N   0  0  0  0  0  0  0  0  0  0  0  0
  -25.8520  -34.9250   23.4240 C   0  0  0  0  0  0  0  0  0  0  0  0
  -26.5270  -34.8160   22.3960 O   0  0  0  0  0  0  0  0  0  0  0  0
  -24.9280  -34.0300   24.9920 H   0  0  0  0  0  0  0  0  0  0  0  0
  -24.1400  -36.7210   23.0350 C   0  0  0  0  0  1  0  0  0  0  0  0
  -25.3640  -36.3150   23.8700 C   0  0  0  0  0  3  0  0  0  0  0  0
  -27.4790  -37.2040   24.7460 C   0  0  0  0  0  1  0  0  0  0  0  0
  -26.4010  -37.3650   23.7720 N   0  0  0  0  0  0  0  0  0  0  0  0
  -25.9960  -38.2870   23.9020 H   0  0  0  0  0  0  0  0  0  0  0  0
  -26.3150  -31.7060   25.1540 C   0  0  1  0  0  0  0  0  0  0  0  0
  -25.1980  -31.4700   26.1970 C   0  0  0  0  0  1  0  0  0  0  0  0
  -26.9090  -30.3300   24.7750 C   0  0  0  0  0  1  0  0  0  0  0  0
  -27.4500  -32.5020   25.8430 C   0  0  0  0  0  1  0  0  0  0  0  0
  -30.4240  -19.0670   20.4550 O   0  0  0  0  0  0  0  0  0  0  0  0
  -29.6540  -17.9130   20.7840 C   0  0  0  0  0  2  0  0  0  0  0  0
  -30.6760  -16.7880   21.0730 C   0  0  0  0  0  2  0  0  0  0  0  0
  -30.7320  -14.4380   20.2370 C   0  0  0  0  0  0  0  0  0  0  0  0
  -30.3370  -12.3070   19.0570 C   0  0  0  0  0  2  0  0  0  0  0  0
  -29.3600  -12.5550   17.8920 C   0  0  0  0  0  2  0  0  0  0  0  0
  -27.8980  -12.4270   18.3680 C   0  0  0  0  0  2  0  0  0  0  0  0
  -27.6200  -13.2410   19.6600 C   0  0  0  0  0  3  0  0  0  0  0  0
  -28.7150  -12.9990   20.7230 C   0  0  0  0  0  2  0  0  0  0  0  0
  -30.0240  -13.2840   20.1130 N   0  0  0  0  0  0  0  0  0  0  0  0
  -31.8080  -14.6200   19.6630 O   0  0  0  0  0  0  0  0  0  0  0  0
  -30.1400  -15.4250   20.9320 N   0  0  0  0  0  0  0  0  0  0  0  0
  -29.2550  -15.2150   21.3750 H   0  0  0  0  0  0  0  0  0  0  0  0
  -25.2650  -13.8580   20.4910 C   0  0  0  0  0  0  0  0  0  0  0  0
  -24.2000  -13.0870   20.8850 C   0  0  0  0  0  0  0  0  0  0  0  0
  -24.6370  -11.7310   20.7910 C   0  0  0  0  0  0  0  0  0  0  0  0
  -26.2850  -12.9680   20.1870 N   0  0  0  0  0  0  0  0  0  0  0  0
  -25.9130  -11.6840   20.4270 N   0  0  0  0  0  0  0  0  0  0  0  0
  -23.9020  -10.4750   20.9810 C   0  0  0  0  0  0  0  0  0  0  0  0
  -24.3310   -9.5060   21.9160 C   0  0  0  0  0  3  0  0  0  0  0  0
  -23.6000   -8.3120   22.0980 C   0  0  0  0  0  3  0  0  0  0  0  0
  -22.4270   -8.0750   21.3450 C   0  0  0  0  0  0  0  0  0  0  0  0
  -22.0130   -9.0330   20.4020 C   0  0  0  0  0  3  0  0  0  0  0  0
  -22.7430  -10.2200   20.2180 C   0  0  0  0  0  3  0  0  0  0  0  0
  -21.6680   -6.9330   21.4320 O   0  0  0  0  0  0  0  0  0  0  0  0
  -21.5820   -6.2140   22.5970 C   0  0  0  0  0  0  0  0  0  0  0  0
  -21.0530   -6.7750   23.7790 C   0  0  0  0  0  3  0  0  0  0  0  0
  -20.9210   -5.9820   24.9380 C   0  0  0  0  0  3  0  0  0  0  0  0
  -21.2990   -4.6250   24.9090 C   0  0  0  0  0  0  0  0  0  0  0  0
  -21.8170   -4.0630   23.7290 C   0  0  0  0  0  3  0  0  0  0  0  0
  -21.9550   -4.8550   22.5760 C   0  0  0  0  0  0  0  0  0  0  0  0
  -22.4370   -4.3050   21.4360 F   0  0  0  0  0  0  0  0  0  0  0  0
  -21.1650   -3.8610   26.0170 F   0  0  0  0  0  0  0  0  0  0  0  0
  -22.8240  -13.5750   21.2310 C   0  0  0  0  0  0  0  0  0  0  0  0
  -22.1190  -12.8570   22.1030 N   0  0  0  0  0  0  0  0  0  0  0  0
  -22.3810  -14.6220   20.7640 O   0  0  0  0  0  0  0  0  0  0  0  0
  -22.4900  -12.0090   22.5060 H   0  0  0  0  0  0  0  0  0  0  0  0
  -21.1920  -13.1580   22.3680 H   0  0  0  0  0  0  0  0  0  0  0  0
  -25.4390  -15.2280   20.3430 N   0  0  0  0  0  0  0  0  0  0  0  0
  -24.6830  -15.8880   20.4940 H   0  0  0  0  0  0  0  0  0  0  0  0
  -26.2800  -15.6670   19.9880 H   0  0  0  0  0  0  0  0  0  0  0  0
  1  2  1  0
  3  5  1  0
  3  4  2  0
  4  6  1  0
  5  1  2  0
  6  2  2  0
  6 54  1  0
  8  7  1  0
  9  4  1  0
  9  8  1  0
  9  7  1  0
  9 10  1  6
 11  5  1  0
 11 12  1  0
 13 15  1  0
 13 12  1  0
 14 25  2  0
 15 20  1  0
 16 24  1  0
 16 26  1  0
 17 23  1  0
 17 19  1  0
 18 24  1  0
 19 20  2  0
 19 18  1  0
 21 15  2  0
 22 21  1  0
 22 17  2  0
 23 16  1  0
 24 14  1  0
 26 28  2  0
 27 26  1  0
 29 27  1  0
 30 39  2  0
 30 35  1  0
 31 27  1  0
 31 35  1  0
 32 31  1  0
 33 34  1  0
 33 32  1  0
 34 30  1  0
 35 36  2  0
 36 37  1  0
 38 37  2  0
 39 38  1  0
 40 14  1  0
 40 41  1  0
 40 50  1  0
 41 44  1  0
 42 46  1  0
 42 41  1  0
 43 42  2  0
 46 45  1  0
 48 46  1  0
 48 49  1  0
 48 47  1  0
 50 53  1  1
 50 51  1  0
 52 50  1  0
 54 55  1  0
 55 56  1  0
 57 65  1  0
 58 63  1  0
 59 60  1  0
 59 58  1  0
 61 60  1  0
 61 70  1  0
 61 62  1  0
 63 57  1  0
 63 62  1  0
 64 57  2  0
 65 56  1  0
 65 66  1  0
 67 68  2  0
 68 87  1  0
 69 68  1  0
 69 72  1  0
 70 71  1  0
 70 67  1  0
 71 69  2  0
 72 73  1  0
 73 74  2  0
 75 78  1  0
 75 74  1  0
 76 75  2  0
 77 76  1  0
 77 72  2  0
 78 79  1  0
 79 80  1  0
 80 81  2  0
 82 81  1  0
 82 86  1  0
 83 82  2  0
 84 79  2  0
 84 83  1  0
 85 84  1  0
 87 88  1  0
 88 91  1  0
 88 90  1  0
 89 87  2  0
 92 67  1  0
 92 93  1  0
 94 92  1  0
M  ISO  4  12 101  13 101  57 100  65 100
M  END
>  <TORSDO>  (47) 
F 22

>  <SCORE>  (47) 
-13.249

>  <name>  (47) 
47

>  <ligand_id>  (47) 
47

>  <original_smiles>  (47) 
[H]c1c([H])c([H])c2c(c1[H])C([H])([H])C([H])([H])C([H])([H])C2([H])N([H])C(=O)C1([H])N(C(=O)C([H])(N([H])C(=O)C([H])(N([H])C([H])([H])[H])C([H])([H])[H])C(C([H])([H])[H])(C([H])([H])[H])C([H])([H])[H])C([H])([H])c2c([H])c(OC([H])([H])C([H])([H])c3c([H])c([H])c(OC([H])([H])C([H])([H])N([H])C(=O)N4C([H])([H])C([H])([H])C([H])([H])C([H])(n5nc(-c6c([H])c([H])c(Oc7c([H])c([H])c(F)c([H])c7F)c([H])c6[H])c(C(=O)N([H])[H])c5N([H])[H])C4([H])[H])c(C4(C([H])([H])[H])C([H])([H])C4([H])[H])c3[H])c([H])c([H])c2C1([H])[H]

>  <smiles>  (47) 
[H]c1c([H])c([H])c2c(c1[H])C([H])([H])C([H])([H])C([H])([H])C2([H])N([H])C(=O)C1([H])N(C(=O)C([H])(N([H])C(=O)C([H])(N([H])C([H])([H])[H])C([H])([H])[H])C(C([H])([H])[H])(C([H])([H])[H])C([H])([H])[H])C([H])([H])c2c([H])c(OC([H])([H])C([H])([H])c3c([H])c([H])c(OC([H])([H])C([H])([H])N([H])C(=O)N4C([H])([H])C([H])([H])C([H])([H])C([H])(n5nc(-c6c([H])c([H])c(Oc7c([H])c([H])c(F)c([H])c7F)c([H])c6[H])c(C(=O)N([H])[H])c5N([H])[H])C4([H])[H])c(C4(C([H])([H])[H])C([H])([H])C4([H])[H])c3[H])c([H])c([H])c2C1([H])[H]

$$$$
48:0:0
     RDKit          3D

 98106  0  0  1  0  0  0  0  0999 V2000
  -28.4950  -12.0800   20.4730 C   0  0  2  0  0  0  0  0  0  0  0  0
  -28.4720  -15.6520   19.2580 C   0  0  0  0  0  0  0  0  0  0  0  0
  -27.9540  -15.2530   20.8500 C   0  0  0  0  0  0  0  0  0  0  0  0
  -28.9190  -12.5190   18.6440 C   0  0  0  0  0  3  0  0  0  0  0  0
  -29.0110  -14.3120   18.2080 C   0  0  0  0  0  3  0  0  0  0  0  0
  -27.7450  -13.4740   21.4800 C   0  0  2  0  0  0  0  0  0  0  0  0
  -27.6630  -16.7510   21.4780 C   0  0  0  0  0  2  0  0  0  0  0  0
  -28.7450  -17.4470   18.8850 C   0  0  0  0  0  2  0  0  0  0  0  0
  -28.3160  -18.2980   21.0050 C   0  0  0  0  0  2  0  0  0  0  0  0
  -29.2350  -11.4530   17.6050 C   0  0  0  0  0  1  0  0  0  0  0  0
  -28.3200  -18.9680   19.5650 N   0  0  1  0  0  4  0  0  0  0  0  0
  -27.3470  -19.0600   19.3200 H   0  0  0  0  0  0  0  0  0  0  0  0
  -25.6400  -12.1620   18.1830 C   0  0  0  0  0 15  0  0  0  0  0  0
  -26.4090  -13.0170   21.2170 O   0  0  0  0  0  0  0  0  0  0  0  0
  -30.2780  -14.7410   17.4020 C   0  0  0  0  0  2  0  0  0  0  0  0
  -31.7110  -15.0260   18.1500 C   0  0  0  0  0  2  0  0  0  0  0  0
  -32.6070  -14.1560   19.2080 C   0  0  0  0  0  2  0  0  0  0  0  0
  -32.7040  -13.1830   21.5860 C   0  0  0  0  0  0  0  0  0  0  0  0
  -32.0970  -10.8000   21.4600 C   0  0  0  0  0  2  0  0  0  0  0  0
  -32.1000  -10.8030   19.9800 C   0  0  0  0  0  2  0  0  0  0  0  0
  -30.9420  -11.5790   19.5660 C   0  0  0  0  0  2  0  0  0  0  0  0
  -29.9450  -12.7770   20.4290 C   0  0  0  0  0  3  0  0  0  0  0  0
  -30.5030  -12.4520   21.9500 C   0  0  0  0  0  2  0  0  0  0  0  0
  -31.8320  -12.1900   21.8510 N   0  0  0  0  0  0  0  0  0  0  0  0
  -33.8660  -13.0060   21.8290 O   0  0  0  0  0  0  0  0  0  0  0  0
  -32.4050  -14.2010   20.7180 N   0  0  0  0  0  0  0  0  0  0  0  0
  -31.5240  -14.6350   20.9460 H   0  0  0  0  0  0  0  0  0  0  0  0
  -25.9340  -13.8300   20.5310 C   0  0  2  0  0  0  0  0  0  0  0  0
  -24.7310  -12.8910   21.0880 C   0  0  0  0  0  3  0  0  0  0  0  0
  -25.0080  -11.2360   20.8930 C   0  0  0  0  0  3  0  0  0  0  0  0
  -27.1720  -12.8260   19.8530 N   0  0  0  0  0  0  0  0  0  0  0  0
  -26.3110  -11.0320   20.1140 N   0  0  0  0  0  1  0  0  0  0  0  0
  -24.3460   -9.9870   21.1840 C   0  0  0  0  0  0  0  0  0  0  0  0
  -24.7570   -9.0370   22.1550 C   0  0  0  0  0  3  0  0  0  0  0  0
  -23.9680   -7.8810   22.3630 C   0  0  0  0  0  3  0  0  0  0  0  0
  -22.7990   -7.6940   21.5810 C   0  0  0  0  0  0  0  0  0  0  0  0
  -22.4870   -8.5950   20.5580 C   0  0  0  0  0  3  0  0  0  0  0  0
  -23.2640   -9.7230   20.3500 C   0  0  0  0  0  3  0  0  0  0  0  0
  -21.9240   -6.6530   21.6970 O   0  0  0  0  0  0  0  0  0  0  0  0
  -21.7140   -6.0160   22.8850 C   0  0  0  0  0  0  0  0  0  0  0  0
  -21.2470   -6.6840   24.0390 C   0  0  0  0  0  3  0  0  0  0  0  0
  -20.9890   -5.9480   25.2120 C   0  0  0  0  0  3  0  0  0  0  0  0
  -21.1870   -4.5530   25.2260 C   0  0  0  0  0  0  0  0  0  0  0  0
  -21.6390   -3.8910   24.0710 C   0  0  0  0  0  3  0  0  0  0  0  0
  -21.8970   -4.6230   22.9020 C   0  0  0  0  0  0  0  0  0  0  0  0
  -22.3110   -3.9870   21.7800 F   0  0  0  0  0  0  0  0  0  0  0  0
  -20.9320   -3.8430   26.3490 F   0  0  0  0  0  0  0  0  0  0  0  0
  -23.3930  -13.3440   20.9230 C   0  0  0  0  0  0  0  0  0  0  0  0
  -22.4870  -12.6460   21.5620 N   0  0  0  0  0  0  0  0  0  0  0  0
  -23.1910  -14.2200   20.0900 O   0  0  0  0  0  0  0  0  0  0  0  0
  -22.7480  -11.9200   22.2110 H   0  0  0  0  0  0  0  0  0  0  0  0
  -21.5090  -12.8660   21.4430 H   0  0  0  0  0  0  0  0  0  0  0  0
  -26.0260  -15.1480   20.2180 N   0  0  0  0  0  0  0  0  0  0  0  0
  -25.2200  -15.7590   20.2630 H   0  0  0  0  0  0  0  0  0  0  0  0
  -26.7340  -15.4410   19.5630 H   0  0  0  0  0  0  0  0  0  0  0  0
  -28.9810  -20.7280   19.3000 C   0  0  0  0  0  1  0  0  0  0  0  0
  -28.5510  -22.7870   19.1590 C   0  0  0  0  0 15  0  0  0  0  0  0
  -29.1680  -24.5940   19.2030 O   0  0  0  0  0  1  0  0  0  0  0  0
  -26.3880  -30.9230   23.2230 C   0  0  0  0  0  0  0  0  0  0  0  0
  -28.5470  -26.0710   19.4060 C   0  0  0  0  0  0  0  0  0  0  0  0
  -25.2490  -29.9510   21.2890 C   0  0  0  0  0  3  0  0  0  0  0  0
  -26.6550  -28.4910   19.6420 C   0  0  0  0  0  0  0  0  0  0  0  0
  -27.8320  -29.8170   21.3630 C   0  0  0  0  0  2  0  0  0  0  0  0
  -27.8120  -28.5160   20.4250 C   0  0  0  0  0  0  0  0  0  0  0  0
  -28.7590  -27.3370   20.2790 C   0  0  0  0  0  3  0  0  0  0  0  0
  -27.4440  -26.3680   18.5840 C   0  0  0  0  0  3  0  0  0  0  0  0
  -26.5380  -27.4610   18.7000 C   0  0  0  0  0  3  0  0  0  0  0  0
  -25.5500  -29.5440   19.8190 C   0  0  0  0  0  2  0  0  0  0  0  0
  -26.5200  -30.2620   22.0170 N   0  0  0  0  0  0  0  0  0  0  0  0
  -25.2750  -31.2030   23.7050 O   0  0  0  0  0  0  0  0  0  0  0  0
  -24.4120  -28.8500   21.9990 C   0  0  0  0  0  0  0  0  0  0  0  0
  -23.0870  -28.8020   21.7630 N   0  0  0  0  0  0  0  0  0  0  0  0
  -24.9710  -28.0430   22.7470 O   0  0  0  0  0  0  0  0  0  0  0  0
  -22.6840  -29.5060   21.1600 H   0  0  0  0  0  0  0  0  0  0  0  0
  -19.5990  -27.7860   21.9490 C   0  0  0  0  0  0  0  0  0  0  0  0
  -22.1660  -27.7850   22.2890 C   0  0  0  0  0  3  0  0  0  0  0  0
  -22.1720  -26.5180   21.4030 C   0  0  0  0  0  2  0  0  0  0  0  0
  -21.0800  -26.5270   20.3290 C   0  0  0  0  0  2  0  0  0  0  0  0
  -19.6940  -26.6240   20.9740 C   0  0  0  0  0  2  0  0  0  0  0  0
  -20.7580  -28.3410   22.5540 C   0  0  0  0  0  0  0  0  0  0  0  0
  -20.6130  -29.4360   23.4330 C   0  0  0  0  0  3  0  0  0  0  0  0
  -19.3420  -29.9780   23.7060 C   0  0  0  0  0  3  0  0  0  0  0  0
  -18.1980  -29.4180   23.1110 C   0  0  0  0  0  3  0  0  0  0  0  0
  -18.3270  -28.3220   22.2400 C   0  0  0  0  0  3  0  0  0  0  0  0
  -27.6220  -31.3760   24.0600 C   0  0  0  0  0  3  0  0  0  0  0  0
  -27.2660  -32.6210   24.7780 N   0  0  0  0  0  0  0  0  0  0  0  0
  -27.5700  -33.8650   24.3820 C   0  0  0  0  0  0  0  0  0  0  0  0
  -28.2320  -34.0910   23.3670 O   0  0  0  0  0  0  0  0  0  0  0  0
  -26.6720  -32.5140   25.5880 H   0  0  0  0  0  0  0  0  0  0  0  0
  -25.7950  -35.6450   24.6160 C   0  0  0  0  0  1  0  0  0  0  0  0
  -27.0660  -35.0460   25.2430 C   0  0  0  0  0  3  0  0  0  0  0  0
  -29.1840  -35.7260   26.2880 C   0  0  0  0  0  1  0  0  0  0  0  0
  -28.0700  -36.1180   25.4280 N   0  0  0  0  0  0  0  0  0  0  0  0
  -27.6410  -36.9490   25.8270 H   0  0  0  0  0  0  0  0  0  0  0  0
  -28.0920  -30.2880   25.1030 C   0  0  1  0  0  0  0  0  0  0  0  0
  -26.9570  -29.7600   26.0150 C   0  0  0  0  0  1  0  0  0  0  0  0
  -28.7180  -29.0680   24.3940 C   0  0  0  0  0  1  0  0  0  0  0  0
  -29.1970  -30.8760   26.0120 C   0  0  0  0  0  1  0  0  0  0  0  0
  1  6  1  0
  2  3  2  0
  3  7  1  0
  3  6  1  0
  4  1  1  0
  5  4  1  0
  5  2  1  0
  8  2  1  0
  8 11  1  0
  9  7  1  0
 10  4  1  0
 11  9  1  0
 11 12  1  6
  6 14  1  6
 15 16  1  0
 15  5  1  0
 16 17  1  0
 17 26  1  0
 18 25  2  0
 18 24  1  0
 19 24  1  0
 20 19  1  0
 21 20  1  0
 21 22  1  0
  1 22  1  1
 22 23  1  0
 24 23  1  0
 26 27  1  0
 26 18  1  0
 28 29  1  6
 28 14  1  0
 30 29  1  0
 30 33  1  0
 31  1  1  0
 31 28  1  0
 31  6  1  0
 32 30  1  0
 33 34  1  0
 34 35  2  0
 36 39  1  0
 36 35  1  0
 37 36  2  0
 38 37  1  0
 38 33  2  0
 39 40  1  0
 40 45  2  0
 40 41  1  0
 41 42  2  0
 42 43  1  0
 43 47  1  0
 44 43  2  0
 45 44  1  0
 46 45  1  0
 48 29  1  0
 48 49  1  0
 49 51  1  0
 50 48  2  0
 52 49  1  0
 53 54  1  0
 53 28  1  0
 55 53  1  0
 56 11  1  0
 58 60  1  0
 59 70  2  0
 59 85  1  0
 60 65  1  0
 61 71  1  0
 61 69  1  0
 62 68  1  0
 62 64  1  0
 63 69  1  0
 64 63  1  0
 65 64  2  0
 66 67  1  0
 66 60  2  0
 67 62  2  0
 68 61  1  0
 69 59  1  0
 71 73  2  0
 72 71  1  0
 72 76  1  0
 74 72  1  0
 75 84  2  0
 75 80  1  0
 76 80  1  0
 77 76  1  0
 78 79  1  0
 78 77  1  0
 79 75  1  0
 80 81  2  0
 81 82  1  0
 83 82  2  0
 84 83  1  0
 85 86  1  0
 85 95  1  0
 86 89  1  0
 87 86  1  0
 87 91  1  0
 88 87  2  0
 90 91  1  0
 91 93  1  0
 93 94  1  0
 93 92  1  0
 95 98  1  1
 95 96  1  0
 97 95  1  0
M  ISO  4  18 100  26 100  57 101  58 101
M  END
>  <TORSDO>  (48) 
F 22

>  <SCORE>  (48) 
-2.580

>  <name>  (48) 
48

>  <ligand_id>  (48) 
48

>  <original_smiles>  (48) 
[H]c1c([H])c([H])c2c(c1[H])C([H])([H])C([H])([H])C([H])([H])C2([H])N([H])C(=O)C1([H])N(C(=O)C([H])(N([H])C(=O)C([H])(N([H])C([H])([H])[H])C([H])([H])[H])C(C([H])([H])[H])(C([H])([H])[H])C([H])([H])[H])C([H])([H])c2c([H])c(OC([H])([H])C([H])([H])[N+]3([H])C([H])([H])c4c(C([H])([H])C([H])([H])C([H])([H])N([H])C(=O)N5C([H])([H])C([H])([H])C([H])([H])C([H])(n6nc(-c7c([H])c([H])c(Oc8c([H])c([H])c(F)c([H])c8F)c([H])c7[H])c(C(=O)N([H])[H])c6N([H])[H])C5([H])[H])c(C([H])([H])[H])c([H])c(OC([H])([H])[H])c4C([H])([H])C3([H])[H])c([H])c([H])c2C1([H])[H]

>  <smiles>  (48) 
[H]c1c([H])c([H])c2c(c1[H])C([H])([H])C([H])([H])C([H])([H])C2([H])N([H])C(=O)C1([H])N(C(=O)C([H])(N([H])C(=O)C([H])(N([H])C([H])([H])[H])C([H])([H])[H])C(C([H])([H])[H])(C([H])([H])[H])C([H])([H])[H])C([H])([H])c2c([H])c(OC([H])([H])C([H])([H])[N+]3([H])C([H])([H])c4c(C([H])([H])C([H])([H])C([H])([H])N([H])C(=O)N5C([H])([H])C([H])([H])C([H])([H])C([H])(n6nc(-c7c([H])c([H])c(Oc8c([H])c([H])c(F)c([H])c8F)c([H])c7[H])c(C(=O)N([H])[H])c6N([H])[H])C5([H])[H])c(C([H])([H])[H])c([H])c(OC([H])([H])[H])c4C([H])([H])C3([H])[H])c([H])c([H])c2C1([H])[H]

$$$$
49:0:0
     RDKit          3D

 99108  0  0  1  0  0  0  0  0999 V2000
  -30.0890  -22.0880   21.1970 C   0  0  0  0  0  2  0  0  0  0  0  0
  -30.9550  -22.8750   23.3540 C   0  0  0  0  0  2  0  0  0  0  0  0
  -31.1770  -21.1170   21.7160 C   0  0  0  0  0  3  0  0  0  0  0  0
  -31.2850  -21.3900   23.2290 C   0  0  0  0  0  3  0  0  0  0  0  0
  -29.8520  -23.1330   22.3190 C   0  0  0  0  0  3  0  0  0  0  0  0
  -30.9290  -14.5990   20.1860 C   0  0  0  0  0  0  0  0  0  0  0  0
  -30.6290  -12.4400   19.0340 C   0  0  0  0  0  2  0  0  0  0  0  0
  -29.6540  -12.6200   17.8540 C   0  0  0  0  0  2  0  0  0  0  0  0
  -28.1900  -12.4820   18.3220 C   0  0  0  0  0  2  0  0  0  0  0  0
  -27.8810  -13.3440   19.5750 C   0  0  0  0  0  3  0  0  0  0  0  0
  -28.9540  -13.1100   20.6610 C   0  0  0  0  0  2  0  0  0  0  0  0
  -30.2710  -13.4170   20.0700 N   0  0  0  0  0  0  0  0  0  0  0  0
  -31.9900  -14.8220   19.5840 O   0  0  0  0  0  0  0  0  0  0  0  0
  -29.6810  -19.0630   21.7140 C   0  0  0  0  0  3  0  0  0  0  0  0
  -29.4770  -17.6800   21.5510 C   0  0  0  0  0  3  0  0  0  0  0  0
  -30.9430  -19.6280   21.4250 C   0  0  0  0  0  0  0  0  0  0  0  0
  -31.9490  -18.7430   20.9560 C   0  0  0  0  0  0  0  0  0  0  0  0
  -30.5390  -16.8780   21.0980 C   0  0  0  0  0  0  0  0  0  0  0  0
  -31.7370  -17.4230   20.8260 N   0  0  0  0  0  0  0  0  0  0  0  0
  -30.2860  -15.4980   20.9500 N   0  0  0  0  0  0  0  0  0  0  0  0
  -29.4270  -15.1630   21.3550 H   0  0  0  0  0  0  0  0  0  0  0  0
  -25.5190  -13.9760   20.3850 C   0  0  0  0  0  0  0  0  0  0  0  0
  -24.4530  -13.2090   20.7720 C   0  0  0  0  0  0  0  0  0  0  0  0
  -24.8890  -11.8530   20.6800 C   0  0  0  0  0  0  0  0  0  0  0  0
  -26.5380  -13.0850   20.0880 N   0  0  0  0  0  0  0  0  0  0  0  0
  -26.1640  -11.8010   20.3190 N   0  0  0  0  0  0  0  0  0  0  0  0
  -24.1520  -10.5950   20.8580 C   0  0  0  0  0  0  0  0  0  0  0  0
  -24.5660   -9.6220   21.7930 C   0  0  0  0  0  3  0  0  0  0  0  0
  -23.8340   -8.4270   21.9570 C   0  0  0  0  0  3  0  0  0  0  0  0
  -22.6700   -8.1990   21.1850 C   0  0  0  0  0  0  0  0  0  0  0  0
  -22.2770   -9.1590   20.2370 C   0  0  0  0  0  3  0  0  0  0  0  0
  -23.0110  -10.3450   20.0700 C   0  0  0  0  0  3  0  0  0  0  0  0
  -21.9090   -7.0590   21.2590 O   0  0  0  0  0  0  0  0  0  0  0  0
  -21.7650   -6.3620   22.4320 C   0  0  0  0  0  0  0  0  0  0  0  0
  -21.2330   -6.9620   23.5960 C   0  0  0  0  0  3  0  0  0  0  0  0
  -21.0420   -6.1890   24.7590 C   0  0  0  0  0  3  0  0  0  0  0  0
  -21.3680   -4.8200   24.7580 C   0  0  0  0  0  0  0  0  0  0  0  0
  -21.8920   -4.2200   23.5990 C   0  0  0  0  0  3  0  0  0  0  0  0
  -22.0860   -4.9900   22.4380 C   0  0  0  0  0  0  0  0  0  0  0  0
  -22.5710   -4.4020   21.3190 F   0  0  0  0  0  0  0  0  0  0  0  0
  -21.1750   -4.0750   25.8710 F   0  0  0  0  0  0  0  0  0  0  0  0
  -23.0760  -13.6980   21.1170 C   0  0  0  0  0  0  0  0  0  0  0  0
  -22.3760  -12.9930   22.0010 N   0  0  0  0  0  0  0  0  0  0  0  0
  -22.6270  -14.7370   20.6340 O   0  0  0  0  0  0  0  0  0  0  0  0
  -22.7530  -12.1520   22.4130 H   0  0  0  0  0  0  0  0  0  0  0  0
  -21.4520  -13.3000   22.2690 H   0  0  0  0  0  0  0  0  0  0  0  0
  -25.7030  -15.3490   20.2480 N   0  0  0  0  0  0  0  0  0  0  0  0
  -24.9500  -16.0120   20.4000 H   0  0  0  0  0  0  0  0  0  0  0  0
  -26.5490  -15.7830   19.8970 H   0  0  0  0  0  0  0  0  0  0  0  0
  -33.4360  -19.0880   18.9490 C   0  0  0  0  0  1  0  0  0  0  0  0
  -33.3440  -19.1320   20.4880 C   0  0  0  0  0  2  0  0  0  0  0  0
  -29.8540  -24.5520   21.8860 N   0  0  0  0  0  4  0  0  0  0  0  0
  -30.7570  -24.7820   21.4980 H   0  0  0  0  0  0  0  0  0  0  0  0
  -29.7410  -25.1080   22.7190 H   0  0  0  0  0  0  0  0  0  0  0  0
  -28.7950  -24.9570   20.9300 C   0  0  0  0  0  2  0  0  0  0  0  0
  -28.8160  -26.4810   20.6740 C   0  0  0  0  0  2  0  0  0  0  0  0
  -28.0260  -26.7750   19.5260 O   0  0  0  0  0  0  0  0  0  0  0  0
  -24.4870  -31.8650   23.1070 C   0  0  0  0  0  0  0  0  0  0  0  0
  -26.8910  -27.5240   19.7210 C   0  0  0  0  0  0  0  0  0  0  0  0
  -23.1670  -30.5360   21.4920 C   0  0  0  0  0  3  0  0  0  0  0  0
  -24.5180  -29.0320   19.9370 C   0  0  0  0  0  0  0  0  0  0  0  0
  -25.6790  -30.8790   21.1570 C   0  0  0  0  0  2  0  0  0  0  0  0
  -25.7110  -29.5250   20.4790 C   0  0  0  0  0  0  0  0  0  0  0  0
  -26.9030  -28.7750   20.3770 C   0  0  0  0  0  3  0  0  0  0  0  0
  -25.6860  -27.0420   19.1740 C   0  0  0  0  0  3  0  0  0  0  0  0
  -24.4960  -27.7850   19.2880 C   0  0  0  0  0  3  0  0  0  0  0  0
  -23.2880  -29.9000   20.0790 C   0  0  0  0  0  2  0  0  0  0  0  0
  -24.4660  -31.1060   21.9760 N   0  0  0  0  0  0  0  0  0  0  0  0
  -23.4430  -32.1300   23.7210 O   0  0  0  0  0  0  0  0  0  0  0  0
  -22.5630  -29.4890   22.4520 C   0  0  0  0  0  0  0  0  0  0  0  0
  -21.2370  -29.2940   22.3660 N   0  0  0  0  0  0  0  0  0  0  0  0
  -23.2810  -28.8540   23.2290 O   0  0  0  0  0  0  0  0  0  0  0  0
  -20.7190  -29.8560   21.7050 H   0  0  0  0  0  0  0  0  0  0  0  0
  -17.8980  -28.0330   22.9170 C   0  0  0  0  0  0  0  0  0  0  0  0
  -20.4560  -28.3350   23.1450 C   0  0  0  0  0  3  0  0  0  0  0  0
  -20.5710  -26.9110   22.5530 C   0  0  0  0  0  2  0  0  0  0  0  0
  -19.4600  -26.5800   21.5530 C   0  0  0  0  0  2  0  0  0  0  0  0
  -18.0860  -26.6960   22.2200 C   0  0  0  0  0  2  0  0  0  0  0  0
  -19.0110  -28.8110   23.3340 C   0  0  0  0  0  0  0  0  0  0  0  0
  -18.7810  -30.0630   23.9420 C   0  0  0  0  0  3  0  0  0  0  0  0
  -17.4710  -30.5390   24.1390 C   0  0  0  0  0  3  0  0  0  0  0  0
  -16.3730  -29.7580   23.7390 C   0  0  0  0  0  3  0  0  0  0  0  0
  -16.5880  -28.5070   23.1330 C   0  0  0  0  0  3  0  0  0  0  0  0
  -25.8170  -32.4590   23.6700 C   0  0  0  0  0  3  0  0  0  0  0  0
  -25.5490  -33.8450   24.0750 N   0  0  0  0  0  0  0  0  0  0  0  0
  -25.8770  -34.9240   23.3540 C   0  0  0  0  0  0  0  0  0  0  0  0
  -26.5080  -34.8570   22.2960 O   0  0  0  0  0  0  0  0  0  0  0  0
  -24.9890  -33.9720   24.9050 H   0  0  0  0  0  0  0  0  0  0  0  0
  -24.1780  -36.7610   23.1300 C   0  0  0  0  0  1  0  0  0  0  0  0
  -25.4300  -36.2970   23.8910 C   0  0  0  0  0  3  0  0  0  0  0  0
  -27.6050  -37.0960   24.7040 C   0  0  0  0  0  1  0  0  0  0  0  0
  -26.4800  -37.3350   23.8030 N   0  0  0  0  0  0  0  0  0  0  0  0
  -26.0980  -38.2540   24.0080 H   0  0  0  0  0  0  0  0  0  0  0  0
  -26.4070  -31.6280   24.8770 C   0  0  1  0  0  0  0  0  0  0  0  0
  -25.3840  -31.3640   26.0040 C   0  0  0  0  0  1  0  0  0  0  0  0
  -26.9420  -30.2610   24.3880 C   0  0  0  0  0  1  0  0  0  0  0  0
  -27.6110  -32.3820   25.4910 C   0  0  0  0  0  1  0  0  0  0  0  0
  -32.8410  -21.4870   25.2690 C   0  0  0  0  0  1  0  0  0  0  0  0
  -32.6470  -20.9910   23.8310 C   0  0  0  0  0  2  0  0  0  0  0  0
  1  3  1  0
  1  5  1  0
  3 16  1  0
  3  4  1  0
  4  2  1  0
  4 99  1  0
  5 52  1  0
  5  2  1  0
  6 20  1  0
  7 12  1  0
  8  9  1  0
  8  7  1  0
 10  9  1  0
 10 25  1  0
 10 11  1  0
 12  6  1  0
 12 11  1  0
 13  6  2  0
 15 14  1  0
 16 14  2  0
 17 16  1  0
 18 15  2  0
 19 17  2  0
 19 18  1  0
 20 18  1  0
 20 21  1  0
 22 23  2  0
 23 42  1  0
 24 23  1  0
 24 27  1  0
 25 26  1  0
 25 22  1  0
 26 24  2  0
 27 28  1  0
 28 29  2  0
 30 33  1  0
 30 29  1  0
 31 30  2  0
 32 31  1  0
 32 27  2  0
 33 34  1  0
 34 39  2  0
 34 35  1  0
 35 36  2  0
 37 36  1  0
 37 41  1  0
 38 37  2  0
 39 38  1  0
 40 39  1  0
 42 43  1  0
 43 46  1  0
 43 45  1  0
 44 42  2  0
 47 22  1  0
 47 48  1  0
 49 47  1  0
 50 51  1  0
 51 17  1  0
 52 54  1  0
 53 52  1  0
 55 52  1  0
 56 55  1  0
 57 59  1  0
 57 56  1  0
 58 69  2  0
 59 64  1  0
 60 68  1  0
 60 70  1  0
 61 67  1  0
 61 63  1  0
 62 68  1  0
 63 62  1  0
 64 63  2  0
 65 66  1  0
 65 59  2  0
 66 61  2  0
 67 60  1  0
 68 58  1  0
 70 72  2  0
 71 70  1  0
 73 71  1  0
 74 83  2  0
 74 79  1  0
 75 71  1  0
 75 79  1  0
 76 75  1  0
 77 78  1  0
 77 76  1  0
 78 74  1  0
 79 80  2  0
 80 81  1  0
 82 81  2  0
 83 82  1  0
 84 58  1  0
 84 85  1  0
 84 94  1  0
 85 88  1  0
 86 90  1  0
 86 85  1  0
 87 86  2  0
 90 89  1  0
 92 90  1  0
 92 93  1  0
 92 91  1  0
 94 97  1  1
 94 95  1  0
 96 94  1  0
 99 98  1  0
M  ISO  4   6 100  20 100  56 101  57 101
M  END
>  <TORSDO>  (49) 
F 21

>  <SCORE>  (49) 
-10.831

>  <name>  (49) 
49

>  <ligand_id>  (49) 
49

>  <original_smiles>  (49) 
[H]c1c(N([H])C(=O)N2C([H])([H])C([H])([H])C([H])([H])C([H])(n3nc(-c4c([H])c([H])c(Oc5c([H])c([H])c(F)c([H])c5F)c([H])c4[H])c(C(=O)N([H])[H])c3N([H])[H])C2([H])[H])nc(C([H])([H])C([H])([H])[H])c(C2([H])C([H])([H])C([H])([N+]([H])([H])C([H])([H])C([H])([H])Oc3c([H])c([H])c4c(c3[H])C([H])([H])N(C(=O)C([H])(N([H])C(=O)C([H])(N([H])C([H])([H])[H])C([H])([H])[H])C(C([H])([H])[H])(C([H])([H])[H])C([H])([H])[H])C([H])(C(=O)N([H])C3([H])c5c([H])c([H])c([H])c([H])c5C([H])([H])C([H])([H])C3([H])[H])C4([H])[H])C([H])([H])C2([H])C([H])([H])C([H])([H])[H])c1[H]

>  <smiles>  (49) 
[H]c1c(N([H])C(=O)N2C([H])([H])C([H])([H])C([H])([H])C([H])(n3nc(-c4c([H])c([H])c(Oc5c([H])c([H])c(F)c([H])c5F)c([H])c4[H])c(C(=O)N([H])[H])c3N([H])[H])C2([H])[H])nc(C([H])([H])C([H])([H])[H])c(C2([H])C([H])([H])C([H])([N+]([H])([H])C([H])([H])C([H])([H])Oc3c([H])c([H])c4c(c3[H])C([H])([H])N(C(=O)C([H])(N([H])C(=O)C([H])(N([H])C([H])([H])[H])C([H])([H])[H])C(C([H])([H])[H])(C([H])([H])[H])C([H])([H])[H])C([H])(C(=O)N([H])C3([H])c5c([H])c([H])c([H])c([H])c5C([H])([H])C([H])([H])C3([H])[H])C4([H])[H])C([H])([H])C2([H])C([H])([H])C([H])([H])[H])c1[H]

$$$$
50:0:0
     RDKit          3D

103112  0  0  1  0  0  0  0  0999 V2000
  -29.8820  -18.9480   16.8180 C   0  0  0  0  0  2  0  0  0  0  0  0
  -29.2670  -20.5390   18.5000 C   0  0  0  0  0  3  0  0  0  0  0  0
  -29.8010  -20.4620   17.0660 C   0  0  0  0  0  3  0  0  0  0  0  0
  -29.9060  -19.3070   19.1920 C   0  0  0  0  0  3  0  0  0  0  0  0
  -28.9520  -21.2220   16.0310 C   0  0  0  0  0  1  0  0  0  0  0  0
  -30.0980  -18.2940   18.1370 N   0  0  2  0  0  4  0  0  0  0  0  0
  -29.3230  -17.6590   18.2860 H   0  0  0  0  0  0  0  0  0  0  0  0
  -30.9540  -22.1790   19.4390 C   0  0  0  0  0  3  0  0  0  0  0  0
  -31.3120  -23.3450   20.1280 C   0  0  0  0  0  3  0  0  0  0  0  0
  -28.9600  -23.9120   20.3700 C   0  0  0  0  0  3  0  0  0  0  0  0
  -29.5960  -21.8580   19.2050 C   0  0  0  0  0  0  0  0  0  0  0  0
  -28.5890  -22.7610   19.6440 C   0  0  0  0  0  0  0  0  0  0  0  0
  -30.3170  -24.2130   20.6010 C   0  0  0  0  0  0  0  0  0  0  0  0
  -27.1160  -22.5460   19.3310 C   0  0  0  0  0  1  0  0  0  0  0  0
  -30.6880  -25.3510   21.2600 O   0  0  0  0  0  0  0  0  0  0  0  0
  -30.8560  -26.4680   20.3940 C   0  0  0  0  0  2  0  0  0  0  0  0
  -29.6690  -27.4160   20.5580 C   0  0  0  0  0  2  0  0  0  0  0  0
  -28.5290  -26.9080   19.8670 O   0  0  0  0  0  0  0  0  0  0  0  0
  -24.6670  -31.8610   23.2300 C   0  0  0  0  0  0  0  0  0  0  0  0
  -27.3590  -27.6250   19.9680 C   0  0  0  0  0  0  0  0  0  0  0  0
  -23.4530  -30.5040   21.5490 C   0  0  0  0  0  3  0  0  0  0  0  0
  -24.9110  -29.0360   20.0560 C   0  0  0  0  0  0  0  0  0  0  0  0
  -25.9590  -30.9220   21.3270 C   0  0  0  0  0  2  0  0  0  0  0  0
  -26.0550  -29.5760   20.6510 C   0  0  0  0  0  0  0  0  0  0  0  0
  -27.2750  -28.8810   20.6110 C   0  0  0  0  0  3  0  0  0  0  0  0
  -26.1970  -27.0820   19.3800 C   0  0  0  0  0  3  0  0  0  0  0  0
  -24.9730  -27.7820   19.4180 C   0  0  0  0  0  3  0  0  0  0  0  0
  -23.6500  -29.8650   20.1440 C   0  0  0  0  0  2  0  0  0  0  0  0
  -24.7110  -31.1080   22.0970 N   0  0  0  0  0  0  0  0  0  0  0  0
  -23.5910  -32.1020   23.7960 O   0  0  0  0  0  0  0  0  0  0  0  0
  -22.8300  -29.4430   22.4820 C   0  0  0  0  0  0  0  0  0  0  0  0
  -21.5070  -29.2470   22.3570 N   0  0  0  0  0  0  0  0  0  0  0  0
  -23.5300  -28.7990   23.2690 O   0  0  0  0  0  0  0  0  0  0  0  0
  -21.0050  -29.8170   21.6920 H   0  0  0  0  0  0  0  0  0  0  0  0
  -18.1530  -27.9970   22.8230 C   0  0  0  0  0  0  0  0  0  0  0  0
  -20.7090  -28.2740   23.0990 C   0  0  0  0  0  3  0  0  0  0  0  0
  -20.8270  -26.8650   22.4750 C   0  0  0  0  0  2  0  0  0  0  0  0
  -19.7270  -26.5610   21.4550 C   0  0  0  0  0  2  0  0  0  0  0  0
  -18.3440  -26.6710   22.1050 C   0  0  0  0  0  2  0  0  0  0  0  0
  -19.2640  -28.7560   23.2760 C   0  0  0  0  0  0  0  0  0  0  0  0
  -19.0320  -30.0000   23.9030 C   0  0  0  0  0  3  0  0  0  0  0  0
  -17.7230  -30.4820   24.0840 C   0  0  0  0  0  3  0  0  0  0  0  0
  -16.6270  -29.7160   23.6520 C   0  0  0  0  0  3  0  0  0  0  0  0
  -16.8420  -28.4770   23.0240 C   0  0  0  0  0  3  0  0  0  0  0  0
  -25.9560  -32.4790   23.8570 C   0  0  0  0  0  3  0  0  0  0  0  0
  -25.6500  -33.8690   24.2210 N   0  0  0  0  0  0  0  0  0  0  0  0
  -25.9790  -34.9370   23.4840 C   0  0  0  0  0  0  0  0  0  0  0  0
  -26.6470  -34.8590   22.4480 O   0  0  0  0  0  0  0  0  0  0  0  0
  -25.0620  -34.0060   25.0300 H   0  0  0  0  0  0  0  0  0  0  0  0
  -24.2560  -36.7340   23.1570 C   0  0  0  0  0  1  0  0  0  0  0  0
  -25.4880  -36.3140   23.9730 C   0  0  0  0  0  3  0  0  0  0  0  0
  -27.6160  -37.1690   24.8470 C   0  0  0  0  0  1  0  0  0  0  0  0
  -26.5190  -37.3710   23.9050 N   0  0  0  0  0  0  0  0  0  0  0  0
  -26.1100  -38.2810   24.0880 H   0  0  0  0  0  0  0  0  0  0  0  0
  -26.4880  -31.6770   25.1090 C   0  0  1  0  0  0  0  0  0  0  0  0
  -25.4040  -31.3960   26.1760 C   0  0  0  0  0  1  0  0  0  0  0  0
  -27.0790  -30.3180   24.6650 C   0  0  0  0  0  1  0  0  0  0  0  0
  -27.6350  -32.4620   25.7850 C   0  0  0  0  0  1  0  0  0  0  0  0
  -28.9140  -19.5810   21.5620 C   0  0  0  0  0  1  0  0  0  0  0  0
  -29.0960  -18.6680   20.3440 C   0  0  0  0  0  3  0  0  0  0  0  0
  -27.8440  -18.1960   19.8730 O   0  0  0  0  0  0  0  0  0  0  0  0
  -27.2110  -18.9050   19.9240 H   0  0  0  0  0  0  0  0  0  0  0  0
  -31.3580  -17.5100   18.2630 C   0  0  0  0  0  2  0  0  0  0  0  0
  -32.3850  -15.2820   17.6230 C   0  0  0  0  0  1  0  0  0  0  0  0
  -31.1080  -15.9960   18.1360 C   0  0  0  0  0  3  0  0  0  0  0  0
  -31.0910  -14.6430   20.2870 C   0  0  0  0  0  0  0  0  0  0  0  0
  -30.7900  -12.3860   19.5450 C   0  0  0  0  0  2  0  0  0  0  0  0
  -29.9010  -12.4890   18.2840 C   0  0  0  0  0  2  0  0  0  0  0  0
  -28.4100  -12.4660   18.6610 C   0  0  0  0  0  2  0  0  0  0  0  0
  -28.0330  -13.4090   19.8360 C   0  0  0  0  0  3  0  0  0  0  0  0
  -29.0620  -13.3250   20.9910 C   0  0  0  0  0  2  0  0  0  0  0  0
  -30.4190  -13.4810   20.4390 N   0  0  0  0  0  0  0  0  0  0  0  0
  -32.2970  -14.7810   20.4590 O   0  0  0  0  0  0  0  0  0  0  0  0
  -30.4870  -15.3950   19.3480 N   0  0  0  0  0  0  0  0  0  0  0  0
  -29.5200  -15.1370   19.2290 H   0  0  0  0  0  0  0  0  0  0  0  0
  -25.6300  -14.0590   20.4840 C   0  0  0  0  0  0  0  0  0  0  0  0
  -24.5370  -13.3060   20.8220 C   0  0  0  0  0  0  0  0  0  0  0  0
  -24.9800  -11.9470   20.8180 C   0  0  0  0  0  0  0  0  0  0  0  0
  -26.6680  -13.1610   20.2940 N   0  0  0  0  0  0  0  0  0  0  0  0
  -26.2800  -11.8870   20.5600 N   0  0  0  0  0  0  0  0  0  0  0  0
  -24.2290  -10.6960   20.9860 C   0  0  0  0  0  0  0  0  0  0  0  0
  -24.5880   -9.7450   21.9670 C   0  0  0  0  0  3  0  0  0  0  0  0
  -23.8380   -8.5600   22.1210 C   0  0  0  0  0  3  0  0  0  0  0  0
  -22.7130   -8.3190   21.2980 C   0  0  0  0  0  0  0  0  0  0  0  0
  -22.3760   -9.2560   20.3050 C   0  0  0  0  0  3  0  0  0  0  0  0
  -23.1270  -10.4320   20.1470 C   0  0  0  0  0  3  0  0  0  0  0  0
  -21.9420   -7.1820   21.3640 O   0  0  0  0  0  0  0  0  0  0  0  0
  -21.7720   -6.4950   22.5390 C   0  0  0  0  0  0  0  0  0  0  0  0
  -21.2000   -7.0970   23.6810 C   0  0  0  0  0  3  0  0  0  0  0  0
  -20.9810   -6.3320   24.8450 C   0  0  0  0  0  3  0  0  0  0  0  0
  -21.3260   -4.9680   24.8650 C   0  0  0  0  0  0  0  0  0  0  0  0
  -21.8910   -4.3660   23.7280 C   0  0  0  0  0  3  0  0  0  0  0  0
  -22.1120   -5.1270   22.5670 C   0  0  0  0  0  0  0  0  0  0  0  0
  -22.6380   -4.5360   21.4670 F   0  0  0  0  0  0  0  0  0  0  0  0
  -21.1050   -4.2320   25.9790 F   0  0  0  0  0  0  0  0  0  0  0  0
  -23.1380  -13.8050   21.0390 C   0  0  0  0  0  0  0  0  0  0  0  0
  -22.3730  -13.1260   21.8860 N   0  0  0  0  0  0  0  0  0  0  0  0
  -22.7310  -14.8300   20.4930 O   0  0  0  0  0  0  0  0  0  0  0  0
  -22.7070  -12.2900   22.3430 H   0  0  0  0  0  0  0  0  0  0  0  0
  -21.4340  -13.4410   22.0770 H   0  0  0  0  0  0  0  0  0  0  0  0
  -25.8200  -15.4270   20.2990 N   0  0  0  0  0  0  0  0  0  0  0  0
  -25.0640  -16.0960   20.3970 H   0  0  0  0  0  0  0  0  0  0  0  0
  -26.6910  -15.8660   20.0320 H   0  0  0  0  0  0  0  0  0  0  0  0
  1  3  1  0
  1  6  1  0
  2  4  1  0
  2 11  1  0
  3  5  1  0
  3  2  1  0
  4 60  1  0
  6 63  1  0
  6  7  1  1
  6  4  1  0
  8  9  1  0
  9 13  2  0
 10 13  1  0
 11  8  2  0
 11 12  1  0
 12 10  2  0
 13 15  1  0
 14 12  1  0
 16 17  1  0
 16 15  1  0
 18 20  1  0
 18 17  1  0
 19 30  2  0
 20 25  1  0
 21 29  1  0
 21 31  1  0
 22 28  1  0
 22 24  1  0
 23 29  1  0
 24 23  1  0
 25 24  2  0
 26 27  1  0
 26 20  2  0
 27 22  2  0
 28 21  1  0
 29 19  1  0
 31 33  2  0
 32 31  1  0
 34 32  1  0
 35 44  2  0
 35 40  1  0
 36 32  1  0
 36 40  1  0
 37 36  1  0
 38 39  1  0
 38 37  1  0
 39 35  1  0
 40 41  2  0
 41 42  1  0
 43 42  2  0
 44 43  1  0
 45 19  1  0
 45 46  1  0
 45 55  1  0
 46 49  1  0
 47 51  1  0
 47 46  1  0
 48 47  2  0
 51 50  1  0
 53 51  1  0
 53 54  1  0
 53 52  1  0
 55 58  1  1
 55 56  1  0
 57 55  1  0
 60 59  1  0
 61 62  1  0
 61 60  1  0
 65 64  1  0
 65 63  1  0
 65 74  1  0
 66 72  1  0
 66 73  2  0
 67 72  1  0
 68 69  1  0
 68 67  1  0
 70 69  1  0
 70 79  1  0
 70 71  1  0
 72 71  1  0
 74 66  1  0
 75 74  1  0
 76 77  2  0
 77 96  1  0
 78 77  1  0
 78 81  1  0
 79 76  1  0
 79 80  1  0
 80 78  2  0
 81 82  1  0
 82 83  2  0
 84 87  1  0
 84 83  1  0
 85 84  2  0
 86 85  1  0
 86 81  2  0
 87 88  1  0
 88 93  2  0
 88 89  1  0
 89 90  2  0
 90 91  1  0
 91 95  1  0
 92 91  2  0
 93 92  1  0
 94 93  1  0
 96 97  1  0
 97100  1  0
 97 99  1  0
 98 96  2  0
101102  1  0
101 76  1  0
103101  1  0
M  ISO  4  17 101  18 101  66 100  74 100
M  END
>  <TORSDO>  (50) 
F 24

>  <SCORE>  (50) 
-11.596

>  <name>  (50) 
50

>  <ligand_id>  (50) 
50

>  <original_smiles>  (50) 
[H]OC([H])(C([H])([H])[H])C1([H])C([H])(c2c([H])c([H])c(OC([H])([H])C([H])([H])Oc3c([H])c([H])c4c(c3[H])C([H])([H])N(C(=O)C([H])(N([H])C(=O)C([H])(N([H])C([H])([H])[H])C([H])([H])[H])C(C([H])([H])[H])(C([H])([H])[H])C([H])([H])[H])C([H])(C(=O)N([H])C3([H])c5c([H])c([H])c([H])c([H])c5C([H])([H])C([H])([H])C3([H])[H])C4([H])[H])c([H])c2C([H])([H])[H])C([H])(C([H])([H])[H])C([H])([H])[N+]1([H])C([H])([H])C([H])(N([H])C(=O)N1C([H])([H])C([H])([H])C([H])([H])C([H])(n2nc(-c3c([H])c([H])c(Oc4c([H])c([H])c(F)c([H])c4F)c([H])c3[H])c(C(=O)N([H])[H])c2N([H])[H])C1([H])[H])C([H])([H])[H]

>  <smiles>  (50) 
[H]OC([H])(C([H])([H])[H])C1([H])C([H])(c2c([H])c([H])c(OC([H])([H])C([H])([H])Oc3c([H])c([H])c4c(c3[H])C([H])([H])N(C(=O)C([H])(N([H])C(=O)C([H])(N([H])C([H])([H])[H])C([H])([H])[H])C(C([H])([H])[H])(C([H])([H])[H])C([H])([H])[H])C([H])(C(=O)N([H])C3([H])c5c([H])c([H])c([H])c([H])c5C([H])([H])C([H])([H])C3([H])[H])C4([H])[H])c([H])c2C([H])([H])[H])C([H])(C([H])([H])[H])C([H])([H])[N+]1([H])C([H])([H])C([H])(N([H])C(=O)N1C([H])([H])C([H])([H])C([H])([H])C([H])(n2nc(-c3c([H])c([H])c(Oc4c([H])c([H])c(F)c([H])c4F)c([H])c3[H])c(C(=O)N([H])[H])c2N([H])[H])C1([H])[H])C([H])([H])[H]

$$$$
51:0:0
     RDKit          3D

102111  0  0  1  0  0  0  0  0999 V2000
  -30.1970  -22.5060   23.3740 C   0  0  0  0  0  3  0  0  0  0  0  0
  -29.8280  -22.0040   20.6490 C   0  0  0  0  0  3  0  0  0  0  0  0
  -30.4510  -21.2090   22.8810 C   0  0  0  0  0  0  0  0  0  0  0  0
  -29.8200  -23.5600   22.5270 C   0  0  0  0  0  0  0  0  0  0  0  0
  -30.2950  -20.9500   21.4840 C   0  0  0  0  0  0  0  0  0  0  0  0
  -29.6080  -23.3160   21.1540 C   0  0  0  0  0  0  0  0  0  0  0  0
  -30.9450  -20.1930   23.8780 C   0  0  0  0  0  0  0  0  0  0  0  0
  -30.1410  -19.9790   24.9160 N   0  0  0  0  0  0  0  0  0  0  0  0
  -32.0210  -19.6070   23.7500 O   0  0  0  0  0  0  0  0  0  0  0  0
  -29.2600  -20.4670   24.9740 H   0  0  0  0  0  0  0  0  0  0  0  0
  -30.3960  -19.3250   25.6430 H   0  0  0  0  0  0  0  0  0  0  0  0
  -30.7090  -19.7420   20.8790 N   0  0  0  0  0  0  0  0  0  0  0  0
  -31.6170  -19.4620   21.2440 H   0  0  0  0  0  0  0  0  0  0  0  0
  -30.3460  -14.6160   20.1220 C   0  0  0  0  0  0  0  0  0  0  0  0
  -30.1860  -12.3580   19.1480 C   0  0  0  0  0  2  0  0  0  0  0  0
  -29.1790  -12.4030   17.9790 C   0  0  0  0  0  2  0  0  0  0  0  0
  -27.7370  -12.1910   18.4810 C   0  0  0  0  0  2  0  0  0  0  0  0
  -27.3890  -13.0870   19.7000 C   0  0  0  0  0  3  0  0  0  0  0  0
  -28.5020  -13.0200   20.7700 C   0  0  0  0  0  2  0  0  0  0  0  0
  -29.7740  -13.3810   20.1200 N   0  0  0  0  0  0  0  0  0  0  0  0
  -31.4340  -14.8480   19.5850 O   0  0  0  0  0  0  0  0  0  0  0  0
  -30.2610  -17.5130   21.8900 C   0  0  0  0  0  2  0  0  0  0  0  0
  -29.8090  -17.9240   19.4610 C   0  0  0  0  0  2  0  0  0  0  0  0
  -29.4570  -16.1980   21.8010 C   0  0  0  0  0  2  0  0  0  0  0  0
  -29.0320  -16.5860   19.4320 C   0  0  0  0  0  2  0  0  0  0  0  0
  -29.8140  -18.5800   20.8600 C   0  0  0  0  0  3  0  0  0  0  0  0
  -29.5090  -15.6340   20.4490 N   0  0  0  0  0  0  0  0  0  0  0  0
  -25.0260  -13.5830   20.5920 C   0  0  0  0  0  0  0  0  0  0  0  0
  -24.0110  -12.7610   21.0010 C   0  0  0  0  0  0  0  0  0  0  0  0
  -24.5120  -11.4280   20.8820 C   0  0  0  0  0  0  0  0  0  0  0  0
  -26.0810  -12.7480   20.2570 N   0  0  0  0  0  0  0  0  0  0  0  0
  -25.7780  -11.4440   20.4870 N   0  0  0  0  0  0  0  0  0  0  0  0
  -23.8400  -10.1340   21.0670 C   0  0  0  0  0  0  0  0  0  0  0  0
  -24.3190   -9.1800   21.9900 C   0  0  0  0  0  3  0  0  0  0  0  0
  -23.6470   -7.9510   22.1640 C   0  0  0  0  0  3  0  0  0  0  0  0
  -22.4800   -7.6690   21.4140 C   0  0  0  0  0  0  0  0  0  0  0  0
  -22.0210   -8.6130   20.4790 C   0  0  0  0  0  3  0  0  0  0  0  0
  -22.6950   -9.8340   20.3030 C   0  0  0  0  0  3  0  0  0  0  0  0
  -21.7740   -6.4930   21.4980 O   0  0  0  0  0  0  0  0  0  0  0  0
  -21.6890   -5.7880   22.6720 C   0  0  0  0  0  0  0  0  0  0  0  0
  -21.1530   -6.3600   23.8470 C   0  0  0  0  0  3  0  0  0  0  0  0
  -21.0200   -5.5770   25.0120 C   0  0  0  0  0  3  0  0  0  0  0  0
  -21.4090   -4.2250   25.0010 C   0  0  0  0  0  0  0  0  0  0  0  0
  -21.9360   -3.6530   23.8310 C   0  0  0  0  0  3  0  0  0  0  0  0
  -22.0730   -4.4320   22.6690 C   0  0  0  0  0  0  0  0  0  0  0  0
  -22.5610   -3.8700   21.5370 F   0  0  0  0  0  0  0  0  0  0  0  0
  -21.2750   -3.4720   26.1180 F   0  0  0  0  0  0  0  0  0  0  0  0
  -22.6210  -13.1780   21.3890 C   0  0  0  0  0  0  0  0  0  0  0  0
  -21.9860  -12.4350   22.2890 N   0  0  0  0  0  0  0  0  0  0  0  0
  -22.1080  -14.1980   20.9320 O   0  0  0  0  0  0  0  0  0  0  0  0
  -22.4130  -11.6090   22.6800 H   0  0  0  0  0  0  0  0  0  0  0  0
  -21.0560  -12.6940   22.5880 H   0  0  0  0  0  0  0  0  0  0  0  0
  -25.1370  -14.9640   20.4560 N   0  0  0  0  0  0  0  0  0  0  0  0
  -24.3680  -15.5970   20.6450 H   0  0  0  0  0  0  0  0  0  0  0  0
  -25.9600  -15.4350   20.1010 H   0  0  0  0  0  0  0  0  0  0  0  0
  -29.6770  -24.9630   23.1020 C   0  0  0  0  0  2  0  0  0  0  0  0
  -30.2130  -27.4440   22.7650 C   0  0  0  0  0  1  0  0  0  0  0  0
  -30.4810  -26.0060   22.3050 C   0  0  0  0  0  2  0  0  0  0  0  0
  -29.3170  -24.4030   20.3510 O   0  0  0  0  0  0  0  0  0  0  0  0
  -28.1690  -24.3420   19.5070 C   0  0  0  0  0  2  0  0  0  0  0  0
  -27.1080  -25.3920   19.9240 C   0  0  0  0  0  2  0  0  0  0  0  0
  -27.2940  -26.7200   19.3740 O   0  0  0  0  0  0  0  0  0  0  0  0
  -24.4090  -31.8830   23.3710 C   0  0  0  0  0  0  0  0  0  0  0  0
  -26.2280  -27.5780   19.5740 C   0  0  0  0  0  0  0  0  0  0  0  0
  -22.8870  -30.7590   21.7820 C   0  0  0  0  0  3  0  0  0  0  0  0
  -24.0080  -29.2770   20.0340 C   0  0  0  0  0  0  0  0  0  0  0  0
  -25.3930  -30.9360   21.2850 C   0  0  0  0  0  2  0  0  0  0  0  0
  -25.2740  -29.6350   20.5140 C   0  0  0  0  0  0  0  0  0  0  0  0
  -26.3890  -28.7940   20.2820 C   0  0  0  0  0  3  0  0  0  0  0  0
  -24.9470  -27.2560   19.0700 C   0  0  0  0  0  3  0  0  0  0  0  0
  -23.8390  -28.0880   19.3080 C   0  0  0  0  0  3  0  0  0  0  0  0
  -22.8610  -30.2190   20.3260 C   0  0  0  0  0  2  0  0  0  0  0  0
  -24.2560  -31.1990   22.2020 N   0  0  0  0  0  0  0  0  0  0  0  0
  -23.4320  -32.1840   24.0710 O   0  0  0  0  0  0  0  0  0  0  0  0
  -22.2700  -29.6970   22.7190 C   0  0  0  0  0  0  0  0  0  0  0  0
  -20.9500  -29.4850   22.5970 N   0  0  0  0  0  0  0  0  0  0  0  0
  -22.9750  -29.0660   23.5100 O   0  0  0  0  0  0  0  0  0  0  0  0
  -20.4420  -30.0430   21.9230 H   0  0  0  0  0  0  0  0  0  0  0  0
  -17.6550  -28.0370   22.9270 C   0  0  0  0  0  0  0  0  0  0  0  0
  -20.1610  -28.5090   23.3480 C   0  0  0  0  0  3  0  0  0  0  0  0
  -20.4160  -27.0750   22.8290 C   0  0  0  0  0  2  0  0  0  0  0  0
  -19.4090  -26.6340   21.7610 C   0  0  0  0  0  2  0  0  0  0  0  0
  -17.9800  -26.6870   22.3110 C   0  0  0  0  0  2  0  0  0  0  0  0
  -18.6800  -28.9000   23.3990 C   0  0  0  0  0  0  0  0  0  0  0  0
  -18.3260  -30.1590   23.9300 C   0  0  0  0  0  3  0  0  0  0  0  0
  -16.9780  -30.5590   23.9960 C   0  0  0  0  0  3  0  0  0  0  0  0
  -15.9650  -29.6950   23.5440 C   0  0  0  0  0  3  0  0  0  0  0  0
  -16.3050  -28.4370   23.0140 C   0  0  0  0  0  3  0  0  0  0  0  0
  -25.8140  -32.3450   23.8690 C   0  0  0  0  0  3  0  0  0  0  0  0
  -25.6970  -33.7500   24.2840 N   0  0  0  0  0  0  0  0  0  0  0  0
  -26.0900  -34.7950   23.5420 C   0  0  0  0  0  0  0  0  0  0  0  0
  -26.6620  -34.6690   22.4560 O   0  0  0  0  0  0  0  0  0  0  0  0
  -25.1900  -33.9300   25.1370 H   0  0  0  0  0  0  0  0  0  0  0  0
  -24.5620  -36.7860   23.3980 C   0  0  0  0  0  1  0  0  0  0  0  0
  -25.8040  -36.2050   24.0940 C   0  0  0  0  0  3  0  0  0  0  0  0
  -28.0820  -36.7950   24.7900 C   0  0  0  0  0  1  0  0  0  0  0  0
  -26.9410  -37.1370   23.9440 N   0  0  0  0  0  0  0  0  0  0  0  0
  -26.6590  -38.0890   24.1630 H   0  0  0  0  0  0  0  0  0  0  0  0
  -26.3750  -31.4580   25.0500 C   0  0  1  0  0  0  0  0  0  0  0  0
  -25.3670  -31.2550   26.2040 C   0  0  0  0  0  1  0  0  0  0  0  0
  -26.7900  -30.0600   24.5340 C   0  0  0  0  0  1  0  0  0  0  0  0
  -27.6530  -32.1070   25.6310 C   0  0  0  0  0  1  0  0  0  0  0  0
  2  6  2  0
  2  5  1  0
  3  1  1  0
  3  7  1  0
  4 56  1  0
  4  1  2  0
  5  3  2  0
  6  4  1  0
  7  8  1  0
  8 10  1  0
  8 11  1  0
  9  7  2  0
 12 13  1  0
 12  5  1  0
 14 27  1  0
 15 20  1  0
 16 17  1  0
 16 15  1  0
 18 17  1  0
 18 31  1  0
 18 19  1  0
 20 14  1  0
 20 19  1  0
 21 14  2  0
 23 26  1  0
 24 22  1  0
 25 23  1  0
 25 27  1  0
 26 12  1  0
 26 22  1  0
 27 24  1  0
 28 29  2  0
 29 48  1  0
 30 29  1  0
 30 33  1  0
 31 32  1  0
 31 28  1  0
 32 30  2  0
 33 34  1  0
 34 35  2  0
 36 39  1  0
 36 35  1  0
 37 36  2  0
 38 37  1  0
 38 33  2  0
 39 40  1  0
 40 41  1  0
 41 42  2  0
 43 42  1  0
 43 47  1  0
 44 43  2  0
 45 40  2  0
 45 44  1  0
 46 45  1  0
 48 49  1  0
 49 52  1  0
 49 51  1  0
 50 48  2  0
 53 28  1  0
 53 54  1  0
 55 53  1  0
 58 57  1  0
 58 56  1  0
 59  6  1  0
 60 61  1  0
 60 59  1  0
 62 64  1  0
 62 61  1  0
 63 74  2  0
 64 69  1  0
 65 73  1  0
 65 75  1  0
 66 72  1  0
 66 68  1  0
 67 73  1  0
 68 67  1  0
 69 68  2  0
 70 71  1  0
 70 64  2  0
 71 66  2  0
 72 65  1  0
 73 63  1  0
 75 77  2  0
 76 75  1  0
 78 76  1  0
 79 88  2  0
 79 84  1  0
 80 76  1  0
 80 84  1  0
 81 80  1  0
 82 83  1  0
 82 81  1  0
 83 79  1  0
 84 85  2  0
 85 86  1  0
 87 86  2  0
 88 87  1  0
 89 63  1  0
 89 90  1  0
 89 99  1  0
 90 93  1  0
 91 95  1  0
 91 90  1  0
 92 91  2  0
 95 94  1  0
 97 95  1  0
 97 98  1  0
 97 96  1  0
 99102  1  1
 99100  1  0
101 99  1  0
M  ISO  4  14 100  27 100  61 101  62 101
M  END
>  <TORSDO>  (51) 
F 23

>  <SCORE>  (51) 
-11.556

>  <name>  (51) 
51

>  <ligand_id>  (51) 
51

>  <original_smiles>  (51) 
[H]c1c([H])c([H])c2c(c1[H])C([H])([H])C([H])([H])C([H])([H])C2([H])N([H])C(=O)C1([H])N(C(=O)C([H])(N([H])C(=O)C([H])(N([H])C([H])([H])[H])C([H])([H])[H])C(C([H])([H])[H])(C([H])([H])[H])C([H])([H])[H])C([H])([H])c2c([H])c(OC([H])([H])C([H])([H])Oc3c([H])c(N([H])C4([H])C([H])([H])C([H])([H])N(C(=O)N5C([H])([H])C([H])([H])C([H])([H])C([H])(n6nc(-c7c([H])c([H])c(Oc8c([H])c([H])c(F)c([H])c8F)c([H])c7[H])c(C(=O)N([H])[H])c6N([H])[H])C5([H])[H])C([H])([H])C4([H])[H])c(C(=O)N([H])[H])c([H])c3C([H])([H])C([H])([H])C([H])([H])[H])c([H])c([H])c2C1([H])[H]

>  <smiles>  (51) 
[H]c1c([H])c([H])c2c(c1[H])C([H])([H])C([H])([H])C([H])([H])C2([H])N([H])C(=O)C1([H])N(C(=O)C([H])(N([H])C(=O)C([H])(N([H])C([H])([H])[H])C([H])([H])[H])C(C([H])([H])[H])(C([H])([H])[H])C([H])([H])[H])C([H])([H])c2c([H])c(OC([H])([H])C([H])([H])Oc3c([H])c(N([H])C4([H])C([H])([H])C([H])([H])N(C(=O)N5C([H])([H])C([H])([H])C([H])([H])C([H])(n6nc(-c7c([H])c([H])c(Oc8c([H])c([H])c(F)c([H])c8F)c([H])c7[H])c(C(=O)N([H])[H])c6N([H])[H])C5([H])[H])C([H])([H])C4([H])[H])c(C(=O)N([H])[H])c([H])c3C([H])([H])C([H])([H])C([H])([H])[H])c([H])c([H])c2C1([H])[H]

$$$$
52:0:0
     RDKit          3D

 98107  0  0  1  0  0  0  0  0999 V2000
  -31.2800  -20.2310   20.0710 C   0  0  0  0  0  3  0  0  0  0  0  0
  -31.2000  -21.6070   19.7790 C   0  0  0  0  0  3  0  0  0  0  0  0
  -28.8720  -21.3370   19.1510 C   0  0  0  0  0  3  0  0  0  0  0  0
  -28.9430  -19.9470   19.4250 C   0  0  0  0  0  0  0  0  0  0  0  0
  -30.1620  -19.3830   19.8940 C   0  0  0  0  0  0  0  0  0  0  0  0
  -29.9980  -22.1720   19.3170 C   0  0  0  0  0  0  0  0  0  0  0  0
  -26.9000  -19.1180   17.9320 C   0  0  0  0  0  2  0  0  0  0  0  0
  -27.7100  -19.1060   19.2170 C   0  0  0  0  0  3  0  0  0  0  0  0
  -27.7290  -17.9100   18.2890 C   0  0  0  0  0  3  0  0  0  0  0  0
  -27.0040  -16.8130   18.8090 O   0  0  0  0  0  0  0  0  0  0  0  0
  -27.0130  -16.1230   18.1400 H   0  0  0  0  0  0  0  0  0  0  0  0
  -30.2440  -17.9990   20.1630 N   0  0  0  0  0  0  0  0  0  0  0  0
  -29.3890  -17.4740   20.3310 H   0  0  0  0  0  0  0  0  0  0  0  0
  -31.5020  -17.3570   20.5440 C   0  0  0  0  0  2  0  0  0  0  0  0
  -30.6350  -16.6980   22.8780 C   0  0  0  0  0  1  0  0  0  0  0  0
  -31.3020  -16.2190   21.5740 C   0  0  0  0  0  3  0  0  0  0  0  0
  -30.9750  -14.2360   20.0610 C   0  0  0  0  0  0  0  0  0  0  0  0
  -30.5810  -12.0400   18.9870 C   0  0  0  0  0  2  0  0  0  0  0  0
  -29.5780  -12.1260   17.8240 C   0  0  0  0  0  2  0  0  0  0  0  0
  -28.1310  -12.0100   18.3370 C   0  0  0  0  0  2  0  0  0  0  0  0
  -27.8500  -12.9680   19.5250 C   0  0  0  0  0  3  0  0  0  0  0  0
  -28.9470  -12.8380   20.6020 C   0  0  0  0  0  2  0  0  0  0  0  0
  -30.2530  -13.0900   19.9640 N   0  0  0  0  0  0  0  0  0  0  0  0
  -31.9740  -14.4660   19.3700 O   0  0  0  0  0  0  0  0  0  0  0  0
  -30.5690  -15.0760   21.0280 N   0  0  0  0  0  0  0  0  0  0  0  0
  -29.7350  -14.7970   21.5230 H   0  0  0  0  0  0  0  0  0  0  0  0
  -25.5390  -13.6710   20.4230 C   0  0  0  0  0  0  0  0  0  0  0  0
  -24.4650  -12.9380   20.8500 C   0  0  0  0  0  0  0  0  0  0  0  0
  -24.8500  -11.5680   20.7370 C   0  0  0  0  0  0  0  0  0  0  0  0
  -26.5180  -12.7480   20.0860 N   0  0  0  0  0  0  0  0  0  0  0  0
  -26.1070  -11.4760   20.3270 N   0  0  0  0  0  0  0  0  0  0  0  0
  -24.0730  -10.3370   20.9340 C   0  0  0  0  0  0  0  0  0  0  0  0
  -24.4770   -9.3510   21.8610 C   0  0  0  0  0  3  0  0  0  0  0  0
  -23.7050   -8.1850   22.0480 C   0  0  0  0  0  3  0  0  0  0  0  0
  -22.5130   -7.9970   21.3070 C   0  0  0  0  0  0  0  0  0  0  0  0
  -22.1270   -8.9700   20.3700 C   0  0  0  0  0  3  0  0  0  0  0  0
  -22.8990  -10.1290   20.1810 C   0  0  0  0  0  3  0  0  0  0  0  0
  -21.7120   -6.8860   21.4040 O   0  0  0  0  0  0  0  0  0  0  0  0
  -21.6010   -6.1770   22.5740 C   0  0  0  0  0  0  0  0  0  0  0  0
  -21.1370   -6.7750   23.7660 C   0  0  0  0  0  3  0  0  0  0  0  0
  -20.9780   -5.9960   24.9320 C   0  0  0  0  0  3  0  0  0  0  0  0
  -21.2660   -4.6200   24.9000 C   0  0  0  0  0  0  0  0  0  0  0  0
  -21.7180   -4.0190   23.7130 C   0  0  0  0  0  3  0  0  0  0  0  0
  -21.8830   -4.7970   22.5530 C   0  0  0  0  0  0  0  0  0  0  0  0
  -22.3010   -4.2100   21.4050 F   0  0  0  0  0  0  0  0  0  0  0  0
  -21.1040   -3.8690   26.0150 F   0  0  0  0  0  0  0  0  0  0  0  0
  -23.1170  -13.4750   21.2380 C   0  0  0  0  0  0  0  0  0  0  0  0
  -22.4160  -12.7870   22.1320 N   0  0  0  0  0  0  0  0  0  0  0  0
  -22.6990  -14.5410   20.7850 O   0  0  0  0  0  0  0  0  0  0  0  0
  -22.7650  -11.9210   22.5160 H   0  0  0  0  0  0  0  0  0  0  0  0
  -21.5130  -13.1290   22.4340 H   0  0  0  0  0  0  0  0  0  0  0  0
  -25.7490  -15.0390   20.2670 N   0  0  0  0  0  0  0  0  0  0  0  0
  -24.8820  -15.5660   20.2040 H   0  0  0  0  0  0  0  0  0  0  0  0
  -26.4020  -15.3040   19.5410 H   0  0  0  0  0  0  0  0  0  0  0  0
  -29.9810  -23.4980   18.9520 O   0  0  0  0  0  0  0  0  0  0  0  0
  -29.6570  -24.4530   19.9670 C   0  0  0  0  0  2  0  0  0  0  0  0
  -28.4410  -25.2940   19.5380 C   0  0  0  0  0  2  0  0  0  0  0  0
  -28.4770  -26.6430   20.0370 O   0  0  0  0  0  0  0  0  0  0  0  0
  -24.5530  -31.7290   23.1160 C   0  0  0  0  0  0  0  0  0  0  0  0
  -27.2940  -27.3640   19.9990 C   0  0  0  0  0  0  0  0  0  0  0  0
  -23.3900  -30.3520   21.4230 C   0  0  0  0  0  3  0  0  0  0  0  0
  -24.8840  -28.8610   19.9960 C   0  0  0  0  0  0  0  0  0  0  0  0
  -25.9170  -30.7350   21.2800 C   0  0  0  0  0  2  0  0  0  0  0  0
  -26.0280  -29.3760   20.6190 C   0  0  0  0  0  0  0  0  0  0  0  0
  -27.2320  -28.6340   20.6200 C   0  0  0  0  0  3  0  0  0  0  0  0
  -26.1290  -26.8740   19.3620 C   0  0  0  0  0  3  0  0  0  0  0  0
  -24.9320  -27.6100   19.3620 C   0  0  0  0  0  3  0  0  0  0  0  0
  -23.6310  -29.7040   20.0350 C   0  0  0  0  0  2  0  0  0  0  0  0
  -24.6390  -30.9520   21.9990 N   0  0  0  0  0  0  0  0  0  0  0  0
  -23.4590  -31.9820   23.6410 O   0  0  0  0  0  0  0  0  0  0  0  0
  -22.7280  -29.3060   22.3490 C   0  0  0  0  0  0  0  0  0  0  0  0
  -21.3990  -29.1550   22.2260 N   0  0  0  0  0  0  0  0  0  0  0  0
  -23.4070  -28.6340   23.1290 O   0  0  0  0  0  0  0  0  0  0  0  0
  -20.9130  -29.7500   21.5710 H   0  0  0  0  0  0  0  0  0  0  0  0
  -18.0020  -28.0570   22.7620 C   0  0  0  0  0  0  0  0  0  0  0  0
  -20.5730  -28.2030   22.9660 C   0  0  0  0  0  3  0  0  0  0  0  0
  -20.6030  -26.8070   22.3040 C   0  0  0  0  0  2  0  0  0  0  0  0
  -19.4620  -26.5870   21.3060 C   0  0  0  0  0  2  0  0  0  0  0  0
  -18.1050  -26.7460   21.9990 C   0  0  0  0  0  2  0  0  0  0  0  0
  -19.1610  -28.7500   23.1990 C   0  0  0  0  0  0  0  0  0  0  0  0
  -19.0120  -29.9830   23.8700 C   0  0  0  0  0  3  0  0  0  0  0  0
  -17.7350  -30.5250   24.1030 C   0  0  0  0  0  3  0  0  0  0  0  0
  -16.5890  -29.8280   23.6830 C   0  0  0  0  0  3  0  0  0  0  0  0
  -16.7230  -28.5960   23.0190 C   0  0  0  0  0  3  0  0  0  0  0  0
  -25.8230  -32.3570   23.7740 C   0  0  0  0  0  3  0  0  0  0  0  0
  -25.4980  -33.7460   24.1230 N   0  0  0  0  0  0  0  0  0  0  0  0
  -25.8460  -34.8140   23.3940 C   0  0  0  0  0  0  0  0  0  0  0  0
  -26.5440  -34.7350   22.3790 O   0  0  0  0  0  0  0  0  0  0  0  0
  -24.8860  -33.8840   24.9160 H   0  0  0  0  0  0  0  0  0  0  0  0
  -24.1100  -36.5960   23.0210 C   0  0  0  0  0  1  0  0  0  0  0  0
  -25.3320  -36.1890   23.8610 C   0  0  0  0  0  3  0  0  0  0  0  0
  -27.4410  -37.0740   24.7570 C   0  0  0  0  0  1  0  0  0  0  0  0
  -26.3550  -37.2560   23.7970 N   0  0  0  0  0  0  0  0  0  0  0  0
  -25.9350  -38.1660   23.9640 H   0  0  0  0  0  0  0  0  0  0  0  0
  -26.3210  -31.5620   25.0420 C   0  0  1  0  0  0  0  0  0  0  0  0
  -25.2110  -31.2940   26.0830 C   0  0  0  0  0  1  0  0  0  0  0  0
  -26.9190  -30.1970   24.6260 C   0  0  0  0  0  1  0  0  0  0  0  0
  -27.4560  -32.3460   25.7430 C   0  0  0  0  0  1  0  0  0  0  0  0
  2  1  2  0
  3  6  2  0
  3  4  1  0
  4  5  2  0
  5  1  1  0
  5 12  1  0
  6  2  1  0
  7  9  1  0
  7  8  1  0
  8  4  1  0
  9 10  1  0
  9  8  1  0
 11 10  1  0
 12 13  1  0
 12 14  1  0
 14 16  1  0
 16 15  1  0
 17 25  1  0
 18 23  1  0
 19 20  1  0
 19 18  1  0
 21 20  1  0
 21 30  1  0
 21 22  1  0
 23 17  1  0
 23 22  1  0
 24 17  2  0
 25 26  1  0
 25 16  1  0
 27 28  2  0
 28 47  1  0
 29 28  1  0
 29 32  1  0
 30 31  1  0
 30 27  1  0
 31 29  2  0
 32 33  1  0
 33 34  2  0
 35 38  1  0
 35 34  1  0
 36 35  2  0
 37 36  1  0
 37 32  2  0
 38 39  1  0
 39 40  1  0
 40 41  2  0
 42 41  1  0
 42 46  1  0
 43 42  2  0
 44 39  2  0
 44 43  1  0
 45 44  1  0
 47 48  1  0
 48 51  1  0
 48 50  1  0
 49 47  2  0
 52 27  1  0
 53 52  1  0
 54 52  1  0
 55  6  1  0
 55 56  1  0
 57 56  1  0
 57 58  1  0
 59 70  2  0
 60 58  1  0
 60 65  1  0
 61 69  1  0
 61 71  1  0
 62 68  1  0
 62 64  1  0
 63 69  1  0
 64 65  2  0
 64 63  1  0
 66 67  1  0
 66 60  2  0
 67 62  2  0
 68 61  1  0
 69 59  1  0
 71 73  2  0
 72 71  1  0
 74 72  1  0
 75 84  2  0
 75 80  1  0
 76 72  1  0
 76 80  1  0
 77 76  1  0
 78 79  1  0
 78 77  1  0
 79 75  1  0
 80 81  2  0
 81 82  1  0
 83 82  2  0
 84 83  1  0
 85 59  1  0
 85 86  1  0
 85 95  1  0
 86 89  1  0
 87 91  1  0
 87 86  1  0
 88 87  2  0
 91 90  1  0
 93 91  1  0
 93 94  1  0
 93 92  1  0
 95 98  1  1
 95 96  1  0
 97 95  1  0
M  ISO  4  17 100  25 100  57 101  58 101
M  END
>  <TORSDO>  (52) 
F 24

>  <SCORE>  (52) 
-11.865

>  <name>  (52) 
52

>  <ligand_id>  (52) 
52

>  <original_smiles>  (52) 
[H]OC1([H])C([H])([H])C1([H])c1c([H])c(OC([H])([H])C([H])([H])Oc2c([H])c([H])c3c(c2[H])C([H])([H])N(C(=O)C([H])(N([H])C(=O)C([H])(N([H])C([H])([H])[H])C([H])([H])[H])C(C([H])([H])[H])(C([H])([H])[H])C([H])([H])[H])C([H])(C(=O)N([H])C2([H])c4c([H])c([H])c([H])c([H])c4C([H])([H])C([H])([H])C2([H])[H])C3([H])[H])c([H])c([H])c1N([H])C([H])([H])C([H])(N([H])C(=O)N1C([H])([H])C([H])([H])C([H])([H])C([H])(n2nc(-c3c([H])c([H])c(Oc4c([H])c([H])c(F)c([H])c4F)c([H])c3[H])c(C(=O)N([H])[H])c2N([H])[H])C1([H])[H])C([H])([H])[H]

>  <smiles>  (52) 
[H]OC1([H])C([H])([H])C1([H])c1c([H])c(OC([H])([H])C([H])([H])Oc2c([H])c([H])c3c(c2[H])C([H])([H])N(C(=O)C([H])(N([H])C(=O)C([H])(N([H])C([H])([H])[H])C([H])([H])[H])C(C([H])([H])[H])(C([H])([H])[H])C([H])([H])[H])C([H])(C(=O)N([H])C2([H])c4c([H])c([H])c([H])c([H])c4C([H])([H])C([H])([H])C2([H])[H])C3([H])[H])c([H])c([H])c1N([H])C([H])([H])C([H])(N([H])C(=O)N1C([H])([H])C([H])([H])C([H])([H])C([H])(n2nc(-c3c([H])c([H])c(Oc4c([H])c([H])c(F)c([H])c4F)c([H])c3[H])c(C(=O)N([H])[H])c2N([H])[H])C1([H])[H])C([H])([H])[H]

$$$$
53:0:0
     RDKit          3D

 97106  0  0  1  0  0  0  0  0999 V2000
  -27.5500  -24.7090   20.3050 C   0  0  0  0  0  3  0  0  0  0  0  0
  -29.6010  -23.6990   19.4670 C   0  0  0  0  0  3  0  0  0  0  0  0
  -28.6240  -24.7790   19.4080 C   0  0  0  0  0  0  0  0  0  0  0  0
  -27.4260  -23.6810   21.2560 C   0  0  0  0  0  0  0  0  0  0  0  0
  -28.4870  -22.7420   21.4350 C   0  0  0  0  0  0  0  0  0  0  0  0
  -29.5600  -22.6640   20.4860 C   0  0  0  0  0  0  0  0  0  0  0  0
  -24.8620  -23.5150   21.1580 C   0  0  0  0  0  1  0  0  0  0  0  0
  -25.9980  -24.7910   23.0370 C   0  0  0  0  0  1  0  0  0  0  0  0
  -26.1140  -23.6190   22.0520 C   0  0  0  0  0  3  0  0  0  0  0  0
  -29.4830  -22.1890   23.7800 C   0  0  0  0  0  1  0  0  0  0  0  0
  -28.4840  -20.3280   22.3120 C   0  0  0  0  0  1  0  0  0  0  0  0
  -28.4690  -21.8190   22.6780 C   0  0  0  0  0  3  0  0  0  0  0  0
  -28.5780  -25.9490   18.3420 C   0  0  0  0  0  2  0  0  0  0  0  0
  -28.4230  -27.3830   18.7540 O   0  0  0  0  0  0  0  0  0  0  0  0
  -24.3930  -31.6230   22.9960 C   0  0  0  0  0  0  0  0  0  0  0  0
  -27.1960  -28.0510   18.9250 C   0  0  0  0  0  0  0  0  0  0  0  0
  -23.2010  -30.3520   21.2460 C   0  0  0  0  0  3  0  0  0  0  0  0
  -24.6620  -29.2950   19.4260 C   0  0  0  0  0  0  0  0  0  0  0  0
  -25.6410  -31.0590   20.8960 C   0  0  0  0  0  2  0  0  0  0  0  0
  -25.8190  -29.8340   20.0030 C   0  0  0  0  0  0  0  0  0  0  0  0
  -27.0820  -29.2180   19.7510 C   0  0  0  0  0  3  0  0  0  0  0  0
  -26.0080  -27.5800   18.3220 C   0  0  0  0  0  3  0  0  0  0  0  0
  -24.7580  -28.1800   18.5770 C   0  0  0  0  0  3  0  0  0  0  0  0
  -23.3380  -29.9520   19.7520 C   0  0  0  0  0  2  0  0  0  0  0  0
  -24.4350  -31.0230   21.7700 N   0  0  0  0  0  0  0  0  0  0  0  0
  -23.3510  -31.6480   23.6650 O   0  0  0  0  0  0  0  0  0  0  0  0
  -22.7920  -29.1040   22.0620 C   0  0  0  0  0  0  0  0  0  0  0  0
  -21.5180  -28.6950   21.9440 N   0  0  0  0  0  0  0  0  0  0  0  0
  -23.6180  -28.5130   22.7640 O   0  0  0  0  0  0  0  0  0  0  0  0
  -20.8990  -29.2410   21.3620 H   0  0  0  0  0  0  0  0  0  0  0  0
  -18.5010  -26.7140   22.1950 C   0  0  0  0  0  0  0  0  0  0  0  0
  -20.9290  -27.5160   22.5800 C   0  0  0  0  0  3  0  0  0  0  0  0
  -21.3640  -26.2180   21.8590 C   0  0  0  0  0  2  0  0  0  0  0  0
  -20.3730  -25.7650   20.7830 C   0  0  0  0  0  2  0  0  0  0  0  0
  -18.9890  -25.5210   21.3910 C   0  0  0  0  0  2  0  0  0  0  0  0
  -19.4100  -27.6590   22.7390 C   0  0  0  0  0  0  0  0  0  0  0  0
  -18.9020  -28.7680   23.4490 C   0  0  0  0  0  3  0  0  0  0  0  0
  -17.5150  -28.9380   23.6230 C   0  0  0  0  0  3  0  0  0  0  0  0
  -16.6200  -27.9900   23.0980 C   0  0  0  0  0  3  0  0  0  0  0  0
  -17.1130  -26.8810   22.3860 C   0  0  0  0  0  3  0  0  0  0  0  0
  -25.6460  -32.3250   23.6070 C   0  0  0  0  0  3  0  0  0  0  0  0
  -26.3390  -31.4790   24.7440 C   0  0  1  0  0  0  0  0  0  0  0  0
  -25.3620  -30.9900   25.8400 C   0  0  0  0  0  1  0  0  0  0  0  0
  -27.0430  -30.2380   24.1490 C   0  0  0  0  0  1  0  0  0  0  0  0
  -27.4420  -32.3260   25.4290 C   0  0  0  0  0  1  0  0  0  0  0  0
  -25.2160  -33.6300   24.1250 N   0  0  0  0  0  0  0  0  0  0  0  0
  -25.4320  -34.8010   23.5120 C   0  0  0  0  0  0  0  0  0  0  0  0
  -26.0840  -34.9020   22.4690 O   0  0  0  0  0  0  0  0  0  0  0  0
  -24.6250  -33.6200   24.9450 H   0  0  0  0  0  0  0  0  0  0  0  0
  -23.5580  -36.4760   23.4120 C   0  0  0  0  0  1  0  0  0  0  0  0
  -24.8330  -36.0630   24.1620 C   0  0  0  0  0  3  0  0  0  0  0  0
  -26.8940  -36.9910   25.1230 C   0  0  0  0  0  1  0  0  0  0  0  0
  -25.7730  -37.2040   24.2110 N   0  0  0  0  0  0  0  0  0  0  0  0
  -25.2920  -38.0520   24.4950 H   0  0  0  0  0  0  0  0  0  0  0  0
  -30.4570  -21.5910   20.7600 O   0  0  0  0  0  0  0  0  0  0  0  0
  -32.5300  -16.2180   19.5660 C   0  0  0  0  0  0  0  0  0  0  0  0
  -32.1560  -13.8950   18.7320 C   0  0  0  0  0  2  0  0  0  0  0  0
  -31.0950  -13.8900   17.6120 C   0  0  0  0  0  2  0  0  0  0  0  0
  -29.6970  -13.7190   18.2310 C   0  0  0  0  0  2  0  0  0  0  0  0
  -29.4430  -14.7000   19.4050 C   0  0  0  0  0  3  0  0  0  0  0  0
  -30.6230  -14.7380   20.4020 C   0  0  0  0  0  2  0  0  0  0  0  0
  -31.8410  -15.0260   19.6370 N   0  0  0  0  0  0  0  0  0  0  0  0
  -33.6750  -16.2110   19.1010 O   0  0  0  0  0  0  0  0  0  0  0  0
  -32.1490  -19.8410   20.9330 C   0  0  0  0  0  2  0  0  0  0  0  0
  -30.3110  -19.4450   19.4170 C   0  0  0  0  0  2  0  0  0  0  0  0
  -32.8320  -18.5150   20.4150 C   0  0  0  0  0  2  0  0  0  0  0  0
  -31.0720  -18.1550   18.8970 C   0  0  0  0  0  2  0  0  0  0  0  0
  -31.2050  -20.6120   19.9520 C   0  0  0  0  0  3  0  0  0  0  0  0
  -31.9320  -17.4420   19.8900 N   0  0  0  0  0  0  0  0  0  0  0  0
  -27.2990  -15.3500   20.6430 C   0  0  0  0  0  0  0  0  0  0  0  0
  -26.2110  -14.6180   21.0360 C   0  0  0  0  0  0  0  0  0  0  0  0
  -26.4920  -13.2660   20.6740 C   0  0  0  0  0  0  0  0  0  0  0  0
  -28.1720  -14.4420   20.0660 N   0  0  0  0  0  0  0  0  0  0  0  0
  -27.7050  -13.1710   20.1470 N   0  0  0  0  0  0  0  0  0  0  0  0
  -25.6520  -12.0630   20.7430 C   0  0  0  0  0  0  0  0  0  0  0  0
  -25.9830  -10.9800   21.5850 C   0  0  0  0  0  3  0  0  0  0  0  0
  -25.1500   -9.8420   21.6490 C   0  0  0  0  0  3  0  0  0  0  0  0
  -23.9710   -9.7810   20.8680 C   0  0  0  0  0  0  0  0  0  0  0  0
  -23.6590  -10.8530   20.0140 C   0  0  0  0  0  3  0  0  0  0  0  0
  -24.4910  -11.9830   19.9480 C   0  0  0  0  0  3  0  0  0  0  0  0
  -23.1160   -8.7060   20.8470 O   0  0  0  0  0  0  0  0  0  0  0  0
  -22.7690   -8.0400   21.9950 C   0  0  0  0  0  0  0  0  0  0  0  0
  -22.1780   -8.7050   23.0910 C   0  0  0  0  0  3  0  0  0  0  0  0
  -21.7730   -7.9710   24.2240 C   0  0  0  0  0  3  0  0  0  0  0  0
  -21.9470   -6.5760   24.2590 C   0  0  0  0  0  0  0  0  0  0  0  0
  -22.5300   -5.9110   23.1660 C   0  0  0  0  0  3  0  0  0  0  0  0
  -22.9370   -6.6410   22.0360 C   0  0  0  0  0  0  0  0  0  0  0  0
  -23.4790   -5.9940   20.9770 F   0  0  0  0  0  0  0  0  0  0  0  0
  -21.5500   -5.8690   25.3430 F   0  0  0  0  0  0  0  0  0  0  0  0
  -24.9410  -15.1600   21.6250 C   0  0  0  0  0  0  0  0  0  0  0  0
  -24.2960  -14.3940   22.4980 N   0  0  0  0  0  0  0  0  0  0  0  0
  -24.5390  -16.2890   21.3520 O   0  0  0  0  0  0  0  0  0  0  0  0
  -24.6340  -13.4720   22.7350 H   0  0  0  0  0  0  0  0  0  0  0  0
  -23.4520  -14.7340   22.9350 H   0  0  0  0  0  0  0  0  0  0  0  0
  -27.6070  -16.7050   20.7000 N   0  0  0  0  0  0  0  0  0  0  0  0
  -26.9630  -17.3930   21.0740 H   0  0  0  0  0  0  0  0  0  0  0  0
  -28.4630  -17.1100   20.3440 H   0  0  0  0  0  0  0  0  0  0  0  0
  1  4  1  0
  2  6  2  0
  3  2  1  0
  3  1  2  0
  4  5  2  0
  4  9  1  0
  5 12  1  0
  6 55  1  0
  6  5  1  0
  7  9  1  0
  9  8  1  0
 11 12  1  0
 12 10  1  0
 13 14  1  0
 13  3  1  0
 14 16  1  0
 15 26  2  0
 16 21  1  0
 17 25  1  0
 17 27  1  0
 18 24  1  0
 18 20  1  0
 19 25  1  0
 20 19  1  0
 21 20  2  0
 22 23  1  0
 22 16  2  0
 23 18  2  0
 24 17  1  0
 25 15  1  0
 27 29  2  0
 28 27  1  0
 30 28  1  0
 31 40  2  0
 31 36  1  0
 32 28  1  0
 32 36  1  0
 33 32  1  0
 34 35  1  0
 34 33  1  0
 35 31  1  0
 36 37  2  0
 37 38  1  0
 39 38  2  0
 40 39  1  0
 41 15  1  0
 41 46  1  0
 41 42  1  0
 42 45  1  1
 42 43  1  0
 44 42  1  0
 46 49  1  0
 47 46  1  0
 47 51  1  0
 48 47  2  0
 51 50  1  0
 51 53  1  0
 53 54  1  0
 53 52  1  0
 56 62  1  0
 56 69  1  0
 57 62  1  0
 58 59  1  0
 58 57  1  0
 60 59  1  0
 60 73  1  0
 60 61  1  0
 62 61  1  0
 63 56  2  0
 65 68  1  0
 66 64  1  0
 67 65  1  0
 67 69  1  0
 68 55  1  0
 68 64  1  0
 69 66  1  0
 70 95  1  0
 70 71  2  0
 71 90  1  0
 72 75  1  0
 72 71  1  0
 73 74  1  0
 73 70  1  0
 74 72  2  0
 75 76  1  0
 76 77  2  0
 78 77  1  0
 79 78  2  0
 80 79  1  0
 80 75  2  0
 81 78  1  0
 81 82  1  0
 82 87  2  0
 82 83  1  0
 83 84  2  0
 84 85  1  0
 85 89  1  0
 86 85  2  0
 87 86  1  0
 88 87  1  0
 90 91  1  0
 91 93  1  0
 91 94  1  0
 92 90  2  0
 95 96  1  0
 97 95  1  0
M  ISO  4  13 101  14 101  56 100  69 100
M  END
>  <TORSDO>  (53) 
F 20

>  <SCORE>  (53) 
-2.814

>  <name>  (53) 
53

>  <ligand_id>  (53) 
53

>  <original_smiles>  (53) 
[H]c1c([H])c([H])c2c(c1[H])C([H])([H])C([H])([H])C([H])([H])C2([H])N([H])C(=O)C1([H])N(C(=O)C([H])(N([H])C(=O)C([H])(N([H])C([H])([H])[H])C([H])([H])[H])C(C([H])([H])[H])(C([H])([H])[H])C([H])([H])[H])C([H])([H])c2c([H])c(OC([H])([H])c3c([H])c(OC4([H])C([H])([H])C([H])([H])N(C(=O)N5C([H])([H])C([H])([H])C([H])([H])C([H])(n6nc(-c7c([H])c([H])c(Oc8c([H])c([H])c(F)c([H])c8F)c([H])c7[H])c(C(=O)N([H])[H])c6N([H])[H])C5([H])[H])C([H])([H])C4([H])[H])c(C([H])(C([H])([H])[H])C([H])([H])[H])c(C([H])(C([H])([H])[H])C([H])([H])[H])c3[H])c([H])c([H])c2C1([H])[H]

>  <smiles>  (53) 
[H]c1c([H])c([H])c2c(c1[H])C([H])([H])C([H])([H])C([H])([H])C2([H])N([H])C(=O)C1([H])N(C(=O)C([H])(N([H])C(=O)C([H])(N([H])C([H])([H])[H])C([H])([H])[H])C(C([H])([H])[H])(C([H])([H])[H])C([H])([H])[H])C([H])([H])c2c([H])c(OC([H])([H])c3c([H])c(OC4([H])C([H])([H])C([H])([H])N(C(=O)N5C([H])([H])C([H])([H])C([H])([H])C([H])(n6nc(-c7c([H])c([H])c(Oc8c([H])c([H])c(F)c([H])c8F)c([H])c7[H])c(C(=O)N([H])[H])c6N([H])[H])C5([H])[H])C([H])([H])C4([H])[H])c(C([H])(C([H])([H])[H])C([H])([H])[H])c(C([H])(C([H])([H])[H])C([H])([H])[H])c3[H])c([H])c([H])c2C1([H])[H]

$$$$
54:0:0
     RDKit          3D

 99108  0  0  1  0  0  0  0  0999 V2000
  -31.2370  -24.8790   19.9420 C   0  0  0  0  0  3  0  0  0  0  0  0
  -30.3270  -24.1050   22.0520 C   0  0  0  0  0  3  0  0  0  0  0  0
  -30.5030  -25.1400   21.1120 C   0  0  0  0  0  0  0  0  0  0  0  0
  -31.8660  -23.6300   19.7490 C   0  0  0  0  0  0  0  0  0  0  0  0
  -31.7580  -22.6080   20.7380 C   0  0  0  0  0  0  0  0  0  0  0  0
  -30.9340  -22.8340   21.8740 C   0  0  0  0  0  0  0  0  0  0  0  0
  -32.7010  -23.4500   18.4890 C   0  0  0  0  0  1  0  0  0  0  0  0
  -33.8660  -21.5810   21.5930 C   0  0  0  0  0  1  0  0  0  0  0  0
  -32.6490  -21.3480   20.6680 C   0  0  0  0  0  3  0  0  0  0  0  0
  -30.5290  -18.1960   19.8310 C   0  0  0  0  0  2  0  0  0  0  0  0
  -32.0280  -17.6370   21.7060 C   0  0  0  0  0  2  0  0  0  0  0  0
  -31.2180  -19.5760   19.6700 C   0  0  0  0  0  2  0  0  0  0  0  0
  -32.7530  -18.9880   21.5370 C   0  0  0  0  0  2  0  0  0  0  0  0
  -31.5310  -17.1460   20.3450 C   0  0  0  0  0  3  0  0  0  0  0  0
  -31.9140  -20.0570   20.9040 N   0  0  1  0  0  4  0  0  0  0  0  0
  -31.1980  -20.3030   21.5770 H   0  0  0  0  0  0  0  0  0  0  0  0
  -31.5500  -14.6840   19.8680 C   0  0  0  0  0  0  0  0  0  0  0  0
  -31.1220  -12.4090   19.0230 C   0  0  0  0  0  2  0  0  0  0  0  0
  -30.1460  -12.4850   17.8320 C   0  0  0  0  0  2  0  0  0  0  0  0
  -28.6860  -12.4600   18.3240 C   0  0  0  0  0  2  0  0  0  0  0  0
  -28.4230  -13.4730   19.4710 C   0  0  0  0  0  3  0  0  0  0  0  0
  -29.5090  -13.3700   20.5640 C   0  0  0  0  0  2  0  0  0  0  0  0
  -30.8210  -13.5370   19.9180 N   0  0  0  0  0  0  0  0  0  0  0  0
  -32.6310  -14.7590   19.2790 O   0  0  0  0  0  0  0  0  0  0  0  0
  -30.9760  -15.7790   20.4050 N   0  0  0  0  0  0  0  0  0  0  0  0
  -30.0780  -15.6500   20.8460 H   0  0  0  0  0  0  0  0  0  0  0  0
  -26.1430  -14.2830   20.3480 C   0  0  0  0  0  0  0  0  0  0  0  0
  -25.0290  -13.6040   20.7620 C   0  0  0  0  0  0  0  0  0  0  0  0
  -25.3520  -12.2160   20.6620 C   0  0  0  0  0  0  0  0  0  0  0  0
  -27.0800  -13.3140   20.0260 N   0  0  0  0  0  0  0  0  0  0  0  0
  -26.6100  -12.0630   20.2700 N   0  0  0  0  0  0  0  0  0  0  0  0
  -24.5180  -11.0230   20.8610 C   0  0  0  0  0  0  0  0  0  0  0  0
  -24.8570  -10.0340   21.8120 C   0  0  0  0  0  3  0  0  0  0  0  0
  -24.0290   -8.9060   21.9970 C   0  0  0  0  0  3  0  0  0  0  0  0
  -22.8470   -8.7600   21.2320 C   0  0  0  0  0  0  0  0  0  0  0  0
  -22.5260   -9.7360   20.2720 C   0  0  0  0  0  3  0  0  0  0  0  0
  -23.3550  -10.8550   20.0850 C   0  0  0  0  0  3  0  0  0  0  0  0
  -21.9960   -7.6860   21.3270 O   0  0  0  0  0  0  0  0  0  0  0  0
  -21.7360   -7.0760   22.5270 C   0  0  0  0  0  0  0  0  0  0  0  0
  -21.1610   -7.7770   23.6100 C   0  0  0  0  0  3  0  0  0  0  0  0
  -20.8470   -7.0960   24.8030 C   0  0  0  0  0  3  0  0  0  0  0  0
  -21.0970   -5.7150   24.9130 C   0  0  0  0  0  0  0  0  0  0  0  0
  -21.6650   -5.0150   23.8330 C   0  0  0  0  0  3  0  0  0  0  0  0
  -21.9810   -5.6930   22.6430 C   0  0  0  0  0  0  0  0  0  0  0  0
  -22.5080   -5.0100   21.6000 F   0  0  0  0  0  0  0  0  0  0  0  0
  -20.7890   -5.0580   26.0540 F   0  0  0  0  0  0  0  0  0  0  0  0
  -23.7050  -14.2040   21.1400 C   0  0  0  0  0  0  0  0  0  0  0  0
  -22.9840  -13.5710   22.0590 N   0  0  0  0  0  0  0  0  0  0  0  0
  -23.3230  -15.2690   20.6560 O   0  0  0  0  0  0  0  0  0  0  0  0
  -23.3030  -12.7070   22.4730 H   0  0  0  0  0  0  0  0  0  0  0  0
  -22.0970  -13.9570   22.3550 H   0  0  0  0  0  0  0  0  0  0  0  0
  -26.4300  -15.6380   20.2010 N   0  0  0  0  0  0  0  0  0  0  0  0
  -25.7390  -16.3570   20.3810 H   0  0  0  0  0  0  0  0  0  0  0  0
  -27.2950  -16.0050   19.8240 H   0  0  0  0  0  0  0  0  0  0  0  0
  -29.9890  -26.5440   21.4120 C   0  0  0  0  0  2  0  0  0  0  0  0
  -29.7630  -27.3510   20.2530 O   0  0  0  0  0  0  0  0  0  0  0  0
  -25.1690  -31.5330   23.7270 C   0  0  0  0  0  0  0  0  0  0  0  0
  -28.5240  -27.9430   20.2740 C   0  0  0  0  0  0  0  0  0  0  0  0
  -24.2170  -30.1200   21.9310 C   0  0  0  0  0  3  0  0  0  0  0  0
  -25.9130  -29.0040   20.3830 C   0  0  0  0  0  0  0  0  0  0  0  0
  -26.6430  -30.9210   21.8150 C   0  0  0  0  0  2  0  0  0  0  0  0
  -26.9610  -29.6540   21.0480 C   0  0  0  0  0  0  0  0  0  0  0  0
  -28.2700  -29.1280   20.9980 C   0  0  0  0  0  3  0  0  0  0  0  0
  -27.4670  -27.3050   19.5980 C   0  0  0  0  0  3  0  0  0  0  0  0
  -26.1600  -27.8250   19.6560 C   0  0  0  0  0  3  0  0  0  0  0  0
  -24.5400  -29.6250   20.4950 C   0  0  0  0  0  2  0  0  0  0  0  0
  -25.3580  -30.8700   22.5500 N   0  0  0  0  0  0  0  0  0  0  0  0
  -24.0560  -31.5640   24.2710 O   0  0  0  0  0  0  0  0  0  0  0  0
  -23.7470  -28.9140   22.7760 C   0  0  0  0  0  0  0  0  0  0  0  0
  -22.5940  -28.3360   22.4030 N   0  0  0  0  0  0  0  0  0  0  0  0
  -24.4240  -28.5020   23.7220 O   0  0  0  0  0  0  0  0  0  0  0  0
  -22.0950  -28.7390   21.6220 H   0  0  0  0  0  0  0  0  0  0  0  0
  -19.9240  -25.9260   22.0580 C   0  0  0  0  0  0  0  0  0  0  0  0
  -21.9770  -27.1640   23.0240 C   0  0  0  0  0  3  0  0  0  0  0  0
  -22.7770  -25.8790   22.7010 C   0  0  0  0  0  2  0  0  0  0  0  0
  -22.2540  -25.1370   21.4670 C   0  0  0  0  0  2  0  0  0  0  0  0
  -20.7870  -24.7430   21.6540 C   0  0  0  0  0  2  0  0  0  0  0  0
  -20.4860  -27.0690   22.6860 C   0  0  0  0  0  0  0  0  0  0  0  0
  -19.6430  -28.1560   23.0090 C   0  0  0  0  0  3  0  0  0  0  0  0
  -18.2670  -28.1110   22.7170 C   0  0  0  0  0  3  0  0  0  0  0  0
  -17.7140  -26.9710   22.1110 C   0  0  0  0  0  3  0  0  0  0  0  0
  -18.5400  -25.8800   21.7860 C   0  0  0  0  0  3  0  0  0  0  0  0
  -26.3310  -32.3040   24.4280 C   0  0  0  0  0  3  0  0  0  0  0  0
  -25.8950  -33.6950   24.6060 N   0  0  0  0  0  0  0  0  0  0  0  0
  -26.2160  -34.7020   23.7830 C   0  0  0  0  0  0  0  0  0  0  0  0
  -26.9780  -34.5650   22.8220 O   0  0  0  0  0  0  0  0  0  0  0  0
  -25.2280  -33.8700   25.3430 H   0  0  0  0  0  0  0  0  0  0  0  0
  -24.3980  -36.3090   23.1290 C   0  0  0  0  0  1  0  0  0  0  0  0
  -25.5910  -36.0810   24.0710 C   0  0  0  0  0  3  0  0  0  0  0  0
  -27.5640  -37.2120   24.9950 C   0  0  0  0  0  1  0  0  0  0  0  0
  -26.5490  -37.2000   23.9440 N   0  0  0  0  0  0  0  0  0  0  0  0
  -26.0650  -38.0930   23.9620 H   0  0  0  0  0  0  0  0  0  0  0  0
  -26.7520  -31.6700   25.8110 C   0  0  1  0  0  0  0  0  0  0  0  0
  -25.5590  -31.3930   26.7560 C   0  0  0  0  0  1  0  0  0  0  0  0
  -27.5020  -30.3370   25.5890 C   0  0  0  0  0  1  0  0  0  0  0  0
  -27.7340  -32.6140   26.5430 C   0  0  0  0  0  1  0  0  0  0  0  0
  -30.7900  -21.8000   22.7800 O   0  0  0  0  0  0  0  0  0  0  0  0
  -30.1010  -20.8070   24.8550 C   0  0  0  0  0  1  0  0  0  0  0  0
  -29.9490  -22.0020   23.9140 C   0  0  0  0  0  2  0  0  0  0  0  0
  1  3  1  0
  3 55  1  0
  3  2  2  0
  4  1  2  0
  4  5  1  0
  5  6  2  0
  6  2  1  0
  6 97  1  0
  7  4  1  0
  9  5  1  0
  9 15  1  0
  9  8  1  0
 10 14  1  0
 12 10  1  0
 12 15  1  0
 13 11  1  0
 14 25  1  0
 14 11  1  0
 15 13  1  0
 15 16  1  1
 17 23  1  0
 17 25  1  0
 18 23  1  0
 19 20  1  0
 19 18  1  0
 21 20  1  0
 21 30  1  0
 21 22  1  0
 23 22  1  0
 24 17  2  0
 25 26  1  0
 27 28  2  0
 28 47  1  0
 29 28  1  0
 29 32  1  0
 30 31  1  0
 30 27  1  0
 31 29  2  0
 32 33  1  0
 33 34  2  0
 35 38  1  0
 35 34  1  0
 36 35  2  0
 37 36  1  0
 37 32  2  0
 38 39  1  0
 39 44  2  0
 39 40  1  0
 40 41  2  0
 41 42  1  0
 42 46  1  0
 43 42  2  0
 44 43  1  0
 45 44  1  0
 47 48  1  0
 48 51  1  0
 48 50  1  0
 49 47  2  0
 52 27  1  0
 52 53  1  0
 54 52  1  0
 56 58  1  0
 56 55  1  0
 57 68  2  0
 58 63  1  0
 59 67  1  0
 59 69  1  0
 60 66  1  0
 60 62  1  0
 61 67  1  0
 62 61  1  0
 63 62  2  0
 64 65  1  0
 64 58  2  0
 65 60  2  0
 66 59  1  0
 67 57  1  0
 69 71  2  0
 70 69  1  0
 72 70  1  0
 73 78  1  0
 74 70  1  0
 75 74  1  0
 76 77  1  0
 76 75  1  0
 77 73  1  0
 78 79  2  0
 78 74  1  0
 80 79  1  0
 81 80  2  0
 82 73  2  0
 82 81  1  0
 83 57  1  0
 83 84  1  0
 83 93  1  0
 84 87  1  0
 85 89  1  0
 85 84  1  0
 86 85  2  0
 89 88  1  0
 91 92  1  0
 91 89  1  0
 91 90  1  0
 93 96  1  1
 93 94  1  0
 95 93  1  0
 97 99  1  0
 99 98  1  0
M  ISO  4  17 100  25 100  55 101  56 101
M  END
>  <TORSDO>  (54) 
F 21

>  <SCORE>  (54) 
-9.722

>  <name>  (54) 
54

>  <ligand_id>  (54) 
54

>  <original_smiles>  (54) 
[H]c1c([H])c([H])c2c(c1[H])C([H])([H])C([H])([H])C([H])([H])C2([H])N([H])C(=O)C1([H])N(C(=O)C([H])(N([H])C(=O)C([H])(N([H])C([H])([H])[H])C([H])([H])[H])C(C([H])([H])[H])(C([H])([H])[H])C([H])([H])[H])C([H])([H])c2c([H])c(OC([H])([H])c3c([H])c(OC([H])([H])C([H])([H])[H])c(C([H])(C([H])([H])[H])[N+]4([H])C([H])([H])C([H])([H])C([H])(N([H])C(=O)N5C([H])([H])C([H])([H])C([H])([H])C([H])(n6nc(-c7c([H])c([H])c(Oc8c([H])c([H])c(F)c([H])c8F)c([H])c7[H])c(C(=O)N([H])[H])c6N([H])[H])C5([H])[H])C([H])([H])C4([H])[H])c(C([H])([H])[H])c3[H])c([H])c([H])c2C1([H])[H]

>  <smiles>  (54) 
[H]c1c([H])c([H])c2c(c1[H])C([H])([H])C([H])([H])C([H])([H])C2([H])N([H])C(=O)C1([H])N(C(=O)C([H])(N([H])C(=O)C([H])(N([H])C([H])([H])[H])C([H])([H])[H])C(C([H])([H])[H])(C([H])([H])[H])C([H])([H])[H])C([H])([H])c2c([H])c(OC([H])([H])c3c([H])c(OC([H])([H])C([H])([H])[H])c(C([H])(C([H])([H])[H])[N+]4([H])C([H])([H])C([H])([H])C([H])(N([H])C(=O)N5C([H])([H])C([H])([H])C([H])([H])C([H])(n6nc(-c7c([H])c([H])c(Oc8c([H])c([H])c(F)c([H])c8F)c([H])c7[H])c(C(=O)N([H])[H])c6N([H])[H])C5([H])[H])C([H])([H])C4([H])[H])c(C([H])([H])[H])c3[H])c([H])c([H])c2C1([H])[H]

$$$$
55:0:0
     RDKit          3D

 97106  0  0  1  0  0  0  0  0999 V2000
  -28.4810  -21.5840   18.7920 C   0  0  0  0  0  3  0  0  0  0  0  0
  -28.9860  -23.1510   21.0280 C   0  0  0  0  0  3  0  0  0  0  0  0
  -29.0960  -20.9150   19.8960 C   0  0  0  0  0  0  0  0  0  0  0  0
  -28.1010  -22.9780   18.8140 C   0  0  0  0  0  0  0  0  0  0  0  0
  -28.3140  -23.8070   19.9600 C   0  0  0  0  0  0  0  0  0  0  0  0
  -29.3780  -21.7700   21.0000 C   0  0  0  0  0  0  0  0  0  0  0  0
  -27.4140  -23.5680   17.5980 C   0  0  0  0  0  1  0  0  0  0  0  0
  -30.6310  -14.9980   19.8520 C   0  0  0  0  0  0  0  0  0  0  0  0
  -30.3880  -12.6880   18.9460 C   0  0  0  0  0  2  0  0  0  0  0  0
  -29.3880  -12.6910   17.7730 C   0  0  0  0  0  2  0  0  0  0  0  0
  -27.9540  -12.4890   18.3000 C   0  0  0  0  0  2  0  0  0  0  0  0
  -27.6200  -13.4130   19.5030 C   0  0  0  0  0  3  0  0  0  0  0  0
  -28.7460  -13.4310   20.5580 C   0  0  0  0  0  2  0  0  0  0  0  0
  -29.9850  -13.7820   19.8580 N   0  0  0  0  0  0  0  0  0  0  0  0
  -31.8150  -15.0350   19.5000 O   0  0  0  0  0  0  0  0  0  0  0  0
  -29.0210  -18.4060   20.9810 C   0  0  0  0  0  2  0  0  0  0  0  0
  -29.4120  -18.5210   18.6170 C   0  0  0  0  0  2  0  0  0  0  0  0
  -29.7510  -16.9980   21.0750 C   0  0  0  0  0  2  0  0  0  0  0  0
  -30.1380  -17.1140   18.6710 C   0  0  0  0  0  2  0  0  0  0  0  0
  -29.5810  -19.3800   19.8970 C   0  0  0  0  0  3  0  0  0  0  0  0
  -29.8920  -16.1870   19.8300 N   0  0  0  0  0  0  0  0  0  0  0  0
  -25.2950  -13.9490   20.4380 C   0  0  0  0  0  0  0  0  0  0  0  0
  -24.2630  -13.1530   20.8520 C   0  0  0  0  0  0  0  0  0  0  0  0
  -24.7310  -11.8070   20.7330 C   0  0  0  0  0  0  0  0  0  0  0  0
  -26.3220  -13.0910   20.0870 N   0  0  0  0  0  0  0  0  0  0  0  0
  -25.9950  -11.7930   20.3270 N   0  0  0  0  0  0  0  0  0  0  0  0
  -24.0260  -10.5310   20.9240 C   0  0  0  0  0  0  0  0  0  0  0  0
  -24.4810   -9.5680   21.8490 C   0  0  0  0  0  3  0  0  0  0  0  0
  -23.7750   -8.3580   22.0290 C   0  0  0  0  0  3  0  0  0  0  0  0
  -22.6000   -8.1030   21.2830 C   0  0  0  0  0  0  0  0  0  0  0  0
  -22.1630   -9.0580   20.3470 C   0  0  0  0  0  3  0  0  0  0  0  0
  -22.8700  -10.2580   20.1650 C   0  0  0  0  0  3  0  0  0  0  0  0
  -21.8650   -6.9460   21.3740 O   0  0  0  0  0  0  0  0  0  0  0  0
  -21.7450   -6.2590   22.5560 C   0  0  0  0  0  0  0  0  0  0  0  0
  -21.1720   -6.8480   23.7040 C   0  0  0  0  0  3  0  0  0  0  0  0
  -21.0030   -6.0850   24.8770 C   0  0  0  0  0  3  0  0  0  0  0  0
  -21.3980   -4.7350   24.9020 C   0  0  0  0  0  0  0  0  0  0  0  0
  -21.9640   -4.1450   23.7570 C   0  0  0  0  0  3  0  0  0  0  0  0
  -22.1340   -4.9050   22.5870 C   0  0  0  0  0  0  0  0  0  0  0  0
  -22.6600   -4.3260   21.4800 F   0  0  0  0  0  0  0  0  0  0  0  0
  -21.2280   -3.9980   26.0250 F   0  0  0  0  0  0  0  0  0  0  0  0
  -22.8870  -13.6080   21.2440 C   0  0  0  0  0  0  0  0  0  0  0  0
  -22.2440  -12.8930   22.1610 N   0  0  0  0  0  0  0  0  0  0  0  0
  -22.3930  -14.6310   20.7710 O   0  0  0  0  0  0  0  0  0  0  0  0
  -22.6570  -12.0660   22.5650 H   0  0  0  0  0  0  0  0  0  0  0  0
  -21.3260  -13.1820   22.4680 H   0  0  0  0  0  0  0  0  0  0  0  0
  -25.4400  -15.3290   20.3090 N   0  0  0  0  0  0  0  0  0  0  0  0
  -24.6840  -15.9740   20.5150 H   0  0  0  0  0  0  0  0  0  0  0  0
  -26.2740  -15.7880   19.9650 H   0  0  0  0  0  0  0  0  0  0  0  0
  -27.5950  -25.2110   20.2280 C   0  0  0  0  0  2  0  0  0  0  0  0
  -27.9160  -26.5300   19.5860 O   0  0  0  0  0  0  0  0  0  0  0  0
  -24.4510  -31.8320   23.1750 C   0  0  0  0  0  0  0  0  0  0  0  0
  -26.8690  -27.4790   19.6540 C   0  0  0  0  0  0  0  0  0  0  0  0
  -23.1700  -30.5850   21.4750 C   0  0  0  0  0  3  0  0  0  0  0  0
  -24.5430  -29.1440   19.8660 C   0  0  0  0  0  0  0  0  0  0  0  0
  -25.7080  -30.8780   21.2220 C   0  0  0  0  0  2  0  0  0  0  0  0
  -25.7440  -29.5560   20.4600 C   0  0  0  0  0  0  0  0  0  0  0  0
  -26.9140  -28.7360   20.3470 C   0  0  0  0  0  3  0  0  0  0  0  0
  -25.6540  -27.1520   19.0160 C   0  0  0  0  0  3  0  0  0  0  0  0
  -24.5030  -27.9510   19.1300 C   0  0  0  0  0  3  0  0  0  0  0  0
  -23.3230  -30.0280   20.0370 C   0  0  0  0  0  2  0  0  0  0  0  0
  -24.4630  -31.1120   22.0140 N   0  0  0  0  0  0  0  0  0  0  0  0
  -23.3930  -32.0770   23.7720 O   0  0  0  0  0  0  0  0  0  0  0  0
  -22.5270  -29.5000   22.3750 C   0  0  0  0  0  0  0  0  0  0  0  0
  -21.1950  -29.3410   22.2780 N   0  0  0  0  0  0  0  0  0  0  0  0
  -23.2260  -28.8090   23.1200 O   0  0  0  0  0  0  0  0  0  0  0  0
  -20.6900  -29.9520   21.6530 H   0  0  0  0  0  0  0  0  0  0  0  0
  -17.8290  -28.1080   22.7790 C   0  0  0  0  0  0  0  0  0  0  0  0
  -20.3950  -28.3510   23.0020 C   0  0  0  0  0  3  0  0  0  0  0  0
  -20.4810  -26.9620   22.3260 C   0  0  0  0  0  2  0  0  0  0  0  0
  -19.3540  -26.7100   21.3190 C   0  0  0  0  0  2  0  0  0  0  0  0
  -17.9890  -26.8090   22.0060 C   0  0  0  0  0  2  0  0  0  0  0  0
  -18.9590  -28.8390   23.2330 C   0  0  0  0  0  0  0  0  0  0  0  0
  -18.7560  -30.0570   23.9170 C   0  0  0  0  0  3  0  0  0  0  0  0
  -17.4550  -30.5430   24.1510 C   0  0  0  0  0  3  0  0  0  0  0  0
  -16.3410  -29.8080   23.7120 C   0  0  0  0  0  3  0  0  0  0  0  0
  -16.5290  -28.5910   23.0320 C   0  0  0  0  0  3  0  0  0  0  0  0
  -25.7650  -32.3980   23.7960 C   0  0  0  0  0  3  0  0  0  0  0  0
  -25.5190  -33.8040   24.1500 N   0  0  0  0  0  0  0  0  0  0  0  0
  -25.8840  -34.8540   23.4030 C   0  0  0  0  0  0  0  0  0  0  0  0
  -26.5320  -34.7380   22.3600 O   0  0  0  0  0  0  0  0  0  0  0  0
  -24.9430  -33.9700   24.9630 H   0  0  0  0  0  0  0  0  0  0  0  0
  -24.2330  -36.7280   23.0970 C   0  0  0  0  0  1  0  0  0  0  0  0
  -25.4620  -36.2550   23.8890 C   0  0  0  0  0  3  0  0  0  0  0  0
  -27.6340  -37.0420   24.7220 C   0  0  0  0  0  1  0  0  0  0  0  0
  -26.5390  -37.2640   23.7820 N   0  0  0  0  0  0  0  0  0  0  0  0
  -26.1740  -38.2000   23.9350 H   0  0  0  0  0  0  0  0  0  0  0  0
  -26.2560  -31.5870   25.0570 C   0  0  1  0  0  0  0  0  0  0  0  0
  -25.1650  -31.3910   26.1360 C   0  0  0  0  0  1  0  0  0  0  0  0
  -26.7640  -30.1860   24.6450 C   0  0  0  0  0  1  0  0  0  0  0  0
  -27.4540  -32.3130   25.7130 C   0  0  0  0  0  1  0  0  0  0  0  0
  -30.0010  -21.2050   22.0840 O   0  0  0  0  0  0  0  0  0  0  0  0
  -31.1730  -21.8580   22.5500 C   0  0  0  0  0  2  0  0  0  0  0  0
  -31.2920  -20.2840   24.5250 C   0  0  0  0  0  1  0  0  0  0  0  0
  -32.0430  -20.8280   23.2970 C   0  0  0  0  0  3  0  0  0  0  0  0
  -33.2390  -20.0950   21.1150 C   0  0  0  0  0  1  0  0  0  0  0  0
  -32.5310  -19.6630   22.4070 C   0  0  0  0  0  2  0  0  0  0  0  0
  1  4  2  0
  1  3  1  0
  3  6  2  0
  4  5  1  0
  5 50  1  0
  5  2  2  0
  6  2  1  0
  6 92  1  0
  7  4  1  0
  8 14  1  0
  9 14  1  0
 10 11  1  0
 10  9  1  0
 12 11  1  0
 12 25  1  0
 12 13  1  0
 14 13  1  0
 15  8  2  0
 16 18  1  0
 17 19  1  0
 17 20  1  0
 19 21  1  0
 20  3  1  0
 20 16  1  0
 21  8  1  0
 21 18  1  0
 22 23  2  0
 23 42  1  0
 24 23  1  0
 24 27  1  0
 25 26  1  0
 25 22  1  0
 26 24  2  0
 27 28  1  0
 28 29  2  0
 30 33  1  0
 30 29  1  0
 31 30  2  0
 32 31  1  0
 32 27  2  0
 33 34  1  0
 34 39  2  0
 34 35  1  0
 35 36  2  0
 36 37  1  0
 37 41  1  0
 38 37  2  0
 39 38  1  0
 40 39  1  0
 42 43  1  0
 43 46  1  0
 43 45  1  0
 44 42  2  0
 47 22  1  0
 47 48  1  0
 49 47  1  0
 51 53  1  0
 51 50  1  0
 52 63  2  0
 53 58  1  0
 54 62  1  0
 54 64  1  0
 55 61  1  0
 55 57  1  0
 56 62  1  0
 57 56  1  0
 58 57  2  0
 59 60  1  0
 59 53  2  0
 60 55  2  0
 61 54  1  0
 62 52  1  0
 64 66  2  0
 65 64  1  0
 67 65  1  0
 68 77  2  0
 68 73  1  0
 69 65  1  0
 69 73  1  0
 70 69  1  0
 71 72  1  0
 71 70  1  0
 72 68  1  0
 73 74  2  0
 74 75  1  0
 76 75  2  0
 77 76  1  0
 78 52  1  0
 78 79  1  0
 78 88  1  0
 79 82  1  0
 80 84  1  0
 80 79  1  0
 81 80  2  0
 84 83  1  0
 86 84  1  0
 86 87  1  0
 86 85  1  0
 88 91  1  1
 88 89  1  0
 90 88  1  0
 92 93  1  0
 93 95  1  0
 95 94  1  0
 96 97  1  0
 97 95  1  0
M  ISO  4   8 100  21 100  50 101  51 101
M  END
>  <TORSDO>  (55) 
F 21

>  <SCORE>  (55) 
-13.267

>  <name>  (55) 
55

>  <ligand_id>  (55) 
55

>  <original_smiles>  (55) 
[H]c1c([H])c([H])c2c(c1[H])C([H])([H])C([H])([H])C([H])([H])C2([H])N([H])C(=O)C1([H])N(C(=O)C([H])(N([H])C(=O)C([H])(N([H])C([H])([H])[H])C([H])([H])[H])C(C([H])([H])[H])(C([H])([H])[H])C([H])([H])[H])C([H])([H])c2c([H])c(OC([H])([H])c3c([H])c(OC([H])([H])C([H])(C([H])([H])[H])C([H])([H])C([H])([H])[H])c(C4([H])C([H])([H])C([H])([H])N(C(=O)N5C([H])([H])C([H])([H])C([H])([H])C([H])(n6nc(-c7c([H])c([H])c(Oc8c([H])c([H])c(F)c([H])c8F)c([H])c7[H])c(C(=O)N([H])[H])c6N([H])[H])C5([H])[H])C([H])([H])C4([H])[H])c([H])c3C([H])([H])[H])c([H])c([H])c2C1([H])[H]

>  <smiles>  (55) 
[H]c1c([H])c([H])c2c(c1[H])C([H])([H])C([H])([H])C([H])([H])C2([H])N([H])C(=O)C1([H])N(C(=O)C([H])(N([H])C(=O)C([H])(N([H])C([H])([H])[H])C([H])([H])[H])C(C([H])([H])[H])(C([H])([H])[H])C([H])([H])[H])C([H])([H])c2c([H])c(OC([H])([H])c3c([H])c(OC([H])([H])C([H])(C([H])([H])[H])C([H])([H])C([H])([H])[H])c(C4([H])C([H])([H])C([H])([H])N(C(=O)N5C([H])([H])C([H])([H])C([H])([H])C([H])(n6nc(-c7c([H])c([H])c(Oc8c([H])c([H])c(F)c([H])c8F)c([H])c7[H])c(C(=O)N([H])[H])c6N([H])[H])C5([H])[H])C([H])([H])C4([H])[H])c([H])c3C([H])([H])[H])c([H])c([H])c2C1([H])[H]

$$$$
56:0:0
     RDKit          3D

 93102  0  0  1  0  0  0  0  0999 V2000
  -29.1610  -23.8690   19.5170 C   0  0  0  0  0  2  0  0  0  0  0  0
  -29.0050  -22.8780   21.7000 C   0  0  0  0  0  0  0  0  0  0  0  0
  -29.3680  -22.6440   20.3480 C   0  0  0  0  0  0  0  0  0  0  0  0
  -28.5720  -25.1520   19.9980 C   0  0  0  0  0  0  0  0  0  0  0  0
  -28.2970  -24.0570   22.0620 C   0  0  0  0  0  0  0  0  0  0  0  0
  -28.1020  -25.1360   21.2600 N   0  0  0  0  0  4  0  0  0  0  0  0
  -30.3770  -22.5520   23.8910 C   0  0  0  0  0  2  0  0  0  0  0  0
  -30.9200  -21.5400   22.9250 C   0  0  0  0  0  2  0  0  0  0  0  0
  -29.4670  -21.9780   22.8170 C   0  0  0  0  0  3  0  0  0  0  0  0
  -27.3540  -25.3930   23.8240 C   0  0  0  0  0  1  0  0  0  0  0  0
  -27.8060  -24.1330   23.3490 O   0  0  0  0  0  0  0  0  0  0  0  0
  -28.4700  -26.4730   19.3340 O   0  0  0  0  0  0  0  0  0  0  0  0
  -24.6680  -31.5150   23.2350 C   0  0  0  0  0  0  0  0  0  0  0  0
  -27.3910  -27.4260   19.5000 C   0  0  0  0  0  0  0  0  0  0  0  0
  -23.5140  -30.3560   21.3930 C   0  0  0  0  0  3  0  0  0  0  0  0
  -25.0150  -29.0890   19.7360 C   0  0  0  0  0  0  0  0  0  0  0  0
  -26.0570  -30.7380   21.2750 C   0  0  0  0  0  2  0  0  0  0  0  0
  -26.1770  -29.4630   20.4180 C   0  0  0  0  0  0  0  0  0  0  0  0
  -27.3680  -28.6490   20.2910 C   0  0  0  0  0  3  0  0  0  0  0  0
  -26.2000  -27.1690   18.7870 C   0  0  0  0  0  3  0  0  0  0  0  0
  -25.0370  -27.9590   18.9060 C   0  0  0  0  0  3  0  0  0  0  0  0
  -23.7600  -29.9310   19.9200 C   0  0  0  0  0  2  0  0  0  0  0  0
  -24.7670  -30.8830   22.0270 N   0  0  0  0  0  0  0  0  0  0  0  0
  -23.5730  -31.6660   23.8000 O   0  0  0  0  0  0  0  0  0  0  0  0
  -22.8860  -29.1750   22.1730 C   0  0  0  0  0  0  0  0  0  0  0  0
  -21.5570  -29.0010   22.0620 N   0  0  0  0  0  0  0  0  0  0  0  0
  -23.5960  -28.4270   22.8500 O   0  0  0  0  0  0  0  0  0  0  0  0
  -21.0310  -29.6700   21.5160 H   0  0  0  0  0  0  0  0  0  0  0  0
  -18.2280  -27.6130   22.3830 C   0  0  0  0  0  0  0  0  0  0  0  0
  -20.7790  -27.9220   22.6800 C   0  0  0  0  0  3  0  0  0  0  0  0
  -20.9260  -26.6010   21.8900 C   0  0  0  0  0  2  0  0  0  0  0  0
  -19.8270  -26.3980   20.8430 C   0  0  0  0  0  2  0  0  0  0  0  0
  -18.4460  -26.3930   21.5040 C   0  0  0  0  0  2  0  0  0  0  0  0
  -19.3220  -28.3380   22.9250 C   0  0  0  0  0  0  0  0  0  0  0  0
  -19.0630  -29.4830   23.7100 C   0  0  0  0  0  3  0  0  0  0  0  0
  -17.7420  -29.9040   23.9560 C   0  0  0  0  0  3  0  0  0  0  0  0
  -16.6630  -29.1740   23.4300 C   0  0  0  0  0  3  0  0  0  0  0  0
  -16.9060  -28.0300   22.6490 C   0  0  0  0  0  3  0  0  0  0  0  0
  -25.9230  -32.0970   23.9550 C   0  0  0  0  0  3  0  0  0  0  0  0
  -25.6510  -33.5080   24.2680 N   0  0  0  0  0  0  0  0  0  0  0  0
  -26.1090  -34.5520   23.5610 C   0  0  0  0  0  0  0  0  0  0  0  0
  -26.8710  -34.4220   22.6010 O   0  0  0  0  0  0  0  0  0  0  0  0
  -25.0010  -33.6930   25.0170 H   0  0  0  0  0  0  0  0  0  0  0  0
  -24.5120  -36.4310   23.0790 C   0  0  0  0  0  1  0  0  0  0  0  0
  -25.6530  -35.9590   23.9930 C   0  0  0  0  0  3  0  0  0  0  0  0
  -27.7360  -36.7370   25.0320 C   0  0  0  0  0  1  0  0  0  0  0  0
  -26.7420  -36.9590   23.9870 N   0  0  0  0  0  0  0  0  0  0  0  0
  -26.3660  -37.8980   24.1040 H   0  0  0  0  0  0  0  0  0  0  0  0
  -26.3050  -31.3090   25.2680 C   0  0  1  0  0  0  0  0  0  0  0  0
  -25.1310  -31.1590   26.2640 C   0  0  0  0  0  1  0  0  0  0  0  0
  -26.8210  -29.8930   24.9240 C   0  0  0  0  0  1  0  0  0  0  0  0
  -27.4610  -32.0330   25.9970 C   0  0  0  0  0  1  0  0  0  0  0  0
  -30.0830  -21.1950   19.9060 C   0  0  0  0  0  2  0  0  0  0  0  0
  -29.6530  -19.5840   20.2970 C   0  0  0  0  0  3  0  0  0  0  0  0
  -30.6790  -18.2220   20.3220 C   0  0  0  0  0  3  0  0  0  0  0  0
  -30.9860  -15.4690   20.3230 C   0  0  0  0  0  0  0  0  0  0  0  0
  -30.8400  -13.0830   19.4630 C   0  0  0  0  0  2  0  0  0  0  0  0
  -29.9410  -12.9940   18.2070 C   0  0  0  0  0  2  0  0  0  0  0  0
  -28.4610  -12.8310   18.5970 C   0  0  0  0  0  2  0  0  0  0  0  0
  -28.0380  -13.8060   19.7270 C   0  0  0  0  0  3  0  0  0  0  0  0
  -29.0620  -13.8570   20.8820 C   0  0  0  0  0  2  0  0  0  0  0  0
  -30.3550  -14.2240   20.2920 N   0  0  0  0  0  0  0  0  0  0  0  0
  -32.2000  -15.4830   20.0890 O   0  0  0  0  0  0  0  0  0  0  0  0
  -30.2490  -16.6900   20.4040 N   0  0  0  0  0  0  0  0  0  0  0  0
  -29.2620  -16.5390   20.5480 H   0  0  0  0  0  0  0  0  0  0  0  0
  -25.6600  -14.4470   20.4150 C   0  0  0  0  0  0  0  0  0  0  0  0
  -24.5630  -13.6990   20.7480 C   0  0  0  0  0  0  0  0  0  0  0  0
  -24.9910  -12.3370   20.7160 C   0  0  0  0  0  0  0  0  0  0  0  0
  -26.6830  -13.5430   20.1940 N   0  0  0  0  0  0  0  0  0  0  0  0
  -26.2900  -12.2670   20.4430 N   0  0  0  0  0  0  0  0  0  0  0  0
  -24.2240  -11.0930   20.8700 C   0  0  0  0  0  0  0  0  0  0  0  0
  -24.6340  -10.0710   21.7550 C   0  0  0  0  0  3  0  0  0  0  0  0
  -23.8610   -8.8990   21.9020 C   0  0  0  0  0  3  0  0  0  0  0  0
  -22.6640   -8.7400   21.1650 C   0  0  0  0  0  0  0  0  0  0  0  0
  -22.2740   -9.7480   20.2670 C   0  0  0  0  0  3  0  0  0  0  0  0
  -23.0480  -10.9120   20.1170 C   0  0  0  0  0  3  0  0  0  0  0  0
  -21.8660   -7.6220   21.2220 O   0  0  0  0  0  0  0  0  0  0  0  0
  -21.7540   -6.8760   22.3680 C   0  0  0  0  0  0  0  0  0  0  0  0
  -21.3160   -7.4400   23.5860 C   0  0  0  0  0  3  0  0  0  0  0  0
  -21.1480   -6.6230   24.7210 C   0  0  0  0  0  3  0  0  0  0  0  0
  -21.4130   -5.2420   24.6400 C   0  0  0  0  0  0  0  0  0  0  0  0
  -21.8430   -4.6780   23.4270 C   0  0  0  0  0  3  0  0  0  0  0  0
  -22.0120   -5.4920   22.2940 C   0  0  0  0  0  0  0  0  0  0  0  0
  -22.4070   -4.9390   21.1220 F   0  0  0  0  0  0  0  0  0  0  0  0
  -21.2450   -4.4550   25.7290 F   0  0  0  0  0  0  0  0  0  0  0  0
  -23.1740  -14.2140   20.9830 C   0  0  0  0  0  0  0  0  0  0  0  0
  -22.4370  -13.5830   21.8890 N   0  0  0  0  0  0  0  0  0  0  0  0
  -22.7560  -15.2140   20.4000 O   0  0  0  0  0  0  0  0  0  0  0  0
  -22.7910  -12.7700   22.3720 H   0  0  0  0  0  0  0  0  0  0  0  0
  -21.5060  -13.9110   22.1030 H   0  0  0  0  0  0  0  0  0  0  0  0
  -25.8610  -15.8150   20.2530 N   0  0  0  0  0  0  0  0  0  0  0  0
  -25.1040  -16.4780   20.3710 H   0  0  0  0  0  0  0  0  0  0  0  0
  -26.7040  -16.2460   19.8990 H   0  0  0  0  0  0  0  0  0  0  0  0
  1  4  1  0
  1  3  1  0
  2  5  1  0
  2  9  1  0
  3  2  2  0
  4  6  2  0
  5 11  1  0
  6  5  2  0
  8  7  1  0
  9  8  1  0
  9  7  1  0
 11 10  1  0
 12 14  1  0
 12  4  1  0
 13 24  2  0
 14 19  1  0
 15 23  1  0
 15 25  1  0
 16 22  1  0
 16 18  1  0
 17 23  1  0
 18 17  1  0
 19 18  2  0
 20 21  1  0
 20 14  2  0
 21 16  2  0
 22 15  1  0
 23 13  1  0
 25 27  2  0
 26 25  1  0
 28 26  1  0
 29 38  2  0
 29 34  1  0
 30 26  1  0
 30 34  1  0
 31 30  1  0
 32 33  1  0
 32 31  1  0
 33 29  1  0
 34 35  2  0
 35 36  1  0
 37 36  2  0
 38 37  1  0
 39 13  1  0
 39 40  1  0
 39 49  1  0
 40 43  1  0
 41 45  1  0
 41 40  1  0
 42 41  2  0
 45 44  1  0
 47 45  1  0
 47 48  1  0
 47 46  1  0
 49 52  1  1
 49 50  1  0
 51 49  1  0
 53 54  1  0
 53  3  1  0
 54 55  2  0
 55 64  1  0
 56 64  1  0
 57 62  1  0
 58 59  1  0
 58 57  1  0
 60 59  1  0
 60 69  1  0
 60 61  1  0
 62 56  1  0
 62 61  1  0
 63 56  2  0
 64 65  1  0
 66 67  2  0
 67 86  1  0
 68 67  1  0
 68 71  1  0
 69 66  1  0
 69 70  1  0
 70 68  2  0
 71 72  1  0
 72 73  2  0
 74 77  1  0
 74 73  1  0
 75 74  2  0
 76 75  1  0
 76 71  2  0
 77 78  1  0
 78 79  1  0
 79 80  2  0
 81 80  1  0
 81 85  1  0
 82 81  2  0
 83 78  2  0
 83 82  1  0
 84 83  1  0
 86 87  1  0
 87 90  1  0
 87 89  1  0
 88 86  2  0
 91 92  1  0
 91 66  1  0
 93 91  1  0
M  ISO  4   4 101  12 101  56 100  64 100
M  END
>  <TORSDO>  (56) 
F 21

>  <SCORE>  (56) 
-12.131

>  <name>  (56) 
56

>  <ligand_id>  (56) 
56

>  <original_smiles>  (56) 
[H]c1c([H])c([H])c2c(c1[H])C([H])([H])C([H])([H])C([H])([H])C2([H])N([H])C(=O)C1([H])N(C(=O)C([H])(N([H])C(=O)C([H])(N([H])C([H])([H])[H])C([H])([H])[H])C(C([H])([H])[H])(C([H])([H])[H])C([H])([H])[H])C([H])([H])c2c([H])c(Oc3nc(OC([H])([H])[H])c(C4([H])C([H])([H])C4([H])[H])c(C([H])([H])C([H])([H])C([H])([H])N([H])C(=O)N4C([H])([H])C([H])([H])C([H])([H])C([H])(n5nc(-c6c([H])c([H])c(Oc7c([H])c([H])c(F)c([H])c7F)c([H])c6[H])c(C(=O)N([H])[H])c5N([H])[H])C4([H])[H])c3[H])c([H])c([H])c2C1([H])[H]

>  <smiles>  (56) 
[H]c1c([H])c([H])c2c(c1[H])C([H])([H])C([H])([H])C([H])([H])C2([H])N([H])C(=O)C1([H])N(C(=O)C([H])(N([H])C(=O)C([H])(N([H])C([H])([H])[H])C([H])([H])[H])C(C([H])([H])[H])(C([H])([H])[H])C([H])([H])[H])C([H])([H])c2c([H])c(Oc3nc(OC([H])([H])[H])c(C4([H])C([H])([H])C4([H])[H])c(C([H])([H])C([H])([H])C([H])([H])N([H])C(=O)N4C([H])([H])C([H])([H])C([H])([H])C([H])(n5nc(-c6c([H])c([H])c(Oc7c([H])c([H])c(F)c([H])c7F)c([H])c6[H])c(C(=O)N([H])[H])c5N([H])[H])C4([H])[H])c3[H])c([H])c([H])c2C1([H])[H]

$$$$
57:0:0
     RDKit          3D

 98107  0  0  1  0  0  0  0  0999 V2000
  -28.7740  -18.9690   19.7830 C   0  0  0  0  0  3  0  0  0  0  0  0
  -27.0780  -20.8770   18.6600 C   0  0  0  0  0  0  0  0  0  0  0  0
  -28.1850  -21.3040   19.4630 C   0  0  0  0  0  0  0  0  0  0  0  0
  -28.9800  -20.3260   20.0960 C   0  0  0  0  0  0  0  0  0  0  0  0
  -26.9850  -19.5500   18.2180 C   0  0  0  0  0  0  0  0  0  0  0  0
  -27.8370  -18.5970   18.7790 C   0  0  0  0  0  0  0  0  0  0  0  0
  -25.9780  -21.8360   18.2330 C   0  0  0  0  0  2  0  0  0  0  0  0
  -28.5220  -22.8050   19.5640 C   0  0  0  0  0  2  0  0  0  0  0  0
  -26.2380  -23.2030   18.8140 C   0  0  0  0  0  2  0  0  0  0  0  0
  -30.0580  -20.6840   21.1090 C   0  0  0  0  0  1  0  0  0  0  0  0
  -26.0020  -19.1700   17.1050 C   0  0  0  0  0  1  0  0  0  0  0  0
  -27.6760  -23.4440   18.5380 N   0  0  1  0  0  4  0  0  0  0  0  0
  -27.7220  -22.5870   18.0090 H   0  0  0  0  0  0  0  0  0  0  0  0
  -29.6730  -24.3610   17.1880 C   0  0  0  0  0  1  0  0  0  0  0  0
  -28.1560  -24.2340   17.3370 C   0  0  0  0  0  3  0  0  0  0  0  0
  -27.4540  -25.5860   17.3660 C   0  0  0  0  0  2  0  0  0  0  0  0
  -27.9950  -26.8870   17.1190 O   0  0  0  0  0  0  0  0  0  0  0  0
  -25.2170  -28.8470   23.2790 C   0  0  0  0  0  0  0  0  0  0  0  0
  -27.0950  -27.7740   17.6870 C   0  0  0  0  0  0  0  0  0  0  0  0
  -23.8060  -29.2330   21.2940 C   0  0  0  0  0  3  0  0  0  0  0  0
  -24.9970  -29.0800   19.0530 C   0  0  0  0  0  0  0  0  0  0  0  0
  -26.3630  -29.2980   21.1220 C   0  0  0  0  0  2  0  0  0  0  0  0
  -26.2170  -28.8390   19.6950 C   0  0  0  0  0  0  0  0  0  0  0  0
  -27.2670  -28.1830   19.0230 C   0  0  0  0  0  3  0  0  0  0  0  0
  -25.8870  -28.1270   17.0190 C   0  0  0  0  0  3  0  0  0  0  0  0
  -24.8290  -28.7270   17.7120 C   0  0  0  0  0  3  0  0  0  0  0  0
  -23.9170  -29.7710   19.8490 C   0  0  0  0  0  2  0  0  0  0  0  0
  -25.1480  -29.0910   21.9440 N   0  0  0  0  0  0  0  0  0  0  0  0
  -24.1960  -28.7770   23.9760 O   0  0  0  0  0  0  0  0  0  0  0  0
  -22.9830  -27.9240   21.2750 C   0  0  0  0  0  0  0  0  0  0  0  0
  -21.6570  -28.0500   21.1220 N   0  0  0  0  0  0  0  0  0  0  0  0
  -23.5390  -26.8270   21.3870 O   0  0  0  0  0  0  0  0  0  0  0  0
  -21.2700  -28.9850   21.0420 H   0  0  0  0  0  0  0  0  0  0  0  0
  -18.1360  -27.2680   20.8340 C   0  0  0  0  0  0  0  0  0  0  0  0
  -20.6950  -26.9480   21.0680 C   0  0  0  0  0  3  0  0  0  0  0  0
  -20.6440  -26.3260   19.6470 C   0  0  0  0  0  2  0  0  0  0  0  0
  -19.5450  -26.9260   18.7650 C   0  0  0  0  0  2  0  0  0  0  0  0
  -18.1670  -26.7620   19.4040 C   0  0  0  0  0  2  0  0  0  0  0  0
  -19.3250  -27.3760   21.6060 C   0  0  0  0  0  0  0  0  0  0  0  0
  -19.2470  -27.8940   22.9180 C   0  0  0  0  0  3  0  0  0  0  0  0
  -18.0160  -28.3160   23.4570 C   0  0  0  0  0  3  0  0  0  0  0  0
  -16.8400  -28.2010   22.6890 C   0  0  0  0  0  3  0  0  0  0  0  0
  -16.9000  -27.6610   21.3900 C   0  0  0  0  0  3  0  0  0  0  0  0
  -26.5820  -28.6660   24.0090 C   0  0  0  0  0  3  0  0  0  0  0  0
  -26.5510  -29.5030   25.2150 N   0  0  0  0  0  0  0  0  0  0  0  0
  -27.1340  -30.7070   25.3130 C   0  0  0  0  0  0  0  0  0  0  0  0
  -27.8300  -31.1950   24.4180 O   0  0  0  0  0  0  0  0  0  0  0  0
  -25.9460  -29.1970   25.9640 H   0  0  0  0  0  0  0  0  0  0  0  0
  -25.8460  -32.5730   26.3900 C   0  0  0  0  0  1  0  0  0  0  0  0
  -26.9130  -31.4920   26.6200 C   0  0  0  0  0  3  0  0  0  0  0  0
  -29.1150  -31.1340   27.6480 C   0  0  0  0  0  1  0  0  0  0  0  0
  -28.1530  -32.1100   27.1450 N   0  0  0  0  0  0  0  0  0  0  0  0
  -27.9400  -32.7670   27.8930 H   0  0  0  0  0  0  0  0  0  0  0  0
  -26.9000  -27.1650   24.3700 C   0  0  1  0  0  0  0  0  0  0  0  0
  -25.7530  -26.4530   25.1220 C   0  0  0  0  0  1  0  0  0  0  0  0
  -27.2040  -26.3480   23.0950 C   0  0  0  0  0  1  0  0  0  0  0  0
  -28.1790  -27.1000   25.2380 C   0  0  0  0  0  1  0  0  0  0  0  0
  -27.6760  -17.3290   18.2800 O   0  0  0  0  0  0  0  0  0  0  0  0
  -28.1000  -16.2810   19.0890 C   0  0  0  0  0  2  0  0  0  0  0  0
  -29.5400  -16.4540   19.5730 C   0  0  0  0  0  2  0  0  0  0  0  0
  -30.5750  -14.4350   20.4150 C   0  0  0  0  0  0  0  0  0  0  0  0
  -30.4550  -12.1540   19.6060 C   0  0  0  0  0  2  0  0  0  0  0  0
  -29.5000  -12.1490   18.3970 C   0  0  0  0  0  2  0  0  0  0  0  0
  -28.0490  -11.9180   18.8740 C   0  0  0  0  0  2  0  0  0  0  0  0
  -27.6210  -12.8970   19.9890 C   0  0  0  0  0  3  0  0  0  0  0  0
  -28.6920  -12.9140   21.1090 C   0  0  0  0  0  2  0  0  0  0  0  0
  -30.0130  -13.2120   20.5120 N   0  0  0  0  0  0  0  0  0  0  0  0
  -31.6860  -14.6680   19.9380 O   0  0  0  0  0  0  0  0  0  0  0  0
  -29.7040  -15.4120   20.5720 N   0  0  0  0  0  0  0  0  0  0  0  0
  -28.8470  -15.0960   21.0020 H   0  0  0  0  0  0  0  0  0  0  0  0
  -25.2650  -13.5150   20.8530 C   0  0  0  0  0  0  0  0  0  0  0  0
  -24.2140  -12.7360   21.2240 C   0  0  0  0  0  0  0  0  0  0  0  0
  -24.6540  -11.3840   21.0720 C   0  0  0  0  0  0  0  0  0  0  0  0
  -26.2870  -12.6360   20.5030 N   0  0  0  0  0  0  0  0  0  0  0  0
  -25.9230  -11.3490   20.6990 N   0  0  0  0  0  0  0  0  0  0  0  0
  -23.9330  -10.1200   21.1960 C   0  0  0  0  0  0  0  0  0  0  0  0
  -24.3660   -9.1110   22.0840 C   0  0  0  0  0  3  0  0  0  0  0  0
  -23.6450   -7.9060   22.2000 C   0  0  0  0  0  3  0  0  0  0  0  0
  -22.4790   -7.7040   21.4230 C   0  0  0  0  0  0  0  0  0  0  0  0
  -22.0620   -8.7030   20.5260 C   0  0  0  0  0  3  0  0  0  0  0  0
  -22.7860   -9.9000   20.4090 C   0  0  0  0  0  3  0  0  0  0  0  0
  -21.7260   -6.5570   21.4520 O   0  0  0  0  0  0  0  0  0  0  0  0
  -21.6220   -5.8010   22.5890 C   0  0  0  0  0  0  0  0  0  0  0  0
  -21.0770   -6.3210   23.7830 C   0  0  0  0  0  3  0  0  0  0  0  0
  -20.9240   -5.4860   24.9070 C   0  0  0  0  0  3  0  0  0  0  0  0
  -21.3060   -4.1320   24.8370 C   0  0  0  0  0  0  0  0  0  0  0  0
  -21.8480   -3.6140   23.6470 C   0  0  0  0  0  3  0  0  0  0  0  0
  -22.0030   -4.4470   22.5260 C   0  0  0  0  0  0  0  0  0  0  0  0
  -22.5050   -3.9380   21.3750 F   0  0  0  0  0  0  0  0  0  0  0  0
  -21.1510   -3.3270   25.9130 F   0  0  0  0  0  0  0  0  0  0  0  0
  -22.8350  -13.2010   21.5960 C   0  0  0  0  0  0  0  0  0  0  0  0
  -22.1330  -12.4490   22.4290 N   0  0  0  0  0  0  0  0  0  0  0  0
  -22.3930  -14.2710   21.1720 O   0  0  0  0  0  0  0  0  0  0  0  0
  -22.5060  -11.5810   22.7870 H   0  0  0  0  0  0  0  0  0  0  0  0
  -21.2140  -12.7480   22.7200 H   0  0  0  0  0  0  0  0  0  0  0  0
  -25.4110  -14.9010   20.7670 N   0  0  0  0  0  0  0  0  0  0  0  0
  -24.6220  -15.5210   20.9210 H   0  0  0  0  0  0  0  0  0  0  0  0
  -26.1790  -15.3590   20.3090 H   0  0  0  0  0  0  0  0  0  0  0  0
  1  4  1  0
  2  3  1  0
  3  8  1  0
  3  4  2  0
  4 10  1  0
  5  2  2  0
  5  6  1  0
  6  1  2  0
  7  2  1  0
  7  9  1  0
 11  5  1  0
 12  9  1  0
 12  8  1  0
 12 13  1  6
 15 14  1  0
 15 16  1  0
 15 12  1  0
 17 16  1  0
 17 19  1  0
 18 29  2  0
 19 24  1  0
 20 30  1  0
 20 28  1  0
 21 23  1  0
 21 27  1  0
 22 28  1  0
 23 22  1  0
 24 23  2  0
 25 19  2  0
 25 26  1  0
 26 21  2  0
 27 20  1  0
 28 18  1  0
 30 32  2  0
 31 30  1  0
 33 31  1  0
 34 43  2  0
 34 39  1  0
 35 31  1  0
 35 39  1  0
 36 35  1  0
 37 38  1  0
 37 36  1  0
 38 34  1  0
 39 40  2  0
 40 41  1  0
 42 41  2  0
 43 42  1  0
 44 18  1  0
 44 54  1  0
 44 45  1  0
 45 46  1  0
 45 48  1  0
 46 50  1  0
 47 46  2  0
 50 49  1  0
 50 52  1  0
 52 51  1  0
 52 53  1  0
 54 55  1  1
 54 57  1  0
 56 54  1  0
 58  6  1  0
 58 59  1  0
 59 60  1  0
 60 69  1  0
 61 67  1  0
 61 69  1  0
 62 67  1  0
 63 64  1  0
 63 62  1  0
 65 64  1  0
 65 74  1  0
 65 66  1  0
 67 66  1  0
 68 61  2  0
 69 70  1  0
 71 72  2  0
 72 91  1  0
 73 76  1  0
 73 72  1  0
 74 75  1  0
 74 71  1  0
 75 73  2  0
 76 77  1  0
 77 78  2  0
 79 82  1  0
 79 78  1  0
 80 79  2  0
 81 80  1  0
 81 76  2  0
 82 83  1  0
 83 84  1  0
 84 85  2  0
 86 85  1  0
 86 90  1  0
 87 86  2  0
 88 83  2  0
 88 87  1  0
 89 88  1  0
 91 92  1  0
 92 95  1  0
 92 94  1  0
 93 91  2  0
 96 71  1  0
 96 97  1  0
 98 96  1  0
M  ISO  4  16 101  17 101  61 100  69 100
M  END
>  <TORSDO>  (57) 
F 21

>  <SCORE>  (57) 
-9.588

>  <name>  (57) 
57

>  <ligand_id>  (57) 
57

>  <original_smiles>  (57) 
[H]c1c([H])c([H])c2c(c1[H])C([H])([H])C([H])([H])C([H])([H])C2([H])N([H])C(=O)C1([H])N(C(=O)C([H])(N([H])C(=O)C([H])(N([H])C([H])([H])[H])C([H])([H])[H])C(C([H])([H])[H])(C([H])([H])[H])C([H])([H])[H])C([H])([H])c2c([H])c(OC([H])([H])C([H])(C([H])([H])[H])[N+]3([H])C([H])([H])c4c(C([H])([H])[H])c([H])c(OC([H])([H])C([H])([H])N([H])C(=O)N5C([H])([H])C([H])([H])C([H])([H])C([H])(n6nc(-c7c([H])c([H])c(Oc8c([H])c([H])c(F)c([H])c8F)c([H])c7[H])c(C(=O)N([H])[H])c6N([H])[H])C5([H])[H])c(C([H])([H])[H])c4C([H])([H])C3([H])[H])c([H])c([H])c2C1([H])[H]

>  <smiles>  (57) 
[H]c1c([H])c([H])c2c(c1[H])C([H])([H])C([H])([H])C([H])([H])C2([H])N([H])C(=O)C1([H])N(C(=O)C([H])(N([H])C(=O)C([H])(N([H])C([H])([H])[H])C([H])([H])[H])C(C([H])([H])[H])(C([H])([H])[H])C([H])([H])[H])C([H])([H])c2c([H])c(OC([H])([H])C([H])(C([H])([H])[H])[N+]3([H])C([H])([H])c4c(C([H])([H])[H])c([H])c(OC([H])([H])C([H])([H])N([H])C(=O)N5C([H])([H])C([H])([H])C([H])([H])C([H])(n6nc(-c7c([H])c([H])c(Oc8c([H])c([H])c(F)c([H])c8F)c([H])c7[H])c(C(=O)N([H])[H])c6N([H])[H])C5([H])[H])c(C([H])([H])[H])c4C([H])([H])C3([H])[H])c([H])c([H])c2C1([H])[H]

$$$$
58:0:0
     RDKit          3D

 91100  0  0  1  0  0  0  0  0999 V2000
  -29.3140  -19.1060   21.3890 C   0  0  0  0  0  3  0  0  0  0  0  0
  -28.8890  -20.4650   21.5320 C   0  0  0  0  0  3  0  0  0  0  0  0
  -29.6080  -21.0000   19.2860 C   0  0  0  0  0  3  0  0  0  0  0  0
  -29.9020  -18.6840   20.1780 C   0  0  0  0  0  0  0  0  0  0  0  0
  -30.0160  -19.6380   19.1530 C   0  0  0  0  0  0  0  0  0  0  0  0
  -29.0400  -21.4530   20.5110 C   0  0  0  0  0  0  0  0  0  0  0  0
  -30.6820  -19.0320   17.9440 C   0  0  0  0  0  2  0  0  0  0  0  0
  -30.8310  -17.5260   18.2870 C   0  0  0  0  0  2  0  0  0  0  0  0
  -30.6290  -17.3520   19.8180 C   0  0  0  0  0  3  0  0  0  0  0  0
  -30.8520  -14.8210   19.9930 C   0  0  0  0  0  0  0  0  0  0  0  0
  -30.5520  -12.5850   18.9670 C   0  0  0  0  0  2  0  0  0  0  0  0
  -29.5660  -12.7160   17.7880 C   0  0  0  0  0  2  0  0  0  0  0  0
  -28.1150  -12.5530   18.2790 C   0  0  0  0  0  2  0  0  0  0  0  0
  -27.8060  -13.4120   19.5350 C   0  0  0  0  0  3  0  0  0  0  0  0
  -28.9160  -13.2960   20.6040 C   0  0  0  0  0  2  0  0  0  0  0  0
  -30.1890  -13.6230   19.9540 N   0  0  0  0  0  0  0  0  0  0  0  0
  -32.0270  -14.8940   19.6280 O   0  0  0  0  0  0  0  0  0  0  0  0
  -30.1250  -15.9740   20.1820 N   0  0  0  0  0  0  0  0  0  0  0  0
  -29.1540  -15.8830   20.4370 H   0  0  0  0  0  0  0  0  0  0  0  0
  -25.4510  -13.9850   20.3780 C   0  0  0  0  0  0  0  0  0  0  0  0
  -24.4060  -13.2020   20.7890 C   0  0  0  0  0  0  0  0  0  0  0  0
  -24.8740  -11.8540   20.7260 C   0  0  0  0  0  0  0  0  0  0  0  0
  -26.4880  -13.1140   20.0860 N   0  0  0  0  0  0  0  0  0  0  0  0
  -26.1500  -11.8260   20.3580 N   0  0  0  0  0  0  0  0  0  0  0  0
  -24.1650  -10.5860   20.9400 C   0  0  0  0  0  0  0  0  0  0  0  0
  -24.6090   -9.6410   21.8930 C   0  0  0  0  0  3  0  0  0  0  0  0
  -23.8980   -8.4380   22.0920 C   0  0  0  0  0  3  0  0  0  0  0  0
  -22.7290   -8.1710   21.3410 C   0  0  0  0  0  0  0  0  0  0  0  0
  -22.3040   -9.1030   20.3780 C   0  0  0  0  0  3  0  0  0  0  0  0
  -23.0160  -10.2980   20.1760 C   0  0  0  0  0  3  0  0  0  0  0  0
  -21.9900   -7.0170   21.4490 O   0  0  0  0  0  0  0  0  0  0  0  0
  -21.9140   -6.3190   22.6260 C   0  0  0  0  0  0  0  0  0  0  0  0
  -21.3890   -6.8960   23.8030 C   0  0  0  0  0  3  0  0  0  0  0  0
  -21.2670   -6.1200   24.9740 C   0  0  0  0  0  3  0  0  0  0  0  0
  -21.6570   -4.7680   24.9670 C   0  0  0  0  0  0  0  0  0  0  0  0
  -22.1740   -4.1900   23.7940 C   0  0  0  0  0  3  0  0  0  0  0  0
  -22.2990   -4.9620   22.6270 C   0  0  0  0  0  0  0  0  0  0  0  0
  -22.7780   -4.3950   21.4940 F   0  0  0  0  0  0  0  0  0  0  0  0
  -21.5320   -4.0190   26.0880 F   0  0  0  0  0  0  0  0  0  0  0  0
  -23.0210  -13.6690   21.1270 C   0  0  0  0  0  0  0  0  0  0  0  0
  -22.3350  -12.9600   22.0160 N   0  0  0  0  0  0  0  0  0  0  0  0
  -22.5560  -14.6970   20.6360 O   0  0  0  0  0  0  0  0  0  0  0  0
  -22.7250  -12.1280   22.4320 H   0  0  0  0  0  0  0  0  0  0  0  0
  -21.4060  -13.2530   22.2830 H   0  0  0  0  0  0  0  0  0  0  0  0
  -25.6000  -15.3570   20.2010 N   0  0  0  0  0  0  0  0  0  0  0  0
  -24.8360  -16.0080   20.3440 H   0  0  0  0  0  0  0  0  0  0  0  0
  -26.4300  -15.8000   19.8270 H   0  0  0  0  0  0  0  0  0  0  0  0
  -28.6210  -22.7700   20.7980 O   0  0  0  0  0  0  0  0  0  0  0  0
  -28.8360  -23.9360   19.9330 C   0  0  0  0  0  2  0  0  0  0  0  0
  -28.2740  -25.2810   20.5910 C   0  0  0  0  0  2  0  0  0  0  0  0
  -28.4430  -26.6130   19.9600 O   0  0  0  0  0  0  0  0  0  0  0  0
  -24.6420  -31.8400   23.1850 C   0  0  0  0  0  0  0  0  0  0  0  0
  -27.3230  -27.4530   19.9690 C   0  0  0  0  0  0  0  0  0  0  0  0
  -23.4590  -30.4840   21.4930 C   0  0  0  0  0  3  0  0  0  0  0  0
  -24.9350  -29.0130   20.0100 C   0  0  0  0  0  0  0  0  0  0  0  0
  -25.9910  -30.8570   21.3200 C   0  0  0  0  0  2  0  0  0  0  0  0
  -26.0950  -29.5050   20.6240 C   0  0  0  0  0  0  0  0  0  0  0  0
  -27.2960  -28.7380   20.5920 C   0  0  0  0  0  3  0  0  0  0  0  0
  -26.1460  -27.0110   19.3320 C   0  0  0  0  0  3  0  0  0  0  0  0
  -24.9620  -27.7710   19.3550 C   0  0  0  0  0  3  0  0  0  0  0  0
  -23.6820  -29.8600   20.0900 C   0  0  0  0  0  2  0  0  0  0  0  0
  -24.7170  -31.0770   22.0560 N   0  0  0  0  0  0  0  0  0  0  0  0
  -23.5550  -32.0780   23.7320 O   0  0  0  0  0  0  0  0  0  0  0  0
  -22.8150  -29.4220   22.4170 C   0  0  0  0  0  0  0  0  0  0  0  0
  -21.4960  -29.2160   22.2730 N   0  0  0  0  0  0  0  0  0  0  0  0
  -23.5040  -28.7870   23.2200 O   0  0  0  0  0  0  0  0  0  0  0  0
  -20.9990  -29.7780   21.5960 H   0  0  0  0  0  0  0  0  0  0  0  0
  -18.1420  -27.9320   22.7160 C   0  0  0  0  0  0  0  0  0  0  0  0
  -20.6930  -28.2360   23.0080 C   0  0  0  0  0  3  0  0  0  0  0  0
  -20.8280  -26.8270   22.3840 C   0  0  0  0  0  2  0  0  0  0  0  0
  -19.7390  -26.5160   21.3540 C   0  0  0  0  0  2  0  0  0  0  0  0
  -18.3520  -26.6120   21.9950 C   0  0  0  0  0  2  0  0  0  0  0  0
  -19.2430  -28.7030   23.1780 C   0  0  0  0  0  0  0  0  0  0  0  0
  -18.9940  -29.9400   23.8110 C   0  0  0  0  0  3  0  0  0  0  0  0
  -17.6780  -30.4070   23.9870 C   0  0  0  0  0  3  0  0  0  0  0  0
  -16.5920  -29.6340   23.5440 C   0  0  0  0  0  3  0  0  0  0  0  0
  -16.8250  -28.3980   22.9150 C   0  0  0  0  0  3  0  0  0  0  0  0
  -25.9170  -32.4710   23.8290 C   0  0  0  0  0  3  0  0  0  0  0  0
  -26.4260  -31.6820   25.0960 C   0  0  1  0  0  0  0  0  0  0  0  0
  -25.3240  -31.4120   26.1480 C   0  0  0  0  0  1  0  0  0  0  0  0
  -27.0270  -30.3160   24.6880 C   0  0  0  0  0  1  0  0  0  0  0  0
  -27.5640  -32.4730   25.7830 C   0  0  0  0  0  1  0  0  0  0  0  0
  -25.5960  -33.8610   24.1800 N   0  0  0  0  0  0  0  0  0  0  0  0
  -25.9320  -34.9300   23.4450 C   0  0  0  0  0  0  0  0  0  0  0  0
  -26.6150  -34.8480   22.4200 O   0  0  0  0  0  0  0  0  0  0  0  0
  -24.9930  -33.9970   24.9780 H   0  0  0  0  0  0  0  0  0  0  0  0
  -24.2100  -36.7270   23.0880 C   0  0  0  0  0  1  0  0  0  0  0  0
  -25.4310  -36.3080   23.9210 C   0  0  0  0  0  3  0  0  0  0  0  0
  -27.5360  -37.1830   24.8300 C   0  0  0  0  0  1  0  0  0  0  0  0
  -26.4620  -37.3650   23.8560 N   0  0  0  0  0  0  0  0  0  0  0  0
  -26.0480  -38.2800   24.0090 H   0  0  0  0  0  0  0  0  0  0  0  0
  1  2  1  0
  3  6  1  0
  4  1  2  0
  5  3  2  0
  5  4  1  0
  6 48  1  0
  6  2  2  0
  7  8  1  0
  7  5  1  0
  8  9  1  0
  9  4  1  0
  9 18  1  0
 10 18  1  0
 11 16  1  0
 12 13  1  0
 12 11  1  0
 14 13  1  0
 14 23  1  0
 14 15  1  0
 16 10  1  0
 16 15  1  0
 17 10  2  0
 18 19  1  0
 20 21  2  0
 21 40  1  0
 22 21  1  0
 22 25  1  0
 23 24  1  0
 23 20  1  0
 24 22  2  0
 25 26  1  0
 26 27  2  0
 28 31  1  0
 28 27  1  0
 29 28  2  0
 30 29  1  0
 30 25  2  0
 31 32  1  0
 32 37  2  0
 32 33  1  0
 33 34  2  0
 35 34  1  0
 35 39  1  0
 36 35  2  0
 37 36  1  0
 38 37  1  0
 40 41  1  0
 41 44  1  0
 41 43  1  0
 42 40  2  0
 45 46  1  0
 45 20  1  0
 47 45  1  0
 49 50  1  0
 49 48  1  0
 51 53  1  0
 51 50  1  0
 52 63  2  0
 53 58  1  0
 54 62  1  0
 54 64  1  0
 55 61  1  0
 55 57  1  0
 56 62  1  0
 57 56  1  0
 58 57  2  0
 59 60  1  0
 59 53  2  0
 60 55  2  0
 61 54  1  0
 62 52  1  0
 64 66  2  0
 65 64  1  0
 67 65  1  0
 68 77  2  0
 68 73  1  0
 69 65  1  0
 69 73  1  0
 70 69  1  0
 71 72  1  0
 71 70  1  0
 72 68  1  0
 73 74  2  0
 74 75  1  0
 76 75  2  0
 77 76  1  0
 78 52  1  0
 78 83  1  0
 78 79  1  0
 79 82  1  1
 79 80  1  0
 81 79  1  0
 83 86  1  0
 84 88  1  0
 84 83  1  0
 85 84  2  0
 88 87  1  0
 90 88  1  0
 90 91  1  0
 90 89  1  0
M  ISO  4  10 100  18 100  50 101  51 101
M  END
>  <TORSDO>  (58) 
F 19

>  <SCORE>  (58) 
-13.104

>  <name>  (58) 
58

>  <ligand_id>  (58) 
58

>  <original_smiles>  (58) 
[H]c1c([H])c([H])c2c(c1[H])C([H])([H])C([H])([H])C([H])([H])C2([H])N([H])C(=O)C1([H])N(C(=O)C([H])(N([H])C(=O)C([H])(N([H])C([H])([H])[H])C([H])([H])[H])C(C([H])([H])[H])(C([H])([H])[H])C([H])([H])[H])C([H])([H])c2c([H])c(OC([H])([H])C([H])([H])Oc3c([H])c([H])c4c(c3[H])C([H])([H])C([H])([H])C4([H])N([H])C(=O)N3C([H])([H])C([H])([H])C([H])([H])C([H])(n4nc(-c5c([H])c([H])c(Oc6c([H])c([H])c(F)c([H])c6F)c([H])c5[H])c(C(=O)N([H])[H])c4N([H])[H])C3([H])[H])c([H])c([H])c2C1([H])[H]

>  <smiles>  (58) 
[H]c1c([H])c([H])c2c(c1[H])C([H])([H])C([H])([H])C([H])([H])C2([H])N([H])C(=O)C1([H])N(C(=O)C([H])(N([H])C(=O)C([H])(N([H])C([H])([H])[H])C([H])([H])[H])C(C([H])([H])[H])(C([H])([H])[H])C([H])([H])[H])C([H])([H])c2c([H])c(OC([H])([H])C([H])([H])Oc3c([H])c([H])c4c(c3[H])C([H])([H])C([H])([H])C4([H])N([H])C(=O)N3C([H])([H])C([H])([H])C([H])([H])C([H])(n4nc(-c5c([H])c([H])c(Oc6c([H])c([H])c(F)c([H])c6F)c([H])c5[H])c(C(=O)N([H])[H])c4N([H])[H])C3([H])[H])c([H])c([H])c2C1([H])[H]

$$$$
59:0:0
     RDKit          3D

 97106  0  0  1  0  0  0  0  0999 V2000
  -27.5500  -22.5030   22.6590 C   0  0  0  0  0  3  0  0  0  0  0  0
  -29.4260  -21.4650   21.5250 C   0  0  0  0  0  3  0  0  0  0  0  0
  -27.1580  -21.2550   23.1850 C   0  0  0  0  0  0  0  0  0  0  0  0
  -27.9320  -20.0870   22.9210 C   0  0  0  0  0  0  0  0  0  0  0  0
  -28.6950  -22.6330   21.8560 C   0  0  0  0  0  0  0  0  0  0  0  0
  -29.0570  -20.1930   22.0450 C   0  0  0  0  0  0  0  0  0  0  0  0
  -25.9290  -21.2320   24.0830 C   0  0  0  0  0  1  0  0  0  0  0  0
  -27.5900  -18.7750   23.6580 C   0  0  0  0  0  3  0  0  0  0  0  0
  -26.8100  -17.5810   22.5870 Cl  0  0  0  0  0  0  0  0  0  0  0  0
  -29.1510  -18.6130   25.7940 C   0  0  0  0  0  2  0  0  0  0  0  0
  -28.4750  -17.2760   25.6180 C   0  0  0  0  0  2  0  0  0  0  0  0
  -28.7540  -18.1380   24.4080 C   0  0  0  0  0  3  0  0  0  0  0  0
  -29.1050  -23.9210   21.5620 O   0  0  0  0  0  0  0  0  0  0  0  0
  -29.3370  -24.2890   20.2020 C   0  0  0  0  0  2  0  0  0  0  0  0
  -28.2180  -25.2430   19.7220 C   0  0  0  0  0  2  0  0  0  0  0  0
  -28.3620  -26.6290   20.1080 O   0  0  0  0  0  0  0  0  0  0  0  0
  -24.6190  -31.8700   23.2140 C   0  0  0  0  0  0  0  0  0  0  0  0
  -27.2120  -27.4070   20.0790 C   0  0  0  0  0  0  0  0  0  0  0  0
  -23.4050  -30.4980   21.5570 C   0  0  0  0  0  3  0  0  0  0  0  0
  -24.8430  -28.9710   20.1110 C   0  0  0  0  0  0  0  0  0  0  0  0
  -25.9380  -30.8230   21.3730 C   0  0  0  0  0  2  0  0  0  0  0  0
  -26.0090  -29.4580   20.7160 C   0  0  0  0  0  0  0  0  0  0  0  0
  -27.1950  -28.6810   20.7050 C   0  0  0  0  0  3  0  0  0  0  0  0
  -26.0240  -26.9610   19.4460 C   0  0  0  0  0  3  0  0  0  0  0  0
  -24.8470  -27.7250   19.4740 C   0  0  0  0  0  3  0  0  0  0  0  0
  -23.6080  -29.8400   20.1680 C   0  0  0  0  0  2  0  0  0  0  0  0
  -24.6730  -31.0760   22.1070 N   0  0  0  0  0  0  0  0  0  0  0  0
  -23.5370  -32.1500   23.7500 O   0  0  0  0  0  0  0  0  0  0  0  0
  -22.7420  -29.4680   22.5020 C   0  0  0  0  0  0  0  0  0  0  0  0
  -21.4150  -29.3040   22.3730 N   0  0  0  0  0  0  0  0  0  0  0  0
  -23.4190  -28.8220   23.3070 O   0  0  0  0  0  0  0  0  0  0  0  0
  -20.9300  -29.8800   21.7000 H   0  0  0  0  0  0  0  0  0  0  0  0
  -18.0280  -28.1380   22.8500 C   0  0  0  0  0  0  0  0  0  0  0  0
  -20.5880  -28.3670   23.1330 C   0  0  0  0  0  3  0  0  0  0  0  0
  -20.6770  -26.9410   22.5440 C   0  0  0  0  0  2  0  0  0  0  0  0
  -19.5760  -26.6390   21.5240 C   0  0  0  0  0  2  0  0  0  0  0  0
  -18.1910  -26.7960   22.1590 C   0  0  0  0  0  2  0  0  0  0  0  0
  -19.1530  -28.8840   23.2920 C   0  0  0  0  0  0  0  0  0  0  0  0
  -18.9440  -30.1450   23.8910 C   0  0  0  0  0  3  0  0  0  0  0  0
  -17.6440  -30.6580   24.0560 C   0  0  0  0  0  3  0  0  0  0  0  0
  -16.5330  -29.9070   23.6340 C   0  0  0  0  0  3  0  0  0  0  0  0
  -16.7270  -28.6490   23.0350 C   0  0  0  0  0  3  0  0  0  0  0  0
  -25.9090  -32.4830   23.8410 C   0  0  0  0  0  3  0  0  0  0  0  0
  -25.5980  -33.8640   24.2360 N   0  0  0  0  0  0  0  0  0  0  0  0
  -25.9050  -34.9470   23.5120 C   0  0  0  0  0  0  0  0  0  0  0  0
  -26.5560  -34.8910   22.4650 O   0  0  0  0  0  0  0  0  0  0  0  0
  -25.0250  -33.9820   25.0590 H   0  0  0  0  0  0  0  0  0  0  0  0
  -24.1480  -36.7280   23.2640 C   0  0  0  0  0  1  0  0  0  0  0  0
  -25.4120  -36.3110   24.0340 C   0  0  0  0  0  3  0  0  0  0  0  0
  -27.5600  -37.1820   24.8460 C   0  0  0  0  0  1  0  0  0  0  0  0
  -26.4310  -37.3790   23.9410 N   0  0  0  0  0  0  0  0  0  0  0  0
  -26.0200  -38.2860   24.1430 H   0  0  0  0  0  0  0  0  0  0  0  0
  -26.4510  -31.6590   25.0730 C   0  0  1  0  0  0  0  0  0  0  0  0
  -25.3730  -31.3680   26.1420 C   0  0  0  0  0  1  0  0  0  0  0  0
  -27.0400  -30.3040   24.6120 C   0  0  0  0  0  1  0  0  0  0  0  0
  -27.6080  -32.4280   25.7520 C   0  0  0  0  0  1  0  0  0  0  0  0
  -29.9190  -19.1280   21.8470 O   0  0  0  0  0  0  0  0  0  0  0  0
  -29.6500  -18.1950   20.7890 C   0  0  0  0  0  2  0  0  0  0  0  0
  -30.6360  -16.9880   20.9200 C   0  0  0  0  0  2  0  0  0  0  0  0
  -30.7200  -14.5190   20.5160 C   0  0  0  0  0  0  0  0  0  0  0  0
  -30.4120  -12.3280   19.4310 C   0  0  0  0  0  2  0  0  0  0  0  0
  -29.4940  -12.5050   18.2060 C   0  0  0  0  0  2  0  0  0  0  0  0
  -28.0130  -12.3770   18.6120 C   0  0  0  0  0  2  0  0  0  0  0  0
  -27.6550  -13.2260   19.8650 C   0  0  0  0  0  3  0  0  0  0  0  0
  -28.7050  -13.0660   20.9900 C   0  0  0  0  0  2  0  0  0  0  0  0
  -30.0230  -13.3510   20.4160 N   0  0  0  0  0  0  0  0  0  0  0  0
  -31.8830  -14.6260   20.1270 O   0  0  0  0  0  0  0  0  0  0  0  0
  -30.0350  -15.6270   20.8770 N   0  0  0  0  0  0  0  0  0  0  0  0
  -29.0620  -15.5250   21.1270 H   0  0  0  0  0  0  0  0  0  0  0  0
  -25.2540  -13.8190   20.5620 C   0  0  0  0  0  0  0  0  0  0  0  0
  -24.1840  -13.0430   20.9190 C   0  0  0  0  0  0  0  0  0  0  0  0
  -24.6460  -11.6930   20.8780 C   0  0  0  0  0  0  0  0  0  0  0  0
  -26.3020  -12.9420   20.3350 N   0  0  0  0  0  0  0  0  0  0  0  0
  -25.9390  -11.6560   20.5820 N   0  0  0  0  0  0  0  0  0  0  0  0
  -23.9130  -10.4300   21.0440 C   0  0  0  0  0  0  0  0  0  0  0  0
  -24.3690   -9.4230   21.9210 C   0  0  0  0  0  3  0  0  0  0  0  0
  -23.6360   -8.2260   22.0760 C   0  0  0  0  0  3  0  0  0  0  0  0
  -22.4340   -8.0290   21.3550 C   0  0  0  0  0  0  0  0  0  0  0  0
  -21.9970   -9.0250   20.4630 C   0  0  0  0  0  3  0  0  0  0  0  0
  -22.7310  -10.2130   20.3070 C   0  0  0  0  0  3  0  0  0  0  0  0
  -21.6670   -6.8920   21.4250 O   0  0  0  0  0  0  0  0  0  0  0  0
  -21.6860   -6.0770   22.5290 C   0  0  0  0  0  0  0  0  0  0  0  0
  -21.3990   -6.5660   23.8230 C   0  0  0  0  0  3  0  0  0  0  0  0
  -21.3670   -5.6780   24.9180 C   0  0  0  0  0  3  0  0  0  0  0  0
  -21.6070   -4.3040   24.7220 C   0  0  0  0  0  0  0  0  0  0  0  0
  -21.8820   -3.8160   23.4330 C   0  0  0  0  0  3  0  0  0  0  0  0
  -21.9200   -4.6990   22.3400 C   0  0  0  0  0  0  0  0  0  0  0  0
  -22.1660   -4.2180   21.0970 F   0  0  0  0  0  0  0  0  0  0  0  0
  -21.5670   -3.4520   25.7730 F   0  0  0  0  0  0  0  0  0  0  0  0
  -22.7850  -13.5200   21.1860 C   0  0  0  0  0  0  0  0  0  0  0  0
  -22.0530  -12.8160   22.0410 N   0  0  0  0  0  0  0  0  0  0  0  0
  -22.3520  -14.5500   20.6720 O   0  0  0  0  0  0  0  0  0  0  0  0
  -22.4130  -11.9790   22.4760 H   0  0  0  0  0  0  0  0  0  0  0  0
  -21.1130  -13.1130   22.2600 H   0  0  0  0  0  0  0  0  0  0  0  0
  -25.4130  -15.1890   20.3930 N   0  0  0  0  0  0  0  0  0  0  0  0
  -24.6430  -15.8340   20.5410 H   0  0  0  0  0  0  0  0  0  0  0  0
  -26.2670  -15.6540   20.1190 H   0  0  0  0  0  0  0  0  0  0  0  0
  1  3  1  0
  2  5  1  0
  2  6  2  0
  3  7  1  0
  4  3  2  0
  4  8  1  0
  5  1  2  0
  6  4  1  0
  8  9  1  0
  8 12  1  0
 11 10  1  0
 12 11  1  0
 12 10  1  0
 13  5  1  0
 14 13  1  0
 15 16  1  0
 15 14  1  0
 17 28  2  0
 18 16  1  0
 18 23  1  0
 19 27  1  0
 19 29  1  0
 20 26  1  0
 20 22  1  0
 21 27  1  0
 22 21  1  0
 23 22  2  0
 24 25  1  0
 24 18  2  0
 25 20  2  0
 26 19  1  0
 27 17  1  0
 29 31  2  0
 30 29  1  0
 32 30  1  0
 33 42  2  0
 33 38  1  0
 34 30  1  0
 34 38  1  0
 35 34  1  0
 36 37  1  0
 36 35  1  0
 37 33  1  0
 38 39  2  0
 39 40  1  0
 41 40  2  0
 42 41  1  0
 43 17  1  0
 43 44  1  0
 43 53  1  0
 44 47  1  0
 45 49  1  0
 45 44  1  0
 46 45  2  0
 49 48  1  0
 51 49  1  0
 51 52  1  0
 51 50  1  0
 53 56  1  1
 53 54  1  0
 55 53  1  0
 57  6  1  0
 58 59  1  0
 58 57  1  0
 60 68  1  0
 61 66  1  0
 62 63  1  0
 62 61  1  0
 64 63  1  0
 64 73  1  0
 64 65  1  0
 66 60  1  0
 66 65  1  0
 67 60  2  0
 68 59  1  0
 68 69  1  0
 70 71  2  0
 71 90  1  0
 72 71  1  0
 72 75  1  0
 73 70  1  0
 73 74  1  0
 74 72  2  0
 75 76  1  0
 76 77  2  0
 78 81  1  0
 78 77  1  0
 79 78  2  0
 80 79  1  0
 80 75  2  0
 81 82  1  0
 82 83  1  0
 83 84  2  0
 85 84  1  0
 85 89  1  0
 86 85  2  0
 87 82  2  0
 87 86  1  0
 88 87  1  0
 90 91  1  0
 91 94  1  0
 91 93  1  0
 92 90  2  0
 95 96  1  0
 95 70  1  0
 97 95  1  0
M  ISO  4  15 101  16 101  60 100  68 100
M  END
>  <TORSDO>  (59) 
F 24

>  <SCORE>  (59) 
37.813

>  <name>  (59) 
59

>  <ligand_id>  (59) 
59

>  <original_smiles>  (59) 
[H]c1c([H])c([H])c2c(c1[H])C([H])([H])C([H])([H])C([H])([H])C2([H])N([H])C(=O)C1([H])N(C(=O)C([H])(N([H])C(=O)C([H])(N([H])C([H])([H])[H])C([H])([H])[H])C(C([H])([H])[H])(C([H])([H])[H])C([H])([H])[H])C([H])([H])c2c([H])c(OC([H])([H])C([H])([H])Oc3c([H])c(OC([H])([H])C([H])([H])N([H])C(=O)N4C([H])([H])C([H])([H])C([H])([H])C([H])(n5nc(-c6c([H])c([H])c(Oc7c([H])c([H])c(F)c([H])c7F)c([H])c6[H])c(C(=O)N([H])[H])c5N([H])[H])C4([H])[H])c(C([H])(Cl)C4([H])C([H])([H])C4([H])[H])c(C([H])([H])[H])c3[H])c([H])c([H])c2C1([H])[H]

>  <smiles>  (59) 
[H]c1c([H])c([H])c2c(c1[H])C([H])([H])C([H])([H])C([H])([H])C2([H])N([H])C(=O)C1([H])N(C(=O)C([H])(N([H])C(=O)C([H])(N([H])C([H])([H])[H])C([H])([H])[H])C(C([H])([H])[H])(C([H])([H])[H])C([H])([H])[H])C([H])([H])c2c([H])c(OC([H])([H])C([H])([H])Oc3c([H])c(OC([H])([H])C([H])([H])N([H])C(=O)N4C([H])([H])C([H])([H])C([H])([H])C([H])(n5nc(-c6c([H])c([H])c(Oc7c([H])c([H])c(F)c([H])c7F)c([H])c6[H])c(C(=O)N([H])[H])c5N([H])[H])C4([H])[H])c(C([H])(Cl)C4([H])C([H])([H])C4([H])[H])c(C([H])([H])[H])c3[H])c([H])c([H])c2C1([H])[H]

$$$$
60:0:0
     RDKit          3D

 97106  0  0  1  0  0  0  0  0999 V2000
  -32.2450  -22.9640   18.6020 C   0  0  0  0  0  3  0  0  0  0  0  0
  -31.5060  -21.8410   19.0090 C   0  0  0  0  0  3  0  0  0  0  0  0
  -32.1380  -24.1690   19.3170 C   0  0  0  0  0  3  0  0  0  0  0  0
  -30.6810  -21.9060   20.1530 C   0  0  0  0  0  0  0  0  0  0  0  0
  -31.2840  -24.2580   20.4400 C   0  0  0  0  0  0  0  0  0  0  0  0
  -30.5800  -23.1170   20.8770 C   0  0  0  0  0  0  0  0  0  0  0  0
  -29.5780  -23.2400   22.2860 Cl  0  0  0  0  0  0  0  0  0  0  0  0
  -29.8840  -20.6750   20.5470 C   0  0  0  0  0  2  0  0  0  0  0  0
  -30.7480  -19.6110   21.1010 N   0  0  0  0  0  4  0  0  0  0  0  0
  -31.6410  -19.6250   20.6370 H   0  0  0  0  0  0  0  0  0  0  0  0
  -30.9100  -19.8200   22.0730 H   0  0  0  0  0  0  0  0  0  0  0  0
  -30.7480  -14.3530   20.1480 C   0  0  0  0  0  0  0  0  0  0  0  0
  -30.3320  -12.2710   18.9190 C   0  0  0  0  0  2  0  0  0  0  0  0
  -29.3410  -12.5880   17.7820 C   0  0  0  0  0  2  0  0  0  0  0  0
  -27.8830  -12.4680   18.2720 C   0  0  0  0  0  2  0  0  0  0  0  0
  -27.6300  -13.2270   19.6030 C   0  0  0  0  0  3  0  0  0  0  0  0
  -28.7360  -12.9180   20.6390 C   0  0  0  0  0  2  0  0  0  0  0  0
  -30.0440  -13.2000   20.0170 N   0  0  0  0  0  0  0  0  0  0  0  0
  -31.8610  -14.5400   19.6480 O   0  0  0  0  0  0  0  0  0  0  0  0
  -30.6650  -17.2680   22.0260 C   0  0  0  0  0  2  0  0  0  0  0  0
  -30.3820  -17.6760   19.5780 C   0  0  0  0  0  2  0  0  0  0  0  0
  -29.9410  -15.9090   21.8790 C   0  0  0  0  0  2  0  0  0  0  0  0
  -29.5920  -16.3690   19.4570 C   0  0  0  0  0  2  0  0  0  0  0  0
  -30.1490  -18.2700   20.9780 C   0  0  0  0  0  3  0  0  0  0  0  0
  -29.9910  -15.4100   20.4970 N   0  0  0  0  0  0  0  0  0  0  0  0
  -25.2620  -13.8390   20.4160 C   0  0  0  0  0  0  0  0  0  0  0  0
  -24.2080  -13.0660   20.8230 C   0  0  0  0  0  0  0  0  0  0  0  0
  -24.6630  -11.7150   20.7560 C   0  0  0  0  0  0  0  0  0  0  0  0
  -26.2960  -12.9560   20.1340 N   0  0  0  0  0  0  0  0  0  0  0  0
  -25.9370  -11.6730   20.3910 N   0  0  0  0  0  0  0  0  0  0  0  0
  -23.9410  -10.4530   20.9610 C   0  0  0  0  0  0  0  0  0  0  0  0
  -24.3900   -9.4890   21.8890 C   0  0  0  0  0  3  0  0  0  0  0  0
  -23.6710   -8.2910   22.0820 C   0  0  0  0  0  3  0  0  0  0  0  0
  -22.4870   -8.0490   21.3450 C   0  0  0  0  0  0  0  0  0  0  0  0
  -22.0580   -9.0010   20.4040 C   0  0  0  0  0  3  0  0  0  0  0  0
  -22.7780  -10.1920   20.2100 C   0  0  0  0  0  3  0  0  0  0  0  0
  -21.7370   -6.9020   21.4490 O   0  0  0  0  0  0  0  0  0  0  0  0
  -21.6800   -6.1830   22.6150 C   0  0  0  0  0  0  0  0  0  0  0  0
  -21.2490   -6.7620   23.8290 C   0  0  0  0  0  3  0  0  0  0  0  0
  -21.1390   -5.9680   24.9880 C   0  0  0  0  0  3  0  0  0  0  0  0
  -21.4500   -4.5960   24.9350 C   0  0  0  0  0  0  0  0  0  0  0  0
  -21.8730   -4.0150   23.7260 C   0  0  0  0  0  3  0  0  0  0  0  0
  -21.9830   -4.8060   22.5690 C   0  0  0  0  0  0  0  0  0  0  0  0
  -22.3710   -4.2380   21.4020 F   0  0  0  0  0  0  0  0  0  0  0  0
  -21.3370   -3.8310   26.0460 F   0  0  0  0  0  0  0  0  0  0  0  0
  -22.8240  -13.5440   21.1620 C   0  0  0  0  0  0  0  0  0  0  0  0
  -22.1370  -12.8430   22.0590 N   0  0  0  0  0  0  0  0  0  0  0  0
  -22.3620  -14.5710   20.6670 O   0  0  0  0  0  0  0  0  0  0  0  0
  -22.5230  -12.0090   22.4770 H   0  0  0  0  0  0  0  0  0  0  0  0
  -21.2100  -13.1400   22.3290 H   0  0  0  0  0  0  0  0  0  0  0  0
  -25.4220  -15.2100   20.2430 N   0  0  0  0  0  0  0  0  0  0  0  0
  -24.6530  -15.8600   20.3730 H   0  0  0  0  0  0  0  0  0  0  0  0
  -26.2570  -15.6470   19.8760 H   0  0  0  0  0  0  0  0  0  0  0  0
  -31.1140  -25.4270   21.1360 O   0  0  0  0  0  0  0  0  0  0  0  0
  -30.9830  -26.6080   20.3550 C   0  0  0  0  0  2  0  0  0  0  0  0
  -29.6940  -27.3290   20.7510 C   0  0  0  0  0  2  0  0  0  0  0  0
  -28.5370  -26.7090   20.1750 O   0  0  0  0  0  0  0  0  0  0  0  0
  -24.6420  -31.8430   23.2170 C   0  0  0  0  0  0  0  0  0  0  0  0
  -27.3590  -27.4290   20.2230 C   0  0  0  0  0  0  0  0  0  0  0  0
  -23.4420  -30.4120   21.5840 C   0  0  0  0  0  3  0  0  0  0  0  0
  -24.9140  -28.8580   20.1940 C   0  0  0  0  0  0  0  0  0  0  0  0
  -25.9520  -30.8030   21.3830 C   0  0  0  0  0  2  0  0  0  0  0  0
  -26.0510  -29.4200   20.7810 C   0  0  0  0  0  0  0  0  0  0  0  0
  -27.2610  -28.7110   20.8130 C   0  0  0  0  0  3  0  0  0  0  0  0
  -26.2040  -26.8670   19.6360 C   0  0  0  0  0  3  0  0  0  0  0  0
  -24.9810  -27.5720   19.6240 C   0  0  0  0  0  3  0  0  0  0  0  0
  -23.6600  -29.7020   20.2160 C   0  0  0  0  0  2  0  0  0  0  0  0
  -24.6950  -31.0350   22.1220 N   0  0  0  0  0  0  0  0  0  0  0  0
  -23.5600  -32.1200   23.7530 O   0  0  0  0  0  0  0  0  0  0  0  0
  -22.7970  -29.4050   22.5600 C   0  0  0  0  0  0  0  0  0  0  0  0
  -21.4730  -29.2260   22.4390 N   0  0  0  0  0  0  0  0  0  0  0  0
  -23.4830  -28.7840   23.3770 O   0  0  0  0  0  0  0  0  0  0  0  0
  -20.9830  -29.7790   21.7490 H   0  0  0  0  0  0  0  0  0  0  0  0
  -18.0940  -28.0750   22.9660 C   0  0  0  0  0  0  0  0  0  0  0  0
  -20.6550  -28.3010   23.2200 C   0  0  0  0  0  3  0  0  0  0  0  0
  -20.7360  -26.8680   22.6460 C   0  0  0  0  0  2  0  0  0  0  0  0
  -19.6230  -26.5560   21.6410 C   0  0  0  0  0  2  0  0  0  0  0  0
  -18.2490  -26.7210   22.2950 C   0  0  0  0  0  2  0  0  0  0  0  0
  -19.2250  -28.8240   23.3880 C   0  0  0  0  0  0  0  0  0  0  0  0
  -19.0280  -30.0940   23.9710 C   0  0  0  0  0  3  0  0  0  0  0  0
  -17.7300  -30.6140   24.1440 C   0  0  0  0  0  3  0  0  0  0  0  0
  -16.6130  -29.8600   23.7420 C   0  0  0  0  0  3  0  0  0  0  0  0
  -16.7960  -28.5930   23.1580 C   0  0  0  0  0  3  0  0  0  0  0  0
  -25.9280  -32.4830   23.8320 C   0  0  0  0  0  3  0  0  0  0  0  0
  -25.6120  -33.8750   24.1720 N   0  0  0  0  0  0  0  0  0  0  0  0
  -25.9320  -34.9320   23.4140 C   0  0  0  0  0  0  0  0  0  0  0  0
  -26.5990  -34.8390   22.3790 O   0  0  0  0  0  0  0  0  0  0  0  0
  -25.0170  -34.0220   24.9750 H   0  0  0  0  0  0  0  0  0  0  0  0
  -24.1840  -36.7070   23.0730 C   0  0  0  0  0  1  0  0  0  0  0  0
  -25.4330  -36.3130   23.8770 C   0  0  0  0  0  3  0  0  0  0  0  0
  -27.5630  -37.2140   24.7010 C   0  0  0  0  0  1  0  0  0  0  0  0
  -26.4540  -37.3770   23.7650 N   0  0  0  0  0  0  0  0  0  0  0  0
  -26.0390  -38.2910   23.9220 H   0  0  0  0  0  0  0  0  0  0  0  0
  -26.4690  -31.7070   25.0950 C   0  0  1  0  0  0  0  0  0  0  0  0
  -25.3880  -31.4370   26.1670 C   0  0  0  0  0  1  0  0  0  0  0  0
  -27.0740  -30.3460   24.6790 C   0  0  0  0  0  1  0  0  0  0  0  0
  -27.6120  -32.5120   25.7580 C   0  0  0  0  0  1  0  0  0  0  0  0
  1  2  2  0
  1  3  1  0
  2  4  1  0
  3  5  2  0
  4  8  1  0
  4  6  2  0
  5  6  1  0
  5 54  1  0
  6  7  1  0
  8  9  1  0
  9 11  1  0
 10  9  1  0
 12 25  1  0
 13 18  1  0
 14 15  1  0
 14 13  1  0
 16 15  1  0
 16 29  1  0
 16 17  1  0
 18 12  1  0
 18 17  1  0
 19 12  2  0
 21 24  1  0
 22 20  1  0
 23 21  1  0
 23 25  1  0
 24  9  1  0
 24 20  1  0
 25 22  1  0
 26 27  2  0
 27 46  1  0
 28 27  1  0
 28 31  1  0
 29 30  1  0
 29 26  1  0
 30 28  2  0
 31 32  1  0
 32 33  2  0
 34 37  1  0
 34 33  1  0
 35 34  2  0
 36 35  1  0
 36 31  2  0
 37 38  1  0
 38 39  1  0
 39 40  2  0
 41 40  1  0
 41 45  1  0
 42 41  2  0
 43 38  2  0
 43 42  1  0
 44 43  1  0
 46 47  1  0
 47 50  1  0
 47 49  1  0
 48 46  2  0
 51 52  1  0
 51 26  1  0
 53 51  1  0
 55 56  1  0
 55 54  1  0
 57 59  1  0
 57 56  1  0
 58 69  2  0
 59 64  1  0
 60 68  1  0
 60 70  1  0
 61 67  1  0
 61 63  1  0
 62 68  1  0
 63 64  2  0
 63 62  1  0
 65 59  2  0
 66 65  1  0
 66 61  2  0
 67 60  1  0
 68 58  1  0
 70 72  2  0
 71 70  1  0
 73 71  1  0
 74 83  2  0
 74 79  1  0
 75 71  1  0
 75 79  1  0
 76 75  1  0
 77 78  1  0
 77 76  1  0
 78 74  1  0
 79 80  2  0
 80 81  1  0
 82 81  2  0
 83 82  1  0
 84 58  1  0
 84 85  1  0
 84 94  1  0
 85 88  1  0
 86 90  1  0
 86 85  1  0
 87 86  2  0
 90 89  1  0
 92 90  1  0
 92 93  1  0
 92 91  1  0
 94 97  1  1
 94 95  1  0
 96 94  1  0
M  ISO  4  12 100  25 100  56 101  57 101
M  END
>  <TORSDO>  (60) 
F 21

>  <SCORE>  (60) 
-13.553

>  <name>  (60) 
60

>  <ligand_id>  (60) 
60

>  <original_smiles>  (60) 
[H]c1c([H])c([H])c2c(c1[H])C([H])([H])C([H])([H])C([H])([H])C2([H])N([H])C(=O)C1([H])N(C(=O)C([H])(N([H])C(=O)C([H])(N([H])C([H])([H])[H])C([H])([H])[H])C(C([H])([H])[H])(C([H])([H])[H])C([H])([H])[H])C([H])([H])c2c([H])c(OC([H])([H])C([H])([H])Oc3c([H])c([H])c([H])c(C([H])([H])[N+]([H])([H])C4([H])C([H])([H])C([H])([H])N(C(=O)N5C([H])([H])C([H])([H])C([H])([H])C([H])(n6nc(-c7c([H])c([H])c(Oc8c([H])c([H])c(F)c([H])c8F)c([H])c7[H])c(C(=O)N([H])[H])c6N([H])[H])C5([H])[H])C([H])([H])C4([H])[H])c3Cl)c([H])c([H])c2C1([H])[H]

>  <smiles>  (60) 
[H]c1c([H])c([H])c2c(c1[H])C([H])([H])C([H])([H])C([H])([H])C2([H])N([H])C(=O)C1([H])N(C(=O)C([H])(N([H])C(=O)C([H])(N([H])C([H])([H])[H])C([H])([H])[H])C(C([H])([H])[H])(C([H])([H])[H])C([H])([H])[H])C([H])([H])c2c([H])c(OC([H])([H])C([H])([H])Oc3c([H])c([H])c([H])c(C([H])([H])[N+]([H])([H])C4([H])C([H])([H])C([H])([H])N(C(=O)N5C([H])([H])C([H])([H])C([H])([H])C([H])(n6nc(-c7c([H])c([H])c(Oc8c([H])c([H])c(F)c([H])c8F)c([H])c7[H])c(C(=O)N([H])[H])c6N([H])[H])C5([H])[H])C([H])([H])C4([H])[H])c3Cl)c([H])c([H])c2C1([H])[H]

$$$$
61:0:0
     RDKit          3D

 96105  0  0  1  0  0  0  0  0999 V2000
  -30.7560  -20.2910   20.3330 C   0  0  0  0  0  3  0  0  0  0  0  0
  -28.4190  -20.9410   19.0540 C   0  0  0  0  0  3  0  0  0  0  0  0
  -30.0800  -19.2690   19.6260 C   0  0  0  0  0  0  0  0  0  0  0  0
  -29.0480  -19.7010   18.7590 C   0  0  0  0  0  3  0  0  0  0  0  0
  -29.1880  -21.9000   19.7470 C   0  0  0  0  0  0  0  0  0  0  0  0
  -30.3880  -21.5990   20.3010 N   0  0  0  0  0  0  0  0  0  0  0  0
  -30.4990  -19.4420   16.7200 C   0  0  0  0  0  1  0  0  0  0  0  0
  -28.0490  -19.6410   16.3490 C   0  0  0  0  0  1  0  0  0  0  0  0
  -29.1080  -19.1400   17.3240 C   0  0  0  0  0  3  0  0  0  0  0  0
  -25.8300  -20.9250   18.1240 C   0  0  0  0  0  2  0  0  0  0  0  0
  -26.1150  -22.2660   18.7660 C   0  0  0  0  0  2  0  0  0  0  0  0
  -26.9110  -21.0600   19.1870 C   0  0  0  0  0  3  0  0  0  0  0  0
  -30.5060  -17.7770   19.6510 C   0  0  0  0  0  2  0  0  0  0  0  0
  -30.5590  -17.0900   21.0410 C   0  0  0  0  0  2  0  0  0  0  0  0
  -30.9180  -14.6650   20.3570 C   0  0  0  0  0  0  0  0  0  0  0  0
  -30.6300  -12.4710   19.2570 C   0  0  0  0  0  2  0  0  0  0  0  0
  -29.6480  -12.6360   18.0760 C   0  0  0  0  0  2  0  0  0  0  0  0
  -28.1920  -12.4660   18.5430 C   0  0  0  0  0  2  0  0  0  0  0  0
  -27.8640  -13.3210   19.7940 C   0  0  0  0  0  3  0  0  0  0  0  0
  -28.9500  -13.1670   20.8880 C   0  0  0  0  0  2  0  0  0  0  0  0
  -30.2670  -13.4670   20.2810 N   0  0  0  0  0  0  0  0  0  0  0  0
  -31.9980  -14.8840   19.8000 O   0  0  0  0  0  0  0  0  0  0  0  0
  -30.2560  -15.6460   20.9940 N   0  0  0  0  0  0  0  0  0  0  0  0
  -29.3860  -15.3750   21.4270 H   0  0  0  0  0  0  0  0  0  0  0  0
  -25.4760  -13.9070   20.5700 C   0  0  0  0  0  0  0  0  0  0  0  0
  -24.4160  -13.1270   20.9400 C   0  0  0  0  0  0  0  0  0  0  0  0
  -24.8780  -11.7760   20.8720 C   0  0  0  0  0  0  0  0  0  0  0  0
  -26.5190  -13.0360   20.2960 N   0  0  0  0  0  0  0  0  0  0  0  0
  -26.1610  -11.7470   20.5300 N   0  0  0  0  0  0  0  0  0  0  0  0
  -24.1560  -10.5120   21.0510 C   0  0  0  0  0  0  0  0  0  0  0  0
  -24.5840   -9.5430   21.9850 C   0  0  0  0  0  3  0  0  0  0  0  0
  -23.8620   -8.3400   22.1520 C   0  0  0  0  0  3  0  0  0  0  0  0
  -22.6950   -8.1000   21.3870 C   0  0  0  0  0  0  0  0  0  0  0  0
  -22.2860   -9.0600   20.4400 C   0  0  0  0  0  3  0  0  0  0  0  0
  -23.0100  -10.2530   20.2720 C   0  0  0  0  0  3  0  0  0  0  0  0
  -21.9480   -6.9500   21.4650 O   0  0  0  0  0  0  0  0  0  0  0  0
  -21.8570   -6.2230   22.6280 C   0  0  0  0  0  0  0  0  0  0  0  0
  -21.3810   -6.7890   23.8300 C   0  0  0  0  0  3  0  0  0  0  0  0
  -21.2400   -5.9890   24.9800 C   0  0  0  0  0  3  0  0  0  0  0  0
  -21.5670   -4.6200   24.9330 C   0  0  0  0  0  0  0  0  0  0  0  0
  -22.0380   -4.0520   23.7350 C   0  0  0  0  0  3  0  0  0  0  0  0
  -22.1780   -4.8490   22.5870 C   0  0  0  0  0  0  0  0  0  0  0  0
  -22.6110   -4.2940   21.4310 F   0  0  0  0  0  0  0  0  0  0  0  0
  -21.4280   -3.8480   26.0350 F   0  0  0  0  0  0  0  0  0  0  0  0
  -23.0260  -13.5890   21.2710 C   0  0  0  0  0  0  0  0  0  0  0  0
  -22.3300  -12.8800   22.1490 N   0  0  0  0  0  0  0  0  0  0  0  0
  -22.5610  -14.6160   20.7740 O   0  0  0  0  0  0  0  0  0  0  0  0
  -22.7110  -12.0390   22.5670 H   0  0  0  0  0  0  0  0  0  0  0  0
  -21.3970  -13.1800   22.4030 H   0  0  0  0  0  0  0  0  0  0  0  0
  -25.6470  -15.2860   20.4340 N   0  0  0  0  0  0  0  0  0  0  0  0
  -24.8840  -15.9380   20.5730 H   0  0  0  0  0  0  0  0  0  0  0  0
  -26.4970  -15.7390   20.1250 H   0  0  0  0  0  0  0  0  0  0  0  0
  -28.6230  -23.1210   20.0590 O   0  0  0  0  0  0  0  0  0  0  0  0
  -29.2520  -24.3360   19.6270 C   0  0  0  0  0  2  0  0  0  0  0  0
  -28.4870  -25.5070   20.2970 C   0  0  0  0  0  2  0  0  0  0  0  0
  -28.4450  -26.7330   19.5390 O   0  0  0  0  0  0  0  0  0  0  0  0
  -24.5450  -31.6200   23.0010 C   0  0  0  0  0  0  0  0  0  0  0  0
  -27.2590  -27.4400   19.6180 C   0  0  0  0  0  0  0  0  0  0  0  0
  -23.3560  -30.3110   21.2710 C   0  0  0  0  0  3  0  0  0  0  0  0
  -24.8320  -28.8980   19.7440 C   0  0  0  0  0  0  0  0  0  0  0  0
  -25.8730  -30.7280   21.0930 C   0  0  0  0  0  2  0  0  0  0  0  0
  -25.9820  -29.4050   20.3600 C   0  0  0  0  0  0  0  0  0  0  0  0
  -27.1990  -28.6860   20.2870 C   0  0  0  0  0  3  0  0  0  0  0  0
  -26.0900  -26.9470   18.9990 C   0  0  0  0  0  3  0  0  0  0  0  0
  -24.8820  -27.6700   19.0580 C   0  0  0  0  0  3  0  0  0  0  0  0
  -23.5670  -29.7260   19.8490 C   0  0  0  0  0  2  0  0  0  0  0  0
  -24.6080  -30.8990   21.8470 N   0  0  0  0  0  0  0  0  0  0  0  0
  -23.4620  -31.8330   23.5660 O   0  0  0  0  0  0  0  0  0  0  0  0
  -22.7280  -29.2170   22.1670 C   0  0  0  0  0  0  0  0  0  0  0  0
  -21.3970  -29.0540   22.0700 N   0  0  0  0  0  0  0  0  0  0  0  0
  -23.4340  -28.5240   22.9010 O   0  0  0  0  0  0  0  0  0  0  0  0
  -20.8840  -29.6620   21.4490 H   0  0  0  0  0  0  0  0  0  0  0  0
  -18.0260  -27.8790   22.6290 C   0  0  0  0  0  0  0  0  0  0  0  0
  -20.6010  -28.0600   22.7890 C   0  0  0  0  0  3  0  0  0  0  0  0
  -20.6390  -26.6920   22.0710 C   0  0  0  0  0  2  0  0  0  0  0  0
  -19.4800  -26.4950   21.0900 C   0  0  0  0  0  2  0  0  0  0  0  0
  -18.1370  -26.5990   21.8160 C   0  0  0  0  0  2  0  0  0  0  0  0
  -19.1830  -28.5710   23.0730 C   0  0  0  0  0  0  0  0  0  0  0  0
  -19.0200  -29.7750   23.7930 C   0  0  0  0  0  3  0  0  0  0  0  0
  -17.7370  -30.2780   24.0740 C   0  0  0  0  0  3  0  0  0  0  0  0
  -16.5960  -29.5770   23.6480 C   0  0  0  0  0  3  0  0  0  0  0  0
  -16.7430  -28.3810   22.9220 C   0  0  0  0  0  3  0  0  0  0  0  0
  -25.8240  -32.2300   23.6550 C   0  0  0  0  0  3  0  0  0  0  0  0
  -25.4950  -33.5970   24.0780 N   0  0  0  0  0  0  0  0  0  0  0  0
  -25.8010  -34.7010   23.3870 C   0  0  0  0  0  0  0  0  0  0  0  0
  -26.4610  -34.6750   22.3430 O   0  0  0  0  0  0  0  0  0  0  0  0
  -24.9040  -33.6890   24.8920 H   0  0  0  0  0  0  0  0  0  0  0  0
  -24.0370  -36.4780   23.1670 C   0  0  0  0  0  1  0  0  0  0  0  0
  -25.2950  -36.0500   23.9340 C   0  0  0  0  0  3  0  0  0  0  0  0
  -27.4250  -36.9260   24.7900 C   0  0  0  0  0  1  0  0  0  0  0  0
  -26.3080  -37.1260   23.8720 N   0  0  0  0  0  0  0  0  0  0  0  0
  -25.8870  -38.0290   24.0750 H   0  0  0  0  0  0  0  0  0  0  0  0
  -26.3610  -31.3870   24.8770 C   0  0  1  0  0  0  0  0  0  0  0  0
  -25.2810  -31.0690   25.9380 C   0  0  0  0  0  1  0  0  0  0  0  0
  -26.9590  -30.0460   24.3940 C   0  0  0  0  0  1  0  0  0  0  0  0
  -27.5130  -32.1500   25.5730 C   0  0  0  0  0  1  0  0  0  0  0  0
  2 12  1  0
  2  5  1  0
  3 13  1  0
  3  1  2  0
  4  9  1  0
  4  2  1  0
  4  3  1  0
  5 53  1  0
  5  6  2  0
  6  1  1  0
  7  9  1  0
  8  9  1  0
 10 11  1  0
 10 12  1  0
 11 12  1  0
 13 14  1  0
 15 23  1  0
 16 21  1  0
 17 18  1  0
 17 16  1  0
 19 18  1  0
 19 28  1  0
 19 20  1  0
 21 15  1  0
 21 20  1  0
 22 15  2  0
 23 14  1  0
 23 24  1  0
 25 26  2  0
 26 45  1  0
 27 26  1  0
 27 30  1  0
 28 29  1  0
 28 25  1  0
 29 27  2  0
 30 31  1  0
 31 32  2  0
 33 36  1  0
 33 32  1  0
 34 33  2  0
 35 34  1  0
 35 30  2  0
 36 37  1  0
 37 38  1  0
 38 39  2  0
 40 39  1  0
 40 44  1  0
 41 40  2  0
 42 37  2  0
 42 41  1  0
 43 42  1  0
 45 46  1  0
 46 49  1  0
 46 48  1  0
 47 45  2  0
 50 25  1  0
 50 51  1  0
 52 50  1  0
 54 53  1  0
 54 55  1  0
 56 58  1  0
 56 55  1  0
 57 68  2  0
 58 63  1  0
 59 67  1  0
 59 69  1  0
 60 66  1  0
 60 62  1  0
 61 67  1  0
 62 61  1  0
 63 62  2  0
 64 65  1  0
 64 58  2  0
 65 60  2  0
 66 59  1  0
 67 57  1  0
 69 71  2  0
 70 69  1  0
 72 70  1  0
 73 82  2  0
 73 78  1  0
 74 70  1  0
 74 78  1  0
 75 74  1  0
 76 77  1  0
 76 75  1  0
 77 73  1  0
 78 79  2  0
 79 80  1  0
 81 80  2  0
 82 81  1  0
 83 57  1  0
 83 84  1  0
 83 93  1  0
 84 87  1  0
 85 89  1  0
 85 84  1  0
 86 85  2  0
 89 88  1  0
 91 89  1  0
 91 92  1  0
 91 90  1  0
 93 96  1  1
 93 94  1  0
 95 93  1  0
M  ISO  4  15 100  23 100  55 101  56 101
M  END
>  <TORSDO>  (61) 
F 23

>  <SCORE>  (61) 
-12.453

>  <name>  (61) 
61

>  <ligand_id>  (61) 
61

>  <original_smiles>  (61) 
[H]c1nc(OC([H])([H])C([H])([H])Oc2c([H])c([H])c3c(c2[H])C([H])([H])N(C(=O)C([H])(N([H])C(=O)C([H])(N([H])C([H])([H])[H])C([H])([H])[H])C(C([H])([H])[H])(C([H])([H])[H])C([H])([H])[H])C([H])(C(=O)N([H])C2([H])c4c([H])c([H])c([H])c([H])c4C([H])([H])C([H])([H])C2([H])[H])C3([H])[H])c(C2([H])C([H])([H])C2([H])[H])c(C([H])(C([H])([H])[H])C([H])([H])[H])c1C([H])([H])C([H])([H])N([H])C(=O)N1C([H])([H])C([H])([H])C([H])([H])C([H])(n2nc(-c3c([H])c([H])c(Oc4c([H])c([H])c(F)c([H])c4F)c([H])c3[H])c(C(=O)N([H])[H])c2N([H])[H])C1([H])[H]

>  <smiles>  (61) 
[H]c1nc(OC([H])([H])C([H])([H])Oc2c([H])c([H])c3c(c2[H])C([H])([H])N(C(=O)C([H])(N([H])C(=O)C([H])(N([H])C([H])([H])[H])C([H])([H])[H])C(C([H])([H])[H])(C([H])([H])[H])C([H])([H])[H])C([H])(C(=O)N([H])C2([H])c4c([H])c([H])c([H])c([H])c4C([H])([H])C([H])([H])C2([H])[H])C3([H])[H])c(C2([H])C([H])([H])C2([H])[H])c(C([H])(C([H])([H])[H])C([H])([H])[H])c1C([H])([H])C([H])([H])N([H])C(=O)N1C([H])([H])C([H])([H])C([H])([H])C([H])(n2nc(-c3c([H])c([H])c(Oc4c([H])c([H])c(F)c([H])c4F)c([H])c3[H])c(C(=O)N([H])[H])c2N([H])[H])C1([H])[H]

$$$$
62:0:0
     RDKit          3D

100109  0  0  1  0  0  0  0  0999 V2000
  -27.6350  -20.7030   21.1390 C   0  0  0  0  0  3  0  0  0  0  0  0
  -27.9450  -22.0640   21.3240 C   0  0  0  0  0  3  0  0  0  0  0  0
  -29.1240  -20.6330   19.2190 C   0  0  0  0  0  3  0  0  0  0  0  0
  -28.2270  -19.9800   20.0860 C   0  0  0  0  0  0  0  0  0  0  0  0
  -29.4470  -21.9960   19.3980 C   0  0  0  0  0  0  0  0  0  0  0  0
  -28.8590  -22.7270   20.4660 C   0  0  0  0  0  0  0  0  0  0  0  0
  -31.8490  -22.7470   19.0510 C   0  0  0  0  0  1  0  0  0  0  0  0
  -30.4510  -22.6290   18.4290 C   0  0  0  0  0  3  0  0  0  0  0  0
  -30.1460  -24.2610   16.3740 C   0  0  0  0  0  2  0  0  0  0  0  0
  -28.7670  -23.9960   16.9270 C   0  0  0  0  0  2  0  0  0  0  0  0
  -29.9680  -23.9500   17.8430 C   0  0  0  0  0  3  0  0  0  0  0  0
  -27.9090  -18.5020   19.8880 C   0  0  0  0  0  2  0  0  0  0  0  0
  -28.7550  -17.6200   20.7210 N   0  0  0  0  0  4  0  0  0  0  0  0
  -28.4510  -16.6760   20.5600 H   0  0  0  0  0  0  0  0  0  0  0  0
  -28.5730  -17.8380   21.6870 H   0  0  0  0  0  0  0  0  0  0  0  0
  -30.2140  -17.7030   20.4730 C   0  0  0  0  0  2  0  0  0  0  0  0
  -30.9970  -17.1400   22.8550 C   0  0  0  0  0  1  0  0  0  0  0  0
  -31.0330  -16.7440   21.3690 C   0  0  0  0  0  3  0  0  0  0  0  0
  -31.1400  -14.4410   20.4000 C   0  0  0  0  0  0  0  0  0  0  0  0
  -30.8210  -12.2340   19.3490 C   0  0  0  0  0  2  0  0  0  0  0  0
  -29.8950  -12.3530   18.1220 C   0  0  0  0  0  2  0  0  0  0  0  0
  -28.4130  -12.2640   18.5380 C   0  0  0  0  0  2  0  0  0  0  0  0
  -28.0710  -13.2080   19.7190 C   0  0  0  0  0  3  0  0  0  0  0  0
  -29.0960  -13.0400   20.8620 C   0  0  0  0  0  2  0  0  0  0  0  0
  -30.4460  -13.2780   20.3120 N   0  0  0  0  0  0  0  0  0  0  0  0
  -32.1740  -14.6700   19.7650 O   0  0  0  0  0  0  0  0  0  0  0  0
  -30.5920  -15.3560   21.2120 N   0  0  0  0  0  0  0  0  0  0  0  0
  -29.8160  -15.0320   21.7720 H   0  0  0  0  0  0  0  0  0  0  0  0
  -25.6990  -13.9310   20.4190 C   0  0  0  0  0  0  0  0  0  0  0  0
  -24.5970  -13.2090   20.7950 C   0  0  0  0  0  0  0  0  0  0  0  0
  -24.9940  -11.8360   20.7570 C   0  0  0  0  0  0  0  0  0  0  0  0
  -26.7020  -13.0020   20.1870 N   0  0  0  0  0  0  0  0  0  0  0  0
  -26.2800  -11.7380   20.4430 N   0  0  0  0  0  0  0  0  0  0  0  0
  -24.2110  -10.6080   20.9430 C   0  0  0  0  0  0  0  0  0  0  0  0
  -24.5730   -9.6420   21.9080 C   0  0  0  0  0  3  0  0  0  0  0  0
  -23.7970   -8.4760   22.0800 C   0  0  0  0  0  3  0  0  0  0  0  0
  -22.6430   -8.2690   21.2870 C   0  0  0  0  0  0  0  0  0  0  0  0
  -22.3000   -9.2210   20.3120 C   0  0  0  0  0  3  0  0  0  0  0  0
  -23.0770  -10.3790   20.1370 C   0  0  0  0  0  3  0  0  0  0  0  0
  -21.8430   -7.1540   21.3670 O   0  0  0  0  0  0  0  0  0  0  0  0
  -21.6890   -6.4620   22.5410 C   0  0  0  0  0  0  0  0  0  0  0  0
  -21.2080   -7.0830   23.7160 C   0  0  0  0  0  3  0  0  0  0  0  0
  -21.0000   -6.3180   24.8810 C   0  0  0  0  0  3  0  0  0  0  0  0
  -21.2630   -4.9340   24.8730 C   0  0  0  0  0  0  0  0  0  0  0  0
  -21.7360   -4.3140   23.7030 C   0  0  0  0  0  3  0  0  0  0  0  0
  -21.9460   -5.0760   22.5400 C   0  0  0  0  0  0  0  0  0  0  0  0
  -22.3820   -4.4700   21.4100 F   0  0  0  0  0  0  0  0  0  0  0  0
  -21.0550   -4.1990   25.9900 F   0  0  0  0  0  0  0  0  0  0  0  0
  -23.2230  -13.7480   21.0660 C   0  0  0  0  0  0  0  0  0  0  0  0
  -22.4690  -13.0950   21.9430 N   0  0  0  0  0  0  0  0  0  0  0  0
  -22.8270  -14.7840   20.5320 O   0  0  0  0  0  0  0  0  0  0  0  0
  -22.8020  -12.2560   22.3950 H   0  0  0  0  0  0  0  0  0  0  0  0
  -21.5450  -13.4380   22.1670 H   0  0  0  0  0  0  0  0  0  0  0  0
  -25.9280  -15.2910   20.2240 N   0  0  0  0  0  0  0  0  0  0  0  0
  -25.0870  -15.8580   20.2020 H   0  0  0  0  0  0  0  0  0  0  0  0
  -26.5360  -15.5110   19.4470 H   0  0  0  0  0  0  0  0  0  0  0  0
  -29.2180  -24.0490   20.6280 O   0  0  0  0  0  0  0  0  0  0  0  0
  -28.5560  -24.8370   21.6130 C   0  0  0  0  0  2  0  0  0  0  0  0
  -29.0560  -26.2880   21.5060 C   0  0  0  0  0  2  0  0  0  0  0  0
  -28.6430  -26.8640   20.2680 O   0  0  0  0  0  0  0  0  0  0  0  0
  -24.6800  -31.9640   23.2960 C   0  0  0  0  0  0  0  0  0  0  0  0
  -27.4650  -27.5660   20.3070 C   0  0  0  0  0  0  0  0  0  0  0  0
  -23.5260  -30.5230   21.6450 C   0  0  0  0  0  3  0  0  0  0  0  0
  -25.0350  -28.9980   20.2630 C   0  0  0  0  0  0  0  0  0  0  0  0
  -26.0430  -30.9320   21.4870 C   0  0  0  0  0  2  0  0  0  0  0  0
  -26.1670  -29.5560   20.8720 C   0  0  0  0  0  0  0  0  0  0  0  0
  -27.3850  -28.8440   20.8990 C   0  0  0  0  0  3  0  0  0  0  0  0
  -26.3250  -27.0150   19.6900 C   0  0  0  0  0  3  0  0  0  0  0  0
  -25.1090  -27.7240   19.6710 C   0  0  0  0  0  3  0  0  0  0  0  0
  -23.7730  -29.8310   20.2770 C   0  0  0  0  0  2  0  0  0  0  0  0
  -24.7660  -31.1570   22.2010 N   0  0  0  0  0  0  0  0  0  0  0  0
  -23.5850  -32.2210   23.8150 O   0  0  0  0  0  0  0  0  0  0  0  0
  -22.8790  -29.4990   22.6040 C   0  0  0  0  0  0  0  0  0  0  0  0
  -21.5600  -29.2950   22.4580 N   0  0  0  0  0  0  0  0  0  0  0  0
  -23.5610  -28.8900   23.4320 O   0  0  0  0  0  0  0  0  0  0  0  0
  -21.0710  -29.8480   21.7680 H   0  0  0  0  0  0  0  0  0  0  0  0
  -18.1940  -28.0670   22.9140 C   0  0  0  0  0  0  0  0  0  0  0  0
  -20.7450  -28.3490   23.2180 C   0  0  0  0  0  3  0  0  0  0  0  0
  -20.8670  -26.9190   22.6450 C   0  0  0  0  0  2  0  0  0  0  0  0
  -19.7800  -26.5820   21.6190 C   0  0  0  0  0  2  0  0  0  0  0  0
  -18.3900  -26.7180   22.2460 C   0  0  0  0  0  2  0  0  0  0  0  0
  -19.3000  -28.8410   23.3570 C   0  0  0  0  0  0  0  0  0  0  0  0
  -19.0620  -30.1060   23.9390 C   0  0  0  0  0  3  0  0  0  0  0  0
  -17.7520  -30.5960   24.0840 C   0  0  0  0  0  3  0  0  0  0  0  0
  -16.6590  -29.8190   23.6590 C   0  0  0  0  0  3  0  0  0  0  0  0
  -16.8820  -28.5570   23.0810 C   0  0  0  0  0  3  0  0  0  0  0  0
  -25.9450  -32.6200   23.9320 C   0  0  0  0  0  3  0  0  0  0  0  0
  -26.4580  -31.8650   25.2190 C   0  0  1  0  0  0  0  0  0  0  0  0
  -25.3500  -31.5960   26.2650 C   0  0  0  0  0  1  0  0  0  0  0  0
  -27.0880  -30.5040   24.8360 C   0  0  0  0  0  1  0  0  0  0  0  0
  -27.5730  -32.6920   25.9020 C   0  0  0  0  0  1  0  0  0  0  0  0
  -25.6090  -34.0150   24.2450 N   0  0  0  0  0  0  0  0  0  0  0  0
  -25.9350  -35.0650   23.4800 C   0  0  0  0  0  0  0  0  0  0  0  0
  -26.6220  -34.9630   22.4600 O   0  0  0  0  0  0  0  0  0  0  0  0
  -25.0020  -34.1680   25.0380 H   0  0  0  0  0  0  0  0  0  0  0  0
  -24.1770  -36.8190   23.0840 C   0  0  0  0  0  1  0  0  0  0  0  0
  -25.4160  -36.4490   23.9160 C   0  0  0  0  0  3  0  0  0  0  0  0
  -27.5240  -37.3830   24.7600 C   0  0  0  0  0  1  0  0  0  0  0  0
  -26.4300  -37.5210   23.8030 N   0  0  0  0  0  0  0  0  0  0  0  0
  -26.0040  -38.4340   23.9370 H   0  0  0  0  0  0  0  0  0  0  0  0
  1  2  1  0
  3  5  2  0
  3  4  1  0
  4  1  2  0
  5  6  1  0
  6 57  1  0
  6  2  2  0
  8  7  1  0
  8  5  1  0
  9 10  1  0
  9 11  1  0
 10 11  1  0
 11  8  1  0
 12  4  1  0
 12 13  1  0
 13 15  1  0
 14 13  1  0
 16 13  1  0
 16 18  1  0
 18 17  1  0
 19 27  1  0
 20 25  1  0
 21 22  1  0
 21 20  1  0
 23 22  1  0
 23 32  1  0
 23 24  1  0
 25 19  1  0
 25 24  1  0
 26 19  2  0
 27 18  1  0
 27 28  1  0
 29 30  2  0
 30 49  1  0
 31 30  1  0
 31 34  1  0
 32 29  1  0
 32 33  1  0
 33 31  2  0
 34 35  1  0
 35 36  2  0
 37 40  1  0
 37 36  1  0
 38 37  2  0
 39 38  1  0
 39 34  2  0
 40 41  1  0
 41 42  1  0
 42 43  2  0
 44 43  1  0
 44 48  1  0
 45 44  2  0
 46 41  2  0
 46 45  1  0
 47 46  1  0
 49 50  1  0
 50 53  1  0
 50 52  1  0
 51 49  2  0
 54 29  1  0
 55 54  1  0
 56 54  1  0
 57 58  1  0
 59 58  1  0
 60 62  1  0
 60 59  1  0
 61 72  2  0
 62 67  1  0
 63 71  1  0
 63 73  1  0
 64 70  1  0
 64 66  1  0
 65 71  1  0
 66 67  2  0
 66 65  1  0
 68 62  2  0
 69 68  1  0
 69 64  2  0
 70 63  1  0
 71 61  1  0
 73 75  2  0
 74 73  1  0
 76 74  1  0
 77 86  2  0
 77 82  1  0
 78 74  1  0
 78 82  1  0
 79 78  1  0
 80 81  1  0
 80 79  1  0
 81 77  1  0
 82 83  2  0
 83 84  1  0
 85 84  2  0
 86 85  1  0
 87 61  1  0
 87 92  1  0
 87 88  1  0
 88 91  1  1
 88 89  1  0
 90 88  1  0
 92 95  1  0
 93 97  1  0
 93 92  1  0
 94 93  2  0
 97 96  1  0
 99 97  1  0
 99100  1  0
 99 98  1  0
M  ISO  4  19 100  27 100  59 101  60 101
M  END
>  <TORSDO>  (62) 
F 25

>  <SCORE>  (62) 
-11.689

>  <name>  (62) 
62

>  <ligand_id>  (62) 
62

>  <original_smiles>  (62) 
[H]c1c([H])c([H])c2c(c1[H])C([H])([H])C([H])([H])C([H])([H])C2([H])N([H])C(=O)C1([H])N(C(=O)C([H])(N([H])C(=O)C([H])(N([H])C([H])([H])[H])C([H])([H])[H])C(C([H])([H])[H])(C([H])([H])[H])C([H])([H])[H])C([H])([H])c2c([H])c(OC([H])([H])C([H])([H])Oc3c([H])c([H])c(C([H])([H])[N+]([H])([H])C([H])([H])C([H])(N([H])C(=O)N4C([H])([H])C([H])([H])C([H])([H])C([H])(n5nc(-c6c([H])c([H])c(Oc7c([H])c([H])c(F)c([H])c7F)c([H])c6[H])c(C(=O)N([H])[H])c5N([H])[H])C4([H])[H])C([H])([H])[H])c([H])c3C([H])(C([H])([H])[H])C3([H])C([H])([H])C3([H])[H])c([H])c([H])c2C1([H])[H]

>  <smiles>  (62) 
[H]c1c([H])c([H])c2c(c1[H])C([H])([H])C([H])([H])C([H])([H])C2([H])N([H])C(=O)C1([H])N(C(=O)C([H])(N([H])C(=O)C([H])(N([H])C([H])([H])[H])C([H])([H])[H])C(C([H])([H])[H])(C([H])([H])[H])C([H])([H])[H])C([H])([H])c2c([H])c(OC([H])([H])C([H])([H])Oc3c([H])c([H])c(C([H])([H])[N+]([H])([H])C([H])([H])C([H])(N([H])C(=O)N4C([H])([H])C([H])([H])C([H])([H])C([H])(n5nc(-c6c([H])c([H])c(Oc7c([H])c([H])c(F)c([H])c7F)c([H])c6[H])c(C(=O)N([H])[H])c5N([H])[H])C4([H])[H])C([H])([H])[H])c([H])c3C([H])(C([H])([H])[H])C3([H])C([H])([H])C3([H])[H])c([H])c([H])c2C1([H])[H]

$$$$
63:0:0
     RDKit          3D

 96105  0  0  1  0  0  0  0  0999 V2000
  -27.0970  -22.0760   19.3880 C   0  0  0  0  0  3  0  0  0  0  0  0
  -29.1920  -21.2560   20.2620 C   0  0  0  0  0  3  0  0  0  0  0  0
  -28.2800  -22.3250   20.1120 C   0  0  0  0  0  0  0  0  0  0  0  0
  -26.8880  -20.7990   18.8350 C   0  0  0  0  0  0  0  0  0  0  0  0
  -28.8870  -20.0050   19.6930 C   0  0  0  0  0  0  0  0  0  0  0  0
  -25.6780  -20.5190   17.9720 C   0  0  0  0  0  1  0  0  0  0  0  0
  -27.7630  -19.7820   18.9880 N   0  0  0  0  0  0  0  0  0  0  0  0
  -29.3090  -23.7190   22.0000 C   0  0  0  0  0  1  0  0  0  0  0  0
  -28.5460  -23.7290   20.6660 C   0  0  0  0  0  3  0  0  0  0  0  0
  -30.5090  -25.3780   19.8170 C   0  0  0  0  0  2  0  0  0  0  0  0
  -29.2000  -24.6180   19.6030 C   0  0  0  0  0  3  0  0  0  0  0  0
  -29.2160  -26.1320   19.7170 C   0  0  0  0  0  3  0  0  0  0  0  0
  -28.7670  -26.7020   20.9530 O   0  0  0  0  0  0  0  0  0  0  0  0
  -24.5650  -31.9200   23.4570 C   0  0  0  0  0  0  0  0  0  0  0  0
  -27.5660  -27.3750   20.8770 C   0  0  0  0  0  0  0  0  0  0  0  0
  -23.5500  -30.4200   21.7720 C   0  0  0  0  0  3  0  0  0  0  0  0
  -25.1560  -28.8220   20.6110 C   0  0  0  0  0  0  0  0  0  0  0  0
  -26.0830  -30.8010   21.8270 C   0  0  0  0  0  2  0  0  0  0  0  0
  -26.2440  -29.3970   21.2780 C   0  0  0  0  0  0  0  0  0  0  0  0
  -27.4500  -28.6720   21.4240 C   0  0  0  0  0  3  0  0  0  0  0  0
  -26.4430  -26.7990   20.2380 C   0  0  0  0  0  3  0  0  0  0  0  0
  -25.2410  -27.5120   20.1100 C   0  0  0  0  0  3  0  0  0  0  0  0
  -23.9140  -29.6690   20.4650 C   0  0  0  0  0  2  0  0  0  0  0  0
  -24.7440  -31.0660   22.4110 N   0  0  0  0  0  0  0  0  0  0  0  0
  -23.4310  -32.2050   23.8660 O   0  0  0  0  0  0  0  0  0  0  0  0
  -22.8080  -29.4400   22.7120 C   0  0  0  0  0  0  0  0  0  0  0  0
  -21.4990  -29.2510   22.4730 N   0  0  0  0  0  0  0  0  0  0  0  0
  -23.4100  -28.8480   23.6110 O   0  0  0  0  0  0  0  0  0  0  0  0
  -21.0730  -29.7900   21.7310 H   0  0  0  0  0  0  0  0  0  0  0  0
  -18.0710  -28.1580   22.7910 C   0  0  0  0  0  0  0  0  0  0  0  0
  -20.6160  -28.3420   23.2040 C   0  0  0  0  0  3  0  0  0  0  0  0
  -20.7060  -26.9020   22.6490 C   0  0  0  0  0  2  0  0  0  0  0  0
  -19.6530  -26.6010   21.5780 C   0  0  0  0  0  2  0  0  0  0  0  0
  -18.2420  -26.7950   22.1410 C   0  0  0  0  0  2  0  0  0  0  0  0
  -19.1870  -28.8890   23.2770 C   0  0  0  0  0  0  0  0  0  0  0  0
  -18.9790  -30.1650   23.8430 C   0  0  0  0  0  3  0  0  0  0  0  0
  -17.6850  -30.7090   23.9320 C   0  0  0  0  0  3  0  0  0  0  0  0
  -16.5810  -29.9770   23.4620 C   0  0  0  0  0  3  0  0  0  0  0  0
  -16.7750  -28.7040   22.8980 C   0  0  0  0  0  3  0  0  0  0  0  0
  -25.7720  -32.6010   24.1740 C   0  0  0  0  0  3  0  0  0  0  0  0
  -25.4230  -34.0110   24.3930 N   0  0  0  0  0  0  0  0  0  0  0  0
  -25.8040  -35.0210   23.5990 C   0  0  0  0  0  0  0  0  0  0  0  0
  -26.5570  -34.8660   22.6330 O   0  0  0  0  0  0  0  0  0  0  0  0
  -24.7700  -34.2040   25.1380 H   0  0  0  0  0  0  0  0  0  0  0  0
  -24.0850  -36.7510   22.9890 C   0  0  0  0  0  1  0  0  0  0  0  0
  -25.2620  -36.4270   23.9240 C   0  0  0  0  0  3  0  0  0  0  0  0
  -27.3020  -37.4170   24.8640 C   0  0  0  0  0  1  0  0  0  0  0  0
  -26.2870  -37.4870   23.8170 N   0  0  0  0  0  0  0  0  0  0  0  0
  -25.8610  -38.4100   23.8480 H   0  0  0  0  0  0  0  0  0  0  0  0
  -26.1580  -31.9070   25.5380 C   0  0  1  0  0  0  0  0  0  0  0  0
  -24.9510  -31.6530   26.4690 C   0  0  0  0  0  1  0  0  0  0  0  0
  -26.8600  -30.5520   25.2840 C   0  0  0  0  0  1  0  0  0  0  0  0
  -27.1690  -32.7890   26.3070 C   0  0  0  0  0  1  0  0  0  0  0  0
  -29.7970  -18.9500   19.7610 N   0  0  0  0  0  0  0  0  0  0  0  0
  -29.9740  -18.6010   18.8250 H   0  0  0  0  0  0  0  0  0  0  0  0
  -29.3710  -17.8290   20.5950 C   0  0  0  0  0  2  0  0  0  0  0  0
  -31.1900  -17.0450   22.1990 C   0  0  0  0  0  1  0  0  0  0  0  0
  -30.5270  -16.8160   20.8320 C   0  0  0  0  0  3  0  0  0  0  0  0
  -30.7260  -14.4190   20.1130 C   0  0  0  0  0  0  0  0  0  0  0  0
  -30.3690  -12.2620   18.9720 C   0  0  0  0  0  2  0  0  0  0  0  0
  -29.3680  -12.4630   17.8180 C   0  0  0  0  0  2  0  0  0  0  0  0
  -27.9180  -12.3290   18.3250 C   0  0  0  0  0  2  0  0  0  0  0  0
  -27.6460  -13.1720   19.6000 C   0  0  0  0  0  3  0  0  0  0  0  0
  -28.7540  -12.9480   20.6530 C   0  0  0  0  0  2  0  0  0  0  0  0
  -30.0470  -13.2460   20.0160 N   0  0  0  0  0  0  0  0  0  0  0  0
  -31.8180  -14.6050   19.5680 O   0  0  0  0  0  0  0  0  0  0  0  0
  -30.0710  -15.4210   20.7310 N   0  0  0  0  0  0  0  0  0  0  0  0
  -29.1600  -15.1980   21.1030 H   0  0  0  0  0  0  0  0  0  0  0  0
  -25.3040  -13.7960   20.4670 C   0  0  0  0  0  0  0  0  0  0  0  0
  -24.2470  -13.0310   20.8750 C   0  0  0  0  0  0  0  0  0  0  0  0
  -24.6810  -11.6720   20.7750 C   0  0  0  0  0  0  0  0  0  0  0  0
  -26.3180  -12.9070   20.1470 N   0  0  0  0  0  0  0  0  0  0  0  0
  -25.9490  -11.6230   20.3870 N   0  0  0  0  0  0  0  0  0  0  0  0
  -23.9450  -10.4180   20.9660 C   0  0  0  0  0  0  0  0  0  0  0  0
  -24.3590   -9.4570   21.9140 C   0  0  0  0  0  3  0  0  0  0  0  0
  -23.6260   -8.2640   22.0930 C   0  0  0  0  0  3  0  0  0  0  0  0
  -22.4630   -8.0250   21.3230 C   0  0  0  0  0  0  0  0  0  0  0  0
  -22.0680   -8.9740   20.3650 C   0  0  0  0  0  3  0  0  0  0  0  0
  -22.8010  -10.1590   20.1850 C   0  0  0  0  0  3  0  0  0  0  0  0
  -21.7010   -6.8840   21.4120 O   0  0  0  0  0  0  0  0  0  0  0  0
  -21.5870   -6.1840   22.5870 C   0  0  0  0  0  0  0  0  0  0  0  0
  -21.0080   -6.7540   23.7410 C   0  0  0  0  0  3  0  0  0  0  0  0
  -20.8470   -5.9760   24.9050 C   0  0  0  0  0  3  0  0  0  0  0  0
  -21.2540   -4.6280   24.9150 C   0  0  0  0  0  0  0  0  0  0  0  0
  -21.8250   -4.0580   23.7630 C   0  0  0  0  0  3  0  0  0  0  0  0
  -21.9880   -4.8330   22.6030 C   0  0  0  0  0  0  0  0  0  0  0  0
  -22.5200   -4.2720   21.4890 F   0  0  0  0  0  0  0  0  0  0  0  0
  -21.0910   -3.8790   26.0300 F   0  0  0  0  0  0  0  0  0  0  0  0
  -22.8760  -13.5200   21.2470 C   0  0  0  0  0  0  0  0  0  0  0  0
  -22.1840  -12.8030   22.1240 N   0  0  0  0  0  0  0  0  0  0  0  0
  -22.4300  -14.5730   20.7920 O   0  0  0  0  0  0  0  0  0  0  0  0
  -22.5560  -11.9510   22.5140 H   0  0  0  0  0  0  0  0  0  0  0  0
  -21.2650  -13.1130   22.4110 H   0  0  0  0  0  0  0  0  0  0  0  0
  -25.4830  -15.1690   20.3210 N   0  0  0  0  0  0  0  0  0  0  0  0
  -24.7300  -15.8290   20.4880 H   0  0  0  0  0  0  0  0  0  0  0  0
  -26.3130  -15.6050   19.9410 H   0  0  0  0  0  0  0  0  0  0  0  0
  1  3  1  0
  3  2  2  0
  3  9  1  0
  4  7  1  0
  4  1  2  0
  5 54  1  0
  5  2  1  0
  6  4  1  0
  7  5  2  0
  9  8  1  0
 11 12  1  0
 11 10  1  0
 11  9  1  0
 12 10  1  0
 12 13  1  0
 14 25  2  0
 15 13  1  0
 15 20  1  0
 16 24  1  0
 16 26  1  0
 17 19  1  0
 18 24  1  0
 19 20  2  0
 19 18  1  0
 21 15  2  0
 22 21  1  0
 22 17  2  0
 23 17  1  0
 23 16  1  0
 24 14  1  0
 26 28  2  0
 27 26  1  0
 29 27  1  0
 30 39  2  0
 30 35  1  0
 31 27  1  0
 31 35  1  0
 32 31  1  0
 33 34  1  0
 33 32  1  0
 34 30  1  0
 35 36  2  0
 36 37  1  0
 38 37  2  0
 39 38  1  0
 40 14  1  0
 40 41  1  0
 40 50  1  0
 41 44  1  0
 42 46  1  0
 42 41  1  0
 43 42  2  0
 46 45  1  0
 48 49  1  0
 48 46  1  0
 48 47  1  0
 50 53  1  1
 50 51  1  0
 52 50  1  0
 54 56  1  0
 55 54  1  0
 56 58  1  0
 58 57  1  0
 59 67  1  0
 60 65  1  0
 61 62  1  0
 61 60  1  0
 63 62  1  0
 63 72  1  0
 63 64  1  0
 65 59  1  0
 65 64  1  0
 66 59  2  0
 67 58  1  0
 67 68  1  0
 69 70  2  0
 70 89  1  0
 71 70  1  0
 71 74  1  0
 72 73  1  0
 72 69  1  0
 73 71  2  0
 74 75  1  0
 75 76  2  0
 77 80  1  0
 77 76  1  0
 78 77  2  0
 79 78  1  0
 79 74  2  0
 80 81  1  0
 81 86  2  0
 81 82  1  0
 82 83  2  0
 83 84  1  0
 84 88  1  0
 85 84  2  0
 86 85  1  0
 87 86  1  0
 89 90  1  0
 90 93  1  0
 90 92  1  0
 91 89  2  0
 94 69  1  0
 94 95  1  0
 96 94  1  0
M  ISO  4  12 101  13 101  59 100  67 100
M  END
>  <TORSDO>  (63) 
F 21

>  <SCORE>  (63) 
-13.070

>  <name>  (63) 
63

>  <ligand_id>  (63) 
63

>  <original_smiles>  (63) 
[H]c1c([H])c([H])c2c(c1[H])C([H])([H])C([H])([H])C([H])([H])C2([H])N([H])C(=O)C1([H])N(C(=O)C([H])(N([H])C(=O)C([H])(N([H])C([H])([H])[H])C([H])([H])[H])C(C([H])([H])[H])(C([H])([H])[H])C([H])([H])[H])C([H])([H])c2c([H])c(OC3([H])C([H])([H])C3([H])C([H])(c3c([H])c(N([H])C([H])([H])C([H])(N([H])C(=O)N4C([H])([H])C([H])([H])C([H])([H])C([H])(n5nc(-c6c([H])c([H])c(Oc7c([H])c([H])c(F)c([H])c7F)c([H])c6[H])c(C(=O)N([H])[H])c5N([H])[H])C4([H])[H])C([H])([H])[H])nc(C([H])([H])[H])c3[H])C([H])([H])[H])c([H])c([H])c2C1([H])[H]

>  <smiles>  (63) 
[H]c1c([H])c([H])c2c(c1[H])C([H])([H])C([H])([H])C([H])([H])C2([H])N([H])C(=O)C1([H])N(C(=O)C([H])(N([H])C(=O)C([H])(N([H])C([H])([H])[H])C([H])([H])[H])C(C([H])([H])[H])(C([H])([H])[H])C([H])([H])[H])C([H])([H])c2c([H])c(OC3([H])C([H])([H])C3([H])C([H])(c3c([H])c(N([H])C([H])([H])C([H])(N([H])C(=O)N4C([H])([H])C([H])([H])C([H])([H])C([H])(n5nc(-c6c([H])c([H])c(Oc7c([H])c([H])c(F)c([H])c7F)c([H])c6[H])c(C(=O)N([H])[H])c5N([H])[H])C4([H])[H])C([H])([H])[H])nc(C([H])([H])[H])c3[H])C([H])([H])[H])c([H])c([H])c2C1([H])[H]

$$$$
64:0:0
     RDKit          3D

 93102  0  0  1  0  0  0  0  0999 V2000
  -28.9800  -19.3200   20.7840 C   0  0  0  0  0  3  0  0  0  0  0  0
  -31.1150  -19.6370   19.7670 C   0  0  0  0  0  3  0  0  0  0  0  0
  -29.5680  -21.6010   19.8860 C   0  0  0  0  0  0  0  0  0  0  0  0
  -30.2270  -18.7500   20.4240 C   0  0  0  0  0  0  0  0  0  0  0  0
  -28.6530  -20.6960   20.5210 C   0  0  0  0  0  0  0  0  0  0  0  0
  -30.8140  -21.0110   19.4880 C   0  0  0  0  0  0  0  0  0  0  0  0
  -27.2730  -21.1730   20.9340 C   0  0  0  0  0  1  0  0  0  0  0  0
  -28.0780  -24.0700   20.0600 C   0  0  0  0  0  2  0  0  0  0  0  0
  -30.0650  -24.4080   19.6670 C   0  0  0  0  0  2  0  0  0  0  0  0
  -29.1930  -23.1100   19.4970 C   0  0  0  0  0  3  0  0  0  0  0  0
  -28.8070  -25.2920   19.4050 C   0  0  0  0  0  3  0  0  0  0  0  0
  -28.7610  -26.6640   19.9750 O   0  0  0  0  0  0  0  0  0  0  0  0
  -24.6160  -31.6770   23.1210 C   0  0  0  0  0  0  0  0  0  0  0  0
  -27.5800  -27.4290   19.9280 C   0  0  0  0  0  0  0  0  0  0  0  0
  -23.5410  -30.2910   21.3830 C   0  0  0  0  0  3  0  0  0  0  0  0
  -25.1200  -28.9000   19.9280 C   0  0  0  0  0  0  0  0  0  0  0  0
  -26.0610  -30.7690   21.2860 C   0  0  0  0  0  2  0  0  0  0  0  0
  -26.2410  -29.4280   20.5780 C   0  0  0  0  0  0  0  0  0  0  0  0
  -27.4720  -28.7050   20.5700 C   0  0  0  0  0  3  0  0  0  0  0  0
  -26.4260  -26.9500   19.2650 C   0  0  0  0  0  3  0  0  0  0  0  0
  -25.2150  -27.6670   19.2650 C   0  0  0  0  0  3  0  0  0  0  0  0
  -23.8320  -29.6960   19.9800 C   0  0  0  0  0  2  0  0  0  0  0  0
  -24.7560  -30.9280   21.9880 N   0  0  0  0  0  0  0  0  0  0  0  0
  -23.5040  -31.8630   23.6380 O   0  0  0  0  0  0  0  0  0  0  0  0
  -22.9180  -29.1920   22.2750 C   0  0  0  0  0  0  0  0  0  0  0  0
  -21.6010  -28.9700   22.1310 N   0  0  0  0  0  0  0  0  0  0  0  0
  -23.6190  -28.5440   23.0570 O   0  0  0  0  0  0  0  0  0  0  0  0
  -21.0940  -29.5480   21.4760 H   0  0  0  0  0  0  0  0  0  0  0  0
  -18.2600  -27.6620   22.5960 C   0  0  0  0  0  0  0  0  0  0  0  0
  -20.8180  -27.9540   22.8380 C   0  0  0  0  0  3  0  0  0  0  0  0
  -20.9360  -26.5770   22.1450 C   0  0  0  0  0  2  0  0  0  0  0  0
  -19.8200  -26.3140   21.1290 C   0  0  0  0  0  2  0  0  0  0  0  0
  -18.4500  -26.3760   21.8090 C   0  0  0  0  0  2  0  0  0  0  0  0
  -19.3720  -28.4110   23.0660 C   0  0  0  0  0  0  0  0  0  0  0  0
  -19.1410  -29.6160   23.7630 C   0  0  0  0  0  3  0  0  0  0  0  0
  -17.8300  -30.0740   23.9960 C   0  0  0  0  0  3  0  0  0  0  0  0
  -16.7330  -29.3210   23.5410 C   0  0  0  0  0  3  0  0  0  0  0  0
  -16.9490  -28.1170   22.8480 C   0  0  0  0  0  3  0  0  0  0  0  0
  -25.8410  -32.3550   23.8090 C   0  0  0  0  0  3  0  0  0  0  0  0
  -26.3370  -31.5830   25.0940 C   0  0  1  0  0  0  0  0  0  0  0  0
  -25.2100  -31.2760   26.1080 C   0  0  0  0  0  1  0  0  0  0  0  0
  -26.9980  -30.2400   24.7040 C   0  0  0  0  0  1  0  0  0  0  0  0
  -27.4200  -32.4150   25.8190 C   0  0  0  0  0  1  0  0  0  0  0  0
  -25.4560  -33.7310   24.1510 N   0  0  0  0  0  0  0  0  0  0  0  0
  -25.7480  -34.8090   23.4110 C   0  0  0  0  0  0  0  0  0  0  0  0
  -26.4390  -34.7540   22.3910 O   0  0  0  0  0  0  0  0  0  0  0  0
  -24.8430  -33.8450   24.9440 H   0  0  0  0  0  0  0  0  0  0  0  0
  -23.9260  -36.5090   23.0620 C   0  0  0  0  0  1  0  0  0  0  0  0
  -25.1830  -36.1650   23.8780 C   0  0  0  0  0  3  0  0  0  0  0  0
  -27.2530  -37.1660   24.7390 C   0  0  0  0  0  1  0  0  0  0  0  0
  -26.1570  -37.2740   23.7800 N   0  0  0  0  0  0  0  0  0  0  0  0
  -25.6980  -38.1700   23.9210 H   0  0  0  0  0  0  0  0  0  0  0  0
  -33.0600  -21.1330   18.1520 C   0  0  0  0  0  1  0  0  0  0  0  0
  -31.8440  -21.8640   18.7430 C   0  0  0  0  0  2  0  0  0  0  0  0
  -30.7440  -17.3290   20.8990 C   0  0  0  0  0  2  0  0  0  0  0  0
  -30.7840  -14.8510   20.2260 C   0  0  0  0  0  0  0  0  0  0  0  0
  -30.4670  -12.6420   19.1200 C   0  0  0  0  0  2  0  0  0  0  0  0
  -29.5040  -12.7920   17.9250 C   0  0  0  0  0  2  0  0  0  0  0  0
  -28.0420  -12.6410   18.3880 C   0  0  0  0  0  2  0  0  0  0  0  0
  -27.7200  -13.4950   19.6440 C   0  0  0  0  0  3  0  0  0  0  0  0
  -28.8030  -13.3440   20.7330 C   0  0  0  0  0  2  0  0  0  0  0  0
  -30.0930  -13.6710   20.1140 N   0  0  0  0  0  0  0  0  0  0  0  0
  -31.9620  -14.9140   19.8650 O   0  0  0  0  0  0  0  0  0  0  0  0
  -30.1050  -15.9970   20.5760 N   0  0  0  0  0  0  0  0  0  0  0  0
  -29.1210  -15.9030   20.7750 H   0  0  0  0  0  0  0  0  0  0  0  0
  -25.3500  -14.1000   20.4170 C   0  0  0  0  0  0  0  0  0  0  0  0
  -24.2850  -13.3310   20.8010 C   0  0  0  0  0  0  0  0  0  0  0  0
  -24.7380  -11.9770   20.7540 C   0  0  0  0  0  0  0  0  0  0  0  0
  -26.3830  -13.2150   20.1580 N   0  0  0  0  0  0  0  0  0  0  0  0
  -26.0230  -11.9320   20.4240 N   0  0  0  0  0  0  0  0  0  0  0  0
  -24.0060  -10.7180   20.9490 C   0  0  0  0  0  0  0  0  0  0  0  0
  -24.4210   -9.7620   21.9020 C   0  0  0  0  0  3  0  0  0  0  0  0
  -23.6880   -8.5690   22.0830 C   0  0  0  0  0  3  0  0  0  0  0  0
  -22.5270   -8.3240   21.3110 C   0  0  0  0  0  0  0  0  0  0  0  0
  -22.1310   -9.2690   20.3490 C   0  0  0  0  0  3  0  0  0  0  0  0
  -22.8640  -10.4540   20.1660 C   0  0  0  0  0  3  0  0  0  0  0  0
  -21.7680   -7.1830   21.4020 O   0  0  0  0  0  0  0  0  0  0  0  0
  -21.6740   -6.4700   22.5710 C   0  0  0  0  0  0  0  0  0  0  0  0
  -21.1610   -7.0450   23.7540 C   0  0  0  0  0  3  0  0  0  0  0  0
  -21.0190   -6.2570   24.9140 C   0  0  0  0  0  3  0  0  0  0  0  0
  -21.3790   -4.8970   24.8900 C   0  0  0  0  0  0  0  0  0  0  0  0
  -21.8850   -4.3220   23.7120 C   0  0  0  0  0  3  0  0  0  0  0  0
  -22.0290   -5.1060   22.5540 C   0  0  0  0  0  0  0  0  0  0  0  0
  -22.4970   -4.5430   21.4150 F   0  0  0  0  0  0  0  0  0  0  0  0
  -21.2350   -4.1370   26.0030 F   0  0  0  0  0  0  0  0  0  0  0  0
  -22.8960  -13.8170   21.0990 C   0  0  0  0  0  0  0  0  0  0  0  0
  -22.1780  -13.1220   21.9730 N   0  0  0  0  0  0  0  0  0  0  0  0
  -22.4580  -14.8480   20.5910 O   0  0  0  0  0  0  0  0  0  0  0  0
  -22.5470  -12.2860   22.4040 H   0  0  0  0  0  0  0  0  0  0  0  0
  -21.2470  -13.4280   22.2160 H   0  0  0  0  0  0  0  0  0  0  0  0
  -25.5190  -15.4710   20.2430 N   0  0  0  0  0  0  0  0  0  0  0  0
  -24.7540  -16.1250   20.3620 H   0  0  0  0  0  0  0  0  0  0  0  0
  -26.3560  -15.9050   19.8750 H   0  0  0  0  0  0  0  0  0  0  0  0
  2  4  1  0
  3  5  2  0
  4  1  2  0
  4 55  1  0
  5  1  1  0
  5  7  1  0
  6  2  2  0
  6  3  1  0
 10  9  1  0
 10  3  1  0
 10  8  1  0
 11  9  1  0
 11 12  1  0
 11  8  1  0
 13 24  2  0
 14 12  1  0
 14 19  1  0
 15 23  1  0
 15 25  1  0
 16 22  1  0
 16 18  1  0
 17 23  1  0
 18 17  1  0
 19 18  2  0
 20 14  2  0
 21 20  1  0
 21 16  2  0
 22 15  1  0
 23 13  1  0
 25 27  2  0
 26 25  1  0
 28 26  1  0
 29 38  2  0
 29 34  1  0
 30 26  1  0
 30 34  1  0
 31 30  1  0
 32 33  1  0
 32 31  1  0
 33 29  1  0
 34 35  2  0
 35 36  1  0
 37 36  2  0
 38 37  1  0
 39 13  1  0
 39 44  1  0
 39 40  1  0
 40 43  1  1
 40 41  1  0
 42 40  1  0
 44 47  1  0
 45 49  1  0
 45 44  1  0
 46 45  2  0
 49 48  1  0
 51 49  1  0
 51 52  1  0
 51 50  1  0
 53 54  1  0
 54  6  1  0
 56 64  1  0
 57 62  1  0
 58 59  1  0
 58 57  1  0
 60 59  1  0
 60 69  1  0
 60 61  1  0
 62 56  1  0
 62 61  1  0
 63 56  2  0
 64 65  1  0
 64 55  1  0
 66 67  2  0
 67 86  1  0
 68 67  1  0
 68 71  1  0
 69 66  1  0
 69 70  1  0
 70 68  2  0
 71 72  1  0
 72 73  2  0
 74 77  1  0
 74 73  1  0
 75 74  2  0
 76 75  1  0
 76 71  2  0
 77 78  1  0
 78 79  1  0
 79 80  2  0
 81 80  1  0
 81 85  1  0
 82 81  2  0
 83 78  2  0
 83 82  1  0
 84 83  1  0
 86 87  1  0
 87 90  1  0
 87 89  1  0
 88 86  2  0
 91 92  1  0
 91 66  1  0
 93 91  1  0
M  ISO  4  11 101  12 101  56 100  64 100
M  END
>  <TORSDO>  (64) 
F 19

>  <SCORE>  (64) 
-13.089

>  <name>  (64) 
64

>  <ligand_id>  (64) 
64

>  <original_smiles>  (64) 
[H]c1c([H])c([H])c2c(c1[H])C([H])([H])C([H])([H])C([H])([H])C2([H])N([H])C(=O)C1([H])N(C(=O)C([H])(N([H])C(=O)C([H])(N([H])C([H])([H])[H])C([H])([H])[H])C(C([H])([H])[H])(C([H])([H])[H])C([H])([H])[H])C([H])([H])c2c([H])c(OC3([H])C([H])([H])C([H])(c4c(C([H])([H])[H])c([H])c(C([H])([H])N([H])C(=O)N5C([H])([H])C([H])([H])C([H])([H])C([H])(n6nc(-c7c([H])c([H])c(Oc8c([H])c([H])c(F)c([H])c8F)c([H])c7[H])c(C(=O)N([H])[H])c6N([H])[H])C5([H])[H])c([H])c4C([H])([H])C([H])([H])[H])C3([H])[H])c([H])c([H])c2C1([H])[H]

>  <smiles>  (64) 
[H]c1c([H])c([H])c2c(c1[H])C([H])([H])C([H])([H])C([H])([H])C2([H])N([H])C(=O)C1([H])N(C(=O)C([H])(N([H])C(=O)C([H])(N([H])C([H])([H])[H])C([H])([H])[H])C(C([H])([H])[H])(C([H])([H])[H])C([H])([H])[H])C([H])([H])c2c([H])c(OC3([H])C([H])([H])C([H])(c4c(C([H])([H])[H])c([H])c(C([H])([H])N([H])C(=O)N5C([H])([H])C([H])([H])C([H])([H])C([H])(n6nc(-c7c([H])c([H])c(Oc8c([H])c([H])c(F)c([H])c8F)c([H])c7[H])c(C(=O)N([H])[H])c6N([H])[H])C5([H])[H])c([H])c4C([H])([H])C([H])([H])[H])C3([H])[H])c([H])c([H])c2C1([H])[H]

$$$$
65:0:0
     RDKit          3D

 94103  0  0  1  0  0  0  0  0999 V2000
  -28.0490  -24.0390   21.6090 C   0  0  0  0  0  2  0  0  0  0  0  0
  -28.1580  -22.4800   21.4300 C   0  0  0  0  0  2  0  0  0  0  0  0
  -28.9810  -23.4030   19.4820 C   0  0  0  0  0  2  0  0  0  0  0  0
  -28.1530  -24.6760   20.2170 C   0  0  0  0  0  3  0  0  0  0  0  0
  -29.2360  -22.0020   20.3690 C   0  0  2  0  0  0  0  0  0  0  0  0
  -27.6140  -19.9340   19.7700 C   0  0  0  0  0  3  0  0  0  0  0  0
  -29.8390  -19.1520   19.7980 C   0  0  0  0  0  3  0  0  0  0  0  0
  -28.9600  -20.3670   19.9080 C   0  0  0  0  0  0  0  0  0  0  0  0
  -27.2260  -18.5790   19.6490 C   0  0  0  0  0  0  0  0  0  0  0  0
  -29.4100  -17.7090   19.7050 C   0  0  0  0  0  0  0  0  0  0  0  0
  -25.7440  -18.2690   19.5260 C   0  0  0  0  0  1  0  0  0  0  0  0
  -28.0740  -17.5180   19.6380 N   0  0  0  0  0  0  0  0  0  0  0  0
  -30.8950  -15.3190   20.2120 C   0  0  0  0  0  0  0  0  0  0  0  0
  -30.9230  -12.7900   19.9200 C   0  0  0  0  0  2  0  0  0  0  0  0
  -30.1450  -12.2870   18.6880 C   0  0  0  0  0  2  0  0  0  0  0  0
  -28.6540  -12.1020   19.0260 C   0  0  0  0  0  2  0  0  0  0  0  0
  -28.0790  -13.2700   19.8720 C   0  0  0  0  0  3  0  0  0  0  0  0
  -29.0120  -13.7210   21.0100 C   0  0  0  0  0  2  0  0  0  0  0  0
  -30.2800  -14.0700   20.3690 N   0  0  0  0  0  0  0  0  0  0  0  0
  -32.1300  -15.2740   20.2220 O   0  0  0  0  0  0  0  0  0  0  0  0
  -30.3610  -16.5020   19.5720 N   0  0  0  0  0  0  0  0  0  0  0  0
  -31.1780  -16.8630   19.1090 H   0  0  0  0  0  0  0  0  0  0  0  0
  -25.7030  -13.8950   20.5390 C   0  0  0  0  0  0  0  0  0  0  0  0
  -24.6090  -13.1500   20.8860 C   0  0  0  0  0  0  0  0  0  0  0  0
  -25.0420  -11.7890   20.8780 C   0  0  0  0  0  0  0  0  0  0  0  0
  -26.7300  -12.9930   20.3440 N   0  0  0  0  0  0  0  0  0  0  0  0
  -26.3430  -11.7190   20.6140 N   0  0  0  0  0  0  0  0  0  0  0  0
  -24.2750  -10.5470   21.0470 C   0  0  0  0  0  0  0  0  0  0  0  0
  -24.6450   -9.5730   22.0000 C   0  0  0  0  0  3  0  0  0  0  0  0
  -23.8780   -8.3980   22.1570 C   0  0  0  0  0  3  0  0  0  0  0  0
  -22.7250   -8.1900   21.3640 C   0  0  0  0  0  0  0  0  0  0  0  0
  -22.3770   -9.1520   20.4010 C   0  0  0  0  0  3  0  0  0  0  0  0
  -23.1430  -10.3180   20.2420 C   0  0  0  0  0  3  0  0  0  0  0  0
  -21.9350   -7.0670   21.4320 O   0  0  0  0  0  0  0  0  0  0  0  0
  -21.7880   -6.3580   22.5970 C   0  0  0  0  0  0  0  0  0  0  0  0
  -21.3220   -6.9630   23.7860 C   0  0  0  0  0  3  0  0  0  0  0  0
  -21.1210   -6.1810   24.9410 C   0  0  0  0  0  3  0  0  0  0  0  0
  -21.3760   -4.7970   24.9090 C   0  0  0  0  0  0  0  0  0  0  0  0
  -21.8340   -4.1930   23.7250 C   0  0  0  0  0  3  0  0  0  0  0  0
  -22.0390   -4.9710   22.5730 C   0  0  0  0  0  0  0  0  0  0  0  0
  -22.4600   -4.3800   21.4290 F   0  0  0  0  0  0  0  0  0  0  0  0
  -21.1760   -4.0450   26.0170 F   0  0  0  0  0  0  0  0  0  0  0  0
  -23.2200  -13.6710   21.1050 C   0  0  0  0  0  0  0  0  0  0  0  0
  -22.4460  -13.0100   21.9590 N   0  0  0  0  0  0  0  0  0  0  0  0
  -22.8310  -14.7000   20.5570 O   0  0  0  0  0  0  0  0  0  0  0  0
  -22.7700  -12.1790   22.4320 H   0  0  0  0  0  0  0  0  0  0  0  0
  -21.5090  -13.3430   22.1410 H   0  0  0  0  0  0  0  0  0  0  0  0
  -25.9030  -15.2530   20.3480 N   0  0  0  0  0  0  0  0  0  0  0  0
  -25.1510  -15.9270   20.4050 H   0  0  0  0  0  0  0  0  0  0  0  0
  -26.8030  -15.6800   20.1500 H   0  0  0  0  0  0  0  0  0  0  0  0
  -31.8680  -21.7600   20.0600 C   0  0  0  0  0  1  0  0  0  0  0  0
  -31.0420  -23.3010   21.8750 C   0  0  0  0  0  1  0  0  0  0  0  0
  -30.6880  -22.0550   21.0220 C   0  0  0  0  0  3  0  0  0  0  0  0
  -28.4120  -26.2390   20.2630 O   0  0  0  0  0  0  0  0  0  0  0  0
  -24.6750  -31.8810   23.2950 C   0  0  0  0  0  0  0  0  0  0  0  0
  -27.3620  -27.2450   20.2190 C   0  0  0  0  0  0  0  0  0  0  0  0
  -23.5360  -30.5330   21.5730 C   0  0  0  0  0  3  0  0  0  0  0  0
  -25.0390  -29.0170   20.1390 C   0  0  0  0  0  0  0  0  0  0  0  0
  -26.0940  -30.8080   21.5050 C   0  0  0  0  0  2  0  0  0  0  0  0
  -26.1950  -29.4350   20.8130 C   0  0  0  0  0  0  0  0  0  0  0  0
  -27.3540  -28.5660   20.8370 C   0  0  0  0  0  3  0  0  0  0  0  0
  -26.1940  -26.9510   19.4850 C   0  0  0  0  0  3  0  0  0  0  0  0
  -25.0580  -27.7930   19.4520 C   0  0  0  0  0  3  0  0  0  0  0  0
  -23.8090  -29.9130   20.1760 C   0  0  0  0  0  2  0  0  0  0  0  0
  -24.7870  -31.1000   22.1770 N   0  0  0  0  0  0  0  0  0  0  0  0
  -23.5710  -32.1360   23.7990 O   0  0  0  0  0  0  0  0  0  0  0  0
  -22.8380  -29.4870   22.4800 C   0  0  0  0  0  0  0  0  0  0  0  0
  -21.5160  -29.3090   22.3100 N   0  0  0  0  0  0  0  0  0  0  0  0
  -23.4920  -28.8420   23.3040 O   0  0  0  0  0  0  0  0  0  0  0  0
  -21.0430  -29.8850   21.6280 H   0  0  0  0  0  0  0  0  0  0  0  0
  -18.1330  -28.0630   22.6780 C   0  0  0  0  0  0  0  0  0  0  0  0
  -20.6820  -28.3390   23.0290 C   0  0  0  0  0  3  0  0  0  0  0  0
  -20.8100  -26.9250   22.4130 C   0  0  0  0  0  2  0  0  0  0  0  0
  -19.7410  -26.6270   21.3580 C   0  0  0  0  0  2  0  0  0  0  0  0
  -18.3400  -26.7400   21.9630 C   0  0  0  0  0  2  0  0  0  0  0  0
  -19.2310  -28.8230   23.1650 C   0  0  0  0  0  0  0  0  0  0  0  0
  -18.9790  -30.0630   23.7890 C   0  0  0  0  0  3  0  0  0  0  0  0
  -17.6620  -30.5410   23.9360 C   0  0  0  0  0  3  0  0  0  0  0  0
  -16.5800  -29.7780   23.4630 C   0  0  0  0  0  3  0  0  0  0  0  0
  -16.8160  -28.5410   22.8390 C   0  0  0  0  0  3  0  0  0  0  0  0
  -25.9280  -32.5080   23.9810 C   0  0  0  0  0  3  0  0  0  0  0  0
  -25.6120  -33.9070   24.3040 N   0  0  0  0  0  0  0  0  0  0  0  0
  -25.9580  -34.9630   23.5540 C   0  0  0  0  0  0  0  0  0  0  0  0
  -26.6440  -34.8600   22.5340 O   0  0  0  0  0  0  0  0  0  0  0  0
  -25.0160  -34.0640   25.1050 H   0  0  0  0  0  0  0  0  0  0  0  0
  -24.2320  -36.7580   23.1890 C   0  0  0  0  0  1  0  0  0  0  0  0
  -25.4670  -36.3510   24.0100 C   0  0  0  0  0  3  0  0  0  0  0  0
  -27.5970  -37.2380   24.8580 C   0  0  0  0  0  1  0  0  0  0  0  0
  -26.4990  -37.4080   23.9090 N   0  0  0  0  0  0  0  0  0  0  0  0
  -26.0910  -38.3270   24.0560 H   0  0  0  0  0  0  0  0  0  0  0  0
  -26.3730  -31.7340   25.2820 C   0  0  1  0  0  0  0  0  0  0  0  0
  -25.2270  -31.5060   26.2950 C   0  0  0  0  0  1  0  0  0  0  0  0
  -26.9680  -30.3520   24.9270 C   0  0  0  0  0  1  0  0  0  0  0  0
  -27.4930  -32.5250   25.9980 C   0  0  0  0  0  1  0  0  0  0  0  0
  2  1  1  0
  3  4  1  0
  3  5  1  0
  4 54  1  0
  4  1  1  0
  5 53  1  1
  5  2  1  0
  6  8  1  0
  7  8  2  0
  8  5  1  0
  9  6  2  0
 10  7  1  0
 11  9  1  0
 12  9  1  0
 12 10  2  0
 13 20  2  0
 13 19  1  0
 14 19  1  0
 15 16  1  0
 15 14  1  0
 17 16  1  0
 17 26  1  0
 17 18  1  0
 19 18  1  0
 21 10  1  0
 21 13  1  0
 22 21  1  0
 23 24  2  0
 24 43  1  0
 25 24  1  0
 25 28  1  0
 26 23  1  0
 26 27  1  0
 27 25  2  0
 28 29  1  0
 29 30  2  0
 31 34  1  0
 31 30  1  0
 32 31  2  0
 33 32  1  0
 33 28  2  0
 34 35  1  0
 35 36  1  0
 36 37  2  0
 38 37  1  0
 38 42  1  0
 39 38  2  0
 40 35  2  0
 40 39  1  0
 41 40  1  0
 43 44  1  0
 44 47  1  0
 44 46  1  0
 45 43  2  0
 48 49  1  0
 48 23  1  0
 50 48  1  0
 51 53  1  0
 53 52  1  0
 55 66  2  0
 56 54  1  0
 56 61  1  0
 57 65  1  0
 57 67  1  0
 58 64  1  0
 58 60  1  0
 59 65  1  0
 60 61  2  0
 60 59  1  0
 62 56  2  0
 63 62  1  0
 63 58  2  0
 64 57  1  0
 65 55  1  0
 67 69  2  0
 68 67  1  0
 70 68  1  0
 71 80  2  0
 71 76  1  0
 72 68  1  0
 72 76  1  0
 73 72  1  0
 74 75  1  0
 74 73  1  0
 75 71  1  0
 76 77  2  0
 77 78  1  0
 79 78  2  0
 80 79  1  0
 81 55  1  0
 81 82  1  0
 81 91  1  0
 82 85  1  0
 83 87  1  0
 83 82  1  0
 84 83  2  0
 87 86  1  0
 89 87  1  0
 89 90  1  0
 89 88  1  0
 91 94  1  1
 91 92  1  0
 93 91  1  0
M  ISO  4   4 101  13 100  21 100  54 101
M  END
>  <TORSDO>  (65) 
F 18

>  <SCORE>  (65) 
-14.144

>  <name>  (65) 
65

>  <ligand_id>  (65) 
65

>  <original_smiles>  (65) 
[H]c1c([H])c([H])c2c(c1[H])C([H])([H])C([H])([H])C([H])([H])C2([H])N([H])C(=O)C1([H])N(C(=O)C([H])(N([H])C(=O)C([H])(N([H])C([H])([H])[H])C([H])([H])[H])C(C([H])([H])[H])(C([H])([H])[H])C([H])([H])[H])C([H])([H])c2c([H])c(OC3([H])C([H])([H])C([H])([H])C(c4c([H])c(N([H])C(=O)N5C([H])([H])C([H])([H])C([H])([H])C([H])(n6nc(-c7c([H])c([H])c(Oc8c([H])c([H])c(F)c([H])c8F)c([H])c7[H])c(C(=O)N([H])[H])c6N([H])[H])C5([H])[H])nc(C([H])([H])[H])c4[H])(C([H])(C([H])([H])[H])C([H])([H])[H])C3([H])[H])c([H])c([H])c2C1([H])[H]

>  <smiles>  (65) 
[H]c1c([H])c([H])c2c(c1[H])C([H])([H])C([H])([H])C([H])([H])C2([H])N([H])C(=O)C1([H])N(C(=O)C([H])(N([H])C(=O)C([H])(N([H])C([H])([H])[H])C([H])([H])[H])C(C([H])([H])[H])(C([H])([H])[H])C([H])([H])[H])C([H])([H])c2c([H])c(OC3([H])C([H])([H])C([H])([H])C(c4c([H])c(N([H])C(=O)N5C([H])([H])C([H])([H])C([H])([H])C([H])(n6nc(-c7c([H])c([H])c(Oc8c([H])c([H])c(F)c([H])c8F)c([H])c7[H])c(C(=O)N([H])[H])c6N([H])[H])C5([H])[H])nc(C([H])([H])[H])c4[H])(C([H])(C([H])([H])[H])C([H])([H])[H])C3([H])[H])c([H])c([H])c2C1([H])[H]

$$$$
66:0:0
     RDKit          3D

 94102  0  0  1  0  0  0  0  0999 V2000
  -32.6110  -21.4660   19.6450 C   0  0  0  0  0  3  0  0  0  0  0  0
  -31.6690  -22.5120   19.6430 C   0  0  0  0  0  3  0  0  0  0  0  0
  -30.1720  -21.1380   20.9720 C   0  0  0  0  0  3  0  0  0  0  0  0
  -32.3580  -20.2560   20.3260 C   0  0  0  0  0  0  0  0  0  0  0  0
  -30.4330  -22.3620   20.3140 C   0  0  0  0  0  0  0  0  0  0  0  0
  -31.1120  -20.0800   20.9800 C   0  0  0  0  0  0  0  0  0  0  0  0
  -34.6860  -19.7150   21.1540 C   0  0  0  0  0  1  0  0  0  0  0  0
  -33.8490  -18.6970   18.9880 C   0  0  0  0  0  1  0  0  0  0  0  0
  -33.4590  -19.1960   20.3870 C   0  0  0  0  0  3  0  0  0  0  0  0
  -29.4580  -23.3400   20.3740 O   0  0  0  0  0  0  0  0  0  0  0  0
  -29.6780  -24.5990   19.7280 C   0  0  0  0  0  2  0  0  0  0  0  0
  -28.3430  -25.3610   19.6320 C   0  0  0  0  0  2  0  0  0  0  0  0
  -28.4000  -26.7110   20.1210 O   0  0  0  0  0  0  0  0  0  0  0  0
  -24.5990  -31.8840   23.2420 C   0  0  0  0  0  0  0  0  0  0  0  0
  -27.2140  -27.4280   20.1380 C   0  0  0  0  0  0  0  0  0  0  0  0
  -23.3810  -30.4790   21.6140 C   0  0  0  0  0  3  0  0  0  0  0  0
  -24.8200  -28.9410   20.1860 C   0  0  0  0  0  0  0  0  0  0  0  0
  -25.9060  -30.8360   21.3920 C   0  0  0  0  0  2  0  0  0  0  0  0
  -25.9860  -29.4610   20.7580 C   0  0  0  0  0  0  0  0  0  0  0  0
  -27.1860  -28.7120   20.7320 C   0  0  0  0  0  3  0  0  0  0  0  0
  -26.0140  -26.9200   19.5790 C   0  0  0  0  0  3  0  0  0  0  0  0
  -24.8270  -27.6680   19.6000 C   0  0  0  0  0  3  0  0  0  0  0  0
  -23.5780  -29.7990   20.2370 C   0  0  0  0  0  2  0  0  0  0  0  0
  -24.6490  -31.0800   22.1420 N   0  0  0  0  0  0  0  0  0  0  0  0
  -23.5230  -32.1570   23.7900 O   0  0  0  0  0  0  0  0  0  0  0  0
  -22.7360  -29.4580   22.5810 C   0  0  0  0  0  0  0  0  0  0  0  0
  -21.4120  -29.2730   22.4600 N   0  0  0  0  0  0  0  0  0  0  0  0
  -23.4250  -28.8350   23.3930 O   0  0  0  0  0  0  0  0  0  0  0  0
  -20.9190  -29.8270   21.7740 H   0  0  0  0  0  0  0  0  0  0  0  0
  -18.0430  -28.0660   22.9560 C   0  0  0  0  0  0  0  0  0  0  0  0
  -20.5990  -28.3360   23.2350 C   0  0  0  0  0  3  0  0  0  0  0  0
  -20.7100  -26.9020   22.6680 C   0  0  0  0  0  2  0  0  0  0  0  0
  -19.6120  -26.5680   21.6540 C   0  0  0  0  0  2  0  0  0  0  0  0
  -18.2280  -26.7130   22.2920 C   0  0  0  0  0  2  0  0  0  0  0  0
  -19.1570  -28.8360   23.3850 C   0  0  0  0  0  0  0  0  0  0  0  0
  -18.9310  -30.1040   23.9630 C   0  0  0  0  0  3  0  0  0  0  0  0
  -17.6250  -30.6020   24.1210 C   0  0  0  0  0  3  0  0  0  0  0  0
  -16.5250  -29.8280   23.7110 C   0  0  0  0  0  3  0  0  0  0  0  0
  -16.7350  -28.5630   23.1340 C   0  0  0  0  0  3  0  0  0  0  0  0
  -25.8900  -32.5160   23.8500 C   0  0  0  0  0  3  0  0  0  0  0  0
  -25.5820  -33.9110   24.1890 N   0  0  0  0  0  0  0  0  0  0  0  0
  -25.9060  -34.9660   23.4290 C   0  0  0  0  0  0  0  0  0  0  0  0
  -26.5670  -34.8670   22.3910 O   0  0  0  0  0  0  0  0  0  0  0  0
  -24.9950  -34.0610   24.9960 H   0  0  0  0  0  0  0  0  0  0  0  0
  -24.1680  -36.7530   23.0970 C   0  0  0  0  0  1  0  0  0  0  0  0
  -25.4190  -36.3510   23.8950 C   0  0  0  0  0  3  0  0  0  0  0  0
  -27.5630  -37.2370   24.7010 C   0  0  0  0  0  1  0  0  0  0  0  0
  -26.4470  -37.4070   23.7740 N   0  0  0  0  0  0  0  0  0  0  0  0
  -26.0400  -38.3260   23.9330 H   0  0  0  0  0  0  0  0  0  0  0  0
  -26.4240  -31.7380   25.1150 C   0  0  1  0  0  0  0  0  0  0  0  0
  -25.3460  -31.4920   26.1960 C   0  0  0  0  0  1  0  0  0  0  0  0
  -27.0020  -30.3640   24.7020 C   0  0  0  0  0  1  0  0  0  0  0  0
  -27.5840  -32.5290   25.7660 C   0  0  0  0  0  1  0  0  0  0  0  0
  -30.8290  -18.9490   21.7110 O   0  0  0  0  0  0  0  0  0  0  0  0
  -30.4360  -17.7870   20.9770 C   0  0  0  0  0  2  0  0  0  0  0  0
  -30.7120  -16.5610   21.8740 C   0  0  0  0  0  2  0  0  0  0  0  0
  -30.6880  -14.4340   20.5470 C   0  0  0  0  0  0  0  0  0  0  0  0
  -30.3320  -12.3420   19.2830 C   0  0  0  0  0  2  0  0  0  0  0  0
  -29.3690  -12.5920   18.1050 C   0  0  0  0  0  2  0  0  0  0  0  0
  -27.9010  -12.4550   18.5580 C   0  0  0  0  0  2  0  0  0  0  0  0
  -27.5930  -13.2510   19.8540 C   0  0  0  0  0  3  0  0  0  0  0  0
  -28.6640  -12.9730   20.9320 C   0  0  0  0  0  2  0  0  0  0  0  0
  -29.9850  -13.2870   20.3540 N   0  0  0  0  0  0  0  0  0  0  0  0
  -31.7530  -14.6860   19.9800 O   0  0  0  0  0  0  0  0  0  0  0  0
  -30.1260  -15.3090   21.3890 N   0  0  0  0  0  0  0  0  0  0  0  0
  -29.2410  -15.0330   21.7860 H   0  0  0  0  0  0  0  0  0  0  0  0
  -25.1970  -13.8550   20.5830 C   0  0  0  0  0  0  0  0  0  0  0  0
  -24.1340  -13.0810   20.9650 C   0  0  0  0  0  0  0  0  0  0  0  0
  -24.5970  -11.7300   20.9230 C   0  0  0  0  0  0  0  0  0  0  0  0
  -26.2430  -12.9750   20.3420 N   0  0  0  0  0  0  0  0  0  0  0  0
  -25.8830  -11.6910   20.6010 N   0  0  0  0  0  0  0  0  0  0  0  0
  -23.8740  -10.4670   21.1120 C   0  0  0  0  0  0  0  0  0  0  0  0
  -24.3340   -9.4800   22.0100 C   0  0  0  0  0  3  0  0  0  0  0  0
  -23.6080   -8.2840   22.1910 C   0  0  0  0  0  3  0  0  0  0  0  0
  -22.4070   -8.0660   21.4740 C   0  0  0  0  0  0  0  0  0  0  0  0
  -21.9670   -9.0430   20.5630 C   0  0  0  0  0  3  0  0  0  0  0  0
  -22.6940  -10.2300   20.3810 C   0  0  0  0  0  3  0  0  0  0  0  0
  -21.6480   -6.9240   21.5680 O   0  0  0  0  0  0  0  0  0  0  0  0
  -21.6580   -6.1430   22.6970 C   0  0  0  0  0  0  0  0  0  0  0  0
  -21.3250   -6.6650   23.9660 C   0  0  0  0  0  3  0  0  0  0  0  0
  -21.2770   -5.8120   25.0880 C   0  0  0  0  0  3  0  0  0  0  0  0
  -21.5560   -4.4390   24.9440 C   0  0  0  0  0  0  0  0  0  0  0  0
  -21.8820   -3.9180   23.6800 C   0  0  0  0  0  3  0  0  0  0  0  0
  -21.9290   -4.7660   22.5580 C   0  0  0  0  0  0  0  0  0  0  0  0
  -22.2210   -4.2530   21.3390 F   0  0  0  0  0  0  0  0  0  0  0  0
  -21.5040   -3.6200   26.0200 F   0  0  0  0  0  0  0  0  0  0  0  0
  -22.7400  -13.5560   21.2540 C   0  0  0  0  0  0  0  0  0  0  0  0
  -22.0240  -12.8580   22.1300 N   0  0  0  0  0  0  0  0  0  0  0  0
  -22.2950  -14.5800   20.7370 O   0  0  0  0  0  0  0  0  0  0  0  0
  -22.3980  -12.0260   22.5640 H   0  0  0  0  0  0  0  0  0  0  0  0
  -21.0880  -13.1560   22.3650 H   0  0  0  0  0  0  0  0  0  0  0  0
  -25.3510  -15.2270   20.4030 N   0  0  0  0  0  0  0  0  0  0  0  0
  -24.5700  -15.8670   20.4960 H   0  0  0  0  0  0  0  0  0  0  0  0
  -26.1810  -15.6650   20.0230 H   0  0  0  0  0  0  0  0  0  0  0  0
  1  4  1  0
  2  1  2  0
  2  5  1  0
  3  6  1  0
  4  9  1  0
  4  6  2  0
  5 10  1  0
  5  3  2  0
  6 54  1  0
  8  9  1  0
  9  7  1  0
 11 10  1  0
 12 11  1  0
 12 13  1  0
 13 15  1  0
 14 25  2  0
 15 20  1  0
 16 24  1  0
 16 26  1  0
 17 23  1  0
 17 19  1  0
 18 24  1  0
 19 18  1  0
 20 19  2  0
 21 22  1  0
 21 15  2  0
 22 17  2  0
 23 16  1  0
 24 14  1  0
 26 28  2  0
 27 26  1  0
 29 27  1  0
 30 39  2  0
 30 35  1  0
 31 27  1  0
 31 35  1  0
 32 31  1  0
 33 34  1  0
 33 32  1  0
 34 30  1  0
 35 36  2  0
 36 37  1  0
 38 37  2  0
 39 38  1  0
 40 14  1  0
 40 41  1  0
 40 50  1  0
 41 44  1  0
 42 46  1  0
 42 41  1  0
 43 42  2  0
 46 45  1  0
 48 46  1  0
 48 49  1  0
 48 47  1  0
 50 53  1  1
 50 51  1  0
 52 50  1  0
 55 54  1  0
 55 56  1  0
 57 65  1  0
 58 63  1  0
 59 60  1  0
 59 58  1  0
 61 60  1  0
 61 70  1  0
 61 62  1  0
 63 57  1  0
 63 62  1  0
 64 57  2  0
 65 66  1  0
 65 56  1  0
 67 68  2  0
 68 87  1  0
 69 68  1  0
 69 72  1  0
 70 67  1  0
 70 71  1  0
 71 69  2  0
 72 73  1  0
 73 74  2  0
 75 78  1  0
 75 74  1  0
 76 75  2  0
 77 76  1  0
 77 72  2  0
 78 79  1  0
 79 80  1  0
 80 81  2  0
 82 81  1  0
 82 86  1  0
 83 82  2  0
 84 79  2  0
 84 83  1  0
 85 84  1  0
 87 88  1  0
 88 91  1  0
 88 90  1  0
 89 87  2  0
 92 93  1  0
 92 67  1  0
 94 92  1  0
M  ISO  4  12 101  13 101  57 100  65 100
M  END
>  <TORSDO>  (66) 
F 23

>  <SCORE>  (66) 
-13.036

>  <name>  (66) 
66

>  <ligand_id>  (66) 
66

>  <original_smiles>  (66) 
[H]c1c([H])c([H])c2c(c1[H])C([H])([H])C([H])([H])C([H])([H])C2([H])N([H])C(=O)C1([H])N(C(=O)C([H])(N([H])C(=O)C([H])(N([H])C([H])([H])[H])C([H])([H])[H])C(C([H])([H])[H])(C([H])([H])[H])C([H])([H])[H])C([H])([H])c2c([H])c(OC([H])([H])C([H])([H])Oc3c([H])c([H])c(C([H])(C([H])([H])[H])C([H])([H])[H])c(OC([H])([H])C([H])([H])N([H])C(=O)N4C([H])([H])C([H])([H])C([H])([H])C([H])(n5nc(-c6c([H])c([H])c(Oc7c([H])c([H])c(F)c([H])c7F)c([H])c6[H])c(C(=O)N([H])[H])c5N([H])[H])C4([H])[H])c3[H])c([H])c([H])c2C1([H])[H]

>  <smiles>  (66) 
[H]c1c([H])c([H])c2c(c1[H])C([H])([H])C([H])([H])C([H])([H])C2([H])N([H])C(=O)C1([H])N(C(=O)C([H])(N([H])C(=O)C([H])(N([H])C([H])([H])[H])C([H])([H])[H])C(C([H])([H])[H])(C([H])([H])[H])C([H])([H])[H])C([H])([H])c2c([H])c(OC([H])([H])C([H])([H])Oc3c([H])c([H])c(C([H])(C([H])([H])[H])C([H])([H])[H])c(OC([H])([H])C([H])([H])N([H])C(=O)N4C([H])([H])C([H])([H])C([H])([H])C([H])(n5nc(-c6c([H])c([H])c(Oc7c([H])c([H])c(F)c([H])c7F)c([H])c6[H])c(C(=O)N([H])[H])c5N([H])[H])C4([H])[H])c3[H])c([H])c([H])c2C1([H])[H]

$$$$
67:0:0
     RDKit          3D

 97106  0  0  1  0  0  0  0  0999 V2000
  -26.9430  -21.9820   21.3220 C   0  0  0  0  0  2  0  0  0  0  0  0
  -28.4410  -22.0980   21.5680 C   0  0  0  0  0  3  0  0  0  0  0  0
  -27.8990  -21.1420   20.5100 C   0  0  0  0  0  3  0  0  0  0  0  0
  -28.0400  -19.6960   20.8380 N   0  0  0  0  0  4  0  0  0  0  0  0
  -27.2980  -19.2070   20.3640 H   0  0  0  0  0  0  0  0  0  0  0  0
  -27.9320  -19.5080   21.8220 H   0  0  0  0  0  0  0  0  0  0  0  0
  -29.3390  -19.1710   20.3480 C   0  0  0  0  0  2  0  0  0  0  0  0
  -29.5110  -17.6250   20.3530 C   0  0  0  0  0  2  0  0  0  0  0  0
  -31.4850  -14.9420   20.2760 C   0  0  0  0  0  0  0  0  0  0  0  0
  -31.1460  -12.7080   19.3920 C   0  0  0  0  0  2  0  0  0  0  0  0
  -30.2360  -12.8080   18.1430 C   0  0  0  0  0  2  0  0  0  0  0  0
  -28.7570  -12.7390   18.5430 C   0  0  0  0  0  2  0  0  0  0  0  0
  -28.3960  -13.7100   19.6970 C   0  0  0  0  0  3  0  0  0  0  0  0
  -29.4180  -13.6200   20.8570 C   0  0  0  0  0  2  0  0  0  0  0  0
  -30.7600  -13.7970   20.2960 N   0  0  0  0  0  0  0  0  0  0  0  0
  -32.6940  -14.9640   20.4990 O   0  0  0  0  0  0  0  0  0  0  0  0
  -31.2320  -16.7530   17.1140 C   0  0  0  0  0  2  0  0  0  0  0  0
  -30.5900  -17.7810   18.0290 C   0  0  0  0  0  2  0  0  0  0  0  0
  -31.9180  -15.8320   18.1040 C   0  0  0  0  0  2  0  0  0  0  0  0
  -30.7290  -17.2260   19.4740 C   0  0  0  0  0  3  0  0  0  0  0  0
  -31.0510  -15.7910   19.3040 N   0  0  0  0  0  0  0  0  0  0  0  0
  -25.9850  -14.4090   20.2660 C   0  0  0  0  0  0  0  0  0  0  0  0
  -24.8780  -13.6790   20.5970 C   0  0  0  0  0  0  0  0  0  0  0  0
  -25.3000  -12.3150   20.6500 C   0  0  0  0  0  0  0  0  0  0  0  0
  -27.0190  -13.4940   20.1380 N   0  0  0  0  0  0  0  0  0  0  0  0
  -26.6060  -12.2320   20.4330 N   0  0  0  0  0  0  0  0  0  0  0  0
  -24.5310  -11.0780   20.8410 C   0  0  0  0  0  0  0  0  0  0  0  0
  -24.8770  -10.1440   21.8420 C   0  0  0  0  0  3  0  0  0  0  0  0
  -24.1140   -8.9700   22.0190 C   0  0  0  0  0  3  0  0  0  0  0  0
  -22.9910   -8.7230   21.1940 C   0  0  0  0  0  0  0  0  0  0  0  0
  -22.6650   -9.6450   20.1830 C   0  0  0  0  0  3  0  0  0  0  0  0
  -23.4290  -10.8110   20.0070 C   0  0  0  0  0  3  0  0  0  0  0  0
  -22.2080   -7.5950   21.2760 O   0  0  0  0  0  0  0  0  0  0  0  0
  -22.0160   -6.9400   22.4660 C   0  0  0  0  0  0  0  0  0  0  0  0
  -21.4710   -7.5930   23.5950 C   0  0  0  0  0  3  0  0  0  0  0  0
  -21.2170   -6.8650   24.7740 C   0  0  0  0  0  3  0  0  0  0  0  0
  -21.5090   -5.4880   24.8270 C   0  0  0  0  0  0  0  0  0  0  0  0
  -22.0520   -4.8370   23.7060 C   0  0  0  0  0  3  0  0  0  0  0  0
  -22.2990   -5.5630   22.5260 C   0  0  0  0  0  0  0  0  0  0  0  0
  -22.8020   -4.9260   21.4410 F   0  0  0  0  0  0  0  0  0  0  0  0
  -21.2630   -4.7880   25.9600 F   0  0  0  0  0  0  0  0  0  0  0  0
  -23.4770  -14.1990   20.7580 C   0  0  0  0  0  0  0  0  0  0  0  0
  -22.6900  -13.5730   21.6240 N   0  0  0  0  0  0  0  0  0  0  0  0
  -23.0900  -15.1940   20.1470 O   0  0  0  0  0  0  0  0  0  0  0  0
  -23.0170  -12.7670   22.1350 H   0  0  0  0  0  0  0  0  0  0  0  0
  -21.7500  -13.9070   21.7770 H   0  0  0  0  0  0  0  0  0  0  0  0
  -26.1950  -15.7650   20.0370 N   0  0  0  0  0  0  0  0  0  0  0  0
  -25.4300  -16.4280   20.0280 H   0  0  0  0  0  0  0  0  0  0  0  0
  -27.0640  -16.1420   19.6860 H   0  0  0  0  0  0  0  0  0  0  0  0
  -30.8280  -22.7870   21.5150 C   0  0  0  0  0  1  0  0  0  0  0  0
  -29.4050  -23.1850   21.0700 C   0  0  0  0  0  3  0  0  0  0  0  0
  -29.0430  -24.5680   21.4970 N   0  0  0  0  0  4  0  0  0  0  0  0
  -28.1730  -24.8090   21.0440 H   0  0  0  0  0  0  0  0  0  0  0  0
  -28.8780  -24.5870   22.4920 H   0  0  0  0  0  0  0  0  0  0  0  0
  -30.0380  -25.6250   21.1390 C   0  0  0  0  0  2  0  0  0  0  0  0
  -29.4550  -27.0530   21.0930 C   0  0  0  0  0  2  0  0  0  0  0  0
  -28.7350  -27.2150   19.8670 O   0  0  0  0  0  0  0  0  0  0  0  0
  -24.6940  -31.9740   23.3160 C   0  0  0  0  0  0  0  0  0  0  0  0
  -27.5660  -27.9330   19.9380 C   0  0  0  0  0  0  0  0  0  0  0  0
  -23.5570  -30.6230   21.5810 C   0  0  0  0  0  3  0  0  0  0  0  0
  -25.0870  -29.2790   20.0440 C   0  0  0  0  0  0  0  0  0  0  0  0
  -26.0540  -31.1450   21.4040 C   0  0  0  0  0  2  0  0  0  0  0  0
  -26.2130  -29.8300   20.6720 C   0  0  0  0  0  0  0  0  0  0  0  0
  -27.4560  -29.1640   20.6230 C   0  0  0  0  0  3  0  0  0  0  0  0
  -26.4360  -27.4050   19.2860 C   0  0  0  0  0  3  0  0  0  0  0  0
  -25.1930  -28.0630   19.3450 C   0  0  0  0  0  3  0  0  0  0  0  0
  -23.7930  -30.0530   20.1570 C   0  0  0  0  0  2  0  0  0  0  0  0
  -24.7850  -31.2590   22.1600 N   0  0  0  0  0  0  0  0  0  0  0  0
  -23.6040  -32.1450   23.8790 O   0  0  0  0  0  0  0  0  0  0  0  0
  -22.9740  -29.5020   22.4720 C   0  0  0  0  0  0  0  0  0  0  0  0
  -21.6700  -29.2260   22.3060 N   0  0  0  0  0  0  0  0  0  0  0  0
  -23.6930  -28.8860   23.2620 O   0  0  0  0  0  0  0  0  0  0  0  0
  -21.1480  -29.7830   21.6470 H   0  0  0  0  0  0  0  0  0  0  0  0
  -18.4020  -27.7190   22.6370 C   0  0  0  0  0  0  0  0  0  0  0  0
  -20.9190  -28.1840   23.0070 C   0  0  0  0  0  3  0  0  0  0  0  0
  -21.1640  -26.7940   22.3730 C   0  0  0  0  0  2  0  0  0  0  0  0
  -20.1260  -26.4250   21.3080 C   0  0  0  0  0  2  0  0  0  0  0  0
  -18.7170  -26.4220   21.9100 C   0  0  0  0  0  2  0  0  0  0  0  0
  -19.4370  -28.5540   23.1370 C   0  0  0  0  0  0  0  0  0  0  0  0
  -19.0880  -29.7680   23.7710 C   0  0  0  0  0  3  0  0  0  0  0  0
  -17.7400  -30.1450   23.9150 C   0  0  0  0  0  3  0  0  0  0  0  0
  -16.7210  -29.3060   23.4310 C   0  0  0  0  0  3  0  0  0  0  0  0
  -17.0510  -28.0950   22.7970 C   0  0  0  0  0  3  0  0  0  0  0  0
  -25.9520  -32.6300   23.9710 C   0  0  0  0  0  3  0  0  0  0  0  0
  -25.5890  -34.0030   24.3390 N   0  0  0  0  0  0  0  0  0  0  0  0
  -25.9060  -35.0920   23.6250 C   0  0  0  0  0  0  0  0  0  0  0  0
  -26.6070  -35.0440   22.6090 O   0  0  0  0  0  0  0  0  0  0  0  0
  -24.9700  -34.1120   25.1290 H   0  0  0  0  0  0  0  0  0  0  0  0
  -24.1330  -36.8410   23.2730 C   0  0  0  0  0  1  0  0  0  0  0  0
  -25.3590  -36.4480   24.1120 C   0  0  0  0  0  3  0  0  0  0  0  0
  -27.4390  -37.3680   25.0410 C   0  0  0  0  0  1  0  0  0  0  0  0
  -26.3630  -37.5340   24.0680 N   0  0  0  0  0  0  0  0  0  0  0  0
  -25.9260  -38.4350   24.2330 H   0  0  0  0  0  0  0  0  0  0  0  0
  -26.4870  -31.8370   25.2250 C   0  0  1  0  0  0  0  0  0  0  0  0
  -25.3940  -31.5180   26.2720 C   0  0  0  0  0  1  0  0  0  0  0  0
  -27.1330  -30.5000   24.7960 C   0  0  0  0  0  1  0  0  0  0  0  0
  -27.5960  -32.6540   25.9270 C   0  0  0  0  0  1  0  0  0  0  0  0
  1  2  1  0
  2 51  1  0
  3  4  1  0
  3  1  1  0
  3  2  1  0
  4  6  1  0
  5  4  1  0
  7  8  1  0
  7  4  1  0
  9 15  1  0
  9 16  2  0
 10 15  1  0
 11 12  1  0
 11 10  1  0
 13 12  1  0
 13 25  1  0
 13 14  1  0
 15 14  1  0
 17 18  1  0
 17 19  1  0
 18 20  1  0
 19 21  1  0
 20  8  1  0
 21 20  1  0
 21  9  1  0
 22 23  2  0
 23 24  1  0
 23 42  1  0
 24 27  1  0
 25 22  1  0
 25 26  1  0
 26 24  2  0
 27 28  1  0
 28 29  2  0
 30 33  1  0
 30 29  1  0
 31 30  2  0
 32 31  1  0
 32 27  2  0
 33 34  1  0
 34 39  2  0
 34 35  1  0
 35 36  2  0
 36 37  1  0
 37 41  1  0
 38 37  2  0
 39 38  1  0
 40 39  1  0
 42 43  1  0
 43 46  1  0
 43 45  1  0
 44 42  2  0
 47 22  1  0
 48 47  1  0
 49 47  1  0
 51 52  1  0
 51 50  1  0
 52 54  1  0
 53 52  1  0
 55 52  1  0
 56 55  1  0
 57 59  1  0
 57 56  1  0
 58 69  2  0
 59 64  1  0
 60 68  1  0
 60 70  1  0
 61 67  1  0
 61 63  1  0
 62 68  1  0
 63 62  1  0
 64 63  2  0
 65 66  1  0
 65 59  2  0
 66 61  2  0
 67 60  1  0
 68 58  1  0
 70 72  2  0
 71 70  1  0
 73 71  1  0
 74 83  2  0
 74 79  1  0
 75 71  1  0
 75 79  1  0
 76 75  1  0
 77 78  1  0
 77 76  1  0
 78 74  1  0
 79 80  2  0
 80 81  1  0
 82 81  2  0
 83 82  1  0
 84 58  1  0
 84 85  1  0
 84 94  1  0
 85 88  1  0
 86 90  1  0
 86 85  1  0
 87 86  2  0
 90 89  1  0
 92 90  1  0
 92 93  1  0
 92 91  1  0
 94 97  1  1
 94 95  1  0
 96 94  1  0
M  ISO  4   9 100  21 100  56 101  57 101
M  END
>  <TORSDO>  (67) 
F 23

>  <SCORE>  (67) 
-10.941

>  <name>  (67) 
67

>  <ligand_id>  (67) 
67

>  <original_smiles>  (67) 
[H]c1c([H])c([H])c2c(c1[H])C([H])([H])C([H])([H])C([H])([H])C2([H])N([H])C(=O)C1([H])N(C(=O)C([H])(N([H])C(=O)C([H])(N([H])C([H])([H])[H])C([H])([H])[H])C(C([H])([H])[H])(C([H])([H])[H])C([H])([H])[H])C([H])([H])c2c([H])c(OC([H])([H])C([H])([H])[N+]([H])([H])C([H])(C([H])([H])[H])C3([H])C([H])([H])C3([H])[N+]([H])([H])C([H])([H])C([H])([H])C3([H])N(C(=O)N4C([H])([H])C([H])([H])C([H])([H])C([H])(n5nc(-c6c([H])c([H])c(Oc7c([H])c([H])c(F)c([H])c7F)c([H])c6[H])c(C(=O)N([H])[H])c5N([H])[H])C4([H])[H])C([H])([H])C([H])([H])C3([H])[H])c([H])c([H])c2C1([H])[H]

>  <smiles>  (67) 
[H]c1c([H])c([H])c2c(c1[H])C([H])([H])C([H])([H])C([H])([H])C2([H])N([H])C(=O)C1([H])N(C(=O)C([H])(N([H])C(=O)C([H])(N([H])C([H])([H])[H])C([H])([H])[H])C(C([H])([H])[H])(C([H])([H])[H])C([H])([H])[H])C([H])([H])c2c([H])c(OC([H])([H])C([H])([H])[N+]([H])([H])C([H])(C([H])([H])[H])C3([H])C([H])([H])C3([H])[N+]([H])([H])C([H])([H])C([H])([H])C3([H])N(C(=O)N4C([H])([H])C([H])([H])C([H])([H])C([H])(n5nc(-c6c([H])c([H])c(Oc7c([H])c([H])c(F)c([H])c7F)c([H])c6[H])c(C(=O)N([H])[H])c5N([H])[H])C4([H])[H])C([H])([H])C([H])([H])C3([H])[H])c([H])c([H])c2C1([H])[H]

$$$$
68:0:0
     RDKit          3D

 94102  0  0  1  0  0  0  0  0999 V2000
  -28.5610  -20.4090   21.0990 C   0  0  0  0  0  3  0  0  0  0  0  0
  -30.7160  -20.4520   19.9820 C   0  0  0  0  0  3  0  0  0  0  0  0
  -28.4720  -21.8150   21.0120 C   0  0  0  0  0  0  0  0  0  0  0  0
  -30.6360  -21.8600   19.8790 C   0  0  0  0  0  0  0  0  0  0  0  0
  -29.6790  -19.7150   20.5980 C   0  0  0  0  0  0  0  0  0  0  0  0
  -29.5140  -22.5520   20.3920 C   0  0  0  0  0  0  0  0  0  0  0  0
  -27.2610  -22.5010   21.6150 C   0  0  0  0  0  1  0  0  0  0  0  0
  -31.7580  -22.6260   19.2020 C   0  0  0  0  0  1  0  0  0  0  0  0
  -29.7190  -18.3190   20.7310 N   0  0  0  0  0  0  0  0  0  0  0  0
  -28.9570  -17.8840   21.2430 H   0  0  0  0  0  0  0  0  0  0  0  0
  -31.0190  -17.6670   20.8590 C   0  0  0  0  0  2  0  0  0  0  0  0
  -30.9720  -16.4780   21.8380 C   0  0  0  0  0  2  0  0  0  0  0  0
  -30.7180  -14.4980   20.3520 C   0  0  0  0  0  0  0  0  0  0  0  0
  -30.3260  -12.4260   19.0690 C   0  0  0  0  0  2  0  0  0  0  0  0
  -29.3390  -12.6720   17.9130 C   0  0  0  0  0  2  0  0  0  0  0  0
  -27.8860  -12.5080   18.3950 C   0  0  0  0  0  2  0  0  0  0  0  0
  -27.5960  -13.3120   19.6900 C   0  0  0  0  0  3  0  0  0  0  0  0
  -28.6850  -13.0510   20.7520 C   0  0  0  0  0  2  0  0  0  0  0  0
  -29.9980  -13.3620   20.1550 N   0  0  0  0  0  0  0  0  0  0  0  0
  -31.7440  -14.7640   19.7200 O   0  0  0  0  0  0  0  0  0  0  0  0
  -30.2600  -15.3140   21.3100 N   0  0  0  0  0  0  0  0  0  0  0  0
  -29.4120  -15.0360   21.7780 H   0  0  0  0  0  0  0  0  0  0  0  0
  -25.2200  -13.8970   20.4920 C   0  0  0  0  0  0  0  0  0  0  0  0
  -24.1680  -13.1120   20.8830 C   0  0  0  0  0  0  0  0  0  0  0  0
  -24.6310  -11.7630   20.8060 C   0  0  0  0  0  0  0  0  0  0  0  0
  -26.2600  -13.0240   20.2070 N   0  0  0  0  0  0  0  0  0  0  0  0
  -25.9090  -11.7350   20.4510 N   0  0  0  0  0  0  0  0  0  0  0  0
  -23.9160  -10.4940   20.9950 C   0  0  0  0  0  0  0  0  0  0  0  0
  -24.3550   -9.5320   21.9300 C   0  0  0  0  0  3  0  0  0  0  0  0
  -23.6410   -8.3270   22.1070 C   0  0  0  0  0  3  0  0  0  0  0  0
  -22.4740   -8.0760   21.3460 C   0  0  0  0  0  0  0  0  0  0  0  0
  -22.0530   -9.0280   20.4000 C   0  0  0  0  0  3  0  0  0  0  0  0
  -22.7690  -10.2240   20.2220 C   0  0  0  0  0  3  0  0  0  0  0  0
  -21.7300   -6.9240   21.4310 O   0  0  0  0  0  0  0  0  0  0  0  0
  -21.6560   -6.1990   22.5920 C   0  0  0  0  0  0  0  0  0  0  0  0
  -21.1520   -6.7570   23.7870 C   0  0  0  0  0  3  0  0  0  0  0  0
  -21.0280   -5.9560   24.9410 C   0  0  0  0  0  3  0  0  0  0  0  0
  -21.3990   -4.5990   24.9000 C   0  0  0  0  0  0  0  0  0  0  0  0
  -21.8970   -4.0410   23.7090 C   0  0  0  0  0  3  0  0  0  0  0  0
  -22.0220   -4.8390   22.5590 C   0  0  0  0  0  0  0  0  0  0  0  0
  -22.4820   -4.2900   21.4090 F   0  0  0  0  0  0  0  0  0  0  0  0
  -21.2730   -3.8290   26.0050 F   0  0  0  0  0  0  0  0  0  0  0  0
  -22.7790  -13.5780   21.2160 C   0  0  0  0  0  0  0  0  0  0  0  0
  -22.0790  -12.8510   22.0800 N   0  0  0  0  0  0  0  0  0  0  0  0
  -22.3240  -14.6190   20.7450 O   0  0  0  0  0  0  0  0  0  0  0  0
  -22.4590  -12.0070   22.4810 H   0  0  0  0  0  0  0  0  0  0  0  0
  -21.1490  -13.1430   22.3440 H   0  0  0  0  0  0  0  0  0  0  0  0
  -25.3740  -15.2700   20.3400 N   0  0  0  0  0  0  0  0  0  0  0  0
  -24.6090  -15.9210   20.4800 H   0  0  0  0  0  0  0  0  0  0  0  0
  -26.2160  -15.7160   19.9960 H   0  0  0  0  0  0  0  0  0  0  0  0
  -29.4950  -23.9270   20.3090 O   0  0  0  0  0  0  0  0  0  0  0  0
  -28.4900  -24.4940   19.4690 C   0  0  0  0  0  2  0  0  0  0  0  0
  -28.9680  -25.8550   18.9200 C   0  0  0  0  0  2  0  0  0  0  0  0
  -28.7300  -26.9450   19.8170 O   0  0  0  0  0  0  0  0  0  0  0  0
  -24.6390  -31.7320   23.1090 C   0  0  0  0  0  0  0  0  0  0  0  0
  -27.4970  -27.5670   19.8350 C   0  0  0  0  0  0  0  0  0  0  0  0
  -23.5010  -30.3560   21.3990 C   0  0  0  0  0  3  0  0  0  0  0  0
  -25.0260  -28.9480   19.9170 C   0  0  0  0  0  0  0  0  0  0  0  0
  -26.0090  -30.8320   21.2330 C   0  0  0  0  0  2  0  0  0  0  0  0
  -26.1550  -29.4960   20.5370 C   0  0  0  0  0  0  0  0  0  0  0  0
  -27.3880  -28.8080   20.5010 C   0  0  0  0  0  3  0  0  0  0  0  0
  -26.3430  -27.0240   19.2220 C   0  0  0  0  0  3  0  0  0  0  0  0
  -25.1130  -27.7070   19.2620 C   0  0  0  0  0  3  0  0  0  0  0  0
  -23.7430  -29.7460   19.9930 C   0  0  0  0  0  2  0  0  0  0  0  0
  -24.7340  -30.9860   21.9730 N   0  0  0  0  0  0  0  0  0  0  0  0
  -23.5450  -31.9340   23.6550 O   0  0  0  0  0  0  0  0  0  0  0  0
  -22.8900  -29.2650   22.3090 C   0  0  0  0  0  0  0  0  0  0  0  0
  -21.5730  -29.0440   22.1740 N   0  0  0  0  0  0  0  0  0  0  0  0
  -23.5980  -28.6240   23.0890 O   0  0  0  0  0  0  0  0  0  0  0  0
  -21.0600  -29.6200   21.5200 H   0  0  0  0  0  0  0  0  0  0  0  0
  -18.2390  -27.7340   22.6290 C   0  0  0  0  0  0  0  0  0  0  0  0
  -20.7910  -28.0400   22.8950 C   0  0  0  0  0  3  0  0  0  0  0  0
  -20.9250  -26.6500   22.2310 C   0  0  0  0  0  2  0  0  0  0  0  0
  -19.8200  -26.3590   21.2090 C   0  0  0  0  0  2  0  0  0  0  0  0
  -18.4420  -26.4300   21.8750 C   0  0  0  0  0  2  0  0  0  0  0  0
  -19.3410  -28.4980   23.0940 C   0  0  0  0  0  0  0  0  0  0  0  0
  -19.0980  -29.7200   23.7580 C   0  0  0  0  0  3  0  0  0  0  0  0
  -17.7820  -30.1770   23.9640 C   0  0  0  0  0  3  0  0  0  0  0  0
  -16.6940  -29.4090   23.5180 C   0  0  0  0  0  3  0  0  0  0  0  0
  -16.9230  -28.1890   22.8560 C   0  0  0  0  0  3  0  0  0  0  0  0
  -25.8940  -32.3860   23.7670 C   0  0  0  0  0  3  0  0  0  0  0  0
  -25.5380  -33.7670   24.1170 N   0  0  0  0  0  0  0  0  0  0  0  0
  -25.8570  -34.8430   23.3860 C   0  0  0  0  0  0  0  0  0  0  0  0
  -26.5520  -34.7800   22.3670 O   0  0  0  0  0  0  0  0  0  0  0  0
  -24.9150  -33.8870   24.9020 H   0  0  0  0  0  0  0  0  0  0  0  0
  -24.0890  -36.5970   23.0230 C   0  0  0  0  0  1  0  0  0  0  0  0
  -25.3190  -36.2070   23.8590 C   0  0  0  0  0  3  0  0  0  0  0  0
  -27.4000  -37.1350   24.7710 C   0  0  0  0  0  1  0  0  0  0  0  0
  -26.3240  -37.2900   23.7960 N   0  0  0  0  0  0  0  0  0  0  0  0
  -25.8870  -38.1950   23.9430 H   0  0  0  0  0  0  0  0  0  0  0  0
  -26.4120  -31.6030   25.0350 C   0  0  1  0  0  0  0  0  0  0  0  0
  -25.3080  -31.3010   26.0770 C   0  0  0  0  0  1  0  0  0  0  0  0
  -27.0470  -30.2550   24.6200 C   0  0  0  0  0  1  0  0  0  0  0  0
  -27.5250  -32.4180   25.7330 C   0  0  0  0  0  1  0  0  0  0  0  0
  2  5  1  0
  3  1  1  0
  3  7  1  0
  4  2  2  0
  4  6  1  0
  5  9  1  0
  5  1  2  0
  6  3  2  0
  8  4  1  0
  9 11  1  0
  9 10  1  0
 11 12  1  0
 13 21  1  0
 14 19  1  0
 15 16  1  0
 15 14  1  0
 17 16  1  0
 17 26  1  0
 17 18  1  0
 19 13  1  0
 19 18  1  0
 20 13  2  0
 21 22  1  0
 21 12  1  0
 23 24  2  0
 24 43  1  0
 25 24  1  0
 25 28  1  0
 26 27  1  0
 26 23  1  0
 27 25  2  0
 28 29  1  0
 29 30  2  0
 31 34  1  0
 31 30  1  0
 32 31  2  0
 33 32  1  0
 33 28  2  0
 34 35  1  0
 35 36  1  0
 36 37  2  0
 38 37  1  0
 38 42  1  0
 39 38  2  0
 40 35  2  0
 40 39  1  0
 41 40  1  0
 43 44  1  0
 44 47  1  0
 44 46  1  0
 45 43  2  0
 48 49  1  0
 48 23  1  0
 50 48  1  0
 51  6  1  0
 52 51  1  0
 53 52  1  0
 53 54  1  0
 54 56  1  0
 55 66  2  0
 56 61  1  0
 57 65  1  0
 57 67  1  0
 58 64  1  0
 58 60  1  0
 59 65  1  0
 60 59  1  0
 61 60  2  0
 62 63  1  0
 62 56  2  0
 63 58  2  0
 64 57  1  0
 65 55  1  0
 67 69  2  0
 68 67  1  0
 70 68  1  0
 71 80  2  0
 71 76  1  0
 72 68  1  0
 72 76  1  0
 73 72  1  0
 74 75  1  0
 74 73  1  0
 75 71  1  0
 76 77  2  0
 77 78  1  0
 79 78  2  0
 80 79  1  0
 81 55  1  0
 81 82  1  0
 81 91  1  0
 82 85  1  0
 83 87  1  0
 83 82  1  0
 84 83  2  0
 87 86  1  0
 89 87  1  0
 89 90  1  0
 89 88  1  0
 91 94  1  1
 91 92  1  0
 93 91  1  0
M  ISO  4  13 100  21 100  53 101  54 101
M  END
>  <TORSDO>  (68) 
F 22

>  <SCORE>  (68) 
-12.917

>  <name>  (68) 
68

>  <ligand_id>  (68) 
68

>  <original_smiles>  (68) 
[H]c1c([H])c([H])c2c(c1[H])C([H])([H])C([H])([H])C([H])([H])C2([H])N([H])C(=O)C1([H])N(C(=O)C([H])(N([H])C(=O)C([H])(N([H])C([H])([H])[H])C([H])([H])[H])C(C([H])([H])[H])(C([H])([H])[H])C([H])([H])[H])C([H])([H])c2c([H])c(OC([H])([H])C([H])([H])Oc3c(C([H])([H])[H])c([H])c(N([H])C([H])([H])C([H])([H])N([H])C(=O)N4C([H])([H])C([H])([H])C([H])([H])C([H])(n5nc(-c6c([H])c([H])c(Oc7c([H])c([H])c(F)c([H])c7F)c([H])c6[H])c(C(=O)N([H])[H])c5N([H])[H])C4([H])[H])c([H])c3C([H])([H])[H])c([H])c([H])c2C1([H])[H]

>  <smiles>  (68) 
[H]c1c([H])c([H])c2c(c1[H])C([H])([H])C([H])([H])C([H])([H])C2([H])N([H])C(=O)C1([H])N(C(=O)C([H])(N([H])C(=O)C([H])(N([H])C([H])([H])[H])C([H])([H])[H])C(C([H])([H])[H])(C([H])([H])[H])C([H])([H])[H])C([H])([H])c2c([H])c(OC([H])([H])C([H])([H])Oc3c(C([H])([H])[H])c([H])c(N([H])C([H])([H])C([H])([H])N([H])C(=O)N4C([H])([H])C([H])([H])C([H])([H])C([H])(n5nc(-c6c([H])c([H])c(Oc7c([H])c([H])c(F)c([H])c7F)c([H])c6[H])c(C(=O)N([H])[H])c5N([H])[H])C4([H])[H])c([H])c3C([H])([H])[H])c([H])c([H])c2C1([H])[H]

$$$$
69:0:0
     RDKit          3D

 99108  0  0  1  0  0  0  0  0999 V2000
  -28.9630  -22.1600   18.8020 N   0  0  0  0  0  4  0  0  0  0  0  0
  -29.9070  -21.9700   19.0990 H   0  0  0  0  0  0  0  0  0  0  0  0
  -28.9910  -22.4440   17.8380 H   0  0  0  0  0  0  0  0  0  0  0  0
  -29.6770  -25.1920   20.4800 C   0  0  0  0  0  2  0  0  0  0  0  0
  -28.2270  -24.5340   18.7430 C   0  0  0  0  0  2  0  0  0  0  0  0
  -29.3630  -23.7010   20.7620 C   0  0  0  0  0  3  0  0  0  0  0  0
  -28.4140  -23.2770   19.5980 C   0  0  0  0  0  3  0  0  0  0  0  0
  -28.4140  -25.6530   19.7660 C   0  0  0  0  0  3  0  0  0  0  0  0
  -28.3220  -22.1240   22.5830 C   0  0  0  0  0  1  0  0  0  0  0  0
  -28.7340  -23.5500   22.1740 C   0  0  0  0  0  2  0  0  0  0  0  0
  -28.4600  -26.9780   19.2330 O   0  0  0  0  0  0  0  0  0  0  0  0
  -24.6100  -31.6210   22.9550 C   0  0  0  0  0  0  0  0  0  0  0  0
  -27.2530  -27.6430   19.3330 C   0  0  0  0  0  0  0  0  0  0  0  0
  -23.3590  -30.2640   21.3090 C   0  0  0  0  0  3  0  0  0  0  0  0
  -24.7790  -28.9670   19.6470 C   0  0  0  0  0  0  0  0  0  0  0  0
  -25.8280  -30.8250   20.9410 C   0  0  0  0  0  2  0  0  0  0  0  0
  -25.9460  -29.5270   20.1780 C   0  0  0  0  0  0  0  0  0  0  0  0
  -27.1870  -28.8730   20.0170 C   0  0  0  0  0  3  0  0  0  0  0  0
  -26.0610  -27.0970   18.7990 C   0  0  0  0  0  3  0  0  0  0  0  0
  -24.8300  -27.7520   18.9510 C   0  0  0  0  0  3  0  0  0  0  0  0
  -23.4880  -29.7190   19.8650 C   0  0  0  0  0  2  0  0  0  0  0  0
  -24.6230  -30.9110   21.7920 N   0  0  0  0  0  0  0  0  0  0  0  0
  -23.5650  -31.7740   23.6000 O   0  0  0  0  0  0  0  0  0  0  0  0
  -22.8690  -29.1220   22.2280 C   0  0  0  0  0  0  0  0  0  0  0  0
  -21.5690  -28.7960   22.1250 N   0  0  0  0  0  0  0  0  0  0  0  0
  -23.6460  -28.5370   22.9890 O   0  0  0  0  0  0  0  0  0  0  0  0
  -20.9970  -29.3280   21.4810 H   0  0  0  0  0  0  0  0  0  0  0  0
  -18.3910  -27.1420   22.5670 C   0  0  0  0  0  0  0  0  0  0  0  0
  -20.8890  -27.7350   22.8660 C   0  0  0  0  0  3  0  0  0  0  0  0
  -21.1920  -26.3490   22.2610 C   0  0  0  0  0  2  0  0  0  0  0  0
  -20.1510  -25.9050   21.2310 C   0  0  0  0  0  2  0  0  0  0  0  0
  -18.7560  -25.8420   21.8660 C   0  0  0  0  0  2  0  0  0  0  0  0
  -19.3940  -28.0360   23.0230 C   0  0  0  0  0  0  0  0  0  0  0  0
  -19.0070  -29.2470   23.6370 C   0  0  0  0  0  3  0  0  0  0  0  0
  -17.6450  -29.5650   23.8060 C   0  0  0  0  0  3  0  0  0  0  0  0
  -16.6560  -28.6670   23.3700 C   0  0  0  0  0  3  0  0  0  0  0  0
  -17.0280  -27.4610   22.7500 C   0  0  0  0  0  3  0  0  0  0  0  0
  -25.9040  -32.2920   23.5160 C   0  0  0  0  0  3  0  0  0  0  0  0
  -25.5280  -33.6240   24.0030 N   0  0  0  0  0  0  0  0  0  0  0  0
  -25.7430  -34.7670   23.3420 C   0  0  0  0  0  0  0  0  0  0  0  0
  -26.3610  -34.8180   22.2730 O   0  0  0  0  0  0  0  0  0  0  0  0
  -24.9680  -33.6580   24.8420 H   0  0  0  0  0  0  0  0  0  0  0  0
  -23.8920  -36.4670   23.2510 C   0  0  0  0  0  1  0  0  0  0  0  0
  -25.1890  -36.0600   23.9670 C   0  0  0  0  0  3  0  0  0  0  0  0
  -27.2930  -36.9930   24.8190 C   0  0  0  0  0  1  0  0  0  0  0  0
  -26.1440  -37.1900   23.9370 N   0  0  0  0  0  0  0  0  0  0  0  0
  -25.6830  -38.0560   24.2090 H   0  0  0  0  0  0  0  0  0  0  0  0
  -26.5940  -31.4480   24.6580 C   0  0  1  0  0  0  0  0  0  0  0  0
  -25.6300  -31.0300   25.7900 C   0  0  0  0  0  1  0  0  0  0  0  0
  -27.2330  -30.1650   24.0780 C   0  0  0  0  0  1  0  0  0  0  0  0
  -27.7400  -32.2700   25.2920 C   0  0  0  0  0  1  0  0  0  0  0  0
  -28.1580  -20.9320   18.8920 C   0  0  0  0  0  2  0  0  0  0  0  0
  -28.9210  -19.6670   18.4750 C   0  0  0  0  0  3  0  0  0  0  0  0
  -29.9860  -19.3300   20.8700 C   0  0  0  0  0  1  0  0  0  0  0  0
  -30.1530  -19.2440   19.3410 C   0  0  0  0  0  3  0  0  0  0  0  0
  -31.0500  -14.5960   20.2790 C   0  0  0  0  0  0  0  0  0  0  0  0
  -30.6540  -12.3900   19.3930 C   0  0  0  0  0  2  0  0  0  0  0  0
  -29.7380  -12.5510   18.1630 C   0  0  0  0  0  2  0  0  0  0  0  0
  -28.2590  -12.5010   18.5850 C   0  0  0  0  0  2  0  0  0  0  0  0
  -27.9090  -13.4080   19.7980 C   0  0  0  0  0  3  0  0  0  0  0  0
  -28.9680  -13.2890   20.9190 C   0  0  0  0  0  2  0  0  0  0  0  0
  -30.3000  -13.4710   20.3140 N   0  0  0  0  0  0  0  0  0  0  0  0
  -32.2420  -14.6120   20.5570 O   0  0  0  0  0  0  0  0  0  0  0  0
  -32.7430  -16.5490   18.2380 C   0  0  0  0  0  2  0  0  0  0  0  0
  -32.2470  -17.7210   19.1040 C   0  0  0  0  0  2  0  0  0  0  0  0
  -31.6520  -15.4580   18.0680 C   0  0  0  0  0  2  0  0  0  0  0  0
  -29.9630  -16.6210   19.4370 C   0  0  0  0  0  2  0  0  0  0  0  0
  -30.7240  -17.8770   18.8900 C   0  0  0  0  0  3  0  0  0  0  0  0
  -30.7260  -15.3850   19.2290 N   0  0  0  0  0  0  0  0  0  0  0  0
  -25.4880  -14.0170   20.4680 C   0  0  0  0  0  0  0  0  0  0  0  0
  -24.4100  -13.2460   20.8140 C   0  0  0  0  0  0  0  0  0  0  0  0
  -24.8730  -11.8950   20.8070 C   0  0  0  0  0  0  0  0  0  0  0  0
  -26.5450  -13.1390   20.2720 N   0  0  0  0  0  0  0  0  0  0  0  0
  -26.1730  -11.8580   20.5380 N   0  0  0  0  0  0  0  0  0  0  0  0
  -24.1400  -10.6350   20.9910 C   0  0  0  0  0  0  0  0  0  0  0  0
  -24.5490   -9.6850   21.9550 C   0  0  0  0  0  3  0  0  0  0  0  0
  -23.8280   -8.4860   22.1260 C   0  0  0  0  0  3  0  0  0  0  0  0
  -22.6830   -8.2250   21.3370 C   0  0  0  0  0  0  0  0  0  0  0  0
  -22.2910   -9.1650   20.3660 C   0  0  0  0  0  3  0  0  0  0  0  0
  -23.0140  -10.3590   20.1910 C   0  0  0  0  0  3  0  0  0  0  0  0
  -21.9350   -7.0740   21.4120 O   0  0  0  0  0  0  0  0  0  0  0  0
  -21.8380   -6.3500   22.5740 C   0  0  0  0  0  0  0  0  0  0  0  0
  -21.3330   -6.9200   23.7620 C   0  0  0  0  0  3  0  0  0  0  0  0
  -21.1840   -6.1280   24.9180 C   0  0  0  0  0  3  0  0  0  0  0  0
  -21.5250   -4.7630   24.8830 C   0  0  0  0  0  0  0  0  0  0  0  0
  -22.0220   -4.1890   23.6990 C   0  0  0  0  0  3  0  0  0  0  0  0
  -22.1730   -4.9810   22.5450 C   0  0  0  0  0  0  0  0  0  0  0  0
  -22.6280   -4.4160   21.4020 F   0  0  0  0  0  0  0  0  0  0  0  0
  -21.3760   -4.0000   25.9910 F   0  0  0  0  0  0  0  0  0  0  0  0
  -23.0030  -13.7190   21.0470 C   0  0  0  0  0  0  0  0  0  0  0  0
  -22.2590  -13.0340   21.9030 N   0  0  0  0  0  0  0  0  0  0  0  0
  -22.5700  -14.7360   20.5040 O   0  0  0  0  0  0  0  0  0  0  0  0
  -22.6250  -12.2150   22.3680 H   0  0  0  0  0  0  0  0  0  0  0  0
  -21.3090  -13.3220   22.0940 H   0  0  0  0  0  0  0  0  0  0  0  0
  -25.6510  -15.3860   20.2810 N   0  0  0  0  0  0  0  0  0  0  0  0
  -24.8780  -16.0420   20.3620 H   0  0  0  0  0  0  0  0  0  0  0  0
  -26.5180  -15.8290   19.9960 H   0  0  0  0  0  0  0  0  0  0  0  0
  -27.9260  -18.6570   18.4640 O   0  0  0  0  0  0  0  0  0  0  0  0
  -28.2690  -17.8940   18.0120 H   0  0  0  0  0  0  0  0  0  0  0  0
  1 52  1  0
  1  2  1  0
  3  1  1  0
  4  6  1  0
  5  7  1  0
  5  8  1  0
  6 10  1  0
  7  1  1  0
  7  6  1  0
  8 11  1  0
  8  4  1  0
 10  9  1  0
 11 13  1  0
 12 23  2  0
 13 18  1  0
 14 22  1  0
 14 24  1  0
 15 21  1  0
 15 17  1  0
 16 22  1  0
 17 16  1  0
 18 17  2  0
 19 20  1  0
 19 13  2  0
 20 15  2  0
 21 14  1  0
 22 12  1  0
 24 26  2  0
 25 24  1  0
 27 25  1  0
 28 37  2  0
 28 33  1  0
 29 25  1  0
 29 33  1  0
 30 29  1  0
 31 32  1  0
 31 30  1  0
 32 28  1  0
 33 34  2  0
 34 35  1  0
 36 35  2  0
 37 36  1  0
 38 12  1  0
 38 39  1  0
 38 48  1  0
 39 42  1  0
 40 44  1  0
 40 39  1  0
 41 40  2  0
 44 43  1  0
 46 44  1  0
 46 47  1  0
 46 45  1  0
 48 51  1  1
 48 49  1  0
 50 48  1  0
 53 52  1  0
 53 55  1  0
 55 54  1  0
 56 62  1  0
 56 63  2  0
 57 62  1  0
 58 59  1  0
 58 57  1  0
 60 59  1  0
 60 73  1  0
 60 61  1  0
 62 61  1  0
 64 65  1  0
 66 64  1  0
 66 69  1  0
 68 65  1  0
 68 55  1  0
 68 67  1  0
 69 67  1  0
 69 56  1  0
 70 71  2  0
 71 90  1  0
 72 71  1  0
 72 75  1  0
 73 70  1  0
 73 74  1  0
 74 72  2  0
 75 76  1  0
 76 77  2  0
 78 81  1  0
 78 77  1  0
 79 78  2  0
 80 79  1  0
 80 75  2  0
 81 82  1  0
 82 83  1  0
 83 84  2  0
 85 84  1  0
 85 89  1  0
 86 85  2  0
 87 82  2  0
 87 86  1  0
 88 87  1  0
 90 91  1  0
 91 94  1  0
 91 93  1  0
 92 90  2  0
 95 96  1  0
 95 70  1  0
 97 95  1  0
 98 53  1  0
 99 98  1  0
M  ISO  4   8 101  11 101  56 100  69 100
M  END
>  <TORSDO>  (69) 
F 22

>  <SCORE>  (69) 
-11.852

>  <name>  (69) 
69

>  <ligand_id>  (69) 
69

>  <original_smiles>  (69) 
[H]OC([H])(C([H])(C([H])([H])[H])C1([H])C([H])([H])N(C(=O)N2C([H])([H])C([H])([H])C([H])([H])C([H])(n3nc(-c4c([H])c([H])c(Oc5c([H])c([H])c(F)c([H])c5F)c([H])c4[H])c(C(=O)N([H])[H])c3N([H])[H])C2([H])[H])C([H])([H])C([H])([H])C1([H])[H])C([H])([H])[N+]([H])([H])C1([H])C([H])([H])C([H])(Oc2c([H])c([H])c3c(c2[H])C([H])([H])N(C(=O)C([H])(N([H])C(=O)C([H])(N([H])C([H])([H])[H])C([H])([H])[H])C(C([H])([H])[H])(C([H])([H])[H])C([H])([H])[H])C([H])(C(=O)N([H])C2([H])c4c([H])c([H])c([H])c([H])c4C([H])([H])C([H])([H])C2([H])[H])C3([H])[H])C([H])([H])C1([H])C([H])([H])C([H])([H])[H]

>  <smiles>  (69) 
[H]OC([H])(C([H])(C([H])([H])[H])C1([H])C([H])([H])N(C(=O)N2C([H])([H])C([H])([H])C([H])([H])C([H])(n3nc(-c4c([H])c([H])c(Oc5c([H])c([H])c(F)c([H])c5F)c([H])c4[H])c(C(=O)N([H])[H])c3N([H])[H])C2([H])[H])C([H])([H])C([H])([H])C1([H])[H])C([H])([H])[N+]([H])([H])C1([H])C([H])([H])C([H])(Oc2c([H])c([H])c3c(c2[H])C([H])([H])N(C(=O)C([H])(N([H])C(=O)C([H])(N([H])C([H])([H])[H])C([H])([H])[H])C(C([H])([H])[H])(C([H])([H])[H])C([H])([H])[H])C([H])(C(=O)N([H])C2([H])c4c([H])c([H])c([H])c([H])c4C([H])([H])C([H])([H])C2([H])[H])C3([H])[H])C([H])([H])C1([H])C([H])([H])C([H])([H])[H]

$$$$
70:0:0
     RDKit          3D

 98107  0  0  1  0  0  0  0  0999 V2000
  -27.7230  -19.8280   19.0570 C   0  0  0  0  0  3  0  0  0  0  0  0
  -26.7300  -22.0490   18.9120 C   0  0  0  0  0  3  0  0  0  0  0  0
  -28.9830  -21.7790   19.7800 C   0  0  0  0  0  3  0  0  0  0  0  0
  -26.6390  -20.6600   18.6900 C   0  0  0  0  0  0  0  0  0  0  0  0
  -28.9060  -20.3700   19.6180 C   0  0  0  0  0  0  0  0  0  0  0  0
  -27.8920  -22.6200   19.4630 C   0  0  0  0  0  0  0  0  0  0  0  0
  -25.4910  -19.1950   16.8420 C   0  0  0  0  0  2  0  0  0  0  0  0
  -24.8820  -20.5770   16.7450 C   0  0  0  0  0  2  0  0  0  0  0  0
  -25.4030  -20.0720   18.0710 C   0  0  0  0  0  3  0  0  0  0  0  0
  -30.1000  -19.4700   20.0000 C   0  0  0  0  0  3  0  0  0  0  0  0
  -30.9790  -20.1400   20.9820 N   0  0  0  0  0  4  0  0  0  0  0  0
  -30.4910  -20.3690   21.8330 H   0  0  0  0  0  0  0  0  0  0  0  0
  -31.3390  -20.9900   20.5850 H   0  0  0  0  0  0  0  0  0  0  0  0
  -31.7680  -19.5620   21.2010 H   0  0  0  0  0  0  0  0  0  0  0  0
  -29.7070  -18.0350   20.4910 C   0  0  0  0  0  2  0  0  0  0  0  0
  -30.9220  -17.1480   20.8620 C   0  0  0  0  0  2  0  0  0  0  0  0
  -31.2990  -14.7080   20.7610 C   0  0  0  0  0  0  0  0  0  0  0  0
  -30.9390  -12.6620   19.4570 C   0  0  0  0  0  2  0  0  0  0  0  0
  -30.1010  -13.0420   18.2160 C   0  0  0  0  0  2  0  0  0  0  0  0
  -28.5910  -13.0190   18.5330 C   0  0  0  0  0  2  0  0  0  0  0  0
  -28.2370  -13.7720   19.8420 C   0  0  0  0  0  3  0  0  0  0  0  0
  -29.1880  -13.3720   20.9930 C   0  0  0  0  0  2  0  0  0  0  0  0
  -30.5730  -13.5870   20.5370 N   0  0  0  0  0  0  0  0  0  0  0  0
  -32.4760  -14.8520   20.4140 O   0  0  0  0  0  0  0  0  0  0  0  0
  -30.5550  -15.7580   21.1360 N   0  0  0  0  0  0  0  0  0  0  0  0
  -29.5930  -15.5500   21.3610 H   0  0  0  0  0  0  0  0  0  0  0  0
  -25.8230  -14.5220   20.3490 C   0  0  0  0  0  0  0  0  0  0  0  0
  -24.6850  -13.8140   20.6330 C   0  0  0  0  0  0  0  0  0  0  0  0
  -25.0750  -12.4400   20.6560 C   0  0  0  0  0  0  0  0  0  0  0  0
  -26.8330  -13.5830   20.2120 N   0  0  0  0  0  0  0  0  0  0  0  0
  -26.3830  -12.3250   20.4590 N   0  0  0  0  0  0  0  0  0  0  0  0
  -24.2730  -11.2170   20.8050 C   0  0  0  0  0  0  0  0  0  0  0  0
  -24.6330  -10.1980   21.7150 C   0  0  0  0  0  3  0  0  0  0  0  0
  -23.8320   -9.0420   21.8490 C   0  0  0  0  0  3  0  0  0  0  0  0
  -22.6560   -8.9000   21.0720 C   0  0  0  0  0  0  0  0  0  0  0  0
  -22.3150   -9.9090   20.1520 C   0  0  0  0  0  3  0  0  0  0  0  0
  -23.1160  -11.0540   20.0150 C   0  0  0  0  0  3  0  0  0  0  0  0
  -21.8290   -7.8050   21.1200 O   0  0  0  0  0  0  0  0  0  0  0  0
  -21.7850   -6.9850   22.2180 C   0  0  0  0  0  0  0  0  0  0  0  0
  -21.5260   -7.4910   23.5100 C   0  0  0  0  0  3  0  0  0  0  0  0
  -21.4150   -6.6080   24.6000 C   0  0  0  0  0  3  0  0  0  0  0  0
  -21.5520   -5.2220   24.4010 C   0  0  0  0  0  0  0  0  0  0  0  0
  -21.8080   -4.7160   23.1130 C   0  0  0  0  0  3  0  0  0  0  0  0
  -21.9190   -5.5960   22.0230 C   0  0  0  0  0  0  0  0  0  0  0  0
  -22.1440   -5.1050   20.7810 F   0  0  0  0  0  0  0  0  0  0  0  0
  -21.4350   -4.3710   25.4460 F   0  0  0  0  0  0  0  0  0  0  0  0
  -23.2990  -14.3720   20.7810 C   0  0  0  0  0  0  0  0  0  0  0  0
  -22.4700  -13.7490   21.6110 N   0  0  0  0  0  0  0  0  0  0  0  0
  -22.9510  -15.3930   20.1900 O   0  0  0  0  0  0  0  0  0  0  0  0
  -22.7420  -12.9070   22.0940 H   0  0  0  0  0  0  0  0  0  0  0  0
  -21.5290  -14.0980   21.7240 H   0  0  0  0  0  0  0  0  0  0  0  0
  -26.0760  -15.8800   20.1730 N   0  0  0  0  0  0  0  0  0  0  0  0
  -25.3560  -16.5850   20.2820 H   0  0  0  0  0  0  0  0  0  0  0  0
  -26.9610  -16.2590   19.8660 H   0  0  0  0  0  0  0  0  0  0  0  0
  -27.9010  -23.9840   19.6660 O   0  0  0  0  0  0  0  0  0  0  0  0
  -28.9720  -24.5190   20.4480 C   0  0  0  0  0  2  0  0  0  0  0  0
  -28.5400  -25.8530   21.0810 C   0  0  0  0  0  2  0  0  0  0  0  0
  -28.4890  -26.9250   20.1370 O   0  0  0  0  0  0  0  0  0  0  0  0
  -24.6600  -31.9600   23.3940 C   0  0  0  0  0  0  0  0  0  0  0  0
  -27.3210  -27.6430   20.1760 C   0  0  0  0  0  0  0  0  0  0  0  0
  -23.4520  -30.5930   21.7160 C   0  0  0  0  0  3  0  0  0  0  0  0
  -24.9110  -29.1020   20.2440 C   0  0  0  0  0  0  0  0  0  0  0  0
  -25.9670  -30.9910   21.5000 C   0  0  0  0  0  2  0  0  0  0  0  0
  -26.0670  -29.6320   20.8320 C   0  0  0  0  0  0  0  0  0  0  0  0
  -27.2790  -28.9090   20.7990 C   0  0  0  0  0  3  0  0  0  0  0  0
  -26.1560  -27.1170   19.5880 C   0  0  0  0  0  3  0  0  0  0  0  0
  -24.9490  -27.8430   19.6170 C   0  0  0  0  0  3  0  0  0  0  0  0
  -23.6610  -29.9500   20.3160 C   0  0  0  0  0  2  0  0  0  0  0  0
  -24.7140  -31.1930   22.2660 N   0  0  0  0  0  0  0  0  0  0  0  0
  -23.5810  -32.2090   23.9500 O   0  0  0  0  0  0  0  0  0  0  0  0
  -22.8130  -29.5440   22.6540 C   0  0  0  0  0  0  0  0  0  0  0  0
  -21.5070  -29.2890   22.4670 N   0  0  0  0  0  0  0  0  0  0  0  0
  -23.4930  -28.9530   23.4980 O   0  0  0  0  0  0  0  0  0  0  0  0
  -21.0220  -29.8250   21.7600 H   0  0  0  0  0  0  0  0  0  0  0  0
  -18.2060  -27.8490   22.7470 C   0  0  0  0  0  0  0  0  0  0  0  0
  -20.7100  -28.3070   23.1980 C   0  0  0  0  0  3  0  0  0  0  0  0
  -20.9590  -26.8760   22.6670 C   0  0  0  0  0  2  0  0  0  0  0  0
  -19.9640  -26.4470   21.5840 C   0  0  0  0  0  2  0  0  0  0  0  0
  -18.5320  -26.5020   22.1230 C   0  0  0  0  0  2  0  0  0  0  0  0
  -19.2300  -28.7030   23.2380 C   0  0  0  0  0  0  0  0  0  0  0  0
  -18.8770  -29.9580   23.7790 C   0  0  0  0  0  3  0  0  0  0  0  0
  -17.5310  -30.3640   23.8340 C   0  0  0  0  0  3  0  0  0  0  0  0
  -16.5190  -29.5120   23.3570 C   0  0  0  0  0  3  0  0  0  0  0  0
  -16.8570  -28.2550   22.8210 C   0  0  0  0  0  3  0  0  0  0  0  0
  -25.9460  -32.5790   24.0230 C   0  0  0  0  0  3  0  0  0  0  0  0
  -25.6530  -33.9850   24.3280 N   0  0  0  0  0  0  0  0  0  0  0  0
  -26.0300  -35.0190   23.5640 C   0  0  0  0  0  0  0  0  0  0  0  0
  -26.7310  -34.8920   22.5570 O   0  0  0  0  0  0  0  0  0  0  0  0
  -25.0440  -34.1570   25.1130 H   0  0  0  0  0  0  0  0  0  0  0  0
  -24.3510  -36.8390   23.1250 C   0  0  0  0  0  1  0  0  0  0  0  0
  -25.5540  -36.4230   23.9870 C   0  0  0  0  0  3  0  0  0  0  0  0
  -27.6790  -37.2770   24.8720 C   0  0  0  0  0  1  0  0  0  0  0  0
  -26.6100  -37.4520   23.8930 N   0  0  0  0  0  0  0  0  0  0  0  0
  -26.2200  -38.3820   24.0210 H   0  0  0  0  0  0  0  0  0  0  0  0
  -26.4340  -31.8170   25.3160 C   0  0  1  0  0  0  0  0  0  0  0  0
  -25.3150  -31.5880   26.3610 C   0  0  0  0  0  1  0  0  0  0  0  0
  -27.0230  -30.4360   24.9390 C   0  0  0  0  0  1  0  0  0  0  0  0
  -27.5650  -32.6180   26.0020 C   0  0  0  0  0  1  0  0  0  0  0  0
  1  5  1  0
  2  6  2  0
  4  2  1  0
  4  1  2  0
  5  3  2  0
  5 10  1  0
  6 55  1  0
  6  3  1  0
  7  9  1  0
  8  7  1  0
  8  9  1  0
  9  4  1  0
 10 15  1  0
 10 11  1  0
 11 14  1  0
 11 12  1  0
 13 11  1  0
 15 16  1  0
 16 25  1  0
 17 25  1  0
 18 23  1  0
 19 20  1  0
 19 18  1  0
 21 20  1  0
 21 30  1  0
 21 22  1  0
 23 17  1  0
 23 22  1  0
 24 17  2  0
 25 26  1  0
 27 28  2  0
 28 29  1  0
 28 47  1  0
 29 32  1  0
 30 27  1  0
 30 31  1  0
 31 29  2  0
 32 33  1  0
 33 34  2  0
 35 38  1  0
 35 34  1  0
 36 35  2  0
 37 36  1  0
 37 32  2  0
 38 39  1  0
 39 40  1  0
 40 41  2  0
 42 41  1  0
 42 46  1  0
 43 42  2  0
 44 39  2  0
 44 43  1  0
 45 44  1  0
 47 48  1  0
 48 51  1  0
 48 50  1  0
 49 47  2  0
 52 53  1  0
 52 27  1  0
 54 52  1  0
 55 56  1  0
 56 57  1  0
 58 60  1  0
 58 57  1  0
 59 70  2  0
 60 65  1  0
 61 69  1  0
 61 71  1  0
 62 68  1  0
 62 64  1  0
 63 69  1  0
 64 63  1  0
 65 64  2  0
 66 67  1  0
 66 60  2  0
 67 62  2  0
 68 61  1  0
 69 59  1  0
 71 73  2  0
 72 71  1  0
 74 72  1  0
 75 84  2  0
 75 80  1  0
 76 72  1  0
 76 80  1  0
 77 76  1  0
 78 79  1  0
 78 77  1  0
 79 75  1  0
 80 81  2  0
 81 82  1  0
 83 82  2  0
 84 83  1  0
 85 59  1  0
 85 86  1  0
 85 95  1  0
 86 89  1  0
 87 91  1  0
 87 86  1  0
 88 87  2  0
 91 90  1  0
 93 91  1  0
 93 94  1  0
 93 92  1  0
 95 98  1  1
 95 96  1  0
 97 95  1  0
M  ISO  4  17 100  25 100  57 101  58 101
M  END
>  <TORSDO>  (70) 
F 24

>  <SCORE>  (70) 
-10.466

>  <name>  (70) 
70

>  <ligand_id>  (70) 
70

>  <original_smiles>  (70) 
[H]c1c([H])c([H])c2c(c1[H])C([H])([H])C([H])([H])C([H])([H])C2([H])N([H])C(=O)C1([H])N(C(=O)C([H])(N([H])C(=O)C([H])(N([H])C([H])([H])[H])C([H])([H])[H])C(C([H])([H])[H])(C([H])([H])[H])C([H])([H])[H])C([H])([H])c2c([H])c(OC([H])([H])C([H])([H])Oc3c([H])c(C4([H])C([H])([H])C4([H])[H])c([H])c(C([H])(C([H])([H])C([H])([H])N([H])C(=O)N4C([H])([H])C([H])([H])C([H])([H])C([H])(n5nc(-c6c([H])c([H])c(Oc7c([H])c([H])c(F)c([H])c7F)c([H])c6[H])c(C(=O)N([H])[H])c5N([H])[H])C4([H])[H])[N+]([H])([H])[H])c3[H])c([H])c([H])c2C1([H])[H]

>  <smiles>  (70) 
[H]c1c([H])c([H])c2c(c1[H])C([H])([H])C([H])([H])C([H])([H])C2([H])N([H])C(=O)C1([H])N(C(=O)C([H])(N([H])C(=O)C([H])(N([H])C([H])([H])[H])C([H])([H])[H])C(C([H])([H])[H])(C([H])([H])[H])C([H])([H])[H])C([H])([H])c2c([H])c(OC([H])([H])C([H])([H])Oc3c([H])c(C4([H])C([H])([H])C4([H])[H])c([H])c(C([H])(C([H])([H])C([H])([H])N([H])C(=O)N4C([H])([H])C([H])([H])C([H])([H])C([H])(n5nc(-c6c([H])c([H])c(Oc7c([H])c([H])c(F)c([H])c7F)c([H])c6[H])c(C(=O)N([H])[H])c5N([H])[H])C4([H])[H])[N+]([H])([H])[H])c3[H])c([H])c([H])c2C1([H])[H]

$$$$
71:0:0
     RDKit          3D

 98107  0  0  1  0  0  0  0  0999 V2000
  -30.1570  -24.0210   19.8760 C   0  0  0  0  0  3  0  0  0  0  0  0
  -28.1190  -23.2590   18.8140 C   0  0  0  0  0  3  0  0  0  0  0  0
  -28.9400  -24.3140   19.2410 C   0  0  0  0  0  0  0  0  0  0  0  0
  -30.6030  -22.6890   20.0220 C   0  0  0  0  0  0  0  0  0  0  0  0
  -28.5260  -21.9190   18.9730 C   0  0  0  0  0  0  0  0  0  0  0  0
  -29.7860  -21.6050   19.5740 C   0  0  0  0  0  0  0  0  0  0  0  0
  -32.0000  -22.5080   20.5960 C   0  0  0  0  0  1  0  0  0  0  0  0
  -27.5990  -20.8530   18.4030 C   0  0  0  0  0  1  0  0  0  0  0  0
  -30.7900  -19.8810   18.1150 C   0  0  0  0  0  1  0  0  0  0  0  0
  -30.2700  -20.1340   19.5390 C   0  0  0  0  0  3  0  0  0  0  0  0
  -30.3100  -19.0940   22.8500 C   0  0  0  0  0  2  0  0  0  0  0  0
  -30.9850  -20.2050   22.0530 C   0  0  0  0  0  2  0  0  0  0  0  0
  -30.9190  -17.8270   22.2540 C   0  0  0  0  0  2  0  0  0  0  0  0
  -31.2400  -19.6040   20.6520 C   0  0  0  0  0  3  0  0  0  0  0  0
  -31.1110  -18.1190   20.8150 N   0  0  1  0  0  4  0  0  0  0  0  0
  -30.2340  -17.8910   20.3700 H   0  0  0  0  0  0  0  0  0  0  0  0
  -32.1270  -17.2610   20.1230 C   0  0  0  0  0  2  0  0  0  0  0  0
  -30.0660  -16.2560   18.9600 C   0  0  0  0  0  1  0  0  0  0  0  0
  -32.2830  -15.8920   17.9880 C   0  0  0  0  0  1  0  0  0  0  0  0
  -31.5350  -16.0170   19.3550 C   0  0  1  0  0  0  0  0  0  0  0  0
  -31.8610  -14.6590   20.0940 C   0  0  0  0  0  0  0  0  0  0  0  0
  -31.3600  -12.3750   19.3990 C   0  0  0  0  0  2  0  0  0  0  0  0
  -30.4610  -12.3840   18.1500 C   0  0  0  0  0  2  0  0  0  0  0  0
  -28.9850  -12.3220   18.5820 C   0  0  0  0  0  2  0  0  0  0  0  0
  -28.6230  -13.3950   19.6350 C   0  0  0  0  0  3  0  0  0  0  0  0
  -29.6820  -13.5010   20.7630 C   0  0  0  0  0  2  0  0  0  0  0  0
  -31.0240  -13.5830   20.1670 N   0  0  0  0  0  0  0  0  0  0  0  0
  -33.0690  -14.4980   20.2210 O   0  0  0  0  0  0  0  0  0  0  0  0
  -26.3230  -14.2410   20.3790 C   0  0  0  0  0  0  0  0  0  0  0  0
  -25.1840  -13.5740   20.7280 C   0  0  0  0  0  0  0  0  0  0  0  0
  -25.5150  -12.1850   20.6920 C   0  0  0  0  0  0  0  0  0  0  0  0
  -27.2740  -13.2580   20.1440 N   0  0  0  0  0  0  0  0  0  0  0  0
  -26.7970  -12.0190   20.4050 N   0  0  0  0  0  0  0  0  0  0  0  0
  -24.6760  -10.9960   20.8490 C   0  0  0  0  0  0  0  0  0  0  0  0
  -24.9870   -9.9990   21.8000 C   0  0  0  0  0  3  0  0  0  0  0  0
  -24.1540   -8.8700   21.9460 C   0  0  0  0  0  3  0  0  0  0  0  0
  -22.9980   -8.7330   21.1420 C   0  0  0  0  0  0  0  0  0  0  0  0
  -22.7080   -9.7180   20.1810 C   0  0  0  0  0  3  0  0  0  0  0  0
  -23.5410  -10.8370   20.0310 C   0  0  0  0  0  3  0  0  0  0  0  0
  -22.1440   -7.6600   21.2010 O   0  0  0  0  0  0  0  0  0  0  0  0
  -21.9420   -6.9670   22.3680 C   0  0  0  0  0  0  0  0  0  0  0  0
  -21.4880   -7.6050   23.5430 C   0  0  0  0  0  3  0  0  0  0  0  0
  -21.2220   -6.8440   24.7000 C   0  0  0  0  0  3  0  0  0  0  0  0
  -21.4020   -5.4470   24.6800 C   0  0  0  0  0  0  0  0  0  0  0  0
  -21.8500   -4.8100   23.5100 C   0  0  0  0  0  3  0  0  0  0  0  0
  -22.1150   -5.5680   22.3550 C   0  0  0  0  0  0  0  0  0  0  0  0
  -22.5240   -4.9470   21.2230 F   0  0  0  0  0  0  0  0  0  0  0  0
  -21.1390   -4.7140   25.7870 F   0  0  0  0  0  0  0  0  0  0  0  0
  -23.8320  -14.1770   20.9770 C   0  0  0  0  0  0  0  0  0  0  0  0
  -23.0380  -13.5560   21.8410 N   0  0  0  0  0  0  0  0  0  0  0  0
  -23.4940  -15.2300   20.4390 O   0  0  0  0  0  0  0  0  0  0  0  0
  -23.3280  -12.7000   22.2910 H   0  0  0  0  0  0  0  0  0  0  0  0
  -22.1270  -13.9380   22.0530 H   0  0  0  0  0  0  0  0  0  0  0  0
  -26.6160  -15.5930   20.2080 N   0  0  0  0  0  0  0  0  0  0  0  0
  -25.9010  -16.3050   20.3140 H   0  0  0  0  0  0  0  0  0  0  0  0
  -27.4690  -15.9510   19.8060 H   0  0  0  0  0  0  0  0  0  0  0  0
  -28.5640  -25.7550   18.9440 C   0  0  0  0  0  2  0  0  0  0  0  0
  -28.2450  -26.4940   20.1200 O   0  0  0  0  0  0  0  0  0  0  0  0
  -24.6130  -31.7090   23.2680 C   0  0  0  0  0  0  0  0  0  0  0  0
  -27.0640  -27.2020   20.1420 C   0  0  0  0  0  0  0  0  0  0  0  0
  -23.3350  -30.3560   21.6360 C   0  0  0  0  0  3  0  0  0  0  0  0
  -24.7130  -28.7670   20.1960 C   0  0  0  0  0  0  0  0  0  0  0  0
  -25.8680  -30.6230   21.4120 C   0  0  0  0  0  2  0  0  0  0  0  0
  -25.8920  -29.2530   20.7750 C   0  0  0  0  0  0  0  0  0  0  0  0
  -27.0650  -28.4700   20.7570 C   0  0  0  0  0  3  0  0  0  0  0  0
  -25.8600  -26.7120   19.5830 C   0  0  0  0  0  3  0  0  0  0  0  0
  -24.6890  -27.4930   19.6040 C   0  0  0  0  0  3  0  0  0  0  0  0
  -23.5020  -29.6700   20.2540 C   0  0  0  0  0  2  0  0  0  0  0  0
  -24.6240  -30.9100   22.1640 N   0  0  0  0  0  0  0  0  0  0  0  0
  -23.5490  -32.0220   23.8210 O   0  0  0  0  0  0  0  0  0  0  0  0
  -22.6600  -29.3560   22.6020 C   0  0  0  0  0  0  0  0  0  0  0  0
  -21.3300  -29.2160   22.4790 N   0  0  0  0  0  0  0  0  0  0  0  0
  -23.3270  -28.7110   23.4140 O   0  0  0  0  0  0  0  0  0  0  0  0
  -20.8560  -29.7850   21.7930 H   0  0  0  0  0  0  0  0  0  0  0  0
  -17.9260  -28.1130   22.9650 C   0  0  0  0  0  0  0  0  0  0  0  0
  -20.4850  -28.3090   23.2560 C   0  0  0  0  0  3  0  0  0  0  0  0
  -20.5570  -26.8680   22.7010 C   0  0  0  0  0  2  0  0  0  0  0  0
  -19.4570  -26.5610   21.6800 C   0  0  0  0  0  2  0  0  0  0  0  0
  -18.0730  -26.7530   22.3050 C   0  0  0  0  0  2  0  0  0  0  0  0
  -19.0600  -28.8520   23.3950 C   0  0  0  0  0  0  0  0  0  0  0  0
  -18.8690  -30.1280   23.9670 C   0  0  0  0  0  3  0  0  0  0  0  0
  -17.5760  -30.6650   24.1160 C   0  0  0  0  0  3  0  0  0  0  0  0
  -16.4560  -29.9230   23.7020 C   0  0  0  0  0  3  0  0  0  0  0  0
  -16.6320  -28.6490   23.1330 C   0  0  0  0  0  3  0  0  0  0  0  0
  -25.9300  -32.2880   23.8720 C   0  0  0  0  0  3  0  0  0  0  0  0
  -25.6670  -33.6820   24.2500 N   0  0  0  0  0  0  0  0  0  0  0  0
  -26.0070  -34.7470   23.5120 C   0  0  0  0  0  0  0  0  0  0  0  0
  -26.6490  -34.6570   22.4610 O   0  0  0  0  0  0  0  0  0  0  0  0
  -25.0970  -33.8290   25.0700 H   0  0  0  0  0  0  0  0  0  0  0  0
  -24.3080  -36.5830   23.2570 C   0  0  0  0  0  1  0  0  0  0  0  0
  -25.5650  -36.1320   24.0190 C   0  0  0  0  0  3  0  0  0  0  0  0
  -27.7470  -36.9430   24.8010 C   0  0  0  0  0  1  0  0  0  0  0  0
  -26.6170  -37.1660   23.9020 N   0  0  0  0  0  0  0  0  0  0  0  0
  -26.2380  -38.0890   24.0950 H   0  0  0  0  0  0  0  0  0  0  0  0
  -26.4620  -31.4650   25.1090 C   0  0  1  0  0  0  0  0  0  0  0  0
  -25.3900  -31.2200   26.1960 C   0  0  0  0  0  1  0  0  0  0  0  0
  -27.0020  -30.0880   24.6590 C   0  0  0  0  0  1  0  0  0  0  0  0
  -27.6480  -32.2120   25.7630 C   0  0  0  0  0  1  0  0  0  0  0  0
  1  4  1  0
  2  5  2  0
  2  3  1  0
  3  1  2  0
  4  7  1  0
  5  6  1  0
  6  4  2  0
  8  5  1  0
 10  9  1  0
 10  6  1  0
 12 11  1  0
 13 11  1  0
 14 10  1  0
 14 15  1  0
 14 12  1  0
 15 13  1  0
 15 16  1  6
 17 15  1  0
 20 18  1  6
 19 20  1  0
 20 21  1  0
 20 17  1  0
 21 27  1  0
 21 28  2  0
 22 27  1  0
 23 24  1  0
 23 22  1  0
 25 24  1  0
 25 32  1  0
 25 26  1  0
 27 26  1  0
 29 30  2  0
 30 49  1  0
 31 30  1  0
 31 34  1  0
 32 29  1  0
 32 33  1  0
 33 31  2  0
 34 35  1  0
 35 36  2  0
 37 40  1  0
 37 36  1  0
 38 37  2  0
 39 38  1  0
 39 34  2  0
 40 41  1  0
 41 42  1  0
 42 43  2  0
 44 43  1  0
 44 48  1  0
 45 44  2  0
 46 41  2  0
 46 45  1  0
 47 46  1  0
 49 50  1  0
 50 53  1  0
 50 52  1  0
 51 49  2  0
 54 55  1  0
 54 29  1  0
 56 54  1  0
 57  3  1  0
 57 58  1  0
 58 60  1  0
 59 70  2  0
 60 65  1  0
 61 69  1  0
 61 71  1  0
 62 68  1  0
 62 64  1  0
 63 69  1  0
 64 63  1  0
 65 64  2  0
 66 67  1  0
 66 60  2  0
 67 62  2  0
 68 61  1  0
 69 59  1  0
 71 73  2  0
 72 71  1  0
 74 72  1  0
 75 84  2  0
 75 80  1  0
 76 72  1  0
 76 80  1  0
 77 76  1  0
 78 79  1  0
 78 77  1  0
 79 75  1  0
 80 81  2  0
 81 82  1  0
 83 82  2  0
 84 83  1  0
 85 59  1  0
 85 86  1  0
 85 95  1  0
 86 89  1  0
 87 91  1  0
 87 86  1  0
 88 87  2  0
 91 90  1  0
 93 91  1  0
 93 94  1  0
 93 92  1  0
 95 98  1  1
 95 96  1  0
 97 95  1  0
M  ISO  4  20 100  21 100  57 101  58 101
M  END
>  <TORSDO>  (71) 
F 21

>  <SCORE>  (71) 
-11.894

>  <name>  (71) 
71

>  <ligand_id>  (71) 
71

>  <original_smiles>  (71) 
[H]c1c([H])c([H])c2c(c1[H])C([H])([H])C([H])([H])C([H])([H])C2([H])N([H])C(=O)C1([H])N(C(=O)C([H])(N([H])C(=O)C([H])(N([H])C([H])([H])[H])C([H])([H])[H])C(C([H])([H])[H])(C([H])([H])[H])C([H])([H])[H])C([H])([H])c2c([H])c(OC([H])([H])c3c([H])c(C([H])([H])[H])c(C([H])(C([H])([H])[H])C4([H])C([H])([H])C([H])([H])C([H])([H])[N+]4([H])C([H])([H])C(C(=O)N4C([H])([H])C([H])([H])C([H])([H])C([H])(n5nc(-c6c([H])c([H])c(Oc7c([H])c([H])c(F)c([H])c7F)c([H])c6[H])c(C(=O)N([H])[H])c5N([H])[H])C4([H])[H])(C([H])([H])[H])C([H])([H])[H])c(C([H])([H])[H])c3[H])c([H])c([H])c2C1([H])[H]

>  <smiles>  (71) 
[H]c1c([H])c([H])c2c(c1[H])C([H])([H])C([H])([H])C([H])([H])C2([H])N([H])C(=O)C1([H])N(C(=O)C([H])(N([H])C(=O)C([H])(N([H])C([H])([H])[H])C([H])([H])[H])C(C([H])([H])[H])(C([H])([H])[H])C([H])([H])[H])C([H])([H])c2c([H])c(OC([H])([H])c3c([H])c(C([H])([H])[H])c(C([H])(C([H])([H])[H])C4([H])C([H])([H])C([H])([H])C([H])([H])[N+]4([H])C([H])([H])C(C(=O)N4C([H])([H])C([H])([H])C([H])([H])C([H])(n5nc(-c6c([H])c([H])c(Oc7c([H])c([H])c(F)c([H])c7F)c([H])c6[H])c(C(=O)N([H])[H])c5N([H])[H])C4([H])[H])(C([H])([H])[H])C([H])([H])[H])c(C([H])([H])[H])c3[H])c([H])c([H])c2C1([H])[H]

$$$$
72:0:0
     RDKit          3D

101110  0  0  1  0  0  0  0  0999 V2000
  -30.1520  -23.3180   19.8900 C   0  0  0  0  0  3  0  0  0  0  0  0
  -29.7130  -23.9200   17.4410 C   0  0  0  0  0  3  0  0  0  0  0  0
  -29.9410  -24.6900   16.2850 C   0  0  0  0  0  3  0  0  0  0  0  0
  -31.5700  -26.0200   17.4910 C   0  0  0  0  0  3  0  0  0  0  0  0
  -30.4230  -24.1750   18.6370 C   0  0  0  0  0  0  0  0  0  0  0  0
  -31.3420  -25.2610   18.6600 C   0  0  0  0  0  0  0  0  0  0  0  0
  -30.8800  -25.7380   16.2900 C   0  0  0  0  0  0  0  0  0  0  0  0
  -32.0850  -25.6620   19.9250 C   0  0  0  0  0  1  0  0  0  0  0  0
  -32.0610  -27.4330   15.0620 C   0  0  0  0  0  1  0  0  0  0  0  0
  -31.0530  -26.4300   15.1120 O   0  0  0  0  0  0  0  0  0  0  0  0
  -32.3010  -20.8820   19.6550 C   0  0  0  0  0  2  0  0  0  0  0  0
  -31.1450  -21.2050   18.7030 C   0  0  0  0  0  2  0  0  0  0  0  0
  -31.6410  -20.6420   21.0210 C   0  0  0  0  0  2  0  0  0  0  0  0
  -30.0220  -21.7350   19.6170 C   0  0  0  0  0  3  0  0  0  0  0  0
  -30.1870  -20.8510   20.8280 N   0  0  1  0  0  4  0  0  0  0  0  0
  -29.8620  -21.3920   21.6160 H   0  0  0  0  0  0  0  0  0  0  0  0
  -29.3700  -19.5750   20.9150 C   0  0  0  0  0  2  0  0  0  0  0  0
  -28.8150  -17.7540   19.1940 C   0  0  0  0  0  1  0  0  0  0  0  0
  -29.8670  -18.2230   20.2190 C   0  0  0  0  0  3  0  0  0  0  0  0
  -30.2690  -17.0490   21.2170 C   0  0  0  0  0  2  0  0  0  0  0  0
  -30.6360  -14.5910   20.4640 C   0  0  0  0  0  0  0  0  0  0  0  0
  -30.3870  -12.3850   19.3530 C   0  0  0  0  0  2  0  0  0  0  0  0
  -29.4570  -12.5380   18.1320 C   0  0  0  0  0  2  0  0  0  0  0  0
  -27.9800  -12.3920   18.5460 C   0  0  0  0  0  2  0  0  0  0  0  0
  -27.6170  -13.2560   19.7840 C   0  0  0  0  0  3  0  0  0  0  0  0
  -28.6610  -13.0750   20.9090 C   0  0  0  0  0  2  0  0  0  0  0  0
  -29.9820  -13.3970   20.3450 N   0  0  0  0  0  0  0  0  0  0  0  0
  -31.7970  -14.7480   20.0800 O   0  0  0  0  0  0  0  0  0  0  0  0
  -29.8800  -15.6390   20.8880 N   0  0  0  0  0  0  0  0  0  0  0  0
  -28.9320  -15.3880   21.1230 H   0  0  0  0  0  0  0  0  0  0  0  0
  -25.2130  -13.8740   20.4490 C   0  0  0  0  0  0  0  0  0  0  0  0
  -24.1390  -13.1090   20.8110 C   0  0  0  0  0  0  0  0  0  0  0  0
  -24.5960  -11.7560   20.8070 C   0  0  0  0  0  0  0  0  0  0  0  0
  -26.2580  -12.9870   20.2480 N   0  0  0  0  0  0  0  0  0  0  0  0
  -25.8910  -11.7080   20.5210 N   0  0  0  0  0  0  0  0  0  0  0  0
  -23.8620  -10.4990   21.0000 C   0  0  0  0  0  0  0  0  0  0  0  0
  -24.2780   -9.5400   21.9490 C   0  0  0  0  0  3  0  0  0  0  0  0
  -23.5460   -8.3470   22.1290 C   0  0  0  0  0  3  0  0  0  0  0  0
  -22.3820   -8.1060   21.3590 C   0  0  0  0  0  0  0  0  0  0  0  0
  -21.9860   -9.0530   20.4000 C   0  0  0  0  0  3  0  0  0  0  0  0
  -22.7180  -10.2380   20.2190 C   0  0  0  0  0  3  0  0  0  0  0  0
  -21.6230   -6.9650   21.4500 O   0  0  0  0  0  0  0  0  0  0  0  0
  -21.5610   -6.2300   22.6070 C   0  0  0  0  0  0  0  0  0  0  0  0
  -21.1270   -6.7930   23.8260 C   0  0  0  0  0  3  0  0  0  0  0  0
  -21.0130   -5.9840   24.9740 C   0  0  0  0  0  3  0  0  0  0  0  0
  -21.3230   -4.6130   24.9040 C   0  0  0  0  0  0  0  0  0  0  0  0
  -21.7480   -4.0480   23.6890 C   0  0  0  0  0  3  0  0  0  0  0  0
  -21.8640   -4.8540   22.5430 C   0  0  0  0  0  0  0  0  0  0  0  0
  -22.2550   -4.3010   21.3690 F   0  0  0  0  0  0  0  0  0  0  0  0
  -21.2050   -3.8340   26.0050 F   0  0  0  0  0  0  0  0  0  0  0  0
  -22.7370  -13.5940   21.0530 C   0  0  0  0  0  0  0  0  0  0  0  0
  -21.9930  -12.9100   21.9150 N   0  0  0  0  0  0  0  0  0  0  0  0
  -22.3120  -14.6150   20.5160 O   0  0  0  0  0  0  0  0  0  0  0  0
  -22.3490  -12.0810   22.3700 H   0  0  0  0  0  0  0  0  0  0  0  0
  -21.0540  -13.2170   22.1220 H   0  0  0  0  0  0  0  0  0  0  0  0
  -25.3830  -15.2410   20.2510 N   0  0  0  0  0  0  0  0  0  0  0  0
  -24.6130  -15.8950   20.3320 H   0  0  0  0  0  0  0  0  0  0  0  0
  -26.2280  -15.6650   19.8910 H   0  0  0  0  0  0  0  0  0  0  0  0
  -29.0340  -24.0100   20.7600 C   0  0  0  0  0  2  0  0  0  0  0  0
  -28.0480  -25.0750   20.1350 C   0  0  0  0  0  2  0  0  0  0  0  0
  -28.3170  -26.5170   20.2250 O   0  0  0  0  0  0  0  0  0  0  0  0
  -24.5730  -31.8640   23.2180 C   0  0  0  0  0  0  0  0  0  0  0  0
  -27.1950  -27.3520   20.1490 C   0  0  0  0  0  0  0  0  0  0  0  0
  -23.3700  -30.4690   21.5760 C   0  0  0  0  0  3  0  0  0  0  0  0
  -24.8200  -28.9320   20.1460 C   0  0  0  0  0  0  0  0  0  0  0  0
  -25.9060  -30.8000   21.3900 C   0  0  0  0  0  2  0  0  0  0  0  0
  -25.9870  -29.4290   20.7400 C   0  0  0  0  0  0  0  0  0  0  0  0
  -27.1790  -28.6510   20.7340 C   0  0  0  0  0  3  0  0  0  0  0  0
  -26.0050  -26.9080   19.5210 C   0  0  0  0  0  3  0  0  0  0  0  0
  -24.8300  -27.6740   19.5280 C   0  0  0  0  0  3  0  0  0  0  0  0
  -23.5810  -29.7970   20.1950 C   0  0  0  0  0  2  0  0  0  0  0  0
  -24.6360  -31.0590   22.1190 N   0  0  0  0  0  0  0  0  0  0  0  0
  -23.4910  -32.1380   23.7550 O   0  0  0  0  0  0  0  0  0  0  0  0
  -22.7100  -29.4470   22.5330 C   0  0  0  0  0  0  0  0  0  0  0  0
  -21.3840  -29.2700   22.4040 N   0  0  0  0  0  0  0  0  0  0  0  0
  -23.3890  -28.8180   23.3490 O   0  0  0  0  0  0  0  0  0  0  0  0
  -20.8970  -29.8290   21.7190 H   0  0  0  0  0  0  0  0  0  0  0  0
  -18.0050  -28.0850   22.9110 C   0  0  0  0  0  0  0  0  0  0  0  0
  -20.5650  -28.3330   23.1740 C   0  0  0  0  0  3  0  0  0  0  0  0
  -20.6590  -26.9020   22.5960 C   0  0  0  0  0  2  0  0  0  0  0  0
  -19.5530  -26.5860   21.5830 C   0  0  0  0  0  2  0  0  0  0  0  0
  -18.1740  -26.7360   22.2310 C   0  0  0  0  0  2  0  0  0  0  0  0
  -19.1280  -28.8410   23.3400 C   0  0  0  0  0  0  0  0  0  0  0  0
  -18.9160  -30.1020   23.9380 C   0  0  0  0  0  3  0  0  0  0  0  0
  -17.6140  -30.6090   24.1080 C   0  0  0  0  0  3  0  0  0  0  0  0
  -16.5050  -29.8500   23.6970 C   0  0  0  0  0  3  0  0  0  0  0  0
  -16.7020  -28.5890   23.1050 C   0  0  0  0  0  3  0  0  0  0  0  0
  -25.8580  -32.4960   23.8410 C   0  0  0  0  0  3  0  0  0  0  0  0
  -25.5470  -33.8940   24.1680 N   0  0  0  0  0  0  0  0  0  0  0  0
  -25.8790  -34.9470   23.4090 C   0  0  0  0  0  0  0  0  0  0  0  0
  -26.5480  -34.8430   22.3780 O   0  0  0  0  0  0  0  0  0  0  0  0
  -24.9560  -34.0490   24.9710 H   0  0  0  0  0  0  0  0  0  0  0  0
  -24.1530  -36.7440   23.0490 C   0  0  0  0  0  1  0  0  0  0  0  0
  -25.3890  -36.3360   23.8660 C   0  0  0  0  0  3  0  0  0  0  0  0
  -27.5220  -37.2170   24.7070 C   0  0  0  0  0  1  0  0  0  0  0  0
  -26.4240  -37.3880   23.7590 N   0  0  0  0  0  0  0  0  0  0  0  0
  -26.0190  -38.3070   23.9070 H   0  0  0  0  0  0  0  0  0  0  0  0
  -26.3740  -31.7250   25.1180 C   0  0  1  0  0  0  0  0  0  0  0  0
  -25.2820  -31.4900   26.1860 C   0  0  0  0  0  1  0  0  0  0  0  0
  -26.9580  -30.3460   24.7290 C   0  0  0  0  0  1  0  0  0  0  0  0
  -27.5260  -32.5200   25.7800 C   0  0  0  0  0  1  0  0  0  0  0  0
  1 59  1  0
  2  5  1  0
  3  7  1  0
  3  2  2  0
  4  6  1  0
  5  6  2  0
  5  1  1  0
  6  8  1  0
  7  4  2  0
  9 10  1  0
 10  7  1  0
 11 13  1  0
 12 14  1  0
 12 11  1  0
 14  1  1  0
 14 15  1  0
 15 17  1  0
 15 13  1  0
 15 16  1  1
 19 18  1  0
 19 17  1  0
 19 20  1  0
 21 29  1  0
 22 27  1  0
 23 24  1  0
 23 22  1  0
 25 24  1  0
 25 34  1  0
 25 26  1  0
 27 21  1  0
 27 26  1  0
 28 21  2  0
 29 30  1  0
 29 20  1  0
 31 32  2  0
 32 51  1  0
 33 32  1  0
 33 36  1  0
 34 31  1  0
 34 35  1  0
 35 33  2  0
 36 37  1  0
 37 38  2  0
 39 42  1  0
 39 38  1  0
 40 39  2  0
 41 40  1  0
 41 36  2  0
 42 43  1  0
 43 44  1  0
 44 45  2  0
 46 45  1  0
 46 50  1  0
 47 46  2  0
 48 43  2  0
 48 47  1  0
 49 48  1  0
 51 52  1  0
 52 55  1  0
 52 54  1  0
 53 51  2  0
 56 57  1  0
 56 31  1  0
 58 56  1  0
 60 61  1  0
 60 59  1  0
 62 73  2  0
 63 61  1  0
 63 68  1  0
 64 72  1  0
 64 74  1  0
 65 71  1  0
 65 67  1  0
 66 72  1  0
 67 66  1  0
 68 67  2  0
 69 70  1  0
 69 63  2  0
 70 65  2  0
 71 64  1  0
 72 62  1  0
 74 76  2  0
 75 74  1  0
 77 75  1  0
 78 87  2  0
 78 83  1  0
 79 75  1  0
 79 83  1  0
 80 79  1  0
 81 82  1  0
 81 80  1  0
 82 78  1  0
 83 84  2  0
 84 85  1  0
 86 85  2  0
 87 86  1  0
 88 62  1  0
 88 89  1  0
 88 98  1  0
 89 92  1  0
 90 94  1  0
 90 89  1  0
 91 90  2  0
 94 93  1  0
 96 94  1  0
 96 97  1  0
 96 95  1  0
 98101  1  1
 98 99  1  0
100 98  1  0
M  ISO  4  21 100  29 100  60 101  61 101
M  END
>  <TORSDO>  (72) 
F 24

>  <SCORE>  (72) 
-12.650

>  <name>  (72) 
72

>  <ligand_id>  (72) 
72

>  <original_smiles>  (72) 
[H]c1c([H])c([H])c2c(c1[H])C([H])([H])C([H])([H])C([H])([H])C2([H])N([H])C(=O)C1([H])N(C(=O)C([H])(N([H])C(=O)C([H])(N([H])C([H])([H])[H])C([H])([H])[H])C(C([H])([H])[H])(C([H])([H])[H])C([H])([H])[H])C([H])([H])c2c([H])c(OC([H])([H])C([H])([H])C([H])(c3c([H])c([H])c(OC([H])([H])[H])c([H])c3C([H])([H])[H])C3([H])C([H])([H])C([H])([H])C([H])([H])[N+]3([H])C([H])([H])C([H])(C([H])([H])[H])C([H])([H])N([H])C(=O)N3C([H])([H])C([H])([H])C([H])([H])C([H])(n4nc(-c5c([H])c([H])c(Oc6c([H])c([H])c(F)c([H])c6F)c([H])c5[H])c(C(=O)N([H])[H])c4N([H])[H])C3([H])[H])c([H])c([H])c2C1([H])[H]

>  <smiles>  (72) 
[H]c1c([H])c([H])c2c(c1[H])C([H])([H])C([H])([H])C([H])([H])C2([H])N([H])C(=O)C1([H])N(C(=O)C([H])(N([H])C(=O)C([H])(N([H])C([H])([H])[H])C([H])([H])[H])C(C([H])([H])[H])(C([H])([H])[H])C([H])([H])[H])C([H])([H])c2c([H])c(OC([H])([H])C([H])([H])C([H])(c3c([H])c([H])c(OC([H])([H])[H])c([H])c3C([H])([H])[H])C3([H])C([H])([H])C([H])([H])C([H])([H])[N+]3([H])C([H])([H])C([H])(C([H])([H])[H])C([H])([H])N([H])C(=O)N3C([H])([H])C([H])([H])C([H])([H])C([H])(n4nc(-c5c([H])c([H])c(Oc6c([H])c([H])c(F)c([H])c6F)c([H])c5[H])c(C(=O)N([H])[H])c4N([H])[H])C3([H])[H])c([H])c([H])c2C1([H])[H]

$$$$
73:0:0
     RDKit          3D

 95105  0  0  1  0  0  0  0  0999 V2000
  -29.3680  -21.3240   19.0630 C   0  0  0  0  0  3  0  0  0  0  0  0
  -29.0490  -22.7030   18.8630 C   0  0  0  0  0  3  0  0  0  0  0  0
  -29.2530  -23.0950   21.2120 C   0  0  0  0  0  3  0  0  0  0  0  0
  -29.6290  -20.7620   20.3450 C   0  0  0  0  0  0  0  0  0  0  0  0
  -28.9560  -23.6370   19.9310 C   0  0  0  0  0  0  0  0  0  0  0  0
  -29.5910  -21.7080   21.4240 C   0  0  0  0  0  0  0  0  0  0  0  0
  -30.9540  -14.7760   20.3590 C   0  0  0  0  0  0  0  0  0  0  0  0
  -30.6230  -12.5150   19.3620 C   0  0  0  0  0  2  0  0  0  0  0  0
  -29.7040  -12.5690   18.1280 C   0  0  0  0  0  2  0  0  0  0  0  0
  -28.2310  -12.4300   18.5550 C   0  0  0  0  0  2  0  0  0  0  0  0
  -27.8610  -13.3490   19.7510 C   0  0  0  0  0  3  0  0  0  0  0  0
  -28.9170  -13.2890   20.8760 C   0  0  0  0  0  2  0  0  0  0  0  0
  -30.2050  -13.6220   20.2580 N   0  0  0  0  0  0  0  0  0  0  0  0
  -32.1620  -14.6850   20.1210 O   0  0  0  0  0  0  0  0  0  0  0  0
  -28.9390  -18.1840   20.9530 C   0  0  0  0  0  2  0  0  0  0  0  0
  -30.6590  -18.5190   19.3080 C   0  0  0  0  0  2  0  0  0  0  0  0
  -29.4220  -16.6840   21.2150 C   0  0  0  0  0  2  0  0  0  0  0  0
  -31.2460  -17.1010   19.6100 C   0  0  0  0  0  2  0  0  0  0  0  0
  -30.0320  -19.2200   20.5320 C   0  0  0  0  0  3  0  0  0  0  0  0
  -30.3820  -16.0570   20.2550 N   0  0  0  0  0  0  0  0  0  0  0  0
  -25.4820  -13.9700   20.4730 C   0  0  0  0  0  0  0  0  0  0  0  0
  -24.4020  -13.2100   20.8280 C   0  0  0  0  0  0  0  0  0  0  0  0
  -24.8440  -11.8510   20.7920 C   0  0  0  0  0  0  0  0  0  0  0  0
  -26.5140  -13.0770   20.2390 N   0  0  0  0  0  0  0  0  0  0  0  0
  -26.1370  -11.7970   20.4950 N   0  0  0  0  0  0  0  0  0  0  0  0
  -24.0950  -10.6000   20.9670 C   0  0  0  0  0  0  0  0  0  0  0  0
  -24.4720   -9.6420   21.9350 C   0  0  0  0  0  3  0  0  0  0  0  0
  -23.7240   -8.4570   22.0980 C   0  0  0  0  0  3  0  0  0  0  0  0
  -22.5850   -8.2190   21.2930 C   0  0  0  0  0  0  0  0  0  0  0  0
  -22.2270   -9.1650   20.3150 C   0  0  0  0  0  3  0  0  0  0  0  0
  -22.9760  -10.3420   20.1500 C   0  0  0  0  0  3  0  0  0  0  0  0
  -21.8120   -7.0850   21.3640 O   0  0  0  0  0  0  0  0  0  0  0  0
  -21.6320   -6.4100   22.5440 C   0  0  0  0  0  0  0  0  0  0  0  0
  -21.0930   -7.0380   23.6870 C   0  0  0  0  0  3  0  0  0  0  0  0
  -20.8600   -6.2890   24.8590 C   0  0  0  0  0  3  0  0  0  0  0  0
  -21.1560   -4.9130   24.8850 C   0  0  0  0  0  0  0  0  0  0  0  0
  -21.6880   -4.2850   23.7470 C   0  0  0  0  0  3  0  0  0  0  0  0
  -21.9220   -5.0310   22.5780 C   0  0  0  0  0  0  0  0  0  0  0  0
  -22.4150   -4.4150   21.4760 F   0  0  0  0  0  0  0  0  0  0  0  0
  -20.9250   -4.1920   26.0080 F   0  0  0  0  0  0  0  0  0  0  0  0
  -23.0100  -13.7090   21.0900 C   0  0  0  0  0  0  0  0  0  0  0  0
  -22.2730  -13.0330   21.9640 N   0  0  0  0  0  0  0  0  0  0  0  0
  -22.5880  -14.7330   20.5570 O   0  0  0  0  0  0  0  0  0  0  0  0
  -22.6270  -12.2040   22.4180 H   0  0  0  0  0  0  0  0  0  0  0  0
  -21.3390  -13.3510   22.1830 H   0  0  0  0  0  0  0  0  0  0  0  0
  -25.6700  -15.3380   20.3050 N   0  0  0  0  0  0  0  0  0  0  0  0
  -24.9140  -16.0050   20.4170 H   0  0  0  0  0  0  0  0  0  0  0  0
  -26.5320  -15.7670   19.9950 H   0  0  0  0  0  0  0  0  0  0  0  0
  -29.8700  -21.2340   22.7140 N   0  0  0  0  0  0  0  0  0  0  0  0
  -29.9170  -20.2290   22.8530 H   0  0  0  0  0  0  0  0  0  0  0  0
  -29.6650  -22.8530   24.6890 C   0  0  0  0  0  2  0  0  0  0  0  0
  -30.4890  -21.6710   25.1490 C   0  0  0  0  0  2  0  0  0  0  0  0
  -30.5120  -22.0880   23.7000 C   0  0  0  0  0  3  0  0  0  0  0  0
  -28.1770  -25.0040   19.7210 C   0  0  0  0  0  2  0  0  0  0  0  0
  -28.6000  -26.3960   20.0940 O   0  0  0  0  0  0  0  0  0  0  0  0
  -24.9120  -31.6850   23.4670 C   0  0  0  0  0  0  0  0  0  0  0  0
  -27.5610  -27.3670   20.0590 C   0  0  0  0  0  0  0  0  0  0  0  0
  -23.7610  -30.4860   21.6470 C   0  0  0  0  0  3  0  0  0  0  0  0
  -25.2460  -29.0770   20.1240 C   0  0  0  0  0  0  0  0  0  0  0  0
  -26.3190  -30.7540   21.6110 C   0  0  0  0  0  2  0  0  0  0  0  0
  -26.4020  -29.4490   20.8230 C   0  0  0  0  0  0  0  0  0  0  0  0
  -27.5620  -28.6060   20.7890 C   0  0  0  0  0  3  0  0  0  0  0  0
  -26.3850  -27.1000   19.3090 C   0  0  0  0  0  3  0  0  0  0  0  0
  -25.2440  -27.9100   19.3580 C   0  0  0  0  0  3  0  0  0  0  0  0
  -24.0260  -29.9670   20.2140 C   0  0  0  0  0  2  0  0  0  0  0  0
  -25.0150  -30.9860   22.2990 N   0  0  0  0  0  0  0  0  0  0  0  0
  -23.8090  -31.9290   23.9780 O   0  0  0  0  0  0  0  0  0  0  0  0
  -23.0420  -29.3850   22.4630 C   0  0  0  0  0  0  0  0  0  0  0  0
  -21.7230  -29.2340   22.2520 N   0  0  0  0  0  0  0  0  0  0  0  0
  -23.6720  -28.6740   23.2510 O   0  0  0  0  0  0  0  0  0  0  0  0
  -21.2740  -29.8610   21.5990 H   0  0  0  0  0  0  0  0  0  0  0  0
  -18.3110  -28.0510   22.4860 C   0  0  0  0  0  0  0  0  0  0  0  0
  -20.8580  -28.2380   22.8890 C   0  0  0  0  0  3  0  0  0  0  0  0
  -20.9660  -26.8700   22.1760 C   0  0  0  0  0  2  0  0  0  0  0  0
  -19.9060  -26.6700   21.0890 C   0  0  0  0  0  2  0  0  0  0  0  0
  -18.4990  -26.7740   21.6840 C   0  0  0  0  0  2  0  0  0  0  0  0
  -19.4190  -28.7460   23.0380 C   0  0  0  0  0  0  0  0  0  0  0  0
  -19.1900  -29.9450   23.7470 C   0  0  0  0  0  3  0  0  0  0  0  0
  -17.8860  -30.4490   23.9080 C   0  0  0  0  0  3  0  0  0  0  0  0
  -16.7910  -29.7480   23.3730 C   0  0  0  0  0  3  0  0  0  0  0  0
  -17.0040  -28.5510   22.6670 C   0  0  0  0  0  3  0  0  0  0  0  0
  -26.1740  -32.2280   24.2020 C   0  0  0  0  0  3  0  0  0  0  0  0
  -26.5910  -31.3520   25.4460 C   0  0  1  0  0  0  0  0  0  0  0  0
  -25.4320  -31.0860   26.4360 C   0  0  0  0  0  1  0  0  0  0  0  0
  -27.1450  -29.9800   24.9940 C   0  0  0  0  0  1  0  0  0  0  0  0
  -27.7310  -32.0530   26.2210 C   0  0  0  0  0  1  0  0  0  0  0  0
  -25.8850  -33.6080   24.6150 N   0  0  0  0  0  0  0  0  0  0  0  0
  -26.2620  -34.7020   23.9390 C   0  0  0  0  0  0  0  0  0  0  0  0
  -26.9590  -34.6510   22.9210 O   0  0  0  0  0  0  0  0  0  0  0  0
  -25.2700  -33.7240   25.4070 H   0  0  0  0  0  0  0  0  0  0  0  0
  -24.5870  -36.5590   23.6590 C   0  0  0  0  0  1  0  0  0  0  0  0
  -25.7930  -36.0690   24.4750 C   0  0  0  0  0  3  0  0  0  0  0  0
  -27.9190  -36.8420   25.4300 C   0  0  0  0  0  1  0  0  0  0  0  0
  -26.8530  -37.1000   24.4660 N   0  0  0  0  0  0  0  0  0  0  0  0
  -26.4630  -38.0190   24.6620 H   0  0  0  0  0  0  0  0  0  0  0  0
  1  4  1  0
  2  1  2  0
  2  5  1  0
  3  6  1  0
  4  6  2  0
  5  3  2  0
  6 49  1  0
  8 13  1  0
  9 10  1  0
  9  8  1  0
 11 10  1  0
 11 24  1  0
 11 12  1  0
 13  7  1  0
 13 12  1  0
 14  7  2  0
 15 17  1  0
 16 18  1  0
 16 19  1  0
 18 20  1  0
 19  4  1  0
 19 15  1  0
 20  7  1  0
 20 17  1  0
 21 22  2  0
 22 41  1  0
 23 22  1  0
 23 26  1  0
 24 21  1  0
 24 25  1  0
 25 23  2  0
 26 27  1  0
 27 28  2  0
 29 32  1  0
 29 28  1  0
 30 29  2  0
 31 30  1  0
 31 26  2  0
 32 33  1  0
 33 38  2  0
 33 34  1  0
 34 35  2  0
 35 36  1  0
 36 40  1  0
 37 36  2  0
 38 37  1  0
 39 38  1  0
 41 42  1  0
 42 45  1  0
 42 44  1  0
 43 41  2  0
 46 47  1  0
 46 21  1  0
 48 46  1  0
 49 50  1  0
 49 53  1  0
 51 52  1  0
 53 51  1  0
 53 52  1  0
 54  5  1  0
 54 55  1  0
 56 67  2  0
 57 55  1  0
 57 62  1  0
 58 66  1  0
 58 68  1  0
 59 65  1  0
 59 61  1  0
 60 66  1  0
 61 60  1  0
 62 61  2  0
 63 64  1  0
 63 57  2  0
 64 59  2  0
 65 58  1  0
 66 56  1  0
 68 70  2  0
 69 68  1  0
 71 69  1  0
 72 81  2  0
 72 77  1  0
 73 69  1  0
 73 77  1  0
 74 73  1  0
 75 76  1  0
 75 74  1  0
 76 72  1  0
 77 78  2  0
 78 79  1  0
 80 79  2  0
 81 80  1  0
 82 56  1  0
 82 87  1  0
 82 83  1  0
 83 86  1  1
 83 84  1  0
 85 83  1  0
 87 90  1  0
 88 92  1  0
 88 87  1  0
 89 88  2  0
 92 91  1  0
 94 92  1  0
 94 95  1  0
 94 93  1  0
M  ISO  4   7 100  20 100  54 101  55 101
M  END
>  <TORSDO>  (73) 
F 19

>  <SCORE>  (73) 
-13.333

>  <name>  (73) 
73

>  <ligand_id>  (73) 
73

>  <original_smiles>  (73) 
[H]c1c([H])c([H])c2c(c1[H])C([H])([H])C([H])([H])C([H])([H])C2([H])N([H])C(=O)C1([H])N(C(=O)C([H])(N([H])C(=O)C([H])(N([H])C([H])([H])[H])C([H])([H])[H])C(C([H])([H])[H])(C([H])([H])[H])C([H])([H])[H])C([H])([H])c2c([H])c(OC([H])([H])c3c([H])c([H])c(C4([H])C([H])([H])C([H])([H])N(C(=O)N5C([H])([H])C([H])([H])C([H])([H])C([H])(n6nc(-c7c([H])c([H])c(Oc8c([H])c([H])c(F)c([H])c8F)c([H])c7[H])c(C(=O)N([H])[H])c6N([H])[H])C5([H])[H])C([H])([H])C4([H])[H])c(N([H])C4([H])C([H])([H])C4([H])[H])c3[H])c([H])c([H])c2C1([H])[H]

>  <smiles>  (73) 
[H]c1c([H])c([H])c2c(c1[H])C([H])([H])C([H])([H])C([H])([H])C2([H])N([H])C(=O)C1([H])N(C(=O)C([H])(N([H])C(=O)C([H])(N([H])C([H])([H])[H])C([H])([H])[H])C(C([H])([H])[H])(C([H])([H])[H])C([H])([H])[H])C([H])([H])c2c([H])c(OC([H])([H])c3c([H])c([H])c(C4([H])C([H])([H])C([H])([H])N(C(=O)N5C([H])([H])C([H])([H])C([H])([H])C([H])(n6nc(-c7c([H])c([H])c(Oc8c([H])c([H])c(F)c([H])c8F)c([H])c7[H])c(C(=O)N([H])[H])c6N([H])[H])C5([H])[H])C([H])([H])C4([H])[H])c(N([H])C4([H])C([H])([H])C4([H])[H])c3[H])c([H])c([H])c2C1([H])[H]

$$$$
74:0:0
     RDKit          3D

 96105  0  0  1  0  0  0  0  0999 V2000
  -28.0810  -21.1760   18.9260 C   0  0  0  0  0  2  0  0  0  0  0  0
  -29.0420  -22.3200   18.5860 C   0  0  0  0  0  2  0  0  0  0  0  0
  -28.5880  -22.4020   20.9380 C   0  0  0  0  0  2  0  0  0  0  0  0
  -28.0860  -21.0380   20.4530 C   0  0  0  0  0  3  0  0  0  0  0  0
  -29.4690  -22.9290   19.8730 N   0  0  2  0  0  4  0  0  0  0  0  0
  -30.3670  -22.5050   20.0560 H   0  0  0  0  0  0  0  0  0  0  0  0
  -28.9210  -17.2880   20.5770 C   0  0  0  0  0  3  0  0  0  0  0  0
  -30.6510  -18.4150   21.8360 C   0  0  0  0  0  3  0  0  0  0  0  0
  -28.8030  -19.7350   20.8710 C   0  0  0  0  0  0  0  0  0  0  0  0
  -30.1130  -17.2310   21.3090 C   0  0  0  0  0  0  0  0  0  0  0  0
  -28.2720  -18.5140   20.3530 C   0  0  0  0  0  0  0  0  0  0  0  0
  -30.0200  -19.6610   21.6300 C   0  0  0  0  0  0  0  0  0  0  0  0
  -27.0270  -18.4620   19.4810 C   0  0  0  0  0  1  0  0  0  0  0  0
  -30.7640  -20.8600   22.2080 C   0  0  0  0  0  1  0  0  0  0  0  0
  -30.8760  -15.9260   21.3800 C   0  0  0  0  0  2  0  0  0  0  0  0
  -31.4200  -14.1850   19.7480 C   0  0  0  0  0  0  0  0  0  0  0  0
  -30.8970  -12.0160   18.7250 C   0  0  0  0  0  2  0  0  0  0  0  0
  -29.8650  -12.2360   17.5990 C   0  0  0  0  0  2  0  0  0  0  0  0
  -28.4280  -12.2210   18.1550 C   0  0  0  0  0  2  0  0  0  0  0  0
  -28.2510  -13.1200   19.4090 C   0  0  0  0  0  3  0  0  0  0  0  0
  -29.3870  -12.8630   20.4270 C   0  0  0  0  0  2  0  0  0  0  0  0
  -30.6730  -13.0530   19.7360 N   0  0  0  0  0  0  0  0  0  0  0  0
  -32.5110  -14.3000   19.1870 O   0  0  0  0  0  0  0  0  0  0  0  0
  -30.7420  -15.2760   20.0910 N   0  0  0  0  0  0  0  0  0  0  0  0
  -30.7960  -15.9800   19.3710 H   0  0  0  0  0  0  0  0  0  0  0  0
  -26.0020  -13.9010   20.3970 C   0  0  0  0  0  0  0  0  0  0  0  0
  -24.9030  -13.2110   20.8260 C   0  0  0  0  0  0  0  0  0  0  0  0
  -25.2170  -11.8270   20.6630 C   0  0  0  0  0  0  0  0  0  0  0  0
  -26.9290  -12.9440   20.0080 N   0  0  0  0  0  0  0  0  0  0  0  0
  -26.4620  -11.6860   20.2230 N   0  0  0  0  0  0  0  0  0  0  0  0
  -24.3890  -10.6290   20.8570 C   0  0  0  0  0  0  0  0  0  0  0  0
  -24.7660   -9.6090   21.7590 C   0  0  0  0  0  3  0  0  0  0  0  0
  -23.9480   -8.4730   21.9370 C   0  0  0  0  0  3  0  0  0  0  0  0
  -22.7360   -8.3500   21.2160 C   0  0  0  0  0  0  0  0  0  0  0  0
  -22.3770   -9.3570   20.3040 C   0  0  0  0  0  3  0  0  0  0  0  0
  -23.1930  -10.4860   20.1240 C   0  0  0  0  0  3  0  0  0  0  0  0
  -21.8890   -7.2720   21.3040 O   0  0  0  0  0  0  0  0  0  0  0  0
  -21.7300   -6.5790   22.4780 C   0  0  0  0  0  0  0  0  0  0  0  0
  -21.2850   -7.2100   23.6610 C   0  0  0  0  0  3  0  0  0  0  0  0
  -21.0740   -6.4490   24.8270 C   0  0  0  0  0  3  0  0  0  0  0  0
  -21.2900   -5.0570   24.8110 C   0  0  0  0  0  0  0  0  0  0  0  0
  -21.7240   -4.4270   23.6310 C   0  0  0  0  0  3  0  0  0  0  0  0
  -21.9410   -5.1870   22.4690 C   0  0  0  0  0  0  0  0  0  0  0  0
  -22.3410   -4.5720   21.3300 F   0  0  0  0  0  0  0  0  0  0  0  0
  -21.0750   -4.3230   25.9280 F   0  0  0  0  0  0  0  0  0  0  0  0
  -23.5950  -13.7970   21.2740 C   0  0  0  0  0  0  0  0  0  0  0  0
  -22.9300  -13.1560   22.2250 N   0  0  0  0  0  0  0  0  0  0  0  0
  -23.1780  -14.8600   20.8090 O   0  0  0  0  0  0  0  0  0  0  0  0
  -23.2880  -12.3050   22.6340 H   0  0  0  0  0  0  0  0  0  0  0  0
  -22.0560  -13.5290   22.5670 H   0  0  0  0  0  0  0  0  0  0  0  0
  -26.2830  -15.2600   20.2920 N   0  0  0  0  0  0  0  0  0  0  0  0
  -25.6090  -15.9750   20.5430 H   0  0  0  0  0  0  0  0  0  0  0  0
  -27.1600  -15.6310   19.9500 H   0  0  0  0  0  0  0  0  0  0  0  0
  -29.6870  -24.4020   19.8860 C   0  0  0  0  0  2  0  0  0  0  0  0
  -28.4350  -25.2060   19.4860 C   0  0  0  0  0  2  0  0  0  0  0  0
  -28.4720  -26.5520   19.9610 O   0  0  0  0  0  0  0  0  0  0  0  0
  -24.5680  -31.6100   23.0910 C   0  0  0  0  0  0  0  0  0  0  0  0
  -27.2810  -27.2510   19.9420 C   0  0  0  0  0  0  0  0  0  0  0  0
  -23.3900  -30.2300   21.4090 C   0  0  0  0  0  3  0  0  0  0  0  0
  -24.8730  -28.7300   19.9820 C   0  0  0  0  0  0  0  0  0  0  0  0
  -25.9130  -30.6130   21.2450 C   0  0  0  0  0  2  0  0  0  0  0  0
  -26.0180  -29.2460   20.5990 C   0  0  0  0  0  0  0  0  0  0  0  0
  -27.2240  -28.5080   20.5860 C   0  0  0  0  0  3  0  0  0  0  0  0
  -26.1170  -26.7690   19.2930 C   0  0  0  0  0  3  0  0  0  0  0  0
  -24.9160  -27.4900   19.3280 C   0  0  0  0  0  3  0  0  0  0  0  0
  -23.6270  -29.5810   20.0220 C   0  0  0  0  0  2  0  0  0  0  0  0
  -24.6410  -30.8330   21.9740 N   0  0  0  0  0  0  0  0  0  0  0  0
  -23.4770  -31.8650   23.6210 O   0  0  0  0  0  0  0  0  0  0  0  0
  -22.7320  -29.1890   22.3410 C   0  0  0  0  0  0  0  0  0  0  0  0
  -21.4020  -29.0520   22.2370 N   0  0  0  0  0  0  0  0  0  0  0  0
  -23.4130  -28.5100   23.1140 O   0  0  0  0  0  0  0  0  0  0  0  0
  -20.9270  -29.6500   21.5780 H   0  0  0  0  0  0  0  0  0  0  0  0
  -17.9990  -27.9640   22.7700 C   0  0  0  0  0  0  0  0  0  0  0  0
  -20.5720  -28.1000   22.9700 C   0  0  0  0  0  3  0  0  0  0  0  0
  -20.5970  -26.7070   22.2990 C   0  0  0  0  0  2  0  0  0  0  0  0
  -19.4440  -26.4750   21.3180 C   0  0  0  0  0  2  0  0  0  0  0  0
  -18.0910  -26.6440   22.0200 C   0  0  0  0  0  2  0  0  0  0  0  0
  -19.1610  -28.6530   23.2020 C   0  0  0  0  0  0  0  0  0  0  0  0
  -19.0140  -29.8870   23.8750 C   0  0  0  0  0  3  0  0  0  0  0  0
  -17.7400  -30.4370   24.1110 C   0  0  0  0  0  3  0  0  0  0  0  0
  -16.5920  -29.7420   23.6900 C   0  0  0  0  0  3  0  0  0  0  0  0
  -16.7230  -28.5060   23.0310 C   0  0  0  0  0  3  0  0  0  0  0  0
  -25.8430  -32.2320   23.7440 C   0  0  0  0  0  3  0  0  0  0  0  0
  -26.3530  -31.4280   25.0020 C   0  0  1  0  0  0  0  0  0  0  0  0
  -25.2530  -31.1540   26.0520 C   0  0  0  0  0  1  0  0  0  0  0  0
  -26.9460  -30.0690   24.5660 C   0  0  0  0  0  1  0  0  0  0  0  0
  -27.4900  -32.2100   25.7000 C   0  0  0  0  0  1  0  0  0  0  0  0
  -25.5170  -33.6160   24.1060 N   0  0  0  0  0  0  0  0  0  0  0  0
  -25.8770  -34.6910   23.3920 C   0  0  0  0  0  0  0  0  0  0  0  0
  -26.5890  -34.6240   22.3850 O   0  0  0  0  0  0  0  0  0  0  0  0
  -24.8960  -33.7460   24.8910 H   0  0  0  0  0  0  0  0  0  0  0  0
  -24.1730  -36.5040   23.0120 C   0  0  0  0  0  1  0  0  0  0  0  0
  -25.3690  -36.0650   23.8710 C   0  0  0  0  0  3  0  0  0  0  0  0
  -27.4550  -36.9190   24.8510 C   0  0  0  0  0  1  0  0  0  0  0  0
  -26.4090  -37.1190   23.8520 N   0  0  0  0  0  0  0  0  0  0  0  0
  -25.9940  -38.0330   24.0110 H   0  0  0  0  0  0  0  0  0  0  0  0
  1  4  1  0
  2  1  1  0
  2  5  1  0
  4  9  1  0
  4  3  1  0
  5 54  1  0
  5  6  1  1
  5  3  1  0
  7 10  1  0
  9 12  2  0
 10 15  1  0
 10  8  2  0
 11  7  2  0
 11  9  1  0
 12  8  1  0
 12 14  1  0
 13 11  1  0
 16 24  1  0
 17 22  1  0
 18 19  1  0
 18 17  1  0
 20 19  1  0
 20 29  1  0
 20 21  1  0
 22 16  1  0
 22 21  1  0
 23 16  2  0
 24 15  1  0
 25 24  1  0
 26 27  2  0
 27 46  1  0
 28 27  1  0
 28 31  1  0
 29 30  1  0
 29 26  1  0
 30 28  2  0
 31 32  1  0
 32 33  2  0
 34 37  1  0
 34 33  1  0
 35 34  2  0
 36 35  1  0
 36 31  2  0
 37 38  1  0
 38 39  1  0
 39 40  2  0
 41 40  1  0
 41 45  1  0
 42 41  2  0
 43 38  2  0
 43 42  1  0
 44 43  1  0
 46 47  1  0
 47 50  1  0
 47 49  1  0
 48 46  2  0
 51 26  1  0
 51 52  1  0
 53 51  1  0
 55 54  1  0
 55 56  1  0
 57 68  2  0
 58 56  1  0
 58 63  1  0
 59 67  1  0
 59 69  1  0
 60 66  1  0
 60 62  1  0
 61 67  1  0
 62 61  1  0
 63 62  2  0
 64 65  1  0
 64 58  2  0
 65 60  2  0
 66 59  1  0
 67 57  1  0
 69 71  2  0
 70 69  1  0
 72 70  1  0
 73 82  2  0
 73 78  1  0
 74 70  1  0
 74 78  1  0
 75 74  1  0
 76 77  1  0
 76 75  1  0
 77 73  1  0
 78 79  2  0
 79 80  1  0
 81 80  2  0
 82 81  1  0
 83 57  1  0
 83 88  1  0
 83 84  1  0
 84 87  1  1
 84 85  1  0
 86 84  1  0
 88 91  1  0
 89 93  1  0
 89 88  1  0
 90 89  2  0
 93 92  1  0
 95 93  1  0
 95 96  1  0
 95 94  1  0
M  ISO  4  16 100  24 100  55 101  56 101
M  END
>  <TORSDO>  (74) 
F 20

>  <SCORE>  (74) 
-13.127

>  <name>  (74) 
74

>  <ligand_id>  (74) 
74

>  <original_smiles>  (74) 
[H]c1c([H])c([H])c2c(c1[H])C([H])([H])C([H])([H])C([H])([H])C2([H])N([H])C(=O)C1([H])N(C(=O)C([H])(N([H])C(=O)C([H])(N([H])C([H])([H])[H])C([H])([H])[H])C(C([H])([H])[H])(C([H])([H])[H])C([H])([H])[H])C([H])([H])c2c([H])c(OC([H])([H])C([H])([H])[N+]3([H])C([H])([H])C([H])([H])C([H])(c4c(C([H])([H])[H])c([H])c(C([H])([H])N([H])C(=O)N5C([H])([H])C([H])([H])C([H])([H])C([H])(n6nc(-c7c([H])c([H])c(Oc8c([H])c([H])c(F)c([H])c8F)c([H])c7[H])c(C(=O)N([H])[H])c6N([H])[H])C5([H])[H])c([H])c4C([H])([H])[H])C3([H])[H])c([H])c([H])c2C1([H])[H]

>  <smiles>  (74) 
[H]c1c([H])c([H])c2c(c1[H])C([H])([H])C([H])([H])C([H])([H])C2([H])N([H])C(=O)C1([H])N(C(=O)C([H])(N([H])C(=O)C([H])(N([H])C([H])([H])[H])C([H])([H])[H])C(C([H])([H])[H])(C([H])([H])[H])C([H])([H])[H])C([H])([H])c2c([H])c(OC([H])([H])C([H])([H])[N+]3([H])C([H])([H])C([H])([H])C([H])(c4c(C([H])([H])[H])c([H])c(C([H])([H])N([H])C(=O)N5C([H])([H])C([H])([H])C([H])([H])C([H])(n6nc(-c7c([H])c([H])c(Oc8c([H])c([H])c(F)c([H])c8F)c([H])c7[H])c(C(=O)N([H])[H])c6N([H])[H])C5([H])[H])c([H])c4C([H])([H])[H])C3([H])[H])c([H])c([H])c2C1([H])[H]

$$$$
75:0:0
     RDKit          3D

 91100  0  0  1  0  0  0  0  0999 V2000
  -27.3240  -21.7900   18.5390 C   0  0  0  0  0  3  0  0  0  0  0  0
  -27.4970  -23.0800   19.0840 C   0  0  0  0  0  3  0  0  0  0  0  0
  -29.2000  -22.1170   20.5110 C   0  0  0  0  0  3  0  0  0  0  0  0
  -28.0570  -20.6430   18.9480 C   0  0  0  0  0  0  0  0  0  0  0  0
  -28.4220  -23.3410   20.1070 C   0  0  0  0  0  0  0  0  0  0  0  0
  -29.0650  -20.7280   19.9500 C   0  0  0  0  0  0  0  0  0  0  0  0
  -26.3960  -18.9630   17.7590 C   0  0  0  0  0  2  0  0  0  0  0  0
  -27.0490  -18.2110   18.8910 C   0  0  0  0  0  2  0  0  0  0  0  0
  -27.7850  -19.3500   18.2230 C   0  0  0  0  0  3  0  0  0  0  0  0
  -30.0400  -19.3690   20.1200 C   0  0  0  0  0  2  0  0  0  0  0  0
  -29.7670  -17.8720   20.8860 C   0  0  0  0  0  2  0  0  0  0  0  0
  -30.7060  -15.2030   20.3520 C   0  0  0  0  0  0  0  0  0  0  0  0
  -30.6490  -12.8530   19.3580 C   0  0  0  0  0  2  0  0  0  0  0  0
  -29.7120  -12.7860   18.1300 C   0  0  0  0  0  2  0  0  0  0  0  0
  -28.2480  -12.5610   18.5600 C   0  0  0  0  0  2  0  0  0  0  0  0
  -27.8290  -13.4740   19.7410 C   0  0  0  0  0  3  0  0  0  0  0  0
  -28.8840  -13.4810   20.8640 C   0  0  0  0  0  2  0  0  0  0  0  0
  -30.1410  -13.9300   20.2510 N   0  0  0  0  0  0  0  0  0  0  0  0
  -31.9310  -15.2880   20.2130 O   0  0  0  0  0  0  0  0  0  0  0  0
  -29.8510  -16.3530   20.3730 N   0  0  0  0  0  0  0  0  0  0  0  0
  -28.9160  -16.0190   20.2080 H   0  0  0  0  0  0  0  0  0  0  0  0
  -25.4400  -14.0400   20.4590 C   0  0  0  0  0  0  0  0  0  0  0  0
  -24.3780  -13.2600   20.8220 C   0  0  0  0  0  0  0  0  0  0  0  0
  -24.8530  -11.9130   20.8060 C   0  0  0  0  0  0  0  0  0  0  0  0
  -26.4920  -13.1690   20.2340 N   0  0  0  0  0  0  0  0  0  0  0  0
  -26.1490  -11.8840   20.5110 N   0  0  0  0  0  0  0  0  0  0  0  0
  -24.1340  -10.6470   20.9930 C   0  0  0  0  0  0  0  0  0  0  0  0
  -24.5460   -9.6980   21.9540 C   0  0  0  0  0  3  0  0  0  0  0  0
  -23.8240   -8.4970   22.1290 C   0  0  0  0  0  3  0  0  0  0  0  0
  -22.6760   -8.2380   21.3440 C   0  0  0  0  0  0  0  0  0  0  0  0
  -22.2840   -9.1760   20.3730 C   0  0  0  0  0  3  0  0  0  0  0  0
  -23.0060  -10.3680   20.1950 C   0  0  0  0  0  3  0  0  0  0  0  0
  -21.9280   -7.0890   21.4260 O   0  0  0  0  0  0  0  0  0  0  0  0
  -21.8280   -6.3780   22.5960 C   0  0  0  0  0  0  0  0  0  0  0  0
  -21.3180   -6.9570   23.7780 C   0  0  0  0  0  3  0  0  0  0  0  0
  -21.1680   -6.1710   24.9380 C   0  0  0  0  0  3  0  0  0  0  0  0
  -21.5170   -4.8080   24.9170 C   0  0  0  0  0  0  0  0  0  0  0  0
  -22.0210   -4.2290   23.7380 C   0  0  0  0  0  3  0  0  0  0  0  0
  -22.1720   -5.0110   22.5810 C   0  0  0  0  0  0  0  0  0  0  0  0
  -22.6380   -4.4430   21.4420 F   0  0  0  0  0  0  0  0  0  0  0  0
  -21.3660   -4.0510   26.0290 F   0  0  0  0  0  0  0  0  0  0  0  0
  -22.9730  -13.7300   21.0690 C   0  0  0  0  0  0  0  0  0  0  0  0
  -22.2370  -13.0340   21.9280 N   0  0  0  0  0  0  0  0  0  0  0  0
  -22.5370  -14.7480   20.5340 O   0  0  0  0  0  0  0  0  0  0  0  0
  -22.6040  -12.2100   22.3820 H   0  0  0  0  0  0  0  0  0  0  0  0
  -21.2960  -13.3310   22.1380 H   0  0  0  0  0  0  0  0  0  0  0  0
  -25.5910  -15.4110   20.2720 N   0  0  0  0  0  0  0  0  0  0  0  0
  -24.8060  -16.0470   20.3590 H   0  0  0  0  0  0  0  0  0  0  0  0
  -26.4190  -15.8570   19.9060 H   0  0  0  0  0  0  0  0  0  0  0  0
  -28.3400  -24.8560   20.8030 C   0  0  0  0  0  2  0  0  0  0  0  0
  -28.3180  -26.2810   20.1400 O   0  0  0  0  0  0  0  0  0  0  0  0
  -24.6090  -31.9500   23.2350 C   0  0  0  0  0  0  0  0  0  0  0  0
  -27.2290  -27.2350   20.2120 C   0  0  0  0  0  0  0  0  0  0  0  0
  -23.4180  -30.5350   21.6050 C   0  0  0  0  0  3  0  0  0  0  0  0
  -24.8780  -28.9630   20.1870 C   0  0  0  0  0  0  0  0  0  0  0  0
  -25.9710  -30.8260   21.4260 C   0  0  0  0  0  2  0  0  0  0  0  0
  -26.0590  -29.4270   20.7830 C   0  0  0  0  0  0  0  0  0  0  0  0
  -27.2370  -28.5830   20.7680 C   0  0  0  0  0  3  0  0  0  0  0  0
  -26.0160  -26.8700   19.5940 C   0  0  0  0  0  3  0  0  0  0  0  0
  -24.8710  -27.6990   19.5770 C   0  0  0  0  0  3  0  0  0  0  0  0
  -23.6420  -29.8520   20.2310 C   0  0  0  0  0  2  0  0  0  0  0  0
  -24.6870  -31.1270   22.1440 N   0  0  0  0  0  0  0  0  0  0  0  0
  -23.5220  -32.2230   23.7660 O   0  0  0  0  0  0  0  0  0  0  0  0
  -22.7550  -29.5250   22.5750 C   0  0  0  0  0  0  0  0  0  0  0  0
  -21.4320  -29.3250   22.4450 N   0  0  0  0  0  0  0  0  0  0  0  0
  -23.4360  -28.9220   23.4090 O   0  0  0  0  0  0  0  0  0  0  0  0
  -20.9380  -29.8630   21.7470 H   0  0  0  0  0  0  0  0  0  0  0  0
  -18.0770  -28.0410   22.9310 C   0  0  0  0  0  0  0  0  0  0  0  0
  -20.6250  -28.3760   23.2200 C   0  0  0  0  0  3  0  0  0  0  0  0
  -20.7720  -26.9390   22.6690 C   0  0  0  0  0  2  0  0  0  0  0  0
  -19.6900  -26.5730   21.6470 C   0  0  0  0  0  2  0  0  0  0  0  0
  -18.2970  -26.6880   22.2740 C   0  0  0  0  0  2  0  0  0  0  0  0
  -19.1700  -28.8400   23.3600 C   0  0  0  0  0  0  0  0  0  0  0  0
  -18.9080  -30.1030   23.9350 C   0  0  0  0  0  3  0  0  0  0  0  0
  -17.5890  -30.5670   24.0840 C   0  0  0  0  0  3  0  0  0  0  0  0
  -16.5110  -29.7660   23.6690 C   0  0  0  0  0  3  0  0  0  0  0  0
  -16.7550  -28.5050   23.0980 C   0  0  0  0  0  3  0  0  0  0  0  0
  -25.8800  -32.6050   23.8560 C   0  0  0  0  0  3  0  0  0  0  0  0
  -26.3940  -31.8560   25.1470 C   0  0  1  0  0  0  0  0  0  0  0  0
  -25.2980  -31.6270   26.2140 C   0  0  0  0  0  1  0  0  0  0  0  0
  -26.9900  -30.4760   24.7830 C   0  0  0  0  0  1  0  0  0  0  0  0
  -27.5370  -32.6670   25.8020 C   0  0  0  0  0  1  0  0  0  0  0  0
  -25.5570  -34.0050   24.1740 N   0  0  0  0  0  0  0  0  0  0  0  0
  -25.8940  -35.0580   23.4180 C   0  0  0  0  0  0  0  0  0  0  0  0
  -26.5760  -34.9540   22.3950 O   0  0  0  0  0  0  0  0  0  0  0  0
  -24.9530  -34.1600   24.9670 H   0  0  0  0  0  0  0  0  0  0  0  0
  -24.1750  -36.8550   23.0300 C   0  0  0  0  0  1  0  0  0  0  0  0
  -25.3980  -36.4480   23.8660 C   0  0  0  0  0  3  0  0  0  0  0  0
  -27.5150  -37.3350   24.7420 C   0  0  0  0  0  1  0  0  0  0  0  0
  -26.4340  -37.5010   23.7730 N   0  0  0  0  0  0  0  0  0  0  0  0
  -26.0240  -38.4210   23.9090 H   0  0  0  0  0  0  0  0  0  0  0  0
  1  4  2  0
  1  2  1  0
  2  5  2  0
  4  6  1  0
  5  3  1  0
  5 50  1  0
  6 10  1  0
  6  3  2  0
  7  9  1  0
  7  8  1  0
  9  8  1  0
  9  4  1  0
 10 11  1  0
 12 20  1  0
 13 18  1  0
 14 15  1  0
 14 13  1  0
 16 15  1  0
 16 25  1  0
 16 17  1  0
 18 12  1  0
 18 17  1  0
 19 12  2  0
 20 11  1  0
 21 20  1  0
 22 23  2  0
 23 42  1  0
 24 23  1  0
 24 27  1  0
 25 22  1  0
 25 26  1  0
 26 24  2  0
 27 28  1  0
 28 29  2  0
 30 33  1  0
 30 29  1  0
 31 30  2  0
 32 31  1  0
 32 27  2  0
 33 34  1  0
 34 35  1  0
 35 36  2  0
 37 36  1  0
 37 41  1  0
 38 37  2  0
 39 34  2  0
 39 38  1  0
 40 39  1  0
 42 43  1  0
 43 46  1  0
 43 45  1  0
 44 42  2  0
 47 48  1  0
 47 22  1  0
 49 47  1  0
 51 53  1  0
 51 50  1  0
 52 63  2  0
 53 58  1  0
 54 62  1  0
 54 64  1  0
 55 61  1  0
 55 57  1  0
 56 62  1  0
 57 56  1  0
 58 57  2  0
 59 53  2  0
 60 59  1  0
 60 55  2  0
 61 54  1  0
 62 52  1  0
 64 66  2  0
 65 64  1  0
 67 65  1  0
 68 77  2  0
 68 73  1  0
 69 65  1  0
 69 73  1  0
 70 69  1  0
 71 72  1  0
 71 70  1  0
 72 68  1  0
 73 74  2  0
 74 75  1  0
 76 75  2  0
 77 76  1  0
 78 52  1  0
 78 83  1  0
 78 79  1  0
 79 82  1  1
 79 80  1  0
 81 79  1  0
 83 86  1  0
 84 88  1  0
 84 83  1  0
 85 84  2  0
 88 87  1  0
 90 88  1  0
 90 91  1  0
 90 89  1  0
M  ISO  4  12 100  20 100  50 101  51 101
M  END
>  <TORSDO>  (75) 
F 20

>  <SCORE>  (75) 
-13.878

>  <name>  (75) 
75

>  <ligand_id>  (75) 
75

>  <original_smiles>  (75) 
[H]c1c([H])c([H])c2c(c1[H])C([H])([H])C([H])([H])C([H])([H])C2([H])N([H])C(=O)C1([H])N(C(=O)C([H])(N([H])C(=O)C([H])(N([H])C([H])([H])[H])C([H])([H])[H])C(C([H])([H])[H])(C([H])([H])[H])C([H])([H])[H])C([H])([H])c2c([H])c(OC([H])([H])c3c([H])c([H])c(C4([H])C([H])([H])C4([H])[H])c(C([H])([H])C([H])([H])N([H])C(=O)N4C([H])([H])C([H])([H])C([H])([H])C([H])(n5nc(-c6c([H])c([H])c(Oc7c([H])c([H])c(F)c([H])c7F)c([H])c6[H])c(C(=O)N([H])[H])c5N([H])[H])C4([H])[H])c3[H])c([H])c([H])c2C1([H])[H]

>  <smiles>  (75) 
[H]c1c([H])c([H])c2c(c1[H])C([H])([H])C([H])([H])C([H])([H])C2([H])N([H])C(=O)C1([H])N(C(=O)C([H])(N([H])C(=O)C([H])(N([H])C([H])([H])[H])C([H])([H])[H])C(C([H])([H])[H])(C([H])([H])[H])C([H])([H])[H])C([H])([H])c2c([H])c(OC([H])([H])c3c([H])c([H])c(C4([H])C([H])([H])C4([H])[H])c(C([H])([H])C([H])([H])N([H])C(=O)N4C([H])([H])C([H])([H])C([H])([H])C([H])(n5nc(-c6c([H])c([H])c(Oc7c([H])c([H])c(F)c([H])c7F)c([H])c6[H])c(C(=O)N([H])[H])c5N([H])[H])C4([H])[H])c3[H])c([H])c([H])c2C1([H])[H]

$$$$
76:0:0
     RDKit          3D

104114  0  0  1  0  0  0  0  0999 V2000
  -29.6660  -21.2540   23.4470 C   0  0  0  0  0  3  0  0  0  0  0  0
  -29.4940  -21.1860   21.0360 C   0  0  0  0  0  3  0  0  0  0  0  0
  -29.2990  -22.6190   23.4450 C   0  0  0  0  0  0  0  0  0  0  0  0
  -29.0120  -23.2950   22.2190 C   0  0  0  0  0  0  0  0  0  0  0  0
  -29.1320  -22.5500   21.0080 C   0  0  0  0  0  0  0  0  0  0  0  0
  -29.7650  -20.5240   22.2450 C   0  0  0  0  0  0  0  0  0  0  0  0
  -29.1940  -23.2960   24.8050 C   0  0  0  0  0  1  0  0  0  0  0  0
  -28.8500  -23.1060   19.7600 N   0  0  0  0  0  0  0  0  0  0  0  0
  -29.1160  -22.6190   18.9110 H   0  0  0  0  0  0  0  0  0  0  0  0
  -28.7190  -24.1010   19.6490 H   0  0  0  0  0  0  0  0  0  0  0  0
  -28.4440  -24.7390   22.2330 C   0  0  0  0  0  3  0  0  0  0  0  0
  -26.0470  -23.5990   22.2390 C   0  0  0  0  0  2  0  0  0  0  0  0
  -25.9940  -25.5860   22.8320 C   0  0  0  0  0  2  0  0  0  0  0  0
  -26.9390  -24.8050   21.9140 C   0  0  0  0  0  3  0  0  0  0  0  0
  -24.2350  -24.1460   23.8450 C   0  0  0  0  0  1  0  0  0  0  0  0
  -25.0000  -24.5310   22.6410 N   0  0  2  0  0  4  0  0  0  0  0  0
  -24.3980  -24.7420   21.8590 H   0  0  0  0  0  0  0  0  0  0  0  0
  -29.3250  -25.8710   21.6260 C   0  0  0  0  0  2  0  0  0  0  0  0
  -29.2480  -26.1800   20.1090 C   0  0  0  0  0  2  0  0  0  0  0  0
  -29.2460  -27.5990   19.8710 O   0  0  0  0  0  0  0  0  0  0  0  0
  -24.7430  -31.7110   23.5300 C   0  0  0  0  0  0  0  0  0  0  0  0
  -28.0180  -28.2210   19.8930 C   0  0  0  0  0  0  0  0  0  0  0  0
  -23.7990  -30.5800   21.5460 C   0  0  0  0  0  3  0  0  0  0  0  0
  -25.4940  -29.4900   19.9830 C   0  0  0  0  0  0  0  0  0  0  0  0
  -26.2830  -31.1820   21.6440 C   0  0  0  0  0  2  0  0  0  0  0  0
  -26.5510  -29.9800   20.7610 C   0  0  0  0  0  0  0  0  0  0  0  0
  -27.8170  -29.3540   20.7120 C   0  0  0  0  0  3  0  0  0  0  0  0
  -26.9450  -27.7550   19.0970 C   0  0  0  0  0  3  0  0  0  0  0  0
  -25.6850  -28.3790   19.1460 C   0  0  0  0  0  3  0  0  0  0  0  0
  -24.1700  -30.2120   20.0860 C   0  0  0  0  0  2  0  0  0  0  0  0
  -24.9560  -31.1590   22.3020 N   0  0  0  0  0  0  0  0  0  0  0  0
  -23.6050  -31.7780   24.0120 O   0  0  0  0  0  0  0  0  0  0  0  0
  -23.1890  -29.3320   22.2230 C   0  0  0  0  0  0  0  0  0  0  0  0
  -21.8730  -29.1390   22.0400 N   0  0  0  0  0  0  0  0  0  0  0  0
  -23.8950  -28.5450   22.8620 O   0  0  0  0  0  0  0  0  0  0  0  0
  -21.3640  -29.8300   21.5070 H   0  0  0  0  0  0  0  0  0  0  0  0
  -18.5320  -27.7800   22.2640 C   0  0  0  0  0  0  0  0  0  0  0  0
  -21.0900  -28.0140   22.5480 C   0  0  0  0  0  3  0  0  0  0  0  0
  -21.2030  -26.7890   21.6100 C   0  0  0  0  0  2  0  0  0  0  0  0
  -20.0840  -26.7150   20.5690 C   0  0  0  0  0  2  0  0  0  0  0  0
  -18.7140  -26.6590   21.2550 C   0  0  0  0  0  2  0  0  0  0  0  0
  -19.6460  -28.4270   22.8590 C   0  0  0  0  0  0  0  0  0  0  0  0
  -19.4230  -29.4870   23.7640 C   0  0  0  0  0  3  0  0  0  0  0  0
  -18.1140  -29.9000   24.0790 C   0  0  0  0  0  3  0  0  0  0  0  0
  -17.0130  -29.2460   23.4970 C   0  0  0  0  0  3  0  0  0  0  0  0
  -17.2220  -28.1870   22.5960 C   0  0  0  0  0  3  0  0  0  0  0  0
  -25.9140  -32.3040   24.3750 C   0  0  0  0  0  3  0  0  0  0  0  0
  -25.6210  -33.7260   24.5980 N   0  0  0  0  0  0  0  0  0  0  0  0
  -26.1580  -34.7310   23.8910 C   0  0  0  0  0  0  0  0  0  0  0  0
  -27.0160  -34.5560   23.0220 O   0  0  0  0  0  0  0  0  0  0  0  0
  -24.8830  -33.9390   25.2550 H   0  0  0  0  0  0  0  0  0  0  0  0
  -24.6290  -36.5800   23.1450 C   0  0  0  0  0  1  0  0  0  0  0  0
  -25.6640  -36.1580   24.2000 C   0  0  0  0  0  3  0  0  0  0  0  0
  -27.6660  -36.9490   25.3810 C   0  0  0  0  0  1  0  0  0  0  0  0
  -26.7540  -37.1560   24.2590 N   0  0  0  0  0  0  0  0  0  0  0  0
  -26.3770  -38.0970   24.3250 H   0  0  0  0  0  0  0  0  0  0  0  0
  -26.1330  -31.5550   25.7450 C   0  0  1  0  0  0  0  0  0  0  0  0
  -24.8360  -31.3810   26.5700 C   0  0  0  0  0  1  0  0  0  0  0  0
  -26.7330  -30.1500   25.5080 C   0  0  0  0  0  1  0  0  0  0  0  0
  -27.1570  -32.3300   26.6060 C   0  0  0  0  0  1  0  0  0  0  0  0
  -30.0680  -19.1790   22.1990 O   0  0  0  0  0  0  0  0  0  0  0  0
  -31.2280  -18.7310   22.9030 C   0  0  0  0  0  2  0  0  0  0  0  0
  -31.8980  -14.3710   19.2500 C   0  0  0  0  0  0  0  0  0  0  0  0
  -31.1010  -12.2450   18.3020 C   0  0  0  0  0  2  0  0  0  0  0  0
  -30.0350  -12.4470   17.2110 C   0  0  0  0  0  2  0  0  0  0  0  0
  -28.6360  -12.4540   17.8460 C   0  0  0  0  0  2  0  0  0  0  0  0
  -28.5410  -13.4410   19.0340 C   0  0  0  0  0  3  0  0  0  0  0  0
  -29.7210  -13.2830   20.0170 C   0  0  0  0  0  2  0  0  0  0  0  0
  -31.0000  -13.3430   19.2830 N   0  0  0  0  0  0  0  0  0  0  0  0
  -32.7340  -14.4590   18.3430 O   0  0  0  0  0  0  0  0  0  0  0  0
  -31.9760  -17.7850   20.6680 C   0  0  0  0  0  2  0  0  0  0  0  0
  -31.1500  -16.1710   22.4290 C   0  0  0  0  0  2  0  0  0  0  0  0
  -32.5870  -16.5920   19.9290 C   0  0  0  0  0  2  0  0  0  0  0  0
  -31.8660  -15.0410   21.6520 C   0  0  0  0  0  2  0  0  0  0  0  0
  -31.8520  -17.5210   22.1780 C   0  0  0  0  0  3  0  0  0  0  0  0
  -31.8580  -15.3350   20.2080 N   0  0  0  0  0  0  0  0  0  0  0  0
  -26.4250  -14.3210   20.2090 C   0  0  0  0  0  0  0  0  0  0  0  0
  -25.3180  -13.6810   20.7030 C   0  0  0  0  0  0  0  0  0  0  0  0
  -25.5400  -12.2870   20.4880 C   0  0  0  0  0  0  0  0  0  0  0  0
  -27.2580  -13.3230   19.7260 N   0  0  0  0  0  0  0  0  0  0  0  0
  -26.7370  -12.0880   19.9520 N   0  0  0  0  0  0  0  0  0  0  0  0
  -24.6550  -11.1330   20.7070 C   0  0  0  0  0  0  0  0  0  0  0  0
  -25.0150  -10.0830   21.5810 C   0  0  0  0  0  3  0  0  0  0  0  0
  -24.1410   -8.9940   21.7890 C   0  0  0  0  0  3  0  0  0  0  0  0
  -22.8920   -8.9500   21.1240 C   0  0  0  0  0  0  0  0  0  0  0  0
  -22.5490   -9.9870   20.2390 C   0  0  0  0  0  3  0  0  0  0  0  0
  -23.4230  -11.0670   20.0300 C   0  0  0  0  0  3  0  0  0  0  0  0
  -21.9910   -7.9190   21.2450 O   0  0  0  0  0  0  0  0  0  0  0  0
  -21.7830   -7.2810   22.4410 C   0  0  0  0  0  0  0  0  0  0  0  0
  -21.4120   -7.9850   23.6080 C   0  0  0  0  0  3  0  0  0  0  0  0
  -21.1410   -7.2810   24.7980 C   0  0  0  0  0  3  0  0  0  0  0  0
  -21.2300   -5.8750   24.8220 C   0  0  0  0  0  0  0  0  0  0  0  0
  -21.5930   -5.1720   23.6600 C   0  0  0  0  0  3  0  0  0  0  0  0
  -21.8660   -5.8730   22.4720 C   0  0  0  0  0  0  0  0  0  0  0  0
  -22.1950   -5.1900   21.3490 F   0  0  0  0  0  0  0  0  0  0  0  0
  -20.9620   -5.1990   25.9620 F   0  0  0  0  0  0  0  0  0  0  0  0
  -24.0840  -14.3300   21.2570 C   0  0  0  0  0  0  0  0  0  0  0  0
  -23.4690  -13.7230   22.2670 N   0  0  0  0  0  0  0  0  0  0  0  0
  -23.6810  -15.4090   20.8250 O   0  0  0  0  0  0  0  0  0  0  0  0
  -23.8120  -12.8470   22.6340 H   0  0  0  0  0  0  0  0  0  0  0  0
  -22.6480  -14.1410   22.6780 H   0  0  0  0  0  0  0  0  0  0  0  0
  -26.7830  -15.6610   20.1140 N   0  0  0  0  0  0  0  0  0  0  0  0
  -26.1700  -16.4110   20.4140 H   0  0  0  0  0  0  0  0  0  0  0  0
  -27.6450  -15.9940   19.6990 H   0  0  0  0  0  0  0  0  0  0  0  0
  2  6  1  0
  3  1  1  0
  3  7  1  0
  4 11  1  0
  4  3  2  0
  5  2  2  0
  5  4  1  0
  6  1  2  0
  8  5  1  0
  9  8  1  0
 10  8  1  0
 11 18  1  0
 12 16  1  0
 14 11  1  0
 14 12  1  0
 14 13  1  0
 16 13  1  0
 16 15  1  0
 16 17  1  6
 19 18  1  0
 20 22  1  0
 20 19  1  0
 21 32  2  0
 22 27  1  0
 23 33  1  0
 23 31  1  0
 24 30  1  0
 24 26  1  0
 25 31  1  0
 26 25  1  0
 27 26  2  0
 28 29  1  0
 28 22  2  0
 29 24  2  0
 30 23  1  0
 31 21  1  0
 33 35  2  0
 34 33  1  0
 36 34  1  0
 37 46  2  0
 37 42  1  0
 38 34  1  0
 38 42  1  0
 39 38  1  0
 40 41  1  0
 40 39  1  0
 41 37  1  0
 42 43  2  0
 43 44  1  0
 45 44  2  0
 46 45  1  0
 47 21  1  0
 47 48  1  0
 47 57  1  0
 48 51  1  0
 49 53  1  0
 49 48  1  0
 50 49  2  0
 53 52  1  0
 53 55  1  0
 55 56  1  0
 55 54  1  0
 57 58  1  1
 57 60  1  0
 59 57  1  0
 61  6  1  0
 61 62  1  0
 63 69  1  0
 63 76  1  0
 64 69  1  0
 65 66  1  0
 65 64  1  0
 67 66  1  0
 67 80  1  0
 67 68  1  0
 69 68  1  0
 70 63  2  0
 71 75  1  0
 73 76  1  0
 73 71  1  0
 74 72  1  0
 75 72  1  0
 75 62  1  0
 76 74  1  0
 77 78  2  0
 78 97  1  0
 79 78  1  0
 79 82  1  0
 80 81  1  0
 80 77  1  0
 81 79  2  0
 82 83  1  0
 83 84  2  0
 85 88  1  0
 85 84  1  0
 86 85  2  0
 87 86  1  0
 87 82  2  0
 88 89  1  0
 89 94  2  0
 89 90  1  0
 90 91  2  0
 91 92  1  0
 92 96  1  0
 93 92  2  0
 94 93  1  0
 95 94  1  0
 97 98  1  0
 98100  1  0
 98101  1  0
 99 97  2  0
102 77  1  0
102103  1  0
104102  1  0
M  ISO  4  19 101  20 101  63 100  76 100
M  END
>  <TORSDO>  (76) 
F 23

>  <SCORE>  (76) 
-5.555

>  <name>  (76) 
76

>  <ligand_id>  (76) 
76

>  <original_smiles>  (76) 
[H]c1c([H])c([H])c2c(c1[H])C([H])([H])C([H])([H])C([H])([H])C2([H])N([H])C(=O)C1([H])N(C(=O)C([H])(N([H])C(=O)C([H])(N([H])C([H])([H])[H])C([H])([H])[H])C(C([H])([H])[H])(C([H])([H])[H])C([H])([H])[H])C([H])([H])c2c([H])c(OC([H])([H])C([H])([H])C([H])(c3c(N([H])[H])c([H])c(OC([H])([H])C4([H])C([H])([H])C([H])([H])N(C(=O)N5C([H])([H])C([H])([H])C([H])([H])C([H])(n6nc(-c7c([H])c([H])c(Oc8c([H])c([H])c(F)c([H])c8F)c([H])c7[H])c(C(=O)N([H])[H])c6N([H])[H])C5([H])[H])C([H])([H])C4([H])[H])c([H])c3C([H])([H])[H])C3([H])C([H])([H])[N+]([H])(C([H])([H])[H])C3([H])[H])c([H])c([H])c2C1([H])[H]

>  <smiles>  (76) 
[H]c1c([H])c([H])c2c(c1[H])C([H])([H])C([H])([H])C([H])([H])C2([H])N([H])C(=O)C1([H])N(C(=O)C([H])(N([H])C(=O)C([H])(N([H])C([H])([H])[H])C([H])([H])[H])C(C([H])([H])[H])(C([H])([H])[H])C([H])([H])[H])C([H])([H])c2c([H])c(OC([H])([H])C([H])([H])C([H])(c3c(N([H])[H])c([H])c(OC([H])([H])C4([H])C([H])([H])C([H])([H])N(C(=O)N5C([H])([H])C([H])([H])C([H])([H])C([H])(n6nc(-c7c([H])c([H])c(Oc8c([H])c([H])c(F)c([H])c8F)c([H])c7[H])c(C(=O)N([H])[H])c6N([H])[H])C5([H])[H])C([H])([H])C4([H])[H])c([H])c3C([H])([H])[H])C3([H])C([H])([H])[N+]([H])(C([H])([H])[H])C3([H])[H])c([H])c([H])c2C1([H])[H]

$$$$
77:0:0
     RDKit          3D

 94104  0  0  1  0  0  0  0  0999 V2000
  -29.9100  -21.5220   21.0240 C   0  0  0  0  0  3  0  0  0  0  0  0
  -29.1780  -20.9860   18.8570 C   0  0  0  0  0  3  0  0  0  0  0  0
  -30.2530  -20.1430   21.2680 C   0  0  0  0  0  0  0  0  0  0  0  0
  -30.0830  -19.0850   20.2920 C   0  0  0  0  0  0  0  0  0  0  0  0
  -29.3720  -22.0400   19.8210 C   0  0  0  0  0  0  0  0  0  0  0  0
  -29.5230  -19.5820   19.0700 C   0  0  0  0  0  0  0  0  0  0  0  0
  -30.9380  -14.9960   19.8270 C   0  0  0  0  0  0  0  0  0  0  0  0
  -30.8080  -12.7560   18.6390 C   0  0  0  0  0  2  0  0  0  0  0  0
  -29.7260  -12.7850   17.5280 C   0  0  0  0  0  2  0  0  0  0  0  0
  -28.2890  -12.6040   18.0780 C   0  0  0  0  0  2  0  0  0  0  0  0
  -28.0400  -13.4100   19.3830 C   0  0  0  0  0  3  0  0  0  0  0  0
  -29.2010  -13.1550   20.3540 C   0  0  0  0  0  2  0  0  0  0  0  0
  -30.4000  -13.7140   19.7030 N   0  0  0  0  0  0  0  0  0  0  0  0
  -32.0690  -15.1860   19.3640 O   0  0  0  0  0  0  0  0  0  0  0  0
  -29.6000  -17.2970   21.9330 C   0  0  0  0  0  2  0  0  0  0  0  0
  -29.5110  -15.8390   21.6180 C   0  0  0  0  0  2  0  0  0  0  0  0
  -30.4700  -17.5470   20.7100 C   0  0  0  0  0  3  0  0  0  0  0  0
  -30.1210  -16.0700   20.2950 N   0  0  0  0  0  0  0  0  0  0  0  0
  -25.7490  -13.9790   20.3910 C   0  0  0  0  0  0  0  0  0  0  0  0
  -24.7190  -13.1870   20.8250 C   0  0  0  0  0  0  0  0  0  0  0  0
  -25.1580  -11.8380   20.6580 C   0  0  0  0  0  0  0  0  0  0  0  0
  -26.7450  -13.1040   19.9830 N   0  0  0  0  0  0  0  0  0  0  0  0
  -26.4010  -11.8090   20.1960 N   0  0  0  0  0  0  0  0  0  0  0  0
  -24.4420  -10.5700   20.8530 C   0  0  0  0  0  0  0  0  0  0  0  0
  -24.8760   -9.6170   21.7990 C   0  0  0  0  0  3  0  0  0  0  0  0
  -24.1610   -8.4120   21.9770 C   0  0  0  0  0  3  0  0  0  0  0  0
  -23.0000   -8.1610   21.2060 C   0  0  0  0  0  0  0  0  0  0  0  0
  -22.5880   -9.1070   20.2520 C   0  0  0  0  0  3  0  0  0  0  0  0
  -23.3030  -10.3000   20.0730 C   0  0  0  0  0  3  0  0  0  0  0  0
  -22.2510   -7.0140   21.2950 O   0  0  0  0  0  0  0  0  0  0  0  0
  -22.0480   -6.3750   22.4920 C   0  0  0  0  0  0  0  0  0  0  0  0
  -21.4470   -7.0240   23.5940 C   0  0  0  0  0  3  0  0  0  0  0  0
  -21.1970   -6.3130   24.7860 C   0  0  0  0  0  3  0  0  0  0  0  0
  -21.5410   -4.9520   24.8770 C   0  0  0  0  0  0  0  0  0  0  0  0
  -22.1290   -4.3000   23.7800 C   0  0  0  0  0  3  0  0  0  0  0  0
  -22.3820   -5.0100   22.5930 C   0  0  0  0  0  0  0  0  0  0  0  0
  -22.9330   -4.3710   21.5340 F   0  0  0  0  0  0  0  0  0  0  0  0
  -21.2940   -4.2610   26.0150 F   0  0  0  0  0  0  0  0  0  0  0  0
  -23.3600  -13.6580   21.2600 C   0  0  0  0  0  0  0  0  0  0  0  0
  -22.7200  -12.9220   22.1690 N   0  0  0  0  0  0  0  0  0  0  0  0
  -22.8820  -14.7060   20.8340 O   0  0  0  0  0  0  0  0  0  0  0  0
  -23.1200  -12.0740   22.5380 H   0  0  0  0  0  0  0  0  0  0  0  0
  -21.8090  -13.2140   22.4920 H   0  0  0  0  0  0  0  0  0  0  0  0
  -25.9160  -15.3550   20.2890 N   0  0  0  0  0  0  0  0  0  0  0  0
  -25.1970  -16.0240   20.5450 H   0  0  0  0  0  0  0  0  0  0  0  0
  -26.7580  -15.8020   19.9510 H   0  0  0  0  0  0  0  0  0  0  0  0
  -31.8860  -19.0430   23.2730 C   0  0  0  0  0  2  0  0  0  0  0  0
  -32.3100  -20.3590   22.7010 C   0  0  0  0  0  2  0  0  0  0  0  0
  -30.8460  -19.9840   22.6520 C   0  0  0  0  0  3  0  0  0  0  0  0
  -27.8870  -18.0920   17.8310 C   0  0  0  0  0  1  0  0  0  0  0  0
  -29.3240  -18.6050   17.9320 C   0  0  0  0  0  2  0  0  0  0  0  0
  -29.2780  -23.6510   19.5150 C   0  0  0  0  0  3  0  0  0  0  0  0
  -28.3650  -24.8170   20.2790 C   0  0  0  0  0  3  0  0  0  0  0  0
  -28.5510  -26.3480   20.1440 O   0  0  0  0  0  0  0  0  0  0  0  0
  -24.7720  -31.9050   23.1640 C   0  0  0  0  0  0  0  0  0  0  0  0
  -27.4490  -27.2680   20.1360 C   0  0  0  0  0  0  0  0  0  0  0  0
  -23.6010  -30.4990   21.5110 C   0  0  0  0  0  3  0  0  0  0  0  0
  -25.0820  -28.9440   20.0940 C   0  0  0  0  0  0  0  0  0  0  0  0
  -26.1450  -30.8080   21.3580 C   0  0  0  0  0  2  0  0  0  0  0  0
  -26.2460  -29.4190   20.7110 C   0  0  0  0  0  0  0  0  0  0  0  0
  -27.4300  -28.5980   20.7130 C   0  0  0  0  0  3  0  0  0  0  0  0
  -26.2560  -26.8810   19.4840 C   0  0  0  0  0  3  0  0  0  0  0  0
  -25.1010  -27.6920   19.4600 C   0  0  0  0  0  3  0  0  0  0  0  0
  -23.8370  -29.8160   20.1350 C   0  0  0  0  0  2  0  0  0  0  0  0
  -24.8590  -31.0930   22.0680 N   0  0  0  0  0  0  0  0  0  0  0  0
  -23.6810  -32.1680   23.6960 O   0  0  0  0  0  0  0  0  0  0  0  0
  -22.9330  -29.4830   22.4690 C   0  0  0  0  0  0  0  0  0  0  0  0
  -21.6050  -29.3080   22.3450 N   0  0  0  0  0  0  0  0  0  0  0  0
  -23.6120  -28.8560   23.2850 O   0  0  0  0  0  0  0  0  0  0  0  0
  -21.1150  -29.8660   21.6590 H   0  0  0  0  0  0  0  0  0  0  0  0
  -18.2340  -28.0960   22.8720 C   0  0  0  0  0  0  0  0  0  0  0  0
  -20.7940  -28.3580   23.1110 C   0  0  0  0  0  3  0  0  0  0  0  0
  -20.8910  -26.9330   22.5210 C   0  0  0  0  0  2  0  0  0  0  0  0
  -19.7790  -26.6210   21.5140 C   0  0  0  0  0  2  0  0  0  0  0  0
  -18.4040  -26.7560   22.1750 C   0  0  0  0  0  2  0  0  0  0  0  0
  -19.3570  -28.8530   23.2990 C   0  0  0  0  0  0  0  0  0  0  0  0
  -19.1450  -30.1040   23.9160 C   0  0  0  0  0  3  0  0  0  0  0  0
  -17.8430  -30.6010   24.1070 C   0  0  0  0  0  3  0  0  0  0  0  0
  -16.7330  -29.8420   23.6920 C   0  0  0  0  0  3  0  0  0  0  0  0
  -16.9300  -28.5910   23.0800 C   0  0  0  0  0  3  0  0  0  0  0  0
  -26.0380  -32.5590   23.8000 C   0  0  0  0  0  3  0  0  0  0  0  0
  -26.5500  -31.7960   25.0830 C   0  0  1  0  0  0  0  0  0  0  0  0
  -25.4440  -31.5230   26.1290 C   0  0  0  0  0  1  0  0  0  0  0  0
  -27.1790  -30.4360   24.7010 C   0  0  0  0  0  1  0  0  0  0  0  0
  -27.6680  -32.6140   25.7700 C   0  0  0  0  0  1  0  0  0  0  0  0
  -25.7090  -33.9550   24.1330 N   0  0  0  0  0  0  0  0  0  0  0  0
  -26.0390  -35.0170   23.3860 C   0  0  0  0  0  0  0  0  0  0  0  0
  -26.7230  -34.9260   22.3620 O   0  0  0  0  0  0  0  0  0  0  0  0
  -25.1000  -34.0940   24.9270 H   0  0  0  0  0  0  0  0  0  0  0  0
  -24.3010  -36.8000   23.0120 C   0  0  0  0  0  1  0  0  0  0  0  0
  -25.5320  -36.3990   23.8430 C   0  0  0  0  0  3  0  0  0  0  0  0
  -27.6440  -37.2990   24.7170 C   0  0  0  0  0  1  0  0  0  0  0  0
  -26.5580  -37.4590   23.7530 N   0  0  0  0  0  0  0  0  0  0  0  0
  -26.1430  -38.3770   23.8910 H   0  0  0  0  0  0  0  0  0  0  0  0
  1  3  1  0
  2  6  2  0
  2  5  1  0
  3 49  1  0
  4  3  2  0
  5  1  2  0
  6  4  1  0
  7 18  1  0
  8 13  1  0
  9 10  1  0
  9  8  1  0
 11 10  1  0
 11 22  1  0
 11 12  1  0
 13  7  1  0
 13 12  1  0
 14  7  2  0
 16 15  1  0
 17  4  1  0
 17 15  1  0
 18 17  1  0
 18 16  1  0
 19 20  2  0
 20 39  1  0
 21 20  1  0
 21 24  1  0
 22 23  1  0
 22 19  1  0
 23 21  2  0
 24 25  1  0
 25 26  2  0
 27 30  1  0
 27 26  1  0
 28 27  2  0
 29 28  1  0
 29 24  2  0
 30 31  1  0
 31 36  2  0
 31 32  1  0
 32 33  2  0
 33 34  1  0
 34 38  1  0
 35 34  2  0
 36 35  1  0
 37 36  1  0
 39 40  1  0
 40 43  1  0
 40 42  1  0
 41 39  2  0
 44 19  1  0
 44 45  1  0
 46 44  1  0
 48 47  1  0
 49 48  1  0
 49 47  1  0
 50 51  1  0
 51  6  1  0
 52  5  1  0
 52 53  2  0
 54 53  1  0
 55 66  2  0
 56 54  1  0
 56 61  1  0
 57 65  1  0
 57 67  1  0
 58 64  1  0
 58 60  1  0
 59 65  1  0
 60 61  2  0
 60 59  1  0
 62 56  2  0
 63 62  1  0
 63 58  2  0
 64 57  1  0
 65 55  1  0
 67 69  2  0
 68 67  1  0
 70 68  1  0
 71 80  2  0
 71 76  1  0
 72 68  1  0
 72 76  1  0
 73 72  1  0
 74 75  1  0
 74 73  1  0
 75 71  1  0
 76 77  2  0
 77 78  1  0
 79 78  2  0
 80 79  1  0
 81 55  1  0
 81 86  1  0
 81 82  1  0
 82 85  1  1
 82 83  1  0
 84 82  1  0
 86 89  1  0
 87 91  1  0
 87 86  1  0
 88 87  2  0
 91 90  1  0
 93 91  1  0
 93 94  1  0
 93 92  1  0
M  ISO  4   7 100  18 100  53 101  54 101
M  END
>  <TORSDO>  (77) 
F 20

>  <SCORE>  (77) 
-12.246

>  <name>  (77) 
77

>  <ligand_id>  (77) 
77

>  <original_smiles>  (77) 
[H]c1c([H])c([H])c2c(c1[H])C([H])([H])C([H])([H])C([H])([H])C2([H])N([H])C(=O)C1([H])N(C(=O)C([H])(N([H])C(=O)C([H])(N([H])C([H])([H])[H])C([H])([H])[H])C(C([H])([H])[H])(C([H])([H])[H])C([H])([H])[H])C([H])([H])c2c([H])c(OC([H])([H])C([H])([H])c3c([H])c(C([H])([H])C([H])([H])[H])c(C4([H])N(C(=O)N5C([H])([H])C([H])([H])C([H])([H])C([H])(n6nc(-c7c([H])c([H])c(Oc8c([H])c([H])c(F)c([H])c8F)c([H])c7[H])c(C(=O)N([H])[H])c6N([H])[H])C5([H])[H])C([H])([H])C4([H])[H])c(C4([H])C([H])([H])C4([H])[H])c3[H])c([H])c([H])c2C1([H])[H]

>  <smiles>  (77) 
[H]c1c([H])c([H])c2c(c1[H])C([H])([H])C([H])([H])C([H])([H])C2([H])N([H])C(=O)C1([H])N(C(=O)C([H])(N([H])C(=O)C([H])(N([H])C([H])([H])[H])C([H])([H])[H])C(C([H])([H])[H])(C([H])([H])[H])C([H])([H])[H])C([H])([H])c2c([H])c(OC([H])([H])C([H])([H])c3c([H])c(C([H])([H])C([H])([H])[H])c(C4([H])N(C(=O)N5C([H])([H])C([H])([H])C([H])([H])C([H])(n6nc(-c7c([H])c([H])c(Oc8c([H])c([H])c(F)c([H])c8F)c([H])c7[H])c(C(=O)N([H])[H])c6N([H])[H])C5([H])[H])C([H])([H])C4([H])[H])c(C4([H])C([H])([H])C4([H])[H])c3[H])c([H])c([H])c2C1([H])[H]

$$$$
78:0:0
     RDKit          3D

102103  0  0  1  0  0  0  0  0999 V2000
  -33.4870  -26.7200   18.3440 C   0  0  0  0  0  3  0  0  0  0  0  0
  -33.8170  -24.3290   18.4660 C   0  0  0  0  0  3  0  0  0  0  0  0
  -34.2250  -25.6190   18.8240 C   0  0  0  0  0  0  0  0  0  0  0  0
  -32.2620  -25.2440   16.8130 C   0  0  0  0  0  0  0  0  0  0  0  0
  -32.4610  -26.5260   17.3830 C   0  0  0  0  0  0  0  0  0  0  0  0
  -32.7270  -24.1710   17.5860 C   0  0  0  0  0  0  0  0  0  0  0  0
  -35.3480  -25.7770   19.8310 C   0  0  0  0  0  1  0  0  0  0  0  0
  -32.0190  -23.6780   14.7790 C   0  0  0  0  0  1  0  0  0  0  0  0
  -31.8620  -26.1250   14.4530 C   0  0  0  0  0  1  0  0  0  0  0  0
  -31.5630  -24.9930   15.4590 C   0  0  0  0  0  3  0  0  0  0  0  0
  -31.5540  -27.5370   17.1770 O   0  0  0  0  0  0  0  0  0  0  0  0
  -30.2030  -27.1900   17.5590 C   0  0  0  0  0  2  0  0  0  0  0  0
  -30.0690  -26.6430   19.0260 C   0  0  0  0  0  2  0  0  0  0  0  0
  -29.1480  -22.4900   21.5430 C   0  0  0  0  0 15  0  0  0  0  0  0
  -27.8240  -22.1820   18.9150 C   0  0  0  0  0 15  0  0  0  0  0  0
  -29.9870  -24.4540   21.0780 C   0  0  0  0  0 15  0  0  0  0  0  0
  -28.5510  -24.1350   18.1100 C   0  0  0  0  0 15  0  0  0  0  0  0
  -28.6770  -20.8160   20.3220 C   0  0  0  0  0 15  0  0  0  0  0  0
  -29.8000  -25.1660   19.2370 N   0  0  0  0  0  2  0  0  0  0  0  0
  -30.6580  -24.8240   18.8310 H   0  0  0  0  0  0  0  0  0  0  0  0
  -29.8490  -16.9900   20.4500 C   0  0  0  0  0  0  0  0  0  0  0  0
  -30.3630  -14.1630   19.8180 C   0  0  0  0  0  2  0  0  0  0  0  0
  -29.7330  -13.1870   18.7250 C   0  0  0  0  0  2  0  0  0  0  0  0
  -28.3930  -12.5840   19.1530 C   0  0  0  0  0  2  0  0  0  0  0  0
  -27.6450  -13.6350   19.9850 C   0  0  0  0  0  3  0  0  0  0  0  0
  -28.4970  -14.4510   21.0390 C   0  0  0  0  0  2  0  0  0  0  0  0
  -29.4850  -15.4160   20.3480 N   0  0  0  0  0  0  0  0  0  0  0  0
  -31.1030  -16.7540   20.5020 O   0  0  0  0  0  0  0  0  0  0  0  0
  -29.0740  -18.6500   20.3590 N   0  0  0  0  0  2  0  0  0  0  0  0
  -28.1270  -18.3140   20.2240 H   0  0  0  0  0  0  0  0  0  0  0  0
  -25.2320  -14.0100   20.5950 C   0  0  0  0  0  0  0  0  0  0  0  0
  -24.1840  -13.1980   20.9060 C   0  0  0  0  0  0  0  0  0  0  0  0
  -24.7030  -11.8650   20.9350 C   0  0  0  0  0  0  0  0  0  0  0  0
  -26.3300  -13.1910   20.4530 N   0  0  0  0  0  0  0  0  0  0  0  0
  -26.0230  -11.8820   20.7080 N   0  0  0  0  0  0  0  0  0  0  0  0
  -23.9850  -10.5870   21.1030 C   0  0  0  0  0  0  0  0  0  0  0  0
  -24.3800   -9.6320   22.0650 C   0  0  0  0  0  3  0  0  0  0  0  0
  -23.6480   -8.4350   22.2330 C   0  0  0  0  0  3  0  0  0  0  0  0
  -22.5060   -8.1810   21.4360 C   0  0  0  0  0  0  0  0  0  0  0  0
  -22.1280   -9.1250   20.4640 C   0  0  0  0  0  3  0  0  0  0  0  0
  -22.8620  -10.3120   20.2950 C   0  0  0  0  0  3  0  0  0  0  0  0
  -21.7510   -7.0330   21.5080 O   0  0  0  0  0  0  0  0  0  0  0  0
  -21.6870   -6.2800   22.6540 C   0  0  0  0  0  0  0  0  0  0  0  0
  -21.2670   -6.8320   23.8840 C   0  0  0  0  0  3  0  0  0  0  0  0
  -21.1500   -6.0100   25.0220 C   0  0  0  0  0  3  0  0  0  0  0  0
  -21.4410   -4.6350   24.9320 C   0  0  0  0  0  0  0  0  0  0  0  0
  -21.8510   -4.0820   23.7070 C   0  0  0  0  0  3  0  0  0  0  0  0
  -21.9700   -4.9010   22.5710 C   0  0  0  0  0  0  0  0  0  0  0  0
  -22.3460   -4.3580   21.3880 F   0  0  0  0  0  0  0  0  0  0  0  0
  -21.3220   -3.8430   26.0230 F   0  0  0  0  0  0  0  0  0  0  0  0
  -22.7600  -13.6430   21.0590 C   0  0  0  0  0  0  0  0  0  0  0  0
  -21.9930  -12.9550   21.8980 N   0  0  0  0  0  0  0  0  0  0  0  0
  -22.3350  -14.6370   20.4710 O   0  0  0  0  0  0  0  0  0  0  0  0
  -22.3570  -12.1520   22.3900 H   0  0  0  0  0  0  0  0  0  0  0  0
  -21.0340  -13.2310   22.0520 H   0  0  0  0  0  0  0  0  0  0  0  0
  -25.3370  -15.3820   20.3840 N   0  0  0  0  0  0  0  0  0  0  0  0
  -24.5190  -15.9820   20.4230 H   0  0  0  0  0  0  0  0  0  0  0  0
  -26.1730  -15.8630   20.0750 H   0  0  0  0  0  0  0  0  0  0  0  0
  -31.8940  -23.0990   17.6930 O   0  0  0  0  0  0  0  0  0  0  0  0
  -31.4530  -22.9020   19.0350 C   0  0  0  0  0  2  0  0  0  0  0  0
  -29.8440  -22.7810   19.2150 C   0  0  0  0  0  1  0  0  0  0  0  0
  -27.9220  -24.2970   20.1550 O   0  0  0  0  0  1  0  0  0  0  0  0
  -24.5950  -31.6940   23.0040 C   0  0  0  0  0  0  0  0  0  0  0  0
  -27.1810  -25.9590   20.1150 C   0  0  0  0  0  0  0  0  0  0  0  0
  -23.4540  -30.2410   21.3930 C   0  0  0  0  0  3  0  0  0  0  0  0
  -24.9370  -28.4500   20.0440 C   0  0  0  0  0  0  0  0  0  0  0  0
  -26.0560  -30.1790   21.3830 C   0  0  0  0  0  2  0  0  0  0  0  0
  -26.1340  -28.6650   20.7360 C   0  0  0  0  0  0  0  0  0  0  0  0
  -27.1790  -27.4680   20.7520 C   0  0  0  0  0  3  0  0  0  0  0  0
  -25.9250  -26.1600   19.3870 C   0  0  0  0  0  3  0  0  0  0  0  0
  -24.9150  -27.2250   19.3460 C   0  0  0  0  0  3  0  0  0  0  0  0
  -23.7430  -29.4680   20.0590 C   0  0  0  0  0  2  0  0  0  0  0  0
  -24.7320  -30.7590   21.9720 N   0  0  0  0  0  0  0  0  0  0  0  0
  -23.4840  -32.0200   23.4730 O   0  0  0  0  0  0  0  0  0  0  0  0
  -22.6720  -29.3410   22.3940 C   0  0  0  0  0  0  0  0  0  0  0  0
  -21.3290  -29.2490   22.3000 N   0  0  0  0  0  0  0  0  0  0  0  0
  -23.3030  -28.7110   23.2440 O   0  0  0  0  0  0  0  0  0  0  0  0
  -20.8510  -29.8040   21.6040 H   0  0  0  0  0  0  0  0  0  0  0  0
  -17.9190  -28.1050   22.9070 C   0  0  0  0  0  0  0  0  0  0  0  0
  -20.4920  -28.3350   23.0990 C   0  0  0  0  0  3  0  0  0  0  0  0
  -20.5490  -26.8960   22.5300 C   0  0  0  0  0  2  0  0  0  0  0  0
  -19.4190  -26.5980   21.5400 C   0  0  0  0  0  2  0  0  0  0  0  0
  -18.0550  -26.7590   22.2170 C   0  0  0  0  0  2  0  0  0  0  0  0
  -19.0590  -28.8520   23.3100 C   0  0  0  0  0  0  0  0  0  0  0  0
  -18.8670  -30.1050   23.9290 C   0  0  0  0  0  3  0  0  0  0  0  0
  -17.5710  -30.6110   24.1480 C   0  0  0  0  0  3  0  0  0  0  0  0
  -16.4470  -29.8610   23.7580 C   0  0  0  0  0  3  0  0  0  0  0  0
  -16.6230  -28.6130   23.1380 C   0  0  0  0  0  3  0  0  0  0  0  0
  -25.8180  -32.4070   23.6590 C   0  0  0  0  0  3  0  0  0  0  0  0
  -25.4420  -33.8010   24.0130 N   0  0  0  0  0  0  0  0  0  0  0  0
  -25.7610  -34.9030   23.3190 C   0  0  0  0  0  0  0  0  0  0  0  0
  -26.4390  -34.8610   22.2910 O   0  0  0  0  0  0  0  0  0  0  0  0
  -24.8250  -33.8990   24.8040 H   0  0  0  0  0  0  0  0  0  0  0  0
  -23.9870  -36.6850   23.0900 C   0  0  0  0  0  1  0  0  0  0  0  0
  -25.2570  -36.2660   23.8480 C   0  0  0  0  0  3  0  0  0  0  0  0
  -27.3910  -37.1820   24.6610 C   0  0  0  0  0  1  0  0  0  0  0  0
  -26.2580  -37.3540   23.7550 N   0  0  0  0  0  0  0  0  0  0  0  0
  -25.8310  -38.2530   23.9560 H   0  0  0  0  0  0  0  0  0  0  0  0
  -26.3320  -31.6800   24.9700 C   0  0  1  0  0  0  0  0  0  0  0  0
  -25.2280  -31.4480   26.0290 C   0  0  0  0  0  1  0  0  0  0  0  0
  -26.9460  -30.3040   24.6440 C   0  0  0  0  0  1  0  0  0  0  0  0
  -27.4560  -32.5080   25.6370 C   0  0  0  0  0  1  0  0  0  0  0  0
  1  3  1  0
  2  3  2  0
  3  7  1  0
  4  5  1  0
  4  6  2  0
  5  1  2  0
  6 59  1  0
  6  2  1  0
  8 10  1  0
  9 10  1  0
 10  4  1  0
 11  5  1  0
 11 12  1  0
 12 13  1  0
 13 19  1  0
 20 19  1  0
 21 28  2  0
 22 27  1  0
 23 24  1  0
 23 22  1  0
 25 24  1  0
 25 34  1  0
 25 26  1  0
 27 21  1  0
 27 26  1  0
 29 21  1  0
 30 29  1  0
 31 32  2  0
 32 33  1  0
 32 51  1  0
 33 36  1  0
 34 31  1  0
 34 35  1  0
 35 33  2  0
 36 37  1  0
 37 38  2  0
 39 42  1  0
 39 38  1  0
 40 39  2  0
 41 40  1  0
 41 36  2  0
 42 43  1  0
 43 44  1  0
 44 45  2  0
 46 45  1  0
 46 50  1  0
 47 46  2  0
 48 43  2  0
 48 47  1  0
 49 48  1  0
 51 52  1  0
 52 55  1  0
 52 54  1  0
 53 51  2  0
 56 57  1  0
 56 31  1  0
 58 56  1  0
 59 60  1  0
 60 61  1  0
 63 74  2  0
 64 62  1  0
 64 69  1  0
 65 73  1  0
 65 75  1  0
 66 72  1  0
 66 68  1  0
 67 73  1  0
 68 69  2  0
 68 67  1  0
 70 64  2  0
 71 70  1  0
 71 66  2  0
 72 65  1  0
 73 63  1  0
 75 77  2  0
 76 75  1  0
 78 76  1  0
 79 88  2  0
 79 84  1  0
 80 76  1  0
 80 84  1  0
 81 80  1  0
 82 83  1  0
 82 81  1  0
 83 79  1  0
 84 85  2  0
 85 86  1  0
 87 86  2  0
 88 87  1  0
 89 63  1  0
 89 90  1  0
 89 99  1  0
 90 93  1  0
 91 95  1  0
 91 90  1  0
 92 91  2  0
 95 94  1  0
 97 95  1  0
 97 98  1  0
 97 96  1  0
 99102  1  1
 99100  1  0
101 99  1  0
M  ISO  4  21 100  29 100  61 101  62 101
M  END
>  <TORSDO>  (78) 
F 24

>  <SCORE>  (78) 
-13.444

>  <name>  (78) 
78

>  <ligand_id>  (78) 
78

>  <original_smiles>  (78) 
[H]c1c([H])c([H])c2c(c1[H])C([H])([H])C([H])([H])C([H])([H])C2([H])N([H])C(=O)C1([H])N(C(=O)C([H])(N([H])C(=O)C([H])(N([H])C([H])([H])[H])C([H])([H])[H])C(C([H])([H])[H])(C([H])([H])[H])C([H])([H])[H])C([H])([H])c2c([H])c(OC([H])([H])C([H])([H])Oc3c([H])c(C([H])([H])[H])c([H])c(OC([H])([H])C([H])([H])[N+]4([H])C([H])([H])C([H])([H])C([H])(N([H])C(=O)N5C([H])([H])C([H])([H])C([H])([H])C([H])(n6nc(-c7c([H])c([H])c(Oc8c([H])c([H])c(F)c([H])c8F)c([H])c7[H])c(C(=O)N([H])[H])c6N([H])[H])C5([H])[H])C([H])([H])C4([H])[H])c3C([H])(C([H])([H])[H])C([H])([H])[H])c([H])c([H])c2C1([H])[H]

>  <smiles>  (78) 
[H]c1c([H])c([H])c2c(c1[H])C([H])([H])C([H])([H])C([H])([H])C2([H])N([H])C(=O)C1([H])N(C(=O)C([H])(N([H])C(=O)C([H])(N([H])C([H])([H])[H])C([H])([H])[H])C(C([H])([H])[H])(C([H])([H])[H])C([H])([H])[H])C([H])([H])c2c([H])c(OC([H])([H])C([H])([H])Oc3c([H])c(C([H])([H])[H])c([H])c(OC([H])([H])C([H])([H])[N+]4([H])C([H])([H])C([H])([H])C([H])(N([H])C(=O)N5C([H])([H])C([H])([H])C([H])([H])C([H])(n6nc(-c7c([H])c([H])c(Oc8c([H])c([H])c(F)c([H])c8F)c([H])c7[H])c(C(=O)N([H])[H])c6N([H])[H])C5([H])[H])C([H])([H])C4([H])[H])c3C([H])(C([H])([H])[H])C([H])([H])[H])c([H])c([H])c2C1([H])[H]

$$$$
79:0:0
     RDKit          3D

 94103  0  0  1  0  0  0  0  0999 V2000
  -29.5130  -20.8100   20.6530 C   0  0  0  0  0  3  0  0  0  0  0  0
  -32.0070  -21.7970   21.4320 C   0  0  0  0  0  3  0  0  0  0  0  0
  -30.5980  -19.8990   20.7850 C   0  0  0  0  0  0  0  0  0  0  0  0
  -31.8630  -20.4220   21.1590 C   0  0  0  0  0  0  0  0  0  0  0  0
  -30.9250  -22.6880   21.3200 C   0  0  0  0  0  0  0  0  0  0  0  0
  -29.6660  -22.2040   20.8740 C   0  0  0  0  0  0  0  0  0  0  0  0
  -33.0970  -19.5430   21.2900 C   0  0  0  0  0  1  0  0  0  0  0  0
  -31.1620  -24.1280   21.7570 C   0  0  0  0  0  1  0  0  0  0  0  0
  -30.7000  -14.5310   19.9350 C   0  0  0  0  0  0  0  0  0  0  0  0
  -30.4040  -12.3340   18.8590 C   0  0  0  0  0  2  0  0  0  0  0  0
  -29.3610  -12.4920   17.7300 C   0  0  0  0  0  2  0  0  0  0  0  0
  -27.9300  -12.3140   18.2770 C   0  0  0  0  0  2  0  0  0  0  0  0
  -27.6670  -13.1500   19.5590 C   0  0  0  0  0  3  0  0  0  0  0  0
  -28.8170  -12.9760   20.5760 C   0  0  0  0  0  2  0  0  0  0  0  0
  -30.0730  -13.3220   19.8960 N   0  0  0  0  0  0  0  0  0  0  0  0
  -31.8180  -14.7040   19.4360 O   0  0  0  0  0  0  0  0  0  0  0  0
  -30.2180  -17.5030   21.7510 C   0  0  0  0  0  2  0  0  0  0  0  0
  -29.4060  -18.0100   19.4260 C   0  0  0  0  0  2  0  0  0  0  0  0
  -29.5400  -16.1370   21.4470 C   0  0  0  0  0  2  0  0  0  0  0  0
  -29.6400  -16.5410   18.9920 C   0  0  0  0  0  2  0  0  0  0  0  0
  -30.4350  -18.3890   20.4990 C   0  0  0  0  0  3  0  0  0  0  0  0
  -29.8750  -15.5990   20.1140 N   0  0  0  0  0  0  0  0  0  0  0  0
  -25.3340  -13.6950   20.4950 C   0  0  0  0  0  0  0  0  0  0  0  0
  -24.3150  -12.8920   20.9350 C   0  0  0  0  0  0  0  0  0  0  0  0
  -24.7920  -11.5510   20.8200 C   0  0  0  0  0  0  0  0  0  0  0  0
  -26.3670  -12.8380   20.1480 N   0  0  0  0  0  0  0  0  0  0  0  0
  -26.0500  -11.5430   20.3990 N   0  0  0  0  0  0  0  0  0  0  0  0
  -24.1060  -10.2700   21.0320 C   0  0  0  0  0  0  0  0  0  0  0  0
  -24.5770   -9.3260   21.9700 C   0  0  0  0  0  3  0  0  0  0  0  0
  -23.8870   -8.1100   22.1680 C   0  0  0  0  0  3  0  0  0  0  0  0
  -22.7160   -7.8300   21.4270 C   0  0  0  0  0  0  0  0  0  0  0  0
  -22.2660   -8.7620   20.4760 C   0  0  0  0  0  3  0  0  0  0  0  0
  -22.9560   -9.9700   20.2760 C   0  0  0  0  0  3  0  0  0  0  0  0
  -21.9940   -6.6650   21.5360 O   0  0  0  0  0  0  0  0  0  0  0  0
  -21.8870   -5.9920   22.7260 C   0  0  0  0  0  0  0  0  0  0  0  0
  -21.3050   -6.5860   23.8680 C   0  0  0  0  0  3  0  0  0  0  0  0
  -21.1520   -5.8370   25.0510 C   0  0  0  0  0  3  0  0  0  0  0  0
  -21.5700   -4.4930   25.0940 C   0  0  0  0  0  0  0  0  0  0  0  0
  -22.1430   -3.8970   23.9570 C   0  0  0  0  0  3  0  0  0  0  0  0
  -22.2990   -4.6440   22.7750 C   0  0  0  0  0  0  0  0  0  0  0  0
  -22.8310   -4.0590   21.6760 F   0  0  0  0  0  0  0  0  0  0  0  0
  -21.4160   -3.7700   26.2280 F   0  0  0  0  0  0  0  0  0  0  0  0
  -22.9400  -13.3340   21.3470 C   0  0  0  0  0  0  0  0  0  0  0  0
  -22.3070  -12.6000   22.2570 N   0  0  0  0  0  0  0  0  0  0  0  0
  -22.4390  -14.3630   20.8970 O   0  0  0  0  0  0  0  0  0  0  0  0
  -22.7270  -11.7670   22.6380 H   0  0  0  0  0  0  0  0  0  0  0  0
  -21.3900  -12.8780   22.5750 H   0  0  0  0  0  0  0  0  0  0  0  0
  -25.4610  -15.0730   20.3420 N   0  0  0  0  0  0  0  0  0  0  0  0
  -24.7000  -15.7160   20.5320 H   0  0  0  0  0  0  0  0  0  0  0  0
  -26.2750  -15.5280   19.9490 H   0  0  0  0  0  0  0  0  0  0  0  0
  -28.5470  -23.0050   20.7240 O   0  0  0  0  0  0  0  0  0  0  0  0
  -28.5990  -24.1460   19.8500 C   0  0  0  0  0  2  0  0  0  0  0  0
  -27.8650  -25.3270   20.5240 C   0  0  0  0  0  2  0  0  0  0  0  0
  -28.0240  -26.5890   19.8510 O   0  0  0  0  0  0  0  0  0  0  0  0
  -24.5830  -31.8460   23.2150 C   0  0  0  0  0  0  0  0  0  0  0  0
  -26.9070  -27.3940   19.9050 C   0  0  0  0  0  0  0  0  0  0  0  0
  -23.2470  -30.5250   21.6070 C   0  0  0  0  0  3  0  0  0  0  0  0
  -24.5730  -28.9810   20.0690 C   0  0  0  0  0  0  0  0  0  0  0  0
  -25.7690  -30.8080   21.2830 C   0  0  0  0  0  2  0  0  0  0  0  0
  -25.7790  -29.4520   20.6070 C   0  0  0  0  0  0  0  0  0  0  0  0
  -26.9520  -28.6670   20.5210 C   0  0  0  0  0  3  0  0  0  0  0  0
  -25.6890  -26.9440   19.3500 C   0  0  0  0  0  3  0  0  0  0  0  0
  -24.5230  -27.7270   19.4360 C   0  0  0  0  0  3  0  0  0  0  0  0
  -23.3610  -29.8770   20.2030 C   0  0  0  0  0  2  0  0  0  0  0  0
  -24.5540  -31.0720   22.0920 N   0  0  0  0  0  0  0  0  0  0  0  0
  -23.5400  -32.1410   23.8150 O   0  0  0  0  0  0  0  0  0  0  0  0
  -22.6120  -29.5010   22.5760 C   0  0  0  0  0  0  0  0  0  0  0  0
  -21.2850  -29.3240   22.4720 N   0  0  0  0  0  0  0  0  0  0  0  0
  -23.3090  -28.8690   23.3740 O   0  0  0  0  0  0  0  0  0  0  0  0
  -20.7830  -29.8810   21.7950 H   0  0  0  0  0  0  0  0  0  0  0  0
  -17.9250  -28.1020   22.9920 C   0  0  0  0  0  0  0  0  0  0  0  0
  -20.4800  -28.3880   23.2580 C   0  0  0  0  0  3  0  0  0  0  0  0
  -20.5970  -26.9510   22.6990 C   0  0  0  0  0  2  0  0  0  0  0  0
  -19.4970  -26.6050   21.6890 C   0  0  0  0  0  2  0  0  0  0  0  0
  -18.1140  -26.7470   22.3310 C   0  0  0  0  0  2  0  0  0  0  0  0
  -19.0370  -28.8800   23.4110 C   0  0  0  0  0  0  0  0  0  0  0  0
  -18.8060  -30.1490   23.9840 C   0  0  0  0  0  3  0  0  0  0  0  0
  -17.4980  -30.6400   24.1430 C   0  0  0  0  0  3  0  0  0  0  0  0
  -16.4000  -29.8600   23.7410 C   0  0  0  0  0  3  0  0  0  0  0  0
  -16.6150  -28.5920   23.1710 C   0  0  0  0  0  3  0  0  0  0  0  0
  -25.9190  -32.4200   23.7790 C   0  0  0  0  0  3  0  0  0  0  0  0
  -26.4660  -31.6110   25.0190 C   0  0  1  0  0  0  0  0  0  0  0  0
  -25.4150  -31.3910   26.1310 C   0  0  0  0  0  1  0  0  0  0  0  0
  -26.9840  -30.2230   24.5790 C   0  0  0  0  0  1  0  0  0  0  0  0
  -27.6750  -32.3550   25.6360 C   0  0  0  0  0  1  0  0  0  0  0  0
  -25.6800  -33.8240   24.1350 N   0  0  0  0  0  0  0  0  0  0  0  0
  -26.0360  -34.8710   23.3790 C   0  0  0  0  0  0  0  0  0  0  0  0
  -26.6710  -34.7520   22.3270 O   0  0  0  0  0  0  0  0  0  0  0  0
  -25.1150  -33.9950   24.9540 H   0  0  0  0  0  0  0  0  0  0  0  0
  -24.3920  -36.7500   23.0740 C   0  0  0  0  0  1  0  0  0  0  0  0
  -25.6200  -36.2730   23.8660 C   0  0  0  0  0  3  0  0  0  0  0  0
  -27.7950  -37.0450   24.6990 C   0  0  0  0  0  1  0  0  0  0  0  0
  -26.7010  -37.2760   23.7620 N   0  0  0  0  0  0  0  0  0  0  0  0
  -26.3400  -38.2140   23.9220 H   0  0  0  0  0  0  0  0  0  0  0  0
  1  3  2  0
  1  6  1  0
  3  4  1  0
  4  7  1  0
  4  2  2  0
  5  2  1  0
  5  8  1  0
  6  5  2  0
  9 22  1  0
 10 15  1  0
 11 12  1  0
 11 10  1  0
 13 12  1  0
 13 26  1  0
 13 14  1  0
 15  9  1  0
 15 14  1  0
 16  9  2  0
 18 21  1  0
 19 17  1  0
 20 18  1  0
 20 22  1  0
 21  3  1  0
 21 17  1  0
 22 19  1  0
 23 24  2  0
 24 43  1  0
 25 24  1  0
 25 28  1  0
 26 27  1  0
 26 23  1  0
 27 25  2  0
 28 29  1  0
 29 30  2  0
 31 34  1  0
 31 30  1  0
 32 31  2  0
 33 32  1  0
 33 28  2  0
 34 35  1  0
 35 40  2  0
 35 36  1  0
 36 37  2  0
 37 38  1  0
 38 42  1  0
 39 38  2  0
 40 39  1  0
 41 40  1  0
 43 44  1  0
 44 47  1  0
 44 46  1  0
 45 43  2  0
 48 23  1  0
 48 49  1  0
 50 48  1  0
 51  6  1  0
 52 53  1  0
 52 51  1  0
 54 56  1  0
 54 53  1  0
 55 66  2  0
 56 61  1  0
 57 65  1  0
 57 67  1  0
 58 64  1  0
 58 60  1  0
 59 65  1  0
 60 59  1  0
 61 60  2  0
 62 63  1  0
 62 56  2  0
 63 58  2  0
 64 57  1  0
 65 55  1  0
 67 69  2  0
 68 67  1  0
 70 68  1  0
 71 80  2  0
 71 76  1  0
 72 68  1  0
 72 76  1  0
 73 72  1  0
 74 75  1  0
 74 73  1  0
 75 71  1  0
 76 77  2  0
 77 78  1  0
 79 78  2  0
 80 79  1  0
 81 55  1  0
 81 86  1  0
 81 82  1  0
 82 85  1  1
 82 83  1  0
 84 82  1  0
 86 89  1  0
 87 91  1  0
 87 86  1  0
 88 87  2  0
 91 90  1  0
 93 91  1  0
 93 94  1  0
 93 92  1  0
M  ISO  4   9 100  22 100  53 101  54 101
M  END
>  <TORSDO>  (79) 
F 19

>  <SCORE>  (79) 
-13.198

>  <name>  (79) 
79

>  <ligand_id>  (79) 
79

>  <original_smiles>  (79) 
[H]c1c([H])c([H])c2c(c1[H])C([H])([H])C([H])([H])C([H])([H])C2([H])N([H])C(=O)C1([H])N(C(=O)C([H])(N([H])C(=O)C([H])(N([H])C([H])([H])[H])C([H])([H])[H])C(C([H])([H])[H])(C([H])([H])[H])C([H])([H])[H])C([H])([H])c2c([H])c(OC([H])([H])C([H])([H])Oc3c([H])c(C4([H])C([H])([H])C([H])([H])N(C(=O)N5C([H])([H])C([H])([H])C([H])([H])C([H])(n6nc(-c7c([H])c([H])c(Oc8c([H])c([H])c(F)c([H])c8F)c([H])c7[H])c(C(=O)N([H])[H])c6N([H])[H])C5([H])[H])C([H])([H])C4([H])[H])c(C([H])([H])[H])c([H])c3C([H])([H])[H])c([H])c([H])c2C1([H])[H]

>  <smiles>  (79) 
[H]c1c([H])c([H])c2c(c1[H])C([H])([H])C([H])([H])C([H])([H])C2([H])N([H])C(=O)C1([H])N(C(=O)C([H])(N([H])C(=O)C([H])(N([H])C([H])([H])[H])C([H])([H])[H])C(C([H])([H])[H])(C([H])([H])[H])C([H])([H])[H])C([H])([H])c2c([H])c(OC([H])([H])C([H])([H])Oc3c([H])c(C4([H])C([H])([H])C([H])([H])N(C(=O)N5C([H])([H])C([H])([H])C([H])([H])C([H])(n6nc(-c7c([H])c([H])c(Oc8c([H])c([H])c(F)c([H])c8F)c([H])c7[H])c(C(=O)N([H])[H])c6N([H])[H])C5([H])[H])C([H])([H])C4([H])[H])c(C([H])([H])[H])c([H])c3C([H])([H])[H])c([H])c([H])c2C1([H])[H]

$$$$
80:0:0
     RDKit          3D

 93102  0  0  1  0  0  0  0  0999 V2000
  -29.3480  -20.3620   21.7000 C   0  0  0  0  0  3  0  0  0  0  0  0
  -29.3470  -21.7640   21.5470 C   0  0  0  0  0  3  0  0  0  0  0  0
  -29.4350  -21.4870   19.1480 C   0  0  0  0  0  3  0  0  0  0  0  0
  -29.4190  -20.0760   19.2810 C   0  0  0  0  0  0  0  0  0  0  0  0
  -29.3590  -19.4970   20.5810 C   0  0  0  0  0  0  0  0  0  0  0  0
  -29.3460  -22.3460   20.2640 C   0  0  0  0  0  0  0  0  0  0  0  0
  -28.5540  -19.6410   16.8620 C   0  0  0  0  0  2  0  0  0  0  0  0
  -28.3390  -18.3390   17.5900 C   0  0  0  0  0  2  0  0  0  0  0  0
  -29.4540  -19.2680   18.0160 C   0  0  0  0  0  3  0  0  0  0  0  0
  -29.1890  -17.9850   20.8380 C   0  0  0  0  0  2  0  0  0  0  0  0
  -30.3360  -17.0350   20.4100 C   0  0  0  0  0  2  0  0  0  0  0  0
  -30.7980  -14.5930   20.3990 C   0  0  0  0  0  0  0  0  0  0  0  0
  -30.5310  -12.4050   19.3160 C   0  0  0  0  0  2  0  0  0  0  0  0
  -29.5990  -12.6020   18.1010 C   0  0  0  0  0  2  0  0  0  0  0  0
  -28.1250  -12.4450   18.5240 C   0  0  0  0  0  2  0  0  0  0  0  0
  -27.7680  -13.2930   19.7770 C   0  0  0  0  0  3  0  0  0  0  0  0
  -28.8240  -13.1020   20.8920 C   0  0  0  0  0  2  0  0  0  0  0  0
  -30.1480  -13.4020   20.3280 N   0  0  0  0  0  0  0  0  0  0  0  0
  -31.9280  -14.7730   19.9410 O   0  0  0  0  0  0  0  0  0  0  0  0
  -30.0500  -15.6390   20.7880 N   0  0  0  0  0  0  0  0  0  0  0  0
  -29.1410  -15.4290   21.1730 H   0  0  0  0  0  0  0  0  0  0  0  0
  -25.3590  -13.8750   20.4670 C   0  0  0  0  0  0  0  0  0  0  0  0
  -24.2940  -13.0930   20.8300 C   0  0  0  0  0  0  0  0  0  0  0  0
  -24.7690  -11.7470   20.8090 C   0  0  0  0  0  0  0  0  0  0  0  0
  -26.4130  -13.0040   20.2480 N   0  0  0  0  0  0  0  0  0  0  0  0
  -26.0610  -11.7200   20.5110 N   0  0  0  0  0  0  0  0  0  0  0  0
  -24.0540  -10.4770   20.9990 C   0  0  0  0  0  0  0  0  0  0  0  0
  -24.4690   -9.5320   21.9620 C   0  0  0  0  0  3  0  0  0  0  0  0
  -23.7540   -8.3280   22.1410 C   0  0  0  0  0  3  0  0  0  0  0  0
  -22.6100   -8.0600   21.3520 C   0  0  0  0  0  0  0  0  0  0  0  0
  -22.2130   -8.9930   20.3770 C   0  0  0  0  0  3  0  0  0  0  0  0
  -22.9310  -10.1890   20.1990 C   0  0  0  0  0  3  0  0  0  0  0  0
  -21.8670   -6.9060   21.4380 O   0  0  0  0  0  0  0  0  0  0  0  0
  -21.7690   -6.1990   22.6100 C   0  0  0  0  0  0  0  0  0  0  0  0
  -21.2350   -6.7740   23.7840 C   0  0  0  0  0  3  0  0  0  0  0  0
  -21.0870   -5.9910   24.9470 C   0  0  0  0  0  3  0  0  0  0  0  0
  -21.4650   -4.6350   24.9360 C   0  0  0  0  0  0  0  0  0  0  0  0
  -21.9920   -4.0590   23.7650 C   0  0  0  0  0  3  0  0  0  0  0  0
  -22.1410   -4.8400   22.6050 C   0  0  0  0  0  0  0  0  0  0  0  0
  -22.6310   -4.2770   21.4750 F   0  0  0  0  0  0  0  0  0  0  0  0
  -21.3130   -3.8810   26.0490 F   0  0  0  0  0  0  0  0  0  0  0  0
  -22.8900  -13.5580   21.0910 C   0  0  0  0  0  0  0  0  0  0  0  0
  -22.1590  -12.8500   21.9480 N   0  0  0  0  0  0  0  0  0  0  0  0
  -22.4500  -14.5820   20.5740 O   0  0  0  0  0  0  0  0  0  0  0  0
  -22.5260  -12.0200   22.3900 H   0  0  0  0  0  0  0  0  0  0  0  0
  -21.2180  -13.1470   22.1640 H   0  0  0  0  0  0  0  0  0  0  0  0
  -25.5110  -15.2470   20.2830 N   0  0  0  0  0  0  0  0  0  0  0  0
  -24.7380  -15.8950   20.3830 H   0  0  0  0  0  0  0  0  0  0  0  0
  -26.3530  -15.6850   19.9370 H   0  0  0  0  0  0  0  0  0  0  0  0
  -29.2850  -23.7110   20.0600 O   0  0  0  0  0  0  0  0  0  0  0  0
  -28.2390  -24.4210   20.7460 C   0  0  0  0  0  2  0  0  0  0  0  0
  -28.6560  -25.8530   21.1530 C   0  0  0  0  0  2  0  0  0  0  0  0
  -28.5170  -26.8270   20.1110 O   0  0  0  0  0  0  0  0  0  0  0  0
  -24.6170  -31.9360   23.2080 C   0  0  0  0  0  0  0  0  0  0  0  0
  -27.3430  -27.5420   20.1390 C   0  0  0  0  0  0  0  0  0  0  0  0
  -23.4430  -30.5280   21.5460 C   0  0  0  0  0  3  0  0  0  0  0  0
  -24.9300  -29.0070   20.1360 C   0  0  0  0  0  0  0  0  0  0  0  0
  -25.9660  -30.9150   21.3790 C   0  0  0  0  0  2  0  0  0  0  0  0
  -26.0740  -29.5470   20.7380 C   0  0  0  0  0  0  0  0  0  0  0  0
  -27.2840  -28.8170   20.7440 C   0  0  0  0  0  3  0  0  0  0  0  0
  -26.1880  -27.0140   19.5290 C   0  0  0  0  0  3  0  0  0  0  0  0
  -24.9800  -27.7410   19.5290 C   0  0  0  0  0  3  0  0  0  0  0  0
  -23.6750  -29.8530   20.1680 C   0  0  0  0  0  2  0  0  0  0  0  0
  -24.6920  -31.1400   22.1030 N   0  0  0  0  0  0  0  0  0  0  0  0
  -23.5260  -32.1960   23.7360 O   0  0  0  0  0  0  0  0  0  0  0  0
  -22.7910  -29.4970   22.4950 C   0  0  0  0  0  0  0  0  0  0  0  0
  -21.4710  -29.2980   22.3470 N   0  0  0  0  0  0  0  0  0  0  0  0
  -23.4710  -28.8790   23.3190 O   0  0  0  0  0  0  0  0  0  0  0  0
  -20.9860  -29.8510   21.6550 H   0  0  0  0  0  0  0  0  0  0  0  0
  -18.1020  -28.0770   22.8020 C   0  0  0  0  0  0  0  0  0  0  0  0
  -20.6540  -28.3490   23.1020 C   0  0  0  0  0  3  0  0  0  0  0  0
  -20.7730  -26.9240   22.5140 C   0  0  0  0  0  2  0  0  0  0  0  0
  -19.6820  -26.6020   21.4860 C   0  0  0  0  0  2  0  0  0  0  0  0
  -18.2940  -26.7340   22.1180 C   0  0  0  0  0  2  0  0  0  0  0  0
  -19.2120  -28.8440   23.2490 C   0  0  0  0  0  0  0  0  0  0  0  0
  -18.9790  -30.1010   23.8460 C   0  0  0  0  0  3  0  0  0  0  0  0
  -17.6710  -30.5940   24.0030 C   0  0  0  0  0  3  0  0  0  0  0  0
  -16.5750  -29.8250   23.5720 C   0  0  0  0  0  3  0  0  0  0  0  0
  -16.7920  -28.5690   22.9770 C   0  0  0  0  0  3  0  0  0  0  0  0
  -25.8890  -32.5750   23.8450 C   0  0  0  0  0  3  0  0  0  0  0  0
  -25.5700  -33.9730   24.1630 N   0  0  0  0  0  0  0  0  0  0  0  0
  -25.9180  -35.0240   23.4100 C   0  0  0  0  0  0  0  0  0  0  0  0
  -26.6130  -34.9200   22.3950 O   0  0  0  0  0  0  0  0  0  0  0  0
  -24.9560  -34.1290   24.9490 H   0  0  0  0  0  0  0  0  0  0  0  0
  -24.2060  -36.8180   22.9940 C   0  0  0  0  0  1  0  0  0  0  0  0
  -25.4170  -36.4120   23.8500 C   0  0  0  0  0  3  0  0  0  0  0  0
  -27.5140  -37.2980   24.7660 C   0  0  0  0  0  1  0  0  0  0  0  0
  -26.4540  -37.4630   23.7750 N   0  0  0  0  0  0  0  0  0  0  0  0
  -26.0450  -38.3850   23.8990 H   0  0  0  0  0  0  0  0  0  0  0  0
  -26.3950  -31.8100   25.1300 C   0  0  1  0  0  0  0  0  0  0  0  0
  -25.2870  -31.5590   26.1780 C   0  0  0  0  0  1  0  0  0  0  0  0
  -27.0010  -30.4400   24.7440 C   0  0  0  0  0  1  0  0  0  0  0  0
  -27.5250  -32.6180   25.8120 C   0  0  0  0  0  1  0  0  0  0  0  0
  2  1  1  0
  3  4  2  0
  3  6  1  0
  4  5  1  0
  5 10  1  0
  5  1  2  0
  6  2  2  0
  7  8  1  0
  7  9  1  0
  8  9  1  0
  9  4  1  0
 11 20  1  0
 11 10  1  0
 12 20  1  0
 13 18  1  0
 14 15  1  0
 14 13  1  0
 16 15  1  0
 16 25  1  0
 16 17  1  0
 18 12  1  0
 18 17  1  0
 19 12  2  0
 20 21  1  0
 22 23  2  0
 23 42  1  0
 24 23  1  0
 24 27  1  0
 25 22  1  0
 25 26  1  0
 26 24  2  0
 27 28  1  0
 28 29  2  0
 30 33  1  0
 30 29  1  0
 31 30  2  0
 32 31  1  0
 32 27  2  0
 33 34  1  0
 34 35  1  0
 35 36  2  0
 37 36  1  0
 37 41  1  0
 38 37  2  0
 39 34  2  0
 39 38  1  0
 40 39  1  0
 42 43  1  0
 43 46  1  0
 43 45  1  0
 44 42  2  0
 47 48  1  0
 47 22  1  0
 49 47  1  0
 50  6  1  0
 50 51  1  0
 51 52  1  0
 53 55  1  0
 53 52  1  0
 54 65  2  0
 55 60  1  0
 56 64  1  0
 56 66  1  0
 57 63  1  0
 57 59  1  0
 58 64  1  0
 59 60  2  0
 59 58  1  0
 61 55  2  0
 62 61  1  0
 62 57  2  0
 63 56  1  0
 64 54  1  0
 66 68  2  0
 67 66  1  0
 69 67  1  0
 70 79  2  0
 70 75  1  0
 71 67  1  0
 71 75  1  0
 72 71  1  0
 73 74  1  0
 73 72  1  0
 74 70  1  0
 75 76  2  0
 76 77  1  0
 78 77  2  0
 79 78  1  0
 80 54  1  0
 80 81  1  0
 80 90  1  0
 81 84  1  0
 82 86  1  0
 82 81  1  0
 83 82  2  0
 86 85  1  0
 88 86  1  0
 88 89  1  0
 88 87  1  0
 90 93  1  1
 90 91  1  0
 92 90  1  0
M  ISO  4  12 100  20 100  52 101  53 101
M  END
>  <TORSDO>  (80) 
F 22

>  <SCORE>  (80) 
-13.108

>  <name>  (80) 
80

>  <ligand_id>  (80) 
80

>  <original_smiles>  (80) 
[H]c1c([H])c([H])c2c(c1[H])C([H])([H])C([H])([H])C([H])([H])C2([H])N([H])C(=O)C1([H])N(C(=O)C([H])(N([H])C(=O)C([H])(N([H])C([H])([H])[H])C([H])([H])[H])C(C([H])([H])[H])(C([H])([H])[H])C([H])([H])[H])C([H])([H])c2c([H])c(OC([H])([H])C([H])([H])Oc3c([H])c([H])c(C([H])([H])C([H])([H])N([H])C(=O)N4C([H])([H])C([H])([H])C([H])([H])C([H])(n5nc(-c6c([H])c([H])c(Oc7c([H])c([H])c(F)c([H])c7F)c([H])c6[H])c(C(=O)N([H])[H])c5N([H])[H])C4([H])[H])c(C4([H])C([H])([H])C4([H])[H])c3[H])c([H])c([H])c2C1([H])[H]

>  <smiles>  (80) 
[H]c1c([H])c([H])c2c(c1[H])C([H])([H])C([H])([H])C([H])([H])C2([H])N([H])C(=O)C1([H])N(C(=O)C([H])(N([H])C(=O)C([H])(N([H])C([H])([H])[H])C([H])([H])[H])C(C([H])([H])[H])(C([H])([H])[H])C([H])([H])[H])C([H])([H])c2c([H])c(OC([H])([H])C([H])([H])Oc3c([H])c([H])c(C([H])([H])C([H])([H])N([H])C(=O)N4C([H])([H])C([H])([H])C([H])([H])C([H])(n5nc(-c6c([H])c([H])c(Oc7c([H])c([H])c(F)c([H])c7F)c([H])c6[H])c(C(=O)N([H])[H])c5N([H])[H])C4([H])[H])c(C4([H])C([H])([H])C4([H])[H])c3[H])c([H])c([H])c2C1([H])[H]

$$$$
81:0:0
     RDKit          3D

 97106  0  0  1  0  0  0  0  0999 V2000
  -31.2270  -20.3600   20.4500 C   0  0  0  0  0  3  0  0  0  0  0  0
  -31.1230  -21.7090   20.0630 C   0  0  0  0  0  3  0  0  0  0  0  0
  -28.9160  -21.2860   19.1050 C   0  0  0  0  0  0  0  0  0  0  0  0
  -30.1700  -19.4580   20.1890 C   0  0  0  0  0  0  0  0  0  0  0  0
  -29.9790  -22.1780   19.3900 C   0  0  0  0  0  0  0  0  0  0  0  0
  -29.0070  -19.9360   19.5360 C   0  0  0  0  0  0  0  0  0  0  0  0
  -27.1890  -21.0960   17.1140 C   0  0  0  0  0  2  0  0  0  0  0  0
  -27.8050  -22.4700   17.0280 C   0  0  0  0  0  2  0  0  0  0  0  0
  -27.6950  -21.7740   18.3690 C   0  0  0  0  0  3  0  0  0  0  0  0
  -30.2230  -18.0990   20.5520 N   0  0  0  0  0  0  0  0  0  0  0  0
  -29.4180  -17.5290   20.3050 H   0  0  0  0  0  0  0  0  0  0  0  0
  -31.4900  -17.4240   20.8050 C   0  0  0  0  0  2  0  0  0  0  0  0
  -31.3240  -16.2090   21.7410 C   0  0  0  0  0  2  0  0  0  0  0  0
  -30.8530  -14.3250   20.1790 C   0  0  0  0  0  0  0  0  0  0  0  0
  -30.3820  -12.2190   18.9780 C   0  0  0  0  0  2  0  0  0  0  0  0
  -29.3820  -12.4300   17.8260 C   0  0  0  0  0  2  0  0  0  0  0  0
  -27.9350  -12.3110   18.3380 C   0  0  0  0  0  2  0  0  0  0  0  0
  -27.6790  -13.1790   19.5980 C   0  0  0  0  0  3  0  0  0  0  0  0
  -28.7810  -12.9570   20.6570 C   0  0  0  0  0  2  0  0  0  0  0  0
  -30.0910  -13.2090   20.0270 N   0  0  0  0  0  0  0  0  0  0  0  0
  -31.8490  -14.5600   19.4920 O   0  0  0  0  0  0  0  0  0  0  0  0
  -30.4960  -15.1370   21.1850 N   0  0  0  0  0  0  0  0  0  0  0  0
  -29.6700  -14.8760   21.7020 H   0  0  0  0  0  0  0  0  0  0  0  0
  -25.3430  -13.8430   20.4540 C   0  0  0  0  0  0  0  0  0  0  0  0
  -24.2730  -13.0940   20.8650 C   0  0  0  0  0  0  0  0  0  0  0  0
  -24.6870  -11.7300   20.7750 C   0  0  0  0  0  0  0  0  0  0  0  0
  -26.3460  -12.9360   20.1460 N   0  0  0  0  0  0  0  0  0  0  0  0
  -25.9550  -11.6590   20.3940 N   0  0  0  0  0  0  0  0  0  0  0  0
  -23.9330  -10.4860   20.9770 C   0  0  0  0  0  0  0  0  0  0  0  0
  -24.3680   -9.4960   21.8870 C   0  0  0  0  0  3  0  0  0  0  0  0
  -23.6140   -8.3190   22.0760 C   0  0  0  0  0  3  0  0  0  0  0  0
  -22.4120   -8.1210   21.3560 C   0  0  0  0  0  0  0  0  0  0  0  0
  -21.9960   -9.0990   20.4350 C   0  0  0  0  0  3  0  0  0  0  0  0
  -22.7490  -10.2690   20.2440 C   0  0  0  0  0  3  0  0  0  0  0  0
  -21.6290   -6.9960   21.4560 O   0  0  0  0  0  0  0  0  0  0  0  0
  -21.5770   -6.2570   22.6100 C   0  0  0  0  0  0  0  0  0  0  0  0
  -21.1810   -6.8230   23.8420 C   0  0  0  0  0  3  0  0  0  0  0  0
  -21.0750   -6.0090   24.9880 C   0  0  0  0  0  3  0  0  0  0  0  0
  -21.3540   -4.6320   24.9030 C   0  0  0  0  0  0  0  0  0  0  0  0
  -21.7430   -4.0660   23.6760 C   0  0  0  0  0  3  0  0  0  0  0  0
  -21.8510   -4.8760   22.5330 C   0  0  0  0  0  0  0  0  0  0  0  0
  -22.2050   -4.3210   21.3480 F   0  0  0  0  0  0  0  0  0  0  0  0
  -21.2450   -3.8490   26.0020 F   0  0  0  0  0  0  0  0  0  0  0  0
  -22.9100  -13.6080   21.2290 C   0  0  0  0  0  0  0  0  0  0  0  0
  -22.2130  -12.9130   22.1220 N   0  0  0  0  0  0  0  0  0  0  0  0
  -22.4740  -14.6600   20.7600 O   0  0  0  0  0  0  0  0  0  0  0  0
  -22.5770  -12.0610   22.5210 H   0  0  0  0  0  0  0  0  0  0  0  0
  -21.3010  -13.2380   22.4120 H   0  0  0  0  0  0  0  0  0  0  0  0
  -25.5440  -15.2120   20.2990 N   0  0  0  0  0  0  0  0  0  0  0  0
  -24.8080  -15.8890   20.4660 H   0  0  0  0  0  0  0  0  0  0  0  0
  -26.3940  -15.6290   19.9430 H   0  0  0  0  0  0  0  0  0  0  0  0
  -27.0460  -18.9840   20.3710 C   0  0  0  0  0  1  0  0  0  0  0  0
  -27.9700  -19.0660   19.2930 O   0  0  0  0  0  0  0  0  0  0  0  0
  -29.9540  -23.4740   18.9340 O   0  0  0  0  0  0  0  0  0  0  0  0
  -29.8160  -24.5030   19.9170 C   0  0  0  0  0  2  0  0  0  0  0  0
  -28.5700  -25.3310   19.5550 C   0  0  0  0  0  2  0  0  0  0  0  0
  -28.5840  -26.6670   20.0750 O   0  0  0  0  0  0  0  0  0  0  0  0
  -24.5570  -31.6830   23.1330 C   0  0  0  0  0  0  0  0  0  0  0  0
  -27.3900  -27.3650   20.0350 C   0  0  0  0  0  0  0  0  0  0  0  0
  -23.4350  -30.3010   21.4170 C   0  0  0  0  0  3  0  0  0  0  0  0
  -24.9640  -28.8300   20.0060 C   0  0  0  0  0  0  0  0  0  0  0  0
  -25.9610  -30.7070   21.3210 C   0  0  0  0  0  2  0  0  0  0  0  0
  -26.0910  -29.3560   20.6480 C   0  0  0  0  0  0  0  0  0  0  0  0
  -27.3060  -28.6290   20.6610 C   0  0  0  0  0  3  0  0  0  0  0  0
  -26.2360  -26.8600   19.3830 C   0  0  0  0  0  3  0  0  0  0  0  0
  -25.0310  -27.5820   19.3700 C   0  0  0  0  0  3  0  0  0  0  0  0
  -23.7020  -29.6600   20.0300 C   0  0  0  0  0  2  0  0  0  0  0  0
  -24.6670  -30.9110   22.0140 N   0  0  0  0  0  0  0  0  0  0  0  0
  -23.4520  -31.9230   23.6390 O   0  0  0  0  0  0  0  0  0  0  0  0
  -22.7690  -29.2450   22.3300 C   0  0  0  0  0  0  0  0  0  0  0  0
  -21.4440  -29.0800   22.1890 N   0  0  0  0  0  0  0  0  0  0  0  0
  -23.4440  -28.5790   23.1200 O   0  0  0  0  0  0  0  0  0  0  0  0
  -20.9600  -29.6700   21.5270 H   0  0  0  0  0  0  0  0  0  0  0  0
  -18.0520  -27.9330   22.6610 C   0  0  0  0  0  0  0  0  0  0  0  0
  -20.6170  -28.1180   22.9150 C   0  0  0  0  0  3  0  0  0  0  0  0
  -20.6810  -26.7200   22.2590 C   0  0  0  0  0  2  0  0  0  0  0  0
  -19.5620  -26.4810   21.2400 C   0  0  0  0  0  2  0  0  0  0  0  0
  -18.1900  -26.6220   21.9060 C   0  0  0  0  0  2  0  0  0  0  0  0
  -19.1920  -28.6450   23.1200 C   0  0  0  0  0  0  0  0  0  0  0  0
  -19.0090  -29.8770   23.7830 C   0  0  0  0  0  3  0  0  0  0  0  0
  -17.7190  -30.3980   23.9940 C   0  0  0  0  0  3  0  0  0  0  0  0
  -16.5920  -29.6810   23.5500 C   0  0  0  0  0  3  0  0  0  0  0  0
  -16.7600  -28.4510   22.8910 C   0  0  0  0  0  3  0  0  0  0  0  0
  -25.8080  -32.3230   23.8100 C   0  0  0  0  0  3  0  0  0  0  0  0
  -25.4620  -33.7080   24.1590 N   0  0  0  0  0  0  0  0  0  0  0  0
  -25.8060  -34.7830   23.4360 C   0  0  0  0  0  0  0  0  0  0  0  0
  -26.5200  -34.7130   22.4300 O   0  0  0  0  0  0  0  0  0  0  0  0
  -24.8300  -33.8360   24.9350 H   0  0  0  0  0  0  0  0  0  0  0  0
  -24.0590  -36.5520   23.0530 C   0  0  0  0  0  1  0  0  0  0  0  0
  -25.2760  -36.1530   23.9020 C   0  0  0  0  0  3  0  0  0  0  0  0
  -27.3610  -37.0590   24.8290 C   0  0  0  0  0  1  0  0  0  0  0  0
  -26.2930  -37.2260   23.8460 N   0  0  0  0  0  0  0  0  0  0  0  0
  -25.8630  -38.1350   23.9990 H   0  0  0  0  0  0  0  0  0  0  0  0
  -26.2980  -31.5330   25.0870 C   0  0  1  0  0  0  0  0  0  0  0  0
  -25.1760  -31.2510   26.1130 C   0  0  0  0  0  1  0  0  0  0  0  0
  -26.9140  -30.1720   24.6850 C   0  0  0  0  0  1  0  0  0  0  0  0
  -27.4150  -32.3290   25.7990 C   0  0  0  0  0  1  0  0  0  0  0  0
  2  1  2  0
  3  5  2  0
  3  6  1  0
  4  1  1  0
  4 10  1  0
  5  2  1  0
  6  4  2  0
  7  9  1  0
  8  7  1  0
  8  9  1  0
  9  3  1  0
 10 12  1  0
 11 10  1  0
 12 13  1  0
 14 22  1  0
 15 20  1  0
 16 17  1  0
 16 15  1  0
 18 17  1  0
 18 27  1  0
 18 19  1  0
 20 14  1  0
 20 19  1  0
 21 14  2  0
 22 23  1  0
 22 13  1  0
 24 25  2  0
 25 44  1  0
 26 25  1  0
 26 29  1  0
 27 28  1  0
 27 24  1  0
 28 26  2  0
 29 30  1  0
 30 31  2  0
 32 35  1  0
 32 31  1  0
 33 32  2  0
 34 33  1  0
 34 29  2  0
 35 36  1  0
 36 37  1  0
 37 38  2  0
 39 38  1  0
 39 43  1  0
 40 39  2  0
 41 36  2  0
 41 40  1  0
 42 41  1  0
 44 45  1  0
 45 48  1  0
 45 47  1  0
 46 44  2  0
 49 24  1  0
 49 50  1  0
 51 49  1  0
 53  6  1  0
 53 52  1  0
 54  5  1  0
 54 55  1  0
 56 55  1  0
 56 57  1  0
 58 69  2  0
 59 57  1  0
 59 64  1  0
 60 68  1  0
 60 70  1  0
 61 67  1  0
 61 63  1  0
 62 68  1  0
 63 64  2  0
 63 62  1  0
 65 59  2  0
 66 65  1  0
 66 61  2  0
 67 60  1  0
 68 58  1  0
 70 72  2  0
 71 70  1  0
 73 71  1  0
 74 83  2  0
 74 79  1  0
 75 71  1  0
 75 79  1  0
 76 75  1  0
 77 78  1  0
 77 76  1  0
 78 74  1  0
 79 80  2  0
 80 81  1  0
 82 81  2  0
 83 82  1  0
 84 58  1  0
 84 85  1  0
 84 94  1  0
 85 88  1  0
 86 90  1  0
 86 85  1  0
 87 86  2  0
 90 89  1  0
 92 90  1  0
 92 93  1  0
 92 91  1  0
 94 97  1  1
 94 95  1  0
 96 94  1  0
M  ISO  4  14 100  22 100  56 101  57 101
M  END
>  <TORSDO>  (81) 
F 24

>  <SCORE>  (81) 
-11.315

>  <name>  (81) 
81

>  <ligand_id>  (81) 
81

>  <original_smiles>  (81) 
[H]c1c([H])c([H])c2c(c1[H])C([H])([H])C([H])([H])C([H])([H])C2([H])N([H])C(=O)C1([H])N(C(=O)C([H])(N([H])C(=O)C([H])(N([H])C([H])([H])[H])C([H])([H])[H])C(C([H])([H])[H])(C([H])([H])[H])C([H])([H])[H])C([H])([H])c2c([H])c(OC([H])([H])C([H])([H])Oc3c([H])c([H])c(N([H])C([H])([H])C([H])([H])N([H])C(=O)N4C([H])([H])C([H])([H])C([H])([H])C([H])(n5nc(-c6c([H])c([H])c(Oc7c([H])c([H])c(F)c([H])c7F)c([H])c6[H])c(C(=O)N([H])[H])c5N([H])[H])C4([H])[H])c(OC([H])([H])[H])c3C3([H])C([H])([H])C3([H])[H])c([H])c([H])c2C1([H])[H]

>  <smiles>  (81) 
[H]c1c([H])c([H])c2c(c1[H])C([H])([H])C([H])([H])C([H])([H])C2([H])N([H])C(=O)C1([H])N(C(=O)C([H])(N([H])C(=O)C([H])(N([H])C([H])([H])[H])C([H])([H])[H])C(C([H])([H])[H])(C([H])([H])[H])C([H])([H])[H])C([H])([H])c2c([H])c(OC([H])([H])C([H])([H])Oc3c([H])c([H])c(N([H])C([H])([H])C([H])([H])N([H])C(=O)N4C([H])([H])C([H])([H])C([H])([H])C([H])(n5nc(-c6c([H])c([H])c(Oc7c([H])c([H])c(F)c([H])c7F)c([H])c6[H])c(C(=O)N([H])[H])c5N([H])[H])C4([H])[H])c(OC([H])([H])[H])c3C3([H])C([H])([H])C3([H])[H])c([H])c([H])c2C1([H])[H]

$$$$
82:0:0
     RDKit          3D

 99109  0  0  1  0  0  0  0  0999 V2000
  -31.8440  -20.0300   19.2080 O   0  0  0  0  0  0  0  0  0  0  0  0
  -31.4520  -21.2480   18.6130 C   0  0  0  0  0  0  0  0  0  0  0  0
  -31.4670  -21.4280   17.3950 O   0  0  0  0  0  0  0  0  0  0  0  0
  -29.8260  -23.3090   18.9970 C   0  0  0  0  0  2  0  0  0  0  0  0
  -32.0310  -23.4580   20.0180 C   0  0  0  0  0  2  0  0  0  0  0  0
  -29.2080  -24.3130   20.0280 C   0  0  0  0  0  2  0  0  0  0  0  0
  -31.5370  -24.5660   21.0320 C   0  0  0  0  0  2  0  0  0  0  0  0
  -30.9580  -22.4140   19.5840 C   0  0  0  0  0  3  0  0  0  0  0  0
  -30.1660  -25.3020   20.7890 C   0  0  0  0  0  3  0  0  0  0  0  0
  -30.2750  -26.7470   20.4470 O   0  0  0  0  0  0  0  0  0  0  0  0
  -25.9740  -31.2750   24.1600 C   0  0  0  0  0  0  0  0  0  0  0  0
  -29.1420  -27.5760   20.5150 C   0  0  0  0  0  0  0  0  0  0  0  0
  -25.0770  -30.3570   22.0500 C   0  0  0  0  0  3  0  0  0  0  0  0
  -26.7710  -29.1830   20.5340 C   0  0  0  0  0  0  0  0  0  0  0  0
  -27.6050  -30.6570   22.3650 C   0  0  0  0  0  2  0  0  0  0  0  0
  -27.8170  -29.4790   21.4190 C   0  0  0  0  0  0  0  0  0  0  0  0
  -29.0050  -28.6860   21.4100 C   0  0  0  0  0  3  0  0  0  0  0  0
  -28.0910  -27.3630   19.6000 C   0  0  0  0  0  3  0  0  0  0  0  0
  -26.9120  -28.1310   19.6180 C   0  0  0  0  0  3  0  0  0  0  0  0
  -25.5240  -30.0420   20.5990 C   0  0  0  0  0  2  0  0  0  0  0  0
  -26.2280  -30.7670   22.9190 N   0  0  0  0  0  0  0  0  0  0  0  0
  -24.8140  -31.4290   24.5690 O   0  0  0  0  0  0  0  0  0  0  0  0
  -24.2920  -29.1450   22.6060 C   0  0  0  0  0  0  0  0  0  0  0  0
  -22.9980  -29.0500   22.2600 N   0  0  0  0  0  0  0  0  0  0  0  0
  -24.8550  -28.3030   23.3130 O   0  0  0  0  0  0  0  0  0  0  0  0
  -22.6060  -29.7850   21.6870 H   0  0  0  0  0  0  0  0  0  0  0  0
  -19.5910  -27.8710   21.9620 C   0  0  0  0  0  0  0  0  0  0  0  0
  -22.0850  -27.9700   22.6360 C   0  0  0  0  0  3  0  0  0  0  0  0
  -22.2730  -26.7370   21.7230 C   0  0  0  0  0  2  0  0  0  0  0  0
  -21.3260  -26.7260   20.5180 C   0  0  0  0  0  2  0  0  0  0  0  0
  -19.8670  -26.7420   20.9830 C   0  0  0  0  0  2  0  0  0  0  0  0
  -20.6340  -28.4570   22.7260 C   0  0  0  0  0  0  0  0  0  0  0  0
  -20.3280  -29.5260   23.5970 C   0  0  0  0  0  3  0  0  0  0  0  0
  -19.0100  -30.0080   23.7090 C   0  0  0  0  0  3  0  0  0  0  0  0
  -17.9790  -29.4150   22.9610 C   0  0  0  0  0  3  0  0  0  0  0  0
  -18.2680  -28.3460   22.0950 C   0  0  0  0  0  3  0  0  0  0  0  0
  -27.1300  -31.7050   25.1170 C   0  0  0  0  0  3  0  0  0  0  0  0
  -26.8150  -33.0510   25.6160 N   0  0  0  0  0  0  0  0  0  0  0  0
  -27.3400  -34.1860   25.1340 C   0  0  0  0  0  0  0  0  0  0  0  0
  -28.2060  -34.2000   24.2540 O   0  0  0  0  0  0  0  0  0  0  0  0
  -26.0730  -33.1180   26.2980 H   0  0  0  0  0  0  0  0  0  0  0  0
  -25.8160  -36.1490   24.7480 C   0  0  0  0  0  1  0  0  0  0  0  0
  -26.8240  -35.5140   25.7190 C   0  0  0  0  0  3  0  0  0  0  0  0
  -28.7470  -36.0730   27.1400 C   0  0  0  0  0  1  0  0  0  0  0  0
  -27.9020  -36.4820   26.0200 N   0  0  0  0  0  0  0  0  0  0  0  0
  -27.5160  -37.3980   26.2310 H   0  0  0  0  0  0  0  0  0  0  0  0
  -27.3480  -30.7050   26.3190 C   0  0  1  0  0  0  0  0  0  0  0  0
  -26.0570  -30.3940   27.1100 C   0  0  0  0  0  1  0  0  0  0  0  0
  -27.9270  -29.3610   25.8180 C   0  0  0  0  0  1  0  0  0  0  0  0
  -28.3860  -31.2900   27.3050 C   0  0  0  0  0  1  0  0  0  0  0  0
  -31.7340  -18.6890   18.5800 C   0  0  0  0  0  2  0  0  0  0  0  0
  -31.7030  -15.6830   20.6520 C   0  0  0  0  0  0  0  0  0  0  0  0
  -31.8090  -13.1820   20.8090 C   0  0  0  0  0  2  0  0  0  0  0  0
  -31.1460  -12.5660   19.5520 C   0  0  0  0  0  2  0  0  0  0  0  0
  -29.6130  -12.4540   19.7090 C   0  0  0  0  0  2  0  0  0  0  0  0
  -28.9830  -13.7530   20.2760 C   0  0  0  0  0  3  0  0  0  0  0  0
  -29.7750  -14.2100   21.5210 C   0  0  0  0  0  2  0  0  0  0  0  0
  -31.1540  -14.4860   21.0800 N   0  0  0  0  0  0  0  0  0  0  0  0
  -32.9030  -15.7320   20.3560 O   0  0  0  0  0  0  0  0  0  0  0  0
  -29.6050  -17.1720   20.9710 C   0  0  0  0  0  2  0  0  0  0  0  0
  -29.7980  -18.5140   20.2980 C   0  0  0  0  0  3  0  0  0  0  0  0
  -30.6270  -17.7920   19.2360 C   0  0  0  0  0  3  0  0  0  0  0  0
  -30.8480  -16.7260   20.3160 N   0  0  0  0  0  0  0  0  0  0  0  0
  -27.2660  -21.3410   20.8160 C   0  0  0  0  0  3  0  0  0  0  0  0
  -26.6140  -21.4030   19.5740 C   0  0  0  0  0  3  0  0  0  0  0  0
  -28.2710  -20.3810   21.0300 C   0  0  0  0  0  3  0  0  0  0  0  0
  -26.9550  -20.4950   18.5560 C   0  0  0  0  0  3  0  0  0  0  0  0
  -28.6400  -19.4770   20.0100 C   0  0  0  0  0  0  0  0  0  0  0  0
  -27.9620  -19.5170   18.7620 C   0  0  0  0  0  0  0  0  0  0  0  0
  -27.9170  -18.8300   16.4500 C   0  0  0  0  0  1  0  0  0  0  0  0
  -28.3100  -18.5990   17.7960 O   0  0  0  0  0  0  0  0  0  0  0  0
  -26.5740  -14.5710   20.6550 C   0  0  0  0  0  0  0  0  0  0  0  0
  -25.3990  -13.8990   20.8510 C   0  0  0  0  0  0  0  0  0  0  0  0
  -25.7350  -12.5100   20.8470 C   0  0  0  0  0  0  0  0  0  0  0  0
  -27.5570  -13.5990   20.5510 N   0  0  0  0  0  0  0  0  0  0  0  0
  -27.0480  -12.3520   20.7210 N   0  0  0  0  0  0  0  0  0  0  0  0
  -24.8760  -11.3200   20.8960 C   0  0  0  0  0  0  0  0  0  0  0  0
  -25.1530  -10.2440   21.7680 C   0  0  0  0  0  3  0  0  0  0  0  0
  -24.3030   -9.1180   21.8070 C   0  0  0  0  0  3  0  0  0  0  0  0
  -23.1610   -9.0630   20.9750 C   0  0  0  0  0  0  0  0  0  0  0  0
  -22.9010  -10.1260   20.0930 C   0  0  0  0  0  3  0  0  0  0  0  0
  -23.7510  -11.2430   20.0500 C   0  0  0  0  0  3  0  0  0  0  0  0
  -22.2920   -7.9990   20.9290 O   0  0  0  0  0  0  0  0  0  0  0  0
  -21.9800   -7.2740   22.0520 C   0  0  0  0  0  0  0  0  0  0  0  0
  -21.5450   -7.8960   23.2430 C   0  0  0  0  0  3  0  0  0  0  0  0
  -21.1680   -7.1100   24.3510 C   0  0  0  0  0  3  0  0  0  0  0  0
  -21.2210   -5.7050   24.2670 C   0  0  0  0  0  0  0  0  0  0  0  0
  -21.6500   -5.0840   23.0810 C   0  0  0  0  0  3  0  0  0  0  0  0
  -22.0260   -5.8680   21.9760 C   0  0  0  0  0  0  0  0  0  0  0  0
  -22.4190   -5.2640   20.8270 F   0  0  0  0  0  0  0  0  0  0  0  0
  -20.8510   -4.9490   25.3270 F   0  0  0  0  0  0  0  0  0  0  0  0
  -24.0270  -14.5050   20.9400 C   0  0  0  0  0  0  0  0  0  0  0  0
  -23.1490  -13.9270   21.7510 N   0  0  0  0  0  0  0  0  0  0  0  0
  -23.7400  -15.5300   20.3220 O   0  0  0  0  0  0  0  0  0  0  0  0
  -23.3880  -13.1000   22.2780 H   0  0  0  0  0  0  0  0  0  0  0  0
  -22.2240  -14.3200   21.8490 H   0  0  0  0  0  0  0  0  0  0  0  0
  -26.8780  -15.9220   20.5330 N   0  0  0  0  0  0  0  0  0  0  0  0
  -26.1620  -16.6370   20.5750 H   0  0  0  0  0  0  0  0  0  0  0  0
  -27.8030  -16.3000   20.3720 H   0  0  0  0  0  0  0  0  0  0  0  0
  2  1  1  0
  3  2  2  0
  4  8  1  0
  4  6  1  0
  5  7  1  0
  6  9  1  0
  8  2  1  0
  8  5  1  0
  9 10  1  0
  9  7  1  0
 10 12  1  0
 11 22  2  0
 12 17  1  0
 13 23  1  0
 13 21  1  0
 14 20  1  0
 14 16  1  0
 15 21  1  0
 16 15  1  0
 17 16  2  0
 18 19  1  0
 18 12  2  0
 19 14  2  0
 20 13  1  0
 21 11  1  0
 23 25  2  0
 24 23  1  0
 26 24  1  0
 27 36  2  0
 27 32  1  0
 28 24  1  0
 28 32  1  0
 29 28  1  0
 30 31  1  0
 30 29  1  0
 31 27  1  0
 32 33  2  0
 33 34  1  0
 35 34  2  0
 36 35  1  0
 37 11  1  0
 37 38  1  0
 37 47  1  0
 38 41  1  0
 39 38  1  0
 39 43  1  0
 40 39  2  0
 43 42  1  0
 43 45  1  0
 45 46  1  0
 45 44  1  0
 47 48  1  1
 47 50  1  0
 49 47  1  0
 51  1  1  0
 52 58  1  0
 53 58  1  0
 54 55  1  0
 54 53  1  0
 56 55  1  0
 56 75  1  0
 56 57  1  0
 58 57  1  0
 59 52  2  0
 61 68  1  0
 61 60  1  0
 62 51  1  0
 62 61  1  0
 62 63  1  0
 63 52  1  0
 63 60  1  0
 64 66  1  0
 65 64  2  0
 67 69  2  0
 67 65  1  0
 68 66  2  0
 69 68  1  0
 70 71  1  0
 71 69  1  0
 72 73  2  0
 73 92  1  0
 74 73  1  0
 74 77  1  0
 75 72  1  0
 75 76  1  0
 76 74  2  0
 77 78  1  0
 78 79  2  0
 80 79  1  0
 81 80  2  0
 82 81  1  0
 82 77  2  0
 83 80  1  0
 83 84  1  0
 84 85  1  0
 85 86  2  0
 87 86  1  0
 87 91  1  0
 88 87  2  0
 89 84  2  0
 89 88  1  0
 90 89  1  0
 92 93  1  0
 93 96  1  0
 93 95  1  0
 94 92  2  0
 97 98  1  0
 97 72  1  0
 99 97  1  0
M  ISO  4   9 101  10 101  52 100  63 100
M  END
>  <TORSDO>  (82) 
F 21

>  <SCORE>  (82) 
-7.967

>  <name>  (82) 
82

>  <ligand_id>  (82) 
82

>  <original_smiles>  (82) 
[H]c1c([H])c([H])c(C2([H])C([H])([H])N(C(=O)N3C([H])([H])C([H])([H])C([H])([H])C([H])(n4nc(-c5c([H])c([H])c(Oc6c([H])c([H])c(F)c([H])c6F)c([H])c5[H])c(C(=O)N([H])[H])c4N([H])[H])C3([H])[H])C2([H])C([H])([H])OC(=O)C2([H])C([H])([H])C([H])([H])C([H])(Oc3c([H])c([H])c4c(c3[H])C([H])([H])N(C(=O)C([H])(N([H])C(=O)C([H])(N([H])C([H])([H])[H])C([H])([H])[H])C(C([H])([H])[H])(C([H])([H])[H])C([H])([H])[H])C([H])(C(=O)N([H])C3([H])c5c([H])c([H])c([H])c([H])c5C([H])([H])C([H])([H])C3([H])[H])C4([H])[H])C([H])([H])C2([H])[H])c(OC([H])([H])[H])c1[H]

>  <smiles>  (82) 
[H]c1c([H])c([H])c(C2([H])C([H])([H])N(C(=O)N3C([H])([H])C([H])([H])C([H])([H])C([H])(n4nc(-c5c([H])c([H])c(Oc6c([H])c([H])c(F)c([H])c6F)c([H])c5[H])c(C(=O)N([H])[H])c4N([H])[H])C3([H])[H])C2([H])C([H])([H])OC(=O)C2([H])C([H])([H])C([H])([H])C([H])(Oc3c([H])c([H])c4c(c3[H])C([H])([H])N(C(=O)C([H])(N([H])C(=O)C([H])(N([H])C([H])([H])[H])C([H])([H])[H])C(C([H])([H])[H])(C([H])([H])[H])C([H])([H])[H])C([H])(C(=O)N([H])C3([H])c5c([H])c([H])c([H])c([H])c5C([H])([H])C([H])([H])C3([H])[H])C4([H])[H])C([H])([H])C2([H])[H])c(OC([H])([H])[H])c1[H]

$$$$
83:0:0
     RDKit          3D

 92100  0  0  1  0  0  0  0  0999 V2000
  -27.8430  -22.7300   20.9920 C   0  0  0  0  0  3  0  0  0  0  0  0
  -28.2720  -21.3780   20.8060 C   0  0  0  0  0  3  0  0  0  0  0  0
  -29.9280  -23.5380   20.1380 C   0  0  0  0  0  3  0  0  0  0  0  0
  -28.6650  -23.8600   20.6940 C   0  0  0  0  0  0  0  0  0  0  0  0
  -30.3710  -22.1860   19.9430 C   0  0  0  0  0  0  0  0  0  0  0  0
  -29.5610  -21.0650   20.3040 C   0  0  0  0  0  0  0  0  0  0  0  0
  -32.6010  -23.1140   18.9650 C   0  0  0  0  0  1  0  0  0  0  0  0
  -31.7590  -21.8950   19.3750 C   0  0  0  0  0  2  0  0  0  0  0  0
  -27.1460  -25.3660   22.1890 C   0  0  0  0  0  1  0  0  0  0  0  0
  -28.3180  -25.3350   21.1800 C   0  0  0  0  0  3  0  0  0  0  0  0
  -28.3440  -26.4870   20.2380 O   0  0  0  0  0  0  0  0  0  0  0  0
  -24.5850  -31.8780   23.2440 C   0  0  0  0  0  0  0  0  0  0  0  0
  -27.2470  -27.3570   20.2010 C   0  0  0  0  0  0  0  0  0  0  0  0
  -23.4020  -30.4800   21.5850 C   0  0  0  0  0  3  0  0  0  0  0  0
  -24.8760  -28.9420   20.1650 C   0  0  0  0  0  0  0  0  0  0  0  0
  -25.9390  -30.8180   21.4250 C   0  0  0  0  0  2  0  0  0  0  0  0
  -26.0350  -29.4420   20.7750 C   0  0  0  0  0  0  0  0  0  0  0  0
  -27.2270  -28.6600   20.7850 C   0  0  0  0  0  3  0  0  0  0  0  0
  -26.0750  -26.9070   19.5610 C   0  0  0  0  0  3  0  0  0  0  0  0
  -24.8980  -27.6800   19.5490 C   0  0  0  0  0  3  0  0  0  0  0  0
  -23.6330  -29.8080   20.2050 C   0  0  0  0  0  2  0  0  0  0  0  0
  -24.6600  -31.0750   22.1410 N   0  0  0  0  0  0  0  0  0  0  0  0
  -23.4960  -32.1480   23.7700 O   0  0  0  0  0  0  0  0  0  0  0  0
  -22.7360  -29.4570   22.5360 C   0  0  0  0  0  0  0  0  0  0  0  0
  -21.4090  -29.2880   22.4090 N   0  0  0  0  0  0  0  0  0  0  0  0
  -23.4120  -28.8200   23.3480 O   0  0  0  0  0  0  0  0  0  0  0  0
  -20.9240  -29.8540   21.7270 H   0  0  0  0  0  0  0  0  0  0  0  0
  -18.0230  -28.1230   22.9160 C   0  0  0  0  0  0  0  0  0  0  0  0
  -20.5860  -28.3480   23.1710 C   0  0  0  0  0  3  0  0  0  0  0  0
  -20.6680  -26.9250   22.5720 C   0  0  0  0  0  2  0  0  0  0  0  0
  -19.5540  -26.6320   21.5610 C   0  0  0  0  0  2  0  0  0  0  0  0
  -18.1790  -26.7830   22.2180 C   0  0  0  0  0  2  0  0  0  0  0  0
  -19.1540  -28.8640   23.3500 C   0  0  0  0  0  0  0  0  0  0  0  0
  -18.9530  -30.1210   23.9640 C   0  0  0  0  0  3  0  0  0  0  0  0
  -17.6560  -30.6340   24.1470 C   0  0  0  0  0  3  0  0  0  0  0  0
  -16.5400  -29.8890   23.7300 C   0  0  0  0  0  3  0  0  0  0  0  0
  -16.7240  -28.6340   23.1200 C   0  0  0  0  0  3  0  0  0  0  0  0
  -25.8600  -32.5130   23.8800 C   0  0  0  0  0  3  0  0  0  0  0  0
  -25.5480  -33.9150   24.1930 N   0  0  0  0  0  0  0  0  0  0  0  0
  -25.8950  -34.9620   23.4320 C   0  0  0  0  0  0  0  0  0  0  0  0
  -26.5800  -34.8480   22.4120 O   0  0  0  0  0  0  0  0  0  0  0  0
  -24.9410  -34.0770   24.9840 H   0  0  0  0  0  0  0  0  0  0  0  0
  -24.1810  -36.7590   23.0340 C   0  0  0  0  0  1  0  0  0  0  0  0
  -25.4040  -36.3550   23.8720 C   0  0  0  0  0  3  0  0  0  0  0  0
  -27.5250  -37.2370   24.7400 C   0  0  0  0  0  1  0  0  0  0  0  0
  -26.4430  -37.4030   23.7730 N   0  0  0  0  0  0  0  0  0  0  0  0
  -26.0370  -38.3260   23.9050 H   0  0  0  0  0  0  0  0  0  0  0  0
  -26.3560  -31.7520   25.1710 C   0  0  1  0  0  0  0  0  0  0  0  0
  -25.2470  -31.5270   26.2250 C   0  0  0  0  0  1  0  0  0  0  0  0
  -26.9390  -30.3680   24.8000 C   0  0  0  0  0  1  0  0  0  0  0  0
  -27.4980  -32.5490   25.8420 C   0  0  0  0  0  1  0  0  0  0  0  0
  -30.1000  -19.7650   20.1490 O   0  0  0  0  0  0  0  0  0  0  0  0
  -29.4450  -18.5060   20.5290 C   0  0  0  0  0  2  0  0  0  0  0  0
  -30.4140  -17.2430   20.3490 C   0  0  0  0  0  2  0  0  0  0  0  0
  -30.6320  -14.6920   20.2620 C   0  0  0  0  0  0  0  0  0  0  0  0
  -30.3490  -12.4750   19.1800 C   0  0  0  0  0  2  0  0  0  0  0  0
  -29.3910  -12.6310   17.9780 C   0  0  0  0  0  2  0  0  0  0  0  0
  -27.9260  -12.4720   18.4310 C   0  0  0  0  0  2  0  0  0  0  0  0
  -27.5930  -13.3200   19.6880 C   0  0  0  0  0  3  0  0  0  0  0  0
  -28.6710  -13.1680   20.7850 C   0  0  0  0  0  2  0  0  0  0  0  0
  -29.9670  -13.4970   20.1780 N   0  0  0  0  0  0  0  0  0  0  0  0
  -31.8030  -14.7910   19.8900 O   0  0  0  0  0  0  0  0  0  0  0  0
  -29.9110  -15.8270   20.5390 N   0  0  0  0  0  0  0  0  0  0  0  0
  -28.9430  -15.7040   20.7960 H   0  0  0  0  0  0  0  0  0  0  0  0
  -25.2090  -13.9040   20.4400 C   0  0  0  0  0  0  0  0  0  0  0  0
  -24.1500  -13.1260   20.8230 C   0  0  0  0  0  0  0  0  0  0  0  0
  -24.6180  -11.7770   20.7870 C   0  0  0  0  0  0  0  0  0  0  0  0
  -26.2540  -13.0280   20.1940 N   0  0  0  0  0  0  0  0  0  0  0  0
  -25.9060  -11.7450   20.4650 N   0  0  0  0  0  0  0  0  0  0  0  0
  -23.9000  -10.5110   20.9850 C   0  0  0  0  0  0  0  0  0  0  0  0
  -24.3370   -9.5510   21.9250 C   0  0  0  0  0  3  0  0  0  0  0  0
  -23.6180   -8.3520   22.1100 C   0  0  0  0  0  3  0  0  0  0  0  0
  -22.4460   -8.1030   21.3570 C   0  0  0  0  0  0  0  0  0  0  0  0
  -22.0270   -9.0510   20.4080 C   0  0  0  0  0  3  0  0  0  0  0  0
  -22.7470  -10.2420   20.2200 C   0  0  0  0  0  3  0  0  0  0  0  0
  -21.6970   -6.9540   21.4530 O   0  0  0  0  0  0  0  0  0  0  0  0
  -21.6430   -6.2250   22.6140 C   0  0  0  0  0  0  0  0  0  0  0  0
  -21.1910   -6.7870   23.8280 C   0  0  0  0  0  3  0  0  0  0  0  0
  -21.0840   -5.9830   24.9800 C   0  0  0  0  0  3  0  0  0  0  0  0
  -21.4200   -4.6180   24.9190 C   0  0  0  0  0  0  0  0  0  0  0  0
  -21.8660   -4.0550   23.7100 C   0  0  0  0  0  3  0  0  0  0  0  0
  -21.9730   -4.8560   22.5600 C   0  0  0  0  0  0  0  0  0  0  0  0
  -22.3830   -4.3040   21.3930 F   0  0  0  0  0  0  0  0  0  0  0  0
  -21.3110   -3.8430   26.0230 F   0  0  0  0  0  0  0  0  0  0  0  0
  -22.7540  -13.5980   21.1080 C   0  0  0  0  0  0  0  0  0  0  0  0
  -22.0360  -12.8970   21.9800 N   0  0  0  0  0  0  0  0  0  0  0  0
  -22.3090  -14.6240   20.5960 O   0  0  0  0  0  0  0  0  0  0  0  0
  -22.4090  -12.0670   22.4170 H   0  0  0  0  0  0  0  0  0  0  0  0
  -21.1010  -13.1960   22.2160 H   0  0  0  0  0  0  0  0  0  0  0  0
  -25.3650  -15.2760   20.2580 N   0  0  0  0  0  0  0  0  0  0  0  0
  -24.5930  -15.9250   20.3710 H   0  0  0  0  0  0  0  0  0  0  0  0
  -26.2000  -15.7160   19.8930 H   0  0  0  0  0  0  0  0  0  0  0  0
  2  1  1  0
  3  4  1  0
  4  1  2  0
  4 10  1  0
  5  3  2  0
  5  6  1  0
  6  2  2  0
  7  8  1  0
  8  5  1  0
 10  9  1  0
 11 10  1  0
 12 23  2  0
 13 11  1  0
 13 18  1  0
 14 22  1  0
 14 24  1  0
 15 21  1  0
 15 17  1  0
 16 22  1  0
 17 18  2  0
 17 16  1  0
 19 13  2  0
 20 19  1  0
 20 15  2  0
 21 14  1  0
 22 12  1  0
 24 26  2  0
 25 24  1  0
 27 25  1  0
 28 37  2  0
 28 33  1  0
 29 25  1  0
 29 33  1  0
 30 29  1  0
 31 32  1  0
 31 30  1  0
 32 28  1  0
 33 34  2  0
 34 35  1  0
 36 35  2  0
 37 36  1  0
 38 12  1  0
 38 39  1  0
 38 48  1  0
 39 42  1  0
 40 44  1  0
 40 39  1  0
 41 40  2  0
 44 43  1  0
 46 44  1  0
 46 47  1  0
 46 45  1  0
 48 51  1  1
 48 49  1  0
 50 48  1  0
 52  6  1  0
 52 53  1  0
 54 53  1  0
 54 63  1  0
 55 63  1  0
 56 61  1  0
 57 58  1  0
 57 56  1  0
 59 58  1  0
 59 68  1  0
 59 60  1  0
 61 55  1  0
 61 60  1  0
 62 55  2  0
 63 64  1  0
 65 66  2  0
 66 85  1  0
 67 66  1  0
 67 70  1  0
 68 65  1  0
 68 69  1  0
 69 67  2  0
 70 71  1  0
 71 72  2  0
 73 76  1  0
 73 72  1  0
 74 73  2  0
 75 74  1  0
 75 70  2  0
 76 77  1  0
 77 78  1  0
 78 79  2  0
 80 79  1  0
 80 84  1  0
 81 80  2  0
 82 77  2  0
 82 81  1  0
 83 82  1  0
 85 86  1  0
 86 89  1  0
 86 88  1  0
 87 85  2  0
 90 91  1  0
 90 65  1  0
 92 90  1  0
M  ISO  4  10 101  11 101  55 100  63 100
M  END
>  <TORSDO>  (83) 
F 21

>  <SCORE>  (83) 
-13.636

>  <name>  (83) 
83

>  <ligand_id>  (83) 
83

>  <original_smiles>  (83) 
[H]c1c([H])c([H])c2c(c1[H])C([H])([H])C([H])([H])C([H])([H])C2([H])N([H])C(=O)C1([H])N(C(=O)C([H])(N([H])C(=O)C([H])(N([H])C([H])([H])[H])C([H])([H])[H])C(C([H])([H])[H])(C([H])([H])[H])C([H])([H])[H])C([H])([H])c2c([H])c(OC([H])(c3c([H])c([H])c(OC([H])([H])C([H])([H])N([H])C(=O)N4C([H])([H])C([H])([H])C([H])([H])C([H])(n5nc(-c6c([H])c([H])c(Oc7c([H])c([H])c(F)c([H])c7F)c([H])c6[H])c(C(=O)N([H])[H])c5N([H])[H])C4([H])[H])c(C([H])([H])C([H])([H])[H])c3[H])C([H])([H])[H])c([H])c([H])c2C1([H])[H]

>  <smiles>  (83) 
[H]c1c([H])c([H])c2c(c1[H])C([H])([H])C([H])([H])C([H])([H])C2([H])N([H])C(=O)C1([H])N(C(=O)C([H])(N([H])C(=O)C([H])(N([H])C([H])([H])[H])C([H])([H])[H])C(C([H])([H])[H])(C([H])([H])[H])C([H])([H])[H])C([H])([H])c2c([H])c(OC([H])(c3c([H])c([H])c(OC([H])([H])C([H])([H])N([H])C(=O)N4C([H])([H])C([H])([H])C([H])([H])C([H])(n5nc(-c6c([H])c([H])c(Oc7c([H])c([H])c(F)c([H])c7F)c([H])c6[H])c(C(=O)N([H])[H])c5N([H])[H])C4([H])[H])c(C([H])([H])C([H])([H])[H])c3[H])C([H])([H])[H])c([H])c([H])c2C1([H])[H]

$$$$
84:0:0
     RDKit          3D

 98107  0  0  1  0  0  0  0  0999 V2000
  -28.6910  -22.3660   16.5990 C   0  0  0  0  0  3  0  0  0  0  0  0
  -29.3420  -24.2480   17.9540 C   0  0  0  0  0  3  0  0  0  0  0  0
  -29.0170  -23.7200   16.7000 C   0  0  0  0  0  0  0  0  0  0  0  0
  -28.7080  -21.5260   17.7310 C   0  0  0  0  0  0  0  0  0  0  0  0
  -29.3720  -23.4470   19.1180 C   0  0  0  0  0  0  0  0  0  0  0  0
  -29.0930  -22.0210   19.0230 C   0  0  0  0  0  0  0  0  0  0  0  0
  -29.0070  -24.6140   15.4760 C   0  0  0  0  0  1  0  0  0  0  0  0
  -28.2600  -20.0910   17.4800 C   0  0  0  0  0  1  0  0  0  0  0  0
  -29.7320  -24.2580   20.3790 C   0  0  0  0  0  2  0  0  0  0  0  0
  -28.7410  -25.4180   20.7780 C   0  0  0  0  0  2  0  0  0  0  0  0
  -28.8780  -26.7350   20.1540 O   0  0  0  0  0  0  0  0  0  0  0  0
  -24.6950  -31.7200   23.1950 C   0  0  0  0  0  0  0  0  0  0  0  0
  -27.7080  -27.4850   20.1090 C   0  0  0  0  0  0  0  0  0  0  0  0
  -23.6440  -30.3070   21.4620 C   0  0  0  0  0  3  0  0  0  0  0  0
  -25.2430  -28.9000   20.0510 C   0  0  0  0  0  0  0  0  0  0  0  0
  -26.1570  -30.8010   21.3880 C   0  0  0  0  0  2  0  0  0  0  0  0
  -26.3490  -29.4550   20.7070 C   0  0  0  0  0  0  0  0  0  0  0  0
  -27.5880  -28.7590   20.7270 C   0  0  0  0  0  3  0  0  0  0  0  0
  -26.5850  -26.9680   19.4280 C   0  0  0  0  0  3  0  0  0  0  0  0
  -25.3590  -27.6600   19.4030 C   0  0  0  0  0  3  0  0  0  0  0  0
  -23.9500  -29.6890   20.0730 C   0  0  0  0  0  2  0  0  0  0  0  0
  -24.8470  -30.9580   22.0740 N   0  0  0  0  0  0  0  0  0  0  0  0
  -23.5770  -31.9140   23.6940 O   0  0  0  0  0  0  0  0  0  0  0  0
  -23.0110  -29.2200   22.3630 C   0  0  0  0  0  0  0  0  0  0  0  0
  -21.6920  -29.0080   22.2160 N   0  0  0  0  0  0  0  0  0  0  0  0
  -23.7040  -28.5720   23.1520 O   0  0  0  0  0  0  0  0  0  0  0  0
  -21.1920  -29.5860   21.5550 H   0  0  0  0  0  0  0  0  0  0  0  0
  -18.3440  -27.7100   22.6400 C   0  0  0  0  0  0  0  0  0  0  0  0
  -20.8960  -28.0090   22.9290 C   0  0  0  0  0  3  0  0  0  0  0  0
  -21.0300  -26.6180   22.2700 C   0  0  0  0  0  2  0  0  0  0  0  0
  -19.9350  -26.3300   21.2380 C   0  0  0  0  0  2  0  0  0  0  0  0
  -18.5510  -26.4070   21.8880 C   0  0  0  0  0  2  0  0  0  0  0  0
  -19.4460  -28.4700   23.1150 C   0  0  0  0  0  0  0  0  0  0  0  0
  -19.2000  -29.6920   23.7800 C   0  0  0  0  0  3  0  0  0  0  0  0
  -17.8840  -30.1540   23.9730 C   0  0  0  0  0  3  0  0  0  0  0  0
  -16.7970  -29.3900   23.5150 C   0  0  0  0  0  3  0  0  0  0  0  0
  -17.0280  -28.1710   22.8540 C   0  0  0  0  0  3  0  0  0  0  0  0
  -25.9130  -32.4060   23.8880 C   0  0  0  0  0  3  0  0  0  0  0  0
  -25.5290  -33.7900   24.1950 N   0  0  0  0  0  0  0  0  0  0  0  0
  -25.8620  -34.8540   23.4540 C   0  0  0  0  0  0  0  0  0  0  0  0
  -26.5950  -34.7770   22.4630 O   0  0  0  0  0  0  0  0  0  0  0  0
  -24.8820  -33.9210   24.9580 H   0  0  0  0  0  0  0  0  0  0  0  0
  -24.0820  -36.5710   22.9970 C   0  0  0  0  0  1  0  0  0  0  0  0
  -25.2920  -36.2220   23.8760 C   0  0  0  0  0  3  0  0  0  0  0  0
  -27.3400  -37.1970   24.8160 C   0  0  0  0  0  1  0  0  0  0  0  0
  -26.2840  -37.3180   23.8150 N   0  0  0  0  0  0  0  0  0  0  0  0
  -25.8320  -38.2200   23.9380 H   0  0  0  0  0  0  0  0  0  0  0  0
  -26.3870  -31.6570   25.1940 C   0  0  1  0  0  0  0  0  0  0  0  0
  -25.2460  -31.3800   26.2000 C   0  0  0  0  0  1  0  0  0  0  0  0
  -27.0420  -30.3020   24.8390 C   0  0  0  0  0  1  0  0  0  0  0  0
  -27.4690  -32.4950   25.9150 C   0  0  0  0  0  1  0  0  0  0  0  0
  -29.1300  -20.9870   20.2150 C   0  0  0  0  0  3  0  0  0  0  0  0
  -31.0940  -19.4100   19.3420 C   0  0  0  0  0  2  0  0  0  0  0  0
  -30.6740  -19.4690   21.8140 C   0  0  0  0  0  2  0  0  0  0  0  0
  -30.6180  -17.9200   19.3190 C   0  0  0  0  0  2  0  0  0  0  0  0
  -30.1870  -17.9920   21.7510 C   0  0  0  0  0  2  0  0  0  0  0  0
  -30.5270  -20.2960   20.4950 C   0  0  0  0  0  3  0  0  0  0  0  0
  -30.9050  -17.1780   20.6470 C   0  0  0  0  0  3  0  0  0  0  0  0
  -31.2300  -14.6490   20.3130 C   0  0  0  0  0  0  0  0  0  0  0  0
  -30.9270  -12.4080   19.3030 C   0  0  0  0  0  2  0  0  0  0  0  0
  -30.0030  -12.5430   18.0750 C   0  0  0  0  0  2  0  0  0  0  0  0
  -28.5220  -12.4550   18.4920 C   0  0  0  0  0  2  0  0  0  0  0  0
  -28.1830  -13.3720   19.6980 C   0  0  0  0  0  3  0  0  0  0  0  0
  -29.2210  -13.2090   20.8310 C   0  0  0  0  0  2  0  0  0  0  0  0
  -30.5510  -13.4650   20.2570 N   0  0  0  0  0  0  0  0  0  0  0  0
  -32.3940  -14.7550   19.9180 O   0  0  0  0  0  0  0  0  0  0  0  0
  -30.4970  -15.7420   20.6490 N   0  0  0  0  0  0  0  0  0  0  0  0
  -29.5450  -15.5500   20.9210 H   0  0  0  0  0  0  0  0  0  0  0  0
  -25.8150  -14.0860   20.3980 C   0  0  0  0  0  0  0  0  0  0  0  0
  -24.7110  -13.3640   20.7630 C   0  0  0  0  0  0  0  0  0  0  0  0
  -25.1100  -11.9930   20.7350 C   0  0  0  0  0  0  0  0  0  0  0  0
  -26.8190  -13.1580   20.1720 N   0  0  0  0  0  0  0  0  0  0  0  0
  -26.3990  -11.8940   20.4340 N   0  0  0  0  0  0  0  0  0  0  0  0
  -24.3250  -10.7650   20.9220 C   0  0  0  0  0  0  0  0  0  0  0  0
  -24.6910   -9.7930   21.8780 C   0  0  0  0  0  3  0  0  0  0  0  0
  -23.9100   -8.6300   22.0510 C   0  0  0  0  0  3  0  0  0  0  0  0
  -22.7490   -8.4320   21.2680 C   0  0  0  0  0  0  0  0  0  0  0  0
  -22.4020   -9.3910   20.3000 C   0  0  0  0  0  3  0  0  0  0  0  0
  -23.1840  -10.5460   20.1250 C   0  0  0  0  0  3  0  0  0  0  0  0
  -21.9440   -7.3210   21.3490 O   0  0  0  0  0  0  0  0  0  0  0  0
  -21.7960   -6.6240   22.5210 C   0  0  0  0  0  0  0  0  0  0  0  0
  -21.3180   -7.2390   23.6990 C   0  0  0  0  0  3  0  0  0  0  0  0
  -21.1150   -6.4700   24.8630 C   0  0  0  0  0  3  0  0  0  0  0  0
  -21.3790   -5.0870   24.8480 C   0  0  0  0  0  0  0  0  0  0  0  0
  -21.8500   -4.4720   23.6740 C   0  0  0  0  0  3  0  0  0  0  0  0
  -22.0540   -5.2380   22.5140 C   0  0  0  0  0  0  0  0  0  0  0  0
  -22.4880   -4.6370   21.3800 F   0  0  0  0  0  0  0  0  0  0  0  0
  -21.1770   -4.3470   25.9630 F   0  0  0  0  0  0  0  0  0  0  0  0
  -23.3350  -13.9050   21.0260 C   0  0  0  0  0  0  0  0  0  0  0  0
  -22.5820  -13.2610   21.9100 N   0  0  0  0  0  0  0  0  0  0  0  0
  -22.9380  -14.9360   20.4820 O   0  0  0  0  0  0  0  0  0  0  0  0
  -22.9170  -12.4280   22.3710 H   0  0  0  0  0  0  0  0  0  0  0  0
  -21.6580  -13.6060   22.1300 H   0  0  0  0  0  0  0  0  0  0  0  0
  -26.0420  -15.4480   20.2190 N   0  0  0  0  0  0  0  0  0  0  0  0
  -25.3040  -16.1350   20.3220 H   0  0  0  0  0  0  0  0  0  0  0  0
  -26.9090  -15.8470   19.8790 H   0  0  0  0  0  0  0  0  0  0  0  0
  -27.0410  -22.2030   21.1640 C   0  0  0  0  0  1  0  0  0  0  0  0
  -28.3420  -21.4450   21.4720 C   0  0  0  0  0  2  0  0  0  0  0  0
  1  3  2  0
  1  4  1  0
  2  5  2  0
  3  2  1  0
  4  6  2  0
  5  9  1  0
  6  5  1  0
  6 52  1  0
  7  3  1  0
  8  4  1  0
  9 10  1  0
 11 10  1  0
 12 23  2  0
 13 11  1  0
 13 18  1  0
 14 22  1  0
 14 24  1  0
 15 21  1  0
 15 17  1  0
 16 22  1  0
 17 18  2  0
 17 16  1  0
 19 13  2  0
 20 19  1  0
 20 15  2  0
 21 14  1  0
 22 12  1  0
 24 26  2  0
 25 24  1  0
 27 25  1  0
 28 37  2  0
 28 33  1  0
 29 25  1  0
 29 33  1  0
 30 29  1  0
 31 32  1  0
 31 30  1  0
 32 28  1  0
 33 34  2  0
 34 35  1  0
 36 35  2  0
 37 36  1  0
 38 12  1  0
 38 39  1  0
 38 48  1  0
 39 42  1  0
 40 44  1  0
 40 39  1  0
 41 40  2  0
 44 43  1  0
 46 44  1  0
 46 47  1  0
 46 45  1  0
 48 51  1  1
 48 49  1  0
 50 48  1  0
 52 98  1  0
 53 57  1  0
 55 53  1  0
 55 58  1  0
 56 54  1  0
 57 52  1  0
 57 54  1  0
 58 67  1  0
 58 56  1  0
 59 67  1  0
 60 65  1  0
 61 62  1  0
 61 60  1  0
 63 62  1  0
 63 72  1  0
 63 64  1  0
 65 59  1  0
 65 64  1  0
 66 59  2  0
 67 68  1  0
 69 70  2  0
 70 89  1  0
 71 70  1  0
 71 74  1  0
 72 69  1  0
 72 73  1  0
 73 71  2  0
 74 75  1  0
 75 76  2  0
 77 80  1  0
 77 76  1  0
 78 77  2  0
 79 78  1  0
 79 74  2  0
 80 81  1  0
 81 82  1  0
 82 83  2  0
 84 83  1  0
 84 88  1  0
 85 84  2  0
 86 81  2  0
 86 85  1  0
 87 86  1  0
 89 90  1  0
 90 93  1  0
 90 92  1  0
 91 89  2  0
 94 95  1  0
 94 69  1  0
 96 94  1  0
 97 98  1  0
M  ISO  4  10 101  11 101  59 100  67 100
M  END
>  <TORSDO>  (84) 
F 21

>  <SCORE>  (84) 
-12.290

>  <name>  (84) 
84

>  <ligand_id>  (84) 
84

>  <original_smiles>  (84) 
[H]c1c([H])c([H])c2c(c1[H])C([H])([H])C([H])([H])C([H])([H])C2([H])N([H])C(=O)C1([H])N(C(=O)C([H])(N([H])C(=O)C([H])(N([H])C([H])([H])[H])C([H])([H])[H])C(C([H])([H])[H])(C([H])([H])[H])C([H])([H])[H])C([H])([H])c2c([H])c(OC([H])([H])C([H])([H])c3c([H])c(C([H])([H])[H])c([H])c(C([H])([H])[H])c3C([H])(C([H])([H])C([H])([H])[H])C3([H])C([H])([H])C([H])([H])C([H])(N([H])C(=O)N4C([H])([H])C([H])([H])C([H])([H])C([H])(n5nc(-c6c([H])c([H])c(Oc7c([H])c([H])c(F)c([H])c7F)c([H])c6[H])c(C(=O)N([H])[H])c5N([H])[H])C4([H])[H])C([H])([H])C3([H])[H])c([H])c([H])c2C1([H])[H]

>  <smiles>  (84) 
[H]c1c([H])c([H])c2c(c1[H])C([H])([H])C([H])([H])C([H])([H])C2([H])N([H])C(=O)C1([H])N(C(=O)C([H])(N([H])C(=O)C([H])(N([H])C([H])([H])[H])C([H])([H])[H])C(C([H])([H])[H])(C([H])([H])[H])C([H])([H])[H])C([H])([H])c2c([H])c(OC([H])([H])C([H])([H])c3c([H])c(C([H])([H])[H])c([H])c(C([H])([H])[H])c3C([H])(C([H])([H])C([H])([H])[H])C3([H])C([H])([H])C([H])([H])C([H])(N([H])C(=O)N4C([H])([H])C([H])([H])C([H])([H])C([H])(n5nc(-c6c([H])c([H])c(Oc7c([H])c([H])c(F)c([H])c7F)c([H])c6[H])c(C(=O)N([H])[H])c5N([H])[H])C4([H])[H])C([H])([H])C3([H])[H])c([H])c([H])c2C1([H])[H]

$$$$
85:0:0
     RDKit          3D

 95104  0  0  1  0  0  0  0  0999 V2000
  -30.3080  -20.2590   21.3210 C   0  0  0  0  0  3  0  0  0  0  0  0
  -30.0640  -21.5630   20.8470 C   0  0  0  0  0  3  0  0  0  0  0  0
  -28.2360  -20.7360   19.4460 C   0  0  0  0  0  0  0  0  0  0  0  0
  -29.5390  -19.1720   20.8520 C   0  0  0  0  0  0  0  0  0  0  0  0
  -29.0420  -21.8100   19.9020 C   0  0  0  0  0  0  0  0  0  0  0  0
  -28.4830  -19.4170   19.9340 C   0  0  0  0  0  0  0  0  0  0  0  0
  -26.2850  -20.1610   17.6120 C   0  0  0  0  0  2  0  0  0  0  0  0
  -27.4500  -20.8750   16.9680 C   0  0  0  0  0  2  0  0  0  0  0  0
  -27.1600  -21.0900   18.4360 C   0  0  0  0  0  3  0  0  0  0  0  0
  -26.5360  -18.1390   20.2380 C   0  0  0  0  0  1  0  0  0  0  0  0
  -27.7380  -18.3500   19.5030 O   0  0  0  0  0  0  0  0  0  0  0  0
  -29.8400  -17.7480   21.3360 C   0  0  0  0  0  2  0  0  0  0  0  0
  -30.3970  -16.8220   20.2330 C   0  0  0  0  0  2  0  0  0  0  0  0
  -30.9300  -14.3790   20.0500 C   0  0  0  0  0  0  0  0  0  0  0  0
  -30.5410  -12.2280   18.9140 C   0  0  0  0  0  2  0  0  0  0  0  0
  -29.5430  -12.4780   17.7640 C   0  0  0  0  0  2  0  0  0  0  0  0
  -28.0920  -12.3720   18.2720 C   0  0  0  0  0  2  0  0  0  0  0  0
  -27.8410  -13.1840   19.5730 C   0  0  0  0  0  3  0  0  0  0  0  0
  -28.9520  -12.9220   20.6150 C   0  0  0  0  0  2  0  0  0  0  0  0
  -30.2520  -13.2040   19.9770 N   0  0  0  0  0  0  0  0  0  0  0  0
  -32.0250  -14.5680   19.5060 O   0  0  0  0  0  0  0  0  0  0  0  0
  -30.2270  -15.3990   20.5630 N   0  0  0  0  0  0  0  0  0  0  0  0
  -29.3460  -15.1410   20.9800 H   0  0  0  0  0  0  0  0  0  0  0  0
  -25.5090  -13.8290   20.4450 C   0  0  0  0  0  0  0  0  0  0  0  0
  -24.4460  -13.0750   20.8600 C   0  0  0  0  0  0  0  0  0  0  0  0
  -24.8610  -11.7100   20.7530 C   0  0  0  0  0  0  0  0  0  0  0  0
  -26.5100  -12.9270   20.1200 N   0  0  0  0  0  0  0  0  0  0  0  0
  -26.1260  -11.6450   20.3620 N   0  0  0  0  0  0  0  0  0  0  0  0
  -24.1160  -10.4600   20.9470 C   0  0  0  0  0  0  0  0  0  0  0  0
  -24.5430   -9.4860   21.8730 C   0  0  0  0  0  3  0  0  0  0  0  0
  -23.8030   -8.3000   22.0560 C   0  0  0  0  0  3  0  0  0  0  0  0
  -22.6250   -8.0780   21.3060 C   0  0  0  0  0  0  0  0  0  0  0  0
  -22.2170   -9.0420   20.3690 C   0  0  0  0  0  3  0  0  0  0  0  0
  -22.9570  -10.2210   20.1830 C   0  0  0  0  0  3  0  0  0  0  0  0
  -21.8570   -6.9410   21.3940 O   0  0  0  0  0  0  0  0  0  0  0  0
  -21.7340   -6.2440   22.5680 C   0  0  0  0  0  0  0  0  0  0  0  0
  -21.2420   -6.8470   23.7460 C   0  0  0  0  0  3  0  0  0  0  0  0
  -21.0650   -6.0780   24.9130 C   0  0  0  0  0  3  0  0  0  0  0  0
  -21.3730   -4.7030   24.9060 C   0  0  0  0  0  0  0  0  0  0  0  0
  -21.8570   -4.0990   23.7310 C   0  0  0  0  0  3  0  0  0  0  0  0
  -22.0350   -4.8660   22.5680 C   0  0  0  0  0  0  0  0  0  0  0  0
  -22.4820   -4.2700   21.4350 F   0  0  0  0  0  0  0  0  0  0  0  0
  -21.1990   -3.9630   26.0240 F   0  0  0  0  0  0  0  0  0  0  0  0
  -23.0830  -13.5800   21.2390 C   0  0  0  0  0  0  0  0  0  0  0  0
  -22.3890  -12.8770   22.1280 N   0  0  0  0  0  0  0  0  0  0  0  0
  -22.6410  -14.6280   20.7720 O   0  0  0  0  0  0  0  0  0  0  0  0
  -22.7600  -12.0240   22.5130 H   0  0  0  0  0  0  0  0  0  0  0  0
  -21.4680  -13.1780   22.4150 H   0  0  0  0  0  0  0  0  0  0  0  0
  -25.7020  -15.2030   20.2940 N   0  0  0  0  0  0  0  0  0  0  0  0
  -24.9490  -15.8670   20.4450 H   0  0  0  0  0  0  0  0  0  0  0  0
  -26.5260  -15.6350   19.8920 H   0  0  0  0  0  0  0  0  0  0  0  0
  -28.8620  -23.0550   19.3290 O   0  0  0  0  0  0  0  0  0  0  0  0
  -28.7960  -24.2210   20.1590 C   0  0  0  0  0  2  0  0  0  0  0  0
  -28.8730  -25.4820   19.2570 C   0  0  0  0  0  2  0  0  0  0  0  0
  -28.6100  -26.7110   19.9550 O   0  0  0  0  0  0  0  0  0  0  0  0
  -24.5100  -31.6430   23.0060 C   0  0  0  0  0  0  0  0  0  0  0  0
  -27.3750  -27.3370   19.9130 C   0  0  0  0  0  0  0  0  0  0  0  0
  -23.3880  -30.2440   21.2970 C   0  0  0  0  0  3  0  0  0  0  0  0
  -24.9250  -28.7710   19.8910 C   0  0  0  0  0  0  0  0  0  0  0  0
  -25.9040  -30.6800   21.1750 C   0  0  0  0  0  2  0  0  0  0  0  0
  -26.0480  -29.3200   20.5180 C   0  0  0  0  0  0  0  0  0  0  0  0
  -27.2690  -28.6090   20.5280 C   0  0  0  0  0  3  0  0  0  0  0  0
  -26.2190  -26.7900   19.3040 C   0  0  0  0  0  3  0  0  0  0  0  0
  -25.0050  -27.5040   19.2880 C   0  0  0  0  0  3  0  0  0  0  0  0
  -23.6570  -29.5950   19.9120 C   0  0  0  0  0  2  0  0  0  0  0  0
  -24.6170  -30.8690   21.8870 N   0  0  0  0  0  0  0  0  0  0  0  0
  -23.4090  -31.8780   23.5250 O   0  0  0  0  0  0  0  0  0  0  0  0
  -22.7380  -29.1900   22.2200 C   0  0  0  0  0  0  0  0  0  0  0  0
  -21.4080  -29.0370   22.1120 N   0  0  0  0  0  0  0  0  0  0  0  0
  -23.4250  -28.5130   22.9870 O   0  0  0  0  0  0  0  0  0  0  0  0
  -20.9160  -29.6340   21.4640 H   0  0  0  0  0  0  0  0  0  0  0  0
  -18.0180  -27.9160   22.6560 C   0  0  0  0  0  0  0  0  0  0  0  0
  -20.5900  -28.0750   22.8490 C   0  0  0  0  0  3  0  0  0  0  0  0
  -20.6260  -26.6860   22.1730 C   0  0  0  0  0  2  0  0  0  0  0  0
  -19.4790  -26.4670   21.1820 C   0  0  0  0  0  2  0  0  0  0  0  0
  -18.1250  -26.6110   21.8840 C   0  0  0  0  0  2  0  0  0  0  0  0
  -19.1750  -28.6120   23.0950 C   0  0  0  0  0  0  0  0  0  0  0  0
  -19.0210  -29.8390   23.7780 C   0  0  0  0  0  3  0  0  0  0  0  0
  -17.7420  -30.3690   24.0230 C   0  0  0  0  0  3  0  0  0  0  0  0
  -16.6000  -29.6690   23.5980 C   0  0  0  0  0  3  0  0  0  0  0  0
  -16.7370  -28.4430   22.9230 C   0  0  0  0  0  3  0  0  0  0  0  0
  -25.7630  -32.2900   23.6770 C   0  0  0  0  0  3  0  0  0  0  0  0
  -25.4030  -33.6630   24.0560 N   0  0  0  0  0  0  0  0  0  0  0  0
  -25.7180  -34.7530   23.3440 C   0  0  0  0  0  0  0  0  0  0  0  0
  -26.4130  -34.7110   22.3240 O   0  0  0  0  0  0  0  0  0  0  0  0
  -24.7870  -33.7680   24.8500 H   0  0  0  0  0  0  0  0  0  0  0  0
  -23.9380  -36.4980   23.0170 C   0  0  0  0  0  1  0  0  0  0  0  0
  -25.1740  -36.1050   23.8430 C   0  0  0  0  0  3  0  0  0  0  0  0
  -27.2590  -37.0280   24.7550 C   0  0  0  0  0  1  0  0  0  0  0  0
  -26.1720  -37.1950   23.7920 N   0  0  0  0  0  0  0  0  0  0  0  0
  -25.7310  -38.0940   23.9650 H   0  0  0  0  0  0  0  0  0  0  0  0
  -26.2870  -31.4830   24.9270 C   0  0  1  0  0  0  0  0  0  0  0  0
  -25.1890  -31.1810   25.9720 C   0  0  0  0  0  1  0  0  0  0  0  0
  -26.9040  -30.1350   24.4860 C   0  0  0  0  0  1  0  0  0  0  0  0
  -27.4120  -32.2770   25.6320 C   0  0  0  0  0  1  0  0  0  0  0  0
  2  1  2  0
  3  5  2  0
  3  6  1  0
  4  1  1  0
  4 12  1  0
  5  2  1  0
  6  4  2  0
  7  9  1  0
  8  7  1  0
  8  9  1  0
  9  3  1  0
 11  6  1  0
 11 10  1  0
 13 22  1  0
 13 12  1  0
 14 22  1  0
 15 20  1  0
 16 17  1  0
 16 15  1  0
 18 17  1  0
 18 27  1  0
 18 19  1  0
 20 14  1  0
 20 19  1  0
 21 14  2  0
 22 23  1  0
 24 25  2  0
 25 44  1  0
 26 25  1  0
 26 29  1  0
 27 28  1  0
 27 24  1  0
 28 26  2  0
 29 30  1  0
 30 31  2  0
 32 35  1  0
 32 31  1  0
 33 32  2  0
 34 33  1  0
 34 29  2  0
 35 36  1  0
 36 37  1  0
 37 38  2  0
 39 38  1  0
 39 43  1  0
 40 39  2  0
 41 36  2  0
 41 40  1  0
 42 41  1  0
 44 45  1  0
 45 48  1  0
 45 47  1  0
 46 44  2  0
 49 50  1  0
 49 24  1  0
 51 49  1  0
 52  5  1  0
 52 53  1  0
 54 55  1  0
 54 53  1  0
 56 67  2  0
 57 55  1  0
 57 62  1  0
 58 66  1  0
 58 68  1  0
 59 65  1  0
 59 61  1  0
 60 66  1  0
 61 62  2  0
 61 60  1  0
 63 57  2  0
 64 63  1  0
 64 59  2  0
 65 58  1  0
 66 56  1  0
 68 70  2  0
 69 68  1  0
 71 69  1  0
 72 81  2  0
 72 77  1  0
 73 69  1  0
 73 77  1  0
 74 73  1  0
 75 76  1  0
 75 74  1  0
 76 72  1  0
 77 78  2  0
 78 79  1  0
 80 79  2  0
 81 80  1  0
 82 56  1  0
 82 83  1  0
 82 92  1  0
 83 86  1  0
 84 88  1  0
 84 83  1  0
 85 84  2  0
 88 87  1  0
 90 88  1  0
 90 91  1  0
 90 89  1  0
 92 95  1  1
 92 93  1  0
 94 92  1  0
M  ISO  4  14 100  22 100  54 101  55 101
M  END
>  <TORSDO>  (85) 
F 23

>  <SCORE>  (85) 
-12.076

>  <name>  (85) 
85

>  <ligand_id>  (85) 
85

>  <original_smiles>  (85) 
[H]c1c([H])c([H])c2c(c1[H])C([H])([H])C([H])([H])C([H])([H])C2([H])N([H])C(=O)C1([H])N(C(=O)C([H])(N([H])C(=O)C([H])(N([H])C([H])([H])[H])C([H])([H])[H])C(C([H])([H])[H])(C([H])([H])[H])C([H])([H])[H])C([H])([H])c2c([H])c(OC([H])([H])C([H])([H])Oc3c([H])c([H])c(C([H])([H])C([H])([H])N([H])C(=O)N4C([H])([H])C([H])([H])C([H])([H])C([H])(n5nc(-c6c([H])c([H])c(Oc7c([H])c([H])c(F)c([H])c7F)c([H])c6[H])c(C(=O)N([H])[H])c5N([H])[H])C4([H])[H])c(OC([H])([H])[H])c3C3([H])C([H])([H])C3([H])[H])c([H])c([H])c2C1([H])[H]

>  <smiles>  (85) 
[H]c1c([H])c([H])c2c(c1[H])C([H])([H])C([H])([H])C([H])([H])C2([H])N([H])C(=O)C1([H])N(C(=O)C([H])(N([H])C(=O)C([H])(N([H])C([H])([H])[H])C([H])([H])[H])C(C([H])([H])[H])(C([H])([H])[H])C([H])([H])[H])C([H])([H])c2c([H])c(OC([H])([H])C([H])([H])Oc3c([H])c([H])c(C([H])([H])C([H])([H])N([H])C(=O)N4C([H])([H])C([H])([H])C([H])([H])C([H])(n5nc(-c6c([H])c([H])c(Oc7c([H])c([H])c(F)c([H])c7F)c([H])c6[H])c(C(=O)N([H])[H])c5N([H])[H])C4([H])[H])c(OC([H])([H])[H])c3C3([H])C([H])([H])C3([H])[H])c([H])c([H])c2C1([H])[H]

$$$$
86:0:0
     RDKit          3D

 96104  0  0  1  0  0  0  0  0999 V2000
  -27.1660  -25.0180   21.7830 C   0  0  0  0  0  3  0  0  0  0  0  0
  -27.5250  -26.3200   21.4180 C   0  0  0  0  0  3  0  0  0  0  0  0
  -29.1830  -25.4280   19.8860 C   0  0  0  0  0  3  0  0  0  0  0  0
  -27.7950  -23.8920   21.2220 C   0  0  0  0  0  0  0  0  0  0  0  0
  -28.8530  -24.0720   20.2760 C   0  0  0  0  0  0  0  0  0  0  0  0
  -28.4940  -26.5820   20.4230 C   0  0  0  0  0  0  0  0  0  0  0  0
  -25.7220  -22.4640   21.3850 C   0  0  0  0  0  1  0  0  0  0  0  0
  -27.5610  -22.1220   23.0870 C   0  0  0  0  0  1  0  0  0  0  0  0
  -27.2370  -22.5140   21.6340 C   0  0  0  0  0  3  0  0  0  0  0  0
  -28.6970  -27.9320   20.0320 O   0  0  0  0  0  0  0  0  0  0  0  0
  -24.8380  -32.4670   24.0340 C   0  0  0  0  0  0  0  0  0  0  0  0
  -27.5880  -28.7840   20.0950 C   0  0  0  0  0  0  0  0  0  0  0  0
  -23.6530  -31.3390   22.1770 C   0  0  0  0  0  3  0  0  0  0  0  0
  -25.1400  -30.1950   20.4370 C   0  0  0  0  0  0  0  0  0  0  0  0
  -26.1600  -31.8480   22.0070 C   0  0  0  0  0  2  0  0  0  0  0  0
  -26.2950  -30.6380   21.0980 C   0  0  0  0  0  0  0  0  0  0  0  0
  -27.5240  -29.9390   20.9300 C   0  0  0  0  0  3  0  0  0  0  0  0
  -26.4210  -28.4020   19.3990 C   0  0  0  0  0  3  0  0  0  0  0  0
  -25.2020  -29.0850   19.5790 C   0  0  0  0  0  3  0  0  0  0  0  0
  -23.8570  -30.9570   20.6860 C   0  0  0  0  0  2  0  0  0  0  0  0
  -24.9020  -31.8910   22.7960 N   0  0  0  0  0  0  0  0  0  0  0  0
  -23.7610  -32.5680   24.6400 O   0  0  0  0  0  0  0  0  0  0  0  0
  -23.0840  -30.1160   22.9380 C   0  0  0  0  0  0  0  0  0  0  0  0
  -21.7950  -29.8110   22.7160 N   0  0  0  0  0  0  0  0  0  0  0  0
  -23.8030  -29.4530   23.6900 O   0  0  0  0  0  0  0  0  0  0  0  0
  -21.2710  -30.4010   22.0850 H   0  0  0  0  0  0  0  0  0  0  0  0
  -18.5960  -28.1250   22.7870 C   0  0  0  0  0  0  0  0  0  0  0  0
  -21.0720  -28.6780   23.2940 C   0  0  0  0  0  3  0  0  0  0  0  0
  -21.4120  -27.3680   22.5470 C   0  0  0  0  0  2  0  0  0  0  0  0
  -20.4280  -27.0530   21.4130 C   0  0  0  0  0  2  0  0  0  0  0  0
  -19.0060  -26.9150   21.9640 C   0  0  0  0  0  2  0  0  0  0  0  0
  -19.5690  -28.9610   23.3990 C   0  0  0  0  0  0  0  0  0  0  0  0
  -19.1400  -30.0950   24.1240 C   0  0  0  0  0  3  0  0  0  0  0  0
  -17.7700  -30.3950   24.2440 C   0  0  0  0  0  3  0  0  0  0  0  0
  -16.8110  -29.5520   23.6530 C   0  0  0  0  0  3  0  0  0  0  0  0
  -17.2250  -28.4190   22.9310 C   0  0  0  0  0  3  0  0  0  0  0  0
  -26.1050  -33.0420   24.7350 C   0  0  0  0  0  3  0  0  0  0  0  0
  -25.8070  -34.4310   25.1170 N   0  0  0  0  0  0  0  0  0  0  0  0
  -26.1800  -35.5070   24.4130 C   0  0  0  0  0  0  0  0  0  0  0  0
  -26.8810  -35.4350   23.4010 O   0  0  0  0  0  0  0  0  0  0  0  0
  -25.1890  -34.5610   25.9040 H   0  0  0  0  0  0  0  0  0  0  0  0
  -24.4930  -37.3420   24.0870 C   0  0  0  0  0  1  0  0  0  0  0  0
  -25.7040  -36.8840   24.9150 C   0  0  0  0  0  3  0  0  0  0  0  0
  -27.8260  -37.6970   25.8420 C   0  0  0  0  0  1  0  0  0  0  0  0
  -26.7570  -37.9210   24.8720 N   0  0  0  0  0  0  0  0  0  0  0  0
  -26.3630  -38.8440   25.0410 H   0  0  0  0  0  0  0  0  0  0  0  0
  -26.5550  -32.2050   25.9970 C   0  0  1  0  0  0  0  0  0  0  0  0
  -25.4010  -31.9060   26.9850 C   0  0  0  0  0  1  0  0  0  0  0  0
  -27.1760  -30.8530   25.5710 C   0  0  0  0  0  1  0  0  0  0  0  0
  -27.6620  -32.9670   26.7630 C   0  0  0  0  0  1  0  0  0  0  0  0
  -29.5650  -22.7540   19.8040 C   0  0  0  0  0  2  0  0  0  0  0  0
  -30.6240  -22.6420   18.6680 C   0  0  0  0  0  2  0  0  0  0  0  0
  -31.6040  -21.5010   18.8570 N   0  0  0  0  0  4  0  0  0  0  0  0
  -32.1250  -21.6880   19.7000 H   0  0  0  0  0  0  0  0  0  0  0  0
  -32.2640  -21.5590   18.0980 H   0  0  0  0  0  0  0  0  0  0  0  0
  -31.1630  -20.0620   18.9050 C   0  0  0  0  0  2  0  0  0  0  0  0
  -32.0890  -19.8560   21.2780 C   0  0  0  0  0  1  0  0  0  0  0  0
  -32.0730  -19.2010   19.8820 C   0  0  0  0  0  3  0  0  0  0  0  0
  -32.5490  -16.6890   20.1230 C   0  0  0  0  0  0  0  0  0  0  0  0
  -32.5980  -14.2200   19.9150 C   0  0  0  0  0  2  0  0  0  0  0  0
  -31.8640  -13.7990   18.6260 C   0  0  0  0  0  2  0  0  0  0  0  0
  -30.3490  -13.6600   18.8740 C   0  0  0  0  0  2  0  0  0  0  0  0
  -29.7500  -14.8750   19.6350 C   0  0  0  0  0  3  0  0  0  0  0  0
  -30.6090  -15.2540   20.8620 C   0  0  0  0  0  2  0  0  0  0  0  0
  -31.9840  -15.4750   20.3890 N   0  0  0  0  0  0  0  0  0  0  0  0
  -33.7400  -16.7940   19.8220 O   0  0  0  0  0  0  0  0  0  0  0  0
  -31.7080  -17.7630   20.0760 N   0  0  0  0  0  0  0  0  0  0  0  0
  -30.7490  -17.5700   20.3290 H   0  0  0  0  0  0  0  0  0  0  0  0
  -27.3250  -15.5660   20.1240 C   0  0  0  0  0  0  0  0  0  0  0  0
  -26.2060  -14.8390   20.4280 C   0  0  0  0  0  0  0  0  0  0  0  0
  -26.6270  -13.4740   20.4810 C   0  0  0  0  0  0  0  0  0  0  0  0
  -28.3560  -14.6490   20.0060 N   0  0  0  0  0  0  0  0  0  0  0  0
  -27.9370  -13.3870   20.2770 N   0  0  0  0  0  0  0  0  0  0  0  0
  -25.8470  -12.2410   20.6470 C   0  0  0  0  0  0  0  0  0  0  0  0
  -26.0050  -11.4140   21.7800 C   0  0  0  0  0  3  0  0  0  0  0  0
  -25.2310  -10.2430   21.9260 C   0  0  0  0  0  3  0  0  0  0  0  0
  -24.2810   -9.8920   20.9380 C   0  0  0  0  0  0  0  0  0  0  0  0
  -24.1440  -10.7080   19.7990 C   0  0  0  0  0  3  0  0  0  0  0  0
  -24.9200  -11.8700   19.6530 C   0  0  0  0  0  3  0  0  0  0  0  0
  -23.5050   -8.7610   20.9810 O   0  0  0  0  0  0  0  0  0  0  0  0
  -22.9420   -8.3190   22.1530 C   0  0  0  0  0  0  0  0  0  0  0  0
  -22.0500   -9.1180   22.9000 C   0  0  0  0  0  3  0  0  0  0  0  0
  -21.4400   -8.5990   24.0590 C   0  0  0  0  0  3  0  0  0  0  0  0
  -21.7150   -7.2800   24.4670 C   0  0  0  0  0  0  0  0  0  0  0  0
  -22.6000   -6.4810   23.7220 C   0  0  0  0  0  3  0  0  0  0  0  0
  -23.2090   -6.9990   22.5680 C   0  0  0  0  0  0  0  0  0  0  0  0
  -24.0440   -6.2160   21.8410 F   0  0  0  0  0  0  0  0  0  0  0  0
  -21.1240   -6.7770   25.5770 F   0  0  0  0  0  0  0  0  0  0  0  0
  -24.8060  -15.3700   20.5630 C   0  0  0  0  0  0  0  0  0  0  0  0
  -23.9850  -14.7350   21.3870 N   0  0  0  0  0  0  0  0  0  0  0  0
  -24.4480  -16.3850   19.9650 O   0  0  0  0  0  0  0  0  0  0  0  0
  -24.2800  -13.9130   21.8960 H   0  0  0  0  0  0  0  0  0  0  0  0
  -23.0430  -15.0790   21.5200 H   0  0  0  0  0  0  0  0  0  0  0  0
  -27.5500  -16.9240   19.9210 N   0  0  0  0  0  0  0  0  0  0  0  0
  -26.7980  -17.6050   19.9440 H   0  0  0  0  0  0  0  0  0  0  0  0
  -28.4310  -17.3150   19.6100 H   0  0  0  0  0  0  0  0  0  0  0  0
  2  1  1  0
  3  5  2  0
  3  6  1  0
  4  9  1  0
  4  1  2  0
  5  4  1  0
  6  2  2  0
  7  9  1  0
  9  8  1  0
 10 12  1  0
 10  6  1  0
 11 22  2  0
 12 17  1  0
 13 21  1  0
 13 23  1  0
 14 20  1  0
 14 16  1  0
 15 21  1  0
 16 15  1  0
 17 16  2  0
 18 19  1  0
 18 12  2  0
 19 14  2  0
 20 13  1  0
 21 11  1  0
 23 25  2  0
 24 23  1  0
 26 24  1  0
 27 36  2  0
 27 32  1  0
 28 24  1  0
 28 32  1  0
 29 28  1  0
 30 31  1  0
 30 29  1  0
 31 27  1  0
 32 33  2  0
 33 34  1  0
 35 34  2  0
 36 35  1  0
 37 11  1  0
 37 38  1  0
 37 47  1  0
 38 41  1  0
 39 43  1  0
 39 38  1  0
 40 39  2  0
 43 42  1  0
 45 43  1  0
 45 46  1  0
 45 44  1  0
 47 50  1  1
 47 48  1  0
 49 47  1  0
 51  5  1  0
 52 53  1  0
 52 51  1  0
 53 56  1  0
 53 54  1  0
 55 53  1  0
 56 58  1  0
 58 67  1  0
 58 57  1  0
 59 65  1  0
 60 65  1  0
 61 62  1  0
 61 60  1  0
 63 62  1  0
 63 72  1  0
 63 64  1  0
 65 64  1  0
 66 59  2  0
 67 59  1  0
 67 68  1  0
 69 70  2  0
 70 71  1  0
 70 89  1  0
 71 74  1  0
 72 69  1  0
 72 73  1  0
 73 71  2  0
 74 75  1  0
 75 76  2  0
 77 80  1  0
 77 76  1  0
 78 77  2  0
 79 78  1  0
 79 74  2  0
 80 81  1  0
 81 86  2  0
 81 82  1  0
 82 83  2  0
 83 84  1  0
 84 88  1  0
 85 84  2  0
 86 85  1  0
 87 86  1  0
 89 90  1  0
 90 93  1  0
 90 92  1  0
 91 89  2  0
 94 95  1  0
 94 69  1  0
 96 94  1  0
M  ISO  4   6 101  10 101  59 100  67 100
M  END
>  <TORSDO>  (86) 
F 22

>  <SCORE>  (86) 
-1.821

>  <name>  (86) 
86

>  <ligand_id>  (86) 
86

>  <original_smiles>  (86) 
[H]c1c([H])c([H])c2c(c1[H])C([H])([H])C([H])([H])C([H])([H])C2([H])N([H])C(=O)C1([H])N(C(=O)C([H])(N([H])C(=O)C([H])(N([H])C([H])([H])[H])C([H])([H])[H])C(C([H])([H])[H])(C([H])([H])[H])C([H])([H])[H])C([H])([H])c2c([H])c(Oc3c([H])c([H])c(C([H])(C([H])([H])[H])C([H])([H])[H])c(C([H])([H])C([H])([H])[N+]([H])([H])C([H])([H])C([H])(N([H])C(=O)N4C([H])([H])C([H])([H])C([H])([H])C([H])(n5nc(-c6c([H])c([H])c(Oc7c([H])c([H])c(F)c([H])c7F)c([H])c6[H])c(C(=O)N([H])[H])c5N([H])[H])C4([H])[H])C([H])([H])[H])c3[H])c([H])c([H])c2C1([H])[H]

>  <smiles>  (86) 
[H]c1c([H])c([H])c2c(c1[H])C([H])([H])C([H])([H])C([H])([H])C2([H])N([H])C(=O)C1([H])N(C(=O)C([H])(N([H])C(=O)C([H])(N([H])C([H])([H])[H])C([H])([H])[H])C(C([H])([H])[H])(C([H])([H])[H])C([H])([H])[H])C([H])([H])c2c([H])c(Oc3c([H])c([H])c(C([H])(C([H])([H])[H])C([H])([H])[H])c(C([H])([H])C([H])([H])[N+]([H])([H])C([H])([H])C([H])(N([H])C(=O)N4C([H])([H])C([H])([H])C([H])([H])C([H])(n5nc(-c6c([H])c([H])c(Oc7c([H])c([H])c(F)c([H])c7F)c([H])c6[H])c(C(=O)N([H])[H])c5N([H])[H])C4([H])[H])C([H])([H])[H])c3[H])c([H])c([H])c2C1([H])[H]

$$$$
87:0:0
     RDKit          3D

 94103  0  0  1  0  0  0  0  0999 V2000
  -29.4340  -21.2010   19.7610 C   0  0  0  0  0  0  0  0  0  0  0  0
  -29.6190  -19.8430   19.3170 C   0  0  0  0  0  0  0  0  0  0  0  0
  -30.2320  -18.8670   20.2030 C   0  0  0  0  0  0  0  0  0  0  0  0
  -29.8030  -21.5570   21.0370 C   0  0  0  0  0  0  0  0  0  0  0  0
  -30.5530  -19.3770   21.5000 C   0  0  0  0  0  0  0  0  0  0  0  0
  -28.8850  -22.4560   19.0390 C   0  0  0  0  0  2  0  0  0  0  0  0
  -29.5590  -23.0550   21.3150 C   0  0  0  0  0  2  0  0  0  0  0  0
  -29.1990  -23.7390   19.9350 C   0  0  0  0  0  3  0  0  0  0  0  0
  -31.2330  -18.4950   22.5280 C   0  0  0  0  0  1  0  0  0  0  0  0
  -30.3370  -20.6690   21.9090 N   0  0  0  0  0  0  0  0  0  0  0  0
  -29.1780  -19.4850   17.9050 C   0  0  0  0  0  2  0  0  0  0  0  0
  -29.8110  -19.3930   15.4350 C   0  0  0  0  0  1  0  0  0  0  0  0
  -30.2960  -19.6610   16.8660 C   0  0  0  0  0  2  0  0  0  0  0  0
  -30.7380  -17.4210   19.7030 C   0  0  0  0  0  2  0  0  0  0  0  0
  -30.9860  -14.8650   19.9920 C   0  0  0  0  0  0  0  0  0  0  0  0
  -30.6670  -12.5960   19.0120 C   0  0  0  0  0  2  0  0  0  0  0  0
  -29.6800  -12.6960   17.8280 C   0  0  0  0  0  2  0  0  0  0  0  0
  -28.2290  -12.5540   18.3260 C   0  0  0  0  0  2  0  0  0  0  0  0
  -27.9310  -13.4440   19.5640 C   0  0  0  0  0  3  0  0  0  0  0  0
  -29.0410  -13.3470   20.6340 C   0  0  0  0  0  2  0  0  0  0  0  0
  -30.3130  -13.6630   19.9760 N   0  0  0  0  0  0  0  0  0  0  0  0
  -32.1530  -14.9110   19.5940 O   0  0  0  0  0  0  0  0  0  0  0  0
  -30.2880  -16.0460   20.2040 N   0  0  0  0  0  0  0  0  0  0  0  0
  -29.3280  -15.9540   20.4980 H   0  0  0  0  0  0  0  0  0  0  0  0
  -25.6020  -14.0660   20.4430 C   0  0  0  0  0  0  0  0  0  0  0  0
  -24.5390  -13.3070   20.8480 C   0  0  0  0  0  0  0  0  0  0  0  0
  -24.9640  -11.9460   20.7490 C   0  0  0  0  0  0  0  0  0  0  0  0
  -26.6090  -13.1700   20.1210 N   0  0  0  0  0  0  0  0  0  0  0  0
  -26.2340  -11.8880   20.3680 N   0  0  0  0  0  0  0  0  0  0  0  0
  -24.2140  -10.6970   20.9390 C   0  0  0  0  0  0  0  0  0  0  0  0
  -24.6240   -9.7230   21.8760 C   0  0  0  0  0  3  0  0  0  0  0  0
  -23.8760   -8.5400   22.0540 C   0  0  0  0  0  3  0  0  0  0  0  0
  -22.7030   -8.3220   21.2950 C   0  0  0  0  0  0  0  0  0  0  0  0
  -22.3100   -9.2840   20.3470 C   0  0  0  0  0  3  0  0  0  0  0  0
  -23.0600  -10.4580   20.1660 C   0  0  0  0  0  3  0  0  0  0  0  0
  -21.9260   -7.1910   21.3830 O   0  0  0  0  0  0  0  0  0  0  0  0
  -21.7880   -6.5030   22.5620 C   0  0  0  0  0  0  0  0  0  0  0  0
  -21.2480   -7.1050   23.7180 C   0  0  0  0  0  3  0  0  0  0  0  0
  -21.0590   -6.3400   24.8870 C   0  0  0  0  0  3  0  0  0  0  0  0
  -21.4010   -4.9750   24.9000 C   0  0  0  0  0  0  0  0  0  0  0  0
  -21.9330   -4.3730   23.7470 C   0  0  0  0  0  3  0  0  0  0  0  0
  -22.1240   -5.1330   22.5800 C   0  0  0  0  0  0  0  0  0  0  0  0
  -22.6170   -4.5420   21.4660 F   0  0  0  0  0  0  0  0  0  0  0  0
  -21.2130   -4.2390   26.0200 F   0  0  0  0  0  0  0  0  0  0  0  0
  -23.1710  -13.8100   21.2100 C   0  0  0  0  0  0  0  0  0  0  0  0
  -22.4790  -13.1160   22.1070 N   0  0  0  0  0  0  0  0  0  0  0  0
  -22.7270  -14.8520   20.7310 O   0  0  0  0  0  0  0  0  0  0  0  0
  -22.8520  -12.2730   22.5170 H   0  0  0  0  0  0  0  0  0  0  0  0
  -21.5630  -13.4360   22.3900 H   0  0  0  0  0  0  0  0  0  0  0  0
  -25.7900  -15.4380   20.2990 N   0  0  0  0  0  0  0  0  0  0  0  0
  -25.0430  -16.1020   20.4680 H   0  0  0  0  0  0  0  0  0  0  0  0
  -26.6200  -15.8700   19.9120 H   0  0  0  0  0  0  0  0  0  0  0  0
  -28.0980  -24.9310   19.9120 C   0  0  0  0  0  2  0  0  0  0  0  0
  -28.3640  -26.3980   20.1380 O   0  0  0  0  0  0  0  0  0  0  0  0
  -24.6620  -31.8560   23.1890 C   0  0  0  0  0  0  0  0  0  0  0  0
  -27.2700  -27.3000   20.0750 C   0  0  0  0  0  0  0  0  0  0  0  0
  -23.4580  -30.4650   21.5460 C   0  0  0  0  0  3  0  0  0  0  0  0
  -24.9080  -28.9410   20.0900 C   0  0  0  0  0  0  0  0  0  0  0  0
  -25.9980  -30.7880   21.3520 C   0  0  0  0  0  2  0  0  0  0  0  0
  -26.0810  -29.4150   20.6890 C   0  0  0  0  0  0  0  0  0  0  0  0
  -27.2650  -28.6060   20.6740 C   0  0  0  0  0  3  0  0  0  0  0  0
  -26.0720  -26.9060   19.4330 C   0  0  0  0  0  3  0  0  0  0  0  0
  -24.9090  -27.6950   19.4490 C   0  0  0  0  0  3  0  0  0  0  0  0
  -23.6660  -29.8090   20.1570 C   0  0  0  0  0  2  0  0  0  0  0  0
  -24.7260  -31.0540   22.0840 N   0  0  0  0  0  0  0  0  0  0  0  0
  -23.5800  -32.1210   23.7310 O   0  0  0  0  0  0  0  0  0  0  0  0
  -22.8080  -29.4340   22.5000 C   0  0  0  0  0  0  0  0  0  0  0  0
  -21.4900  -29.2170   22.3520 N   0  0  0  0  0  0  0  0  0  0  0  0
  -23.4890  -28.8320   23.3340 O   0  0  0  0  0  0  0  0  0  0  0  0
  -20.9960  -29.7560   21.6540 H   0  0  0  0  0  0  0  0  0  0  0  0
  -18.1500  -27.8870   22.7710 C   0  0  0  0  0  0  0  0  0  0  0  0
  -20.6850  -28.2610   23.1170 C   0  0  0  0  0  3  0  0  0  0  0  0
  -20.8660  -26.8240   22.5770 C   0  0  0  0  0  2  0  0  0  0  0  0
  -19.8130  -26.4330   21.5350 C   0  0  0  0  0  2  0  0  0  0  0  0
  -18.4060  -26.5330   22.1310 C   0  0  0  0  0  2  0  0  0  0  0  0
  -19.2200  -28.7050   23.2200 C   0  0  0  0  0  0  0  0  0  0  0  0
  -18.9290  -29.9680   23.7770 C   0  0  0  0  0  3  0  0  0  0  0  0
  -17.6000  -30.4160   23.8920 C   0  0  0  0  0  3  0  0  0  0  0  0
  -16.5430  -29.5960   23.4600 C   0  0  0  0  0  3  0  0  0  0  0  0
  -16.8190  -28.3330   22.9050 C   0  0  0  0  0  3  0  0  0  0  0  0
  -25.9430  -32.4940   23.8060 C   0  0  0  0  0  3  0  0  0  0  0  0
  -26.4750  -31.7160   25.0730 C   0  0  1  0  0  0  0  0  0  0  0  0
  -25.3890  -31.4540   26.1420 C   0  0  0  0  0  1  0  0  0  0  0  0
  -27.0730  -30.3500   24.6660 C   0  0  0  0  0  1  0  0  0  0  0  0
  -27.6180  -32.5190   25.7390 C   0  0  0  0  0  1  0  0  0  0  0  0
  -25.6230  -33.8860   24.1520 N   0  0  0  0  0  0  0  0  0  0  0  0
  -25.9220  -34.9490   23.3950 C   0  0  0  0  0  0  0  0  0  0  0  0
  -26.5690  -34.8630   22.3470 O   0  0  0  0  0  0  0  0  0  0  0  0
  -25.0470  -34.0260   24.9700 H   0  0  0  0  0  0  0  0  0  0  0  0
  -24.1650  -36.7250   23.1000 C   0  0  0  0  0  1  0  0  0  0  0  0
  -25.4310  -36.3290   23.8760 C   0  0  0  0  0  3  0  0  0  0  0  0
  -27.5680  -37.2420   24.6690 C   0  0  0  0  0  1  0  0  0  0  0  0
  -26.4470  -37.3950   23.7440 N   0  0  0  0  0  0  0  0  0  0  0  0
  -26.0320  -38.3100   23.9010 H   0  0  0  0  0  0  0  0  0  0  0  0
  1  4  1  0
  2  1  2  0
  2  3  1  0
  3  5  2  0
  4  7  1  0
  4 10  2  0
  5 10  1  0
  5  9  1  0
  6  1  1  0
  6  8  1  0
  8 53  1  0
  8  7  1  0
 11  2  1  0
 12 13  1  0
 13 11  1  0
 14  3  1  0
 14 23  1  0
 15 23  1  0
 16 21  1  0
 17 18  1  0
 17 16  1  0
 19 18  1  0
 19 28  1  0
 19 20  1  0
 21 15  1  0
 21 20  1  0
 22 15  2  0
 23 24  1  0
 25 26  2  0
 26 45  1  0
 27 26  1  0
 27 30  1  0
 28 29  1  0
 28 25  1  0
 29 27  2  0
 30 31  1  0
 31 32  2  0
 33 36  1  0
 33 32  1  0
 34 33  2  0
 35 34  1  0
 35 30  2  0
 36 37  1  0
 37 42  2  0
 37 38  1  0
 38 39  2  0
 39 40  1  0
 40 44  1  0
 41 40  2  0
 42 41  1  0
 43 42  1  0
 45 46  1  0
 46 49  1  0
 46 48  1  0
 47 45  2  0
 50 25  1  0
 50 51  1  0
 52 50  1  0
 53 54  1  0
 55 66  2  0
 56 54  1  0
 56 61  1  0
 57 65  1  0
 57 67  1  0
 58 64  1  0
 58 60  1  0
 59 65  1  0
 60 59  1  0
 61 60  2  0
 62 63  1  0
 62 56  2  0
 63 58  2  0
 64 57  1  0
 65 55  1  0
 67 69  2  0
 68 67  1  0
 70 68  1  0
 71 80  2  0
 71 76  1  0
 72 68  1  0
 72 76  1  0
 73 72  1  0
 74 75  1  0
 74 73  1  0
 75 71  1  0
 76 77  2  0
 77 78  1  0
 79 78  2  0
 80 79  1  0
 81 55  1  0
 81 86  1  0
 81 82  1  0
 82 85  1  1
 82 83  1  0
 84 82  1  0
 86 89  1  0
 87 91  1  0
 87 86  1  0
 88 87  2  0
 91 90  1  0
 93 91  1  0
 93 94  1  0
 93 92  1  0
M  ISO  4  15 100  23 100  53 101  54 101
M  END
>  <TORSDO>  (87) 
F 20

>  <SCORE>  (87) 
-13.589

>  <name>  (87) 
87

>  <ligand_id>  (87) 
87

>  <original_smiles>  (87) 
[H]c1c([H])c([H])c2c(c1[H])C([H])([H])C([H])([H])C([H])([H])C2([H])N([H])C(=O)C1([H])N(C(=O)C([H])(N([H])C(=O)C([H])(N([H])C([H])([H])[H])C([H])([H])[H])C(C([H])([H])[H])(C([H])([H])[H])C([H])([H])[H])C([H])([H])c2c([H])c(OC([H])([H])C3([H])C([H])([H])c4nc(C([H])([H])[H])c(C([H])([H])N([H])C(=O)N5C([H])([H])C([H])([H])C([H])([H])C([H])(n6nc(-c7c([H])c([H])c(Oc8c([H])c([H])c(F)c([H])c8F)c([H])c7[H])c(C(=O)N([H])[H])c6N([H])[H])C5([H])[H])c(C([H])([H])C([H])([H])C([H])([H])[H])c4C3([H])[H])c([H])c([H])c2C1([H])[H]

>  <smiles>  (87) 
[H]c1c([H])c([H])c2c(c1[H])C([H])([H])C([H])([H])C([H])([H])C2([H])N([H])C(=O)C1([H])N(C(=O)C([H])(N([H])C(=O)C([H])(N([H])C([H])([H])[H])C([H])([H])[H])C(C([H])([H])[H])(C([H])([H])[H])C([H])([H])[H])C([H])([H])c2c([H])c(OC([H])([H])C3([H])C([H])([H])c4nc(C([H])([H])[H])c(C([H])([H])N([H])C(=O)N5C([H])([H])C([H])([H])C([H])([H])C([H])(n6nc(-c7c([H])c([H])c(Oc8c([H])c([H])c(F)c([H])c8F)c([H])c7[H])c(C(=O)N([H])[H])c6N([H])[H])C5([H])[H])c(C([H])([H])C([H])([H])C([H])([H])[H])c4C3([H])[H])c([H])c([H])c2C1([H])[H]

$$$$
88:0:0
     RDKit          3D

103113  0  0  1  0  0  0  0  0999 V2000
  -32.7620  -20.5020   21.4760 C   0  0  0  0  0  3  0  0  0  0  0  0
  -32.2590  -21.8140   21.4150 C   0  0  0  0  0  0  0  0  0  0  0  0
  -30.3400  -21.0980   22.7680 C   0  0  0  0  0  0  0  0  0  0  0  0
  -31.0270  -22.1300   22.0450 C   0  0  0  0  0  0  0  0  0  0  0  0
  -30.9080  -19.7860   22.9050 C   0  0  0  0  0  0  0  0  0  0  0  0
  -32.0950  -19.4830   22.1790 C   0  0  0  0  0  0  0  0  0  0  0  0
  -33.0850  -22.8520   20.6750 C   0  0  0  0  0  1  0  0  0  0  0  0
  -29.0100  -21.4540   23.4360 C   0  0  0  0  0  1  0  0  0  0  0  0
  -31.1710  -17.5010   24.2430 C   0  0  0  0  0  1  0  0  0  0  0  0
  -30.3360  -18.7670   23.9360 C   0  0  0  0  0  3  0  0  0  0  0  0
  -28.6030  -19.8360   25.6320 C   0  0  0  0  0  2  0  0  0  0  0  0
  -29.4290  -18.8690   26.4400 C   0  0  0  0  0  2  0  0  0  0  0  0
  -30.0320  -19.5340   25.2220 C   0  0  0  0  0  3  0  0  0  0  0  0
  -30.5320  -23.6000   22.0400 C   0  0  0  0  0  2  0  0  0  0  0  0
  -29.9430  -24.0510   20.7510 N   0  0  0  0  0  4  0  0  0  0  0  0
  -29.3090  -23.3390   20.4210 H   0  0  0  0  0  0  0  0  0  0  0  0
  -30.6950  -24.1090   20.0810 H   0  0  0  0  0  0  0  0  0  0  0  0
  -29.2530  -25.3740   20.8180 C   0  0  0  0  0  2  0  0  0  0  0  0
  -29.5580  -26.2800   19.5950 C   0  0  0  0  0  2  0  0  0  0  0  0
  -29.3810  -27.6700   19.9000 O   0  0  0  0  0  0  0  0  0  0  0  0
  -24.9800  -31.6010   23.8290 C   0  0  0  0  0  0  0  0  0  0  0  0
  -28.1240  -28.2360   19.9670 C   0  0  0  0  0  0  0  0  0  0  0  0
  -23.9650  -30.5600   21.8290 C   0  0  0  0  0  3  0  0  0  0  0  0
  -25.6080  -29.5210   20.1680 C   0  0  0  0  0  0  0  0  0  0  0  0
  -26.4510  -31.1410   21.8710 C   0  0  0  0  0  2  0  0  0  0  0  0
  -26.6830  -29.9690   20.9390 C   0  0  0  0  0  0  0  0  0  0  0  0
  -27.9440  -29.3400   20.8300 C   0  0  0  0  0  3  0  0  0  0  0  0
  -27.0300  -27.8050   19.1800 C   0  0  0  0  0  3  0  0  0  0  0  0
  -25.7800  -28.4500   19.2730 C   0  0  0  0  0  3  0  0  0  0  0  0
  -24.2890  -30.2470   20.3420 C   0  0  0  0  0  2  0  0  0  0  0  0
  -25.1480  -31.0990   22.5730 N   0  0  0  0  0  0  0  0  0  0  0  0
  -23.8600  -31.6600   24.3520 O   0  0  0  0  0  0  0  0  0  0  0  0
  -23.3590  -29.2960   22.4800 C   0  0  0  0  0  0  0  0  0  0  0  0
  -22.0620  -29.0530   22.2250 N   0  0  0  0  0  0  0  0  0  0  0  0
  -24.0560  -28.5490   23.1730 O   0  0  0  0  0  0  0  0  0  0  0  0
  -21.5580  -29.7160   21.6530 H   0  0  0  0  0  0  0  0  0  0  0  0
  -18.7990  -27.5100   22.1620 C   0  0  0  0  0  0  0  0  0  0  0  0
  -21.2960  -27.9030   22.7000 C   0  0  0  0  0  3  0  0  0  0  0  0
  -21.5780  -26.6550   21.8320 C   0  0  0  0  0  2  0  0  0  0  0  0
  -20.5810  -26.4840   20.6820 C   0  0  0  0  0  2  0  0  0  0  0  0
  -19.1510  -26.3700   21.2210 C   0  0  0  0  0  2  0  0  0  0  0  0
  -19.8070  -28.2420   22.8420 C   0  0  0  0  0  0  0  0  0  0  0  0
  -19.4280  -29.3190   23.6760 C   0  0  0  0  0  3  0  0  0  0  0  0
  -18.0730  -29.6630   23.8320 C   0  0  0  0  0  3  0  0  0  0  0  0
  -17.0780  -28.9280   23.1630 C   0  0  0  0  0  3  0  0  0  0  0  0
  -17.4420  -27.8540   22.3340 C   0  0  0  0  0  3  0  0  0  0  0  0
  -26.1840  -32.1560   24.6540 C   0  0  0  0  0  3  0  0  0  0  0  0
  -25.8630  -33.5440   25.0200 N   0  0  0  0  0  0  0  0  0  0  0  0
  -26.3520  -34.6270   24.3980 C   0  0  0  0  0  0  0  0  0  0  0  0
  -27.1800  -34.5600   23.4860 O   0  0  0  0  0  0  0  0  0  0  0  0
  -25.1460  -33.6730   25.7180 H   0  0  0  0  0  0  0  0  0  0  0  0
  -24.7750  -36.5160   23.8750 C   0  0  0  0  0  1  0  0  0  0  0  0
  -25.8360  -36.0050   24.8600 C   0  0  0  0  0  3  0  0  0  0  0  0
  -27.8300  -36.7270   26.1000 C   0  0  0  0  0  1  0  0  0  0  0  0
  -26.9090  -37.0130   25.0050 N   0  0  0  0  0  0  0  0  0  0  0  0
  -26.5170  -37.9400   25.1520 H   0  0  0  0  0  0  0  0  0  0  0  0
  -26.4980  -31.2940   25.9380 C   0  0  1  0  0  0  0  0  0  0  0  0
  -25.2540  -31.0110   26.8110 C   0  0  0  0  0  1  0  0  0  0  0  0
  -27.1200  -29.9350   25.5400 C   0  0  0  0  0  1  0  0  0  0  0  0
  -27.5380  -32.0260   26.8160 C   0  0  0  0  0  1  0  0  0  0  0  0
  -32.6710  -18.2350   22.2330 O   0  0  0  0  0  0  0  0  0  0  0  0
  -32.5390  -17.3270   21.1220 C   0  0  0  0  0  2  0  0  0  0  0  0
  -31.3640  -15.0670   19.3860 C   0  0  0  0  0  0  0  0  0  0  0  0
  -30.8660  -12.8760   18.3760 C   0  0  0  0  0  2  0  0  0  0  0  0
  -29.7910  -13.0390   17.2830 C   0  0  0  0  0  2  0  0  0  0  0  0
  -28.3740  -12.9390   17.8920 C   0  0  0  0  0  2  0  0  0  0  0  0
  -28.1850  -13.7940   19.1770 C   0  0  0  0  0  3  0  0  0  0  0  0
  -29.3880  -13.6570   20.1400 C   0  0  0  0  0  2  0  0  0  0  0  0
  -30.6280  -13.9170   19.3880 N   0  0  0  0  0  0  0  0  0  0  0  0
  -32.5130  -15.1180   18.9420 O   0  0  0  0  0  0  0  0  0  0  0  0
  -30.6250  -17.8640   17.8620 C   0  0  0  0  0  2  0  0  0  0  0  0
  -31.6250  -18.3270   18.9050 C   0  0  0  0  0  2  0  0  0  0  0  0
  -29.8550  -16.7280   18.5360 C   0  0  0  0  0  2  0  0  0  0  0  0
  -31.3210  -17.4740   20.1510 C   0  0  0  0  0  3  0  0  0  0  0  0
  -30.6970  -16.2240   19.6390 N   0  0  0  0  0  0  0  0  0  0  0  0
  -25.9420  -14.4260   20.2650 C   0  0  0  0  0  0  0  0  0  0  0  0
  -24.9020  -13.6610   20.7260 C   0  0  0  0  0  0  0  0  0  0  0  0
  -25.3010  -12.3030   20.5410 C   0  0  0  0  0  0  0  0  0  0  0  0
  -26.9090  -13.5290   19.8340 N   0  0  0  0  0  0  0  0  0  0  0  0
  -26.5390  -12.2450   20.0610 N   0  0  0  0  0  0  0  0  0  0  0  0
  -24.5610  -11.0520   20.7490 C   0  0  0  0  0  0  0  0  0  0  0  0
  -24.9890  -10.0900   21.6870 C   0  0  0  0  0  3  0  0  0  0  0  0
  -24.2530   -8.9010   21.8800 C   0  0  0  0  0  3  0  0  0  0  0  0
  -23.0730   -8.6700   21.1340 C   0  0  0  0  0  0  0  0  0  0  0  0
  -22.6620   -9.6210   20.1830 C   0  0  0  0  0  3  0  0  0  0  0  0
  -23.3990  -10.8010   19.9890 C   0  0  0  0  0  3  0  0  0  0  0  0
  -22.3070   -7.5330   21.2340 O   0  0  0  0  0  0  0  0  0  0  0  0
  -22.1470   -6.8710   22.4240 C   0  0  0  0  0  0  0  0  0  0  0  0
  -21.5840   -7.4990   23.5550 C   0  0  0  0  0  3  0  0  0  0  0  0
  -21.3810   -6.7630   24.7400 C   0  0  0  0  0  3  0  0  0  0  0  0
  -21.7260   -5.3990   24.7900 C   0  0  0  0  0  0  0  0  0  0  0  0
  -22.2820   -4.7710   23.6620 C   0  0  0  0  0  3  0  0  0  0  0  0
  -22.4900   -5.5050   22.4820 C   0  0  0  0  0  0  0  0  0  0  0  0
  -23.0080   -4.8880   21.3910 F   0  0  0  0  0  0  0  0  0  0  0  0
  -21.5230   -4.6910   25.9260 F   0  0  0  0  0  0  0  0  0  0  0  0
  -23.5720  -14.1610   21.2080 C   0  0  0  0  0  0  0  0  0  0  0  0
  -22.9620  -13.4600   22.1580 N   0  0  0  0  0  0  0  0  0  0  0  0
  -23.0850  -15.2080   20.7820 O   0  0  0  0  0  0  0  0  0  0  0  0
  -23.3740  -12.6190   22.5340 H   0  0  0  0  0  0  0  0  0  0  0  0
  -22.0700  -13.7750   22.5110 H   0  0  0  0  0  0  0  0  0  0  0  0
  -26.1300  -15.8010   20.1570 N   0  0  0  0  0  0  0  0  0  0  0  0
  -25.4080  -16.4610   20.4240 H   0  0  0  0  0  0  0  0  0  0  0  0
  -26.9560  -16.2440   19.7800 H   0  0  0  0  0  0  0  0  0  0  0  0
  1  6  1  0
  2  1  2  0
  2  4  1  0
  3  5  1  0
  3  8  1  0
  4  3  2  0
  5 10  1  0
  6 61  1  0
  6  5  2  0
  7  2  1  0
 10  9  1  0
 10 13  1  0
 11 12  1  0
 13 11  1  0
 13 12  1  0
 14  4  1  0
 15 18  1  0
 15 14  1  0
 16 15  1  0
 17 15  1  0
 19 20  1  0
 19 18  1  0
 20 22  1  0
 21 32  2  0
 22 27  1  0
 23 33  1  0
 23 31  1  0
 24 30  1  0
 24 26  1  0
 25 31  1  0
 26 25  1  0
 27 26  2  0
 28 29  1  0
 28 22  2  0
 29 24  2  0
 30 23  1  0
 31 21  1  0
 33 35  2  0
 34 33  1  0
 36 34  1  0
 37 46  2  0
 37 42  1  0
 38 34  1  0
 38 42  1  0
 39 38  1  0
 40 41  1  0
 40 39  1  0
 41 37  1  0
 42 43  2  0
 43 44  1  0
 45 44  2  0
 46 45  1  0
 47 21  1  0
 47 48  1  0
 47 57  1  0
 48 51  1  0
 49 53  1  0
 49 48  1  0
 50 49  2  0
 53 52  1  0
 53 55  1  0
 55 56  1  0
 55 54  1  0
 57 58  1  1
 57 60  1  0
 59 57  1  0
 62 61  1  0
 63 69  1  0
 63 75  1  0
 64 69  1  0
 65 66  1  0
 65 64  1  0
 67 66  1  0
 67 79  1  0
 67 68  1  0
 69 68  1  0
 70 63  2  0
 71 73  1  0
 71 72  1  0
 72 74  1  0
 73 75  1  0
 74 62  1  0
 75 74  1  0
 76 77  2  0
 77 96  1  0
 78 77  1  0
 78 81  1  0
 79 80  1  0
 79 76  1  0
 80 78  2  0
 81 82  1  0
 82 83  2  0
 84 87  1  0
 84 83  1  0
 85 84  2  0
 86 85  1  0
 86 81  2  0
 87 88  1  0
 88 93  2  0
 88 89  1  0
 89 90  2  0
 90 91  1  0
 91 95  1  0
 92 91  2  0
 93 92  1  0
 94 93  1  0
 96 97  1  0
 97100  1  0
 97 99  1  0
 98 96  2  0
101 76  1  0
101102  1  0
103101  1  0
M  ISO  4  19 101  20 101  63 100  75 100
M  END
>  <TORSDO>  (88) 
F 24

>  <SCORE>  (88) 
2.037

>  <name>  (88) 
88

>  <ligand_id>  (88) 
88

>  <original_smiles>  (88) 
[H]c1c([H])c([H])c2c(c1[H])C([H])([H])C([H])([H])C([H])([H])C2([H])N([H])C(=O)C1([H])N(C(=O)C([H])(N([H])C(=O)C([H])(N([H])C([H])([H])[H])C([H])([H])[H])C(C([H])([H])[H])(C([H])([H])[H])C([H])([H])[H])C([H])([H])c2c([H])c(OC([H])([H])C([H])([H])[N+]([H])([H])C([H])([H])c3c(C([H])([H])[H])c([H])c(OC([H])([H])C4([H])N(C(=O)N5C([H])([H])C([H])([H])C([H])([H])C([H])(n6nc(-c7c([H])c([H])c(Oc8c([H])c([H])c(F)c([H])c8F)c([H])c7[H])c(C(=O)N([H])[H])c6N([H])[H])C5([H])[H])C([H])([H])C([H])([H])C4([H])[H])c(C([H])(C([H])([H])[H])C4([H])C([H])([H])C4([H])[H])c3C([H])([H])[H])c([H])c([H])c2C1([H])[H]

>  <smiles>  (88) 
[H]c1c([H])c([H])c2c(c1[H])C([H])([H])C([H])([H])C([H])([H])C2([H])N([H])C(=O)C1([H])N(C(=O)C([H])(N([H])C(=O)C([H])(N([H])C([H])([H])[H])C([H])([H])[H])C(C([H])([H])[H])(C([H])([H])[H])C([H])([H])[H])C([H])([H])c2c([H])c(OC([H])([H])C([H])([H])[N+]([H])([H])C([H])([H])c3c(C([H])([H])[H])c([H])c(OC([H])([H])C4([H])N(C(=O)N5C([H])([H])C([H])([H])C([H])([H])C([H])(n6nc(-c7c([H])c([H])c(Oc8c([H])c([H])c(F)c([H])c8F)c([H])c7[H])c(C(=O)N([H])[H])c6N([H])[H])C5([H])[H])C([H])([H])C([H])([H])C4([H])[H])c(C([H])(C([H])([H])[H])C4([H])C([H])([H])C4([H])[H])c3C([H])([H])[H])c([H])c([H])c2C1([H])[H]

$$$$
89:0:0
     RDKit          3D

 94103  0  0  1  0  0  0  0  0999 V2000
  -27.9680  -22.1330   19.0290 C   0  0  0  0  0  3  0  0  0  0  0  0
  -29.2390  -20.4370   20.2940 C   0  0  0  0  0  3  0  0  0  0  0  0
  -27.2220  -21.0910   18.4840 C   0  0  0  0  0  0  0  0  0  0  0  0
  -27.4720  -19.7610   18.7870 C   0  0  0  0  0  0  0  0  0  0  0  0
  -28.5500  -19.3550   19.6370 C   0  0  0  0  0  0  0  0  0  0  0  0
  -28.9090  -21.8270   20.0350 C   0  0  0  0  0  0  0  0  0  0  0  0
  -25.9440  -21.2880   17.7230 C   0  0  0  0  0  2  0  0  0  0  0  0
  -26.3320  -18.9190   18.2430 C   0  0  0  0  0  2  0  0  0  0  0  0
  -25.2080  -19.9600   17.9910 C   0  0  0  0  0  3  0  0  0  0  0  0
  -24.1690  -19.5910   16.9240 C   0  0  0  0  0  1  0  0  0  0  0  0
  -28.7520  -17.8140   19.8780 C   0  0  0  0  0  2  0  0  0  0  0  0
  -30.1380  -17.0580   19.9030 C   0  0  0  0  0  2  0  0  0  0  0  0
  -30.8310  -14.5450   20.1830 C   0  0  0  0  0  0  0  0  0  0  0  0
  -30.6450  -12.2230   19.3250 C   0  0  0  0  0  2  0  0  0  0  0  0
  -29.6890  -12.2410   18.1120 C   0  0  0  0  0  2  0  0  0  0  0  0
  -28.2240  -12.1110   18.5700 C   0  0  0  0  0  2  0  0  0  0  0  0
  -27.8650  -13.0710   19.7340 C   0  0  0  0  0  3  0  0  0  0  0  0
  -28.9350  -13.0110   20.8470 C   0  0  0  0  0  2  0  0  0  0  0  0
  -30.2350  -13.3120   20.2300 N   0  0  0  0  0  0  0  0  0  0  0  0
  -32.0100  -14.6840   19.8530 O   0  0  0  0  0  0  0  0  0  0  0  0
  -29.9780  -15.6090   20.2710 N   0  0  0  0  0  0  0  0  0  0  0  0
  -29.0340  -15.3380   20.5060 H   0  0  0  0  0  0  0  0  0  0  0  0
  -25.5050  -13.7260   20.5160 C   0  0  0  0  0  0  0  0  0  0  0  0
  -24.4290  -12.9790   20.9030 C   0  0  0  0  0  0  0  0  0  0  0  0
  -24.8570  -11.6150   20.8570 C   0  0  0  0  0  0  0  0  0  0  0  0
  -26.5260  -12.8240   20.2580 N   0  0  0  0  0  0  0  0  0  0  0  0
  -26.1400  -11.5500   20.5220 N   0  0  0  0  0  0  0  0  0  0  0  0
  -24.1060  -10.3700   21.0530 C   0  0  0  0  0  0  0  0  0  0  0  0
  -24.5170   -9.3920   21.9880 C   0  0  0  0  0  3  0  0  0  0  0  0
  -23.7620   -8.2120   22.1680 C   0  0  0  0  0  3  0  0  0  0  0  0
  -22.5860   -7.9980   21.4120 C   0  0  0  0  0  0  0  0  0  0  0  0
  -22.1970   -8.9610   20.4640 C   0  0  0  0  0  3  0  0  0  0  0  0
  -22.9500  -10.1320   20.2820 C   0  0  0  0  0  3  0  0  0  0  0  0
  -21.8090   -6.8680   21.5000 O   0  0  0  0  0  0  0  0  0  0  0  0
  -21.7380   -6.1350   22.6580 C   0  0  0  0  0  0  0  0  0  0  0  0
  -21.2950   -6.7030   23.8740 C   0  0  0  0  0  3  0  0  0  0  0  0
  -21.1690   -5.8970   25.0230 C   0  0  0  0  0  3  0  0  0  0  0  0
  -21.4730   -4.5240   24.9580 C   0  0  0  0  0  0  0  0  0  0  0  0
  -21.9050   -3.9550   23.7480 C   0  0  0  0  0  3  0  0  0  0  0  0
  -22.0320   -4.7570   22.6010 C   0  0  0  0  0  0  0  0  0  0  0  0
  -22.4310   -4.2010   21.4320 F   0  0  0  0  0  0  0  0  0  0  0  0
  -21.3430   -3.7490   26.0590 F   0  0  0  0  0  0  0  0  0  0  0  0
  -23.0460  -13.4830   21.2010 C   0  0  0  0  0  0  0  0  0  0  0  0
  -22.3200  -12.8080   22.0810 N   0  0  0  0  0  0  0  0  0  0  0  0
  -22.6250  -14.5190   20.6840 O   0  0  0  0  0  0  0  0  0  0  0  0
  -22.6740  -11.9660   22.5130 H   0  0  0  0  0  0  0  0  0  0  0  0
  -21.3980  -13.1370   22.3250 H   0  0  0  0  0  0  0  0  0  0  0  0
  -25.6990  -15.0960   20.3390 N   0  0  0  0  0  0  0  0  0  0  0  0
  -24.9350  -15.7530   20.4420 H   0  0  0  0  0  0  0  0  0  0  0  0
  -26.5110  -15.4970   19.8940 H   0  0  0  0  0  0  0  0  0  0  0  0
  -29.4370  -22.8500   20.8180 O   0  0  0  0  0  0  0  0  0  0  0  0
  -29.3240  -24.2600   20.4340 C   0  0  0  0  0  3  0  0  0  0  0  0
  -28.1240  -25.1320   20.9760 C   0  0  0  0  0  3  0  0  0  0  0  0
  -28.2090  -26.5680   20.7000 O   0  0  0  0  0  0  0  0  0  0  0  0
  -24.4980  -32.0880   23.4080 C   0  0  0  0  0  0  0  0  0  0  0  0
  -27.0460  -27.3380   20.6720 C   0  0  0  0  0  0  0  0  0  0  0  0
  -23.2630  -30.6380   21.8260 C   0  0  0  0  0  3  0  0  0  0  0  0
  -24.6870  -28.9520   20.5370 C   0  0  0  0  0  0  0  0  0  0  0  0
  -25.8030  -30.8820   21.6600 C   0  0  0  0  0  2  0  0  0  0  0  0
  -25.8540  -29.4650   21.1100 C   0  0  0  0  0  0  0  0  0  0  0  0
  -27.0320  -28.6740   21.1640 C   0  0  0  0  0  3  0  0  0  0  0  0
  -25.8450  -26.8450   20.1110 C   0  0  0  0  0  3  0  0  0  0  0  0
  -24.6790  -27.6370   20.0360 C   0  0  0  0  0  3  0  0  0  0  0  0
  -23.4770  -29.8610   20.5020 C   0  0  0  0  0  2  0  0  0  0  0  0
  -24.5390  -31.2180   22.3560 N   0  0  0  0  0  0  0  0  0  0  0  0
  -23.4190  -32.4340   23.9140 O   0  0  0  0  0  0  0  0  0  0  0  0
  -22.5530  -29.7110   22.8430 C   0  0  0  0  0  0  0  0  0  0  0  0
  -21.2330  -29.5290   22.6660 N   0  0  0  0  0  0  0  0  0  0  0  0
  -23.1940  -29.1540   23.7410 O   0  0  0  0  0  0  0  0  0  0  0  0
  -20.7680  -30.0530   21.9330 H   0  0  0  0  0  0  0  0  0  0  0  0
  -17.8440  -28.3360   23.0930 C   0  0  0  0  0  0  0  0  0  0  0  0
  -20.3780  -28.6480   23.4620 C   0  0  0  0  0  3  0  0  0  0  0  0
  -20.5210  -27.1770   23.0040 C   0  0  0  0  0  2  0  0  0  0  0  0
  -19.4660  -26.7250   21.9870 C   0  0  0  0  0  2  0  0  0  0  0  0
  -18.0560  -26.9300   22.5430 C   0  0  0  0  0  2  0  0  0  0  0  0
  -18.9280  -29.1470   23.5160 C   0  0  0  0  0  0  0  0  0  0  0  0
  -18.6660  -30.4470   23.9970 C   0  0  0  0  0  3  0  0  0  0  0  0
  -17.3530  -30.9440   24.0490 C   0  0  0  0  0  3  0  0  0  0  0  0
  -16.2810  -30.1320   23.6370 C   0  0  0  0  0  3  0  0  0  0  0  0
  -16.5240  -28.8270   23.1760 C   0  0  0  0  0  3  0  0  0  0  0  0
  -25.7990  -32.7100   23.9990 C   0  0  0  0  0  3  0  0  0  0  0  0
  -25.5140  -34.1130   24.3150 N   0  0  0  0  0  0  0  0  0  0  0  0
  -25.8480  -35.1540   23.5360 C   0  0  0  0  0  0  0  0  0  0  0  0
  -26.5010  -35.0290   22.4950 O   0  0  0  0  0  0  0  0  0  0  0  0
  -24.9350  -34.2880   25.1250 H   0  0  0  0  0  0  0  0  0  0  0  0
  -24.1320  -36.9600   23.1880 C   0  0  0  0  0  1  0  0  0  0  0  0
  -25.3840  -36.5540   23.9820 C   0  0  0  0  0  3  0  0  0  0  0  0
  -27.5450  -37.4300   24.7470 C   0  0  0  0  0  1  0  0  0  0  0  0
  -26.4230  -37.5960   23.8290 N   0  0  0  0  0  0  0  0  0  0  0  0
  -26.0260  -38.5190   23.9760 H   0  0  0  0  0  0  0  0  0  0  0  0
  -26.3190  -31.9480   25.2790 C   0  0  1  0  0  0  0  0  0  0  0  0
  -25.2230  -31.7060   26.3430 C   0  0  0  0  0  1  0  0  0  0  0  0
  -26.9220  -30.5750   24.8960 C   0  0  0  0  0  1  0  0  0  0  0  0
  -27.4570  -32.7590   25.9390 C   0  0  0  0  0  1  0  0  0  0  0  0
  1  6  1  0
  3  4  1  0
  3  1  2  0
  4  5  2  0
  5 11  1  0
  5  2  1  0
  6  2  2  0
  6 51  1  0
  7  9  1  0
  7  3  1  0
  8  4  1  0
  9 10  1  0
  9  8  1  0
 11 12  1  0
 12 21  1  0
 13 19  1  0
 13 21  1  0
 14 19  1  0
 15 16  1  0
 15 14  1  0
 17 16  1  0
 17 26  1  0
 17 18  1  0
 19 18  1  0
 20 13  2  0
 21 22  1  0
 23 24  2  0
 24 43  1  0
 25 24  1  0
 25 28  1  0
 26 23  1  0
 26 27  1  0
 27 25  2  0
 28 29  1  0
 29 30  2  0
 31 34  1  0
 31 30  1  0
 32 31  2  0
 33 32  1  0
 33 28  2  0
 34 35  1  0
 35 36  1  0
 36 37  2  0
 38 37  1  0
 38 42  1  0
 39 38  2  0
 40 35  2  0
 40 39  1  0
 41 40  1  0
 43 44  1  0
 44 47  1  0
 44 46  1  0
 45 43  2  0
 48 49  1  0
 48 23  1  0
 50 48  1  0
 52 51  1  0
 52 53  2  0
 54 53  1  0
 55 66  2  0
 56 54  1  0
 56 61  1  0
 57 65  1  0
 57 67  1  0
 58 60  1  0
 59 65  1  0
 60 61  2  0
 60 59  1  0
 62 56  2  0
 63 62  1  0
 63 58  2  0
 64 58  1  0
 64 57  1  0
 65 55  1  0
 67 69  2  0
 68 67  1  0
 70 68  1  0
 71 80  2  0
 71 76  1  0
 72 68  1  0
 72 76  1  0
 73 72  1  0
 74 75  1  0
 74 73  1  0
 75 71  1  0
 76 77  2  0
 77 78  1  0
 79 78  2  0
 80 79  1  0
 81 55  1  0
 81 82  1  0
 81 91  1  0
 82 85  1  0
 83 87  1  0
 83 82  1  0
 84 83  2  0
 87 86  1  0
 89 90  1  0
 89 87  1  0
 89 88  1  0
 91 94  1  1
 91 92  1  0
 93 91  1  0
M  ISO  4  13 100  21 100  53 101  54 101
M  END
>  <TORSDO>  (89) 
F 21

>  <SCORE>  (89) 
-11.557

>  <name>  (89) 
89

>  <ligand_id>  (89) 
89

>  <original_smiles>  (89) 
[H]c1c([H])c([H])c2c(c1[H])C([H])([H])C([H])([H])C([H])([H])C2([H])N([H])C(=O)C1([H])N(C(=O)C([H])(N([H])C(=O)C([H])(N([H])C([H])([H])[H])C([H])([H])[H])C(C([H])([H])[H])(C([H])([H])[H])C([H])([H])[H])C([H])([H])c2c([H])c(OC([H])([H])C([H])([H])Oc3c([H])c(C([H])([H])C([H])([H])N([H])C(=O)N4C([H])([H])C([H])([H])C([H])([H])C([H])(n5nc(-c6c([H])c([H])c(Oc7c([H])c([H])c(F)c([H])c7F)c([H])c6[H])c(C(=O)N([H])[H])c5N([H])[H])C4([H])[H])c4c(c3[H])C([H])([H])C([H])(C([H])([H])[H])C4([H])[H])c([H])c([H])c2C1([H])[H]

>  <smiles>  (89) 
[H]c1c([H])c([H])c2c(c1[H])C([H])([H])C([H])([H])C([H])([H])C2([H])N([H])C(=O)C1([H])N(C(=O)C([H])(N([H])C(=O)C([H])(N([H])C([H])([H])[H])C([H])([H])[H])C(C([H])([H])[H])(C([H])([H])[H])C([H])([H])[H])C([H])([H])c2c([H])c(OC([H])([H])C([H])([H])Oc3c([H])c(C([H])([H])C([H])([H])N([H])C(=O)N4C([H])([H])C([H])([H])C([H])([H])C([H])(n5nc(-c6c([H])c([H])c(Oc7c([H])c([H])c(F)c([H])c7F)c([H])c6[H])c(C(=O)N([H])[H])c5N([H])[H])C4([H])[H])c4c(c3[H])C([H])([H])C([H])(C([H])([H])[H])C4([H])[H])c([H])c([H])c2C1([H])[H]

$$$$
90:0:0
     RDKit          3D

 99108  0  0  1  0  0  0  0  0999 V2000
  -29.7410  -17.8130   22.8030 C   0  0  0  0  0  3  0  0  0  0  0  0
  -29.6420  -16.5610   22.1450 C   0  0  0  0  0  3  0  0  0  0  0  0
  -30.4630  -17.4710   19.9680 C   0  0  0  0  0  3  0  0  0  0  0  0
  -30.1590  -18.8700   21.9960 C   0  0  0  0  0  0  0  0  0  0  0  0
  -30.4270  -18.7480   20.5950 C   0  0  0  0  0  0  0  0  0  0  0  0
  -30.0450  -16.3550   20.7860 C   0  0  0  0  0  0  0  0  0  0  0  0
  -30.7460  -20.2550   22.1270 C   0  0  0  0  0  3  0  0  0  0  0  0
  -31.0600  -20.1580   20.5470 C   0  0  0  0  0  3  0  0  0  0  0  0
  -30.7440  -14.0280   19.9710 C   0  0  0  0  0  0  0  0  0  0  0  0
  -30.5190  -11.8040   18.8940 C   0  0  0  0  0  2  0  0  0  0  0  0
  -29.4810  -11.9320   17.7570 C   0  0  0  0  0  2  0  0  0  0  0  0
  -28.0420  -11.7630   18.2880 C   0  0  0  0  0  2  0  0  0  0  0  0
  -27.7670  -12.6140   19.5550 C   0  0  0  0  0  3  0  0  0  0  0  0
  -28.9000  -12.4330   20.5900 C   0  0  0  0  0  2  0  0  0  0  0  0
  -30.1650  -12.7920   19.9250 N   0  0  0  0  0  0  0  0  0  0  0  0
  -31.8750  -14.2510   19.5210 O   0  0  0  0  0  0  0  0  0  0  0  0
  -29.8660  -15.0120   20.3020 N   0  0  0  0  0  0  0  0  0  0  0  0
  -28.9750  -14.6140   20.5570 H   0  0  0  0  0  0  0  0  0  0  0  0
  -25.4140  -13.2070   20.4110 C   0  0  0  0  0  0  0  0  0  0  0  0
  -24.3820  -12.4270   20.8570 C   0  0  0  0  0  0  0  0  0  0  0  0
  -24.8580  -11.0810   20.8150 C   0  0  0  0  0  0  0  0  0  0  0  0
  -26.4520  -12.3330   20.1240 N   0  0  0  0  0  0  0  0  0  0  0  0
  -26.1260  -11.0510   20.4270 N   0  0  0  0  0  0  0  0  0  0  0  0
  -24.1600   -9.8140   21.0670 C   0  0  0  0  0  0  0  0  0  0  0  0
  -24.5940   -8.9170   22.0680 C   0  0  0  0  0  3  0  0  0  0  0  0
  -23.8950   -7.7140   22.3050 C   0  0  0  0  0  3  0  0  0  0  0  0
  -22.7510   -7.3960   21.5340 C   0  0  0  0  0  0  0  0  0  0  0  0
  -22.3350   -8.2830   20.5250 C   0  0  0  0  0  3  0  0  0  0  0  0
  -23.0350   -9.4770   20.2880 C   0  0  0  0  0  3  0  0  0  0  0  0
  -22.0250   -6.2380   21.6740 O   0  0  0  0  0  0  0  0  0  0  0  0
  -21.8680   -5.6300   22.8940 C   0  0  0  0  0  0  0  0  0  0  0  0
  -21.2370   -6.2820   23.9730 C   0  0  0  0  0  3  0  0  0  0  0  0
  -21.0330   -5.5970   25.1870 C   0  0  0  0  0  3  0  0  0  0  0  0
  -21.4530   -4.2610   25.3210 C   0  0  0  0  0  0  0  0  0  0  0  0
  -22.0770   -3.6060   24.2450 C   0  0  0  0  0  3  0  0  0  0  0  0
  -22.2820   -4.2900   23.0330 C   0  0  0  0  0  0  0  0  0  0  0  0
  -22.8650   -3.6490   21.9920 F   0  0  0  0  0  0  0  0  0  0  0  0
  -21.2510   -3.5990   26.4850 F   0  0  0  0  0  0  0  0  0  0  0  0
  -23.0000  -12.8920   21.2120 C   0  0  0  0  0  0  0  0  0  0  0  0
  -22.3520  -12.2160   22.1550 N   0  0  0  0  0  0  0  0  0  0  0  0
  -22.5060  -13.8940   20.6950 O   0  0  0  0  0  0  0  0  0  0  0  0
  -22.7680  -11.4080   22.5920 H   0  0  0  0  0  0  0  0  0  0  0  0
  -21.4340  -12.5140   22.4490 H   0  0  0  0  0  0  0  0  0  0  0  0
  -25.5460  -14.5780   20.2070 N   0  0  0  0  0  0  0  0  0  0  0  0
  -24.7690  -15.2140   20.3570 H   0  0  0  0  0  0  0  0  0  0  0  0
  -26.3510  -15.0310   19.7920 H   0  0  0  0  0  0  0  0  0  0  0  0
  -30.5570  -21.2870   19.6720 N   0  0  0  0  0  4  0  0  0  0  0  0
  -30.5360  -20.9920   18.7120 H   0  0  0  0  0  0  0  0  0  0  0  0
  -31.2780  -21.9920   19.7240 H   0  0  0  0  0  0  0  0  0  0  0  0
  -29.3420  -22.1230   19.9670 C   0  0  0  0  0  2  0  0  0  0  0  0
  -29.6030  -23.6620   19.7410 C   0  0  0  0  0  3  0  0  0  0  0  0
  -30.7420  -24.0060   20.5110 O   0  0  0  0  0  0  0  0  0  0  0  0
  -30.8590  -24.9540   20.4370 H   0  0  0  0  0  0  0  0  0  0  0  0
  -28.4250  -24.6060   20.1750 C   0  0  0  0  0  2  0  0  0  0  0  0
  -28.5680  -26.0110   19.7960 O   0  0  0  0  0  0  0  0  0  0  0  0
  -24.7420  -31.2040   22.9510 C   0  0  0  0  0  0  0  0  0  0  0  0
  -27.4130  -26.7920   19.8060 C   0  0  0  0  0  0  0  0  0  0  0  0
  -23.5550  -29.8530   21.2540 C   0  0  0  0  0  3  0  0  0  0  0  0
  -25.0290  -28.3480   19.8120 C   0  0  0  0  0  0  0  0  0  0  0  0
  -26.0900  -30.1940   21.1100 C   0  0  0  0  0  2  0  0  0  0  0  0
  -26.1840  -28.8370   20.4360 C   0  0  0  0  0  0  0  0  0  0  0  0
  -27.3810  -28.0720   20.4240 C   0  0  0  0  0  3  0  0  0  0  0  0
  -26.2380  -26.3370   19.1650 C   0  0  0  0  0  3  0  0  0  0  0  0
  -25.0570  -27.0990   19.1680 C   0  0  0  0  0  3  0  0  0  0  0  0
  -23.7850  -29.2090   19.8620 C   0  0  0  0  0  2  0  0  0  0  0  0
  -24.8130  -30.4310   21.8300 N   0  0  0  0  0  0  0  0  0  0  0  0
  -23.6510  -31.4690   23.4810 O   0  0  0  0  0  0  0  0  0  0  0  0
  -22.8830  -28.8080   22.1780 C   0  0  0  0  0  0  0  0  0  0  0  0
  -21.5540  -28.6630   22.0550 N   0  0  0  0  0  0  0  0  0  0  0  0
  -23.5540  -28.1340   22.9620 O   0  0  0  0  0  0  0  0  0  0  0  0
  -21.0730  -29.2630   21.4010 H   0  0  0  0  0  0  0  0  0  0  0  0
  -18.1480  -27.5920   22.6160 C   0  0  0  0  0  0  0  0  0  0  0  0
  -20.7240  -27.7100   22.7910 C   0  0  0  0  0  3  0  0  0  0  0  0
  -20.7300  -26.3210   22.1130 C   0  0  0  0  0  2  0  0  0  0  0  0
  -19.5740  -26.1260   21.1260 C   0  0  0  0  0  2  0  0  0  0  0  0
  -18.2280  -26.2890   21.8370 C   0  0  0  0  0  2  0  0  0  0  0  0
  -19.3190  -28.2670   23.0490 C   0  0  0  0  0  0  0  0  0  0  0  0
  -19.1910  -29.4900   23.7410 C   0  0  0  0  0  3  0  0  0  0  0  0
  -17.9230  -30.0440   23.9940 C   0  0  0  0  0  3  0  0  0  0  0  0
  -16.7650  -29.3650   23.5770 C   0  0  0  0  0  3  0  0  0  0  0  0
  -16.8790  -28.1390   22.8970 C   0  0  0  0  0  3  0  0  0  0  0  0
  -26.0180  -31.8120   23.6080 C   0  0  0  0  0  3  0  0  0  0  0  0
  -25.6950  -33.1900   24.0120 N   0  0  0  0  0  0  0  0  0  0  0  0
  -26.0150  -34.2820   23.3070 C   0  0  0  0  0  0  0  0  0  0  0  0
  -26.6830  -34.2400   22.2710 O   0  0  0  0  0  0  0  0  0  0  0  0
  -25.1020  -33.2990   24.8200 H   0  0  0  0  0  0  0  0  0  0  0  0
  -24.2650  -36.0740   23.0530 C   0  0  0  0  0  1  0  0  0  0  0  0
  -25.5120  -35.6410   23.8370 C   0  0  0  0  0  3  0  0  0  0  0  0
  -27.6320  -36.5200   24.7140 C   0  0  0  0  0  1  0  0  0  0  0  0
  -26.5340  -36.7100   23.7700 N   0  0  0  0  0  0  0  0  0  0  0  0
  -26.1130  -37.6190   23.9520 H   0  0  0  0  0  0  0  0  0  0  0  0
  -26.5430  -30.9830   24.8440 C   0  0  1  0  0  0  0  0  0  0  0  0
  -25.4500  -30.6800   25.8930 C   0  0  0  0  0  1  0  0  0  0  0  0
  -27.1450  -29.6360   24.3840 C   0  0  0  0  0  1  0  0  0  0  0  0
  -27.6800  -31.7600   25.5530 C   0  0  0  0  0  1  0  0  0  0  0  0
  -31.9070  -20.2660   23.1270 C   0  0  0  0  0  2  0  0  0  0  0  0
  -30.8160  -21.9430   24.7360 C   0  0  0  0  0  1  0  0  0  0  0  0
  -33.2950  -21.4790   24.8500 C   0  0  0  0  0  1  0  0  0  0  0  0
  -32.0700  -21.5780   23.9210 C   0  0  0  0  0  3  0  0  0  0  0  0
  2  1  1  0
  3  5  2  0
  3  6  1  0
  4  7  1  0
  4  1  2  0
  5  4  1  0
  6  2  2  0
  7 96  1  0
  8 47  1  0
  8  5  1  0
  8  7  1  0
  9 17  1  0
 10 15  1  0
 11 12  1  0
 11 10  1  0
 13 12  1  0
 13 22  1  0
 13 14  1  0
 15  9  1  0
 15 14  1  0
 16  9  2  0
 17 18  1  0
 17  6  1  0
 19 20  2  0
 20 39  1  0
 21 20  1  0
 21 24  1  0
 22 19  1  0
 22 23  1  0
 23 21  2  0
 24 25  1  0
 25 26  2  0
 27 30  1  0
 27 26  1  0
 28 27  2  0
 29 28  1  0
 29 24  2  0
 30 31  1  0
 31 36  2  0
 31 32  1  0
 32 33  2  0
 33 34  1  0
 34 38  1  0
 35 34  2  0
 36 35  1  0
 37 36  1  0
 39 40  1  0
 40 43  1  0
 40 42  1  0
 41 39  2  0
 44 45  1  0
 44 19  1  0
 46 44  1  0
 47 49  1  0
 47 50  1  0
 48 47  1  0
 51 50  1  0
 51 54  1  0
 51 52  1  0
 53 52  1  0
 55 57  1  0
 55 54  1  0
 56 67  2  0
 57 62  1  0
 58 66  1  0
 58 68  1  0
 59 65  1  0
 59 61  1  0
 60 66  1  0
 61 60  1  0
 62 61  2  0
 63 64  1  0
 63 57  2  0
 64 59  2  0
 65 58  1  0
 66 56  1  0
 68 70  2  0
 69 68  1  0
 71 69  1  0
 72 81  2  0
 72 77  1  0
 73 69  1  0
 73 77  1  0
 74 73  1  0
 75 76  1  0
 75 74  1  0
 76 72  1  0
 77 78  2  0
 78 79  1  0
 80 79  2  0
 81 80  1  0
 82 56  1  0
 82 83  1  0
 82 92  1  0
 83 86  1  0
 84 88  1  0
 84 83  1  0
 85 84  2  0
 88 87  1  0
 90 88  1  0
 90 91  1  0
 90 89  1  0
 92 95  1  1
 92 93  1  0
 94 92  1  0
 96 99  1  0
 99 97  1  0
 99 98  1  0
M  ISO  4   9 100  17 100  54 101  55 101
M  END
>  <TORSDO>  (90) 
F 23

>  <SCORE>  (90) 
-7.342

>  <name>  (90) 
90

>  <ligand_id>  (90) 
90

>  <original_smiles>  (90) 
[H]OC([H])(C([H])([H])Oc1c([H])c([H])c2c(c1[H])C([H])([H])N(C(=O)C([H])(N([H])C(=O)C([H])(N([H])C([H])([H])[H])C([H])([H])[H])C(C([H])([H])[H])(C([H])([H])[H])C([H])([H])[H])C([H])(C(=O)N([H])C1([H])c3c([H])c([H])c([H])c([H])c3C([H])([H])C([H])([H])C1([H])[H])C2([H])[H])C([H])([H])[N+]([H])([H])C1([H])c2c([H])c(N([H])C(=O)N3C([H])([H])C([H])([H])C([H])([H])C([H])(n4nc(-c5c([H])c([H])c(Oc6c([H])c([H])c(F)c([H])c6F)c([H])c5[H])c(C(=O)N([H])[H])c4N([H])[H])C3([H])[H])c([H])c([H])c2C1([H])C([H])([H])C([H])(C([H])([H])[H])C([H])([H])[H]

>  <smiles>  (90) 
[H]OC([H])(C([H])([H])Oc1c([H])c([H])c2c(c1[H])C([H])([H])N(C(=O)C([H])(N([H])C(=O)C([H])(N([H])C([H])([H])[H])C([H])([H])[H])C(C([H])([H])[H])(C([H])([H])[H])C([H])([H])[H])C([H])(C(=O)N([H])C1([H])c3c([H])c([H])c([H])c([H])c3C([H])([H])C([H])([H])C1([H])[H])C2([H])[H])C([H])([H])[N+]([H])([H])C1([H])c2c([H])c(N([H])C(=O)N3C([H])([H])C([H])([H])C([H])([H])C([H])(n4nc(-c5c([H])c([H])c(Oc6c([H])c([H])c(F)c([H])c6F)c([H])c5[H])c(C(=O)N([H])[H])c4N([H])[H])C3([H])[H])c([H])c([H])c2C1([H])C([H])([H])C([H])(C([H])([H])[H])C([H])([H])[H]

$$$$
91:0:0
     RDKit          3D

 91 99  0  0  1  0  0  0  0  0999 V2000
  -28.8110  -22.4220   19.0810 C   0  0  0  0  0  3  0  0  0  0  0  0
  -29.2150  -22.9640   21.3370 C   0  0  0  0  0  3  0  0  0  0  0  0
  -28.7990  -23.4600   20.0690 C   0  0  0  0  0  0  0  0  0  0  0  0
  -29.1130  -21.0250   19.3320 C   0  0  0  0  0  0  0  0  0  0  0  0
  -29.5330  -21.5730   21.6140 C   0  0  0  0  0  0  0  0  0  0  0  0
  -29.4660  -20.5120   20.6240 C   0  0  0  0  0  0  0  0  0  0  0  0
  -28.9620  -20.0520   18.1770 C   0  0  0  0  0  1  0  0  0  0  0  0
  -31.3860  -21.1630   23.3060 C   0  0  0  0  0  1  0  0  0  0  0  0
  -29.8760  -21.2720   23.0690 C   0  0  0  0  0  2  0  0  0  0  0  0
  -29.4930  -18.9030   20.9820 C   0  0  0  0  0  3  0  0  0  0  0  0
  -30.4890  -17.7110   20.4100 C   0  0  0  0  0  3  0  0  0  0  0  0
  -30.8890  -15.0320   20.3640 C   0  0  0  0  0  0  0  0  0  0  0  0
  -30.7090  -12.7320   19.3500 C   0  0  0  0  0  2  0  0  0  0  0  0
  -29.7890  -12.7760   18.1070 C   0  0  0  0  0  2  0  0  0  0  0  0
  -28.3110  -12.6060   18.5130 C   0  0  0  0  0  2  0  0  0  0  0  0
  -27.9180  -13.4940   19.7240 C   0  0  0  0  0  3  0  0  0  0  0  0
  -28.9620  -13.4230   20.8600 C   0  0  0  0  0  2  0  0  0  0  0  0
  -30.2590  -13.7980   20.2850 N   0  0  0  0  0  0  0  0  0  0  0  0
  -32.0760  -15.1090   20.0370 O   0  0  0  0  0  0  0  0  0  0  0  0
  -30.1390  -16.1970   20.6040 N   0  0  0  0  0  0  0  0  0  0  0  0
  -29.1770  -16.0140   20.8430 H   0  0  0  0  0  0  0  0  0  0  0  0
  -25.5240  -14.0870   20.4170 C   0  0  0  0  0  0  0  0  0  0  0  0
  -24.4520  -13.3180   20.7790 C   0  0  0  0  0  0  0  0  0  0  0  0
  -24.9140  -11.9660   20.7670 C   0  0  0  0  0  0  0  0  0  0  0  0
  -26.5690  -13.2050   20.2000 N   0  0  0  0  0  0  0  0  0  0  0  0
  -26.2090  -11.9250   20.4740 N   0  0  0  0  0  0  0  0  0  0  0  0
  -24.1810  -10.7070   20.9590 C   0  0  0  0  0  0  0  0  0  0  0  0
  -24.5830   -9.7570   21.9220 C   0  0  0  0  0  3  0  0  0  0  0  0
  -23.8490   -8.5640   22.1030 C   0  0  0  0  0  3  0  0  0  0  0  0
  -22.6960   -8.3150   21.3200 C   0  0  0  0  0  0  0  0  0  0  0  0
  -22.3140   -9.2540   20.3470 C   0  0  0  0  0  3  0  0  0  0  0  0
  -23.0490  -10.4380   20.1640 C   0  0  0  0  0  3  0  0  0  0  0  0
  -21.9380   -7.1720   21.4030 O   0  0  0  0  0  0  0  0  0  0  0  0
  -21.8260   -6.4680   22.5750 C   0  0  0  0  0  0  0  0  0  0  0  0
  -21.3410   -7.0660   23.7580 C   0  0  0  0  0  3  0  0  0  0  0  0
  -21.1760   -6.2890   24.9220 C   0  0  0  0  0  3  0  0  0  0  0  0
  -21.4840   -4.9170   24.9040 C   0  0  0  0  0  0  0  0  0  0  0  0
  -21.9630   -4.3190   23.7240 C   0  0  0  0  0  3  0  0  0  0  0  0
  -22.1290   -5.0920   22.5620 C   0  0  0  0  0  0  0  0  0  0  0  0
  -22.5700   -4.5070   21.4230 F   0  0  0  0  0  0  0  0  0  0  0  0
  -21.3190   -4.1680   26.0200 F   0  0  0  0  0  0  0  0  0  0  0  0
  -23.0520  -13.8020   21.0240 C   0  0  0  0  0  0  0  0  0  0  0  0
  -22.3130  -13.1270   21.8980 N   0  0  0  0  0  0  0  0  0  0  0  0
  -22.6210  -14.8150   20.4750 O   0  0  0  0  0  0  0  0  0  0  0  0
  -22.6760  -12.3120   22.3700 H   0  0  0  0  0  0  0  0  0  0  0  0
  -21.3720  -13.4330   22.1030 H   0  0  0  0  0  0  0  0  0  0  0  0
  -25.6930  -15.4560   20.2300 N   0  0  0  0  0  0  0  0  0  0  0  0
  -24.9230  -16.1110   20.3260 H   0  0  0  0  0  0  0  0  0  0  0  0
  -26.5350  -15.8860   19.8730 H   0  0  0  0  0  0  0  0  0  0  0  0
  -28.0060  -24.8620   19.8050 C   0  0  0  0  0  2  0  0  0  0  0  0
  -28.3630  -26.3170   20.1410 O   0  0  0  0  0  0  0  0  0  0  0  0
  -24.6980  -31.9070   23.1880 C   0  0  0  0  0  0  0  0  0  0  0  0
  -27.3120  -27.2970   20.0660 C   0  0  0  0  0  0  0  0  0  0  0  0
  -23.5030  -30.5160   21.5430 C   0  0  0  0  0  3  0  0  0  0  0  0
  -24.9590  -28.9950   20.0800 C   0  0  0  0  0  0  0  0  0  0  0  0
  -26.0510  -30.8220   21.3640 C   0  0  0  0  0  2  0  0  0  0  0  0
  -26.1360  -29.4450   20.6930 C   0  0  0  0  0  0  0  0  0  0  0  0
  -27.3110  -28.6070   20.6810 C   0  0  0  0  0  3  0  0  0  0  0  0
  -26.1090  -26.9590   19.3950 C   0  0  0  0  0  3  0  0  0  0  0  0
  -24.9560  -27.7620   19.4200 C   0  0  0  0  0  3  0  0  0  0  0  0
  -23.7200  -29.8680   20.1520 C   0  0  0  0  0  2  0  0  0  0  0  0
  -24.7710  -31.1020   22.0860 N   0  0  0  0  0  0  0  0  0  0  0  0
  -23.6130  -32.1730   23.7270 O   0  0  0  0  0  0  0  0  0  0  0  0
  -22.8490  -29.4830   22.4960 C   0  0  0  0  0  0  0  0  0  0  0  0
  -21.5200  -29.3050   22.3820 N   0  0  0  0  0  0  0  0  0  0  0  0
  -23.5360  -28.8490   23.3000 O   0  0  0  0  0  0  0  0  0  0  0  0
  -21.0250  -29.8670   21.7050 H   0  0  0  0  0  0  0  0  0  0  0  0
  -18.1530  -28.0810   22.9140 C   0  0  0  0  0  0  0  0  0  0  0  0
  -20.7130  -28.3530   23.1500 C   0  0  0  0  0  3  0  0  0  0  0  0
  -20.8150  -26.9300   22.5530 C   0  0  0  0  0  2  0  0  0  0  0  0
  -19.6990  -26.6150   21.5520 C   0  0  0  0  0  2  0  0  0  0  0  0
  -18.3270  -26.7430   22.2160 C   0  0  0  0  0  2  0  0  0  0  0  0
  -19.2720  -28.8450   23.3390 C   0  0  0  0  0  0  0  0  0  0  0  0
  -19.0520  -30.0950   23.9560 C   0  0  0  0  0  3  0  0  0  0  0  0
  -17.7460  -30.5840   24.1480 C   0  0  0  0  0  3  0  0  0  0  0  0
  -16.6420  -29.8180   23.7360 C   0  0  0  0  0  3  0  0  0  0  0  0
  -16.8460  -28.5680   23.1270 C   0  0  0  0  0  3  0  0  0  0  0  0
  -25.9730  -32.5500   23.8120 C   0  0  0  0  0  3  0  0  0  0  0  0
  -26.5050  -31.7700   25.0780 C   0  0  1  0  0  0  0  0  0  0  0  0
  -25.4200  -31.5080   26.1490 C   0  0  0  0  0  1  0  0  0  0  0  0
  -27.1010  -30.4040   24.6710 C   0  0  0  0  0  1  0  0  0  0  0  0
  -27.6540  -32.5680   25.7400 C   0  0  0  0  0  1  0  0  0  0  0  0
  -25.6450  -33.9390   24.1670 N   0  0  0  0  0  0  0  0  0  0  0  0
  -25.9480  -35.0090   23.4220 C   0  0  0  0  0  0  0  0  0  0  0  0
  -26.6040  -34.9310   22.3800 O   0  0  0  0  0  0  0  0  0  0  0  0
  -25.0600  -34.0700   24.9800 H   0  0  0  0  0  0  0  0  0  0  0  0
  -24.1880  -36.7830   23.1260 C   0  0  0  0  0  1  0  0  0  0  0  0
  -25.4490  -36.3830   23.9090 C   0  0  0  0  0  3  0  0  0  0  0  0
  -27.5850  -37.2890   24.7140 C   0  0  0  0  0  1  0  0  0  0  0  0
  -26.4630  -37.4540   23.7930 N   0  0  0  0  0  0  0  0  0  0  0  0
  -26.0460  -38.3660   23.9570 H   0  0  0  0  0  0  0  0  0  0  0  0
  1  4  2  0
  1  3  1  0
  2  5  1  0
  3  2  2  0
  4  6  1  0
  5  9  1  0
  6 10  1  0
  6  5  2  0
  7  4  1  0
  9  8  1  0
 11 20  1  0
 11 10  2  0
 12 20  1  0
 13 18  1  0
 14 15  1  0
 14 13  1  0
 16 15  1  0
 16 25  1  0
 16 17  1  0
 18 12  1  0
 18 17  1  0
 19 12  2  0
 20 21  1  0
 22 23  2  0
 23 42  1  0
 24 23  1  0
 24 27  1  0
 25 22  1  0
 25 26  1  0
 26 24  2  0
 27 28  1  0
 28 29  2  0
 30 33  1  0
 30 29  1  0
 31 30  2  0
 32 31  1  0
 32 27  2  0
 33 34  1  0
 34 35  1  0
 35 36  2  0
 37 36  1  0
 37 41  1  0
 38 37  2  0
 39 34  2  0
 39 38  1  0
 40 39  1  0
 42 43  1  0
 43 46  1  0
 43 45  1  0
 44 42  2  0
 47 48  1  0
 47 22  1  0
 49 47  1  0
 50  3  1  0
 50 51  1  0
 52 63  2  0
 53 51  1  0
 53 58  1  0
 54 62  1  0
 54 64  1  0
 55 61  1  0
 55 57  1  0
 56 62  1  0
 57 56  1  0
 58 57  2  0
 59 60  1  0
 59 53  2  0
 60 55  2  0
 61 54  1  0
 62 52  1  0
 64 66  2  0
 65 64  1  0
 67 65  1  0
 68 77  2  0
 68 73  1  0
 69 65  1  0
 69 73  1  0
 70 69  1  0
 71 72  1  0
 71 70  1  0
 72 68  1  0
 73 74  2  0
 74 75  1  0
 76 75  2  0
 77 76  1  0
 78 52  1  0
 78 83  1  0
 78 79  1  0
 79 82  1  1
 79 80  1  0
 81 79  1  0
 83 86  1  0
 84 88  1  0
 84 83  1  0
 85 84  2  0
 88 87  1  0
 90 88  1  0
 90 91  1  0
 90 89  1  0
M  ISO  4  12 100  20 100  50 101  51 101
M  END
>  <TORSDO>  (91) 
F 20

>  <SCORE>  (91) 
-13.788

>  <name>  (91) 
91

>  <ligand_id>  (91) 
91

>  <original_smiles>  (91) 
[H]c1c([H])c([H])c2c(c1[H])C([H])([H])C([H])([H])C([H])([H])C2([H])N([H])C(=O)C1([H])N(C(=O)C([H])(N([H])C(=O)C([H])(N([H])C([H])([H])[H])C([H])([H])[H])C(C([H])([H])[H])(C([H])([H])[H])C([H])([H])[H])C([H])([H])c2c([H])c(OC([H])([H])c3c([H])c(C([H])([H])[H])c(C([H])([H])C([H])([H])N([H])C(=O)N4C([H])([H])C([H])([H])C([H])([H])C([H])(n5nc(-c6c([H])c([H])c(Oc7c([H])c([H])c(F)c([H])c7F)c([H])c6[H])c(C(=O)N([H])[H])c5N([H])[H])C4([H])[H])c(C([H])([H])C([H])([H])[H])c3[H])c([H])c([H])c2C1([H])[H]

>  <smiles>  (91) 
[H]c1c([H])c([H])c2c(c1[H])C([H])([H])C([H])([H])C([H])([H])C2([H])N([H])C(=O)C1([H])N(C(=O)C([H])(N([H])C(=O)C([H])(N([H])C([H])([H])[H])C([H])([H])[H])C(C([H])([H])[H])(C([H])([H])[H])C([H])([H])[H])C([H])([H])c2c([H])c(OC([H])([H])c3c([H])c(C([H])([H])[H])c(C([H])([H])C([H])([H])N([H])C(=O)N4C([H])([H])C([H])([H])C([H])([H])C([H])(n5nc(-c6c([H])c([H])c(Oc7c([H])c([H])c(F)c([H])c7F)c([H])c6[H])c(C(=O)N([H])[H])c5N([H])[H])C4([H])[H])c(C([H])([H])C([H])([H])[H])c3[H])c([H])c([H])c2C1([H])[H]

$$$$
92:0:0
     RDKit          3D

 98108  0  0  1  0  0  0  0  0999 V2000
  -30.7360  -19.8970   19.2640 C   0  0  0  0  0  3  0  0  0  0  0  0
  -29.7030  -20.9480   21.1900 C   0  0  0  0  0  3  0  0  0  0  0  0
  -30.1780  -19.7760   20.5500 C   0  0  0  0  0  0  0  0  0  0  0  0
  -30.8900  -21.1550   18.6400 C   0  0  0  0  0  0  0  0  0  0  0  0
  -30.4950  -22.3340   19.3320 C   0  0  0  0  0  0  0  0  0  0  0  0
  -29.8290  -22.2250   20.5850 C   0  0  0  0  0  0  0  0  0  0  0  0
  -30.8580  -23.7050   18.7690 C   0  0  0  0  0  1  0  0  0  0  0  0
  -30.6810  -14.4810   20.1840 C   0  0  0  0  0  0  0  0  0  0  0  0
  -30.2530  -12.3940   18.9120 C   0  0  0  0  0  2  0  0  0  0  0  0
  -29.2410  -12.6310   17.7730 C   0  0  0  0  0  2  0  0  0  0  0  0
  -27.8000  -12.4480   18.2840 C   0  0  0  0  0  2  0  0  0  0  0  0
  -27.5420  -13.2470   19.5840 C   0  0  0  0  0  3  0  0  0  0  0  0
  -28.6600  -12.9850   20.6260 C   0  0  0  0  0  2  0  0  0  0  0  0
  -29.9460  -13.3370   20.0070 N   0  0  0  0  0  0  0  0  0  0  0  0
  -31.7430  -14.6430   19.5740 O   0  0  0  0  0  0  0  0  0  0  0  0
  -29.0340  -17.4850   20.5600 C   0  0  0  0  0  2  0  0  0  0  0  0
  -31.4400  -17.6360   21.2530 C   0  0  0  0  0  2  0  0  0  0  0  0
  -28.9970  -16.0860   21.2180 C   0  0  0  0  0  2  0  0  0  0  0  0
  -31.3080  -16.2080   21.8480 C   0  0  0  0  0  2  0  0  0  0  0  0
  -30.0880  -18.3930   21.2190 C   0  0  0  0  0  3  0  0  0  0  0  0
  -30.3010  -15.3960   21.1330 N   0  0  0  0  0  0  0  0  0  0  0  0
  -25.1980  -13.8710   20.4460 C   0  0  0  0  0  0  0  0  0  0  0  0
  -24.1460  -13.1000   20.8640 C   0  0  0  0  0  0  0  0  0  0  0  0
  -24.5950  -11.7470   20.7830 C   0  0  0  0  0  0  0  0  0  0  0  0
  -26.2190  -12.9830   20.1370 N   0  0  0  0  0  0  0  0  0  0  0  0
  -25.8630  -11.7020   20.4010 N   0  0  0  0  0  0  0  0  0  0  0  0
  -23.8730  -10.4860   20.9900 C   0  0  0  0  0  0  0  0  0  0  0  0
  -24.3390   -9.5080   21.8970 C   0  0  0  0  0  3  0  0  0  0  0  0
  -23.6180   -8.3110   22.0880 C   0  0  0  0  0  3  0  0  0  0  0  0
  -22.4170   -8.0820   21.3740 C   0  0  0  0  0  0  0  0  0  0  0  0
  -21.9710   -9.0490   20.4540 C   0  0  0  0  0  3  0  0  0  0  0  0
  -22.6940  -10.2380   20.2600 C   0  0  0  0  0  3  0  0  0  0  0  0
  -21.6650   -6.9380   21.4770 O   0  0  0  0  0  0  0  0  0  0  0  0
  -21.6470   -6.1920   22.6280 C   0  0  0  0  0  0  0  0  0  0  0  0
  -21.2360   -6.7370   23.8630 C   0  0  0  0  0  3  0  0  0  0  0  0
  -21.1670   -5.9160   25.0070 C   0  0  0  0  0  3  0  0  0  0  0  0
  -21.4980   -4.5500   24.9150 C   0  0  0  0  0  0  0  0  0  0  0  0
  -21.9010   -4.0050   23.6840 C   0  0  0  0  0  3  0  0  0  0  0  0
  -21.9730   -4.8240   22.5420 C   0  0  0  0  0  0  0  0  0  0  0  0
  -22.3430   -4.2880   21.3540 F   0  0  0  0  0  0  0  0  0  0  0  0
  -21.4240   -3.7600   26.0100 F   0  0  0  0  0  0  0  0  0  0  0  0
  -22.7710  -13.5810   21.2240 C   0  0  0  0  0  0  0  0  0  0  0  0
  -22.0830  -12.8680   22.1090 N   0  0  0  0  0  0  0  0  0  0  0  0
  -22.3140  -14.6240   20.7550 O   0  0  0  0  0  0  0  0  0  0  0  0
  -22.4650  -12.0240   22.5090 H   0  0  0  0  0  0  0  0  0  0  0  0
  -21.1620  -13.1720   22.3930 H   0  0  0  0  0  0  0  0  0  0  0  0
  -25.3600  -15.2430   20.2800 N   0  0  0  0  0  0  0  0  0  0  0  0
  -24.6030  -15.8970   20.4440 H   0  0  0  0  0  0  0  0  0  0  0  0
  -26.1830  -15.6810   19.8900 H   0  0  0  0  0  0  0  0  0  0  0  0
  -33.0270  -20.9800   17.2890 C   0  0  0  0  0  1  0  0  0  0  0  0
  -31.5090  -21.1980   17.2390 C   0  0  0  0  0  3  0  0  0  0  0  0
  -29.4730  -20.5020   15.7180 C   0  0  0  0  0  2  0  0  0  0  0  0
  -30.6920  -20.4950   14.8260 C   0  0  0  0  0  2  0  0  0  0  0  0
  -30.8350  -20.2030   16.3020 C   0  0  0  0  0  3  0  0  0  0  0  0
  -29.3840  -23.3260   21.2950 O   0  0  0  0  0  0  0  0  0  0  0  0
  -28.3900  -24.1780   20.6920 C   0  0  0  0  0  2  0  0  0  0  0  0
  -28.5350  -25.6300   21.2230 C   0  0  0  0  0  2  0  0  0  0  0  0
  -28.4180  -26.6420   20.2120 O   0  0  0  0  0  0  0  0  0  0  0  0
  -24.5790  -31.8440   23.2380 C   0  0  0  0  0  0  0  0  0  0  0  0
  -27.2520  -27.3730   20.2360 C   0  0  0  0  0  0  0  0  0  0  0  0
  -23.3890  -30.4300   21.5920 C   0  0  0  0  0  3  0  0  0  0  0  0
  -24.8580  -28.8730   20.2020 C   0  0  0  0  0  0  0  0  0  0  0  0
  -25.9160  -30.7840   21.4200 C   0  0  0  0  0  2  0  0  0  0  0  0
  -26.0080  -29.4050   20.8000 C   0  0  0  0  0  0  0  0  0  0  0  0
  -27.2100  -28.6620   20.8140 C   0  0  0  0  0  3  0  0  0  0  0  0
  -26.0900  -26.8490   19.6350 C   0  0  0  0  0  3  0  0  0  0  0  0
  -24.8930  -27.5930   19.6170 C   0  0  0  0  0  3  0  0  0  0  0  0
  -23.6140  -29.7350   20.2220 C   0  0  0  0  0  2  0  0  0  0  0  0
  -24.6450  -31.0350   22.1420 N   0  0  0  0  0  0  0  0  0  0  0  0
  -23.4930  -32.1220   23.7640 O   0  0  0  0  0  0  0  0  0  0  0  0
  -22.7230  -29.4210   22.5550 C   0  0  0  0  0  0  0  0  0  0  0  0
  -21.3990  -29.2450   22.4160 N   0  0  0  0  0  0  0  0  0  0  0  0
  -23.3970  -28.7970   23.3800 O   0  0  0  0  0  0  0  0  0  0  0  0
  -20.9180  -29.8000   21.7210 H   0  0  0  0  0  0  0  0  0  0  0  0
  -18.0120  -28.0840   22.8970 C   0  0  0  0  0  0  0  0  0  0  0  0
  -20.5710  -28.3170   23.1830 C   0  0  0  0  0  3  0  0  0  0  0  0
  -20.6620  -26.8830   22.6100 C   0  0  0  0  0  2  0  0  0  0  0  0
  -19.5630  -26.5710   21.5890 C   0  0  0  0  0  2  0  0  0  0  0  0
  -18.1790  -26.7320   22.2250 C   0  0  0  0  0  2  0  0  0  0  0  0
  -19.1360  -28.8350   23.3330 C   0  0  0  0  0  0  0  0  0  0  0  0
  -18.9270  -30.1020   23.9190 C   0  0  0  0  0  3  0  0  0  0  0  0
  -17.6270  -30.6180   24.0760 C   0  0  0  0  0  3  0  0  0  0  0  0
  -16.5170  -29.8640   23.6580 C   0  0  0  0  0  3  0  0  0  0  0  0
  -16.7110  -28.5980   23.0740 C   0  0  0  0  0  3  0  0  0  0  0  0
  -25.8600  -32.4760   23.8680 C   0  0  0  0  0  3  0  0  0  0  0  0
  -25.5490  -33.8740   24.1970 N   0  0  0  0  0  0  0  0  0  0  0  0
  -25.8760  -34.9240   23.4330 C   0  0  0  0  0  0  0  0  0  0  0  0
  -26.5440  -34.8210   22.4010 O   0  0  0  0  0  0  0  0  0  0  0  0
  -24.9560  -34.0270   24.9990 H   0  0  0  0  0  0  0  0  0  0  0  0
  -24.1390  -36.7080   23.0780 C   0  0  0  0  0  1  0  0  0  0  0  0
  -25.3840  -36.3120   23.8870 C   0  0  0  0  0  3  0  0  0  0  0  0
  -27.5150  -37.2100   24.7130 C   0  0  0  0  0  1  0  0  0  0  0  0
  -26.4130  -37.3700   23.7690 N   0  0  0  0  0  0  0  0  0  0  0  0
  -26.0030  -38.2880   23.9120 H   0  0  0  0  0  0  0  0  0  0  0  0
  -26.3720  -31.7020   25.1450 C   0  0  1  0  0  0  0  0  0  0  0  0
  -25.2730  -31.4590   26.2060 C   0  0  0  0  0  1  0  0  0  0  0  0
  -26.9600  -30.3290   24.7510 C   0  0  0  0  0  1  0  0  0  0  0  0
  -27.5160  -32.4990   25.8170 C   0  0  0  0  0  1  0  0  0  0  0  0
  1  3  1  0
  3  2  2  0
  4  1  2  0
  4  5  1  0
  5  6  2  0
  6  2  1  0
  6 55  1  0
  7  5  1  0
  8 21  1  0
  9 14  1  0
 10 11  1  0
 10  9  1  0
 12 11  1  0
 12 25  1  0
 12 13  1  0
 14  8  1  0
 14 13  1  0
 15  8  2  0
 16 18  1  0
 16 20  1  0
 17 19  1  0
 20  3  1  0
 20 17  1  0
 21 18  1  0
 21 19  1  0
 22 23  2  0
 23 42  1  0
 24 23  1  0
 24 27  1  0
 25 26  1  0
 25 22  1  0
 26 24  2  0
 27 28  1  0
 28 29  2  0
 30 33  1  0
 30 29  1  0
 31 30  2  0
 32 31  1  0
 32 27  2  0
 33 34  1  0
 34 35  1  0
 35 36  2  0
 37 36  1  0
 37 41  1  0
 38 37  2  0
 39 34  2  0
 39 38  1  0
 40 39  1  0
 42 43  1  0
 43 46  1  0
 43 45  1  0
 44 42  2  0
 47 48  1  0
 47 22  1  0
 49 47  1  0
 51 50  1  0
 51  4  1  0
 52 54  1  0
 53 52  1  0
 53 54  1  0
 54 51  1  0
 56 57  1  0
 56 55  1  0
 58 60  1  0
 58 57  1  0
 59 70  2  0
 60 65  1  0
 61 69  1  0
 61 71  1  0
 62 68  1  0
 62 64  1  0
 63 69  1  0
 64 65  2  0
 64 63  1  0
 66 60  2  0
 67 66  1  0
 67 62  2  0
 68 61  1  0
 69 59  1  0
 71 73  2  0
 72 71  1  0
 74 72  1  0
 75 84  2  0
 75 80  1  0
 76 72  1  0
 76 80  1  0
 77 76  1  0
 78 79  1  0
 78 77  1  0
 79 75  1  0
 80 81  2  0
 81 82  1  0
 83 82  2  0
 84 83  1  0
 85 59  1  0
 85 86  1  0
 85 95  1  0
 86 89  1  0
 87 91  1  0
 87 86  1  0
 88 87  2  0
 91 90  1  0
 93 91  1  0
 93 94  1  0
 93 92  1  0
 95 98  1  1
 95 96  1  0
 97 95  1  0
M  ISO  4   8 100  21 100  57 101  58 101
M  END
>  <TORSDO>  (92) 
F 21

>  <SCORE>  (92) 
-13.554

>  <name>  (92) 
92

>  <ligand_id>  (92) 
92

>  <original_smiles>  (92) 
[H]c1c([H])c([H])c2c(c1[H])C([H])([H])C([H])([H])C([H])([H])C2([H])N([H])C(=O)C1([H])N(C(=O)C([H])(N([H])C(=O)C([H])(N([H])C([H])([H])[H])C([H])([H])[H])C(C([H])([H])[H])(C([H])([H])[H])C([H])([H])[H])C([H])([H])c2c([H])c(OC([H])([H])C([H])([H])Oc3c([H])c(C4([H])C([H])([H])C([H])([H])N(C(=O)N5C([H])([H])C([H])([H])C([H])([H])C([H])(n6nc(-c7c([H])c([H])c(Oc8c([H])c([H])c(F)c([H])c8F)c([H])c7[H])c(C(=O)N([H])[H])c6N([H])[H])C5([H])[H])C([H])([H])C4([H])[H])c([H])c(C([H])(C([H])([H])[H])C4([H])C([H])([H])C4([H])[H])c3C([H])([H])[H])c([H])c([H])c2C1([H])[H]

>  <smiles>  (92) 
[H]c1c([H])c([H])c2c(c1[H])C([H])([H])C([H])([H])C([H])([H])C2([H])N([H])C(=O)C1([H])N(C(=O)C([H])(N([H])C(=O)C([H])(N([H])C([H])([H])[H])C([H])([H])[H])C(C([H])([H])[H])(C([H])([H])[H])C([H])([H])[H])C([H])([H])c2c([H])c(OC([H])([H])C([H])([H])Oc3c([H])c(C4([H])C([H])([H])C([H])([H])N(C(=O)N5C([H])([H])C([H])([H])C([H])([H])C([H])(n6nc(-c7c([H])c([H])c(Oc8c([H])c([H])c(F)c([H])c8F)c([H])c7[H])c(C(=O)N([H])[H])c6N([H])[H])C5([H])[H])C([H])([H])C4([H])[H])c([H])c(C([H])(C([H])([H])[H])C4([H])C([H])([H])C4([H])[H])c3C([H])([H])[H])c([H])c([H])c2C1([H])[H]

$$$$
93:0:0
     RDKit          3D

 96105  0  0  1  0  0  0  0  0999 V2000
  -29.0580  -23.1250   19.4240 C   0  0  0  0  0  3  0  0  0  0  0  0
  -29.1330  -25.1150   21.3950 C   0  0  0  0  0  3  0  0  0  0  0  0
  -28.9260  -24.4920   19.0640 C   0  0  0  0  0  0  0  0  0  0  0  0
  -29.1110  -22.7290   20.7820 C   0  0  0  0  0  0  0  0  0  0  0  0
  -28.8900  -25.5000   20.0630 C   0  0  0  0  0  0  0  0  0  0  0  0
  -29.2580  -23.7490   21.7670 C   0  0  0  0  0  0  0  0  0  0  0  0
  -28.7350  -24.8360   17.6010 C   0  0  0  0  0  1  0  0  0  0  0  0
  -27.1220  -21.2720   20.7590 C   0  0  0  0  0  1  0  0  0  0  0  0
  -28.6000  -21.3220   21.2020 C   0  0  0  0  0  3  0  0  0  0  0  0
  -30.4590  -19.4490   21.7690 C   0  0  0  0  0  2  0  0  0  0  0  0
  -29.6550  -19.5510   19.3850 C   0  0  0  0  0  2  0  0  0  0  0  0
  -30.6580  -17.8940   21.7250 C   0  0  0  0  0  2  0  0  0  0  0  0
  -30.1910  -18.0710   19.2220 C   0  0  0  0  0  2  0  0  0  0  0  0
  -29.3110  -19.9400   20.8520 C   0  0  0  0  0  3  0  0  0  0  0  0
  -29.9920  -17.2040   20.5000 C   0  0  0  0  0  3  0  0  0  0  0  0
  -30.9000  -14.7320   20.0130 C   0  0  0  0  0  0  0  0  0  0  0  0
  -30.6690  -12.5000   18.9380 C   0  0  0  0  0  2  0  0  0  0  0  0
  -29.6530  -12.6320   17.7780 C   0  0  0  0  0  2  0  0  0  0  0  0
  -28.1960  -12.4960   18.2770 C   0  0  0  0  0  2  0  0  0  0  0  0
  -27.9180  -13.3350   19.5520 C   0  0  0  0  0  3  0  0  0  0  0  0
  -29.0360  -13.1320   20.6000 C   0  0  0  0  0  2  0  0  0  0  0  0
  -30.3130  -13.4980   19.9610 N   0  0  0  0  0  0  0  0  0  0  0  0
  -32.0220  -14.9550   19.5390 O   0  0  0  0  0  0  0  0  0  0  0  0
  -30.0620  -15.7100   20.4550 N   0  0  0  0  0  0  0  0  0  0  0  0
  -29.1890  -15.2970   20.7510 H   0  0  0  0  0  0  0  0  0  0  0  0
  -25.5870  -13.9620   20.4460 C   0  0  0  0  0  0  0  0  0  0  0  0
  -24.5290  -13.1970   20.8540 C   0  0  0  0  0  0  0  0  0  0  0  0
  -24.9530  -11.8390   20.7360 C   0  0  0  0  0  0  0  0  0  0  0  0
  -26.5930  -13.0690   20.1080 N   0  0  0  0  0  0  0  0  0  0  0  0
  -26.2190  -11.7840   20.3390 N   0  0  0  0  0  0  0  0  0  0  0  0
  -24.2130  -10.5850   20.9300 C   0  0  0  0  0  0  0  0  0  0  0  0
  -24.6350   -9.6140   21.8630 C   0  0  0  0  0  3  0  0  0  0  0  0
  -23.8980   -8.4220   22.0400 C   0  0  0  0  0  3  0  0  0  0  0  0
  -22.7250   -8.1970   21.2860 C   0  0  0  0  0  0  0  0  0  0  0  0
  -22.3220   -9.1540   20.3390 C   0  0  0  0  0  3  0  0  0  0  0  0
  -23.0590  -10.3360   20.1600 C   0  0  0  0  0  3  0  0  0  0  0  0
  -21.9610   -7.0590   21.3720 O   0  0  0  0  0  0  0  0  0  0  0  0
  -21.8180   -6.3760   22.5530 C   0  0  0  0  0  0  0  0  0  0  0  0
  -21.2970   -6.9930   23.7120 C   0  0  0  0  0  3  0  0  0  0  0  0
  -21.0990   -6.2350   24.8830 C   0  0  0  0  0  3  0  0  0  0  0  0
  -21.4160   -4.8620   24.8980 C   0  0  0  0  0  0  0  0  0  0  0  0
  -21.9300   -4.2470   23.7430 C   0  0  0  0  0  3  0  0  0  0  0  0
  -22.1280   -5.0020   22.5740 C   0  0  0  0  0  0  0  0  0  0  0  0
  -22.6030   -4.3970   21.4590 F   0  0  0  0  0  0  0  0  0  0  0  0
  -21.2210   -4.1330   26.0200 F   0  0  0  0  0  0  0  0  0  0  0  0
  -23.1650  -13.6910   21.2400 C   0  0  0  0  0  0  0  0  0  0  0  0
  -22.4820  -12.9820   22.1320 N   0  0  0  0  0  0  0  0  0  0  0  0
  -22.7150  -14.7430   20.7820 O   0  0  0  0  0  0  0  0  0  0  0  0
  -22.8670  -12.1330   22.5200 H   0  0  0  0  0  0  0  0  0  0  0  0
  -21.5740  -13.3010   22.4380 H   0  0  0  0  0  0  0  0  0  0  0  0
  -25.7670  -15.3370   20.3200 N   0  0  0  0  0  0  0  0  0  0  0  0
  -25.0160  -15.9910   20.5110 H   0  0  0  0  0  0  0  0  0  0  0  0
  -26.5950  -15.7880   19.9440 H   0  0  0  0  0  0  0  0  0  0  0  0
  -30.0820  -24.3210   23.9360 C   0  0  0  0  0  1  0  0  0  0  0  0
  -29.4410  -23.3750   23.0820 O   0  0  0  0  0  0  0  0  0  0  0  0
  -28.7140  -26.8420   19.7550 O   0  0  0  0  0  0  0  0  0  0  0  0
  -24.7130  -31.7630   23.1180 C   0  0  0  0  0  0  0  0  0  0  0  0
  -27.4860  -27.4770   19.8870 C   0  0  0  0  0  0  0  0  0  0  0  0
  -23.5410  -30.3820   21.4350 C   0  0  0  0  0  3  0  0  0  0  0  0
  -25.0340  -28.9180   19.9670 C   0  0  0  0  0  0  0  0  0  0  0  0
  -26.0570  -30.8100   21.2400 C   0  0  0  0  0  2  0  0  0  0  0  0
  -26.1790  -29.4550   20.5640 C   0  0  0  0  0  0  0  0  0  0  0  0
  -27.4060  -28.7460   20.5120 C   0  0  0  0  0  3  0  0  0  0  0  0
  -26.3110  -26.9390   19.3160 C   0  0  0  0  0  3  0  0  0  0  0  0
  -25.0970  -27.6600   19.3410 C   0  0  0  0  0  3  0  0  0  0  0  0
  -23.7660  -29.7470   20.0350 C   0  0  0  0  0  2  0  0  0  0  0  0
  -24.7890  -31.0000   21.9900 N   0  0  0  0  0  0  0  0  0  0  0  0
  -23.6250  -31.9880   23.6690 O   0  0  0  0  0  0  0  0  0  0  0  0
  -22.9220  -29.3130   22.3650 C   0  0  0  0  0  0  0  0  0  0  0  0
  -21.6010  -29.1050   22.2400 N   0  0  0  0  0  0  0  0  0  0  0  0
  -23.6250  -28.6760   23.1550 O   0  0  0  0  0  0  0  0  0  0  0  0
  -21.0970  -29.6770   21.5740 H   0  0  0  0  0  0  0  0  0  0  0  0
  -18.2550  -27.8100   22.7030 C   0  0  0  0  0  0  0  0  0  0  0  0
  -20.8090  -28.1210   22.9760 C   0  0  0  0  0  3  0  0  0  0  0  0
  -20.9440  -26.7140   22.3450 C   0  0  0  0  0  2  0  0  0  0  0  0
  -19.8430  -26.4060   21.3260 C   0  0  0  0  0  2  0  0  0  0  0  0
  -18.4620  -26.4900   21.9800 C   0  0  0  0  0  2  0  0  0  0  0  0
  -19.3570  -28.5830   23.1570 C   0  0  0  0  0  0  0  0  0  0  0  0
  -19.1100  -29.8190   23.7950 C   0  0  0  0  0  3  0  0  0  0  0  0
  -17.7940  -30.2800   23.9840 C   0  0  0  0  0  3  0  0  0  0  0  0
  -16.7060  -29.5050   23.5460 C   0  0  0  0  0  3  0  0  0  0  0  0
  -16.9400  -28.2710   22.9100 C   0  0  0  0  0  3  0  0  0  0  0  0
  -25.9810  -32.4100   23.7570 C   0  0  0  0  0  3  0  0  0  0  0  0
  -26.5250  -31.6120   25.0060 C   0  0  1  0  0  0  0  0  0  0  0  0
  -25.4430  -31.3100   26.0680 C   0  0  0  0  0  1  0  0  0  0  0  0
  -27.1380  -30.2640   24.5590 C   0  0  0  0  0  1  0  0  0  0  0  0
  -27.6610  -32.4120   25.6830 C   0  0  0  0  0  1  0  0  0  0  0  0
  -25.6380  -33.7900   24.1300 N   0  0  0  0  0  0  0  0  0  0  0  0
  -25.9290  -34.8720   23.3970 C   0  0  0  0  0  0  0  0  0  0  0  0
  -26.5870  -34.8160   22.3540 O   0  0  0  0  0  0  0  0  0  0  0  0
  -25.0570  -33.9040   24.9470 H   0  0  0  0  0  0  0  0  0  0  0  0
  -24.1380  -36.6160   23.1140 C   0  0  0  0  0  1  0  0  0  0  0  0
  -25.4060  -36.2340   23.8960 C   0  0  0  0  0  3  0  0  0  0  0  0
  -27.5260  -37.1650   24.7130 C   0  0  0  0  0  1  0  0  0  0  0  0
  -26.4040  -37.3210   23.7910 N   0  0  0  0  0  0  0  0  0  0  0  0
  -25.9750  -38.2260   23.9660 H   0  0  0  0  0  0  0  0  0  0  0  0
  1  4  1  0
  2  6  1  0
  3  1  2  0
  3  5  1  0
  4  9  1  0
  4  6  2  0
  5  2  2  0
  6 55  1  0
  7  3  1  0
  9  8  1  0
 11 14  1  0
 12 10  1  0
 13 11  1  0
 13 15  1  0
 14  9  1  0
 14 10  1  0
 15 24  1  0
 15 12  1  0
 16 24  1  0
 17 22  1  0
 18 19  1  0
 18 17  1  0
 20 19  1  0
 20 29  1  0
 20 21  1  0
 22 16  1  0
 22 21  1  0
 23 16  2  0
 24 25  1  0
 26 27  2  0
 27 46  1  0
 28 27  1  0
 28 31  1  0
 29 30  1  0
 29 26  1  0
 30 28  2  0
 31 32  1  0
 32 33  2  0
 34 37  1  0
 34 33  1  0
 35 34  2  0
 36 35  1  0
 36 31  2  0
 37 38  1  0
 38 43  2  0
 38 39  1  0
 39 40  2  0
 40 41  1  0
 41 45  1  0
 42 41  2  0
 43 42  1  0
 44 43  1  0
 46 47  1  0
 47 50  1  0
 47 49  1  0
 48 46  2  0
 51 26  1  0
 51 52  1  0
 53 51  1  0
 55 54  1  0
 56 58  1  0
 56  5  1  0
 57 68  2  0
 58 63  1  0
 59 67  1  0
 59 69  1  0
 60 66  1  0
 60 62  1  0
 61 67  1  0
 62 61  1  0
 63 62  2  0
 64 65  1  0
 64 58  2  0
 65 60  2  0
 66 59  1  0
 67 57  1  0
 69 71  2  0
 70 69  1  0
 72 70  1  0
 73 82  2  0
 73 78  1  0
 74 70  1  0
 74 78  1  0
 75 74  1  0
 76 77  1  0
 76 75  1  0
 77 73  1  0
 78 79  2  0
 79 80  1  0
 81 80  2  0
 82 81  1  0
 83 57  1  0
 83 88  1  0
 83 84  1  0
 84 87  1  1
 84 85  1  0
 86 84  1  0
 88 91  1  0
 89 93  1  0
 89 88  1  0
 90 89  2  0
 93 92  1  0
 95 93  1  0
 95 96  1  0
 95 94  1  0
M  ISO  4   5 101  16 100  24 100  56 101
M  END
>  <TORSDO>  (93) 
F 19

>  <SCORE>  (93) 
-12.407

>  <name>  (93) 
93

>  <ligand_id>  (93) 
93

>  <original_smiles>  (93) 
[H]c1c([H])c([H])c2c(c1[H])C([H])([H])C([H])([H])C([H])([H])C2([H])N([H])C(=O)C1([H])N(C(=O)C([H])(N([H])C(=O)C([H])(N([H])C([H])([H])[H])C([H])([H])[H])C(C([H])([H])[H])(C([H])([H])[H])C([H])([H])[H])C([H])([H])c2c([H])c(Oc3c([H])c(OC([H])([H])[H])c(C([H])(C([H])([H])[H])C4([H])C([H])([H])C([H])([H])C([H])(N([H])C(=O)N5C([H])([H])C([H])([H])C([H])([H])C([H])(n6nc(-c7c([H])c([H])c(Oc8c([H])c([H])c(F)c([H])c8F)c([H])c7[H])c(C(=O)N([H])[H])c6N([H])[H])C5([H])[H])C([H])([H])C4([H])[H])c([H])c3C([H])([H])[H])c([H])c([H])c2C1([H])[H]

>  <smiles>  (93) 
[H]c1c([H])c([H])c2c(c1[H])C([H])([H])C([H])([H])C([H])([H])C2([H])N([H])C(=O)C1([H])N(C(=O)C([H])(N([H])C(=O)C([H])(N([H])C([H])([H])[H])C([H])([H])[H])C(C([H])([H])[H])(C([H])([H])[H])C([H])([H])[H])C([H])([H])c2c([H])c(Oc3c([H])c(OC([H])([H])[H])c(C([H])(C([H])([H])[H])C4([H])C([H])([H])C([H])([H])C([H])(N([H])C(=O)N5C([H])([H])C([H])([H])C([H])([H])C([H])(n6nc(-c7c([H])c([H])c(Oc8c([H])c([H])c(F)c([H])c8F)c([H])c7[H])c(C(=O)N([H])[H])c6N([H])[H])C5([H])[H])C([H])([H])C4([H])[H])c([H])c3C([H])([H])[H])c([H])c([H])c2C1([H])[H]

$$$$
94:0:0
     RDKit          3D

100103  0  0  1  0  0  0  0  0999 V2000
  -21.6270  -31.0510   22.4600 C   0  0  0  0  0  3  0  0  0  0  0  0
  -21.5660  -30.9890   20.8840 C   0  0  0  0  0  2  0  0  0  0  0  0
  -20.0660  -29.5430   21.0910 C   0  0  0  0  0  2  0  0  0  0  0  0
  -20.1100  -30.1460   22.4560 C   0  0  1  0  0  0  0  0  0  0  0  0
  -21.3600  -29.9550   23.4770 C   0  0  0  0  0  2  0  0  0  0  0  0
  -21.2060  -29.7260   20.2550 C   0  0  0  0  0  3  0  0  0  0  0  0
  -17.5180  -31.0440   21.7600 C   0  0  0  0  0  2  0  0  0  0  0  0
  -18.3430  -32.1040   21.1970 C   0  0  0  0  0  2  0  0  0  0  0  0
  -18.9180  -31.2680   22.4020 C   0  0  0  0  0  3  0  0  0  0  0  0
  -21.9890  -28.6900   19.4230 O   0  0  0  0  0  0  0  0  0  0  0  0
  -22.8510  -27.2700   19.6690 C   0  0  0  0  0  2  0  0  0  0  0  0
  -24.4560  -26.4040   19.9660 C   0  0  0  0  0  2  0  0  0  0  0  0
  -26.0240  -26.5140   20.5140 O   0  0  0  0  0  0  0  0  0  0  0  0
  -24.7870  -31.7720   23.2430 C   0  0  0  0  0  0  0  0  0  0  0  0
  -27.0050  -27.3020   19.9500 C   0  0  0  0  0  3  0  0  0  0  0  0
  -23.9220  -30.1830   21.4100 C   0  0  0  0  0  3  0  0  0  0  0  0
  -25.2960  -29.2750   19.7170 C   0  0  0  0  0  0  0  0  0  0  0  0
  -26.2740  -30.6560   21.5690 C   0  0  0  0  0  2  0  0  0  0  0  0
  -26.3200  -29.4480   20.6560 C   0  0  0  0  0  3  0  0  0  0  0  0
  -27.2660  -28.4210   20.7540 C   0  0  0  0  0  2  0  0  0  0  0  0
  -26.4750  -27.4870   18.7030 C   0  0  0  0  0  2  0  0  0  0  0  0
  -25.4000  -28.3920   18.6540 C   0  0  0  0  0  3  0  0  0  0  0  0
  -24.1840  -30.1590   19.8910 C   0  0  0  0  0  2  0  0  0  0  0  0
  -24.9760  -30.8790   22.1860 N   0  0  0  0  0  0  0  0  0  0  0  0
  -23.6990  -32.0840   23.7530 O   0  0  0  0  0  0  0  0  0  0  0  0
  -23.3420  -28.7780   22.0510 C   0  0  0  0  0  0  0  0  0  0  0  0
  -21.9920  -28.1190   22.0320 N   0  0  0  0  0  0  0  0  0  0  0  0
  -24.2590  -28.3370   22.7490 O   0  0  0  0  0  0  0  0  0  0  0  0
  -21.5350  -28.5780   21.2540 H   0  0  0  0  0  0  0  0  0  0  0  0
  -17.9370  -27.7830   22.8920 C   0  0  0  0  0  0  0  0  0  0  0  0
  -20.6480  -27.4690   22.9180 C   0  0  0  0  0  3  0  0  0  0  0  0
  -20.3990  -26.1810   22.2520 C   0  0  0  0  0  2  0  0  0  0  0  0
  -19.2530  -26.2960   21.2970 C   0  0  0  0  0  2  0  0  0  0  0  0
  -17.9420  -26.5420   22.0560 C   0  0  0  0  0  2  0  0  0  0  0  0
  -19.1520  -28.1140   23.5300 C   0  0  0  0  0  0  0  0  0  0  0  0
  -18.9360  -29.1740   24.5320 C   0  0  0  0  0  3  0  0  0  0  0  0
  -17.7630  -30.0050   24.6130 C   0  0  0  0  0  3  0  0  0  0  0  0
  -16.5790  -29.5720   23.9830 C   0  0  0  0  0  3  0  0  0  0  0  0
  -16.6930  -28.4700   23.1230 C   0  0  0  0  0  3  0  0  0  0  0  0
  -26.0040  -32.4430   23.8990 C   0  0  0  0  0  3  0  0  0  0  0  0
  -26.5120  -31.6510   25.1650 C   0  0  1  0  0  0  0  0  0  0  0  0
  -25.4100  -31.4030   26.2150 C   0  0  0  0  0  1  0  0  0  0  0  0
  -27.1280  -30.2730   24.8130 C   0  0  0  0  0  1  0  0  0  0  0  0
  -27.6420  -32.4410   25.8460 C   0  0  0  0  0  1  0  0  0  0  0  0
  -25.6260  -33.8260   24.2530 N   0  0  0  0  0  0  0  0  0  0  0  0
  -25.9120  -34.9160   23.5150 C   0  0  0  0  0  0  0  0  0  0  0  0
  -26.5600  -34.8590   22.4700 O   0  0  0  0  0  0  0  0  0  0  0  0
  -25.0900  -33.9410   25.0990 H   0  0  0  0  0  0  0  0  0  0  0  0
  -24.1490  -36.7160   23.2610 C   0  0  0  0  0  1  0  0  0  0  0  0
  -25.4100  -36.2810   24.0300 C   0  0  0  0  0  3  0  0  0  0  0  0
  -27.5530  -37.1820   24.8490 C   0  0  0  0  0  1  0  0  0  0  0  0
  -26.4260  -37.3550   23.9320 N   0  0  0  0  0  0  0  0  0  0  0  0
  -26.0100  -38.2570   24.1420 H   0  0  0  0  0  0  0  0  0  0  0  0
  -22.4760  -28.3100   24.4210 C   0  0  0  0  0 15  0  0  0  0  0  0
  -23.3230  -26.1660   24.0180 C   0  0  0  0  0 15  0  0  0  0  0  0
  -24.5700  -24.8130   23.2030 N   0  0  0  0  0  2  0  0  0  0  0  0
  -25.4640  -25.2990   23.2660 H   0  0  0  0  0  0  0  0  0  0  0  0
  -24.3540  -24.9510   22.2330 H   0  0  0  0  0  0  0  0  0  0  0  0
  -25.1690  -22.8960   23.0640 C   0  0  0  0  0 15  0  0  0  0  0  0
  -27.8780  -22.1340   22.4970 C   0  0  0  0  0  1  0  0  0  0  0  0
  -26.5950  -21.3210   22.2330 C   0  0  0  0  0  1  0  0  0  0  0  0
  -27.3140  -19.1510   21.9820 C   0  0  0  0  0 15  0  0  0  0  0  0
  -29.4950  -16.2350   20.9110 C   0  0  0  0  0  0  0  0  0  0  0  0
  -30.2140  -13.6660   19.8120 C   0  0  0  0  0  2  0  0  0  0  0  0
  -29.5530  -12.9500   18.5550 C   0  0  0  0  0  2  0  0  0  0  0  0
  -28.1850  -12.3640   18.9000 C   0  0  0  0  0  2  0  0  0  0  0  0
  -27.5060  -13.3350   19.8780 C   0  0  0  0  0  3  0  0  0  0  0  0
  -28.3440  -13.7520   21.1080 C   0  0  0  0  0  2  0  0  0  0  0  0
  -29.3080  -14.7370   20.6130 N   0  0  0  0  0  0  0  0  0  0  0  0
  -30.7450  -16.2130   20.6260 O   0  0  0  0  0  0  0  0  0  0  0  0
  -28.6460  -17.7360   21.2840 N   0  0  0  0  0  2  0  0  0  0  0  0
  -29.4190  -18.3610   21.0530 H   0  0  0  0  0  0  0  0  0  0  0  0
  -25.1780  -13.8270   20.5730 C   0  0  0  0  0  0  0  0  0  0  0  0
  -24.1330  -13.0340   20.9220 C   0  0  0  0  0  0  0  0  0  0  0  0
  -24.6140  -11.6880   20.8810 C   0  0  0  0  0  0  0  0  0  0  0  0
  -26.2010  -12.9540   20.2990 N   0  0  0  0  0  0  0  0  0  0  0  0
  -25.9020  -11.6620   20.5610 N   0  0  0  0  0  0  0  0  0  0  0  0
  -23.8960  -10.4240   21.0400 C   0  0  0  0  0  0  0  0  0  0  0  0
  -24.3560   -9.4190   21.9210 C   0  0  0  0  0  3  0  0  0  0  0  0
  -23.6270   -8.2190   22.0760 C   0  0  0  0  0  3  0  0  0  0  0  0
  -22.4240   -8.0230   21.3540 C   0  0  0  0  0  0  0  0  0  0  0  0
  -21.9850   -9.0180   20.4640 C   0  0  0  0  0  3  0  0  0  0  0  0
  -22.7130  -10.2070   20.3060 C   0  0  0  0  0  3  0  0  0  0  0  0
  -21.6600   -6.8850   21.4240 O   0  0  0  0  0  0  0  0  0  0  0  0
  -21.6860   -6.0740   22.5300 C   0  0  0  0  0  0  0  0  0  0  0  0
  -21.4000   -6.5640   23.8240 C   0  0  0  0  0  3  0  0  0  0  0  0
  -21.3650   -5.6770   24.9190 C   0  0  0  0  0  3  0  0  0  0  0  0
  -21.6040   -4.3040   24.7230 C   0  0  0  0  0  0  0  0  0  0  0  0
  -21.8820   -3.8160   23.4340 C   0  0  0  0  0  3  0  0  0  0  0  0
  -21.9170   -4.6980   22.3400 C   0  0  0  0  0  0  0  0  0  0  0  0
  -22.1660   -4.2150   21.1000 F   0  0  0  0  0  0  0  0  0  0  0  0
  -21.5610   -3.4550   25.7760 F   0  0  0  0  0  0  0  0  0  0  0  0
  -22.7380  -13.5080   21.1930 C   0  0  0  0  0  0  0  0  0  0  0  0
  -22.0100  -12.8110   22.0560 N   0  0  0  0  0  0  0  0  0  0  0  0
  -22.3070  -14.5370   20.6750 O   0  0  0  0  0  0  0  0  0  0  0  0
  -22.3740  -11.9710   22.4890 H   0  0  0  0  0  0  0  0  0  0  0  0
  -21.0760  -13.1170   22.2870 H   0  0  0  0  0  0  0  0  0  0  0  0
  -25.3430  -15.2030   20.4270 N   0  0  0  0  0  0  0  0  0  0  0  0
  -24.5760  -15.8510   20.5400 H   0  0  0  0  0  0  0  0  0  0  0  0
  -26.1780  -15.6420   20.0690 H   0  0  0  0  0  0  0  0  0  0  0  0
  1  2  1  0
  1  5  1  0
  3  4  1  0
  4  9  1  1
  4  1  1  0
  4  5  1  0
  6 10  1  0
  6  2  1  0
  6  3  1  0
  7  9  1  0
  8  7  1  0
  8  9  1  0
 10 11  1  0
 11 12  1  0
 12 13  1  0
 14 25  2  0
 15 13  1  0
 15 20  1  0
 16 26  1  0
 16 24  1  0
 17 23  1  0
 17 19  1  0
 18 24  1  0
 19 20  1  0
 19 18  1  0
 21 15  1  0
 22 21  1  0
 22 17  2  0
 23 16  1  0
 24 14  1  0
 26 28  2  0
 27 26  1  0
 29 27  1  0
 30 39  2  0
 30 35  1  0
 31 27  1  0
 31 35  1  0
 32 31  1  0
 33 34  1  0
 33 32  1  0
 34 30  1  0
 35 36  2  0
 36 37  1  0
 38 37  2  0
 39 38  1  0
 40 14  1  0
 40 45  1  0
 40 41  1  0
 41 44  1  1
 41 42  1  0
 43 41  1  0
 45 48  1  0
 46 50  1  0
 46 45  1  0
 47 46  2  0
 50 49  1  0
 52 50  1  0
 52 53  1  0
 52 51  1  0
 56 57  1  0
 58 56  1  0
 61 60  1  0
 63 71  1  0
 64 69  1  0
 65 66  1  0
 65 64  1  0
 67 66  1  0
 67 76  1  0
 67 68  1  0
 69 63  1  0
 69 68  1  0
 70 63  2  0
 72 71  1  0
 73 74  2  0
 74 93  1  0
 75 74  1  0
 75 78  1  0
 76 77  1  0
 76 73  1  0
 77 75  2  0
 78 79  1  0
 79 80  2  0
 81 84  1  0
 81 80  1  0
 82 81  2  0
 83 82  1  0
 83 78  2  0
 84 85  1  0
 85 86  1  0
 86 87  2  0
 88 87  1  0
 88 92  1  0
 89 88  2  0
 90 85  2  0
 90 89  1  0
 91 90  1  0
 93 94  1  0
 94 97  1  0
 94 96  1  0
 95 93  2  0
 98 99  1  0
 98 73  1  0
100 98  1  0
M  ISO  4  12 101  13 101  63 100  71 100
M  END
>  <TORSDO>  (94) 
F 26

>  <SCORE>  (94) 
35.075

>  <name>  (94) 
94

>  <ligand_id>  (94) 
94

>  <original_smiles>  (94) 
[H]c1c([H])c([H])c2c(c1[H])C([H])([H])C([H])([H])C([H])([H])C2([H])N([H])C(=O)C1([H])N(C(=O)C([H])(N([H])C(=O)C([H])(N([H])C([H])([H])[H])C([H])([H])[H])C(C([H])([H])[H])(C([H])([H])[H])C([H])([H])[H])C([H])([H])c2c([H])c(OC([H])([H])C([H])([H])Oc3c([H])c([H])c(C([H])([H])C([H])([H])[N+]([H])([H])C([H])([H])C([H])(C([H])([H])[H])C([H])([H])N([H])C(=O)N4C([H])([H])C([H])([H])C([H])([H])C([H])(n5nc(-c6c([H])c([H])c(Oc7c([H])c([H])c(F)c([H])c7F)c([H])c6[H])c(C(=O)N([H])[H])c5N([H])[H])C4([H])[H])c(C4([H])C([H])([H])C4([H])[H])c3[H])c([H])c([H])c2C1([H])[H]

>  <smiles>  (94) 
[H]c1c([H])c([H])c2c(c1[H])C([H])([H])C([H])([H])C([H])([H])C2([H])N([H])C(=O)C1([H])N(C(=O)C([H])(N([H])C(=O)C([H])(N([H])C([H])([H])[H])C([H])([H])[H])C(C([H])([H])[H])(C([H])([H])[H])C([H])([H])[H])C([H])([H])c2c([H])c(OC([H])([H])C([H])([H])Oc3c([H])c([H])c(C([H])([H])C([H])([H])[N+]([H])([H])C([H])([H])C([H])(C([H])([H])[H])C([H])([H])N([H])C(=O)N4C([H])([H])C([H])([H])C([H])([H])C([H])(n5nc(-c6c([H])c([H])c(Oc7c([H])c([H])c(F)c([H])c7F)c([H])c6[H])c(C(=O)N([H])[H])c5N([H])[H])C4([H])[H])c(C4([H])C([H])([H])C4([H])[H])c3[H])c([H])c([H])c2C1([H])[H]

$$$$
95:0:0
     RDKit          3D

 93102  0  0  1  0  0  0  0  0999 V2000
  -28.0640  -21.4240   20.6450 C   0  0  0  0  0  3  0  0  0  0  0  0
  -30.4640  -21.2640   20.5550 C   0  0  0  0  0  3  0  0  0  0  0  0
  -29.4060  -23.4650   21.0380 C   0  0  0  0  0  0  0  0  0  0  0  0
  -28.1470  -22.8120   20.9430 C   0  0  0  0  0  0  0  0  0  0  0  0
  -30.5630  -22.6580   20.8180 C   0  0  0  0  0  0  0  0  0  0  0  0
  -29.2130  -20.6180   20.4830 C   0  0  0  0  0  0  0  0  0  0  0  0
  -26.8590  -23.5750   21.1870 C   0  0  0  0  0  1  0  0  0  0  0  0
  -31.9560  -23.2670   20.8900 C   0  0  0  0  0  1  0  0  0  0  0  0
  -30.3980  -25.9360   20.8200 C   0  0  0  0  0  2  0  0  0  0  0  0
  -29.5710  -24.9090   21.5580 C   0  0  0  0  0  3  0  0  0  0  0  0
  -28.9660  -26.2840   21.1510 C   0  0  0  0  0  3  0  0  0  0  0  0
  -28.3200  -26.5940   19.9080 O   0  0  0  0  0  0  0  0  0  0  0  0
  -24.6490  -31.8480   23.1830 C   0  0  0  0  0  0  0  0  0  0  0  0
  -27.2140  -27.4240   19.9810 C   0  0  0  0  0  0  0  0  0  0  0  0
  -23.4090  -30.4810   21.5400 C   0  0  0  0  0  3  0  0  0  0  0  0
  -24.8330  -28.9640   20.0570 C   0  0  0  0  0  0  0  0  0  0  0  0
  -25.9330  -30.8250   21.3040 C   0  0  0  0  0  2  0  0  0  0  0  0
  -26.0040  -29.4620   20.6420 C   0  0  0  0  0  0  0  0  0  0  0  0
  -27.1990  -28.6980   20.6110 C   0  0  0  0  0  3  0  0  0  0  0  0
  -26.0330  -26.9630   19.3650 C   0  0  0  0  0  3  0  0  0  0  0  0
  -24.8430  -27.7140   19.4150 C   0  0  0  0  0  3  0  0  0  0  0  0
  -23.5920  -29.8260   20.1440 C   0  0  0  0  0  2  0  0  0  0  0  0
  -24.6830  -31.0670   22.0670 N   0  0  0  0  0  0  0  0  0  0  0  0
  -23.5780  -32.1150   23.7470 O   0  0  0  0  0  0  0  0  0  0  0  0
  -22.7710  -29.4450   22.4950 C   0  0  0  0  0  0  0  0  0  0  0  0
  -21.4440  -29.2650   22.3830 N   0  0  0  0  0  0  0  0  0  0  0  0
  -23.4650  -28.8070   23.2890 O   0  0  0  0  0  0  0  0  0  0  0  0
  -20.9460  -29.8310   21.7120 H   0  0  0  0  0  0  0  0  0  0  0  0
  -18.0790  -28.0460   22.8950 C   0  0  0  0  0  0  0  0  0  0  0  0
  -20.6380  -28.3150   23.1500 C   0  0  0  0  0  3  0  0  0  0  0  0
  -20.7420  -26.8910   22.5550 C   0  0  0  0  0  2  0  0  0  0  0  0
  -19.6330  -26.5740   21.5460 C   0  0  0  0  0  2  0  0  0  0  0  0
  -18.2560  -26.7060   22.2030 C   0  0  0  0  0  2  0  0  0  0  0  0
  -19.1980  -28.8080   23.3250 C   0  0  0  0  0  0  0  0  0  0  0  0
  -18.9780  -30.0640   23.9330 C   0  0  0  0  0  3  0  0  0  0  0  0
  -17.6740  -30.5580   24.1130 C   0  0  0  0  0  3  0  0  0  0  0  0
  -16.5690  -29.7940   23.6990 C   0  0  0  0  0  3  0  0  0  0  0  0
  -16.7730  -28.5390   23.0970 C   0  0  0  0  0  3  0  0  0  0  0  0
  -25.9480  -32.4630   23.7900 C   0  0  0  0  0  3  0  0  0  0  0  0
  -26.4940  -31.6580   25.0330 C   0  0  1  0  0  0  0  0  0  0  0  0
  -25.4250  -31.3910   26.1170 C   0  0  0  0  0  1  0  0  0  0  0  0
  -27.0690  -30.2930   24.5890 C   0  0  0  0  0  1  0  0  0  0  0  0
  -27.6590  -32.4360   25.6900 C   0  0  0  0  0  1  0  0  0  0  0  0
  -25.6460  -33.8510   24.1640 N   0  0  0  0  0  0  0  0  0  0  0  0
  -25.9520  -34.9220   23.4180 C   0  0  0  0  0  0  0  0  0  0  0  0
  -26.5890  -34.8450   22.3640 O   0  0  0  0  0  0  0  0  0  0  0  0
  -25.0710  -33.9860   24.9810 H   0  0  0  0  0  0  0  0  0  0  0  0
  -24.2060  -36.7140   23.1610 C   0  0  0  0  0  1  0  0  0  0  0  0
  -25.4750  -36.2980   23.9220 C   0  0  0  0  0  3  0  0  0  0  0  0
  -27.6310  -37.1720   24.7040 C   0  0  0  0  0  1  0  0  0  0  0  0
  -26.5010  -37.3560   23.8000 N   0  0  0  0  0  0  0  0  0  0  0  0
  -26.0960  -38.2720   23.9780 H   0  0  0  0  0  0  0  0  0  0  0  0
  -29.0600  -19.2680   20.1710 O   0  0  0  0  0  0  0  0  0  0  0  0
  -29.7800  -18.2490   20.9070 C   0  0  0  0  0  2  0  0  0  0  0  0
  -30.1920  -17.0490   19.9860 C   0  0  0  0  0  2  0  0  0  0  0  0
  -30.6570  -14.5790   20.0900 C   0  0  0  0  0  0  0  0  0  0  0  0
  -30.3030  -12.4010   18.9840 C   0  0  0  0  0  2  0  0  0  0  0  0
  -29.3100  -12.6030   17.8200 C   0  0  0  0  0  2  0  0  0  0  0  0
  -27.8570  -12.4670   18.3150 C   0  0  0  0  0  2  0  0  0  0  0  0
  -27.5780  -13.2980   19.5980 C   0  0  0  0  0  3  0  0  0  0  0  0
  -28.6870  -13.0990   20.6580 C   0  0  0  0  0  2  0  0  0  0  0  0
  -29.9800  -13.3970   20.0240 N   0  0  0  0  0  0  0  0  0  0  0  0
  -31.7790  -14.7220   19.6010 O   0  0  0  0  0  0  0  0  0  0  0  0
  -29.9500  -15.6660   20.4900 N   0  0  0  0  0  0  0  0  0  0  0  0
  -29.0480  -15.4800   20.9030 H   0  0  0  0  0  0  0  0  0  0  0  0
  -25.2160  -13.9000   20.4140 C   0  0  0  0  0  0  0  0  0  0  0  0
  -24.1650  -13.1270   20.8270 C   0  0  0  0  0  0  0  0  0  0  0  0
  -24.6230  -11.7750   20.7730 C   0  0  0  0  0  0  0  0  0  0  0  0
  -26.2500  -13.0190   20.1360 N   0  0  0  0  0  0  0  0  0  0  0  0
  -25.8990  -11.7360   20.4100 N   0  0  0  0  0  0  0  0  0  0  0  0
  -23.9020  -10.5130   20.9920 C   0  0  0  0  0  0  0  0  0  0  0  0
  -24.3660   -9.5490   21.9130 C   0  0  0  0  0  3  0  0  0  0  0  0
  -23.6460   -8.3520   22.1200 C   0  0  0  0  0  3  0  0  0  0  0  0
  -22.4490   -8.1120   21.4050 C   0  0  0  0  0  0  0  0  0  0  0  0
  -22.0030   -9.0650   20.4720 C   0  0  0  0  0  3  0  0  0  0  0  0
  -22.7240  -10.2530   20.2640 C   0  0  0  0  0  3  0  0  0  0  0  0
  -21.6980   -6.9670   21.5220 O   0  0  0  0  0  0  0  0  0  0  0  0
  -21.6780   -6.2330   22.6800 C   0  0  0  0  0  0  0  0  0  0  0  0
  -21.2660   -6.7910   23.9090 C   0  0  0  0  0  3  0  0  0  0  0  0
  -21.1970   -5.9840   25.0620 C   0  0  0  0  0  3  0  0  0  0  0  0
  -21.5290   -4.6180   24.9860 C   0  0  0  0  0  0  0  0  0  0  0  0
  -21.9350   -4.0580   23.7620 C   0  0  0  0  0  3  0  0  0  0  0  0
  -22.0060   -4.8640   22.6120 C   0  0  0  0  0  0  0  0  0  0  0  0
  -22.3770   -4.3150   21.4300 F   0  0  0  0  0  0  0  0  0  0  0  0
  -21.4540   -3.8390   26.0910 F   0  0  0  0  0  0  0  0  0  0  0  0
  -22.7820  -13.6050   21.1610 C   0  0  0  0  0  0  0  0  0  0  0  0
  -22.0910  -12.9060   22.0550 N   0  0  0  0  0  0  0  0  0  0  0  0
  -22.3230  -14.6330   20.6650 O   0  0  0  0  0  0  0  0  0  0  0  0
  -22.4770  -12.0720   22.4740 H   0  0  0  0  0  0  0  0  0  0  0  0
  -21.1640  -13.2060   22.3230 H   0  0  0  0  0  0  0  0  0  0  0  0
  -25.3720  -15.2720   20.2320 N   0  0  0  0  0  0  0  0  0  0  0  0
  -24.6070  -15.9220   20.3690 H   0  0  0  0  0  0  0  0  0  0  0  0
  -26.2010  -15.7120   19.8520 H   0  0  0  0  0  0  0  0  0  0  0  0
  1  4  1  0
  2  5  2  0
  4  3  2  0
  4  7  1  0
  5  8  1  0
  5  3  1  0
  6  2  1  0
  6  1  2  0
  9 11  1  0
  9 10  1  0
 10  3  1  0
 11 12  1  0
 11 10  1  0
 12 14  1  0
 13 24  2  0
 14 19  1  0
 15 23  1  0
 15 25  1  0
 16 22  1  0
 16 18  1  0
 17 23  1  0
 18 17  1  0
 19 18  2  0
 20 21  1  0
 20 14  2  0
 21 16  2  0
 22 15  1  0
 23 13  1  0
 25 27  2  0
 26 25  1  0
 28 26  1  0
 29 38  2  0
 29 34  1  0
 30 26  1  0
 30 34  1  0
 31 30  1  0
 32 33  1  0
 32 31  1  0
 33 29  1  0
 34 35  2  0
 35 36  1  0
 37 36  2  0
 38 37  1  0
 39 13  1  0
 39 44  1  0
 39 40  1  0
 40 43  1  1
 40 41  1  0
 42 40  1  0
 44 47  1  0
 45 49  1  0
 45 44  1  0
 46 45  2  0
 49 48  1  0
 51 49  1  0
 51 52  1  0
 51 50  1  0
 53  6  1  0
 53 54  1  0
 55 64  1  0
 55 54  1  0
 56 64  1  0
 57 62  1  0
 58 59  1  0
 58 57  1  0
 60 59  1  0
 60 69  1  0
 60 61  1  0
 62 56  1  0
 62 61  1  0
 63 56  2  0
 64 65  1  0
 66 67  2  0
 67 86  1  0
 68 67  1  0
 68 71  1  0
 69 70  1  0
 69 66  1  0
 70 68  2  0
 71 72  1  0
 72 73  2  0
 74 77  1  0
 74 73  1  0
 75 74  2  0
 76 75  1  0
 76 71  2  0
 77 78  1  0
 78 79  1  0
 79 80  2  0
 81 80  1  0
 81 85  1  0
 82 81  2  0
 83 78  2  0
 83 82  1  0
 84 83  1  0
 86 87  1  0
 87 90  1  0
 87 89  1  0
 88 86  2  0
 91 92  1  0
 91 66  1  0
 93 91  1  0
M  ISO  4  11 101  12 101  56 100  64 100
M  END
>  <TORSDO>  (95) 
F 20

>  <SCORE>  (95) 
-13.697

>  <name>  (95) 
95

>  <ligand_id>  (95) 
95

>  <original_smiles>  (95) 
[H]c1c([H])c([H])c2c(c1[H])C([H])([H])C([H])([H])C([H])([H])C2([H])N([H])C(=O)C1([H])N(C(=O)C([H])(N([H])C(=O)C([H])(N([H])C([H])([H])[H])C([H])([H])[H])C(C([H])([H])[H])(C([H])([H])[H])C([H])([H])[H])C([H])([H])c2c([H])c(OC3([H])C([H])([H])C3([H])c3c(C([H])([H])[H])c([H])c(OC([H])([H])C([H])([H])N([H])C(=O)N4C([H])([H])C([H])([H])C([H])([H])C([H])(n5nc(-c6c([H])c([H])c(Oc7c([H])c([H])c(F)c([H])c7F)c([H])c6[H])c(C(=O)N([H])[H])c5N([H])[H])C4([H])[H])c([H])c3C([H])([H])[H])c([H])c([H])c2C1([H])[H]

>  <smiles>  (95) 
[H]c1c([H])c([H])c2c(c1[H])C([H])([H])C([H])([H])C([H])([H])C2([H])N([H])C(=O)C1([H])N(C(=O)C([H])(N([H])C(=O)C([H])(N([H])C([H])([H])[H])C([H])([H])[H])C(C([H])([H])[H])(C([H])([H])[H])C([H])([H])[H])C([H])([H])c2c([H])c(OC3([H])C([H])([H])C3([H])c3c(C([H])([H])[H])c([H])c(OC([H])([H])C([H])([H])N([H])C(=O)N4C([H])([H])C([H])([H])C([H])([H])C([H])(n5nc(-c6c([H])c([H])c(Oc7c([H])c([H])c(F)c([H])c7F)c([H])c6[H])c(C(=O)N([H])[H])c5N([H])[H])C4([H])[H])c([H])c3C([H])([H])[H])c([H])c([H])c2C1([H])[H]

$$$$
96:0:0
     RDKit          3D

 95104  0  0  1  0  0  0  0  0999 V2000
  -28.9010  -22.1760   20.0160 C   0  0  0  0  0  3  0  0  0  0  0  0
  -30.3790  -24.1070   19.8010 C   0  0  0  0  0  3  0  0  0  0  0  0
  -29.9950  -21.1940   19.8720 C   0  0  0  0  0  0  0  0  0  0  0  0
  -29.0680  -23.6490   19.9670 C   0  0  0  0  0  0  0  0  0  0  0  0
  -31.2760  -21.8070   19.6430 C   0  0  0  0  0  0  0  0  0  0  0  0
  -31.4670  -23.2210   19.6310 C   0  0  0  0  0  0  0  0  0  0  0  0
  -32.5260  -20.9700   19.3450 C   0  0  0  0  0  1  0  0  0  0  0  0
  -30.6980  -14.9980   20.1830 C   0  0  0  0  0  0  0  0  0  0  0  0
  -30.5060  -12.6200   19.3750 C   0  0  0  0  0  2  0  0  0  0  0  0
  -29.5800  -12.5260   18.1440 C   0  0  0  0  0  2  0  0  0  0  0  0
  -28.1210  -12.3320   18.5960 C   0  0  0  0  0  2  0  0  0  0  0  0
  -27.7090  -13.3200   19.7190 C   0  0  0  0  0  3  0  0  0  0  0  0
  -28.7670  -13.4240   20.8360 C   0  0  0  0  0  2  0  0  0  0  0  0
  -30.0390  -13.7740   20.1940 N   0  0  0  0  0  0  0  0  0  0  0  0
  -31.9040  -14.9740   19.9140 O   0  0  0  0  0  0  0  0  0  0  0  0
  -30.1980  -18.7920   21.2430 C   0  0  0  0  0  3  0  0  0  0  0  0
  -28.9590  -18.5530   19.2330 C   0  0  0  0  0  3  0  0  0  0  0  0
  -30.7760  -17.3090   21.1330 C   0  0  0  0  0  2  0  0  0  0  0  0
  -29.4090  -16.9850   19.1570 C   0  0  0  0  0  3  0  0  0  0  0  0
  -29.9900  -19.5360   19.8860 C   0  0  0  0  0  0  0  0  0  0  0  0
  -30.0510  -16.2580   20.3300 N   0  0  0  0  0  0  0  0  0  0  0  0
  -25.3450  -13.9090   20.5100 C   0  0  0  0  0  0  0  0  0  0  0  0
  -24.2790  -13.1390   20.8850 C   0  0  0  0  0  0  0  0  0  0  0  0
  -24.7330  -11.7850   20.8360 C   0  0  0  0  0  0  0  0  0  0  0  0
  -26.3770  -13.0270   20.2440 N   0  0  0  0  0  0  0  0  0  0  0  0
  -26.0200  -11.7420   20.5080 N   0  0  0  0  0  0  0  0  0  0  0  0
  -24.0010  -10.5250   21.0250 C   0  0  0  0  0  0  0  0  0  0  0  0
  -24.4350   -9.5480   21.9490 C   0  0  0  0  0  3  0  0  0  0  0  0
  -23.6990   -8.3560   22.1270 C   0  0  0  0  0  3  0  0  0  0  0  0
  -22.5180   -8.1310   21.3820 C   0  0  0  0  0  0  0  0  0  0  0  0
  -22.1030   -9.0970   20.4480 C   0  0  0  0  0  3  0  0  0  0  0  0
  -22.8390  -10.2790   20.2670 C   0  0  0  0  0  3  0  0  0  0  0  0
  -21.7540   -6.9920   21.4700 O   0  0  0  0  0  0  0  0  0  0  0  0
  -21.6960   -6.2510   22.6220 C   0  0  0  0  0  0  0  0  0  0  0  0
  -21.2740   -6.8110   23.8480 C   0  0  0  0  0  3  0  0  0  0  0  0
  -21.1650   -5.9970   24.9930 C   0  0  0  0  0  3  0  0  0  0  0  0
  -21.4670   -4.6240   24.9130 C   0  0  0  0  0  0  0  0  0  0  0  0
  -21.8840   -4.0650   23.6940 C   0  0  0  0  0  3  0  0  0  0  0  0
  -21.9950   -4.8760   22.5510 C   0  0  0  0  0  0  0  0  0  0  0  0
  -22.3770   -4.3280   21.3730 F   0  0  0  0  0  0  0  0  0  0  0  0
  -21.3540   -3.8410   26.0110 F   0  0  0  0  0  0  0  0  0  0  0  0
  -22.8890  -13.6240   21.1760 C   0  0  0  0  0  0  0  0  0  0  0  0
  -22.1690  -12.9340   22.0540 N   0  0  0  0  0  0  0  0  0  0  0  0
  -22.4500  -14.6530   20.6620 O   0  0  0  0  0  0  0  0  0  0  0  0
  -22.5390  -12.1060   22.4980 H   0  0  0  0  0  0  0  0  0  0  0  0
  -21.2400  -13.2430   22.2960 H   0  0  0  0  0  0  0  0  0  0  0  0
  -25.5200  -15.2800   20.3450 N   0  0  0  0  0  0  0  0  0  0  0  0
  -24.7670  -15.9450   20.4850 H   0  0  0  0  0  0  0  0  0  0  0  0
  -26.3810  -15.7150   20.0380 H   0  0  0  0  0  0  0  0  0  0  0  0
  -27.9260  -24.7950   20.0440 C   0  0  0  0  0  2  0  0  0  0  0  0
  -28.2220  -26.3070   20.1120 O   0  0  0  0  0  0  0  0  0  0  0  0
  -24.6230  -31.8980   23.2180 C   0  0  0  0  0  0  0  0  0  0  0  0
  -27.1500  -27.2580   20.0790 C   0  0  0  0  0  0  0  0  0  0  0  0
  -23.3910  -30.5220   21.5860 C   0  0  0  0  0  3  0  0  0  0  0  0
  -24.8130  -28.9710   20.1180 C   0  0  0  0  0  0  0  0  0  0  0  0
  -25.9410  -30.8000   21.3750 C   0  0  0  0  0  2  0  0  0  0  0  0
  -26.0030  -29.4220   20.7030 C   0  0  0  0  0  0  0  0  0  0  0  0
  -27.1740  -28.5820   20.6640 C   0  0  0  0  0  3  0  0  0  0  0  0
  -25.9290  -26.8970   19.4680 C   0  0  0  0  0  3  0  0  0  0  0  0
  -24.7850  -27.7200   19.4860 C   0  0  0  0  0  3  0  0  0  0  0  0
  -23.5840  -29.8630   20.1960 C   0  0  0  0  0  2  0  0  0  0  0  0
  -24.6720  -31.0930   22.1150 N   0  0  0  0  0  0  0  0  0  0  0  0
  -23.5470  -32.1750   23.7700 O   0  0  0  0  0  0  0  0  0  0  0  0
  -22.7350  -29.5000   22.5480 C   0  0  0  0  0  0  0  0  0  0  0  0
  -21.4070  -29.3170   22.4320 N   0  0  0  0  0  0  0  0  0  0  0  0
  -23.4200  -28.8740   23.3590 O   0  0  0  0  0  0  0  0  0  0  0  0
  -20.9080  -29.8730   21.7520 H   0  0  0  0  0  0  0  0  0  0  0  0
  -18.0460  -28.0680   22.9400 C   0  0  0  0  0  0  0  0  0  0  0  0
  -20.6000  -28.3700   23.2080 C   0  0  0  0  0  3  0  0  0  0  0  0
  -20.7240  -26.9370   22.6410 C   0  0  0  0  0  2  0  0  0  0  0  0
  -19.6290  -26.5930   21.6270 C   0  0  0  0  0  2  0  0  0  0  0  0
  -18.2430  -26.7190   22.2670 C   0  0  0  0  0  2  0  0  0  0  0  0
  -19.1520  -28.8490   23.3670 C   0  0  0  0  0  0  0  0  0  0  0  0
  -18.9110  -30.1100   23.9560 C   0  0  0  0  0  3  0  0  0  0  0  0
  -17.5990  -30.5900   24.1190 C   0  0  0  0  0  3  0  0  0  0  0  0
  -16.5070  -29.8060   23.7060 C   0  0  0  0  0  3  0  0  0  0  0  0
  -16.7320  -28.5460   23.1240 C   0  0  0  0  0  3  0  0  0  0  0  0
  -25.9130  -32.5260   23.8260 C   0  0  0  0  0  3  0  0  0  0  0  0
  -26.4440  -31.7460   25.0920 C   0  0  1  0  0  0  0  0  0  0  0  0
  -25.3650  -31.5130   26.1760 C   0  0  0  0  0  1  0  0  0  0  0  0
  -27.0120  -30.3650   24.6920 C   0  0  0  0  0  1  0  0  0  0  0  0
  -27.6070  -32.5320   25.7400 C   0  0  0  0  0  1  0  0  0  0  0  0
  -25.6090  -33.9220   24.1770 N   0  0  0  0  0  0  0  0  0  0  0  0
  -25.9220  -34.9830   23.4210 C   0  0  0  0  0  0  0  0  0  0  0  0
  -26.5640  -34.8910   22.3720 O   0  0  0  0  0  0  0  0  0  0  0  0
  -25.0370  -34.0660   24.9940 H   0  0  0  0  0  0  0  0  0  0  0  0
  -24.1820  -36.7790   23.1420 C   0  0  0  0  0  1  0  0  0  0  0  0
  -25.4490  -36.3680   23.9080 C   0  0  0  0  0  3  0  0  0  0  0  0
  -27.6080  -37.2500   24.6790 C   0  0  0  0  0  1  0  0  0  0  0  0
  -26.4750  -37.4230   23.7720 N   0  0  0  0  0  0  0  0  0  0  0  0
  -26.0750  -38.3420   23.9360 H   0  0  0  0  0  0  0  0  0  0  0  0
  -32.7470  -23.6870   19.3990 O   0  0  0  0  0  0  0  0  0  0  0  0
  -33.0270  -25.0750   19.5550 C   0  0  0  0  0  2  0  0  0  0  0  0
  -34.9510  -26.7640   19.4130 C   0  0  0  0  0  1  0  0  0  0  0  0
  -34.5100  -25.3050   19.2340 C   0  0  0  0  0  2  0  0  0  0  0  0
  2  4  2  0
  3 20  1  0
  3  1  2  0
  4  1  1  0
  4 50  1  0
  5  3  1  0
  6  5  2  0
  6  2  1  0
  7  5  1  0
  8 14  1  0
  8 21  1  0
  9 14  1  0
 10 11  1  0
 10  9  1  0
 12 11  1  0
 12 25  1  0
 12 13  1  0
 14 13  1  0
 15  8  2  0
 17 20  1  0
 18 16  1  0
 19 17  2  0
 19 21  1  0
 20 16  2  0
 21 18  1  0
 22 23  2  0
 23 42  1  0
 24 23  1  0
 24 27  1  0
 25 26  1  0
 25 22  1  0
 26 24  2  0
 27 28  1  0
 28 29  2  0
 30 33  1  0
 30 29  1  0
 31 30  2  0
 32 31  1  0
 32 27  2  0
 33 34  1  0
 34 35  1  0
 35 36  2  0
 37 36  1  0
 37 41  1  0
 38 37  2  0
 39 34  2  0
 39 38  1  0
 40 39  1  0
 42 43  1  0
 43 46  1  0
 43 45  1  0
 44 42  2  0
 47 48  1  0
 47 22  1  0
 49 47  1  0
 50 51  1  0
 52 63  2  0
 53 51  1  0
 53 58  1  0
 54 62  1  0
 54 64  1  0
 55 61  1  0
 55 57  1  0
 56 62  1  0
 57 56  1  0
 58 57  2  0
 59 60  1  0
 59 53  2  0
 60 55  2  0
 61 54  1  0
 62 52  1  0
 64 66  2  0
 65 64  1  0
 67 65  1  0
 68 77  2  0
 68 73  1  0
 69 65  1  0
 69 73  1  0
 70 69  1  0
 71 72  1  0
 71 70  1  0
 72 68  1  0
 73 74  2  0
 74 75  1  0
 76 75  2  0
 77 76  1  0
 78 52  1  0
 78 83  1  0
 78 79  1  0
 79 82  1  1
 79 80  1  0
 81 79  1  0
 83 86  1  0
 84 88  1  0
 84 83  1  0
 85 84  2  0
 88 87  1  0
 90 88  1  0
 90 91  1  0
 90 89  1  0
 92 93  1  0
 92  6  1  0
 95 94  1  0
 95 93  1  0
M  ISO  4   8 100  21 100  50 101  51 101
M  END
>  <TORSDO>  (96) 
F 20

>  <SCORE>  (96) 
-13.918

>  <name>  (96) 
96

>  <ligand_id>  (96) 
96

>  <original_smiles>  (96) 
[H]c1c([H])c([H])c2c(c1[H])C([H])([H])C([H])([H])C([H])([H])C2([H])N([H])C(=O)C1([H])N(C(=O)C([H])(N([H])C(=O)C([H])(N([H])C([H])([H])[H])C([H])([H])[H])C(C([H])([H])[H])(C([H])([H])[H])C([H])([H])[H])C([H])([H])c2c([H])c(OC([H])([H])c3c([H])c(OC([H])([H])C([H])([H])C([H])([H])[H])c(C([H])([H])[H])c(C4([H])C([H])([H])C([H])([H])N(C(=O)N5C([H])([H])C([H])([H])C([H])([H])C([H])(n6nc(-c7c([H])c([H])c(Oc8c([H])c([H])c(F)c([H])c8F)c([H])c7[H])c(C(=O)N([H])[H])c6N([H])[H])C5([H])[H])C([H])([H])C4([H])[H])c3[H])c([H])c([H])c2C1([H])[H]

>  <smiles>  (96) 
[H]c1c([H])c([H])c2c(c1[H])C([H])([H])C([H])([H])C([H])([H])C2([H])N([H])C(=O)C1([H])N(C(=O)C([H])(N([H])C(=O)C([H])(N([H])C([H])([H])[H])C([H])([H])[H])C(C([H])([H])[H])(C([H])([H])[H])C([H])([H])[H])C([H])([H])c2c([H])c(OC([H])([H])c3c([H])c(OC([H])([H])C([H])([H])C([H])([H])[H])c(C([H])([H])[H])c(C4([H])C([H])([H])C([H])([H])N(C(=O)N5C([H])([H])C([H])([H])C([H])([H])C([H])(n6nc(-c7c([H])c([H])c(Oc8c([H])c([H])c(F)c([H])c8F)c([H])c7[H])c(C(=O)N([H])[H])c6N([H])[H])C5([H])[H])C([H])([H])C4([H])[H])c3[H])c([H])c([H])c2C1([H])[H]

$$$$
97:0:0
     RDKit          3D

 93103  0  0  1  0  0  0  0  0999 V2000
  -28.7130  -22.1580   20.5700 C   0  0  0  0  0  3  0  0  0  0  0  0
  -29.3530  -20.9230   20.0440 C   0  0  0  0  0  0  0  0  0  0  0  0
  -30.0900  -21.2420   18.9000 C   0  0  0  0  0  0  0  0  0  0  0  0
  -30.1990  -22.5530   18.3280 C   0  0  0  0  0  0  0  0  0  0  0  0
  -28.8030  -23.5460   20.0040 C   0  0  0  0  0  0  0  0  0  0  0  0
  -29.5860  -23.7110   18.8190 C   0  0  0  0  0  0  0  0  0  0  0  0
  -30.9590  -20.6180   17.8330 C   0  0  0  0  0  2  0  0  0  0  0  0
  -31.0750  -22.0800   17.1960 C   0  0  0  0  0  2  0  0  0  0  0  0
  -29.7530  -25.0300   18.0870 C   0  0  0  0  0  1  0  0  0  0  0  0
  -30.6400  -14.8900   20.3530 C   0  0  0  0  0  0  0  0  0  0  0  0
  -30.4060  -12.5830   19.3730 C   0  0  0  0  0  2  0  0  0  0  0  0
  -29.4720  -12.5670   18.1470 C   0  0  0  0  0  2  0  0  0  0  0  0
  -28.0140  -12.3550   18.5920 C   0  0  0  0  0  2  0  0  0  0  0  0
  -27.6150  -13.2780   19.7720 C   0  0  0  0  0  3  0  0  0  0  0  0
  -28.6790  -13.3130   20.8890 C   0  0  0  0  0  2  0  0  0  0  0  0
  -29.9530  -13.6870   20.2630 N   0  0  0  0  0  0  0  0  0  0  0  0
  -31.8520  -14.8630   20.1110 O   0  0  0  0  0  0  0  0  0  0  0  0
  -28.7580  -18.2780   19.6030 C   0  0  0  0  0  2  0  0  0  0  0  0
  -30.6910  -18.7280   20.9380 C   0  0  0  0  0  2  0  0  0  0  0  0
  -28.7820  -16.7290   20.0430 C   0  0  0  0  0  2  0  0  0  0  0  0
  -30.7000  -17.2130   21.4460 C   0  0  0  0  0  2  0  0  0  0  0  0
  -29.3120  -19.3840   20.5810 C   0  0  0  0  0  3  0  0  0  0  0  0
  -30.0270  -16.1400   20.6350 N   0  0  0  0  0  0  0  0  0  0  0  0
  -25.2390  -13.8560   20.5200 C   0  0  0  0  0  0  0  0  0  0  0  0
  -24.1780  -13.0770   20.8900 C   0  0  0  0  0  0  0  0  0  0  0  0
  -24.6490  -11.7290   20.8590 C   0  0  0  0  0  0  0  0  0  0  0  0
  -26.2840  -12.9810   20.2790 N   0  0  0  0  0  0  0  0  0  0  0  0
  -25.9400  -11.6960   20.5510 N   0  0  0  0  0  0  0  0  0  0  0  0
  -23.9290  -10.4620   21.0460 C   0  0  0  0  0  0  0  0  0  0  0  0
  -24.3660   -9.4950   21.9770 C   0  0  0  0  0  3  0  0  0  0  0  0
  -23.6450   -8.2940   22.1530 C   0  0  0  0  0  3  0  0  0  0  0  0
  -22.4720   -8.0540   21.3970 C   0  0  0  0  0  0  0  0  0  0  0  0
  -22.0550   -9.0110   20.4550 C   0  0  0  0  0  3  0  0  0  0  0  0
  -22.7770  -10.2030   20.2780 C   0  0  0  0  0  3  0  0  0  0  0  0
  -21.7210   -6.9060   21.4830 O   0  0  0  0  0  0  0  0  0  0  0  0
  -21.6770   -6.1610   22.6340 C   0  0  0  0  0  0  0  0  0  0  0  0
  -21.2470   -6.7100   23.8610 C   0  0  0  0  0  3  0  0  0  0  0  0
  -21.1500   -5.8900   25.0040 C   0  0  0  0  0  3  0  0  0  0  0  0
  -21.4740   -4.5220   24.9200 C   0  0  0  0  0  0  0  0  0  0  0  0
  -21.8960   -3.9730   23.6960 C   0  0  0  0  0  3  0  0  0  0  0  0
  -21.9950   -4.7900   22.5560 C   0  0  0  0  0  0  0  0  0  0  0  0
  -22.3830   -4.2500   21.3750 F   0  0  0  0  0  0  0  0  0  0  0  0
  -21.3740   -3.7330   26.0140 F   0  0  0  0  0  0  0  0  0  0  0  0
  -22.7790  -13.5480   21.1580 C   0  0  0  0  0  0  0  0  0  0  0  0
  -22.0520  -12.8480   22.0210 N   0  0  0  0  0  0  0  0  0  0  0  0
  -22.3390  -14.5720   20.6370 O   0  0  0  0  0  0  0  0  0  0  0  0
  -22.4210  -12.0200   22.4640 H   0  0  0  0  0  0  0  0  0  0  0  0
  -21.1130  -13.1460   22.2440 H   0  0  0  0  0  0  0  0  0  0  0  0
  -25.3940  -15.2270   20.3400 N   0  0  0  0  0  0  0  0  0  0  0  0
  -24.6220  -15.8750   20.4500 H   0  0  0  0  0  0  0  0  0  0  0  0
  -26.2380  -15.6700   20.0030 H   0  0  0  0  0  0  0  0  0  0  0  0
  -28.0050  -24.8290   20.6010 C   0  0  0  0  0  2  0  0  0  0  0  0
  -28.2740  -26.2940   20.2300 O   0  0  0  0  0  0  0  0  0  0  0  0
  -24.6170  -31.8840   23.2380 C   0  0  0  0  0  0  0  0  0  0  0  0
  -27.1990  -27.2310   20.2050 C   0  0  0  0  0  0  0  0  0  0  0  0
  -23.4130  -30.4850   21.6010 C   0  0  0  0  0  3  0  0  0  0  0  0
  -24.8610  -28.9220   20.1740 C   0  0  0  0  0  0  0  0  0  0  0  0
  -25.9610  -30.7740   21.4250 C   0  0  0  0  0  2  0  0  0  0  0  0
  -26.0370  -29.3880   20.7770 C   0  0  0  0  0  0  0  0  0  0  0  0
  -27.2120  -28.5580   20.7750 C   0  0  0  0  0  3  0  0  0  0  0  0
  -26.0040  -26.8530   19.5590 C   0  0  0  0  0  3  0  0  0  0  0  0
  -24.8520  -27.6650   19.5510 C   0  0  0  0  0  3  0  0  0  0  0  0
  -23.6300  -29.8100   20.2220 C   0  0  0  0  0  2  0  0  0  0  0  0
  -24.6840  -31.0680   22.1430 N   0  0  0  0  0  0  0  0  0  0  0  0
  -23.5320  -32.1650   23.7700 O   0  0  0  0  0  0  0  0  0  0  0  0
  -22.7440  -29.4730   22.5630 C   0  0  0  0  0  0  0  0  0  0  0  0
  -21.4180  -29.2960   22.4350 N   0  0  0  0  0  0  0  0  0  0  0  0
  -23.4200  -28.8510   23.3870 O   0  0  0  0  0  0  0  0  0  0  0  0
  -20.9290  -29.8500   21.7460 H   0  0  0  0  0  0  0  0  0  0  0  0
  -18.0410  -28.0890   22.9350 C   0  0  0  0  0  0  0  0  0  0  0  0
  -20.5980  -28.3590   23.2080 C   0  0  0  0  0  3  0  0  0  0  0  0
  -20.7050  -26.9250   22.6390 C   0  0  0  0  0  2  0  0  0  0  0  0
  -19.6070  -26.5950   21.6240 C   0  0  0  0  0  2  0  0  0  0  0  0
  -18.2230  -26.7380   22.2640 C   0  0  0  0  0  2  0  0  0  0  0  0
  -19.1550  -28.8560   23.3640 C   0  0  0  0  0  0  0  0  0  0  0  0
  -18.9300  -30.1200   23.9530 C   0  0  0  0  0  3  0  0  0  0  0  0
  -17.6230  -30.6160   24.1160 C   0  0  0  0  0  3  0  0  0  0  0  0
  -16.5220  -29.8450   23.7020 C   0  0  0  0  0  3  0  0  0  0  0  0
  -16.7330  -28.5830   23.1190 C   0  0  0  0  0  3  0  0  0  0  0  0
  -25.8970  -32.5200   23.8600 C   0  0  0  0  0  3  0  0  0  0  0  0
  -25.5860  -33.9190   24.1870 N   0  0  0  0  0  0  0  0  0  0  0  0
  -25.9190  -34.9720   23.4300 C   0  0  0  0  0  0  0  0  0  0  0  0
  -26.5860  -34.8680   22.3970 O   0  0  0  0  0  0  0  0  0  0  0  0
  -24.9920  -34.0730   24.9890 H   0  0  0  0  0  0  0  0  0  0  0  0
  -24.1920  -36.7700   23.0800 C   0  0  0  0  0  1  0  0  0  0  0  0
  -25.4340  -36.3620   23.8890 C   0  0  0  0  0  3  0  0  0  0  0  0
  -27.5710  -37.2430   24.7170 C   0  0  0  0  0  1  0  0  0  0  0  0
  -26.4680  -37.4140   23.7750 N   0  0  0  0  0  0  0  0  0  0  0  0
  -26.0640  -38.3340   23.9250 H   0  0  0  0  0  0  0  0  0  0  0  0
  -26.4090  -31.7540   25.1420 C   0  0  1  0  0  0  0  0  0  0  0  0
  -25.3140  -31.5220   26.2100 C   0  0  0  0  0  1  0  0  0  0  0  0
  -26.9920  -30.3730   24.7610 C   0  0  0  0  0  1  0  0  0  0  0  0
  -27.5610  -32.5500   25.8010 C   0  0  0  0  0  1  0  0  0  0  0  0
  2  1  1  0
  3  2  2  0
  4  6  2  0
  4  3  1  0
  5  1  2  0
  5 52  1  0
  6  5  1  0
  7  3  1  0
  8  7  1  0
  8  4  1  0
  9  6  1  0
 10 23  1  0
 11 16  1  0
 12 13  1  0
 12 11  1  0
 14 13  1  0
 14 27  1  0
 14 15  1  0
 16 10  1  0
 16 15  1  0
 17 10  2  0
 18 20  1  0
 18 22  1  0
 19 21  1  0
 20 23  1  0
 22  2  1  0
 22 19  1  0
 23 21  1  0
 24 25  2  0
 25 44  1  0
 26 25  1  0
 26 29  1  0
 27 24  1  0
 27 28  1  0
 28 26  2  0
 29 30  1  0
 30 31  2  0
 32 35  1  0
 32 31  1  0
 33 32  2  0
 34 33  1  0
 34 29  2  0
 35 36  1  0
 36 37  1  0
 37 38  2  0
 39 38  1  0
 39 43  1  0
 40 39  2  0
 41 36  2  0
 41 40  1  0
 42 41  1  0
 44 45  1  0
 45 48  1  0
 45 47  1  0
 46 44  2  0
 49 50  1  0
 49 24  1  0
 51 49  1  0
 53 52  1  0
 54 65  2  0
 55 53  1  0
 55 60  1  0
 56 64  1  0
 56 66  1  0
 57 63  1  0
 57 59  1  0
 58 64  1  0
 59 58  1  0
 60 59  2  0
 61 55  2  0
 62 61  1  0
 62 57  2  0
 63 56  1  0
 64 54  1  0
 66 68  2  0
 67 66  1  0
 69 67  1  0
 70 79  2  0
 70 75  1  0
 71 67  1  0
 71 75  1  0
 72 71  1  0
 73 74  1  0
 73 72  1  0
 74 70  1  0
 75 76  2  0
 76 77  1  0
 78 77  2  0
 79 78  1  0
 80 54  1  0
 80 81  1  0
 80 90  1  0
 81 84  1  0
 82 86  1  0
 82 81  1  0
 83 82  2  0
 86 85  1  0
 88 86  1  0
 88 89  1  0
 88 87  1  0
 90 93  1  1
 90 91  1  0
 92 90  1  0
M  ISO  4  10 100  23 100  52 101  53 101
M  END
>  <TORSDO>  (97) 
F 17

>  <SCORE>  (97) 
-15.335

>  <name>  (97) 
97

>  <ligand_id>  (97) 
97

>  <original_smiles>  (97) 
[H]c1c([H])c([H])c2c(c1[H])C([H])([H])C([H])([H])C([H])([H])C2([H])N([H])C(=O)C1([H])N(C(=O)C([H])(N([H])C(=O)C([H])(N([H])C([H])([H])[H])C([H])([H])[H])C(C([H])([H])[H])(C([H])([H])[H])C([H])([H])[H])C([H])([H])c2c([H])c(OC([H])([H])c3c([H])c(C4([H])C([H])([H])C([H])([H])N(C(=O)N5C([H])([H])C([H])([H])C([H])([H])C([H])(n6nc(-c7c([H])c([H])c(Oc8c([H])c([H])c(F)c([H])c8F)c([H])c7[H])c(C(=O)N([H])[H])c6N([H])[H])C5([H])[H])C([H])([H])C4([H])[H])c4c(c3C([H])([H])[H])C([H])([H])C4([H])[H])c([H])c([H])c2C1([H])[H]

>  <smiles>  (97) 
[H]c1c([H])c([H])c2c(c1[H])C([H])([H])C([H])([H])C([H])([H])C2([H])N([H])C(=O)C1([H])N(C(=O)C([H])(N([H])C(=O)C([H])(N([H])C([H])([H])[H])C([H])([H])[H])C(C([H])([H])[H])(C([H])([H])[H])C([H])([H])[H])C([H])([H])c2c([H])c(OC([H])([H])c3c([H])c(C4([H])C([H])([H])C([H])([H])N(C(=O)N5C([H])([H])C([H])([H])C([H])([H])C([H])(n6nc(-c7c([H])c([H])c(Oc8c([H])c([H])c(F)c([H])c8F)c([H])c7[H])c(C(=O)N([H])[H])c6N([H])[H])C5([H])[H])C([H])([H])C4([H])[H])c4c(c3C([H])([H])[H])C([H])([H])C4([H])[H])c([H])c([H])c2C1([H])[H]

$$$$
98:0:0
     RDKit          3D

 96105  0  0  1  0  0  0  0  0999 V2000
  -31.0120  -14.7740   20.0670 C   0  0  0  0  0  0  0  0  0  0  0  0
  -30.6860  -12.4530   19.2590 C   0  0  0  0  0  2  0  0  0  0  0  0
  -29.7920  -12.3830   18.0090 C   0  0  0  0  0  2  0  0  0  0  0  0
  -28.3200  -12.2490   18.4360 C   0  0  0  0  0  2  0  0  0  0  0  0
  -27.9190  -13.2790   19.5250 C   0  0  0  0  0  3  0  0  0  0  0  0
  -28.9560  -13.3510   20.6690 C   0  0  0  0  0  2  0  0  0  0  0  0
  -30.2460  -13.6360   20.0420 N   0  0  0  0  0  0  0  0  0  0  0  0
  -32.2140  -14.6490   19.8180 O   0  0  0  0  0  0  0  0  0  0  0  0
  -28.2810  -19.1920   20.3780 C   0  0  0  0  0  2  0  0  0  0  0  0
  -30.3620  -20.5470   20.6670 C   0  0  0  0  0  3  0  0  0  0  0  0
  -28.5700  -17.8480   20.4620 C   0  0  0  0  0  0  0  0  0  0  0  0
  -29.1240  -20.3970   20.1280 C   0  0  0  0  0  0  0  0  0  0  0  0
  -29.2750  -16.6630   20.3800 C   0  0  0  0  0  0  0  0  0  0  0  0
  -32.4020  -17.5690   20.6960 C   0  0  0  0  0  2  0  0  0  0  0  0
  -32.4260  -19.0860   20.9360 C   0  0  0  0  0  2  0  0  0  0  0  0
  -31.4530  -17.1280   19.5560 C   0  0  0  0  0  2  0  0  0  0  0  0
  -31.1190  -19.5970   21.5960 C   0  0  0  0  0  3  0  0  0  0  0  0
  -30.5110  -16.0710   19.9870 N   0  0  0  0  0  0  0  0  0  0  0  0
  -28.0170  -16.5420   20.7340 N   0  0  0  0  0  0  0  0  0  0  0  0
  -27.1470  -16.2390   20.2740 H   0  0  0  0  0  0  0  0  0  0  0  0
  -25.5620  -13.9520   20.2650 C   0  0  0  0  0  0  0  0  0  0  0  0
  -24.4760  -13.2110   20.6520 C   0  0  0  0  0  0  0  0  0  0  0  0
  -24.8980  -11.8440   20.6270 C   0  0  0  0  0  0  0  0  0  0  0  0
  -26.5720  -13.0350   20.0250 N   0  0  0  0  0  0  0  0  0  0  0  0
  -26.1830  -11.7690   20.3110 N   0  0  0  0  0  0  0  0  0  0  0  0
  -24.1390  -10.6020   20.8250 C   0  0  0  0  0  0  0  0  0  0  0  0
  -24.5770   -9.6060   21.7270 C   0  0  0  0  0  3  0  0  0  0  0  0
  -23.8230   -8.4270   21.9130 C   0  0  0  0  0  3  0  0  0  0  0  0
  -22.6170   -8.2350   21.1980 C   0  0  0  0  0  0  0  0  0  0  0  0
  -22.1990   -9.2180   20.2840 C   0  0  0  0  0  3  0  0  0  0  0  0
  -22.9530  -10.3890   20.0950 C   0  0  0  0  0  3  0  0  0  0  0  0
  -21.8320   -7.1120   21.2980 O   0  0  0  0  0  0  0  0  0  0  0  0
  -21.8580   -6.3110   22.4130 C   0  0  0  0  0  0  0  0  0  0  0  0
  -21.5420   -6.8080   23.6960 C   0  0  0  0  0  3  0  0  0  0  0  0
  -21.5130   -5.9350   24.8020 C   0  0  0  0  0  3  0  0  0  0  0  0
  -21.7910   -4.5660   24.6260 C   0  0  0  0  0  0  0  0  0  0  0  0
  -22.1010   -4.0690   23.3480 C   0  0  0  0  0  3  0  0  0  0  0  0
  -22.1310   -4.9390   22.2440 C   0  0  0  0  0  0  0  0  0  0  0  0
  -22.4090   -4.4510   21.0120 F   0  0  0  0  0  0  0  0  0  0  0  0
  -21.7570   -3.7250   25.6860 F   0  0  0  0  0  0  0  0  0  0  0  0
  -23.0910  -13.7260   20.9150 C   0  0  0  0  0  0  0  0  0  0  0  0
  -22.3470  -13.0680   21.7960 N   0  0  0  0  0  0  0  0  0  0  0  0
  -22.6830  -14.7510   20.3710 O   0  0  0  0  0  0  0  0  0  0  0  0
  -22.6910  -12.2390   22.2550 H   0  0  0  0  0  0  0  0  0  0  0  0
  -21.4150  -13.3950   22.0080 H   0  0  0  0  0  0  0  0  0  0  0  0
  -25.7910  -15.3180   20.0520 N   0  0  0  0  0  0  0  0  0  0  0  0
  -24.8980  -15.7710   20.2450 H   0  0  0  0  0  0  0  0  0  0  0  0
  -25.9040  -15.3980   19.0420 H   0  0  0  0  0  0  0  0  0  0  0  0
  -32.2970  -21.4040   23.0600 C   0  0  0  0  0  1  0  0  0  0  0  0
  -30.0160  -20.5310   23.7070 C   0  0  0  0  0  1  0  0  0  0  0  0
  -31.3470  -20.1930   23.0140 C   0  0  0  0  0  3  0  0  0  0  0  0
  -28.5020  -21.4690   19.4580 O   0  0  0  0  0  0  0  0  0  0  0  0
  -29.2060  -22.7080   19.0890 C   0  0  0  0  0  2  0  0  0  0  0  0
  -28.9590  -24.0570   19.8970 C   0  0  0  0  0  3  0  0  0  0  0  0
  -28.2930  -25.2520   19.1040 C   0  0  0  0  0  3  0  0  0  0  0  0
  -28.3460  -26.6200   19.6660 O   0  0  0  0  0  0  0  0  0  0  0  0
  -24.6430  -31.6980   23.1570 C   0  0  0  0  0  0  0  0  0  0  0  0
  -27.2220  -27.4600   19.6570 C   0  0  0  0  0  0  0  0  0  0  0  0
  -23.4340  -30.4930   21.3790 C   0  0  0  0  0  3  0  0  0  0  0  0
  -24.8750  -29.0910   19.8020 C   0  0  0  0  0  0  0  0  0  0  0  0
  -25.9790  -30.8010   21.2390 C   0  0  0  0  0  2  0  0  0  0  0  0
  -26.0440  -29.4980   20.4550 C   0  0  0  0  0  0  0  0  0  0  0  0
  -27.2160  -28.6910   20.3790 C   0  0  0  0  0  3  0  0  0  0  0  0
  -26.0310  -27.1240   18.9640 C   0  0  0  0  0  3  0  0  0  0  0  0
  -24.8730  -27.9120   19.0470 C   0  0  0  0  0  3  0  0  0  0  0  0
  -23.6470  -29.9660   19.9370 C   0  0  0  0  0  2  0  0  0  0  0  0
  -24.7060  -31.0080   21.9830 N   0  0  0  0  0  0  0  0  0  0  0  0
  -23.5610  -31.9280   23.7140 O   0  0  0  0  0  0  0  0  0  0  0  0
  -22.7600  -29.3820   22.2200 C   0  0  0  0  0  0  0  0  0  0  0  0
  -21.4240  -29.2780   22.1240 N   0  0  0  0  0  0  0  0  0  0  0  0
  -23.4360  -28.6210   22.9180 O   0  0  0  0  0  0  0  0  0  0  0  0
  -20.9350  -29.9400   21.5380 H   0  0  0  0  0  0  0  0  0  0  0  0
  -18.0120  -28.1910   22.6240 C   0  0  0  0  0  0  0  0  0  0  0  0
  -20.5900  -28.2840   22.8020 C   0  0  0  0  0  3  0  0  0  0  0  0
  -20.5910  -26.9420   22.0350 C   0  0  0  0  0  2  0  0  0  0  0  0
  -19.4300  -26.8150   21.0430 C   0  0  0  0  0  2  0  0  0  0  0  0
  -18.0850  -26.9400   21.7660 C   0  0  0  0  0  2  0  0  0  0  0  0
  -19.1880  -28.8320   23.0980 C   0  0  0  0  0  0  0  0  0  0  0  0
  -19.0620  -30.0130   23.8600 C   0  0  0  0  0  3  0  0  0  0  0  0
  -17.7940  -30.5500   24.1550 C   0  0  0  0  0  3  0  0  0  0  0  0
  -16.6340  -29.9030   23.6940 C   0  0  0  0  0  3  0  0  0  0  0  0
  -16.7440  -28.7250   22.9330 C   0  0  0  0  0  3  0  0  0  0  0  0
  -25.9300  -32.2480   23.8470 C   0  0  0  0  0  3  0  0  0  0  0  0
  -26.3690  -31.4050   25.1070 C   0  0  1  0  0  0  0  0  0  0  0  0
  -25.2380  -31.1930   26.1380 C   0  0  0  0  0  1  0  0  0  0  0  0
  -26.8840  -30.0120   24.6790 C   0  0  0  0  0  1  0  0  0  0  0  0
  -27.5450  -32.1110   25.8250 C   0  0  0  0  0  1  0  0  0  0  0  0
  -25.6650  -33.6440   24.2250 N   0  0  0  0  0  0  0  0  0  0  0  0
  -26.0700  -34.7120   23.5250 C   0  0  0  0  0  0  0  0  0  0  0  0
  -26.7710  -34.6220   22.5130 O   0  0  0  0  0  0  0  0  0  0  0  0
  -25.0490  -33.7910   25.0100 H   0  0  0  0  0  0  0  0  0  0  0  0
  -24.4190  -36.5840   23.2010 C   0  0  0  0  0  1  0  0  0  0  0  0
  -25.6230  -36.1000   24.0260 C   0  0  0  0  0  3  0  0  0  0  0  0
  -27.7640  -36.8730   24.9470 C   0  0  0  0  0  1  0  0  0  0  0  0
  -26.6970  -37.1160   23.9790 N   0  0  0  0  0  0  0  0  0  0  0  0
  -26.3200  -38.0440   24.1460 H   0  0  0  0  0  0  0  0  0  0  0  0
  2  7  1  0
  3  4  1  0
  3  2  1  0
  5  4  1  0
  5 24  1  0
  5  6  1  0
  7  1  1  0
  7  6  1  0
  8  1  2  0
  9 11  1  0
 10 17  1  0
 11 19  1  0
 12  9  1  0
 12 10  2  0
 13 11  2  0
 13 19  1  0
 14 15  1  0
 15 17  1  0
 16 18  1  0
 16 14  1  0
 17 51  1  0
 18  1  1  0
 18 13  1  0
 20 19  1  0
 21 22  2  0
 22 41  1  0
 23 22  1  0
 23 26  1  0
 24 21  1  0
 24 25  1  0
 25 23  2  0
 26 27  1  0
 27 28  2  0
 29 32  1  0
 29 28  1  0
 30 29  2  0
 31 30  1  0
 31 26  2  0
 32 33  1  0
 33 34  1  0
 34 35  2  0
 36 35  1  0
 36 40  1  0
 37 36  2  0
 38 33  2  0
 38 37  1  0
 39 38  1  0
 41 42  1  0
 42 45  1  0
 42 44  1  0
 43 41  2  0
 46 47  1  0
 46 21  1  0
 48 46  1  0
 51 49  1  0
 51 50  1  0
 52 12  1  0
 53 52  1  0
 53 54  1  0
 55 56  1  0
 55 54  2  0
 57 68  2  0
 58 56  1  0
 58 63  1  0
 59 67  1  0
 59 69  1  0
 60 66  1  0
 60 62  1  0
 61 67  1  0
 62 61  1  0
 63 62  2  0
 64 65  1  0
 64 58  2  0
 65 60  2  0
 66 59  1  0
 67 57  1  0
 69 71  2  0
 70 69  1  0
 72 70  1  0
 73 82  2  0
 73 78  1  0
 74 70  1  0
 74 78  1  0
 75 74  1  0
 76 77  1  0
 76 75  1  0
 77 73  1  0
 78 79  2  0
 79 80  1  0
 81 80  2  0
 82 81  1  0
 83 57  1  0
 83 88  1  0
 83 84  1  0
 84 87  1  1
 84 85  1  0
 86 84  1  0
 88 91  1  0
 89 93  1  0
 89 88  1  0
 90 89  2  0
 93 92  1  0
 95 93  1  0
 95 96  1  0
 95 94  1  0
M  ISO  4   1 100  18 100  55 101  56 101
M  END
>  <TORSDO>  (98) 
F 20

>  <SCORE>  (98) 
-13.007

>  <name>  (98) 
98

>  <ligand_id>  (98) 
98

>  <original_smiles>  (98) 
[H]C1=C2C(=[N+]2[H])N(C(=O)N2C([H])([H])C([H])([H])C([H])([H])C([H])(n3nc(-c4c([H])c([H])c(Oc5c([H])c([H])c(F)c([H])c5F)c([H])c4[H])c(C(=O)N([H])[H])c3N([H])[H])C2([H])[H])C([H])([H])C([H])([H])C([H])([H])C([H])(C([H])(C([H])([H])[H])C([H])([H])[H])C([H])=C1OC([H])([H])C([H])([H])C([H])([H])Oc1c([H])c([H])c2c(c1[H])C([H])([H])N(C(=O)C([H])(N([H])C(=O)C([H])(N([H])C([H])([H])[H])C([H])([H])[H])C(C([H])([H])[H])(C([H])([H])[H])C([H])([H])[H])C([H])(C(=O)N([H])C1([H])c3c([H])c([H])c([H])c([H])c3C([H])([H])C([H])([H])C1([H])[H])C2([H])[H]

>  <smiles>  (98) 
[H]C1=C2C(=[N+]2[H])N(C(=O)N2C([H])([H])C([H])([H])C([H])([H])C([H])(n3nc(-c4c([H])c([H])c(Oc5c([H])c([H])c(F)c([H])c5F)c([H])c4[H])c(C(=O)N([H])[H])c3N([H])[H])C2([H])[H])C([H])([H])C([H])([H])C([H])([H])C([H])(C([H])(C([H])([H])[H])C([H])([H])[H])C([H])=C1OC([H])([H])C([H])([H])C([H])([H])Oc1c([H])c([H])c2c(c1[H])C([H])([H])N(C(=O)C([H])(N([H])C(=O)C([H])(N([H])C([H])([H])[H])C([H])([H])[H])C(C([H])([H])[H])(C([H])([H])[H])C([H])([H])[H])C([H])(C(=O)N([H])C1([H])c3c([H])c([H])c([H])c([H])c3C([H])([H])C([H])([H])C1([H])[H])C2([H])[H]

$$$$
