0:0:0
     RDKit          3D

 95104  0  0  1  0  0  0  0  0999 V2000
  -27.5360  -21.1090   19.6670 C   0  0  0  0  0  3  0  0  0  0  0  0
  -29.8650  -21.5390   20.0710 C   0  0  0  0  0  3  0  0  0  0  0  0
  -29.0140  -19.2160   20.2710 C   0  0  0  0  0  0  0  0  0  0  0  0
  -27.7270  -19.7270   19.9170 C   0  0  0  0  0  0  0  0  0  0  0  0
  -30.0910  -20.1600   20.3200 C   0  0  0  0  0  0  0  0  0  0  0  0
  -28.5850  -22.0400   19.7530 C   0  0  0  0  0  0  0  0  0  0  0  0
  -26.4930  -18.8400   19.8100 C   0  0  0  0  0  1  0  0  0  0  0  0
  -30.9360  -14.5080   19.9470 C   0  0  0  0  0  0  0  0  0  0  0  0
  -30.5790  -12.3630   18.7670 C   0  0  0  0  0  2  0  0  0  0  0  0
  -29.5340  -12.6010   17.6540 C   0  0  0  0  0  2  0  0  0  0  0  0
  -28.0990  -12.4540   18.2020 C   0  0  0  0  0  2  0  0  0  0  0  0
  -27.8790  -13.2400   19.5220 C   0  0  0  0  0  3  0  0  0  0  0  0
  -29.0240  -12.9580   20.5180 C   0  0  0  0  0  2  0  0  0  0  0  0
  -30.2900  -13.3110   19.8550 N   0  0  0  0  0  0  0  0  0  0  0  0
  -32.0040  -14.7240   19.3600 O   0  0  0  0  0  0  0  0  0  0  0  0
  -29.8040  -17.3730   22.0000 C   0  0  0  0  0  2  0  0  0  0  0  0
  -30.2190  -15.8950   21.8750 C   0  0  0  0  0  2  0  0  0  0  0  0
  -29.8740  -16.7440   19.6640 C   0  0  0  0  0  2  0  0  0  0  0  0
  -29.1760  -17.7080   20.6470 C   0  0  0  0  0  3  0  0  0  0  0  0
  -30.1960  -15.5340   20.4480 N   0  0  0  0  0  0  0  0  0  0  0  0
  -25.5770  -13.8410   20.4990 C   0  0  0  0  0  0  0  0  0  0  0  0
  -24.5340  -13.0650   20.9270 C   0  0  0  0  0  0  0  0  0  0  0  0
  -24.9570  -11.7110   20.7630 C   0  0  0  0  0  0  0  0  0  0  0  0
  -26.5730  -12.9590   20.1090 N   0  0  0  0  0  0  0  0  0  0  0  0
  -26.2080  -11.6690   20.3210 N   0  0  0  0  0  0  0  0  0  0  0  0
  -24.2250  -10.4520   20.9430 C   0  0  0  0  0  0  0  0  0  0  0  0
  -24.6310   -9.4920   21.8960 C   0  0  0  0  0  3  0  0  0  0  0  0
  -23.8990   -8.2960   22.0630 C   0  0  0  0  0  3  0  0  0  0  0  0
  -22.7470   -8.0540   21.2790 C   0  0  0  0  0  0  0  0  0  0  0  0
  -22.3610   -9.0030   20.3170 C   0  0  0  0  0  3  0  0  0  0  0  0
  -23.0940  -10.1890   20.1460 C   0  0  0  0  0  3  0  0  0  0  0  0
  -21.9880   -6.9120   21.3550 O   0  0  0  0  0  0  0  0  0  0  0  0
  -21.7880   -6.2610   22.5460 C   0  0  0  0  0  0  0  0  0  0  0  0
  -21.1840   -6.8950   23.6530 C   0  0  0  0  0  3  0  0  0  0  0  0
  -20.9360   -6.1660   24.8330 C   0  0  0  0  0  3  0  0  0  0  0  0
  -21.2790   -4.8030   24.9060 C   0  0  0  0  0  0  0  0  0  0  0  0
  -21.8740   -4.1680   23.8010 C   0  0  0  0  0  3  0  0  0  0  0  0
  -22.1250   -4.8930   22.6250 C   0  0  0  0  0  0  0  0  0  0  0  0
  -22.6810   -4.2700   21.5580 F   0  0  0  0  0  0  0  0  0  0  0  0
  -21.0330   -4.1010   26.0360 F   0  0  0  0  0  0  0  0  0  0  0  0
  -23.1830  -13.5490   21.3680 C   0  0  0  0  0  0  0  0  0  0  0  0
  -22.5470  -12.8330   22.2900 N   0  0  0  0  0  0  0  0  0  0  0  0
  -22.7030  -14.5930   20.9320 O   0  0  0  0  0  0  0  0  0  0  0  0
  -22.9480  -11.9850   22.6620 H   0  0  0  0  0  0  0  0  0  0  0  0
  -21.6450  -13.1400   22.6260 H   0  0  0  0  0  0  0  0  0  0  0  0
  -25.7540  -15.2160   20.3870 N   0  0  0  0  0  0  0  0  0  0  0  0
  -25.0040  -15.8680   20.5800 H   0  0  0  0  0  0  0  0  0  0  0  0
  -26.5640  -15.6490   19.9650 H   0  0  0  0  0  0  0  0  0  0  0  0
  -31.5290  -19.7970   20.6600 C   0  0  0  0  0  2  0  0  0  0  0  0
  -33.2540  -20.1580   22.2320 C   0  0  0  0  0  1  0  0  0  0  0  0
  -31.8620  -20.2400   21.9690 O   0  0  0  0  0  0  0  0  0  0  0  0
  -28.2790  -23.3770   19.5260 O   0  0  0  0  0  0  0  0  0  0  0  0
  -29.3220  -24.3610   19.5840 C   0  0  0  0  0  2  0  0  0  0  0  0
  -28.8870  -25.7440   19.0160 C   0  0  0  0  0  2  0  0  0  0  0  0
  -28.5630  -26.7300   20.0160 O   0  0  0  0  0  0  0  0  0  0  0  0
  -24.6020  -31.7580   23.1370 C   0  0  0  0  0  0  0  0  0  0  0  0
  -27.3640  -27.4200   19.9810 C   0  0  0  0  0  0  0  0  0  0  0  0
  -23.4400  -30.3770   21.4440 C   0  0  0  0  0  3  0  0  0  0  0  0
  -24.9370  -28.8910   20.0070 C   0  0  0  0  0  0  0  0  0  0  0  0
  -25.9640  -30.7730   21.2950 C   0  0  0  0  0  2  0  0  0  0  0  0
  -26.0790  -29.4170   20.6230 C   0  0  0  0  0  0  0  0  0  0  0  0
  -27.2890  -28.6850   20.6120 C   0  0  0  0  0  3  0  0  0  0  0  0
  -26.1940  -26.8980   19.3840 C   0  0  0  0  0  3  0  0  0  0  0  0
  -24.9900  -27.6290   19.3900 C   0  0  0  0  0  3  0  0  0  0  0  0
  -23.6810  -29.7310   20.0530 C   0  0  0  0  0  2  0  0  0  0  0  0
  -24.6860  -30.9840   22.0170 N   0  0  0  0  0  0  0  0  0  0  0  0
  -23.5090  -32.0010   23.6690 O   0  0  0  0  0  0  0  0  0  0  0  0
  -22.7900  -29.3250   22.3720 C   0  0  0  0  0  0  0  0  0  0  0  0
  -21.4630  -29.1570   22.2510 N   0  0  0  0  0  0  0  0  0  0  0  0
  -23.4770  -28.6650   23.1560 O   0  0  0  0  0  0  0  0  0  0  0  0
  -20.9720  -29.7420   21.5890 H   0  0  0  0  0  0  0  0  0  0  0  0
  -18.0790  -28.0010   22.7740 C   0  0  0  0  0  0  0  0  0  0  0  0
  -20.6470  -28.1960   22.9930 C   0  0  0  0  0  3  0  0  0  0  0  0
  -20.7060  -26.7950   22.3420 C   0  0  0  0  0  2  0  0  0  0  0  0
  -19.5740  -26.5440   21.3420 C   0  0  0  0  0  2  0  0  0  0  0  0
  -18.2120  -26.6850   22.0260 C   0  0  0  0  0  2  0  0  0  0  0  0
  -19.2230  -28.7180   23.2140 C   0  0  0  0  0  0  0  0  0  0  0  0
  -19.0440  -29.9530   23.8740 C   0  0  0  0  0  3  0  0  0  0  0  0
  -17.7550  -30.4710   24.0970 C   0  0  0  0  0  3  0  0  0  0  0  0
  -16.6260  -29.7490   23.6740 C   0  0  0  0  0  3  0  0  0  0  0  0
  -16.7880  -28.5160   23.0180 C   0  0  0  0  0  3  0  0  0  0  0  0
  -25.8700  -32.3930   23.7910 C   0  0  0  0  0  3  0  0  0  0  0  0
  -25.5300  -33.7710   24.1680 N   0  0  0  0  0  0  0  0  0  0  0  0
  -25.8410  -34.8560   23.4450 C   0  0  0  0  0  0  0  0  0  0  0  0
  -26.5160  -34.8020   22.4130 O   0  0  0  0  0  0  0  0  0  0  0  0
  -24.9330  -33.8850   24.9740 H   0  0  0  0  0  0  0  0  0  0  0  0
  -24.0760  -36.6200   23.1380 C   0  0  0  0  0  1  0  0  0  0  0  0
  -25.3200  -36.2170   23.9460 C   0  0  0  0  0  3  0  0  0  0  0  0
  -27.4280  -37.1220   24.8230 C   0  0  0  0  0  1  0  0  0  0  0  0
  -26.3310  -37.2960   23.8750 N   0  0  0  0  0  0  0  0  0  0  0  0
  -25.9040  -38.2020   24.0450 H   0  0  0  0  0  0  0  0  0  0  0  0
  -26.3950  -31.5880   25.0440 C   0  0  1  0  0  0  0  0  0  0  0  0
  -25.3000  -31.2870   26.0920 C   0  0  0  0  0  1  0  0  0  0  0  0
  -27.0130  -30.2400   24.6040 C   0  0  0  0  0  1  0  0  0  0  0  0
  -27.5250  -32.3810   25.7420 C   0  0  0  0  0  1  0  0  0  0  0  0
  1  6  2  0
  1  4  1  0
  2  5  2  0
  3  5  1  0
  4  3  2  0
  5 49  1  0
  6  2  1  0
  7  4  1  0
  8 20  1  0
  9 14  1  0
 10 11  1  0
 10  9  1  0
 12 11  1  0
 12 24  1  0
 12 13  1  0
 14  8  1  0
 14 13  1  0
 15  8  2  0
 17 16  1  0
 18 20  1  0
 18 19  1  0
 19  3  1  0
 19 16  1  0
 20 17  1  0
 21 22  2  0
 22 41  1  0
 23 22  1  0
 23 26  1  0
 24 25  1  0
 24 21  1  0
 25 23  2  0
 26 27  1  0
 27 28  2  0
 29 32  1  0
 29 28  1  0
 30 29  2  0
 31 30  1  0
 31 26  2  0
 32 33  1  0
 33 38  2  0
 33 34  1  0
 34 35  2  0
 35 36  1  0
 36 40  1  0
 37 36  2  0
 38 37  1  0
 39 38  1  0
 41 42  1  0
 42 45  1  0
 42 44  1  0
 43 41  2  0
 46 21  1  0
 46 47  1  0
 48 46  1  0
 49 51  1  0
 51 50  1  0
 52 53  1  0
 52  6  1  0
 54 53  1  0
 54 55  1  0
 56 67  2  0
 57 55  1  0
 57 62  1  0
 58 66  1  0
 58 68  1  0
 59 65  1  0
 59 61  1  0
 60 66  1  0
 61 60  1  0
 62 61  2  0
 63 64  1  0
 63 57  2  0
 64 59  2  0
 65 58  1  0
 66 56  1  0
 68 70  2  0
 69 68  1  0
 71 69  1  0
 72 81  2  0
 72 77  1  0
 73 69  1  0
 73 77  1  0
 74 73  1  0
 75 76  1  0
 75 74  1  0
 76 72  1  0
 77 78  2  0
 78 79  1  0
 80 79  2  0
 81 80  1  0
 82 56  1  0
 82 83  1  0
 82 92  1  0
 83 86  1  0
 84 88  1  0
 84 83  1  0
 85 84  2  0
 88 87  1  0
 90 88  1  0
 90 91  1  0
 90 89  1  0
 92 95  1  1
 92 93  1  0
 94 92  1  0
M  ISO  4   8 100  20 100  54 101  55 101
M  END
>  <TORSDO>  (1) 
F 21

>  <SCORE>  (1) 
-12.443

>  <name>  (1) 
0

>  <ligand_id>  (1) 
0

>  <original_smiles>  (1) 
[H]c1c([H])c([H])c2c(c1[H])C([H])([H])C([H])([H])C([H])([H])C2([H])N([H])C(=O)C1([H])N(C(=O)C([H])(N([H])C(=O)C([H])(N([H])C([H])([H])[H])C([H])([H])[H])C(C([H])([H])[H])(C([H])([H])[H])C([H])([H])[H])C([H])([H])c2c([H])c(OC([H])([H])C([H])([H])Oc3c([H])c(C([H])([H])[H])c(C4([H])C([H])([H])N(C(=O)N5C([H])([H])C([H])([H])C([H])([H])C([H])(n6nc(-c7c([H])c([H])c(Oc8c([H])c([H])c(F)c([H])c8F)c([H])c7[H])c(C(=O)N([H])[H])c6N([H])[H])C5([H])[H])C([H])([H])C4([H])[H])c(C([H])([H])OC([H])([H])[H])c3[H])c([H])c([H])c2C1([H])[H]

>  <smiles>  (1) 
[H]c1c([H])c([H])c2c(c1[H])C([H])([H])C([H])([H])C([H])([H])C2([H])N([H])C(=O)C1([H])N(C(=O)C([H])(N([H])C(=O)C([H])(N([H])C([H])([H])[H])C([H])([H])[H])C(C([H])([H])[H])(C([H])([H])[H])C([H])([H])[H])C([H])([H])c2c([H])c(OC([H])([H])C([H])([H])Oc3c([H])c(C([H])([H])[H])c(C4([H])C([H])([H])N(C(=O)N5C([H])([H])C([H])([H])C([H])([H])C([H])(n6nc(-c7c([H])c([H])c(Oc8c([H])c([H])c(F)c([H])c8F)c([H])c7[H])c(C(=O)N([H])[H])c6N([H])[H])C5([H])[H])C([H])([H])C4([H])[H])c(C([H])([H])OC([H])([H])[H])c3[H])c([H])c([H])c2C1([H])[H]

$$$$
1:0:0
     RDKit          3D

 98107  0  0  1  0  0  0  0  0999 V2000
  -32.2380  -25.3970   19.5240 C   0  0  0  0  0  3  0  0  0  0  0  0
  -32.6790  -24.0800   19.4250 C   0  0  0  0  0  3  0  0  0  0  0  0
  -30.8840  -25.6490   19.7330 C   0  0  0  0  0  3  0  0  0  0  0  0
  -29.5760  -22.0520   20.0070 C   0  0  0  0  0  3  0  0  0  0  0  0
  -31.7840  -22.9920   19.5470 C   0  0  0  0  0  0  0  0  0  0  0  0
  -30.3920  -23.2260   19.8160 C   0  0  0  0  0  0  0  0  0  0  0  0
  -29.9300  -24.6100   19.8790 C   0  0  0  0  0  0  0  0  0  0  0  0
  -32.2960  -21.6790   19.3620 C   0  0  0  0  0  0  0  0  0  0  0  0
  -30.0920  -20.7100   19.8760 C   0  0  0  0  0  0  0  0  0  0  0  0
  -31.4340  -20.5650   19.4540 C   0  0  0  0  0  0  0  0  0  0  0  0
  -34.1340  -21.6940   17.5630 C   0  0  0  0  0  1  0  0  0  0  0  0
  -33.7760  -21.4250   19.0340 C   0  0  0  0  0  2  0  0  0  0  0  0
  -31.5660  -19.0460   17.7030 C   0  0  0  0  0  1  0  0  0  0  0  0
  -31.9110  -19.3440   19.0530 O   0  0  0  0  0  0  0  0  0  0  0  0
  -29.2960  -19.5410   20.1000 N   0  0  0  0  0  0  0  0  0  0  0  0
  -28.3100  -19.7290   20.2640 H   0  0  0  0  0  0  0  0  0  0  0  0
  -29.7950  -18.3150   20.8060 C   0  0  0  0  0  2  0  0  0  0  0  0
  -30.0060  -17.0090   19.9340 C   0  0  0  0  0  2  0  0  0  0  0  0
  -30.6070  -14.5670   20.3380 C   0  0  0  0  0  0  0  0  0  0  0  0
  -30.3370  -12.3330   19.3130 C   0  0  0  0  0  2  0  0  0  0  0  0
  -29.3950  -12.4860   18.0990 C   0  0  0  0  0  2  0  0  0  0  0  0
  -27.9240  -12.3540   18.5340 C   0  0  0  0  0  2  0  0  0  0  0  0
  -27.5840  -13.2270   19.7730 C   0  0  0  0  0  3  0  0  0  0  0  0
  -28.6440  -13.0670   20.8870 C   0  0  0  0  0  2  0  0  0  0  0  0
  -29.9580  -13.3630   20.3010 N   0  0  0  0  0  0  0  0  0  0  0  0
  -31.7640  -14.6870   19.9310 O   0  0  0  0  0  0  0  0  0  0  0  0
  -29.8360  -15.6670   20.5830 N   0  0  0  0  0  0  0  0  0  0  0  0
  -28.9180  -15.4760   20.9540 H   0  0  0  0  0  0  0  0  0  0  0  0
  -25.1990  -13.8560   20.4940 C   0  0  0  0  0  0  0  0  0  0  0  0
  -24.1260  -13.0970   20.8740 C   0  0  0  0  0  0  0  0  0  0  0  0
  -24.5740  -11.7400   20.8530 C   0  0  0  0  0  0  0  0  0  0  0  0
  -26.2350  -12.9640   20.2630 N   0  0  0  0  0  0  0  0  0  0  0  0
  -25.8640  -11.6860   20.5390 N   0  0  0  0  0  0  0  0  0  0  0  0
  -23.8370  -10.4870   21.0550 C   0  0  0  0  0  0  0  0  0  0  0  0
  -24.2810   -9.5060   21.9690 C   0  0  0  0  0  3  0  0  0  0  0  0
  -23.5430   -8.3180   22.1600 C   0  0  0  0  0  3  0  0  0  0  0  0
  -22.3470   -8.1020   21.4360 C   0  0  0  0  0  0  0  0  0  0  0  0
  -21.9210   -9.0700   20.5090 C   0  0  0  0  0  3  0  0  0  0  0  0
  -22.6590  -10.2500   20.3170 C   0  0  0  0  0  3  0  0  0  0  0  0
  -21.5790   -6.9670   21.5380 O   0  0  0  0  0  0  0  0  0  0  0  0
  -21.5730   -6.2020   22.6760 C   0  0  0  0  0  0  0  0  0  0  0  0
  -21.2320   -6.7420   23.9350 C   0  0  0  0  0  3  0  0  0  0  0  0
  -21.1710   -5.9040   25.0680 C   0  0  0  0  0  3  0  0  0  0  0  0
  -21.4400   -4.5290   24.9420 C   0  0  0  0  0  0  0  0  0  0  0  0
  -21.7740   -3.9880   23.6870 C   0  0  0  0  0  3  0  0  0  0  0  0
  -21.8370   -4.8220   22.5570 C   0  0  0  0  0  0  0  0  0  0  0  0
  -22.1380   -4.2930   21.3480 F   0  0  0  0  0  0  0  0  0  0  0  0
  -21.3740   -3.7220   26.0270 F   0  0  0  0  0  0  0  0  0  0  0  0
  -22.7350  -13.5890   21.1500 C   0  0  0  0  0  0  0  0  0  0  0  0
  -22.0060  -12.9090   22.0270 N   0  0  0  0  0  0  0  0  0  0  0  0
  -22.3050  -14.6140   20.6220 O   0  0  0  0  0  0  0  0  0  0  0  0
  -22.3680  -12.0810   22.4750 H   0  0  0  0  0  0  0  0  0  0  0  0
  -21.0720  -13.2210   22.2540 H   0  0  0  0  0  0  0  0  0  0  0  0
  -25.3760  -15.2230   20.3040 N   0  0  0  0  0  0  0  0  0  0  0  0
  -24.6120  -15.8840   20.4040 H   0  0  0  0  0  0  0  0  0  0  0  0
  -26.2220  -15.6490   19.9470 H   0  0  0  0  0  0  0  0  0  0  0  0
  -28.4690  -25.1320   20.0320 C   0  0  0  0  0  2  0  0  0  0  0  0
  -28.4050  -26.5970   20.1590 O   0  0  0  0  0  0  0  0  0  0  0  0
  -24.6290  -31.8530   23.2180 C   0  0  0  0  0  0  0  0  0  0  0  0
  -27.2230  -27.3300   20.1470 C   0  0  0  0  0  0  0  0  0  0  0  0
  -23.4060  -30.4510   21.5890 C   0  0  0  0  0  3  0  0  0  0  0  0
  -24.8400  -28.8920   20.1580 C   0  0  0  0  0  0  0  0  0  0  0  0
  -25.9350  -30.7850   21.3720 C   0  0  0  0  0  2  0  0  0  0  0  0
  -26.0090  -29.4060   20.7340 C   0  0  0  0  0  0  0  0  0  0  0  0
  -27.2000  -28.6350   20.7140 C   0  0  0  0  0  3  0  0  0  0  0  0
  -26.0320  -26.8430   19.5670 C   0  0  0  0  0  3  0  0  0  0  0  0
  -24.8510  -27.6160   19.5680 C   0  0  0  0  0  3  0  0  0  0  0  0
  -23.6030  -29.7640   20.2110 C   0  0  0  0  0  2  0  0  0  0  0  0
  -24.6760  -31.0480   22.1170 N   0  0  0  0  0  0  0  0  0  0  0  0
  -23.5530  -32.1310   23.7650 O   0  0  0  0  0  0  0  0  0  0  0  0
  -22.7550  -29.4390   22.5600 C   0  0  0  0  0  0  0  0  0  0  0  0
  -21.4280  -29.2640   22.4470 N   0  0  0  0  0  0  0  0  0  0  0  0
  -23.4410  -28.8120   23.3710 O   0  0  0  0  0  0  0  0  0  0  0  0
  -20.9340  -29.8220   21.7630 H   0  0  0  0  0  0  0  0  0  0  0  0
  -18.0550  -28.0740   22.9690 C   0  0  0  0  0  0  0  0  0  0  0  0
  -20.6140  -28.3310   23.2260 C   0  0  0  0  0  3  0  0  0  0  0  0
  -20.7120  -26.8970   22.6550 C   0  0  0  0  0  2  0  0  0  0  0  0
  -19.6050  -26.5710   21.6480 C   0  0  0  0  0  2  0  0  0  0  0  0
  -18.2270  -26.7220   22.2980 C   0  0  0  0  0  2  0  0  0  0  0  0
  -19.1760  -28.8360   23.3900 C   0  0  0  0  0  0  0  0  0  0  0  0
  -18.9620  -30.1030   23.9780 C   0  0  0  0  0  3  0  0  0  0  0  0
  -17.6580  -30.6060   24.1470 C   0  0  0  0  0  3  0  0  0  0  0  0
  -16.5520  -29.8400   23.7430 C   0  0  0  0  0  3  0  0  0  0  0  0
  -16.7510  -28.5760   23.1600 C   0  0  0  0  0  3  0  0  0  0  0  0
  -25.9210  -32.4830   23.8260 C   0  0  0  0  0  3  0  0  0  0  0  0
  -25.6130  -33.8760   24.1770 N   0  0  0  0  0  0  0  0  0  0  0  0
  -25.9280  -34.9390   23.4230 C   0  0  0  0  0  0  0  0  0  0  0  0
  -26.5790  -34.8480   22.3780 O   0  0  0  0  0  0  0  0  0  0  0  0
  -25.0330  -34.0220   24.9900 H   0  0  0  0  0  0  0  0  0  0  0  0
  -24.1840  -36.7250   23.1250 C   0  0  0  0  0  1  0  0  0  0  0  0
  -25.4450  -36.3210   23.9030 C   0  0  0  0  0  3  0  0  0  0  0  0
  -27.5960  -37.2080   24.6880 C   0  0  0  0  0  1  0  0  0  0  0  0
  -26.4710  -37.3800   23.7740 N   0  0  0  0  0  0  0  0  0  0  0  0
  -26.0640  -38.2970   23.9420 H   0  0  0  0  0  0  0  0  0  0  0  0
  -26.4610  -31.7000   25.0860 C   0  0  1  0  0  0  0  0  0  0  0  0
  -25.3870  -31.4500   26.1700 C   0  0  0  0  0  1  0  0  0  0  0  0
  -27.0370  -30.3270   24.6700 C   0  0  0  0  0  1  0  0  0  0  0  0
  -27.6210  -32.4890   25.7370 C   0  0  0  0  0  1  0  0  0  0  0  0
  1  3  1  0
  2  1  2  0
  2  5  1  0
  3  7  2  0
  5  6  1  0
  6  7  1  0
  6  4  2  0
  7 57  1  0
  8 10  1  0
  8  5  2  0
  9  4  1  0
  9 15  1  0
 10  9  2  0
 11 12  1  0
 12  8  1  0
 13 14  1  0
 14 10  1  0
 15 16  1  0
 15 17  1  0
 18 27  1  0
 18 17  1  0
 19 27  1  0
 20 25  1  0
 21 22  1  0
 21 20  1  0
 23 22  1  0
 23 32  1  0
 23 24  1  0
 25 19  1  0
 25 24  1  0
 26 19  2  0
 27 28  1  0
 29 30  2  0
 30 49  1  0
 31 30  1  0
 31 34  1  0
 32 29  1  0
 32 33  1  0
 33 31  2  0
 34 35  1  0
 35 36  2  0
 37 40  1  0
 37 36  1  0
 38 37  2  0
 39 38  1  0
 39 34  2  0
 40 41  1  0
 41 42  1  0
 42 43  2  0
 44 43  1  0
 44 48  1  0
 45 44  2  0
 46 41  2  0
 46 45  1  0
 47 46  1  0
 49 50  1  0
 50 53  1  0
 50 52  1  0
 51 49  2  0
 54 55  1  0
 54 29  1  0
 56 54  1  0
 57 58  1  0
 59 70  2  0
 60 58  1  0
 60 65  1  0
 61 69  1  0
 61 71  1  0
 62 68  1  0
 62 64  1  0
 63 69  1  0
 64 63  1  0
 65 64  2  0
 66 67  1  0
 66 60  2  0
 67 62  2  0
 68 61  1  0
 69 59  1  0
 71 73  2  0
 72 71  1  0
 74 72  1  0
 75 84  2  0
 75 80  1  0
 76 72  1  0
 76 80  1  0
 77 76  1  0
 78 79  1  0
 78 77  1  0
 79 75  1  0
 80 81  2  0
 81 82  1  0
 83 82  2  0
 84 83  1  0
 85 59  1  0
 85 86  1  0
 85 95  1  0
 86 89  1  0
 87 91  1  0
 87 86  1  0
 88 87  2  0
 91 90  1  0
 93 91  1  0
 93 94  1  0
 93 92  1  0
 95 98  1  1
 95 96  1  0
 97 95  1  0
M  ISO  4  19 100  27 100  57 101  58 101
M  END
>  <TORSDO>  (2) 
F 22

>  <SCORE>  (2) 
-13.147

>  <name>  (2) 
1

>  <ligand_id>  (2) 
1

>  <original_smiles>  (2) 
[H]c1c([H])c([H])c2c(c1[H])C([H])([H])C([H])([H])C([H])([H])C2([H])N([H])C(=O)C1([H])N(C(=O)C([H])(N([H])C(=O)C([H])(N([H])C([H])([H])[H])C([H])([H])[H])C(C([H])([H])[H])(C([H])([H])[H])C([H])([H])[H])C([H])([H])c2c([H])c(OC([H])([H])c3c([H])c([H])c([H])c4c(C([H])([H])C([H])([H])[H])c(OC([H])([H])[H])c(N([H])C([H])([H])C([H])([H])N([H])C(=O)N5C([H])([H])C([H])([H])C([H])([H])C([H])(n6nc(-c7c([H])c([H])c(Oc8c([H])c([H])c(F)c([H])c8F)c([H])c7[H])c(C(=O)N([H])[H])c6N([H])[H])C5([H])[H])c([H])c34)c([H])c([H])c2C1([H])[H]

>  <smiles>  (2) 
[H]c1c([H])c([H])c2c(c1[H])C([H])([H])C([H])([H])C([H])([H])C2([H])N([H])C(=O)C1([H])N(C(=O)C([H])(N([H])C(=O)C([H])(N([H])C([H])([H])[H])C([H])([H])[H])C(C([H])([H])[H])(C([H])([H])[H])C([H])([H])[H])C([H])([H])c2c([H])c(OC([H])([H])c3c([H])c([H])c([H])c4c(C([H])([H])C([H])([H])[H])c(OC([H])([H])[H])c(N([H])C([H])([H])C([H])([H])N([H])C(=O)N5C([H])([H])C([H])([H])C([H])([H])C([H])(n6nc(-c7c([H])c([H])c(Oc8c([H])c([H])c(F)c([H])c8F)c([H])c7[H])c(C(=O)N([H])[H])c6N([H])[H])C5([H])[H])c([H])c34)c([H])c([H])c2C1([H])[H]

$$$$
2:0:0
     RDKit          3D

 94104  0  0  1  0  0  0  0  0999 V2000
  -30.1500  -22.8230   21.7670 C   0  0  0  0  0  1  0  0  0  0  0  0
  -29.6850  -22.4680   20.3370 C   0  0  1  0  0  0  0  0  0  0  0  0
  -29.4100  -19.9560   18.9700 C   0  0  0  0  0  2  0  0  0  0  0  0
  -29.1620  -19.9110   21.4370 C   0  0  0  0  0  2  0  0  0  0  0  0
  -29.9270  -18.4300   18.9230 C   0  0  0  0  0  2  0  0  0  0  0  0
  -29.0450  -18.3250   21.2400 C   0  0  0  0  0  2  0  0  0  0  0  0
  -29.7320  -20.7840   20.2600 C   0  0  0  0  0  3  0  0  0  0  0  0
  -30.0260  -17.5790   20.2580 C   0  0  0  0  0  3  0  0  0  0  0  0
  -30.5880  -14.9110   19.9280 C   0  0  0  0  0  0  0  0  0  0  0  0
  -30.3990  -12.6000   18.9420 C   0  0  0  0  0  2  0  0  0  0  0  0
  -29.3910  -12.6050   17.7700 C   0  0  0  0  0  2  0  0  0  0  0  0
  -27.9530  -12.4010   18.2840 C   0  0  0  0  0  2  0  0  0  0  0  0
  -27.6250  -13.3060   19.5010 C   0  0  0  0  0  3  0  0  0  0  0  0
  -28.7430  -13.2660   20.5640 C   0  0  0  0  0  2  0  0  0  0  0  0
  -29.9890  -13.6630   19.8950 N   0  0  0  0  0  0  0  0  0  0  0  0
  -31.7640  -15.0180   19.5700 O   0  0  0  0  0  0  0  0  0  0  0  0
  -29.7880  -16.0380   20.1750 N   0  0  0  0  0  0  0  0  0  0  0  0
  -28.8370  -15.7780   20.3830 H   0  0  0  0  0  0  0  0  0  0  0  0
  -25.2940  -13.8850   20.3980 C   0  0  0  0  0  0  0  0  0  0  0  0
  -24.2480  -13.1060   20.8090 C   0  0  0  0  0  0  0  0  0  0  0  0
  -24.6980  -11.7540   20.7070 C   0  0  0  0  0  0  0  0  0  0  0  0
  -26.3130  -13.0090   20.0680 N   0  0  0  0  0  0  0  0  0  0  0  0
  -25.9670  -11.7190   20.3180 N   0  0  0  0  0  0  0  0  0  0  0  0
  -23.9740  -10.4910   20.9000 C   0  0  0  0  0  0  0  0  0  0  0  0
  -24.3820   -9.5440   21.8660 C   0  0  0  0  0  3  0  0  0  0  0  0
  -23.6580   -8.3470   22.0460 C   0  0  0  0  0  3  0  0  0  0  0  0
  -22.5100   -8.0870   21.2600 C   0  0  0  0  0  0  0  0  0  0  0  0
  -22.1200   -9.0220   20.2850 C   0  0  0  0  0  3  0  0  0  0  0  0
  -22.8470  -10.2110   20.1030 C   0  0  0  0  0  3  0  0  0  0  0  0
  -21.7580   -6.9410   21.3480 O   0  0  0  0  0  0  0  0  0  0  0  0
  -21.5860   -6.2830   22.5400 C   0  0  0  0  0  0  0  0  0  0  0  0
  -20.9860   -6.9060   23.6540 C   0  0  0  0  0  3  0  0  0  0  0  0
  -20.7650   -6.1730   24.8370 C   0  0  0  0  0  3  0  0  0  0  0  0
  -21.1350   -4.8170   24.9040 C   0  0  0  0  0  0  0  0  0  0  0  0
  -21.7280   -4.1920   23.7930 C   0  0  0  0  0  3  0  0  0  0  0  0
  -21.9510   -4.9230   22.6110 C   0  0  0  0  0  0  0  0  0  0  0  0
  -22.5030   -4.3120   21.5370 F   0  0  0  0  0  0  0  0  0  0  0  0
  -20.9150   -4.1080   26.0370 F   0  0  0  0  0  0  0  0  0  0  0  0
  -22.8730  -13.5830   21.1790 C   0  0  0  0  0  0  0  0  0  0  0  0
  -22.1970  -12.8690   22.0700 N   0  0  0  0  0  0  0  0  0  0  0  0
  -22.4120  -14.6250   20.7130 O   0  0  0  0  0  0  0  0  0  0  0  0
  -22.5860  -12.0270   22.4680 H   0  0  0  0  0  0  0  0  0  0  0  0
  -21.2770  -13.1700   22.3610 H   0  0  0  0  0  0  0  0  0  0  0  0
  -25.4560  -15.2600   20.2530 N   0  0  0  0  0  0  0  0  0  0  0  0
  -24.6950  -15.9090   20.4220 H   0  0  0  0  0  0  0  0  0  0  0  0
  -26.2650  -15.7040   19.8380 H   0  0  0  0  0  0  0  0  0  0  0  0
  -27.8880  -24.1680   19.0270 C   0  0  0  0  0  2  0  0  0  0  0  0
  -28.3130  -23.3020   20.1740 C   0  0  0  0  0  3  0  0  0  0  0  0
  -27.8520  -24.8670   20.3920 C   0  0  0  0  0  3  0  0  0  0  0  0
  -28.2630  -26.3060   20.0830 O   0  0  0  0  0  0  0  0  0  0  0  0
  -24.5370  -31.8120   23.1300 C   0  0  0  0  0  0  0  0  0  0  0  0
  -27.2040  -27.2640   20.0170 C   0  0  0  0  0  0  0  0  0  0  0  0
  -23.3650  -30.4380   21.4520 C   0  0  0  0  0  3  0  0  0  0  0  0
  -24.8450  -28.9280   20.0010 C   0  0  0  0  0  0  0  0  0  0  0  0
  -25.9110  -30.7610   21.3070 C   0  0  0  0  0  2  0  0  0  0  0  0
  -26.0110  -29.3910   20.6250 C   0  0  0  0  0  0  0  0  0  0  0  0
  -27.1960  -28.5750   20.6190 C   0  0  0  0  0  3  0  0  0  0  0  0
  -26.0160  -26.8910   19.3500 C   0  0  0  0  0  3  0  0  0  0  0  0
  -24.8560  -27.6880   19.3480 C   0  0  0  0  0  3  0  0  0  0  0  0
  -23.6000  -29.7960   20.0610 C   0  0  0  0  0  2  0  0  0  0  0  0
  -24.6230  -31.0220   22.0190 N   0  0  0  0  0  0  0  0  0  0  0  0
  -23.4450  -32.0700   23.6590 O   0  0  0  0  0  0  0  0  0  0  0  0
  -22.6970  -29.3970   22.3860 C   0  0  0  0  0  0  0  0  0  0  0  0
  -21.3730  -29.2070   22.2420 N   0  0  0  0  0  0  0  0  0  0  0  0
  -23.3720  -28.7650   23.2030 O   0  0  0  0  0  0  0  0  0  0  0  0
  -20.8850  -29.7700   21.5580 H   0  0  0  0  0  0  0  0  0  0  0  0
  -18.0020  -27.9710   22.7090 C   0  0  0  0  0  0  0  0  0  0  0  0
  -20.5580  -28.2450   22.9880 C   0  0  0  0  0  3  0  0  0  0  0  0
  -20.6710  -26.8280   22.3770 C   0  0  0  0  0  2  0  0  0  0  0  0
  -19.5740  -26.5230   21.3520 C   0  0  0  0  0  2  0  0  0  0  0  0
  -18.1900  -26.6420   21.9970 C   0  0  0  0  0  2  0  0  0  0  0  0
  -19.1140  -28.7310   23.1590 C   0  0  0  0  0  0  0  0  0  0  0  0
  -18.8850  -29.9750   23.7860 C   0  0  0  0  0  3  0  0  0  0  0  0
  -17.5760  -30.4630   23.9620 C   0  0  0  0  0  3  0  0  0  0  0  0
  -16.4780  -29.7000   23.5260 C   0  0  0  0  0  3  0  0  0  0  0  0
  -16.6920  -28.4550   22.9080 C   0  0  0  0  0  3  0  0  0  0  0  0
  -25.8050  -32.4480   23.7770 C   0  0  0  0  0  3  0  0  0  0  0  0
  -26.3140  -31.6630   25.0480 C   0  0  1  0  0  0  0  0  0  0  0  0
  -25.2080  -31.3870   26.0930 C   0  0  0  0  0  1  0  0  0  0  0  0
  -26.9260  -30.3020   24.6450 C   0  0  0  0  0  1  0  0  0  0  0  0
  -27.4420  -32.4640   25.7420 C   0  0  0  0  0  1  0  0  0  0  0  0
  -25.4770  -33.8380   24.1280 N   0  0  0  0  0  0  0  0  0  0  0  0
  -25.7940  -34.9080   23.3860 C   0  0  0  0  0  0  0  0  0  0  0  0
  -26.4620  -34.8300   22.3520 O   0  0  0  0  0  0  0  0  0  0  0  0
  -24.8800  -33.9720   24.9300 H   0  0  0  0  0  0  0  0  0  0  0  0
  -24.0470  -36.6900   23.0680 C   0  0  0  0  0  1  0  0  0  0  0  0
  -25.2930  -36.2830   23.8700 C   0  0  0  0  0  3  0  0  0  0  0  0
  -27.4130  -37.1820   24.7230 C   0  0  0  0  0  1  0  0  0  0  0  0
  -26.3150  -37.3500   23.7750 N   0  0  0  0  0  0  0  0  0  0  0  0
  -25.8960  -38.2620   23.9340 H   0  0  0  0  0  0  0  0  0  0  0  0
  -30.7150  -23.0730   19.3340 C   0  0  0  0  0  2  0  0  0  0  0  0
  -33.2440  -23.1410   18.6210 C   0  0  0  0  0  2  0  0  0  0  0  0
  -33.2530  -22.7930   20.0900 C   0  0  0  0  0  2  0  0  0  0  0  0
  -32.0770  -22.3910   19.2230 C   0  0  0  0  0  3  0  0  0  0  0  0
  2  1  1  1
  3  7  1  0
  5  3  1  0
  5  8  1  0
  6  4  1  0
  7  2  1  0
  7  4  1  0
  8 17  1  0
  8  6  1  0
  9 17  1  0
 10 15  1  0
 11 12  1  0
 11 10  1  0
 13 12  1  0
 13 22  1  0
 13 14  1  0
 15  9  1  0
 15 14  1  0
 16  9  2  0
 17 18  1  0
 19 20  2  0
 20 39  1  0
 21 20  1  0
 21 24  1  0
 22 23  1  0
 22 19  1  0
 23 21  2  0
 24 25  1  0
 25 26  2  0
 27 30  1  0
 27 26  1  0
 28 27  2  0
 29 28  1  0
 29 24  2  0
 30 31  1  0
 31 36  2  0
 31 32  1  0
 32 33  2  0
 33 34  1  0
 34 38  1  0
 35 34  2  0
 36 35  1  0
 37 36  1  0
 39 40  1  0
 40 43  1  0
 40 42  1  0
 41 39  2  0
 44 19  1  0
 44 45  1  0
 46 44  1  0
 47 48  1  0
 47 49  1  0
 48  2  1  0
 48 49  1  0
 49 50  1  0
 51 62  2  0
 52 50  1  0
 52 57  1  0
 53 61  1  0
 53 63  1  0
 54 60  1  0
 54 56  1  0
 55 61  1  0
 56 55  1  0
 57 56  2  0
 58 52  2  0
 59 58  1  0
 59 54  2  0
 60 53  1  0
 61 51  1  0
 63 65  2  0
 64 63  1  0
 66 64  1  0
 67 76  2  0
 67 72  1  0
 68 64  1  0
 68 72  1  0
 69 68  1  0
 70 71  1  0
 70 69  1  0
 71 67  1  0
 72 73  2  0
 73 74  1  0
 75 74  2  0
 76 75  1  0
 77 51  1  0
 77 82  1  0
 77 78  1  0
 78 81  1  1
 78 79  1  0
 80 78  1  0
 82 85  1  0
 83 87  1  0
 83 82  1  0
 84 83  2  0
 87 86  1  0
 89 87  1  0
 89 90  1  0
 89 88  1  0
 91  2  1  0
 92 94  1  0
 92 93  1  0
 94 91  1  0
 94 93  1  0
M  ISO  4   9 100  17 100  49 101  50 101
M  END
>  <TORSDO>  (3) 
F 20

>  <SCORE>  (3) 
-12.788

>  <name>  (3) 
2

>  <ligand_id>  (3) 
2

>  <original_smiles>  (3) 
[H]c1c([H])c([H])c2c(c1[H])C([H])([H])C([H])([H])C([H])([H])C2([H])N([H])C(=O)C1([H])N(C(=O)C([H])(N([H])C(=O)C([H])(N([H])C([H])([H])[H])C([H])([H])[H])C(C([H])([H])[H])(C([H])([H])[H])C([H])([H])[H])C([H])([H])c2c([H])c(OC3([H])C([H])([H])C3([H])C(C([H])([H])[H])(C([H])([H])C3([H])C([H])([H])C3([H])[H])C3([H])C([H])([H])C([H])([H])C([H])(N([H])C(=O)N4C([H])([H])C([H])([H])C([H])([H])C([H])(n5nc(-c6c([H])c([H])c(Oc7c([H])c([H])c(F)c([H])c7F)c([H])c6[H])c(C(=O)N([H])[H])c5N([H])[H])C4([H])[H])C([H])([H])C3([H])[H])c([H])c([H])c2C1([H])[H]

>  <smiles>  (3) 
[H]c1c([H])c([H])c2c(c1[H])C([H])([H])C([H])([H])C([H])([H])C2([H])N([H])C(=O)C1([H])N(C(=O)C([H])(N([H])C(=O)C([H])(N([H])C([H])([H])[H])C([H])([H])[H])C(C([H])([H])[H])(C([H])([H])[H])C([H])([H])[H])C([H])([H])c2c([H])c(OC3([H])C([H])([H])C3([H])C(C([H])([H])[H])(C([H])([H])C3([H])C([H])([H])C3([H])[H])C3([H])C([H])([H])C([H])([H])C([H])(N([H])C(=O)N4C([H])([H])C([H])([H])C([H])([H])C([H])(n5nc(-c6c([H])c([H])c(Oc7c([H])c([H])c(F)c([H])c7F)c([H])c6[H])c(C(=O)N([H])[H])c5N([H])[H])C4([H])[H])C([H])([H])C3([H])[H])c([H])c([H])c2C1([H])[H]

$$$$
3:0:0
     RDKit          3D

 95100  0  0  1  0  0  0  0  0999 V2000
  -24.1470  -26.6560   21.5930 C   0  0  0  0  0  2  0  0  0  0  0  0
  -25.0210  -27.8350   21.9330 C   0  0  0  0  0  2  0  0  0  0  0  0
  -26.2640  -26.5760   22.1050 C   0  0  0  0  0  3  0  0  0  0  0  0
  -26.4400  -24.8740   21.7580 C   0  0  0  0  0  2  0  0  0  0  0  0
  -24.4710  -25.3740   20.9480 C   0  0  0  0  0  0  0  0  0  0  0  0
  -27.5050  -26.9150   22.9340 C   0  0  0  0  0  1  0  0  0  0  0  0
  -25.2080  -24.4360   21.5470 N   0  0  0  0  0  0  0  0  0  0  0  0
  -25.1950  -32.1710   21.1460 C   0  0  0  0  0  2  0  0  0  0  0  0
  -23.7010  -32.0030   21.0270 C   0  0  0  0  0  2  0  0  0  0  0  0
  -24.6230  -30.7470   20.8940 C   0  0  0  0  0  3  0  0  0  0  0  0
  -27.6470  -23.2370   21.5550 C   0  0  0  0  0 15  0  0  0  0  0  0
  -27.8710  -21.2030   20.8650 C   0  0  0  0  0 15  0  0  0  0  0  0
  -29.0840  -19.4270   20.6710 C   0  0  0  0  0 15  0  0  0  0  0  0
  -30.0680  -16.0980   20.1050 C   0  0  0  0  0  0  0  0  0  0  0  0
  -30.4290  -13.4610   19.2050 C   0  0  0  0  0  2  0  0  0  0  0  0
  -29.5900  -12.7860   18.0530 C   0  0  0  0  0  2  0  0  0  0  0  0
  -28.2190  -12.3160   18.5510 C   0  0  0  0  0  2  0  0  0  0  0  0
  -27.6550  -13.3600   19.5300 C   0  0  0  0  0  3  0  0  0  0  0  0
  -28.6390  -13.8390   20.6270 C   0  0  0  0  0  2  0  0  0  0  0  0
  -29.6960  -14.6330   19.9630 N   0  0  0  0  0  0  0  0  0  0  0  0
  -31.3010  -16.0480   19.8350 O   0  0  0  0  0  0  0  0  0  0  0  0
  -29.2020  -17.5040   20.3810 N   0  0  0  0  0  2  0  0  0  0  0  0
  -28.2620  -17.1560   20.5120 H   0  0  0  0  0  0  0  0  0  0  0  0
  -25.3630  -13.8890   20.4220 C   0  0  0  0  0  0  0  0  0  0  0  0
  -24.3160  -13.1150   20.8230 C   0  0  0  0  0  0  0  0  0  0  0  0
  -24.7550  -11.7580   20.7100 C   0  0  0  0  0  0  0  0  0  0  0  0
  -26.3670  -13.0080   20.0830 N   0  0  0  0  0  0  0  0  0  0  0  0
  -26.0250  -11.7150   20.3180 N   0  0  0  0  0  0  0  0  0  0  0  0
  -24.0130  -10.5050   20.8950 C   0  0  0  0  0  0  0  0  0  0  0  0
  -24.4280   -9.5300   21.8290 C   0  0  0  0  0  3  0  0  0  0  0  0
  -23.6790   -8.3460   22.0060 C   0  0  0  0  0  3  0  0  0  0  0  0
  -22.5030   -8.1300   21.2480 C   0  0  0  0  0  0  0  0  0  0  0  0
  -22.1100   -9.0940   20.3040 C   0  0  0  0  0  3  0  0  0  0  0  0
  -22.8580  -10.2680   20.1250 C   0  0  0  0  0  3  0  0  0  0  0  0
  -21.7270   -7.0000   21.3340 O   0  0  0  0  0  0  0  0  0  0  0  0
  -21.6020   -6.3000   22.5070 C   0  0  0  0  0  0  0  0  0  0  0  0
  -21.1160   -6.9040   23.6880 C   0  0  0  0  0  3  0  0  0  0  0  0
  -20.9370   -6.1300   24.8510 C   0  0  0  0  0  3  0  0  0  0  0  0
  -21.2340   -4.7550   24.8350 C   0  0  0  0  0  0  0  0  0  0  0  0
  -21.7120   -4.1500   23.6590 C   0  0  0  0  0  3  0  0  0  0  0  0
  -21.8930   -4.9210   22.4980 C   0  0  0  0  0  0  0  0  0  0  0  0
  -22.3350   -4.3300   21.3620 F   0  0  0  0  0  0  0  0  0  0  0  0
  -21.0550   -4.0090   25.9510 F   0  0  0  0  0  0  0  0  0  0  0  0
  -22.9510  -13.6110   21.1920 C   0  0  0  0  0  0  0  0  0  0  0  0
  -22.2660  -12.9040   22.0840 N   0  0  0  0  0  0  0  0  0  0  0  0
  -22.5070  -14.6600   20.7270 O   0  0  0  0  0  0  0  0  0  0  0  0
  -22.6440  -12.0560   22.4780 H   0  0  0  0  0  0  0  0  0  0  0  0
  -21.3510  -13.2160   22.3790 H   0  0  0  0  0  0  0  0  0  0  0  0
  -25.5410  -15.2620   20.2820 N   0  0  0  0  0  0  0  0  0  0  0  0
  -24.7820  -15.9170   20.4350 H   0  0  0  0  0  0  0  0  0  0  0  0
  -26.3430  -15.6860   19.8340 H   0  0  0  0  0  0  0  0  0  0  0  0
  -24.7720  -25.3350   19.5810 O   0  0  0  0  0  0  0  0  0  0  0  0
  -25.8510  -24.4860   18.9920 C   0  0  0  0  0  2  0  0  0  0  0  0
  -27.3990  -24.9690   18.7730 C   0  0  0  0  0  2  0  0  0  0  0  0
  -28.0720  -26.1220   19.4350 O   0  0  0  0  0  0  0  0  0  0  0  0
  -24.7640  -31.1010   23.8160 C   0  0  0  0  0  0  0  0  0  0  0  0
  -27.4310  -27.3120   19.2970 C   0  0  0  0  0  3  0  0  0  0  0  0
  -23.4630  -29.7690   21.9900 C   0  0  2  0  0  0  0  0  0  0  0  0
  -25.2130  -28.8270   19.5100 C   0  0  0  0  0  3  0  0  0  0  0  0
  -26.5090  -29.7230   22.1730 C   0  0  0  0  0  2  0  0  0  0  0  0
  -26.6140  -29.1120   20.4050 C   0  0  0  0  0  3  0  0  0  0  0  0
  -27.7060  -28.3630   20.1660 C   0  0  0  0  0  2  0  0  0  0  0  0
  -26.4020  -27.3700   18.3310 C   0  0  0  0  0  2  0  0  0  0  0  0
  -25.2220  -28.0460   18.4500 C   0  0  0  0  0  2  0  0  0  0  0  0
  -23.5390  -29.1960   20.1880 C   0  0  0  0  0  2  0  0  0  0  0  0
  -24.9240  -30.0670   22.8920 N   0  0  0  0  0  0  0  0  0  0  0  0
  -23.6490  -31.5380   24.1540 O   0  0  0  0  0  0  0  0  0  0  0  0
  -22.5610  -28.9820   22.7910 C   0  0  0  0  0  0  0  0  0  0  0  0
  -21.2840  -29.0520   22.4610 N   0  0  0  0  0  0  0  0  0  0  0  0
  -23.0480  -28.2810   23.6660 O   0  0  0  0  0  0  0  0  0  0  0  0
  -20.9690  -29.6780   21.7350 H   0  0  0  0  0  0  0  0  0  0  0  0
  -17.8480  -28.1870   22.5440 C   0  0  0  0  0  0  0  0  0  0  0  0
  -20.3480  -28.1200   23.0140 C   0  0  0  0  0  3  0  0  0  0  0  0
  -20.3740  -26.8080   22.2060 C   0  0  0  0  0  2  0  0  0  0  0  0
  -19.3760  -26.8140   21.0540 C   0  0  0  0  0  2  0  0  0  0  0  0
  -17.9660  -26.9750   21.6300 C   0  0  0  0  0  2  0  0  0  0  0  0
  -18.9860  -28.7590   23.1590 C   0  0  0  0  0  0  0  0  0  0  0  0
  -18.8550  -29.9240   23.9430 C   0  0  0  0  0  3  0  0  0  0  0  0
  -17.5920  -30.5030   24.1440 C   0  0  0  0  0  3  0  0  0  0  0  0
  -16.4540  -29.9080   23.5720 C   0  0  0  0  0  3  0  0  0  0  0  0
  -16.5820  -28.7550   22.7750 C   0  0  0  0  0  3  0  0  0  0  0  0
  -25.9890  -31.7860   24.4980 C   0  0  0  0  0  3  0  0  0  0  0  0
  -25.7430  -33.2350   24.7530 N   0  0  0  0  0  0  0  0  0  0  0  0
  -26.2960  -34.2880   24.1170 C   0  0  0  0  0  0  0  0  0  0  0  0
  -27.0940  -34.1610   23.1870 O   0  0  0  0  0  0  0  0  0  0  0  0
  -25.0570  -33.4380   25.4640 H   0  0  0  0  0  0  0  0  0  0  0  0
  -24.8210  -36.2980   23.6890 C   0  0  0  0  0  1  0  0  0  0  0  0
  -25.9140  -35.7120   24.5950 C   0  0  0  0  0  3  0  0  0  0  0  0
  -28.0270  -36.3490   25.6890 C   0  0  0  0  0  1  0  0  0  0  0  0
  -27.0530  -36.6590   24.6470 N   0  0  0  0  0  0  0  0  0  0  0  0
  -26.7240  -37.6090   24.7950 H   0  0  0  0  0  0  0  0  0  0  0  0
  -26.2960  -31.0410   25.8360 C   0  0  1  0  0  0  0  0  0  0  0  0
  -25.0530  -30.8990   26.7430 C   0  0  0  0  0  1  0  0  0  0  0  0
  -26.8450  -29.6240   25.5990 C   0  0  0  0  0  1  0  0  0  0  0  0
  -27.4050  -31.7810   26.6070 C   0  0  0  0  0  1  0  0  0  0  0  0
  1  2  1  0
  2  3  1  0
  3  6  1  0
  4  3  1  0
  5  7  2  3
  5  1  1  0
  7  4  1  0
  9  8  1  0
 10  9  1  0
 10  8  1  0
 58 10  1  1
 14 22  1  0
 15 20  1  0
 16 17  1  0
 16 15  1  0
 18 17  1  0
 18 27  1  0
 18 19  1  0
 20 14  1  0
 20 19  1  0
 21 14  2  0
 22 23  1  0
 24 25  2  0
 25 44  1  0
 26 25  1  0
 26 29  1  0
 27 28  1  0
 27 24  1  0
 28 26  2  0
 29 30  1  0
 30 31  2  0
 32 35  1  0
 32 31  1  0
 33 32  2  0
 34 33  1  0
 34 29  2  0
 35 36  1  0
 36 37  1  0
 37 38  2  0
 39 38  1  0
 39 43  1  0
 40 39  2  0
 41 36  2  0
 41 40  1  0
 42 41  1  0
 44 45  1  0
 45 48  1  0
 45 47  1  0
 46 44  2  0
 49 24  1  0
 49 50  1  0
 51 49  1  0
 52  5  1  0
 53 52  1  0
 54 53  1  0
 54 55  1  0
 56 67  2  0
 57 55  1  0
 57 62  1  0
 58 68  1  0
 58 66  1  0
 59 64  1  0
 59 65  1  0
 59 61  1  0
 60 66  1  0
 61 62  1  0
 61 60  1  0
 63 64  1  0
 63 57  1  0
 65 58  1  0
 66 56  1  0
 68 70  2  0
 69 68  1  0
 71 69  1  0
 72 81  2  0
 72 77  1  0
 73 69  1  0
 73 77  1  0
 74 73  1  0
 75 76  1  0
 75 74  1  0
 76 72  1  0
 77 78  2  0
 78 79  1  0
 80 79  2  0
 81 80  1  0
 82 56  1  0
 82 83  1  0
 82 92  1  0
 83 86  1  0
 84 88  1  0
 84 83  1  0
 85 84  2  0
 88 87  1  0
 88 90  1  0
 90 91  1  0
 90 89  1  0
 92 95  1  1
 92 93  1  0
 94 92  1  0
M  ISO  4  14 100  22 100  54 101  55 101
M  END
>  <TORSDO>  (4) 
F 23

>  <SCORE>  (4) 
-12.620

>  <name>  (4) 
3

>  <ligand_id>  (4) 
3

>  <original_smiles>  (4) 
[H]c1c([H])c([H])c2c(c1[H])C([H])([H])C([H])([H])C([H])([H])C2([H])N([H])C(=O)C1([H])N(C(=O)C([H])(N([H])C(=O)C([H])(N([H])C([H])([H])[H])C([H])([H])[H])C(C([H])([H])[H])(C([H])([H])[H])C([H])([H])[H])C([H])([H])c2c([H])c(OC([H])([H])C([H])([H])Oc3nc(C([H])([H])C([H])([H])C([H])([H])N([H])C(=O)N4C([H])([H])C([H])([H])C([H])([H])C([H])(n5nc(-c6c([H])c([H])c(Oc7c([H])c([H])c(F)c([H])c7F)c([H])c6[H])c(C(=O)N([H])[H])c5N([H])[H])C4([H])[H])c(C([H])([H])[H])c(C4([H])C([H])([H])C4([H])[H])c3[H])c([H])c([H])c2C1([H])[H]

>  <smiles>  (4) 
[H]c1c([H])c([H])c2c(c1[H])C([H])([H])C([H])([H])C([H])([H])C2([H])N([H])C(=O)C1([H])N(C(=O)C([H])(N([H])C(=O)C([H])(N([H])C([H])([H])[H])C([H])([H])[H])C(C([H])([H])[H])(C([H])([H])[H])C([H])([H])[H])C([H])([H])c2c([H])c(OC([H])([H])C([H])([H])Oc3nc(C([H])([H])C([H])([H])C([H])([H])N([H])C(=O)N4C([H])([H])C([H])([H])C([H])([H])C([H])(n5nc(-c6c([H])c([H])c(Oc7c([H])c([H])c(F)c([H])c7F)c([H])c6[H])c(C(=O)N([H])[H])c5N([H])[H])C4([H])[H])c(C([H])([H])[H])c(C4([H])C([H])([H])C4([H])[H])c3[H])c([H])c([H])c2C1([H])[H]

$$$$
4:0:0
     RDKit          3D

101110  0  0  1  0  0  0  0  0999 V2000
  -31.0210  -24.2640   17.9030 C   0  0  0  0  0  3  0  0  0  0  0  0
  -31.8700  -23.9910   18.9890 C   0  0  0  0  0  0  0  0  0  0  0  0
  -30.2550  -25.4440   17.8570 C   0  0  0  0  0  0  0  0  0  0  0  0
  -32.0490  -24.9740   19.9950 C   0  0  0  0  0  0  0  0  0  0  0  0
  -31.2480  -26.1540   19.9830 C   0  0  0  0  0  0  0  0  0  0  0  0
  -30.2950  -26.3610   18.9430 C   0  0  0  0  0  0  0  0  0  0  0  0
  -29.3890  -25.6780   16.6290 C   0  0  0  0  0  1  0  0  0  0  0  0
  -33.0780  -24.7450   21.1030 C   0  0  0  0  0  1  0  0  0  0  0  0
  -31.3890  -27.1980   21.0900 C   0  0  0  0  0  1  0  0  0  0  0  0
  -32.0030  -21.5030   19.2990 C   0  0  0  0  0  0  0  0  0  0  0  0
  -32.5760  -22.6990   19.0150 C   0  0  0  0  0  3  0  0  0  0  0  0
  -32.5480  -19.5330   20.7840 C   0  0  0  0  0  2  0  0  0  0  0  0
  -30.3380  -20.6630   21.0090 C   0  0  0  0  0  2  0  0  0  0  0  0
  -32.7650  -20.1790   19.3910 C   0  0  0  0  0  3  0  0  0  0  0  0
  -30.5210  -21.3500   19.6370 C   0  0  0  0  0  3  0  0  0  0  0  0
  -34.2670  -20.2830   19.0640 C   0  0  0  0  0  1  0  0  0  0  0  0
  -29.7340  -20.6750   18.4980 C   0  0  0  0  0  1  0  0  0  0  0  0
  -31.1160  -19.4050   21.1750 N   0  0  1  0  0  4  0  0  0  0  0  0
  -31.1370  -19.2780   22.1760 H   0  0  0  0  0  0  0  0  0  0  0  0
  -30.4360  -18.1670   20.7030 C   0  0  0  0  0  2  0  0  0  0  0  0
  -30.6820  -16.9880   21.6750 C   0  0  0  0  0  2  0  0  0  0  0  0
  -30.5200  -14.9280   20.2730 C   0  0  0  0  0  0  0  0  0  0  0  0
  -30.2780  -12.7700   19.1050 C   0  0  0  0  0  2  0  0  0  0  0  0
  -29.2540  -12.8590   17.9580 C   0  0  0  0  0  2  0  0  0  0  0  0
  -27.8310  -12.5890   18.4800 C   0  0  0  0  0  2  0  0  0  0  0  0
  -27.4880  -13.4360   19.7350 C   0  0  0  0  0  3  0  0  0  0  0  0
  -28.6160  -13.3430   20.7860 C   0  0  0  0  0  2  0  0  0  0  0  0
  -29.8890  -13.7310   20.1470 N   0  0  0  0  0  0  0  0  0  0  0  0
  -31.4760  -15.2730   19.5730 O   0  0  0  0  0  0  0  0  0  0  0  0
  -30.0670  -15.7270   21.2470 N   0  0  0  0  0  0  0  0  0  0  0  0
  -29.2880  -15.3820   21.7890 H   0  0  0  0  0  0  0  0  0  0  0  0
  -25.1090  -13.8550   20.6260 C   0  0  0  0  0  0  0  0  0  0  0  0
  -24.1210  -13.0010   21.0380 C   0  0  0  0  0  0  0  0  0  0  0  0
  -24.6660  -11.6840   20.9230 C   0  0  0  0  0  0  0  0  0  0  0  0
  -26.1920  -13.0560   20.2940 N   0  0  0  0  0  0  0  0  0  0  0  0
  -25.9320  -11.7430   20.5270 N   0  0  0  0  0  0  0  0  0  0  0  0
  -24.0390  -10.3700   21.1130 C   0  0  0  0  0  0  0  0  0  0  0  0
  -24.5090   -9.4630   22.0890 C   0  0  0  0  0  3  0  0  0  0  0  0
  -23.8780   -8.2120   22.2660 C   0  0  0  0  0  3  0  0  0  0  0  0
  -22.7630   -7.8600   21.4680 C   0  0  0  0  0  0  0  0  0  0  0  0
  -22.3150   -8.7570   20.4840 C   0  0  0  0  0  3  0  0  0  0  0  0
  -22.9470   -9.9990   20.3040 C   0  0  0  0  0  3  0  0  0  0  0  0
  -22.1040   -6.6580   21.5530 O   0  0  0  0  0  0  0  0  0  0  0  0
  -21.9810   -5.9860   22.7420 C   0  0  0  0  0  0  0  0  0  0  0  0
  -21.2910   -6.5410   23.8440 C   0  0  0  0  0  3  0  0  0  0  0  0
  -21.1280   -5.7860   25.0240 C   0  0  0  0  0  3  0  0  0  0  0  0
  -21.6450   -4.4800   25.1010 C   0  0  0  0  0  0  0  0  0  0  0  0
  -22.3270   -3.9240   24.0040 C   0  0  0  0  0  3  0  0  0  0  0  0
  -22.4910   -4.6750   22.8270 C   0  0  0  0  0  0  0  0  0  0  0  0
  -23.1300   -4.1280   21.7650 F   0  0  0  0  0  0  0  0  0  0  0  0
  -21.4830   -3.7520   26.2300 F   0  0  0  0  0  0  0  0  0  0  0  0
  -22.7190  -13.3730   21.4260 C   0  0  0  0  0  0  0  0  0  0  0  0
  -22.1030  -12.5990   22.3120 N   0  0  0  0  0  0  0  0  0  0  0  0
  -22.1780  -14.3830   20.9790 O   0  0  0  0  0  0  0  0  0  0  0  0
  -22.5520  -11.7780   22.6920 H   0  0  0  0  0  0  0  0  0  0  0  0
  -21.1660  -12.8260   22.6120 H   0  0  0  0  0  0  0  0  0  0  0  0
  -25.1710  -15.2390   20.4890 N   0  0  0  0  0  0  0  0  0  0  0  0
  -24.3760  -15.8390   20.6690 H   0  0  0  0  0  0  0  0  0  0  0  0
  -25.9760  -15.7410   20.1350 H   0  0  0  0  0  0  0  0  0  0  0  0
  -29.2940  -27.5300   18.9830 C   0  0  0  0  0  2  0  0  0  0  0  0
  -27.9680  -27.0430   18.7910 O   0  0  0  0  0  0  0  0  0  0  0  0
  -24.5990  -31.8050   22.9520 C   0  0  0  0  0  0  0  0  0  0  0  0
  -26.8680  -27.8200   19.0810 C   0  0  0  0  0  0  0  0  0  0  0  0
  -23.2020  -30.5970   21.3030 C   0  0  0  0  0  3  0  0  0  0  0  0
  -24.4790  -29.2540   19.5510 C   0  0  0  0  0  0  0  0  0  0  0  0
  -25.6820  -31.0140   20.8540 C   0  0  0  0  0  2  0  0  0  0  0  0
  -25.6960  -29.7290   20.0580 C   0  0  0  0  0  0  0  0  0  0  0  0
  -26.8950  -29.0210   19.8260 C   0  0  0  0  0  3  0  0  0  0  0  0
  -25.6340  -27.3500   18.5860 C   0  0  0  0  0  3  0  0  0  0  0  0
  -24.4400  -28.0590   18.8150 C   0  0  0  0  0  3  0  0  0  0  0  0
  -23.2460  -30.0820   19.8390 C   0  0  0  0  0  2  0  0  0  0  0  0
  -24.5190  -31.1440   21.7620 N   0  0  0  0  0  0  0  0  0  0  0  0
  -23.5910  -31.9990   23.6440 O   0  0  0  0  0  0  0  0  0  0  0  0
  -22.6630  -29.4630   22.2060 C   0  0  0  0  0  0  0  0  0  0  0  0
  -21.3400  -29.2390   22.1560 N   0  0  0  0  0  0  0  0  0  0  0  0
  -23.4290  -28.7930   22.9040 O   0  0  0  0  0  0  0  0  0  0  0  0
  -20.7800  -29.8350   21.5630 H   0  0  0  0  0  0  0  0  0  0  0  0
  -18.0660  -27.8180   22.7120 C   0  0  0  0  0  0  0  0  0  0  0  0
  -20.6170  -28.2000   22.8900 C   0  0  0  0  0  3  0  0  0  0  0  0
  -20.7670  -26.8250   22.2010 C   0  0  0  0  0  2  0  0  0  0  0  0
  -19.6380  -26.5170   21.2140 C   0  0  0  0  0  2  0  0  0  0  0  0
  -18.2810  -26.5360   21.9250 C   0  0  0  0  0  2  0  0  0  0  0  0
  -19.1610  -28.6080   23.1500 C   0  0  0  0  0  0  0  0  0  0  0  0
  -18.9060  -29.8100   23.8460 C   0  0  0  0  0  3  0  0  0  0  0  0
  -17.5850  -30.2220   24.1070 C   0  0  0  0  0  3  0  0  0  0  0  0
  -16.5050  -29.4270   23.6870 C   0  0  0  0  0  3  0  0  0  0  0  0
  -16.7450  -28.2280   22.9940 C   0  0  0  0  0  3  0  0  0  0  0  0
  -25.9550  -32.3650   23.4860 C   0  0  0  0  0  3  0  0  0  0  0  0
  -26.6410  -31.4240   24.5500 C   0  0  1  0  0  0  0  0  0  0  0  0
  -25.6870  -30.9590   25.6740 C   0  0  0  0  0  1  0  0  0  0  0  0
  -27.2200  -30.1620   23.8680 C   0  0  0  0  0  1  0  0  0  0  0  0
  -27.8330  -32.1580   25.2100 C   0  0  0  0  0  1  0  0  0  0  0  0
  -25.6900  -33.6920   24.0570 N   0  0  0  0  0  0  0  0  0  0  0  0
  -25.9800  -34.8520   23.4510 C   0  0  0  0  0  0  0  0  0  0  0  0
  -26.5730  -34.9130   22.3700 O   0  0  0  0  0  0  0  0  0  0  0  0
  -25.1610  -33.7160   24.9170 H   0  0  0  0  0  0  0  0  0  0  0  0
  -24.2540  -36.6780   23.5020 C   0  0  0  0  0  1  0  0  0  0  0  0
  -25.5410  -36.1490   24.1560 C   0  0  0  0  0  3  0  0  0  0  0  0
  -27.7330  -36.8890   24.9790 C   0  0  0  0  0  1  0  0  0  0  0  0
  -26.5760  -37.2050   24.1470 N   0  0  0  0  0  0  0  0  0  0  0  0
  -26.1900  -38.0890   24.4660 H   0  0  0  0  0  0  0  0  0  0  0  0
  1  2  1  0
  2 11  1  0
  2  4  2  0
  3  1  2  0
  3  6  1  0
  4  8  1  0
  5  4  1  0
  5  9  1  0
  6 60  1  0
  6  5  2  0
  7  3  1  0
 10 14  1  0
 10 15  1  0
 11 10  2  0
 12 18  1  0
 13 18  1  0
 14 16  1  0
 14 12  1  0
 15 17  1  0
 15 13  1  0
 18 19  1  1
 20 18  1  0
 20 21  1  0
 22 30  1  0
 23 28  1  0
 24 25  1  0
 24 23  1  0
 26 25  1  0
 26 35  1  0
 26 27  1  0
 28 22  1  0
 28 27  1  0
 29 22  2  0
 30 21  1  0
 30 31  1  0
 32 33  2  0
 33 52  1  0
 34 33  1  0
 34 37  1  0
 35 36  1  0
 35 32  1  0
 36 34  2  0
 37 38  1  0
 38 39  2  0
 40 43  1  0
 40 39  1  0
 41 40  2  0
 42 41  1  0
 42 37  2  0
 43 44  1  0
 44 49  2  0
 44 45  1  0
 45 46  2  0
 46 47  1  0
 47 51  1  0
 48 47  2  0
 49 48  1  0
 50 49  1  0
 52 53  1  0
 53 56  1  0
 53 55  1  0
 54 52  2  0
 57 32  1  0
 57 58  1  0
 59 57  1  0
 61 60  1  0
 61 63  1  0
 62 73  2  0
 63 68  1  0
 64 72  1  0
 64 74  1  0
 65 71  1  0
 65 67  1  0
 66 72  1  0
 67 66  1  0
 68 67  2  0
 69 70  1  0
 69 63  2  0
 70 65  2  0
 71 64  1  0
 72 62  1  0
 74 76  2  0
 75 74  1  0
 77 75  1  0
 78 87  2  0
 78 83  1  0
 79 75  1  0
 79 83  1  0
 80 79  1  0
 81 82  1  0
 81 80  1  0
 82 78  1  0
 83 84  2  0
 84 85  1  0
 86 85  2  0
 87 86  1  0
 88 62  1  0
 88 93  1  0
 88 89  1  0
 89 92  1  1
 89 90  1  0
 91 89  1  0
 93 96  1  0
 94 93  1  0
 94 98  1  0
 95 94  2  0
 98 97  1  0
100 98  1  0
100101  1  0
100 99  1  0
M  ISO  4  22 100  30 100  60 101  61 101
M  END
>  <TORSDO>  (5) 
F 20

>  <SCORE>  (5) 
-11.608

>  <name>  (5) 
4

>  <ligand_id>  (5) 
4

>  <original_smiles>  (5) 
[H]C(=C1C([H])(C([H])([H])[H])C([H])([H])[N+]([H])(C([H])([H])C([H])([H])N([H])C(=O)N2C([H])([H])C([H])([H])C([H])([H])C([H])(n3nc(-c4c([H])c([H])c(Oc5c([H])c([H])c(F)c([H])c5F)c([H])c4[H])c(C(=O)N([H])[H])c3N([H])[H])C2([H])[H])C([H])([H])C1([H])C([H])([H])[H])c1c([H])c(C([H])([H])[H])c(C([H])([H])Oc2c([H])c([H])c3c(c2[H])C([H])([H])N(C(=O)C([H])(N([H])C(=O)C([H])(N([H])C([H])([H])[H])C([H])([H])[H])C(C([H])([H])[H])(C([H])([H])[H])C([H])([H])[H])C([H])(C(=O)N([H])C2([H])c4c([H])c([H])c([H])c([H])c4C([H])([H])C([H])([H])C2([H])[H])C3([H])[H])c(C([H])([H])[H])c1C([H])([H])[H]

>  <smiles>  (5) 
[H]C(=C1C([H])(C([H])([H])[H])C([H])([H])[N+]([H])(C([H])([H])C([H])([H])N([H])C(=O)N2C([H])([H])C([H])([H])C([H])([H])C([H])(n3nc(-c4c([H])c([H])c(Oc5c([H])c([H])c(F)c([H])c5F)c([H])c4[H])c(C(=O)N([H])[H])c3N([H])[H])C2([H])[H])C([H])([H])C1([H])C([H])([H])[H])c1c([H])c(C([H])([H])[H])c(C([H])([H])Oc2c([H])c([H])c3c(c2[H])C([H])([H])N(C(=O)C([H])(N([H])C(=O)C([H])(N([H])C([H])([H])[H])C([H])([H])[H])C(C([H])([H])[H])(C([H])([H])[H])C([H])([H])[H])C([H])(C(=O)N([H])C2([H])c4c([H])c([H])c([H])c([H])c4C([H])([H])C([H])([H])C2([H])[H])C3([H])[H])c(C([H])([H])[H])c1C([H])([H])[H]

$$$$
5:0:0
     RDKit          3D

 95104  0  0  1  0  0  0  0  0999 V2000
  -31.1160  -20.4720   21.5780 C   0  0  0  0  0  3  0  0  0  0  0  0
  -31.2480  -19.0500   21.5880 C   0  0  0  0  0  3  0  0  0  0  0  0
  -29.7360  -20.3370   19.6320 C   0  0  0  0  0  3  0  0  0  0  0  0
  -30.3150  -21.1720   20.6340 C   0  0  0  0  0  0  0  0  0  0  0  0
  -30.5900  -18.2010   20.6530 C   0  0  0  0  0  0  0  0  0  0  0  0
  -29.8760  -18.8980   19.6250 C   0  0  0  0  0  0  0  0  0  0  0  0
  -28.6450  -23.3230   20.5340 C   0  0  0  0  0  2  0  0  0  0  0  0
  -31.0360  -23.7100   20.0410 C   0  0  0  0  0  2  0  0  0  0  0  0
  -28.4700  -24.8510   20.9230 C   0  0  0  0  0  2  0  0  0  0  0  0
  -30.8700  -25.2320   20.4360 C   0  0  0  0  0  2  0  0  0  0  0  0
  -30.0740  -22.7450   20.7950 C   0  0  0  0  0  3  0  0  0  0  0  0
  -29.4510  -25.8560   20.2280 C   0  0  0  0  0  3  0  0  0  0  0  0
  -29.4120  -27.2770   20.7000 O   0  0  0  0  0  0  0  0  0  0  0  0
  -25.3980  -32.2540   24.0910 C   0  0  0  0  0  0  0  0  0  0  0  0
  -28.2420  -28.0620   20.6990 C   0  0  0  0  0  0  0  0  0  0  0  0
  -24.2800  -30.9620   22.3050 C   0  0  0  0  0  3  0  0  0  0  0  0
  -25.8150  -29.5910   20.7830 C   0  0  0  0  0  0  0  0  0  0  0  0
  -26.8100  -31.3820   22.2100 C   0  0  0  0  0  2  0  0  0  0  0  0
  -26.9530  -30.0680   21.4440 C   0  0  0  0  0  0  0  0  0  0  0  0
  -28.1660  -29.3160   21.3920 C   0  0  0  0  0  3  0  0  0  0  0  0
  -27.0760  -27.6400   20.0240 C   0  0  0  0  0  3  0  0  0  0  0  0
  -25.8800  -28.3860   20.0660 C   0  0  0  0  0  3  0  0  0  0  0  0
  -24.5440  -30.4120   20.8780 C   0  0  0  0  0  2  0  0  0  0  0  0
  -25.5130  -31.5480   22.9260 N   0  0  0  0  0  0  0  0  0  0  0  0
  -24.2940  -32.4460   24.6220 O   0  0  0  0  0  0  0  0  0  0  0  0
  -23.6350  -29.8460   23.1600 C   0  0  0  0  0  0  0  0  0  0  0  0
  -22.3930  -29.4620   22.8160 N   0  0  0  0  0  0  0  0  0  0  0  0
  -24.2570  -29.3280   24.0900 O   0  0  0  0  0  0  0  0  0  0  0  0
  -21.9450  -29.9430   22.0490 H   0  0  0  0  0  0  0  0  0  0  0  0
  -19.2330  -27.7030   22.7280 C   0  0  0  0  0  0  0  0  0  0  0  0
  -21.6170  -28.3950   23.4500 C   0  0  0  0  0  3  0  0  0  0  0  0
  -22.0620  -27.0030   22.9450 C   0  0  0  0  0  2  0  0  0  0  0  0
  -21.2360  -26.5000   21.7560 C   0  0  0  0  0  2  0  0  0  0  0  0
  -19.7540  -26.4060   22.1330 C   0  0  0  0  0  2  0  0  0  0  0  0
  -20.1090  -28.6450   23.3310 C   0  0  0  0  0  0  0  0  0  0  0  0
  -19.5760  -29.8520   23.8340 C   0  0  0  0  0  3  0  0  0  0  0  0
  -18.1970  -30.1220   23.7470 C   0  0  0  0  0  3  0  0  0  0  0  0
  -17.3330  -29.1780   23.1640 C   0  0  0  0  0  3  0  0  0  0  0  0
  -17.8510  -27.9710   22.6610 C   0  0  0  0  0  3  0  0  0  0  0  0
  -26.6430  -32.8720   24.7990 C   0  0  0  0  0  3  0  0  0  0  0  0
  -26.3000  -34.2530   25.1710 N   0  0  0  0  0  0  0  0  0  0  0  0
  -26.5920  -35.3350   24.4390 C   0  0  0  0  0  0  0  0  0  0  0  0
  -27.2460  -35.2790   23.3940 O   0  0  0  0  0  0  0  0  0  0  0  0
  -25.7150  -34.3690   25.9870 H   0  0  0  0  0  0  0  0  0  0  0  0
  -24.7930  -37.0760   24.1880 C   0  0  0  0  0  1  0  0  0  0  0  0
  -26.0750  -36.6970   24.9450 C   0  0  0  0  0  3  0  0  0  0  0  0
  -28.2110  -37.6310   25.7170 C   0  0  0  0  0  1  0  0  0  0  0  0
  -27.0680  -37.7860   24.8230 N   0  0  0  0  0  0  0  0  0  0  0  0
  -26.6370  -38.6870   25.0130 H   0  0  0  0  0  0  0  0  0  0  0  0
  -27.1080  -32.0550   26.0670 C   0  0  1  0  0  0  0  0  0  0  0  0
  -25.9490  -31.6500   27.0080 C   0  0  0  0  0  1  0  0  0  0  0  0
  -27.8420  -30.7610   25.6450 C   0  0  0  0  0  1  0  0  0  0  0  0
  -28.1200  -32.8900   26.8850 C   0  0  0  0  0  1  0  0  0  0  0  0
  -30.5650  -16.3260   22.4250 C   0  0  0  0  0  1  0  0  0  0  0  0
  -30.4110  -16.6290   20.9200 C   0  0  0  0  0  3  0  0  0  0  0  0
  -31.1780  -15.4670   20.1190 C   0  0  0  0  0  0  0  0  0  0  0  0
  -31.0160  -13.2640   18.9190 C   0  0  0  0  0  2  0  0  0  0  0  0
  -30.0160  -13.4060   17.7470 C   0  0  0  0  0  2  0  0  0  0  0  0
  -28.5630  -13.1960   18.2180 C   0  0  0  0  0  2  0  0  0  0  0  0
  -28.2410  -13.9880   19.5140 C   0  0  0  0  0  3  0  0  0  0  0  0
  -29.3430  -13.7800   20.5710 C   0  0  0  0  0  2  0  0  0  0  0  0
  -30.6100  -14.2200   19.9710 N   0  0  0  0  0  0  0  0  0  0  0  0
  -32.2880  -15.6910   19.6230 O   0  0  0  0  0  0  0  0  0  0  0  0
  -25.8590  -14.5310   20.2980 C   0  0  0  0  0  0  0  0  0  0  0  0
  -24.8160  -13.7310   20.6800 C   0  0  0  0  0  0  0  0  0  0  0  0
  -25.3030  -12.3890   20.6130 C   0  0  0  0  0  0  0  0  0  0  0  0
  -26.9130  -13.6740   20.0270 N   0  0  0  0  0  0  0  0  0  0  0  0
  -26.5850  -12.3810   20.2730 N   0  0  0  0  0  0  0  0  0  0  0  0
  -24.6060  -11.1110   20.7970 C   0  0  0  0  0  0  0  0  0  0  0  0
  -24.9850  -10.2030   21.8100 C   0  0  0  0  0  3  0  0  0  0  0  0
  -24.2880   -8.9880   21.9790 C   0  0  0  0  0  3  0  0  0  0  0  0
  -23.1970   -8.6720   21.1350 C   0  0  0  0  0  0  0  0  0  0  0  0
  -22.8390   -9.5680   20.1140 C   0  0  0  0  0  3  0  0  0  0  0  0
  -23.5370  -10.7760   19.9430 C   0  0  0  0  0  3  0  0  0  0  0  0
  -22.4740   -7.5060   21.2110 O   0  0  0  0  0  0  0  0  0  0  0  0
  -22.1850   -6.9160   22.4150 C   0  0  0  0  0  0  0  0  0  0  0  0
  -21.4780   -7.5990   23.4290 C   0  0  0  0  0  3  0  0  0  0  0  0
  -21.1390   -6.9310   24.6220 C   0  0  0  0  0  3  0  0  0  0  0  0
  -21.5000   -5.5820   24.8010 C   0  0  0  0  0  0  0  0  0  0  0  0
  -22.1990   -4.9000   23.7900 C   0  0  0  0  0  3  0  0  0  0  0  0
  -22.5380   -5.5650   22.5990 C   0  0  0  0  0  0  0  0  0  0  0  0
  -23.1920   -4.8960   21.6180 F   0  0  0  0  0  0  0  0  0  0  0  0
  -21.1700   -4.9380   25.9460 F   0  0  0  0  0  0  0  0  0  0  0  0
  -23.4170  -14.1740   20.9910 C   0  0  0  0  0  0  0  0  0  0  0  0
  -22.7380  -13.4700   21.8910 N   0  0  0  0  0  0  0  0  0  0  0  0
  -22.9320  -15.1790   20.4700 O   0  0  0  0  0  0  0  0  0  0  0  0
  -23.1440  -12.6630   22.3390 H   0  0  0  0  0  0  0  0  0  0  0  0
  -21.7980  -13.7460   22.1390 H   0  0  0  0  0  0  0  0  0  0  0  0
  -25.9900  -15.9070   20.1420 N   0  0  0  0  0  0  0  0  0  0  0  0
  -25.2060  -16.5360   20.2750 H   0  0  0  0  0  0  0  0  0  0  0  0
  -26.8160  -16.3770   19.7860 H   0  0  0  0  0  0  0  0  0  0  0  0
  -29.2560  -18.1290   18.6640 O   0  0  0  0  0  0  0  0  0  0  0  0
  -28.7140  -18.8370   17.5530 C   0  0  0  0  0  2  0  0  0  0  0  0
  -27.9000  -18.4870   15.1400 C   0  0  0  0  0  1  0  0  0  0  0  0
  -28.4360  -17.8330   16.4190 C   0  0  0  0  0  2  0  0  0  0  0  0
  1  2  1  0
  3  4  1  0
  4  1  2  0
  5 55  1  0
  5  2  2  0
  6  3  2  0
  6  5  1  0
  7 11  1  0
  7  9  1  0
  8 10  1  0
  8 11  1  0
 11  4  1  0
 12 10  1  0
 12 13  1  0
 12  9  1  0
 14 25  2  0
 15 13  1  0
 15 20  1  0
 16 24  1  0
 16 26  1  0
 17 23  1  0
 17 19  1  0
 18 24  1  0
 19 18  1  0
 20 19  2  0
 21 22  1  0
 21 15  2  0
 22 17  2  0
 23 16  1  0
 24 14  1  0
 26 28  2  0
 27 26  1  0
 29 27  1  0
 30 35  1  0
 31 27  1  0
 32 31  1  0
 33 34  1  0
 33 32  1  0
 34 30  1  0
 35 31  1  0
 35 36  2  0
 37 36  1  0
 38 37  2  0
 39 30  2  0
 39 38  1  0
 40 14  1  0
 40 41  1  0
 40 50  1  0
 41 44  1  0
 42 46  1  0
 42 41  1  0
 43 42  2  0
 46 45  1  0
 48 46  1  0
 48 49  1  0
 48 47  1  0
 50 53  1  1
 50 51  1  0
 52 50  1  0
 55 54  1  0
 56 55  1  0
 57 62  1  0
 58 59  1  0
 58 57  1  0
 60 59  1  0
 60 67  1  0
 60 61  1  0
 62 56  1  0
 62 61  1  0
 63 56  2  0
 64 65  2  0
 65 84  1  0
 66 65  1  0
 66 69  1  0
 67 68  1  0
 67 64  1  0
 68 66  2  0
 69 70  1  0
 70 71  2  0
 72 75  1  0
 72 71  1  0
 73 72  2  0
 74 73  1  0
 74 69  2  0
 75 76  1  0
 76 81  2  0
 76 77  1  0
 77 78  2  0
 78 79  1  0
 79 83  1  0
 80 79  2  0
 81 80  1  0
 82 81  1  0
 84 85  1  0
 85 88  1  0
 85 87  1  0
 86 84  2  0
 89 90  1  0
 89 64  1  0
 91 89  1  0
 92  6  1  0
 93 92  1  0
 94 95  1  0
 95 93  1  0
M  ISO  4  12 101  13 101  55 100  56 100
M  END
>  <TORSDO>  (6) 
F 21

>  <SCORE>  (6) 
-8.988

>  <name>  (6) 
5

>  <ligand_id>  (6) 
5

>  <original_smiles>  (6) 
[H]c1c([H])c([H])c2c(c1[H])C([H])([H])C([H])([H])C([H])([H])C2([H])N([H])C(=O)C1([H])N(C(=O)C([H])(N([H])C(=O)C([H])(N([H])C([H])([H])[H])C([H])([H])[H])C(C([H])([H])[H])(C([H])([H])[H])C([H])([H])[H])C([H])([H])c2c([H])c(OC3([H])C([H])([H])C([H])([H])C([H])(c4c([H])c([H])c(C([H])(C(=O)N5C([H])([H])C([H])([H])C([H])([H])C([H])(n6nc(-c7c([H])c([H])c(Oc8c([H])c([H])c(F)c([H])c8F)c([H])c7[H])c(C(=O)N([H])[H])c6N([H])[H])C5([H])[H])C([H])([H])[H])c(OC([H])([H])C([H])([H])C([H])([H])[H])c4[H])C([H])([H])C3([H])[H])c([H])c([H])c2C1([H])[H]

>  <smiles>  (6) 
[H]c1c([H])c([H])c2c(c1[H])C([H])([H])C([H])([H])C([H])([H])C2([H])N([H])C(=O)C1([H])N(C(=O)C([H])(N([H])C(=O)C([H])(N([H])C([H])([H])[H])C([H])([H])[H])C(C([H])([H])[H])(C([H])([H])[H])C([H])([H])[H])C([H])([H])c2c([H])c(OC3([H])C([H])([H])C([H])([H])C([H])(c4c([H])c([H])c(C([H])(C(=O)N5C([H])([H])C([H])([H])C([H])([H])C([H])(n6nc(-c7c([H])c([H])c(Oc8c([H])c([H])c(F)c([H])c8F)c([H])c7[H])c(C(=O)N([H])[H])c6N([H])[H])C5([H])[H])C([H])([H])[H])c(OC([H])([H])C([H])([H])C([H])([H])[H])c4[H])C([H])([H])C3([H])[H])c([H])c([H])c2C1([H])[H]

$$$$
6:0:0
     RDKit          3D

 92101  0  0  1  0  0  0  0  0999 V2000
  -27.8880  -22.8650   20.8500 C   0  0  0  0  0  2  0  0  0  0  0  0
  -27.4330  -24.3370   21.0220 C   0  0  0  0  0  2  0  0  0  0  0  0
  -29.6510  -24.3790   20.1630 C   0  0  0  0  0  2  0  0  0  0  0  0
  -29.4200  -22.9260   20.7450 C   0  0  0  0  0  3  0  0  0  0  0  0
  -28.2850  -25.1300   20.0180 C   0  0  0  0  0  3  0  0  0  0  0  0
  -31.7090  -21.9240   20.2500 C   0  0  0  0  0  1  0  0  0  0  0  0
  -30.1900  -21.7480   20.0010 C   0  0  0  0  0  3  0  0  0  0  0  0
  -30.0180  -19.5010   21.5260 C   0  0  0  0  0  2  0  0  0  0  0  0
  -30.3450  -19.3080   19.0190 C   0  0  0  0  0  2  0  0  0  0  0  0
  -30.4730  -17.9920   21.4550 C   0  0  0  0  0  2  0  0  0  0  0  0
  -29.8900  -17.8060   18.9930 C   0  0  0  0  0  2  0  0  0  0  0  0
  -29.7540  -20.2110   20.1520 C   0  0  0  0  0  3  0  0  0  0  0  0
  -29.6920  -17.1730   20.3970 C   0  0  0  0  0  3  0  0  0  0  0  0
  -30.5660  -14.6680   20.0690 C   0  0  0  0  0  0  0  0  0  0  0  0
  -30.3140  -12.4750   18.9340 C   0  0  0  0  0  2  0  0  0  0  0  0
  -29.3000  -12.6700   17.7840 C   0  0  0  0  0  2  0  0  0  0  0  0
  -27.8490  -12.4960   18.2850 C   0  0  0  0  0  2  0  0  0  0  0  0
  -27.5680  -13.3000   19.5820 C   0  0  0  0  0  3  0  0  0  0  0  0
  -28.6880  -13.0790   20.6260 C   0  0  0  0  0  2  0  0  0  0  0  0
  -29.9680  -13.4400   19.9950 N   0  0  0  0  0  0  0  0  0  0  0  0
  -31.6860  -14.8800   19.5980 O   0  0  0  0  0  0  0  0  0  0  0  0
  -29.7410  -15.6720   20.5020 N   0  0  0  0  0  0  0  0  0  0  0  0
  -28.8820  -15.2920   20.8700 H   0  0  0  0  0  0  0  0  0  0  0  0
  -25.2160  -13.8890   20.4360 C   0  0  0  0  0  0  0  0  0  0  0  0
  -24.1710  -13.1090   20.8470 C   0  0  0  0  0  0  0  0  0  0  0  0
  -24.6260  -11.7590   20.7620 C   0  0  0  0  0  0  0  0  0  0  0  0
  -26.2450  -13.0140   20.1290 N   0  0  0  0  0  0  0  0  0  0  0  0
  -25.8980  -11.7260   20.3830 N   0  0  0  0  0  0  0  0  0  0  0  0
  -23.9080  -10.4950   20.9640 C   0  0  0  0  0  0  0  0  0  0  0  0
  -24.3680   -9.5240   21.8820 C   0  0  0  0  0  3  0  0  0  0  0  0
  -23.6530   -8.3230   22.0720 C   0  0  0  0  0  3  0  0  0  0  0  0
  -22.4620   -8.0840   21.3490 C   0  0  0  0  0  0  0  0  0  0  0  0
  -22.0200   -9.0410   20.4180 C   0  0  0  0  0  3  0  0  0  0  0  0
  -22.7360  -10.2350   20.2250 C   0  0  0  0  0  3  0  0  0  0  0  0
  -21.7120   -6.9380   21.4510 O   0  0  0  0  0  0  0  0  0  0  0  0
  -21.6650   -6.2070   22.6100 C   0  0  0  0  0  0  0  0  0  0  0  0
  -21.2280   -6.7710   23.8300 C   0  0  0  0  0  3  0  0  0  0  0  0
  -21.1350   -5.9670   24.9840 C   0  0  0  0  0  3  0  0  0  0  0  0
  -21.4660   -4.5990   24.9190 C   0  0  0  0  0  0  0  0  0  0  0  0
  -21.8920   -4.0350   23.7030 C   0  0  0  0  0  3  0  0  0  0  0  0
  -21.9900   -4.8370   22.5530 C   0  0  0  0  0  0  0  0  0  0  0  0
  -22.3850   -4.2820   21.3810 F   0  0  0  0  0  0  0  0  0  0  0  0
  -21.3640   -3.8250   26.0240 F   0  0  0  0  0  0  0  0  0  0  0  0
  -22.7920  -13.5790   21.2090 C   0  0  0  0  0  0  0  0  0  0  0  0
  -22.1100  -12.8680   22.1010 N   0  0  0  0  0  0  0  0  0  0  0  0
  -22.3290  -14.6160   20.7350 O   0  0  0  0  0  0  0  0  0  0  0  0
  -22.4990  -12.0300   22.5040 H   0  0  0  0  0  0  0  0  0  0  0  0
  -21.1840  -13.1680   22.3770 H   0  0  0  0  0  0  0  0  0  0  0  0
  -25.3690  -15.2630   20.2790 N   0  0  0  0  0  0  0  0  0  0  0  0
  -24.5920  -15.9000   20.4240 H   0  0  0  0  0  0  0  0  0  0  0  0
  -26.1870  -15.7190   19.8980 H   0  0  0  0  0  0  0  0  0  0  0  0
  -28.3460  -26.5890   20.1960 O   0  0  0  0  0  0  0  0  0  0  0  0
  -24.5840  -31.8770   23.2190 C   0  0  0  0  0  0  0  0  0  0  0  0
  -27.1900  -27.3740   20.1240 C   0  0  0  0  0  0  0  0  0  0  0  0
  -23.3650  -30.4910   21.5700 C   0  0  0  0  0  3  0  0  0  0  0  0
  -24.8100  -28.9500   20.1240 C   0  0  0  0  0  0  0  0  0  0  0  0
  -25.8970  -30.8230   21.3710 C   0  0  0  0  0  2  0  0  0  0  0  0
  -25.9750  -29.4500   20.7180 C   0  0  0  0  0  0  0  0  0  0  0  0
  -27.1640  -28.6730   20.7100 C   0  0  0  0  0  3  0  0  0  0  0  0
  -26.0060  -26.9180   19.4990 C   0  0  0  0  0  3  0  0  0  0  0  0
  -24.8250  -27.6890   19.5050 C   0  0  0  0  0  3  0  0  0  0  0  0
  -23.5700  -29.8190   20.1850 C   0  0  0  0  0  2  0  0  0  0  0  0
  -24.6340  -31.0810   22.1120 N   0  0  0  0  0  0  0  0  0  0  0  0
  -23.5070  -32.1500   23.7690 O   0  0  0  0  0  0  0  0  0  0  0  0
  -22.7100  -29.4700   22.5290 C   0  0  0  0  0  0  0  0  0  0  0  0
  -21.3840  -29.2870   22.4040 N   0  0  0  0  0  0  0  0  0  0  0  0
  -23.3930  -28.8430   23.3440 O   0  0  0  0  0  0  0  0  0  0  0  0
  -20.8920  -29.8520   21.7260 H   0  0  0  0  0  0  0  0  0  0  0  0
  -18.0160  -28.0670   22.8910 C   0  0  0  0  0  0  0  0  0  0  0  0
  -20.5710  -28.3440   23.1720 C   0  0  0  0  0  3  0  0  0  0  0  0
  -20.6840  -26.9120   22.6000 C   0  0  0  0  0  2  0  0  0  0  0  0
  -19.5920  -26.5800   21.5800 C   0  0  0  0  0  2  0  0  0  0  0  0
  -18.2060  -26.7170   22.2170 C   0  0  0  0  0  2  0  0  0  0  0  0
  -19.1270  -28.8370   23.3250 C   0  0  0  0  0  0  0  0  0  0  0  0
  -18.8980  -30.0970   23.9170 C   0  0  0  0  0  3  0  0  0  0  0  0
  -17.5890  -30.5890   24.0780 C   0  0  0  0  0  3  0  0  0  0  0  0
  -16.4920  -29.8180   23.6610 C   0  0  0  0  0  3  0  0  0  0  0  0
  -16.7060  -28.5560   23.0730 C   0  0  0  0  0  3  0  0  0  0  0  0
  -25.8750  -32.5000   23.8370 C   0  0  0  0  0  3  0  0  0  0  0  0
  -25.5740  -33.8980   24.1770 N   0  0  0  0  0  0  0  0  0  0  0  0
  -25.8960  -34.9530   23.4180 C   0  0  0  0  0  0  0  0  0  0  0  0
  -26.5520  -34.8530   22.3780 O   0  0  0  0  0  0  0  0  0  0  0  0
  -24.9950  -34.0470   24.9910 H   0  0  0  0  0  0  0  0  0  0  0  0
  -24.1680  -36.7550   23.0890 C   0  0  0  0  0  1  0  0  0  0  0  0
  -25.4150  -36.3410   23.8890 C   0  0  0  0  0  3  0  0  0  0  0  0
  -27.5600  -37.2190   24.7010 C   0  0  0  0  0  1  0  0  0  0  0  0
  -26.4480  -37.3940   23.7710 N   0  0  0  0  0  0  0  0  0  0  0  0
  -26.0450  -38.3140   23.9300 H   0  0  0  0  0  0  0  0  0  0  0  0
  -26.3960  -31.7200   25.1060 C   0  0  1  0  0  0  0  0  0  0  0  0
  -25.3090  -31.4800   26.1800 C   0  0  0  0  0  1  0  0  0  0  0  0
  -26.9710  -30.3420   24.7040 C   0  0  0  0  0  1  0  0  0  0  0  0
  -27.5530  -32.5040   25.7680 C   0  0  0  0  0  1  0  0  0  0  0  0
  1  2  1  0
  3  4  1  0
  4  7  1  0
  4  1  1  0
  5  3  1  0
  5 52  1  0
  5  2  1  0
  7  6  1  0
  9 12  1  0
 10  8  1  0
 11  9  1  0
 11 13  1  0
 12  7  1  0
 12  8  1  0
 13 22  1  0
 13 10  1  0
 14 22  1  0
 15 20  1  0
 16 17  1  0
 16 15  1  0
 18 17  1  0
 18 27  1  0
 18 19  1  0
 20 14  1  0
 20 19  1  0
 21 14  2  0
 22 23  1  0
 24 25  2  0
 25 44  1  0
 26 25  1  0
 26 29  1  0
 27 28  1  0
 27 24  1  0
 28 26  2  0
 29 30  1  0
 30 31  2  0
 32 35  1  0
 32 31  1  0
 33 32  2  0
 34 33  1  0
 34 29  2  0
 35 36  1  0
 36 37  1  0
 37 38  2  0
 39 38  1  0
 39 43  1  0
 40 39  2  0
 41 36  2  0
 41 40  1  0
 42 41  1  0
 44 45  1  0
 45 48  1  0
 45 47  1  0
 46 44  2  0
 49 50  1  0
 49 24  1  0
 51 49  1  0
 53 64  2  0
 54 52  1  0
 54 59  1  0
 55 63  1  0
 55 65  1  0
 56 62  1  0
 56 58  1  0
 57 63  1  0
 58 57  1  0
 59 58  2  0
 60 61  1  0
 60 54  2  0
 61 56  2  0
 62 55  1  0
 63 53  1  0
 65 67  2  0
 66 65  1  0
 68 66  1  0
 69 78  2  0
 69 74  1  0
 70 66  1  0
 70 74  1  0
 71 70  1  0
 72 73  1  0
 72 71  1  0
 73 69  1  0
 74 75  2  0
 75 76  1  0
 77 76  2  0
 78 77  1  0
 79 53  1  0
 79 80  1  0
 79 89  1  0
 80 83  1  0
 81 85  1  0
 81 80  1  0
 82 81  2  0
 85 84  1  0
 87 85  1  0
 87 88  1  0
 87 86  1  0
 89 92  1  1
 89 90  1  0
 91 89  1  0
M  ISO  4   5 101  14 100  22 100  52 101
M  END
>  <TORSDO>  (7) 
F 18

>  <SCORE>  (7) 
-14.554

>  <name>  (7) 
6

>  <ligand_id>  (7) 
6

>  <original_smiles>  (7) 
[H]c1c([H])c([H])c2c(c1[H])C([H])([H])C([H])([H])C([H])([H])C2([H])N([H])C(=O)C1([H])N(C(=O)C([H])(N([H])C(=O)C([H])(N([H])C([H])([H])[H])C([H])([H])[H])C(C([H])([H])[H])(C([H])([H])[H])C([H])([H])[H])C([H])([H])c2c([H])c(OC3([H])C([H])([H])C([H])([H])C([H])(C([H])(C([H])([H])[H])C4([H])C([H])([H])C([H])([H])C([H])(N([H])C(=O)N5C([H])([H])C([H])([H])C([H])([H])C([H])(n6nc(-c7c([H])c([H])c(Oc8c([H])c([H])c(F)c([H])c8F)c([H])c7[H])c(C(=O)N([H])[H])c6N([H])[H])C5([H])[H])C([H])([H])C4([H])[H])C3([H])[H])c([H])c([H])c2C1([H])[H]

>  <smiles>  (7) 
[H]c1c([H])c([H])c2c(c1[H])C([H])([H])C([H])([H])C([H])([H])C2([H])N([H])C(=O)C1([H])N(C(=O)C([H])(N([H])C(=O)C([H])(N([H])C([H])([H])[H])C([H])([H])[H])C(C([H])([H])[H])(C([H])([H])[H])C([H])([H])[H])C([H])([H])c2c([H])c(OC3([H])C([H])([H])C([H])([H])C([H])(C([H])(C([H])([H])[H])C4([H])C([H])([H])C([H])([H])C([H])(N([H])C(=O)N5C([H])([H])C([H])([H])C([H])([H])C([H])(n6nc(-c7c([H])c([H])c(Oc8c([H])c([H])c(F)c([H])c8F)c([H])c7[H])c(C(=O)N([H])[H])c6N([H])[H])C5([H])[H])C([H])([H])C4([H])[H])C3([H])[H])c([H])c([H])c2C1([H])[H]

$$$$
7:0:0
     RDKit          3D

 95104  0  0  1  0  0  0  0  0999 V2000
  -31.0140  -22.3630   19.3580 C   0  0  0  0  0  3  0  0  0  0  0  0
  -28.8570  -21.7160   20.2320 C   0  0  0  0  0  3  0  0  0  0  0  0
  -30.7090  -20.0930   20.2740 C   0  0  0  0  0  0  0  0  0  0  0  0
  -31.5350  -21.0910   19.6790 C   0  0  0  0  0  0  0  0  0  0  0  0
  -29.3600  -20.4430   20.5820 C   0  0  0  0  0  0  0  0  0  0  0  0
  -29.6640  -22.6870   19.6170 C   0  0  0  0  0  0  0  0  0  0  0  0
  -33.0090  -20.8560   19.3860 C   0  0  0  0  0  1  0  0  0  0  0  0
  -28.4100  -19.5160   21.3260 C   0  0  0  0  0  1  0  0  0  0  0  0
  -31.6840  -17.6570   19.5720 C   0  0  0  0  0  2  0  0  0  0  0  0
  -30.5230  -17.5480   21.2740 C   0  0  0  0  0  2  0  0  0  0  0  0
  -31.3080  -18.7170   20.6380 C   0  0  0  0  0  3  0  0  0  0  0  0
  -31.5350  -16.5670   20.6500 C   0  0  2  0  0  0  0  0  0  0  0  0
  -32.7610  -16.1720   21.4850 C   0  0  0  0  0  1  0  0  0  0  0  0
  -31.2430  -14.4550   19.2640 C   0  0  0  0  0  0  0  0  0  0  0  0
  -30.6480  -12.3310   18.1460 C   0  0  0  0  0  2  0  0  0  0  0  0
  -29.5320  -12.5570   17.1090 C   0  0  0  0  0  2  0  0  0  0  0  0
  -28.1420  -12.4790   17.7720 C   0  0  0  0  0  2  0  0  0  0  0  0
  -28.0460  -13.3500   19.0540 C   0  0  0  0  0  3  0  0  0  0  0  0
  -29.2490  -13.0850   19.9830 C   0  0  0  0  0  2  0  0  0  0  0  0
  -30.4840  -13.3300   19.2120 N   0  0  0  0  0  0  0  0  0  0  0  0
  -32.2090  -14.6540   18.5200 O   0  0  0  0  0  0  0  0  0  0  0  0
  -30.8560  -15.3460   20.1930 N   0  0  0  0  0  0  0  0  0  0  0  0
  -30.0350  -15.0740   20.7130 H   0  0  0  0  0  0  0  0  0  0  0  0
  -25.8700  -14.0840   20.2180 C   0  0  0  0  0  0  0  0  0  0  0  0
  -24.8180  -13.3690   20.7240 C   0  0  0  0  0  0  0  0  0  0  0  0
  -25.1440  -11.9920   20.5250 C   0  0  0  0  0  0  0  0  0  0  0  0
  -26.7750  -13.1450   19.7470 N   0  0  0  0  0  0  0  0  0  0  0  0
  -26.3500  -11.8780   19.9840 N   0  0  0  0  0  0  0  0  0  0  0  0
  -24.3540  -10.7780   20.7630 C   0  0  0  0  0  0  0  0  0  0  0  0
  -24.7750   -9.7920   21.6800 C   0  0  0  0  0  3  0  0  0  0  0  0
  -23.9900   -8.6410   21.9060 C   0  0  0  0  0  3  0  0  0  0  0  0
  -22.7670   -8.4700   21.2140 C   0  0  0  0  0  0  0  0  0  0  0  0
  -22.3630   -9.4440   20.2840 C   0  0  0  0  0  3  0  0  0  0  0  0
  -23.1500  -10.5860   20.0570 C   0  0  0  0  0  3  0  0  0  0  0  0
  -21.9500   -7.3730   21.3480 O   0  0  0  0  0  0  0  0  0  0  0  0
  -21.8320   -6.7060   22.5410 C   0  0  0  0  0  0  0  0  0  0  0  0
  -21.3500   -7.3420   23.7060 C   0  0  0  0  0  3  0  0  0  0  0  0
  -21.1810   -6.6010   24.8920 C   0  0  0  0  0  3  0  0  0  0  0  0
  -21.4810   -5.2270   24.9150 C   0  0  0  0  0  0  0  0  0  0  0  0
  -21.9550   -4.5900   23.7530 C   0  0  0  0  0  3  0  0  0  0  0  0
  -22.1260   -5.3280   22.5690 C   0  0  0  0  0  0  0  0  0  0  0  0
  -22.5640   -4.7050   21.4480 F   0  0  0  0  0  0  0  0  0  0  0  0
  -21.3090   -4.5140   26.0520 F   0  0  0  0  0  0  0  0  0  0  0  0
  -23.5380  -13.9280   21.2780 C   0  0  0  0  0  0  0  0  0  0  0  0
  -22.9300  -13.2360   22.2350 N   0  0  0  0  0  0  0  0  0  0  0  0
  -23.0940  -15.0100   20.8950 O   0  0  0  0  0  0  0  0  0  0  0  0
  -23.3040  -12.3570   22.5640 H   0  0  0  0  0  0  0  0  0  0  0  0
  -22.0790  -13.5880   22.6470 H   0  0  0  0  0  0  0  0  0  0  0  0
  -26.1240  -15.4480   20.1020 N   0  0  0  0  0  0  0  0  0  0  0  0
  -25.4550  -16.1540   20.3880 H   0  0  0  0  0  0  0  0  0  0  0  0
  -26.9480  -15.8400   19.6630 H   0  0  0  0  0  0  0  0  0  0  0  0
  -29.0780  -23.9010   19.3180 O   0  0  0  0  0  0  0  0  0  0  0  0
  -29.9010  -24.9390   18.7900 C   0  0  0  0  0  2  0  0  0  0  0  0
  -29.0350  -26.1520   18.4210 C   0  0  0  0  0  2  0  0  0  0  0  0
  -28.6700  -26.8810   19.5960 O   0  0  0  0  0  0  0  0  0  0  0  0
  -24.7340  -31.6650   23.0660 C   0  0  0  0  0  0  0  0  0  0  0  0
  -27.4510  -27.5230   19.6460 C   0  0  0  0  0  0  0  0  0  0  0  0
  -23.5340  -30.3280   21.3660 C   0  0  0  0  0  3  0  0  0  0  0  0
  -24.9990  -28.9260   19.8220 C   0  0  0  0  0  0  0  0  0  0  0  0
  -26.0380  -30.7820   21.1360 C   0  0  0  0  0  2  0  0  0  0  0  0
  -26.1510  -29.4530   20.4170 C   0  0  0  0  0  0  0  0  0  0  0  0
  -27.3740  -28.7520   20.3370 C   0  0  0  0  0  3  0  0  0  0  0  0
  -26.2700  -26.9900   19.0760 C   0  0  0  0  0  3  0  0  0  0  0  0
  -25.0510  -27.6880   19.1580 C   0  0  0  0  0  3  0  0  0  0  0  0
  -23.7310  -29.7370   19.9450 C   0  0  0  0  0  2  0  0  0  0  0  0
  -24.7880  -30.9370   21.9160 N   0  0  0  0  0  0  0  0  0  0  0  0
  -23.6580  -31.8700   23.6430 O   0  0  0  0  0  0  0  0  0  0  0  0
  -22.9360  -29.2310   22.2770 C   0  0  0  0  0  0  0  0  0  0  0  0
  -21.6220  -28.9910   22.1400 N   0  0  0  0  0  0  0  0  0  0  0  0
  -23.6510  -28.6010   23.0610 O   0  0  0  0  0  0  0  0  0  0  0  0
  -21.1040  -29.5580   21.4830 H   0  0  0  0  0  0  0  0  0  0  0  0
  -18.3150  -27.6020   22.5640 C   0  0  0  0  0  0  0  0  0  0  0  0
  -20.8530  -27.9770   22.8620 C   0  0  0  0  0  3  0  0  0  0  0  0
  -21.0330  -26.5810   22.2220 C   0  0  0  0  0  2  0  0  0  0  0  0
  -19.9520  -26.2480   21.1890 C   0  0  0  0  0  2  0  0  0  0  0  0
  -18.5620  -26.2950   21.8300 C   0  0  0  0  0  2  0  0  0  0  0  0
  -19.3910  -28.3990   23.0350 C   0  0  0  0  0  0  0  0  0  0  0  0
  -19.1050  -29.6230   23.6800 C   0  0  0  0  0  3  0  0  0  0  0  0
  -17.7760  -30.0500   23.8560 C   0  0  0  0  0  3  0  0  0  0  0  0
  -16.7140  -29.2510   23.4000 C   0  0  0  0  0  3  0  0  0  0  0  0
  -16.9840  -28.0270   22.7630 C   0  0  0  0  0  3  0  0  0  0  0  0
  -26.0150  -32.2970   23.6970 C   0  0  0  0  0  3  0  0  0  0  0  0
  -26.5590  -31.4920   24.9400 C   0  0  1  0  0  0  0  0  0  0  0  0
  -25.4750  -31.1710   25.9970 C   0  0  0  0  0  1  0  0  0  0  0  0
  -27.1850  -30.1520   24.4880 C   0  0  0  0  0  1  0  0  0  0  0  0
  -27.6820  -32.2960   25.6370 C   0  0  0  0  0  1  0  0  0  0  0  0
  -25.6860  -33.6780   24.0740 N   0  0  0  0  0  0  0  0  0  0  0  0
  -26.0060  -34.7590   23.3520 C   0  0  0  0  0  0  0  0  0  0  0  0
  -26.6830  -34.7000   22.3220 O   0  0  0  0  0  0  0  0  0  0  0  0
  -25.0830  -33.7970   24.8750 H   0  0  0  0  0  0  0  0  0  0  0  0
  -24.2590  -36.5410   23.0420 C   0  0  0  0  0  1  0  0  0  0  0  0
  -25.4980  -36.1230   23.8530 C   0  0  0  0  0  3  0  0  0  0  0  0
  -27.6050  -37.0070   24.7530 C   0  0  0  0  0  1  0  0  0  0  0  0
  -26.5180  -37.1920   23.7930 N   0  0  0  0  0  0  0  0  0  0  0  0
  -26.0970  -38.1020   23.9620 H   0  0  0  0  0  0  0  0  0  0  0  0
  1  6  2  0
  1  4  1  0
  2  5  2  0
  3  5  1  0
  4  3  2  0
  5  8  1  0
  6  2  1  0
  7  4  1  0
  9 11  1  0
  9 12  1  0
 11  3  1  0
 11 10  1  0
 12 10  1  0
 12 13  1  1
 14 22  1  0
 15 20  1  0
 16 17  1  0
 16 15  1  0
 18 17  1  0
 18 27  1  0
 18 19  1  0
 20 14  1  0
 20 19  1  0
 21 14  2  0
 22 12  1  0
 22 23  1  0
 24 25  2  0
 25 44  1  0
 26 25  1  0
 26 29  1  0
 27 28  1  0
 27 24  1  0
 28 26  2  0
 29 30  1  0
 30 31  2  0
 32 35  1  0
 32 31  1  0
 33 32  2  0
 34 33  1  0
 34 29  2  0
 35 36  1  0
 36 41  2  0
 36 37  1  0
 37 38  2  0
 38 39  1  0
 39 43  1  0
 40 39  2  0
 41 40  1  0
 42 41  1  0
 44 45  1  0
 45 47  1  0
 45 48  1  0
 46 44  2  0
 49 24  1  0
 49 50  1  0
 51 49  1  0
 52  6  1  0
 53 52  1  0
 54 53  1  0
 54 55  1  0
 55 57  1  0
 56 67  2  0
 57 62  1  0
 58 66  1  0
 58 68  1  0
 59 65  1  0
 59 61  1  0
 60 66  1  0
 61 60  1  0
 62 61  2  0
 63 64  1  0
 63 57  2  0
 64 59  2  0
 65 58  1  0
 66 56  1  0
 68 70  2  0
 69 68  1  0
 71 69  1  0
 72 81  2  0
 72 77  1  0
 73 69  1  0
 73 77  1  0
 74 73  1  0
 75 76  1  0
 75 74  1  0
 76 72  1  0
 77 78  2  0
 78 79  1  0
 80 79  2  0
 81 80  1  0
 82 56  1  0
 82 87  1  0
 82 83  1  0
 83 86  1  1
 83 84  1  0
 85 83  1  0
 87 90  1  0
 88 92  1  0
 88 87  1  0
 89 88  2  0
 92 91  1  0
 94 92  1  0
 94 95  1  0
 94 93  1  0
M  ISO  4  14 100  22 100  54 101  55 101
M  END
>  <TORSDO>  (8) 
F 20

>  <SCORE>  (8) 
-8.812

>  <name>  (8) 
7

>  <ligand_id>  (8) 
7

>  <original_smiles>  (8) 
[H]c1c([H])c([H])c2c(c1[H])C([H])([H])C([H])([H])C([H])([H])C2([H])N([H])C(=O)C1([H])N(C(=O)C([H])(N([H])C(=O)C([H])(N([H])C([H])([H])[H])C([H])([H])[H])C(C([H])([H])[H])(C([H])([H])[H])C([H])([H])[H])C([H])([H])c2c([H])c(OC([H])([H])C([H])([H])Oc3c([H])c(C([H])([H])[H])c(C4([H])C([H])([H])C(N([H])C(=O)N5C([H])([H])C([H])([H])C([H])([H])C([H])(n6nc(-c7c([H])c([H])c(Oc8c([H])c([H])c(F)c([H])c8F)c([H])c7[H])c(C(=O)N([H])[H])c6N([H])[H])C5([H])[H])(C([H])([H])[H])C4([H])[H])c(C([H])([H])[H])c3[H])c([H])c([H])c2C1([H])[H]

>  <smiles>  (8) 
[H]c1c([H])c([H])c2c(c1[H])C([H])([H])C([H])([H])C([H])([H])C2([H])N([H])C(=O)C1([H])N(C(=O)C([H])(N([H])C(=O)C([H])(N([H])C([H])([H])[H])C([H])([H])[H])C(C([H])([H])[H])(C([H])([H])[H])C([H])([H])[H])C([H])([H])c2c([H])c(OC([H])([H])C([H])([H])Oc3c([H])c(C([H])([H])[H])c(C4([H])C([H])([H])C(N([H])C(=O)N5C([H])([H])C([H])([H])C([H])([H])C([H])(n6nc(-c7c([H])c([H])c(Oc8c([H])c([H])c(F)c([H])c8F)c([H])c7[H])c(C(=O)N([H])[H])c6N([H])[H])C5([H])[H])(C([H])([H])[H])C4([H])[H])c(C([H])([H])[H])c3[H])c([H])c([H])c2C1([H])[H]

$$$$
8:0:0
     RDKit          3D

 93 99  0  0  1  0  0  0  0  0999 V2000
  -27.0260  -24.7890   21.7920 C   0  0  0  0  0  3  0  0  0  0  0  0
  -25.0390  -25.5650   20.5060 C   0  0  0  0  0  3  0  0  0  0  0  0
  -26.1990  -26.3860   21.7540 C   0  0  2  0  0  0  0  0  0  0  0  0
  -27.0110  -23.2220   21.0010 C   0  0  0  0  0  2  0  0  0  0  0  0
  -25.1020  -27.0520   21.2000 C   0  0  0  0  0  3  0  0  0  0  0  0
  -25.9140  -24.1550   20.3050 C   0  0  2  0  0  0  0  0  0  0  0  0
  -25.6690  -28.0440   22.0780 C   0  0  0  0  0  2  0  0  0  0  0  0
  -24.3870  -29.6840   20.4510 C   0  0  0  0  0  2  0  0  0  0  0  0
  -24.9040  -30.1980   20.7610 C   0  0  0  0  0  3  0  0  0  0  0  0
  -29.4680  -17.1850   19.8630 C   0  0  0  0  0  2  0  0  0  0  0  0
  -30.1320  -14.4190   18.7580 C   0  0  0  0  0  2  0  0  0  0  0  0
  -29.4270  -13.3930   17.7260 C   0  0  0  0  0  2  0  0  0  0  0  0
  -28.2580  -12.6280   18.3420 C   0  0  0  0  0  2  0  0  0  0  0  0
  -27.6150  -13.5930   19.3390 C   0  0  0  0  0  3  0  0  0  0  0  0
  -28.5670  -14.3890   20.3190 C   0  0  0  0  0  2  0  0  0  0  0  0
  -29.2640  -15.5590   19.5950 N   0  0  0  0  0  0  0  0  0  0  0  0
  -30.7230  -17.0020   19.5880 O   0  0  0  0  0  1  0  0  0  0  0  0
  -28.2000  -20.3240   21.9890 C   0  0  0  0  0  2  0  0  0  0  0  0
  -29.3050  -19.3120   21.4800 C   0  0  0  0  0  2  0  0  0  0  0  0
  -28.0570  -21.0430   20.6650 C   0  0  0  0  0  1  0  0  0  0  0  0
  -28.5820  -18.8560   20.2660 N   0  0  0  0  0  1  0  0  0  0  0  0
  -25.4180  -13.8940   20.4560 C   0  0  0  0  0  0  0  0  0  0  0  0
  -24.4490  -13.0550   20.9080 C   0  0  0  0  0  0  0  0  0  0  0  0
  -24.9290  -11.7270   20.6800 C   0  0  0  0  0  0  0  0  0  0  0  0
  -26.4280  -13.0880   19.9940 N   0  0  0  0  0  0  0  0  0  0  0  0
  -26.1640  -11.7630   20.1670 N   0  0  0  0  0  0  0  0  0  0  0  0
  -24.2420  -10.4400   20.8700 C   0  0  0  0  0  0  0  0  0  0  0  0
  -24.6910   -9.4890   21.8130 C   0  0  0  0  0  3  0  0  0  0  0  0
  -23.9860   -8.2790   22.0010 C   0  0  0  0  0  3  0  0  0  0  0  0
  -22.8180   -8.0110   21.2460 C   0  0  0  0  0  0  0  0  0  0  0  0
  -22.3890   -8.9510   20.2930 C   0  0  0  0  0  3  0  0  0  0  0  0
  -23.0940  -10.1520   20.1030 C   0  0  0  0  0  3  0  0  0  0  0  0
  -22.0850   -6.8510   21.3410 O   0  0  0  0  0  0  0  0  0  0  0  0
  -21.8990   -6.2120   22.5420 C   0  0  0  0  0  0  0  0  0  0  0  0
  -21.2850   -6.8540   23.6390 C   0  0  0  0  0  3  0  0  0  0  0  0
  -21.0510   -6.1390   24.8310 C   0  0  0  0  0  3  0  0  0  0  0  0
  -21.4200   -4.7830   24.9240 C   0  0  0  0  0  0  0  0  0  0  0  0
  -22.0250   -4.1420   23.8290 C   0  0  0  0  0  3  0  0  0  0  0  0
  -22.2620   -4.8540   22.6400 C   0  0  0  0  0  0  0  0  0  0  0  0
  -22.8250   -4.2240   21.5810 F   0  0  0  0  0  0  0  0  0  0  0  0
  -21.1880   -4.0940   26.0650 F   0  0  0  0  0  0  0  0  0  0  0  0
  -23.1120  -13.4840   21.4260 C   0  0  0  0  0  0  0  0  0  0  0  0
  -22.5570  -12.7400   22.3740 N   0  0  0  0  0  0  0  0  0  0  0  0
  -22.5820  -14.5210   21.0280 O   0  0  0  0  0  0  0  0  0  0  0  0
  -23.0120  -11.9060   22.7160 H   0  0  0  0  0  0  0  0  0  0  0  0
  -21.6660  -13.0090   22.7660 H   0  0  0  0  0  0  0  0  0  0  0  0
  -25.5170  -15.2810   20.3710 N   0  0  0  0  0  0  0  0  0  0  0  0
  -24.7530  -15.8920   20.6380 H   0  0  0  0  0  0  0  0  0  0  0  0
  -26.2880  -15.7740   19.9400 H   0  0  0  0  0  0  0  0  0  0  0  0
  -25.9530  -23.8770   18.9640 O   0  0  0  0  0  0  0  0  0  0  0  0
  -27.2890  -23.7960   18.3740 C   0  0  0  0  0  3  0  0  0  0  0  0
  -28.4930  -24.8130   18.6870 C   0  0  0  0  0  3  0  0  0  0  0  0
  -28.4700  -26.1250   19.3440 O   0  0  0  0  0  0  0  0  0  0  0  0
  -24.5190  -31.3970   23.2160 C   0  0  0  0  0  0  0  0  0  0  0  0
  -27.6040  -27.0930   18.9890 C   0  0  0  0  0  3  0  0  0  0  0  0
  -23.1680  -29.3280   21.7580 C   0  0  0  0  0  2  0  0  0  0  0  0
  -25.2080  -28.1990   18.7030 C   0  0  0  0  0  2  0  0  0  0  0  0
  -26.5860  -30.0190   21.6210 C   0  0  0  0  0  1  0  0  0  0  0  0
  -26.5920  -28.8930   19.7630 C   0  0  0  0  0  2  0  0  0  0  0  0
  -27.7200  -28.2340   19.7480 C   0  0  0  0  0  2  0  0  0  0  0  0
  -26.6490  -26.8380   17.9670 C   0  0  0  0  0  2  0  0  0  0  0  0
  -25.4300  -27.4150   17.7230 C   0  0  0  0  0  2  0  0  0  0  0  0
  -23.0450  -28.1040   19.7250 C   0  0  0  0  0 15  0  0  0  0  0  0
  -24.7850  -30.1950   22.5540 N   0  0  0  0  0  2  0  0  0  0  0  0
  -23.3730  -31.8160   23.4600 O   0  0  0  0  0  0  0  0  0  0  0  0
  -22.2900  -28.9590   22.7200 C   0  0  0  0  0  0  0  0  0  0  0  0
  -21.0380  -29.0090   22.3370 N   0  0  0  0  0  0  0  0  0  0  0  0
  -22.7870  -28.5210   23.7330 O   0  0  0  0  0  0  0  0  0  0  0  0
  -20.7840  -29.4160   21.4480 H   0  0  0  0  0  0  0  0  0  0  0  0
  -17.6740  -28.0810   22.5570 C   0  0  0  0  0  0  0  0  0  0  0  0
  -20.1660  -28.0740   22.9220 C   0  0  0  0  0  3  0  0  0  0  0  0
  -20.2380  -26.7660   22.1020 C   0  0  0  0  0  2  0  0  0  0  0  0
  -19.1560  -26.6900   21.0360 C   0  0  0  0  0  2  0  0  0  0  0  0
  -17.7880  -26.8180   21.7130 C   0  0  0  0  0  2  0  0  0  0  0  0
  -18.8180  -28.7140   23.0750 C   0  0  0  0  0  0  0  0  0  0  0  0
  -18.7120  -29.9330   23.7780 C   0  0  0  0  0  3  0  0  0  0  0  0
  -17.4490  -30.4980   24.0120 C   0  0  0  0  0  3  0  0  0  0  0  0
  -16.2980  -29.8350   23.5500 C   0  0  0  0  0  3  0  0  0  0  0  0
  -16.4100  -28.6350   22.8230 C   0  0  0  0  0  3  0  0  0  0  0  0
  -25.7010  -32.2450   23.7660 C   0  0  0  0  0  3  0  0  0  0  0  0
  -26.1480  -31.6020   25.1290 C   0  0  1  0  0  0  0  0  0  0  0  0
  -24.9590  -31.3660   26.0950 C   0  0  0  0  0  1  0  0  0  0  0  0
  -26.8640  -30.2450   24.9620 C   0  0  0  0  0  1  0  0  0  0  0  0
  -27.1890  -32.5010   25.8220 C   0  0  0  0  0  1  0  0  0  0  0  0
  -25.3440  -33.6800   23.9710 N   0  0  0  0  0  0  0  0  0  0  0  0
  -25.7940  -34.7450   23.2760 C   0  0  0  0  0  0  0  0  0  0  0  0
  -26.5630  -34.6370   22.3180 O   0  0  0  0  0  0  0  0  0  0  0  0
  -24.6650  -33.8570   24.6960 H   0  0  0  0  0  0  0  0  0  0  0  0
  -24.1520  -36.6240   22.8380 C   0  0  0  0  0  1  0  0  0  0  0  0
  -25.3280  -36.1600   23.7130 C   0  0  0  0  0  3  0  0  0  0  0  0
  -27.4270  -37.0090   24.6850 C   0  0  0  0  0  1  0  0  0  0  0  0
  -26.3950  -37.1920   23.6700 N   0  0  0  0  0  0  0  0  0  0  0  0
  -26.0000  -38.1220   23.7830 H   0  0  0  0  0  0  0  0  0  0  0  0
  1  4  1  0
  2  5  1  0
  2  3  1  0
  3  1  1  0
  3  7  1  1
  5  3  1  0
  5  7  1  0
  6  2  1  0
  6  4  1  0
  6  1  1  0
  8  9  1  0
  8 56  1  0
  9 58  1  0
  9 64  1  0
 11 16  1  0
 12 13  1  0
 12 11  1  0
 13 14  1  0
 14 25  1  0
 14 15  1  0
 16 10  1  0
 16 15  1  0
 17 10  1  0
 19 18  1  0
 20 18  1  0
 21 19  1  0
 22 23  2  0
 23 42  1  0
 24 27  1  0
 24 23  1  0
 25 26  1  0
 25 22  1  0
 26 24  2  0
 27 28  1  0
 28 29  2  0
 30 33  1  0
 30 29  1  0
 31 30  2  0
 32 31  1  0
 32 27  2  0
 33 34  1  0
 34 39  2  0
 34 35  1  0
 35 36  2  0
 36 37  1  0
 37 41  1  0
 38 37  2  0
 39 38  1  0
 40 39  1  0
 42 43  1  0
 43 45  1  0
 43 46  1  0
 44 42  2  0
 47 22  1  0
 47 48  1  0
 49 47  1  0
  6 50  1  6
 51 52  2  0
 51 50  1  0
 52 53  1  0
 54 65  2  0
 54 80  1  0
 55 53  1  0
 55 60  1  0
 56 66  1  0
 57 59  1  0
 60 59  1  0
 61 55  1  0
 62 61  1  0
 62 57  1  0
 64 54  1  0
 66 68  2  0
 67 66  1  0
 67 71  1  0
 69 67  1  0
 70 79  2  0
 70 75  1  0
 71 75  1  0
 72 71  1  0
 73 74  1  0
 73 72  1  0
 74 70  1  0
 75 76  2  0
 76 77  1  0
 78 77  2  0
 79 78  1  0
 80 85  1  0
 80 81  1  0
 81 84  1  1
 81 82  1  0
 83 81  1  0
 85 88  1  0
 86 90  1  0
 86 85  1  0
 87 86  2  0
 89 90  1  0
 92 90  1  0
 92 93  1  0
 92 91  1  0
M  ISO  4  10 100  21 100  52 101  53 101
M  END
>  <TORSDO>  (9) 
F 19

>  <SCORE>  (9) 
-11.088

>  <name>  (9) 
8

>  <ligand_id>  (9) 
8

>  <original_smiles>  (9) 
[H]c1c([H])c([H])c2c(c1[H])C([H])([H])C([H])([H])C([H])([H])C2([H])N([H])C(=O)C1([H])N(C(=O)C([H])(N([H])C(=O)C([H])(N([H])C([H])([H])[H])C([H])([H])[H])C(C([H])([H])[H])(C([H])([H])[H])C([H])([H])[H])C([H])([H])c2c([H])c(OC([H])([H])C([H])([H])Oc3c([H])c4c(c([H])c3C3([H])N(C(=O)N5C([H])([H])C([H])([H])C([H])([H])C([H])(n6nc(-c7c([H])c([H])c(Oc8c([H])c([H])c(F)c([H])c8F)c([H])c7[H])c(C(=O)N([H])[H])c6N([H])[H])C5([H])[H])C([H])([H])C3([H])[H])C([H])([H])C([H])([H])C4([H])[H])c([H])c([H])c2C1([H])[H]

>  <smiles>  (9) 
[H]c1c([H])c([H])c2c(c1[H])C([H])([H])C([H])([H])C([H])([H])C2([H])N([H])C(=O)C1([H])N(C(=O)C([H])(N([H])C(=O)C([H])(N([H])C([H])([H])[H])C([H])([H])[H])C(C([H])([H])[H])(C([H])([H])[H])C([H])([H])[H])C([H])([H])c2c([H])c(OC([H])([H])C([H])([H])Oc3c([H])c4c(c([H])c3C3([H])N(C(=O)N5C([H])([H])C([H])([H])C([H])([H])C([H])(n6nc(-c7c([H])c([H])c(Oc8c([H])c([H])c(F)c([H])c8F)c([H])c7[H])c(C(=O)N([H])[H])c6N([H])[H])C5([H])[H])C([H])([H])C3([H])[H])C([H])([H])C([H])([H])C4([H])[H])c([H])c([H])c2C1([H])[H]

$$$$
9:0:0
     RDKit          3D

 93102  0  0  1  0  0  0  0  0999 V2000
  -30.0760  -23.3870   20.2340 C   0  0  0  0  0  2  0  0  0  0  0  0
  -27.6820  -22.9580   20.9850 C   0  0  0  0  0  2  0  0  0  0  0  0
  -29.9620  -24.7880   20.9010 C   0  0  0  0  0  2  0  0  0  0  0  0
  -27.5140  -24.3710   20.3700 C   0  0  0  0  0  2  0  0  0  0  0  0
  -29.0990  -22.3360   20.8360 C   0  0  0  0  0  3  0  0  0  0  0  0
  -28.5350  -25.4090   20.9110 C   0  0  0  0  0  3  0  0  0  0  0  0
  -28.6460  -21.0490   18.6560 C   0  0  0  0  0  1  0  0  0  0  0  0
  -29.0840  -20.9240   20.1310 C   0  0  0  0  0  3  0  0  0  0  0  0
  -30.8640  -19.1390   19.2010 C   0  0  0  0  0  2  0  0  0  0  0  0
  -30.4260  -19.3020   21.6980 C   0  0  0  0  0  2  0  0  0  0  0  0
  -30.2200  -17.7340   19.2040 C   0  0  0  0  0  2  0  0  0  0  0  0
  -29.8310  -17.8670   21.6480 C   0  0  0  0  0  2  0  0  0  0  0  0
  -30.3970  -20.0830   20.3510 C   0  0  0  0  0  3  0  0  0  0  0  0
  -30.4930  -17.0170   20.5410 C   0  0  0  0  0  3  0  0  0  0  0  0
  -30.7490  -14.5550   20.0290 C   0  0  0  0  0  0  0  0  0  0  0  0
  -30.4040  -12.3700   18.9320 C   0  0  0  0  0  2  0  0  0  0  0  0
  -29.3910  -12.5430   17.7810 C   0  0  0  0  0  2  0  0  0  0  0  0
  -27.9460  -12.4040   18.2990 C   0  0  0  0  0  2  0  0  0  0  0  0
  -27.6770  -13.2590   19.5670 C   0  0  0  0  0  3  0  0  0  0  0  0
  -28.7970  -13.0670   20.6150 C   0  0  0  0  0  2  0  0  0  0  0  0
  -30.0800  -13.3710   19.9630 N   0  0  0  0  0  0  0  0  0  0  0  0
  -31.8580  -14.7180   19.5130 O   0  0  0  0  0  0  0  0  0  0  0  0
  -30.0600  -15.6010   20.5420 N   0  0  0  0  0  0  0  0  0  0  0  0
  -29.1460  -15.3950   20.9160 H   0  0  0  0  0  0  0  0  0  0  0  0
  -25.3430  -13.8730   20.4540 C   0  0  0  0  0  0  0  0  0  0  0  0
  -24.2900  -13.1030   20.8710 C   0  0  0  0  0  0  0  0  0  0  0  0
  -24.7280  -11.7470   20.7680 C   0  0  0  0  0  0  0  0  0  0  0  0
  -26.3570  -12.9850   20.1270 N   0  0  0  0  0  0  0  0  0  0  0  0
  -25.9940  -11.7000   20.3720 N   0  0  0  0  0  0  0  0  0  0  0  0
  -23.9960  -10.4900   20.9670 C   0  0  0  0  0  0  0  0  0  0  0  0
  -24.4460   -9.5100   21.8790 C   0  0  0  0  0  3  0  0  0  0  0  0
  -23.7160   -8.3170   22.0680 C   0  0  0  0  0  3  0  0  0  0  0  0
  -22.5220   -8.0950   21.3420 C   0  0  0  0  0  0  0  0  0  0  0  0
  -22.0910   -9.0630   20.4180 C   0  0  0  0  0  3  0  0  0  0  0  0
  -22.8220  -10.2470   20.2290 C   0  0  0  0  0  3  0  0  0  0  0  0
  -21.7600   -6.9550   21.4400 O   0  0  0  0  0  0  0  0  0  0  0  0
  -21.6910   -6.2340   22.6050 C   0  0  0  0  0  0  0  0  0  0  0  0
  -21.2280   -6.8070   23.8090 C   0  0  0  0  0  3  0  0  0  0  0  0
  -21.1080   -6.0110   24.9660 C   0  0  0  0  0  3  0  0  0  0  0  0
  -21.4390   -4.6450   24.9190 C   0  0  0  0  0  0  0  0  0  0  0  0
  -21.8940   -4.0710   23.7200 C   0  0  0  0  0  3  0  0  0  0  0  0
  -22.0170   -4.8630   22.5650 C   0  0  0  0  0  0  0  0  0  0  0  0
  -22.4360   -4.3010   21.4060 F   0  0  0  0  0  0  0  0  0  0  0  0
  -21.3150   -3.8780   26.0290 F   0  0  0  0  0  0  0  0  0  0  0  0
  -22.9220  -13.5910   21.2520 C   0  0  0  0  0  0  0  0  0  0  0  0
  -22.2450  -12.8770   22.1460 N   0  0  0  0  0  0  0  0  0  0  0  0
  -22.4650  -14.6360   20.7930 O   0  0  0  0  0  0  0  0  0  0  0  0
  -22.6290  -12.0310   22.5380 H   0  0  0  0  0  0  0  0  0  0  0  0
  -21.3300  -13.1840   22.4440 H   0  0  0  0  0  0  0  0  0  0  0  0
  -25.5160  -15.2460   20.3070 N   0  0  0  0  0  0  0  0  0  0  0  0
  -24.7690  -15.9070   20.4870 H   0  0  0  0  0  0  0  0  0  0  0  0
  -26.3460  -15.6830   19.9260 H   0  0  0  0  0  0  0  0  0  0  0  0
  -28.5640  -26.7050   20.2510 O   0  0  0  0  0  0  0  0  0  0  0  0
  -24.6770  -31.9180   23.2650 C   0  0  0  0  0  0  0  0  0  0  0  0
  -27.4050  -27.4640   20.2510 C   0  0  0  0  0  0  0  0  0  0  0  0
  -23.5150  -30.5090   21.6000 C   0  0  0  0  0  3  0  0  0  0  0  0
  -25.0090  -28.9840   20.2030 C   0  0  0  0  0  0  0  0  0  0  0  0
  -26.0450  -30.8760   21.4590 C   0  0  0  0  0  2  0  0  0  0  0  0
  -26.1540  -29.5020   20.8230 C   0  0  0  0  0  0  0  0  0  0  0  0
  -27.3550  -28.7500   20.8460 C   0  0  0  0  0  3  0  0  0  0  0  0
  -26.2520  -26.9890   19.5900 C   0  0  0  0  0  3  0  0  0  0  0  0
  -25.0550  -27.7240   19.5840 C   0  0  0  0  0  3  0  0  0  0  0  0
  -23.7600  -29.8360   20.2240 C   0  0  0  0  0  2  0  0  0  0  0  0
  -24.7620  -31.1170   22.1660 N   0  0  0  0  0  0  0  0  0  0  0  0
  -23.5830  -32.1830   23.7830 O   0  0  0  0  0  0  0  0  0  0  0  0
  -22.8520  -29.4800   22.5460 C   0  0  0  0  0  0  0  0  0  0  0  0
  -21.5340  -29.2800   22.3850 N   0  0  0  0  0  0  0  0  0  0  0  0
  -23.5220  -28.8660   23.3800 O   0  0  0  0  0  0  0  0  0  0  0  0
  -21.0540  -29.8300   21.6860 H   0  0  0  0  0  0  0  0  0  0  0  0
  -18.1670  -28.0270   22.7860 C   0  0  0  0  0  0  0  0  0  0  0  0
  -20.7100  -28.3340   23.1370 C   0  0  0  0  0  3  0  0  0  0  0  0
  -20.8570  -26.9000   22.5780 C   0  0  0  0  0  2  0  0  0  0  0  0
  -19.7940  -26.5490   21.5310 C   0  0  0  0  0  2  0  0  0  0  0  0
  -18.3890  -26.6750   22.1290 C   0  0  0  0  0  2  0  0  0  0  0  0
  -19.2580  -28.8120   23.2460 C   0  0  0  0  0  0  0  0  0  0  0  0
  -18.9980  -30.0760   23.8180 C   0  0  0  0  0  3  0  0  0  0  0  0
  -17.6810  -30.5570   23.9370 C   0  0  0  0  0  3  0  0  0  0  0  0
  -16.6040  -29.7690   23.4950 C   0  0  0  0  0  3  0  0  0  0  0  0
  -16.8480  -28.5060   22.9260 C   0  0  0  0  0  3  0  0  0  0  0  0
  -25.9460  -32.5590   23.9090 C   0  0  0  0  0  3  0  0  0  0  0  0
  -25.6240  -33.9580   24.2200 N   0  0  0  0  0  0  0  0  0  0  0  0
  -25.9540  -35.0040   23.4500 C   0  0  0  0  0  0  0  0  0  0  0  0
  -26.6340  -34.8930   22.4250 O   0  0  0  0  0  0  0  0  0  0  0  0
  -25.0240  -34.1180   25.0150 H   0  0  0  0  0  0  0  0  0  0  0  0
  -24.2090  -36.7740   23.0630 C   0  0  0  0  0  1  0  0  0  0  0  0
  -25.4510  -36.3930   23.8850 C   0  0  0  0  0  3  0  0  0  0  0  0
  -27.5700  -37.3140   24.7140 C   0  0  0  0  0  1  0  0  0  0  0  0
  -26.4730  -37.4560   23.7610 N   0  0  0  0  0  0  0  0  0  0  0  0
  -26.0570  -38.3740   23.8920 H   0  0  0  0  0  0  0  0  0  0  0  0
  -26.4390  -31.8000   25.2020 C   0  0  1  0  0  0  0  0  0  0  0  0
  -25.3230  -31.5600   26.2440 C   0  0  0  0  0  1  0  0  0  0  0  0
  -27.0430  -30.4240   24.8320 C   0  0  0  0  0  1  0  0  0  0  0  0
  -27.5670  -32.6080   25.8870 C   0  0  0  0  0  1  0  0  0  0  0  0
  1  5  1  0
  1  3  1  0
  3  6  1  0
  4  6  1  0
  4  2  1  0
  5  8  1  0
  5  2  1  0
  6 53  1  0
  8  7  1  0
  9 11  1  0
  9 13  1  0
 11 14  1  0
 12 10  1  0
 13  8  1  0
 13 10  1  0
 14 23  1  0
 14 12  1  0
 15 23  1  0
 16 21  1  0
 17 18  1  0
 17 16  1  0
 19 18  1  0
 19 28  1  0
 19 20  1  0
 21 15  1  0
 21 20  1  0
 22 15  2  0
 23 24  1  0
 25 26  2  0
 26 45  1  0
 27 26  1  0
 27 30  1  0
 28 29  1  0
 28 25  1  0
 29 27  2  0
 30 31  1  0
 31 32  2  0
 33 36  1  0
 33 32  1  0
 34 33  2  0
 35 34  1  0
 35 30  2  0
 36 37  1  0
 37 38  1  0
 38 39  2  0
 40 39  1  0
 40 44  1  0
 41 40  2  0
 42 37  2  0
 42 41  1  0
 43 42  1  0
 45 46  1  0
 46 49  1  0
 46 48  1  0
 47 45  2  0
 50 25  1  0
 50 51  1  0
 52 50  1  0
 53 55  1  0
 54 65  2  0
 55 60  1  0
 56 64  1  0
 56 66  1  0
 57 63  1  0
 57 59  1  0
 58 64  1  0
 59 60  2  0
 59 58  1  0
 61 55  2  0
 62 61  1  0
 62 57  2  0
 63 56  1  0
 64 54  1  0
 66 68  2  0
 67 66  1  0
 69 67  1  0
 70 79  2  0
 70 75  1  0
 71 67  1  0
 71 75  1  0
 72 71  1  0
 73 74  1  0
 73 72  1  0
 74 70  1  0
 75 76  2  0
 76 77  1  0
 78 77  2  0
 79 78  1  0
 80 54  1  0
 80 81  1  0
 80 90  1  0
 81 84  1  0
 82 86  1  0
 82 81  1  0
 83 82  2  0
 86 85  1  0
 88 86  1  0
 88 89  1  0
 88 87  1  0
 90 93  1  1
 90 91  1  0
 92 90  1  0
M  ISO  4   6 101  15 100  23 100  53 101
M  END
>  <TORSDO>  (10) 
F 18

>  <SCORE>  (10) 
-14.420

>  <name>  (10) 
9

>  <ligand_id>  (10) 
9

>  <original_smiles>  (10) 
[H]c1c([H])c([H])c2c(c1[H])C([H])([H])C([H])([H])C([H])([H])C2([H])N([H])C(=O)C1([H])N(C(=O)C([H])(N([H])C(=O)C([H])(N([H])C([H])([H])[H])C([H])([H])[H])C(C([H])([H])[H])(C([H])([H])[H])C([H])([H])[H])C([H])([H])c2c([H])c(OC3([H])C([H])([H])C([H])([H])C([H])(C([H])(C([H])([H])[H])C4([H])C([H])([H])C([H])([H])C([H])(N([H])C(=O)N5C([H])([H])C([H])([H])C([H])([H])C([H])(n6nc(-c7c([H])c([H])c(Oc8c([H])c([H])c(F)c([H])c8F)c([H])c7[H])c(C(=O)N([H])[H])c6N([H])[H])C5([H])[H])C([H])([H])C4([H])[H])C([H])([H])C3([H])[H])c([H])c([H])c2C1([H])[H]

>  <smiles>  (10) 
[H]c1c([H])c([H])c2c(c1[H])C([H])([H])C([H])([H])C([H])([H])C2([H])N([H])C(=O)C1([H])N(C(=O)C([H])(N([H])C(=O)C([H])(N([H])C([H])([H])[H])C([H])([H])[H])C(C([H])([H])[H])(C([H])([H])[H])C([H])([H])[H])C([H])([H])c2c([H])c(OC3([H])C([H])([H])C([H])([H])C([H])(C([H])(C([H])([H])[H])C4([H])C([H])([H])C([H])([H])C([H])(N([H])C(=O)N5C([H])([H])C([H])([H])C([H])([H])C([H])(n6nc(-c7c([H])c([H])c(Oc8c([H])c([H])c(F)c([H])c8F)c([H])c7[H])c(C(=O)N([H])[H])c6N([H])[H])C5([H])[H])C([H])([H])C4([H])[H])C([H])([H])C3([H])[H])c([H])c([H])c2C1([H])[H]

$$$$
10:0:0
     RDKit          3D

 96105  0  0  1  0  0  0  0  0999 V2000
  -29.4950  -24.1110   20.1180 N   0  0  0  0  0  4  0  0  0  0  0  0
  -28.7010  -24.2270   19.5090 H   0  0  0  0  0  0  0  0  0  0  0  0
  -30.3170  -24.2700   19.5550 H   0  0  0  0  0  0  0  0  0  0  0  0
  -29.5270  -22.6830   20.5930 C   0  0  0  0  0  2  0  0  0  0  0  0
  -28.6700  -21.8440   18.3640 C   0  0  0  0  0  1  0  0  0  0  0  0
  -29.7400  -21.6150   19.4610 C   0  0  0  0  0  3  0  0  0  0  0  0
  -30.8120  -19.7080   20.9890 C   0  0  0  0  0  2  0  0  0  0  0  0
  -29.8270  -19.1000   18.7390 C   0  0  0  0  0  2  0  0  0  0  0  0
  -30.7130  -18.2300   21.4980 C   0  0  0  0  0  2  0  0  0  0  0  0
  -30.3090  -17.6610   19.0790 C   0  0  0  0  0  2  0  0  0  0  0  0
  -29.7340  -20.1020   19.9370 C   0  0  0  0  0  3  0  0  0  0  0  0
  -29.9670  -17.2840   20.5290 C   0  0  0  0  0  3  0  0  0  0  0  0
  -30.8580  -14.8370   20.5470 C   0  0  0  0  0  0  0  0  0  0  0  0
  -30.7220  -12.5940   19.5170 C   0  0  0  0  0  2  0  0  0  0  0  0
  -29.8220  -12.7140   18.2650 C   0  0  0  0  0  2  0  0  0  0  0  0
  -28.3330  -12.5510   18.6340 C   0  0  0  0  0  2  0  0  0  0  0  0
  -27.9180  -13.4230   19.8460 C   0  0  0  0  0  3  0  0  0  0  0  0
  -28.9310  -13.2760   21.0060 C   0  0  0  0  0  2  0  0  0  0  0  0
  -30.2700  -13.6080   20.4850 N   0  0  0  0  0  0  0  0  0  0  0  0
  -32.0070  -15.0530   20.1520 O   0  0  0  0  0  0  0  0  0  0  0  0
  -30.0040  -15.8360   20.8630 N   0  0  0  0  0  0  0  0  0  0  0  0
  -29.1230  -15.4810   21.2040 H   0  0  0  0  0  0  0  0  0  0  0  0
  -25.4780  -14.0070   20.4280 C   0  0  0  0  0  0  0  0  0  0  0  0
  -24.4060  -13.2260   20.7660 C   0  0  0  0  0  0  0  0  0  0  0  0
  -24.8870  -11.8810   20.7890 C   0  0  0  0  0  0  0  0  0  0  0  0
  -26.5480  -13.1380   20.2710 N   0  0  0  0  0  0  0  0  0  0  0  0
  -26.1920  -11.8560   20.5440 N   0  0  0  0  0  0  0  0  0  0  0  0
  -24.1730  -10.6130   20.9790 C   0  0  0  0  0  0  0  0  0  0  0  0
  -24.5670   -9.6840   21.9690 C   0  0  0  0  0  3  0  0  0  0  0  0
  -23.8540   -8.4800   22.1450 C   0  0  0  0  0  3  0  0  0  0  0  0
  -22.7320   -8.1940   21.3310 C   0  0  0  0  0  0  0  0  0  0  0  0
  -22.3580   -9.1100   20.3320 C   0  0  0  0  0  3  0  0  0  0  0  0
  -23.0710  -10.3070   20.1550 C   0  0  0  0  0  3  0  0  0  0  0  0
  -21.9940   -7.0380   21.4140 O   0  0  0  0  0  0  0  0  0  0  0  0
  -21.8860   -6.3350   22.5860 C   0  0  0  0  0  0  0  0  0  0  0  0
  -21.3160   -6.9050   23.7460 C   0  0  0  0  0  3  0  0  0  0  0  0
  -21.1600   -6.1250   24.9090 C   0  0  0  0  0  3  0  0  0  0  0  0
  -21.5620   -4.7760   24.9120 C   0  0  0  0  0  0  0  0  0  0  0  0
  -22.1230   -4.2060   23.7560 C   0  0  0  0  0  3  0  0  0  0  0  0
  -22.2820   -4.9820   22.5950 C   0  0  0  0  0  0  0  0  0  0  0  0
  -22.8050   -4.4210   21.4780 F   0  0  0  0  0  0  0  0  0  0  0  0
  -21.4030   -4.0230   26.0260 F   0  0  0  0  0  0  0  0  0  0  0  0
  -22.9890  -13.6880   20.9610 C   0  0  0  0  0  0  0  0  0  0  0  0
  -22.2300  -12.9980   21.8070 N   0  0  0  0  0  0  0  0  0  0  0  0
  -22.5600  -14.6950   20.4010 O   0  0  0  0  0  0  0  0  0  0  0  0
  -22.5900  -12.1820   22.2820 H   0  0  0  0  0  0  0  0  0  0  0  0
  -21.2800  -13.2940   21.9800 H   0  0  0  0  0  0  0  0  0  0  0  0
  -25.6250  -15.3760   20.2220 N   0  0  0  0  0  0  0  0  0  0  0  0
  -24.8360  -16.0100   20.2790 H   0  0  0  0  0  0  0  0  0  0  0  0
  -26.4680  -15.8300   19.8970 H   0  0  0  0  0  0  0  0  0  0  0  0
  -29.4370  -25.1790   21.1710 C   0  0  0  0  0  3  0  0  0  0  0  0
  -28.0860  -24.3010   23.2810 C   0  0  0  0  0  2  0  0  0  0  0  0
  -28.0970  -25.8090   23.3320 C   0  0  0  0  0  2  0  0  0  0  0  0
  -28.1620  -25.0980   21.9970 C   0  0  0  0  0  3  0  0  0  0  0  0
  -29.6370  -26.6310   20.6210 C   0  0  0  0  0  2  0  0  0  0  0  0
  -28.7380  -26.9380   19.5520 O   0  0  0  0  0  0  0  0  0  0  0  0
  -24.7520  -31.7570   23.1770 C   0  0  0  0  0  0  0  0  0  0  0  0
  -27.5820  -27.6660   19.7630 C   0  0  0  0  0  0  0  0  0  0  0  0
  -23.6060  -30.4430   21.4250 C   0  0  0  0  0  3  0  0  0  0  0  0
  -25.1250  -29.0760   19.8980 C   0  0  0  0  0  0  0  0  0  0  0  0
  -26.1180  -30.9050   21.2750 C   0  0  0  0  0  2  0  0  0  0  0  0
  -26.2630  -29.5870   20.5390 C   0  0  0  0  0  0  0  0  0  0  0  0
  -27.4970  -28.8880   20.4800 C   0  0  0  0  0  3  0  0  0  0  0  0
  -26.4270  -27.1790   19.1210 C   0  0  0  0  0  3  0  0  0  0  0  0
  -25.2010  -27.8650   19.1910 C   0  0  0  0  0  3  0  0  0  0  0  0
  -23.8480  -29.8820   19.9990 C   0  0  0  0  0  2  0  0  0  0  0  0
  -24.8420  -31.0450   22.0170 N   0  0  0  0  0  0  0  0  0  0  0  0
  -23.6590  -31.9430   23.7300 O   0  0  0  0  0  0  0  0  0  0  0  0
  -22.9930  -29.3250   22.2980 C   0  0  0  0  0  0  0  0  0  0  0  0
  -21.6760  -29.1060   22.1550 N   0  0  0  0  0  0  0  0  0  0  0  0
  -23.7010  -28.6610   23.0610 O   0  0  0  0  0  0  0  0  0  0  0  0
  -21.1620  -29.7050   21.5250 H   0  0  0  0  0  0  0  0  0  0  0  0
  -18.3470  -27.7610   22.5680 C   0  0  0  0  0  0  0  0  0  0  0  0
  -20.8980  -28.0740   22.8410 C   0  0  0  0  0  3  0  0  0  0  0  0
  -21.0430  -26.7050   22.1360 C   0  0  0  0  0  2  0  0  0  0  0  0
  -19.9330  -26.4260   21.1150 C   0  0  0  0  0  2  0  0  0  0  0  0
  -18.5570  -26.4770   21.7840 C   0  0  0  0  0  2  0  0  0  0  0  0
  -19.4450  -28.5170   23.0540 C   0  0  0  0  0  0  0  0  0  0  0  0
  -19.1950  -29.7170   23.7540 C   0  0  0  0  0  3  0  0  0  0  0  0
  -17.8760  -30.1610   23.9730 C   0  0  0  0  0  3  0  0  0  0  0  0
  -16.7920  -29.3990   23.5000 C   0  0  0  0  0  3  0  0  0  0  0  0
  -17.0280  -28.2010   22.8040 C   0  0  0  0  0  3  0  0  0  0  0  0
  -26.0120  -32.3880   23.8500 C   0  0  0  0  0  3  0  0  0  0  0  0
  -25.6590  -33.7560   24.2480 N   0  0  0  0  0  0  0  0  0  0  0  0
  -25.9690  -34.8550   23.5490 C   0  0  0  0  0  0  0  0  0  0  0  0
  -26.6520  -34.8240   22.5210 O   0  0  0  0  0  0  0  0  0  0  0  0
  -25.0540  -33.8520   25.0500 H   0  0  0  0  0  0  0  0  0  0  0  0
  -24.2030  -36.6210   23.2580 C   0  0  0  0  0  1  0  0  0  0  0  0
  -25.4380  -36.2030   24.0720 C   0  0  0  0  0  3  0  0  0  0  0  0
  -27.5250  -37.1000   25.0020 C   0  0  0  0  0  1  0  0  0  0  0  0
  -26.4440  -37.2860   24.0390 N   0  0  0  0  0  0  0  0  0  0  0  0
  -26.0110  -38.1880   24.2170 H   0  0  0  0  0  0  0  0  0  0  0  0
  -26.5330  -31.5600   25.0880 C   0  0  1  0  0  0  0  0  0  0  0  0
  -25.4340  -31.2340   26.1250 C   0  0  0  0  0  1  0  0  0  0  0  0
  -27.1620  -30.2230   24.6290 C   0  0  0  0  0  1  0  0  0  0  0  0
  -27.6510  -32.3480   25.8110 C   0  0  0  0  0  1  0  0  0  0  0  0
  1  4  1  0
  1 51  1  0
  2  1  1  0
  3  1  1  0
  6  5  1  0
  6  4  1  0
  7  9  1  0
  8 10  1  0
  8 11  1  0
 10 12  1  0
 11  6  1  0
 11  7  1  0
 12 21  1  0
 12  9  1  0
 13 21  1  0
 14 19  1  0
 15 16  1  0
 15 14  1  0
 17 16  1  0
 17 26  1  0
 17 18  1  0
 19 13  1  0
 19 18  1  0
 20 13  2  0
 21 22  1  0
 23 24  2  0
 24 25  1  0
 24 43  1  0
 25 28  1  0
 26 23  1  0
 26 27  1  0
 27 25  2  0
 28 29  1  0
 29 30  2  0
 31 34  1  0
 31 30  1  0
 32 31  2  0
 33 32  1  0
 33 28  2  0
 34 35  1  0
 35 40  2  0
 35 36  1  0
 36 37  2  0
 37 38  1  0
 38 42  1  0
 39 38  2  0
 40 39  1  0
 41 40  1  0
 43 44  1  0
 44 47  1  0
 44 46  1  0
 45 43  2  0
 48 49  1  0
 48 23  1  0
 50 48  1  0
 51 55  1  0
 51 54  1  0
 52 53  1  0
 54 52  1  0
 54 53  1  0
 56 58  1  0
 56 55  1  0
 57 68  2  0
 58 63  1  0
 59 67  1  0
 59 69  1  0
 60 66  1  0
 60 62  1  0
 61 67  1  0
 62 61  1  0
 63 62  2  0
 64 65  1  0
 64 58  2  0
 65 60  2  0
 66 59  1  0
 67 57  1  0
 69 71  2  0
 70 69  1  0
 72 70  1  0
 73 82  2  0
 73 78  1  0
 74 70  1  0
 74 78  1  0
 75 74  1  0
 76 77  1  0
 76 75  1  0
 77 73  1  0
 78 79  2  0
 79 80  1  0
 81 80  2  0
 82 81  1  0
 83 57  1  0
 83 84  1  0
 83 93  1  0
 84 87  1  0
 85 89  1  0
 85 84  1  0
 86 85  2  0
 89 88  1  0
 91 89  1  0
 91 92  1  0
 91 90  1  0
 93 96  1  1
 93 94  1  0
 95 93  1  0
M  ISO  4  13 100  21 100  55 101  56 101
M  END
>  <TORSDO>  (11) 
F 22

>  <SCORE>  (11) 
-11.914

>  <name>  (11) 
10

>  <ligand_id>  (11) 
10

>  <original_smiles>  (11) 
[H]c1c([H])c([H])c2c(c1[H])C([H])([H])C([H])([H])C([H])([H])C2([H])N([H])C(=O)C1([H])N(C(=O)C([H])(N([H])C(=O)C([H])(N([H])C([H])([H])[H])C([H])([H])[H])C(C([H])([H])[H])(C([H])([H])[H])C([H])([H])[H])C([H])([H])c2c([H])c(OC([H])([H])C([H])(C3([H])C([H])([H])C3([H])[H])[N+]([H])([H])C([H])([H])C([H])(C([H])([H])[H])C3([H])C([H])([H])C([H])([H])C([H])(N([H])C(=O)N4C([H])([H])C([H])([H])C([H])([H])C([H])(n5nc(-c6c([H])c([H])c(Oc7c([H])c([H])c(F)c([H])c7F)c([H])c6[H])c(C(=O)N([H])[H])c5N([H])[H])C4([H])[H])C([H])([H])C3([H])[H])c([H])c([H])c2C1([H])[H]

>  <smiles>  (11) 
[H]c1c([H])c([H])c2c(c1[H])C([H])([H])C([H])([H])C([H])([H])C2([H])N([H])C(=O)C1([H])N(C(=O)C([H])(N([H])C(=O)C([H])(N([H])C([H])([H])[H])C([H])([H])[H])C(C([H])([H])[H])(C([H])([H])[H])C([H])([H])[H])C([H])([H])c2c([H])c(OC([H])([H])C([H])(C3([H])C([H])([H])C3([H])[H])[N+]([H])([H])C([H])([H])C([H])(C([H])([H])[H])C3([H])C([H])([H])C([H])([H])C([H])(N([H])C(=O)N4C([H])([H])C([H])([H])C([H])([H])C([H])(n5nc(-c6c([H])c([H])c(Oc7c([H])c([H])c(F)c([H])c7F)c([H])c6[H])c(C(=O)N([H])[H])c5N([H])[H])C4([H])[H])C([H])([H])C3([H])[H])c([H])c([H])c2C1([H])[H]

$$$$
11:0:0
     RDKit          3D

 95104  0  0  1  0  0  0  0  0999 V2000
  -28.5770  -21.9060   19.3780 C   0  0  0  0  0  3  0  0  0  0  0  0
  -28.8110  -23.5720   21.0720 C   0  0  0  0  0  3  0  0  0  0  0  0
  -26.5930  -23.3480   19.9440 C   0  0  0  0  0  0  0  0  0  0  0  0
  -29.4200  -22.5580   20.3010 C   0  0  0  0  0  0  0  0  0  0  0  0
  -27.2110  -22.2840   19.2010 C   0  0  0  0  0  0  0  0  0  0  0  0
  -27.4450  -23.9580   20.9280 C   0  0  0  0  0  0  0  0  0  0  0  0
  -26.4260  -21.5010   18.1540 C   0  0  0  0  0  1  0  0  0  0  0  0
  -26.9980  -25.0530   21.8760 C   0  0  0  0  0  1  0  0  0  0  0  0
  -25.2390  -24.5570   18.1730 C   0  0  0  0  0  2  0  0  0  0  0  0
  -24.6070  -26.2310   19.8390 C   0  0  0  0  0  2  0  0  0  0  0  0
  -25.1250  -23.8180   19.5130 C   0  0  0  0  0  3  0  0  0  0  0  0
  -25.4060  -26.0350   18.5370 C   0  0  0  0  0  3  0  0  0  0  0  0
  -24.1720  -24.8200   20.3070 C   0  0  0  0  0  3  0  0  0  0  0  0
  -24.9990  -26.9780   17.3960 C   0  0  0  0  0  1  0  0  0  0  0  0
  -21.5850  -25.0060   20.5690 C   0  0  0  0  0  0  0  0  0  0  0  0
  -19.1540  -24.6200   20.2590 C   0  0  0  0  0  2  0  0  0  0  0  0
  -18.9550  -23.1990   19.6890 C   0  0  0  0  0  2  0  0  0  0  0  0
  -19.0790  -23.1980   18.1500 C   0  0  0  0  0  2  0  0  0  0  0  0
  -20.3330  -23.9610   17.6440 C   0  0  0  0  0  3  0  0  0  0  0  0
  -20.4570  -25.3340   18.3380 C   0  0  0  0  0  2  0  0  0  0  0  0
  -20.4660  -25.0940   19.7900 N   0  0  0  0  0  0  0  0  0  0  0  0
  -21.5330  -25.0000   21.8020 O   0  0  0  0  0  0  0  0  0  0  0  0
  -22.7350  -24.7500   19.8900 N   0  0  0  0  0  0  0  0  0  0  0  0
  -22.5970  -24.6790   18.8950 H   0  0  0  0  0  0  0  0  0  0  0  0
  -21.3220  -23.6770   15.2890 C   0  0  0  0  0  0  0  0  0  0  0  0
  -20.8200  -23.9480   14.0440 C   0  0  0  0  0  0  0  0  0  0  0  0
  -19.5260  -24.5100   14.2560 C   0  0  0  0  0  0  0  0  0  0  0  0
  -20.3480  -24.0790   16.1890 N   0  0  0  0  0  0  0  0  0  0  0  0
  -19.2830  -24.6360   15.5560 N   0  0  0  0  0  0  0  0  0  0  0  0
  -18.4780  -24.8810   13.2960 C   0  0  0  0  0  0  0  0  0  0  0  0
  -18.4340  -26.1670   12.7130 C   0  0  0  0  0  3  0  0  0  0  0  0
  -17.4270  -26.4960   11.7790 C   0  0  0  0  0  3  0  0  0  0  0  0
  -16.4540  -25.5340   11.4180 C   0  0  0  0  0  0  0  0  0  0  0  0
  -16.4890  -24.2640   12.0180 C   0  0  0  0  0  3  0  0  0  0  0  0
  -17.4880  -23.9390   12.9510 C   0  0  0  0  0  3  0  0  0  0  0  0
  -15.4240  -25.7730   10.5410 O   0  0  0  0  0  0  0  0  0  0  0  0
  -15.5750  -26.6150    9.4680 C   0  0  0  0  0  0  0  0  0  0  0  0
  -16.3470  -26.2560    8.3420 C   0  0  0  0  0  3  0  0  0  0  0  0
  -16.4160  -27.1210    7.2310 C   0  0  0  0  0  3  0  0  0  0  0  0
  -15.7080  -28.3380    7.2400 C   0  0  0  0  0  0  0  0  0  0  0  0
  -14.9350  -28.6940    8.3590 C   0  0  0  0  0  3  0  0  0  0  0  0
  -14.8670  -27.8340    9.4670 C   0  0  0  0  0  0  0  0  0  0  0  0
  -14.1020  -28.1720   10.5340 F   0  0  0  0  0  0  0  0  0  0  0  0
  -15.7700  -29.1660    6.1710 F   0  0  0  0  0  0  0  0  0  0  0  0
  -21.4630  -23.6060   12.7300 C   0  0  0  0  0  0  0  0  0  0  0  0
  -21.7290  -24.6050   11.8970 N   0  0  0  0  0  0  0  0  0  0  0  0
  -21.7760  -22.4480   12.4520 O   0  0  0  0  0  0  0  0  0  0  0  0
  -21.4930  -25.5590   12.1320 H   0  0  0  0  0  0  0  0  0  0  0  0
  -22.1790  -24.4150   11.0140 H   0  0  0  0  0  0  0  0  0  0  0  0
  -22.5090  -23.0980   15.7250 N   0  0  0  0  0  0  0  0  0  0  0  0
  -23.1820  -22.7180   15.0690 H   0  0  0  0  0  0  0  0  0  0  0  0
  -22.6890  -22.8220   16.6790 H   0  0  0  0  0  0  0  0  0  0  0  0
  -30.9230  -22.1850   20.5530 C   0  0  0  0  0  3  0  0  0  0  0  0
  -31.9140  -21.9660   19.3500 C   0  0  0  0  0  3  0  0  0  0  0  0
  -33.2720  -21.5460   19.7230 O   0  0  0  0  0  0  0  0  0  0  0  0
  -39.4700  -24.8780   21.1470 C   0  0  0  0  0  0  0  0  0  0  0  0
  -34.3600  -22.2640   19.2160 C   0  0  0  0  0  0  0  0  0  0  0  0
  -38.4440  -25.3720   18.9530 C   0  0  0  0  0  3  0  0  0  0  0  0
  -36.5360  -23.8320   18.2440 C   0  0  0  0  0  0  0  0  0  0  0  0
  -38.0540  -23.1090   20.0900 C   0  0  0  0  0  2  0  0  0  0  0  0
  -36.7020  -23.0490   19.3940 C   0  0  0  0  0  0  0  0  0  0  0  0
  -35.6240  -22.2540   19.8730 C   0  0  0  0  0  3  0  0  0  0  0  0
  -34.2380  -23.0490   18.0460 C   0  0  0  0  0  3  0  0  0  0  0  0
  -35.3060  -23.8270   17.5650 C   0  0  0  0  0  3  0  0  0  0  0  0
  -37.7180  -24.6580   17.7840 C   0  0  0  0  0  2  0  0  0  0  0  0
  -38.6690  -24.4620   20.1230 N   0  0  0  0  0  0  0  0  0  0  0  0
  -40.0440  -25.9760   21.1110 O   0  0  0  0  0  0  0  0  0  0  0  0
  -37.6640  -26.6570   19.3180 C   0  0  0  0  0  0  0  0  0  0  0  0
  -37.9470  -27.7580   18.6010 N   0  0  0  0  0  0  0  0  0  0  0  0
  -36.8100  -26.6440   20.2090 O   0  0  0  0  0  0  0  0  0  0  0  0
  -38.6670  -27.6900   17.8950 H   0  0  0  0  0  0  0  0  0  0  0  0
  -38.1700  -31.2350   17.6390 C   0  0  0  0  0  0  0  0  0  0  0  0
  -37.3060  -29.0650   18.7450 C   0  0  0  0  0  3  0  0  0  0  0  0
  -36.0850  -29.1920   17.8040 C   0  0  0  0  0  2  0  0  0  0  0  0
  -36.4290  -29.8310   16.4550 C   0  0  0  0  0  2  0  0  0  0  0  0
  -37.0110  -31.2330   16.6560 C   0  0  0  0  0  2  0  0  0  0  0  0
  -38.3160  -30.2090   18.6090 C   0  0  0  0  0  0  0  0  0  0  0  0
  -39.4300  -30.2390   19.4760 C   0  0  0  0  0  3  0  0  0  0  0  0
  -40.3830  -31.2700   19.3870 C   0  0  0  0  0  3  0  0  0  0  0  0
  -40.2260  -32.2920   18.4340 C   0  0  0  0  0  3  0  0  0  0  0  0
  -39.1200  -32.2760   17.5670 C   0  0  0  0  0  3  0  0  0  0  0  0
  -39.7240  -23.9820   22.4000 C   0  0  0  0  0  3  0  0  0  0  0  0
  -38.8720  -24.4140   23.6570 C   0  0  1  0  0  0  0  0  0  0  0  0
  -39.3450  -25.7340   24.3080 C   0  0  0  0  0  1  0  0  0  0  0  0
  -37.3830  -24.5850   23.2750 C   0  0  0  0  0  1  0  0  0  0  0  0
  -38.9320  -23.3090   24.7370 C   0  0  0  0  0  1  0  0  0  0  0  0
  -41.1600  -24.0440   22.7060 N   0  0  0  0  0  0  0  0  0  0  0  0
  -42.0190  -23.0300   22.5360 C   0  0  0  0  0  0  0  0  0  0  0  0
  -41.6640  -21.9070   22.1680 O   0  0  0  0  0  0  0  0  0  0  0  0
  -41.5300  -24.9480   22.9600 H   0  0  0  0  0  0  0  0  0  0  0  0
  -44.3250  -23.1100   21.5350 C   0  0  0  0  0  1  0  0  0  0  0  0
  -43.5070  -23.3040   22.8220 C   0  0  0  0  0  3  0  0  0  0  0  0
  -43.7070  -22.9130   25.2380 C   0  0  0  0  0  1  0  0  0  0  0  0
  -44.0680  -22.4570   23.8980 N   0  0  0  0  0  0  0  0  0  0  0  0
  -45.0820  -22.4230   23.8380 H   0  0  0  0  0  0  0  0  0  0  0  0
  1  4  1  0
  3  6  2  0
  4 53  1  0
  4  2  2  0
  5  1  2  0
  5  3  1  0
  6  2  1  0
  6  8  1  0
  7  5  1  0
  9 12  1  0
  9 11  1  0
 10 13  1  0
 11  3  1  0
 11 13  1  0
 12 14  1  0
 12 10  1  0
 13 23  1  0
 15 22  2  0
 17 16  1  0
 18 17  1  0
 19 28  1  0
 19 18  1  0
 19 20  1  0
 20 21  1  0
 21 16  1  0
 21 15  1  0
 23 15  1  0
 24 23  1  0
 25 50  1  0
 25 28  1  0
 26 27  1  0
 26 25  2  0
 27 29  2  0
 29 28  1  0
 30 27  1  0
 31 30  2  0
 32 31  1  0
 33 32  2  0
 33 34  1  0
 34 35  2  0
 35 30  1  0
 36 33  1  0
 37 36  1  0
 38 37  2  0
 39 40  2  0
 39 38  1  0
 40 41  1  0
 41 42  2  0
 42 37  1  0
 42 43  1  0
 44 40  1  0
 45 26  1  0
 46 48  1  0
 46 45  1  0
 47 45  2  0
 49 46  1  0
 50 52  1  0
 51 50  1  0
 54 55  1  0
 54 53  2  0
 57 55  1  0
 57 62  1  0
 58 68  1  0
 58 66  1  0
 59 61  1  0
 60 66  1  0
 61 62  2  0
 61 60  1  0
 63 57  2  0
 64 63  1  0
 64 59  2  0
 65 59  1  0
 65 58  1  0
 66 56  1  0
 67 56  2  0
 68 70  2  0
 69 68  1  0
 71 69  1  0
 72 77  1  0
 73 69  1  0
 74 73  1  0
 75 76  1  0
 75 74  1  0
 76 72  1  0
 77 73  1  0
 77 78  2  0
 79 78  1  0
 80 79  2  0
 81 72  2  0
 81 80  1  0
 82 56  1  0
 82 87  1  0
 82 83  1  0
 83 84  1  1
 83 86  1  0
 85 83  1  0
 87 90  1  0
 88 87  1  0
 88 92  1  0
 89 88  2  0
 92 91  1  0
 92 94  1  0
 94 93  1  0
 95 94  1  0
M  ISO  4  15 100  23 100  54 101  55 101
M  END
>  <TORSDO>  (12) 
F 19

>  <SCORE>  (12) 
-5.469

>  <name>  (12) 
11

>  <ligand_id>  (12) 
11

>  <original_smiles>  (12) 
[H]c1c([H])c([H])c2c(c1[H])C([H])([H])C([H])([H])C([H])([H])C2([H])N([H])C(=O)C1([H])N(C(=O)C([H])(N([H])C(=O)C([H])(N([H])C([H])([H])[H])C([H])([H])[H])C(C([H])([H])[H])(C([H])([H])[H])C([H])([H])[H])C([H])([H])c2c([H])c(OC([H])([H])C([H])([H])c3c([H])c(C([H])([H])[H])c(C4([H])C([H])([H])C([H])(C([H])([H])[H])C([H])([H])C4([H])N([H])C(=O)N4C([H])([H])C([H])([H])C([H])([H])C([H])(n5nc(-c6c([H])c([H])c(Oc7c([H])c([H])c(F)c([H])c7F)c([H])c6[H])c(C(=O)N([H])[H])c5N([H])[H])C4([H])[H])c(C([H])([H])[H])c3[H])c([H])c([H])c2C1([H])[H]

>  <smiles>  (12) 
[H]c1c([H])c([H])c2c(c1[H])C([H])([H])C([H])([H])C([H])([H])C2([H])N([H])C(=O)C1([H])N(C(=O)C([H])(N([H])C(=O)C([H])(N([H])C([H])([H])[H])C([H])([H])[H])C(C([H])([H])[H])(C([H])([H])[H])C([H])([H])[H])C([H])([H])c2c([H])c(OC([H])([H])C([H])([H])c3c([H])c(C([H])([H])[H])c(C4([H])C([H])([H])C([H])(C([H])([H])[H])C([H])([H])C4([H])N([H])C(=O)N4C([H])([H])C([H])([H])C([H])([H])C([H])(n5nc(-c6c([H])c([H])c(Oc7c([H])c([H])c(F)c([H])c7F)c([H])c6[H])c(C(=O)N([H])[H])c5N([H])[H])C4([H])[H])c(C([H])([H])[H])c3[H])c([H])c([H])c2C1([H])[H]

$$$$
12:0:0
     RDKit          3D

 95104  0  0  1  0  0  0  0  0999 V2000
  -30.4000  -20.4950   21.0180 C   0  0  0  0  0  3  0  0  0  0  0  0
  -30.2960  -21.4590   23.2210 C   0  0  0  0  0  3  0  0  0  0  0  0
  -30.5940  -19.2180   21.6250 C   0  0  0  0  0  0  0  0  0  0  0  0
  -30.2400  -21.6520   21.8300 C   0  0  0  0  0  0  0  0  0  0  0  0
  -30.6100  -19.1680   23.0370 C   0  0  0  0  0  0  0  0  0  0  0  0
  -30.4690  -20.2650   23.8110 N   0  0  0  0  0  0  0  0  0  0  0  0
  -30.5850  -17.9110   19.2870 C   0  0  0  0  0  2  0  0  0  0  0  0
  -29.2190  -17.2470   19.4780 C   0  0  0  0  0  2  0  0  0  0  0  0
  -30.7810  -17.9130   20.8170 C   0  0  0  0  0  3  0  0  0  0  0  0
  -29.6420  -16.8570   20.9020 C   0  0  0  0  0  3  0  0  0  0  0  0
  -30.5860  -14.5510   20.1980 C   0  0  0  0  0  0  0  0  0  0  0  0
  -30.2550  -12.4230   18.9610 C   0  0  0  0  0  2  0  0  0  0  0  0
  -29.2460  -12.6650   17.8190 C   0  0  0  0  0  2  0  0  0  0  0  0
  -27.7970  -12.4950   18.3250 C   0  0  0  0  0  2  0  0  0  0  0  0
  -27.5230  -13.2850   19.6330 C   0  0  0  0  0  3  0  0  0  0  0  0
  -28.6410  -13.0090   20.6660 C   0  0  0  0  0  2  0  0  0  0  0  0
  -29.9420  -13.3560   20.0590 N   0  0  0  0  0  0  0  0  0  0  0  0
  -31.6000  -14.8480   19.5580 O   0  0  0  0  0  0  0  0  0  0  0  0
  -29.9650  -15.4140   21.0230 N   0  0  0  0  0  0  0  0  0  0  0  0
  -29.3240  -14.9330   21.6350 H   0  0  0  0  0  0  0  0  0  0  0  0
  -25.1640  -13.8490   20.5120 C   0  0  0  0  0  0  0  0  0  0  0  0
  -24.1200  -13.0540   20.9120 C   0  0  0  0  0  0  0  0  0  0  0  0
  -24.5840  -11.7090   20.7940 C   0  0  0  0  0  0  0  0  0  0  0  0
  -26.1960  -12.9840   20.1770 N   0  0  0  0  0  0  0  0  0  0  0  0
  -25.8520  -11.6900   20.4000 N   0  0  0  0  0  0  0  0  0  0  0  0
  -23.8760  -10.4330   20.9780 C   0  0  0  0  0  0  0  0  0  0  0  0
  -24.3460   -9.4440   21.8710 C   0  0  0  0  0  3  0  0  0  0  0  0
  -23.6370   -8.2360   22.0400 C   0  0  0  0  0  3  0  0  0  0  0  0
  -22.4430   -8.0060   21.3150 C   0  0  0  0  0  0  0  0  0  0  0  0
  -21.9920   -8.9830   20.4110 C   0  0  0  0  0  3  0  0  0  0  0  0
  -22.7020  -10.1830   20.2390 C   0  0  0  0  0  3  0  0  0  0  0  0
  -21.7040   -6.8500   21.3950 O   0  0  0  0  0  0  0  0  0  0  0  0
  -21.6790   -6.0880   22.5350 C   0  0  0  0  0  0  0  0  0  0  0  0
  -21.2450   -6.6130   23.7710 C   0  0  0  0  0  3  0  0  0  0  0  0
  -21.1700   -5.7770   24.9030 C   0  0  0  0  0  3  0  0  0  0  0  0
  -21.5210   -4.4180   24.8000 C   0  0  0  0  0  0  0  0  0  0  0  0
  -21.9480   -3.8920   23.5680 C   0  0  0  0  0  3  0  0  0  0  0  0
  -22.0250   -4.7250   22.4390 C   0  0  0  0  0  0  0  0  0  0  0  0
  -22.4190   -4.2090   21.2480 F   0  0  0  0  0  0  0  0  0  0  0  0
  -21.4400   -3.6130   25.8850 F   0  0  0  0  0  0  0  0  0  0  0  0
  -22.7400  -13.5110   21.2900 C   0  0  0  0  0  0  0  0  0  0  0  0
  -22.0670  -12.7750   22.1690 N   0  0  0  0  0  0  0  0  0  0  0  0
  -22.2650  -14.5540   20.8420 O   0  0  0  0  0  0  0  0  0  0  0  0
  -22.4600  -11.9290   22.5550 H   0  0  0  0  0  0  0  0  0  0  0  0
  -21.1460  -13.0650   22.4640 H   0  0  0  0  0  0  0  0  0  0  0  0
  -25.3160  -15.2250   20.3890 N   0  0  0  0  0  0  0  0  0  0  0  0
  -24.5640  -15.8770   20.5790 H   0  0  0  0  0  0  0  0  0  0  0  0
  -26.1600  -15.6770   20.0590 H   0  0  0  0  0  0  0  0  0  0  0  0
  -30.5710  -17.9190   25.0960 C   0  0  0  0  0  1  0  0  0  0  0  0
  -30.7680  -17.9570   23.6810 O   0  0  0  0  0  0  0  0  0  0  0  0
  -30.0340  -22.9530   21.4020 O   0  0  0  0  0  0  0  0  0  0  0  0
  -29.9030  -23.2550   20.0150 C   0  0  0  0  0  2  0  0  0  0  0  0
  -29.8030  -24.7940   19.8180 C   0  0  0  0  0  2  0  0  0  0  0  0
  -28.5030  -25.4670   20.3160 C   0  0  0  0  0  2  0  0  0  0  0  0
  -28.5330  -26.8890   20.0700 O   0  0  0  0  0  0  0  0  0  0  0  0
  -24.6270  -31.9680   23.2120 C   0  0  0  0  0  0  0  0  0  0  0  0
  -27.3370  -27.5830   20.0970 C   0  0  0  0  0  0  0  0  0  0  0  0
  -23.4380  -30.5580   21.5650 C   0  0  0  0  0  3  0  0  0  0  0  0
  -24.9110  -29.0520   20.1300 C   0  0  0  0  0  0  0  0  0  0  0  0
  -25.9570  -30.9600   21.3600 C   0  0  0  0  0  2  0  0  0  0  0  0
  -26.0650  -29.5970   20.7070 C   0  0  0  0  0  0  0  0  0  0  0  0
  -27.2800  -28.8730   20.6790 C   0  0  0  0  0  3  0  0  0  0  0  0
  -26.1610  -27.0600   19.5120 C   0  0  0  0  0  3  0  0  0  0  0  0
  -24.9530  -27.7820   19.5330 C   0  0  0  0  0  3  0  0  0  0  0  0
  -23.6480  -29.8830   20.1840 C   0  0  0  0  0  2  0  0  0  0  0  0
  -24.6920  -31.1770   22.1030 N   0  0  0  0  0  0  0  0  0  0  0  0
  -23.5440  -32.2190   23.7570 O   0  0  0  0  0  0  0  0  0  0  0  0
  -22.8050  -29.5220   22.5200 C   0  0  0  0  0  0  0  0  0  0  0  0
  -21.4820  -29.3220   22.3940 N   0  0  0  0  0  0  0  0  0  0  0  0
  -23.5000  -28.9000   23.3270 O   0  0  0  0  0  0  0  0  0  0  0  0
  -20.9830  -29.8750   21.7120 H   0  0  0  0  0  0  0  0  0  0  0  0
  -18.1240  -28.0950   22.9070 C   0  0  0  0  0  0  0  0  0  0  0  0
  -20.6810  -28.3650   23.1570 C   0  0  0  0  0  3  0  0  0  0  0  0
  -20.7860  -26.9440   22.5540 C   0  0  0  0  0  2  0  0  0  0  0  0
  -19.6770  -26.6340   21.5450 C   0  0  0  0  0  2  0  0  0  0  0  0
  -18.3010  -26.7580   22.2080 C   0  0  0  0  0  2  0  0  0  0  0  0
  -19.2420  -28.8570   23.3380 C   0  0  0  0  0  0  0  0  0  0  0  0
  -19.0210  -30.1100   23.9480 C   0  0  0  0  0  3  0  0  0  0  0  0
  -17.7150  -30.6020   24.1330 C   0  0  0  0  0  3  0  0  0  0  0  0
  -16.6120  -29.8350   23.7200 C   0  0  0  0  0  3  0  0  0  0  0  0
  -16.8170  -28.5830   23.1150 C   0  0  0  0  0  3  0  0  0  0  0  0
  -25.9060  -32.6090   23.8320 C   0  0  0  0  0  3  0  0  0  0  0  0
  -25.5860  -34.0070   24.1480 N   0  0  0  0  0  0  0  0  0  0  0  0
  -25.9270  -35.0550   23.3860 C   0  0  0  0  0  0  0  0  0  0  0  0
  -26.6150  -34.9480   22.3670 O   0  0  0  0  0  0  0  0  0  0  0  0
  -24.9680  -34.1650   24.9310 H   0  0  0  0  0  0  0  0  0  0  0  0
  -24.1970  -36.8370   22.9860 C   0  0  0  0  0  1  0  0  0  0  0  0
  -25.4240  -36.4430   23.8260 C   0  0  0  0  0  3  0  0  0  0  0  0
  -27.5360  -37.3430   24.6950 C   0  0  0  0  0  1  0  0  0  0  0  0
  -26.4540  -37.5000   23.7260 N   0  0  0  0  0  0  0  0  0  0  0  0
  -26.0410  -38.4190   23.8590 H   0  0  0  0  0  0  0  0  0  0  0  0
  -26.4220  -31.8520   25.1180 C   0  0  1  0  0  0  0  0  0  0  0  0
  -25.3230  -31.6140   26.1820 C   0  0  0  0  0  1  0  0  0  0  0  0
  -27.0200  -30.4760   24.7420 C   0  0  0  0  0  1  0  0  0  0  0  0
  -27.5630  -32.6600   25.7810 C   0  0  0  0  0  1  0  0  0  0  0  0
  1  3  2  0
  1  4  1  0
  2  6  1  0
  3  5  1  0
  4  2  2  0
  5 50  1  0
  5  6  2  0
  7  8  1  0
  7  9  1  0
  8 10  1  0
  9 10  1  0
  9  3  1  0
 10 19  1  0
 11 19  1  0
 12 17  1  0
 13 14  1  0
 13 12  1  0
 15 14  1  0
 15 24  1  0
 15 16  1  0
 17 11  1  0
 17 16  1  0
 18 11  2  0
 19 20  1  0
 21 22  2  0
 22 41  1  0
 23 22  1  0
 23 26  1  0
 24 25  1  0
 24 21  1  0
 25 23  2  0
 26 27  1  0
 27 28  2  0
 29 32  1  0
 29 28  1  0
 30 29  2  0
 31 30  1  0
 31 26  2  0
 32 33  1  0
 33 34  1  0
 34 35  2  0
 36 35  1  0
 36 40  1  0
 37 36  2  0
 38 33  2  0
 38 37  1  0
 39 38  1  0
 41 42  1  0
 42 45  1  0
 42 44  1  0
 43 41  2  0
 46 21  1  0
 46 47  1  0
 48 46  1  0
 50 49  1  0
 51  4  1  0
 52 51  1  0
 53 52  1  0
 53 54  1  0
 55 57  1  0
 55 54  1  0
 56 67  2  0
 57 62  1  0
 58 66  1  0
 58 68  1  0
 59 65  1  0
 59 61  1  0
 60 66  1  0
 61 60  1  0
 62 61  2  0
 63 64  1  0
 63 57  2  0
 64 59  2  0
 65 58  1  0
 66 56  1  0
 68 70  2  0
 69 68  1  0
 71 69  1  0
 72 81  2  0
 72 77  1  0
 73 69  1  0
 73 77  1  0
 74 73  1  0
 75 76  1  0
 75 74  1  0
 76 72  1  0
 77 78  2  0
 78 79  1  0
 80 79  2  0
 81 80  1  0
 82 56  1  0
 82 83  1  0
 82 92  1  0
 83 86  1  0
 84 88  1  0
 84 83  1  0
 85 84  2  0
 88 87  1  0
 90 88  1  0
 90 91  1  0
 90 89  1  0
 92 95  1  1
 92 93  1  0
 94 92  1  0
M  ISO  4  11 100  19 100  54 101  55 101
M  END
>  <TORSDO>  (13) 
F 22

>  <SCORE>  (13) 
-10.570

>  <name>  (13) 
12

>  <ligand_id>  (13) 
12

>  <original_smiles>  (13) 
[H]c1nc(OC([H])([H])[H])c(C2([H])C([H])([H])C([H])([H])C2([H])N([H])C(=O)N2C([H])([H])C([H])([H])C([H])([H])C([H])(n3nc(-c4c([H])c([H])c(Oc5c([H])c([H])c(F)c([H])c5F)c([H])c4[H])c(C(=O)N([H])[H])c3N([H])[H])C2([H])[H])c([H])c1OC([H])([H])C([H])([H])C([H])([H])Oc1c([H])c([H])c2c(c1[H])C([H])([H])N(C(=O)C([H])(N([H])C(=O)C([H])(N([H])C([H])([H])[H])C([H])([H])[H])C(C([H])([H])[H])(C([H])([H])[H])C([H])([H])[H])C([H])(C(=O)N([H])C1([H])c3c([H])c([H])c([H])c([H])c3C([H])([H])C([H])([H])C1([H])[H])C2([H])[H]

>  <smiles>  (13) 
[H]c1nc(OC([H])([H])[H])c(C2([H])C([H])([H])C([H])([H])C2([H])N([H])C(=O)N2C([H])([H])C([H])([H])C([H])([H])C([H])(n3nc(-c4c([H])c([H])c(Oc5c([H])c([H])c(F)c([H])c5F)c([H])c4[H])c(C(=O)N([H])[H])c3N([H])[H])C2([H])[H])c([H])c1OC([H])([H])C([H])([H])C([H])([H])Oc1c([H])c([H])c2c(c1[H])C([H])([H])N(C(=O)C([H])(N([H])C(=O)C([H])(N([H])C([H])([H])[H])C([H])([H])[H])C(C([H])([H])[H])(C([H])([H])[H])C([H])([H])[H])C([H])(C(=O)N([H])C1([H])c3c([H])c([H])c([H])c([H])c3C([H])([H])C([H])([H])C1([H])[H])C2([H])[H]

$$$$
13:0:0
     RDKit          3D

 95104  0  0  1  0  0  0  0  0999 V2000
  -29.7590  -20.4730   20.5720 C   0  0  0  0  0  3  0  0  0  0  0  0
  -28.0610  -21.1290   19.2790 C   0  0  0  0  0  3  0  0  0  0  0  0
  -29.0590  -21.6250   20.0690 C   0  0  0  0  0  0  0  0  0  0  0  0
  -29.1650  -19.3150   20.1030 C   0  0  0  0  0  0  0  0  0  0  0  0
  -28.1110  -19.7430   19.2880 N   0  0  0  0  0  0  0  0  0  0  0  0
  -27.7930  -18.4740   17.1800 C   0  0  0  0  0  1  0  0  0  0  0  0
  -27.1850  -18.9100   18.5220 C   0  0  0  0  0  3  0  0  0  0  0  0
  -25.7640  -17.9750   20.5320 C   0  0  0  0  0  2  0  0  0  0  0  0
  -25.1920  -17.3340   19.2860 C   0  0  0  0  0  2  0  0  0  0  0  0
  -26.6480  -17.7370   19.3340 C   0  0  0  0  0  3  0  0  0  0  0  0
  -29.3910  -17.8080   20.3110 C   0  0  0  0  0  2  0  0  0  0  0  0
  -31.9700  -17.3210   20.4020 C   0  0  0  0  0  1  0  0  0  0  0  0
  -30.5620  -16.8750   20.8550 C   0  0  0  0  0  3  0  0  0  0  0  0
  -30.9390  -14.3460   20.2590 C   0  0  0  0  0  0  0  0  0  0  0  0
  -30.6330  -12.0600   19.3540 C   0  0  0  0  0  2  0  0  0  0  0  0
  -29.6800  -12.1210   18.1430 C   0  0  0  0  0  2  0  0  0  0  0  0
  -28.2130  -12.0210   18.6030 C   0  0  0  0  0  2  0  0  0  0  0  0
  -27.8850  -12.9900   19.7710 C   0  0  0  0  0  3  0  0  0  0  0  0
  -28.9550  -12.9060   20.8840 C   0  0  0  0  0  2  0  0  0  0  0  0
  -30.2660  -13.1590   20.2650 N   0  0  0  0  0  0  0  0  0  0  0  0
  -32.0680  -14.4510   19.7760 O   0  0  0  0  0  0  0  0  0  0  0  0
  -30.2320  -15.4220   20.6900 N   0  0  0  0  0  0  0  0  0  0  0  0
  -29.3100  -15.1710   21.0160 H   0  0  0  0  0  0  0  0  0  0  0  0
  -25.5470  -13.6880   20.5810 C   0  0  0  0  0  0  0  0  0  0  0  0
  -24.4550  -12.9630   20.9710 C   0  0  0  0  0  0  0  0  0  0  0  0
  -24.8490  -11.5920   20.8970 C   0  0  0  0  0  0  0  0  0  0  0  0
  -26.5390  -12.7660   20.2940 N   0  0  0  0  0  0  0  0  0  0  0  0
  -26.1250  -11.4970   20.5450 N   0  0  0  0  0  0  0  0  0  0  0  0
  -24.0680  -10.3640   21.0930 C   0  0  0  0  0  0  0  0  0  0  0  0
  -24.4910   -9.3550   21.9860 C   0  0  0  0  0  3  0  0  0  0  0  0
  -23.7160   -8.1890   22.1670 C   0  0  0  0  0  3  0  0  0  0  0  0
  -22.5040   -8.0260   21.4560 C   0  0  0  0  0  0  0  0  0  0  0  0
  -22.0970   -9.0260   20.5540 C   0  0  0  0  0  3  0  0  0  0  0  0
  -22.8720  -10.1820   20.3700 C   0  0  0  0  0  3  0  0  0  0  0  0
  -21.6990   -6.9180   21.5500 O   0  0  0  0  0  0  0  0  0  0  0  0
  -21.6610   -6.1490   22.6860 C   0  0  0  0  0  0  0  0  0  0  0  0
  -21.3230   -6.6950   23.9440 C   0  0  0  0  0  3  0  0  0  0  0  0
  -21.2280   -5.8560   25.0730 C   0  0  0  0  0  3  0  0  0  0  0  0
  -21.4640   -4.4740   24.9460 C   0  0  0  0  0  0  0  0  0  0  0  0
  -21.7960   -3.9280   23.6920 C   0  0  0  0  0  3  0  0  0  0  0  0
  -21.8920   -4.7640   22.5660 C   0  0  0  0  0  0  0  0  0  0  0  0
  -22.1930   -4.2310   21.3570 F   0  0  0  0  0  0  0  0  0  0  0  0
  -21.3650   -3.6640   26.0260 F   0  0  0  0  0  0  0  0  0  0  0  0
  -23.0920  -13.5040   21.2990 C   0  0  0  0  0  0  0  0  0  0  0  0
  -22.3620  -12.8380   22.1850 N   0  0  0  0  0  0  0  0  0  0  0  0
  -22.6860  -14.5550   20.8040 O   0  0  0  0  0  0  0  0  0  0  0  0
  -22.6980  -11.9860   22.6080 H   0  0  0  0  0  0  0  0  0  0  0  0
  -21.4520  -13.1890   22.4460 H   0  0  0  0  0  0  0  0  0  0  0  0
  -25.7720  -15.0500   20.4280 N   0  0  0  0  0  0  0  0  0  0  0  0
  -25.0480  -15.7360   20.6100 H   0  0  0  0  0  0  0  0  0  0  0  0
  -26.6340  -15.4580   20.0910 H   0  0  0  0  0  0  0  0  0  0  0  0
  -29.3770  -22.9590   20.2980 O   0  0  0  0  0  0  0  0  0  0  0  0
  -28.3260  -23.9630   20.3280 C   0  0  0  0  0  2  0  0  0  0  0  0
  -28.7190  -25.2590   19.5470 C   0  0  0  0  0  2  0  0  0  0  0  0
  -28.5130  -26.5210   20.2310 O   0  0  0  0  0  0  0  0  0  0  0  0
  -24.5590  -31.6910   23.1570 C   0  0  0  0  0  0  0  0  0  0  0  0
  -27.3130  -27.2210   20.1650 C   0  0  0  0  0  0  0  0  0  0  0  0
  -23.4060  -30.2770   21.4880 C   0  0  0  0  0  3  0  0  0  0  0  0
  -24.9040  -28.7360   20.1070 C   0  0  0  0  0  0  0  0  0  0  0  0
  -25.9380  -30.6420   21.3540 C   0  0  0  0  0  2  0  0  0  0  0  0
  -26.0460  -29.2660   20.7200 C   0  0  0  0  0  0  0  0  0  0  0  0
  -27.2470  -28.5150   20.7430 C   0  0  0  0  0  3  0  0  0  0  0  0
  -26.1450  -26.7070   19.5550 C   0  0  0  0  0  3  0  0  0  0  0  0
  -24.9510  -27.4570   19.5230 C   0  0  0  0  0  3  0  0  0  0  0  0
  -23.6560  -29.5900   20.1180 C   0  0  0  0  0  2  0  0  0  0  0  0
  -24.6530  -30.8870   22.0570 N   0  0  0  0  0  0  0  0  0  0  0  0
  -23.4620  -31.9560   23.6670 O   0  0  0  0  0  0  0  0  0  0  0  0
  -22.7330  -29.2570   22.4360 C   0  0  0  0  0  0  0  0  0  0  0  0
  -21.4040  -29.1070   22.3140 N   0  0  0  0  0  0  0  0  0  0  0  0
  -23.4060  -28.6020   23.2350 O   0  0  0  0  0  0  0  0  0  0  0  0
  -20.9190  -29.6910   21.6460 H   0  0  0  0  0  0  0  0  0  0  0  0
  -18.0010  -28.0200   22.8600 C   0  0  0  0  0  0  0  0  0  0  0  0
  -20.5720  -28.1700   23.0720 C   0  0  0  0  0  3  0  0  0  0  0  0
  -20.6040  -26.7600   22.4420 C   0  0  0  0  0  2  0  0  0  0  0  0
  -19.4650  -26.5150   21.4490 C   0  0  0  0  0  2  0  0  0  0  0  0
  -18.1070  -26.6910   22.1330 C   0  0  0  0  0  2  0  0  0  0  0  0
  -19.1590  -28.7230   23.2870 C   0  0  0  0  0  0  0  0  0  0  0  0
  -19.0060  -29.9710   23.9280 C   0  0  0  0  0  3  0  0  0  0  0  0
  -17.7270  -30.5170   24.1450 C   0  0  0  0  0  3  0  0  0  0  0  0
  -16.5830  -29.8100   23.7340 C   0  0  0  0  0  3  0  0  0  0  0  0
  -16.7220  -28.5640   23.0980 C   0  0  0  0  0  3  0  0  0  0  0  0
  -25.8240  -32.3320   23.8100 C   0  0  0  0  0  3  0  0  0  0  0  0
  -25.4900  -33.7240   24.1460 N   0  0  0  0  0  0  0  0  0  0  0  0
  -25.8210  -34.7860   23.3980 C   0  0  0  0  0  0  0  0  0  0  0  0
  -26.5070  -34.6960   22.3770 O   0  0  0  0  0  0  0  0  0  0  0  0
  -24.8800  -33.8650   24.9380 H   0  0  0  0  0  0  0  0  0  0  0  0
  -24.0620  -36.5490   23.0380 C   0  0  0  0  0  1  0  0  0  0  0  0
  -25.3070  -36.1650   23.8560 C   0  0  0  0  0  3  0  0  0  0  0  0
  -27.4260  -37.0820   24.6940 C   0  0  0  0  0  1  0  0  0  0  0  0
  -26.3230  -37.2360   23.7490 N   0  0  0  0  0  0  0  0  0  0  0  0
  -25.9020  -38.1490   23.9000 H   0  0  0  0  0  0  0  0  0  0  0  0
  -26.3250  -31.5570   25.0900 C   0  0  1  0  0  0  0  0  0  0  0  0
  -25.2170  -31.3000   26.1380 C   0  0  0  0  0  1  0  0  0  0  0  0
  -26.9290  -30.1900   24.6970 C   0  0  0  0  0  1  0  0  0  0  0  0
  -27.4570  -32.3570   25.7760 C   0  0  0  0  0  1  0  0  0  0  0  0
  2  5  1  0
  2  3  2  0
  3 52  1  0
  3  1  1  0
  4 11  1  0
  4  1  2  0
  5  4  1  0
  7  6  1  0
  7  5  1  0
  7 10  1  0
  9 10  1  0
  9  8  1  0
 10  8  1  0
 11 13  1  0
 13 12  1  0
 14 20  1  0
 14 22  1  0
 15 20  1  0
 16 17  1  0
 16 15  1  0
 18 17  1  0
 18 27  1  0
 18 19  1  0
 20 19  1  0
 21 14  2  0
 22 13  1  0
 22 23  1  0
 24 25  2  0
 25 44  1  0
 26 25  1  0
 26 29  1  0
 27 28  1  0
 27 24  1  0
 28 26  2  0
 29 30  1  0
 30 31  2  0
 32 35  1  0
 32 31  1  0
 33 32  2  0
 34 33  1  0
 34 29  2  0
 35 36  1  0
 36 37  1  0
 37 38  2  0
 39 38  1  0
 39 43  1  0
 40 39  2  0
 41 36  2  0
 41 40  1  0
 42 41  1  0
 44 45  1  0
 45 48  1  0
 45 47  1  0
 46 44  2  0
 49 24  1  0
 49 50  1  0
 51 49  1  0
 52 53  1  0
 54 55  1  0
 54 53  1  0
 56 67  2  0
 57 55  1  0
 57 62  1  0
 58 66  1  0
 58 68  1  0
 59 65  1  0
 59 61  1  0
 60 66  1  0
 61 62  2  0
 61 60  1  0
 63 57  2  0
 64 63  1  0
 64 59  2  0
 65 58  1  0
 66 56  1  0
 68 70  2  0
 69 68  1  0
 71 69  1  0
 72 81  2  0
 72 77  1  0
 73 69  1  0
 73 77  1  0
 74 73  1  0
 75 76  1  0
 75 74  1  0
 76 72  1  0
 77 78  2  0
 78 79  1  0
 80 79  2  0
 81 80  1  0
 82 56  1  0
 82 83  1  0
 82 92  1  0
 83 86  1  0
 84 88  1  0
 84 83  1  0
 85 84  2  0
 88 87  1  0
 90 88  1  0
 90 91  1  0
 90 89  1  0
 92 95  1  1
 92 93  1  0
 94 92  1  0
M  ISO  4  14 100  22 100  54 101  55 101
M  END
>  <TORSDO>  (14) 
F 23

>  <SCORE>  (14) 
-11.140

>  <name>  (14) 
13

>  <ligand_id>  (14) 
13

>  <original_smiles>  (14) 
[H]c1c([H])c([H])c2c(c1[H])C([H])([H])C([H])([H])C([H])([H])C2([H])N([H])C(=O)C1([H])N(C(=O)C([H])(N([H])C(=O)C([H])(N([H])C([H])([H])[H])C([H])([H])[H])C(C([H])([H])[H])(C([H])([H])[H])C([H])([H])[H])C([H])([H])c2c([H])c(OC([H])([H])C([H])([H])Oc3c([H])c(C([H])([H])C([H])(N([H])C(=O)N4C([H])([H])C([H])([H])C([H])([H])C([H])(n5nc(-c6c([H])c([H])c(Oc7c([H])c([H])c(F)c([H])c7F)c([H])c6[H])c(C(=O)N([H])[H])c5N([H])[H])C4([H])[H])C([H])([H])[H])n(C([H])(C([H])([H])[H])C4([H])C([H])([H])C4([H])[H])c3[H])c([H])c([H])c2C1([H])[H]

>  <smiles>  (14) 
[H]c1c([H])c([H])c2c(c1[H])C([H])([H])C([H])([H])C([H])([H])C2([H])N([H])C(=O)C1([H])N(C(=O)C([H])(N([H])C(=O)C([H])(N([H])C([H])([H])[H])C([H])([H])[H])C(C([H])([H])[H])(C([H])([H])[H])C([H])([H])[H])C([H])([H])c2c([H])c(OC([H])([H])C([H])([H])Oc3c([H])c(C([H])([H])C([H])(N([H])C(=O)N4C([H])([H])C([H])([H])C([H])([H])C([H])(n5nc(-c6c([H])c([H])c(Oc7c([H])c([H])c(F)c([H])c7F)c([H])c6[H])c(C(=O)N([H])[H])c5N([H])[H])C4([H])[H])C([H])([H])[H])n(C([H])(C([H])([H])[H])C4([H])C([H])([H])C4([H])[H])c3[H])c([H])c([H])c2C1([H])[H]

$$$$
14:0:0
     RDKit          3D

 99109  0  0  1  0  0  0  0  0999 V2000
  -30.8460  -22.3220   21.9830 C   0  0  0  0  0  3  0  0  0  0  0  0
  -31.6370  -21.1640   21.9230 C   0  0  0  0  0  0  0  0  0  0  0  0
  -31.2520  -20.1250   21.0320 C   0  0  0  0  0  3  0  0  0  0  0  0
  -29.7030  -22.4310   21.1890 C   0  0  0  0  0  0  0  0  0  0  0  0
  -29.9600  -20.2090   20.4260 C   0  0  0  0  0  0  0  0  0  0  0  0
  -29.2390  -21.3720   20.4750 N   0  0  0  0  0  4  0  0  0  0  0  0
  -33.0800  -19.9160   23.7180 C   0  0  0  0  0  2  0  0  0  0  0  0
  -32.8220  -21.2900   24.2840 C   0  0  0  0  0  2  0  0  0  0  0  0
  -32.8750  -21.0890   22.7840 C   0  0  0  0  0  3  0  0  0  0  0  0
  -32.3200  -19.0770   20.6920 C   0  0  0  0  0  2  0  0  0  0  0  0
  -34.3330  -18.8230   18.9910 C   0  0  0  0  0  2  0  0  0  0  0  0
  -33.2390  -19.5860   18.2800 C   0  0  0  0  0  3  0  0  0  0  0  0
  -33.3770  -19.6850   19.7800 C   0  0  0  0  0  3  0  0  0  0  0  0
  -33.5300  -20.8030   17.4250 C   0  0  0  0  0  1  0  0  0  0  0  0
  -29.0490  -23.6620   21.2060 O   0  0  0  0  0  0  0  0  0  0  0  0
  -28.1090  -24.0790   20.1990 C   0  0  0  0  0  2  0  0  0  0  0  0
  -28.5350  -25.4180   19.5040 C   0  0  0  0  0  2  0  0  0  0  0  0
  -28.3570  -26.6660   20.2230 O   0  0  0  0  0  0  0  0  0  0  0  0
  -24.5520  -31.8860   23.2440 C   0  0  0  0  0  0  0  0  0  0  0  0
  -27.1780  -27.3990   20.1640 C   0  0  0  0  0  0  0  0  0  0  0  0
  -23.3440  -30.4960   21.5940 C   0  0  0  0  0  3  0  0  0  0  0  0
  -24.7920  -28.9490   20.1640 C   0  0  0  0  0  0  0  0  0  0  0  0
  -25.8740  -30.8270   21.4100 C   0  0  0  0  0  2  0  0  0  0  0  0
  -25.9520  -29.4560   20.7620 C   0  0  0  0  0  0  0  0  0  0  0  0
  -27.1400  -28.6860   20.7620 C   0  0  0  0  0  3  0  0  0  0  0  0
  -25.9960  -26.9150   19.5590 C   0  0  0  0  0  3  0  0  0  0  0  0
  -24.8110  -27.6800   19.5580 C   0  0  0  0  0  3  0  0  0  0  0  0
  -23.5530  -29.8170   20.2110 C   0  0  0  0  0  2  0  0  0  0  0  0
  -24.6070  -31.0860   22.1390 N   0  0  0  0  0  0  0  0  0  0  0  0
  -23.4720  -32.1640   23.7820 O   0  0  0  0  0  0  0  0  0  0  0  0
  -22.6830  -29.4760   22.5500 C   0  0  0  0  0  0  0  0  0  0  0  0
  -21.3610  -29.2890   22.4080 N   0  0  0  0  0  0  0  0  0  0  0  0
  -23.3590  -28.8550   23.3750 O   0  0  0  0  0  0  0  0  0  0  0  0
  -20.8760  -29.8420   21.7140 H   0  0  0  0  0  0  0  0  0  0  0  0
  -17.9890  -28.0720   22.8660 C   0  0  0  0  0  0  0  0  0  0  0  0
  -20.5400  -28.3490   23.1710 C   0  0  0  0  0  3  0  0  0  0  0  0
  -20.6610  -26.9160   22.6030 C   0  0  0  0  0  2  0  0  0  0  0  0
  -19.5770  -26.5810   21.5740 C   0  0  0  0  0  2  0  0  0  0  0  0
  -18.1850  -26.7200   22.1970 C   0  0  0  0  0  2  0  0  0  0  0  0
  -19.0970  -28.8420   23.3080 C   0  0  0  0  0  0  0  0  0  0  0  0
  -18.8630  -30.1080   23.8910 C   0  0  0  0  0  3  0  0  0  0  0  0
  -17.5520  -30.6030   24.0330 C   0  0  0  0  0  3  0  0  0  0  0  0
  -16.4600  -29.8300   23.6060 C   0  0  0  0  0  3  0  0  0  0  0  0
  -16.6790  -28.5650   23.0310 C   0  0  0  0  0  3  0  0  0  0  0  0
  -25.8400  -32.5070   23.8670 C   0  0  0  0  0  3  0  0  0  0  0  0
  -26.3510  -31.7320   25.1450 C   0  0  1  0  0  0  0  0  0  0  0  0
  -25.2530  -31.4920   26.2050 C   0  0  0  0  0  1  0  0  0  0  0  0
  -26.9360  -30.3550   24.7520 C   0  0  0  0  0  1  0  0  0  0  0  0
  -27.5020  -32.5230   25.8120 C   0  0  0  0  0  1  0  0  0  0  0  0
  -25.5410  -33.9080   24.1960 N   0  0  0  0  0  0  0  0  0  0  0  0
  -25.8840  -34.9570   23.4380 C   0  0  0  0  0  0  0  0  0  0  0  0
  -26.5550  -34.8490   22.4090 O   0  0  0  0  0  0  0  0  0  0  0  0
  -24.9410  -34.0680   24.9920 H   0  0  0  0  0  0  0  0  0  0  0  0
  -24.1640  -36.7580   23.0830 C   0  0  0  0  0  1  0  0  0  0  0  0
  -25.4030  -36.3490   23.8940 C   0  0  0  0  0  3  0  0  0  0  0  0
  -27.5420  -37.2230   24.7260 C   0  0  0  0  0  1  0  0  0  0  0  0
  -26.4410  -37.3960   23.7820 N   0  0  0  0  0  0  0  0  0  0  0  0
  -26.0390  -38.3180   23.9300 H   0  0  0  0  0  0  0  0  0  0  0  0
  -29.2510  -19.2210   19.7360 O   0  0  0  0  0  0  0  0  0  0  0  0
  -29.5790  -17.8150   19.5810 C   0  0  0  0  0  2  0  0  0  0  0  0
  -29.7870  -16.9290   20.8540 C   0  0  0  0  0  2  0  0  0  0  0  0
  -30.3630  -14.5220   20.1080 C   0  0  0  0  0  0  0  0  0  0  0  0
  -30.1350  -12.3620   18.9190 C   0  0  0  0  0  2  0  0  0  0  0  0
  -29.1010  -12.5410   17.7860 C   0  0  0  0  0  2  0  0  0  0  0  0
  -27.6620  -12.3280   18.3000 C   0  0  0  0  0  2  0  0  0  0  0  0
  -27.3780  -13.1250   19.6000 C   0  0  0  0  0  3  0  0  0  0  0  0
  -28.5060  -12.8990   20.6310 C   0  0  0  0  0  2  0  0  0  0  0  0
  -29.7730  -13.2990   19.9940 N   0  0  0  0  0  0  0  0  0  0  0  0
  -31.4600  -14.7890   19.6120 O   0  0  0  0  0  0  0  0  0  0  0  0
  -29.5740  -15.4730   20.6580 N   0  0  0  0  0  0  0  0  0  0  0  0
  -28.6920  -15.1230   20.9990 H   0  0  0  0  0  0  0  0  0  0  0  0
  -25.0060  -13.6680   20.4360 C   0  0  0  0  0  0  0  0  0  0  0  0
  -23.9810  -12.8650   20.8610 C   0  0  0  0  0  0  0  0  0  0  0  0
  -24.4780  -11.5280   20.8000 C   0  0  0  0  0  0  0  0  0  0  0  0
  -26.0620  -12.8160   20.1490 N   0  0  0  0  0  0  0  0  0  0  0  0
  -25.7510  -11.5250   20.4220 N   0  0  0  0  0  0  0  0  0  0  0  0
  -23.7990  -10.2430   21.0190 C   0  0  0  0  0  0  0  0  0  0  0  0
  -24.2770   -9.3140   21.9690 C   0  0  0  0  0  3  0  0  0  0  0  0
  -23.6000   -8.0920   22.1790 C   0  0  0  0  0  3  0  0  0  0  0  0
  -22.4310   -7.7950   21.4380 C   0  0  0  0  0  0  0  0  0  0  0  0
  -21.9740   -8.7140   20.4760 C   0  0  0  0  0  3  0  0  0  0  0  0
  -22.6520   -9.9250   20.2660 C   0  0  0  0  0  3  0  0  0  0  0  0
  -21.7200   -6.6250   21.5580 O   0  0  0  0  0  0  0  0  0  0  0  0
  -21.6740   -5.9300   22.7400 C   0  0  0  0  0  0  0  0  0  0  0  0
  -21.1810   -6.5100   23.9290 C   0  0  0  0  0  3  0  0  0  0  0  0
  -21.0910   -5.7380   25.1040 C   0  0  0  0  0  3  0  0  0  0  0  0
  -21.4780   -4.3840   25.0890 C   0  0  0  0  0  0  0  0  0  0  0  0
  -21.9610   -3.8020   23.9040 C   0  0  0  0  0  3  0  0  0  0  0  0
  -22.0570   -4.5730   22.7310 C   0  0  0  0  0  0  0  0  0  0  0  0
  -22.5040   -4.0030   21.5860 F   0  0  0  0  0  0  0  0  0  0  0  0
  -21.3820   -3.6370   26.2140 F   0  0  0  0  0  0  0  0  0  0  0  0
  -22.5860  -13.3010   21.2120 C   0  0  0  0  0  0  0  0  0  0  0  0
  -21.9300  -12.5790   22.1150 N   0  0  0  0  0  0  0  0  0  0  0  0
  -22.0900  -14.3150   20.7220 O   0  0  0  0  0  0  0  0  0  0  0  0
  -22.3490  -11.7600   22.5300 H   0  0  0  0  0  0  0  0  0  0  0  0
  -20.9980  -12.8460   22.3960 H   0  0  0  0  0  0  0  0  0  0  0  0
  -25.1230  -15.0420   20.2530 N   0  0  0  0  0  0  0  0  0  0  0  0
  -24.3490  -15.6800   20.4070 H   0  0  0  0  0  0  0  0  0  0  0  0
  -25.9410  -15.5010   19.8710 H   0  0  0  0  0  0  0  0  0  0  0  0
  2  1  2  0
  2  9  1  0
  3 10  1  0
  3  2  1  0
  4 15  1  0
  4  1  1  0
  5  6  2  0
  5  3  1  0
  6  4  2  0
  7  8  1  0
  9  7  1  0
  9  8  1  0
 11 13  1  0
 12 14  1  0
 12 11  1  0
 12 13  1  0
 13 10  1  0
 16 15  1  0
 17 16  1  0
 17 18  1  0
 19 30  2  0
 20 18  1  0
 20 25  1  0
 21 29  1  0
 21 31  1  0
 22 28  1  0
 22 24  1  0
 23 29  1  0
 24 23  1  0
 25 24  2  0
 26 20  2  0
 27 26  1  0
 27 22  2  0
 28 21  1  0
 29 19  1  0
 31 33  2  0
 32 31  1  0
 34 32  1  0
 35 44  2  0
 35 40  1  0
 36 32  1  0
 36 40  1  0
 37 36  1  0
 38 39  1  0
 38 37  1  0
 39 35  1  0
 40 41  2  0
 41 42  1  0
 43 42  2  0
 44 43  1  0
 45 19  1  0
 45 50  1  0
 45 46  1  0
 46 49  1  1
 46 47  1  0
 48 46  1  0
 50 53  1  0
 51 55  1  0
 51 50  1  0
 52 51  2  0
 55 54  1  0
 57 55  1  0
 57 58  1  0
 57 56  1  0
 59  5  1  0
 60 59  1  0
 60 61  1  0
 62 70  1  0
 63 68  1  0
 64 65  1  0
 64 63  1  0
 66 65  1  0
 66 75  1  0
 66 67  1  0
 68 62  1  0
 68 67  1  0
 69 62  2  0
 70 61  1  0
 70 71  1  0
 72 73  2  0
 73 92  1  0
 74 73  1  0
 74 77  1  0
 75 76  1  0
 75 72  1  0
 76 74  2  0
 77 78  1  0
 78 79  2  0
 80 83  1  0
 80 79  1  0
 81 80  2  0
 82 81  1  0
 82 77  2  0
 83 84  1  0
 84 85  1  0
 85 86  2  0
 87 86  1  0
 87 91  1  0
 88 87  2  0
 89 84  2  0
 89 88  1  0
 90 89  1  0
 92 93  1  0
 93 96  1  0
 93 95  1  0
 94 92  2  0
 97 98  1  0
 97 72  1  0
 99 97  1  0
M  ISO  4  17 101  18 101  62 100  70 100
M  END
>  <TORSDO>  (15) 
F 25

>  <SCORE>  (15) 
-10.917

>  <name>  (15) 
14

>  <ligand_id>  (15) 
14

>  <original_smiles>  (15) 
[H]c1c([H])c([H])c2c(c1[H])C([H])([H])C([H])([H])C([H])([H])C2([H])N([H])C(=O)C1([H])N(C(=O)C([H])(N([H])C(=O)C([H])(N([H])C([H])([H])[H])C([H])([H])[H])C(C([H])([H])[H])(C([H])([H])[H])C([H])([H])[H])C([H])([H])c2c([H])c(OC([H])([H])C([H])([H])Oc3nc(OC([H])([H])C([H])([H])N([H])C(=O)N4C([H])([H])C([H])([H])C([H])([H])C([H])(n5nc(-c6c([H])c([H])c(Oc7c([H])c([H])c(F)c([H])c7F)c([H])c6[H])c(C(=O)N([H])[H])c5N([H])[H])C4([H])[H])c(C([H])([H])C4([H])C([H])([H])C4([H])C([H])([H])[H])c(C4([H])C([H])([H])C4([H])[H])c3[H])c([H])c([H])c2C1([H])[H]

>  <smiles>  (15) 
[H]c1c([H])c([H])c2c(c1[H])C([H])([H])C([H])([H])C([H])([H])C2([H])N([H])C(=O)C1([H])N(C(=O)C([H])(N([H])C(=O)C([H])(N([H])C([H])([H])[H])C([H])([H])[H])C(C([H])([H])[H])(C([H])([H])[H])C([H])([H])[H])C([H])([H])c2c([H])c(OC([H])([H])C([H])([H])Oc3nc(OC([H])([H])C([H])([H])N([H])C(=O)N4C([H])([H])C([H])([H])C([H])([H])C([H])(n5nc(-c6c([H])c([H])c(Oc7c([H])c([H])c(F)c([H])c7F)c([H])c6[H])c(C(=O)N([H])[H])c5N([H])[H])C4([H])[H])c(C([H])([H])C4([H])C([H])([H])C4([H])C([H])([H])[H])c(C4([H])C([H])([H])C4([H])[H])c3[H])c([H])c([H])c2C1([H])[H]

$$$$
15:0:0
     RDKit          3D

 94104  0  0  1  0  0  0  0  0999 V2000
  -29.6540  -20.2620   21.1510 C   0  0  0  0  0  3  0  0  0  0  0  0
  -27.9730  -21.1200   19.6810 C   0  0  0  0  0  3  0  0  0  0  0  0
  -29.3660  -18.8940   20.7350 C   0  0  0  0  0  0  0  0  0  0  0  0
  -28.9670  -21.4350   20.6290 C   0  0  0  0  0  0  0  0  0  0  0  0
  -28.2990  -18.7910   19.8030 C   0  0  0  0  0  0  0  0  0  0  0  0
  -27.6500  -19.8670   19.3040 N   0  0  0  0  0  0  0  0  0  0  0  0
  -27.8430  -17.1620   17.7940 C   0  0  0  0  0  2  0  0  0  0  0  0
  -26.4990  -17.3300   18.4620 C   0  0  0  0  0  2  0  0  0  0  0  0
  -27.7770  -17.4790   19.2700 C   0  0  0  0  0  3  0  0  0  0  0  0
  -30.1350  -17.5990   21.3350 C   0  0  0  0  0  2  0  0  0  0  0  0
  -31.1850  -15.2020   21.0680 C   0  0  0  0  0  0  0  0  0  0  0  0
  -31.0390  -12.9040   20.1120 C   0  0  0  0  0  2  0  0  0  0  0  0
  -30.2140  -12.8790   18.8100 C   0  0  0  0  0  2  0  0  0  0  0  0
  -28.7030  -12.7580   19.1060 C   0  0  0  0  0  2  0  0  0  0  0  0
  -28.2200  -13.6600   20.2740 C   0  0  0  0  0  3  0  0  0  0  0  0
  -29.1920  -13.6550   21.4710 C   0  0  0  0  0  2  0  0  0  0  0  0
  -30.5050  -14.0110   20.9330 N   0  0  0  0  0  0  0  0  0  0  0  0
  -32.4120  -15.1500   21.1470 O   0  0  0  0  0  0  0  0  0  0  0  0
  -30.6280  -16.3780   20.5260 N   0  0  0  0  0  0  0  0  0  0  0  0
  -25.7870  -14.2300   20.8490 C   0  0  0  0  0  0  0  0  0  0  0  0
  -24.6930  -13.4500   21.0940 C   0  0  0  0  0  0  0  0  0  0  0  0
  -25.1580  -12.0990   21.0600 C   0  0  0  0  0  0  0  0  0  0  0  0
  -26.8460  -13.3580   20.6650 N   0  0  0  0  0  0  0  0  0  0  0  0
  -26.4710  -12.0670   20.8630 N   0  0  0  0  0  0  0  0  0  0  0  0
  -24.4170  -10.8340   21.1400 C   0  0  0  0  0  0  0  0  0  0  0  0
  -24.7690   -9.8290   22.0680 C   0  0  0  0  0  3  0  0  0  0  0  0
  -24.0220   -8.6330   22.1430 C   0  0  0  0  0  3  0  0  0  0  0  0
  -22.9140   -8.4320   21.2850 C   0  0  0  0  0  0  0  0  0  0  0  0
  -22.5840   -9.4260   20.3470 C   0  0  0  0  0  3  0  0  0  0  0  0
  -23.3300  -10.6140   20.2710 C   0  0  0  0  0  3  0  0  0  0  0  0
  -22.1490   -7.2900   21.2670 O   0  0  0  0  0  0  0  0  0  0  0  0
  -21.9790   -6.5210   22.3910 C   0  0  0  0  0  0  0  0  0  0  0  0
  -21.4250   -7.0490   23.5780 C   0  0  0  0  0  3  0  0  0  0  0  0
  -21.2040   -6.2090   24.6880 C   0  0  0  0  0  3  0  0  0  0  0  0
  -21.5280   -4.8410   24.6100 C   0  0  0  0  0  0  0  0  0  0  0  0
  -22.0730   -4.3120   23.4270 C   0  0  0  0  0  3  0  0  0  0  0  0
  -22.2950   -5.1490   22.3210 C   0  0  0  0  0  0  0  0  0  0  0  0
  -22.8010   -4.6310   21.1750 F   0  0  0  0  0  0  0  0  0  0  0  0
  -21.3100   -4.0300   25.6720 F   0  0  0  0  0  0  0  0  0  0  0  0
  -23.2790  -13.9250   21.2600 C   0  0  0  0  0  0  0  0  0  0  0  0
  -22.4840  -13.2150   22.0530 N   0  0  0  0  0  0  0  0  0  0  0  0
  -22.8860  -14.9600   20.7230 O   0  0  0  0  0  0  0  0  0  0  0  0
  -22.8170  -12.3760   22.5040 H   0  0  0  0  0  0  0  0  0  0  0  0
  -21.5340  -13.5150   22.2100 H   0  0  0  0  0  0  0  0  0  0  0  0
  -25.9690  -15.6050   20.7500 N   0  0  0  0  0  0  0  0  0  0  0  0
  -25.2010  -16.2600   20.8360 H   0  0  0  0  0  0  0  0  0  0  0  0
  -26.8640  -16.0500   20.6100 H   0  0  0  0  0  0  0  0  0  0  0  0
  -31.7170  -18.0520   18.7950 C   0  0  0  0  0  2  0  0  0  0  0  0
  -32.5590  -16.8110   18.8060 C   0  0  0  0  0  2  0  0  0  0  0  0
  -31.0810  -16.7160   19.1780 C   0  0  0  0  0  3  0  0  0  0  0  0
  -29.2090  -22.7820   21.0510 O   0  0  0  0  0  0  0  0  0  0  0  0
  -28.7640  -24.0050   20.2920 C   0  0  0  0  0  2  0  0  0  0  0  0
  -28.5210  -25.4020   21.0740 C   0  0  0  0  0  2  0  0  0  0  0  0
  -28.6000  -26.7510   20.4190 O   0  0  0  0  0  0  0  0  0  0  0  0
  -24.7040  -32.0710   23.4680 C   0  0  0  0  0  0  0  0  0  0  0  0
  -27.4680  -27.5890   20.4110 C   0  0  0  0  0  0  0  0  0  0  0  0
  -23.5640  -30.6680   21.7870 C   0  0  0  0  0  3  0  0  0  0  0  0
  -25.0750  -29.1620   20.3700 C   0  0  0  0  0  0  0  0  0  0  0  0
  -26.0990  -31.0450   21.6510 C   0  0  0  0  0  2  0  0  0  0  0  0
  -26.2260  -29.6710   20.9900 C   0  0  0  0  0  0  0  0  0  0  0  0
  -27.4300  -28.8990   20.9900 C   0  0  0  0  0  3  0  0  0  0  0  0
  -26.2980  -27.1340   19.7730 C   0  0  0  0  0  3  0  0  0  0  0  0
  -25.1150  -27.9010   19.7510 C   0  0  0  0  0  3  0  0  0  0  0  0
  -23.8240  -30.0190   20.4020 C   0  0  0  0  0  2  0  0  0  0  0  0
  -24.8090  -31.2780   22.3600 N   0  0  0  0  0  0  0  0  0  0  0  0
  -23.6060  -32.3160   23.9840 O   0  0  0  0  0  0  0  0  0  0  0  0
  -22.9060  -29.6240   22.7210 C   0  0  0  0  0  0  0  0  0  0  0  0
  -21.5960  -29.3820   22.5340 N   0  0  0  0  0  0  0  0  0  0  0  0
  -23.5730  -29.0360   23.5760 O   0  0  0  0  0  0  0  0  0  0  0  0
  -21.1120  -29.9170   21.8260 H   0  0  0  0  0  0  0  0  0  0  0  0
  -18.2730  -27.9790   22.8500 C   0  0  0  0  0  0  0  0  0  0  0  0
  -20.7870  -28.4060   23.2700 C   0  0  0  0  0  3  0  0  0  0  0  0
  -21.0150  -26.9730   22.7330 C   0  0  0  0  0  2  0  0  0  0  0  0
  -20.0020  -26.5640   21.6580 C   0  0  0  0  0  2  0  0  0  0  0  0
  -18.5760  -26.6320   22.2120 C   0  0  0  0  0  2  0  0  0  0  0  0
  -19.3110  -28.8170   23.3320 C   0  0  0  0  0  0  0  0  0  0  0  0
  -18.9770  -30.0720   23.8860 C   0  0  0  0  0  3  0  0  0  0  0  0
  -17.6360  -30.4930   23.9580 C   0  0  0  0  0  3  0  0  0  0  0  0
  -16.6100  -29.6520   23.4930 C   0  0  0  0  0  3  0  0  0  0  0  0
  -16.9290  -28.3960   22.9480 C   0  0  0  0  0  3  0  0  0  0  0  0
  -25.9600  -32.7260   24.1250 C   0  0  0  0  0  3  0  0  0  0  0  0
  -25.6290  -34.1270   24.4190 N   0  0  0  0  0  0  0  0  0  0  0  0
  -25.9770  -35.1680   23.6520 C   0  0  0  0  0  0  0  0  0  0  0  0
  -26.6800  -35.0520   22.6440 O   0  0  0  0  0  0  0  0  0  0  0  0
  -25.0110  -34.2920   25.2000 H   0  0  0  0  0  0  0  0  0  0  0  0
  -24.2450  -36.9400   23.2200 C   0  0  0  0  0  1  0  0  0  0  0  0
  -25.4690  -36.5620   24.0690 C   0  0  0  0  0  3  0  0  0  0  0  0
  -27.5750  -37.4780   24.9410 C   0  0  0  0  0  1  0  0  0  0  0  0
  -26.4970  -37.6210   23.9630 N   0  0  0  0  0  0  0  0  0  0  0  0
  -26.0790  -38.5400   24.0860 H   0  0  0  0  0  0  0  0  0  0  0  0
  -26.4370  -31.9820   25.4330 C   0  0  1  0  0  0  0  0  0  0  0  0
  -25.3020  -31.7260   26.4540 C   0  0  0  0  0  1  0  0  0  0  0  0
  -27.0730  -30.6170   25.0820 C   0  0  0  0  0  1  0  0  0  0  0  0
  -27.5400  -32.8090   26.1340 C   0  0  0  0  0  1  0  0  0  0  0  0
  2  4  1  0
  3  1  1  0
  3 10  1  0
  4 51  1  0
  4  1  2  0
  5  3  2  0
  6  2  2  0
  6  5  1  0
  7  8  1  0
  7  9  1  0
  8  9  1  0
  9  5  1  0
 11 18  2  0
 12 17  1  0
 13 14  1  0
 13 12  1  0
 15 14  1  0
 15 23  1  0
 15 16  1  0
 17 11  1  0
 17 16  1  0
 19 11  1  0
 19 10  1  0
 20 21  2  0
 21 40  1  0
 22 21  1  0
 22 25  1  0
 23 20  1  0
 23 24  1  0
 24 22  2  0
 25 26  1  0
 26 27  2  0
 28 27  1  0
 29 28  2  0
 30 29  1  0
 30 25  2  0
 31 28  1  0
 31 32  1  0
 32 33  1  0
 33 34  2  0
 35 34  1  0
 35 39  1  0
 36 35  2  0
 37 32  2  0
 37 36  1  0
 38 37  1  0
 40 41  1  0
 41 44  1  0
 41 43  1  0
 42 40  2  0
 45 46  1  0
 45 20  1  0
 47 45  1  0
 48 49  1  0
 48 50  1  0
 49 50  1  0
 50 19  1  0
 52 51  1  0
 52 53  1  0
 54 53  1  0
 55 66  2  0
 56 54  1  0
 56 61  1  0
 57 65  1  0
 57 67  1  0
 58 64  1  0
 58 60  1  0
 59 65  1  0
 60 61  2  0
 60 59  1  0
 62 56  2  0
 63 62  1  0
 63 58  2  0
 64 57  1  0
 65 55  1  0
 67 69  2  0
 68 67  1  0
 70 68  1  0
 71 80  2  0
 71 76  1  0
 72 68  1  0
 72 76  1  0
 73 72  1  0
 74 75  1  0
 74 73  1  0
 75 71  1  0
 76 77  2  0
 77 78  1  0
 79 78  2  0
 80 79  1  0
 81 55  1  0
 81 82  1  0
 81 91  1  0
 82 85  1  0
 83 87  1  0
 83 82  1  0
 84 83  2  0
 87 86  1  0
 89 87  1  0
 89 90  1  0
 89 88  1  0
 91 94  1  1
 91 92  1  0
 93 91  1  0
M  ISO  4  11 100  19 100  53 101  54 101
M  END
>  <TORSDO>  (16) 
F 22

>  <SCORE>  (16) 
-10.349

>  <name>  (16) 
15

>  <ligand_id>  (16) 
15

>  <original_smiles>  (16) 
[H]c1nc(C2([H])C([H])([H])C2([H])[H])c(C([H])([H])N(C(=O)N2C([H])([H])C([H])([H])C([H])([H])C([H])(n3nc(-c4c([H])c([H])c(Oc5c([H])c([H])c(F)c([H])c5F)c([H])c4[H])c(C(=O)N([H])[H])c3N([H])[H])C2([H])[H])C2([H])C([H])([H])C2([H])[H])c([H])c1OC([H])([H])C([H])([H])Oc1c([H])c([H])c2c(c1[H])C([H])([H])N(C(=O)C([H])(N([H])C(=O)C([H])(N([H])C([H])([H])[H])C([H])([H])[H])C(C([H])([H])[H])(C([H])([H])[H])C([H])([H])[H])C([H])(C(=O)N([H])C1([H])c3c([H])c([H])c([H])c([H])c3C([H])([H])C([H])([H])C1([H])[H])C2([H])[H]

>  <smiles>  (16) 
[H]c1nc(C2([H])C([H])([H])C2([H])[H])c(C([H])([H])N(C(=O)N2C([H])([H])C([H])([H])C([H])([H])C([H])(n3nc(-c4c([H])c([H])c(Oc5c([H])c([H])c(F)c([H])c5F)c([H])c4[H])c(C(=O)N([H])[H])c3N([H])[H])C2([H])[H])C2([H])C([H])([H])C2([H])[H])c([H])c1OC([H])([H])C([H])([H])Oc1c([H])c([H])c2c(c1[H])C([H])([H])N(C(=O)C([H])(N([H])C(=O)C([H])(N([H])C([H])([H])[H])C([H])([H])[H])C(C([H])([H])[H])(C([H])([H])[H])C([H])([H])[H])C([H])(C(=O)N([H])C1([H])c3c([H])c([H])c([H])c([H])c3C([H])([H])C([H])([H])C1([H])[H])C2([H])[H]

$$$$
16:0:0
     RDKit          3D

 93102  0  0  1  0  0  0  0  0999 V2000
  -29.4420  -21.4690   21.5560 C   0  0  0  0  0  3  0  0  0  0  0  0
  -28.5640  -22.3750   19.1200 C   0  0  0  0  0  3  0  0  0  0  0  0
  -29.3650  -20.4500   20.5380 C   0  0  0  0  0  0  0  0  0  0  0  0
  -29.0700  -22.8600   21.3870 C   0  0  0  0  0  0  0  0  0  0  0  0
  -28.6050  -23.3830   20.1450 C   0  0  0  0  0  0  0  0  0  0  0  0
  -28.9180  -20.9730   19.2840 C   0  0  0  0  0  0  0  0  0  0  0  0
  -29.0940  -23.7780   22.5980 C   0  0  0  0  0  1  0  0  0  0  0  0
  -30.7360  -18.5960   21.9060 C   0  0  0  0  0  2  0  0  0  0  0  0
  -31.5900  -18.0130   20.7720 C   0  0  0  0  0  2  0  0  0  0  0  0
  -29.6100  -18.8630   20.8810 C   0  0  0  0  0  3  0  0  0  0  0  0
  -30.2810  -17.5610   20.1040 C   0  0  0  0  0  3  0  0  0  0  0  0
  -30.6490  -14.8850   20.2500 C   0  0  0  0  0  0  0  0  0  0  0  0
  -30.4050  -12.5780   19.2820 C   0  0  0  0  0  2  0  0  0  0  0  0
  -29.4390  -12.6020   18.0770 C   0  0  0  0  0  2  0  0  0  0  0  0
  -27.9930  -12.3910   18.5500 C   0  0  0  0  0  2  0  0  0  0  0  0
  -27.6330  -13.3110   19.7420 C   0  0  0  0  0  3  0  0  0  0  0  0
  -28.7130  -13.3100   20.8470 C   0  0  0  0  0  2  0  0  0  0  0  0
  -29.9950  -13.6620   20.2190 N   0  0  0  0  0  0  0  0  0  0  0  0
  -31.8210  -14.9240   19.8660 O   0  0  0  0  0  0  0  0  0  0  0  0
  -29.9480  -16.0790   20.4930 N   0  0  0  0  0  0  0  0  0  0  0  0
  -29.0090  -15.9320   20.8360 H   0  0  0  0  0  0  0  0  0  0  0  0
  -25.2700  -13.8920   20.5340 C   0  0  0  0  0  0  0  0  0  0  0  0
  -24.2090  -13.1150   20.9120 C   0  0  0  0  0  0  0  0  0  0  0  0
  -24.6670  -11.7630   20.8540 C   0  0  0  0  0  0  0  0  0  0  0  0
  -26.3050  -13.0150   20.2660 N   0  0  0  0  0  0  0  0  0  0  0  0
  -25.9530  -11.7270   20.5230 N   0  0  0  0  0  0  0  0  0  0  0  0
  -23.9410  -10.4990   21.0350 C   0  0  0  0  0  0  0  0  0  0  0  0
  -24.3660   -9.5290   21.9700 C   0  0  0  0  0  3  0  0  0  0  0  0
  -23.6360   -8.3320   22.1390 C   0  0  0  0  0  3  0  0  0  0  0  0
  -22.4700   -8.0960   21.3740 C   0  0  0  0  0  0  0  0  0  0  0  0
  -22.0660   -9.0550   20.4270 C   0  0  0  0  0  3  0  0  0  0  0  0
  -22.7960  -10.2420   20.2560 C   0  0  0  0  0  3  0  0  0  0  0  0
  -21.7130   -6.9520   21.4530 O   0  0  0  0  0  0  0  0  0  0  0  0
  -21.6250   -6.2270   22.6140 C   0  0  0  0  0  0  0  0  0  0  0  0
  -21.1330   -6.7940   23.8100 C   0  0  0  0  0  3  0  0  0  0  0  0
  -20.9920   -5.9940   24.9620 C   0  0  0  0  0  3  0  0  0  0  0  0
  -21.3350   -4.6290   24.9200 C   0  0  0  0  0  0  0  0  0  0  0  0
  -21.8200   -4.0620   23.7280 C   0  0  0  0  0  3  0  0  0  0  0  0
  -21.9600   -4.8580   22.5780 C   0  0  0  0  0  0  0  0  0  0  0  0
  -22.4070   -4.3010   21.4260 F   0  0  0  0  0  0  0  0  0  0  0  0
  -21.1930   -3.8600   26.0240 F   0  0  0  0  0  0  0  0  0  0  0  0
  -22.8170  -13.5910   21.2160 C   0  0  0  0  0  0  0  0  0  0  0  0
  -22.1090  -12.8790   22.0870 N   0  0  0  0  0  0  0  0  0  0  0  0
  -22.3720  -14.6240   20.7220 O   0  0  0  0  0  0  0  0  0  0  0  0
  -22.4890  -12.0390   22.4970 H   0  0  0  0  0  0  0  0  0  0  0  0
  -21.1740  -13.1700   22.3350 H   0  0  0  0  0  0  0  0  0  0  0  0
  -25.4450  -15.2650   20.3680 N   0  0  0  0  0  0  0  0  0  0  0  0
  -24.6870  -15.9330   20.4620 H   0  0  0  0  0  0  0  0  0  0  0  0
  -26.2980  -15.6810   20.0200 H   0  0  0  0  0  0  0  0  0  0  0  0
  -28.4520  -20.5150   16.9560 C   0  0  0  0  0  1  0  0  0  0  0  0
  -28.7920  -20.0530   18.2620 O   0  0  0  0  0  0  0  0  0  0  0  0
  -27.8490  -24.8030   19.9050 C   0  0  0  0  0  2  0  0  0  0  0  0
  -28.2400  -26.2400   20.2640 O   0  0  0  0  0  0  0  0  0  0  0  0
  -24.6320  -31.8870   23.2390 C   0  0  0  0  0  0  0  0  0  0  0  0
  -27.2030  -27.2300   20.1760 C   0  0  0  0  0  0  0  0  0  0  0  0
  -23.4270  -30.5040   21.5960 C   0  0  0  0  0  3  0  0  0  0  0  0
  -24.8720  -28.9560   20.1580 C   0  0  0  0  0  0  0  0  0  0  0  0
  -25.9800  -30.7800   21.4250 C   0  0  0  0  0  2  0  0  0  0  0  0
  -26.0520  -29.3960   20.7720 C   0  0  0  0  0  0  0  0  0  0  0  0
  -27.2170  -28.5470   20.7750 C   0  0  0  0  0  3  0  0  0  0  0  0
  -25.9980  -26.9000   19.5050 C   0  0  0  0  0  3  0  0  0  0  0  0
  -24.8550  -27.7170   19.5130 C   0  0  0  0  0  3  0  0  0  0  0  0
  -23.6440  -29.8440   20.2100 C   0  0  0  0  0  2  0  0  0  0  0  0
  -24.7000  -31.0750   22.1430 N   0  0  0  0  0  0  0  0  0  0  0  0
  -23.5470  -32.1690   23.7700 O   0  0  0  0  0  0  0  0  0  0  0  0
  -22.7570  -29.4830   22.5480 C   0  0  0  0  0  0  0  0  0  0  0  0
  -21.4290  -29.3100   22.4220 N   0  0  0  0  0  0  0  0  0  0  0  0
  -23.4290  -28.8530   23.3690 O   0  0  0  0  0  0  0  0  0  0  0  0
  -20.9420  -29.8720   21.7390 H   0  0  0  0  0  0  0  0  0  0  0  0
  -18.0490  -28.1090   22.9180 C   0  0  0  0  0  0  0  0  0  0  0  0
  -20.6090  -28.3670   23.1870 C   0  0  0  0  0  3  0  0  0  0  0  0
  -20.7100  -26.9380   22.6040 C   0  0  0  0  0  2  0  0  0  0  0  0
  -19.6060  -26.6200   21.5910 C   0  0  0  0  0  2  0  0  0  0  0  0
  -18.2250  -26.7620   22.2370 C   0  0  0  0  0  2  0  0  0  0  0  0
  -19.1690  -28.8690   23.3500 C   0  0  0  0  0  0  0  0  0  0  0  0
  -18.9480  -30.1280   23.9490 C   0  0  0  0  0  3  0  0  0  0  0  0
  -17.6450  -30.6290   24.1180 C   0  0  0  0  0  3  0  0  0  0  0  0
  -16.5400  -29.8660   23.7000 C   0  0  0  0  0  3  0  0  0  0  0  0
  -16.7440  -28.6090   23.1060 C   0  0  0  0  0  3  0  0  0  0  0  0
  -25.9150  -32.5150   23.8650 C   0  0  0  0  0  3  0  0  0  0  0  0
  -26.4290  -31.7360   25.1370 C   0  0  1  0  0  0  0  0  0  0  0  0
  -25.3290  -31.4820   26.1950 C   0  0  0  0  0  1  0  0  0  0  0  0
  -27.0240  -30.3660   24.7340 C   0  0  0  0  0  1  0  0  0  0  0  0
  -27.5710  -32.5310   25.8120 C   0  0  0  0  0  1  0  0  0  0  0  0
  -25.6020  -33.9100   24.2070 N   0  0  0  0  0  0  0  0  0  0  0  0
  -25.9040  -34.9690   23.4460 C   0  0  0  0  0  0  0  0  0  0  0  0
  -26.5440  -34.8750   22.3940 O   0  0  0  0  0  0  0  0  0  0  0  0
  -25.0370  -34.0600   25.0310 H   0  0  0  0  0  0  0  0  0  0  0  0
  -24.1420  -36.7410   23.1630 C   0  0  0  0  0  1  0  0  0  0  0  0
  -25.4190  -36.3500   23.9240 C   0  0  0  0  0  3  0  0  0  0  0  0
  -27.5700  -37.2650   24.6750 C   0  0  0  0  0  1  0  0  0  0  0  0
  -26.4330  -37.4160   23.7720 N   0  0  0  0  0  0  0  0  0  0  0  0
  -26.0190  -38.3310   23.9360 H   0  0  0  0  0  0  0  0  0  0  0  0
  2  6  2  0
  2  5  1  0
  3  1  2  0
  4  1  1  0
  4  7  1  0
  5  4  2  0
  6  3  1  0
  9  8  1  0
 10  3  1  0
 10  8  1  0
 11 20  1  0
 11  9  1  0
 11 10  1  0
 12 20  1  0
 13 18  1  0
 14 15  1  0
 14 13  1  0
 16 15  1  0
 16 25  1  0
 16 17  1  0
 18 12  1  0
 18 17  1  0
 19 12  2  0
 20 21  1  0
 22 23  2  0
 23 42  1  0
 24 23  1  0
 24 27  1  0
 25 26  1  0
 25 22  1  0
 26 24  2  0
 27 28  1  0
 28 29  2  0
 30 33  1  0
 30 29  1  0
 31 30  2  0
 32 31  1  0
 32 27  2  0
 33 34  1  0
 34 35  1  0
 35 36  2  0
 37 36  1  0
 37 41  1  0
 38 37  2  0
 39 34  2  0
 39 38  1  0
 40 39  1  0
 42 43  1  0
 43 46  1  0
 43 45  1  0
 44 42  2  0
 47 48  1  0
 47 22  1  0
 49 47  1  0
 50 51  1  0
 51  6  1  0
 52  5  1  0
 52 53  1  0
 54 65  2  0
 55 53  1  0
 55 60  1  0
 56 64  1  0
 56 66  1  0
 57 63  1  0
 57 59  1  0
 58 64  1  0
 59 60  2  0
 59 58  1  0
 61 62  1  0
 61 55  2  0
 62 57  2  0
 63 56  1  0
 64 54  1  0
 66 68  2  0
 67 66  1  0
 69 67  1  0
 70 79  2  0
 70 75  1  0
 71 67  1  0
 71 75  1  0
 72 71  1  0
 73 74  1  0
 73 72  1  0
 74 70  1  0
 75 76  2  0
 76 77  1  0
 78 77  2  0
 79 78  1  0
 80 54  1  0
 80 85  1  0
 80 81  1  0
 81 84  1  1
 81 82  1  0
 83 81  1  0
 85 88  1  0
 86 90  1  0
 86 85  1  0
 87 86  2  0
 90 89  1  0
 92 90  1  0
 92 93  1  0
 92 91  1  0
M  ISO  4  12 100  20 100  52 101  53 101
M  END
>  <TORSDO>  (17) 
F 19

>  <SCORE>  (17) 
-14.368

>  <name>  (17) 
16

>  <ligand_id>  (17) 
16

>  <original_smiles>  (17) 
[H]c1c([H])c([H])c2c(c1[H])C([H])([H])C([H])([H])C([H])([H])C2([H])N([H])C(=O)C1([H])N(C(=O)C([H])(N([H])C(=O)C([H])(N([H])C([H])([H])[H])C([H])([H])[H])C(C([H])([H])[H])(C([H])([H])[H])C([H])([H])[H])C([H])([H])c2c([H])c(OC([H])([H])c3c([H])c(OC([H])([H])[H])c(C4([H])C([H])([H])C([H])([H])C4([H])N([H])C(=O)N4C([H])([H])C([H])([H])C([H])([H])C([H])(n5nc(-c6c([H])c([H])c(Oc7c([H])c([H])c(F)c([H])c7F)c([H])c6[H])c(C(=O)N([H])[H])c5N([H])[H])C4([H])[H])c([H])c3C([H])([H])[H])c([H])c([H])c2C1([H])[H]

>  <smiles>  (17) 
[H]c1c([H])c([H])c2c(c1[H])C([H])([H])C([H])([H])C([H])([H])C2([H])N([H])C(=O)C1([H])N(C(=O)C([H])(N([H])C(=O)C([H])(N([H])C([H])([H])[H])C([H])([H])[H])C(C([H])([H])[H])(C([H])([H])[H])C([H])([H])[H])C([H])([H])c2c([H])c(OC([H])([H])c3c([H])c(OC([H])([H])[H])c(C4([H])C([H])([H])C([H])([H])C4([H])N([H])C(=O)N4C([H])([H])C([H])([H])C([H])([H])C([H])(n5nc(-c6c([H])c([H])c(Oc7c([H])c([H])c(F)c([H])c7F)c([H])c6[H])c(C(=O)N([H])[H])c5N([H])[H])C4([H])[H])c([H])c3C([H])([H])[H])c([H])c([H])c2C1([H])[H]

$$$$
17:0:0
     RDKit          3D

 96105  0  0  1  0  0  0  0  0999 V2000
  -31.6840  -15.9440   21.7940 C   0  0  0  0  0  2  0  0  0  0  0  0
  -30.6290  -20.2280   19.8490 C   0  0  0  0  0  2  0  0  0  0  0  0
  -29.0240  -18.3110   20.3690 C   0  0  0  0  0  2  0  0  0  0  0  0
  -32.4600  -17.1340   21.2020 C   0  0  0  0  0  2  0  0  0  0  0  0
  -31.7990  -19.2280   19.9640 C   0  0  0  0  0  2  0  0  0  0  0  0
  -30.2040  -16.1950   21.4170 C   0  0  0  0  0  3  0  0  0  0  0  0
  -30.2550  -17.3780   20.4240 C   0  0  0  0  0  3  0  0  0  0  0  0
  -29.2850  -19.5480   19.4580 C   0  0  0  0  0  3  0  0  0  0  0  0
  -31.4260  -18.1380   20.8900 N   0  0  1  0  0  4  0  0  0  0  0  0
  -31.1900  -18.5590   21.7770 H   0  0  0  0  0  0  0  0  0  0  0  0
  -29.7930  -14.1880   19.9440 C   0  0  0  0  0  0  0  0  0  0  0  0
  -29.6020  -11.8930   19.0610 C   0  0  0  0  0  2  0  0  0  0  0  0
  -28.5650  -11.7730   17.9320 C   0  0  0  0  0  2  0  0  0  0  0  0
  -27.1620  -11.5230   18.5110 C   0  0  0  0  0  2  0  0  0  0  0  0
  -26.7950  -12.5340   19.6280 C   0  0  0  0  0  3  0  0  0  0  0  0
  -27.9300  -12.6450   20.6690 C   0  0  0  0  0  2  0  0  0  0  0  0
  -29.1860  -12.9750   19.9670 N   0  0  0  0  0  0  0  0  0  0  0  0
  -30.6690  -14.4950   19.1330 O   0  0  0  0  0  0  0  0  0  0  0  0
  -29.4770  -14.9980   20.9650 N   0  0  0  0  0  0  0  0  0  0  0  0
  -28.7490  -14.6590   21.5770 H   0  0  0  0  0  0  0  0  0  0  0  0
  -24.4740  -13.0210   20.6300 C   0  0  0  0  0  0  0  0  0  0  0  0
  -23.4900  -12.1940   21.1020 C   0  0  0  0  0  0  0  0  0  0  0  0
  -23.9980  -10.8650   20.9790 C   0  0  0  0  0  0  0  0  0  0  0  0
  -25.5190  -12.1920   20.2550 N   0  0  0  0  0  0  0  0  0  0  0  0
  -25.2420  -10.8890   20.5190 N   0  0  0  0  0  0  0  0  0  0  0  0
  -23.3530   -9.5680   21.2200 C   0  0  0  0  0  0  0  0  0  0  0  0
  -23.9190   -8.6120   22.0930 C   0  0  0  0  0  3  0  0  0  0  0  0
  -23.2710   -7.3790   22.3220 C   0  0  0  0  0  3  0  0  0  0  0  0
  -22.0430   -7.0930   21.6790 C   0  0  0  0  0  0  0  0  0  0  0  0
  -21.4960   -8.0380   20.7950 C   0  0  0  0  0  3  0  0  0  0  0  0
  -22.1450   -9.2620   20.5630 C   0  0  0  0  0  3  0  0  0  0  0  0
  -21.3560   -5.9120   21.8220 O   0  0  0  0  0  0  0  0  0  0  0  0
  -21.4560   -5.1530   22.9600 C   0  0  0  0  0  0  0  0  0  0  0  0
  -21.0670   -5.6490   24.2230 C   0  0  0  0  0  3  0  0  0  0  0  0
  -21.1220   -4.8120   25.3550 C   0  0  0  0  0  3  0  0  0  0  0  0
  -21.5560   -3.4790   25.2270 C   0  0  0  0  0  0  0  0  0  0  0  0
  -21.9380   -2.9820   23.9680 C   0  0  0  0  0  3  0  0  0  0  0  0
  -21.8850   -3.8150   22.8380 C   0  0  0  0  0  0  0  0  0  0  0  0
  -22.2350   -3.3250   21.6240 F   0  0  0  0  0  0  0  0  0  0  0  0
  -21.6010   -2.6720   26.3130 F   0  0  0  0  0  0  0  0  0  0  0  0
  -22.1160  -12.6020   21.5540 C   0  0  0  0  0  0  0  0  0  0  0  0
  -21.5220  -11.8460   22.4700 N   0  0  0  0  0  0  0  0  0  0  0  0
  -21.5820  -13.6250   21.1280 O   0  0  0  0  0  0  0  0  0  0  0  0
  -21.9690  -11.0170   22.8320 H   0  0  0  0  0  0  0  0  0  0  0  0
  -20.6060  -12.0990   22.8120 H   0  0  0  0  0  0  0  0  0  0  0  0
  -24.5600  -14.4010   20.4720 N   0  0  0  0  0  0  0  0  0  0  0  0
  -23.7910  -15.0240   20.6930 H   0  0  0  0  0  0  0  0  0  0  0  0
  -25.3560  -14.8800   20.0690 H   0  0  0  0  0  0  0  0  0  0  0  0
  -28.1400  -20.4980   19.5230 N   0  0  0  0  0  4  0  0  0  0  0  0
  -27.9630  -20.7400   20.4850 H   0  0  0  0  0  0  0  0  0  0  0  0
  -27.3190  -20.0210   19.1830 H   0  0  0  0  0  0  0  0  0  0  0  0
  -28.2650  -21.7540   18.7400 C   0  0  0  0  0  2  0  0  0  0  0  0
  -27.2680  -22.8210   19.2360 C   0  0  0  0  0  2  0  0  0  0  0  0
  -27.4780  -24.2270   18.6380 C   0  0  0  0  0  2  0  0  0  0  0  0
  -26.6470  -25.2830   19.3850 C   0  0  0  0  0  2  0  0  0  0  0  0
  -26.8320  -26.5910   18.8390 O   0  0  0  0  0  0  0  0  0  0  0  0
  -24.6690  -31.5160   23.4950 C   0  0  0  0  0  0  0  0  0  0  0  0
  -25.8530  -27.4840   19.2030 C   0  0  0  0  0  0  0  0  0  0  0  0
  -22.9590  -30.7120   21.8980 C   0  0  0  0  0  3  0  0  0  0  0  0
  -23.8310  -29.3020   19.9610 C   0  0  0  0  0  0  0  0  0  0  0  0
  -25.4390  -30.6980   21.2710 C   0  0  0  0  0  2  0  0  0  0  0  0
  -25.1490  -29.5010   20.3910 C   0  0  0  0  0  0  0  0  0  0  0  0
  -26.1660  -28.5990   20.0090 C   0  0  0  0  0  3  0  0  0  0  0  0
  -24.5230  -27.3020   18.7670 C   0  0  0  0  0  3  0  0  0  0  0  0
  -23.5100  -28.2010   19.1480 C   0  0  0  0  0  3  0  0  0  0  0  0
  -22.8030  -30.3170   20.4050 C   0  0  0  0  0  2  0  0  0  0  0  0
  -24.3860  -30.9730   22.2760 N   0  0  0  0  0  0  0  0  0  0  0  0
  -23.7650  -31.8370   24.2780 O   0  0  0  0  0  0  0  0  0  0  0  0
  -22.2830  -29.6270   22.7670 C   0  0  0  0  0  0  0  0  0  0  0  0
  -20.9500  -29.5110   22.6480 N   0  0  0  0  0  0  0  0  0  0  0  0
  -22.9530  -28.8980   23.5020 O   0  0  0  0  0  0  0  0  0  0  0  0
  -20.4740  -30.1520   22.0290 H   0  0  0  0  0  0  0  0  0  0  0  0
  -17.5850  -28.2190   22.8750 C   0  0  0  0  0  0  0  0  0  0  0  0
  -20.1070  -28.5370   23.3400 C   0  0  0  0  0  3  0  0  0  0  0  0
  -20.2910  -27.1220   22.7460 C   0  0  0  0  0  2  0  0  0  0  0  0
  -19.2750  -26.7920   21.6470 C   0  0  0  0  0  2  0  0  0  0  0  0
  -17.8470  -26.8890   22.1890 C   0  0  0  0  0  2  0  0  0  0  0  0
  -18.6480  -29.0000   23.4000 C   0  0  0  0  0  0  0  0  0  0  0  0
  -18.3530  -30.2470   23.9950 C   0  0  0  0  0  3  0  0  0  0  0  0
  -17.0270  -30.7130   24.0720 C   0  0  0  0  0  3  0  0  0  0  0  0
  -15.9770  -29.9280   23.5650 C   0  0  0  0  0  3  0  0  0  0  0  0
  -16.2560  -28.6830   22.9720 C   0  0  0  0  0  3  0  0  0  0  0  0
  -26.1390  -31.7800   23.9500 C   0  0  0  0  0  3  0  0  0  0  0  0
  -26.1990  -33.1540   24.4680 N   0  0  0  0  0  0  0  0  0  0  0  0
  -26.6980  -34.1980   23.7930 C   0  0  0  0  0  0  0  0  0  0  0  0
  -27.2270  -34.0890   22.6830 O   0  0  0  0  0  0  0  0  0  0  0  0
  -25.7340  -33.3270   25.3460 H   0  0  0  0  0  0  0  0  0  0  0  0
  -25.4330  -36.3720   23.8220 C   0  0  0  0  0  1  0  0  0  0  0  0
  -26.5920  -35.5860   24.4540 C   0  0  0  0  0  3  0  0  0  0  0  0
  -28.9250  -35.8380   25.1780 C   0  0  0  0  0  1  0  0  0  0  0  0
  -27.8390  -36.3770   24.3630 N   0  0  0  0  0  0  0  0  0  0  0  0
  -27.6770  -37.3390   24.6500 H   0  0  0  0  0  0  0  0  0  0  0  0
  -26.6510  -30.7520   25.0310 C   0  0  1  0  0  0  0  0  0  0  0  0
  -25.6970  -30.5940   26.2400 C   0  0  0  0  0  1  0  0  0  0  0  0
  -26.8490  -29.3530   24.4020 C   0  0  0  0  0  1  0  0  0  0  0  0
  -28.0320  -31.1960   25.5660 C   0  0  0  0  0  1  0  0  0  0  0  0
  2  5  1  0
  4  1  1  0
  5  9  1  0
  6 19  1  0
  6  1  1  0
  7  3  1  0
  7  9  1  0
  7  6  1  0
  8 49  1  0
  8  2  1  0
  8  3  1  0
  9  4  1  0
  9 10  1  1
 11 17  1  0
 11 19  1  0
 12 17  1  0
 13 14  1  0
 13 12  1  0
 15 14  1  0
 15 24  1  0
 15 16  1  0
 17 16  1  0
 18 11  2  0
 19 20  1  0
 21 22  2  0
 22 41  1  0
 23 22  1  0
 23 26  1  0
 24 25  1  0
 24 21  1  0
 25 23  2  0
 26 27  1  0
 27 28  2  0
 29 32  1  0
 29 28  1  0
 30 29  2  0
 31 30  1  0
 31 26  2  0
 32 33  1  0
 33 34  1  0
 34 35  2  0
 36 35  1  0
 36 40  1  0
 37 36  2  0
 38 33  2  0
 38 37  1  0
 39 38  1  0
 41 42  1  0
 42 45  1  0
 42 44  1  0
 43 41  2  0
 46 21  1  0
 46 47  1  0
 48 46  1  0
 49 50  1  0
 51 49  1  0
 52 53  1  0
 52 49  1  0
 54 53  1  0
 54 55  1  0
 56 58  1  0
 56 55  1  0
 57 68  2  0
 58 63  1  0
 59 67  1  0
 59 69  1  0
 60 62  1  0
 60 66  1  0
 61 67  1  0
 62 61  1  0
 63 62  2  0
 64 65  1  0
 64 58  2  0
 65 60  2  0
 66 59  1  0
 67 57  1  0
 69 71  2  0
 70 69  1  0
 72 70  1  0
 73 82  2  0
 73 78  1  0
 74 70  1  0
 74 78  1  0
 75 74  1  0
 76 77  1  0
 76 75  1  0
 77 73  1  0
 78 79  2  0
 79 80  1  0
 81 80  2  0
 82 81  1  0
 83 57  1  0
 83 84  1  0
 83 93  1  0
 84 87  1  0
 85 89  1  0
 85 84  1  0
 86 85  2  0
 89 88  1  0
 91 89  1  0
 91 92  1  0
 91 90  1  0
 93 96  1  1
 93 94  1  0
 95 93  1  0
M  ISO  4  11 100  19 100  55 101  56 101
M  END
>  <TORSDO>  (18) 
F 21

>  <SCORE>  (18) 
-8.467

>  <name>  (18) 
17

>  <ligand_id>  (18) 
17

>  <original_smiles>  (18) 
[H]c1c([H])c([H])c2c(c1[H])C([H])([H])C([H])([H])C([H])([H])C2([H])N([H])C(=O)C1([H])N(C(=O)C([H])(N([H])C(=O)C([H])(N([H])C([H])([H])[H])C([H])([H])[H])C(C([H])([H])[H])(C([H])([H])[H])C([H])([H])[H])C([H])([H])c2c([H])c(OC([H])([H])C([H])([H])C([H])([H])C([H])([H])[N+]([H])([H])C3([H])C([H])([H])C([H])([H])[N+]4([H])C([H])([H])C([H])([H])C([H])(N([H])C(=O)N5C([H])([H])C([H])([H])C([H])([H])C([H])(n6nc(-c7c([H])c([H])c(Oc8c([H])c([H])c(F)c([H])c8F)c([H])c7[H])c(C(=O)N([H])[H])c6N([H])[H])C5([H])[H])C4([H])C3([H])[H])c([H])c([H])c2C1([H])[H]

>  <smiles>  (18) 
[H]c1c([H])c([H])c2c(c1[H])C([H])([H])C([H])([H])C([H])([H])C2([H])N([H])C(=O)C1([H])N(C(=O)C([H])(N([H])C(=O)C([H])(N([H])C([H])([H])[H])C([H])([H])[H])C(C([H])([H])[H])(C([H])([H])[H])C([H])([H])[H])C([H])([H])c2c([H])c(OC([H])([H])C([H])([H])C([H])([H])C([H])([H])[N+]([H])([H])C3([H])C([H])([H])C([H])([H])[N+]4([H])C([H])([H])C([H])([H])C([H])(N([H])C(=O)N5C([H])([H])C([H])([H])C([H])([H])C([H])(n6nc(-c7c([H])c([H])c(Oc8c([H])c([H])c(F)c([H])c8F)c([H])c7[H])c(C(=O)N([H])[H])c6N([H])[H])C5([H])[H])C4([H])C3([H])[H])c([H])c([H])c2C1([H])[H]

$$$$
18:0:0
     RDKit          3D

 98107  0  0  1  0  0  0  0  0999 V2000
  -31.0390  -19.3400   22.5080 C   0  0  0  0  0  3  0  0  0  0  0  0
  -29.7640  -20.2290   20.6410 C   0  0  0  0  0  3  0  0  0  0  0  0
  -30.6360  -21.7370   22.3490 C   0  0  0  0  0  3  0  0  0  0  0  0
  -30.3480  -19.0960   21.3050 C   0  0  0  0  0  0  0  0  0  0  0  0
  -31.1960  -20.6340   23.0380 C   0  0  0  0  0  0  0  0  0  0  0  0
  -29.9010  -21.5700   21.1480 C   0  0  0  0  0  0  0  0  0  0  0  0
  -30.5360  -14.5060   20.2050 C   0  0  0  0  0  0  0  0  0  0  0  0
  -30.2280  -12.3680   18.9860 C   0  0  0  0  0  2  0  0  0  0  0  0
  -29.2120  -12.5820   17.8440 C   0  0  0  0  0  2  0  0  0  0  0  0
  -27.7720  -12.3880   18.3580 C   0  0  0  0  0  2  0  0  0  0  0  0
  -27.4890  -13.1620   19.6740 C   0  0  0  0  0  3  0  0  0  0  0  0
  -28.6160  -12.9430   20.7080 C   0  0  0  0  0  2  0  0  0  0  0  0
  -29.8840  -13.3120   20.0650 N   0  0  0  0  0  0  0  0  0  0  0  0
  -31.6690  -14.6820   19.7490 O   0  0  0  0  0  0  0  0  0  0  0  0
  -30.3120  -16.4280   21.7780 C   0  0  0  0  0  2  0  0  0  0  0  0
  -30.3820  -17.6160   20.8020 C   0  0  0  0  0  3  0  0  0  0  0  0
  -29.3530  -16.8180   19.9870 C   0  0  0  0  0  3  0  0  0  0  0  0
  -29.8030  -15.5610   20.6890 N   0  0  0  0  0  0  0  0  0  0  0  0
  -25.1270  -13.6800   20.5440 C   0  0  0  0  0  0  0  0  0  0  0  0
  -24.0970  -12.8690   20.9350 C   0  0  0  0  0  0  0  0  0  0  0  0
  -24.5820  -11.5300   20.8220 C   0  0  0  0  0  0  0  0  0  0  0  0
  -26.1740  -12.8320   20.2180 N   0  0  0  0  0  0  0  0  0  0  0  0
  -25.8540  -11.5330   20.4450 N   0  0  0  0  0  0  0  0  0  0  0  0
  -23.8920  -10.2450   20.9960 C   0  0  0  0  0  0  0  0  0  0  0  0
  -24.3120   -9.3060   21.9620 C   0  0  0  0  0  3  0  0  0  0  0  0
  -23.6200   -8.0850   22.1220 C   0  0  0  0  0  3  0  0  0  0  0  0
  -22.4940   -7.7970   21.3150 C   0  0  0  0  0  0  0  0  0  0  0  0
  -22.0940   -8.7270   20.3400 C   0  0  0  0  0  3  0  0  0  0  0  0
  -22.7870   -9.9370   20.1780 C   0  0  0  0  0  3  0  0  0  0  0  0
  -21.7770   -6.6270   21.3830 O   0  0  0  0  0  0  0  0  0  0  0  0
  -21.5880   -5.9670   22.5700 C   0  0  0  0  0  0  0  0  0  0  0  0
  -20.9020   -6.5600   23.6520 C   0  0  0  0  0  3  0  0  0  0  0  0
  -20.6700   -5.8210   24.8290 C   0  0  0  0  0  3  0  0  0  0  0  0
  -21.1130   -4.4870   24.9220 C   0  0  0  0  0  0  0  0  0  0  0  0
  -21.7900   -3.8930   23.8440 C   0  0  0  0  0  3  0  0  0  0  0  0
  -22.0250   -4.6310   22.6700 C   0  0  0  0  0  0  0  0  0  0  0  0
  -22.6600   -4.0460   21.6260 F   0  0  0  0  0  0  0  0  0  0  0  0
  -20.8820   -3.7730   26.0490 F   0  0  0  0  0  0  0  0  0  0  0  0
  -22.7080  -13.3050   21.3030 C   0  0  0  0  0  0  0  0  0  0  0  0
  -22.0390  -12.5540   22.1720 N   0  0  0  0  0  0  0  0  0  0  0  0
  -22.2250  -14.3450   20.8560 O   0  0  0  0  0  0  0  0  0  0  0  0
  -22.4430  -11.7120   22.5550 H   0  0  0  0  0  0  0  0  0  0  0  0
  -21.1110  -12.8280   22.4610 H   0  0  0  0  0  0  0  0  0  0  0  0
  -25.2560  -15.0600   20.4210 N   0  0  0  0  0  0  0  0  0  0  0  0
  -24.4890  -15.6920   20.6180 H   0  0  0  0  0  0  0  0  0  0  0  0
  -26.0940  -15.5330   20.1080 H   0  0  0  0  0  0  0  0  0  0  0  0
  -29.4540  -16.7580   18.4530 C   0  0  0  0  0  2  0  0  0  0  0  0
  -29.2280  -18.1320   17.7910 C   0  0  0  0  0  2  0  0  0  0  0  0
  -29.3490  -19.4390   15.6930 C   0  0  0  0  0  1  0  0  0  0  0  0
  -29.5170  -18.1230   16.3420 N   0  0  0  0  0  4  0  0  0  0  0  0
  -30.4680  -17.8220   16.1940 H   0  0  0  0  0  0  0  0  0  0  0  0
  -28.9120  -17.4640   15.8800 H   0  0  0  0  0  0  0  0  0  0  0  0
  -31.7160  -21.8740   25.0340 C   0  0  0  0  0  1  0  0  0  0  0  0
  -31.9100  -20.7300   24.2120 O   0  0  0  0  0  0  0  0  0  0  0  0
  -29.3300  -22.6680   20.4780 O   0  0  0  0  0  0  0  0  0  0  0  0
  -29.4390  -24.0280   21.0270 C   0  0  0  0  0  3  0  0  0  0  0  0
  -28.5300  -25.1100   20.3320 C   0  0  0  0  0  3  0  0  0  0  0  0
  -28.6260  -26.5030   20.8020 O   0  0  0  0  0  0  0  0  0  0  0  0
  -24.7500  -31.9090   23.5170 C   0  0  0  0  0  0  0  0  0  0  0  0
  -27.4980  -27.3210   20.6670 C   0  0  0  0  0  0  0  0  0  0  0  0
  -23.6160  -30.4760   21.8560 C   0  0  0  0  0  3  0  0  0  0  0  0
  -25.1270  -28.9050   20.5240 C   0  0  0  0  0  0  0  0  0  0  0  0
  -26.1590  -30.8020   21.7720 C   0  0  0  0  0  2  0  0  0  0  0  0
  -26.2660  -29.4150   21.1580 C   0  0  0  0  0  0  0  0  0  0  0  0
  -27.4550  -28.6340   21.2220 C   0  0  0  0  0  3  0  0  0  0  0  0
  -26.3390  -26.8620   19.9970 C   0  0  0  0  0  3  0  0  0  0  0  0
  -25.1650  -27.6310   19.9370 C   0  0  0  0  0  3  0  0  0  0  0  0
  -23.8870  -29.7730   20.5010 C   0  0  0  0  0  2  0  0  0  0  0  0
  -24.8580  -31.0800   22.4380 N   0  0  0  0  0  0  0  0  0  0  0  0
  -23.6450  -32.1960   24.0010 O   0  0  0  0  0  0  0  0  0  0  0  0
  -22.9160  -29.4760   22.8060 C   0  0  0  0  0  0  0  0  0  0  0  0
  -21.6150  -29.2380   22.5790 N   0  0  0  0  0  0  0  0  0  0  0  0
  -23.5480  -28.9180   23.7080 O   0  0  0  0  0  0  0  0  0  0  0  0
  -21.1670  -29.7410   21.8270 H   0  0  0  0  0  0  0  0  0  0  0  0
  -18.2500  -27.9410   22.8610 C   0  0  0  0  0  0  0  0  0  0  0  0
  -20.7670  -28.3060   23.3250 C   0  0  0  0  0  3  0  0  0  0  0  0
  -20.9640  -26.8550   22.8300 C   0  0  0  0  0  2  0  0  0  0  0  0
  -19.9600  -26.4470   21.7470 C   0  0  0  0  0  2  0  0  0  0  0  0
  -18.5260  -26.5700   22.2690 C   0  0  0  0  0  2  0  0  0  0  0  0
  -19.3040  -28.7630   23.3430 C   0  0  0  0  0  0  0  0  0  0  0  0
  -18.9950  -30.0430   23.8520 C   0  0  0  0  0  3  0  0  0  0  0  0
  -17.6650  -30.5030   23.8880 C   0  0  0  0  0  3  0  0  0  0  0  0
  -16.6250  -29.6790   23.4230 C   0  0  0  0  0  3  0  0  0  0  0  0
  -16.9180  -28.4000   22.9150 C   0  0  0  0  0  3  0  0  0  0  0  0
  -26.0070  -32.5550   24.1780 C   0  0  0  0  0  3  0  0  0  0  0  0
  -25.6920  -33.9660   24.4400 N   0  0  0  0  0  0  0  0  0  0  0  0
  -26.0080  -34.9810   23.6230 C   0  0  0  0  0  0  0  0  0  0  0  0
  -26.6670  -34.8280   22.5900 O   0  0  0  0  0  0  0  0  0  0  0  0
  -25.1050  -34.1580   25.2380 H   0  0  0  0  0  0  0  0  0  0  0  0
  -24.2450  -36.7320   23.2270 C   0  0  0  0  0  1  0  0  0  0  0  0
  -25.5190  -36.3890   24.0170 C   0  0  0  0  0  3  0  0  0  0  0  0
  -27.6510  -37.3640   24.7430 C   0  0  0  0  0  1  0  0  0  0  0  0
  -26.5330  -37.4450   23.8070 N   0  0  0  0  0  0  0  0  0  0  0  0
  -26.1150  -38.3680   23.8930 H   0  0  0  0  0  0  0  0  0  0  0  0
  -26.4510  -31.8290   25.5070 C   0  0  1  0  0  0  0  0  0  0  0  0
  -25.2890  -31.5650   26.4920 C   0  0  0  0  0  1  0  0  0  0  0  0
  -27.1180  -30.4690   25.1920 C   0  0  0  0  0  1  0  0  0  0  0  0
  -27.5150  -32.6810   26.2380 C   0  0  0  0  0  1  0  0  0  0  0  0
  1  5  1  0
  2  6  2  0
  2  4  1  0
  3  5  2  0
  4  1  2  0
  5 54  1  0
  6  3  1  0
  7 18  1  0
  8 13  1  0
  9 10  1  0
  9  8  1  0
 11 10  1  0
 11 22  1  0
 11 12  1  0
 13  7  1  0
 13 12  1  0
 14  7  2  0
 16  4  1  0
 16 15  1  0
 17 47  1  0
 17 18  1  0
 17 16  1  0
 18 15  1  0
 19 20  2  0
 20 39  1  0
 21 20  1  0
 21 24  1  0
 22 23  1  0
 22 19  1  0
 23 21  2  0
 24 25  1  0
 25 26  2  0
 27 30  1  0
 27 26  1  0
 28 27  2  0
 29 28  1  0
 29 24  2  0
 30 31  1  0
 31 36  2  0
 31 32  1  0
 32 33  2  0
 33 34  1  0
 34 38  1  0
 35 34  2  0
 36 35  1  0
 37 36  1  0
 39 40  1  0
 40 43  1  0
 40 42  1  0
 41 39  2  0
 44 19  1  0
 44 45  1  0
 46 44  1  0
 48 47  1  0
 49 50  1  0
 50 48  1  0
 51 50  1  0
 52 50  1  0
 54 53  1  0
 55 56  1  0
 55  6  1  0
 57 58  1  0
 57 56  2  0
 59 70  2  0
 60 58  1  0
 60 65  1  0
 61 69  1  0
 61 71  1  0
 62 64  1  0
 63 69  1  0
 64 65  2  0
 64 63  1  0
 66 60  2  0
 67 66  1  0
 67 62  2  0
 68 62  1  0
 68 61  1  0
 69 59  1  0
 71 73  2  0
 72 71  1  0
 74 72  1  0
 75 84  2  0
 75 80  1  0
 76 72  1  0
 76 80  1  0
 77 76  1  0
 78 79  1  0
 78 77  1  0
 79 75  1  0
 80 81  2  0
 81 82  1  0
 83 82  2  0
 84 83  1  0
 85 59  1  0
 85 86  1  0
 85 95  1  0
 86 89  1  0
 87 91  1  0
 87 86  1  0
 88 87  2  0
 91 90  1  0
 93 94  1  0
 93 91  1  0
 93 92  1  0
 95 98  1  1
 95 96  1  0
 97 95  1  0
M  ISO  4   7 100  18 100  57 101  58 101
M  END
>  <TORSDO>  (19) 
F 23

>  <SCORE>  (19) 
-12.392

>  <name>  (19) 
18

>  <ligand_id>  (19) 
18

>  <original_smiles>  (19) 
[H]c1c([H])c([H])c2c(c1[H])C([H])([H])C([H])([H])C([H])([H])C2([H])N([H])C(=O)C1([H])N(C(=O)C([H])(N([H])C(=O)C([H])(N([H])C([H])([H])[H])C([H])([H])[H])C(C([H])([H])[H])(C([H])([H])[H])C([H])([H])[H])C([H])([H])c2c([H])c(OC([H])([H])C([H])([H])Oc3c([H])c(OC([H])([H])[H])c([H])c(C4([H])C([H])([H])N(C(=O)N5C([H])([H])C([H])([H])C([H])([H])C([H])(n6nc(-c7c([H])c([H])c(Oc8c([H])c([H])c(F)c([H])c8F)c([H])c7[H])c(C(=O)N([H])[H])c6N([H])[H])C5([H])[H])C4([H])C([H])([H])C([H])([H])[N+]([H])([H])C([H])([H])[H])c3[H])c([H])c([H])c2C1([H])[H]

>  <smiles>  (19) 
[H]c1c([H])c([H])c2c(c1[H])C([H])([H])C([H])([H])C([H])([H])C2([H])N([H])C(=O)C1([H])N(C(=O)C([H])(N([H])C(=O)C([H])(N([H])C([H])([H])[H])C([H])([H])[H])C(C([H])([H])[H])(C([H])([H])[H])C([H])([H])[H])C([H])([H])c2c([H])c(OC([H])([H])C([H])([H])Oc3c([H])c(OC([H])([H])[H])c([H])c(C4([H])C([H])([H])N(C(=O)N5C([H])([H])C([H])([H])C([H])([H])C([H])(n6nc(-c7c([H])c([H])c(Oc8c([H])c([H])c(F)c([H])c8F)c([H])c7[H])c(C(=O)N([H])[H])c6N([H])[H])C5([H])[H])C4([H])C([H])([H])C([H])([H])[N+]([H])([H])C([H])([H])[H])c3[H])c([H])c([H])c2C1([H])[H]

$$$$
19:0:0
     RDKit          3D

 99109  0  0  1  0  0  0  0  0999 V2000
  -29.5530  -23.0590   19.4570 N   0  0  0  0  0  4  0  0  0  0  0  0
  -29.7740  -22.7520   18.5210 H   0  0  0  0  0  0  0  0  0  0  0  0
  -30.3470  -23.5970   19.7670 H   0  0  0  0  0  0  0  0  0  0  0  0
  -31.3530  -21.5640   21.2290 C   0  0  0  0  0  2  0  0  0  0  0  0
  -29.9880  -22.0000   21.7490 C   0  0  0  0  0  2  0  0  0  0  0  0
  -30.6500  -20.7390   20.1130 C   0  0  0  0  0  3  0  0  0  0  0  0
  -29.4770  -21.7980   20.3090 C   0  0  0  0  0  3  0  0  0  0  0  0
  -30.4580  -19.1560   20.2730 C   0  0  0  0  0  3  0  0  0  0  0  0
  -32.5320  -14.7050   18.6610 C   0  0  0  0  0  0  0  0  0  0  0  0
  -31.7980  -12.4660   17.9370 C   0  0  0  0  0  2  0  0  0  0  0  0
  -30.6040  -12.6030   16.9780 C   0  0  0  0  0  2  0  0  0  0  0  0
  -29.2970  -12.5500   17.7920 C   0  0  0  0  0  2  0  0  0  0  0  0
  -29.3070  -13.5210   19.0050 C   0  0  0  0  0  3  0  0  0  0  0  0
  -30.6240  -13.4420   19.8130 C   0  0  0  0  0  2  0  0  0  0  0  0
  -31.7400  -13.6090   18.8730 N   0  0  0  0  0  0  0  0  0  0  0  0
  -33.5310  -14.5940   17.9450 O   0  0  0  0  0  0  0  0  0  0  0  0
  -32.8530  -18.2860   19.6020 C   0  0  0  0  0  2  0  0  0  0  0  0
  -33.3870  -16.8990   19.2430 C   0  0  0  0  0  2  0  0  0  0  0  0
  -31.0180  -16.7320   19.1390 C   0  0  0  0  0  2  0  0  0  0  0  0
  -31.3520  -18.2690   19.3010 C   0  0  0  0  0  3  0  0  0  0  0  0
  -32.2700  -15.9360   19.2130 N   0  0  0  0  0  0  0  0  0  0  0  0
  -27.4880  -14.2550   20.6620 C   0  0  0  0  0  0  0  0  0  0  0  0
  -26.3910  -13.6090   21.1670 C   0  0  0  0  0  0  0  0  0  0  0  0
  -26.4240  -12.2890   20.6210 C   0  0  0  0  0  0  0  0  0  0  0  0
  -28.1290  -13.3330   19.8510 N   0  0  0  0  0  0  0  0  0  0  0  0
  -27.5090  -12.1250   19.8750 N   0  0  0  0  0  0  0  0  0  0  0  0
  -25.4500  -11.1950   20.7210 C   0  0  0  0  0  0  0  0  0  0  0  0
  -25.7290  -10.0140   21.4490 C   0  0  0  0  0  3  0  0  0  0  0  0
  -24.7650   -8.9880   21.5400 C   0  0  0  0  0  3  0  0  0  0  0  0
  -23.5080   -9.1340   20.9070 C   0  0  0  0  0  0  0  0  0  0  0  0
  -23.2460  -10.2980   20.1640 C   0  0  0  0  0  3  0  0  0  0  0  0
  -24.2080  -11.3180   20.0690 C   0  0  0  0  0  3  0  0  0  0  0  0
  -22.5180   -8.1790   20.9280 O   0  0  0  0  0  0  0  0  0  0  0  0
  -22.2270   -7.4670   22.0660 C   0  0  0  0  0  0  0  0  0  0  0  0
  -21.8740   -8.1070   23.2750 C   0  0  0  0  0  3  0  0  0  0  0  0
  -21.5180   -7.3370   24.4000 C   0  0  0  0  0  3  0  0  0  0  0  0
  -21.5010   -5.9320   24.3170 C   0  0  0  0  0  0  0  0  0  0  0  0
  -21.8470   -5.2940   23.1130 C   0  0  0  0  0  3  0  0  0  0  0  0
  -22.2060   -6.0600   21.9900 C   0  0  0  0  0  0  0  0  0  0  0  0
  -22.5180   -5.4390   20.8260 F   0  0  0  0  0  0  0  0  0  0  0  0
  -21.1500   -5.1930   25.3950 F   0  0  0  0  0  0  0  0  0  0  0  0
  -25.3230  -14.2160   22.0280 C   0  0  0  0  0  0  0  0  0  0  0  0
  -24.7140  -13.4210   22.9040 N   0  0  0  0  0  0  0  0  0  0  0  0
  -25.0520  -15.4130   21.9670 O   0  0  0  0  0  0  0  0  0  0  0  0
  -24.9470  -12.4440   22.9790 H   0  0  0  0  0  0  0  0  0  0  0  0
  -24.0040  -13.8030   23.5110 H   0  0  0  0  0  0  0  0  0  0  0  0
  -27.9770  -15.5490   20.8090 N   0  0  0  0  0  0  0  0  0  0  0  0
  -27.4860  -16.2370   21.3660 H   0  0  0  0  0  0  0  0  0  0  0  0
  -28.8040  -15.9220   20.3570 H   0  0  0  0  0  0  0  0  0  0  0  0
  -31.7090  -19.1990   22.6210 C   0  0  0  0  0  1  0  0  0  0  0  0
  -29.2390  -18.5460   22.4860 C   0  0  0  0  0  1  0  0  0  0  0  0
  -30.5850  -18.6020   21.7440 C   0  0  0  0  0  3  0  0  0  0  0  0
  -28.3520  -23.9910   19.3810 C   0  0  0  0  0  3  0  0  0  0  0  0
  -27.1380  -23.2330   18.7530 C   0  0  0  0  0  2  0  0  0  0  0  0
  -24.5940  -22.8530   19.2540 C   0  0  0  0  0  2  0  0  0  0  0  0
  -25.2950  -21.5760   19.6330 C   0  0  0  0  0  2  0  0  0  0  0  0
  -26.0280  -22.8980   19.7370 C   0  0  0  0  0  3  0  0  0  0  0  0
  -28.6070  -25.3660   18.5890 C   0  0  0  0  0  2  0  0  0  0  0  0
  -28.5490  -26.6970   19.2170 O   0  0  0  0  0  0  0  0  0  0  0  0
  -24.7720  -31.3460   23.1360 C   0  0  0  0  0  0  0  0  0  0  0  0
  -27.3870  -27.4640   19.2920 C   0  0  0  0  0  0  0  0  0  0  0  0
  -23.5420  -30.1700   21.3470 C   0  0  0  0  0  3  0  0  0  0  0  0
  -24.9720  -28.9380   19.6320 C   0  0  0  0  0  0  0  0  0  0  0  0
  -26.0480  -30.6410   21.1070 C   0  0  0  0  0  2  0  0  0  0  0  0
  -26.1450  -29.3830   20.2520 C   0  0  0  0  0  0  0  0  0  0  0  0
  -27.3530  -28.6530   20.0800 C   0  0  0  0  0  3  0  0  0  0  0  0
  -26.1960  -27.0780   18.6490 C   0  0  0  0  0  3  0  0  0  0  0  0
  -24.9970  -27.7920   18.8220 C   0  0  0  0  0  3  0  0  0  0  0  0
  -23.7060  -29.7320   19.8690 C   0  0  0  0  0  2  0  0  0  0  0  0
  -24.8090  -30.7260   21.9200 N   0  0  0  0  0  0  0  0  0  0  0  0
  -23.7070  -31.4840   23.7540 O   0  0  0  0  0  0  0  0  0  0  0  0
  -22.9720  -28.9850   22.1630 C   0  0  0  0  0  0  0  0  0  0  0  0
  -21.6750  -28.6940   21.9730 N   0  0  0  0  0  0  0  0  0  0  0  0
  -23.6960  -28.3390   22.9260 O   0  0  0  0  0  0  0  0  0  0  0  0
  -21.1410  -29.2900   21.3550 H   0  0  0  0  0  0  0  0  0  0  0  0
  -18.4750  -27.0110   22.0860 C   0  0  0  0  0  0  0  0  0  0  0  0
  -20.9450  -27.5860   22.5880 C   0  0  0  0  0  3  0  0  0  0  0  0
  -21.2920  -26.2450   21.8980 C   0  0  0  0  0  2  0  0  0  0  0  0
  -20.3090  -25.8550   20.7870 C   0  0  0  0  0  2  0  0  0  0  0  0
  -18.8850  -25.7550   21.3370 C   0  0  0  0  0  2  0  0  0  0  0  0
  -19.4410  -27.8760   22.6630 C   0  0  0  0  0  0  0  0  0  0  0  0
  -19.0040  -29.0440   23.3260 C   0  0  0  0  0  3  0  0  0  0  0  0
  -17.6340  -29.3550   23.4140 C   0  0  0  0  0  3  0  0  0  0  0  0
  -16.6810  -28.4890   22.8500 C   0  0  0  0  0  3  0  0  0  0  0  0
  -17.1010  -27.3190   22.1930 C   0  0  0  0  0  3  0  0  0  0  0  0
  -26.0600  -31.9310   23.7920 C   0  0  0  0  0  3  0  0  0  0  0  0
  -25.7280  -33.2620   24.3170 N   0  0  0  0  0  0  0  0  0  0  0  0
  -26.0770  -34.4190   23.7380 C   0  0  0  0  0  0  0  0  0  0  0  0
  -26.7840  -34.4740   22.7290 O   0  0  0  0  0  0  0  0  0  0  0  0
  -25.1130  -33.2900   25.1160 H   0  0  0  0  0  0  0  0  0  0  0  0
  -24.3740  -36.2620   23.5600 C   0  0  0  0  0  1  0  0  0  0  0  0
  -25.5590  -35.7220   24.3790 C   0  0  0  0  0  3  0  0  0  0  0  0
  -27.6330  -36.4480   25.4770 C   0  0  0  0  0  1  0  0  0  0  0  0
  -26.5940  -36.7730   24.5040 N   0  0  0  0  0  0  0  0  0  0  0  0
  -26.1770  -37.6620   24.7660 H   0  0  0  0  0  0  0  0  0  0  0  0
  -26.6400  -31.0160   24.9420 C   0  0  1  0  0  0  0  0  0  0  0  0
  -25.5910  -30.6060   26.0030 C   0  0  0  0  0  1  0  0  0  0  0  0
  -27.2480  -29.7210   24.3510 C   0  0  0  0  0  1  0  0  0  0  0  0
  -27.7870  -31.7530   25.6740 C   0  0  0  0  0  1  0  0  0  0  0  0
  1  3  1  0
  2  1  1  0
  4  5  1  0
  6  8  1  0
  6  7  1  0
  6  4  1  0
  7  1  1  0
  7  5  1  0
  8 52  1  0
  9 15  1  0
  9 21  1  0
 10 15  1  0
 11 12  1  0
 11 10  1  0
 13 12  1  0
 13 14  1  0
 13 25  1  0
 15 14  1  0
 16  9  2  0
 18 17  1  0
 19 21  1  0
 19 20  1  0
 20 17  1  0
 20  8  1  0
 21 18  1  0
 22 47  1  0
 22 23  2  0
 23 42  1  0
 24 27  1  0
 24 23  1  0
 25 26  1  0
 25 22  1  0
 26 24  2  0
 27 28  1  0
 28 29  2  0
 30 33  1  0
 30 29  1  0
 31 30  2  0
 32 31  1  0
 32 27  2  0
 33 34  1  0
 34 35  1  0
 35 36  2  0
 37 36  1  0
 37 41  1  0
 38 37  2  0
 39 34  2  0
 39 38  1  0
 40 39  1  0
 42 43  1  0
 43 45  1  0
 43 46  1  0
 44 42  2  0
 47 48  1  0
 49 47  1  0
 52 51  1  0
 52 50  1  0
 53 58  1  0
 53  1  1  0
 54 53  1  0
 54 57  1  0
 55 56  1  0
 55 57  1  0
 56 57  1  0
 58 59  1  0
 59 61  1  0
 60 71  2  0
 61 66  1  0
 62 70  1  0
 62 72  1  0
 63 69  1  0
 63 65  1  0
 64 70  1  0
 65 64  1  0
 66 65  2  0
 67 68  1  0
 67 61  2  0
 68 63  2  0
 69 62  1  0
 70 60  1  0
 72 74  2  0
 73 72  1  0
 75 73  1  0
 76 85  2  0
 76 81  1  0
 77 73  1  0
 77 81  1  0
 78 77  1  0
 79 80  1  0
 79 78  1  0
 80 76  1  0
 81 82  2  0
 82 83  1  0
 84 83  2  0
 85 84  1  0
 86 60  1  0
 86 87  1  0
 86 96  1  0
 87 90  1  0
 88 87  1  0
 88 92  1  0
 89 88  2  0
 92 91  1  0
 92 94  1  0
 94 95  1  0
 94 93  1  0
 96 99  1  1
 96 97  1  0
 98 96  1  0
M  ISO  4   9 100  21 100  58 101  59 101
M  END
>  <TORSDO>  (20) 
F 23

>  <SCORE>  (20) 
-4.125

>  <name>  (20) 
19

>  <ligand_id>  (20) 
19

>  <original_smiles>  (20) 
[H]c1c([H])c([H])c2c(c1[H])C([H])([H])C([H])([H])C([H])([H])C2([H])N([H])C(=O)C1([H])N(C(=O)C([H])(N([H])C(=O)C([H])(N([H])C([H])([H])[H])C([H])([H])[H])C(C([H])([H])[H])(C([H])([H])[H])C([H])([H])[H])C([H])([H])c2c([H])c(OC([H])([H])C([H])(C([H])([H])C3([H])C([H])([H])C3([H])[H])[N+]([H])([H])C3([H])C([H])([H])C([H])([H])C3([H])C([H])(C([H])(C([H])([H])[H])C([H])([H])[H])C3([H])C([H])([H])N(C(=O)N4C([H])([H])C([H])([H])C([H])([H])C([H])(n5nc(-c6c([H])c([H])c(Oc7c([H])c([H])c(F)c([H])c7F)c([H])c6[H])c(C(=O)N([H])[H])c5N([H])[H])C4([H])[H])C([H])([H])C3([H])[H])c([H])c([H])c2C1([H])[H]

>  <smiles>  (20) 
[H]c1c([H])c([H])c2c(c1[H])C([H])([H])C([H])([H])C([H])([H])C2([H])N([H])C(=O)C1([H])N(C(=O)C([H])(N([H])C(=O)C([H])(N([H])C([H])([H])[H])C([H])([H])[H])C(C([H])([H])[H])(C([H])([H])[H])C([H])([H])[H])C([H])([H])c2c([H])c(OC([H])([H])C([H])(C([H])([H])C3([H])C([H])([H])C3([H])[H])[N+]([H])([H])C3([H])C([H])([H])C([H])([H])C3([H])C([H])(C([H])(C([H])([H])[H])C([H])([H])[H])C3([H])C([H])([H])N(C(=O)N4C([H])([H])C([H])([H])C([H])([H])C([H])(n5nc(-c6c([H])c([H])c(Oc7c([H])c([H])c(F)c([H])c7F)c([H])c6[H])c(C(=O)N([H])[H])c5N([H])[H])C4([H])[H])C([H])([H])C3([H])[H])c([H])c([H])c2C1([H])[H]

$$$$
20:0:0
     RDKit          3D

 90 98  0  0  1  0  0  0  0  0999 V2000
  -28.7520  -24.2330   22.4480 C   0  0  0  0  0  2  0  0  0  0  0  0
  -28.1390  -25.1280   21.3820 C   0  0  0  0  0  3  0  0  0  0  0  0
  -27.7080  -23.6600   21.5240 C   0  0  0  0  0  3  0  0  0  0  0  0
  -26.9920  -21.2900   21.0060 C   0  0  0  0  0  1  0  0  0  0  0  0
  -27.8930  -22.4580   20.5600 C   0  0  0  0  0  3  0  0  0  0  0  0
  -29.3380  -21.9610   20.1930 C   0  0  0  0  0  2  0  0  0  0  0  0
  -29.9440  -20.9630   21.0480 O   0  0  0  0  0  0  0  0  0  0  0  0
  -29.4950  -19.5910   20.9480 C   0  0  0  0  0  2  0  0  0  0  0  0
  -30.4950  -18.5680   20.3390 C   0  0  0  0  0  2  0  0  0  0  0  0
  -30.1180  -17.0670   20.6230 C   0  0  0  0  0  2  0  0  0  0  0  0
  -31.5090  -14.9920   20.3970 C   0  0  0  0  0  0  0  0  0  0  0  0
  -31.1850  -12.6910   19.5960 C   0  0  0  0  0  2  0  0  0  0  0  0
  -30.3180  -12.7420   18.3210 C   0  0  0  0  0  2  0  0  0  0  0  0
  -28.8190  -12.7040   18.6810 C   0  0  0  0  0  2  0  0  0  0  0  0
  -28.4290  -13.7150   19.7950 C   0  0  0  0  0  3  0  0  0  0  0  0
  -29.4360  -13.6730   20.9680 C   0  0  0  0  0  2  0  0  0  0  0  0
  -30.7830  -13.8430   20.4120 N   0  0  0  0  0  0  0  0  0  0  0  0
  -32.7370  -14.9930   20.2960 O   0  0  0  0  0  0  0  0  0  0  0  0
  -31.2570  -16.4900   18.5050 C   0  0  0  0  0  1  0  0  0  0  0  0
  -30.8440  -16.0420   19.8400 N   0  0  0  0  0  0  0  0  0  0  0  0
  -26.0400  -14.4360   20.4130 C   0  0  0  0  0  0  0  0  0  0  0  0
  -24.9230  -13.7140   20.7430 C   0  0  0  0  0  0  0  0  0  0  0  0
  -25.3240  -12.3480   20.7720 C   0  0  0  0  0  0  0  0  0  0  0  0
  -27.0550  -13.5060   20.2490 N   0  0  0  0  0  0  0  0  0  0  0  0
  -26.6280  -12.2480   20.5310 N   0  0  0  0  0  0  0  0  0  0  0  0
  -24.5350  -11.1220   20.9550 C   0  0  0  0  0  0  0  0  0  0  0  0
  -24.8740  -10.1620   21.9360 C   0  0  0  0  0  3  0  0  0  0  0  0
  -24.0910   -9.0000   22.1030 C   0  0  0  0  0  3  0  0  0  0  0  0
  -22.9510   -8.7910   21.2880 C   0  0  0  0  0  0  0  0  0  0  0  0
  -22.6260   -9.7420   20.3020 C   0  0  0  0  0  3  0  0  0  0  0  0
  -23.4150  -10.8910   20.1300 C   0  0  0  0  0  3  0  0  0  0  0  0
  -22.1490   -7.6760   21.3590 O   0  0  0  0  0  0  0  0  0  0  0  0
  -21.9980   -6.9660   22.5240 C   0  0  0  0  0  0  0  0  0  0  0  0
  -21.5290   -7.5770   23.7080 C   0  0  0  0  0  3  0  0  0  0  0  0
  -21.3180   -6.8090   24.8680 C   0  0  0  0  0  3  0  0  0  0  0  0
  -21.5660   -5.4240   24.8540 C   0  0  0  0  0  0  0  0  0  0  0  0
  -22.0270   -4.8080   23.6750 C   0  0  0  0  0  3  0  0  0  0  0  0
  -22.2360   -5.5760   22.5160 C   0  0  0  0  0  0  0  0  0  0  0  0
  -22.6600   -4.9720   21.3810 F   0  0  0  0  0  0  0  0  0  0  0  0
  -21.3530   -4.6860   25.9670 F   0  0  0  0  0  0  0  0  0  0  0  0
  -23.5340  -14.2550   20.9280 C   0  0  0  0  0  0  0  0  0  0  0  0
  -22.7360  -13.6100   21.7730 N   0  0  0  0  0  0  0  0  0  0  0  0
  -23.1670  -15.2850   20.3670 O   0  0  0  0  0  0  0  0  0  0  0  0
  -23.0590  -12.7980   22.2810 H   0  0  0  0  0  0  0  0  0  0  0  0
  -21.8100  -13.9780   21.9440 H   0  0  0  0  0  0  0  0  0  0  0  0
  -26.2630  -15.7920   20.2140 N   0  0  0  0  0  0  0  0  0  0  0  0
  -25.4840  -16.4430   20.2320 H   0  0  0  0  0  0  0  0  0  0  0  0
  -27.1510  -16.2100   19.9560 H   0  0  0  0  0  0  0  0  0  0  0  0
  -29.0260  -25.7810   20.3190 C   0  0  0  0  0  2  0  0  0  0  0  0
  -29.0340  -27.2270   20.4270 O   0  0  0  0  0  0  0  0  0  0  0  0
  -24.7950  -32.1110   23.4300 C   0  0  0  0  0  0  0  0  0  0  0  0
  -27.8310  -27.9070   20.3460 C   0  0  0  0  0  0  0  0  0  0  0  0
  -23.7520  -30.6930   21.6950 C   0  0  0  0  0  3  0  0  0  0  0  0
  -25.3580  -29.2970   20.2840 C   0  0  0  0  0  0  0  0  0  0  0  0
  -26.2630  -31.2020   21.6250 C   0  0  0  0  0  2  0  0  0  0  0  0
  -26.4610  -29.8640   20.9360 C   0  0  0  0  0  0  0  0  0  0  0  0
  -27.7020  -29.1860   20.9470 C   0  0  0  0  0  3  0  0  0  0  0  0
  -26.7070  -27.3590   19.6840 C   0  0  0  0  0  3  0  0  0  0  0  0
  -25.4780  -28.0480   19.6520 C   0  0  0  0  0  3  0  0  0  0  0  0
  -24.0640  -30.0790   20.3040 C   0  0  0  0  0  2  0  0  0  0  0  0
  -24.9530  -31.3490   22.3090 N   0  0  0  0  0  0  0  0  0  0  0  0
  -23.6760  -32.2990   23.9250 O   0  0  0  0  0  0  0  0  0  0  0  0
  -23.1240  -29.6010   22.5900 C   0  0  0  0  0  0  0  0  0  0  0  0
  -21.8130  -29.3680   22.4180 N   0  0  0  0  0  0  0  0  0  0  0  0
  -23.8150  -28.9690   23.3940 O   0  0  0  0  0  0  0  0  0  0  0  0
  -21.3150  -29.9300   21.7410 H   0  0  0  0  0  0  0  0  0  0  0  0
  -18.4720  -28.0520   22.8220 C   0  0  0  0  0  0  0  0  0  0  0  0
  -21.0210  -28.3630   23.1250 C   0  0  0  0  0  3  0  0  0  0  0  0
  -21.1670  -26.9740   22.4640 C   0  0  0  0  0  2  0  0  0  0  0  0
  -20.0790  -26.6820   21.4250 C   0  0  0  0  0  2  0  0  0  0  0  0
  -18.6900  -26.7510   22.0690 C   0  0  0  0  0  2  0  0  0  0  0  0
  -19.5670  -28.8170   23.3040 C   0  0  0  0  0  0  0  0  0  0  0  0
  -19.3120  -30.0380   23.9680 C   0  0  0  0  0  3  0  0  0  0  0  0
  -17.9930  -30.4930   24.1540 C   0  0  0  0  0  3  0  0  0  0  0  0
  -16.9120  -29.7240   23.6890 C   0  0  0  0  0  3  0  0  0  0  0  0
  -17.1520  -28.5060   23.0280 C   0  0  0  0  0  3  0  0  0  0  0  0
  -26.0090  -32.7990   24.1260 C   0  0  0  0  0  3  0  0  0  0  0  0
  -25.6340  -34.1940   24.3900 N   0  0  0  0  0  0  0  0  0  0  0  0
  -25.9880  -35.2350   23.6230 C   0  0  0  0  0  0  0  0  0  0  0  0
  -26.7320  -35.1230   22.6440 O   0  0  0  0  0  0  0  0  0  0  0  0
  -24.9810  -34.3560   25.1430 H   0  0  0  0  0  0  0  0  0  0  0  0
  -24.2260  -36.9500   23.0940 C   0  0  0  0  0  1  0  0  0  0  0  0
  -25.4250  -36.6200   23.9980 C   0  0  0  0  0  3  0  0  0  0  0  0
  -27.4720  -37.6000   24.9350 C   0  0  0  0  0  1  0  0  0  0  0  0
  -26.4280  -37.7030   23.9170 N   0  0  0  0  0  0  0  0  0  0  0  0
  -25.9870  -38.6140   24.0100 H   0  0  0  0  0  0  0  0  0  0  0  0
  -26.4500  -32.0790   25.4590 C   0  0  1  0  0  0  0  0  0  0  0  0
  -25.2830  -31.8170   26.4390 C   0  0  0  0  0  1  0  0  0  0  0  0
  -27.1190  -30.7190   25.1520 C   0  0  0  0  0  1  0  0  0  0  0  0
  -27.5110  -32.9350   26.1910 C   0  0  0  0  0  1  0  0  0  0  0  0
  2 49  1  0
  2  3  1  0
  2  1  1  0
  3  5  1  0
  3  1  1  0
  5  4  1  0
  6  5  1  0
  6  7  1  0
  8  7  1  0
  9 10  1  0
  9  8  1  0
 11 17  1  0
 12 17  1  0
 13 14  1  0
 13 12  1  0
 15 14  1  0
 15 24  1  0
 15 16  1  0
 17 16  1  0
 18 11  2  0
 19 20  1  0
 20 11  1  0
 20 10  1  0
 21 22  2  0
 22 23  1  0
 22 41  1  0
 23 26  1  0
 24 21  1  0
 24 25  1  0
 25 23  2  0
 26 27  1  0
 27 28  2  0
 29 32  1  0
 29 28  1  0
 30 29  2  0
 31 30  1  0
 31 26  2  0
 32 33  1  0
 33 34  1  0
 34 35  2  0
 36 35  1  0
 36 40  1  0
 37 36  2  0
 38 33  2  0
 38 37  1  0
 39 38  1  0
 41 42  1  0
 42 45  1  0
 42 44  1  0
 43 41  2  0
 46 47  1  0
 46 21  1  0
 48 46  1  0
 49 50  1  0
 51 62  2  0
 52 50  1  0
 52 57  1  0
 53 61  1  0
 53 63  1  0
 54 60  1  0
 54 56  1  0
 55 61  1  0
 56 57  2  0
 56 55  1  0
 58 52  2  0
 59 58  1  0
 59 54  2  0
 60 53  1  0
 61 51  1  0
 63 65  2  0
 64 63  1  0
 66 64  1  0
 67 76  2  0
 67 72  1  0
 68 64  1  0
 68 72  1  0
 69 68  1  0
 70 71  1  0
 70 69  1  0
 71 67  1  0
 72 73  2  0
 73 74  1  0
 75 74  2  0
 76 75  1  0
 77 51  1  0
 77 78  1  0
 77 87  1  0
 78 81  1  0
 79 83  1  0
 79 78  1  0
 80 79  2  0
 83 82  1  0
 85 83  1  0
 85 86  1  0
 85 84  1  0
 87 90  1  1
 87 88  1  0
 89 87  1  0
M  ISO  4  11 100  20 100  49 101  50 101
M  END
>  <TORSDO>  (21) 
F 23

>  <SCORE>  (21) 
-10.228

>  <name>  (21) 
20

>  <ligand_id>  (21) 
20

>  <original_smiles>  (21) 
[H]c1c([H])c([H])c2c(c1[H])C([H])([H])C([H])([H])C([H])([H])C2([H])N([H])C(=O)C1([H])N(C(=O)C([H])(N([H])C(=O)C([H])(N([H])C([H])([H])[H])C([H])([H])[H])C(C([H])([H])[H])(C([H])([H])[H])C([H])([H])[H])C([H])([H])c2c([H])c(OC([H])([H])C3([H])C([H])([H])C3([H])C([H])(C([H])([H])[H])C([H])([H])OC([H])([H])C([H])([H])C([H])([H])N(C(=O)N3C([H])([H])C([H])([H])C([H])([H])C([H])(n4nc(-c5c([H])c([H])c(Oc6c([H])c([H])c(F)c([H])c6F)c([H])c5[H])c(C(=O)N([H])[H])c4N([H])[H])C3([H])[H])C([H])([H])[H])c([H])c([H])c2C1([H])[H]

>  <smiles>  (21) 
[H]c1c([H])c([H])c2c(c1[H])C([H])([H])C([H])([H])C([H])([H])C2([H])N([H])C(=O)C1([H])N(C(=O)C([H])(N([H])C(=O)C([H])(N([H])C([H])([H])[H])C([H])([H])[H])C(C([H])([H])[H])(C([H])([H])[H])C([H])([H])[H])C([H])([H])c2c([H])c(OC([H])([H])C3([H])C([H])([H])C3([H])C([H])(C([H])([H])[H])C([H])([H])OC([H])([H])C([H])([H])C([H])([H])N(C(=O)N3C([H])([H])C([H])([H])C([H])([H])C([H])(n4nc(-c5c([H])c([H])c(Oc6c([H])c([H])c(F)c([H])c6F)c([H])c5[H])c(C(=O)N([H])[H])c4N([H])[H])C3([H])[H])C([H])([H])[H])c([H])c([H])c2C1([H])[H]

$$$$
22:0:0
     RDKit          3D

 92100  0  0  1  0  0  0  0  0999 V2000
  -29.0760  -21.9990   19.8380 C   0  0  0  0  0  3  0  0  0  0  0  0
  -31.4060  -20.5680   19.6540 C   0  0  0  0  0  3  0  0  0  0  0  0
  -28.9930  -20.5860   19.8180 C   0  0  0  0  0  0  0  0  0  0  0  0
  -30.1990  -19.8390   19.7280 C   0  0  0  0  0  0  0  0  0  0  0  0
  -30.3310  -22.6270   19.7350 C   0  0  0  0  0  0  0  0  0  0  0  0
  -31.4730  -21.9160   19.6530 N   0  0  0  0  0  0  0  0  0  0  0  0
  -26.4200  -20.7580   19.5250 C   0  0  0  0  0  1  0  0  0  0  0  0
  -27.6340  -19.8840   19.8730 C   0  0  0  0  0  2  0  0  0  0  0  0
  -30.1800  -18.3010   19.6400 C   0  0  0  0  0  2  0  0  0  0  0  0
  -31.5100  -17.5380   19.8720 C   0  0  0  0  0  2  0  0  0  0  0  0
  -31.9810  -15.0810   19.9490 C   0  0  0  0  0  0  0  0  0  0  0  0
  -31.6910  -12.7560   19.1890 C   0  0  0  0  0  2  0  0  0  0  0  0
  -30.7290  -12.7570   17.9830 C   0  0  0  0  0  2  0  0  0  0  0  0
  -29.2610  -12.6940   18.4490 C   0  0  0  0  0  2  0  0  0  0  0  0
  -28.9400  -13.7300   19.5590 C   0  0  0  0  0  3  0  0  0  0  0  0
  -30.0110  -13.6890   20.6750 C   0  0  0  0  0  2  0  0  0  0  0  0
  -31.3280  -13.8930   20.0480 N   0  0  0  0  0  0  0  0  0  0  0  0
  -33.0870  -15.2050   19.4160 O   0  0  0  0  0  0  0  0  0  0  0  0
  -31.2530  -16.1560   20.2960 N   0  0  0  0  0  0  0  0  0  0  0  0
  -30.3630  -15.9650   20.7330 H   0  0  0  0  0  0  0  0  0  0  0  0
  -26.6430  -14.4940   20.4370 C   0  0  0  0  0  0  0  0  0  0  0  0
  -25.5310  -13.7930   20.8170 C   0  0  0  0  0  0  0  0  0  0  0  0
  -25.8650  -12.4120   20.6700 C   0  0  0  0  0  0  0  0  0  0  0  0
  -27.5910  -13.5440   20.0920 N   0  0  0  0  0  0  0  0  0  0  0  0
  -27.1280  -12.2820   20.2860 N   0  0  0  0  0  0  0  0  0  0  0  0
  -25.0390  -11.2070   20.8170 C   0  0  0  0  0  0  0  0  0  0  0  0
  -25.3270  -10.2290   21.7930 C   0  0  0  0  0  3  0  0  0  0  0  0
  -24.5080   -9.0870   21.9260 C   0  0  0  0  0  3  0  0  0  0  0  0
  -23.3850   -8.9170   21.0810 C   0  0  0  0  0  0  0  0  0  0  0  0
  -23.1150   -9.8830   20.0950 C   0  0  0  0  0  3  0  0  0  0  0  0
  -23.9350  -11.0160   19.9610 C   0  0  0  0  0  3  0  0  0  0  0  0
  -22.5480   -7.8270   21.1210 O   0  0  0  0  0  0  0  0  0  0  0  0
  -22.2030   -7.2280   22.3050 C   0  0  0  0  0  0  0  0  0  0  0  0
  -21.5100   -7.9250   23.3200 C   0  0  0  0  0  3  0  0  0  0  0  0
  -21.1140   -7.2510   24.4920 C   0  0  0  0  0  3  0  0  0  0  0  0
  -21.4000   -5.8820   24.6490 C   0  0  0  0  0  0  0  0  0  0  0  0
  -22.0850   -5.1850   23.6380 C   0  0  0  0  0  3  0  0  0  0  0  0
  -22.4820   -5.8570   22.4670 C   0  0  0  0  0  0  0  0  0  0  0  0
  -23.1230   -5.1750   21.4870 F   0  0  0  0  0  0  0  0  0  0  0  0
  -21.0120   -5.2320   25.7710 F   0  0  0  0  0  0  0  0  0  0  0  0
  -24.1990  -14.3690   21.2020 C   0  0  0  0  0  0  0  0  0  0  0  0
  -23.4670  -13.6900   22.0780 N   0  0  0  0  0  0  0  0  0  0  0  0
  -23.8190  -15.4540   20.7630 O   0  0  0  0  0  0  0  0  0  0  0  0
  -23.7860  -12.8100   22.4550 H   0  0  0  0  0  0  0  0  0  0  0  0
  -22.5750  -14.0570   22.3790 H   0  0  0  0  0  0  0  0  0  0  0  0
  -26.9210  -15.8540   20.3360 N   0  0  0  0  0  0  0  0  0  0  0  0
  -26.2110  -16.5580   20.5080 H   0  0  0  0  0  0  0  0  0  0  0  0
  -27.7670  -16.2340   19.9320 H   0  0  0  0  0  0  0  0  0  0  0  0
  -30.5400  -23.9910   19.6860 O   0  0  0  0  0  0  0  0  0  0  0  0
  -29.4530  -24.8840   19.9540 C   0  0  0  0  0  2  0  0  0  0  0  0
  -29.8510  -26.3100   19.5010 C   0  0  0  0  0  2  0  0  0  0  0  0
  -29.4110  -27.3530   20.3800 O   0  0  0  0  0  0  0  0  0  0  0  0
  -24.6830  -31.7800   23.3050 C   0  0  0  0  0  0  0  0  0  0  0  0
  -28.1370  -27.8790   20.2780 C   0  0  0  0  0  0  0  0  0  0  0  0
  -23.8170  -30.3530   21.4790 C   0  0  0  0  0  3  0  0  0  0  0  0
  -25.5740  -29.0820   20.1340 C   0  0  0  0  0  0  0  0  0  0  0  0
  -26.2860  -31.0120   21.5580 C   0  0  0  0  0  2  0  0  0  0  0  0
  -26.5960  -29.7010   20.8630 C   0  0  0  0  0  0  0  0  0  0  0  0
  -27.8730  -29.1030   20.9370 C   0  0  0  0  0  3  0  0  0  0  0  0
  -27.0900  -27.2630   19.5550 C   0  0  0  0  0  3  0  0  0  0  0  0
  -25.8150  -27.8600   19.4820 C   0  0  0  0  0  3  0  0  0  0  0  0
  -24.2370  -29.7870   20.0950 C   0  0  0  0  0  2  0  0  0  0  0  0
  -24.9390  -31.0620   22.1750 N   0  0  0  0  0  0  0  0  0  0  0  0
  -23.5300  -31.8900   23.7460 O   0  0  0  0  0  0  0  0  0  0  0  0
  -23.2070  -29.2050   22.3160 C   0  0  0  0  0  0  0  0  0  0  0  0
  -21.9280  -28.8890   22.0550 N   0  0  0  0  0  0  0  0  0  0  0  0
  -23.8850  -28.6050   23.1550 O   0  0  0  0  0  0  0  0  0  0  0  0
  -21.4390  -29.4350   21.3580 H   0  0  0  0  0  0  0  0  0  0  0  0
  -18.6610  -27.3580   22.2250 C   0  0  0  0  0  0  0  0  0  0  0  0
  -21.1610  -27.8190   22.6900 C   0  0  0  0  0  3  0  0  0  0  0  0
  -21.4340  -26.4590   22.0070 C   0  0  0  0  0  2  0  0  0  0  0  0
  -20.4290  -26.1280   20.8980 C   0  0  0  0  0  2  0  0  0  0  0  0
  -19.0040  -26.0930   21.4580 C   0  0  0  0  0  2  0  0  0  0  0  0
  -19.6750  -28.1760   22.7910 C   0  0  0  0  0  0  0  0  0  0  0  0
  -19.3020  -29.3600   23.4650 C   0  0  0  0  0  3  0  0  0  0  0  0
  -17.9490  -29.7280   23.5810 C   0  0  0  0  0  3  0  0  0  0  0  0
  -16.9490  -28.9060   23.0330 C   0  0  0  0  0  3  0  0  0  0  0  0
  -17.3050  -27.7230   22.3610 C   0  0  0  0  0  3  0  0  0  0  0  0
  -25.8190  -32.5140   24.0830 C   0  0  0  0  0  3  0  0  0  0  0  0
  -25.3800  -33.8990   24.3020 N   0  0  0  0  0  0  0  0  0  0  0  0
  -25.7610  -34.9430   23.5550 C   0  0  0  0  0  0  0  0  0  0  0  0
  -26.5860  -34.8500   22.6410 O   0  0  0  0  0  0  0  0  0  0  0  0
  -24.6620  -34.0430   24.9970 H   0  0  0  0  0  0  0  0  0  0  0  0
  -23.9980  -36.6000   22.8690 C   0  0  0  0  0  1  0  0  0  0  0  0
  -25.1260  -36.3110   23.8720 C   0  0  0  0  0  3  0  0  0  0  0  0
  -27.0490  -37.3730   24.9690 C   0  0  0  0  0  1  0  0  0  0  0  0
  -26.0980  -37.4270   23.8620 N   0  0  0  0  0  0  0  0  0  0  0  0
  -25.6180  -38.3220   23.9000 H   0  0  0  0  0  0  0  0  0  0  0  0
  -26.1840  -31.8210   25.4540 C   0  0  1  0  0  0  0  0  0  0  0  0
  -24.9550  -31.5130   26.3410 C   0  0  0  0  0  1  0  0  0  0  0  0
  -26.9350  -30.4920   25.2090 C   0  0  0  0  0  1  0  0  0  0  0  0
  -27.1410  -32.7280   26.2620 C   0  0  0  0  0  1  0  0  0  0  0  0
  2  4  2  0
  3  1  2  0
  3  8  1  0
  4  3  1  0
  5  1  1  0
  6  2  1  0
  6  5  2  0
  7  8  1  0
  9  4  1  0
  9 10  1  0
 10 19  1  0
 11 17  1  0
 11 19  1  0
 12 17  1  0
 13 14  1  0
 13 12  1  0
 15 14  1  0
 15 24  1  0
 15 16  1  0
 17 16  1  0
 18 11  2  0
 19 20  1  0
 21 22  2  0
 22 41  1  0
 23 22  1  0
 23 26  1  0
 24 25  1  0
 24 21  1  0
 25 23  2  0
 26 27  1  0
 27 28  2  0
 29 32  1  0
 29 28  1  0
 30 29  2  0
 31 30  1  0
 31 26  2  0
 32 33  1  0
 33 38  2  0
 33 34  1  0
 34 35  2  0
 35 36  1  0
 36 40  1  0
 37 36  2  0
 38 37  1  0
 39 38  1  0
 41 42  1  0
 42 45  1  0
 42 44  1  0
 43 41  2  0
 46 21  1  0
 46 47  1  0
 48 46  1  0
 49  5  1  0
 49 50  1  0
 51 50  1  0
 51 52  1  0
 53 64  2  0
 54 52  1  0
 54 59  1  0
 55 63  1  0
 55 65  1  0
 56 58  1  0
 57 63  1  0
 58 59  2  0
 58 57  1  0
 60 54  2  0
 61 60  1  0
 61 56  2  0
 62 56  1  0
 62 55  1  0
 63 53  1  0
 65 67  2  0
 66 65  1  0
 68 66  1  0
 69 78  2  0
 69 74  1  0
 70 66  1  0
 70 74  1  0
 71 70  1  0
 72 73  1  0
 72 71  1  0
 73 69  1  0
 74 75  2  0
 75 76  1  0
 77 76  2  0
 78 77  1  0
 79 53  1  0
 79 80  1  0
 79 89  1  0
 80 83  1  0
 81 85  1  0
 81 80  1  0
 82 81  2  0
 85 84  1  0
 87 85  1  0
 87 88  1  0
 87 86  1  0
 89 92  1  1
 89 90  1  0
 91 89  1  0
M  ISO  4  11 100  19 100  51 101  52 101
M  END
>  <TORSDO>  (22) 
F 22

>  <SCORE>  (22) 
-9.528

>  <name>  (22) 
22

>  <ligand_id>  (22) 
22

>  <original_smiles>  (22) 
[H]c1nc(OC([H])([H])C([H])([H])Oc2c([H])c([H])c3c(c2[H])C([H])([H])N(C(=O)C([H])(N([H])C(=O)C([H])(N([H])C([H])([H])[H])C([H])([H])[H])C(C([H])([H])[H])(C([H])([H])[H])C([H])([H])[H])C([H])(C(=O)N([H])C2([H])c4c([H])c([H])c([H])c([H])c4C([H])([H])C([H])([H])C2([H])[H])C3([H])[H])c([H])c(C([H])([H])C([H])([H])[H])c1C([H])([H])C([H])([H])N([H])C(=O)N1C([H])([H])C([H])([H])C([H])([H])C([H])(n2nc(-c3c([H])c([H])c(Oc4c([H])c([H])c(F)c([H])c4F)c([H])c3[H])c(C(=O)N([H])[H])c2N([H])[H])C1([H])[H]

>  <smiles>  (22) 
[H]c1nc(OC([H])([H])C([H])([H])Oc2c([H])c([H])c3c(c2[H])C([H])([H])N(C(=O)C([H])(N([H])C(=O)C([H])(N([H])C([H])([H])[H])C([H])([H])[H])C(C([H])([H])[H])(C([H])([H])[H])C([H])([H])[H])C([H])(C(=O)N([H])C2([H])c4c([H])c([H])c([H])c([H])c4C([H])([H])C([H])([H])C2([H])[H])C3([H])[H])c([H])c(C([H])([H])C([H])([H])[H])c1C([H])([H])C([H])([H])N([H])C(=O)N1C([H])([H])C([H])([H])C([H])([H])C([H])(n2nc(-c3c([H])c([H])c(Oc4c([H])c([H])c(F)c([H])c4F)c([H])c3[H])c(C(=O)N([H])[H])c2N([H])[H])C1([H])[H]

$$$$
23:0:0
     RDKit          3D

 98107  0  0  1  0  0  0  0  0999 V2000
  -30.0870  -21.3450   19.8570 C   0  0  0  0  0  3  0  0  0  0  0  0
  -29.2520  -22.4980   19.7300 C   0  0  0  0  0  0  0  0  0  0  0  0
  -28.0520  -22.0840   19.1910 C   0  0  0  0  0  0  0  0  0  0  0  0
  -29.3520  -20.2590   19.4630 C   0  0  0  0  0  0  0  0  0  0  0  0
  -28.0920  -20.6880   19.0500 N   0  0  0  0  0  0  0  0  0  0  0  0
  -26.1960  -19.2750   19.8220 C   0  0  0  0  0  1  0  0  0  0  0  0
  -27.3920  -18.7510   17.6150 C   0  0  0  0  0  1  0  0  0  0  0  0
  -26.9700  -19.8360   18.6210 C   0  0  0  0  0  3  0  0  0  0  0  0
  -26.2880  -23.0950   17.4890 C   0  0  0  0  0  2  0  0  0  0  0  0
  -26.8350  -24.2550   18.2680 C   0  0  0  0  0  2  0  0  0  0  0  0
  -26.8040  -22.8770   18.8990 C   0  0  0  0  0  3  0  0  0  0  0  0
  -29.7550  -18.9090   19.5020 N   0  0  0  0  0  0  0  0  0  0  0  0
  -29.0610  -18.1890   19.6660 H   0  0  0  0  0  0  0  0  0  0  0  0
  -31.1500  -18.4870   19.6410 C   0  0  0  0  0  2  0  0  0  0  0  0
  -30.9300  -18.1700   22.2060 C   0  0  0  0  0  1  0  0  0  0  0  0
  -31.4050  -17.5720   20.8730 C   0  0  0  0  0  3  0  0  0  0  0  0
  -31.5200  -15.1540   20.1740 C   0  0  0  0  0  0  0  0  0  0  0  0
  -31.2760  -12.8220   19.3910 C   0  0  0  0  0  2  0  0  0  0  0  0
  -30.3490  -12.7710   18.1600 C   0  0  0  0  0  2  0  0  0  0  0  0
  -28.8730  -12.6730   18.5920 C   0  0  0  0  0  2  0  0  0  0  0  0
  -28.4940  -13.7210   19.6730 C   0  0  0  0  0  3  0  0  0  0  0  0
  -29.5330  -13.7320   20.8160 C   0  0  0  0  0  2  0  0  0  0  0  0
  -30.8600  -13.9640   20.2200 N   0  0  0  0  0  0  0  0  0  0  0  0
  -32.6180  -15.2830   19.6260 O   0  0  0  0  0  0  0  0  0  0  0  0
  -30.8740  -16.2070   20.7100 N   0  0  0  0  0  0  0  0  0  0  0  0
  -29.9580  -16.0230   21.0870 H   0  0  0  0  0  0  0  0  0  0  0  0
  -26.1650  -14.4370   20.4980 C   0  0  0  0  0  0  0  0  0  0  0  0
  -25.0560  -13.7140   20.8490 C   0  0  0  0  0  0  0  0  0  0  0  0
  -25.4220  -12.3400   20.7110 C   0  0  0  0  0  0  0  0  0  0  0  0
  -27.1390  -13.5060   20.1740 N   0  0  0  0  0  0  0  0  0  0  0  0
  -26.6960  -12.2360   20.3590 N   0  0  0  0  0  0  0  0  0  0  0  0
  -24.6150  -11.1200   20.8400 C   0  0  0  0  0  0  0  0  0  0  0  0
  -24.9860  -10.0790   21.7210 C   0  0  0  0  0  3  0  0  0  0  0  0
  -24.1860   -8.9230   21.8380 C   0  0  0  0  0  3  0  0  0  0  0  0
  -23.0000   -8.7990   21.0760 C   0  0  0  0  0  0  0  0  0  0  0  0
  -22.6480   -9.8270   20.1840 C   0  0  0  0  0  3  0  0  0  0  0  0
  -23.4480  -10.9750   20.0630 C   0  0  0  0  0  3  0  0  0  0  0  0
  -22.1740   -7.7020   21.1070 O   0  0  0  0  0  0  0  0  0  0  0  0
  -22.0190   -6.9490   22.2440 C   0  0  0  0  0  0  0  0  0  0  0  0
  -21.5680   -7.5140   23.4560 C   0  0  0  0  0  3  0  0  0  0  0  0
  -21.3570   -6.6910   24.5800 C   0  0  0  0  0  3  0  0  0  0  0  0
  -21.5870   -5.3050   24.4940 C   0  0  0  0  0  0  0  0  0  0  0  0
  -22.0310   -4.7400   23.2850 C   0  0  0  0  0  3  0  0  0  0  0  0
  -22.2440   -5.5590   22.1630 C   0  0  0  0  0  0  0  0  0  0  0  0
  -22.6510   -5.0070   20.9950 F   0  0  0  0  0  0  0  0  0  0  0  0
  -21.3770   -4.5130   25.5710 F   0  0  0  0  0  0  0  0  0  0  0  0
  -23.7030  -14.2650   21.2000 C   0  0  0  0  0  0  0  0  0  0  0  0
  -22.9680  -13.5760   22.0660 N   0  0  0  0  0  0  0  0  0  0  0  0
  -23.3110  -15.3370   20.7440 O   0  0  0  0  0  0  0  0  0  0  0  0
  -23.2980  -12.7050   22.4550 H   0  0  0  0  0  0  0  0  0  0  0  0
  -22.0610  -13.9230   22.3420 H   0  0  0  0  0  0  0  0  0  0  0  0
  -26.4200  -15.8020   20.4080 N   0  0  0  0  0  0  0  0  0  0  0  0
  -25.7070  -16.5010   20.5880 H   0  0  0  0  0  0  0  0  0  0  0  0
  -27.2920  -16.2010   20.0800 H   0  0  0  0  0  0  0  0  0  0  0  0
  -29.5510  -23.7520   20.2200 O   0  0  0  0  0  0  0  0  0  0  0  0
  -29.3810  -24.8910   19.3690 C   0  0  0  0  0  2  0  0  0  0  0  0
  -28.8090  -26.0680   20.2030 C   0  0  0  0  0  2  0  0  0  0  0  0
  -28.7050  -27.3090   19.4870 O   0  0  0  0  0  0  0  0  0  0  0  0
  -24.6330  -31.7670   23.2870 C   0  0  0  0  0  0  0  0  0  0  0  0
  -27.5000  -27.9550   19.6240 C   0  0  0  0  0  0  0  0  0  0  0  0
  -23.4890  -30.5160   21.4840 C   0  0  0  0  0  3  0  0  0  0  0  0
  -25.0130  -29.2750   19.8570 C   0  0  0  0  0  0  0  0  0  0  0  0
  -25.9810  -31.0680   21.3100 C   0  0  0  0  0  2  0  0  0  0  0  0
  -26.1440  -29.7990   20.4970 C   0  0  0  0  0  0  0  0  0  0  0  0
  -27.3930  -29.1470   20.3760 C   0  0  0  0  0  3  0  0  0  0  0  0
  -26.3540  -27.4370   18.9870 C   0  0  0  0  0  3  0  0  0  0  0  0
  -25.1130  -28.0930   19.1000 C   0  0  0  0  0  3  0  0  0  0  0  0
  -23.7170  -30.0360   20.0260 C   0  0  0  0  0  2  0  0  0  0  0  0
  -24.7190  -31.1250   22.0870 N   0  0  0  0  0  0  0  0  0  0  0  0
  -23.5470  -31.8930   23.8700 O   0  0  0  0  0  0  0  0  0  0  0  0
  -22.9220  -29.3380   22.3090 C   0  0  0  0  0  0  0  0  0  0  0  0
  -21.6110  -29.0820   22.1640 N   0  0  0  0  0  0  0  0  0  0  0  0
  -23.6580  -28.6630   23.0330 O   0  0  0  0  0  0  0  0  0  0  0  0
  -21.0750  -29.6870   21.5580 H   0  0  0  0  0  0  0  0  0  0  0  0
  -18.3340  -27.5990   22.5070 C   0  0  0  0  0  0  0  0  0  0  0  0
  -20.8700  -27.9980   22.8090 C   0  0  0  0  0  3  0  0  0  0  0  0
  -21.0670  -26.6620   22.0540 C   0  0  0  0  0  2  0  0  0  0  0  0
  -19.9810  -26.3960   21.0080 C   0  0  0  0  0  2  0  0  0  0  0  0
  -18.5980  -26.3610   21.6650 C   0  0  0  0  0  2  0  0  0  0  0  0
  -19.4010  -28.3750   23.0310 C   0  0  0  0  0  0  0  0  0  0  0  0
  -19.1030  -29.5360   23.7780 C   0  0  0  0  0  3  0  0  0  0  0  0
  -17.7680  -29.9200   24.0080 C   0  0  0  0  0  3  0  0  0  0  0  0
  -16.7150  -29.1390   23.5010 C   0  0  0  0  0  3  0  0  0  0  0  0
  -16.9990  -27.9800   22.7570 C   0  0  0  0  0  3  0  0  0  0  0  0
  -25.8880  -32.3940   23.9710 C   0  0  0  0  0  3  0  0  0  0  0  0
  -25.5710  -33.7970   24.2750 N   0  0  0  0  0  0  0  0  0  0  0  0
  -25.9940  -34.8450   23.5570 C   0  0  0  0  0  0  0  0  0  0  0  0
  -26.7620  -34.7330   22.5970 O   0  0  0  0  0  0  0  0  0  0  0  0
  -24.9050  -33.9600   25.0160 H   0  0  0  0  0  0  0  0  0  0  0  0
  -24.3410  -36.6660   23.0360 C   0  0  0  0  0  1  0  0  0  0  0  0
  -25.4870  -36.2400   23.9680 C   0  0  0  0  0  3  0  0  0  0  0  0
  -27.5450  -37.0820   25.0100 C   0  0  0  0  0  1  0  0  0  0  0  0
  -26.5430  -37.2760   23.9650 N   0  0  0  0  0  0  0  0  0  0  0  0
  -26.1400  -38.2020   24.0800 H   0  0  0  0  0  0  0  0  0  0  0  0
  -26.3330  -31.6280   25.2770 C   0  0  1  0  0  0  0  0  0  0  0  0
  -25.1870  -31.4060   26.2900 C   0  0  0  0  0  1  0  0  0  0  0  0
  -26.9210  -30.2420   24.9190 C   0  0  0  0  0  1  0  0  0  0  0  0
  -27.4570  -32.4160   25.9910 C   0  0  0  0  0  1  0  0  0  0  0  0
  2  1  1  0
  2 55  1  0
  3  2  2  0
  4 12  1  0
  4  1  2  0
  5  3  1  0
  5  4  1  0
  7  8  1  0
  8  5  1  0
  8  6  1  0
  9 10  1  0
  9 11  1  0
 10 11  1  0
 11  3  1  0
 12 14  1  0
 12 13  1  0
 14 16  1  0
 16 15  1  0
 17 23  1  0
 17 25  1  0
 18 23  1  0
 19 20  1  0
 19 18  1  0
 21 20  1  0
 21 30  1  0
 21 22  1  0
 23 22  1  0
 24 17  2  0
 25 16  1  0
 25 26  1  0
 27 28  2  0
 28 47  1  0
 29 32  1  0
 29 28  1  0
 30 31  1  0
 30 27  1  0
 31 29  2  0
 32 33  1  0
 33 34  2  0
 35 38  1  0
 35 34  1  0
 36 35  2  0
 37 36  1  0
 37 32  2  0
 38 39  1  0
 39 40  1  0
 40 41  2  0
 42 41  1  0
 42 46  1  0
 43 42  2  0
 44 39  2  0
 44 43  1  0
 45 44  1  0
 47 48  1  0
 48 51  1  0
 48 50  1  0
 49 47  2  0
 52 27  1  0
 52 53  1  0
 54 52  1  0
 56 57  1  0
 56 55  1  0
 58 60  1  0
 58 57  1  0
 59 70  2  0
 60 65  1  0
 61 69  1  0
 61 71  1  0
 62 68  1  0
 62 64  1  0
 63 69  1  0
 64 63  1  0
 65 64  2  0
 66 67  1  0
 66 60  2  0
 67 62  2  0
 68 61  1  0
 69 59  1  0
 71 73  2  0
 72 71  1  0
 74 72  1  0
 75 84  2  0
 75 80  1  0
 76 72  1  0
 76 80  1  0
 77 76  1  0
 78 79  1  0
 78 77  1  0
 79 75  1  0
 80 81  2  0
 81 82  1  0
 83 82  2  0
 84 83  1  0
 85 59  1  0
 85 86  1  0
 85 95  1  0
 86 89  1  0
 87 91  1  0
 87 86  1  0
 88 87  2  0
 91 90  1  0
 93 91  1  0
 93 94  1  0
 93 92  1  0
 95 98  1  1
 95 96  1  0
 97 95  1  0
M  ISO  4  17 100  25 100  57 101  58 101
M  END
>  <TORSDO>  (23) 
F 24

>  <SCORE>  (23) 
-9.508

>  <name>  (23) 
23

>  <ligand_id>  (23) 
23

>  <original_smiles>  (23) 
[H]c1c([H])c([H])c2c(c1[H])C([H])([H])C([H])([H])C([H])([H])C2([H])N([H])C(=O)C1([H])N(C(=O)C([H])(N([H])C(=O)C([H])(N([H])C([H])([H])[H])C([H])([H])[H])C(C([H])([H])[H])(C([H])([H])[H])C([H])([H])[H])C([H])([H])c2c([H])c(OC([H])([H])C([H])([H])Oc3c([H])c(N([H])C([H])([H])C([H])(N([H])C(=O)N4C([H])([H])C([H])([H])C([H])([H])C([H])(n5nc(-c6c([H])c([H])c(Oc7c([H])c([H])c(F)c([H])c7F)c([H])c6[H])c(C(=O)N([H])[H])c5N([H])[H])C4([H])[H])C([H])([H])[H])n(C([H])(C([H])([H])[H])C([H])([H])[H])c3C3([H])C([H])([H])C3([H])[H])c([H])c([H])c2C1([H])[H]

>  <smiles>  (23) 
[H]c1c([H])c([H])c2c(c1[H])C([H])([H])C([H])([H])C([H])([H])C2([H])N([H])C(=O)C1([H])N(C(=O)C([H])(N([H])C(=O)C([H])(N([H])C([H])([H])[H])C([H])([H])[H])C(C([H])([H])[H])(C([H])([H])[H])C([H])([H])[H])C([H])([H])c2c([H])c(OC([H])([H])C([H])([H])Oc3c([H])c(N([H])C([H])([H])C([H])(N([H])C(=O)N4C([H])([H])C([H])([H])C([H])([H])C([H])(n5nc(-c6c([H])c([H])c(Oc7c([H])c([H])c(F)c([H])c7F)c([H])c6[H])c(C(=O)N([H])[H])c5N([H])[H])C4([H])[H])C([H])([H])[H])n(C([H])(C([H])([H])[H])C([H])([H])[H])c3C3([H])C([H])([H])C3([H])[H])c([H])c([H])c2C1([H])[H]

$$$$
24:0:0
     RDKit          3D

 98108  0  0  1  0  0  0  0  0999 V2000
  -29.2520  -21.4330   21.0750 C   0  0  0  0  0  2  0  0  0  0  0  0
  -31.1450  -22.0490   21.7010 C   0  0  0  0  0  2  0  0  0  0  0  0
  -30.4050  -20.6920   21.7790 C   0  0  0  0  0  3  0  0  0  0  0  0
  -29.7710  -22.7350   21.7320 C   0  0  0  0  0  3  0  0  0  0  0  0
  -30.7870  -14.7150   19.8650 C   0  0  0  0  0  0  0  0  0  0  0  0
  -30.3290  -12.5570   18.7770 C   0  0  0  0  0  2  0  0  0  0  0  0
  -29.2960  -12.7520   17.6550 C   0  0  0  0  0  2  0  0  0  0  0  0
  -27.8800  -12.5520   18.2170 C   0  0  0  0  0  2  0  0  0  0  0  0
  -27.6310  -13.3690   19.5160 C   0  0  0  0  0  3  0  0  0  0  0  0
  -28.8020  -13.2500   20.5260 C   0  0  0  0  0  2  0  0  0  0  0  0
  -30.0570  -13.5620   19.8260 N   0  0  0  0  0  0  0  0  0  0  0  0
  -31.7650  -14.8370   19.1240 O   0  0  0  0  0  0  0  0  0  0  0  0
  -30.3840  -18.1640   21.2060 C   0  0  0  0  0  3  0  0  0  0  0  0
  -32.4090  -19.4630   20.8740 C   0  0  0  0  0  3  0  0  0  0  0  0
  -31.0610  -19.4150   21.2630 C   0  0  0  0  0  0  0  0  0  0  0  0
  -31.0820  -17.0040   20.7760 C   0  0  0  0  0  0  0  0  0  0  0  0
  -33.0370  -18.2890   20.4690 C   0  0  0  0  0  0  0  0  0  0  0  0
  -32.4000  -17.1070   20.4700 N   0  0  0  0  0  0  0  0  0  0  0  0
  -30.3880  -15.7430   20.6550 N   0  0  0  0  0  0  0  0  0  0  0  0
  -29.5160  -15.6420   21.1480 H   0  0  0  0  0  0  0  0  0  0  0  0
  -25.3120  -13.8350   20.5240 C   0  0  0  0  0  0  0  0  0  0  0  0
  -24.3160  -13.0030   20.9560 C   0  0  0  0  0  0  0  0  0  0  0  0
  -24.8080  -11.6730   20.7840 C   0  0  0  0  0  0  0  0  0  0  0  0
  -26.3510  -13.0100   20.1250 N   0  0  0  0  0  0  0  0  0  0  0  0
  -26.0570  -11.7010   20.3350 N   0  0  0  0  0  0  0  0  0  0  0  0
  -24.1400  -10.3770   20.9630 C   0  0  0  0  0  0  0  0  0  0  0  0
  -24.5920   -9.4420   21.9230 C   0  0  0  0  0  3  0  0  0  0  0  0
  -23.9210   -8.2100   22.0930 C   0  0  0  0  0  3  0  0  0  0  0  0
  -22.7860   -7.9050   21.3050 C   0  0  0  0  0  0  0  0  0  0  0  0
  -22.3560   -8.8290   20.3350 C   0  0  0  0  0  3  0  0  0  0  0  0
  -23.0270  -10.0500   20.1640 C   0  0  0  0  0  3  0  0  0  0  0  0
  -22.0860   -6.7240   21.3840 O   0  0  0  0  0  0  0  0  0  0  0  0
  -21.8890   -6.0830   22.5820 C   0  0  0  0  0  0  0  0  0  0  0  0
  -21.2180   -6.7050   23.6590 C   0  0  0  0  0  3  0  0  0  0  0  0
  -20.9770   -5.9840   24.8460 C   0  0  0  0  0  3  0  0  0  0  0  0
  -21.3960   -4.6450   24.9540 C   0  0  0  0  0  0  0  0  0  0  0  0
  -22.0580   -4.0240   23.8810 C   0  0  0  0  0  3  0  0  0  0  0  0
  -22.3020   -4.7410   22.6980 C   0  0  0  0  0  0  0  0  0  0  0  0
  -22.9210   -4.1320   21.6570 F   0  0  0  0  0  0  0  0  0  0  0  0
  -21.1560   -3.9500   26.0910 F   0  0  0  0  0  0  0  0  0  0  0  0
  -22.9470  -13.4130   21.4160 C   0  0  0  0  0  0  0  0  0  0  0  0
  -22.3460  -12.6470   22.3210 N   0  0  0  0  0  0  0  0  0  0  0  0
  -22.4200  -14.4460   21.0060 O   0  0  0  0  0  0  0  0  0  0  0  0
  -22.7890  -11.8120   22.6730 H   0  0  0  0  0  0  0  0  0  0  0  0
  -21.4320  -12.9010   22.6660 H   0  0  0  0  0  0  0  0  0  0  0  0
  -25.4190  -15.2180   20.4200 N   0  0  0  0  0  0  0  0  0  0  0  0
  -24.6520  -15.8410   20.6490 H   0  0  0  0  0  0  0  0  0  0  0  0
  -26.2190  -15.7030   20.0300 H   0  0  0  0  0  0  0  0  0  0  0  0
  -34.3460  -18.3370   20.0340 O   0  0  0  0  0  0  0  0  0  0  0  0
  -36.2030  -17.6300   18.6960 C   0  0  0  0  0  1  0  0  0  0  0  0
  -34.8600  -17.2220   19.3080 C   0  0  0  0  0  2  0  0  0  0  0  0
  -29.5060  -24.1290   21.1070 C   0  0  0  0  0  3  0  0  0  0  0  0
  -27.1960  -24.2060   19.8230 C   0  0  0  0  0  2  0  0  0  0  0  0
  -28.0040  -24.3570   21.0750 C   0  0  0  0  0  3  0  0  0  0  0  0
  -27.2170  -25.5470   20.5440 C   0  0  0  0  0  3  0  0  0  0  0  0
  -27.6110  -26.5410   19.5790 O   0  0  0  0  0  0  0  0  0  0  0  0
  -24.4050  -31.7100   23.1440 C   0  0  0  0  0  0  0  0  0  0  0  0
  -26.5700  -27.4390   19.5270 C   0  0  0  0  0  0  0  0  0  0  0  0
  -23.0030  -30.5020   21.5010 C   0  0  0  0  0  3  0  0  0  0  0  0
  -24.2620  -29.0310   19.8350 C   0  0  0  0  0  0  0  0  0  0  0  0
  -25.5190  -30.7730   21.1210 C   0  0  0  0  0  2  0  0  0  0  0  0
  -25.4860  -29.4600   20.3660 C   0  0  0  0  0  0  0  0  0  0  0  0
  -26.6460  -28.6700   20.2110 C   0  0  0  0  0  3  0  0  0  0  0  0
  -25.3360  -27.0320   18.9700 C   0  0  0  0  0  3  0  0  0  0  0  0
  -24.1810  -27.8210   19.1250 C   0  0  0  0  0  3  0  0  0  0  0  0
  -23.0650  -29.9310   20.0600 C   0  0  0  0  0  2  0  0  0  0  0  0
  -24.3330  -31.0020   21.9800 N   0  0  0  0  0  0  0  0  0  0  0  0
  -23.3840  -31.9830   23.7920 O   0  0  0  0  0  0  0  0  0  0  0  0
  -22.3730  -29.4390   22.4330 C   0  0  0  0  0  0  0  0  0  0  0  0
  -21.0390  -29.2910   22.3630 N   0  0  0  0  0  0  0  0  0  0  0  0
  -23.0790  -28.7490   23.1730 O   0  0  0  0  0  0  0  0  0  0  0  0
  -20.5280  -29.8990   21.7370 H   0  0  0  0  0  0  0  0  0  0  0  0
  -17.6700  -28.0970   22.9020 C   0  0  0  0  0  0  0  0  0  0  0  0
  -20.2360  -28.3270   23.1160 C   0  0  0  0  0  3  0  0  0  0  0  0
  -20.3140  -26.9200   22.4790 C   0  0  0  0  0  2  0  0  0  0  0  0
  -19.1830  -26.6480   21.4840 C   0  0  0  0  0  2  0  0  0  0  0  0
  -17.8200  -26.7770   22.1680 C   0  0  0  0  0  2  0  0  0  0  0  0
  -18.8040  -28.8360   23.3310 C   0  0  0  0  0  0  0  0  0  0  0  0
  -18.6100  -30.0800   23.9730 C   0  0  0  0  0  3  0  0  0  0  0  0
  -17.3120  -30.5800   24.1910 C   0  0  0  0  0  3  0  0  0  0  0  0
  -16.1920  -29.8370   23.7750 C   0  0  0  0  0  3  0  0  0  0  0  0
  -16.3720  -28.5970   23.1380 C   0  0  0  0  0  3  0  0  0  0  0  0
  -25.7670  -32.2300   23.7030 C   0  0  0  0  0  3  0  0  0  0  0  0
  -25.5710  -33.6240   24.1270 N   0  0  0  0  0  0  0  0  0  0  0  0
  -25.9370  -34.6930   23.4030 C   0  0  0  0  0  0  0  0  0  0  0  0
  -26.5470  -34.6030   22.3340 O   0  0  0  0  0  0  0  0  0  0  0  0
  -25.0370  -33.7740   24.9700 H   0  0  0  0  0  0  0  0  0  0  0  0
  -24.3160  -36.6050   23.2330 C   0  0  0  0  0  1  0  0  0  0  0  0
  -25.5700  -36.0840   23.9540 C   0  0  0  0  0  3  0  0  0  0  0  0
  -27.7940  -36.7790   24.7130 C   0  0  0  0  0  1  0  0  0  0  0  0
  -26.6630  -37.0740   23.8410 N   0  0  0  0  0  0  0  0  0  0  0  0
  -26.3230  -38.0050   24.0640 H   0  0  0  0  0  0  0  0  0  0  0  0
  -26.3200  -31.3580   24.8970 C   0  0  1  0  0  0  0  0  0  0  0  0
  -25.2920  -31.1140   26.0250 C   0  0  0  0  0  1  0  0  0  0  0  0
  -26.7920  -29.9800   24.3790 C   0  0  0  0  0  1  0  0  0  0  0  0
  -27.5610  -32.0470   25.5130 C   0  0  0  0  0  1  0  0  0  0  0  0
  -30.1830  -25.2560   21.8940 C   0  0  0  0  0  3  0  0  0  0  0  0
  -29.8670  -25.5030   23.0630 O   0  0  0  0  0  0  0  0  0  0  0  0
  1  4  1  0
  1  3  1  0
  2  4  1  0
  2  3  1  0
  3 15  1  0
  4 52  1  0
  5 19  1  0
  6 11  1  0
  7  8  1  0
  7  6  1  0
  9  8  1  0
  9 24  1  0
  9 10  1  0
 11  5  1  0
 11 10  1  0
 12  5  2  0
 13 15  1  0
 14 15  2  0
 16 13  2  0
 17 18  2  0
 17 14  1  0
 18 16  1  0
 19 16  1  0
 19 20  1  0
 21 22  2  0
 22 41  1  0
 23 22  1  0
 23 26  1  0
 24 25  1  0
 24 21  1  0
 25 23  2  0
 26 27  1  0
 27 28  2  0
 29 32  1  0
 29 28  1  0
 30 29  2  0
 31 30  1  0
 31 26  2  0
 32 33  1  0
 33 38  2  0
 33 34  1  0
 34 35  2  0
 35 36  1  0
 36 40  1  0
 37 36  2  0
 38 37  1  0
 39 38  1  0
 41 42  1  0
 42 45  1  0
 42 44  1  0
 43 41  2  0
 46 21  1  0
 46 47  1  0
 48 46  1  0
 49 17  1  0
 50 51  1  0
 51 49  1  0
 52 97  1  0
 53 55  1  0
 53 54  1  0
 54 52  1  0
 55 56  1  0
 55 54  1  0
 57 68  2  0
 58 56  1  0
 58 63  1  0
 59 67  1  0
 59 69  1  0
 60 66  1  0
 60 62  1  0
 61 67  1  0
 62 61  1  0
 63 62  2  0
 64 65  1  0
 64 58  2  0
 65 60  2  0
 66 59  1  0
 67 57  1  0
 69 71  2  0
 70 69  1  0
 72 70  1  0
 73 82  2  0
 73 78  1  0
 74 70  1  0
 74 78  1  0
 75 74  1  0
 76 77  1  0
 76 75  1  0
 77 73  1  0
 78 79  2  0
 79 80  1  0
 81 80  2  0
 82 81  1  0
 83 57  1  0
 83 84  1  0
 83 93  1  0
 84 87  1  0
 85 89  1  0
 85 84  1  0
 86 85  2  0
 89 88  1  0
 91 89  1  0
 91 92  1  0
 91 90  1  0
 93 96  1  1
 93 94  1  0
 95 93  1  0
 97 98  2  0
M  ISO  4   5 100  19 100  55 101  56 101
M  END
>  <TORSDO>  (24) 
F 21

>  <SCORE>  (24) 
-12.789

>  <name>  (24) 
24

>  <ligand_id>  (24) 
24

>  <original_smiles>  (24) 
[H]C(=O)C([H])(C1([H])C([H])([H])C([H])(c2c([H])c(OC([H])([H])C([H])([H])[H])nc(N([H])C(=O)N3C([H])([H])C([H])([H])C([H])([H])C([H])(n4nc(-c5c([H])c([H])c(Oc6c([H])c([H])c(F)c([H])c6F)c([H])c5[H])c(C(=O)N([H])[H])c4N([H])[H])C3([H])[H])c2[H])C1([H])[H])C1([H])C([H])([H])C1([H])Oc1c([H])c([H])c2c(c1[H])C([H])([H])N(C(=O)C([H])(N([H])C(=O)C([H])(N([H])C([H])([H])[H])C([H])([H])[H])C(C([H])([H])[H])(C([H])([H])[H])C([H])([H])[H])C([H])(C(=O)N([H])C1([H])c3c([H])c([H])c([H])c([H])c3C([H])([H])C([H])([H])C1([H])[H])C2([H])[H]

>  <smiles>  (24) 
[H]C(=O)C([H])(C1([H])C([H])([H])C([H])(c2c([H])c(OC([H])([H])C([H])([H])[H])nc(N([H])C(=O)N3C([H])([H])C([H])([H])C([H])([H])C([H])(n4nc(-c5c([H])c([H])c(Oc6c([H])c([H])c(F)c([H])c6F)c([H])c5[H])c(C(=O)N([H])[H])c4N([H])[H])C3([H])[H])c2[H])C1([H])[H])C1([H])C([H])([H])C1([H])Oc1c([H])c([H])c2c(c1[H])C([H])([H])N(C(=O)C([H])(N([H])C(=O)C([H])(N([H])C([H])([H])[H])C([H])([H])[H])C(C([H])([H])[H])(C([H])([H])[H])C([H])([H])[H])C([H])(C(=O)N([H])C1([H])c3c([H])c([H])c([H])c([H])c3C([H])([H])C([H])([H])C1([H])[H])C2([H])[H]

$$$$
25:0:0
     RDKit          3D

100109  0  0  1  0  0  0  0  0999 V2000
  -29.1710  -16.8940   19.5000 C   0  0  0  0  0  3  0  0  0  0  0  0
  -30.5500  -18.8300   20.9540 C   0  0  0  0  0  3  0  0  0  0  0  0
  -30.3160  -16.4760   20.2210 C   0  0  0  0  0  0  0  0  0  0  0  0
  -29.4360  -19.2640   20.1900 C   0  0  0  0  0  0  0  0  0  0  0  0
  -28.7410  -18.2530   19.4710 C   0  0  0  0  0  0  0  0  0  0  0  0
  -31.0050  -17.4760   20.9590 C   0  0  0  0  0  0  0  0  0  0  0  0
  -27.5180  -18.5880   18.6320 C   0  0  0  0  0  1  0  0  0  0  0  0
  -30.9630  -15.1170   19.9300 C   0  0  0  0  0  0  0  0  0  0  0  0
  -30.6450  -12.8440   19.0120 C   0  0  0  0  0  2  0  0  0  0  0  0
  -29.6800  -12.9080   17.8120 C   0  0  0  0  0  2  0  0  0  0  0  0
  -28.2280  -12.7540   18.2960 C   0  0  0  0  0  2  0  0  0  0  0  0
  -27.8880  -13.6960   19.4800 C   0  0  0  0  0  3  0  0  0  0  0  0
  -28.9810  -13.6800   20.5710 C   0  0  0  0  0  2  0  0  0  0  0  0
  -30.2700  -13.9380   19.9270 N   0  0  0  0  0  0  0  0  0  0  0  0
  -32.1130  -15.1740   19.4860 O   0  0  0  0  0  0  0  0  0  0  0  0
  -25.5680  -14.3070   20.3910 C   0  0  0  0  0  0  0  0  0  0  0  0
  -24.5010  -13.5410   20.7740 C   0  0  0  0  0  0  0  0  0  0  0  0
  -24.9170  -12.1820   20.6240 C   0  0  0  0  0  0  0  0  0  0  0  0
  -26.5660  -13.4160   20.0330 N   0  0  0  0  0  0  0  0  0  0  0  0
  -26.1850  -12.1280   20.2360 N   0  0  0  0  0  0  0  0  0  0  0  0
  -24.1620  -10.9310   20.7740 C   0  0  0  0  0  0  0  0  0  0  0  0
  -24.6260   -9.8820   21.6000 C   0  0  0  0  0  3  0  0  0  0  0  0
  -23.8740   -8.6960   21.7420 C   0  0  0  0  0  3  0  0  0  0  0  0
  -22.6420   -8.5510   21.0590 C   0  0  0  0  0  0  0  0  0  0  0  0
  -22.1960   -9.5880   20.2210 C   0  0  0  0  0  3  0  0  0  0  0  0
  -22.9490  -10.7660   20.0770 C   0  0  0  0  0  3  0  0  0  0  0  0
  -21.8560   -7.4250   21.1180 O   0  0  0  0  0  0  0  0  0  0  0  0
  -21.8630   -6.5980   22.2120 C   0  0  0  0  0  0  0  0  0  0  0  0
  -21.5660   -7.0720   23.5090 C   0  0  0  0  0  3  0  0  0  0  0  0
  -21.5190   -6.1730   24.5930 C   0  0  0  0  0  3  0  0  0  0  0  0
  -21.7570   -4.8020   24.3830 C   0  0  0  0  0  0  0  0  0  0  0  0
  -22.0440   -4.3260   23.0920 C   0  0  0  0  0  3  0  0  0  0  0  0
  -22.0940   -5.2210   22.0080 C   0  0  0  0  0  0  0  0  0  0  0  0
  -22.3520   -4.7540   20.7630 F   0  0  0  0  0  0  0  0  0  0  0  0
  -21.7030   -3.9370   25.4230 F   0  0  0  0  0  0  0  0  0  0  0  0
  -23.1390  -14.0370   21.1660 C   0  0  0  0  0  0  0  0  0  0  0  0
  -22.4530  -13.3150   22.0440 N   0  0  0  0  0  0  0  0  0  0  0  0
  -22.6960  -15.0990   20.7300 O   0  0  0  0  0  0  0  0  0  0  0  0
  -22.8230  -12.4530   22.4160 H   0  0  0  0  0  0  0  0  0  0  0  0
  -21.5430  -13.6280   22.3500 H   0  0  0  0  0  0  0  0  0  0  0  0
  -25.7710  -15.6810   20.2960 N   0  0  0  0  0  0  0  0  0  0  0  0
  -25.0450  -16.3580   20.5060 H   0  0  0  0  0  0  0  0  0  0  0  0
  -26.6390  -16.1110   19.9980 H   0  0  0  0  0  0  0  0  0  0  0  0
  -29.8770  -21.8520   20.7100 C   0  0  0  0  0  2  0  0  0  0  0  0
  -28.9550  -20.7360   20.2380 C   0  0  0  0  0  3  0  0  0  0  0  0
  -29.3670  -21.9000   19.2910 C   0  0  0  0  0  3  0  0  0  0  0  0
  -28.3130  -22.9480   19.0420 N   0  0  0  0  0  4  0  0  0  0  0  0
  -27.5870  -22.8620   19.7350 H   0  0  0  0  0  0  0  0  0  0  0  0
  -27.8890  -22.7010   18.1600 H   0  0  0  0  0  0  0  0  0  0  0  0
  -28.7070  -24.4020   18.9480 C   0  0  0  0  0  2  0  0  0  0  0  0
  -27.4730  -25.3380   18.6710 C   0  0  0  0  0  2  0  0  0  0  0  0
  -27.6310  -26.7960   18.6740 O   0  0  0  0  0  0  0  0  0  0  0  0
  -24.3230  -31.5960   22.8700 C   0  0  0  0  0  0  0  0  0  0  0  0
  -26.4820  -27.5630   18.8990 C   0  0  0  0  0  0  0  0  0  0  0  0
  -22.8870  -30.3470   21.2980 C   0  0  0  0  0  3  0  0  0  0  0  0
  -24.1070  -29.0370   19.4790 C   0  0  0  0  0  0  0  0  0  0  0  0
  -25.3480  -30.7970   20.7350 C   0  0  0  0  0  2  0  0  0  0  0  0
  -25.3470  -29.5080   19.9300 C   0  0  0  0  0  0  0  0  0  0  0  0
  -26.5330  -28.7800   19.6370 C   0  0  0  0  0  3  0  0  0  0  0  0
  -25.2130  -27.1470   18.4260 C   0  0  0  0  0  3  0  0  0  0  0  0
  -24.0380  -27.8570   18.7250 C   0  0  0  0  0  3  0  0  0  0  0  0
  -22.8780  -29.8470   19.8290 C   0  0  0  0  0  2  0  0  0  0  0  0
  -24.2140  -30.9230   21.6890 N   0  0  0  0  0  0  0  0  0  0  0  0
  -23.3420  -31.7670   23.6060 O   0  0  0  0  0  0  0  0  0  0  0  0
  -22.4200  -29.1990   22.2220 C   0  0  0  0  0  0  0  0  0  0  0  0
  -21.1130  -28.8850   22.1800 N   0  0  0  0  0  0  0  0  0  0  0  0
  -23.2240  -28.5960   22.9360 O   0  0  0  0  0  0  0  0  0  0  0  0
  -20.5130  -29.4320   21.5770 H   0  0  0  0  0  0  0  0  0  0  0  0
  -17.9820  -27.1410   22.6490 C   0  0  0  0  0  0  0  0  0  0  0  0
  -20.4610  -27.8170   22.9380 C   0  0  0  0  0  3  0  0  0  0  0  0
  -20.8040  -26.4290   22.3510 C   0  0  0  0  0  2  0  0  0  0  0  0
  -19.7730  -25.9360   21.3290 C   0  0  0  0  0  2  0  0  0  0  0  0
  -18.3830  -25.8460   21.9650 C   0  0  0  0  0  2  0  0  0  0  0  0
  -18.9570  -28.0730   23.0940 C   0  0  0  0  0  0  0  0  0  0  0  0
  -18.5290  -29.2790   23.6920 C   0  0  0  0  0  3  0  0  0  0  0  0
  -17.1570  -29.5540   23.8540 C   0  0  0  0  0  3  0  0  0  0  0  0
  -16.1980  -28.6210   23.4280 C   0  0  0  0  0  3  0  0  0  0  0  0
  -16.6110  -27.4170   22.8290 C   0  0  0  0  0  3  0  0  0  0  0  0
  -25.6810  -32.2030   23.3400 C   0  0  0  0  0  3  0  0  0  0  0  0
  -26.4530  -31.2800   24.3610 C   0  0  1  0  0  0  0  0  0  0  0  0
  -25.5890  -30.8170   25.5560 C   0  0  0  0  0  1  0  0  0  0  0  0
  -26.9950  -30.0170   23.6510 C   0  0  0  0  0  1  0  0  0  0  0  0
  -27.6810  -32.0330   24.9220 C   0  0  0  0  0  1  0  0  0  0  0  0
  -25.3990  -33.5150   23.9400 N   0  0  0  0  0  0  0  0  0  0  0  0
  -25.6660  -34.6900   23.3540 C   0  0  0  0  0  0  0  0  0  0  0  0
  -26.2500  -34.7830   22.2720 O   0  0  0  0  0  0  0  0  0  0  0  0
  -24.8760  -33.5170   24.8020 H   0  0  0  0  0  0  0  0  0  0  0  0
  -23.9240  -36.5010   23.4490 C   0  0  0  0  0  1  0  0  0  0  0  0
  -25.2150  -35.9670   24.0900 C   0  0  0  0  0  3  0  0  0  0  0  0
  -27.4050  -36.7030   24.9220 C   0  0  0  0  0  1  0  0  0  0  0  0
  -26.2410  -37.0320   24.1020 N   0  0  0  0  0  0  0  0  0  0  0  0
  -25.8490  -37.9050   24.4460 H   0  0  0  0  0  0  0  0  0  0  0  0
  -32.1450  -17.0940   21.6300 O   0  0  0  0  0  0  0  0  0  0  0  0
  -33.1780  -18.0580   21.8190 C   0  0  0  0  0  2  0  0  0  0  0  0
  -33.2360  -19.0770   20.6620 C   0  0  0  0  0  2  0  0  0  0  0  0
  -34.5970  -19.7740   20.5240 C   0  0  0  0  0  2  0  0  0  0  0  0
  -34.5600  -20.8460   19.5130 N   0  0  0  0  0  4  0  0  0  0  0  0
  -34.2580  -20.4920   18.6240 H   0  0  0  0  0  0  0  0  0  0  0  0
  -35.4770  -21.2370   19.3960 H   0  0  0  0  0  0  0  0  0  0  0  0
  -33.9410  -21.5850   19.7940 H   0  0  0  0  0  0  0  0  0  0  0  0
  1  3  1  0
  2  6  1  0
  3  6  2  0
  4  2  2  0
  5  1  2  0
  5  4  1  0
  6 93  1  0
  7  5  1  0
  8  3  1  0
  9 14  1  0
 10 11  1  0
 10  9  1  0
 12 11  1  0
 12 19  1  0
 12 13  1  0
 14  8  1  0
 14 13  1  0
 15  8  2  0
 16 17  2  0
 17 36  1  0
 18 17  1  0
 18 21  1  0
 19 20  1  0
 19 16  1  0
 20 18  2  0
 21 22  1  0
 22 23  2  0
 24 27  1  0
 24 23  1  0
 25 24  2  0
 26 25  1  0
 26 21  2  0
 27 28  1  0
 28 29  1  0
 29 30  2  0
 31 30  1  0
 31 35  1  0
 32 31  2  0
 33 28  2  0
 33 32  1  0
 34 33  1  0
 36 37  1  0
 37 40  1  0
 37 39  1  0
 38 36  2  0
 41 16  1  0
 41 42  1  0
 43 41  1  0
 45  4  1  0
 45 44  1  0
 46 47  1  0
 46 45  1  0
 46 44  1  0
 47 48  1  0
 49 47  1  0
 50 47  1  0
 51 52  1  0
 51 50  1  0
 52 54  1  0
 53 64  2  0
 54 59  1  0
 55 63  1  0
 55 65  1  0
 56 62  1  0
 56 58  1  0
 57 63  1  0
 58 57  1  0
 59 58  2  0
 60 61  1  0
 60 54  2  0
 61 56  2  0
 62 55  1  0
 63 53  1  0
 65 67  2  0
 66 65  1  0
 68 66  1  0
 69 78  2  0
 69 74  1  0
 70 66  1  0
 70 74  1  0
 71 70  1  0
 72 73  1  0
 72 71  1  0
 73 69  1  0
 74 75  2  0
 75 76  1  0
 77 76  2  0
 78 77  1  0
 79 53  1  0
 79 84  1  0
 79 80  1  0
 80 83  1  1
 80 81  1  0
 82 80  1  0
 84 87  1  0
 85 84  1  0
 85 89  1  0
 86 85  2  0
 89 88  1  0
 89 91  1  0
 91 92  1  0
 91 90  1  0
 93 94  1  0
 95 94  1  0
 96 95  1  0
 97100  1  0
 97 96  1  0
 98 97  1  0
 99 97  1  0
M  ISO  4   3 100   8 100  51 101  52 101
M  END
>  <TORSDO>  (25) 
F 25

>  <SCORE>  (25) 
-9.378

>  <name>  (25) 
25

>  <ligand_id>  (25) 
25

>  <original_smiles>  (25) 
[H]c1c([H])c([H])c2c(c1[H])C([H])([H])C([H])([H])C([H])([H])C2([H])N([H])C(=O)C1([H])N(C(=O)C([H])(N([H])C(=O)C([H])(N([H])C([H])([H])[H])C([H])([H])[H])C(C([H])([H])[H])(C([H])([H])[H])C([H])([H])[H])C([H])([H])c2c([H])c(OC([H])([H])C([H])([H])[N+]([H])([H])C3([H])C([H])([H])C3([H])c3c([H])c(OC([H])([H])C([H])([H])C([H])([H])[N+]([H])([H])[H])c(C(=O)N4C([H])([H])C([H])([H])C([H])([H])C([H])(n5nc(-c6c([H])c([H])c(Oc7c([H])c([H])c(F)c([H])c7F)c([H])c6[H])c(C(=O)N([H])[H])c5N([H])[H])C4([H])[H])c([H])c3C([H])([H])[H])c([H])c([H])c2C1([H])[H]

>  <smiles>  (25) 
[H]c1c([H])c([H])c2c(c1[H])C([H])([H])C([H])([H])C([H])([H])C2([H])N([H])C(=O)C1([H])N(C(=O)C([H])(N([H])C(=O)C([H])(N([H])C([H])([H])[H])C([H])([H])[H])C(C([H])([H])[H])(C([H])([H])[H])C([H])([H])[H])C([H])([H])c2c([H])c(OC([H])([H])C([H])([H])[N+]([H])([H])C3([H])C([H])([H])C3([H])c3c([H])c(OC([H])([H])C([H])([H])C([H])([H])[N+]([H])([H])[H])c(C(=O)N4C([H])([H])C([H])([H])C([H])([H])C([H])(n5nc(-c6c([H])c([H])c(Oc7c([H])c([H])c(F)c([H])c7F)c([H])c6[H])c(C(=O)N([H])[H])c5N([H])[H])C4([H])[H])c([H])c3C([H])([H])[H])c([H])c([H])c2C1([H])[H]

$$$$
26:0:0
     RDKit          3D

 99108  0  0  1  0  0  0  0  0999 V2000
  -34.4250  -23.1130   19.4690 C   0  0  0  0  0  2  0  0  0  0  0  0
  -34.3230  -22.2950   20.7540 C   0  0  0  0  0  2  0  0  0  0  0  0
  -33.0850  -23.8260   19.3070 C   0  0  0  0  0  2  0  0  0  0  0  0
  -32.8740  -22.4490   21.2520 C   0  0  0  0  0  3  0  0  0  0  0  0
  -32.0980  -23.1650   20.1950 N   0  0  1  0  0  4  0  0  0  0  0  0
  -31.6430  -22.4460   19.6510 H   0  0  0  0  0  0  0  0  0  0  0  0
  -32.2330  -21.1090   21.7240 C   0  0  0  0  0  2  0  0  0  0  0  0
  -32.2090  -20.0730   20.7190 O   0  0  0  0  0  0  0  0  0  0  0  0
  -31.5670  -17.7860   20.1400 C   0  0  0  0  0  3  0  0  0  0  0  0
  -30.5450  -16.4780   21.8860 C   0  0  0  0  0  3  0  0  0  0  0  0
  -30.9710  -16.5520   20.5290 C   0  0  0  0  0  0  0  0  0  0  0  0
  -31.0430  -17.4320   22.8090 C   0  0  0  0  0  3  0  0  0  0  0  0
  -31.8220  -18.7920   21.1000 C   0  0  0  0  0  0  0  0  0  0  0  0
  -30.9200  -17.2620   24.3180 C   0  0  0  0  0  1  0  0  0  0  0  0
  -31.6540  -18.5640   22.4180 N   0  0  0  0  0  0  0  0  0  0  0  0
  -31.2990  -14.3930   19.3240 C   0  0  0  0  0  0  0  0  0  0  0  0
  -30.7620  -12.2500   18.1920 C   0  0  0  0  0  2  0  0  0  0  0  0
  -29.6470  -12.4580   17.1490 C   0  0  0  0  0  2  0  0  0  0  0  0
  -28.2390  -12.4470   17.7940 C   0  0  0  0  0  2  0  0  0  0  0  0
  -28.1360  -13.2290   19.1330 C   0  0  0  0  0  3  0  0  0  0  0  0
  -29.3490  -12.9160   20.0370 C   0  0  0  0  0  2  0  0  0  0  0  0
  -30.5660  -13.2320   19.2750 N   0  0  0  0  0  0  0  0  0  0  0  0
  -32.4030  -14.4680   18.7770 O   0  0  0  0  0  0  0  0  0  0  0  0
  -30.0350  -16.1220   18.3190 C   0  0  0  0  0  1  0  0  0  0  0  0
  -30.5980  -15.5500   19.5470 N   0  0  0  0  0  0  0  0  0  0  0  0
  -25.9270  -13.8920   20.2830 C   0  0  0  0  0  0  0  0  0  0  0  0
  -24.8910  -13.1490   20.7760 C   0  0  0  0  0  0  0  0  0  0  0  0
  -25.2300  -11.7800   20.5300 C   0  0  0  0  0  0  0  0  0  0  0  0
  -26.8590  -12.9840   19.8060 N   0  0  0  0  0  0  0  0  0  0  0  0
  -26.4410  -11.7030   19.9920 N   0  0  0  0  0  0  0  0  0  0  0  0
  -24.4460  -10.5430   20.7110 C   0  0  0  0  0  0  0  0  0  0  0  0
  -24.8960   -9.4770   21.5250 C   0  0  0  0  0  3  0  0  0  0  0  0
  -24.1170   -8.3110   21.6850 C   0  0  0  0  0  3  0  0  0  0  0  0
  -22.8660   -8.1970   21.0370 C   0  0  0  0  0  0  0  0  0  0  0  0
  -22.4330   -9.2410   20.2020 C   0  0  0  0  0  3  0  0  0  0  0  0
  -23.2140  -10.4000   20.0400 C   0  0  0  0  0  3  0  0  0  0  0  0
  -22.0500   -7.0920   21.1210 O   0  0  0  0  0  0  0  0  0  0  0  0
  -21.8620   -6.4210   22.3050 C   0  0  0  0  0  0  0  0  0  0  0  0
  -21.3810   -7.0710   23.4620 C   0  0  0  0  0  3  0  0  0  0  0  0
  -21.1540   -6.3340   24.6430 C   0  0  0  0  0  3  0  0  0  0  0  0
  -21.3820   -4.9460   24.6640 C   0  0  0  0  0  0  0  0  0  0  0  0
  -21.8450   -4.2940   23.5080 C   0  0  0  0  0  3  0  0  0  0  0  0
  -22.0840   -5.0290   22.3320 C   0  0  0  0  0  0  0  0  0  0  0  0
  -22.5140   -4.3930   21.2170 F   0  0  0  0  0  0  0  0  0  0  0  0
  -21.1540   -4.2340   25.7920 F   0  0  0  0  0  0  0  0  0  0  0  0
  -23.6000  -13.6630   21.3490 C   0  0  0  0  0  0  0  0  0  0  0  0
  -23.0170  -12.9330   22.2920 N   0  0  0  0  0  0  0  0  0  0  0  0
  -23.1230  -14.7420   20.9910 O   0  0  0  0  0  0  0  0  0  0  0  0
  -23.4030  -12.0450   22.5850 H   0  0  0  0  0  0  0  0  0  0  0  0
  -22.1640  -13.2580   22.7200 H   0  0  0  0  0  0  0  0  0  0  0  0
  -26.1590  -15.2610   20.1560 N   0  0  0  0  0  0  0  0  0  0  0  0
  -25.4210  -15.9480   20.2670 H   0  0  0  0  0  0  0  0  0  0  0  0
  -26.9370  -15.6200   19.6150 H   0  0  0  0  0  0  0  0  0  0  0  0
  -28.1730  -15.6510   21.4590 C   0  0  0  0  0  1  0  0  0  0  0  0
  -29.4400  -15.5240   22.3250 C   0  0  0  0  0  2  0  0  0  0  0  0
  -31.0510  -24.1160   20.7040 C   0  0  0  0  0  2  0  0  0  0  0  0
  -30.2710  -24.8930   19.5930 C   0  0  0  0  0  2  0  0  0  0  0  0
  -29.1610  -25.8540   20.1120 C   0  0  0  0  0  2  0  0  0  0  0  0
  -28.7760  -26.7830   19.0860 O   0  0  0  0  0  0  0  0  0  0  0  0
  -24.5820  -31.3750   22.6780 C   0  0  0  0  0  0  0  0  0  0  0  0
  -27.5690  -27.4380   19.2300 C   0  0  0  0  0  0  0  0  0  0  0  0
  -23.5050  -30.1120   20.8420 C   0  0  0  0  0  3  0  0  0  0  0  0
  -25.0880  -28.8060   19.3240 C   0  0  0  0  0  0  0  0  0  0  0  0
  -26.0150  -30.6070   20.7850 C   0  0  0  0  0  2  0  0  0  0  0  0
  -26.1970  -29.3170   20.0110 C   0  0  0  0  0  0  0  0  0  0  0  0
  -27.4410  -28.6400   19.9660 C   0  0  0  0  0  3  0  0  0  0  0  0
  -26.4480  -26.9470   18.5310 C   0  0  0  0  0  3  0  0  0  0  0  0
  -25.2070  -27.6150   18.5830 C   0  0  0  0  0  3  0  0  0  0  0  0
  -23.8000  -29.5980   19.4080 C   0  0  0  0  0  2  0  0  0  0  0  0
  -24.7150  -30.7080   21.4950 N   0  0  0  0  0  0  0  0  0  0  0  0
  -23.4700  -31.5340   23.2010 O   0  0  0  0  0  0  0  0  0  0  0  0
  -22.8710  -28.9630   21.6590 C   0  0  0  0  0  0  0  0  0  0  0  0
  -21.5350  -28.8400   21.5850 N   0  0  0  0  0  0  0  0  0  0  0  0
  -23.5760  -28.1910   22.3150 O   0  0  0  0  0  0  0  0  0  0  0  0
  -21.0280  -29.5190   21.0350 H   0  0  0  0  0  0  0  0  0  0  0  0
  -18.1460  -27.7630   22.2300 C   0  0  0  0  0  0  0  0  0  0  0  0
  -20.7300  -27.8060   22.2350 C   0  0  0  0  0  3  0  0  0  0  0  0
  -20.6520  -26.5310   21.3640 C   0  0  0  0  0  2  0  0  0  0  0  0
  -19.4250  -26.5010   20.4470 C   0  0  0  0  0  2  0  0  0  0  0  0
  -18.1360  -26.5850   21.2710 C   0  0  0  0  0  2  0  0  0  0  0  0
  -19.3630  -28.3460   22.6690 C   0  0  0  0  0  0  0  0  0  0  0  0
  -19.3160  -29.4610   23.5330 C   0  0  0  0  0  3  0  0  0  0  0  0
  -18.0830  -29.9900   23.9590 C   0  0  0  0  0  3  0  0  0  0  0  0
  -16.8800  -29.4000   23.5320 C   0  0  0  0  0  3  0  0  0  0  0  0
  -16.9140  -28.2870   22.6730 C   0  0  0  0  0  3  0  0  0  0  0  0
  -25.8130  -31.9910   23.4140 C   0  0  0  0  0  3  0  0  0  0  0  0
  -25.4150  -33.3150   23.9110 N   0  0  0  0  0  0  0  0  0  0  0  0
  -25.7210  -34.4740   23.3130 C   0  0  0  0  0  0  0  0  0  0  0  0
  -26.4370  -34.5430   22.3110 O   0  0  0  0  0  0  0  0  0  0  0  0
  -24.7820  -33.3310   24.6970 H   0  0  0  0  0  0  0  0  0  0  0  0
  -23.9460  -36.2410   23.0830 C   0  0  0  0  0  1  0  0  0  0  0  0
  -25.1400  -35.7640   23.9260 C   0  0  0  0  0  3  0  0  0  0  0  0
  -27.1570  -36.5920   25.0520 C   0  0  0  0  0  1  0  0  0  0  0  0
  -26.1300  -36.8550   24.0490 N   0  0  0  0  0  0  0  0  0  0  0  0
  -25.6720  -37.7320   24.2850 H   0  0  0  0  0  0  0  0  0  0  0  0
  -26.3480  -31.0890   24.5920 C   0  0  1  0  0  0  0  0  0  0  0  0
  -25.2550  -30.6680   25.6010 C   0  0  0  0  0  1  0  0  0  0  0  0
  -27.0030  -29.8010   24.0390 C   0  0  0  0  0  1  0  0  0  0  0  0
  -27.4500  -31.8440   25.3720 C   0  0  0  0  0  1  0  0  0  0  0  0
  1  2  1  0
  2  4  1  0
  3  1  1  0
  3  5  1  0
  4  7  1  0
  5 56  1  0
  5  4  1  0
  5  6  1  6
  8 13  1  0
  8  7  1  0
  9 11  2  0
  9 13  1  0
 10 55  1  0
 10 12  1  0
 11 10  1  0
 12 14  1  0
 13 15  2  0
 15 12  1  0
 16 25  1  0
 17 22  1  0
 18 19  1  0
 18 17  1  0
 20 19  1  0
 20 29  1  0
 20 21  1  0
 22 16  1  0
 22 21  1  0
 23 16  2  0
 24 25  1  0
 25 11  1  0
 26 27  2  0
 27 46  1  0
 28 31  1  0
 28 27  1  0
 29 30  1  0
 29 26  1  0
 30 28  2  0
 31 32  1  0
 32 33  2  0
 34 37  1  0
 34 33  1  0
 35 34  2  0
 36 35  1  0
 36 31  2  0
 37 38  1  0
 38 43  2  0
 38 39  1  0
 39 40  2  0
 40 41  1  0
 41 45  1  0
 42 41  2  0
 43 42  1  0
 44 43  1  0
 46 47  1  0
 47 49  1  0
 47 50  1  0
 48 46  2  0
 51 52  1  0
 51 26  1  0
 53 51  1  0
 54 55  1  0
 57 58  1  0
 57 56  1  0
 59 61  1  0
 59 58  1  0
 60 71  2  0
 61 66  1  0
 62 70  1  0
 62 72  1  0
 63 69  1  0
 63 65  1  0
 64 70  1  0
 65 64  1  0
 66 65  2  0
 67 68  1  0
 67 61  2  0
 68 63  2  0
 69 62  1  0
 70 60  1  0
 72 74  2  0
 73 72  1  0
 75 73  1  0
 76 81  2  0
 76 85  1  0
 77 73  1  0
 77 81  1  0
 78 77  1  0
 79 80  1  0
 79 78  1  0
 80 76  1  0
 81 82  1  0
 82 83  2  0
 84 83  1  0
 85 84  2  0
 86 60  1  0
 86 87  1  0
 86 96  1  0
 87 90  1  0
 88 87  1  0
 88 92  1  0
 89 88  2  0
 92 91  1  0
 92 94  1  0
 94 95  1  0
 94 93  1  0
 96 99  1  1
 96 97  1  0
 98 96  1  0
M  ISO  4  16 100  25 100  58 101  59 101
M  END
>  <TORSDO>  (26) 
F 23

>  <SCORE>  (26) 
-4.668

>  <name>  (26) 
26

>  <ligand_id>  (26) 
26

>  <original_smiles>  (26) 
[H]c1c([H])c([H])c2c(c1[H])C([H])([H])C([H])([H])C([H])([H])C2([H])N([H])C(=O)C1([H])N(C(=O)C([H])(N([H])C(=O)C([H])(N([H])C([H])([H])[H])C([H])([H])[H])C(C([H])([H])[H])(C([H])([H])[H])C([H])([H])[H])C([H])([H])c2c([H])c(OC([H])([H])C([H])([H])C([H])([H])[N+]3([H])C([H])([H])C([H])([H])C([H])([H])C3([H])C([H])([H])Oc3nc(C([H])([H])[H])c(C([H])([H])C([H])([H])[H])c(N(C(=O)N4C([H])([H])C([H])([H])C([H])([H])C([H])(n5nc(-c6c([H])c([H])c(Oc7c([H])c([H])c(F)c([H])c7F)c([H])c6[H])c(C(=O)N([H])[H])c5N([H])[H])C4([H])[H])C([H])([H])[H])c3[H])c([H])c([H])c2C1([H])[H]

>  <smiles>  (26) 
[H]c1c([H])c([H])c2c(c1[H])C([H])([H])C([H])([H])C([H])([H])C2([H])N([H])C(=O)C1([H])N(C(=O)C([H])(N([H])C(=O)C([H])(N([H])C([H])([H])[H])C([H])([H])[H])C(C([H])([H])[H])(C([H])([H])[H])C([H])([H])[H])C([H])([H])c2c([H])c(OC([H])([H])C([H])([H])C([H])([H])[N+]3([H])C([H])([H])C([H])([H])C([H])([H])C3([H])C([H])([H])Oc3nc(C([H])([H])[H])c(C([H])([H])C([H])([H])[H])c(N(C(=O)N4C([H])([H])C([H])([H])C([H])([H])C([H])(n5nc(-c6c([H])c([H])c(Oc7c([H])c([H])c(F)c([H])c7F)c([H])c6[H])c(C(=O)N([H])[H])c5N([H])[H])C4([H])[H])C([H])([H])[H])c3[H])c([H])c([H])c2C1([H])[H]

$$$$
27:0:0
     RDKit          3D

102112  0  0  1  0  0  0  0  0999 V2000
  -31.4980  -19.3090   19.4610 C   0  0  0  0  0  3  0  0  0  0  0  0
  -30.5040  -20.5780   21.2710 C   0  0  0  0  0  3  0  0  0  0  0  0
  -30.8910  -19.3440   20.7270 C   0  0  0  0  0  0  0  0  0  0  0  0
  -31.3160  -21.7370   19.2620 C   0  0  0  0  0  0  0  0  0  0  0  0
  -31.7030  -20.4810   18.7020 C   0  0  0  0  0  0  0  0  0  0  0  0
  -30.7080  -21.7770   20.5520 C   0  0  0  0  0  0  0  0  0  0  0  0
  -30.6480  -14.4400   20.1230 C   0  0  0  0  0  0  0  0  0  0  0  0
  -30.2340  -12.3850   18.8090 C   0  0  0  0  0  2  0  0  0  0  0  0
  -29.1980  -12.6210   17.6940 C   0  0  0  0  0  2  0  0  0  0  0  0
  -27.7610  -12.4510   18.2240 C   0  0  0  0  0  2  0  0  0  0  0  0
  -27.5210  -13.2410   19.5350 C   0  0  0  0  0  3  0  0  0  0  0  0
  -28.6470  -12.9400   20.5490 C   0  0  0  0  0  2  0  0  0  0  0  0
  -29.9330  -13.2970   19.9250 N   0  0  0  0  0  0  0  0  0  0  0  0
  -31.6250  -14.7260   19.4190 O   0  0  0  0  0  0  0  0  0  0  0  0
  -29.3800  -17.3470   20.8240 C   0  0  0  0  0  2  0  0  0  0  0  0
  -31.8280  -17.1220   21.5560 C   0  0  0  0  0  2  0  0  0  0  0  0
  -29.1550  -15.9500   21.4110 C   0  0  0  0  0  2  0  0  0  0  0  0
  -31.4580  -15.7130   22.0640 C   0  0  0  0  0  2  0  0  0  0  0  0
  -30.5930  -18.0500   21.4660 C   0  0  0  0  0  3  0  0  0  0  0  0
  -30.3740  -15.1360   21.2560 N   0  0  0  0  0  0  0  0  0  0  0  0
  -25.1810  -13.8410   20.4370 C   0  0  0  0  0  0  0  0  0  0  0  0
  -24.1400  -13.0590   20.8580 C   0  0  0  0  0  0  0  0  0  0  0  0
  -24.5890  -11.7090   20.7450 C   0  0  0  0  0  0  0  0  0  0  0  0
  -26.2020  -12.9640   20.0980 N   0  0  0  0  0  0  0  0  0  0  0  0
  -25.8500  -11.6760   20.3350 N   0  0  0  0  0  0  0  0  0  0  0  0
  -23.8750  -10.4420   20.9430 C   0  0  0  0  0  0  0  0  0  0  0  0
  -24.3080   -9.4940   21.8960 C   0  0  0  0  0  3  0  0  0  0  0  0
  -23.5950   -8.2890   22.0800 C   0  0  0  0  0  3  0  0  0  0  0  0
  -22.4350   -8.0260   21.3130 C   0  0  0  0  0  0  0  0  0  0  0  0
  -22.0220   -8.9640   20.3500 C   0  0  0  0  0  3  0  0  0  0  0  0
  -22.7360  -10.1600   20.1640 C   0  0  0  0  0  3  0  0  0  0  0  0
  -21.6930   -6.8730   21.4070 O   0  0  0  0  0  0  0  0  0  0  0  0
  -21.5990   -6.1750   22.5840 C   0  0  0  0  0  0  0  0  0  0  0  0
  -21.0400   -6.7460   23.7470 C   0  0  0  0  0  3  0  0  0  0  0  0
  -20.8970   -5.9680   24.9140 C   0  0  0  0  0  3  0  0  0  0  0  0
  -21.3020   -4.6200   24.9170 C   0  0  0  0  0  0  0  0  0  0  0  0
  -21.8550   -4.0480   23.7580 C   0  0  0  0  0  3  0  0  0  0  0  0
  -22.0000   -4.8230   22.5940 C   0  0  0  0  0  0  0  0  0  0  0  0
  -22.5140   -4.2610   21.4740 F   0  0  0  0  0  0  0  0  0  0  0  0
  -21.1570   -3.8710   26.0350 F   0  0  0  0  0  0  0  0  0  0  0  0
  -22.7680  -13.5280   21.2520 C   0  0  0  0  0  0  0  0  0  0  0  0
  -22.1080  -12.8050   22.1490 N   0  0  0  0  0  0  0  0  0  0  0  0
  -22.2940  -14.5690   20.7990 O   0  0  0  0  0  0  0  0  0  0  0  0
  -22.5030  -11.9610   22.5360 H   0  0  0  0  0  0  0  0  0  0  0  0
  -21.1890  -13.0980   22.4490 H   0  0  0  0  0  0  0  0  0  0  0  0
  -25.3370  -15.2170   20.2940 N   0  0  0  0  0  0  0  0  0  0  0  0
  -24.5820  -15.8680   20.4800 H   0  0  0  0  0  0  0  0  0  0  0  0
  -26.1540  -15.6660   19.9000 H   0  0  0  0  0  0  0  0  0  0  0  0
  -32.5370  -24.0300   19.1210 C   0  0  0  0  0  2  0  0  0  0  0  0
  -32.0130  -25.4050   18.7050 C   0  0  0  0  0  2  0  0  0  0  0  0
  -30.2100  -23.8800   18.3580 C   0  0  0  0  0  2  0  0  0  0  0  0
  -31.5100  -23.0660   18.5120 C   0  0  0  0  0  3  0  0  0  0  0  0
  -30.5400  -25.2790   18.7120 N   0  0  2  0  0  4  0  0  0  0  0  0
  -30.2600  -25.3930   19.6770 H   0  0  0  0  0  0  0  0  0  0  0  0
  -29.8320  -26.3100   17.9200 C   0  0  0  0  0  2  0  0  0  0  0  0
  -28.3250  -26.3240   18.2070 C   0  0  0  0  0  2  0  0  0  0  0  0
  -28.0970  -26.7650   19.5460 O   0  0  0  0  0  0  0  0  0  0  0  0
  -24.4890  -31.7860   23.0780 C   0  0  0  0  0  0  0  0  0  0  0  0
  -26.9100  -27.4350   19.7160 C   0  0  0  0  0  0  0  0  0  0  0  0
  -23.1750  -30.4420   21.4680 C   0  0  0  0  0  3  0  0  0  0  0  0
  -24.5270  -28.9270   19.9300 C   0  0  0  0  0  0  0  0  0  0  0  0
  -25.6870  -30.7820   21.1410 C   0  0  0  0  0  2  0  0  0  0  0  0
  -25.7200  -29.4260   20.4700 C   0  0  0  0  0  0  0  0  0  0  0  0
  -26.9120  -28.6790   20.3780 C   0  0  0  0  0  3  0  0  0  0  0  0
  -25.6970  -26.9250   19.2020 C   0  0  0  0  0  3  0  0  0  0  0  0
  -24.5070  -27.6670   19.3050 C   0  0  0  0  0  3  0  0  0  0  0  0
  -23.2990  -29.7950   20.0630 C   0  0  0  0  0  2  0  0  0  0  0  0
  -24.4720  -31.0160   21.9540 N   0  0  0  0  0  0  0  0  0  0  0  0
  -23.4420  -32.0550   23.6820 O   0  0  0  0  0  0  0  0  0  0  0  0
  -22.5670  -29.4000   22.4330 C   0  0  0  0  0  0  0  0  0  0  0  0
  -21.2490  -29.1720   22.3110 N   0  0  0  0  0  0  0  0  0  0  0  0
  -23.2750  -28.8010   23.2460 O   0  0  0  0  0  0  0  0  0  0  0  0
  -20.7370  -29.7070   21.6240 H   0  0  0  0  0  0  0  0  0  0  0  0
  -17.9250  -27.8460   22.7990 C   0  0  0  0  0  0  0  0  0  0  0  0
  -20.4680  -28.2110   23.0880 C   0  0  0  0  0  3  0  0  0  0  0  0
  -20.6350  -26.7800   22.5290 C   0  0  0  0  0  2  0  0  0  0  0  0
  -19.5540  -26.3990   21.5110 C   0  0  0  0  0  2  0  0  0  0  0  0
  -18.1630  -26.4980   22.1420 C   0  0  0  0  0  2  0  0  0  0  0  0
  -19.0080  -28.6590   23.2290 C   0  0  0  0  0  0  0  0  0  0  0  0
  -18.7340  -29.9210   23.7980 C   0  0  0  0  0  3  0  0  0  0  0  0
  -17.4090  -30.3700   23.9480 C   0  0  0  0  0  3  0  0  0  0  0  0
  -16.3400  -29.5540   23.5360 C   0  0  0  0  0  3  0  0  0  0  0  0
  -16.6000  -28.2960   22.9660 C   0  0  0  0  0  3  0  0  0  0  0  0
  -25.8160  -32.3810   23.6420 C   0  0  0  0  0  3  0  0  0  0  0  0
  -25.5410  -33.7650   24.0480 N   0  0  0  0  0  0  0  0  0  0  0  0
  -25.8700  -34.8470   23.3300 C   0  0  0  0  0  0  0  0  0  0  0  0
  -26.5120  -34.7830   22.2780 O   0  0  0  0  0  0  0  0  0  0  0  0
  -24.9690  -33.8900   24.8700 H   0  0  0  0  0  0  0  0  0  0  0  0
  -24.1970  -36.7060   23.0640 C   0  0  0  0  0  1  0  0  0  0  0  0
  -25.4170  -36.2180   23.8640 C   0  0  0  0  0  3  0  0  0  0  0  0
  -27.5520  -37.0010   24.7880 C   0  0  0  0  0  1  0  0  0  0  0  0
  -26.4820  -37.2430   23.8230 N   0  0  0  0  0  0  0  0  0  0  0  0
  -26.1020  -38.1690   23.9960 H   0  0  0  0  0  0  0  0  0  0  0  0
  -26.4080  -31.5510   24.8450 C   0  0  1  0  0  0  0  0  0  0  0  0
  -25.3780  -31.2510   25.9570 C   0  0  0  0  0  1  0  0  0  0  0  0
  -26.9740  -30.2000   24.3510 C   0  0  0  0  0  1  0  0  0  0  0  0
  -27.5910  -32.3180   25.4810 C   0  0  0  0  0  1  0  0  0  0  0  0
  -32.0310  -19.0110   16.5910 C   0  0  0  0  0  1  0  0  0  0  0  0
  -33.8540  -20.5740   17.3750 C   0  0  0  0  0  1  0  0  0  0  0  0
  -32.3370  -20.3440   17.3060 C   0  0  0  0  0  3  0  0  0  0  0  0
  -29.6630  -23.0720   22.3060 C   0  0  0  0  0  1  0  0  0  0  0  0
  -30.3130  -23.0070   21.0430 O   0  0  0  0  0  0  0  0  0  0  0  0
  1  3  1  0
  3  2  2  0
  4  6  2  0
  5  4  1  0
  5  1  2  0
  6102  1  0
  6  2  1  0
  7 20  1  0
  8 13  1  0
  9 10  1  0
  9  8  1  0
 11 10  1  0
 11 24  1  0
 11 12  1  0
 13  7  1  0
 13 12  1  0
 14  7  2  0
 15 17  1  0
 15 19  1  0
 16 18  1  0
 19  3  1  0
 19 16  1  0
 20 17  1  0
 20 18  1  0
 21 22  2  0
 22 41  1  0
 23 22  1  0
 23 26  1  0
 24 25  1  0
 24 21  1  0
 25 23  2  0
 26 27  1  0
 27 28  2  0
 29 32  1  0
 29 28  1  0
 30 29  2  0
 31 30  1  0
 31 26  2  0
 32 33  1  0
 33 38  2  0
 33 34  1  0
 34 35  2  0
 35 36  1  0
 36 40  1  0
 37 36  2  0
 38 37  1  0
 39 38  1  0
 41 42  1  0
 42 45  1  0
 42 44  1  0
 43 41  2  0
 46 21  1  0
 46 47  1  0
 48 46  1  0
 50 53  1  0
 50 49  1  0
 51 52  1  0
 51 53  1  0
 52 49  1  0
 52  4  1  0
 53 54  1  1
 55 56  1  0
 55 53  1  0
 56 57  1  0
 57 59  1  0
 58 69  2  0
 59 64  1  0
 60 68  1  0
 60 70  1  0
 61 67  1  0
 61 63  1  0
 62 68  1  0
 63 62  1  0
 64 63  2  0
 65 66  1  0
 65 59  2  0
 66 61  2  0
 67 60  1  0
 68 58  1  0
 70 72  2  0
 71 70  1  0
 73 71  1  0
 74 83  2  0
 74 79  1  0
 75 71  1  0
 75 79  1  0
 76 75  1  0
 77 78  1  0
 77 76  1  0
 78 74  1  0
 79 80  2  0
 80 81  1  0
 82 81  2  0
 83 82  1  0
 84 58  1  0
 84 85  1  0
 84 94  1  0
 85 88  1  0
 86 90  1  0
 86 85  1  0
 87 86  2  0
 90 89  1  0
 92 90  1  0
 92 93  1  0
 92 91  1  0
 94 97  1  1
 94 95  1  0
 96 94  1  0
 98100  1  0
100 99  1  0
100  5  1  0
102101  1  0
M  ISO  4   7 100  20 100  56 101  57 101
M  END
>  <TORSDO>  (27) 
F 21

>  <SCORE>  (27) 
-12.515

>  <name>  (27) 
27

>  <ligand_id>  (27) 
27

>  <original_smiles>  (27) 
[H]c1c([H])c([H])c2c(c1[H])C([H])([H])C([H])([H])C([H])([H])C2([H])N([H])C(=O)C1([H])N(C(=O)C([H])(N([H])C(=O)C([H])(N([H])C([H])([H])[H])C([H])([H])[H])C(C([H])([H])[H])(C([H])([H])[H])C([H])([H])[H])C([H])([H])c2c([H])c(OC([H])([H])C([H])([H])[N+]3([H])C([H])([H])C([H])([H])C([H])(c4c(OC([H])([H])[H])c([H])c(C5([H])C([H])([H])C([H])([H])N(C(=O)N6C([H])([H])C([H])([H])C([H])([H])C([H])(n7nc(-c8c([H])c([H])c(Oc9c([H])c([H])c(F)c([H])c9F)c([H])c8[H])c(C(=O)N([H])[H])c7N([H])[H])C6([H])[H])C([H])([H])C5([H])[H])c([H])c4C([H])(C([H])([H])[H])C([H])([H])[H])C3([H])[H])c([H])c([H])c2C1([H])[H]

>  <smiles>  (27) 
[H]c1c([H])c([H])c2c(c1[H])C([H])([H])C([H])([H])C([H])([H])C2([H])N([H])C(=O)C1([H])N(C(=O)C([H])(N([H])C(=O)C([H])(N([H])C([H])([H])[H])C([H])([H])[H])C(C([H])([H])[H])(C([H])([H])[H])C([H])([H])[H])C([H])([H])c2c([H])c(OC([H])([H])C([H])([H])[N+]3([H])C([H])([H])C([H])([H])C([H])(c4c(OC([H])([H])[H])c([H])c(C5([H])C([H])([H])C([H])([H])N(C(=O)N6C([H])([H])C([H])([H])C([H])([H])C([H])(n7nc(-c8c([H])c([H])c(Oc9c([H])c([H])c(F)c([H])c9F)c([H])c8[H])c(C(=O)N([H])[H])c7N([H])[H])C6([H])[H])C([H])([H])C5([H])[H])c([H])c4C([H])(C([H])([H])[H])C([H])([H])[H])C3([H])[H])c([H])c([H])c2C1([H])[H]

$$$$
28:0:0
     RDKit          3D

 91 99  0  0  1  0  0  0  0  0999 V2000
  -27.7630  -21.4640   20.4820 C   0  0  0  0  0  2  0  0  0  0  0  0
  -28.6140  -17.9040   19.5910 C   0  0  0  0  0  3  0  0  0  0  0  0
  -29.4370  -19.4280   20.9960 C   0  0  0  0  0  3  0  0  0  0  0  0
  -27.8850  -19.0530   19.4340 C   0  0  0  0  0  0  0  0  0  0  0  0
  -28.4000  -20.0530   20.3260 C   0  0  0  0  0  0  0  0  0  0  0  0
  -26.7220  -19.1960   18.4860 C   0  0  0  0  0  1  0  0  0  0  0  0
  -29.5640  -18.0950   20.5690 N   0  0  0  0  0  0  0  0  0  0  0  0
  -30.5600  -17.0820   21.0110 C   0  0  0  0  0  2  0  0  0  0  0  0
  -30.8260  -14.6360   20.3300 C   0  0  0  0  0  0  0  0  0  0  0  0
  -30.5460  -12.4440   19.2010 C   0  0  0  0  0  2  0  0  0  0  0  0
  -29.5910  -12.6060   17.9990 C   0  0  0  0  0  2  0  0  0  0  0  0
  -28.1240  -12.4560   18.4490 C   0  0  0  0  0  2  0  0  0  0  0  0
  -27.7920  -13.3110   19.7020 C   0  0  0  0  0  3  0  0  0  0  0  0
  -28.8570  -13.1270   20.8030 C   0  0  0  0  0  2  0  0  0  0  0  0
  -30.1660  -13.4470   20.2140 N   0  0  0  0  0  0  0  0  0  0  0  0
  -31.9550  -14.8030   19.8630 O   0  0  0  0  0  0  0  0  0  0  0  0
  -30.1160  -15.6700   20.8550 N   0  0  0  0  0  0  0  0  0  0  0  0
  -29.1950  -15.4540   21.2000 H   0  0  0  0  0  0  0  0  0  0  0  0
  -25.4120  -13.9200   20.4550 C   0  0  0  0  0  0  0  0  0  0  0  0
  -24.3470  -13.1480   20.8350 C   0  0  0  0  0  0  0  0  0  0  0  0
  -24.8020  -11.7950   20.7880 C   0  0  0  0  0  0  0  0  0  0  0  0
  -26.4470  -13.0350   20.2010 N   0  0  0  0  0  0  0  0  0  0  0  0
  -26.0860  -11.7520   20.4600 N   0  0  0  0  0  0  0  0  0  0  0  0
  -24.0720  -10.5350   20.9840 C   0  0  0  0  0  0  0  0  0  0  0  0
  -24.5020   -9.5690   21.9200 C   0  0  0  0  0  3  0  0  0  0  0  0
  -23.7730   -8.3740   22.1020 C   0  0  0  0  0  3  0  0  0  0  0  0
  -22.6000   -8.1380   21.3480 C   0  0  0  0  0  0  0  0  0  0  0  0
  -22.1880   -9.0930   20.4020 C   0  0  0  0  0  3  0  0  0  0  0  0
  -22.9180  -10.2780   20.2180 C   0  0  0  0  0  3  0  0  0  0  0  0
  -21.8430   -6.9940   21.4390 O   0  0  0  0  0  0  0  0  0  0  0  0
  -21.7760   -6.2650   22.6000 C   0  0  0  0  0  0  0  0  0  0  0  0
  -21.3060   -6.8270   23.8070 C   0  0  0  0  0  3  0  0  0  0  0  0
  -21.1860   -6.0240   24.9590 C   0  0  0  0  0  3  0  0  0  0  0  0
  -21.5270   -4.6610   24.9050 C   0  0  0  0  0  0  0  0  0  0  0  0
  -21.9930   -4.0970   23.7040 C   0  0  0  0  0  3  0  0  0  0  0  0
  -22.1130   -4.8970   22.5540 C   0  0  0  0  0  0  0  0  0  0  0  0
  -22.5420   -4.3440   21.3930 F   0  0  0  0  0  0  0  0  0  0  0  0
  -21.4050   -3.8870   26.0090 F   0  0  0  0  0  0  0  0  0  0  0  0
  -22.9570  -13.6290   21.1330 C   0  0  0  0  0  0  0  0  0  0  0  0
  -22.2430  -12.9320   22.0080 N   0  0  0  0  0  0  0  0  0  0  0  0
  -22.5140  -14.6590   20.6260 O   0  0  0  0  0  0  0  0  0  0  0  0
  -22.6180  -12.1000   22.4400 H   0  0  0  0  0  0  0  0  0  0  0  0
  -21.3090  -13.2270   22.2480 H   0  0  0  0  0  0  0  0  0  0  0  0
  -25.5780  -15.2920   20.2900 N   0  0  0  0  0  0  0  0  0  0  0  0
  -24.8130  -15.9440   20.4300 H   0  0  0  0  0  0  0  0  0  0  0  0
  -26.4260  -15.7430   19.9750 H   0  0  0  0  0  0  0  0  0  0  0  0
  -28.6000  -22.7720   20.7510 C   0  0  0  0  0  2  0  0  0  0  0  0
  -26.4820  -24.0530   21.4490 C   0  0  0  0  0  1  0  0  0  0  0  0
  -27.7800  -24.1310   20.6170 C   0  0  0  0  0  3  0  0  0  0  0  0
  -28.5540  -25.4550   20.9940 C   0  0  0  0  0  2  0  0  0  0  0  0
  -28.4340  -26.6550   20.1680 O   0  0  0  0  0  0  0  0  0  0  0  0
  -24.6220  -31.9240   23.2290 C   0  0  0  0  0  0  0  0  0  0  0  0
  -27.2800  -27.4200   20.2140 C   0  0  0  0  0  0  0  0  0  0  0  0
  -23.4360  -30.5170   21.5770 C   0  0  0  0  0  3  0  0  0  0  0  0
  -24.9020  -28.9710   20.1720 C   0  0  0  0  0  0  0  0  0  0  0  0
  -25.9660  -30.8660   21.4060 C   0  0  0  0  0  2  0  0  0  0  0  0
  -26.0580  -29.4850   20.7750 C   0  0  0  0  0  0  0  0  0  0  0  0
  -27.2530  -28.7200   20.7890 C   0  0  0  0  0  3  0  0  0  0  0  0
  -26.1130  -26.9440   19.5840 C   0  0  0  0  0  3  0  0  0  0  0  0
  -24.9280  -27.7040   19.5680 C   0  0  0  0  0  3  0  0  0  0  0  0
  -23.6600  -29.8340   20.2010 C   0  0  0  0  0  2  0  0  0  0  0  0
  -24.6930  -31.1210   22.1280 N   0  0  0  0  0  0  0  0  0  0  0  0
  -23.5350  -32.1980   23.7560 O   0  0  0  0  0  0  0  0  0  0  0  0
  -22.7740  -29.4990   22.5340 C   0  0  0  0  0  0  0  0  0  0  0  0
  -21.4480  -29.3250   22.4040 N   0  0  0  0  0  0  0  0  0  0  0  0
  -23.4510  -28.8670   23.3500 O   0  0  0  0  0  0  0  0  0  0  0  0
  -20.9630  -29.8880   21.7200 H   0  0  0  0  0  0  0  0  0  0  0  0
  -18.0600  -28.1690   22.9110 C   0  0  0  0  0  0  0  0  0  0  0  0
  -20.6240  -28.3880   23.1670 C   0  0  0  0  0  3  0  0  0  0  0  0
  -20.7010  -26.9630   22.5710 C   0  0  0  0  0  2  0  0  0  0  0  0
  -19.5870  -26.6700   21.5610 C   0  0  0  0  0  2  0  0  0  0  0  0
  -18.2120  -26.8260   22.2170 C   0  0  0  0  0  2  0  0  0  0  0  0
  -19.1930  -28.9100   23.3430 C   0  0  0  0  0  0  0  0  0  0  0  0
  -18.9980  -30.1690   23.9520 C   0  0  0  0  0  3  0  0  0  0  0  0
  -17.7020  -30.6860   24.1360 C   0  0  0  0  0  3  0  0  0  0  0  0
  -16.5840  -29.9420   23.7210 C   0  0  0  0  0  3  0  0  0  0  0  0
  -16.7630  -28.6860   23.1150 C   0  0  0  0  0  3  0  0  0  0  0  0
  -25.8990  -32.5590   23.8630 C   0  0  0  0  0  3  0  0  0  0  0  0
  -25.5850  -33.9580   24.1850 N   0  0  0  0  0  0  0  0  0  0  0  0
  -25.9290  -35.0080   23.4280 C   0  0  0  0  0  0  0  0  0  0  0  0
  -26.6110  -34.9010   22.4050 O   0  0  0  0  0  0  0  0  0  0  0  0
  -24.9840  -34.1150   24.9810 H   0  0  0  0  0  0  0  0  0  0  0  0
  -24.2120  -36.8050   23.0330 C   0  0  0  0  0  1  0  0  0  0  0  0
  -25.4360  -36.4000   23.8730 C   0  0  0  0  0  3  0  0  0  0  0  0
  -27.5520  -37.2810   24.7530 C   0  0  0  0  0  1  0  0  0  0  0  0
  -26.4740  -37.4490   23.7810 N   0  0  0  0  0  0  0  0  0  0  0  0
  -26.0680  -38.3710   23.9140 H   0  0  0  0  0  0  0  0  0  0  0  0
  -26.4030  -31.7910   25.1450 C   0  0  1  0  0  0  0  0  0  0  0  0
  -25.2970  -31.5500   26.2010 C   0  0  0  0  0  1  0  0  0  0  0  0
  -26.9960  -30.4160   24.7600 C   0  0  0  0  0  1  0  0  0  0  0  0
  -27.5440  -32.5890   25.8190 C   0  0  0  0  0  1  0  0  0  0  0  0
  1 47  1  0
  2  7  1  0
  4  2  2  0
  4  5  1  0
  5  1  1  0
  5  3  2  0
  6  4  1  0
  7  3  1  0
  7  8  1  0
  9 17  1  0
 10 15  1  0
 11 12  1  0
 11 10  1  0
 13 12  1  0
 13 22  1  0
 13 14  1  0
 15  9  1  0
 15 14  1  0
 16  9  2  0
 17  8  1  0
 17 18  1  0
 19 20  2  0
 20 39  1  0
 21 20  1  0
 21 24  1  0
 22 19  1  0
 22 23  1  0
 23 21  2  0
 24 25  1  0
 25 26  2  0
 27 30  1  0
 27 26  1  0
 28 27  2  0
 29 28  1  0
 29 24  2  0
 30 31  1  0
 31 32  1  0
 32 33  2  0
 34 33  1  0
 34 38  1  0
 35 34  2  0
 36 31  2  0
 36 35  1  0
 37 36  1  0
 39 40  1  0
 40 43  1  0
 40 42  1  0
 41 39  2  0
 44 45  1  0
 44 19  1  0
 46 44  1  0
 49 47  1  0
 49 50  1  0
 49 48  1  0
 51 53  1  0
 51 50  1  0
 52 63  2  0
 53 58  1  0
 54 62  1  0
 54 64  1  0
 55 61  1  0
 55 57  1  0
 56 62  1  0
 57 58  2  0
 57 56  1  0
 59 53  2  0
 60 59  1  0
 60 55  2  0
 61 54  1  0
 62 52  1  0
 64 66  2  0
 65 64  1  0
 67 65  1  0
 68 77  2  0
 68 73  1  0
 69 65  1  0
 69 73  1  0
 70 69  1  0
 71 72  1  0
 71 70  1  0
 72 68  1  0
 73 74  2  0
 74 75  1  0
 76 75  2  0
 77 76  1  0
 78 52  1  0
 78 79  1  0
 78 88  1  0
 79 82  1  0
 80 84  1  0
 80 79  1  0
 81 80  2  0
 84 83  1  0
 86 84  1  0
 86 87  1  0
 86 85  1  0
 88 91  1  1
 88 89  1  0
 90 88  1  0
M  ISO  4   9 100  17 100  50 101  51 101
M  END
>  <TORSDO>  (28) 
F 21

>  <SCORE>  (28) 
-13.411

>  <name>  (28) 
28

>  <ligand_id>  (28) 
28

>  <original_smiles>  (28) 
[H]c1c([H])c([H])c2c(c1[H])C([H])([H])C([H])([H])C([H])([H])C2([H])N([H])C(=O)C1([H])N(C(=O)C([H])(N([H])C(=O)C([H])(N([H])C([H])([H])[H])C([H])([H])[H])C(C([H])([H])[H])(C([H])([H])[H])C([H])([H])[H])C([H])([H])c2c([H])c(OC([H])([H])C([H])(C([H])([H])[H])C([H])([H])C([H])([H])c3c(C([H])([H])[H])c([H])n(C([H])([H])N([H])C(=O)N4C([H])([H])C([H])([H])C([H])([H])C([H])(n5nc(-c6c([H])c([H])c(Oc7c([H])c([H])c(F)c([H])c7F)c([H])c6[H])c(C(=O)N([H])[H])c5N([H])[H])C4([H])[H])c3[H])c([H])c([H])c2C1([H])[H]

>  <smiles>  (28) 
[H]c1c([H])c([H])c2c(c1[H])C([H])([H])C([H])([H])C([H])([H])C2([H])N([H])C(=O)C1([H])N(C(=O)C([H])(N([H])C(=O)C([H])(N([H])C([H])([H])[H])C([H])([H])[H])C(C([H])([H])[H])(C([H])([H])[H])C([H])([H])[H])C([H])([H])c2c([H])c(OC([H])([H])C([H])(C([H])([H])[H])C([H])([H])C([H])([H])c3c(C([H])([H])[H])c([H])n(C([H])([H])N([H])C(=O)N4C([H])([H])C([H])([H])C([H])([H])C([H])(n5nc(-c6c([H])c([H])c(Oc7c([H])c([H])c(F)c([H])c7F)c([H])c6[H])c(C(=O)N([H])[H])c5N([H])[H])C4([H])[H])c3[H])c([H])c([H])c2C1([H])[H]

$$$$
29:0:0
     RDKit          3D

 87 95  0  0  1  0  0  0  0  0999 V2000
  -28.7470  -23.2190   21.2810 C   0  0  0  0  0  2  0  0  0  0  0  0
  -28.7290  -22.3810   19.1750 C   0  0  0  0  0  2  0  0  0  0  0  0
  -29.3060  -21.6420   21.2390 C   0  0  0  0  0  3  0  0  0  0  0  0
  -28.9210  -20.7510   19.9790 C   0  0  0  0  0  3  0  0  0  0  0  0
  -28.1520  -23.9190   19.9640 C   0  0  0  0  0  3  0  0  0  0  0  0
  -29.0700  -20.8610   22.5510 C   0  0  0  0  0  1  0  0  0  0  0  0
  -31.0780  -19.2620   18.9090 C   0  0  0  0  0  1  0  0  0  0  0  0
  -29.7110  -19.0020   19.5480 C   0  0  0  0  0  0  0  0  0  0  0  0
  -30.4910  -15.9240   19.9630 C   0  0  0  0  0  0  0  0  0  0  0  0
  -30.6280  -13.3580   19.2360 C   0  0  0  0  0  2  0  0  0  0  0  0
  -29.7120  -12.9140   18.0590 C   0  0  0  0  0  2  0  0  0  0  0  0
  -28.3100  -12.5470   18.5660 C   0  0  0  0  0  2  0  0  0  0  0  0
  -27.8120  -13.5640   19.6160 C   0  0  0  0  0  3  0  0  0  0  0  0
  -28.8640  -13.9170   20.6910 C   0  0  0  0  0  2  0  0  0  0  0  0
  -30.0050  -14.5440   19.9840 N   0  0  0  0  0  0  0  0  0  0  0  0
  -31.7140  -15.8820   19.7230 O   0  0  0  0  0  0  0  0  0  0  0  0
  -29.6970  -17.2740   20.0150 N   0  0  0  0  0  4  0  0  0  0  0  0
  -28.7570  -17.0340   20.2970 H   0  0  0  0  0  0  0  0  0  0  0  0
  -25.4920  -14.0650   20.5180 C   0  0  0  0  0  0  0  0  0  0  0  0
  -24.4510  -13.2670   20.8970 C   0  0  0  0  0  0  0  0  0  0  0  0
  -24.9210  -11.9220   20.7850 C   0  0  0  0  0  0  0  0  0  0  0  0
  -26.5200  -13.2060   20.1830 N   0  0  0  0  0  0  0  0  0  0  0  0
  -26.1960  -11.9060   20.4130 N   0  0  0  0  0  0  0  0  0  0  0  0
  -24.2020  -10.6490   20.9510 C   0  0  0  0  0  0  0  0  0  0  0  0
  -24.5730   -9.7150   21.9430 C   0  0  0  0  0  3  0  0  0  0  0  0
  -23.8510   -8.5110   22.0960 C   0  0  0  0  0  3  0  0  0  0  0  0
  -22.7470   -8.2340   21.2580 C   0  0  0  0  0  0  0  0  0  0  0  0
  -22.3960   -9.1570   20.2570 C   0  0  0  0  0  3  0  0  0  0  0  0
  -23.1170  -10.3520   20.1030 C   0  0  0  0  0  3  0  0  0  0  0  0
  -22.0030   -7.0790   21.3180 O   0  0  0  0  0  0  0  0  0  0  0  0
  -21.7420   -6.4530   22.5100 C   0  0  0  0  0  0  0  0  0  0  0  0
  -21.0040   -7.0800   23.5360 C   0  0  0  0  0  3  0  0  0  0  0  0
  -20.7020   -6.3760   24.7190 C   0  0  0  0  0  3  0  0  0  0  0  0
  -21.1250   -5.0410   24.8710 C   0  0  0  0  0  0  0  0  0  0  0  0
  -21.8560   -4.4130   23.8480 C   0  0  0  0  0  3  0  0  0  0  0  0
  -22.1600   -5.1160   22.6700 C   0  0  0  0  0  0  0  0  0  0  0  0
  -22.8460   -4.4980   21.6780 F   0  0  0  0  0  0  0  0  0  0  0  0
  -20.8260   -4.3610   26.0020 F   0  0  0  0  0  0  0  0  0  0  0  0
  -23.0670  -13.7280   21.2430 C   0  0  0  0  0  0  0  0  0  0  0  0
  -22.3820  -13.0060   22.1210 N   0  0  0  0  0  0  0  0  0  0  0  0
  -22.6050  -14.7670   20.7720 O   0  0  0  0  0  0  0  0  0  0  0  0
  -22.7710  -12.1640   22.5210 H   0  0  0  0  0  0  0  0  0  0  0  0
  -21.4560  -13.2950   22.4010 H   0  0  0  0  0  0  0  0  0  0  0  0
  -25.6500  -15.4430   20.3940 N   0  0  0  0  0  0  0  0  0  0  0  0
  -24.9010  -16.0960   20.5880 H   0  0  0  0  0  0  0  0  0  0  0  0
  -26.4800  -15.8860   20.0250 H   0  0  0  0  0  0  0  0  0  0  0  0
  -28.1920  -25.7020   19.8010 O   0  0  0  0  0  0  0  0  0  0  0  0
  -24.6550  -31.9030   23.0360 C   0  0  0  0  0  0  0  0  0  0  0  0
  -27.1760  -26.8920   19.8640 C   0  0  0  0  0  0  0  0  0  0  0  0
  -23.4360  -30.4920   21.4350 C   0  0  0  0  0  3  0  0  0  0  0  0
  -24.8600  -28.8880   19.9460 C   0  0  0  0  0  0  0  0  0  0  0  0
  -26.0040  -30.6950   21.1990 C   0  0  0  0  0  2  0  0  0  0  0  0
  -26.0790  -29.2660   20.5250 C   0  0  0  0  0  0  0  0  0  0  0  0
  -27.2190  -28.2980   20.4450 C   0  0  0  0  0  3  0  0  0  0  0  0
  -25.9100  -26.7330   19.2460 C   0  0  0  0  0  3  0  0  0  0  0  0
  -24.8130  -27.6500   19.2840 C   0  0  0  0  0  3  0  0  0  0  0  0
  -23.6360  -29.8120   20.0490 C   0  0  0  0  0  2  0  0  0  0  0  0
  -24.7270  -31.0630   21.9450 N   0  0  0  0  0  0  0  0  0  0  0  0
  -23.5770  -32.1660   23.5940 O   0  0  0  0  0  0  0  0  0  0  0  0
  -22.7860  -29.4890   22.4270 C   0  0  0  0  0  0  0  0  0  0  0  0
  -21.4630  -29.2540   22.3170 N   0  0  0  0  0  0  0  0  0  0  0  0
  -23.4830  -28.9170   23.2690 O   0  0  0  0  0  0  0  0  0  0  0  0
  -20.9450  -29.7700   21.6200 H   0  0  0  0  0  0  0  0  0  0  0  0
  -18.1670  -27.8090   22.8290 C   0  0  0  0  0  0  0  0  0  0  0  0
  -20.6970  -28.2820   23.1070 C   0  0  0  0  0  3  0  0  0  0  0  0
  -20.9150  -26.8440   22.5780 C   0  0  0  0  0  2  0  0  0  0  0  0
  -19.8530  -26.4100   21.5620 C   0  0  0  0  0  2  0  0  0  0  0  0
  -18.4560  -26.4620   22.1880 C   0  0  0  0  0  2  0  0  0  0  0  0
  -19.2190  -28.6700   23.2460 C   0  0  0  0  0  0  0  0  0  0  0  0
  -18.8930  -29.9210   23.8120 C   0  0  0  0  0  3  0  0  0  0  0  0
  -17.5500  -30.3160   23.9630 C   0  0  0  0  0  3  0  0  0  0  0  0
  -16.5140  -29.4530   23.5620 C   0  0  0  0  0  3  0  0  0  0  0  0
  -16.8230  -28.2030   23.0000 C   0  0  0  0  0  3  0  0  0  0  0  0
  -25.9260  -32.5810   23.6320 C   0  0  0  0  0  3  0  0  0  0  0  0
  -25.5780  -33.9630   24.0140 N   0  0  0  0  0  0  0  0  0  0  0  0
  -25.8850  -35.0620   23.3120 C   0  0  0  0  0  0  0  0  0  0  0  0
  -26.5490  -35.0190   22.2730 O   0  0  0  0  0  0  0  0  0  0  0  0
  -24.9890  -34.0690   24.8280 H   0  0  0  0  0  0  0  0  0  0  0  0
  -24.1610  -36.8790   23.0200 C   0  0  0  0  0  1  0  0  0  0  0  0
  -25.3790  -36.4220   23.8380 C   0  0  0  0  0  3  0  0  0  0  0  0
  -27.4730  -37.2800   24.7960 C   0  0  0  0  0  1  0  0  0  0  0  0
  -26.4100  -37.4870   23.8180 N   0  0  0  0  0  0  0  0  0  0  0  0
  -25.9900  -38.3940   23.9940 H   0  0  0  0  0  0  0  0  0  0  0  0
  -26.5040  -31.8130   24.8860 C   0  0  1  0  0  0  0  0  0  0  0  0
  -25.4440  -31.5050   25.9700 C   0  0  0  0  0  1  0  0  0  0  0  0
  -27.1440  -30.4690   24.4690 C   0  0  0  0  0  1  0  0  0  0  0  0
  -27.6310  -32.6450   25.5400 C   0  0  0  0  0  1  0  0  0  0  0  0
  2  5  1  0
  2  4  1  0
  3  1  1  0
  3  6  1  0
  4  8  1  0
  4  3  1  0
  5 47  1  0
  5  1  1  0
  7  8  1  0
  8 17  2  0
  9 15  1  0
  9 17  1  0
 10 15  1  0
 11 12  1  0
 11 10  1  0
 13 12  1  0
 13 22  1  0
 13 14  1  0
 15 14  1  0
 16  9  2  0
 17 18  1  0
 19 20  2  0
 20 39  1  0
 21 20  1  0
 21 24  1  0
 22 23  1  0
 22 19  1  0
 23 21  2  0
 24 25  1  0
 25 26  2  0
 27 30  1  0
 27 26  1  0
 28 27  2  0
 29 28  1  0
 29 24  2  0
 30 31  1  0
 31 36  2  0
 31 32  1  0
 32 33  2  0
 33 34  1  0
 34 38  1  0
 35 34  2  0
 36 35  1  0
 37 36  1  0
 39 40  1  0
 40 43  1  0
 40 42  1  0
 41 39  2  0
 44 19  1  0
 44 45  1  0
 46 44  1  0
 47 49  1  0
 48 59  2  0
 49 54  1  0
 50 58  1  0
 50 60  1  0
 51 57  1  0
 51 53  1  0
 52 58  1  0
 53 52  1  0
 54 53  2  0
 55 56  1  0
 55 49  2  0
 56 51  2  0
 57 50  1  0
 58 48  1  0
 60 62  2  0
 61 60  1  0
 63 61  1  0
 64 73  2  0
 64 69  1  0
 65 61  1  0
 65 69  1  0
 66 65  1  0
 67 68  1  0
 67 66  1  0
 68 64  1  0
 69 70  2  0
 70 71  1  0
 72 71  2  0
 73 72  1  0
 74 48  1  0
 74 75  1  0
 74 84  1  0
 75 78  1  0
 76 80  1  0
 76 75  1  0
 77 76  2  0
 80 79  1  0
 82 80  1  0
 82 83  1  0
 82 81  1  0
 84 87  1  1
 84 85  1  0
 86 84  1  0
M  ISO  4   5 101   9 100  17 100  47 101
M  END
>  <TORSDO>  (29) 
F 17

>  <SCORE>  (29) 
-14.951

>  <name>  (29) 
29

>  <ligand_id>  (29) 
29

>  <original_smiles>  (29) 
[H]c1c([H])c([H])c2c(c1[H])C([H])([H])C([H])([H])C([H])([H])C2([H])N([H])C(=O)C1([H])N(C(=O)C([H])(N([H])C(=O)C([H])(N([H])C([H])([H])[H])C([H])([H])[H])C(C([H])([H])[H])(C([H])([H])[H])C([H])([H])[H])C([H])([H])c2c([H])c(OC3([H])C([H])([H])C([H])(C([H])([H])[H])C([H])(C([H])(N([H])C(=O)N4C([H])([H])C([H])([H])C([H])([H])C([H])(n5nc(-c6c([H])c([H])c(Oc7c([H])c([H])c(F)c([H])c7F)c([H])c6[H])c(C(=O)N([H])[H])c5N([H])[H])C4([H])[H])C([H])([H])[H])C3([H])[H])c([H])c([H])c2C1([H])[H]

>  <smiles>  (29) 
[H]c1c([H])c([H])c2c(c1[H])C([H])([H])C([H])([H])C([H])([H])C2([H])N([H])C(=O)C1([H])N(C(=O)C([H])(N([H])C(=O)C([H])(N([H])C([H])([H])[H])C([H])([H])[H])C(C([H])([H])[H])(C([H])([H])[H])C([H])([H])[H])C([H])([H])c2c([H])c(OC3([H])C([H])([H])C([H])(C([H])([H])[H])C([H])(C([H])(N([H])C(=O)N4C([H])([H])C([H])([H])C([H])([H])C([H])(n5nc(-c6c([H])c([H])c(Oc7c([H])c([H])c(F)c([H])c7F)c([H])c6[H])c(C(=O)N([H])[H])c5N([H])[H])C4([H])[H])C([H])([H])[H])C3([H])[H])c([H])c([H])c2C1([H])[H]

$$$$
30:0:0
     RDKit          3D

 95105  0  0  1  0  0  0  0  0999 V2000
  -29.8240  -20.2390   20.2640 C   0  0  0  0  0  3  0  0  0  0  0  0
  -28.3670  -21.3170   18.6750 C   0  0  0  0  0  3  0  0  0  0  0  0
  -29.8480  -19.0900   19.4340 C   0  0  0  0  0  0  0  0  0  0  0  0
  -29.0900  -21.3800   19.8770 C   0  0  0  0  0  0  0  0  0  0  0  0
  -29.1080  -19.1570   18.2220 C   0  0  0  0  0  0  0  0  0  0  0  0
  -28.3720  -20.2360   17.8730 N   0  0  0  0  0  0  0  0  0  0  0  0
  -30.1870  -17.5000   16.4250 C   0  0  0  0  0  2  0  0  0  0  0  0
  -29.1720  -18.3650   15.7320 C   0  0  0  0  0  2  0  0  0  0  0  0
  -29.0050  -18.0440   17.2090 C   0  0  0  0  0  3  0  0  0  0  0  0
  -31.6330  -17.7930   20.9720 C   0  0  0  0  0  2  0  0  0  0  0  0
  -30.6330  -17.8500   19.8260 C   0  0  0  0  0  3  0  0  0  0  0  0
  -30.2970  -17.0840   21.1000 C   0  0  0  0  0  3  0  0  0  0  0  0
  -30.8670  -14.7070   20.4060 C   0  0  0  0  0  0  0  0  0  0  0  0
  -30.5470  -12.6180   19.1400 C   0  0  0  0  0  2  0  0  0  0  0  0
  -29.6130  -12.9120   17.9450 C   0  0  0  0  0  2  0  0  0  0  0  0
  -28.1300  -12.8050   18.3520 C   0  0  0  0  0  2  0  0  0  0  0  0
  -27.8120  -13.5780   19.6570 C   0  0  0  0  0  3  0  0  0  0  0  0
  -28.8490  -13.2390   20.7540 C   0  0  0  0  0  2  0  0  0  0  0  0
  -30.1910  -13.5430   20.2230 N   0  0  0  0  0  0  0  0  0  0  0  0
  -31.9690  -14.9300   19.8950 O   0  0  0  0  0  0  0  0  0  0  0  0
  -30.1580  -15.6480   21.0580 N   0  0  0  0  0  0  0  0  0  0  0  0
  -29.3070  -15.2980   21.4710 H   0  0  0  0  0  0  0  0  0  0  0  0
  -25.4030  -14.2190   20.3060 C   0  0  0  0  0  0  0  0  0  0  0  0
  -24.3190  -13.4620   20.6750 C   0  0  0  0  0  0  0  0  0  0  0  0
  -24.7740  -12.1070   20.6790 C   0  0  0  0  0  0  0  0  0  0  0  0
  -26.4460  -13.3270   20.1140 N   0  0  0  0  0  0  0  0  0  0  0  0
  -26.0680  -12.0530   20.3910 N   0  0  0  0  0  0  0  0  0  0  0  0
  -24.0340  -10.8530   20.8800 C   0  0  0  0  0  0  0  0  0  0  0  0
  -24.4250   -9.9170   21.8620 C   0  0  0  0  0  3  0  0  0  0  0  0
  -23.6920   -8.7260   22.0480 C   0  0  0  0  0  3  0  0  0  0  0  0
  -22.5500   -8.4650   21.2510 C   0  0  0  0  0  0  0  0  0  0  0  0
  -22.1780   -9.3900   20.2600 C   0  0  0  0  0  3  0  0  0  0  0  0
  -22.9140  -10.5730   20.0720 C   0  0  0  0  0  3  0  0  0  0  0  0
  -21.7870   -7.3270   21.3470 O   0  0  0  0  0  0  0  0  0  0  0  0
  -21.6670   -6.6380   22.5280 C   0  0  0  0  0  0  0  0  0  0  0  0
  -21.1760   -7.2480   23.7020 C   0  0  0  0  0  3  0  0  0  0  0  0
  -21.0020   -6.4820   24.8720 C   0  0  0  0  0  3  0  0  0  0  0  0
  -21.3080   -5.1090   24.8690 C   0  0  0  0  0  0  0  0  0  0  0  0
  -21.7880   -4.4980   23.6970 C   0  0  0  0  0  3  0  0  0  0  0  0
  -21.9640   -5.2600   22.5290 C   0  0  0  0  0  0  0  0  0  0  0  0
  -22.4090   -4.6610   21.3970 F   0  0  0  0  0  0  0  0  0  0  0  0
  -21.1340   -4.3720   25.9910 F   0  0  0  0  0  0  0  0  0  0  0  0
  -22.9220  -13.9540   20.9140 C   0  0  0  0  0  0  0  0  0  0  0  0
  -22.1740  -13.2900   21.7900 N   0  0  0  0  0  0  0  0  0  0  0  0
  -22.4930  -14.9650   20.3560 O   0  0  0  0  0  0  0  0  0  0  0  0
  -22.5330  -12.4810   22.2720 H   0  0  0  0  0  0  0  0  0  0  0  0
  -21.2330  -13.6020   21.9840 H   0  0  0  0  0  0  0  0  0  0  0  0
  -25.5830  -15.5840   20.1040 N   0  0  0  0  0  0  0  0  0  0  0  0
  -24.8230  -16.2520   20.1780 H   0  0  0  0  0  0  0  0  0  0  0  0
  -26.4530  -16.0040   19.8000 H   0  0  0  0  0  0  0  0  0  0  0  0
  -29.0790  -22.5240   20.6380 O   0  0  0  0  0  0  0  0  0  0  0  0
  -30.1000  -23.4450   20.2650 C   0  0  0  0  0  2  0  0  0  0  0  0
  -29.8340  -24.8590   20.8150 C   0  0  0  0  0  2  0  0  0  0  0  0
  -28.6240  -25.5750   20.1910 C   0  0  0  0  0  2  0  0  0  0  0  0
  -28.5650  -26.9290   20.6580 O   0  0  0  0  0  0  0  0  0  0  0  0
  -24.5380  -32.1110   23.4270 C   0  0  0  0  0  0  0  0  0  0  0  0
  -27.3640  -27.6100   20.5810 C   0  0  0  0  0  0  0  0  0  0  0  0
  -23.4180  -30.6450   21.7820 C   0  0  0  0  0  3  0  0  0  0  0  0
  -24.9460  -29.0820   20.4700 C   0  0  0  0  0  0  0  0  0  0  0  0
  -25.9460  -31.0260   21.6780 C   0  0  0  0  0  2  0  0  0  0  0  0
  -26.0750  -29.6360   21.0900 C   0  0  0  0  0  0  0  0  0  0  0  0
  -27.2830  -28.9050   21.1460 C   0  0  0  0  0  3  0  0  0  0  0  0
  -26.2130  -27.0710   19.9620 C   0  0  0  0  0  3  0  0  0  0  0  0
  -25.0100  -27.7970   19.9110 C   0  0  0  0  0  3  0  0  0  0  0  0
  -23.6950  -29.9280   20.4360 C   0  0  0  0  0  2  0  0  0  0  0  0
  -24.6510  -31.2770   22.3550 N   0  0  0  0  0  0  0  0  0  0  0  0
  -23.4290  -32.3850   23.9110 O   0  0  0  0  0  0  0  0  0  0  0  0
  -22.7410  -29.6420   22.7430 C   0  0  0  0  0  0  0  0  0  0  0  0
  -21.4320  -29.4140   22.5450 N   0  0  0  0  0  0  0  0  0  0  0  0
  -23.3910  -29.0700   23.6210 O   0  0  0  0  0  0  0  0  0  0  0  0
  -20.9710  -29.9270   21.8080 H   0  0  0  0  0  0  0  0  0  0  0  0
  -18.0700  -28.1340   22.8780 C   0  0  0  0  0  0  0  0  0  0  0  0
  -20.5950  -28.4850   23.3040 C   0  0  0  0  0  3  0  0  0  0  0  0
  -20.7780  -27.0350   22.8030 C   0  0  0  0  0  2  0  0  0  0  0  0
  -19.7560  -26.6310   21.7350 C   0  0  0  0  0  2  0  0  0  0  0  0
  -18.3310  -26.7610   22.2800 C   0  0  0  0  0  2  0  0  0  0  0  0
  -19.1350  -28.9490   23.3450 C   0  0  0  0  0  0  0  0  0  0  0  0
  -18.8410  -30.2280   23.8620 C   0  0  0  0  0  3  0  0  0  0  0  0
  -17.5140  -30.6980   23.9170 C   0  0  0  0  0  3  0  0  0  0  0  0
  -16.4620  -29.8800   23.4690 C   0  0  0  0  0  3  0  0  0  0  0  0
  -16.7400  -28.5990   22.9560 C   0  0  0  0  0  3  0  0  0  0  0  0
  -25.7870  -32.7780   24.0820 C   0  0  0  0  0  3  0  0  0  0  0  0
  -25.4590  -34.1880   24.3240 N   0  0  0  0  0  0  0  0  0  0  0  0
  -25.8330  -35.2020   23.5310 C   0  0  0  0  0  0  0  0  0  0  0  0
  -26.5580  -35.0480   22.5450 O   0  0  0  0  0  0  0  0  0  0  0  0
  -24.8170  -34.3790   25.0790 H   0  0  0  0  0  0  0  0  0  0  0  0
  -24.1200  -36.9640   22.9980 C   0  0  0  0  0  1  0  0  0  0  0  0
  -25.3200  -36.6100   23.8900 C   0  0  0  0  0  3  0  0  0  0  0  0
  -27.4110  -37.5440   24.7750 C   0  0  0  0  0  1  0  0  0  0  0  0
  -26.3520  -37.6620   23.7740 N   0  0  0  0  0  0  0  0  0  0  0  0
  -25.9380  -38.5840   23.8600 H   0  0  0  0  0  0  0  0  0  0  0  0
  -26.2400  -32.0720   25.4190 C   0  0  1  0  0  0  0  0  0  0  0  0
  -25.0860  -31.8450   26.4240 C   0  0  0  0  0  1  0  0  0  0  0  0
  -26.8830  -30.6970   25.1170 C   0  0  0  0  0  1  0  0  0  0  0  0
  -27.3270  -32.9230   26.1190 C   0  0  0  0  0  1  0  0  0  0  0  0
  2  4  2  0
  3  1  2  0
  4  1  1  0
  4 51  1  0
  5  3  1  0
  6  5  2  0
  6  2  1  0
  7  9  1  0
  8  7  1  0
  8  9  1  0
  9  5  1  0
 10 12  1  0
 11  3  1  0
 11 10  1  0
 11 12  1  0
 12 21  1  0
 13 21  1  0
 14 19  1  0
 15 16  1  0
 15 14  1  0
 17 16  1  0
 17 26  1  0
 17 18  1  0
 19 13  1  0
 19 18  1  0
 20 13  2  0
 21 22  1  0
 23 24  2  0
 24 25  1  0
 24 43  1  0
 25 28  1  0
 26 23  1  0
 26 27  1  0
 27 25  2  0
 28 29  1  0
 29 30  2  0
 31 34  1  0
 31 30  1  0
 32 31  2  0
 33 32  1  0
 33 28  2  0
 34 35  1  0
 35 40  2  0
 35 36  1  0
 36 37  2  0
 38 37  1  0
 38 42  1  0
 39 38  2  0
 40 39  1  0
 41 40  1  0
 43 44  1  0
 44 47  1  0
 44 46  1  0
 45 43  2  0
 48 49  1  0
 48 23  1  0
 50 48  1  0
 52 51  1  0
 52 53  1  0
 54 55  1  0
 54 53  1  0
 56 67  2  0
 57 55  1  0
 57 62  1  0
 58 66  1  0
 58 68  1  0
 59 61  1  0
 60 66  1  0
 61 62  2  0
 61 60  1  0
 63 57  2  0
 64 63  1  0
 64 59  2  0
 65 59  1  0
 65 58  1  0
 66 56  1  0
 68 70  2  0
 69 68  1  0
 71 69  1  0
 72 81  2  0
 72 77  1  0
 73 69  1  0
 73 77  1  0
 74 73  1  0
 75 76  1  0
 75 74  1  0
 76 72  1  0
 77 78  2  0
 78 79  1  0
 80 79  2  0
 81 80  1  0
 82 56  1  0
 82 83  1  0
 82 92  1  0
 83 86  1  0
 84 88  1  0
 84 83  1  0
 85 84  2  0
 88 87  1  0
 90 91  1  0
 90 88  1  0
 90 89  1  0
 92 95  1  1
 92 93  1  0
 94 92  1  0
M  ISO  4  13 100  21 100  54 101  55 101
M  END
>  <TORSDO>  (30) 
F 22

>  <SCORE>  (30) 
-11.717

>  <name>  (30) 
30

>  <ligand_id>  (30) 
30

>  <original_smiles>  (30) 
[H]c1nc(C2([H])C([H])([H])C2([H])[H])c(C2([H])C([H])([H])C2([H])N([H])C(=O)N2C([H])([H])C([H])([H])C([H])([H])C([H])(n3nc(-c4c([H])c([H])c(Oc5c([H])c([H])c(F)c([H])c5F)c([H])c4[H])c(C(=O)N([H])[H])c3N([H])[H])C2([H])[H])c([H])c1OC([H])([H])C([H])([H])C([H])([H])Oc1c([H])c([H])c2c(c1[H])C([H])([H])N(C(=O)C([H])(N([H])C(=O)C([H])(N([H])C([H])([H])[H])C([H])([H])[H])C(C([H])([H])[H])(C([H])([H])[H])C([H])([H])[H])C([H])(C(=O)N([H])C1([H])c3c([H])c([H])c([H])c([H])c3C([H])([H])C([H])([H])C1([H])[H])C2([H])[H]

>  <smiles>  (30) 
[H]c1nc(C2([H])C([H])([H])C2([H])[H])c(C2([H])C([H])([H])C2([H])N([H])C(=O)N2C([H])([H])C([H])([H])C([H])([H])C([H])(n3nc(-c4c([H])c([H])c(Oc5c([H])c([H])c(F)c([H])c5F)c([H])c4[H])c(C(=O)N([H])[H])c3N([H])[H])C2([H])[H])c([H])c1OC([H])([H])C([H])([H])C([H])([H])Oc1c([H])c([H])c2c(c1[H])C([H])([H])N(C(=O)C([H])(N([H])C(=O)C([H])(N([H])C([H])([H])[H])C([H])([H])[H])C(C([H])([H])[H])(C([H])([H])[H])C([H])([H])[H])C([H])(C(=O)N([H])C1([H])c3c([H])c([H])c([H])c([H])c3C([H])([H])C([H])([H])C1([H])[H])C2([H])[H]

$$$$
31:0:0
     RDKit          3D

 97107  0  0  1  0  0  0  0  0999 V2000
  -30.8350  -15.5310   19.9560 C   0  0  0  0  0  0  0  0  0  0  0  0
  -30.8320  -13.0360   19.2670 C   0  0  0  0  0  2  0  0  0  0  0  0
  -29.9050  -12.7680   18.0550 C   0  0  0  0  0  2  0  0  0  0  0  0
  -28.4550  -12.5350   18.5150 C   0  0  0  0  0  2  0  0  0  0  0  0
  -28.0100  -13.5670   19.5800 C   0  0  0  0  0  3  0  0  0  0  0  0
  -29.0640  -13.7660   20.6930 C   0  0  0  0  0  2  0  0  0  0  0  0
  -30.3000  -14.2170   20.0350 N   0  0  0  0  0  0  0  0  0  0  0  0
  -32.0390  -15.5540   19.6570 O   0  0  0  0  0  0  0  0  0  0  0  0
  -29.9110  -18.9450   18.5130 C   0  0  0  0  0  3  0  0  0  0  0  0
  -29.6750  -20.3800   18.2790 C   0  0  0  0  0  0  0  0  0  0  0  0
  -29.4990  -21.4320   19.2340 C   0  0  0  0  0  0  0  0  0  0  0  0
  -29.5760  -20.7600   20.5230 C   0  0  0  0  0  0  0  0  0  0  0  0
  -29.9970  -18.3260   19.8140 C   0  0  0  0  0  0  0  0  0  0  0  0
  -29.5990  -20.9740   16.9190 C   0  0  0  0  0  2  0  0  0  0  0  0
  -29.1490  -22.4400   17.1270 C   0  0  0  0  0  2  0  0  0  0  0  0
  -29.4580  -25.2540   17.4320 C   0  0  0  0  0  2  0  0  0  0  0  0
  -30.9080  -23.5910   18.4850 C   0  0  0  0  0  2  0  0  0  0  0  0
  -28.6080  -24.6520   18.5870 C   0  0  0  0  0  3  0  0  0  0  0  0
  -29.4760  -23.0410   18.5680 C   0  0  2  0  0  0  0  0  0  0  0  0
  -29.7790  -19.3540   20.7560 N   0  0  0  0  0  0  0  0  0  0  0  0
  -30.0110  -16.7440   20.0800 N   0  0  0  0  0  0  0  0  0  0  0  0
  -30.8600  -24.8550   17.7130 N   0  0  0  0  0  4  0  0  0  0  0  0
  -29.1150  -16.4610   20.4430 H   0  0  0  0  0  0  0  0  0  0  0  0
  -31.3000  -25.5720   18.2690 H   0  0  0  0  0  0  0  0  0  0  0  0
  -31.3830  -24.7640   16.8560 H   0  0  0  0  0  0  0  0  0  0  0  0
  -25.6990  -14.1890   20.4640 C   0  0  0  0  0  0  0  0  0  0  0  0
  -24.6090  -13.4420   20.8150 C   0  0  0  0  0  0  0  0  0  0  0  0
  -25.0010  -12.0760   20.6620 C   0  0  0  0  0  0  0  0  0  0  0  0
  -26.6840  -13.2830   20.1130 N   0  0  0  0  0  0  0  0  0  0  0  0
  -26.2770  -12.0000   20.2980 N   0  0  0  0  0  0  0  0  0  0  0  0
  -24.2140  -10.8410   20.7820 C   0  0  0  0  0  0  0  0  0  0  0  0
  -24.6690   -9.7450   21.5470 C   0  0  0  0  0  3  0  0  0  0  0  0
  -23.8840   -8.5780   21.6670 C   0  0  0  0  0  3  0  0  0  0  0  0
  -22.6270   -8.4990   21.0210 C   0  0  0  0  0  0  0  0  0  0  0  0
  -22.1880   -9.5840   20.2430 C   0  0  0  0  0  3  0  0  0  0  0  0
  -22.9730  -10.7420   20.1200 C   0  0  0  0  0  3  0  0  0  0  0  0
  -21.8090   -7.3950   21.0590 O   0  0  0  0  0  0  0  0  0  0  0  0
  -21.9120   -6.4570   22.0550 C   0  0  0  0  0  0  0  0  0  0  0  0
  -21.7430   -6.7930   23.4170 C   0  0  0  0  0  3  0  0  0  0  0  0
  -21.7870   -5.7850   24.4010 C   0  0  0  0  0  3  0  0  0  0  0  0
  -21.9890   -4.4440   24.0280 C   0  0  0  0  0  0  0  0  0  0  0  0
  -22.1520   -4.1060   22.6720 C   0  0  0  0  0  3  0  0  0  0  0  0
  -22.1110   -5.1110   21.6890 C   0  0  0  0  0  0  0  0  0  0  0  0
  -22.2460   -4.7770   20.3830 F   0  0  0  0  0  0  0  0  0  0  0  0
  -22.0230   -3.4740   24.9720 F   0  0  0  0  0  0  0  0  0  0  0  0
  -23.2500  -13.9680   21.1710 C   0  0  0  0  0  0  0  0  0  0  0  0
  -22.5130  -13.2490   22.0100 N   0  0  0  0  0  0  0  0  0  0  0  0
  -22.8500  -15.0490   20.7400 O   0  0  0  0  0  0  0  0  0  0  0  0
  -22.8490  -12.3730   22.3810 H   0  0  0  0  0  0  0  0  0  0  0  0
  -21.6020  -13.5830   22.2880 H   0  0  0  0  0  0  0  0  0  0  0  0
  -25.9250  -15.5600   20.3850 N   0  0  0  0  0  0  0  0  0  0  0  0
  -25.1890  -16.2330   20.5710 H   0  0  0  0  0  0  0  0  0  0  0  0
  -26.7540  -15.9850   19.9940 H   0  0  0  0  0  0  0  0  0  0  0  0
  -30.6020  -21.3960   22.7470 C   0  0  0  0  0  1  0  0  0  0  0  0
  -28.0620  -21.4070   22.4470 C   0  0  0  0  0  1  0  0  0  0  0  0
  -29.4310  -21.6080   21.7770 C   0  0  0  0  0  3  0  0  0  0  0  0
  -28.6110  -26.1610   19.2190 O   0  0  0  0  0  0  0  0  0  0  0  0
  -24.6350  -31.4250   22.8180 C   0  0  0  0  0  0  0  0  0  0  0  0
  -27.5130  -27.1680   19.2320 C   0  0  0  0  0  0  0  0  0  0  0  0
  -23.5130  -30.0970   21.0750 C   0  0  0  0  0  3  0  0  0  0  0  0
  -25.0500  -28.8010   19.4490 C   0  0  0  0  0  0  0  0  0  0  0  0
  -26.0410  -30.5670   20.8870 C   0  0  0  0  0  2  0  0  0  0  0  0
  -26.2140  -29.2480   20.0850 C   0  0  0  0  0  0  0  0  0  0  0  0
  -27.4330  -28.4470   19.9690 C   0  0  0  0  0  3  0  0  0  0  0  0
  -26.3070  -26.8810   18.5490 C   0  0  0  0  0  3  0  0  0  0  0  0
  -25.1160  -27.6400   18.6660 C   0  0  0  0  0  3  0  0  0  0  0  0
  -23.7510  -29.5860   19.6280 C   0  0  0  0  0  2  0  0  0  0  0  0
  -24.7500  -30.7190   21.6490 N   0  0  0  0  0  0  0  0  0  0  0  0
  -23.5440  -31.5570   23.3970 O   0  0  0  0  0  0  0  0  0  0  0  0
  -22.9510  -28.9450   21.9480 C   0  0  0  0  0  0  0  0  0  0  0  0
  -21.6390  -28.6660   21.8380 N   0  0  0  0  0  0  0  0  0  0  0  0
  -23.6990  -28.3080   22.6930 O   0  0  0  0  0  0  0  0  0  0  0  0
  -21.0830  -29.2380   21.2160 H   0  0  0  0  0  0  0  0  0  0  0  0
  -18.4190  -27.0420   22.2340 C   0  0  0  0  0  0  0  0  0  0  0  0
  -20.9320  -27.5830   22.5300 C   0  0  0  0  0  3  0  0  0  0  0  0
  -21.1970  -26.2220   21.8450 C   0  0  0  0  0  2  0  0  0  0  0  0
  -20.1350  -25.8550   20.8040 C   0  0  0  0  0  2  0  0  0  0  0  0
  -18.7500  -25.7830   21.4500 C   0  0  0  0  0  2  0  0  0  0  0  0
  -19.4440  -27.8960   22.7270 C   0  0  0  0  0  0  0  0  0  0  0  0
  -19.0800  -29.0680   23.4240 C   0  0  0  0  0  3  0  0  0  0  0  0
  -17.7250  -29.3930   23.6280 C   0  0  0  0  0  3  0  0  0  0  0  0
  -16.7170  -28.5390   23.1490 C   0  0  0  0  0  3  0  0  0  0  0  0
  -17.0640  -27.3640   22.4590 C   0  0  0  0  0  3  0  0  0  0  0  0
  -25.8670  -32.1160   23.4800 C   0  0  0  0  0  3  0  0  0  0  0  0
  -26.4300  -31.3190   24.7210 C   0  0  1  0  0  0  0  0  0  0  0  0
  -25.3560  -30.9740   25.7800 C   0  0  0  0  0  1  0  0  0  0  0  0
  -27.0890  -29.9940   24.2750 C   0  0  0  0  0  1  0  0  0  0  0  0
  -27.5380  -32.1450   25.4170 C   0  0  0  0  0  1  0  0  0  0  0  0
  -25.4590  -33.4700   23.8910 N   0  0  0  0  0  0  0  0  0  0  0  0
  -25.8030  -34.6010   23.2580 C   0  0  0  0  0  0  0  0  0  0  0  0
  -26.5590  -34.6120   22.2830 O   0  0  0  0  0  0  0  0  0  0  0  0
  -24.7930  -33.5310   24.6470 H   0  0  0  0  0  0  0  0  0  0  0  0
  -24.0290  -36.3530   22.9130 C   0  0  0  0  0  1  0  0  0  0  0  0
  -25.2190  -35.9260   23.7870 C   0  0  0  0  0  3  0  0  0  0  0  0
  -27.2360  -36.8210   24.8680 C   0  0  0  0  0  1  0  0  0  0  0  0
  -26.2090  -37.0250   23.8490 N   0  0  0  0  0  0  0  0  0  0  0  0
  -25.7510  -37.9130   24.0330 H   0  0  0  0  0  0  0  0  0  0  0  0
  1  7  1  0
  1 21  1  0
  2  7  1  0
  3  4  1  0
  3  2  1  0
  5  4  1  0
  5 29  1  0
  5  6  1  0
  7  6  1  0
  8  1  2  0
  9 13  1  0
 10  9  2  0
 10 11  1  0
 11 12  2  0
 12 20  1  0
 12 56  1  0
 13 21  1  0
 13 20  2  0
 14 15  1  0
 14 10  1  0
 16 22  1  0
 16 18  1  0
 19 17  1  6
 18 57  1  0
 19 15  1  0
 19 18  1  0
 19 11  1  0
 21 23  1  0
 22 24  1  0
 22 17  1  0
 25 22  1  0
 26 27  2  0
 27 46  1  0
 28 31  1  0
 28 27  1  0
 29 30  1  0
 29 26  1  0
 30 28  2  0
 31 32  1  0
 32 33  2  0
 34 37  1  0
 34 33  1  0
 35 34  2  0
 36 35  1  0
 36 31  2  0
 37 38  1  0
 38 39  1  0
 39 40  2  0
 41 40  1  0
 41 45  1  0
 42 41  2  0
 43 38  2  0
 43 42  1  0
 44 43  1  0
 46 47  1  0
 47 50  1  0
 47 49  1  0
 48 46  2  0
 51 26  1  0
 51 52  1  0
 53 51  1  0
 56 55  1  0
 56 54  1  0
 57 59  1  0
 58 69  2  0
 59 64  1  0
 60 68  1  0
 60 70  1  0
 61 67  1  0
 61 63  1  0
 62 68  1  0
 63 62  1  0
 64 63  2  0
 65 66  1  0
 65 59  2  0
 66 61  2  0
 67 60  1  0
 68 58  1  0
 70 72  2  0
 71 70  1  0
 73 71  1  0
 74 83  2  0
 74 79  1  0
 75 71  1  0
 75 79  1  0
 76 75  1  0
 77 78  1  0
 77 76  1  0
 78 74  1  0
 79 80  2  0
 80 81  1  0
 82 81  2  0
 83 82  1  0
 84 58  1  0
 84 89  1  0
 84 85  1  0
 85 88  1  1
 85 86  1  0
 87 85  1  0
 89 92  1  0
 90 94  1  0
 90 89  1  0
 91 90  2  0
 94 93  1  0
 94 96  1  0
 96 97  1  0
 96 95  1  0
M  ISO  4   1 100  18 101  21 100  57 101
M  END
>  <TORSDO>  (31) 
F 16

>  <SCORE>  (31) 
-12.211

>  <name>  (31) 
31

>  <ligand_id>  (31) 
31

>  <original_smiles>  (31) 
[H]c1c([H])c([H])c2c(c1[H])C([H])([H])C([H])([H])C([H])([H])C2([H])N([H])C(=O)C1([H])N(C(=O)C([H])(N([H])C(=O)C([H])(N([H])C([H])([H])[H])C([H])([H])[H])C(C([H])([H])[H])(C([H])([H])[H])C([H])([H])[H])C([H])([H])c2c([H])c(OC3([H])C4(c5c(C([H])(C([H])([H])[H])C([H])([H])[H])nc(N([H])C(=O)N6C([H])([H])C([H])([H])C([H])([H])C([H])(n7nc(-c8c([H])c([H])c(Oc9c([H])c([H])c(F)c([H])c9F)c([H])c8[H])c(C(=O)N([H])[H])c7N([H])[H])C6([H])[H])c([H])c5C([H])([H])C4([H])[H])C([H])([H])[N+]([H])([H])C3([H])[H])c([H])c([H])c2C1([H])[H]

>  <smiles>  (31) 
[H]c1c([H])c([H])c2c(c1[H])C([H])([H])C([H])([H])C([H])([H])C2([H])N([H])C(=O)C1([H])N(C(=O)C([H])(N([H])C(=O)C([H])(N([H])C([H])([H])[H])C([H])([H])[H])C(C([H])([H])[H])(C([H])([H])[H])C([H])([H])[H])C([H])([H])c2c([H])c(OC3([H])C4(c5c(C([H])(C([H])([H])[H])C([H])([H])[H])nc(N([H])C(=O)N6C([H])([H])C([H])([H])C([H])([H])C([H])(n7nc(-c8c([H])c([H])c(Oc9c([H])c([H])c(F)c([H])c9F)c([H])c8[H])c(C(=O)N([H])[H])c7N([H])[H])C6([H])[H])c([H])c5C([H])([H])C4([H])[H])C([H])([H])[N+]([H])([H])C3([H])[H])c([H])c([H])c2C1([H])[H]

$$$$
32:0:0
     RDKit          3D

 94103  0  0  1  0  0  0  0  0999 V2000
  -30.1950  -22.5830   20.3990 C   0  0  0  0  0  3  0  0  0  0  0  0
  -28.4780  -21.9420   18.8210 C   0  0  0  0  0  3  0  0  0  0  0  0
  -30.5790  -21.2290   20.5410 C   0  0  0  0  0  0  0  0  0  0  0  0
  -29.1560  -22.9590   19.5260 C   0  0  0  0  0  0  0  0  0  0  0  0
  -28.8320  -20.5770   18.9610 C   0  0  0  0  0  0  0  0  0  0  0  0
  -29.8960  -20.2060   19.8340 C   0  0  0  0  0  0  0  0  0  0  0  0
  -28.0980  -19.5710   18.0860 C   0  0  0  0  0  1  0  0  0  0  0  0
  -32.9210  -21.7800   21.6810 C   0  0  0  0  0  2  0  0  0  0  0  0
  -33.0780  -20.5470   20.8240 C   0  0  0  0  0  2  0  0  0  0  0  0
  -31.7360  -20.8670   21.4330 C   0  0  0  0  0  3  0  0  0  0  0  0
  -28.8580  -24.4460   19.2690 C   0  0  0  0  0  2  0  0  0  0  0  0
  -28.3790  -25.2620   20.4930 C   0  0  0  0  0  2  0  0  0  0  0  0
  -28.4310  -26.6840   20.2490 O   0  0  0  0  0  0  0  0  0  0  0  0
  -24.5580  -31.8570   23.2640 C   0  0  0  0  0  0  0  0  0  0  0  0
  -27.2480  -27.3960   20.2380 C   0  0  0  0  0  0  0  0  0  0  0  0
  -23.3730  -30.4470   21.6120 C   0  0  0  0  0  3  0  0  0  0  0  0
  -24.8480  -28.9000   20.2150 C   0  0  0  0  0  0  0  0  0  0  0  0
  -25.9000  -30.8070   21.4440 C   0  0  0  0  0  2  0  0  0  0  0  0
  -25.9970  -29.4310   20.8140 C   0  0  0  0  0  0  0  0  0  0  0  0
  -27.2030  -28.6870   20.8160 C   0  0  0  0  0  3  0  0  0  0  0  0
  -26.0820  -26.8820   19.6320 C   0  0  0  0  0  3  0  0  0  0  0  0
  -24.8850  -27.6250   19.6210 C   0  0  0  0  0  3  0  0  0  0  0  0
  -23.6020  -29.7570   20.2390 C   0  0  0  0  0  2  0  0  0  0  0  0
  -24.6270  -31.0520   22.1650 N   0  0  0  0  0  0  0  0  0  0  0  0
  -23.4690  -32.1310   23.7900 O   0  0  0  0  0  0  0  0  0  0  0  0
  -22.7130  -29.4300   22.5690 C   0  0  0  0  0  0  0  0  0  0  0  0
  -21.3900  -29.2460   22.4280 N   0  0  0  0  0  0  0  0  0  0  0  0
  -23.3880  -28.8090   23.3960 O   0  0  0  0  0  0  0  0  0  0  0  0
  -20.9070  -29.7980   21.7340 H   0  0  0  0  0  0  0  0  0  0  0  0
  -18.0080  -28.0670   22.9040 C   0  0  0  0  0  0  0  0  0  0  0  0
  -20.5650  -28.3100   23.1900 C   0  0  0  0  0  3  0  0  0  0  0  0
  -20.6630  -26.8810   22.6070 C   0  0  0  0  0  2  0  0  0  0  0  0
  -19.5630  -26.5690   21.5860 C   0  0  0  0  0  2  0  0  0  0  0  0
  -18.1800  -26.7190   22.2250 C   0  0  0  0  0  2  0  0  0  0  0  0
  -19.1290  -28.8210   23.3440 C   0  0  0  0  0  0  0  0  0  0  0  0
  -18.9140  -30.0840   23.9380 C   0  0  0  0  0  3  0  0  0  0  0  0
  -17.6130  -30.5940   24.0960 C   0  0  0  0  0  3  0  0  0  0  0  0
  -16.5060  -29.8360   23.6750 C   0  0  0  0  0  3  0  0  0  0  0  0
  -16.7040  -28.5740   23.0850 C   0  0  0  0  0  3  0  0  0  0  0  0
  -25.8350  -32.4930   23.8980 C   0  0  0  0  0  3  0  0  0  0  0  0
  -25.5240  -33.8940   24.2140 N   0  0  0  0  0  0  0  0  0  0  0  0
  -25.8620  -34.9380   23.4460 C   0  0  0  0  0  0  0  0  0  0  0  0
  -26.5430  -34.8250   22.4230 O   0  0  0  0  0  0  0  0  0  0  0  0
  -24.9240  -34.0570   25.0090 H   0  0  0  0  0  0  0  0  0  0  0  0
  -24.1400  -36.7260   23.0490 C   0  0  0  0  0  1  0  0  0  0  0  0
  -25.3680  -36.3310   23.8840 C   0  0  0  0  0  3  0  0  0  0  0  0
  -27.4890  -37.2240   24.7440 C   0  0  0  0  0  1  0  0  0  0  0  0
  -26.4030  -37.3820   23.7780 N   0  0  0  0  0  0  0  0  0  0  0  0
  -25.9940  -38.3040   23.9090 H   0  0  0  0  0  0  0  0  0  0  0  0
  -26.3370  -31.7310   25.1850 C   0  0  1  0  0  0  0  0  0  0  0  0
  -25.2310  -31.4960   26.2390 C   0  0  0  0  0  1  0  0  0  0  0  0
  -26.9280  -30.3520   24.8070 C   0  0  0  0  0  1  0  0  0  0  0  0
  -27.4780  -32.5300   25.8570 C   0  0  0  0  0  1  0  0  0  0  0  0
  -30.4130  -18.9280   19.9820 O   0  0  0  0  0  0  0  0  0  0  0  0
  -29.5830  -17.7710   20.1300 C   0  0  0  0  0  2  0  0  0  0  0  0
  -30.3030  -16.8060   21.1050 C   0  0  0  0  0  2  0  0  0  0  0  0
  -30.5800  -14.4190   20.3810 C   0  0  0  0  0  0  0  0  0  0  0  0
  -30.2680  -12.2860   19.1980 C   0  0  0  0  0  2  0  0  0  0  0  0
  -29.2920  -12.5090   18.0270 C   0  0  0  0  0  2  0  0  0  0  0  0
  -27.8310  -12.3600   18.4960 C   0  0  0  0  0  2  0  0  0  0  0  0
  -27.5270  -13.1730   19.7840 C   0  0  0  0  0  3  0  0  0  0  0  0
  -28.6090  -12.9180   20.8570 C   0  0  0  0  0  2  0  0  0  0  0  0
  -29.9180  -13.2390   20.2590 N   0  0  0  0  0  0  0  0  0  0  0  0
  -31.6810  -14.6340   19.8710 O   0  0  0  0  0  0  0  0  0  0  0  0
  -29.8810  -15.4020   20.9740 N   0  0  0  0  0  0  0  0  0  0  0  0
  -28.9640  -15.1540   21.3160 H   0  0  0  0  0  0  0  0  0  0  0  0
  -25.1450  -13.7690   20.5560 C   0  0  0  0  0  0  0  0  0  0  0  0
  -24.0900  -12.9890   20.9490 C   0  0  0  0  0  0  0  0  0  0  0  0
  -24.5580  -11.6410   20.8980 C   0  0  0  0  0  0  0  0  0  0  0  0
  -26.1870  -12.8920   20.2930 N   0  0  0  0  0  0  0  0  0  0  0  0
  -25.8380  -11.6080   20.5550 N   0  0  0  0  0  0  0  0  0  0  0  0
  -23.8450  -10.3730   21.0990 C   0  0  0  0  0  0  0  0  0  0  0  0
  -24.3010   -9.4090   22.0240 C   0  0  0  0  0  3  0  0  0  0  0  0
  -23.5880   -8.2050   22.2120 C   0  0  0  0  0  3  0  0  0  0  0  0
  -22.4060   -7.9580   21.4760 C   0  0  0  0  0  0  0  0  0  0  0  0
  -21.9690   -8.9130   20.5410 C   0  0  0  0  0  3  0  0  0  0  0  0
  -22.6820  -10.1080   20.3520 C   0  0  0  0  0  3  0  0  0  0  0  0
  -21.6630   -6.8070   21.5730 O   0  0  0  0  0  0  0  0  0  0  0  0
  -21.6410   -6.0610   22.7230 C   0  0  0  0  0  0  0  0  0  0  0  0
  -21.2120   -6.6020   23.9550 C   0  0  0  0  0  3  0  0  0  0  0  0
  -21.1380   -5.7800   25.0970 C   0  0  0  0  0  3  0  0  0  0  0  0
  -21.4820   -4.4190   25.0090 C   0  0  0  0  0  0  0  0  0  0  0  0
  -21.9030   -3.8770   23.7820 C   0  0  0  0  0  3  0  0  0  0  0  0
  -21.9790   -4.6950   22.6420 C   0  0  0  0  0  0  0  0  0  0  0  0
  -22.3660   -4.1620   21.4570 F   0  0  0  0  0  0  0  0  0  0  0  0
  -21.4030   -3.6280   26.1040 F   0  0  0  0  0  0  0  0  0  0  0  0
  -22.6990  -13.4580   21.2600 C   0  0  0  0  0  0  0  0  0  0  0  0
  -21.9940  -12.7490   22.1340 N   0  0  0  0  0  0  0  0  0  0  0  0
  -22.2460  -14.4900   20.7660 O   0  0  0  0  0  0  0  0  0  0  0  0
  -22.3730  -11.9160   22.5580 H   0  0  0  0  0  0  0  0  0  0  0  0
  -21.0600  -13.0470   22.3840 H   0  0  0  0  0  0  0  0  0  0  0  0
  -25.3000  -15.1410   20.3830 N   0  0  0  0  0  0  0  0  0  0  0  0
  -24.5350  -15.7940   20.5180 H   0  0  0  0  0  0  0  0  0  0  0  0
  -26.1370  -15.5850   20.0290 H   0  0  0  0  0  0  0  0  0  0  0  0
  1  3  1  0
  2  5  2  0
  2  4  1  0
  3 10  1  0
  4  1  2  0
  5  6  1  0
  6 54  1  0
  6  3  2  0
  7  5  1  0
  9 10  1  0
  9  8  1  0
 10  8  1  0
 11  4  1  0
 11 12  1  0
 13 12  1  0
 14 25  2  0
 15 13  1  0
 15 20  1  0
 16 24  1  0
 16 26  1  0
 17 23  1  0
 17 19  1  0
 18 24  1  0
 19 20  2  0
 19 18  1  0
 21 15  2  0
 22 21  1  0
 22 17  2  0
 23 16  1  0
 24 14  1  0
 26 28  2  0
 27 26  1  0
 29 27  1  0
 30 39  2  0
 30 35  1  0
 31 27  1  0
 31 35  1  0
 32 31  1  0
 33 34  1  0
 33 32  1  0
 34 30  1  0
 35 36  2  0
 36 37  1  0
 38 37  2  0
 39 38  1  0
 40 14  1  0
 40 41  1  0
 40 50  1  0
 41 44  1  0
 42 46  1  0
 42 41  1  0
 43 42  2  0
 46 45  1  0
 48 46  1  0
 48 49  1  0
 48 47  1  0
 50 53  1  1
 50 51  1  0
 52 50  1  0
 54 55  1  0
 55 56  1  0
 57 65  1  0
 58 63  1  0
 59 60  1  0
 59 58  1  0
 61 60  1  0
 61 70  1  0
 61 62  1  0
 63 57  1  0
 63 62  1  0
 64 57  2  0
 65 56  1  0
 65 66  1  0
 67 68  2  0
 68 87  1  0
 69 68  1  0
 69 72  1  0
 70 71  1  0
 70 67  1  0
 71 69  2  0
 72 73  1  0
 73 74  2  0
 75 78  1  0
 75 74  1  0
 76 75  2  0
 77 76  1  0
 77 72  2  0
 78 79  1  0
 79 80  1  0
 80 81  2  0
 82 81  1  0
 82 86  1  0
 83 82  2  0
 84 79  2  0
 84 83  1  0
 85 84  1  0
 87 88  1  0
 88 91  1  0
 88 90  1  0
 89 87  2  0
 92 93  1  0
 92 67  1  0
 94 92  1  0
M  ISO  4  12 101  13 101  57 100  65 100
M  END
>  <TORSDO>  (32) 
F 22

>  <SCORE>  (32) 
-13.025

>  <name>  (32) 
32

>  <ligand_id>  (32) 
32

>  <original_smiles>  (32) 
[H]c1c([H])c([H])c2c(c1[H])C([H])([H])C([H])([H])C([H])([H])C2([H])N([H])C(=O)C1([H])N(C(=O)C([H])(N([H])C(=O)C([H])(N([H])C([H])([H])[H])C([H])([H])[H])C(C([H])([H])[H])(C([H])([H])[H])C([H])([H])[H])C([H])([H])c2c([H])c(OC([H])([H])C([H])([H])c3c([H])c(C([H])([H])[H])c(OC([H])([H])C([H])([H])N([H])C(=O)N4C([H])([H])C([H])([H])C([H])([H])C([H])(n5nc(-c6c([H])c([H])c(Oc7c([H])c([H])c(F)c([H])c7F)c([H])c6[H])c(C(=O)N([H])[H])c5N([H])[H])C4([H])[H])c(C4([H])C([H])([H])C4([H])[H])c3[H])c([H])c([H])c2C1([H])[H]

>  <smiles>  (32) 
[H]c1c([H])c([H])c2c(c1[H])C([H])([H])C([H])([H])C([H])([H])C2([H])N([H])C(=O)C1([H])N(C(=O)C([H])(N([H])C(=O)C([H])(N([H])C([H])([H])[H])C([H])([H])[H])C(C([H])([H])[H])(C([H])([H])[H])C([H])([H])[H])C([H])([H])c2c([H])c(OC([H])([H])C([H])([H])c3c([H])c(C([H])([H])[H])c(OC([H])([H])C([H])([H])N([H])C(=O)N4C([H])([H])C([H])([H])C([H])([H])C([H])(n5nc(-c6c([H])c([H])c(Oc7c([H])c([H])c(F)c([H])c7F)c([H])c6[H])c(C(=O)N([H])[H])c5N([H])[H])C4([H])[H])c(C4([H])C([H])([H])C4([H])[H])c3[H])c([H])c([H])c2C1([H])[H]

$$$$
33:0:0
     RDKit          3D

 94 95  0  0  1  0  0  0  0  0999 V2000
  -32.0810  -23.6120   17.9480 C   0  0  0  0  0  2  0  0  0  0  0  0
  -30.1680  -23.2630   16.1580 C   0  0  0  0  0  2  0  0  0  0  0  0
  -31.2580  -22.6390   18.7880 C   0  0  0  0  0  2  0  0  0  0  0  0
  -29.5870  -22.3180   17.2100 C   0  0  0  0  0  2  0  0  0  0  0  0
  -31.4410  -24.0070   16.6050 C   0  0  0  0  0  3  0  0  0  0  0  0
  -29.6100  -22.8130   18.7940 C   0  0  0  0  0  2  0  0  0  0  0  0
  -28.0190  -24.3790   20.1720 O   0  0  0  0  0  1  0  0  0  0  0  0
  -24.6980  -31.7370   23.0750 C   0  0  0  0  0  0  0  0  0  0  0  0
  -27.2110  -26.0140   20.1890 C   0  0  0  0  0  0  0  0  0  0  0  0
  -23.5450  -30.2990   21.4690 C   0  0  0  0  0  3  0  0  0  0  0  0
  -25.0090  -28.5160   20.1260 C   0  0  0  0  0  0  0  0  0  0  0  0
  -26.1570  -30.2440   21.4300 C   0  0  0  0  0  2  0  0  0  0  0  0
  -26.2230  -28.7290   20.7860 C   0  0  0  0  0  0  0  0  0  0  0  0
  -27.2700  -27.5390   20.7700 C   0  0  0  0  0  3  0  0  0  0  0  0
  -25.9200  -26.2080   19.5290 C   0  0  0  0  0  3  0  0  0  0  0  0
  -24.9400  -27.2800   19.4720 C   0  0  0  0  0  3  0  0  0  0  0  0
  -23.8280  -29.5410   20.1330 C   0  0  0  0  0  2  0  0  0  0  0  0
  -24.8350  -30.8080   22.0420 N   0  0  0  0  0  0  0  0  0  0  0  0
  -23.5890  -32.0670   23.5380 O   0  0  0  0  0  0  0  0  0  0  0  0
  -22.7680  -29.3870   22.4660 C   0  0  0  0  0  0  0  0  0  0  0  0
  -21.4280  -29.2690   22.3520 N   0  0  0  0  0  0  0  0  0  0  0  0
  -23.3990  -28.7740   23.3280 O   0  0  0  0  0  0  0  0  0  0  0  0
  -20.9590  -29.8120   21.6410 H   0  0  0  0  0  0  0  0  0  0  0  0
  -18.0210  -28.0800   22.9250 C   0  0  0  0  0  0  0  0  0  0  0  0
  -20.5880  -28.3510   23.1430 C   0  0  0  0  0  3  0  0  0  0  0  0
  -20.6740  -26.9100   22.5840 C   0  0  0  0  0  2  0  0  0  0  0  0
  -19.5610  -26.5860   21.5840 C   0  0  0  0  0  2  0  0  0  0  0  0
  -18.1860  -26.7330   22.2420 C   0  0  0  0  0  2  0  0  0  0  0  0
  -19.1460  -28.8480   23.3320 C   0  0  0  0  0  0  0  0  0  0  0  0
  -18.9290  -30.1040   23.9400 C   0  0  0  0  0  3  0  0  0  0  0  0
  -17.6240  -30.5940   24.1390 C   0  0  0  0  0  3  0  0  0  0  0  0
  -16.5160  -29.8250   23.7430 C   0  0  0  0  0  3  0  0  0  0  0  0
  -16.7150  -28.5700   23.1420 C   0  0  0  0  0  3  0  0  0  0  0  0
  -25.9220  -32.4450   23.7360 C   0  0  0  0  0  3  0  0  0  0  0  0
  -26.4120  -31.7170   25.0500 C   0  0  1  0  0  0  0  0  0  0  0  0
  -25.2960  -31.4950   26.0980 C   0  0  0  0  0  1  0  0  0  0  0  0
  -27.0210  -30.3360   24.7340 C   0  0  0  0  0  1  0  0  0  0  0  0
  -27.5390  -32.5410   25.7170 C   0  0  0  0  0  1  0  0  0  0  0  0
  -25.5570  -33.8450   24.0700 N   0  0  0  0  0  0  0  0  0  0  0  0
  -25.8910  -34.9360   23.3660 C   0  0  0  0  0  0  0  0  0  0  0  0
  -26.5780  -34.8740   22.3460 O   0  0  0  0  0  0  0  0  0  0  0  0
  -24.9420  -33.9660   24.8630 H   0  0  0  0  0  0  0  0  0  0  0  0
  -24.1600  -36.7510   23.0560 C   0  0  0  0  0  1  0  0  0  0  0  0
  -25.3910  -36.3150   23.8660 C   0  0  0  0  0  3  0  0  0  0  0  0
  -27.5060  -37.2040   24.7550 C   0  0  0  0  0  1  0  0  0  0  0  0
  -26.4180  -37.3800   23.7980 N   0  0  0  0  0  0  0  0  0  0  0  0
  -26.0000  -38.2930   23.9580 H   0  0  0  0  0  0  0  0  0  0  0  0
  -31.1880  -25.4960   16.6270 C   0  0  0  0  0  2  0  0  0  0  0  0
  -30.3970  -27.4160   17.9830 C   0  0  0  0  0  1  0  0  0  0  0  0
  -30.0280  -25.9730   17.5270 C   0  0  0  0  0  3  0  0  0  0  0  0
  -30.1780  -24.2650   20.5450 C   0  0  0  0  0 15  0  0  0  0  0  0
  -27.6490  -23.6780   18.1510 C   0  0  0  0  0 15  0  0  0  0  0  0
  -29.6370  -22.2550   21.1630 C   0  0  0  0  0 15  0  0  0  0  0  0
  -27.5250  -21.7880   19.1920 C   0  0  0  0  0 15  0  0  0  0  0  0
  -29.3460  -25.0540   18.6430 C   0  0  0  0  0  1  0  0  0  0  0  0
  -28.8040  -20.5440   20.2800 C   0  0  0  0  0 15  0  0  0  0  0  0
  -29.9040  -16.7670   20.2370 C   0  0  0  0  0  0  0  0  0  0  0  0
  -30.3170  -13.9700   19.5040 C   0  0  0  0  0  2  0  0  0  0  0  0
  -29.6000  -13.0780   18.4000 C   0  0  0  0  0  2  0  0  0  0  0  0
  -28.2760  -12.4880   18.8870 C   0  0  0  0  0  2  0  0  0  0  0  0
  -27.5880  -13.5290   19.7770 C   0  0  0  0  0  3  0  0  0  0  0  0
  -28.5080  -14.2740   20.8210 C   0  0  0  0  0  2  0  0  0  0  0  0
  -29.5000  -15.2180   20.1180 N   0  0  0  0  0  0  0  0  0  0  0  0
  -31.1570  -16.5320   20.2130 O   0  0  0  0  0  0  0  0  0  0  0  0
  -29.1530  -18.4120   20.2340 N   0  0  0  0  0  2  0  0  0  0  0  0
  -28.1950  -18.0890   20.1650 H   0  0  0  0  0  0  0  0  0  0  0  0
  -25.2050  -13.9230   20.4820 C   0  0  0  0  0  0  0  0  0  0  0  0
  -24.1630  -13.1150   20.8300 C   0  0  0  0  0  0  0  0  0  0  0  0
  -24.6800  -11.7810   20.8360 C   0  0  0  0  0  0  0  0  0  0  0  0
  -26.2920  -13.0980   20.2950 N   0  0  0  0  0  0  0  0  0  0  0  0
  -25.9870  -11.7920   20.5580 N   0  0  0  0  0  0  0  0  0  0  0  0
  -23.9710  -10.5010   21.0310 C   0  0  0  0  0  0  0  0  0  0  0  0
  -24.3860   -9.5590   21.9980 C   0  0  0  0  0  3  0  0  0  0  0  0
  -23.6660   -8.3590   22.1880 C   0  0  0  0  0  3  0  0  0  0  0  0
  -22.5140   -8.0880   21.4120 C   0  0  0  0  0  0  0  0  0  0  0  0
  -22.1150   -9.0180   20.4350 C   0  0  0  0  0  3  0  0  0  0  0  0
  -22.8370  -10.2100   20.2440 C   0  0  0  0  0  3  0  0  0  0  0  0
  -21.7700   -6.9360   21.5070 O   0  0  0  0  0  0  0  0  0  0  0  0
  -21.7070   -6.2110   22.6710 C   0  0  0  0  0  0  0  0  0  0  0  0
  -21.2420   -6.7800   23.8770 C   0  0  0  0  0  3  0  0  0  0  0  0
  -21.1280   -5.9840   25.0340 C   0  0  0  0  0  3  0  0  0  0  0  0
  -21.4690   -4.6180   24.9870 C   0  0  0  0  0  0  0  0  0  0  0  0
  -21.9250   -4.0480   23.7850 C   0  0  0  0  0  3  0  0  0  0  0  0
  -22.0410   -4.8420   22.6310 C   0  0  0  0  0  0  0  0  0  0  0  0
  -22.4610   -4.2830   21.4700 F   0  0  0  0  0  0  0  0  0  0  0  0
  -21.3530   -3.8500   26.0950 F   0  0  0  0  0  0  0  0  0  0  0  0
  -22.7470  -13.5580   21.0370 C   0  0  0  0  0  0  0  0  0  0  0  0
  -22.0100  -12.8710   21.9000 N   0  0  0  0  0  0  0  0  0  0  0  0
  -22.3040  -14.5590   20.4730 O   0  0  0  0  0  0  0  0  0  0  0  0
  -22.3850  -12.0640   22.3780 H   0  0  0  0  0  0  0  0  0  0  0  0
  -21.0580  -13.1530   22.0860 H   0  0  0  0  0  0  0  0  0  0  0  0
  -25.3160  -15.2940   20.2690 N   0  0  0  0  0  0  0  0  0  0  0  0
  -24.5180  -15.9160   20.3290 H   0  0  0  0  0  0  0  0  0  0  0  0
  -26.1560  -15.7520   19.9410 H   0  0  0  0  0  0  0  0  0  0  0  0
  1  3  1  0
  2  5  1  0
  2  4  1  0
  3  6  1  0
  4  6  1  0
  5 48  1  0
  5  1  1  0
  7  9  1  0
  8 19  2  0
  9 14  1  0
 10 18  1  0
 10 20  1  0
 11 17  1  0
 11 13  1  0
 12 18  1  0
 13 12  1  0
 14 13  2  0
 15  9  2  0
 16 15  1  0
 16 11  2  0
 17 10  1  0
 18  8  1  0
 20 22  2  0
 21 20  1  0
 23 21  1  0
 24 33  2  0
 24 29  1  0
 25 21  1  0
 25 29  1  0
 26 25  1  0
 27 28  1  0
 27 26  1  0
 28 24  1  0
 29 30  2  0
 30 31  1  0
 32 31  2  0
 33 32  1  0
 34  8  1  0
 34 39  1  0
 34 35  1  0
 35 38  1  1
 35 36  1  0
 37 35  1  0
 39 42  1  0
 40 44  1  0
 40 39  1  0
 41 40  2  0
 44 43  1  0
 46 44  1  0
 46 47  1  0
 46 45  1  0
 48 50  1  0
 50 49  1  0
 50 55  1  0
 58 63  1  0
 59 60  1  0
 59 58  1  0
 61 60  1  0
 61 70  1  0
 61 62  1  0
 63 57  1  0
 63 62  1  0
 64 57  2  0
 65 57  1  0
 66 65  1  0
 67 68  2  0
 68 69  1  0
 68 87  1  0
 69 72  1  0
 70 67  1  0
 70 71  1  0
 71 69  2  0
 72 73  1  0
 73 74  2  0
 75 78  1  0
 75 74  1  0
 76 75  2  0
 77 76  1  0
 77 72  2  0
 78 79  1  0
 79 80  1  0
 80 81  2  0
 82 81  1  0
 82 86  1  0
 83 82  2  0
 84 79  2  0
 84 83  1  0
 85 84  1  0
 87 88  1  0
 88 91  1  0
 88 90  1  0
 89 87  2  0
 92 93  1  0
 92 67  1  0
 94 92  1  0
M  ISO  4   6 101   7 101  57 100  65 100
M  END
>  <TORSDO>  (33) 
F 19

>  <SCORE>  (33) 
-15.375

>  <name>  (33) 
33

>  <ligand_id>  (33) 
33

>  <original_smiles>  (33) 
[H]c1c([H])c([H])c2c(c1[H])C([H])([H])C([H])([H])C([H])([H])C2([H])N([H])C(=O)C1([H])N(C(=O)C([H])(N([H])C(=O)C([H])(N([H])C([H])([H])[H])C([H])([H])[H])C(C([H])([H])[H])(C([H])([H])[H])C([H])([H])[H])C([H])([H])c2c([H])c(OC3([H])C([H])([H])C([H])([H])C([H])(C([H])([H])C([H])(C([H])([H])[H])C4([H])C([H])([H])C([H])([H])C([H])(N([H])C(=O)N5C([H])([H])C([H])([H])C([H])([H])C([H])(n6nc(-c7c([H])c([H])c(Oc8c([H])c([H])c(F)c([H])c8F)c([H])c7[H])c(C(=O)N([H])[H])c6N([H])[H])C5([H])[H])C([H])([H])C4([H])[H])C([H])([H])C3([H])[H])c([H])c([H])c2C1([H])[H]

>  <smiles>  (33) 
[H]c1c([H])c([H])c2c(c1[H])C([H])([H])C([H])([H])C([H])([H])C2([H])N([H])C(=O)C1([H])N(C(=O)C([H])(N([H])C(=O)C([H])(N([H])C([H])([H])[H])C([H])([H])[H])C(C([H])([H])[H])(C([H])([H])[H])C([H])([H])[H])C([H])([H])c2c([H])c(OC3([H])C([H])([H])C([H])([H])C([H])(C([H])([H])C([H])(C([H])([H])[H])C4([H])C([H])([H])C([H])([H])C([H])(N([H])C(=O)N5C([H])([H])C([H])([H])C([H])([H])C([H])(n6nc(-c7c([H])c([H])c(Oc8c([H])c([H])c(F)c([H])c8F)c([H])c7[H])c(C(=O)N([H])[H])c6N([H])[H])C5([H])[H])C([H])([H])C4([H])[H])C([H])([H])C3([H])[H])c([H])c([H])c2C1([H])[H]

$$$$
34:0:0
     RDKit          3D

 97106  0  0  1  0  0  0  0  0999 V2000
  -29.3620  -21.5650   21.7360 C   0  0  0  0  0  3  0  0  0  0  0  0
  -28.4490  -23.1180   20.1050 C   0  0  0  0  0  3  0  0  0  0  0  0
  -28.8980  -20.4850   20.9650 C   0  0  0  0  0  0  0  0  0  0  0  0
  -28.2250  -20.7140   19.7460 C   0  0  0  0  0  0  0  0  0  0  0  0
  -27.9560  -22.0440   19.3170 C   0  0  0  0  0  0  0  0  0  0  0  0
  -29.1770  -22.8890   21.2990 C   0  0  0  0  0  0  0  0  0  0  0  0
  -29.1180  -19.0590   21.4460 C   0  0  0  0  0  2  0  0  0  0  0  0
  -27.8660  -19.4760   18.9280 C   0  0  0  0  0  2  0  0  0  0  0  0
  -29.0660  -18.5220   18.9090 C   0  0  0  0  0  2  0  0  0  0  0  0
  -29.4820  -18.0550   20.3210 C   0  0  0  0  0  3  0  0  0  0  0  0
  -27.2290  -23.7460   17.5020 C   0  0  0  0  0  1  0  0  0  0  0  0
  -25.6600  -21.9470   18.2370 C   0  0  0  0  0  1  0  0  0  0  0  0
  -27.1430  -22.3110   18.0380 C   0  0  0  0  0  3  0  0  0  0  0  0
  -30.9840  -17.7040   20.3650 C   0  0  0  0  0  2  0  0  0  0  0  0
  -31.3570  -16.7650   21.5270 C   0  0  0  0  0  2  0  0  0  0  0  0
  -31.2210  -14.5650   20.3980 C   0  0  0  0  0  0  0  0  0  0  0  0
  -30.8170  -12.4250   19.2490 C   0  0  0  0  0  2  0  0  0  0  0  0
  -29.8750  -12.6060   18.0440 C   0  0  0  0  0  2  0  0  0  0  0  0
  -28.4010  -12.5220   18.4790 C   0  0  0  0  0  2  0  0  0  0  0  0
  -28.0880  -13.4230   19.7040 C   0  0  0  0  0  3  0  0  0  0  0  0
  -29.1330  -13.2110   20.8230 C   0  0  0  0  0  2  0  0  0  0  0  0
  -30.4780  -13.4390   20.2600 N   0  0  0  0  0  0  0  0  0  0  0  0
  -32.2390  -14.7920   19.7350 O   0  0  0  0  0  0  0  0  0  0  0  0
  -30.7880  -15.4350   21.3180 N   0  0  0  0  0  0  0  0  0  0  0  0
  -29.9710  -15.1780   21.8530 H   0  0  0  0  0  0  0  0  0  0  0  0
  -25.7270  -14.1280   20.4580 C   0  0  0  0  0  0  0  0  0  0  0  0
  -24.6260  -13.3980   20.8180 C   0  0  0  0  0  0  0  0  0  0  0  0
  -25.0180  -12.0270   20.7380 C   0  0  0  0  0  0  0  0  0  0  0  0
  -26.7250  -13.2040   20.1880 N   0  0  0  0  0  0  0  0  0  0  0  0
  -26.3000  -11.9330   20.4110 N   0  0  0  0  0  0  0  0  0  0  0  0
  -24.2330  -10.7970   20.9010 C   0  0  0  0  0  0  0  0  0  0  0  0
  -24.6030   -9.8030   21.8350 C   0  0  0  0  0  3  0  0  0  0  0  0
  -23.8220   -8.6370   21.9870 C   0  0  0  0  0  3  0  0  0  0  0  0
  -22.6570   -8.4560   21.2050 C   0  0  0  0  0  0  0  0  0  0  0  0
  -22.3050   -9.4380   20.2620 C   0  0  0  0  0  3  0  0  0  0  0  0
  -23.0850  -10.5960   20.1080 C   0  0  0  0  0  3  0  0  0  0  0  0
  -21.8520   -7.3440   21.2660 O   0  0  0  0  0  0  0  0  0  0  0  0
  -21.7010   -6.6280   22.4250 C   0  0  0  0  0  0  0  0  0  0  0  0
  -21.2280   -7.2270   23.6150 C   0  0  0  0  0  3  0  0  0  0  0  0
  -21.0200   -6.4400   24.7650 C   0  0  0  0  0  3  0  0  0  0  0  0
  -21.2730   -5.0550   24.7260 C   0  0  0  0  0  0  0  0  0  0  0  0
  -21.7380   -4.4560   23.5430 C   0  0  0  0  0  3  0  0  0  0  0  0
  -21.9480   -5.2410   22.3950 C   0  0  0  0  0  0  0  0  0  0  0  0
  -22.3750   -4.6550   21.2500 F   0  0  0  0  0  0  0  0  0  0  0  0
  -21.0660   -4.2970   25.8290 F   0  0  0  0  0  0  0  0  0  0  0  0
  -23.2580  -13.9340   21.1280 C   0  0  0  0  0  0  0  0  0  0  0  0
  -22.5160  -13.2580   21.9970 N   0  0  0  0  0  0  0  0  0  0  0  0
  -22.8570  -14.9880   20.6340 O   0  0  0  0  0  0  0  0  0  0  0  0
  -22.8540  -12.4060   22.4190 H   0  0  0  0  0  0  0  0  0  0  0  0
  -21.5970  -13.5970   22.2440 H   0  0  0  0  0  0  0  0  0  0  0  0
  -25.9580  -15.4930   20.3190 N   0  0  0  0  0  0  0  0  0  0  0  0
  -25.2290  -16.1830   20.4610 H   0  0  0  0  0  0  0  0  0  0  0  0
  -26.8340  -15.8950   20.0120 H   0  0  0  0  0  0  0  0  0  0  0  0
  -29.7230  -23.8810   22.0860 O   0  0  0  0  0  0  0  0  0  0  0  0
  -30.0300  -25.1370   21.4840 C   0  0  0  0  0  2  0  0  0  0  0  0
  -28.8810  -26.1430   21.6400 C   0  0  0  0  0  2  0  0  0  0  0  0
  -28.6790  -26.8170   20.4040 O   0  0  0  0  0  0  0  0  0  0  0  0
  -24.6890  -31.9450   23.2950 C   0  0  0  0  0  0  0  0  0  0  0  0
  -27.5150  -27.5350   20.3780 C   0  0  0  0  0  0  0  0  0  0  0  0
  -23.5570  -30.4830   21.6490 C   0  0  0  0  0  3  0  0  0  0  0  0
  -25.0850  -28.9520   20.2970 C   0  0  0  0  0  0  0  0  0  0  0  0
  -26.0750  -30.9000   21.5150 C   0  0  0  0  0  2  0  0  0  0  0  0
  -26.2080  -29.5190   20.9140 C   0  0  0  0  0  0  0  0  0  0  0  0
  -27.4260  -28.8130   20.9660 C   0  0  0  0  0  3  0  0  0  0  0  0
  -26.3900  -26.9850   19.7370 C   0  0  0  0  0  3  0  0  0  0  0  0
  -25.1680  -27.6790   19.7060 C   0  0  0  0  0  3  0  0  0  0  0  0
  -23.8190  -29.7790   20.2900 C   0  0  0  0  0  2  0  0  0  0  0  0
  -24.7890  -31.1240   22.2110 N   0  0  0  0  0  0  0  0  0  0  0  0
  -23.5880  -32.2070   23.8000 O   0  0  0  0  0  0  0  0  0  0  0  0
  -22.9000  -29.4670   22.6100 C   0  0  0  0  0  0  0  0  0  0  0  0
  -21.5810  -29.2710   22.4590 N   0  0  0  0  0  0  0  0  0  0  0  0
  -23.5750  -28.8600   23.4460 O   0  0  0  0  0  0  0  0  0  0  0  0
  -21.1020  -29.8140   21.7550 H   0  0  0  0  0  0  0  0  0  0  0  0
  -18.1960  -28.1080   22.9550 C   0  0  0  0  0  0  0  0  0  0  0  0
  -20.7570  -28.3390   23.2270 C   0  0  0  0  0  3  0  0  0  0  0  0
  -20.8450  -26.9100   22.6440 C   0  0  0  0  0  2  0  0  0  0  0  0
  -19.7390  -26.6020   21.6300 C   0  0  0  0  0  2  0  0  0  0  0  0
  -18.3590  -26.7590   22.2750 C   0  0  0  0  0  2  0  0  0  0  0  0
  -19.3230  -28.8560   23.3880 C   0  0  0  0  0  0  0  0  0  0  0  0
  -19.1200  -30.1200   23.9820 C   0  0  0  0  0  3  0  0  0  0  0  0
  -17.8200  -30.6360   24.1500 C   0  0  0  0  0  3  0  0  0  0  0  0
  -16.7080  -29.8830   23.7350 C   0  0  0  0  0  3  0  0  0  0  0  0
  -16.8960  -28.6230   23.1420 C   0  0  0  0  0  3  0  0  0  0  0  0
  -25.9460  -32.6110   23.9370 C   0  0  0  0  0  3  0  0  0  0  0  0
  -25.6050  -34.0090   24.2240 N   0  0  0  0  0  0  0  0  0  0  0  0
  -25.9470  -35.0480   23.4510 C   0  0  0  0  0  0  0  0  0  0  0  0
  -26.6560  -34.9340   22.4480 O   0  0  0  0  0  0  0  0  0  0  0  0
  -24.9770  -34.1720   24.9980 H   0  0  0  0  0  0  0  0  0  0  0  0
  -24.2030  -36.8000   22.9960 C   0  0  0  0  0  1  0  0  0  0  0  0
  -25.4210  -36.4370   23.8580 C   0  0  0  0  0  3  0  0  0  0  0  0
  -27.5130  -37.3760   24.7360 C   0  0  0  0  0  1  0  0  0  0  0  0
  -26.4400  -37.5040   23.7540 N   0  0  0  0  0  0  0  0  0  0  0  0
  -26.0150  -38.4200   23.8680 H   0  0  0  0  0  0  0  0  0  0  0  0
  -26.4440  -31.8740   25.2400 C   0  0  1  0  0  0  0  0  0  0  0  0
  -25.3200  -31.6030   26.2670 C   0  0  0  0  0  1  0  0  0  0  0  0
  -27.0980  -30.5180   24.8850 C   0  0  0  0  0  1  0  0  0  0  0  0
  -27.5350  -32.7220   25.9360 C   0  0  0  0  0  1  0  0  0  0  0  0
  2  6  2  0
  3  7  1  0
  3  1  2  0
  4  3  1  0
  5  4  2  0
  5  2  1  0
  6  1  1  0
  6 54  1  0
  8  4  1  0
  9  8  1  0
  9 10  1  0
 10 14  1  0
 10  7  1  0
 11 13  1  0
 13 12  1  0
 13  5  1  0
 14 15  1  0
 16 24  1  0
 17 22  1  0
 18 19  1  0
 18 17  1  0
 20 19  1  0
 20 29  1  0
 20 21  1  0
 22 16  1  0
 22 21  1  0
 23 16  2  0
 24 15  1  0
 24 25  1  0
 26 27  2  0
 27 46  1  0
 28 27  1  0
 28 31  1  0
 29 30  1  0
 29 26  1  0
 30 28  2  0
 31 32  1  0
 32 33  2  0
 34 37  1  0
 34 33  1  0
 35 34  2  0
 36 35  1  0
 36 31  2  0
 37 38  1  0
 38 39  1  0
 39 40  2  0
 41 40  1  0
 41 45  1  0
 42 41  2  0
 43 38  2  0
 43 42  1  0
 44 43  1  0
 46 47  1  0
 47 50  1  0
 47 49  1  0
 48 46  2  0
 51 26  1  0
 51 52  1  0
 53 51  1  0
 55 56  1  0
 55 54  1  0
 57 56  1  0
 58 69  2  0
 59 57  1  0
 59 64  1  0
 60 68  1  0
 60 70  1  0
 61 63  1  0
 62 68  1  0
 63 64  2  0
 63 62  1  0
 65 59  2  0
 66 65  1  0
 66 61  2  0
 67 61  1  0
 67 60  1  0
 68 58  1  0
 70 72  2  0
 71 70  1  0
 73 71  1  0
 74 83  2  0
 74 79  1  0
 75 71  1  0
 75 79  1  0
 76 75  1  0
 77 78  1  0
 77 76  1  0
 78 74  1  0
 79 80  2  0
 80 81  1  0
 82 81  2  0
 83 82  1  0
 84 58  1  0
 84 85  1  0
 84 94  1  0
 85 88  1  0
 86 90  1  0
 86 85  1  0
 87 86  2  0
 90 89  1  0
 92 90  1  0
 92 93  1  0
 92 91  1  0
 94 97  1  1
 94 95  1  0
 96 94  1  0
M  ISO  4  16 100  24 100  56 101  57 101
M  END
>  <TORSDO>  (34) 
F 22

>  <SCORE>  (34) 
-12.801

>  <name>  (34) 
34

>  <ligand_id>  (34) 
34

>  <original_smiles>  (34) 
[H]c1c([H])c([H])c2c(c1[H])C([H])([H])C([H])([H])C([H])([H])C2([H])N([H])C(=O)C1([H])N(C(=O)C([H])(N([H])C(=O)C([H])(N([H])C([H])([H])[H])C([H])([H])[H])C(C([H])([H])[H])(C([H])([H])[H])C([H])([H])[H])C([H])([H])c2c([H])c(OC([H])([H])C([H])([H])Oc3c([H])c4c(c(C([H])(C([H])([H])[H])C([H])([H])[H])c3[H])C([H])([H])C([H])([H])C([H])(C([H])([H])C([H])([H])N([H])C(=O)N3C([H])([H])C([H])([H])C([H])([H])C([H])(n5nc(-c6c([H])c([H])c(Oc7c([H])c([H])c(F)c([H])c7F)c([H])c6[H])c(C(=O)N([H])[H])c5N([H])[H])C3([H])[H])C4([H])[H])c([H])c([H])c2C1([H])[H]

>  <smiles>  (34) 
[H]c1c([H])c([H])c2c(c1[H])C([H])([H])C([H])([H])C([H])([H])C2([H])N([H])C(=O)C1([H])N(C(=O)C([H])(N([H])C(=O)C([H])(N([H])C([H])([H])[H])C([H])([H])[H])C(C([H])([H])[H])(C([H])([H])[H])C([H])([H])[H])C([H])([H])c2c([H])c(OC([H])([H])C([H])([H])Oc3c([H])c4c(c(C([H])(C([H])([H])[H])C([H])([H])[H])c3[H])C([H])([H])C([H])([H])C([H])(C([H])([H])C([H])([H])N([H])C(=O)N3C([H])([H])C([H])([H])C([H])([H])C([H])(n5nc(-c6c([H])c([H])c(Oc7c([H])c([H])c(F)c([H])c7F)c([H])c6[H])c(C(=O)N([H])[H])c5N([H])[H])C3([H])[H])C4([H])[H])c([H])c([H])c2C1([H])[H]

$$$$
35:0:0
     RDKit          3D

 99109  0  0  1  0  0  0  0  0999 V2000
  -27.7650  -21.4550   20.3210 C   0  0  0  0  0  2  0  0  0  0  0  0
  -28.4660  -21.4120   17.9150 C   0  0  0  0  0  2  0  0  0  0  0  0
  -29.2860  -21.7350   20.5380 C   0  0  0  0  0  3  0  0  0  0  0  0
  -30.1810  -20.6170   19.6240 C   0  0  0  0  0  3  0  0  0  0  0  0
  -29.4770  -20.3170   18.2750 C   0  0  0  0  0  3  0  0  0  0  0  0
  -27.3630  -21.2830   18.8940 N   0  0  2  0  0  4  0  0  0  0  0  0
  -27.2040  -20.2850   18.8290 H   0  0  0  0  0  0  0  0  0  0  0  0
  -29.6440  -23.5900   22.3130 C   0  0  0  0  0  1  0  0  0  0  0  0
  -29.5640  -23.4240   20.7780 C   0  0  0  0  0  3  0  0  0  0  0  0
  -28.6180  -24.7500   20.3050 C   0  0  0  0  0  2  0  0  0  0  0  0
  -28.8730  -26.2750   20.5930 O   0  0  0  0  0  0  0  0  0  0  0  0
  -25.0720  -31.9260   23.4660 C   0  0  0  0  0  0  0  0  0  0  0  0
  -27.8250  -27.2670   20.4880 C   0  0  0  0  0  0  0  0  0  0  0  0
  -23.9580  -30.5220   21.7740 C   0  0  0  0  0  3  0  0  0  0  0  0
  -25.4860  -28.9900   20.3810 C   0  0  0  0  0  0  0  0  0  0  0  0
  -26.5140  -30.8330   21.7050 C   0  0  0  0  0  2  0  0  0  0  0  0
  -26.6350  -29.4460   21.0400 C   0  0  0  0  0  0  0  0  0  0  0  0
  -27.8110  -28.6020   21.0700 C   0  0  0  0  0  3  0  0  0  0  0  0
  -26.6480  -26.9160   19.7950 C   0  0  0  0  0  3  0  0  0  0  0  0
  -25.5070  -27.7420   19.7450 C   0  0  0  0  0  3  0  0  0  0  0  0
  -24.2410  -29.8640   20.3940 C   0  0  0  0  0  2  0  0  0  0  0  0
  -25.2010  -31.1170   22.3690 N   0  0  0  0  0  0  0  0  0  0  0  0
  -23.9610  -32.1880   23.9520 O   0  0  0  0  0  0  0  0  0  0  0  0
  -23.2710  -29.4920   22.7050 C   0  0  0  0  0  0  0  0  0  0  0  0
  -21.9610  -29.2590   22.5030 N   0  0  0  0  0  0  0  0  0  0  0  0
  -23.9200  -28.9020   23.5750 O   0  0  0  0  0  0  0  0  0  0  0  0
  -21.4950  -29.7850   21.7780 H   0  0  0  0  0  0  0  0  0  0  0  0
  -18.6030  -27.9400   22.8510 C   0  0  0  0  0  0  0  0  0  0  0  0
  -21.1370  -28.2890   23.2320 C   0  0  0  0  0  3  0  0  0  0  0  0
  -21.3120  -26.8650   22.6570 C   0  0  0  0  0  2  0  0  0  0  0  0
  -20.2680  -26.5090   21.5930 C   0  0  0  0  0  2  0  0  0  0  0  0
  -18.8550  -26.6020   22.1770 C   0  0  0  0  0  2  0  0  0  0  0  0
  -19.6730  -28.7400   23.3310 C   0  0  0  0  0  0  0  0  0  0  0  0
  -19.3860  -29.9900   23.9200 C   0  0  0  0  0  3  0  0  0  0  0  0
  -18.0560  -30.4410   24.0370 C   0  0  0  0  0  3  0  0  0  0  0  0
  -16.9990  -29.6410   23.5690 C   0  0  0  0  0  3  0  0  0  0  0  0
  -17.2720  -28.3930   22.9830 C   0  0  0  0  0  3  0  0  0  0  0  0
  -26.3100  -32.5850   24.1440 C   0  0  0  0  0  3  0  0  0  0  0  0
  -25.9570  -33.9790   24.4610 N   0  0  0  0  0  0  0  0  0  0  0  0
  -26.2480  -35.0370   23.6930 C   0  0  0  0  0  0  0  0  0  0  0  0
  -26.9100  -34.9430   22.6540 O   0  0  0  0  0  0  0  0  0  0  0  0
  -25.3670  -34.1240   25.2680 H   0  0  0  0  0  0  0  0  0  0  0  0
  -24.4450  -36.7640   23.3750 C   0  0  0  0  0  1  0  0  0  0  0  0
  -25.7290  -36.4160   24.1470 C   0  0  0  0  0  3  0  0  0  0  0  0
  -27.8560  -37.3980   24.8850 C   0  0  0  0  0  1  0  0  0  0  0  0
  -26.7180  -37.5050   23.9750 N   0  0  0  0  0  0  0  0  0  0  0  0
  -26.2830  -38.4120   24.1160 H   0  0  0  0  0  0  0  0  0  0  0  0
  -26.7810  -31.8290   25.4460 C   0  0  1  0  0  0  0  0  0  0  0  0
  -25.6340  -31.5140   26.4350 C   0  0  0  0  0  1  0  0  0  0  0  0
  -27.4670  -30.4910   25.0890 C   0  0  0  0  0  1  0  0  0  0  0  0
  -27.8340  -32.6800   26.1920 C   0  0  0  0  0  1  0  0  0  0  0  0
  -28.7230  -18.2510   17.2870 C   0  0  0  0  0  1  0  0  0  0  0  0
  -28.7110  -19.1220   18.4170 O   0  0  0  0  0  0  0  0  0  0  0  0
  -31.0400  -19.2120   20.0540 C   0  0  0  0  0  2  0  0  0  0  0  0
  -29.3790  -18.0900   21.7740 C   0  0  0  0  0  2  0  0  0  0  0  0
  -30.7340  -17.9090   22.3590 C   0  0  0  0  0  2  0  0  0  0  0  0
  -30.5610  -17.8510   20.8460 C   0  0  2  0  0  0  0  0  0  0  0  0
  -31.4260  -15.2800   20.1100 C   0  0  0  0  0  0  0  0  0  0  0  0
  -31.2630  -12.9900   19.0060 C   0  0  0  0  0  2  0  0  0  0  0  0
  -30.2700  -13.0010   17.8190 C   0  0  0  0  0  2  0  0  0  0  0  0
  -28.8080  -12.8480   18.2840 C   0  0  0  0  0  2  0  0  0  0  0  0
  -28.4730  -13.7410   19.5010 C   0  0  0  0  0  3  0  0  0  0  0  0
  -29.5570  -13.6290   20.5860 C   0  0  0  0  0  2  0  0  0  0  0  0
  -30.8220  -14.0380   19.9650 N   0  0  0  0  0  0  0  0  0  0  0  0
  -32.6440  -15.3660   19.9260 O   0  0  0  0  0  0  0  0  0  0  0  0
  -30.5650  -16.4020   20.2750 N   0  0  0  0  0  0  0  0  0  0  0  0
  -29.6200  -16.0590   20.2170 H   0  0  0  0  0  0  0  0  0  0  0  0
  -26.1190  -14.4010   20.2920 C   0  0  0  0  0  0  0  0  0  0  0  0
  -25.0350  -13.6600   20.6560 C   0  0  0  0  0  0  0  0  0  0  0  0
  -25.4470  -12.2920   20.6020 C   0  0  0  0  0  0  0  0  0  0  0  0
  -27.1300  -13.4890   20.0170 N   0  0  0  0  0  0  0  0  0  0  0  0
  -26.7310  -12.2140   20.2630 N   0  0  0  0  0  0  0  0  0  0  0  0
  -24.6750  -11.0590   20.7930 C   0  0  0  0  0  0  0  0  0  0  0  0
  -25.0380  -10.1160   21.7750 C   0  0  0  0  0  3  0  0  0  0  0  0
  -24.2710   -8.9430   21.9600 C   0  0  0  0  0  3  0  0  0  0  0  0
  -23.1280   -8.7080   21.1570 C   0  0  0  0  0  0  0  0  0  0  0  0
  -22.7830   -9.6440   20.1660 C   0  0  0  0  0  3  0  0  0  0  0  0
  -23.5450  -10.8080   19.9830 C   0  0  0  0  0  3  0  0  0  0  0  0
  -22.3360   -7.5890   21.2420 O   0  0  0  0  0  0  0  0  0  0  0  0
  -22.1100   -6.9610   22.4410 C   0  0  0  0  0  0  0  0  0  0  0  0
  -21.5510   -7.6400   23.5460 C   0  0  0  0  0  3  0  0  0  0  0  0
  -21.2840   -6.9380   24.7390 C   0  0  0  0  0  3  0  0  0  0  0  0
  -21.5530   -5.5600   24.8190 C   0  0  0  0  0  0  0  0  0  0  0  0
  -22.0980   -4.8830   23.7160 C   0  0  0  0  0  3  0  0  0  0  0  0
  -22.3780   -5.5820   22.5290 C   0  0  0  0  0  0  0  0  0  0  0  0
  -22.8910   -4.9240   21.4620 F   0  0  0  0  0  0  0  0  0  0  0  0
  -21.2780   -4.8800   25.9600 F   0  0  0  0  0  0  0  0  0  0  0  0
  -23.6580  -14.1820   20.9480 C   0  0  0  0  0  0  0  0  0  0  0  0
  -22.9280  -13.5440   21.8550 N   0  0  0  0  0  0  0  0  0  0  0  0
  -23.2400  -15.2030   20.3980 O   0  0  0  0  0  0  0  0  0  0  0  0
  -23.2470  -12.7000   22.3100 H   0  0  0  0  0  0  0  0  0  0  0  0
  -22.0230  -13.9190   22.1020 H   0  0  0  0  0  0  0  0  0  0  0  0
  -26.3170  -15.7720   20.1650 N   0  0  0  0  0  0  0  0  0  0  0  0
  -25.5700  -16.4260   20.3710 H   0  0  0  0  0  0  0  0  0  0  0  0
  -27.1770  -16.2390   19.9200 H   0  0  0  0  0  0  0  0  0  0  0  0
  -26.0510  -21.8470   18.5080 C   0  0  0  0  0  2  0  0  0  0  0  0
  -24.6500  -19.9440   17.3180 C   0  0  0  0  0  2  0  0  0  0  0  0
  -24.0580  -21.2560   16.8690 C   0  0  0  0  0  2  0  0  0  0  0  0
  -25.5230  -21.1770   17.2450 C   0  0  0  0  0  3  0  0  0  0  0  0
  1  3  1  0
  2  5  1  0
  2  6  1  0
  3  9  1  0
  4 54  1  0
  4  3  1  0
  5 53  1  0
  5  4  1  0
  6  1  1  0
  6  7  1  1
  9  8  1  0
 10 11  1  0
 10  9  1  0
 12 23  2  0
 13 11  1  0
 13 18  1  0
 14 22  1  0
 14 24  1  0
 15 21  1  0
 15 17  1  0
 16 22  1  0
 17 18  2  0
 17 16  1  0
 19 13  2  0
 20 19  1  0
 20 15  2  0
 21 14  1  0
 22 12  1  0
 24 26  2  0
 25 24  1  0
 27 25  1  0
 28 37  2  0
 28 33  1  0
 29 25  1  0
 29 33  1  0
 30 29  1  0
 31 32  1  0
 31 30  1  0
 32 28  1  0
 33 34  2  0
 34 35  1  0
 36 35  2  0
 37 36  1  0
 38 12  1  0
 38 39  1  0
 38 48  1  0
 39 42  1  0
 40 44  1  0
 40 39  1  0
 41 40  2  0
 44 43  1  0
 46 47  1  0
 46 44  1  0
 46 45  1  0
 48 51  1  1
 48 49  1  0
 50 48  1  0
 52 53  1  0
 57 54  1  6
 55 56  1  0
 57 55  1  0
 57 56  1  0
 58 66  1  0
 59 64  1  0
 60 61  1  0
 60 59  1  0
 62 61  1  0
 62 71  1  0
 62 63  1  0
 64 58  1  0
 64 63  1  0
 65 58  2  0
 66 57  1  0
 67 66  1  0
 68 69  2  0
 69 88  1  0
 70 69  1  0
 70 73  1  0
 71 72  1  0
 71 68  1  0
 72 70  2  0
 73 74  1  0
 74 75  2  0
 76 79  1  0
 76 75  1  0
 77 76  2  0
 78 77  1  0
 78 73  2  0
 79 80  1  0
 80 85  2  0
 80 81  1  0
 81 82  2  0
 82 83  1  0
 83 87  1  0
 84 83  2  0
 85 84  1  0
 86 85  1  0
 88 89  1  0
 89 92  1  0
 89 91  1  0
 90 88  2  0
 93 68  1  0
 93 94  1  0
 95 93  1  0
 96  6  1  0
 98 99  1  0
 98 97  1  0
 99 97  1  0
 99 96  1  0
M  ISO  4  10 101  11 101  58 100  66 100
M  END
>  <TORSDO>  (35) 
F 23

>  <SCORE>  (35) 
-11.555

>  <name>  (35) 
35

>  <ligand_id>  (35) 
35

>  <original_smiles>  (35) 
[H]c1c([H])c([H])c2c(c1[H])C([H])([H])C([H])([H])C([H])([H])C2([H])N([H])C(=O)C1([H])N(C(=O)C([H])(N([H])C(=O)C([H])(N([H])C([H])([H])[H])C([H])([H])[H])C(C([H])([H])[H])(C([H])([H])[H])C([H])([H])[H])C([H])([H])c2c([H])c(OC([H])([H])C([H])(C([H])([H])[H])C3([H])C([H])(C([H])([H])C4(N([H])C(=O)N5C([H])([H])C([H])([H])C([H])([H])C([H])(n6nc(-c7c([H])c([H])c(Oc8c([H])c([H])c(F)c([H])c8F)c([H])c7[H])c(C(=O)N([H])[H])c6N([H])[H])C5([H])[H])C([H])([H])C4([H])[H])C([H])(OC([H])([H])[H])C([H])([H])[N+]([H])(C([H])([H])C4([H])C([H])([H])C4([H])[H])C3([H])[H])c([H])c([H])c2C1([H])[H]

>  <smiles>  (35) 
[H]c1c([H])c([H])c2c(c1[H])C([H])([H])C([H])([H])C([H])([H])C2([H])N([H])C(=O)C1([H])N(C(=O)C([H])(N([H])C(=O)C([H])(N([H])C([H])([H])[H])C([H])([H])[H])C(C([H])([H])[H])(C([H])([H])[H])C([H])([H])[H])C([H])([H])c2c([H])c(OC([H])([H])C([H])(C([H])([H])[H])C3([H])C([H])(C([H])([H])C4(N([H])C(=O)N5C([H])([H])C([H])([H])C([H])([H])C([H])(n6nc(-c7c([H])c([H])c(Oc8c([H])c([H])c(F)c([H])c8F)c([H])c7[H])c(C(=O)N([H])[H])c6N([H])[H])C5([H])[H])C([H])([H])C4([H])[H])C([H])(OC([H])([H])[H])C([H])([H])[N+]([H])(C([H])([H])C4([H])C([H])([H])C4([H])[H])C3([H])[H])c([H])c([H])c2C1([H])[H]

$$$$
36:0:0
     RDKit          3D

 92102  0  0  1  0  0  0  0  0999 V2000
  -27.6420  -21.7710   19.7210 C   0  0  0  0  0  2  0  0  0  0  0  0
  -27.3170  -23.3290   19.4450 C   0  0  0  0  0  2  0  0  0  0  0  0
  -29.5940  -23.0980   19.8170 C   0  0  0  0  0  3  0  0  0  0  0  0
  -29.1450  -21.4560   20.0670 C   0  0  0  0  0  3  0  0  0  0  0  0
  -28.3820  -24.2950   20.0500 C   0  0  0  0  0  3  0  0  0  0  0  0
  -32.2440  -23.2500   20.0860 C   0  0  0  0  0  2  0  0  0  0  0  0
  -31.7090  -24.6510   20.2840 C   0  0  0  0  0  2  0  0  0  0  0  0
  -30.8430  -23.4560   20.6190 C   0  0  0  0  0  3  0  0  0  0  0  0
  -29.5870  -19.6730   18.0400 C   0  0  0  0  0  1  0  0  0  0  0  0
  -29.8230  -19.8560   19.5420 C   0  0  0  0  0  3  0  0  0  0  0  0
  -30.5540  -15.3140   19.6880 C   0  0  0  0  0  0  0  0  0  0  0  0
  -30.4340  -12.8850   18.7170 C   0  0  0  0  0  2  0  0  0  0  0  0
  -29.3890  -12.6680   17.5880 C   0  0  0  0  0  2  0  0  0  0  0  0
  -27.9830  -12.4000   18.1550 C   0  0  0  0  0  2  0  0  0  0  0  0
  -27.6560  -13.3250   19.3480 C   0  0  0  0  0  3  0  0  0  0  0  0
  -28.8130  -13.4110   20.3590 C   0  0  0  0  0  2  0  0  0  0  0  0
  -29.9790  -13.9940   19.6460 N   0  0  0  0  0  0  0  0  0  0  0  0
  -31.6870  -15.3400   19.1830 O   0  0  0  0  0  0  0  0  0  0  0  0
  -30.4390  -17.2990   22.4690 C   0  0  0  0  0  2  0  0  0  0  0  0
  -30.7750  -18.4520   21.5480 C   0  0  0  0  0  2  0  0  0  0  0  0
  -29.6260  -16.2990   21.6320 C   0  0  0  0  0  2  0  0  0  0  0  0
  -29.8270  -18.2620   20.3730 C   0  0  0  0  0  3  0  0  0  0  0  0
  -29.8730  -16.5580   20.1880 N   0  0  0  0  0  0  0  0  0  0  0  0
  -25.3800  -13.8700   20.3700 C   0  0  0  0  0  0  0  0  0  0  0  0
  -24.3510  -13.0870   20.8090 C   0  0  0  0  0  0  0  0  0  0  0  0
  -24.7940  -11.7340   20.6700 C   0  0  0  0  0  0  0  0  0  0  0  0
  -26.3810  -12.9990   19.9760 N   0  0  0  0  0  0  0  0  0  0  0  0
  -26.0450  -11.7040   20.2230 N   0  0  0  0  0  0  0  0  0  0  0  0
  -24.0710  -10.4730   20.8780 C   0  0  0  0  0  0  0  0  0  0  0  0
  -24.5310   -9.4990   21.7930 C   0  0  0  0  0  3  0  0  0  0  0  0
  -23.8040   -8.3050   21.9910 C   0  0  0  0  0  3  0  0  0  0  0  0
  -22.6050   -8.0730   21.2740 C   0  0  0  0  0  0  0  0  0  0  0  0
  -22.1660   -9.0350   20.3480 C   0  0  0  0  0  3  0  0  0  0  0  0
  -22.8900  -10.2200   20.1500 C   0  0  0  0  0  3  0  0  0  0  0  0
  -21.8500   -6.9300   21.3800 O   0  0  0  0  0  0  0  0  0  0  0  0
  -21.7690   -6.2310   22.5590 C   0  0  0  0  0  0  0  0  0  0  0  0
  -21.3080   -6.8300   23.7520 C   0  0  0  0  0  3  0  0  0  0  0  0
  -21.1710   -6.0550   24.9220 C   0  0  0  0  0  3  0  0  0  0  0  0
  -21.4870   -4.6840   24.9010 C   0  0  0  0  0  0  0  0  0  0  0  0
  -21.9410   -4.0840   23.7130 C   0  0  0  0  0  3  0  0  0  0  0  0
  -22.0770   -4.8570   22.5450 C   0  0  0  0  0  0  0  0  0  0  0  0
  -22.4930   -4.2680   21.3980 F   0  0  0  0  0  0  0  0  0  0  0  0
  -21.3490   -3.9390   26.0230 F   0  0  0  0  0  0  0  0  0  0  0  0
  -22.9970  -13.5650   21.2390 C   0  0  0  0  0  0  0  0  0  0  0  0
  -22.3550  -12.8620   22.1660 N   0  0  0  0  0  0  0  0  0  0  0  0
  -22.5170  -14.6050   20.7860 O   0  0  0  0  0  0  0  0  0  0  0  0
  -22.7500  -12.0220   22.5620 H   0  0  0  0  0  0  0  0  0  0  0  0
  -21.4510  -13.1770   22.4890 H   0  0  0  0  0  0  0  0  0  0  0  0
  -25.5340  -15.2490   20.2460 N   0  0  0  0  0  0  0  0  0  0  0  0
  -24.7810  -15.8850   20.4900 H   0  0  0  0  0  0  0  0  0  0  0  0
  -26.3340  -15.7160   19.8390 H   0  0  0  0  0  0  0  0  0  0  0  0
  -28.3900  -25.9280   19.7810 O   0  0  0  0  0  0  0  0  0  0  0  0
  -24.6650  -31.6860   22.9670 C   0  0  0  0  0  0  0  0  0  0  0  0
  -27.2980  -26.9430   19.8230 C   0  0  0  0  0  0  0  0  0  0  0  0
  -23.4710  -30.2910   21.3240 C   0  0  0  0  0  3  0  0  0  0  0  0
  -24.9310  -28.7450   19.8520 C   0  0  0  0  0  0  0  0  0  0  0  0
  -26.0280  -30.5770   21.1300 C   0  0  0  0  0  2  0  0  0  0  0  0
  -26.1210  -29.1800   20.4510 C   0  0  0  0  0  0  0  0  0  0  0  0
  -27.2930  -28.3020   20.4060 C   0  0  0  0  0  3  0  0  0  0  0  0
  -26.0680  -26.6520   19.1860 C   0  0  0  0  0  3  0  0  0  0  0  0
  -24.9310  -27.5010   19.1980 C   0  0  0  0  0  3  0  0  0  0  0  0
  -23.6850  -29.6270   19.9350 C   0  0  0  0  0  2  0  0  0  0  0  0
  -24.7430  -30.8790   21.8610 N   0  0  0  0  0  0  0  0  0  0  0  0
  -23.5790  -31.9410   23.5140 O   0  0  0  0  0  0  0  0  0  0  0  0
  -22.8180  -29.2680   22.2880 C   0  0  0  0  0  0  0  0  0  0  0  0
  -21.4880  -29.0810   22.1900 N   0  0  0  0  0  0  0  0  0  0  0  0
  -23.5120  -28.6370   23.0890 O   0  0  0  0  0  0  0  0  0  0  0  0
  -20.9820  -29.6420   21.5170 H   0  0  0  0  0  0  0  0  0  0  0  0
  -18.1380  -27.7810   22.7140 C   0  0  0  0  0  0  0  0  0  0  0  0
  -20.6940  -28.1130   22.9550 C   0  0  0  0  0  3  0  0  0  0  0  0
  -20.8300  -26.6920   22.3590 C   0  0  0  0  0  2  0  0  0  0  0  0
  -19.7240  -26.3540   21.3540 C   0  0  0  0  0  2  0  0  0  0  0  0
  -18.3450  -26.4490   22.0120 C   0  0  0  0  0  2  0  0  0  0  0  0
  -19.2410  -28.5690   23.1420 C   0  0  0  0  0  0  0  0  0  0  0  0
  -18.9930  -29.8120   23.7610 C   0  0  0  0  0  3  0  0  0  0  0  0
  -17.6750  -30.2700   23.9590 C   0  0  0  0  0  3  0  0  0  0  0  0
  -16.5890  -29.4780   23.5490 C   0  0  0  0  0  3  0  0  0  0  0  0
  -16.8210  -28.2360   22.9330 C   0  0  0  0  0  3  0  0  0  0  0  0
  -25.9330  -32.3440   23.5950 C   0  0  0  0  0  3  0  0  0  0  0  0
  -25.5840  -33.7220   23.9860 N   0  0  0  0  0  0  0  0  0  0  0  0
  -25.8890  -34.8200   23.2850 C   0  0  0  0  0  0  0  0  0  0  0  0
  -26.5600  -34.7830   22.2500 O   0  0  0  0  0  0  0  0  0  0  0  0
  -24.9930  -33.8240   24.7980 H   0  0  0  0  0  0  0  0  0  0  0  0
  -24.1230  -36.6010   23.0330 C   0  0  0  0  0  1  0  0  0  0  0  0
  -25.3750  -36.1750   23.8160 C   0  0  0  0  0  3  0  0  0  0  0  0
  -27.4920  -37.0670   24.6890 C   0  0  0  0  0  1  0  0  0  0  0  0
  -26.3830  -37.2570   23.7560 N   0  0  0  0  0  0  0  0  0  0  0  0
  -25.9540  -38.1570   23.9510 H   0  0  0  0  0  0  0  0  0  0  0  0
  -26.4890  -31.5520   24.8430 C   0  0  1  0  0  0  0  0  0  0  0  0
  -25.4190  -31.2640   25.9220 C   0  0  0  0  0  1  0  0  0  0  0  0
  -27.0960  -30.2000   24.4090 C   0  0  0  0  0  1  0  0  0  0  0  0
  -27.6330  -32.3560   25.5040 C   0  0  0  0  0  1  0  0  0  0  0  0
  1  4  1  0
  2  1  1  0
  2  5  1  0
  3  5  1  0
  3  4  1  0
  3  8  1  0
  4 10  1  0
  5 52  1  0
  6  7  1  0
  6  8  1  0
  7  8  1  0
 10  9  1  0
 11 23  1  0
 12 17  1  0
 13 14  1  0
 13 12  1  0
 15 14  1  0
 15 27  1  0
 15 16  1  0
 17 11  1  0
 17 16  1  0
 18 11  2  0
 20 19  1  0
 21 19  1  0
 22 10  1  0
 22 20  1  0
 23 22  1  0
 23 21  1  0
 24 25  2  0
 25 44  1  0
 26 25  1  0
 26 29  1  0
 27 28  1  0
 27 24  1  0
 28 26  2  0
 29 30  1  0
 30 31  2  0
 32 35  1  0
 32 31  1  0
 33 32  2  0
 34 33  1  0
 34 29  2  0
 35 36  1  0
 36 37  1  0
 37 38  2  0
 39 38  1  0
 39 43  1  0
 40 39  2  0
 41 36  2  0
 41 40  1  0
 42 41  1  0
 44 45  1  0
 45 48  1  0
 45 47  1  0
 46 44  2  0
 49 24  1  0
 49 50  1  0
 51 49  1  0
 52 54  1  0
 53 64  2  0
 54 59  1  0
 55 63  1  0
 55 65  1  0
 56 62  1  0
 56 58  1  0
 57 63  1  0
 58 57  1  0
 59 58  2  0
 60 61  1  0
 60 54  2  0
 61 56  2  0
 62 55  1  0
 63 53  1  0
 65 67  2  0
 66 65  1  0
 68 66  1  0
 69 78  2  0
 69 74  1  0
 70 66  1  0
 70 74  1  0
 71 70  1  0
 72 73  1  0
 72 71  1  0
 73 69  1  0
 74 75  2  0
 75 76  1  0
 77 76  2  0
 78 77  1  0
 79 53  1  0
 79 80  1  0
 79 89  1  0
 80 83  1  0
 81 85  1  0
 81 80  1  0
 82 81  2  0
 85 84  1  0
 87 85  1  0
 87 88  1  0
 87 86  1  0
 89 92  1  1
 89 90  1  0
 91 89  1  0
M  ISO  4   5 101  11 100  23 100  52 101
M  END
>  <TORSDO>  (36) 
F 18

>  <SCORE>  (36) 
-15.639

>  <name>  (36) 
36

>  <ligand_id>  (36) 
36

>  <original_smiles>  (36) 
[H]c1c([H])c([H])c2c(c1[H])C([H])([H])C([H])([H])C([H])([H])C2([H])N([H])C(=O)C1([H])N(C(=O)C([H])(N([H])C(=O)C([H])(N([H])C([H])([H])[H])C([H])([H])[H])C(C([H])([H])[H])(C([H])([H])[H])C([H])([H])[H])C([H])([H])c2c([H])c(OC3([H])C([H])([H])C([H])([H])C([H])(C([H])(C([H])([H])[H])C4([H])N(C(=O)N5C([H])([H])C([H])([H])C([H])([H])C([H])(n6nc(-c7c([H])c([H])c(Oc8c([H])c([H])c(F)c([H])c8F)c([H])c7[H])c(C(=O)N([H])[H])c6N([H])[H])C5([H])[H])C([H])([H])C([H])([H])C4([H])[H])C3([H])C3([H])C([H])([H])C3([H])[H])c([H])c([H])c2C1([H])[H]

>  <smiles>  (36) 
[H]c1c([H])c([H])c2c(c1[H])C([H])([H])C([H])([H])C([H])([H])C2([H])N([H])C(=O)C1([H])N(C(=O)C([H])(N([H])C(=O)C([H])(N([H])C([H])([H])[H])C([H])([H])[H])C(C([H])([H])[H])(C([H])([H])[H])C([H])([H])[H])C([H])([H])c2c([H])c(OC3([H])C([H])([H])C([H])([H])C([H])(C([H])(C([H])([H])[H])C4([H])N(C(=O)N5C([H])([H])C([H])([H])C([H])([H])C([H])(n6nc(-c7c([H])c([H])c(Oc8c([H])c([H])c(F)c([H])c8F)c([H])c7[H])c(C(=O)N([H])[H])c6N([H])[H])C5([H])[H])C([H])([H])C([H])([H])C4([H])[H])C3([H])C3([H])C([H])([H])C3([H])[H])c([H])c([H])c2C1([H])[H]

$$$$
37:0:0
     RDKit          3D

 95105  0  0  1  0  0  0  0  0999 V2000
  -29.8330  -21.4820   17.3450 C   0  0  0  0  0  3  0  0  0  0  0  0
  -29.4240  -20.8300   20.0220 C   0  0  0  0  0  3  0  0  0  0  0  0
  -29.6710  -20.1320   17.7030 C   0  0  0  0  0  0  0  0  0  0  0  0
  -29.5610  -19.7600   19.0760 C   0  0  0  0  0  0  0  0  0  0  0  0
  -29.7860  -22.5150   18.2930 C   0  0  0  0  0  0  0  0  0  0  0  0
  -29.4690  -22.2150   19.6420 C   0  0  0  0  0  0  0  0  0  0  0  0
  -30.1430  -23.9120   17.8060 C   0  0  0  0  0  1  0  0  0  0  0  0
  -29.0100  -19.4970   15.2390 C   0  0  0  0  0  2  0  0  0  0  0  0
  -28.3600  -18.4680   16.1270 C   0  0  0  0  0  2  0  0  0  0  0  0
  -29.6410  -19.1400   16.5670 C   0  0  0  0  0  3  0  0  0  0  0  0
  -30.7480  -17.5100   18.9160 C   0  0  0  0  0  2  0  0  0  0  0  0
  -29.5180  -18.2460   19.4170 C   0  0  0  0  0  3  0  0  0  0  0  0
  -30.3780  -17.3190   20.3460 C   0  0  0  0  0  3  0  0  0  0  0  0
  -30.8110  -14.8430   20.4960 C   0  0  0  0  0  0  0  0  0  0  0  0
  -30.5830  -12.6480   19.4000 C   0  0  0  0  0  2  0  0  0  0  0  0
  -29.6630  -12.8260   18.1730 C   0  0  0  0  0  2  0  0  0  0  0  0
  -28.1850  -12.6630   18.5750 C   0  0  0  0  0  2  0  0  0  0  0  0
  -27.8070  -13.4980   19.8280 C   0  0  0  0  0  3  0  0  0  0  0  0
  -28.8490  -13.3250   20.9580 C   0  0  0  0  0  2  0  0  0  0  0  0
  -30.1710  -13.6450   20.4010 N   0  0  0  0  0  0  0  0  0  0  0  0
  -31.9960  -14.9780   20.1780 O   0  0  0  0  0  0  0  0  0  0  0  0
  -30.0170  -15.9360   20.6620 N   0  0  0  0  0  0  0  0  0  0  0  0
  -29.0540  -15.7580   20.9040 H   0  0  0  0  0  0  0  0  0  0  0  0
  -25.3930  -14.0670   20.5020 C   0  0  0  0  0  0  0  0  0  0  0  0
  -24.3310  -13.2790   20.8530 C   0  0  0  0  0  0  0  0  0  0  0  0
  -24.8120  -11.9340   20.8320 C   0  0  0  0  0  0  0  0  0  0  0  0
  -26.4540  -13.2010   20.2880 N   0  0  0  0  0  0  0  0  0  0  0  0
  -26.1070  -11.9130   20.5470 N   0  0  0  0  0  0  0  0  0  0  0  0
  -24.1000  -10.6620   21.0080 C   0  0  0  0  0  0  0  0  0  0  0  0
  -24.4980   -9.7220   21.9840 C   0  0  0  0  0  3  0  0  0  0  0  0
  -23.7870   -8.5140   22.1470 C   0  0  0  0  0  3  0  0  0  0  0  0
  -22.6620   -8.2380   21.3330 C   0  0  0  0  0  0  0  0  0  0  0  0
  -22.2840   -9.1660   20.3470 C   0  0  0  0  0  3  0  0  0  0  0  0
  -22.9960  -10.3660   20.1830 C   0  0  0  0  0  3  0  0  0  0  0  0
  -21.9250   -7.0800   21.4030 O   0  0  0  0  0  0  0  0  0  0  0  0
  -21.7930   -6.3810   22.5760 C   0  0  0  0  0  0  0  0  0  0  0  0
  -21.1930   -6.9510   23.7200 C   0  0  0  0  0  3  0  0  0  0  0  0
  -21.0140   -6.1740   24.8830 C   0  0  0  0  0  3  0  0  0  0  0  0
  -21.4250   -4.8270   24.9010 C   0  0  0  0  0  0  0  0  0  0  0  0
  -22.0170   -4.2570   23.7600 C   0  0  0  0  0  3  0  0  0  0  0  0
  -22.1980   -5.0300   22.6000 C   0  0  0  0  0  0  0  0  0  0  0  0
  -22.7490   -4.4700   21.4970 F   0  0  0  0  0  0  0  0  0  0  0  0
  -21.2470   -4.0790   26.0140 F   0  0  0  0  0  0  0  0  0  0  0  0
  -22.9220  -13.7370   21.0990 C   0  0  0  0  0  0  0  0  0  0  0  0
  -22.1850  -13.0240   21.9420 N   0  0  0  0  0  0  0  0  0  0  0  0
  -22.4820  -14.7610   20.5770 O   0  0  0  0  0  0  0  0  0  0  0  0
  -22.5520  -12.1940   22.3850 H   0  0  0  0  0  0  0  0  0  0  0  0
  -21.2380  -13.3110   22.1500 H   0  0  0  0  0  0  0  0  0  0  0  0
  -25.5400  -15.4390   20.3250 N   0  0  0  0  0  0  0  0  0  0  0  0
  -24.7590  -16.0790   20.4150 H   0  0  0  0  0  0  0  0  0  0  0  0
  -26.3790  -15.8900   19.9820 H   0  0  0  0  0  0  0  0  0  0  0  0
  -29.2980  -23.2210   20.5950 O   0  0  0  0  0  0  0  0  0  0  0  0
  -28.3200  -24.2820   20.3670 C   0  0  0  0  0  2  0  0  0  0  0  0
  -28.6330  -25.6100   21.1400 C   0  0  0  0  0  2  0  0  0  0  0  0
  -28.6250  -26.8660   20.4070 O   0  0  0  0  0  0  0  0  0  0  0  0
  -24.5820  -31.9940   23.3650 C   0  0  0  0  0  0  0  0  0  0  0  0
  -27.4450  -27.5890   20.3970 C   0  0  0  0  0  0  0  0  0  0  0  0
  -23.4720  -30.5550   21.6890 C   0  0  0  0  0  3  0  0  0  0  0  0
  -25.0150  -29.0510   20.3180 C   0  0  0  0  0  0  0  0  0  0  0  0
  -25.9940  -30.9800   21.5720 C   0  0  0  0  0  2  0  0  0  0  0  0
  -26.1410  -29.6070   20.9390 C   0  0  0  0  0  0  0  0  0  0  0  0
  -27.3630  -28.8860   20.9660 C   0  0  0  0  0  3  0  0  0  0  0  0
  -26.3010  -27.0530   19.7730 C   0  0  0  0  0  3  0  0  0  0  0  0
  -25.0920  -27.7760   19.7290 C   0  0  0  0  0  3  0  0  0  0  0  0
  -23.7470  -29.8770   20.3190 C   0  0  0  0  0  2  0  0  0  0  0  0
  -24.6980  -31.1940   22.2670 N   0  0  0  0  0  0  0  0  0  0  0  0
  -23.4760  -32.2340   23.8700 O   0  0  0  0  0  0  0  0  0  0  0  0
  -22.8180  -29.5190   22.6330 C   0  0  0  0  0  0  0  0  0  0  0  0
  -21.5110  -29.2750   22.4420 N   0  0  0  0  0  0  0  0  0  0  0  0
  -23.4860  -28.9360   23.4900 O   0  0  0  0  0  0  0  0  0  0  0  0
  -21.0320  -29.7990   21.7220 H   0  0  0  0  0  0  0  0  0  0  0  0
  -18.1770  -27.9190   22.7760 C   0  0  0  0  0  0  0  0  0  0  0  0
  -20.6990  -28.3090   23.1840 C   0  0  0  0  0  3  0  0  0  0  0  0
  -20.9050  -26.8770   22.6400 C   0  0  0  0  0  2  0  0  0  0  0  0
  -19.8790  -26.4840   21.5730 C   0  0  0  0  0  2  0  0  0  0  0  0
  -18.4570  -26.5700   22.1360 C   0  0  0  0  0  2  0  0  0  0  0  0
  -19.2310  -28.7420   23.2530 C   0  0  0  0  0  0  0  0  0  0  0  0
  -18.9170  -30.0020   23.8080 C   0  0  0  0  0  3  0  0  0  0  0  0
  -17.5820  -30.4400   23.8930 C   0  0  0  0  0  3  0  0  0  0  0  0
  -16.5420  -29.6140   23.4330 C   0  0  0  0  0  3  0  0  0  0  0  0
  -16.8390  -28.3550   22.8810 C   0  0  0  0  0  3  0  0  0  0  0  0
  -25.8280  -32.6650   24.0260 C   0  0  0  0  0  3  0  0  0  0  0  0
  -25.4910  -34.0720   24.2820 N   0  0  0  0  0  0  0  0  0  0  0  0
  -25.8540  -35.0970   23.5000 C   0  0  0  0  0  0  0  0  0  0  0  0
  -26.5790  -34.9580   22.5100 O   0  0  0  0  0  0  0  0  0  0  0  0
  -24.8530  -34.2520   25.0440 H   0  0  0  0  0  0  0  0  0  0  0  0
  -24.1440  -36.8630   22.9680 C   0  0  0  0  0  1  0  0  0  0  0  0
  -25.3310  -36.4970   23.8730 C   0  0  0  0  0  3  0  0  0  0  0  0
  -27.3930  -37.4360   24.8200 C   0  0  0  0  0  1  0  0  0  0  0  0
  -26.3650  -37.5520   23.7900 N   0  0  0  0  0  0  0  0  0  0  0  0
  -25.9440  -38.4750   23.8640 H   0  0  0  0  0  0  0  0  0  0  0  0
  -26.2860  -31.9500   25.3560 C   0  0  1  0  0  0  0  0  0  0  0  0
  -25.1390  -31.7250   26.3690 C   0  0  0  0  0  1  0  0  0  0  0  0
  -26.9180  -30.5740   25.0460 C   0  0  0  0  0  1  0  0  0  0  0  0
  -27.3820  -32.7920   26.0530 C   0  0  0  0  0  1  0  0  0  0  0  0
  1  3  2  0
  1  5  1  0
  3  4  1  0
  4  2  2  0
  5  6  2  0
  6  2  1  0
  6 52  1  0
  7  5  1  0
  8  9  1  0
  8 10  1  0
  9 10  1  0
 10  3  1  0
 11 12  1  0
 11 13  1  0
 12  4  1  0
 12 13  1  0
 13 22  1  0
 14 22  1  0
 15 20  1  0
 16 17  1  0
 16 15  1  0
 18 17  1  0
 18 27  1  0
 18 19  1  0
 20 14  1  0
 20 19  1  0
 21 14  2  0
 22 23  1  0
 24 25  2  0
 25 44  1  0
 26 25  1  0
 26 29  1  0
 27 24  1  0
 27 28  1  0
 28 26  2  0
 29 30  1  0
 30 31  2  0
 32 35  1  0
 32 31  1  0
 33 32  2  0
 34 33  1  0
 34 29  2  0
 35 36  1  0
 36 41  2  0
 36 37  1  0
 37 38  2  0
 38 39  1  0
 39 43  1  0
 40 39  2  0
 41 40  1  0
 42 41  1  0
 44 45  1  0
 45 48  1  0
 45 47  1  0
 46 44  2  0
 49 50  1  0
 49 24  1  0
 51 49  1  0
 53 52  1  0
 53 54  1  0
 55 54  1  0
 56 67  2  0
 57 55  1  0
 57 62  1  0
 58 66  1  0
 58 68  1  0
 59 65  1  0
 59 61  1  0
 60 66  1  0
 61 62  2  0
 61 60  1  0
 63 57  2  0
 64 63  1  0
 64 59  2  0
 65 58  1  0
 66 56  1  0
 68 70  2  0
 69 68  1  0
 71 69  1  0
 72 81  2  0
 72 77  1  0
 73 69  1  0
 73 77  1  0
 74 73  1  0
 75 76  1  0
 75 74  1  0
 76 72  1  0
 77 78  2  0
 78 79  1  0
 80 79  2  0
 81 80  1  0
 82 56  1  0
 82 83  1  0
 82 92  1  0
 83 86  1  0
 84 88  1  0
 84 83  1  0
 85 84  2  0
 88 87  1  0
 90 91  1  0
 90 88  1  0
 90 89  1  0
 92 95  1  1
 92 93  1  0
 94 92  1  0
M  ISO  4  14 100  22 100  54 101  55 101
M  END
>  <TORSDO>  (37) 
F 21

>  <SCORE>  (37) 
-13.316

>  <name>  (37) 
37

>  <ligand_id>  (37) 
37

>  <original_smiles>  (37) 
[H]c1c([H])c([H])c2c(c1[H])C([H])([H])C([H])([H])C([H])([H])C2([H])N([H])C(=O)C1([H])N(C(=O)C([H])(N([H])C(=O)C([H])(N([H])C([H])([H])[H])C([H])([H])[H])C(C([H])([H])[H])(C([H])([H])[H])C([H])([H])[H])C([H])([H])c2c([H])c(OC([H])([H])C([H])([H])Oc3c([H])c(C4([H])C([H])([H])C4([H])N([H])C(=O)N4C([H])([H])C([H])([H])C([H])([H])C([H])(n5nc(-c6c([H])c([H])c(Oc7c([H])c([H])c(F)c([H])c7F)c([H])c6[H])c(C(=O)N([H])[H])c5N([H])[H])C4([H])[H])c(C4([H])C([H])([H])C4([H])[H])c([H])c3C([H])([H])[H])c([H])c([H])c2C1([H])[H]

>  <smiles>  (37) 
[H]c1c([H])c([H])c2c(c1[H])C([H])([H])C([H])([H])C([H])([H])C2([H])N([H])C(=O)C1([H])N(C(=O)C([H])(N([H])C(=O)C([H])(N([H])C([H])([H])[H])C([H])([H])[H])C(C([H])([H])[H])(C([H])([H])[H])C([H])([H])[H])C([H])([H])c2c([H])c(OC([H])([H])C([H])([H])Oc3c([H])c(C4([H])C([H])([H])C4([H])N([H])C(=O)N4C([H])([H])C([H])([H])C([H])([H])C([H])(n5nc(-c6c([H])c([H])c(Oc7c([H])c([H])c(F)c([H])c7F)c([H])c6[H])c(C(=O)N([H])[H])c5N([H])[H])C4([H])[H])c(C4([H])C([H])([H])C4([H])[H])c([H])c3C([H])([H])[H])c([H])c([H])c2C1([H])[H]

$$$$
38:0:0
     RDKit          3D

 97105  0  0  1  0  0  0  0  0999 V2000
  -31.1150  -21.3680   19.3530 C   0  0  0  0  0  3  0  0  0  0  0  0
  -31.3220  -20.0120   19.6430 C   0  0  0  0  0  3  0  0  0  0  0  0
  -28.7180  -20.9560   19.1050 C   0  0  0  0  0  0  0  0  0  0  0  0
  -28.9230  -19.5690   19.3840 C   0  0  0  0  0  0  0  0  0  0  0  0
  -29.8210  -21.8440   19.0870 C   0  0  0  0  0  0  0  0  0  0  0  0
  -30.2380  -19.1000   19.6660 C   0  0  0  0  0  0  0  0  0  0  0  0
  -27.5810  -17.8790   20.7550 C   0  0  0  0  0  1  0  0  0  0  0  0
  -27.7820  -17.5760   18.2240 C   0  0  0  0  0  1  0  0  0  0  0  0
  -27.7430  -18.5760   19.3940 C   0  0  0  0  0  3  0  0  0  0  0  0
  -26.9280  -21.4310   17.3520 C   0  0  0  0  0  1  0  0  0  0  0  0
  -27.3310  -21.5410   18.8290 C   0  0  0  0  0  2  0  0  0  0  0  0
  -29.6310  -23.1580   18.7370 O   0  0  0  0  0  0  0  0  0  0  0  0
  -30.2380  -24.1280   19.5850 C   0  0  0  0  0  2  0  0  0  0  0  0
  -30.1910  -25.4910   18.8780 C   0  0  0  0  0  2  0  0  0  0  0  0
  -28.7820  -26.0940   18.7850 C   0  0  0  0  0  2  0  0  0  0  0  0
  -28.4390  -26.7370   20.0110 O   0  0  0  0  0  0  0  0  0  0  0  0
  -24.6140  -31.8220   23.1790 C   0  0  0  0  0  0  0  0  0  0  0  0
  -27.2470  -27.4240   20.0330 C   0  0  0  0  0  0  0  0  0  0  0  0
  -23.4020  -30.4490   21.5140 C   0  0  0  0  0  3  0  0  0  0  0  0
  -24.8490  -28.9200   20.0790 C   0  0  0  0  0  0  0  0  0  0  0  0
  -25.9290  -30.7950   21.3310 C   0  0  0  0  0  2  0  0  0  0  0  0
  -26.0050  -29.4310   20.6810 C   0  0  0  0  0  0  0  0  0  0  0  0
  -27.2010  -28.6830   20.6700 C   0  0  0  0  0  3  0  0  0  0  0  0
  -26.0660  -26.9130   19.4450 C   0  0  0  0  0  3  0  0  0  0  0  0
  -24.8710  -27.6550   19.4680 C   0  0  0  0  0  3  0  0  0  0  0  0
  -23.6110  -29.7850   20.1270 C   0  0  0  0  0  2  0  0  0  0  0  0
  -24.6660  -31.0360   22.0660 N   0  0  0  0  0  0  0  0  0  0  0  0
  -23.5330  -32.0950   23.7180 O   0  0  0  0  0  0  0  0  0  0  0  0
  -22.7410  -29.4200   22.4580 C   0  0  0  0  0  0  0  0  0  0  0  0
  -21.4130  -29.2670   22.3380 N   0  0  0  0  0  0  0  0  0  0  0  0
  -23.4190  -28.7640   23.2540 O   0  0  0  0  0  0  0  0  0  0  0  0
  -20.9290  -29.8460   21.6650 H   0  0  0  0  0  0  0  0  0  0  0  0
  -18.0150  -28.1620   22.8620 C   0  0  0  0  0  0  0  0  0  0  0  0
  -20.5830  -28.3300   23.0930 C   0  0  0  0  0  3  0  0  0  0  0  0
  -20.6310  -26.9160   22.4710 C   0  0  0  0  0  2  0  0  0  0  0  0
  -19.5010  -26.6610   21.4680 C   0  0  0  0  0  2  0  0  0  0  0  0
  -18.1360  -26.8290   22.1420 C   0  0  0  0  0  2  0  0  0  0  0  0
  -19.1640  -28.8740   23.2950 C   0  0  0  0  0  0  0  0  0  0  0  0
  -18.9980  -30.1250   23.9280 C   0  0  0  0  0  3  0  0  0  0  0  0
  -17.7130  -30.6620   24.1330 C   0  0  0  0  0  3  0  0  0  0  0  0
  -16.5770  -29.9460   23.7180 C   0  0  0  0  0  3  0  0  0  0  0  0
  -16.7300  -28.6970   23.0890 C   0  0  0  0  0  3  0  0  0  0  0  0
  -25.9040  -32.4330   23.8110 C   0  0  0  0  0  3  0  0  0  0  0  0
  -26.4080  -31.6430   25.0810 C   0  0  1  0  0  0  0  0  0  0  0  0
  -25.3060  -31.3930   26.1350 C   0  0  0  0  0  1  0  0  0  0  0  0
  -26.9910  -30.2710   24.6720 C   0  0  0  0  0  1  0  0  0  0  0  0
  -27.5540  -32.4270   25.7640 C   0  0  0  0  0  1  0  0  0  0  0  0
  -25.6090  -33.8310   24.1510 N   0  0  0  0  0  0  0  0  0  0  0  0
  -25.9600  -34.8850   23.4020 C   0  0  0  0  0  0  0  0  0  0  0  0
  -26.6390  -34.7830   22.3780 O   0  0  0  0  0  0  0  0  0  0  0  0
  -25.0080  -33.9850   24.9470 H   0  0  0  0  0  0  0  0  0  0  0  0
  -24.2480  -36.6920   23.0490 C   0  0  0  0  0  1  0  0  0  0  0  0
  -25.4810  -36.2740   23.8660 C   0  0  0  0  0  3  0  0  0  0  0  0
  -27.6230  -37.1290   24.7110 C   0  0  0  0  0  1  0  0  0  0  0  0
  -26.5230  -37.3200   23.7690 N   0  0  0  0  0  0  0  0  0  0  0  0
  -26.1230  -38.2400   23.9320 H   0  0  0  0  0  0  0  0  0  0  0  0
  -30.4140  -17.7610   19.9510 O   0  0  0  0  0  0  0  0  0  0  0  0
  -31.7260  -17.2770   20.2160 C   0  0  0  0  0  2  0  0  0  0  0  0
  -31.6560  -16.1620   21.2730 C   0  0  0  0  0  2  0  0  0  0  0  0
  -31.1530  -14.1420   19.9160 C   0  0  0  0  0  0  0  0  0  0  0  0
  -30.7030  -11.9180   18.9510 C   0  0  0  0  0  2  0  0  0  0  0  0
  -29.6880  -11.9820   17.7950 C   0  0  0  0  0  2  0  0  0  0  0  0
  -28.2470  -11.9000   18.3320 C   0  0  0  0  0  2  0  0  0  0  0  0
  -27.9890  -12.8990   19.4910 C   0  0  0  0  0  3  0  0  0  0  0  0
  -29.1040  -12.8110   20.5570 C   0  0  0  0  0  2  0  0  0  0  0  0
  -30.4040  -13.0090   19.8890 N   0  0  0  0  0  0  0  0  0  0  0  0
  -32.1190  -14.3350   19.1730 O   0  0  0  0  0  0  0  0  0  0  0  0
  -30.8350  -15.0180   20.8730 N   0  0  0  0  0  0  0  0  0  0  0  0
  -30.0300  -14.8010   21.4430 H   0  0  0  0  0  0  0  0  0  0  0  0
  -25.7030  -13.6370   20.4190 C   0  0  0  0  0  0  0  0  0  0  0  0
  -24.6210  -12.9240   20.8620 C   0  0  0  0  0  0  0  0  0  0  0  0
  -24.9880  -11.5470   20.7570 C   0  0  0  0  0  0  0  0  0  0  0  0
  -26.6660  -12.6980   20.0780 N   0  0  0  0  0  0  0  0  0  0  0  0
  -26.2400  -11.4350   20.3340 N   0  0  0  0  0  0  0  0  0  0  0  0
  -24.1970  -10.3300   20.9790 C   0  0  0  0  0  0  0  0  0  0  0  0
  -24.6150   -9.3340   21.8900 C   0  0  0  0  0  3  0  0  0  0  0  0
  -23.8280   -8.1810   22.0990 C   0  0  0  0  0  3  0  0  0  0  0  0
  -22.6110   -8.0160   21.3970 C   0  0  0  0  0  0  0  0  0  0  0  0
  -22.2110   -8.9990   20.4750 C   0  0  0  0  0  3  0  0  0  0  0  0
  -22.9970  -10.1440   20.2640 C   0  0  0  0  0  3  0  0  0  0  0  0
  -21.7950   -6.9160   21.5170 O   0  0  0  0  0  0  0  0  0  0  0  0
  -21.7280   -6.1930   22.6810 C   0  0  0  0  0  0  0  0  0  0  0  0
  -21.3480   -6.7860   23.9050 C   0  0  0  0  0  3  0  0  0  0  0  0
  -21.2240   -5.9920   25.0620 C   0  0  0  0  0  3  0  0  0  0  0  0
  -21.4690   -4.6070   24.9970 C   0  0  0  0  0  0  0  0  0  0  0  0
  -21.8420   -4.0140   23.7780 C   0  0  0  0  0  3  0  0  0  0  0  0
  -21.9680   -4.8050   22.6230 C   0  0  0  0  0  0  0  0  0  0  0  0
  -22.3070   -4.2250   21.4460 F   0  0  0  0  0  0  0  0  0  0  0  0
  -21.3420   -3.8440   26.1080 F   0  0  0  0  0  0  0  0  0  0  0  0
  -23.2890  -13.4830   21.2710 C   0  0  0  0  0  0  0  0  0  0  0  0
  -22.6010  -12.8170   22.1910 N   0  0  0  0  0  0  0  0  0  0  0  0
  -22.8710  -14.5450   20.8120 O   0  0  0  0  0  0  0  0  0  0  0  0
  -22.9530  -11.9560   22.5850 H   0  0  0  0  0  0  0  0  0  0  0  0
  -21.7100  -13.1730   22.5080 H   0  0  0  0  0  0  0  0  0  0  0  0
  -25.9410  -14.9970   20.2580 N   0  0  0  0  0  0  0  0  0  0  0  0
  -25.2370  -15.6980   20.4550 H   0  0  0  0  0  0  0  0  0  0  0  0
  -26.8020  -15.3900   19.8990 H   0  0  0  0  0  0  0  0  0  0  0  0
  1  2  1  0
  2  6  2  0
  3  4  2  0
  4  9  1  0
  4  6  1  0
  5  3  1  0
  5  1  2  0
  6 57  1  0
  8  9  1  0
  9  7  1  0
 10 11  1  0
 11  3  1  0
 12  5  1  0
 12 13  1  0
 14 13  1  0
 15 14  1  0
 15 16  1  0
 16 18  1  0
 17 28  2  0
 18 23  1  0
 19 27  1  0
 19 29  1  0
 20 26  1  0
 20 22  1  0
 21 27  1  0
 22 21  1  0
 23 22  2  0
 24 25  1  0
 24 18  2  0
 25 20  2  0
 26 19  1  0
 27 17  1  0
 29 31  2  0
 30 29  1  0
 32 30  1  0
 33 42  2  0
 33 38  1  0
 34 30  1  0
 34 38  1  0
 35 34  1  0
 36 37  1  0
 36 35  1  0
 37 33  1  0
 38 39  2  0
 39 40  1  0
 41 40  2  0
 42 41  1  0
 43 17  1  0
 43 48  1  0
 43 44  1  0
 44 47  1  1
 44 45  1  0
 46 44  1  0
 48 51  1  0
 49 53  1  0
 49 48  1  0
 50 49  2  0
 53 52  1  0
 55 53  1  0
 55 56  1  0
 55 54  1  0
 57 58  1  0
 58 59  1  0
 60 68  1  0
 61 66  1  0
 62 63  1  0
 62 61  1  0
 64 63  1  0
 64 73  1  0
 64 65  1  0
 66 60  1  0
 66 65  1  0
 67 60  2  0
 68 59  1  0
 68 69  1  0
 70 71  2  0
 71 90  1  0
 72 71  1  0
 72 75  1  0
 73 74  1  0
 73 70  1  0
 74 72  2  0
 75 76  1  0
 76 77  2  0
 78 81  1  0
 78 77  1  0
 79 78  2  0
 80 79  1  0
 80 75  2  0
 81 82  1  0
 82 83  1  0
 83 84  2  0
 85 84  1  0
 85 89  1  0
 86 85  2  0
 87 82  2  0
 87 86  1  0
 88 87  1  0
 90 91  1  0
 91 94  1  0
 91 93  1  0
 92 90  2  0
 95 70  1  0
 95 96  1  0
 97 95  1  0
M  ISO  4  15 101  16 101  60 100  68 100
M  END
>  <TORSDO>  (38) 
F 25

>  <SCORE>  (38) 
-11.384

>  <name>  (38) 
38

>  <ligand_id>  (38) 
38

>  <original_smiles>  (38) 
[H]c1c([H])c([H])c2c(c1[H])C([H])([H])C([H])([H])C([H])([H])C2([H])N([H])C(=O)C1([H])N(C(=O)C([H])(N([H])C(=O)C([H])(N([H])C([H])([H])[H])C([H])([H])[H])C(C([H])([H])[H])(C([H])([H])[H])C([H])([H])[H])C([H])([H])c2c([H])c(OC([H])([H])C([H])([H])C([H])([H])Oc3c([H])c([H])c(OC([H])([H])C([H])([H])N([H])C(=O)N4C([H])([H])C([H])([H])C([H])([H])C([H])(n5nc(-c6c([H])c([H])c(Oc7c([H])c([H])c(F)c([H])c7F)c([H])c6[H])c(C(=O)N([H])[H])c5N([H])[H])C4([H])[H])c(C([H])(C([H])([H])[H])C([H])([H])[H])c3C([H])([H])C([H])([H])[H])c([H])c([H])c2C1([H])[H]

>  <smiles>  (38) 
[H]c1c([H])c([H])c2c(c1[H])C([H])([H])C([H])([H])C([H])([H])C2([H])N([H])C(=O)C1([H])N(C(=O)C([H])(N([H])C(=O)C([H])(N([H])C([H])([H])[H])C([H])([H])[H])C(C([H])([H])[H])(C([H])([H])[H])C([H])([H])[H])C([H])([H])c2c([H])c(OC([H])([H])C([H])([H])C([H])([H])Oc3c([H])c([H])c(OC([H])([H])C([H])([H])N([H])C(=O)N4C([H])([H])C([H])([H])C([H])([H])C([H])(n5nc(-c6c([H])c([H])c(Oc7c([H])c([H])c(F)c([H])c7F)c([H])c6[H])c(C(=O)N([H])[H])c5N([H])[H])C4([H])[H])c(C([H])(C([H])([H])[H])C([H])([H])[H])c3C([H])([H])C([H])([H])[H])c([H])c([H])c2C1([H])[H]

$$$$
39:0:0
     RDKit          3D

 94103  0  0  1  0  0  0  0  0999 V2000
  -29.9270  -20.9850   20.4270 C   0  0  0  0  0  3  0  0  0  0  0  0
  -28.5490  -22.1010   19.0880 C   0  0  0  0  0  3  0  0  0  0  0  0
  -29.5780  -22.2800   19.9640 C   0  0  0  0  0  0  0  0  0  0  0  0
  -29.1130  -20.0470   19.8360 C   0  0  0  0  0  0  0  0  0  0  0  0
  -28.2350  -20.7430   18.9790 N   0  0  0  0  0  0  0  0  0  0  0  0
  -30.8070  -14.5500   20.1170 C   0  0  0  0  0  0  0  0  0  0  0  0
  -30.4110  -12.4140   18.9810 C   0  0  0  0  0  2  0  0  0  0  0  0
  -29.4210  -12.6730   17.8330 C   0  0  0  0  0  2  0  0  0  0  0  0
  -27.9730  -12.5100   18.3340 C   0  0  0  0  0  2  0  0  0  0  0  0
  -27.6890  -13.3160   19.6300 C   0  0  0  0  0  3  0  0  0  0  0  0
  -28.8050  -13.1100   20.6780 C   0  0  0  0  0  2  0  0  0  0  0  0
  -30.0980  -13.3910   20.0310 N   0  0  0  0  0  0  0  0  0  0  0  0
  -31.9900  -14.6260   19.7720 O   0  0  0  0  0  0  0  0  0  0  0  0
  -30.1580  -17.9450   18.9540 C   0  0  0  0  0  2  0  0  0  0  0  0
  -29.6080  -17.9890   21.3400 C   0  0  0  0  0  3  0  0  0  0  0  0
  -29.9760  -16.4250   18.8480 C   0  0  0  0  0  2  0  0  0  0  0  0
  -30.0370  -16.4820   21.4010 C   0  0  0  0  0  3  0  0  0  0  0  0
  -29.1780  -18.5330   19.9640 C   0  0  0  0  0  3  0  0  0  0  0  0
  -30.0690  -15.6940   20.1390 N   0  0  0  0  0  0  0  0  0  0  0  0
  -25.3260  -13.8890   20.4650 C   0  0  0  0  0  0  0  0  0  0  0  0
  -24.2770  -13.1060   20.8550 C   0  0  0  0  0  0  0  0  0  0  0  0
  -24.7380  -11.7550   20.7660 C   0  0  0  0  0  0  0  0  0  0  0  0
  -26.3630  -13.0200   20.1640 N   0  0  0  0  0  0  0  0  0  0  0  0
  -26.0140  -11.7280   20.4000 N   0  0  0  0  0  0  0  0  0  0  0  0
  -24.0220  -10.4870   20.9530 C   0  0  0  0  0  0  0  0  0  0  0  0
  -24.4580   -9.5240   21.8880 C   0  0  0  0  0  3  0  0  0  0  0  0
  -23.7430   -8.3180   22.0600 C   0  0  0  0  0  3  0  0  0  0  0  0
  -22.5770   -8.0670   21.2980 C   0  0  0  0  0  0  0  0  0  0  0  0
  -22.1620   -9.0200   20.3510 C   0  0  0  0  0  3  0  0  0  0  0  0
  -22.8790  -10.2160   20.1770 C   0  0  0  0  0  3  0  0  0  0  0  0
  -21.8340   -6.9130   21.3800 O   0  0  0  0  0  0  0  0  0  0  0  0
  -21.7290   -6.2080   22.5520 C   0  0  0  0  0  0  0  0  0  0  0  0
  -21.1870   -6.7840   23.7220 C   0  0  0  0  0  3  0  0  0  0  0  0
  -21.0370   -6.0040   24.8850 C   0  0  0  0  0  3  0  0  0  0  0  0
  -21.4140   -4.6470   24.8780 C   0  0  0  0  0  0  0  0  0  0  0  0
  -21.9470   -4.0710   23.7120 C   0  0  0  0  0  3  0  0  0  0  0  0
  -22.1030   -4.8500   22.5520 C   0  0  0  0  0  0  0  0  0  0  0  0
  -22.5980   -4.2850   21.4240 F   0  0  0  0  0  0  0  0  0  0  0  0
  -21.2630   -3.8930   25.9930 F   0  0  0  0  0  0  0  0  0  0  0  0
  -22.8910  -13.5670   21.2060 C   0  0  0  0  0  0  0  0  0  0  0  0
  -22.2030  -12.8380   22.0790 N   0  0  0  0  0  0  0  0  0  0  0  0
  -22.4310  -14.6090   20.7410 O   0  0  0  0  0  0  0  0  0  0  0  0
  -22.5950  -11.9960   22.4750 H   0  0  0  0  0  0  0  0  0  0  0  0
  -21.2770  -13.1270   22.3620 H   0  0  0  0  0  0  0  0  0  0  0  0
  -25.4890  -15.2660   20.3250 N   0  0  0  0  0  0  0  0  0  0  0  0
  -24.7430  -15.9330   20.4870 H   0  0  0  0  0  0  0  0  0  0  0  0
  -26.3500  -15.6990   20.0160 H   0  0  0  0  0  0  0  0  0  0  0  0
  -27.4580  -19.1520   17.1020 C   0  0  0  0  0  1  0  0  0  0  0  0
  -26.3260  -21.3370   17.4190 C   0  0  0  0  0  1  0  0  0  0  0  0
  -27.1020  -20.2220   18.1630 C   0  0  0  0  0  3  0  0  0  0  0  0
  -30.2250  -23.4600   20.2610 O   0  0  0  0  0  0  0  0  0  0  0  0
  -29.4670  -24.5030   20.8910 C   0  0  0  0  0  2  0  0  0  0  0  0
  -28.5930  -25.3400   19.9260 C   0  0  0  0  0  2  0  0  0  0  0  0
  -28.5190  -26.7270   20.3390 O   0  0  0  0  0  0  0  0  0  0  0  0
  -24.5870  -31.9010   23.2620 C   0  0  0  0  0  0  0  0  0  0  0  0
  -27.3280  -27.4320   20.2640 C   0  0  0  0  0  0  0  0  0  0  0  0
  -23.4280  -30.4820   21.6030 C   0  0  0  0  0  3  0  0  0  0  0  0
  -24.9240  -28.9420   20.2200 C   0  0  0  0  0  0  0  0  0  0  0  0
  -25.9590  -30.8460   21.4630 C   0  0  0  0  0  2  0  0  0  0  0  0
  -26.0670  -29.4690   20.8340 C   0  0  0  0  0  0  0  0  0  0  0  0
  -27.2630  -28.7160   20.8650 C   0  0  0  0  0  3  0  0  0  0  0  0
  -26.1680  -26.9370   19.6170 C   0  0  0  0  0  3  0  0  0  0  0  0
  -24.9730  -27.6750   19.6130 C   0  0  0  0  0  3  0  0  0  0  0  0
  -23.6730  -29.7900   20.2330 C   0  0  0  0  0  2  0  0  0  0  0  0
  -24.6750  -31.0920   22.1660 N   0  0  0  0  0  0  0  0  0  0  0  0
  -23.4930  -32.1680   23.7760 O   0  0  0  0  0  0  0  0  0  0  0  0
  -22.7610  -29.4620   22.5560 C   0  0  0  0  0  0  0  0  0  0  0  0
  -21.4420  -29.2620   22.3930 N   0  0  0  0  0  0  0  0  0  0  0  0
  -23.4280  -28.8550   23.3980 O   0  0  0  0  0  0  0  0  0  0  0  0
  -20.9660  -29.7980   21.6820 H   0  0  0  0  0  0  0  0  0  0  0  0
  -18.0680  -28.0510   22.8210 C   0  0  0  0  0  0  0  0  0  0  0  0
  -20.6180  -28.3180   23.1450 C   0  0  0  0  0  3  0  0  0  0  0  0
  -20.7400  -26.8900   22.5660 C   0  0  0  0  0  2  0  0  0  0  0  0
  -19.6610  -26.5630   21.5300 C   0  0  0  0  0  2  0  0  0  0  0  0
  -18.2660  -26.7010   22.1480 C   0  0  0  0  0  2  0  0  0  0  0  0
  -19.1750  -28.8140   23.2740 C   0  0  0  0  0  0  0  0  0  0  0  0
  -18.9430  -30.0780   23.8590 C   0  0  0  0  0  3  0  0  0  0  0  0
  -17.6320  -30.5760   23.9990 C   0  0  0  0  0  3  0  0  0  0  0  0
  -16.5380  -29.8060   23.5710 C   0  0  0  0  0  3  0  0  0  0  0  0
  -16.7560  -28.5460   22.9850 C   0  0  0  0  0  3  0  0  0  0  0  0
  -25.8550  -32.5440   23.9060 C   0  0  0  0  0  3  0  0  0  0  0  0
  -26.3430  -31.7970   25.2070 C   0  0  1  0  0  0  0  0  0  0  0  0
  -25.2260  -31.5670   26.2520 C   0  0  0  0  0  1  0  0  0  0  0  0
  -26.9470  -30.4180   24.8530 C   0  0  0  0  0  1  0  0  0  0  0  0
  -27.4680  -32.6100   25.8920 C   0  0  0  0  0  1  0  0  0  0  0  0
  -25.5390  -33.9490   24.2020 N   0  0  0  0  0  0  0  0  0  0  0  0
  -25.8870  -34.9870   23.4300 C   0  0  0  0  0  0  0  0  0  0  0  0
  -26.5830  -34.8670   22.4180 O   0  0  0  0  0  0  0  0  0  0  0  0
  -24.9310  -34.1190   24.9890 H   0  0  0  0  0  0  0  0  0  0  0  0
  -24.1730  -36.7740   22.9970 C   0  0  0  0  0  1  0  0  0  0  0  0
  -25.3860  -36.3820   23.8530 C   0  0  0  0  0  3  0  0  0  0  0  0
  -27.4900  -37.2850   24.7440 C   0  0  0  0  0  1  0  0  0  0  0  0
  -26.4220  -37.4330   23.7580 N   0  0  0  0  0  0  0  0  0  0  0  0
  -26.0090  -38.3550   23.8720 H   0  0  0  0  0  0  0  0  0  0  0  0
  2  3  2  0
  3 51  1  0
  3  1  1  0
  4  1  2  0
  5  2  1  0
  5  4  1  0
  6 19  1  0
  7 12  1  0
  8  9  1  0
  8  7  1  0
 10  9  1  0
 10 23  1  0
 10 11  1  0
 12  6  1  0
 12 11  1  0
 13  6  2  0
 14 18  1  0
 15 17  2  0
 16 14  1  0
 16 19  1  0
 18  4  1  0
 18 15  1  0
 19 17  1  0
 20 21  2  0
 21 40  1  0
 22 21  1  0
 22 25  1  0
 23 24  1  0
 23 20  1  0
 24 22  2  0
 25 26  1  0
 26 27  2  0
 28 31  1  0
 28 27  1  0
 29 28  2  0
 30 29  1  0
 30 25  2  0
 31 32  1  0
 32 33  1  0
 33 34  2  0
 35 34  1  0
 35 39  1  0
 36 35  2  0
 37 32  2  0
 37 36  1  0
 38 37  1  0
 40 41  1  0
 41 44  1  0
 41 43  1  0
 42 40  2  0
 45 20  1  0
 45 46  1  0
 47 45  1  0
 48 50  1  0
 49 50  1  0
 50  5  1  0
 51 52  1  0
 53 54  1  0
 53 52  1  0
 55 66  2  0
 56 54  1  0
 56 61  1  0
 57 65  1  0
 57 67  1  0
 58 64  1  0
 58 60  1  0
 59 65  1  0
 60 61  2  0
 60 59  1  0
 62 56  2  0
 63 62  1  0
 63 58  2  0
 64 57  1  0
 65 55  1  0
 67 69  2  0
 68 67  1  0
 70 68  1  0
 71 80  2  0
 71 76  1  0
 72 68  1  0
 72 76  1  0
 73 72  1  0
 74 75  1  0
 74 73  1  0
 75 71  1  0
 76 77  2  0
 77 78  1  0
 79 78  2  0
 80 79  1  0
 81 55  1  0
 81 86  1  0
 81 82  1  0
 82 85  1  1
 82 83  1  0
 84 82  1  0
 86 89  1  0
 87 91  1  0
 87 86  1  0
 88 87  2  0
 91 90  1  0
 93 91  1  0
 93 94  1  0
 93 92  1  0
M  ISO  4   6 100  19 100  53 101  54 101
M  END
>  <TORSDO>  (39) 
F 20

>  <SCORE>  (39) 
-13.727

>  <name>  (39) 
39

>  <ligand_id>  (39) 
39

>  <original_smiles>  (39) 
[H]c1c([H])c([H])c2c(c1[H])C([H])([H])C([H])([H])C([H])([H])C2([H])N([H])C(=O)C1([H])N(C(=O)C([H])(N([H])C(=O)C([H])(N([H])C([H])([H])[H])C([H])([H])[H])C(C([H])([H])[H])(C([H])([H])[H])C([H])([H])[H])C([H])([H])c2c([H])c(OC([H])([H])C([H])([H])Oc3c([H])c(C4([H])C([H])([H])C([H])([H])N(C(=O)N5C([H])([H])C([H])([H])C([H])([H])C([H])(n6nc(-c7c([H])c([H])c(Oc8c([H])c([H])c(F)c([H])c8F)c([H])c7[H])c(C(=O)N([H])[H])c6N([H])[H])C5([H])[H])C([H])([H])C4([H])[H])n(C([H])(C([H])([H])[H])C([H])([H])[H])c3[H])c([H])c([H])c2C1([H])[H]

>  <smiles>  (39) 
[H]c1c([H])c([H])c2c(c1[H])C([H])([H])C([H])([H])C([H])([H])C2([H])N([H])C(=O)C1([H])N(C(=O)C([H])(N([H])C(=O)C([H])(N([H])C([H])([H])[H])C([H])([H])[H])C(C([H])([H])[H])(C([H])([H])[H])C([H])([H])[H])C([H])([H])c2c([H])c(OC([H])([H])C([H])([H])Oc3c([H])c(C4([H])C([H])([H])C([H])([H])N(C(=O)N5C([H])([H])C([H])([H])C([H])([H])C([H])(n6nc(-c7c([H])c([H])c(Oc8c([H])c([H])c(F)c([H])c8F)c([H])c7[H])c(C(=O)N([H])[H])c6N([H])[H])C5([H])[H])C([H])([H])C4([H])[H])n(C([H])(C([H])([H])[H])C([H])([H])[H])c3[H])c([H])c([H])c2C1([H])[H]

$$$$
40:0:0
     RDKit          3D

 97106  0  0  1  0  0  0  0  0999 V2000
  -27.8400  -24.0990   19.1850 C   0  0  0  0  0  3  0  0  0  0  0  0
  -27.9990  -22.6810   19.2430 C   0  0  0  0  0  0  0  0  0  0  0  0
  -28.5480  -22.0550   20.4080 C   0  0  0  0  0  0  0  0  0  0  0  0
  -28.8060  -22.9730   21.4780 C   0  0  0  0  0  0  0  0  0  0  0  0
  -28.1100  -24.9210   20.3070 C   0  0  0  0  0  0  0  0  0  0  0  0
  -27.5340  -21.8730   18.0430 C   0  0  0  0  0  1  0  0  0  0  0  0
  -28.5930  -24.3230   21.4190 N   0  0  0  0  0  0  0  0  0  0  0  0
  -30.2710  -23.3380   23.6390 C   0  0  0  0  0  2  0  0  0  0  0  0
  -30.6890  -22.0230   23.0390 C   0  0  0  0  0  2  0  0  0  0  0  0
  -29.2740  -22.5240   22.8340 C   0  0  0  0  0  3  0  0  0  0  0  0
  -28.1120  -26.3390   20.3270 O   0  0  0  0  0  0  0  0  0  0  0  0
  -24.4780  -31.8440   23.3060 C   0  0  0  0  0  0  0  0  0  0  0  0
  -26.9720  -27.1600   20.3320 C   0  0  0  0  0  0  0  0  0  0  0  0
  -23.2450  -30.4630   21.6700 C   0  0  0  0  0  3  0  0  0  0  0  0
  -24.6550  -28.8420   20.2870 C   0  0  0  0  0  0  0  0  0  0  0  0
  -25.7940  -30.6950   21.5120 C   0  0  0  0  0  2  0  0  0  0  0  0
  -25.8320  -29.3040   20.8880 C   0  0  0  0  0  0  0  0  0  0  0  0
  -26.9910  -28.4730   20.8990 C   0  0  0  0  0  3  0  0  0  0  0  0
  -25.7670  -26.7440   19.7250 C   0  0  0  0  0  3  0  0  0  0  0  0
  -24.6240  -27.5660   19.7030 C   0  0  0  0  0  3  0  0  0  0  0  0
  -23.4520  -29.7620   20.3030 C   0  0  0  0  0  2  0  0  0  0  0  0
  -24.5240  -31.0190   22.2200 N   0  0  0  0  0  0  0  0  0  0  0  0
  -23.3970  -32.1660   23.8250 O   0  0  0  0  0  0  0  0  0  0  0  0
  -22.5390  -29.4820   22.6360 C   0  0  0  0  0  0  0  0  0  0  0  0
  -21.2100  -29.3410   22.4870 N   0  0  0  0  0  0  0  0  0  0  0  0
  -23.1840  -28.8530   23.4770 O   0  0  0  0  0  0  0  0  0  0  0  0
  -20.7510  -29.8960   21.7790 H   0  0  0  0  0  0  0  0  0  0  0  0
  -17.7900  -28.2620   22.9570 C   0  0  0  0  0  0  0  0  0  0  0  0
  -20.3520  -28.4420   23.2600 C   0  0  0  0  0  3  0  0  0  0  0  0
  -20.4140  -27.0000   22.7060 C   0  0  0  0  0  2  0  0  0  0  0  0
  -19.3160  -26.6990   21.6800 C   0  0  0  0  0  2  0  0  0  0  0  0
  -17.9320  -26.8970   22.3040 C   0  0  0  0  0  2  0  0  0  0  0  0
  -18.9270  -28.9940   23.3920 C   0  0  0  0  0  0  0  0  0  0  0  0
  -18.7390  -30.2710   23.9630 C   0  0  0  0  0  3  0  0  0  0  0  0
  -17.4490  -30.8150   24.1030 C   0  0  0  0  0  3  0  0  0  0  0  0
  -16.3270  -30.0800   23.6840 C   0  0  0  0  0  3  0  0  0  0  0  0
  -16.4970  -28.8050   23.1160 C   0  0  0  0  0  3  0  0  0  0  0  0
  -25.7750  -32.4410   23.9350 C   0  0  0  0  0  3  0  0  0  0  0  0
  -25.5090  -33.8520   24.2440 N   0  0  0  0  0  0  0  0  0  0  0  0
  -25.8640  -34.8820   23.4630 C   0  0  0  0  0  0  0  0  0  0  0  0
  -26.5170  -34.7410   22.4260 O   0  0  0  0  0  0  0  0  0  0  0  0
  -24.9300  -34.0400   25.0490 H   0  0  0  0  0  0  0  0  0  0  0  0
  -24.1740  -36.7100   23.1030 C   0  0  0  0  0  1  0  0  0  0  0  0
  -25.4210  -36.2920   23.8990 C   0  0  0  0  0  3  0  0  0  0  0  0
  -27.5930  -37.1400   24.6710 C   0  0  0  0  0  1  0  0  0  0  0  0
  -26.4790  -37.3150   23.7430 N   0  0  0  0  0  0  0  0  0  0  0  0
  -26.0990  -38.2500   23.8770 H   0  0  0  0  0  0  0  0  0  0  0  0
  -26.2470  -31.6700   25.2290 C   0  0  1  0  0  0  0  0  0  0  0  0
  -25.1310  -31.4810   26.2830 C   0  0  0  0  0  1  0  0  0  0  0  0
  -26.7930  -30.2700   24.8650 C   0  0  0  0  0  1  0  0  0  0  0  0
  -27.4120  -32.4360   25.8980 C   0  0  0  0  0  1  0  0  0  0  0  0
  -28.7370  -20.4760   20.6170 C   0  0  0  0  0  2  0  0  0  0  0  0
  -29.4220  -19.5580   19.5080 C   0  0  0  0  0  3  0  0  0  0  0  0
  -30.4450  -20.3880   18.8420 N   0  0  0  0  0  4  0  0  0  0  0  0
  -31.2630  -20.4810   19.4190 H   0  0  0  0  0  0  0  0  0  0  0  0
  -30.0780  -21.3110   18.6860 H   0  0  0  0  0  0  0  0  0  0  0  0
  -30.7210  -19.9900   17.9600 H   0  0  0  0  0  0  0  0  0  0  0  0
  -30.0830  -18.1080   19.8150 C   0  0  0  0  0  2  0  0  0  0  0  0
  -29.5320  -17.0620   20.8720 C   0  0  0  0  0  2  0  0  0  0  0  0
  -30.3630  -14.5560   20.2920 C   0  0  0  0  0  0  0  0  0  0  0  0
  -30.1920  -12.3130   19.2130 C   0  0  0  0  0  2  0  0  0  0  0  0
  -29.1900  -12.4210   18.0400 C   0  0  0  0  0  2  0  0  0  0  0  0
  -27.7380  -12.2300   18.5270 C   0  0  0  0  0  2  0  0  0  0  0  0
  -27.4130  -13.0800   19.7830 C   0  0  0  0  0  3  0  0  0  0  0  0
  -28.5180  -12.9270   20.8510 C   0  0  0  0  0  2  0  0  0  0  0  0
  -29.7910  -13.3120   20.2220 N   0  0  0  0  0  0  0  0  0  0  0  0
  -31.5280  -14.7550   19.9360 O   0  0  0  0  0  0  0  0  0  0  0  0
  -29.4860  -15.5720   20.5850 N   0  0  0  0  0  0  0  0  0  0  0  0
  -28.5660  -15.1910   20.7490 H   0  0  0  0  0  0  0  0  0  0  0  0
  -25.0560  -13.6570   20.6270 C   0  0  0  0  0  0  0  0  0  0  0  0
  -24.0060  -12.8720   21.0200 C   0  0  0  0  0  0  0  0  0  0  0  0
  -24.4660  -11.5230   20.9240 C   0  0  0  0  0  0  0  0  0  0  0  0
  -26.0880  -12.7840   20.3170 N   0  0  0  0  0  0  0  0  0  0  0  0
  -25.7410  -11.4940   20.5570 N   0  0  0  0  0  0  0  0  0  0  0  0
  -23.7470  -10.2550   21.1030 C   0  0  0  0  0  0  0  0  0  0  0  0
  -24.2090   -9.2670   21.9990 C   0  0  0  0  0  3  0  0  0  0  0  0
  -23.4920   -8.0610   22.1660 C   0  0  0  0  0  3  0  0  0  0  0  0
  -22.2980   -7.8390   21.4400 C   0  0  0  0  0  0  0  0  0  0  0  0
  -21.8550   -8.8180   20.5330 C   0  0  0  0  0  3  0  0  0  0  0  0
  -22.5730  -10.0140   20.3620 C   0  0  0  0  0  3  0  0  0  0  0  0
  -21.5500   -6.6890   21.5190 O   0  0  0  0  0  0  0  0  0  0  0  0
  -21.5290   -5.9230   22.6560 C   0  0  0  0  0  0  0  0  0  0  0  0
  -21.1170   -6.4460   23.9010 C   0  0  0  0  0  3  0  0  0  0  0  0
  -21.0440   -5.6040   25.0280 C   0  0  0  0  0  3  0  0  0  0  0  0
  -21.3730   -4.2400   24.9130 C   0  0  0  0  0  0  0  0  0  0  0  0
  -21.7790   -3.7160   23.6730 C   0  0  0  0  0  3  0  0  0  0  0  0
  -21.8540   -4.5560   22.5460 C   0  0  0  0  0  0  0  0  0  0  0  0
  -22.2250   -4.0410   21.3490 F   0  0  0  0  0  0  0  0  0  0  0  0
  -21.2960   -3.4300   25.9940 F   0  0  0  0  0  0  0  0  0  0  0  0
  -22.6230  -13.3400   21.3680 C   0  0  0  0  0  0  0  0  0  0  0  0
  -21.9320  -12.6160   22.2420 N   0  0  0  0  0  0  0  0  0  0  0  0
  -22.1640  -14.3820   20.9010 O   0  0  0  0  0  0  0  0  0  0  0  0
  -22.3160  -11.7740   22.6440 H   0  0  0  0  0  0  0  0  0  0  0  0
  -21.0040  -12.9110   22.5140 H   0  0  0  0  0  0  0  0  0  0  0  0
  -25.2100  -15.0330   20.4810 N   0  0  0  0  0  0  0  0  0  0  0  0
  -24.4290  -15.6670   20.6110 H   0  0  0  0  0  0  0  0  0  0  0  0
  -26.0140  -15.4810   20.0620 H   0  0  0  0  0  0  0  0  0  0  0  0
  1  2  2  0
  1  5  1  0
  2  3  1  0
  3 52  1  0
  3  4  2  0
  4 10  1  0
  5 11  1  0
  5  7  2  0
  6  2  1  0
  7  4  1  0
  9  8  1  0
 10  9  1  0
 10  8  1  0
 11 13  1  0
 12 23  2  0
 13 18  1  0
 14 22  1  0
 14 24  1  0
 15 21  1  0
 15 17  1  0
 16 22  1  0
 17 18  2  0
 17 16  1  0
 19 13  2  0
 20 19  1  0
 20 15  2  0
 21 14  1  0
 22 12  1  0
 24 26  2  0
 25 24  1  0
 27 25  1  0
 28 37  2  0
 28 33  1  0
 29 25  1  0
 29 33  1  0
 30 29  1  0
 31 32  1  0
 31 30  1  0
 32 28  1  0
 33 34  2  0
 34 35  1  0
 36 35  2  0
 37 36  1  0
 38 12  1  0
 38 39  1  0
 38 48  1  0
 39 42  1  0
 40 44  1  0
 40 39  1  0
 41 40  2  0
 44 43  1  0
 46 47  1  0
 46 44  1  0
 46 45  1  0
 48 51  1  1
 48 49  1  0
 50 48  1  0
 53 58  1  0
 53 52  1  0
 54 55  1  0
 54 53  1  0
 56 54  1  0
 57 54  1  0
 58 59  1  0
 60 68  1  0
 61 66  1  0
 62 63  1  0
 62 61  1  0
 64 63  1  0
 64 73  1  0
 64 65  1  0
 66 60  1  0
 66 65  1  0
 67 60  2  0
 68 69  1  0
 68 59  1  0
 70 71  2  0
 71 90  1  0
 72 71  1  0
 72 75  1  0
 73 74  1  0
 73 70  1  0
 74 72  2  0
 75 76  1  0
 76 77  2  0
 78 81  1  0
 78 77  1  0
 79 78  2  0
 80 79  1  0
 80 75  2  0
 81 82  1  0
 82 83  1  0
 83 84  2  0
 85 84  1  0
 85 89  1  0
 86 85  2  0
 87 82  2  0
 87 86  1  0
 88 87  1  0
 90 91  1  0
 91 94  1  0
 91 93  1  0
 92 90  2  0
 95 96  1  0
 95 70  1  0
 97 95  1  0
M  ISO  4   5 101  11 101  60 100  68 100
M  END
>  <TORSDO>  (40) 
F 22

>  <SCORE>  (40) 
-12.972

>  <name>  (40) 
40

>  <ligand_id>  (40) 
40

>  <original_smiles>  (40) 
[H]c1c([H])c([H])c2c(c1[H])C([H])([H])C([H])([H])C([H])([H])C2([H])N([H])C(=O)C1([H])N(C(=O)C([H])(N([H])C(=O)C([H])(N([H])C([H])([H])[H])C([H])([H])[H])C(C([H])([H])[H])(C([H])([H])[H])C([H])([H])[H])C([H])([H])c2c([H])c(Oc3nc(C4([H])C([H])([H])C4([H])[H])c(C([H])([H])C([H])(C([H])([H])C([H])([H])N([H])C(=O)N4C([H])([H])C([H])([H])C([H])([H])C([H])(n5nc(-c6c([H])c([H])c(Oc7c([H])c([H])c(F)c([H])c7F)c([H])c6[H])c(C(=O)N([H])[H])c5N([H])[H])C4([H])[H])[N+]([H])([H])[H])c(C([H])([H])[H])c3[H])c([H])c([H])c2C1([H])[H]

>  <smiles>  (40) 
[H]c1c([H])c([H])c2c(c1[H])C([H])([H])C([H])([H])C([H])([H])C2([H])N([H])C(=O)C1([H])N(C(=O)C([H])(N([H])C(=O)C([H])(N([H])C([H])([H])[H])C([H])([H])[H])C(C([H])([H])[H])(C([H])([H])[H])C([H])([H])[H])C([H])([H])c2c([H])c(Oc3nc(C4([H])C([H])([H])C4([H])[H])c(C([H])([H])C([H])(C([H])([H])C([H])([H])N([H])C(=O)N4C([H])([H])C([H])([H])C([H])([H])C([H])(n5nc(-c6c([H])c([H])c(Oc7c([H])c([H])c(F)c([H])c7F)c([H])c6[H])c(C(=O)N([H])[H])c5N([H])[H])C4([H])[H])[N+]([H])([H])[H])c(C([H])([H])[H])c3[H])c([H])c([H])c2C1([H])[H]

$$$$
41:0:0
     RDKit          3D

 96104  0  0  1  0  0  0  0  0999 V2000
  -27.4210  -20.4880   19.7250 C   0  0  0  0  0  2  0  0  0  0  0  0
  -29.5640  -21.3600   18.9580 C   0  0  0  0  0  2  0  0  0  0  0  0
  -28.8980  -20.6020   20.1250 C   0  0  0  0  0  3  0  0  0  0  0  0
  -27.1130  -21.7850   18.9520 C   0  0  0  0  0  3  0  0  0  0  0  0
  -28.4060  -21.9430   18.1120 C   0  0  0  0  0  3  0  0  0  0  0  0
  -28.6750  -23.2900   17.5260 N   0  0  0  0  0  4  0  0  0  0  0  0
  -28.0010  -23.4250   16.7850 H   0  0  0  0  0  0  0  0  0  0  0  0
  -29.5780  -23.2390   17.0800 H   0  0  0  0  0  0  0  0  0  0  0  0
  -28.6410  -24.4990   18.4020 C   0  0  0  0  0  2  0  0  0  0  0  0
  -28.8750  -25.7970   17.5760 C   0  0  0  0  0  2  0  0  0  0  0  0
  -28.7130  -27.0200   18.3110 O   0  0  0  0  0  0  0  0  0  0  0  0
  -24.6920  -30.9710   22.6610 C   0  0  0  0  0  0  0  0  0  0  0  0
  -27.4500  -27.5370   18.5400 C   0  0  0  0  0  0  0  0  0  0  0  0
  -23.4730  -29.7300   20.9060 C   0  0  0  0  0  3  0  0  0  0  0  0
  -24.9100  -28.6720   19.0870 C   0  0  0  0  0  0  0  0  0  0  0  0
  -25.8960  -30.4490   20.5430 C   0  0  0  0  0  2  0  0  0  0  0  0
  -26.0600  -29.2310   19.6560 C   0  0  0  0  0  0  0  0  0  0  0  0
  -27.3270  -28.6650   19.3890 C   0  0  0  0  0  3  0  0  0  0  0  0
  -26.2740  -26.9930   17.9710 C   0  0  0  0  0  3  0  0  0  0  0  0
  -25.0110  -27.5490   18.2470 C   0  0  0  0  0  3  0  0  0  0  0  0
  -23.5910  -29.3350   19.4110 C   0  0  0  0  0  2  0  0  0  0  0  0
  -24.7090  -30.3930   21.4280 N   0  0  0  0  0  0  0  0  0  0  0  0
  -23.6570  -30.9990   23.3400 O   0  0  0  0  0  0  0  0  0  0  0  0
  -23.0610  -28.4800   21.7150 C   0  0  0  0  0  0  0  0  0  0  0  0
  -21.7850  -28.0820   21.5930 N   0  0  0  0  0  0  0  0  0  0  0  0
  -23.8840  -27.8780   22.4100 O   0  0  0  0  0  0  0  0  0  0  0  0
  -21.1690  -28.6380   21.0180 H   0  0  0  0  0  0  0  0  0  0  0  0
  -18.7450  -26.1510   21.8850 C   0  0  0  0  0  0  0  0  0  0  0  0
  -21.1930  -26.9060   22.2300 C   0  0  0  0  0  3  0  0  0  0  0  0
  -21.5930  -25.6050   21.4910 C   0  0  0  0  0  2  0  0  0  0  0  0
  -20.5740  -25.1760   20.4260 C   0  0  0  0  0  2  0  0  0  0  0  0
  -19.1970  -24.9570   21.0620 C   0  0  0  0  0  2  0  0  0  0  0  0
  -19.6820  -27.0760   22.4190 C   0  0  0  0  0  0  0  0  0  0  0  0
  -19.2110  -28.1870   23.1510 C   0  0  0  0  0  3  0  0  0  0  0  0
  -17.8320  -28.3800   23.3590 C   0  0  0  0  0  3  0  0  0  0  0  0
  -16.9080  -27.4560   22.8410 C   0  0  0  0  0  3  0  0  0  0  0  0
  -17.3660  -26.3410   22.1120 C   0  0  0  0  0  3  0  0  0  0  0  0
  -25.9620  -31.6520   23.2610 C   0  0  0  0  0  3  0  0  0  0  0  0
  -25.5330  -32.9070   23.8920 N   0  0  0  0  0  0  0  0  0  0  0  0
  -25.6810  -34.1210   23.3450 C   0  0  0  0  0  0  0  0  0  0  0  0
  -26.2630  -34.3040   22.2730 O   0  0  0  0  0  0  0  0  0  0  0  0
  -24.9980  -32.8300   24.7450 H   0  0  0  0  0  0  0  0  0  0  0  0
  -23.7600  -35.7380   23.4540 C   0  0  0  0  0  1  0  0  0  0  0  0
  -25.0860  -35.3190   24.1070 C   0  0  0  0  0  3  0  0  0  0  0  0
  -27.1650  -36.2520   25.0200 C   0  0  0  0  0  1  0  0  0  0  0  0
  -25.9950  -36.4810   24.1750 N   0  0  0  0  0  0  0  0  0  0  0  0
  -25.5070  -37.3020   24.5240 H   0  0  0  0  0  0  0  0  0  0  0  0
  -26.7290  -30.7390   24.2940 C   0  0  1  0  0  0  0  0  0  0  0  0
  -25.8200  -30.1550   25.4020 C   0  0  0  0  0  1  0  0  0  0  0  0
  -27.4190  -29.5560   23.5740 C   0  0  0  0  0  1  0  0  0  0  0  0
  -27.8550  -31.5490   24.9770 C   0  0  0  0  0  1  0  0  0  0  0  0
  -24.5920  -21.3100   19.0450 C   0  0  0  0  0  1  0  0  0  0  0  0
  -25.4300  -23.0790   17.4850 C   0  0  0  0  0  1  0  0  0  0  0  0
  -25.7740  -21.7340   18.1550 C   0  0  0  0  0  3  0  0  0  0  0  0
  -28.7530  -18.7820   21.8710 C   0  0  0  0  0  1  0  0  0  0  0  0
  -29.5790  -19.3080   20.6800 C   0  0  0  0  0  3  0  0  0  0  0  0
  -29.8890  -18.1740   19.6550 C   0  0  0  0  0  2  0  0  0  0  0  0
  -30.4840  -16.8650   20.2700 C   0  0  0  0  0  2  0  0  0  0  0  0
  -31.6420  -14.8300   19.3560 C   0  0  0  0  0  0  0  0  0  0  0  0
  -31.2680  -12.5470   18.5330 C   0  0  0  0  0  2  0  0  0  0  0  0
  -30.2180  -12.6390   17.4050 C   0  0  0  0  0  2  0  0  0  0  0  0
  -28.7870  -12.5640   17.9770 C   0  0  0  0  0  2  0  0  0  0  0  0
  -28.5680  -13.5310   19.1750 C   0  0  0  0  0  3  0  0  0  0  0  0
  -29.7290  -13.4260   20.1920 C   0  0  0  0  0  2  0  0  0  0  0  0
  -30.9850  -13.6470   19.4640 N   0  0  0  0  0  0  0  0  0  0  0  0
  -32.7810  -14.9210   18.8920 O   0  0  0  0  0  0  0  0  0  0  0  0
  -30.8370  -15.8980   19.2250 N   0  0  0  0  0  0  0  0  0  0  0  0
  -31.1210  -16.4010   18.3990 H   0  0  0  0  0  0  0  0  0  0  0  0
  -26.3260  -14.2470   20.2110 C   0  0  0  0  0  0  0  0  0  0  0  0
  -25.2620  -13.5250   20.6780 C   0  0  0  0  0  0  0  0  0  0  0  0
  -25.6200  -12.1490   20.5230 C   0  0  0  0  0  0  0  0  0  0  0  0
  -27.2700  -13.3160   19.8080 N   0  0  0  0  0  0  0  0  0  0  0  0
  -26.8540  -12.0460   20.0500 N   0  0  0  0  0  0  0  0  0  0  0  0
  -24.8360  -10.9270   20.7390 C   0  0  0  0  0  0  0  0  0  0  0  0
  -25.1850   -9.9860   21.7320 C   0  0  0  0  0  3  0  0  0  0  0  0
  -24.4020   -8.8280   21.9280 C   0  0  0  0  0  3  0  0  0  0  0  0
  -23.2530   -8.6050   21.1320 C   0  0  0  0  0  0  0  0  0  0  0  0
  -22.9270   -9.5310   20.1280 C   0  0  0  0  0  3  0  0  0  0  0  0
  -23.7100  -10.6780   19.9310 C   0  0  0  0  0  3  0  0  0  0  0  0
  -22.4450   -7.5000   21.2360 O   0  0  0  0  0  0  0  0  0  0  0  0
  -22.1560   -6.9340   22.4530 C   0  0  0  0  0  0  0  0  0  0  0  0
  -21.5180   -7.6630   23.4810 C   0  0  0  0  0  3  0  0  0  0  0  0
  -21.1780   -7.0230   24.6910 C   0  0  0  0  0  3  0  0  0  0  0  0
  -21.4660   -5.6560   24.8690 C   0  0  0  0  0  0  0  0  0  0  0  0
  -22.1020   -4.9300   23.8470 C   0  0  0  0  0  3  0  0  0  0  0  0
  -22.4430   -5.5680   22.6420 C   0  0  0  0  0  0  0  0  0  0  0  0
  -23.0340   -4.8600   21.6500 F   0  0  0  0  0  0  0  0  0  0  0  0
  -21.1340   -5.0380   26.0260 F   0  0  0  0  0  0  0  0  0  0  0  0
  -23.9480  -14.0730   21.1550 C   0  0  0  0  0  0  0  0  0  0  0  0
  -23.3080  -13.4000   22.1020 N   0  0  0  0  0  0  0  0  0  0  0  0
  -23.5030  -15.1370   20.7210 O   0  0  0  0  0  0  0  0  0  0  0  0
  -23.6780  -12.5350   22.4700 H   0  0  0  0  0  0  0  0  0  0  0  0
  -22.4350  -13.7530   22.4690 H   0  0  0  0  0  0  0  0  0  0  0  0
  -26.5730  -15.6090   20.0820 N   0  0  0  0  0  0  0  0  0  0  0  0
  -25.8970  -16.3180   20.3430 H   0  0  0  0  0  0  0  0  0  0  0  0
  -27.4300  -15.9900   19.7020 H   0  0  0  0  0  0  0  0  0  0  0  0
  1  3  1  0
  2  3  1  0
  3 56  1  0
  4 54  1  0
  4  1  1  0
  5  6  1  0
  5  4  1  0
  5  2  1  0
  6  9  1  0
  7  6  1  0
  8  6  1  0
 10 11  1  0
 10  9  1  0
 11 13  1  0
 12 23  2  0
 13 18  1  0
 14 22  1  0
 14 24  1  0
 15 21  1  0
 15 17  1  0
 16 22  1  0
 17 16  1  0
 18 17  2  0
 19 20  1  0
 19 13  2  0
 20 15  2  0
 21 14  1  0
 22 12  1  0
 24 26  2  0
 25 24  1  0
 27 25  1  0
 28 37  2  0
 28 33  1  0
 29 25  1  0
 29 33  1  0
 30 29  1  0
 31 32  1  0
 31 30  1  0
 32 28  1  0
 33 34  2  0
 34 35  1  0
 36 35  2  0
 37 36  1  0
 38 12  1  0
 38 39  1  0
 38 48  1  0
 39 42  1  0
 40 39  1  0
 40 44  1  0
 41 40  2  0
 44 43  1  0
 44 46  1  0
 46 47  1  0
 46 45  1  0
 48 51  1  1
 48 49  1  0
 50 48  1  0
 53 54  1  0
 54 52  1  0
 56 55  1  0
 57 58  1  0
 57 56  1  0
 59 65  1  0
 60 65  1  0
 61 62  1  0
 61 60  1  0
 63 62  1  0
 63 72  1  0
 63 64  1  0
 65 64  1  0
 66 59  2  0
 67 59  1  0
 67 58  1  0
 68 67  1  0
 69 70  2  0
 70 89  1  0
 71 70  1  0
 71 74  1  0
 72 73  1  0
 72 69  1  0
 73 71  2  0
 74 75  1  0
 75 76  2  0
 77 80  1  0
 77 76  1  0
 78 77  2  0
 79 78  1  0
 79 74  2  0
 80 81  1  0
 81 86  2  0
 81 82  1  0
 82 83  2  0
 83 84  1  0
 84 88  1  0
 85 84  2  0
 86 85  1  0
 87 86  1  0
 89 90  1  0
 90 93  1  0
 90 92  1  0
 91 89  2  0
 94 69  1  0
 94 95  1  0
 96 94  1  0
M  ISO  4  10 101  11 101  59 100  67 100
M  END
>  <TORSDO>  (41) 
F 23

>  <SCORE>  (41) 
-6.176

>  <name>  (41) 
41

>  <ligand_id>  (41) 
41

>  <original_smiles>  (41) 
[H]c1c([H])c([H])c2c(c1[H])C([H])([H])C([H])([H])C([H])([H])C2([H])N([H])C(=O)C1([H])N(C(=O)C([H])(N([H])C(=O)C([H])(N([H])C([H])([H])[H])C([H])([H])[H])C(C([H])([H])[H])(C([H])([H])[H])C([H])([H])[H])C([H])([H])c2c([H])c(OC([H])([H])C([H])([H])[N+]([H])([H])C3([H])C([H])([H])C([H])(C([H])(C([H])([H])[H])C([H])([H])C([H])([H])N([H])C(=O)N4C([H])([H])C([H])([H])C([H])([H])C([H])(n5nc(-c6c([H])c([H])c(Oc7c([H])c([H])c(F)c([H])c7F)c([H])c6[H])c(C(=O)N([H])[H])c5N([H])[H])C4([H])[H])C([H])([H])C3([H])C([H])(C([H])([H])[H])C([H])([H])[H])c([H])c([H])c2C1([H])[H]

>  <smiles>  (41) 
[H]c1c([H])c([H])c2c(c1[H])C([H])([H])C([H])([H])C([H])([H])C2([H])N([H])C(=O)C1([H])N(C(=O)C([H])(N([H])C(=O)C([H])(N([H])C([H])([H])[H])C([H])([H])[H])C(C([H])([H])[H])(C([H])([H])[H])C([H])([H])[H])C([H])([H])c2c([H])c(OC([H])([H])C([H])([H])[N+]([H])([H])C3([H])C([H])([H])C([H])(C([H])(C([H])([H])[H])C([H])([H])C([H])([H])N([H])C(=O)N4C([H])([H])C([H])([H])C([H])([H])C([H])(n5nc(-c6c([H])c([H])c(Oc7c([H])c([H])c(F)c([H])c7F)c([H])c6[H])c(C(=O)N([H])[H])c5N([H])[H])C4([H])[H])C([H])([H])C3([H])C([H])(C([H])([H])[H])C([H])([H])[H])c([H])c([H])c2C1([H])[H]

$$$$
42:0:0
     RDKit          3D

 96106  0  0  1  0  0  0  0  0999 V2000
  -29.1020  -23.4330   21.6350 C   0  0  0  0  0  3  0  0  0  0  0  0
  -29.4410  -23.2760   19.2510 C   0  0  0  0  0  3  0  0  0  0  0  0
  -29.5980  -22.6980   20.5310 C   0  0  0  0  0  0  0  0  0  0  0  0
  -28.6310  -24.7660   21.4930 C   0  0  0  0  0  0  0  0  0  0  0  0
  -28.9470  -24.6000   19.0930 C   0  0  0  0  0  0  0  0  0  0  0  0
  -28.6030  -25.3870   20.2210 C   0  0  0  0  0  0  0  0  0  0  0  0
  -28.2610  -25.5600   22.7320 C   0  0  0  0  0  1  0  0  0  0  0  0
  -28.8660  -25.2080   17.7050 C   0  0  0  0  0  1  0  0  0  0  0  0
  -31.6520  -21.6350   21.7300 C   0  0  0  0  0  2  0  0  0  0  0  0
  -30.4970  -21.4780   20.7620 C   0  0  2  0  0  0  0  0  0  0  0  0
  -31.8230  -21.8320   20.3210 O   0  0  0  0  0  0  0  0  0  0  0  0
  -29.2620  -19.2970   21.4230 C   0  0  0  0  0  2  0  0  0  0  0  0
  -31.2090  -19.1900   19.7790 C   0  0  0  0  0  2  0  0  0  0  0  0
  -29.7130  -17.8250   21.6530 C   0  0  0  0  0  2  0  0  0  0  0  0
  -30.8810  -17.7220   19.3970 C   0  0  0  0  0  2  0  0  0  0  0  0
  -30.0240  -20.0650   20.3000 C   0  0  0  0  0  3  0  0  0  0  0  0
  -29.8510  -17.0390   20.3340 C   0  0  0  0  0  3  0  0  0  0  0  0
  -30.7000  -14.5730   20.0640 C   0  0  0  0  0  0  0  0  0  0  0  0
  -30.3780  -12.4060   18.9270 C   0  0  0  0  0  2  0  0  0  0  0  0
  -29.3760  -12.6370   17.7730 C   0  0  0  0  0  2  0  0  0  0  0  0
  -27.9220  -12.5030   18.2700 C   0  0  0  0  0  2  0  0  0  0  0  0
  -27.6560  -13.3170   19.5650 C   0  0  0  0  0  3  0  0  0  0  0  0
  -28.7640  -13.0580   20.6140 C   0  0  0  0  0  2  0  0  0  0  0  0
  -30.0620  -13.3710   19.9920 N   0  0  0  0  0  0  0  0  0  0  0  0
  -31.8070  -14.7630   19.5540 O   0  0  0  0  0  0  0  0  0  0  0  0
  -29.9270  -15.5690   20.5560 N   0  0  0  0  0  0  0  0  0  0  0  0
  -29.0950  -15.1980   20.9920 H   0  0  0  0  0  0  0  0  0  0  0  0
  -25.3070  -13.9430   20.4130 C   0  0  0  0  0  0  0  0  0  0  0  0
  -24.2490  -13.1760   20.8210 C   0  0  0  0  0  0  0  0  0  0  0  0
  -24.6880  -11.8190   20.7350 C   0  0  0  0  0  0  0  0  0  0  0  0
  -26.3260  -13.0520   20.1070 N   0  0  0  0  0  0  0  0  0  0  0  0
  -25.9580  -11.7690   20.3560 N   0  0  0  0  0  0  0  0  0  0  0  0
  -23.9540  -10.5640   20.9340 C   0  0  0  0  0  0  0  0  0  0  0  0
  -24.3870   -9.5950   21.8660 C   0  0  0  0  0  3  0  0  0  0  0  0
  -23.6560   -8.4030   22.0510 C   0  0  0  0  0  3  0  0  0  0  0  0
  -22.4760   -8.1710   21.3060 C   0  0  0  0  0  0  0  0  0  0  0  0
  -22.0610   -9.1290   20.3640 C   0  0  0  0  0  3  0  0  0  0  0  0
  -22.7930  -10.3120   20.1760 C   0  0  0  0  0  3  0  0  0  0  0  0
  -21.7130   -7.0310   21.4020 O   0  0  0  0  0  0  0  0  0  0  0  0
  -21.6210   -6.3250   22.5740 C   0  0  0  0  0  0  0  0  0  0  0  0
  -21.1460   -6.9170   23.7660 C   0  0  0  0  0  3  0  0  0  0  0  0
  -21.0010   -6.1350   24.9300 C   0  0  0  0  0  3  0  0  0  0  0  0
  -21.3200   -4.7640   24.9040 C   0  0  0  0  0  0  0  0  0  0  0  0
  -21.7880   -4.1730   23.7170 C   0  0  0  0  0  3  0  0  0  0  0  0
  -21.9350   -4.9510   22.5560 C   0  0  0  0  0  0  0  0  0  0  0  0
  -22.3650   -4.3720   21.4090 F   0  0  0  0  0  0  0  0  0  0  0  0
  -21.1740   -4.0120   26.0190 F   0  0  0  0  0  0  0  0  0  0  0  0
  -22.8760  -13.6660   21.1820 C   0  0  0  0  0  0  0  0  0  0  0  0
  -22.1850  -12.9600   22.0680 N   0  0  0  0  0  0  0  0  0  0  0  0
  -22.4260  -14.7100   20.7100 O   0  0  0  0  0  0  0  0  0  0  0  0
  -22.5610  -12.1140   22.4710 H   0  0  0  0  0  0  0  0  0  0  0  0
  -21.2660  -13.2700   22.3510 H   0  0  0  0  0  0  0  0  0  0  0  0
  -25.4840  -15.3150   20.2560 N   0  0  0  0  0  0  0  0  0  0  0  0
  -24.7280  -15.9740   20.4090 H   0  0  0  0  0  0  0  0  0  0  0  0
  -26.3170  -15.7500   19.8800 H   0  0  0  0  0  0  0  0  0  0  0  0
  -28.4820  -26.7680   20.0950 O   0  0  0  0  0  0  0  0  0  0  0  0
  -24.5880  -31.8860   23.2270 C   0  0  0  0  0  0  0  0  0  0  0  0
  -27.2810  -27.4490   20.1570 C   0  0  0  0  0  0  0  0  0  0  0  0
  -23.4050  -30.4790   21.5700 C   0  0  0  0  0  3  0  0  0  0  0  0
  -24.8800  -28.9450   20.1610 C   0  0  0  0  0  0  0  0  0  0  0  0
  -25.9280  -30.8550   21.3900 C   0  0  0  0  0  2  0  0  0  0  0  0
  -26.0280  -29.4780   20.7570 C   0  0  0  0  0  0  0  0  0  0  0  0
  -27.2310  -28.7330   20.7560 C   0  0  0  0  0  3  0  0  0  0  0  0
  -26.1160  -26.9330   19.5550 C   0  0  0  0  0  3  0  0  0  0  0  0
  -24.9170  -27.6750   19.5580 C   0  0  0  0  0  3  0  0  0  0  0  0
  -23.6320  -29.8000   20.1920 C   0  0  0  0  0  2  0  0  0  0  0  0
  -24.6590  -31.0890   22.1210 N   0  0  0  0  0  0  0  0  0  0  0  0
  -23.5020  -32.1460   23.7620 O   0  0  0  0  0  0  0  0  0  0  0  0
  -22.7550  -29.4520   22.5260 C   0  0  0  0  0  0  0  0  0  0  0  0
  -21.4330  -29.2560   22.3880 N   0  0  0  0  0  0  0  0  0  0  0  0
  -23.4370  -28.8320   23.3470 O   0  0  0  0  0  0  0  0  0  0  0  0
  -20.9420  -29.8070   21.6980 H   0  0  0  0  0  0  0  0  0  0  0  0
  -18.0720  -28.0090   22.8410 C   0  0  0  0  0  0  0  0  0  0  0  0
  -20.6210  -28.3060   23.1480 C   0  0  0  0  0  3  0  0  0  0  0  0
  -20.7540  -26.8760   22.5760 C   0  0  0  0  0  2  0  0  0  0  0  0
  -19.6740  -26.5350   21.5460 C   0  0  0  0  0  2  0  0  0  0  0  0
  -18.2810  -26.6600   22.1700 C   0  0  0  0  0  2  0  0  0  0  0  0
  -19.1720  -28.7870   23.2870 C   0  0  0  0  0  0  0  0  0  0  0  0
  -18.9280  -30.0470   23.8740 C   0  0  0  0  0  3  0  0  0  0  0  0
  -17.6140  -30.5330   24.0170 C   0  0  0  0  0  3  0  0  0  0  0  0
  -16.5270  -29.7510   23.5900 C   0  0  0  0  0  3  0  0  0  0  0  0
  -16.7560  -28.4910   23.0090 C   0  0  0  0  0  3  0  0  0  0  0  0
  -25.8650  -32.5280   23.8540 C   0  0  0  0  0  3  0  0  0  0  0  0
  -25.5440  -33.9230   24.1820 N   0  0  0  0  0  0  0  0  0  0  0  0
  -25.8770  -34.9780   23.4270 C   0  0  0  0  0  0  0  0  0  0  0  0
  -26.5600  -34.8790   22.4030 O   0  0  0  0  0  0  0  0  0  0  0  0
  -24.9420  -34.0750   24.9780 H   0  0  0  0  0  0  0  0  0  0  0  0
  -24.1450  -36.7620   23.0540 C   0  0  0  0  0  1  0  0  0  0  0  0
  -25.3790  -36.3630   23.8800 C   0  0  0  0  0  3  0  0  0  0  0  0
  -27.4930  -37.2630   24.7420 C   0  0  0  0  0  1  0  0  0  0  0  0
  -26.4050  -37.4220   23.7810 N   0  0  0  0  0  0  0  0  0  0  0  0
  -25.9890  -38.3380   23.9250 H   0  0  0  0  0  0  0  0  0  0  0  0
  -26.3820  -31.7590   25.1310 C   0  0  1  0  0  0  0  0  0  0  0  0
  -25.2850  -31.5070   26.1920 C   0  0  0  0  0  1  0  0  0  0  0  0
  -26.9790  -30.3900   24.7340 C   0  0  0  0  0  1  0  0  0  0  0  0
  -27.5190  -32.5640   25.8060 C   0  0  0  0  0  1  0  0  0  0  0  0
  2  3  1  0
  3  1  2  0
  4  1  1  0
  4  7  1  0
  5  2  2  0
  5  6  1  0
  6  4  2  0
  8  5  1  0
 10  3  1  0
 10  9  1  0
 11 10  1  0
 11  9  1  0
 12 14  1  0
 15 13  1  0
 15 17  1  0
 16 13  1  0
 10 16  1  6
 16 12  1  0
 17 26  1  0
 17 14  1  0
 18 26  1  0
 19 24  1  0
 20 21  1  0
 20 19  1  0
 22 21  1  0
 22 31  1  0
 22 23  1  0
 24 18  1  0
 24 23  1  0
 25 18  2  0
 26 27  1  0
 28 29  2  0
 29 48  1  0
 30 29  1  0
 30 33  1  0
 31 32  1  0
 31 28  1  0
 32 30  2  0
 33 34  1  0
 34 35  2  0
 36 39  1  0
 36 35  1  0
 37 36  2  0
 38 37  1  0
 38 33  2  0
 39 40  1  0
 40 41  1  0
 41 42  2  0
 43 42  1  0
 43 47  1  0
 44 43  2  0
 45 40  2  0
 45 44  1  0
 46 45  1  0
 48 49  1  0
 49 52  1  0
 49 51  1  0
 50 48  2  0
 53 54  1  0
 53 28  1  0
 55 53  1  0
 56 58  1  0
 56  6  1  0
 57 68  2  0
 58 63  1  0
 59 67  1  0
 59 69  1  0
 60 66  1  0
 60 62  1  0
 61 67  1  0
 62 61  1  0
 63 62  2  0
 64 65  1  0
 64 58  2  0
 65 60  2  0
 66 59  1  0
 67 57  1  0
 69 71  2  0
 70 69  1  0
 72 70  1  0
 73 82  2  0
 73 78  1  0
 74 70  1  0
 74 78  1  0
 75 74  1  0
 76 77  1  0
 76 75  1  0
 77 73  1  0
 78 79  2  0
 79 80  1  0
 81 80  2  0
 82 81  1  0
 83 57  1  0
 83 84  1  0
 83 93  1  0
 84 87  1  0
 85 89  1  0
 85 84  1  0
 86 85  2  0
 89 88  1  0
 91 89  1  0
 91 92  1  0
 91 90  1  0
 93 96  1  1
 93 94  1  0
 95 93  1  0
M  ISO  4   6 101  18 100  26 100  56 101
M  END
>  <TORSDO>  (42) 
F 18

>  <SCORE>  (42) 
-14.096

>  <name>  (42) 
42

>  <ligand_id>  (42) 
42

>  <original_smiles>  (42) 
[H]c1c([H])c([H])c2c(c1[H])C([H])([H])C([H])([H])C([H])([H])C2([H])N([H])C(=O)C1([H])N(C(=O)C([H])(N([H])C(=O)C([H])(N([H])C([H])([H])[H])C([H])([H])[H])C(C([H])([H])[H])(C([H])([H])[H])C([H])([H])[H])C([H])([H])c2c([H])c(Oc3c(C([H])([H])[H])c([H])c(C4(C5([H])C([H])([H])C([H])([H])C([H])(N([H])C(=O)N6C([H])([H])C([H])([H])C([H])([H])C([H])(n7nc(-c8c([H])c([H])c(Oc9c([H])c([H])c(F)c([H])c9F)c([H])c8[H])c(C(=O)N([H])[H])c7N([H])[H])C6([H])[H])C([H])([H])C5([H])[H])OC4([H])[H])c([H])c3C([H])([H])[H])c([H])c([H])c2C1([H])[H]

>  <smiles>  (42) 
[H]c1c([H])c([H])c2c(c1[H])C([H])([H])C([H])([H])C([H])([H])C2([H])N([H])C(=O)C1([H])N(C(=O)C([H])(N([H])C(=O)C([H])(N([H])C([H])([H])[H])C([H])([H])[H])C(C([H])([H])[H])(C([H])([H])[H])C([H])([H])[H])C([H])([H])c2c([H])c(Oc3c(C([H])([H])[H])c([H])c(C4(C5([H])C([H])([H])C([H])([H])C([H])(N([H])C(=O)N6C([H])([H])C([H])([H])C([H])([H])C([H])(n7nc(-c8c([H])c([H])c(Oc9c([H])c([H])c(F)c([H])c9F)c([H])c8[H])c(C(=O)N([H])[H])c7N([H])[H])C6([H])[H])C([H])([H])C5([H])[H])OC4([H])[H])c([H])c3C([H])([H])[H])c([H])c([H])c2C1([H])[H]

$$$$
43:0:0
     RDKit          3D

 91 99  0  0  1  0  0  0  0  0999 V2000
  -27.0800  -24.0310   20.1630 C   0  0  0  0  0  0  0  0  0  0  0  0
  -27.6310  -22.7250   19.5790 C   0  0  0  0  0  2  0  0  0  0  0  0
  -29.3960  -23.9910   20.7340 C   0  0  0  0  0  2  0  0  0  0  0  0
  -28.1550  -24.9850   20.7260 C   0  0  0  0  0  3  0  0  0  0  0  0
  -29.0820  -22.5700   20.0670 C   0  0  0  0  0  3  0  0  0  0  0  0
  -25.8670  -24.1880   20.3260 O   0  0  0  0  0  0  0  0  0  0  0  0
  -29.3310  -21.2770   20.8650 N   0  0  0  0  0  4  0  0  0  0  0  0
  -28.5510  -21.1200   21.4830 H   0  0  0  0  0  0  0  0  0  0  0  0
  -30.1330  -21.4340   21.4550 H   0  0  0  0  0  0  0  0  0  0  0  0
  -29.6240  -19.9760   20.1040 C   0  0  0  0  0  2  0  0  0  0  0  0
  -29.5650  -18.5560   20.8790 C   0  0  0  0  0  3  0  0  0  0  0  0
  -30.1730  -17.2560   20.1410 C   0  0  0  0  0  3  0  0  0  0  0  0
  -30.6130  -14.7060   20.3780 C   0  0  0  0  0  0  0  0  0  0  0  0
  -30.3730  -12.4430   19.3690 C   0  0  0  0  0  2  0  0  0  0  0  0
  -29.4420  -12.5440   18.1410 C   0  0  0  0  0  2  0  0  0  0  0  0
  -27.9690  -12.3890   18.5650 C   0  0  0  0  0  2  0  0  0  0  0  0
  -27.6030  -13.2750   19.7860 C   0  0  0  0  0  3  0  0  0  0  0  0
  -28.6570  -13.1700   20.9120 C   0  0  0  0  0  2  0  0  0  0  0  0
  -29.9650  -13.4940   20.3280 N   0  0  0  0  0  0  0  0  0  0  0  0
  -31.7800  -14.8040   19.9930 O   0  0  0  0  0  0  0  0  0  0  0  0
  -29.8710  -15.8430   20.6310 N   0  0  0  0  0  0  0  0  0  0  0  0
  -28.9300  -15.6760   20.9540 H   0  0  0  0  0  0  0  0  0  0  0  0
  -25.2110  -13.8790   20.4940 C   0  0  0  0  0  0  0  0  0  0  0  0
  -24.1410  -13.1090   20.8660 C   0  0  0  0  0  0  0  0  0  0  0  0
  -24.6010  -11.7570   20.8470 C   0  0  0  0  0  0  0  0  0  0  0  0
  -26.2540  -12.9950   20.2700 N   0  0  0  0  0  0  0  0  0  0  0  0
  -25.8930  -11.7140   20.5440 N   0  0  0  0  0  0  0  0  0  0  0  0
  -23.8700  -10.4980   21.0430 C   0  0  0  0  0  0  0  0  0  0  0  0
  -24.3100   -9.5250   21.9680 C   0  0  0  0  0  3  0  0  0  0  0  0
  -23.5800   -8.3320   22.1520 C   0  0  0  0  0  3  0  0  0  0  0  0
  -22.3950   -8.1020   21.4120 C   0  0  0  0  0  0  0  0  0  0  0  0
  -21.9740   -9.0640   20.4770 C   0  0  0  0  0  3  0  0  0  0  0  0
  -22.7050  -10.2490   20.2900 C   0  0  0  0  0  3  0  0  0  0  0  0
  -21.6350   -6.9610   21.5070 O   0  0  0  0  0  0  0  0  0  0  0  0
  -21.6140   -6.2030   22.6500 C   0  0  0  0  0  0  0  0  0  0  0  0
  -21.2400   -6.7470   23.8980 C   0  0  0  0  0  3  0  0  0  0  0  0
  -21.1650   -5.9160   25.0350 C   0  0  0  0  0  3  0  0  0  0  0  0
  -21.4530   -4.5440   24.9240 C   0  0  0  0  0  0  0  0  0  0  0  0
  -21.8200   -3.9990   23.6810 C   0  0  0  0  0  3  0  0  0  0  0  0
  -21.8970   -4.8270   22.5460 C   0  0  0  0  0  0  0  0  0  0  0  0
  -22.2310   -4.2920   21.3470 F   0  0  0  0  0  0  0  0  0  0  0  0
  -21.3740   -3.7430   26.0130 F   0  0  0  0  0  0  0  0  0  0  0  0
  -22.7440  -13.5930   21.1280 C   0  0  0  0  0  0  0  0  0  0  0  0
  -22.0120  -12.9050   21.9980 N   0  0  0  0  0  0  0  0  0  0  0  0
  -22.3110  -14.6140   20.5970 O   0  0  0  0  0  0  0  0  0  0  0  0
  -22.3750  -12.0790   22.4490 H   0  0  0  0  0  0  0  0  0  0  0  0
  -21.0740  -13.2110   22.2170 H   0  0  0  0  0  0  0  0  0  0  0  0
  -25.3780  -15.2470   20.3050 N   0  0  0  0  0  0  0  0  0  0  0  0
  -24.6080  -15.9010   20.4000 H   0  0  0  0  0  0  0  0  0  0  0  0
  -26.2220  -15.6800   19.9510 H   0  0  0  0  0  0  0  0  0  0  0  0
  -28.2770  -26.3770   20.1290 O   0  0  0  0  0  0  0  0  0  0  0  0
  -24.6230  -31.8640   23.2200 C   0  0  0  0  0  0  0  0  0  0  0  0
  -27.1890  -27.2810   20.1310 C   0  0  0  0  0  0  0  0  0  0  0  0
  -23.4080  -30.4790   21.5790 C   0  0  0  0  0  3  0  0  0  0  0  0
  -24.8480  -28.9410   20.1300 C   0  0  0  0  0  0  0  0  0  0  0  0
  -25.9510  -30.7770   21.3940 C   0  0  0  0  0  2  0  0  0  0  0  0
  -26.0210  -29.3990   20.7430 C   0  0  0  0  0  0  0  0  0  0  0  0
  -27.1940  -28.5770   20.7450 C   0  0  0  0  0  3  0  0  0  0  0  0
  -26.0200  -26.9340   19.4240 C   0  0  0  0  0  3  0  0  0  0  0  0
  -24.8510  -27.7130   19.4580 C   0  0  0  0  0  3  0  0  0  0  0  0
  -23.6140  -29.8190   20.1920 C   0  0  0  0  0  2  0  0  0  0  0  0
  -24.6800  -31.0580   22.1190 N   0  0  0  0  0  0  0  0  0  0  0  0
  -23.5420  -32.1410   23.7620 O   0  0  0  0  0  0  0  0  0  0  0  0
  -22.7490  -29.4530   22.5340 C   0  0  0  0  0  0  0  0  0  0  0  0
  -21.4220  -29.2780   22.4150 N   0  0  0  0  0  0  0  0  0  0  0  0
  -23.4320  -28.8210   23.3450 O   0  0  0  0  0  0  0  0  0  0  0  0
  -20.9310  -29.8400   21.7360 H   0  0  0  0  0  0  0  0  0  0  0  0
  -18.0480  -28.0770   22.9270 C   0  0  0  0  0  0  0  0  0  0  0  0
  -20.6070  -28.3380   23.1860 C   0  0  0  0  0  3  0  0  0  0  0  0
  -20.7080  -26.9080   22.6070 C   0  0  0  0  0  2  0  0  0  0  0  0
  -19.6010  -26.5870   21.5950 C   0  0  0  0  0  2  0  0  0  0  0  0
  -18.2220  -26.7300   22.2460 C   0  0  0  0  0  2  0  0  0  0  0  0
  -19.1670  -28.8390   23.3530 C   0  0  0  0  0  0  0  0  0  0  0  0
  -18.9500  -30.0990   23.9510 C   0  0  0  0  0  3  0  0  0  0  0  0
  -17.6450  -30.5990   24.1240 C   0  0  0  0  0  3  0  0  0  0  0  0
  -16.5400  -29.8330   23.7120 C   0  0  0  0  0  3  0  0  0  0  0  0
  -16.7420  -28.5750   23.1190 C   0  0  0  0  0  3  0  0  0  0  0  0
  -25.9100  -32.4910   23.8360 C   0  0  0  0  0  3  0  0  0  0  0  0
  -26.4360  -31.7090   25.1020 C   0  0  1  0  0  0  0  0  0  0  0  0
  -25.3520  -31.4650   26.1770 C   0  0  0  0  0  1  0  0  0  0  0  0
  -27.0140  -30.3330   24.6980 C   0  0  0  0  0  1  0  0  0  0  0  0
  -27.5940  -32.4980   25.7600 C   0  0  0  0  0  1  0  0  0  0  0  0
  -25.6020  -33.8870   24.1810 N   0  0  0  0  0  0  0  0  0  0  0  0
  -25.9240  -34.9470   23.4280 C   0  0  0  0  0  0  0  0  0  0  0  0
  -26.5820  -34.8530   22.3880 O   0  0  0  0  0  0  0  0  0  0  0  0
  -25.0160  -34.0320   24.9890 H   0  0  0  0  0  0  0  0  0  0  0  0
  -24.1870  -36.7390   23.1150 C   0  0  0  0  0  1  0  0  0  0  0  0
  -25.4410  -36.3300   23.9040 C   0  0  0  0  0  3  0  0  0  0  0  0
  -27.5870  -37.2110   24.7090 C   0  0  0  0  0  1  0  0  0  0  0  0
  -26.4690  -37.3860   23.7850 N   0  0  0  0  0  0  0  0  0  0  0  0
  -26.0640  -38.3040   23.9470 H   0  0  0  0  0  0  0  0  0  0  0  0
  1  6  2  0
  1  4  1  0
  2  5  1  0
  2  1  1  0
  4 51  1  0
  4  3  1  0
  5  3  1  0
  5  7  1  0
  7  9  1  0
  7  8  1  0
 10  7  1  0
 10 11  1  0
 12 21  1  0
 12 11  2  0
 13 21  1  0
 14 19  1  0
 15 16  1  0
 15 14  1  0
 17 16  1  0
 17 26  1  0
 17 18  1  0
 19 13  1  0
 19 18  1  0
 20 13  2  0
 21 22  1  0
 23 24  2  0
 24 43  1  0
 25 24  1  0
 25 28  1  0
 26 23  1  0
 26 27  1  0
 27 25  2  0
 28 29  1  0
 29 30  2  0
 31 34  1  0
 31 30  1  0
 32 31  2  0
 33 32  1  0
 33 28  2  0
 34 35  1  0
 35 36  1  0
 36 37  2  0
 38 37  1  0
 38 42  1  0
 39 38  2  0
 40 35  2  0
 40 39  1  0
 41 40  1  0
 43 44  1  0
 44 47  1  0
 44 46  1  0
 45 43  2  0
 48 49  1  0
 48 23  1  0
 50 48  1  0
 51 53  1  0
 52 63  2  0
 53 58  1  0
 54 62  1  0
 54 64  1  0
 55 61  1  0
 55 57  1  0
 56 62  1  0
 57 58  2  0
 57 56  1  0
 59 60  1  0
 59 53  2  0
 60 55  2  0
 61 54  1  0
 62 52  1  0
 64 66  2  0
 65 64  1  0
 67 65  1  0
 68 77  2  0
 68 73  1  0
 69 65  1  0
 69 73  1  0
 70 69  1  0
 71 72  1  0
 71 70  1  0
 72 68  1  0
 73 74  2  0
 74 75  1  0
 76 75  2  0
 77 76  1  0
 78 52  1  0
 78 83  1  0
 78 79  1  0
 79 82  1  1
 79 80  1  0
 81 79  1  0
 83 86  1  0
 84 88  1  0
 84 83  1  0
 85 84  2  0
 88 87  1  0
 90 88  1  0
 90 91  1  0
 90 89  1  0
M  ISO  4   4 101  13 100  21 100  51 101
M  END
>  <TORSDO>  (43) 
F 20

>  <SCORE>  (43) 
-13.661

>  <name>  (43) 
43

>  <ligand_id>  (43) 
43

>  <original_smiles>  (43) 
[H]c1c([H])c([H])c2c(c1[H])C([H])([H])C([H])([H])C([H])([H])C2([H])N([H])C(=O)C1([H])N(C(=O)C([H])(N([H])C(=O)C([H])(N([H])C([H])([H])[H])C([H])([H])[H])C(C([H])([H])[H])(C([H])([H])[H])C([H])([H])[H])C([H])([H])c2c([H])c(OC3([H])C(=O)C([H])([H])C([H])([N+]([H])([H])C([H])([H])C([H])([H])C([H])([H])N([H])C(=O)N4C([H])([H])C([H])([H])C([H])([H])C([H])(n5nc(-c6c([H])c([H])c(Oc7c([H])c([H])c(F)c([H])c7F)c([H])c6[H])c(C(=O)N([H])[H])c5N([H])[H])C4([H])[H])C3([H])[H])c([H])c([H])c2C1([H])[H]

>  <smiles>  (43) 
[H]c1c([H])c([H])c2c(c1[H])C([H])([H])C([H])([H])C([H])([H])C2([H])N([H])C(=O)C1([H])N(C(=O)C([H])(N([H])C(=O)C([H])(N([H])C([H])([H])[H])C([H])([H])[H])C(C([H])([H])[H])(C([H])([H])[H])C([H])([H])[H])C([H])([H])c2c([H])c(OC3([H])C(=O)C([H])([H])C([H])([N+]([H])([H])C([H])([H])C([H])([H])C([H])([H])N([H])C(=O)N4C([H])([H])C([H])([H])C([H])([H])C([H])(n5nc(-c6c([H])c([H])c(Oc7c([H])c([H])c(F)c([H])c7F)c([H])c6[H])c(C(=O)N([H])[H])c5N([H])[H])C4([H])[H])C3([H])[H])c([H])c([H])c2C1([H])[H]

$$$$
44:0:0
     RDKit          3D

 95104  0  0  1  0  0  0  0  0999 V2000
  -28.1980  -22.6370   20.8610 C   0  0  0  0  0  2  0  0  0  0  0  0
  -30.1870  -23.5770   19.7280 C   0  0  0  0  0  2  0  0  0  0  0  0
  -28.3940  -21.2820   20.1100 C   0  0  0  0  0  2  0  0  0  0  0  0
  -30.3970  -22.1970   18.9860 C   0  0  0  0  0  2  0  0  0  0  0  0
  -28.7100  -23.9080   20.1190 C   0  0  0  0  0  3  0  0  0  0  0  0
  -29.8690  -20.9340   19.7510 C   0  0  0  0  0  3  0  0  0  0  0  0
  -29.9510  -19.6210   18.9800 N   0  0  0  0  0  4  0  0  0  0  0  0
  -30.1150  -19.8310   18.0090 H   0  0  0  0  0  0  0  0  0  0  0  0
  -29.0270  -19.2260   19.0140 H   0  0  0  0  0  0  0  0  0  0  0  0
  -30.8940  -18.4990   19.3880 C   0  0  0  0  0  2  0  0  0  0  0  0
  -31.5260  -14.9180   19.6600 C   0  0  0  0  0  0  0  0  0  0  0  0
  -31.1240  -12.6660   18.6680 C   0  0  0  0  0  2  0  0  0  0  0  0
  -30.0840  -12.7820   17.5350 C   0  0  0  0  0  2  0  0  0  0  0  0
  -28.6510  -12.6730   18.0900 C   0  0  0  0  0  2  0  0  0  0  0  0
  -28.4240  -13.5770   19.3290 C   0  0  0  0  0  3  0  0  0  0  0  0
  -29.5710  -13.4350   20.3500 C   0  0  0  0  0  2  0  0  0  0  0  0
  -30.8400  -13.7280   19.6570 N   0  0  0  0  0  0  0  0  0  0  0  0
  -32.5650  -15.0590   19.0070 O   0  0  0  0  0  0  0  0  0  0  0  0
  -29.3050  -17.4280   21.0910 C   0  0  0  0  0  2  0  0  0  0  0  0
  -31.1820  -16.0950   21.7900 C   0  0  0  0  0  2  0  0  0  0  0  0
  -30.2620  -17.2230   22.2670 C   0  0  0  0  0  3  0  0  0  0  0  0
  -30.1650  -17.1490   19.8470 C   0  0  0  0  0  3  0  0  0  0  0  0
  -30.9870  -15.9810   20.3390 N   0  0  0  0  0  0  0  0  0  0  0  0
  -26.1580  -14.2520   20.3360 C   0  0  0  0  0  0  0  0  0  0  0  0
  -25.0970  -13.5160   20.7840 C   0  0  0  0  0  0  0  0  0  0  0  0
  -25.4730  -12.1470   20.6270 C   0  0  0  0  0  0  0  0  0  0  0  0
  -27.1210  -13.3350   19.9430 N   0  0  0  0  0  0  0  0  0  0  0  0
  -26.7190  -12.0590   20.1780 N   0  0  0  0  0  0  0  0  0  0  0  0
  -24.6980  -10.9160   20.8260 C   0  0  0  0  0  0  0  0  0  0  0  0
  -25.0600   -9.9660   21.8070 C   0  0  0  0  0  3  0  0  0  0  0  0
  -24.2880   -8.7980   21.9930 C   0  0  0  0  0  3  0  0  0  0  0  0
  -23.1420   -8.5710   21.1950 C   0  0  0  0  0  0  0  0  0  0  0  0
  -22.8010   -9.5080   20.2030 C   0  0  0  0  0  3  0  0  0  0  0  0
  -23.5730  -10.6660   20.0160 C   0  0  0  0  0  3  0  0  0  0  0  0
  -22.3460   -7.4540   21.2880 O   0  0  0  0  0  0  0  0  0  0  0  0
  -22.0690   -6.8670   22.4960 C   0  0  0  0  0  0  0  0  0  0  0  0
  -21.4810   -7.5880   23.5590 C   0  0  0  0  0  3  0  0  0  0  0  0
  -21.1480   -6.9270   24.7580 C   0  0  0  0  0  3  0  0  0  0  0  0
  -21.3940   -5.5480   24.8940 C   0  0  0  0  0  0  0  0  0  0  0  0
  -21.9760   -4.8290   23.8370 C   0  0  0  0  0  3  0  0  0  0  0  0
  -22.3100   -5.4860   22.6390 C   0  0  0  0  0  0  0  0  0  0  0  0
  -22.8520   -4.7830   21.6160 F   0  0  0  0  0  0  0  0  0  0  0  0
  -21.0670   -4.9120   26.0440 F   0  0  0  0  0  0  0  0  0  0  0  0
  -23.7670  -14.0490   21.2360 C   0  0  0  0  0  0  0  0  0  0  0  0
  -23.1350  -13.3790   22.1930 N   0  0  0  0  0  0  0  0  0  0  0  0
  -23.3050  -15.0910   20.7740 O   0  0  0  0  0  0  0  0  0  0  0  0
  -23.5280  -12.5340   22.5820 H   0  0  0  0  0  0  0  0  0  0  0  0
  -22.2520  -13.7170   22.5510 H   0  0  0  0  0  0  0  0  0  0  0  0
  -26.3770  -15.6200   20.2000 N   0  0  0  0  0  0  0  0  0  0  0  0
  -25.6410  -16.2960   20.3680 H   0  0  0  0  0  0  0  0  0  0  0  0
  -27.1800  -16.0140   19.7300 H   0  0  0  0  0  0  0  0  0  0  0  0
  -30.5100  -19.3810   23.2800 C   0  0  0  0  0  1  0  0  0  0  0  0
  -31.0810  -18.3690   22.4650 O   0  0  0  0  0  0  0  0  0  0  0  0
  -28.4720  -25.2170   21.0090 C   0  0  0  0  0  2  0  0  0  0  0  0
  -28.6430  -26.5810   20.4900 O   0  0  0  0  0  0  0  0  0  0  0  0
  -24.6670  -31.9400   23.2460 C   0  0  0  0  0  0  0  0  0  0  0  0
  -27.4990  -27.3770   20.4350 C   0  0  0  0  0  0  0  0  0  0  0  0
  -23.5560  -30.4550   21.6130 C   0  0  0  0  0  3  0  0  0  0  0  0
  -25.0910  -28.8920   20.2940 C   0  0  0  0  0  0  0  0  0  0  0  0
  -26.0880  -30.8410   21.5000 C   0  0  0  0  0  2  0  0  0  0  0  0
  -26.2240  -29.4440   20.9080 C   0  0  0  0  0  0  0  0  0  0  0  0
  -27.4350  -28.6980   20.9670 C   0  0  0  0  0  3  0  0  0  0  0  0
  -26.3480  -26.8600   19.8100 C   0  0  0  0  0  3  0  0  0  0  0  0
  -25.1530  -27.6030   19.7390 C   0  0  0  0  0  3  0  0  0  0  0  0
  -23.8330  -29.7320   20.2660 C   0  0  0  0  0  2  0  0  0  0  0  0
  -24.7870  -31.0980   22.1770 N   0  0  0  0  0  0  0  0  0  0  0  0
  -23.5590  -32.2070   23.7340 O   0  0  0  0  0  0  0  0  0  0  0  0
  -22.8860  -29.4580   22.5880 C   0  0  0  0  0  0  0  0  0  0  0  0
  -21.5660  -29.2640   22.4360 N   0  0  0  0  0  0  0  0  0  0  0  0
  -23.5540  -28.8610   23.4370 O   0  0  0  0  0  0  0  0  0  0  0  0
  -21.0860  -29.7970   21.7240 H   0  0  0  0  0  0  0  0  0  0  0  0
  -18.1870  -28.0590   22.9060 C   0  0  0  0  0  0  0  0  0  0  0  0
  -20.7390  -28.3340   23.2080 C   0  0  0  0  0  3  0  0  0  0  0  0
  -20.8570  -26.8940   22.6580 C   0  0  0  0  0  2  0  0  0  0  0  0
  -19.7700  -26.5470   21.6330 C   0  0  0  0  0  2  0  0  0  0  0  0
  -18.3790  -26.6980   22.2580 C   0  0  0  0  0  2  0  0  0  0  0  0
  -19.2950  -28.8330   23.3380 C   0  0  0  0  0  0  0  0  0  0  0  0
  -19.0650  -30.1060   23.9030 C   0  0  0  0  0  3  0  0  0  0  0  0
  -17.7550  -30.6030   24.0440 C   0  0  0  0  0  3  0  0  0  0  0  0
  -16.6590  -29.8270   23.6290 C   0  0  0  0  0  3  0  0  0  0  0  0
  -16.8750  -28.5570   23.0630 C   0  0  0  0  0  3  0  0  0  0  0  0
  -25.9120  -32.6220   23.8900 C   0  0  0  0  0  3  0  0  0  0  0  0
  -26.4130  -31.8940   25.1980 C   0  0  1  0  0  0  0  0  0  0  0  0
  -25.2860  -31.5920   26.2150 C   0  0  0  0  0  1  0  0  0  0  0  0
  -27.1010  -30.5540   24.8480 C   0  0  0  0  0  1  0  0  0  0  0  0
  -27.4760  -32.7650   25.9070 C   0  0  0  0  0  1  0  0  0  0  0  0
  -25.5530  -34.0180   24.1800 N   0  0  0  0  0  0  0  0  0  0  0  0
  -25.8750  -35.0630   23.4050 C   0  0  0  0  0  0  0  0  0  0  0  0
  -26.5740  -34.9550   22.3940 O   0  0  0  0  0  0  0  0  0  0  0  0
  -24.9360  -34.1730   24.9640 H   0  0  0  0  0  0  0  0  0  0  0  0
  -24.1160  -36.8040   22.9570 C   0  0  0  0  0  1  0  0  0  0  0  0
  -25.3370  -36.4460   23.8180 C   0  0  0  0  0  3  0  0  0  0  0  0
  -27.4200  -37.4030   24.7050 C   0  0  0  0  0  1  0  0  0  0  0  0
  -26.3470  -37.5220   23.7190 N   0  0  0  0  0  0  0  0  0  0  0  0
  -25.9140  -38.4350   23.8320 H   0  0  0  0  0  0  0  0  0  0  0  0
  2  5  1  0
  3  1  1  0
  4  2  1  0
  4  6  1  0
  5  1  1  0
  5 54  1  0
  6  7  1  0
  6  3  1  0
  7  9  1  0
  7 10  1  0
  8  7  1  0
 11 23  1  0
 12 17  1  0
 13 14  1  0
 13 12  1  0
 15 14  1  0
 15 27  1  0
 15 16  1  0
 17 11  1  0
 17 16  1  0
 18 11  2  0
 19 21  1  0
 20 21  1  0
 21 53  1  0
 22 10  1  0
 22 23  1  0
 22 19  1  0
 23 20  1  0
 24 25  2  0
 25 44  1  0
 26 25  1  0
 26 29  1  0
 27 28  1  0
 27 24  1  0
 28 26  2  0
 29 30  1  0
 30 31  2  0
 32 35  1  0
 32 31  1  0
 33 32  2  0
 34 33  1  0
 34 29  2  0
 35 36  1  0
 36 41  2  0
 36 37  1  0
 37 38  2  0
 38 39  1  0
 39 43  1  0
 40 39  2  0
 41 40  1  0
 42 41  1  0
 44 45  1  0
 45 48  1  0
 45 47  1  0
 46 44  2  0
 49 24  1  0
 49 50  1  0
 51 49  1  0
 53 52  1  0
 55 54  1  0
 56 67  2  0
 57 55  1  0
 57 62  1  0
 58 66  1  0
 58 68  1  0
 59 61  1  0
 60 66  1  0
 61 62  2  0
 61 60  1  0
 63 57  2  0
 64 63  1  0
 64 59  2  0
 65 59  1  0
 65 58  1  0
 66 56  1  0
 68 70  2  0
 69 68  1  0
 71 69  1  0
 72 81  2  0
 72 77  1  0
 73 69  1  0
 73 77  1  0
 74 73  1  0
 75 76  1  0
 75 74  1  0
 76 72  1  0
 77 78  2  0
 78 79  1  0
 80 79  2  0
 81 80  1  0
 82 56  1  0
 82 87  1  0
 82 83  1  0
 83 86  1  1
 83 84  1  0
 85 83  1  0
 87 90  1  0
 88 92  1  0
 88 87  1  0
 89 88  2  0
 92 91  1  0
 94 92  1  0
 94 95  1  0
 94 93  1  0
M  ISO  4  11 100  23 100  54 101  55 101
M  END
>  <TORSDO>  (44) 
F 20

>  <SCORE>  (44) 
-11.969

>  <name>  (44) 
44

>  <ligand_id>  (44) 
44

>  <original_smiles>  (44) 
[H]c1c([H])c([H])c2c(c1[H])C([H])([H])C([H])([H])C([H])([H])C2([H])N([H])C(=O)C1([H])N(C(=O)C([H])(N([H])C(=O)C([H])(N([H])C([H])([H])[H])C([H])([H])[H])C(C([H])([H])[H])(C([H])([H])[H])C([H])([H])[H])C([H])([H])c2c([H])c(OC([H])([H])C3([H])C([H])([H])C([H])([H])C([H])([N+]([H])([H])C([H])([H])C4([H])N(C(=O)N5C([H])([H])C([H])([H])C([H])([H])C([H])(n6nc(-c7c([H])c([H])c(Oc8c([H])c([H])c(F)c([H])c8F)c([H])c7[H])c(C(=O)N([H])[H])c6N([H])[H])C5([H])[H])C([H])([H])C([H])(OC([H])([H])[H])C4([H])[H])C([H])([H])C3([H])[H])c([H])c([H])c2C1([H])[H]

>  <smiles>  (44) 
[H]c1c([H])c([H])c2c(c1[H])C([H])([H])C([H])([H])C([H])([H])C2([H])N([H])C(=O)C1([H])N(C(=O)C([H])(N([H])C(=O)C([H])(N([H])C([H])([H])[H])C([H])([H])[H])C(C([H])([H])[H])(C([H])([H])[H])C([H])([H])[H])C([H])([H])c2c([H])c(OC([H])([H])C3([H])C([H])([H])C([H])([H])C([H])([N+]([H])([H])C([H])([H])C4([H])N(C(=O)N5C([H])([H])C([H])([H])C([H])([H])C([H])(n6nc(-c7c([H])c([H])c(Oc8c([H])c([H])c(F)c([H])c8F)c([H])c7[H])c(C(=O)N([H])[H])c6N([H])[H])C5([H])[H])C([H])([H])C([H])(OC([H])([H])[H])C4([H])[H])C([H])([H])C3([H])[H])c([H])c([H])c2C1([H])[H]

$$$$
45:0:0
     RDKit          3D

 95105  0  0  1  0  0  0  0  0999 V2000
  -29.1690  -22.8800   21.3650 C   0  0  0  0  0  3  0  0  0  0  0  0
  -28.6940  -22.4250   19.0980 C   0  0  0  0  0  3  0  0  0  0  0  0
  -29.5090  -21.4790   21.5660 C   0  0  0  0  0  0  0  0  0  0  0  0
  -29.4520  -20.4800   20.5190 C   0  0  0  0  0  0  0  0  0  0  0  0
  -28.7580  -23.4270   20.1170 C   0  0  0  0  0  0  0  0  0  0  0  0
  -29.0150  -21.0220   19.2640 C   0  0  0  0  0  0  0  0  0  0  0  0
  -30.5380  -21.9400   23.9510 C   0  0  0  0  0  2  0  0  0  0  0  0
  -31.1720  -20.6540   23.4930 C   0  0  0  0  0  2  0  0  0  0  0  0
  -29.7940  -21.0420   22.9850 C   0  0  0  0  0  3  0  0  0  0  0  0
  -28.5430  -18.0020   20.4710 C   0  0  0  0  0  2  0  0  0  0  0  0
  -29.6810  -18.8940   20.8380 C   0  0  0  0  0  3  0  0  0  0  0  0
  -29.9050  -17.4890   20.0150 C   0  0  0  0  0  3  0  0  0  0  0  0
  -30.8310  -14.9460   20.1880 C   0  0  0  0  0  0  0  0  0  0  0  0
  -30.6910  -12.6430   19.1930 C   0  0  0  0  0  2  0  0  0  0  0  0
  -29.7370  -12.7080   17.9760 C   0  0  0  0  0  2  0  0  0  0  0  0
  -28.2660  -12.5510   18.4130 C   0  0  0  0  0  2  0  0  0  0  0  0
  -27.9100  -13.4160   19.6520 C   0  0  0  0  0  3  0  0  0  0  0  0
  -28.9800  -13.2910   20.7590 C   0  0  0  0  0  2  0  0  0  0  0  0
  -30.2650  -13.6850   20.1650 N   0  0  0  0  0  0  0  0  0  0  0  0
  -31.9910  -15.0890   19.7850 O   0  0  0  0  0  0  0  0  0  0  0  0
  -30.0010  -16.0360   20.4840 N   0  0  0  0  0  0  0  0  0  0  0  0
  -29.1280  -15.7130   20.8730 H   0  0  0  0  0  0  0  0  0  0  0  0
  -25.5320  -14.0230   20.4000 C   0  0  0  0  0  0  0  0  0  0  0  0
  -24.4600  -13.2560   20.7730 C   0  0  0  0  0  0  0  0  0  0  0  0
  -24.9140  -11.9010   20.7350 C   0  0  0  0  0  0  0  0  0  0  0  0
  -26.5660  -13.1350   20.1560 N   0  0  0  0  0  0  0  0  0  0  0  0
  -26.2040  -11.8550   20.4190 N   0  0  0  0  0  0  0  0  0  0  0  0
  -24.1760  -10.6450   20.9250 C   0  0  0  0  0  0  0  0  0  0  0  0
  -24.5690   -9.7010   21.8990 C   0  0  0  0  0  3  0  0  0  0  0  0
  -23.8340   -8.5080   22.0770 C   0  0  0  0  0  3  0  0  0  0  0  0
  -22.6910   -8.2540   21.2820 C   0  0  0  0  0  0  0  0  0  0  0  0
  -22.3190   -9.1850   20.2960 C   0  0  0  0  0  3  0  0  0  0  0  0
  -23.0550  -10.3680   20.1160 C   0  0  0  0  0  3  0  0  0  0  0  0
  -21.9270   -7.1150   21.3700 O   0  0  0  0  0  0  0  0  0  0  0  0
  -21.7790   -6.4360   22.5510 C   0  0  0  0  0  0  0  0  0  0  0  0
  -21.2420   -7.0500   23.7050 C   0  0  0  0  0  3  0  0  0  0  0  0
  -21.0470   -6.2970   24.8780 C   0  0  0  0  0  3  0  0  0  0  0  0
  -21.3750   -4.9280   24.8990 C   0  0  0  0  0  0  0  0  0  0  0  0
  -21.9020   -4.3120   23.7500 C   0  0  0  0  0  3  0  0  0  0  0  0
  -22.1010   -5.0630   22.5810 C   0  0  0  0  0  0  0  0  0  0  0  0
  -22.5920   -4.4620   21.4690 F   0  0  0  0  0  0  0  0  0  0  0  0
  -21.1790   -4.1990   26.0240 F   0  0  0  0  0  0  0  0  0  0  0  0
  -23.0660  -13.7460   21.0430 C   0  0  0  0  0  0  0  0  0  0  0  0
  -22.3300  -13.0610   21.9120 N   0  0  0  0  0  0  0  0  0  0  0  0
  -22.6330  -14.7670   20.5120 O   0  0  0  0  0  0  0  0  0  0  0  0
  -22.6840  -12.2330   22.3650 H   0  0  0  0  0  0  0  0  0  0  0  0
  -21.3930  -13.3690   22.1280 H   0  0  0  0  0  0  0  0  0  0  0  0
  -25.7030  -15.3940   20.2350 N   0  0  0  0  0  0  0  0  0  0  0  0
  -24.9450  -16.0450   20.4110 H   0  0  0  0  0  0  0  0  0  0  0  0
  -26.5470  -15.8420   19.9020 H   0  0  0  0  0  0  0  0  0  0  0  0
  -28.0820  -24.8730   19.8140 C   0  0  0  0  0  2  0  0  0  0  0  0
  -28.4240  -26.3010   20.2370 O   0  0  0  0  0  0  0  0  0  0  0  0
  -24.6240  -31.8400   23.1680 C   0  0  0  0  0  0  0  0  0  0  0  0
  -27.3660  -27.2680   20.1300 C   0  0  0  0  0  0  0  0  0  0  0  0
  -23.4790  -30.4210   21.5090 C   0  0  0  0  0  3  0  0  0  0  0  0
  -24.9870  -28.9230   20.0850 C   0  0  0  0  0  0  0  0  0  0  0  0
  -26.0200  -30.7830   21.3610 C   0  0  0  0  0  2  0  0  0  0  0  0
  -26.1460  -29.4000   20.7100 C   0  0  0  0  0  0  0  0  0  0  0  0
  -27.3370  -28.5860   20.7290 C   0  0  0  0  0  3  0  0  0  0  0  0
  -26.1770  -26.9050   19.4460 C   0  0  0  0  0  3  0  0  0  0  0  0
  -25.0090  -27.6810   19.4460 C   0  0  0  0  0  3  0  0  0  0  0  0
  -23.7340  -29.7750   20.1250 C   0  0  0  0  0  2  0  0  0  0  0  0
  -24.7270  -31.0320   22.0720 N   0  0  0  0  0  0  0  0  0  0  0  0
  -23.5230  -32.0890   23.6850 O   0  0  0  0  0  0  0  0  0  0  0  0
  -22.8280  -29.3770   22.4510 C   0  0  0  0  0  0  0  0  0  0  0  0
  -21.5010  -29.1960   22.3340 N   0  0  0  0  0  0  0  0  0  0  0  0
  -23.5170  -28.7410   23.2550 O   0  0  0  0  0  0  0  0  0  0  0  0
  -21.0050  -29.7740   21.6710 H   0  0  0  0  0  0  0  0  0  0  0  0
  -18.1240  -27.9910   22.8600 C   0  0  0  0  0  0  0  0  0  0  0  0
  -20.6900  -28.2340   23.0860 C   0  0  0  0  0  3  0  0  0  0  0  0
  -20.7740  -26.8220   22.4610 C   0  0  0  0  0  2  0  0  0  0  0  0
  -19.6500  -26.5320   21.4630 C   0  0  0  0  0  2  0  0  0  0  0  0
  -18.2820  -26.6640   22.1380 C   0  0  0  0  0  2  0  0  0  0  0  0
  -19.2550  -28.7380   23.2880 C   0  0  0  0  0  0  0  0  0  0  0  0
  -19.0520  -29.9840   23.9220 C   0  0  0  0  0  3  0  0  0  0  0  0
  -17.7530  -30.4800   24.1340 C   0  0  0  0  0  3  0  0  0  0  0  0
  -16.6370  -29.7290   23.7250 C   0  0  0  0  0  3  0  0  0  0  0  0
  -16.8250  -28.4860   23.0940 C   0  0  0  0  0  3  0  0  0  0  0  0
  -25.8780  -32.5060   23.8080 C   0  0  0  0  0  3  0  0  0  0  0  0
  -25.5300  -33.8960   24.1440 N   0  0  0  0  0  0  0  0  0  0  0  0
  -25.8390  -34.9610   23.3940 C   0  0  0  0  0  0  0  0  0  0  0  0
  -26.5190  -34.8840   22.3700 O   0  0  0  0  0  0  0  0  0  0  0  0
  -24.9360  -34.0310   24.9490 H   0  0  0  0  0  0  0  0  0  0  0  0
  -24.0730  -36.7150   23.0280 C   0  0  0  0  0  1  0  0  0  0  0  0
  -25.3090  -36.3330   23.8580 C   0  0  0  0  0  3  0  0  0  0  0  0
  -27.4050  -37.2600   24.7370 C   0  0  0  0  0  1  0  0  0  0  0  0
  -26.3170  -37.4120   23.7740 N   0  0  0  0  0  0  0  0  0  0  0  0
  -25.8860  -38.3190   23.9270 H   0  0  0  0  0  0  0  0  0  0  0  0
  -26.3970  -31.7430   25.0890 C   0  0  1  0  0  0  0  0  0  0  0  0
  -25.2980  -31.4710   26.1410 C   0  0  0  0  0  1  0  0  0  0  0  0
  -27.0220  -30.3850   24.6950 C   0  0  0  0  0  1  0  0  0  0  0  0
  -27.5150  -32.5660   25.7730 C   0  0  0  0  0  1  0  0  0  0  0  0
  -28.8560  -20.1270   18.2250 O   0  0  0  0  0  0  0  0  0  0  0  0
  -27.5950  -19.1680   16.3960 C   0  0  0  0  0  1  0  0  0  0  0  0
  -27.9080  -20.4380   17.2000 C   0  0  0  0  0  2  0  0  0  0  0  0
  1  3  1  0
  2  6  2  0
  2  5  1  0
  3  9  1  0
  4  3  2  0
  5  1  2  0
  6  4  1  0
  8  7  1  0
  9  8  1  0
  9  7  1  0
 10 11  1  0
 11  4  1  0
 12 10  1  0
 12 21  1  0
 12 11  1  0
 13 21  1  0
 14 19  1  0
 15 16  1  0
 15 14  1  0
 17 16  1  0
 17 26  1  0
 17 18  1  0
 19 13  1  0
 19 18  1  0
 20 13  2  0
 21 22  1  0
 23 24  2  0
 24 43  1  0
 25 24  1  0
 25 28  1  0
 26 23  1  0
 26 27  1  0
 27 25  2  0
 28 29  1  0
 29 30  2  0
 31 34  1  0
 31 30  1  0
 32 31  2  0
 33 32  1  0
 33 28  2  0
 34 35  1  0
 35 40  2  0
 35 36  1  0
 36 37  2  0
 37 38  1  0
 38 42  1  0
 39 38  2  0
 40 39  1  0
 41 40  1  0
 43 44  1  0
 44 47  1  0
 44 46  1  0
 45 43  2  0
 48 23  1  0
 48 49  1  0
 50 48  1  0
 51  5  1  0
 51 52  1  0
 53 64  2  0
 54 52  1  0
 54 59  1  0
 55 63  1  0
 55 65  1  0
 56 62  1  0
 56 58  1  0
 57 63  1  0
 58 59  2  0
 58 57  1  0
 60 61  1  0
 60 54  2  0
 61 56  2  0
 62 55  1  0
 63 53  1  0
 65 67  2  0
 66 65  1  0
 68 66  1  0
 69 78  2  0
 69 74  1  0
 70 66  1  0
 70 74  1  0
 71 70  1  0
 72 73  1  0
 72 71  1  0
 73 69  1  0
 74 75  2  0
 75 76  1  0
 77 76  2  0
 78 77  1  0
 79 53  1  0
 79 80  1  0
 79 89  1  0
 80 83  1  0
 81 85  1  0
 81 80  1  0
 82 81  2  0
 85 84  1  0
 87 85  1  0
 87 88  1  0
 87 86  1  0
 89 92  1  1
 89 90  1  0
 91 89  1  0
 93  6  1  0
 94 95  1  0
 95 93  1  0
M  ISO  4  13 100  21 100  51 101  52 101
M  END
>  <TORSDO>  (45) 
F 21

>  <SCORE>  (45) 
-13.878

>  <name>  (45) 
45

>  <ligand_id>  (45) 
45

>  <original_smiles>  (45) 
[H]c1c([H])c([H])c2c(c1[H])C([H])([H])C([H])([H])C([H])([H])C2([H])N([H])C(=O)C1([H])N(C(=O)C([H])(N([H])C(=O)C([H])(N([H])C([H])([H])[H])C([H])([H])[H])C(C([H])([H])[H])(C([H])([H])[H])C([H])([H])[H])C([H])([H])c2c([H])c(OC([H])([H])c3c([H])c(OC([H])([H])C([H])([H])[H])c(C4([H])C([H])([H])C4([H])N([H])C(=O)N4C([H])([H])C([H])([H])C([H])([H])C([H])(n5nc(-c6c([H])c([H])c(Oc7c([H])c([H])c(F)c([H])c7F)c([H])c6[H])c(C(=O)N([H])[H])c5N([H])[H])C4([H])[H])c(C4([H])C([H])([H])C4([H])[H])c3[H])c([H])c([H])c2C1([H])[H]

>  <smiles>  (45) 
[H]c1c([H])c([H])c2c(c1[H])C([H])([H])C([H])([H])C([H])([H])C2([H])N([H])C(=O)C1([H])N(C(=O)C([H])(N([H])C(=O)C([H])(N([H])C([H])([H])[H])C([H])([H])[H])C(C([H])([H])[H])(C([H])([H])[H])C([H])([H])[H])C([H])([H])c2c([H])c(OC([H])([H])c3c([H])c(OC([H])([H])C([H])([H])[H])c(C4([H])C([H])([H])C4([H])N([H])C(=O)N4C([H])([H])C([H])([H])C([H])([H])C([H])(n5nc(-c6c([H])c([H])c(Oc7c([H])c([H])c(F)c([H])c7F)c([H])c6[H])c(C(=O)N([H])[H])c5N([H])[H])C4([H])[H])c(C4([H])C([H])([H])C4([H])[H])c3[H])c([H])c([H])c2C1([H])[H]

$$$$
46:0:0
     RDKit          3D

 99109  0  0  1  0  0  0  0  0999 V2000
  -30.4410  -20.4440   18.5090 C   0  0  0  0  0  3  0  0  0  0  0  0
  -30.3790  -22.8340   18.0280 C   0  0  0  0  0  3  0  0  0  0  0  0
  -29.9570  -20.6550   19.8170 C   0  0  0  0  0  0  0  0  0  0  0  0
  -29.8900  -23.1360   19.3170 C   0  0  0  0  0  0  0  0  0  0  0  0
  -30.6390  -21.5150   17.6180 C   0  0  0  0  0  0  0  0  0  0  0  0
  -29.6390  -22.0140   20.2020 C   0  0  0  0  0  0  0  0  0  0  0  0
  -31.1760  -21.2580   16.2240 C   0  0  0  0  0  1  0  0  0  0  0  0
  -30.8770  -15.1870   21.1280 C   0  0  0  0  0  0  0  0  0  0  0  0
  -30.7360  -12.8150   20.3780 C   0  0  0  0  0  2  0  0  0  0  0  0
  -30.0070  -12.6870   19.0250 C   0  0  0  0  0  2  0  0  0  0  0  0
  -28.4970  -12.5120   19.2570 C   0  0  0  0  0  2  0  0  0  0  0  0
  -27.9330  -13.5770   20.2270 C   0  0  0  0  0  3  0  0  0  0  0  0
  -28.8020  -13.7260   21.5030 C   0  0  0  0  0  2  0  0  0  0  0  0
  -30.1840  -13.9980   21.0840 N   0  0  0  0  0  0  0  0  0  0  0  0
  -32.0870  -15.1830   20.8780 O   0  0  0  0  0  0  0  0  0  0  0  0
  -29.0370  -18.2010   20.1240 C   0  0  0  0  0  2  0  0  0  0  0  0
  -31.1900  -18.7800   21.1780 C   0  0  0  0  0  2  0  0  0  0  0  0
  -28.9620  -16.9410   21.0510 C   0  0  0  0  0  2  0  0  0  0  0  0
  -31.0570  -17.5030   22.0730 C   0  0  0  0  0  2  0  0  0  0  0  0
  -29.8290  -19.3870   20.7410 C   0  0  0  0  0  3  0  0  0  0  0  0
  -30.2790  -16.3940   21.4580 N   0  0  0  0  0  0  0  0  0  0  0  0
  -25.4980  -14.2700   20.6530 C   0  0  0  0  0  0  0  0  0  0  0  0
  -24.3700  -13.5340   20.8890 C   0  0  0  0  0  0  0  0  0  0  0  0
  -24.7890  -12.1690   20.9210 C   0  0  0  0  0  0  0  0  0  0  0  0
  -26.5320  -13.3510   20.5500 N   0  0  0  0  0  0  0  0  0  0  0  0
  -26.1050  -12.0850   20.7780 N   0  0  0  0  0  0  0  0  0  0  0  0
  -24.0080  -10.9320   21.0160 C   0  0  0  0  0  0  0  0  0  0  0  0
  -24.3470   -9.9150   21.9370 C   0  0  0  0  0  3  0  0  0  0  0  0
  -23.5700   -8.7410   22.0210 C   0  0  0  0  0  3  0  0  0  0  0  0
  -22.4410   -8.5750   21.1830 C   0  0  0  0  0  0  0  0  0  0  0  0
  -22.1240   -9.5790   20.2520 C   0  0  0  0  0  3  0  0  0  0  0  0
  -22.9010  -10.7450   20.1660 C   0  0  0  0  0  3  0  0  0  0  0  0
  -21.6430   -7.4570   21.1790 O   0  0  0  0  0  0  0  0  0  0  0  0
  -21.5530   -6.6320   22.2710 C   0  0  0  0  0  0  0  0  0  0  0  0
  -21.1600   -7.1150   23.5390 C   0  0  0  0  0  3  0  0  0  0  0  0
  -21.0160   -6.2210   24.6180 C   0  0  0  0  0  3  0  0  0  0  0  0
  -21.2530   -4.8450   24.4300 C   0  0  0  0  0  0  0  0  0  0  0  0
  -21.6380   -4.3630   23.1670 C   0  0  0  0  0  3  0  0  0  0  0  0
  -21.7850   -5.2550   22.0910 C   0  0  0  0  0  0  0  0  0  0  0  0
  -22.1370   -4.7820   20.8700 F   0  0  0  0  0  0  0  0  0  0  0  0
  -21.1060   -3.9850   25.4640 F   0  0  0  0  0  0  0  0  0  0  0  0
  -22.9640  -14.0560   20.9770 C   0  0  0  0  0  0  0  0  0  0  0  0
  -22.1150  -13.3980   21.7570 N   0  0  0  0  0  0  0  0  0  0  0  0
  -22.6250  -15.0820   20.3890 O   0  0  0  0  0  0  0  0  0  0  0  0
  -22.3990  -12.5670   22.2560 H   0  0  0  0  0  0  0  0  0  0  0  0
  -21.1670  -13.7300   21.8600 H   0  0  0  0  0  0  0  0  0  0  0  0
  -25.7250  -15.6330   20.4900 N   0  0  0  0  0  0  0  0  0  0  0  0
  -24.9690  -16.3080   20.5010 H   0  0  0  0  0  0  0  0  0  0  0  0
  -26.6180  -16.0430   20.2530 H   0  0  0  0  0  0  0  0  0  0  0  0
  -31.1800  -25.3700   19.6580 C   0  0  0  0  0  2  0  0  0  0  0  0
  -30.4400  -25.1980   20.9450 C   0  0  0  0  0  2  0  0  0  0  0  0
  -29.8310  -24.6620   19.6570 C   0  0  2  0  0  0  0  0  0  0  0  0
  -28.6320  -25.4560   19.0430 C   0  0  0  0  0  2  0  0  0  0  0  0
  -28.6330  -26.9110   19.2700 O   0  0  0  0  0  0  0  0  0  0  0  0
  -24.5260  -31.5210   22.9250 C   0  0  0  0  0  0  0  0  0  0  0  0
  -27.4240  -27.6090   19.3200 C   0  0  0  0  0  0  0  0  0  0  0  0
  -23.3930  -30.2200   21.1550 C   0  0  0  0  0  3  0  0  0  0  0  0
  -24.9260  -28.9720   19.5340 C   0  0  0  0  0  0  0  0  0  0  0  0
  -25.8870  -30.7810   20.9610 C   0  0  0  0  0  2  0  0  0  0  0  0
  -26.0610  -29.4990   20.1620 C   0  0  0  0  0  0  0  0  0  0  0  0
  -27.3100  -28.8280   20.0480 C   0  0  0  0  0  3  0  0  0  0  0  0
  -26.2630  -27.1260   18.6710 C   0  0  0  0  0  3  0  0  0  0  0  0
  -25.0270  -27.7900   18.7810 C   0  0  0  0  0  3  0  0  0  0  0  0
  -23.6220  -29.7220   19.7030 C   0  0  0  0  0  2  0  0  0  0  0  0
  -24.6210  -30.8530   21.7380 N   0  0  0  0  0  0  0  0  0  0  0  0
  -23.4400  -31.6430   23.5090 O   0  0  0  0  0  0  0  0  0  0  0  0
  -22.8460  -29.0500   22.0040 C   0  0  0  0  0  0  0  0  0  0  0  0
  -21.5350  -28.7770   21.8800 N   0  0  0  0  0  0  0  0  0  0  0  0
  -23.5950  -28.3940   22.7330 O   0  0  0  0  0  0  0  0  0  0  0  0
  -20.9860  -29.3660   21.2700 H   0  0  0  0  0  0  0  0  0  0  0  0
  -18.2880  -27.2320   22.2580 C   0  0  0  0  0  0  0  0  0  0  0  0
  -20.8150  -27.6960   22.5530 C   0  0  0  0  0  3  0  0  0  0  0  0
  -21.0420  -26.3450   21.8350 C   0  0  0  0  0  2  0  0  0  0  0  0
  -19.9650  -26.0280   20.7940 C   0  0  0  0  0  2  0  0  0  0  0  0
  -18.5810  -25.9810   21.4480 C   0  0  0  0  0  2  0  0  0  0  0  0
  -19.3370  -28.0460   22.7630 C   0  0  0  0  0  0  0  0  0  0  0  0
  -19.0100  -29.2170   23.4800 C   0  0  0  0  0  3  0  0  0  0  0  0
  -17.6660  -29.5780   23.6970 C   0  0  0  0  0  3  0  0  0  0  0  0
  -16.6320  -28.7600   23.2070 C   0  0  0  0  0  3  0  0  0  0  0  0
  -16.9440  -27.5890   22.4940 C   0  0  0  0  0  3  0  0  0  0  0  0
  -25.7720  -32.1820   23.5920 C   0  0  0  0  0  3  0  0  0  0  0  0
  -26.3640  -31.3310   24.7820 C   0  0  1  0  0  0  0  0  0  0  0  0
  -25.3120  -30.9250   25.8400 C   0  0  0  0  0  1  0  0  0  0  0  0
  -27.0250  -30.0360   24.2530 C   0  0  0  0  0  1  0  0  0  0  0  0
  -27.4780  -32.1330   25.4970 C   0  0  0  0  0  1  0  0  0  0  0  0
  -25.3700  -33.5160   24.0590 N   0  0  0  0  0  0  0  0  0  0  0  0
  -25.6360  -34.6600   23.4150 C   0  0  0  0  0  0  0  0  0  0  0  0
  -26.3160  -34.7070   22.3860 O   0  0  0  0  0  0  0  0  0  0  0  0
  -24.7640  -33.5480   24.8650 H   0  0  0  0  0  0  0  0  0  0  0  0
  -23.7900  -36.3570   23.2320 C   0  0  0  0  0  1  0  0  0  0  0  0
  -25.0560  -35.9590   24.0060 C   0  0  0  0  0  3  0  0  0  0  0  0
  -27.1280  -36.8960   24.9300 C   0  0  0  0  0  1  0  0  0  0  0  0
  -26.0130  -37.0860   24.0060 N   0  0  0  0  0  0  0  0  0  0  0  0
  -25.5460  -37.9550   24.2490 H   0  0  0  0  0  0  0  0  0  0  0  0
  -29.0880  -22.2250   21.4730 N   0  0  0  0  0  0  0  0  0  0  0  0
  -28.9570  -21.3680   21.9980 H   0  0  0  0  0  0  0  0  0  0  0  0
  -27.6620  -23.5800   22.9330 C   0  0  0  0  0  1  0  0  0  0  0  0
  -26.6770  -22.3540   20.9500 C   0  0  0  0  0  1  0  0  0  0  0  0
  -27.9100  -23.0840   21.5050 C   0  0  0  0  0  3  0  0  0  0  0  0
  1  3  1  0
  2  4  2  0
  3  6  2  0
  4 52  1  0
  4  6  1  0
  5  2  1  0
  5  1  2  0
  6 95  1  0
  7  5  1  0
  8 21  1  0
  9 14  1  0
 10 11  1  0
 10  9  1  0
 12 11  1  0
 12 25  1  0
 12 13  1  0
 14  8  1  0
 14 13  1  0
 15  8  2  0
 16 20  1  0
 16 18  1  0
 17 19  1  0
 18 21  1  0
 20  3  1  0
 20 17  1  0
 21 19  1  0
 22 23  2  0
 23 24  1  0
 23 42  1  0
 24 27  1  0
 25 22  1  0
 25 26  1  0
 26 24  2  0
 27 28  1  0
 28 29  2  0
 30 29  1  0
 31 30  2  0
 32 31  1  0
 32 27  2  0
 33 30  1  0
 33 34  1  0
 34 35  1  0
 35 36  2  0
 37 36  1  0
 37 41  1  0
 38 37  2  0
 39 34  2  0
 39 38  1  0
 40 39  1  0
 42 43  1  0
 43 46  1  0
 43 45  1  0
 44 42  2  0
 47 48  1  0
 47 22  1  0
 49 47  1  0
 50 51  1  0
 52 50  1  0
 52 51  1  0
 53 54  1  0
 52 53  1  6
 54 56  1  0
 55 66  2  0
 56 61  1  0
 57 65  1  0
 57 67  1  0
 58 64  1  0
 58 60  1  0
 59 65  1  0
 60 59  1  0
 61 60  2  0
 62 63  1  0
 62 56  2  0
 63 58  2  0
 64 57  1  0
 65 55  1  0
 67 69  2  0
 68 67  1  0
 70 68  1  0
 71 80  2  0
 71 76  1  0
 72 68  1  0
 72 76  1  0
 73 72  1  0
 74 75  1  0
 74 73  1  0
 75 71  1  0
 76 77  2  0
 77 78  1  0
 79 78  2  0
 80 79  1  0
 81 55  1  0
 81 86  1  0
 81 82  1  0
 82 85  1  1
 82 83  1  0
 84 82  1  0
 86 89  1  0
 87 91  1  0
 87 86  1  0
 88 87  2  0
 91 90  1  0
 91 93  1  0
 93 94  1  0
 93 92  1  0
 95 99  1  0
 95 96  1  0
 98 99  1  0
 99 97  1  0
M  ISO  4   8 100  21 100  53 101  54 101
M  END
>  <TORSDO>  (46) 
F 20

>  <SCORE>  (46) 
-10.893

>  <name>  (46) 
46

>  <ligand_id>  (46) 
46

>  <original_smiles>  (46) 
[H]c1c([H])c([H])c2c(c1[H])C([H])([H])C([H])([H])C([H])([H])C2([H])N([H])C(=O)C1([H])N(C(=O)C([H])(N([H])C(=O)C([H])(N([H])C([H])([H])[H])C([H])([H])[H])C(C([H])([H])[H])(C([H])([H])[H])C([H])([H])[H])C([H])([H])c2c([H])c(OC([H])([H])C3(c4c([H])c(C([H])([H])[H])c([H])c(C5([H])C([H])([H])C([H])([H])N(C(=O)N6C([H])([H])C([H])([H])C([H])([H])C([H])(n7nc(-c8c([H])c([H])c(Oc9c([H])c([H])c(F)c([H])c9F)c([H])c8[H])c(C(=O)N([H])[H])c7N([H])[H])C6([H])[H])C([H])([H])C5([H])[H])c4N([H])C([H])(C([H])([H])[H])C([H])([H])[H])C([H])([H])C3([H])[H])c([H])c([H])c2C1([H])[H]

>  <smiles>  (46) 
[H]c1c([H])c([H])c2c(c1[H])C([H])([H])C([H])([H])C([H])([H])C2([H])N([H])C(=O)C1([H])N(C(=O)C([H])(N([H])C(=O)C([H])(N([H])C([H])([H])[H])C([H])([H])[H])C(C([H])([H])[H])(C([H])([H])[H])C([H])([H])[H])C([H])([H])c2c([H])c(OC([H])([H])C3(c4c([H])c(C([H])([H])[H])c([H])c(C5([H])C([H])([H])C([H])([H])N(C(=O)N6C([H])([H])C([H])([H])C([H])([H])C([H])(n7nc(-c8c([H])c([H])c(Oc9c([H])c([H])c(F)c([H])c9F)c([H])c8[H])c(C(=O)N([H])[H])c7N([H])[H])C6([H])[H])C([H])([H])C5([H])[H])c4N([H])C([H])(C([H])([H])[H])C([H])([H])[H])C([H])([H])C3([H])[H])c([H])c([H])c2C1([H])[H]

$$$$
47:0:0
     RDKit          3D

102103  0  0  1  0  0  0  0  0999 V2000
  -26.3320  -21.4970   18.4070 C   0  0  0  0  0  3  0  0  0  0  0  0
  -26.4440  -20.1360   18.0740 C   0  0  0  0  0  3  0  0  0  0  0  0
  -27.6320  -19.7260   20.1500 C   0  0  0  0  0  3  0  0  0  0  0  0
  -27.6300  -21.1150   20.4480 C   0  0  0  0  0  0  0  0  0  0  0  0
  -27.0160  -22.0010   19.5360 C   0  0  0  0  0  0  0  0  0  0  0  0
  -27.1270  -19.2280   18.9000 C   0  0  0  0  0  0  0  0  0  0  0  0
  -28.4010  -21.6970   21.6410 C   0  0  0  0  0  1  0  0  0  0  0  0
  -27.2220  -23.3810   19.6380 N   0  0  0  0  0  0  0  0  0  0  0  0
  -27.2630  -23.7760   20.5650 H   0  0  0  0  0  0  0  0  0  0  0  0
  -28.2700  -23.5260   17.4670 C   0  0  0  0  0  3  0  0  0  0  0  0
  -27.7590  -25.5570   18.6680 C   0  0  0  0  0  0  0  0  0  0  0  0
  -27.7770  -24.1540   18.6140 C   0  0  0  0  0  0  0  0  0  0  0  0
  -28.5360  -24.2930   16.3390 C   0  0  0  0  0  0  0  0  0  0  0  0
  -28.0100  -26.2560   17.4440 C   0  0  0  0  0  0  0  0  0  0  0  0
  -27.3720  -26.2210   19.9920 C   0  0  0  0  0  1  0  0  0  0  0  0
  -28.8580  -23.6000   15.0360 C   0  0  0  0  0  1  0  0  0  0  0  0
  -28.3870  -25.6300   16.3080 N   0  0  0  0  0  0  0  0  0  0  0  0
  -27.7900  -27.6030   17.2240 O   0  0  0  0  0  0  0  0  0  0  0  0
  -24.4530  -30.7180   22.6050 C   0  0  0  0  0  0  0  0  0  0  0  0
  -26.6060  -28.1580   17.6380 C   0  0  0  0  0  0  0  0  0  0  0  0
  -23.0060  -29.7230   20.8680 C   0  0  0  0  0  3  0  0  0  0  0  0
  -24.1730  -29.0760   18.6950 C   0  0  0  0  0  0  0  0  0  0  0  0
  -25.3290  -30.6140   20.2820 C   0  0  0  0  0  2  0  0  0  0  0  0
  -25.3840  -29.5750   19.1900 C   0  0  0  0  0  0  0  0  0  0  0  0
  -26.6090  -29.1100   18.6750 C   0  0  0  0  0  3  0  0  0  0  0  0
  -25.3760  -27.7260   17.0890 C   0  0  0  0  0  3  0  0  0  0  0  0
  -24.1600  -28.1450   17.6480 C   0  0  0  0  0  3  0  0  0  0  0  0
  -22.9050  -29.6020   19.3240 C   0  0  0  0  0  2  0  0  0  0  0  0
  -24.2950  -30.3480   21.3050 N   0  0  0  0  0  0  0  0  0  0  0  0
  -23.5370  -30.5870   23.4260 O   0  0  0  0  0  0  0  0  0  0  0  0
  -22.7500  -28.3350   21.4970 C   0  0  0  0  0  0  0  0  0  0  0  0
  -21.4810  -27.8980   21.4810 N   0  0  0  0  0  0  0  0  0  0  0  0
  -23.6790  -27.6690   21.9580 O   0  0  0  0  0  0  0  0  0  0  0  0
  -20.7730  -28.5050   21.0940 H   0  0  0  0  0  0  0  0  0  0  0  0
  -18.5540  -25.8030   21.8240 C   0  0  0  0  0  0  0  0  0  0  0  0
  -21.0070  -26.6110   21.9930 C   0  0  0  0  0  3  0  0  0  0  0  0
  -21.3480  -25.4610   21.0130 C   0  0  0  0  0  2  0  0  0  0  0  0
  -20.2200  -25.1610   20.0230 C   0  0  0  0  0  2  0  0  0  0  0  0
  -18.9380  -24.7750   20.7690 C   0  0  0  0  0  2  0  0  0  0  0  0
  -19.5250  -26.6740   22.3870 C   0  0  0  0  0  0  0  0  0  0  0  0
  -19.1130  -27.6370   23.3350 C   0  0  0  0  0  3  0  0  0  0  0  0
  -17.7640  -27.7330   23.7240 C   0  0  0  0  0  3  0  0  0  0  0  0
  -16.8120  -26.8570   23.1790 C   0  0  0  0  0  3  0  0  0  0  0  0
  -17.2060  -25.8930   22.2330 C   0  0  0  0  0  3  0  0  0  0  0  0
  -25.7870  -31.3450   23.1180 C   0  0  0  0  0  3  0  0  0  0  0  0
  -26.6470  -30.3550   23.9960 C   0  0  1  0  0  0  0  0  0  0  0  0
  -25.8550  -29.7050   25.1520 C   0  0  0  0  0  1  0  0  0  0  0  0
  -27.2260  -29.2160   23.1250 C   0  0  0  0  0  1  0  0  0  0  0  0
  -27.8530  -31.1030   24.6050 C   0  0  0  0  0  1  0  0  0  0  0  0
  -25.4440  -32.5550   23.8790 N   0  0  0  0  0  0  0  0  0  0  0  0
  -25.6330  -33.8050   23.4380 C   0  0  0  0  0  0  0  0  0  0  0  0
  -26.1890  -34.0630   22.3670 O   0  0  0  0  0  0  0  0  0  0  0  0
  -24.9350  -32.4190   24.7400 H   0  0  0  0  0  0  0  0  0  0  0  0
  -23.8300  -35.5270   23.7360 C   0  0  0  0  0  1  0  0  0  0  0  0
  -25.1250  -34.9520   24.3300 C   0  0  0  0  0  3  0  0  0  0  0  0
  -27.2670  -35.6390   25.3120 C   0  0  0  0  0  1  0  0  0  0  0  0
  -26.1120  -36.0370   24.5110 N   0  0  0  0  0  0  0  0  0  0  0  0
  -25.6820  -36.8450   24.9570 H   0  0  0  0  0  0  0  0  0  0  0  0
  -27.2900  -17.9550   18.3280 O   0  0  0  0  0  0  0  0  0  0  0  0
  -26.9550  -16.7490   19.0300 C   0  0  0  0  0  2  0  0  0  0  0  0
  -31.4860  -12.6410   20.0820 C   0  0  0  0  0  0  0  0  0  0  0  0
  -31.9230  -11.2090   19.4780 C   0  0  0  0  0  1  0  0  0  0  0  0
  -31.2730  -11.8400   17.8420 C   0  0  0  0  0  1  0  0  0  0  0  0
  -30.4530  -13.4060   17.8740 C   0  0  0  0  0  2  0  0  0  0  0  0
  -29.7520  -14.0650   19.4710 C   0  0  0  0  0  1  0  0  0  0  0  0
  -31.1990  -13.9050   20.7880 C   0  0  0  0  0  1  0  0  0  0  0  0
  -31.9290  -12.2970   20.8720 N   0  0  0  0  0  1  0  0  0  0  0  0
  -32.5860  -13.2910   19.3090 O   0  0  0  0  0  1  0  0  0  0  0  0
  -28.8390  -15.1310   21.3140 C   0  0  0  0  0 15  0  0  0  0  0  0
  -27.8790  -13.8430   18.0440 C   0  0  0  0  0 15  0  0  0  0  0  0
  -29.2980  -13.0970   21.8170 C   0  0  0  0  0  1  0  0  0  0  0  0
  -28.7520  -11.9900   18.7690 C   0  0  0  0  0 15  0  0  0  0  0  0
  -27.9930  -15.5470   19.2860 C   0  0  0  0  0  1  0  0  0  0  0  0
  -29.8870  -12.0370   20.3380 N   0  0  0  0  0  1  0  0  0  0  0  0
  -26.4380  -14.0840   20.7640 C   0  0  0  0  0  3  0  0  0  0  0  0
  -25.3450  -13.3530   20.8460 C   0  0  0  0  0  0  0  0  0  0  0  0
  -25.7770  -12.0440   20.7890 C   0  0  0  0  0  0  0  0  0  0  0  0
  -27.6320  -13.3950   20.2770 N   0  0  0  0  0  2  0  0  0  0  0  0
  -27.0870  -12.0770   20.6100 N   0  0  0  0  0  2  0  0  0  0  0  0
  -24.9670  -10.8320   20.8920 C   0  0  0  0  0  0  0  0  0  0  0  0
  -25.1510   -9.8390   21.8910 C   0  0  0  0  0  3  0  0  0  0  0  0
  -24.2430   -8.7630   21.9870 C   0  0  0  0  0  3  0  0  0  0  0  0
  -23.1470   -8.6740   21.0920 C   0  0  0  0  0  0  0  0  0  0  0  0
  -22.9810   -9.6370   20.0940 C   0  0  0  0  0  3  0  0  0  0  0  0
  -23.8920  -10.7060   19.9800 C   0  0  0  0  0  3  0  0  0  0  0  0
  -22.2200   -7.6710   21.0980 O   0  0  0  0  0  0  0  0  0  0  0  0
  -21.7720   -7.1300   22.2790 C   0  0  0  0  0  0  0  0  0  0  0  0
  -21.1370   -7.9070   23.2710 C   0  0  0  0  0  3  0  0  0  0  0  0
  -20.6350   -7.2950   24.4390 C   0  0  0  0  0  3  0  0  0  0  0  0
  -20.7570   -5.9030   24.6090 C   0  0  0  0  0  0  0  0  0  0  0  0
  -21.3800   -5.1260   23.6200 C   0  0  0  0  0  3  0  0  0  0  0  0
  -21.8900   -5.7370   22.4590 C   0  0  0  0  0  0  0  0  0  0  0  0
  -22.4780   -4.9760   21.5070 F   0  0  0  0  0  0  0  0  0  0  0  0
  -20.2700   -5.3170   25.7290 F   0  0  0  0  0  0  0  0  0  0  0  0
  -23.9970  -13.9330   21.1440 C   0  0  0  0  0  0  0  0  0  0  0  0
  -23.2990  -13.3750   22.1260 N   0  0  0  0  0  0  0  0  0  0  0  0
  -23.6550  -14.9990   20.6190 O   0  0  0  0  0  0  0  0  0  0  0  0
  -23.6200  -12.5130   22.5500 H   0  0  0  0  0  0  0  0  0  0  0  0
  -22.4180  -13.7910   22.4150 H   0  0  0  0  0  0  0  0  0  0  0  0
  -26.2850  -15.3590   21.2530 N   0  0  0  0  0  0  0  0  0  0  0  0
  -25.3900  -15.8390   21.1020 H   0  0  0  0  0  0  0  0  0  0  0  0
  -27.0920  -15.9380   21.4700 H   0  0  0  0  0  0  0  0  0  0  0  0
  1  5  1  0
  2  1  2  0
  2  6  1  0
  3  4  1  0
  4  7  1  0
  5  8  1  0
  5  4  2  0
  6  3  2  0
  8  9  1  0
 10 12  1  0
 11 15  1  0
 12 11  2  0
 12  8  1  0
 13 10  2  0
 14 11  1  0
 16 13  1  0
 17 13  1  0
 17 14  2  0
 18 14  1  0
 18 20  1  0
 19 30  2  0
 20 25  1  0
 21 29  1  0
 21 31  1  0
 22 24  1  0
 22 28  1  0
 23 29  1  0
 24 23  1  0
 25 24  2  0
 26 20  2  0
 26 27  1  0
 27 22  2  0
 28 21  1  0
 29 19  1  0
 31 33  2  0
 32 31  1  0
 34 32  1  0
 35 44  2  0
 35 40  1  0
 36 32  1  0
 36 40  1  0
 37 36  1  0
 38 39  1  0
 38 37  1  0
 39 35  1  0
 40 41  2  0
 41 42  1  0
 43 42  2  0
 44 43  1  0
 45 19  1  0
 45 50  1  0
 45 46  1  0
 46 49  1  1
 46 47  1  0
 48 46  1  0
 50 53  1  0
 51 50  1  0
 51 55  1  0
 52 51  2  0
 55 54  1  0
 55 57  1  0
 57 58  1  0
 57 56  1  0
 59  6  1  0
 59 60  1  0
 60 73  1  0
 61 66  1  0
 61 67  1  0
 62 61  1  0
 63 64  1  0
 64 65  1  0
 68 61  1  0
 74 71  1  0
 75 76  1  0
 75100  1  0
 76 95  1  0
 77 76  2  0
 77 80  1  0
 78 79  1  0
 78 75  1  0
 79 77  1  0
 80 81  1  0
 81 82  2  0
 83 86  1  0
 83 82  1  0
 84 83  2  0
 85 84  1  0
 85 80  2  0
 86 87  1  0
 87 92  2  0
 87 88  1  0
 88 89  2  0
 89 90  1  0
 90 94  1  0
 91 90  2  0
 92 91  1  0
 93 92  1  0
 95 96  1  0
 96 99  1  0
 96 98  1  0
 97 95  2  0
100102  1  0
101100  1  0
M  ISO  4  14 101  18 101  61 100  74 100
M  END
>  <TORSDO>  (47) 
F 20

>  <SCORE>  (47) 
-5.135

>  <name>  (47) 
47

>  <ligand_id>  (47) 
47

>  <original_smiles>  (47) 
[H]c1c([H])c([H])c2c(c1[H])C([H])([H])C([H])([H])C([H])([H])C2([H])N([H])C(=O)C1([H])N(C(=O)C([H])(N([H])C(=O)C([H])(N([H])C([H])([H])[H])C([H])([H])[H])C(C([H])([H])[H])(C([H])([H])[H])C([H])([H])[H])C([H])([H])c2c([H])c(Oc3nc(C([H])([H])[H])c([H])c(N([H])c4c([H])c([H])c(OC([H])([H])C5([H])C([H])([H])C([H])([H])N(C(=O)N6C([H])([H])C([H])([H])C([H])([H])C([H])(n7nc(-c8c([H])c([H])c(Oc9c([H])c([H])c(F)c([H])c9F)c([H])c8[H])c(C(=O)N([H])[H])c7N([H])[H])C6([H])[H])C([H])([H])C5([H])[H])c([H])c4C([H])([H])[H])c3C([H])([H])[H])c([H])c([H])c2C1([H])[H]

>  <smiles>  (47) 
[H]c1c([H])c([H])c2c(c1[H])C([H])([H])C([H])([H])C([H])([H])C2([H])N([H])C(=O)C1([H])N(C(=O)C([H])(N([H])C(=O)C([H])(N([H])C([H])([H])[H])C([H])([H])[H])C(C([H])([H])[H])(C([H])([H])[H])C([H])([H])[H])C([H])([H])c2c([H])c(Oc3nc(C([H])([H])[H])c([H])c(N([H])c4c([H])c([H])c(OC([H])([H])C5([H])C([H])([H])C([H])([H])N(C(=O)N6C([H])([H])C([H])([H])C([H])([H])C([H])(n7nc(-c8c([H])c([H])c(Oc9c([H])c([H])c(F)c([H])c9F)c([H])c8[H])c(C(=O)N([H])[H])c7N([H])[H])C6([H])[H])C([H])([H])C5([H])[H])c([H])c4C([H])([H])[H])c3C([H])([H])[H])c([H])c([H])c2C1([H])[H]

$$$$
48:0:0
     RDKit          3D

 96105  0  0  1  0  0  0  0  0999 V2000
  -29.9370  -21.3430   21.0250 C   0  0  0  0  0  3  0  0  0  0  0  0
  -28.4390  -22.9760   19.6210 C   0  0  0  0  0  2  0  0  0  0  0  0
  -30.3270  -23.9940   20.9560 C   0  0  0  0  0  2  0  0  0  0  0  0
  -28.3090  -24.3210   18.8490 C   0  0  0  0  0  2  0  0  0  0  0  0
  -30.1200  -25.3280   20.1930 C   0  0  0  0  0  2  0  0  0  0  0  0
  -29.8570  -22.7090   20.2020 C   0  0  0  0  0  3  0  0  0  0  0  0
  -28.6580  -25.5290   19.7530 C   0  0  0  0  0  3  0  0  0  0  0  0
  -28.5270  -26.8390   19.1390 O   0  0  0  0  0  0  0  0  0  0  0  0
  -24.6290  -31.4660   22.9670 C   0  0  0  0  0  0  0  0  0  0  0  0
  -27.3190  -27.5010   19.2960 C   0  0  0  0  0  0  0  0  0  0  0  0
  -23.3980  -30.1350   21.2850 C   0  0  0  0  0  3  0  0  0  0  0  0
  -24.8380  -28.8430   19.6220 C   0  0  0  0  0  0  0  0  0  0  0  0
  -25.8760  -30.6890   20.9470 C   0  0  0  0  0  2  0  0  0  0  0  0
  -26.0040  -29.3910   20.1710 C   0  0  0  0  0  0  0  0  0  0  0  0
  -27.2470  -28.7330   19.9970 C   0  0  0  0  0  3  0  0  0  0  0  0
  -26.1290  -26.9740   18.7490 C   0  0  0  0  0  3  0  0  0  0  0  0
  -24.8970  -27.6360   18.9080 C   0  0  0  0  0  3  0  0  0  0  0  0
  -23.5470  -29.6010   19.8370 C   0  0  0  0  0  2  0  0  0  0  0  0
  -24.6560  -30.7750   21.7910 N   0  0  0  0  0  0  0  0  0  0  0  0
  -23.5750  -31.6060   23.6040 O   0  0  0  0  0  0  0  0  0  0  0  0
  -22.8910  -28.9850   22.1870 C   0  0  0  0  0  0  0  0  0  0  0  0
  -21.5950  -28.6550   22.0660 N   0  0  0  0  0  0  0  0  0  0  0  0
  -23.6610  -28.3950   22.9510 O   0  0  0  0  0  0  0  0  0  0  0  0
  -21.0290  -29.1920   21.4240 H   0  0  0  0  0  0  0  0  0  0  0  0
  -18.4240  -26.9650   22.4480 C   0  0  0  0  0  0  0  0  0  0  0  0
  -20.9110  -27.5800   22.7850 C   0  0  0  0  0  3  0  0  0  0  0  0
  -21.2300  -26.2020   22.1590 C   0  0  0  0  0  2  0  0  0  0  0  0
  -20.2040  -25.7620   21.1100 C   0  0  0  0  0  2  0  0  0  0  0  0
  -18.8050  -25.6820   21.7280 C   0  0  0  0  0  2  0  0  0  0  0  0
  -19.4110  -27.8630   22.9300 C   0  0  0  0  0  0  0  0  0  0  0  0
  -19.0010  -29.0580   23.5600 C   0  0  0  0  0  3  0  0  0  0  0  0
  -17.6350  -29.3590   23.7140 C   0  0  0  0  0  3  0  0  0  0  0  0
  -16.6610  -28.4570   23.2490 C   0  0  0  0  0  3  0  0  0  0  0  0
  -17.0550  -27.2620   22.6230 C   0  0  0  0  0  3  0  0  0  0  0  0
  -25.9120  -32.1310   23.5530 C   0  0  0  0  0  3  0  0  0  0  0  0
  -26.5610  -31.3010   24.7280 C   0  0  1  0  0  0  0  0  0  0  0  0
  -25.5610  -30.9150   25.8420 C   0  0  0  0  0  1  0  0  0  0  0  0
  -27.1950  -29.9980   24.1900 C   0  0  0  0  0  1  0  0  0  0  0  0
  -27.7080  -32.1160   25.3720 C   0  0  0  0  0  1  0  0  0  0  0  0
  -25.5430  -33.4770   24.0120 N   0  0  0  0  0  0  0  0  0  0  0  0
  -25.7890  -34.6070   23.3330 C   0  0  0  0  0  0  0  0  0  0  0  0
  -26.4220  -34.6260   22.2740 O   0  0  0  0  0  0  0  0  0  0  0  0
  -24.9750  -33.5320   24.8440 H   0  0  0  0  0  0  0  0  0  0  0  0
  -23.9550  -36.3220   23.1840 C   0  0  0  0  0  1  0  0  0  0  0  0
  -25.2430  -35.9220   23.9210 C   0  0  0  0  0  3  0  0  0  0  0  0
  -27.3540  -36.8530   24.7610 C   0  0  0  0  0  1  0  0  0  0  0  0
  -26.2140  -37.0360   23.8660 N   0  0  0  0  0  0  0  0  0  0  0  0
  -25.7640  -37.9170   24.1020 H   0  0  0  0  0  0  0  0  0  0  0  0
  -31.1130  -19.7370   19.2950 C   0  0  0  0  0  2  0  0  0  0  0  0
  -31.7650  -19.4160   21.7130 C   0  0  0  0  0  2  0  0  0  0  0  0
  -30.5020  -18.3020   19.3160 C   0  0  0  0  0  2  0  0  0  0  0  0
  -31.1320  -18.0040   21.6920 C   0  0  0  0  0  2  0  0  0  0  0  0
  -31.2050  -20.4500   20.6790 C   0  0  0  0  0  3  0  0  0  0  0  0
  -31.2490  -17.3680   20.2980 C   0  0  0  0  0  3  0  0  0  0  0  0
  -31.4220  -14.8790   19.8540 C   0  0  0  0  0  0  0  0  0  0  0  0
  -31.0800  -12.5930   18.9800 C   0  0  0  0  0  2  0  0  0  0  0  0
  -30.1160  -12.6520   17.7780 C   0  0  0  0  0  2  0  0  0  0  0  0
  -28.6490  -12.5810   18.2490 C   0  0  0  0  0  2  0  0  0  0  0  0
  -28.3450  -13.5700   19.4080 C   0  0  0  0  0  3  0  0  0  0  0  0
  -29.4210  -13.4800   20.5130 C   0  0  0  0  0  2  0  0  0  0  0  0
  -30.7330  -13.7030   19.8840 N   0  0  0  0  0  0  0  0  0  0  0  0
  -32.5380  -14.9800   19.3370 O   0  0  0  0  0  0  0  0  0  0  0  0
  -30.7600  -15.9690   20.3010 N   0  0  0  0  0  0  0  0  0  0  0  0
  -29.8440  -15.8020   20.6890 H   0  0  0  0  0  0  0  0  0  0  0  0
  -26.0190  -14.3100   20.2190 C   0  0  0  0  0  0  0  0  0  0  0  0
  -24.9230  -13.5990   20.6290 C   0  0  0  0  0  0  0  0  0  0  0  0
  -25.3020  -12.2240   20.5750 C   0  0  0  0  0  0  0  0  0  0  0  0
  -27.0000  -13.3710   19.9420 N   0  0  0  0  0  0  0  0  0  0  0  0
  -26.5740  -12.1100   20.2130 N   0  0  0  0  0  0  0  0  0  0  0  0
  -24.5100  -11.0050   20.7920 C   0  0  0  0  0  0  0  0  0  0  0  0
  -24.8740  -10.0530   21.7690 C   0  0  0  0  0  3  0  0  0  0  0  0
  -24.0890   -8.8990   21.9710 C   0  0  0  0  0  3  0  0  0  0  0  0
  -22.9250   -8.6880   21.1950 C   0  0  0  0  0  0  0  0  0  0  0  0
  -22.5800   -9.6260   20.2060 C   0  0  0  0  0  3  0  0  0  0  0  0
  -23.3660  -10.7730   20.0030 C   0  0  0  0  0  3  0  0  0  0  0  0
  -22.1140   -7.5840   21.3030 O   0  0  0  0  0  0  0  0  0  0  0  0
  -21.9340   -6.9380   22.4990 C   0  0  0  0  0  0  0  0  0  0  0  0
  -21.4040   -7.5970   23.6310 C   0  0  0  0  0  3  0  0  0  0  0  0
  -21.1710   -6.8770   24.8200 C   0  0  0  0  0  3  0  0  0  0  0  0
  -21.4580   -5.5010   24.8770 C   0  0  0  0  0  0  0  0  0  0  0  0
  -21.9810   -4.8420   23.7510 C   0  0  0  0  0  3  0  0  0  0  0  0
  -22.2150   -5.5590   22.5650 C   0  0  0  0  0  0  0  0  0  0  0  0
  -22.6990   -4.9150   21.4750 F   0  0  0  0  0  0  0  0  0  0  0  0
  -21.2280   -4.8070   26.0170 F   0  0  0  0  0  0  0  0  0  0  0  0
  -23.5680  -14.1570   20.9600 C   0  0  0  0  0  0  0  0  0  0  0  0
  -22.8390  -13.5030   21.8580 N   0  0  0  0  0  0  0  0  0  0  0  0
  -23.1690  -15.2070   20.4590 O   0  0  0  0  0  0  0  0  0  0  0  0
  -23.1760  -12.6530   22.2840 H   0  0  0  0  0  0  0  0  0  0  0  0
  -21.9300  -13.8570   22.1200 H   0  0  0  0  0  0  0  0  0  0  0  0
  -26.2540  -15.6700   20.0370 N   0  0  0  0  0  0  0  0  0  0  0  0
  -25.5290  -16.3640   20.1800 H   0  0  0  0  0  0  0  0  0  0  0  0
  -27.1120  -16.0630   19.6690 H   0  0  0  0  0  0  0  0  0  0  0  0
  -30.7300  -22.0480   23.4610 C   0  0  0  0  0  1  0  0  0  0  0  0
  -29.5970  -21.5480   22.5380 C   0  0  0  0  0  3  0  0  0  0  0  0
  -29.0540  -20.3690   23.0920 O   0  0  0  0  0  0  0  0  0  0  0  0
  -29.7020  -19.6820   22.9700 H   0  0  0  0  0  0  0  0  0  0  0  0
  1 94  1  0
  2  6  1  0
  4  2  1  0
  4  7  1  0
  5  3  1  0
  6  3  1  0
  6  1  1  0
  7  8  1  0
  7  5  1  0
  8 10  1  0
  9 20  2  0
 10 15  1  0
 11 19  1  0
 11 21  1  0
 12 18  1  0
 12 14  1  0
 13 19  1  0
 14 13  1  0
 15 14  2  0
 16 17  1  0
 16 10  2  0
 17 12  2  0
 18 11  1  0
 19  9  1  0
 21 23  2  0
 22 21  1  0
 24 22  1  0
 25 34  2  0
 25 30  1  0
 26 22  1  0
 26 30  1  0
 27 26  1  0
 28 29  1  0
 28 27  1  0
 29 25  1  0
 30 31  2  0
 31 32  1  0
 33 32  2  0
 34 33  1  0
 35  9  1  0
 35 40  1  0
 35 36  1  0
 36 39  1  1
 36 37  1  0
 38 36  1  0
 40 43  1  0
 41 45  1  0
 41 40  1  0
 42 41  2  0
 45 44  1  0
 47 45  1  0
 47 48  1  0
 47 46  1  0
 49 51  1  0
 49 53  1  0
 51 54  1  0
 52 50  1  0
 53  1  1  0
 53 50  1  0
 54 63  1  0
 54 52  1  0
 55 61  1  0
 55 63  1  0
 56 61  1  0
 57 58  1  0
 57 56  1  0
 59 58  1  0
 59 68  1  0
 59 60  1  0
 61 60  1  0
 62 55  2  0
 63 64  1  0
 65 66  2  0
 66 85  1  0
 67 66  1  0
 67 70  1  0
 68 69  1  0
 68 65  1  0
 69 67  2  0
 70 71  1  0
 71 72  2  0
 73 76  1  0
 73 72  1  0
 74 73  2  0
 75 74  1  0
 75 70  2  0
 76 77  1  0
 77 82  2  0
 77 78  1  0
 78 79  2  0
 79 80  1  0
 80 84  1  0
 81 80  2  0
 82 81  1  0
 83 82  1  0
 85 86  1  0
 86 89  1  0
 86 88  1  0
 87 85  2  0
 90 91  1  0
 90 65  1  0
 92 90  1  0
 94 95  1  0
 94 93  1  0
 96 95  1  0
M  ISO  4   7 101   8 101  55 100  63 100
M  END
>  <TORSDO>  (48) 
F 20

>  <SCORE>  (48) 
-10.929

>  <name>  (48) 
48

>  <ligand_id>  (48) 
48

>  <original_smiles>  (48) 
[H]OC([H])(C([H])([H])[H])C([H])(C1([H])C([H])([H])C([H])([H])C([H])(Oc2c([H])c([H])c3c(c2[H])C([H])([H])N(C(=O)C([H])(N([H])C(=O)C([H])(N([H])C([H])([H])[H])C([H])([H])[H])C(C([H])([H])[H])(C([H])([H])[H])C([H])([H])[H])C([H])(C(=O)N([H])C2([H])c4c([H])c([H])c([H])c([H])c4C([H])([H])C([H])([H])C2([H])[H])C3([H])[H])C([H])([H])C1([H])[H])C1([H])C([H])([H])C([H])([H])C([H])(N([H])C(=O)N2C([H])([H])C([H])([H])C([H])([H])C([H])(n3nc(-c4c([H])c([H])c(Oc5c([H])c([H])c(F)c([H])c5F)c([H])c4[H])c(C(=O)N([H])[H])c3N([H])[H])C2([H])[H])C([H])([H])C1([H])[H]

>  <smiles>  (48) 
[H]OC([H])(C([H])([H])[H])C([H])(C1([H])C([H])([H])C([H])([H])C([H])(Oc2c([H])c([H])c3c(c2[H])C([H])([H])N(C(=O)C([H])(N([H])C(=O)C([H])(N([H])C([H])([H])[H])C([H])([H])[H])C(C([H])([H])[H])(C([H])([H])[H])C([H])([H])[H])C([H])(C(=O)N([H])C2([H])c4c([H])c([H])c([H])c([H])c4C([H])([H])C([H])([H])C2([H])[H])C3([H])[H])C([H])([H])C1([H])[H])C1([H])C([H])([H])C([H])([H])C([H])(N([H])C(=O)N2C([H])([H])C([H])([H])C([H])([H])C([H])(n3nc(-c4c([H])c([H])c(Oc5c([H])c([H])c(F)c([H])c5F)c([H])c4[H])c(C(=O)N([H])[H])c3N([H])[H])C2([H])[H])C([H])([H])C1([H])[H]

$$$$
49:0:0
     RDKit          3D

100109  0  0  1  0  0  0  0  0999 V2000
  -28.3570  -21.0160   18.3100 C   0  0  0  0  0  3  0  0  0  0  0  0
  -30.9080  -19.6540   22.2720 C   0  0  0  0  0  3  0  0  0  0  0  0
  -29.6750  -20.2090   20.2260 C   0  0  0  0  0  0  0  0  0  0  0  0
  -29.0140  -19.9500   18.9680 C   0  0  0  0  0  0  0  0  0  0  0  0
  -30.3680  -19.2300   21.0370 C   0  0  0  0  0  0  0  0  0  0  0  0
  -29.6310  -21.5560   20.7410 C   0  0  0  0  0  0  0  0  0  0  0  0
  -28.3060  -22.3220   18.8280 C   0  0  0  0  0  0  0  0  0  0  0  0
  -28.9760  -22.5980   20.0300 C   0  0  0  0  0  0  0  0  0  0  0  0
  -30.7860  -20.9830   22.6790 C   0  0  0  0  0  0  0  0  0  0  0  0
  -31.3040  -21.4440   24.0240 C   0  0  0  0  0  1  0  0  0  0  0  0
  -30.1860  -21.9080   21.9260 N   0  0  0  0  0  0  0  0  0  0  0  0
  -26.6830  -23.0220   17.2010 C   0  0  0  0  0  1  0  0  0  0  0  0
  -27.6100  -23.3530   18.2280 O   0  0  0  0  0  0  0  0  0  0  0  0
  -28.9480  -18.5720   18.2770 C   0  0  0  0  0  2  0  0  0  0  0  0
  -27.9970  -16.9760   16.5110 C   0  0  0  0  0  1  0  0  0  0  0  0
  -28.1490  -18.4360   16.9620 C   0  0  0  0  0  2  0  0  0  0  0  0
  -30.5080  -17.7360   20.6890 C   0  0  0  0  0  2  0  0  0  0  0  0
  -31.3400  -16.8100   21.6070 C   0  0  0  0  0  2  0  0  0  0  0  0
  -31.4770  -14.6620   20.2810 C   0  0  0  0  0  0  0  0  0  0  0  0
  -30.9890  -12.6370   18.9480 C   0  0  0  0  0  2  0  0  0  0  0  0
  -30.0160  -12.9560   17.7950 C   0  0  0  0  0  2  0  0  0  0  0  0
  -28.5500  -12.9000   18.2660 C   0  0  0  0  0  2  0  0  0  0  0  0
  -28.3160  -13.7030   19.5720 C   0  0  0  0  0  3  0  0  0  0  0  0
  -29.3740  -13.3210   20.6290 C   0  0  0  0  0  2  0  0  0  0  0  0
  -30.7170  -13.5580   20.0580 N   0  0  0  0  0  0  0  0  0  0  0  0
  -32.4660  -14.9630   19.6060 O   0  0  0  0  0  0  0  0  0  0  0  0
  -31.0410  -15.4100   21.3030 N   0  0  0  0  0  0  0  0  0  0  0  0
  -30.2840  -15.0010   21.8300 H   0  0  0  0  0  0  0  0  0  0  0  0
  -26.0130  -14.4680   20.4430 C   0  0  0  0  0  0  0  0  0  0  0  0
  -24.8920  -13.7650   20.7980 C   0  0  0  0  0  0  0  0  0  0  0  0
  -25.2190  -12.3860   20.6260 C   0  0  0  0  0  0  0  0  0  0  0  0
  -26.9580  -13.5180   20.0840 N   0  0  0  0  0  0  0  0  0  0  0  0
  -26.4840  -12.2560   20.2450 N   0  0  0  0  0  0  0  0  0  0  0  0
  -24.3860  -11.1830   20.7450 C   0  0  0  0  0  0  0  0  0  0  0  0
  -24.7560  -10.1070   21.5830 C   0  0  0  0  0  3  0  0  0  0  0  0
  -23.9310   -8.9680   21.6930 C   0  0  0  0  0  3  0  0  0  0  0  0
  -22.7210   -8.8950   20.9630 C   0  0  0  0  0  0  0  0  0  0  0  0
  -22.3670   -9.9580   20.1120 C   0  0  0  0  0  3  0  0  0  0  0  0
  -23.1910  -11.0900   20.0010 C   0  0  0  0  0  3  0  0  0  0  0  0
  -21.8700   -7.8160   20.9890 O   0  0  0  0  0  0  0  0  0  0  0  0
  -21.7290   -7.0340   22.1070 C   0  0  0  0  0  0  0  0  0  0  0  0
  -21.3270   -7.5760   23.3480 C   0  0  0  0  0  3  0  0  0  0  0  0
  -21.1260   -6.7270   24.4550 C   0  0  0  0  0  3  0  0  0  0  0  0
  -21.3160   -5.3380   24.3230 C   0  0  0  0  0  0  0  0  0  0  0  0
  -21.7090   -4.7960   23.0860 C   0  0  0  0  0  3  0  0  0  0  0  0
  -21.9120   -5.6430   21.9820 C   0  0  0  0  0  0  0  0  0  0  0  0
  -22.2730   -5.1120   20.7880 F   0  0  0  0  0  0  0  0  0  0  0  0
  -21.1130   -4.5230   25.3840 F   0  0  0  0  0  0  0  0  0  0  0  0
  -23.5600  -14.3400   21.1830 C   0  0  0  0  0  0  0  0  0  0  0  0
  -22.8170  -13.6530   22.0440 N   0  0  0  0  0  0  0  0  0  0  0  0
  -23.1880  -15.4340   20.7590 O   0  0  0  0  0  0  0  0  0  0  0  0
  -23.1310  -12.7650   22.4090 H   0  0  0  0  0  0  0  0  0  0  0  0
  -21.9250  -14.0200   22.3410 H   0  0  0  0  0  0  0  0  0  0  0  0
  -26.3000  -15.8280   20.3800 N   0  0  0  0  0  0  0  0  0  0  0  0
  -25.5980  -16.5350   20.5650 H   0  0  0  0  0  0  0  0  0  0  0  0
  -27.1670  -16.2120   20.0270 H   0  0  0  0  0  0  0  0  0  0  0  0
  -28.9370  -23.8840   20.5500 O   0  0  0  0  0  0  0  0  0  0  0  0
  -29.7870  -24.8440   19.9090 C   0  0  0  0  0  2  0  0  0  0  0  0
  -29.0120  -26.0780   19.3900 C   0  0  0  0  0  2  0  0  0  0  0  0
  -28.6630  -26.9990   20.4430 O   0  0  0  0  0  0  0  0  0  0  0  0
  -24.5620  -32.0190   23.4230 C   0  0  0  0  0  0  0  0  0  0  0  0
  -27.4540  -27.6720   20.3970 C   0  0  0  0  0  0  0  0  0  0  0  0
  -23.4620  -30.5950   21.7270 C   0  0  0  0  0  3  0  0  0  0  0  0
  -25.0120  -29.1110   20.3530 C   0  0  0  0  0  0  0  0  0  0  0  0
  -25.9860  -31.0230   21.6350 C   0  0  0  0  0  2  0  0  0  0  0  0
  -26.1340  -29.6600   20.9850 C   0  0  0  0  0  0  0  0  0  0  0  0
  -27.3550  -28.9440   21.0100 C   0  0  0  0  0  3  0  0  0  0  0  0
  -26.2950  -27.1220   19.7980 C   0  0  0  0  0  3  0  0  0  0  0  0
  -25.0860  -27.8390   19.7660 C   0  0  0  0  0  3  0  0  0  0  0  0
  -23.7460  -29.9370   20.3520 C   0  0  0  0  0  2  0  0  0  0  0  0
  -24.6850  -31.2260   22.3200 N   0  0  0  0  0  0  0  0  0  0  0  0
  -23.4520  -32.2570   23.9210 O   0  0  0  0  0  0  0  0  0  0  0  0
  -22.8040  -29.5460   22.6530 C   0  0  0  0  0  0  0  0  0  0  0  0
  -21.4860  -29.3490   22.4910 N   0  0  0  0  0  0  0  0  0  0  0  0
  -23.4770  -28.9160   23.4720 O   0  0  0  0  0  0  0  0  0  0  0  0
  -21.0050  -29.9110   21.8020 H   0  0  0  0  0  0  0  0  0  0  0  0
  -18.1130  -28.1230   22.9050 C   0  0  0  0  0  0  0  0  0  0  0  0
  -20.6640  -28.3890   23.2260 C   0  0  0  0  0  3  0  0  0  0  0  0
  -20.7850  -26.9720   22.6180 C   0  0  0  0  0  2  0  0  0  0  0  0
  -19.7020  -26.6690   21.5780 C   0  0  0  0  0  2  0  0  0  0  0  0
  -18.3080  -26.7920   22.2010 C   0  0  0  0  0  2  0  0  0  0  0  0
  -19.2190  -28.8810   23.3730 C   0  0  0  0  0  0  0  0  0  0  0  0
  -18.9850  -30.1270   23.9910 C   0  0  0  0  0  3  0  0  0  0  0  0
  -17.6750  -30.6190   24.1460 C   0  0  0  0  0  3  0  0  0  0  0  0
  -16.5830  -29.8590   23.6950 C   0  0  0  0  0  3  0  0  0  0  0  0
  -16.8010  -28.6130   23.0820 C   0  0  0  0  0  3  0  0  0  0  0  0
  -25.8020  -32.6820   24.0970 C   0  0  0  0  0  3  0  0  0  0  0  0
  -25.4670  -34.0890   24.3530 N   0  0  0  0  0  0  0  0  0  0  0  0
  -25.8390  -35.1140   23.5740 C   0  0  0  0  0  0  0  0  0  0  0  0
  -26.5730  -34.9770   22.5910 O   0  0  0  0  0  0  0  0  0  0  0  0
  -24.8240  -34.2690   25.1090 H   0  0  0  0  0  0  0  0  0  0  0  0
  -24.1190  -36.8710   23.0490 C   0  0  0  0  0  1  0  0  0  0  0  0
  -25.3150  -36.5130   23.9460 C   0  0  0  0  0  3  0  0  0  0  0  0
  -27.3920  -37.4510   24.8610 C   0  0  0  0  0  1  0  0  0  0  0  0
  -26.3420  -37.5730   23.8510 N   0  0  0  0  0  0  0  0  0  0  0  0
  -25.9210  -38.4930   23.9430 H   0  0  0  0  0  0  0  0  0  0  0  0
  -26.2460  -31.9630   25.4290 C   0  0  1  0  0  0  0  0  0  0  0  0
  -25.0920  -31.7600   26.4380 C   0  0  0  0  0  1  0  0  0  0  0  0
  -26.8560  -30.5740   25.1220 C   0  0  0  0  0  1  0  0  0  0  0  0
  -27.3520  -32.7880   26.1260 C   0  0  0  0  0  1  0  0  0  0  0  0
  1  7  2  0
  1  4  1  0
  2  9  1  0
  3  6  1  0
  3  5  1  0
  4  3  2  0
  5  2  2  0
  6 11  1  0
  7  8  1  0
  8 57  1  0
  8  6  2  0
  9 10  1  0
 11  9  2  0
 12 13  1  0
 13  7  1  0
 14  4  1  0
 15 16  1  0
 16 14  1  0
 17  5  1  0
 17 18  1  0
 19 27  1  0
 20 25  1  0
 21 22  1  0
 21 20  1  0
 23 22  1  0
 23 32  1  0
 23 24  1  0
 25 19  1  0
 25 24  1  0
 26 19  2  0
 27 18  1  0
 27 28  1  0
 29 30  2  0
 30 49  1  0
 31 34  1  0
 31 30  1  0
 32 33  1  0
 32 29  1  0
 33 31  2  0
 34 35  1  0
 35 36  2  0
 37 40  1  0
 37 36  1  0
 38 37  2  0
 39 38  1  0
 39 34  2  0
 40 41  1  0
 41 42  1  0
 42 43  2  0
 44 43  1  0
 44 48  1  0
 45 44  2  0
 46 41  2  0
 46 45  1  0
 47 46  1  0
 49 50  1  0
 50 53  1  0
 50 52  1  0
 51 49  2  0
 54 29  1  0
 54 55  1  0
 56 54  1  0
 58 57  1  0
 59 58  1  0
 59 60  1  0
 61 72  2  0
 62 60  1  0
 62 67  1  0
 63 71  1  0
 63 73  1  0
 64 66  1  0
 65 71  1  0
 66 67  2  0
 66 65  1  0
 68 62  2  0
 69 68  1  0
 69 64  2  0
 70 64  1  0
 70 63  1  0
 71 61  1  0
 73 75  2  0
 74 73  1  0
 76 74  1  0
 77 86  2  0
 77 82  1  0
 78 74  1  0
 78 82  1  0
 79 78  1  0
 80 81  1  0
 80 79  1  0
 81 77  1  0
 82 83  2  0
 83 84  1  0
 85 84  2  0
 86 85  1  0
 87 61  1  0
 87 88  1  0
 87 97  1  0
 88 91  1  0
 89 93  1  0
 89 88  1  0
 90 89  2  0
 93 92  1  0
 95 96  1  0
 95 93  1  0
 95 94  1  0
 97100  1  1
 97 98  1  0
 99 97  1  0
M  ISO  4  19 100  27 100  59 101  60 101
M  END
>  <TORSDO>  (49) 
F 24

>  <SCORE>  (49) 
-8.151

>  <name>  (49) 
49

>  <ligand_id>  (49) 
49

>  <original_smiles>  (49) 
[H]c1c([H])c([H])c2c(c1[H])C([H])([H])C([H])([H])C([H])([H])C2([H])N([H])C(=O)C1([H])N(C(=O)C([H])(N([H])C(=O)C([H])(N([H])C([H])([H])[H])C([H])([H])[H])C(C([H])([H])[H])(C([H])([H])[H])C([H])([H])[H])C([H])([H])c2c([H])c(OC([H])([H])C([H])([H])Oc3c(OC([H])([H])[H])c([H])c(C([H])([H])C([H])([H])C([H])([H])[H])c4c(C([H])([H])C([H])([H])N([H])C(=O)N5C([H])([H])C([H])([H])C([H])([H])C([H])(n6nc(-c7c([H])c([H])c(Oc8c([H])c([H])c(F)c([H])c8F)c([H])c7[H])c(C(=O)N([H])[H])c6N([H])[H])C5([H])[H])c([H])c(C([H])([H])[H])nc34)c([H])c([H])c2C1([H])[H]

>  <smiles>  (49) 
[H]c1c([H])c([H])c2c(c1[H])C([H])([H])C([H])([H])C([H])([H])C2([H])N([H])C(=O)C1([H])N(C(=O)C([H])(N([H])C(=O)C([H])(N([H])C([H])([H])[H])C([H])([H])[H])C(C([H])([H])[H])(C([H])([H])[H])C([H])([H])[H])C([H])([H])c2c([H])c(OC([H])([H])C([H])([H])Oc3c(OC([H])([H])[H])c([H])c(C([H])([H])C([H])([H])C([H])([H])[H])c4c(C([H])([H])C([H])([H])N([H])C(=O)N5C([H])([H])C([H])([H])C([H])([H])C([H])(n6nc(-c7c([H])c([H])c(Oc8c([H])c([H])c(F)c([H])c8F)c([H])c7[H])c(C(=O)N([H])[H])c6N([H])[H])C5([H])[H])c([H])c(C([H])([H])[H])nc34)c([H])c([H])c2C1([H])[H]

$$$$
50:0:0
     RDKit          3D

 94102  0  0  1  0  0  0  0  0999 V2000
  -29.6210  -21.2670   20.0410 C   0  0  0  0  0  3  0  0  0  0  0  0
  -31.9470  -20.6720   18.7250 C   0  0  0  0  0  3  0  0  0  0  0  0
  -30.1000  -22.1980   19.0990 C   0  0  0  0  0  0  0  0  0  0  0  0
  -31.3200  -21.9020   18.4380 C   0  0  0  0  0  0  0  0  0  0  0  0
  -30.3120  -20.0610   20.2410 C   0  0  0  0  0  0  0  0  0  0  0  0
  -31.9890  -22.8350   17.4330 C   0  0  0  0  0  1  0  0  0  0  0  0
  -31.4490  -19.7600   19.5880 N   0  0  0  0  0  0  0  0  0  0  0  0
  -29.8130  -19.1250   21.1450 N   0  0  0  0  0  0  0  0  0  0  0  0
  -29.0360  -19.4700   21.6980 H   0  0  0  0  0  0  0  0  0  0  0  0
  -29.2430  -23.4170   18.7870 C   0  0  0  0  0  2  0  0  0  0  0  0
  -29.3710  -24.5810   19.7840 C   0  0  0  0  0  2  0  0  0  0  0  0
  -28.7320  -25.8500   19.1930 C   0  0  0  0  0  2  0  0  0  0  0  0
  -28.4380  -26.8090   20.2110 O   0  0  0  0  0  0  0  0  0  0  0  0
  -24.5940  -31.9220   23.2850 C   0  0  0  0  0  0  0  0  0  0  0  0
  -27.2350  -27.4890   20.1900 C   0  0  0  0  0  0  0  0  0  0  0  0
  -23.3840  -30.5220   21.6450 C   0  0  0  0  0  3  0  0  0  0  0  0
  -24.8300  -28.9860   20.2230 C   0  0  0  0  0  0  0  0  0  0  0  0
  -25.9090  -30.8840   21.4380 C   0  0  0  0  0  2  0  0  0  0  0  0
  -25.9910  -29.5130   20.8000 C   0  0  0  0  0  0  0  0  0  0  0  0
  -27.1920  -28.7700   20.7830 C   0  0  0  0  0  3  0  0  0  0  0  0
  -26.0390  -26.9600   19.6430 C   0  0  0  0  0  3  0  0  0  0  0  0
  -24.8480  -27.7060   19.6470 C   0  0  0  0  0  3  0  0  0  0  0  0
  -23.5880  -29.8430   20.2660 C   0  0  0  0  0  2  0  0  0  0  0  0
  -24.6490  -31.1230   22.1820 N   0  0  0  0  0  0  0  0  0  0  0  0
  -23.5140  -32.1930   23.8280 O   0  0  0  0  0  0  0  0  0  0  0  0
  -22.7350  -29.4990   22.6060 C   0  0  0  0  0  0  0  0  0  0  0  0
  -21.4140  -29.3040   22.4670 N   0  0  0  0  0  0  0  0  0  0  0  0
  -23.4170  -28.8840   23.4290 O   0  0  0  0  0  0  0  0  0  0  0  0
  -20.9240  -29.8540   21.7750 H   0  0  0  0  0  0  0  0  0  0  0  0
  -18.0470  -28.0740   22.9240 C   0  0  0  0  0  0  0  0  0  0  0  0
  -20.5970  -28.3660   23.2350 C   0  0  0  0  0  3  0  0  0  0  0  0
  -20.7270  -26.9300   22.6780 C   0  0  0  0  0  2  0  0  0  0  0  0
  -19.6460  -26.5810   21.6490 C   0  0  0  0  0  2  0  0  0  0  0  0
  -18.2520  -26.7180   22.2690 C   0  0  0  0  0  2  0  0  0  0  0  0
  -19.1500  -28.8540   23.3640 C   0  0  0  0  0  0  0  0  0  0  0  0
  -18.9070  -30.1220   23.9350 C   0  0  0  0  0  3  0  0  0  0  0  0
  -17.5950  -30.6110   24.0720 C   0  0  0  0  0  3  0  0  0  0  0  0
  -16.5060  -29.8290   23.6480 C   0  0  0  0  0  3  0  0  0  0  0  0
  -16.7330  -28.5610   23.0810 C   0  0  0  0  0  3  0  0  0  0  0  0
  -25.8810  -32.5520   23.9020 C   0  0  0  0  0  3  0  0  0  0  0  0
  -25.5780  -33.9530   24.2210 N   0  0  0  0  0  0  0  0  0  0  0  0
  -25.9100  -34.9970   23.4500 C   0  0  0  0  0  0  0  0  0  0  0  0
  -26.5720  -34.8830   22.4150 O   0  0  0  0  0  0  0  0  0  0  0  0
  -24.9880  -34.1170   25.0250 H   0  0  0  0  0  0  0  0  0  0  0  0
  -24.1740  -36.7820   23.0920 C   0  0  0  0  0  1  0  0  0  0  0  0
  -25.4250  -36.3900   23.8950 C   0  0  0  0  0  3  0  0  0  0  0  0
  -27.5690  -37.2820   24.6900 C   0  0  0  0  0  1  0  0  0  0  0  0
  -26.4540  -37.4420   23.7600 N   0  0  0  0  0  0  0  0  0  0  0  0
  -26.0500  -38.3630   23.9080 H   0  0  0  0  0  0  0  0  0  0  0  0
  -26.3970  -31.7860   25.1810 C   0  0  1  0  0  0  0  0  0  0  0  0
  -25.3050  -31.5540   26.2510 C   0  0  0  0  0  1  0  0  0  0  0  0
  -26.9760  -30.4060   24.7920 C   0  0  0  0  0  1  0  0  0  0  0  0
  -27.5500  -32.5810   25.8390 C   0  0  0  0  0  1  0  0  0  0  0  0
  -29.6120  -17.7580   20.6750 C   0  0  0  0  0  2  0  0  0  0  0  0
  -30.7620  -16.9260   22.8090 C   0  0  0  0  0  1  0  0  0  0  0  0
  -30.6010  -16.7430   21.2930 C   0  0  0  0  0  3  0  0  0  0  0  0
  -30.7140  -14.4330   20.3080 C   0  0  0  0  0  0  0  0  0  0  0  0
  -30.3420  -12.3070   19.1150 C   0  0  0  0  0  2  0  0  0  0  0  0
  -29.3680  -12.5160   17.9370 C   0  0  0  0  0  2  0  0  0  0  0  0
  -27.9050  -12.3950   18.4040 C   0  0  0  0  0  2  0  0  0  0  0  0
  -27.6060  -13.2400   19.6710 C   0  0  0  0  0  3  0  0  0  0  0  0
  -28.6830  -13.0010   20.7520 C   0  0  0  0  0  2  0  0  0  0  0  0
  -30.0020  -13.2840   20.1580 N   0  0  0  0  0  0  0  0  0  0  0  0
  -31.7930  -14.6360   19.7460 O   0  0  0  0  0  0  0  0  0  0  0  0
  -30.1190  -15.3810   21.0450 N   0  0  0  0  0  0  0  0  0  0  0  0
  -29.2230  -15.1360   21.4430 H   0  0  0  0  0  0  0  0  0  0  0  0
  -25.2290  -13.8780   20.4280 C   0  0  0  0  0  0  0  0  0  0  0  0
  -24.1580  -13.1200   20.8210 C   0  0  0  0  0  0  0  0  0  0  0  0
  -24.6000  -11.7620   20.7780 C   0  0  0  0  0  0  0  0  0  0  0  0
  -26.2580  -12.9830   20.1770 N   0  0  0  0  0  0  0  0  0  0  0  0
  -25.8850  -11.7060   20.4460 N   0  0  0  0  0  0  0  0  0  0  0  0
  -23.8620  -10.5100   20.9850 C   0  0  0  0  0  0  0  0  0  0  0  0
  -24.3040   -9.5370   21.9080 C   0  0  0  0  0  3  0  0  0  0  0  0
  -23.5700   -8.3460   22.1000 C   0  0  0  0  0  3  0  0  0  0  0  0
  -22.3790   -8.1210   21.3690 C   0  0  0  0  0  0  0  0  0  0  0  0
  -21.9550   -9.0830   20.4340 C   0  0  0  0  0  3  0  0  0  0  0  0
  -22.6890  -10.2660   20.2400 C   0  0  0  0  0  3  0  0  0  0  0  0
  -21.6140   -6.9850   21.4720 O   0  0  0  0  0  0  0  0  0  0  0  0
  -21.5810   -6.2410   22.6240 C   0  0  0  0  0  0  0  0  0  0  0  0
  -21.1920   -6.8010   23.8610 C   0  0  0  0  0  3  0  0  0  0  0  0
  -21.1060   -5.9840   25.0070 C   0  0  0  0  0  3  0  0  0  0  0  0
  -21.3970   -4.6110   24.9170 C   0  0  0  0  0  0  0  0  0  0  0  0
  -21.7800   -4.0500   23.6850 C   0  0  0  0  0  3  0  0  0  0  0  0
  -21.8680   -4.8640   22.5420 C   0  0  0  0  0  0  0  0  0  0  0  0
  -22.2160   -4.3160   21.3530 F   0  0  0  0  0  0  0  0  0  0  0  0
  -21.3080   -3.8240   26.0150 F   0  0  0  0  0  0  0  0  0  0  0  0
  -22.7750  -13.6150   21.1240 C   0  0  0  0  0  0  0  0  0  0  0  0
  -22.0550  -12.9290   22.0070 N   0  0  0  0  0  0  0  0  0  0  0  0
  -22.3360  -14.6430   20.6100 O   0  0  0  0  0  0  0  0  0  0  0  0
  -22.4200  -12.0960   22.4450 H   0  0  0  0  0  0  0  0  0  0  0  0
  -21.1240  -13.2400   22.2470 H   0  0  0  0  0  0  0  0  0  0  0  0
  -25.4080  -15.2470   20.2490 N   0  0  0  0  0  0  0  0  0  0  0  0
  -24.6570  -15.9150   20.3880 H   0  0  0  0  0  0  0  0  0  0  0  0
  -26.2580  -15.6730   19.9030 H   0  0  0  0  0  0  0  0  0  0  0  0
  1  5  1  0
  2  7  1  0
  3  1  2  0
  4  2  2  0
  4  3  1  0
  5  8  1  0
  6  4  1  0
  7  5  2  0
  8  9  1  0
 10  3  1  0
 10 11  1  0
 12 11  1  0
 12 13  1  0
 14 25  2  0
 15 13  1  0
 15 20  1  0
 16 24  1  0
 16 26  1  0
 17 23  1  0
 17 19  1  0
 18 24  1  0
 19 18  1  0
 20 19  2  0
 21 22  1  0
 21 15  2  0
 22 17  2  0
 23 16  1  0
 24 14  1  0
 26 28  2  0
 27 26  1  0
 29 27  1  0
 30 39  2  0
 30 35  1  0
 31 27  1  0
 31 35  1  0
 32 31  1  0
 33 34  1  0
 33 32  1  0
 34 30  1  0
 35 36  2  0
 36 37  1  0
 38 37  2  0
 39 38  1  0
 40 14  1  0
 40 41  1  0
 40 50  1  0
 41 44  1  0
 42 46  1  0
 42 41  1  0
 43 42  2  0
 46 45  1  0
 48 46  1  0
 48 49  1  0
 48 47  1  0
 50 53  1  1
 50 51  1  0
 52 50  1  0
 54  8  1  0
 54 56  1  0
 56 55  1  0
 57 65  1  0
 58 63  1  0
 59 60  1  0
 59 58  1  0
 61 60  1  0
 61 70  1  0
 61 62  1  0
 63 57  1  0
 63 62  1  0
 64 57  2  0
 65 56  1  0
 65 66  1  0
 67 68  2  0
 68 87  1  0
 69 68  1  0
 69 72  1  0
 70 67  1  0
 70 71  1  0
 71 69  2  0
 72 73  1  0
 73 74  2  0
 75 78  1  0
 75 74  1  0
 76 75  2  0
 77 76  1  0
 77 72  2  0
 78 79  1  0
 79 80  1  0
 80 81  2  0
 82 81  1  0
 82 86  1  0
 83 82  2  0
 84 79  2  0
 84 83  1  0
 85 84  1  0
 87 88  1  0
 88 91  1  0
 88 90  1  0
 89 87  2  0
 92 93  1  0
 92 67  1  0
 94 92  1  0
M  ISO  4  12 101  13 101  57 100  65 100
M  END
>  <TORSDO>  (50) 
F 21

>  <SCORE>  (50) 
-13.505

>  <name>  (50) 
50

>  <ligand_id>  (50) 
50

>  <original_smiles>  (50) 
[H]c1nc(N([H])C([H])([H])C([H])(N([H])C(=O)N2C([H])([H])C([H])([H])C([H])([H])C([H])(n3nc(-c4c([H])c([H])c(Oc5c([H])c([H])c(F)c([H])c5F)c([H])c4[H])c(C(=O)N([H])[H])c3N([H])[H])C2([H])[H])C([H])([H])[H])c([H])c(C([H])([H])C([H])([H])C([H])([H])Oc2c([H])c([H])c3c(c2[H])C([H])([H])N(C(=O)C([H])(N([H])C(=O)C([H])(N([H])C([H])([H])[H])C([H])([H])[H])C(C([H])([H])[H])(C([H])([H])[H])C([H])([H])[H])C([H])(C(=O)N([H])C2([H])c4c([H])c([H])c([H])c([H])c4C([H])([H])C([H])([H])C2([H])[H])C3([H])[H])c1C([H])([H])[H]

>  <smiles>  (50) 
[H]c1nc(N([H])C([H])([H])C([H])(N([H])C(=O)N2C([H])([H])C([H])([H])C([H])([H])C([H])(n3nc(-c4c([H])c([H])c(Oc5c([H])c([H])c(F)c([H])c5F)c([H])c4[H])c(C(=O)N([H])[H])c3N([H])[H])C2([H])[H])C([H])([H])[H])c([H])c(C([H])([H])C([H])([H])C([H])([H])Oc2c([H])c([H])c3c(c2[H])C([H])([H])N(C(=O)C([H])(N([H])C(=O)C([H])(N([H])C([H])([H])[H])C([H])([H])[H])C(C([H])([H])[H])(C([H])([H])[H])C([H])([H])[H])C([H])(C(=O)N([H])C2([H])c4c([H])c([H])c([H])c([H])c4C([H])([H])C([H])([H])C2([H])[H])C3([H])[H])c1C([H])([H])[H]

$$$$
51:0:0
     RDKit          3D

 92101  0  0  1  0  0  0  0  0999 V2000
  -31.1150  -18.1440   19.2110 C   0  0  0  0  0  3  0  0  0  0  0  0
  -31.0790  -19.5640   19.0780 C   0  0  0  0  0  3  0  0  0  0  0  0
  -30.7140  -19.8360   21.4550 C   0  0  0  0  0  3  0  0  0  0  0  0
  -30.8970  -17.5540   20.4790 C   0  0  0  0  0  0  0  0  0  0  0  0
  -30.7870  -18.4170   21.5790 C   0  0  0  0  0  0  0  0  0  0  0  0
  -30.8070  -20.4400   20.1710 C   0  0  0  0  0  0  0  0  0  0  0  0
  -30.5620  -17.6290   22.8430 C   0  0  0  0  0  2  0  0  0  0  0  0
  -30.5690  -16.1480   22.3760 C   0  0  0  0  0  2  0  0  0  0  0  0
  -30.3530  -16.1280   20.8340 C   0  0  2  0  0  0  0  0  0  0  0  0
  -30.9920  -14.7790   20.1920 C   0  0  0  0  0  0  0  0  0  0  0  0
  -30.6590  -12.6040   18.9740 C   0  0  0  0  0  2  0  0  0  0  0  0
  -29.6690  -12.7810   17.7980 C   0  0  0  0  0  2  0  0  0  0  0  0
  -28.2140  -12.5780   18.2660 C   0  0  0  0  0  2  0  0  0  0  0  0
  -27.9050  -13.3920   19.5410 C   0  0  0  0  0  3  0  0  0  0  0  0
  -29.0100  -13.2000   20.6170 C   0  0  0  0  0  2  0  0  0  0  0  0
  -30.3030  -13.5870   20.0270 N   0  0  0  0  0  0  0  0  0  0  0  0
  -32.1410  -14.8530   19.7460 O   0  0  0  0  0  0  0  0  0  0  0  0
  -25.5360  -14.0760   20.3020 C   0  0  0  0  0  0  0  0  0  0  0  0
  -24.4650  -13.3300   20.7050 C   0  0  0  0  0  0  0  0  0  0  0  0
  -24.9050  -11.9730   20.6790 C   0  0  0  0  0  0  0  0  0  0  0  0
  -26.5630  -13.1680   20.0620 N   0  0  0  0  0  0  0  0  0  0  0  0
  -26.1880  -11.9020   20.3530 N   0  0  0  0  0  0  0  0  0  0  0  0
  -24.1630  -10.7280   20.8870 C   0  0  0  0  0  0  0  0  0  0  0  0
  -24.5790   -9.7760   21.8420 C   0  0  0  0  0  3  0  0  0  0  0  0
  -23.8400   -8.5910   22.0350 C   0  0  0  0  0  3  0  0  0  0  0  0
  -22.6720   -8.3530   21.2730 C   0  0  0  0  0  0  0  0  0  0  0  0
  -22.2760   -9.2940   20.3070 C   0  0  0  0  0  3  0  0  0  0  0  0
  -23.0150  -10.4710   20.1120 C   0  0  0  0  0  3  0  0  0  0  0  0
  -21.9040   -7.2190   21.3760 O   0  0  0  0  0  0  0  0  0  0  0  0
  -21.8090   -6.5220   22.5540 C   0  0  0  0  0  0  0  0  0  0  0  0
  -21.3450   -7.1270   23.7430 C   0  0  0  0  0  3  0  0  0  0  0  0
  -21.1980   -6.3570   24.9130 C   0  0  0  0  0  3  0  0  0  0  0  0
  -21.5050   -4.9830   24.8950 C   0  0  0  0  0  0  0  0  0  0  0  0
  -21.9630   -4.3780   23.7110 C   0  0  0  0  0  3  0  0  0  0  0  0
  -22.1130   -5.1470   22.5430 C   0  0  0  0  0  0  0  0  0  0  0  0
  -22.5350   -4.5560   21.4000 F   0  0  0  0  0  0  0  0  0  0  0  0
  -21.3540   -4.2400   26.0160 F   0  0  0  0  0  0  0  0  0  0  0  0
  -23.0830  -13.8390   20.9940 C   0  0  0  0  0  0  0  0  0  0  0  0
  -22.3620  -13.1710   21.8880 N   0  0  0  0  0  0  0  0  0  0  0  0
  -22.6510  -14.8630   20.4650 O   0  0  0  0  0  0  0  0  0  0  0  0
  -22.7230  -12.3410   22.3350 H   0  0  0  0  0  0  0  0  0  0  0  0
  -21.4350  -13.4930   22.1280 H   0  0  0  0  0  0  0  0  0  0  0  0
  -25.6910  -15.4420   20.0990 N   0  0  0  0  0  0  0  0  0  0  0  0
  -24.9210  -16.0890   20.2160 H   0  0  0  0  0  0  0  0  0  0  0  0
  -26.5320  -15.8820   19.7490 H   0  0  0  0  0  0  0  0  0  0  0  0
  -28.4310  -16.5650   19.0670 C   0  0  0  0  0  1  0  0  0  0  0  0
  -28.8360  -16.3280   20.5450 C   0  0  0  0  0  2  0  0  0  0  0  0
  -30.6720  -21.8150   19.9050 O   0  0  0  0  0  0  0  0  0  0  0  0
  -29.7850  -22.6830   20.6760 C   0  0  0  0  0  2  0  0  0  0  0  0
  -29.7460  -24.1890   20.1590 C   0  0  0  0  0  3  0  0  0  0  0  0
  -28.6300  -25.1610   20.7280 C   0  0  0  0  0  3  0  0  0  0  0  0
  -28.7080  -26.5840   20.3500 O   0  0  0  0  0  0  0  0  0  0  0  0
  -24.6280  -31.7580   23.2650 C   0  0  0  0  0  0  0  0  0  0  0  0
  -27.5270  -27.3340   20.3080 C   0  0  0  0  0  0  0  0  0  0  0  0
  -23.5330  -30.3260   21.5730 C   0  0  0  0  0  3  0  0  0  0  0  0
  -25.0910  -28.8260   20.2080 C   0  0  0  0  0  0  0  0  0  0  0  0
  -26.0600  -30.7410   21.4840 C   0  0  0  0  0  2  0  0  0  0  0  0
  -26.2140  -29.3680   20.8450 C   0  0  0  0  0  0  0  0  0  0  0  0
  -27.4330  -28.6350   20.8830 C   0  0  0  0  0  3  0  0  0  0  0  0
  -26.3820  -26.8320   19.6500 C   0  0  0  0  0  3  0  0  0  0  0  0
  -25.1750  -27.5600   19.6020 C   0  0  0  0  0  3  0  0  0  0  0  0
  -23.8220  -29.6550   20.2040 C   0  0  0  0  0  2  0  0  0  0  0  0
  -24.7560  -30.9580   22.1660 N   0  0  0  0  0  0  0  0  0  0  0  0
  -23.5170  -31.9980   23.7590 O   0  0  0  0  0  0  0  0  0  0  0  0
  -22.8680  -29.2860   22.5070 C   0  0  0  0  0  0  0  0  0  0  0  0
  -21.5540  -29.0710   22.3290 N   0  0  0  0  0  0  0  0  0  0  0  0
  -23.5350  -28.6770   23.3470 O   0  0  0  0  0  0  0  0  0  0  0  0
  -21.0760  -29.6150   21.6250 H   0  0  0  0  0  0  0  0  0  0  0  0
  -18.1960  -27.7790   22.6960 C   0  0  0  0  0  0  0  0  0  0  0  0
  -20.7340  -28.1070   23.0640 C   0  0  0  0  0  3  0  0  0  0  0  0
  -20.8990  -26.6830   22.4860 C   0  0  0  0  0  2  0  0  0  0  0  0
  -19.8440  -26.3350   21.4300 C   0  0  0  0  0  2  0  0  0  0  0  0
  -18.4360  -26.4380   22.0220 C   0  0  0  0  0  2  0  0  0  0  0  0
  -19.2760  -28.5680   23.1710 C   0  0  0  0  0  0  0  0  0  0  0  0
  -19.0010  -29.8220   23.7580 C   0  0  0  0  0  3  0  0  0  0  0  0
  -17.6770  -30.2860   23.8780 C   0  0  0  0  0  3  0  0  0  0  0  0
  -16.6110  -29.4930   23.4200 C   0  0  0  0  0  3  0  0  0  0  0  0
  -16.8710  -28.2410   22.8340 C   0  0  0  0  0  3  0  0  0  0  0  0
  -25.8670  -32.4250   23.9380 C   0  0  0  0  0  3  0  0  0  0  0  0
  -25.5110  -33.8200   24.2360 N   0  0  0  0  0  0  0  0  0  0  0  0
  -25.8530  -34.8720   23.4800 C   0  0  0  0  0  0  0  0  0  0  0  0
  -26.5690  -34.7720   22.4800 O   0  0  0  0  0  0  0  0  0  0  0  0
  -24.8790  -33.9700   25.0090 H   0  0  0  0  0  0  0  0  0  0  0  0
  -24.0960  -36.6160   23.0330 C   0  0  0  0  0  1  0  0  0  0  0  0
  -25.3140  -36.2540   23.8970 C   0  0  0  0  0  3  0  0  0  0  0  0
  -27.3920  -37.2040   24.7970 C   0  0  0  0  0  1  0  0  0  0  0  0
  -26.3240  -37.3300   23.8090 N   0  0  0  0  0  0  0  0  0  0  0  0
  -25.8900  -38.2420   23.9250 H   0  0  0  0  0  0  0  0  0  0  0  0
  -26.3400  -31.6800   25.2460 C   0  0  1  0  0  0  0  0  0  0  0  0
  -25.2030  -31.4280   26.2630 C   0  0  0  0  0  1  0  0  0  0  0  0
  -26.9730  -30.3130   24.8970 C   0  0  0  0  0  1  0  0  0  0  0  0
  -27.4380  -32.5090   25.9530 C   0  0  0  0  0  1  0  0  0  0  0  0
  1  4  1  0
  2  1  2  0
  2  6  1  0
  3  5  1  0
  4  9  1  0
  4  5  2  0
  5  7  1  0
  6  3  2  0
  8  7  1  0
  9 47  1  1
  9  8  1  0
 10  9  1  0
 11 16  1  0
 12 13  1  0
 12 11  1  0
 14 13  1  0
 14 21  1  0
 14 15  1  0
 16 10  1  0
 16 15  1  0
 17 10  2  0
 18 19  2  0
 19 38  1  0
 20 19  1  0
 20 23  1  0
 21 18  1  0
 21 22  1  0
 22 20  2  0
 23 24  1  0
 24 25  2  0
 26 29  1  0
 26 25  1  0
 27 26  2  0
 28 27  1  0
 28 23  2  0
 29 30  1  0
 30 31  1  0
 31 32  2  0
 33 32  1  0
 33 37  1  0
 34 33  2  0
 35 30  2  0
 35 34  1  0
 36 35  1  0
 38 39  1  0
 39 42  1  0
 39 41  1  0
 40 38  2  0
 43 44  1  0
 43 18  1  0
 45 43  1  0
 46 47  1  0
 48  6  1  0
 48 49  1  0
 50 49  1  0
 50 51  2  0
 52 51  1  0
 53 64  2  0
 54 52  1  0
 54 59  1  0
 55 63  1  0
 55 65  1  0
 56 58  1  0
 57 63  1  0
 58 59  2  0
 58 57  1  0
 60 54  2  0
 61 60  1  0
 61 56  2  0
 62 56  1  0
 62 55  1  0
 63 53  1  0
 65 67  2  0
 66 65  1  0
 68 66  1  0
 69 78  2  0
 69 74  1  0
 70 66  1  0
 70 74  1  0
 71 70  1  0
 72 73  1  0
 72 71  1  0
 73 69  1  0
 74 75  2  0
 75 76  1  0
 77 76  2  0
 78 77  1  0
 79 53  1  0
 79 80  1  0
 79 89  1  0
 80 83  1  0
 81 85  1  0
 81 80  1  0
 82 81  2  0
 85 84  1  0
 87 85  1  0
 87 88  1  0
 87 86  1  0
 89 92  1  1
 89 90  1  0
 91 89  1  0
M  ISO  4   9 100  10 100  51 101  52 101
M  END
>  <TORSDO>  (51) 
F 21

>  <SCORE>  (51) 
-13.047

>  <name>  (51) 
51

>  <ligand_id>  (51) 
51

>  <original_smiles>  (51) 
[H]c1c([H])c([H])c2c(c1[H])C([H])([H])C([H])([H])C([H])([H])C2([H])N([H])C(=O)C1([H])N(C(=O)C([H])(N([H])C(=O)C([H])(N([H])C([H])([H])[H])C([H])([H])[H])C(C([H])([H])[H])(C([H])([H])[H])C([H])([H])[H])C([H])([H])c2c([H])c(OC([H])([H])C([H])([H])C([H])([H])Oc3c([H])c([H])c4c(c3[H])C([H])([H])C([H])([H])C4(C(=O)N3C([H])([H])C([H])([H])C([H])([H])C([H])(n4nc(-c5c([H])c([H])c(Oc6c([H])c([H])c(F)c([H])c6F)c([H])c5[H])c(C(=O)N([H])[H])c4N([H])[H])C3([H])[H])C([H])([H])C([H])([H])[H])c([H])c([H])c2C1([H])[H]

>  <smiles>  (51) 
[H]c1c([H])c([H])c2c(c1[H])C([H])([H])C([H])([H])C([H])([H])C2([H])N([H])C(=O)C1([H])N(C(=O)C([H])(N([H])C(=O)C([H])(N([H])C([H])([H])[H])C([H])([H])[H])C(C([H])([H])[H])(C([H])([H])[H])C([H])([H])[H])C([H])([H])c2c([H])c(OC([H])([H])C([H])([H])C([H])([H])Oc3c([H])c([H])c4c(c3[H])C([H])([H])C([H])([H])C4(C(=O)N3C([H])([H])C([H])([H])C([H])([H])C([H])(n4nc(-c5c([H])c([H])c(Oc6c([H])c([H])c(F)c([H])c6F)c([H])c5[H])c(C(=O)N([H])[H])c4N([H])[H])C3([H])[H])C([H])([H])C([H])([H])[H])c([H])c([H])c2C1([H])[H]

$$$$
52:0:0
     RDKit          3D

 95102  0  0  1  0  0  0  0  0999 V2000
  -27.2310  -18.4570   19.7970 O   0  0  0  0  0  0  0  0  0  0  0  0
  -31.1080  -13.7170   21.6250 C   0  0  0  0  0  0  0  0  0  0  0  0
  -32.4970  -13.1900   19.5380 C   0  0  0  0  0  3  0  0  0  0  0  0
  -31.6910  -13.2660   18.1040 C   0  0  0  0  0  3  0  0  0  0  0  0
  -30.1170  -13.3660   18.1590 C   0  0  0  0  0  2  0  0  0  0  0  0
  -29.7390  -13.7810   19.5750 C   0  0  0  0  0  2  0  0  0  0  0  0
  -30.7670  -12.3640   20.0920 C   0  0  0  0  0  2  0  0  0  0  0  0
  -31.7220  -12.9250   20.7640 N   0  0  0  0  0  0  0  0  0  0  0  0
  -31.8260  -14.7690   21.7140 O   0  0  0  0  0  0  0  0  0  0  0  0
  -29.1780  -15.1350   21.5320 C   0  0  0  0  0  3  0  0  0  0  0  0
  -28.3060  -15.6320   19.8680 C   0  0  0  0  0  3  0  0  0  0  0  0
  -27.6260  -14.1310   18.7870 C   0  0  0  0  0  1  0  0  0  0  0  0
  -26.6640  -15.5820   18.6030 C   0  0  0  0  0  3  0  0  0  0  0  0
  -28.3940  -12.1040   19.8660 C   0  0  0  0  0  1  0  0  0  0  0  0
  -27.5460  -16.9250   19.1940 C   0  0  0  0  0  3  0  0  0  0  0  0
  -26.2170  -15.8290   17.1630 C   0  0  0  0  0  1  0  0  0  0  0  0
  -29.5880  -13.3390   21.7260 N   0  0  0  0  0  2  0  0  0  0  0  0
  -26.2010  -14.1700   21.2450 C   0  0  0  0  0  3  0  0  0  0  0  0
  -25.2510  -13.1670   21.3250 C   0  0  0  0  0  3  0  0  0  0  0  0
  -25.8590  -11.9110   21.4510 C   0  0  0  0  0  3  0  0  0  0  0  0
  -27.4470  -13.6430   21.0590 N   0  0  0  0  0  2  0  0  0  0  0  0
  -27.0770  -12.3590   21.7930 N   0  0  0  0  0  2  0  0  0  0  0  0
  -25.3120  -10.4740   21.4150 C   0  0  0  0  0  0  0  0  0  0  0  0
  -25.5950   -9.4750   22.3890 C   0  0  0  0  0  3  0  0  0  0  0  0
  -24.9270   -8.2150   22.4010 C   0  0  0  0  0  3  0  0  0  0  0  0
  -23.9510   -7.8980   21.4240 C   0  0  0  0  0  0  0  0  0  0  0  0
  -23.7360   -8.8310   20.3930 C   0  0  0  0  0  3  0  0  0  0  0  0
  -24.4060  -10.0810   20.3890 C   0  0  0  0  0  3  0  0  0  0  0  0
  -23.2350   -6.7110   21.3800 O   0  0  0  0  0  0  0  0  0  0  0  0
  -22.6370   -6.1600   22.4940 C   0  0  0  0  0  0  0  0  0  0  0  0
  -21.7030   -6.8720   23.2790 C   0  0  0  0  0  3  0  0  0  0  0  0
  -21.0800   -6.2550   24.3840 C   0  0  0  0  0  3  0  0  0  0  0  0
  -21.3730   -4.9150   24.7050 C   0  0  0  0  0  0  0  0  0  0  0  0
  -22.2860   -4.1930   23.9160 C   0  0  0  0  0  3  0  0  0  0  0  0
  -22.9100   -4.8120   22.8160 C   0  0  0  0  0  0  0  0  0  0  0  0
  -23.7740   -4.0970   22.0560 F   0  0  0  0  0  0  0  0  0  0  0  0
  -20.7780   -4.3210   25.7670 F   0  0  0  0  0  0  0  0  0  0  0  0
  -23.8060  -13.4090   21.4220 C   0  0  0  0  0  0  0  0  0  0  0  0
  -23.1220  -12.6500   22.2710 N   0  0  0  0  0  0  0  0  0  0  0  0
  -23.3050  -14.3470   20.8140 O   0  0  0  0  0  0  0  0  0  0  0  0
  -23.5700  -11.9200   22.8060 H   0  0  0  0  0  0  0  0  0  0  0  0
  -22.1350  -12.8130   22.4000 H   0  0  0  0  0  0  0  0  0  0  0  0
  -26.1010  -15.5090   21.4900 N   0  0  0  0  0  0  0  0  0  0  0  0
  -25.2060  -15.9760   21.4400 H   0  0  0  0  0  0  0  0  0  0  0  0
  -26.8820  -16.1210   21.2810 H   0  0  0  0  0  0  0  0  0  0  0  0
  -29.2740   -9.5570   19.9950 C   0  0  0  0  0  2  0  0  0  0  0  0
  -27.9610   -9.4400   19.2730 C   0  0  0  0  0  2  0  0  0  0  0  0
  -28.7780  -10.7290   19.1670 C   0  0  0  0  0  3  0  0  0  0  0  0
  -26.5470  -22.9580   19.7680 C   0  0  0  0  0  2  0  0  0  0  0  0
  -28.8100  -22.7090   19.2750 C   0  0  0  0  0  2  0  0  0  0  0  0
  -26.4700  -21.2800   20.0630 C   0  0  0  0  0  2  0  0  0  0  0  0
  -28.7260  -21.0440   19.6050 C   0  0  0  0  0  2  0  0  0  0  0  0
  -27.8900  -23.8830   19.9830 C   0  0  0  0  0  3  0  0  0  0  0  0
  -27.4040  -20.0830   19.3850 C   0  0  0  0  0  3  0  0  0  0  0  0
  -28.1890  -25.5530   19.9100 O   0  0  0  0  0  0  0  0  0  0  0  0
  -24.6000  -31.5540   22.9610 C   0  0  0  0  0  0  0  0  0  0  0  0
  -27.2920  -26.7350   19.9230 C   0  0  0  0  0  0  0  0  0  0  0  0
  -23.5410  -30.1680   21.2400 C   0  0  0  0  0  3  0  0  0  0  0  0
  -25.0750  -28.6550   19.8360 C   0  0  0  0  0  0  0  0  0  0  0  0
  -26.1120  -30.4240   21.2360 C   0  0  0  0  0  2  0  0  0  0  0  0
  -26.2290  -29.0320   20.5360 C   0  0  0  0  0  0  0  0  0  0  0  0
  -27.3570  -28.0840   20.5560 C   0  0  0  0  0  3  0  0  0  0  0  0
  -26.1340  -26.5430   19.1740 C   0  0  0  0  0  3  0  0  0  0  0  0
  -25.0570  -27.4420   19.1410 C   0  0  0  0  0  3  0  0  0  0  0  0
  -23.8520  -29.5600   19.8530 C   0  0  0  0  0  2  0  0  0  0  0  0
  -24.7730  -30.7460   21.8650 N   0  0  0  0  0  0  0  0  0  0  0  0
  -23.4740  -31.7910   23.4270 O   0  0  0  0  0  0  0  0  0  0  0  0
  -22.8470  -29.1070   22.1340 C   0  0  0  0  0  0  0  0  0  0  0  0
  -21.5140  -28.9720   22.0190 N   0  0  0  0  0  0  0  0  0  0  0  0
  -23.5140  -28.4120   22.9060 O   0  0  0  0  0  0  0  0  0  0  0  0
  -21.0290  -29.5860   21.3790 H   0  0  0  0  0  0  0  0  0  0  0  0
  -18.1040  -27.8730   22.5870 C   0  0  0  0  0  0  0  0  0  0  0  0
  -20.6840  -27.9990   22.7360 C   0  0  0  0  0  3  0  0  0  0  0  0
  -20.6870  -26.6290   22.0180 C   0  0  0  0  0  2  0  0  0  0  0  0
  -19.5220  -26.4590   21.0370 C   0  0  0  0  0  2  0  0  0  0  0  0
  -18.1820  -26.5950   21.7670 C   0  0  0  0  0  2  0  0  0  0  0  0
  -19.2790  -28.5400   23.0280 C   0  0  0  0  0  0  0  0  0  0  0  0
  -19.1490  -29.7380   23.7620 C   0  0  0  0  0  3  0  0  0  0  0  0
  -17.8790  -30.2720   24.0510 C   0  0  0  0  0  3  0  0  0  0  0  0
  -16.7210  -29.6030   23.6230 C   0  0  0  0  0  3  0  0  0  0  0  0
  -16.8340  -28.4030   22.8980 C   0  0  0  0  0  3  0  0  0  0  0  0
  -25.8060  -32.2350   23.6740 C   0  0  0  0  0  3  0  0  0  0  0  0
  -25.4140  -33.6190   23.9960 N   0  0  0  0  0  0  0  0  0  0  0  0
  -25.7630  -34.7040   23.2900 C   0  0  0  0  0  0  0  0  0  0  0  0
  -26.5130  -34.6460   22.3120 O   0  0  0  0  0  0  0  0  0  0  0  0
  -24.7520  -33.7320   24.7490 H   0  0  0  0  0  0  0  0  0  0  0  0
  -24.0010  -36.4520   22.8550 C   0  0  0  0  0  1  0  0  0  0  0  0
  -25.1980  -36.0670   23.7400 C   0  0  0  0  0  3  0  0  0  0  0  0
  -27.2320  -37.0200   24.7370 C   0  0  0  0  0  1  0  0  0  0  0  0
  -26.1980  -37.1590   23.7150 N   0  0  0  0  0  0  0  0  0  0  0  0
  -25.7470  -38.0620   23.8380 H   0  0  0  0  0  0  0  0  0  0  0  0
  -26.2480  -31.4810   24.9880 C   0  0  1  0  0  0  0  0  0  0  0  0
  -25.0940  -31.2310   25.9890 C   0  0  0  0  0  1  0  0  0  0  0  0
  -26.8780  -30.1090   24.6540 C   0  0  0  0  0  1  0  0  0  0  0  0
  -27.3390  -32.3000   25.7180 C   0  0  0  0  0  1  0  0  0  0  0  0
  2  9  2  0
  2 17  1  0
  3  8  1  0
  4  5  1  0
  4  3  2  0
  5  6  1  0
  6  7  1  0
  7  8  1  0
  8  2  1  0
 10 17  1  0
 11 10  2  0
 13 12  1  0
 13 15  1  0
 15  1  1  0
 15 11  1  0
 16 13  1  0
 18 19  1  0
 18 43  1  0
 19 38  1  0
 19 20  1  0
 20 23  1  0
 20 22  1  0
 21 18  1  0
 21 22  1  0
 23 24  1  0
 24 25  2  0
 26 25  1  0
 27 26  2  0
 28 27  1  0
 28 23  2  0
 29 26  1  0
 29 30  1  0
 30 35  2  0
 30 31  1  0
 31 32  2  0
 32 33  1  0
 33 37  1  0
 34 33  2  0
 35 34  1  0
 36 35  1  0
 38 39  1  0
 39 42  1  0
 39 41  1  0
 40 38  2  0
 44 43  1  0
 45 43  1  0
 47 46  1  0
 48 47  1  0
 48 14  1  0
 48 46  1  0
 49 53  1  0
 49 51  1  0
 50 52  1  0
 50 53  1  0
 53 55  1  0
 54 52  1  0
 54  1  1  0
 54 51  1  0
 55 57  1  0
 56 67  2  0
 57 62  1  0
 58 66  1  0
 58 68  1  0
 59 65  1  0
 59 61  1  0
 60 66  1  0
 61 62  2  0
 61 60  1  0
 63 57  2  0
 64 63  1  0
 64 59  2  0
 65 58  1  0
 66 56  1  0
 68 70  2  0
 69 68  1  0
 71 69  1  0
 72 81  2  0
 72 77  1  0
 73 69  1  0
 73 77  1  0
 74 73  1  0
 75 76  1  0
 75 74  1  0
 76 72  1  0
 77 78  2  0
 78 79  1  0
 80 79  2  0
 81 80  1  0
 82 56  1  0
 82 83  1  0
 82 92  1  0
 83 86  1  0
 84 88  1  0
 84 83  1  0
 85 84  2  0
 88 87  1  0
 90 88  1  0
 90 91  1  0
 90 89  1  0
 92 95  1  1
 92 93  1  0
 94 92  1  0
M  ISO  4   2 100  17 100  53 101  55 101
M  END
>  <TORSDO>  (52) 
F 18

>  <SCORE>  (52) 
0.547

>  <name>  (52) 
52

>  <ligand_id>  (52) 
52

>  <original_smiles>  (52) 
[H]c1c([H])c([H])c2c(c1[H])C([H])([H])C([H])([H])C([H])([H])C2([H])N([H])C(=O)C1([H])N(C(=O)C([H])(N([H])C(=O)C([H])(N([H])C([H])([H])[H])C([H])([H])[H])C(C([H])([H])[H])(C([H])([H])[H])C([H])([H])[H])C([H])([H])c2c([H])c(OC3([H])C([H])([H])C([H])([H])C([H])(OC4([H])C([H])(C([H])([H])[H])C5([H])C([H])(C6([H])C([H])([H])C6([H])[H])N(C(=O)N6C([H])([H])C([H])([H])C([H])([H])C([H])(n7nc(-c8c([H])c([H])c(Oc9c([H])c([H])c(F)c([H])c9F)c([H])c8[H])c(C(=O)N([H])[H])c7N([H])[H])C6([H])[H])C([H])([H])C45[H])C([H])([H])C3([H])[H])c([H])c([H])c2C1([H])[H]

>  <smiles>  (52) 
[H]c1c([H])c([H])c2c(c1[H])C([H])([H])C([H])([H])C([H])([H])C2([H])N([H])C(=O)C1([H])N(C(=O)C([H])(N([H])C(=O)C([H])(N([H])C([H])([H])[H])C([H])([H])[H])C(C([H])([H])[H])(C([H])([H])[H])C([H])([H])[H])C([H])([H])c2c([H])c(OC3([H])C([H])([H])C([H])([H])C([H])(OC4([H])C([H])(C([H])([H])[H])C5([H])C([H])(C6([H])C([H])([H])C6([H])[H])N(C(=O)N6C([H])([H])C([H])([H])C([H])([H])C([H])(n7nc(-c8c([H])c([H])c(Oc9c([H])c([H])c(F)c([H])c9F)c([H])c8[H])c(C(=O)N([H])[H])c7N([H])[H])C6([H])[H])C([H])([H])C45[H])C([H])([H])C3([H])[H])c([H])c([H])c2C1([H])[H]

$$$$
53:0:0
     RDKit          3D

100109  0  0  1  0  0  0  0  0999 V2000
  -26.1370  -19.1270   19.6510 C   0  0  0  0  0  3  0  0  0  0  0  0
  -26.5350  -17.7710   19.5480 C   0  0  0  0  0  3  0  0  0  0  0  0
  -27.0510  -20.2060   19.5970 C   0  0  0  0  0  3  0  0  0  0  0  0
  -28.8110  -18.5670   19.3190 C   0  0  0  0  0  3  0  0  0  0  0  0
  -27.8890  -17.4040   19.3870 C   0  0  0  0  0  0  0  0  0  0  0  0
  -28.4360  -20.0000   19.4240 C   0  0  0  0  0  0  0  0  0  0  0  0
  -28.2600  -15.8020   19.2570 C   0  0  0  0  0  2  0  0  0  0  0  0
  -27.3200  -14.6200   19.7220 N   0  0  0  0  0  4  0  0  0  0  0  0
  -27.7840  -14.2990   20.5830 H   0  0  0  0  0  0  0  0  0  0  0  0
  -26.4360  -15.0030   20.0170 H   0  0  0  0  0  0  0  0  0  0  0  0
  -26.2150  -11.8670   19.3950 C   0  0  0  0  0  1  0  0  0  0  0  0
  -28.1710  -12.2080   19.1910 C   0  0  0  0  0  2  0  0  0  0  0  0
  -27.0350  -13.2810   18.9310 C   0  0  0  0  0  3  0  0  0  0  0  0
  -31.2010  -12.2650   20.5730 C   0  0  0  0  0  0  0  0  0  0  0  0
  -31.8840   -9.9540   20.5190 C   0  0  0  0  0  2  0  0  0  0  0  0
  -30.9280   -9.8250   19.3340 C   0  0  0  0  0  2  0  0  0  0  0  0
  -29.5030   -9.8590   19.9660 C   0  0  0  0  0  2  0  0  0  0  0  0
  -29.3220  -10.6050   21.4220 C   0  0  0  0  0  3  0  0  0  0  0  0
  -30.4690  -10.9260   22.2780 C   0  0  0  0  0  2  0  0  0  0  0  0
  -31.3580  -11.1150   21.2370 N   0  0  0  0  0  0  0  0  0  0  0  0
  -32.3850  -12.7250   20.6550 O   0  0  0  0  0  0  0  0  0  0  0  0
  -29.8180  -12.6980   19.8770 N   0  0  0  0  0  0  0  0  0  0  0  0
  -30.0360  -13.6060   19.4990 H   0  0  0  0  0  0  0  0  0  0  0  0
  -27.5920  -12.7770   21.7910 C   0  0  0  0  0  0  0  0  0  0  0  0
  -26.2610  -12.5290   21.9710 C   0  0  0  0  0  0  0  0  0  0  0  0
  -26.3200  -11.0860   21.9790 C   0  0  0  0  0  0  0  0  0  0  0  0
  -28.1770  -11.4610   21.6930 N   0  0  0  0  0  0  0  0  0  0  0  0
  -27.3520  -10.5360   21.7290 N   0  0  0  0  0  0  0  0  0  0  0  0
  -25.5800   -9.9900   21.7960 C   0  0  0  0  0  3  0  0  0  0  0  0
  -24.5020  -10.1730   22.8890 C   0  0  0  0  0  3  0  0  0  0  0  0
  -23.0910   -9.5920   22.7660 C   0  0  0  0  0  3  0  0  0  0  0  0
  -22.5690   -8.7420   21.6220 C   0  0  0  0  0  3  0  0  0  0  0  0
  -23.4990   -8.6080   20.3450 C   0  0  0  0  0  3  0  0  0  0  0  0
  -25.1530   -9.0940   20.3380 C   0  0  1  0  0  0  0  0  0  0  0  0
  -21.6370   -7.6870   21.9940 O   0  0  0  0  0  0  0  0  0  0  0  0
  -21.6400   -6.7590   23.1170 C   0  0  0  0  0  0  0  0  0  0  0  0
  -21.4160   -7.1260   24.4820 C   0  0  0  0  0  3  0  0  0  0  0  0
  -21.2530   -6.1780   25.5330 C   0  0  0  0  0  3  0  0  0  0  0  0
  -21.2890   -4.7950   25.2760 C   0  0  0  0  0  0  0  0  0  0  0  0
  -21.5050   -4.3830   23.9520 C   0  0  0  0  0  3  0  0  0  0  0  0
  -21.6740   -5.3340   22.9070 C   0  0  0  0  0  0  0  0  0  0  0  0
  -21.8330   -4.8370   21.6610 F   0  0  0  0  0  0  0  0  0  0  0  0
  -21.1090   -3.8850   26.2740 F   0  0  0  0  0  0  0  0  0  0  0  0
  -25.0740  -13.4900   21.8400 C   0  0  0  0  0  0  0  0  0  0  0  0
  -24.0270  -13.2750   22.6160 N   0  0  0  0  0  0  0  0  0  0  0  0
  -25.0610  -14.4640   21.0770 O   0  0  0  0  0  0  0  0  0  0  0  0
  -24.0180  -12.5220   23.2850 H   0  0  0  0  0  0  0  0  0  0  0  0
  -23.2350  -13.8990   22.5630 H   0  0  0  0  0  0  0  0  0  0  0  0
  -28.2520  -13.9930   21.6430 N   0  0  0  0  0  0  0  0  0  0  0  0
  -27.9310  -14.6760   22.3240 H   0  0  0  0  0  0  0  0  0  0  0  0
  -29.2540  -13.8850   21.7570 H   0  0  0  0  0  0  0  0  0  0  0  0
  -23.1080  -11.7610   20.4160 C   0  0  0  0  0  1  0  0  0  0  0  0
  -23.8440  -10.9950   18.4500 C   0  0  0  0  0  1  0  0  0  0  0  0
  -24.3430  -10.8430   19.9880 C   0  0  0  0  0  3  0  0  0  0  0  0
  -26.0280   -7.0860   21.9990 C   0  0  0  0  0  1  0  0  0  0  0  0
  -24.6940   -7.6590   21.3720 C   0  0  0  0  0  3  0  0  0  0  0  0
  -29.3330  -21.1450   19.2880 O   0  0  0  0  0  0  0  0  0  0  0  0
  -29.5470  -22.3390   20.2510 C   0  0  0  0  0  3  0  0  0  0  0  0
  -29.4390  -23.9340   19.7710 C   0  0  0  0  0  3  0  0  0  0  0  0
  -29.9460  -25.3200   20.3360 O   0  0  0  0  0  0  0  0  0  0  0  0
  -25.6160  -30.5790   23.2420 C   0  0  0  0  0  0  0  0  0  0  0  0
  -29.0580  -26.4420   20.2110 C   0  0  0  0  0  0  0  0  0  0  0  0
  -24.9400  -29.4060   21.1980 C   0  0  0  0  0  3  0  0  0  0  0  0
  -26.7750  -28.1680   19.9380 C   0  0  0  0  0  0  0  0  0  0  0  0
  -27.4430  -29.7520   21.7150 C   0  0  0  0  0  2  0  0  0  0  0  0
  -27.7470  -28.4890   20.8950 C   0  0  0  0  0  0  0  0  0  0  0  0
  -28.8990  -27.6230   21.0500 C   0  0  0  0  0  3  0  0  0  0  0  0
  -28.1340  -26.3380   19.1580 C   0  0  0  0  0  3  0  0  0  0  0  0
  -26.9820  -27.1100   19.0650 C   0  0  0  0  0  3  0  0  0  0  0  0
  -25.5200  -29.0030   19.8280 C   0  0  0  0  0  2  0  0  0  0  0  0
  -26.0070  -29.9270   22.1090 N   0  0  0  0  0  0  0  0  0  0  0  0
  -24.4160  -30.7410   23.5150 O   0  0  0  0  0  0  0  0  0  0  0  0
  -24.1490  -28.2170   21.8020 C   0  0  0  0  0  0  0  0  0  0  0  0
  -22.8450  -28.1260   21.4850 N   0  0  0  0  0  0  0  0  0  0  0  0
  -24.7110  -27.3940   22.5290 O   0  0  0  0  0  0  0  0  0  0  0  0
  -22.4520  -28.8450   20.8930 H   0  0  0  0  0  0  0  0  0  0  0  0
  -19.3770  -27.0840   21.4770 C   0  0  0  0  0  0  0  0  0  0  0  0
  -21.9240  -27.0760   21.9270 C   0  0  0  0  0  3  0  0  0  0  0  0
  -21.9810  -25.8500   20.9860 C   0  0  0  0  0  2  0  0  0  0  0  0
  -20.9310  -25.8960   19.8730 C   0  0  0  0  0  2  0  0  0  0  0  0
  -19.5210  -25.9590   20.4660 C   0  0  0  0  0  2  0  0  0  0  0  0
  -20.5070  -27.6190   22.1520 C   0  0  0  0  0  0  0  0  0  0  0  0
  -20.3200  -28.6840   23.0590 C   0  0  0  0  0  3  0  0  0  0  0  0
  -19.0380  -29.2130   23.2960 C   0  0  0  0  0  3  0  0  0  0  0  0
  -17.9210  -28.6710   22.6350 C   0  0  0  0  0  3  0  0  0  0  0  0
  -18.0920  -27.6060   21.7320 C   0  0  0  0  0  3  0  0  0  0  0  0
  -26.6570  -31.1720   24.2350 C   0  0  0  0  0  3  0  0  0  0  0  0
  -26.1650  -32.4920   24.6560 N   0  0  0  0  0  0  0  0  0  0  0  0
  -26.6700  -33.6630   24.2440 C   0  0  0  0  0  0  0  0  0  0  0  0
  -27.6580  -33.7410   23.5100 O   0  0  0  0  0  0  0  0  0  0  0  0
  -25.3220  -32.5040   25.2120 H   0  0  0  0  0  0  0  0  0  0  0  0
  -25.0850  -35.5090   23.5960 C   0  0  0  0  0  1  0  0  0  0  0  0
  -25.9690  -34.9500   24.7230 C   0  0  0  0  0  3  0  0  0  0  0  0
  -27.5860  -35.6550   26.4310 C   0  0  0  0  0  1  0  0  0  0  0  0
  -26.9090  -35.9960   25.1830 N   0  0  0  0  0  0  0  0  0  0  0  0
  -26.4270  -36.8820   25.3150 H   0  0  0  0  0  0  0  0  0  0  0  0
  -26.9020  -30.2490   25.4920 C   0  0  1  0  0  0  0  0  0  0  0  0
  -25.6050  -29.8450   26.2320 C   0  0  0  0  0  1  0  0  0  0  0  0
  -27.6330  -28.9460   25.0920 C   0  0  0  0  0  1  0  0  0  0  0  0
  -27.8240  -30.9750   26.5000 C   0  0  0  0  0  1  0  0  0  0  0  0
  2  1  2  0
  3  1  1  0
  4  5  2  0
  4  6  1  0
  5  2  1  0
  6  3  2  0
  7  5  1  0
  7  8  1  0
  8 10  1  0
  8  9  1  0
 12 22  1  0
 13 12  1  0
 13 11  1  0
 13  8  1  0
 14 21  2  0
 14 20  1  0
 15 20  1  0
 16 17  1  0
 16 15  1  0
 18 17  1  0
 18 27  1  0
 18 19  1  0
 20 19  1  0
 22 14  1  0
 23 22  1  0
 24 25  2  0
 25 26  1  0
 27 28  1  0
 27 24  1  0
 28 26  2  0
 29 26  1  0
 29 30  1  0
 31 30  2  0
 32 35  1  0
 32 31  1  0
 33 56  1  0
 33 32  1  0
 34 33  1  0
 34 56  1  0
 34 29  1  0
 35 36  1  0
 36 37  1  0
 37 38  2  0
 39 38  1  0
 39 43  1  0
 40 39  2  0
 41 36  2  0
 41 40  1  0
 42 41  1  0
 44 25  1  0
 44 45  1  0
 45 47  1  0
 46 44  2  0
 48 45  1  0
 49 51  1  0
 49 24  1  0
 49 50  1  0
 53 54  1  0
 34 54  1  6
 54 52  1  0
 56 55  1  0
 57  6  1  0
 57 58  1  0
 59 58  2  0
 59 60  1  0
 61 72  2  0
 61 87  1  0
 62 60  1  0
 62 67  1  0
 63 73  1  0
 63 71  1  0
 64 66  1  0
 65 71  1  0
 66 67  2  0
 66 65  1  0
 68 62  2  0
 69 68  1  0
 69 64  2  0
 70 64  1  0
 70 63  1  0
 71 61  1  0
 73 75  2  0
 74 73  1  0
 74 78  1  0
 76 74  1  0
 77 86  2  0
 77 82  1  0
 78 82  1  0
 79 78  1  0
 80 81  1  0
 80 79  1  0
 81 77  1  0
 82 83  2  0
 83 84  1  0
 85 84  2  0
 86 85  1  0
 87 88  1  0
 87 97  1  0
 88 91  1  0
 89 88  1  0
 89 93  1  0
 90 89  2  0
 92 93  1  0
 93 95  1  0
 95 96  1  0
 95 94  1  0
 97 98  1  1
 97100  1  0
 99 97  1  0
M  ISO  4  14 100  22 100  59 101  60 101
M  END
>  <TORSDO>  (53) 
F 24

>  <SCORE>  (53) 
0.115

>  <name>  (53) 
53

>  <ligand_id>  (53) 
53

>  <original_smiles>  (53) 
[H]c1c([H])c([H])c2c(c1[H])C([H])([H])C([H])([H])C([H])([H])C2([H])N([H])C(=O)C1([H])N(C(=O)C([H])(N([H])C(=O)C([H])(N([H])C([H])([H])[H])C([H])([H])[H])C(C([H])([H])[H])(C([H])([H])[H])C([H])([H])[H])C([H])([H])c2c([H])c(OC([H])([H])C([H])([H])Oc3c([H])c([H])c([H])c(C([H])([H])[N+]([H])([H])C4([H])C([H])(N([H])C(=O)N5C([H])([H])C([H])([H])C([H])([H])C([H])(n6nc(-c7c([H])c([H])c(Oc8c([H])c([H])c(F)c([H])c8F)c([H])c7[H])c(C(=O)N([H])[H])c6N([H])[H])C5([H])[H])C4([H])C(C([H])([H])[H])(C([H])([H])[H])C([H])([H])C([H])([H])[H])c3[H])c([H])c([H])c2C1([H])[H]

>  <smiles>  (53) 
[H]c1c([H])c([H])c2c(c1[H])C([H])([H])C([H])([H])C([H])([H])C2([H])N([H])C(=O)C1([H])N(C(=O)C([H])(N([H])C(=O)C([H])(N([H])C([H])([H])[H])C([H])([H])[H])C(C([H])([H])[H])(C([H])([H])[H])C([H])([H])[H])C([H])([H])c2c([H])c(OC([H])([H])C([H])([H])Oc3c([H])c([H])c([H])c(C([H])([H])[N+]([H])([H])C4([H])C([H])(N([H])C(=O)N5C([H])([H])C([H])([H])C([H])([H])C([H])(n6nc(-c7c([H])c([H])c(Oc8c([H])c([H])c(F)c([H])c8F)c([H])c7[H])c(C(=O)N([H])[H])c6N([H])[H])C5([H])[H])C4([H])C(C([H])([H])[H])(C([H])([H])[H])C([H])([H])C([H])([H])[H])c3[H])c([H])c([H])c2C1([H])[H]

$$$$
54:0:0
     RDKit          3D

 93102  0  0  1  0  0  0  0  0999 V2000
  -29.4010  -19.3390   20.8850 C   0  0  0  0  0  3  0  0  0  0  0  0
  -31.3360  -17.8310   19.5340 C   0  0  0  0  0  3  0  0  0  0  0  0
  -30.4400  -20.0440   20.2340 C   0  0  0  0  0  0  0  0  0  0  0  0
  -29.3350  -17.9140   20.8810 C   0  0  0  0  0  0  0  0  0  0  0  0
  -30.3150  -17.1190   20.2180 C   0  0  0  0  0  0  0  0  0  0  0  0
  -31.4040  -19.2550   19.5350 C   0  0  0  0  0  0  0  0  0  0  0  0
  -32.0940  -21.9290   20.0490 C   0  0  0  0  0  2  0  0  0  0  0  0
  -32.4770  -21.2400   18.7370 C   0  0  0  0  0  2  0  0  0  0  0  0
  -30.6420  -21.5890   20.4300 C   0  0  0  0  0  3  0  0  0  0  0  0
  -28.2020  -17.2420   21.6400 C   0  0  0  0  0  1  0  0  0  0  0  0
  -32.4800  -19.8230   18.8890 O   0  0  0  0  0  0  0  0  0  0  0  0
  -30.8880  -14.6550   19.6430 C   0  0  0  0  0  0  0  0  0  0  0  0
  -30.4940  -12.5070   18.4610 C   0  0  0  0  0  2  0  0  0  0  0  0
  -29.4200  -12.7420   17.3760 C   0  0  0  0  0  2  0  0  0  0  0  0
  -28.0020  -12.5830   17.9610 C   0  0  0  0  0  2  0  0  0  0  0  0
  -27.8130  -13.3650   19.2880 C   0  0  0  0  0  3  0  0  0  0  0  0
  -28.9860  -13.1030   20.2600 C   0  0  0  0  0  2  0  0  0  0  0  0
  -30.2340  -13.4550   19.5620 N   0  0  0  0  0  0  0  0  0  0  0  0
  -31.9790  -14.8320   19.0940 O   0  0  0  0  0  0  0  0  0  0  0  0
  -30.1940  -15.6630   20.2500 N   0  0  0  0  0  0  0  0  0  0  0  0
  -29.3810  -15.3270   20.7410 H   0  0  0  0  0  0  0  0  0  0  0  0
  -25.5190  -13.9570   20.2900 C   0  0  0  0  0  0  0  0  0  0  0  0
  -24.4880  -13.1790   20.7420 C   0  0  0  0  0  0  0  0  0  0  0  0
  -24.9220  -11.8270   20.5970 C   0  0  0  0  0  0  0  0  0  0  0  0
  -26.5180  -13.0770   19.9030 N   0  0  0  0  0  0  0  0  0  0  0  0
  -26.1690  -11.7880   20.1450 N   0  0  0  0  0  0  0  0  0  0  0  0
  -24.2000  -10.5640   20.8060 C   0  0  0  0  0  0  0  0  0  0  0  0
  -24.6420   -9.6080   21.7460 C   0  0  0  0  0  3  0  0  0  0  0  0
  -23.9210   -8.4100   21.9430 C   0  0  0  0  0  3  0  0  0  0  0  0
  -22.7430   -8.1620   21.2000 C   0  0  0  0  0  0  0  0  0  0  0  0
  -22.3190   -9.1070   20.2490 C   0  0  0  0  0  3  0  0  0  0  0  0
  -23.0410  -10.2950   20.0510 C   0  0  0  0  0  3  0  0  0  0  0  0
  -21.9930   -7.0160   21.3050 O   0  0  0  0  0  0  0  0  0  0  0  0
  -21.8330   -6.3670   22.5040 C   0  0  0  0  0  0  0  0  0  0  0  0
  -21.2530   -7.0040   23.6230 C   0  0  0  0  0  3  0  0  0  0  0  0
  -21.0440   -6.2800   24.8140 C   0  0  0  0  0  3  0  0  0  0  0  0
  -21.4050   -4.9210   24.8860 C   0  0  0  0  0  0  0  0  0  0  0  0
  -21.9780   -4.2850   23.7700 C   0  0  0  0  0  3  0  0  0  0  0  0
  -22.1880   -5.0060   22.5820 C   0  0  0  0  0  0  0  0  0  0  0  0
  -22.7210   -4.3830   21.5040 F   0  0  0  0  0  0  0  0  0  0  0  0
  -21.1980   -4.2240   26.0270 F   0  0  0  0  0  0  0  0  0  0  0  0
  -23.1370  -13.6580   21.1910 C   0  0  0  0  0  0  0  0  0  0  0  0
  -22.5050  -12.9370   22.1090 N   0  0  0  0  0  0  0  0  0  0  0  0
  -22.6560  -14.7070   20.7610 O   0  0  0  0  0  0  0  0  0  0  0  0
  -22.9090  -12.0870   22.4760 H   0  0  0  0  0  0  0  0  0  0  0  0
  -21.6040  -13.2380   22.4510 H   0  0  0  0  0  0  0  0  0  0  0  0
  -25.6810  -15.3320   20.1520 N   0  0  0  0  0  0  0  0  0  0  0  0
  -24.9310  -15.9820   20.3600 H   0  0  0  0  0  0  0  0  0  0  0  0
  -26.4720  -15.7730   19.7010 H   0  0  0  0  0  0  0  0  0  0  0  0
  -29.6030  -22.6020   19.7810 C   0  0  0  0  0  2  0  0  0  0  0  0
  -29.7130  -24.1380   20.2020 C   0  0  0  0  0  3  0  0  0  0  0  0
  -28.5760  -25.1200   19.7250 C   0  0  0  0  0  3  0  0  0  0  0  0
  -28.6850  -26.5390   20.1040 O   0  0  0  0  0  0  0  0  0  0  0  0
  -24.7100  -31.6510   23.2390 C   0  0  0  0  0  0  0  0  0  0  0  0
  -27.5280  -27.3260   20.0570 C   0  0  0  0  0  0  0  0  0  0  0  0
  -23.5800  -30.2810   21.5240 C   0  0  0  0  0  3  0  0  0  0  0  0
  -25.1050  -28.8390   20.0660 C   0  0  0  0  0  0  0  0  0  0  0  0
  -26.1080  -30.6930   21.3990 C   0  0  0  0  0  2  0  0  0  0  0  0
  -26.2440  -29.3470   20.7010 C   0  0  0  0  0  0  0  0  0  0  0  0
  -27.4570  -28.6020   20.6890 C   0  0  0  0  0  3  0  0  0  0  0  0
  -26.3630  -26.8660   19.3970 C   0  0  0  0  0  3  0  0  0  0  0  0
  -25.1650  -27.6020   19.4060 C   0  0  0  0  0  3  0  0  0  0  0  0
  -23.8390  -29.6670   20.1220 C   0  0  0  0  0  2  0  0  0  0  0  0
  -24.8170  -30.8900   22.1120 N   0  0  0  0  0  0  0  0  0  0  0  0
  -23.6100  -31.8730   23.7640 O   0  0  0  0  0  0  0  0  0  0  0  0
  -22.9350  -29.2060   22.4300 C   0  0  0  0  0  0  0  0  0  0  0  0
  -21.6230  -28.9770   22.2540 N   0  0  0  0  0  0  0  0  0  0  0  0
  -23.6140  -28.5830   23.2500 O   0  0  0  0  0  0  0  0  0  0  0  0
  -21.1330  -29.5350   21.5690 H   0  0  0  0  0  0  0  0  0  0  0  0
  -18.2810  -27.6440   22.6200 C   0  0  0  0  0  0  0  0  0  0  0  0
  -20.8200  -27.9830   22.9690 C   0  0  0  0  0  3  0  0  0  0  0  0
  -20.9900  -26.5780   22.3460 C   0  0  0  0  0  2  0  0  0  0  0  0
  -19.9260  -26.2530   21.2910 C   0  0  0  0  0  2  0  0  0  0  0  0
  -18.5240  -26.3260   21.9020 C   0  0  0  0  0  2  0  0  0  0  0  0
  -19.3600  -28.4290   23.1060 C   0  0  0  0  0  0  0  0  0  0  0  0
  -19.0800  -29.6610   23.7350 C   0  0  0  0  0  3  0  0  0  0  0  0
  -17.7540  -30.1100   23.8830 C   0  0  0  0  0  3  0  0  0  0  0  0
  -16.6890  -29.3210   23.4130 C   0  0  0  0  0  3  0  0  0  0  0  0
  -16.9530  -28.0900   22.7870 C   0  0  0  0  0  3  0  0  0  0  0  0
  -25.9630  -32.2960   23.9100 C   0  0  0  0  0  3  0  0  0  0  0  0
  -26.4210  -31.5450   25.2200 C   0  0  1  0  0  0  0  0  0  0  0  0
  -25.2780  -31.3080   26.2330 C   0  0  0  0  0  1  0  0  0  0  0  0
  -27.0390  -30.1700   24.8750 C   0  0  0  0  0  1  0  0  0  0  0  0
  -27.5280  -32.3610   25.9300 C   0  0  0  0  0  1  0  0  0  0  0  0
  -25.6340  -33.6980   24.2040 N   0  0  0  0  0  0  0  0  0  0  0  0
  -25.9630  -34.7360   23.4240 C   0  0  0  0  0  0  0  0  0  0  0  0
  -26.6440  -34.6160   22.4010 O   0  0  0  0  0  0  0  0  0  0  0  0
  -25.0310  -33.8640   24.9950 H   0  0  0  0  0  0  0  0  0  0  0  0
  -24.2000  -36.4870   23.0350 C   0  0  0  0  0  1  0  0  0  0  0  0
  -25.4570  -36.1290   23.8440 C   0  0  0  0  0  3  0  0  0  0  0  0
  -27.5760  -37.0830   24.6330 C   0  0  0  0  0  1  0  0  0  0  0  0
  -26.4700  -37.1960   23.6880 N   0  0  0  0  0  0  0  0  0  0  0  0
  -26.0470  -38.1140   23.8010 H   0  0  0  0  0  0  0  0  0  0  0  0
  2  6  2  0
  2  5  1  0
  3  9  1  0
  3  1  2  0
  4  1  1  0
  4 10  1  0
  5 20  1  0
  5  4  2  0
  6  3  1  0
  7  9  1  0
  8 11  1  0
  8  7  1  0
  9 50  1  0
 11  6  1  0
 12 20  1  0
 13 18  1  0
 14 15  1  0
 14 13  1  0
 16 15  1  0
 16 25  1  0
 16 17  1  0
 18 12  1  0
 18 17  1  0
 19 12  2  0
 20 21  1  0
 22 23  2  0
 23 42  1  0
 24 23  1  0
 24 27  1  0
 25 26  1  0
 25 22  1  0
 26 24  2  0
 27 28  1  0
 28 29  2  0
 30 33  1  0
 30 29  1  0
 31 30  2  0
 32 31  1  0
 32 27  2  0
 33 34  1  0
 34 39  2  0
 34 35  1  0
 35 36  2  0
 36 37  1  0
 37 41  1  0
 38 37  2  0
 39 38  1  0
 40 39  1  0
 42 43  1  0
 43 46  1  0
 43 45  1  0
 44 42  2  0
 47 22  1  0
 47 48  1  0
 49 47  1  0
 50 51  1  0
 52 53  1  0
 52 51  2  0
 54 65  2  0
 55 53  1  0
 55 60  1  0
 56 64  1  0
 56 66  1  0
 57 63  1  0
 57 59  1  0
 58 64  1  0
 59 58  1  0
 60 59  2  0
 61 62  1  0
 61 55  2  0
 62 57  2  0
 63 56  1  0
 64 54  1  0
 66 68  2  0
 67 66  1  0
 69 67  1  0
 70 79  2  0
 70 75  1  0
 71 67  1  0
 71 75  1  0
 72 71  1  0
 73 74  1  0
 73 72  1  0
 74 70  1  0
 75 76  2  0
 76 77  1  0
 78 77  2  0
 79 78  1  0
 80 54  1  0
 80 85  1  0
 80 81  1  0
 81 84  1  1
 81 82  1  0
 83 81  1  0
 85 88  1  0
 86 90  1  0
 86 85  1  0
 87 86  2  0
 90 89  1  0
 92 93  1  0
 92 90  1  0
 92 91  1  0
M  ISO  4  12 100  20 100  52 101  53 101
M  END
>  <TORSDO>  (54) 
F 19

>  <SCORE>  (54) 
-11.072

>  <name>  (54) 
54

>  <ligand_id>  (54) 
54

>  <original_smiles>  (54) 
[H]c1c([H])c([H])c2c(c1[H])C([H])([H])C([H])([H])C([H])([H])C2([H])N([H])C(=O)C1([H])N(C(=O)C([H])(N([H])C(=O)C([H])(N([H])C([H])([H])[H])C([H])([H])[H])C(C([H])([H])[H])(C([H])([H])[H])C([H])([H])[H])C([H])([H])c2c([H])c(OC([H])([H])C([H])([H])C([H])([H])C3([H])c4c([H])c(C([H])([H])[H])c(N([H])C(=O)N5C([H])([H])C([H])([H])C([H])([H])C([H])(n6nc(-c7c([H])c([H])c(Oc8c([H])c([H])c(F)c([H])c8F)c([H])c7[H])c(C(=O)N([H])[H])c6N([H])[H])C5([H])[H])c([H])c4OC([H])([H])C3([H])[H])c([H])c([H])c2C1([H])[H]

>  <smiles>  (54) 
[H]c1c([H])c([H])c2c(c1[H])C([H])([H])C([H])([H])C([H])([H])C2([H])N([H])C(=O)C1([H])N(C(=O)C([H])(N([H])C(=O)C([H])(N([H])C([H])([H])[H])C([H])([H])[H])C(C([H])([H])[H])(C([H])([H])[H])C([H])([H])[H])C([H])([H])c2c([H])c(OC([H])([H])C([H])([H])C([H])([H])C3([H])c4c([H])c(C([H])([H])[H])c(N([H])C(=O)N5C([H])([H])C([H])([H])C([H])([H])C([H])(n6nc(-c7c([H])c([H])c(Oc8c([H])c([H])c(F)c([H])c8F)c([H])c7[H])c(C(=O)N([H])[H])c6N([H])[H])C5([H])[H])c([H])c4OC([H])([H])C3([H])[H])c([H])c([H])c2C1([H])[H]

$$$$
55:0:0
     RDKit          3D

 96104  0  0  1  0  0  0  0  0999 V2000
  -24.5170  -17.1240   18.9820 C   0  0  0  0  0  3  0  0  0  0  0  0
  -24.5330  -18.5550   18.8650 C   0  0  0  0  0  3  0  0  0  0  0  0
  -26.6820  -17.4580   19.8940 C   0  0  0  0  0  0  0  0  0  0  0  0
  -25.5930  -16.3840   19.5180 C   0  0  0  0  0  0  0  0  0  0  0  0
  -26.6330  -19.0050   19.8390 C   0  0  0  0  0  0  0  0  0  0  0  0
  -25.4950  -19.4500   19.2710 N   0  0  0  0  0  0  0  0  0  0  0  0
  -29.1790  -17.4060   19.2960 C   0  0  0  0  0  2  0  0  0  0  0  0
  -28.8780  -15.9880   19.6640 C   0  0  0  0  0  2  0  0  0  0  0  0
  -28.0700  -17.0810   20.2910 C   0  0  0  0  0  3  0  0  0  0  0  0
  -25.5340  -14.8180   19.6520 O   0  0  0  0  0  0  0  0  0  0  0  0
  -29.2060  -12.7840   19.6080 C   0  0  0  0  0  0  0  0  0  0  0  0
  -31.3000  -11.7240   19.7410 C   0  0  0  0  0  2  0  0  0  0  0  0
  -30.4600  -10.6000   19.2330 C   0  0  0  0  0  2  0  0  0  0  0  0
  -29.5940  -10.2870   20.5560 C   0  0  0  0  0  2  0  0  0  0  0  0
  -28.9300  -11.4990   21.7420 C   0  0  0  0  0  3  0  0  0  0  0  0
  -30.0130  -12.4330   21.7930 C   0  0  0  0  0  2  0  0  0  0  0  0
  -30.2700  -12.5340   20.4130 N   0  0  0  0  0  0  0  0  0  0  0  0
  -29.8820  -13.7510   19.1440 O   0  0  0  0  0  0  0  0  0  0  0  0
  -24.5430  -10.3130   21.7600 C   0  0  0  0  0  2  0  0  0  0  0  0
  -23.5840  -11.9200   20.2480 C   0  0  0  0  0 15  0  0  0  0  0  0
  -27.0580  -10.1170   20.4090 C   0  0  0  0  0 15  0  0  0  0  0  0
  -26.4900  -12.6070   18.6110 C   0  0  0  0  0  2  0  0  0  0  0  0
  -24.8270  -13.3100   19.2130 C   0  0  0  0  0  2  0  0  0  0  0  0
  -27.7930  -11.8160   19.4270 N   0  0  0  0  0  2  0  0  0  0  0  0
  -26.6540  -13.4180   21.6680 C   0  0  0  0  0  3  0  0  0  0  0  0
  -25.3940  -12.8990   21.8890 C   0  0  1  0  0  0  0  0  0  0  0  0
  -25.7190  -11.7320   21.0950 C   0  0  0  0  0  3  0  0  0  0  0  0
  -27.5390  -12.3140   21.8290 N   0  0  0  0  0  0  0  0  0  0  0  0
  -26.5590  -11.7160   22.2230 N   0  0  0  0  0  0  0  0  0  0  0  0
  -24.7740   -9.6680   20.1990 C   0  0  0  0  0  3  0  0  0  0  0  0
  -24.9300   -8.3220   21.0990 C   0  0  0  0  0  2  0  0  0  0  0  0
  -24.0670   -7.4810   21.9410 C   0  0  0  0  0  2  0  0  0  0  0  0
  -22.6960   -7.4930   21.7300 C   0  0  0  0  0  0  0  0  0  0  0  0
  -22.3770   -8.4150   20.7080 C   0  0  0  0  0  3  0  0  0  0  0  0
  -23.3450   -9.2420   19.9850 C   0  0  0  0  0  2  0  0  0  0  0  0
  -21.7610   -6.5220   22.1240 O   0  0  0  0  0  0  0  0  0  0  0  0
  -21.7700   -5.7130   23.2610 C   0  0  0  0  0  0  0  0  0  0  0  0
  -21.3810   -6.2280   24.5200 C   0  0  0  0  0  3  0  0  0  0  0  0
  -21.1930   -5.3740   25.6320 C   0  0  0  0  0  3  0  0  0  0  0  0
  -21.3900   -3.9850   25.5060 C   0  0  0  0  0  0  0  0  0  0  0  0
  -21.7660   -3.4530   24.2590 C   0  0  0  0  0  3  0  0  0  0  0  0
  -21.9430   -4.3040   23.1480 C   0  0  0  0  0  0  0  0  0  0  0  0
  -22.2470   -3.7470   21.9520 F   0  0  0  0  0  0  0  0  0  0  0  0
  -21.2190   -3.1680   26.5750 F   0  0  0  0  0  0  0  0  0  0  0  0
  -24.0410  -13.4680   22.4190 C   0  0  0  0  0  0  0  0  0  0  0  0
  -23.3010  -12.7060   23.2520 N   0  0  0  0  0  0  0  0  0  0  0  0
  -23.4180  -14.3130   21.7820 O   0  0  0  0  0  0  0  0  0  0  0  0
  -23.6780  -11.8560   23.6430 H   0  0  0  0  0  0  0  0  0  0  0  0
  -22.3430  -12.9660   23.4330 H   0  0  0  0  0  0  0  0  0  0  0  0
  -27.0480  -14.6870   21.4400 N   0  0  0  0  0  0  0  0  0  0  0  0
  -26.4080  -15.4610   21.3240 H   0  0  0  0  0  0  0  0  0  0  0  0
  -28.0150  -14.9710   21.4100 H   0  0  0  0  0  0  0  0  0  0  0  0
  -27.6340  -20.0940   20.3340 O   0  0  0  0  0  0  0  0  0  0  0  0
  -27.8900  -21.7450   20.1570 C   0  0  0  0  0  2  0  0  0  0  0  0
  -28.6620  -23.0910   21.1670 C   0  0  0  0  0  2  0  0  0  0  0  0
  -29.3590  -24.6370   21.1690 O   0  0  0  0  0  0  0  0  0  0  0  0
  -26.0860  -30.8150   24.2120 C   0  0  0  0  0  0  0  0  0  0  0  0
  -28.6660  -25.9350   21.1970 C   0  0  0  0  0  0  0  0  0  0  0  0
  -25.1330  -29.5930   22.3240 C   0  0  0  0  0  3  0  0  0  0  0  0
  -26.6930  -28.0550   20.9990 C   0  0  0  0  0  0  0  0  0  0  0  0
  -27.7010  -29.6340   22.6220 C   0  0  0  0  0  2  0  0  0  0  0  0
  -27.7860  -28.2770   21.8490 C   0  0  0  0  0  0  0  0  0  0  0  0
  -28.8080  -27.2250   21.9320 C   0  0  0  0  0  3  0  0  0  0  0  0
  -27.6100  -25.9060   20.3060 C   0  0  0  0  0  3  0  0  0  0  0  0
  -26.6430  -26.9060   20.2130 C   0  0  0  0  0  3  0  0  0  0  0  0
  -25.5530  -29.0520   20.9410 C   0  0  0  0  0  2  0  0  0  0  0  0
  -26.3260  -30.0390   23.1080 N   0  0  0  0  0  0  0  0  0  0  0  0
  -24.9320  -31.1220   24.5570 O   0  0  0  0  0  0  0  0  0  0  0  0
  -24.2760  -28.5360   23.0710 C   0  0  0  0  0  0  0  0  0  0  0  0
  -23.0050  -28.3710   22.6610 N   0  0  0  0  0  0  0  0  0  0  0  0
  -24.7620  -27.8780   23.9930 O   0  0  0  0  0  0  0  0  0  0  0  0
  -22.6700  -28.9540   21.9080 H   0  0  0  0  0  0  0  0  0  0  0  0
  -19.5950  -27.1630   22.4180 C   0  0  0  0  0  0  0  0  0  0  0  0
  -22.0450  -27.4100   23.2120 C   0  0  0  0  0  3  0  0  0  0  0  0
  -22.2670  -25.9990   22.6220 C   0  0  0  0  0  2  0  0  0  0  0  0
  -21.3990  -25.7140   21.3910 C   0  0  0  0  0  2  0  0  0  0  0  0
  -19.9130  -25.8400   21.7420 C   0  0  0  0  0  2  0  0  0  0  0  0
  -20.5980  -27.9080   23.0940 C   0  0  0  0  0  0  0  0  0  0  0  0
  -20.2530  -29.1460   23.6790 C   0  0  0  0  0  3  0  0  0  0  0  0
  -18.9390  -29.6430   23.5950 C   0  0  0  0  0  3  0  0  0  0  0  0
  -17.9470  -28.8960   22.9350 C   0  0  0  0  0  3  0  0  0  0  0  0
  -18.2740  -27.6570   22.3540 C   0  0  0  0  0  3  0  0  0  0  0  0
  -27.2460  -31.3720   25.0860 C   0  0  0  0  0  3  0  0  0  0  0  0
  -26.9250  -32.7730   25.4150 N   0  0  0  0  0  0  0  0  0  0  0  0
  -27.4060  -33.8470   24.7750 C   0  0  0  0  0  0  0  0  0  0  0  0
  -28.2330  -33.7600   23.8640 O   0  0  0  0  0  0  0  0  0  0  0  0
  -26.2090  -32.9150   26.1140 H   0  0  0  0  0  0  0  0  0  0  0  0
  -25.8090  -35.7200   24.2410 C   0  0  0  0  0  1  0  0  0  0  0  0
  -26.8950  -35.2350   25.2160 C   0  0  0  0  0  3  0  0  0  0  0  0
  -28.8910  -36.0170   26.4160 C   0  0  0  0  0  1  0  0  0  0  0  0
  -27.9640  -36.2550   25.3120 N   0  0  0  0  0  0  0  0  0  0  0  0
  -27.5660  -37.1840   25.4280 H   0  0  0  0  0  0  0  0  0  0  0  0
  -27.4710  -30.5430   26.4100 C   0  0  1  0  0  0  0  0  0  0  0  0
  -26.1840  -30.3250   27.2390 C   0  0  0  0  0  1  0  0  0  0  0  0
  -28.0640  -29.1510   26.1010 C   0  0  0  0  0  1  0  0  0  0  0  0
  -28.5020  -31.2670   27.3090 C   0  0  0  0  0  1  0  0  0  0  0  0
  1  4  1  0
  2  1  2  0
  2  6  1  0
  3  9  1  0
  4 10  1  0
  4  3  2  0
  5  3  1  0
  5 53  1  0
  6  5  2  0
  7  8  1  0
  7  9  1  0
  8  9  1  0
 11 17  1  0
 12 17  1  0
 13 12  1  0
 13 14  1  0
 15 14  1  0
 15 16  1  0
 17 16  1  0
 18 11  2  0
 22 23  1  0
 22 24  1  0
 23 10  1  0
 24 11  1  0
 25 50  1  0
 25 28  1  0
 25 26  1  0
 26 29  1  0
 26 45  1  1
 27 19  1  0
 27 26  1  0
 27 29  1  0
 28 15  1  0
 28 29  1  0
 30 31  1  0
 30 19  1  0
 31 32  1  0
 33 32  1  0
 33 36  1  0
 34 33  2  0
 35 30  1  0
 35 34  1  0
 36 37  1  0
 37 38  1  0
 38 39  2  0
 40 39  1  0
 40 44  1  0
 41 40  2  0
 42 37  2  0
 42 41  1  0
 43 42  1  0
 45 46  1  0
 46 49  1  0
 46 48  1  0
 47 45  2  0
 51 50  1  0
 52 50  1  0
 54 53  1  0
 54 55  1  0
 55 56  1  0
 56 58  1  0
 57 68  2  0
 57 83  1  0
 58 63  1  0
 59 69  1  0
 59 67  1  0
 60 62  1  0
 61 67  1  0
 62 63  2  0
 62 61  1  0
 64 58  2  0
 65 64  1  0
 65 60  2  0
 66 60  1  0
 66 59  1  0
 67 57  1  0
 69 71  2  0
 70 69  1  0
 70 74  1  0
 72 70  1  0
 73 78  1  0
 75 74  1  0
 76 77  1  0
 76 75  1  0
 77 73  1  0
 78 74  1  0
 78 79  2  0
 80 79  1  0
 81 80  2  0
 82 73  2  0
 82 81  1  0
 83 84  1  0
 83 93  1  0
 84 87  1  0
 85 89  1  0
 85 84  1  0
 86 85  2  0
 88 89  1  0
 89 91  1  0
 91 92  1  0
 91 90  1  0
 93 94  1  1
 93 96  1  0
 95 93  1  0
M  ISO  4  11 100  24 100  55 101  56 101
M  END
>  <TORSDO>  (55) 
F 21

>  <SCORE>  (55) 
0.402

>  <name>  (55) 
55

>  <ligand_id>  (55) 
55

>  <original_smiles>  (55) 
[H]c1nc(OC([H])([H])C([H])([H])Oc2c([H])c([H])c3c(c2[H])C([H])([H])N(C(=O)C([H])(N([H])C(=O)C([H])(N([H])C([H])([H])[H])C([H])([H])[H])C(C([H])([H])[H])(C([H])([H])[H])C([H])([H])[H])C([H])(C(=O)N([H])C2([H])c4c([H])c([H])c([H])c([H])c4C([H])([H])C([H])([H])C2([H])[H])C3([H])[H])c(C2([H])C([H])([H])C2([H])[H])c(OC2([H])C([H])([H])N(C(=O)N3C([H])([H])C([H])([H])C([H])([H])C([H])(n4nc(-c5c([H])c([H])c(Oc6c([H])c([H])c(F)c([H])c6F)c([H])c5[H])c(C(=O)N([H])[H])c4N([H])[H])C3([H])[H])C([H])([H])C([H])([H])C2([H])[H])c1[H]

>  <smiles>  (55) 
[H]c1nc(OC([H])([H])C([H])([H])Oc2c([H])c([H])c3c(c2[H])C([H])([H])N(C(=O)C([H])(N([H])C(=O)C([H])(N([H])C([H])([H])[H])C([H])([H])[H])C(C([H])([H])[H])(C([H])([H])[H])C([H])([H])[H])C([H])(C(=O)N([H])C2([H])c4c([H])c([H])c([H])c([H])c4C([H])([H])C([H])([H])C2([H])[H])C3([H])[H])c(C2([H])C([H])([H])C2([H])[H])c(OC2([H])C([H])([H])N(C(=O)N3C([H])([H])C([H])([H])C([H])([H])C([H])(n4nc(-c5c([H])c([H])c(Oc6c([H])c([H])c(F)c([H])c6F)c([H])c5[H])c(C(=O)N([H])[H])c4N([H])[H])C3([H])[H])C([H])([H])C([H])([H])C2([H])[H])c1[H]

$$$$
56:0:0
     RDKit          3D

 94103  0  0  1  0  0  0  0  0999 V2000
  -28.8100  -22.4520   20.0500 C   0  0  0  0  0  3  0  0  0  0  0  0
  -29.6060  -23.5480   19.6850 C   0  0  0  0  0  3  0  0  0  0  0  0
  -29.1770  -21.1150   19.7600 C   0  0  0  0  0  0  0  0  0  0  0  0
  -30.8300  -23.3480   19.0350 C   0  0  0  0  0  0  0  0  0  0  0  0
  -31.2730  -21.9950   18.8260 C   0  0  0  0  0  0  0  0  0  0  0  0
  -30.4480  -20.8570   19.1470 C   0  0  0  0  0  0  0  0  0  0  0  0
  -32.6450  -21.7540   18.2130 C   0  0  0  0  0  1  0  0  0  0  0  0
  -28.0680  -18.7290   19.4680 C   0  0  0  0  0  2  0  0  0  0  0  0
  -26.9450  -19.7210   19.3620 C   0  0  0  0  0  2  0  0  0  0  0  0
  -28.1800  -20.0610   20.1860 C   0  0  0  0  0  3  0  0  0  0  0  0
  -31.4920  -24.5960   18.3900 C   0  0  0  0  0  2  0  0  0  0  0  0
  -32.1460  -25.7630   19.2290 C   0  0  0  0  0  2  0  0  0  0  0  0
  -31.5090  -26.4780   20.3220 O   0  0  0  0  0  0  0  0  0  0  0  0
  -26.3440  -29.9170   23.8560 C   0  0  0  0  0  0  0  0  0  0  0  0
  -30.2440  -27.0480   20.2230 C   0  0  0  0  0  0  0  0  0  0  0  0
  -25.6810  -28.8670   21.7200 C   0  0  0  0  0  3  0  0  0  0  0  0
  -27.5950  -28.0940   20.2140 C   0  0  0  0  0  0  0  0  0  0  0  0
  -28.0830  -29.6830   22.0800 C   0  0  0  0  0  2  0  0  0  0  0  0
  -28.5360  -28.5940   21.1210 C   0  0  0  0  0  0  0  0  0  0  0  0
  -29.8560  -28.0710   21.1310 C   0  0  0  0  0  3  0  0  0  0  0  0
  -29.2790  -26.5900   19.3000 C   0  0  0  0  0  3  0  0  0  0  0  0
  -27.9640  -27.0930   19.3020 C   0  0  0  0  0  3  0  0  0  0  0  0
  -26.1990  -28.6740   20.2700 C   0  0  0  0  0  2  0  0  0  0  0  0
  -26.7090  -29.4900   22.6130 N   0  0  0  0  0  0  0  0  0  0  0  0
  -25.1710  -29.8270   24.2450 O   0  0  0  0  0  0  0  0  0  0  0  0
  -25.1530  -27.5110   22.2450 C   0  0  0  0  0  0  0  0  0  0  0  0
  -24.0570  -27.0170   21.6460 N   0  0  0  0  0  0  0  0  0  0  0  0
  -25.7390  -26.9180   23.1560 O   0  0  0  0  0  0  0  0  0  0  0  0
  -23.6260  -27.5680   20.9170 H   0  0  0  0  0  0  0  0  0  0  0  0
  -21.4000  -24.7800   20.6490 C   0  0  0  0  0  0  0  0  0  0  0  0
  -23.4130  -25.7410   21.9560 C   0  0  0  0  0  3  0  0  0  0  0  0
  -24.2200  -24.5530   21.3820 C   0  0  0  0  0  2  0  0  0  0  0  0
  -23.7530  -24.1230   19.9880 C   0  0  0  0  0  2  0  0  0  0  0  0
  -22.2780  -23.7130   20.0200 C   0  0  0  0  0  2  0  0  0  0  0  0
  -21.9350  -25.7420   21.5470 C   0  0  0  0  0  0  0  0  0  0  0  0
  -21.0820  -26.7330   22.0790 C   0  0  0  0  0  3  0  0  0  0  0  0
  -19.7200  -26.7750   21.7270 C   0  0  0  0  0  3  0  0  0  0  0  0
  -19.1910  -25.8120   20.8500 C   0  0  0  0  0  3  0  0  0  0  0  0
  -20.0280  -24.8150   20.3190 C   0  0  0  0  0  3  0  0  0  0  0  0
  -27.3740  -30.5570   24.8360 C   0  0  0  0  0  3  0  0  0  0  0  0
  -26.8210  -31.8430   25.2820 N   0  0  0  0  0  0  0  0  0  0  0  0
  -27.1840  -33.0370   24.7970 C   0  0  0  0  0  0  0  0  0  0  0  0
  -28.0820  -33.1780   23.9610 O   0  0  0  0  0  0  0  0  0  0  0  0
  -26.0380  -31.8030   25.9200 H   0  0  0  0  0  0  0  0  0  0  0  0
  -25.3840  -34.7210   24.2890 C   0  0  0  0  0  1  0  0  0  0  0  0
  -26.4310  -34.2750   25.3230 C   0  0  0  0  0  3  0  0  0  0  0  0
  -28.1610  -35.1640   26.8210 C   0  0  0  0  0  1  0  0  0  0  0  0
  -27.3190  -35.4100   25.6530 N   0  0  0  0  0  0  0  0  0  0  0  0
  -26.7790  -36.2540   25.8230 H   0  0  0  0  0  0  0  0  0  0  0  0
  -27.7140  -29.6360   26.0720 C   0  0  1  0  0  0  0  0  0  0  0  0
  -26.4650  -29.0500   26.7720 C   0  0  0  0  0  1  0  0  0  0  0  0
  -28.6120  -28.4530   25.6460 C   0  0  0  0  0  1  0  0  0  0  0  0
  -28.5150  -30.4430   27.1220 C   0  0  0  0  0  1  0  0  0  0  0  0
  -30.9770  -19.5830   18.8550 O   0  0  0  0  0  0  0  0  0  0  0  0
  -30.4540  -18.3290   19.3770 C   0  0  0  0  0  2  0  0  0  0  0  0
  -31.4160  -17.1010   19.2030 C   0  0  0  0  0  2  0  0  0  0  0  0
  -31.9500  -14.8600   20.2480 C   0  0  0  0  0  0  0  0  0  0  0  0
  -31.9550  -12.3910   20.1530 C   0  0  0  0  0  2  0  0  0  0  0  0
  -31.1630  -11.9610   18.9000 C   0  0  0  0  0  2  0  0  0  0  0  0
  -29.6620  -11.8370   19.2260 C   0  0  0  0  0  2  0  0  0  0  0  0
  -29.1100  -13.0770   19.9800 C   0  0  0  0  0  3  0  0  0  0  0  0
  -30.0330  -13.4820   21.1520 C   0  0  0  0  0  2  0  0  0  0  0  0
  -31.3870  -13.6720   20.6140 N   0  0  0  0  0  0  0  0  0  0  0  0
  -33.1350  -14.9490   19.9210 O   0  0  0  0  0  0  0  0  0  0  0  0
  -31.1000  -15.8950   20.0240 N   0  0  0  0  0  0  0  0  0  0  0  0
  -30.1380  -15.7550   20.2930 H   0  0  0  0  0  0  0  0  0  0  0  0
  -26.7210  -13.8010   20.5890 C   0  0  0  0  0  0  0  0  0  0  0  0
  -25.6080  -13.0840   20.9360 C   0  0  0  0  0  0  0  0  0  0  0  0
  -26.0100  -11.7140   20.9510 C   0  0  0  0  0  0  0  0  0  0  0  0
  -27.7330  -12.8700   20.4180 N   0  0  0  0  0  0  0  0  0  0  0  0
  -27.3060  -11.6100   20.6940 N   0  0  0  0  0  0  0  0  0  0  0  0
  -25.2200  -10.4890   21.1390 C   0  0  0  0  0  0  0  0  0  0  0  0
  -25.2940   -9.7380   22.3310 C   0  0  0  0  0  3  0  0  0  0  0  0
  -24.5110   -8.5750   22.4940 C   0  0  0  0  0  3  0  0  0  0  0  0
  -23.6390   -8.1560   21.4610 C   0  0  0  0  0  0  0  0  0  0  0  0
  -23.5880   -8.8940   20.2660 C   0  0  0  0  0  3  0  0  0  0  0  0
  -24.3720  -10.0480   20.1030 C   0  0  0  0  0  3  0  0  0  0  0  0
  -22.8570   -7.0280   21.5210 O   0  0  0  0  0  0  0  0  0  0  0  0
  -22.1000   -6.7360   22.6260 C   0  0  0  0  0  0  0  0  0  0  0  0
  -21.1090   -7.6190   23.1070 C   0  0  0  0  0  3  0  0  0  0  0  0
  -20.3080   -7.2470   24.2040 C   0  0  0  0  0  3  0  0  0  0  0  0
  -20.4870   -5.9920   24.8150 C   0  0  0  0  0  0  0  0  0  0  0  0
  -21.4700   -5.1090   24.3340 C   0  0  0  0  0  3  0  0  0  0  0  0
  -22.2720   -5.4790   23.2400 C   0  0  0  0  0  0  0  0  0  0  0  0
  -23.2030   -4.6150   22.7680 F   0  0  0  0  0  0  0  0  0  0  0  0
  -19.7120   -5.6320   25.8650 F   0  0  0  0  0  0  0  0  0  0  0  0
  -24.2260  -13.6290   21.1470 C   0  0  0  0  0  0  0  0  0  0  0  0
  -23.4810  -13.0550   22.0870 N   0  0  0  0  0  0  0  0  0  0  0  0
  -23.8160  -14.5980   20.5110 O   0  0  0  0  0  0  0  0  0  0  0  0
  -23.8300  -12.2750   22.6240 H   0  0  0  0  0  0  0  0  0  0  0  0
  -22.5490  -13.4010   22.2730 H   0  0  0  0  0  0  0  0  0  0  0  0
  -26.9480  -15.1580   20.3850 N   0  0  0  0  0  0  0  0  0  0  0  0
  -26.1910  -15.8320   20.4280 H   0  0  0  0  0  0  0  0  0  0  0  0
  -27.8120  -15.5560   20.0410 H   0  0  0  0  0  0  0  0  0  0  0  0
  2  1  2  0
  3  1  1  0
  3 10  1  0
  4  2  1  0
  5  4  2  0
  5  6  1  0
  6  3  2  0
  7  5  1  0
  8 10  1  0
  9  8  1  0
  9 10  1  0
 11  4  1  0
 11 12  1  0
 12 13  1  0
 14 25  2  0
 15 13  1  0
 15 20  1  0
 16 26  1  0
 16 24  1  0
 17 23  1  0
 17 19  1  0
 18 24  1  0
 19 20  2  0
 19 18  1  0
 21 22  1  0
 21 15  2  0
 22 17  2  0
 23 16  1  0
 24 14  1  0
 26 28  2  0
 27 26  1  0
 29 27  1  0
 30 35  1  0
 31 27  1  0
 32 31  1  0
 33 34  1  0
 33 32  1  0
 34 30  1  0
 35 31  1  0
 35 36  2  0
 37 36  1  0
 38 37  2  0
 39 30  2  0
 39 38  1  0
 40 14  1  0
 40 41  1  0
 40 50  1  0
 41 44  1  0
 42 41  1  0
 42 46  1  0
 43 42  2  0
 46 45  1  0
 46 48  1  0
 48 49  1  0
 48 47  1  0
 50 51  1  1
 50 53  1  0
 52 50  1  0
 54  6  1  0
 54 55  1  0
 56 55  1  0
 56 65  1  0
 57 63  1  0
 58 63  1  0
 59 60  1  0
 59 58  1  0
 61 60  1  0
 61 70  1  0
 61 62  1  0
 63 62  1  0
 64 57  2  0
 65 57  1  0
 65 66  1  0
 67 68  2  0
 68 69  1  0
 68 87  1  0
 69 72  1  0
 70 67  1  0
 70 71  1  0
 71 69  2  0
 72 73  1  0
 73 74  2  0
 75 78  1  0
 75 74  1  0
 76 75  2  0
 77 76  1  0
 77 72  2  0
 78 79  1  0
 79 80  2  0
 79 84  1  0
 80 81  1  0
 81 82  2  0
 82 86  1  0
 83 82  1  0
 84 83  2  0
 85 84  1  0
 87 88  1  0
 88 91  1  0
 88 90  1  0
 89 87  2  0
 92 93  1  0
 92 67  1  0
 94 92  1  0
M  ISO  4  12 101  13 101  57 100  65 100
M  END
>  <TORSDO>  (56) 
F 22

>  <SCORE>  (56) 
-7.757

>  <name>  (56) 
56

>  <ligand_id>  (56) 
56

>  <original_smiles>  (56) 
[H]c1c([H])c([H])c2c(c1[H])C([H])([H])C([H])([H])C([H])([H])C2([H])N([H])C(=O)C1([H])N(C(=O)C([H])(N([H])C(=O)C([H])(N([H])C([H])([H])[H])C([H])([H])[H])C(C([H])([H])[H])(C([H])([H])[H])C([H])([H])[H])C([H])([H])c2c([H])c(OC([H])([H])C([H])([H])c3c([H])c([H])c(C4([H])C([H])([H])C4([H])[H])c(OC([H])([H])C([H])([H])N([H])C(=O)N4C([H])([H])C([H])([H])C([H])([H])C([H])(n5nc(-c6c([H])c([H])c(Oc7c([H])c([H])c(F)c([H])c7F)c([H])c6[H])c(C(=O)N([H])[H])c5N([H])[H])C4([H])[H])c3C([H])([H])[H])c([H])c([H])c2C1([H])[H]

>  <smiles>  (56) 
[H]c1c([H])c([H])c2c(c1[H])C([H])([H])C([H])([H])C([H])([H])C2([H])N([H])C(=O)C1([H])N(C(=O)C([H])(N([H])C(=O)C([H])(N([H])C([H])([H])[H])C([H])([H])[H])C(C([H])([H])[H])(C([H])([H])[H])C([H])([H])[H])C([H])([H])c2c([H])c(OC([H])([H])C([H])([H])c3c([H])c([H])c(C4([H])C([H])([H])C4([H])[H])c(OC([H])([H])C([H])([H])N([H])C(=O)N4C([H])([H])C([H])([H])C([H])([H])C([H])(n5nc(-c6c([H])c([H])c(Oc7c([H])c([H])c(F)c([H])c7F)c([H])c6[H])c(C(=O)N([H])[H])c5N([H])[H])C4([H])[H])c3C([H])([H])[H])c([H])c([H])c2C1([H])[H]

$$$$
57:0:0
     RDKit          3D

 91100  0  0  1  0  0  0  0  0999 V2000
  -29.7600  -19.4010   19.0490 C   0  0  0  0  0  3  0  0  0  0  0  0
  -29.4440  -19.1490   21.3980 C   0  0  0  0  0  3  0  0  0  0  0  0
  -29.8880  -18.5700   20.1910 C   0  0  0  0  0  0  0  0  0  0  0  0
  -29.2740  -20.7360   19.1560 C   0  0  0  0  0  0  0  0  0  0  0  0
  -28.9120  -21.2560   20.4300 C   0  0  0  0  0  0  0  0  0  0  0  0
  -29.1860  -21.5750   17.8930 C   0  0  0  0  0  1  0  0  0  0  0  0
  -28.9720  -20.4240   21.5040 N   0  0  0  0  0  0  0  0  0  0  0  0
  -27.1350  -23.2390   20.2000 C   0  0  0  0  0  2  0  0  0  0  0  0
  -28.4140  -22.6960   20.7840 C   0  0  0  0  0  3  0  0  0  0  0  0
  -28.4040  -24.0520   20.0000 C   0  0  0  0  0  3  0  0  0  0  0  0
  -28.5690  -25.4190   20.7420 C   0  0  0  0  0  2  0  0  0  0  0  0
  -28.6060  -26.6840   20.0050 O   0  0  0  0  0  0  0  0  0  0  0  0
  -24.6740  -31.8340   23.1350 C   0  0  0  0  0  0  0  0  0  0  0  0
  -27.4540  -27.4580   20.0190 C   0  0  0  0  0  0  0  0  0  0  0  0
  -23.5310  -30.4420   21.4430 C   0  0  0  0  0  3  0  0  0  0  0  0
  -25.0430  -28.9630   20.0090 C   0  0  0  0  0  0  0  0  0  0  0  0
  -26.0580  -30.8460   21.3010 C   0  0  0  0  0  2  0  0  0  0  0  0
  -26.1850  -29.4870   20.6290 C   0  0  0  0  0  0  0  0  0  0  0  0
  -27.3990  -28.7460   20.6190 C   0  0  0  0  0  3  0  0  0  0  0  0
  -26.2930  -26.9630   19.3930 C   0  0  0  0  0  3  0  0  0  0  0  0
  -25.0950  -27.7050   19.3840 C   0  0  0  0  0  3  0  0  0  0  0  0
  -23.7820  -29.8010   20.0520 C   0  0  0  0  0  2  0  0  0  0  0  0
  -24.7710  -31.0570   22.0170 N   0  0  0  0  0  0  0  0  0  0  0  0
  -23.5760  -32.0700   23.6600 O   0  0  0  0  0  0  0  0  0  0  0  0
  -22.8840  -29.3860   22.3690 C   0  0  0  0  0  0  0  0  0  0  0  0
  -21.5580  -29.2030   22.2390 N   0  0  0  0  0  0  0  0  0  0  0  0
  -23.5700  -28.7360   23.1610 O   0  0  0  0  0  0  0  0  0  0  0  0
  -21.0640  -29.7820   21.5750 H   0  0  0  0  0  0  0  0  0  0  0  0
  -18.1840  -28.0070   22.7450 C   0  0  0  0  0  0  0  0  0  0  0  0
  -20.7490  -28.2340   22.9780 C   0  0  0  0  0  3  0  0  0  0  0  0
  -20.8290  -26.8340   22.3280 C   0  0  0  0  0  2  0  0  0  0  0  0
  -19.7050  -26.5700   21.3210 C   0  0  0  0  0  2  0  0  0  0  0  0
  -18.3370  -26.6930   21.9990 C   0  0  0  0  0  2  0  0  0  0  0  0
  -19.3180  -28.7380   23.1900 C   0  0  0  0  0  0  0  0  0  0  0  0
  -19.1210  -29.9720   23.8490 C   0  0  0  0  0  3  0  0  0  0  0  0
  -17.8240  -30.4740   24.0650 C   0  0  0  0  0  3  0  0  0  0  0  0
  -16.7050  -29.7390   23.6360 C   0  0  0  0  0  3  0  0  0  0  0  0
  -16.8870  -28.5070   22.9830 C   0  0  0  0  0  3  0  0  0  0  0  0
  -25.9320  -32.4820   23.7930 C   0  0  0  0  0  3  0  0  0  0  0  0
  -26.4340  -31.7060   25.0720 C   0  0  1  0  0  0  0  0  0  0  0  0
  -25.3230  -31.4360   26.1140 C   0  0  0  0  0  1  0  0  0  0  0  0
  -27.0520  -30.3450   24.6780 C   0  0  0  0  0  1  0  0  0  0  0  0
  -27.5550  -32.5140   25.7670 C   0  0  0  0  0  1  0  0  0  0  0  0
  -25.5910  -33.8710   24.1300 N   0  0  0  0  0  0  0  0  0  0  0  0
  -25.9150  -34.9370   23.3880 C   0  0  0  0  0  0  0  0  0  0  0  0
  -26.6040  -34.8570   22.3680 O   0  0  0  0  0  0  0  0  0  0  0  0
  -24.9770  -34.0050   24.9210 H   0  0  0  0  0  0  0  0  0  0  0  0
  -24.1650  -36.7040   23.0150 C   0  0  0  0  0  1  0  0  0  0  0  0
  -25.3940  -36.3110   23.8500 C   0  0  0  0  0  3  0  0  0  0  0  0
  -27.4860  -37.2280   24.7490 C   0  0  0  0  0  1  0  0  0  0  0  0
  -26.4100  -37.3820   23.7740 N   0  0  0  0  0  0  0  0  0  0  0  0
  -25.9840  -38.2940   23.9160 H   0  0  0  0  0  0  0  0  0  0  0  0
  -30.7100  -17.2360   20.1250 C   0  0  0  0  0  2  0  0  0  0  0  0
  -30.8330  -14.7260   20.0570 C   0  0  0  0  0  0  0  0  0  0  0  0
  -30.5070  -12.5200   18.9890 C   0  0  0  0  0  2  0  0  0  0  0  0
  -29.5230  -12.6810   17.8120 C   0  0  0  0  0  2  0  0  0  0  0  0
  -28.0700  -12.5320   18.3010 C   0  0  0  0  0  2  0  0  0  0  0  0
  -27.7690  -13.3820   19.5640 C   0  0  0  0  0  3  0  0  0  0  0  0
  -28.8720  -13.2290   20.6340 C   0  0  0  0  0  2  0  0  0  0  0  0
  -30.1540  -13.5420   19.9920 N   0  0  0  0  0  0  0  0  0  0  0  0
  -32.0020  -14.8070   19.6750 O   0  0  0  0  0  0  0  0  0  0  0  0
  -30.1250  -15.8680   20.3180 N   0  0  0  0  0  0  0  0  0  0  0  0
  -29.1500  -15.7810   20.5610 H   0  0  0  0  0  0  0  0  0  0  0  0
  -25.4090  -13.9700   20.3890 C   0  0  0  0  0  0  0  0  0  0  0  0
  -24.3590  -13.1910   20.7930 C   0  0  0  0  0  0  0  0  0  0  0  0
  -24.8220  -11.8410   20.7310 C   0  0  0  0  0  0  0  0  0  0  0  0
  -26.4430  -13.0940   20.1040 N   0  0  0  0  0  0  0  0  0  0  0  0
  -26.0980  -11.8080   20.3720 N   0  0  0  0  0  0  0  0  0  0  0  0
  -24.1050  -10.5760   20.9360 C   0  0  0  0  0  0  0  0  0  0  0  0
  -24.5480   -9.6190   21.8760 C   0  0  0  0  0  3  0  0  0  0  0  0
  -23.8310   -8.4200   22.0690 C   0  0  0  0  0  3  0  0  0  0  0  0
  -22.6560   -8.1670   21.3210 C   0  0  0  0  0  0  0  0  0  0  0  0
  -22.2310   -9.1110   20.3700 C   0  0  0  0  0  3  0  0  0  0  0  0
  -22.9500  -10.3030   20.1760 C   0  0  0  0  0  3  0  0  0  0  0  0
  -21.9080   -7.0180   21.4220 O   0  0  0  0  0  0  0  0  0  0  0  0
  -21.8360   -6.3070   22.5940 C   0  0  0  0  0  0  0  0  0  0  0  0
  -21.3360   -6.8810   23.7830 C   0  0  0  0  0  3  0  0  0  0  0  0
  -21.2140   -6.0950   24.9470 C   0  0  0  0  0  3  0  0  0  0  0  0
  -21.5820   -4.7370   24.9200 C   0  0  0  0  0  0  0  0  0  0  0  0
  -22.0750   -4.1630   23.7360 C   0  0  0  0  0  3  0  0  0  0  0  0
  -22.1990   -4.9450   22.5750 C   0  0  0  0  0  0  0  0  0  0  0  0
  -22.6550   -4.3820   21.4300 F   0  0  0  0  0  0  0  0  0  0  0  0
  -21.4580   -3.9790   26.0360 F   0  0  0  0  0  0  0  0  0  0  0  0
  -22.9720  -13.6640   21.1230 C   0  0  0  0  0  0  0  0  0  0  0  0
  -22.2790  -12.9540   22.0060 N   0  0  0  0  0  0  0  0  0  0  0  0
  -22.5160  -14.6960   20.6350 O   0  0  0  0  0  0  0  0  0  0  0  0
  -22.6620  -12.1170   22.4200 H   0  0  0  0  0  0  0  0  0  0  0  0
  -21.3500  -13.2520   22.2710 H   0  0  0  0  0  0  0  0  0  0  0  0
  -25.5640  -15.3430   20.2180 N   0  0  0  0  0  0  0  0  0  0  0  0
  -24.8010  -15.9930   20.3670 H   0  0  0  0  0  0  0  0  0  0  0  0
  -26.3900  -15.7860   19.8360 H   0  0  0  0  0  0  0  0  0  0  0  0
  1  4  2  0
  1  3  1  0
  2  7  1  0
  3  2  2  0
  4  5  1  0
  5  7  2  0
  6  4  1  0
  8  9  1  0
  9  5  1  0
 10  8  1  0
 10 11  1  0
 10  9  1  0
 12 14  1  0
 12 11  1  0
 13 24  2  0
 14 19  1  0
 15 23  1  0
 15 25  1  0
 16 22  1  0
 16 18  1  0
 17 23  1  0
 18 17  1  0
 19 18  2  0
 20 14  2  0
 21 20  1  0
 21 16  2  0
 22 15  1  0
 23 13  1  0
 25 27  2  0
 26 25  1  0
 28 26  1  0
 29 38  2  0
 29 34  1  0
 30 26  1  0
 30 34  1  0
 31 30  1  0
 32 33  1  0
 32 31  1  0
 33 29  1  0
 34 35  2  0
 35 36  1  0
 37 36  2  0
 38 37  1  0
 39 13  1  0
 39 44  1  0
 39 40  1  0
 40 43  1  1
 40 41  1  0
 42 40  1  0
 44 47  1  0
 45 49  1  0
 45 44  1  0
 46 45  2  0
 49 48  1  0
 51 49  1  0
 51 52  1  0
 51 50  1  0
 53  3  1  0
 53 62  1  0
 54 62  1  0
 55 60  1  0
 56 57  1  0
 56 55  1  0
 58 57  1  0
 58 67  1  0
 58 59  1  0
 60 54  1  0
 60 59  1  0
 61 54  2  0
 62 63  1  0
 64 65  2  0
 65 84  1  0
 66 65  1  0
 66 69  1  0
 67 68  1  0
 67 64  1  0
 68 66  2  0
 69 70  1  0
 70 71  2  0
 72 75  1  0
 72 71  1  0
 73 72  2  0
 74 73  1  0
 74 69  2  0
 75 76  1  0
 76 77  1  0
 77 78  2  0
 79 78  1  0
 79 83  1  0
 80 79  2  0
 81 76  2  0
 81 80  1  0
 82 81  1  0
 84 85  1  0
 85 88  1  0
 85 87  1  0
 86 84  2  0
 89 90  1  0
 89 64  1  0
 91 89  1  0
M  ISO  4  11 101  12 101  54 100  62 100
M  END
>  <TORSDO>  (57) 
F 19

>  <SCORE>  (57) 
-13.434

>  <name>  (57) 
57

>  <ligand_id>  (57) 
57

>  <original_smiles>  (57) 
[H]c1nc(C2([H])C([H])([H])C2([H])C([H])([H])Oc2c([H])c([H])c3c(c2[H])C([H])([H])N(C(=O)C([H])(N([H])C(=O)C([H])(N([H])C([H])([H])[H])C([H])([H])[H])C(C([H])([H])[H])(C([H])([H])[H])C([H])([H])[H])C([H])(C(=O)N([H])C2([H])c4c([H])c([H])c([H])c([H])c4C([H])([H])C([H])([H])C2([H])[H])C3([H])[H])c(C([H])([H])[H])c([H])c1C([H])([H])N([H])C(=O)N1C([H])([H])C([H])([H])C([H])([H])C([H])(n2nc(-c3c([H])c([H])c(Oc4c([H])c([H])c(F)c([H])c4F)c([H])c3[H])c(C(=O)N([H])[H])c2N([H])[H])C1([H])[H]

>  <smiles>  (57) 
[H]c1nc(C2([H])C([H])([H])C2([H])C([H])([H])Oc2c([H])c([H])c3c(c2[H])C([H])([H])N(C(=O)C([H])(N([H])C(=O)C([H])(N([H])C([H])([H])[H])C([H])([H])[H])C(C([H])([H])[H])(C([H])([H])[H])C([H])([H])[H])C([H])(C(=O)N([H])C2([H])c4c([H])c([H])c([H])c([H])c4C([H])([H])C([H])([H])C2([H])[H])C3([H])[H])c(C([H])([H])[H])c([H])c1C([H])([H])N([H])C(=O)N1C([H])([H])C([H])([H])C([H])([H])C([H])(n2nc(-c3c([H])c([H])c(Oc4c([H])c([H])c(F)c([H])c4F)c([H])c3[H])c(C(=O)N([H])[H])c2N([H])[H])C1([H])[H]

$$$$
58:0:0
     RDKit          3D

 96104  0  0  1  0  0  0  0  0999 V2000
  -29.3840  -23.6580   19.1820 C   0  0  0  0  0  3  0  0  0  0  0  0
  -29.3850  -25.0470   18.9390 C   0  0  0  0  0  3  0  0  0  0  0  0
  -27.1170  -25.1670   19.7510 C   0  0  0  0  0  3  0  0  0  0  0  0
  -28.2460  -22.9880   19.7000 C   0  0  0  0  0  0  0  0  0  0  0  0
  -27.0590  -23.7590   19.9710 C   0  0  0  0  0  0  0  0  0  0  0  0
  -28.2470  -25.8210   19.2150 C   0  0  0  0  0  0  0  0  0  0  0  0
  -24.5920  -24.2270   20.6280 C   0  0  0  0  0  1  0  0  0  0  0  0
  -25.9020  -22.5780   21.9090 C   0  0  0  0  0  1  0  0  0  0  0  0
  -25.1090  -22.1020   19.5320 C   0  0  0  0  0  1  0  0  0  0  0  0
  -25.7110  -23.1590   20.4920 C   0  0  2  0  0  0  0  0  0  0  0  0
  -28.2680  -27.1870   18.9730 O   0  0  0  0  0  0  0  0  0  0  0  0
  -24.7370  -31.7680   23.1550 C   0  0  0  0  0  0  0  0  0  0  0  0
  -27.1280  -27.9440   19.1670 C   0  0  0  0  0  0  0  0  0  0  0  0
  -23.4310  -30.7460   21.3200 C   0  0  0  0  0  3  0  0  0  0  0  0
  -24.7850  -29.4800   19.5670 C   0  0  0  0  0  0  0  0  0  0  0  0
  -25.9600  -31.0680   21.1000 C   0  0  0  0  0  2  0  0  0  0  0  0
  -25.9780  -29.8460   20.2030 C   0  0  0  0  0  0  0  0  0  0  0  0
  -27.1530  -29.0830   20.0050 C   0  0  0  0  0  3  0  0  0  0  0  0
  -25.9210  -27.6010   18.5190 C   0  0  0  0  0  3  0  0  0  0  0  0
  -24.7500  -28.3560   18.7230 C   0  0  0  0  0  3  0  0  0  0  0  0
  -23.5710  -30.3440   19.8280 C   0  0  0  0  0  2  0  0  0  0  0  0
  -24.7300  -31.1980   21.9170 N   0  0  0  0  0  0  0  0  0  0  0  0
  -23.6840  -31.9590   23.7800 O   0  0  0  0  0  0  0  0  0  0  0  0
  -22.7800  -29.5730   22.0890 C   0  0  0  0  0  0  0  0  0  0  0  0
  -21.4450  -29.4640   21.9940 N   0  0  0  0  0  0  0  0  0  0  0  0
  -23.4710  -28.7740   22.7260 O   0  0  0  0  0  0  0  0  0  0  0  0
  -20.9500  -30.1630   21.4590 H   0  0  0  0  0  0  0  0  0  0  0  0
  -18.0390  -28.3950   22.5520 C   0  0  0  0  0  0  0  0  0  0  0  0
  -20.6230  -28.4170   22.6000 C   0  0  0  0  0  3  0  0  0  0  0  0
  -20.5490  -27.1700   21.6900 C   0  0  0  0  0  2  0  0  0  0  0  0
  -19.3380  -27.1770   20.7530 C   0  0  0  0  0  2  0  0  0  0  0  0
  -18.0370  -27.2450   21.5580 C   0  0  0  0  0  2  0  0  0  0  0  0
  -19.2530  -28.9550   23.0290 C   0  0  0  0  0  0  0  0  0  0  0  0
  -19.1990  -30.0450   23.9240 C   0  0  0  0  0  3  0  0  0  0  0  0
  -17.9630  -30.5720   24.3440 C   0  0  0  0  0  3  0  0  0  0  0  0
  -16.7640  -30.0030   23.8820 C   0  0  0  0  0  3  0  0  0  0  0  0
  -16.8030  -28.9140   22.9920 C   0  0  0  0  0  3  0  0  0  0  0  0
  -26.0630  -32.2330   23.8340 C   0  0  0  0  0  3  0  0  0  0  0  0
  -25.8320  -33.5750   24.3840 N   0  0  0  0  0  0  0  0  0  0  0  0
  -26.1780  -34.7160   23.7730 C   0  0  0  0  0  0  0  0  0  0  0  0
  -26.7950  -34.7450   22.7050 O   0  0  0  0  0  0  0  0  0  0  0  0
  -25.2800  -33.6310   25.2270 H   0  0  0  0  0  0  0  0  0  0  0  0
  -24.5040  -36.5950   23.7870 C   0  0  0  0  0  1  0  0  0  0  0  0
  -25.7720  -36.0370   24.4550 C   0  0  0  0  0  3  0  0  0  0  0  0
  -27.9790  -36.7270   25.2770 C   0  0  0  0  0  1  0  0  0  0  0  0
  -26.8380  -37.0620   24.4320 N   0  0  0  0  0  0  0  0  0  0  0  0
  -26.4760  -37.9650   24.7320 H   0  0  0  0  0  0  0  0  0  0  0  0
  -26.5640  -31.2480   24.9600 C   0  0  1  0  0  0  0  0  0  0  0  0
  -25.4830  -30.8970   26.0080 C   0  0  0  0  0  1  0  0  0  0  0  0
  -27.0690  -29.9220   24.3420 C   0  0  0  0  0  1  0  0  0  0  0  0
  -27.7680  -31.8720   25.7050 C   0  0  0  0  0  1  0  0  0  0  0  0
  -28.3290  -21.4570   19.9060 C   0  0  0  0  0  2  0  0  0  0  0  0
  -29.7200  -20.7610   19.9390 C   0  0  0  0  0  2  0  0  0  0  0  0
  -29.6200  -19.3370   20.3760 N   0  0  0  0  0  4  0  0  0  0  0  0
  -28.9270  -18.8620   19.8200 H   0  0  0  0  0  0  0  0  0  0  0  0
  -29.2960  -19.3330   21.3290 H   0  0  0  0  0  0  0  0  0  0  0  0
  -30.8790  -18.5470   20.3270 C   0  0  0  0  0  2  0  0  0  0  0  0
  -30.9270  -17.3970   21.3750 C   0  0  0  0  0  2  0  0  0  0  0  0
  -30.9590  -15.1640   20.2300 C   0  0  0  0  0  0  0  0  0  0  0  0
  -30.7000  -12.9690   19.1250 C   0  0  0  0  0  2  0  0  0  0  0  0
  -29.7350  -13.0820   17.9270 C   0  0  0  0  0  2  0  0  0  0  0  0
  -28.2750  -12.9090   18.3830 C   0  0  0  0  0  2  0  0  0  0  0  0
  -27.9220  -13.7920   19.6090 C   0  0  0  0  0  3  0  0  0  0  0  0
  -28.9940  -13.6530   20.7130 C   0  0  0  0  0  2  0  0  0  0  0  0
  -30.3020  -13.9780   20.1190 N   0  0  0  0  0  0  0  0  0  0  0  0
  -32.0350  -15.3940   19.6710 O   0  0  0  0  0  0  0  0  0  0  0  0
  -30.3400  -16.1140   20.9520 N   0  0  0  0  0  0  0  0  0  0  0  0
  -29.4490  -15.8580   21.3520 H   0  0  0  0  0  0  0  0  0  0  0  0
  -25.5390  -14.3660   20.3970 C   0  0  0  0  0  0  0  0  0  0  0  0
  -24.4850  -13.5770   20.7700 C   0  0  0  0  0  0  0  0  0  0  0  0
  -24.9510  -12.2290   20.6830 C   0  0  0  0  0  0  0  0  0  0  0  0
  -26.5830  -13.4970   20.1130 N   0  0  0  0  0  0  0  0  0  0  0  0
  -26.2330  -12.2060   20.3410 N   0  0  0  0  0  0  0  0  0  0  0  0
  -24.2350  -10.9580   20.8510 C   0  0  0  0  0  0  0  0  0  0  0  0
  -24.6600   -9.9880   21.7870 C   0  0  0  0  0  3  0  0  0  0  0  0
  -23.9450   -8.7820   21.9410 C   0  0  0  0  0  3  0  0  0  0  0  0
  -22.7900   -8.5360   21.1620 C   0  0  0  0  0  0  0  0  0  0  0  0
  -22.3850   -9.4940   20.2170 C   0  0  0  0  0  3  0  0  0  0  0  0
  -23.1010  -10.6920   20.0590 C   0  0  0  0  0  3  0  0  0  0  0  0
  -22.0480   -7.3820   21.2270 O   0  0  0  0  0  0  0  0  0  0  0  0
  -21.9340   -6.6640   22.3900 C   0  0  0  0  0  0  0  0  0  0  0  0
  -21.4050   -7.2320   23.5690 C   0  0  0  0  0  3  0  0  0  0  0  0
  -21.2420   -6.4390   24.7230 C   0  0  0  0  0  3  0  0  0  0  0  0
  -21.5990   -5.0770   24.6970 C   0  0  0  0  0  0  0  0  0  0  0  0
  -22.1200   -4.5080   23.5220 C   0  0  0  0  0  3  0  0  0  0  0  0
  -22.2850   -5.2990   22.3710 C   0  0  0  0  0  0  0  0  0  0  0  0
  -22.7690   -4.7400   21.2350 F   0  0  0  0  0  0  0  0  0  0  0  0
  -21.4350   -4.3120   25.8010 F   0  0  0  0  0  0  0  0  0  0  0  0
  -23.0930  -14.0380   21.0930 C   0  0  0  0  0  0  0  0  0  0  0  0
  -22.3920  -13.3100   21.9550 N   0  0  0  0  0  0  0  0  0  0  0  0
  -22.6370  -15.0770   20.6200 O   0  0  0  0  0  0  0  0  0  0  0  0
  -22.7740  -12.4670   22.3590 H   0  0  0  0  0  0  0  0  0  0  0  0
  -21.4590  -13.5980   22.2150 H   0  0  0  0  0  0  0  0  0  0  0  0
  -25.6940  -15.7420   20.2580 N   0  0  0  0  0  0  0  0  0  0  0  0
  -24.9230  -16.3870   20.3950 H   0  0  0  0  0  0  0  0  0  0  0  0
  -26.5270  -16.1890   19.8960 H   0  0  0  0  0  0  0  0  0  0  0  0
  1  4  1  0
  2  1  2  0
  2  6  1  0
  3  5  1  0
  4 52  1  0
  4  5  2  0
  5 10  1  0
  6  3  2  0
 10  9  1  6
 10  7  1  0
 10  8  1  0
 11 13  1  0
 11  6  1  0
 12 23  2  0
 13 18  1  0
 14 22  1  0
 14 24  1  0
 15 21  1  0
 15 17  1  0
 16 22  1  0
 17 16  1  0
 18 17  2  0
 19 20  1  0
 19 13  2  0
 20 15  2  0
 21 14  1  0
 22 12  1  0
 24 26  2  0
 25 24  1  0
 27 25  1  0
 28 37  2  0
 28 33  1  0
 29 25  1  0
 29 33  1  0
 30 29  1  0
 31 32  1  0
 31 30  1  0
 32 28  1  0
 33 34  2  0
 34 35  1  0
 36 35  2  0
 37 36  1  0
 38 12  1  0
 38 39  1  0
 38 48  1  0
 39 42  1  0
 40 39  1  0
 40 44  1  0
 41 40  2  0
 44 43  1  0
 46 44  1  0
 46 47  1  0
 46 45  1  0
 48 51  1  1
 48 49  1  0
 50 48  1  0
 52 53  1  0
 53 54  1  0
 54 56  1  0
 55 54  1  0
 57 54  1  0
 57 58  1  0
 59 67  1  0
 60 65  1  0
 61 62  1  0
 61 60  1  0
 63 62  1  0
 63 72  1  0
 63 64  1  0
 65 59  1  0
 65 64  1  0
 66 59  2  0
 67 68  1  0
 67 58  1  0
 69 70  2  0
 70 89  1  0
 71 70  1  0
 71 74  1  0
 72 73  1  0
 72 69  1  0
 73 71  2  0
 74 75  1  0
 75 76  2  0
 77 80  1  0
 77 76  1  0
 78 77  2  0
 79 78  1  0
 79 74  2  0
 80 81  1  0
 81 82  1  0
 82 83  2  0
 84 83  1  0
 84 88  1  0
 85 84  2  0
 86 81  2  0
 86 85  1  0
 87 86  1  0
 89 90  1  0
 90 93  1  0
 90 92  1  0
 91 89  2  0
 94 95  1  0
 94 69  1  0
 96 94  1  0
M  ISO  4   6 101  11 101  59 100  67 100
M  END
>  <TORSDO>  (58) 
F 22

>  <SCORE>  (58) 
-9.944

>  <name>  (58) 
58

>  <ligand_id>  (58) 
58

>  <original_smiles>  (58) 
[H]c1c([H])c([H])c2c(c1[H])C([H])([H])C([H])([H])C([H])([H])C2([H])N([H])C(=O)C1([H])N(C(=O)C([H])(N([H])C(=O)C([H])(N([H])C([H])([H])[H])C([H])([H])[H])C(C([H])([H])[H])(C([H])([H])[H])C([H])([H])[H])C([H])([H])c2c([H])c(Oc3c([H])c([H])c(C([H])([H])C([H])([H])[N+]([H])([H])C([H])([H])C([H])([H])N([H])C(=O)N4C([H])([H])C([H])([H])C([H])([H])C([H])(n5nc(-c6c([H])c([H])c(Oc7c([H])c([H])c(F)c([H])c7F)c([H])c6[H])c(C(=O)N([H])[H])c5N([H])[H])C4([H])[H])c(C(C([H])([H])[H])(C([H])([H])[H])C([H])([H])[H])c3[H])c([H])c([H])c2C1([H])[H]

>  <smiles>  (58) 
[H]c1c([H])c([H])c2c(c1[H])C([H])([H])C([H])([H])C([H])([H])C2([H])N([H])C(=O)C1([H])N(C(=O)C([H])(N([H])C(=O)C([H])(N([H])C([H])([H])[H])C([H])([H])[H])C(C([H])([H])[H])(C([H])([H])[H])C([H])([H])[H])C([H])([H])c2c([H])c(Oc3c([H])c([H])c(C([H])([H])C([H])([H])[N+]([H])([H])C([H])([H])C([H])([H])N([H])C(=O)N4C([H])([H])C([H])([H])C([H])([H])C([H])(n5nc(-c6c([H])c([H])c(Oc7c([H])c([H])c(F)c([H])c7F)c([H])c6[H])c(C(=O)N([H])[H])c5N([H])[H])C4([H])[H])c(C(C([H])([H])[H])(C([H])([H])[H])C([H])([H])[H])c3[H])c([H])c([H])c2C1([H])[H]

$$$$
59:0:0
     RDKit          3D

 93101  0  0  1  0  0  0  0  0999 V2000
  -28.1030  -19.7810   20.7600 C   0  0  0  0  0  3  0  0  0  0  0  0
  -28.6380  -18.5210   20.4360 C   0  0  0  0  0  0  0  0  0  0  0  0
  -30.0420  -18.3210   20.5160 C   0  0  0  0  0  0  0  0  0  0  0  0
  -30.8170  -19.4290   20.9680 C   0  0  0  0  0  0  0  0  0  0  0  0
  -28.9660  -20.8290   21.0990 C   0  0  0  0  0  0  0  0  0  0  0  0
  -27.6880  -17.4510   19.9530 C   0  0  0  0  0  1  0  0  0  0  0  0
  -32.3260  -19.3580   21.1410 C   0  0  0  0  0  1  0  0  0  0  0  0
  -30.2930  -20.6460   21.2380 N   0  0  0  0  0  0  0  0  0  0  0  0
  -30.8450  -17.2240   18.4200 C   0  0  0  0  0  1  0  0  0  0  0  0
  -30.7480  -17.0610   19.9570 C   0  0  0  0  0  3  0  0  0  0  0  0
  -30.8780  -14.5860   20.0320 C   0  0  0  0  0  0  0  0  0  0  0  0
  -30.4580  -12.4440   18.9220 C   0  0  0  0  0  2  0  0  0  0  0  0
  -29.4590  -12.6610   17.7700 C   0  0  0  0  0  2  0  0  0  0  0  0
  -28.0140  -12.5170   18.2830 C   0  0  0  0  0  2  0  0  0  0  0  0
  -27.7410  -13.3420   19.5700 C   0  0  0  0  0  3  0  0  0  0  0  0
  -28.8660  -13.1640   20.6170 C   0  0  0  0  0  2  0  0  0  0  0  0
  -30.1500  -13.4410   19.9590 N   0  0  0  0  0  0  0  0  0  0  0  0
  -32.0340  -14.6550   19.6100 O   0  0  0  0  0  0  0  0  0  0  0  0
  -30.2110  -15.7250   20.3170 N   0  0  0  0  0  0  0  0  0  0  0  0
  -29.2600  -15.6530   20.6410 H   0  0  0  0  0  0  0  0  0  0  0  0
  -25.3820  -13.8960   20.4420 C   0  0  0  0  0  0  0  0  0  0  0  0
  -24.3500  -13.1090   20.8650 C   0  0  0  0  0  0  0  0  0  0  0  0
  -24.8160  -11.7640   20.7600 C   0  0  0  0  0  0  0  0  0  0  0  0
  -26.4240  -13.0370   20.1270 N   0  0  0  0  0  0  0  0  0  0  0  0
  -26.0860  -11.7440   20.3720 N   0  0  0  0  0  0  0  0  0  0  0  0
  -24.1060  -10.4950   20.9460 C   0  0  0  0  0  0  0  0  0  0  0  0
  -24.5430   -9.5350   21.8840 C   0  0  0  0  0  3  0  0  0  0  0  0
  -23.8300   -8.3310   22.0600 C   0  0  0  0  0  3  0  0  0  0  0  0
  -22.6660   -8.0780   21.2950 C   0  0  0  0  0  0  0  0  0  0  0  0
  -22.2480   -9.0260   20.3460 C   0  0  0  0  0  3  0  0  0  0  0  0
  -22.9620  -10.2230   20.1680 C   0  0  0  0  0  3  0  0  0  0  0  0
  -21.9240   -6.9250   21.3820 O   0  0  0  0  0  0  0  0  0  0  0  0
  -21.8060   -6.2320   22.5600 C   0  0  0  0  0  0  0  0  0  0  0  0
  -21.2310   -6.8120   23.7110 C   0  0  0  0  0  3  0  0  0  0  0  0
  -21.0670   -6.0430   24.8800 C   0  0  0  0  0  3  0  0  0  0  0  0
  -21.4660   -4.6930   24.8970 C   0  0  0  0  0  0  0  0  0  0  0  0
  -22.0340   -4.1120   23.7500 C   0  0  0  0  0  3  0  0  0  0  0  0
  -22.2010   -4.8790   22.5840 C   0  0  0  0  0  0  0  0  0  0  0  0
  -22.7300   -4.3080   21.4750 F   0  0  0  0  0  0  0  0  0  0  0  0
  -21.3000   -3.9520   26.0180 F   0  0  0  0  0  0  0  0  0  0  0  0
  -22.9710  -13.5740   21.2360 C   0  0  0  0  0  0  0  0  0  0  0  0
  -22.2970  -12.8450   22.1180 N   0  0  0  0  0  0  0  0  0  0  0  0
  -22.5040  -14.6180   20.7810 O   0  0  0  0  0  0  0  0  0  0  0  0
  -22.6880  -12.0010   22.5090 H   0  0  0  0  0  0  0  0  0  0  0  0
  -21.3740  -13.1380   22.4080 H   0  0  0  0  0  0  0  0  0  0  0  0
  -25.4990  -15.2650   20.2690 N   0  0  0  0  0  0  0  0  0  0  0  0
  -24.6890  -15.8670   20.3680 H   0  0  0  0  0  0  0  0  0  0  0  0
  -26.2380  -15.6840   19.7240 H   0  0  0  0  0  0  0  0  0  0  0  0
  -28.4500  -22.1000   21.2460 O   0  0  0  0  0  0  0  0  0  0  0  0
  -29.3180  -23.2070   20.9770 C   0  0  0  0  0  2  0  0  0  0  0  0
  -28.4650  -24.4940   20.7380 C   0  0  0  0  0  2  0  0  0  0  0  0
  -28.7220  -25.9450   21.2490 C   0  0  0  0  0  2  0  0  0  0  0  0
  -28.6140  -26.8990   20.1850 O   0  0  0  0  0  0  0  0  0  0  0  0
  -24.5630  -31.8730   23.2310 C   0  0  0  0  0  0  0  0  0  0  0  0
  -27.4300  -27.5900   20.1660 C   0  0  0  0  0  0  0  0  0  0  0  0
  -23.4470  -30.4690   21.5250 C   0  0  0  0  0  3  0  0  0  0  0  0
  -24.9900  -29.0010   20.1200 C   0  0  0  0  0  0  0  0  0  0  0  0
  -25.9610  -30.9130   21.4100 C   0  0  0  0  0  2  0  0  0  0  0  0
  -26.1090  -29.5570   20.7530 C   0  0  0  0  0  0  0  0  0  0  0  0
  -27.3340  -28.8590   20.7750 C   0  0  0  0  0  3  0  0  0  0  0  0
  -26.3010  -27.0370   19.5290 C   0  0  0  0  0  3  0  0  0  0  0  0
  -25.0800  -27.7380   19.5050 C   0  0  0  0  0  3  0  0  0  0  0  0
  -23.7180  -29.8180   20.1410 C   0  0  0  0  0  2  0  0  0  0  0  0
  -24.6720  -31.0970   22.1160 N   0  0  0  0  0  0  0  0  0  0  0  0
  -23.4590  -32.1030   23.7450 O   0  0  0  0  0  0  0  0  0  0  0  0
  -22.7970  -29.4120   22.4470 C   0  0  0  0  0  0  0  0  0  0  0  0
  -21.4740  -29.2290   22.3050 N   0  0  0  0  0  0  0  0  0  0  0  0
  -23.4770  -28.7620   23.2440 O   0  0  0  0  0  0  0  0  0  0  0  0
  -20.9880  -29.8030   21.6300 H   0  0  0  0  0  0  0  0  0  0  0  0
  -18.0940  -28.0490   22.7800 C   0  0  0  0  0  0  0  0  0  0  0  0
  -20.6560  -28.2630   23.0360 C   0  0  0  0  0  3  0  0  0  0  0  0
  -20.7370  -26.8630   22.3870 C   0  0  0  0  0  2  0  0  0  0  0  0
  -19.6200  -26.6030   21.3700 C   0  0  0  0  0  2  0  0  0  0  0  0
  -18.2480  -26.7330   22.0360 C   0  0  0  0  0  2  0  0  0  0  0  0
  -19.2250  -28.7750   23.2360 C   0  0  0  0  0  0  0  0  0  0  0  0
  -19.0290  -30.0100   23.8890 C   0  0  0  0  0  3  0  0  0  0  0  0
  -17.7340  -30.5190   24.0950 C   0  0  0  0  0  3  0  0  0  0  0  0
  -16.6150  -29.7870   23.6580 C   0  0  0  0  0  3  0  0  0  0  0  0
  -16.7960  -28.5550   23.0050 C   0  0  0  0  0  3  0  0  0  0  0  0
  -25.8140  -32.5250   23.9020 C   0  0  0  0  0  3  0  0  0  0  0  0
  -25.4730  -33.9180   24.2160 N   0  0  0  0  0  0  0  0  0  0  0  0
  -25.8010  -34.9710   23.4580 C   0  0  0  0  0  0  0  0  0  0  0  0
  -26.4960  -34.8730   22.4420 O   0  0  0  0  0  0  0  0  0  0  0  0
  -24.8600  -34.0670   25.0050 H   0  0  0  0  0  0  0  0  0  0  0  0
  -24.0490  -36.7260   23.0480 C   0  0  0  0  0  1  0  0  0  0  0  0
  -25.2760  -36.3520   23.8930 C   0  0  0  0  0  3  0  0  0  0  0  0
  -27.3650  -37.2890   24.7800 C   0  0  0  0  0  1  0  0  0  0  0  0
  -26.2910  -37.4240   23.7990 N   0  0  0  0  0  0  0  0  0  0  0  0
  -25.8620  -38.3380   23.9230 H   0  0  0  0  0  0  0  0  0  0  0  0
  -26.2960  -31.7610   25.1950 C   0  0  1  0  0  0  0  0  0  0  0  0
  -25.1660  -31.5000   26.2170 C   0  0  0  0  0  1  0  0  0  0  0  0
  -26.9220  -30.3980   24.8190 C   0  0  0  0  0  1  0  0  0  0  0  0
  -27.4040  -32.5780   25.9030 C   0  0  0  0  0  1  0  0  0  0  0  0
  1  5  1  0
  2  3  1  0
  2  1  2  0
  3  4  2  0
  4  7  1  0
  4  8  1  0
  5  8  2  0
  5 49  1  0
  6  2  1  0
 10  9  1  0
 10 19  1  0
 10  3  1  0
 11 19  1  0
 12 17  1  0
 13 14  1  0
 13 12  1  0
 15 14  1  0
 15 24  1  0
 15 16  1  0
 17 11  1  0
 17 16  1  0
 18 11  2  0
 19 20  1  0
 21 22  2  0
 22 41  1  0
 23 22  1  0
 23 26  1  0
 24 25  1  0
 24 21  1  0
 25 23  2  0
 26 27  1  0
 27 28  2  0
 29 32  1  0
 29 28  1  0
 30 29  2  0
 31 30  1  0
 31 26  2  0
 32 33  1  0
 33 38  2  0
 33 34  1  0
 34 35  2  0
 35 36  1  0
 36 40  1  0
 37 36  2  0
 38 37  1  0
 39 38  1  0
 41 42  1  0
 42 45  1  0
 42 44  1  0
 43 41  2  0
 46 47  1  0
 46 21  1  0
 48 46  1  0
 50 49  1  0
 51 50  1  0
 51 52  1  0
 53 52  1  0
 54 65  2  0
 55 53  1  0
 55 60  1  0
 56 64  1  0
 56 66  1  0
 57 63  1  0
 57 59  1  0
 58 64  1  0
 59 60  2  0
 59 58  1  0
 61 55  2  0
 62 61  1  0
 62 57  2  0
 63 56  1  0
 64 54  1  0
 66 68  2  0
 67 66  1  0
 69 67  1  0
 70 79  2  0
 70 75  1  0
 71 67  1  0
 71 75  1  0
 72 71  1  0
 73 74  1  0
 73 72  1  0
 74 70  1  0
 75 76  2  0
 76 77  1  0
 78 77  2  0
 79 78  1  0
 80 54  1  0
 80 81  1  0
 80 90  1  0
 81 84  1  0
 82 86  1  0
 82 81  1  0
 83 82  2  0
 86 85  1  0
 88 86  1  0
 88 89  1  0
 88 87  1  0
 90 93  1  1
 90 91  1  0
 92 90  1  0
M  ISO  4  11 100  19 100  52 101  53 101
M  END
>  <TORSDO>  (59) 
F 21

>  <SCORE>  (59) 
-13.569

>  <name>  (59) 
59

>  <ligand_id>  (59) 
59

>  <original_smiles>  (59) 
[H]c1c([H])c([H])c2c(c1[H])C([H])([H])C([H])([H])C([H])([H])C2([H])N([H])C(=O)C1([H])N(C(=O)C([H])(N([H])C(=O)C([H])(N([H])C([H])([H])[H])C([H])([H])[H])C(C([H])([H])[H])(C([H])([H])[H])C([H])([H])[H])C([H])([H])c2c([H])c(OC([H])([H])C([H])([H])C([H])([H])Oc3nc(C([H])([H])[H])c(C([H])(N([H])C(=O)N4C([H])([H])C([H])([H])C([H])([H])C([H])(n5nc(-c6c([H])c([H])c(Oc7c([H])c([H])c(F)c([H])c7F)c([H])c6[H])c(C(=O)N([H])[H])c5N([H])[H])C4([H])[H])C([H])([H])[H])c(C([H])([H])[H])c3[H])c([H])c([H])c2C1([H])[H]

>  <smiles>  (59) 
[H]c1c([H])c([H])c2c(c1[H])C([H])([H])C([H])([H])C([H])([H])C2([H])N([H])C(=O)C1([H])N(C(=O)C([H])(N([H])C(=O)C([H])(N([H])C([H])([H])[H])C([H])([H])[H])C(C([H])([H])[H])(C([H])([H])[H])C([H])([H])[H])C([H])([H])c2c([H])c(OC([H])([H])C([H])([H])C([H])([H])Oc3nc(C([H])([H])[H])c(C([H])(N([H])C(=O)N4C([H])([H])C([H])([H])C([H])([H])C([H])(n5nc(-c6c([H])c([H])c(Oc7c([H])c([H])c(F)c([H])c7F)c([H])c6[H])c(C(=O)N([H])[H])c5N([H])[H])C4([H])[H])C([H])([H])[H])c(C([H])([H])[H])c3[H])c([H])c([H])c2C1([H])[H]

$$$$
60:0:0
     RDKit          3D

 97107  0  0  1  0  0  0  0  0999 V2000
  -31.6500  -22.5380   22.6310 C   0  0  0  0  0  3  0  0  0  0  0  0
  -31.2640  -20.1570   22.4900 C   0  0  0  0  0  0  0  0  0  0  0  0
  -30.3210  -20.3230   21.4090 C   0  0  0  0  0  0  0  0  0  0  0  0
  -32.0650  -21.2420   22.9110 C   0  0  0  0  0  0  0  0  0  0  0  0
  -30.4690  -22.7470   21.9160 C   0  0  0  0  0  0  0  0  0  0  0  0
  -29.8780  -21.7060   21.1380 C   0  0  0  0  0  0  0  0  0  0  0  0
  -33.2940  -21.0660   23.7930 C   0  0  0  0  0  1  0  0  0  0  0  0
  -29.8120  -24.0870   22.1840 C   0  0  0  0  0  1  0  0  0  0  0  0
  -31.1020  -15.4350   20.0270 C   0  0  0  0  0  0  0  0  0  0  0  0
  -30.9870  -13.0820   19.2360 C   0  0  0  0  0  2  0  0  0  0  0  0
  -30.0390  -13.0110   18.0220 C   0  0  0  0  0  2  0  0  0  0  0  0
  -28.5830  -12.8140   18.4850 C   0  0  0  0  0  2  0  0  0  0  0  0
  -28.1750  -13.7930   19.6190 C   0  0  0  0  0  3  0  0  0  0  0  0
  -29.2450  -13.8590   20.7300 C   0  0  0  0  0  2  0  0  0  0  0  0
  -30.5210  -14.1950   20.0880 N   0  0  0  0  0  0  0  0  0  0  0  0
  -32.2810  -15.5560   19.6760 O   0  0  0  0  0  0  0  0  0  0  0  0
  -30.1650  -18.8760   19.1880 C   0  0  0  0  0  2  0  0  0  0  0  0
  -30.0490  -17.3590   18.8420 C   0  0  0  0  0  2  0  0  0  0  0  0
  -30.3640  -17.5750   21.1140 C   0  0  0  0  0  2  0  0  0  0  0  0
  -29.8140  -19.0020   20.6670 C   0  0  0  0  0  3  0  0  0  0  0  0
  -30.2740  -16.5450   20.0540 N   0  0  0  0  0  0  0  0  0  0  0  0
  -25.8240  -14.3480   20.4870 C   0  0  0  0  0  0  0  0  0  0  0  0
  -24.7710  -13.5560   20.8560 C   0  0  0  0  0  0  0  0  0  0  0  0
  -25.2260  -12.2090   20.7250 C   0  0  0  0  0  0  0  0  0  0  0  0
  -26.8530  -13.4820   20.1520 N   0  0  0  0  0  0  0  0  0  0  0  0
  -26.5020  -12.1860   20.3590 N   0  0  0  0  0  0  0  0  0  0  0  0
  -24.5030  -10.9370   20.8730 C   0  0  0  0  0  0  0  0  0  0  0  0
  -24.8790   -9.9800   21.8430 C   0  0  0  0  0  3  0  0  0  0  0  0
  -24.1530   -8.7760   21.9770 C   0  0  0  0  0  3  0  0  0  0  0  0
  -23.0410   -8.5210   21.1410 C   0  0  0  0  0  0  0  0  0  0  0  0
  -22.6860   -9.4660   20.1620 C   0  0  0  0  0  3  0  0  0  0  0  0
  -23.4120  -10.6620   20.0250 C   0  0  0  0  0  3  0  0  0  0  0  0
  -22.2940   -7.3680   21.1820 O   0  0  0  0  0  0  0  0  0  0  0  0
  -22.0250   -6.7270   22.3650 C   0  0  0  0  0  0  0  0  0  0  0  0
  -21.3170   -7.3600   23.4110 C   0  0  0  0  0  3  0  0  0  0  0  0
  -20.9980   -6.6430   24.5810 C   0  0  0  0  0  3  0  0  0  0  0  0
  -21.3790   -5.2930   24.7050 C   0  0  0  0  0  0  0  0  0  0  0  0
  -22.0790   -4.6600   23.6640 C   0  0  0  0  0  3  0  0  0  0  0  0
  -22.3970   -5.3730   22.4960 C   0  0  0  0  0  0  0  0  0  0  0  0
  -23.0530   -4.7510   21.4850 F   0  0  0  0  0  0  0  0  0  0  0  0
  -21.0670   -4.6020   25.8270 F   0  0  0  0  0  0  0  0  0  0  0  0
  -23.3890  -14.0190   21.2160 C   0  0  0  0  0  0  0  0  0  0  0  0
  -22.7120  -13.2980   22.1030 N   0  0  0  0  0  0  0  0  0  0  0  0
  -22.9190  -15.0530   20.7440 O   0  0  0  0  0  0  0  0  0  0  0  0
  -23.1070  -12.4610   22.5060 H   0  0  0  0  0  0  0  0  0  0  0  0
  -21.7880  -13.5900   22.3870 H   0  0  0  0  0  0  0  0  0  0  0  0
  -25.9900  -15.7270   20.3860 N   0  0  0  0  0  0  0  0  0  0  0  0
  -25.2400  -16.3820   20.5780 H   0  0  0  0  0  0  0  0  0  0  0  0
  -26.8420  -16.1780   20.0790 H   0  0  0  0  0  0  0  0  0  0  0  0
  -30.1640  -18.4290   24.1720 C   0  0  0  0  0  2  0  0  0  0  0  0
  -31.3020  -19.0900   24.8850 C   0  0  0  0  0  2  0  0  0  0  0  0
  -31.3580  -18.9290   23.3730 C   0  0  0  0  0  3  0  0  0  0  0  0
  -28.8070  -22.0940   20.3090 O   0  0  0  0  0  0  0  0  0  0  0  0
  -29.0120  -22.9650   19.1230 C   0  0  0  0  0  2  0  0  0  0  0  0
  -28.9730  -24.5790   18.9910 C   0  0  0  0  0  3  0  0  0  0  0  0
  -27.6590  -25.4620   19.1190 C   0  0  0  0  0  3  0  0  0  0  0  0
  -27.8220  -26.9430   19.1110 O   0  0  0  0  0  0  0  0  0  0  0  0
  -24.4450  -31.8320   23.2310 C   0  0  0  0  0  0  0  0  0  0  0  0
  -26.6930  -27.7550   19.3190 C   0  0  0  0  0  0  0  0  0  0  0  0
  -23.0600  -30.6320   21.5790 C   0  0  0  0  0  3  0  0  0  0  0  0
  -24.3350  -29.3080   19.8040 C   0  0  0  0  0  0  0  0  0  0  0  0
  -25.5570  -31.0230   21.1370 C   0  0  0  0  0  2  0  0  0  0  0  0
  -25.5660  -29.7420   20.3110 C   0  0  0  0  0  0  0  0  0  0  0  0
  -26.7470  -28.9800   20.0560 C   0  0  0  0  0  3  0  0  0  0  0  0
  -25.4310  -27.3770   18.8040 C   0  0  0  0  0  3  0  0  0  0  0  0
  -24.2690  -28.1330   19.0420 C   0  0  0  0  0  3  0  0  0  0  0  0
  -23.1090  -30.1440   20.1080 C   0  0  0  0  0  2  0  0  0  0  0  0
  -24.3800  -31.1720   22.0380 N   0  0  0  0  0  0  0  0  0  0  0  0
  -23.4340  -32.0170   23.9230 O   0  0  0  0  0  0  0  0  0  0  0  0
  -22.5230  -29.4870   22.4700 C   0  0  0  0  0  0  0  0  0  0  0  0
  -21.2200  -29.1820   22.3430 N   0  0  0  0  0  0  0  0  0  0  0  0
  -23.2760  -28.8790   23.2360 O   0  0  0  0  0  0  0  0  0  0  0  0
  -20.6650  -29.7300   21.7020 H   0  0  0  0  0  0  0  0  0  0  0  0
  -18.0320  -27.5030   22.6670 C   0  0  0  0  0  0  0  0  0  0  0  0
  -20.5150  -28.1130   23.0540 C   0  0  0  0  0  3  0  0  0  0  0  0
  -20.8430  -26.7300   22.4460 C   0  0  0  0  0  2  0  0  0  0  0  0
  -19.8380  -26.2870   21.3770 C   0  0  0  0  0  2  0  0  0  0  0  0
  -18.4260  -26.2140   21.9650 C   0  0  0  0  0  2  0  0  0  0  0  0
  -19.0130  -28.4020   23.1650 C   0  0  0  0  0  0  0  0  0  0  0  0
  -18.5920  -29.6010   23.7800 C   0  0  0  0  0  3  0  0  0  0  0  0
  -17.2240  -29.9060   23.9020 C   0  0  0  0  0  3  0  0  0  0  0  0
  -16.2570  -29.0060   23.4210 C   0  0  0  0  0  3  0  0  0  0  0  0
  -16.6620  -27.8060   22.8090 C   0  0  0  0  0  3  0  0  0  0  0  0
  -25.7910  -32.4060   23.7740 C   0  0  0  0  0  3  0  0  0  0  0  0
  -25.5580  -33.8070   24.1500 N   0  0  0  0  0  0  0  0  0  0  0  0
  -25.8940  -34.8630   23.3990 C   0  0  0  0  0  0  0  0  0  0  0  0
  -26.5060  -34.7580   22.3310 O   0  0  0  0  0  0  0  0  0  0  0  0
  -25.0120  -33.9670   24.9840 H   0  0  0  0  0  0  0  0  0  0  0  0
  -24.2310  -36.7370   23.1710 C   0  0  0  0  0  1  0  0  0  0  0  0
  -25.4910  -36.2590   23.9120 C   0  0  0  0  0  3  0  0  0  0  0  0
  -27.6910  -37.0410   24.6700 C   0  0  0  0  0  1  0  0  0  0  0  0
  -26.5620  -37.2700   23.7730 N   0  0  0  0  0  0  0  0  0  0  0  0
  -26.2010  -38.2030   23.9520 H   0  0  0  0  0  0  0  0  0  0  0  0
  -26.3650  -31.5910   24.9980 C   0  0  1  0  0  0  0  0  0  0  0  0
  -25.3320  -31.3530   26.1260 C   0  0  0  0  0  1  0  0  0  0  0  0
  -26.8880  -30.2100   24.5410 C   0  0  0  0  0  1  0  0  0  0  0  0
  -27.5720  -32.3420   25.6070 C   0  0  0  0  0  1  0  0  0  0  0  0
  1  4  1  0
  2  4  2  0
  2 52  1  0
  3  2  1  0
  4  7  1  0
  5  8  1  0
  5  1  2  0
  6  3  2  0
  6  5  1  0
  9 21  1  0
  9 15  1  0
 10 15  1  0
 11 12  1  0
 11 10  1  0
 13 12  1  0
 13 25  1  0
 13 14  1  0
 15 14  1  0
 16  9  2  0
 17 20  1  0
 18 17  1  0
 18 21  1  0
 20 19  1  0
 20  3  1  0
 21 19  1  0
 22 23  2  0
 23 42  1  0
 24 23  1  0
 24 27  1  0
 25 26  1  0
 25 22  1  0
 26 24  2  0
 27 28  1  0
 28 29  2  0
 30 33  1  0
 30 29  1  0
 31 30  2  0
 32 31  1  0
 32 27  2  0
 33 34  1  0
 34 39  2  0
 34 35  1  0
 35 36  2  0
 36 37  1  0
 37 41  1  0
 38 37  2  0
 39 38  1  0
 40 39  1  0
 42 43  1  0
 43 46  1  0
 43 45  1  0
 44 42  2  0
 47 22  1  0
 47 48  1  0
 49 47  1  0
 50 51  1  0
 52 50  1  0
 52 51  1  0
 53  6  1  0
 54 53  1  0
 55 56  2  0
 55 54  1  0
 57 56  1  0
 57 59  1  0
 58 69  2  0
 59 64  1  0
 60 68  1  0
 60 70  1  0
 61 67  1  0
 61 63  1  0
 62 68  1  0
 63 62  1  0
 64 63  2  0
 65 66  1  0
 65 59  2  0
 66 61  2  0
 67 60  1  0
 68 58  1  0
 70 72  2  0
 71 70  1  0
 73 71  1  0
 74 83  2  0
 74 79  1  0
 75 71  1  0
 75 79  1  0
 76 75  1  0
 77 78  1  0
 77 76  1  0
 78 74  1  0
 79 80  2  0
 80 81  1  0
 82 81  2  0
 83 82  1  0
 84 58  1  0
 84 85  1  0
 84 94  1  0
 85 88  1  0
 86 90  1  0
 86 85  1  0
 87 86  2  0
 90 89  1  0
 92 90  1  0
 92 93  1  0
 92 91  1  0
 94 97  1  1
 94 95  1  0
 96 94  1  0
M  ISO  4   9 100  21 100  56 101  57 101
M  END
>  <TORSDO>  (60) 
F 21

>  <SCORE>  (60) 
-8.213

>  <name>  (60) 
60

>  <ligand_id>  (60) 
60

>  <original_smiles>  (60) 
[H]c1c([H])c([H])c2c(c1[H])C([H])([H])C([H])([H])C([H])([H])C2([H])N([H])C(=O)C1([H])N(C(=O)C([H])(N([H])C(=O)C([H])(N([H])C([H])([H])[H])C([H])([H])[H])C(C([H])([H])[H])(C([H])([H])[H])C([H])([H])[H])C([H])([H])c2c([H])c(OC([H])([H])C([H])([H])C([H])([H])Oc3c(C([H])([H])[H])c([H])c(C([H])([H])[H])c(C4([H])C([H])([H])C4([H])[H])c3C3([H])C([H])([H])N(C(=O)N4C([H])([H])C([H])([H])C([H])([H])C([H])(n5nc(-c6c([H])c([H])c(Oc7c([H])c([H])c(F)c([H])c7F)c([H])c6[H])c(C(=O)N([H])[H])c5N([H])[H])C4([H])[H])C([H])([H])C3([H])[H])c([H])c([H])c2C1([H])[H]

>  <smiles>  (60) 
[H]c1c([H])c([H])c2c(c1[H])C([H])([H])C([H])([H])C([H])([H])C2([H])N([H])C(=O)C1([H])N(C(=O)C([H])(N([H])C(=O)C([H])(N([H])C([H])([H])[H])C([H])([H])[H])C(C([H])([H])[H])(C([H])([H])[H])C([H])([H])[H])C([H])([H])c2c([H])c(OC([H])([H])C([H])([H])C([H])([H])Oc3c(C([H])([H])[H])c([H])c(C([H])([H])[H])c(C4([H])C([H])([H])C4([H])[H])c3C3([H])C([H])([H])N(C(=O)N4C([H])([H])C([H])([H])C([H])([H])C([H])(n5nc(-c6c([H])c([H])c(Oc7c([H])c([H])c(F)c([H])c7F)c([H])c6[H])c(C(=O)N([H])[H])c5N([H])[H])C4([H])[H])C([H])([H])C3([H])[H])c([H])c([H])c2C1([H])[H]

$$$$
61:0:0
     RDKit          3D

 93101  0  0  1  0  0  0  0  0999 V2000
  -31.6710  -17.9040   20.9090 C   0  0  0  0  0  3  0  0  0  0  0  0
  -31.1780  -20.2940   20.6850 C   0  0  0  0  0  3  0  0  0  0  0  0
  -30.3410  -17.5370   20.6100 C   0  0  0  0  0  0  0  0  0  0  0  0
  -29.4270  -18.6360   20.3200 C   0  0  0  0  0  0  0  0  0  0  0  0
  -32.0920  -19.2490   20.9710 C   0  0  0  0  0  0  0  0  0  0  0  0
  -29.8290  -20.0350   20.3640 C   0  0  0  0  0  0  0  0  0  0  0  0
  -27.9780  -18.3180   20.0000 C   0  0  0  0  0  1  0  0  0  0  0  0
  -30.0140  -15.7850   22.3890 C   0  0  0  0  0  1  0  0  0  0  0  0
  -29.9160  -16.0120   20.8640 C   0  0  0  0  0  3  0  0  0  0  0  0
  -30.6310  -14.7710   20.1190 C   0  0  0  0  0  0  0  0  0  0  0  0
  -30.3630  -12.5770   18.9240 C   0  0  0  0  0  2  0  0  0  0  0  0
  -29.3440  -12.7230   17.7710 C   0  0  0  0  0  2  0  0  0  0  0  0
  -27.9020  -12.5230   18.2780 C   0  0  0  0  0  2  0  0  0  0  0  0
  -27.6100  -13.3420   19.5600 C   0  0  0  0  0  3  0  0  0  0  0  0
  -28.7300  -13.1550   20.6040 C   0  0  0  0  0  2  0  0  0  0  0  0
  -30.0020  -13.5510   19.9800 N   0  0  0  0  0  0  0  0  0  0  0  0
  -31.7400  -14.9340   19.6020 O   0  0  0  0  0  0  0  0  0  0  0  0
  -25.2620  -13.9060   20.4350 C   0  0  0  0  0  0  0  0  0  0  0  0
  -24.2230  -13.1160   20.8460 C   0  0  0  0  0  0  0  0  0  0  0  0
  -24.6910  -11.7700   20.7580 C   0  0  0  0  0  0  0  0  0  0  0  0
  -26.2950  -13.0380   20.1160 N   0  0  0  0  0  0  0  0  0  0  0  0
  -25.9610  -11.7470   20.3730 N   0  0  0  0  0  0  0  0  0  0  0  0
  -23.9850  -10.4980   20.9580 C   0  0  0  0  0  0  0  0  0  0  0  0
  -24.4480   -9.5310   21.8780 C   0  0  0  0  0  3  0  0  0  0  0  0
  -23.7400   -8.3250   22.0640 C   0  0  0  0  0  3  0  0  0  0  0  0
  -22.5560   -8.0760   21.3320 C   0  0  0  0  0  0  0  0  0  0  0  0
  -22.1110   -9.0300   20.4000 C   0  0  0  0  0  3  0  0  0  0  0  0
  -22.8200  -10.2290   20.2110 C   0  0  0  0  0  3  0  0  0  0  0  0
  -21.8160   -6.9210   21.4300 O   0  0  0  0  0  0  0  0  0  0  0  0
  -21.7630   -6.1980   22.5950 C   0  0  0  0  0  0  0  0  0  0  0  0
  -21.3150   -6.7680   23.8060 C   0  0  0  0  0  3  0  0  0  0  0  0
  -21.2100   -5.9700   24.9630 C   0  0  0  0  0  3  0  0  0  0  0  0
  -21.5430   -4.6040   24.9100 C   0  0  0  0  0  0  0  0  0  0  0  0
  -21.9830   -4.0330   23.7030 C   0  0  0  0  0  3  0  0  0  0  0  0
  -22.0900   -4.8270   22.5480 C   0  0  0  0  0  0  0  0  0  0  0  0
  -22.4950   -4.2680   21.3830 F   0  0  0  0  0  0  0  0  0  0  0  0
  -21.4330   -3.8340   26.0180 F   0  0  0  0  0  0  0  0  0  0  0  0
  -22.8390  -13.5770   21.2070 C   0  0  0  0  0  0  0  0  0  0  0  0
  -22.1660  -12.8540   22.0950 N   0  0  0  0  0  0  0  0  0  0  0  0
  -22.3680  -14.6110   20.7360 O   0  0  0  0  0  0  0  0  0  0  0  0
  -22.5640  -12.0190   22.4960 H   0  0  0  0  0  0  0  0  0  0  0  0
  -21.2410  -13.1430   22.3790 H   0  0  0  0  0  0  0  0  0  0  0  0
  -25.4100  -15.2810   20.2820 N   0  0  0  0  0  0  0  0  0  0  0  0
  -24.6490  -15.9280   20.4560 H   0  0  0  0  0  0  0  0  0  0  0  0
  -26.2330  -15.7290   19.9030 H   0  0  0  0  0  0  0  0  0  0  0  0
  -33.4010  -19.4610   21.3440 O   0  0  0  0  0  0  0  0  0  0  0  0
  -35.1370  -20.6840   22.4510 C   0  0  0  0  0  1  0  0  0  0  0  0
  -33.7740  -20.7690   21.7630 C   0  0  0  0  0  2  0  0  0  0  0  0
  -28.9630  -21.1190   20.0480 O   0  0  0  0  0  0  0  0  0  0  0  0
  -28.9970  -22.4350   20.7490 C   0  0  0  0  0  3  0  0  0  0  0  0
  -28.7610  -23.8120   19.9390 C   0  0  0  0  0  3  0  0  0  0  0  0
  -28.3330  -25.1360   20.7530 C   0  0  0  0  0  2  0  0  0  0  0  0
  -28.4420  -26.5110   20.1800 O   0  0  0  0  0  0  0  0  0  0  0  0
  -24.6220  -31.8800   23.1970 C   0  0  0  0  0  0  0  0  0  0  0  0
  -27.3130  -27.3460   20.1740 C   0  0  0  0  0  0  0  0  0  0  0  0
  -23.4490  -30.4710   21.5420 C   0  0  0  0  0  3  0  0  0  0  0  0
  -24.9320  -28.9340   20.1310 C   0  0  0  0  0  0  0  0  0  0  0  0
  -25.9860  -30.8220   21.3790 C   0  0  0  0  0  2  0  0  0  0  0  0
  -26.0910  -29.4430   20.7310 C   0  0  0  0  0  0  0  0  0  0  0  0
  -27.2890  -28.6650   20.7320 C   0  0  0  0  0  3  0  0  0  0  0  0
  -26.1310  -26.8840   19.5620 C   0  0  0  0  0  3  0  0  0  0  0  0
  -24.9540  -27.6620   19.5350 C   0  0  0  0  0  3  0  0  0  0  0  0
  -23.6840  -29.7980   20.1630 C   0  0  0  0  0  2  0  0  0  0  0  0
  -24.7040  -31.0740   22.0960 N   0  0  0  0  0  0  0  0  0  0  0  0
  -23.5300  -32.1440   23.7200 O   0  0  0  0  0  0  0  0  0  0  0  0
  -22.7880  -29.4460   22.4930 C   0  0  0  0  0  0  0  0  0  0  0  0
  -21.4610  -29.2760   22.3740 N   0  0  0  0  0  0  0  0  0  0  0  0
  -23.4710  -28.8060   23.2990 O   0  0  0  0  0  0  0  0  0  0  0  0
  -20.9710  -29.8470   21.7000 H   0  0  0  0  0  0  0  0  0  0  0  0
  -18.0770  -28.1100   22.9000 C   0  0  0  0  0  0  0  0  0  0  0  0
  -20.6420  -28.3320   23.1370 C   0  0  0  0  0  3  0  0  0  0  0  0
  -20.7160  -26.9110   22.5290 C   0  0  0  0  0  2  0  0  0  0  0  0
  -19.5940  -26.6240   21.5250 C   0  0  0  0  0  2  0  0  0  0  0  0
  -18.2250  -26.7730   22.1940 C   0  0  0  0  0  2  0  0  0  0  0  0
  -19.2110  -28.8500   23.3280 C   0  0  0  0  0  0  0  0  0  0  0  0
  -19.0170  -30.1020   23.9500 C   0  0  0  0  0  3  0  0  0  0  0  0
  -17.7220  -30.6140   24.1490 C   0  0  0  0  0  3  0  0  0  0  0  0
  -16.6020  -29.8710   23.7380 C   0  0  0  0  0  3  0  0  0  0  0  0
  -16.7800  -28.6220   23.1190 C   0  0  0  0  0  3  0  0  0  0  0  0
  -25.8900  -32.5260   23.8340 C   0  0  0  0  0  3  0  0  0  0  0  0
  -25.5620  -33.9190   24.1640 N   0  0  0  0  0  0  0  0  0  0  0  0
  -25.8890  -34.9790   23.4130 C   0  0  0  0  0  0  0  0  0  0  0  0
  -26.5680  -34.8860   22.3850 O   0  0  0  0  0  0  0  0  0  0  0  0
  -24.9620  -34.0650   24.9630 H   0  0  0  0  0  0  0  0  0  0  0  0
  -24.1440  -36.7570   23.0540 C   0  0  0  0  0  1  0  0  0  0  0  0
  -25.3850  -36.3620   23.8700 C   0  0  0  0  0  3  0  0  0  0  0  0
  -27.5030  -37.2680   24.7200 C   0  0  0  0  0  1  0  0  0  0  0  0
  -26.4070  -37.4250   23.7680 N   0  0  0  0  0  0  0  0  0  0  0  0
  -25.9900  -38.3400   23.9180 H   0  0  0  0  0  0  0  0  0  0  0  0
  -26.4020  -31.7580   25.1140 C   0  0  1  0  0  0  0  0  0  0  0  0
  -25.3010  -31.5050   26.1720 C   0  0  0  0  0  1  0  0  0  0  0  0
  -27.0060  -30.3890   24.7270 C   0  0  0  0  0  1  0  0  0  0  0  0
  -27.5380  -32.5650   25.7900 C   0  0  0  0  0  1  0  0  0  0  0  0
  1  5  1  0
  2  5  2  0
  3  9  1  0
  3  1  2  0
  4  6  2  0
  4  3  1  0
  5 46  1  0
  6  2  1  0
  7  4  1  0
  9  8  1  0
 10  9  1  0
 11 16  1  0
 12 13  1  0
 12 11  1  0
 14 13  1  0
 14 21  1  0
 14 15  1  0
 16 10  1  0
 16 15  1  0
 17 10  2  0
 18 19  2  0
 19 38  1  0
 20 19  1  0
 20 23  1  0
 21 22  1  0
 21 18  1  0
 22 20  2  0
 23 24  1  0
 24 25  2  0
 26 29  1  0
 26 25  1  0
 27 26  2  0
 28 27  1  0
 28 23  2  0
 29 30  1  0
 30 31  1  0
 31 32  2  0
 33 32  1  0
 33 37  1  0
 34 33  2  0
 35 30  2  0
 35 34  1  0
 36 35  1  0
 38 39  1  0
 39 42  1  0
 39 41  1  0
 40 38  2  0
 43 18  1  0
 43 44  1  0
 45 43  1  0
 46 48  1  0
 48 47  1  0
 49  6  1  0
 49 50  1  0
 51 50  2  0
 51 52  1  0
 53 52  1  0
 54 65  2  0
 55 53  1  0
 55 60  1  0
 56 64  1  0
 56 66  1  0
 57 63  1  0
 57 59  1  0
 58 64  1  0
 59 60  2  0
 59 58  1  0
 61 55  2  0
 62 61  1  0
 62 57  2  0
 63 56  1  0
 64 54  1  0
 66 68  2  0
 67 66  1  0
 69 67  1  0
 70 79  2  0
 70 75  1  0
 71 67  1  0
 71 75  1  0
 72 71  1  0
 73 74  1  0
 73 72  1  0
 74 70  1  0
 75 76  2  0
 76 77  1  0
 78 77  2  0
 79 78  1  0
 80 54  1  0
 80 81  1  0
 80 90  1  0
 81 84  1  0
 82 86  1  0
 82 81  1  0
 83 82  2  0
 86 85  1  0
 88 86  1  0
 88 89  1  0
 88 87  1  0
 90 93  1  1
 90 91  1  0
 92 90  1  0
M  ISO  4   9 100  10 100  52 101  53 101
M  END
>  <TORSDO>  (61) 
F 23

>  <SCORE>  (61) 
-12.497

>  <name>  (61) 
61

>  <ligand_id>  (61) 
61

>  <original_smiles>  (61) 
[H]c1c([H])c([H])c2c(c1[H])C([H])([H])C([H])([H])C([H])([H])C2([H])N([H])C(=O)C1([H])N(C(=O)C([H])(N([H])C(=O)C([H])(N([H])C([H])([H])[H])C([H])([H])[H])C(C([H])([H])[H])(C([H])([H])[H])C([H])([H])[H])C([H])([H])c2c([H])c(OC([H])([H])C([H])([H])C([H])([H])Oc3c([H])c(OC([H])([H])C([H])([H])[H])c([H])c(C([H])(C(=O)N4C([H])([H])C([H])([H])C([H])([H])C([H])(n5nc(-c6c([H])c([H])c(Oc7c([H])c([H])c(F)c([H])c7F)c([H])c6[H])c(C(=O)N([H])[H])c5N([H])[H])C4([H])[H])C([H])([H])[H])c3C([H])([H])[H])c([H])c([H])c2C1([H])[H]

>  <smiles>  (61) 
[H]c1c([H])c([H])c2c(c1[H])C([H])([H])C([H])([H])C([H])([H])C2([H])N([H])C(=O)C1([H])N(C(=O)C([H])(N([H])C(=O)C([H])(N([H])C([H])([H])[H])C([H])([H])[H])C(C([H])([H])[H])(C([H])([H])[H])C([H])([H])[H])C([H])([H])c2c([H])c(OC([H])([H])C([H])([H])C([H])([H])Oc3c([H])c(OC([H])([H])C([H])([H])[H])c([H])c(C([H])(C(=O)N4C([H])([H])C([H])([H])C([H])([H])C([H])(n5nc(-c6c([H])c([H])c(Oc7c([H])c([H])c(F)c([H])c7F)c([H])c6[H])c(C(=O)N([H])[H])c5N([H])[H])C4([H])[H])C([H])([H])[H])c3C([H])([H])[H])c([H])c([H])c2C1([H])[H]

$$$$
62:0:0
     RDKit          3D

 98107  0  0  1  0  0  0  0  0999 V2000
  -29.7570  -22.2220   20.2940 C   0  0  0  0  0  3  0  0  0  0  0  0
  -28.0590  -21.0720   21.2770 C   0  0  0  0  0  3  0  0  0  0  0  0
  -29.3180  -20.9480   20.7590 C   0  0  0  0  0  0  0  0  0  0  0  0
  -28.7380  -23.0930   20.5680 C   0  0  0  0  0  0  0  0  0  0  0  0
  -27.6870  -22.4040   21.1610 N   0  0  0  0  0  0  0  0  0  0  0  0
  -30.0880  -19.7750   20.7030 N   0  0  0  0  0  0  0  0  0  0  0  0
  -30.9250  -19.7710   20.1260 H   0  0  0  0  0  0  0  0  0  0  0  0
  -29.5480  -18.4840   21.1280 C   0  0  0  0  0  2  0  0  0  0  0  0
  -30.6800  -17.4540   21.3150 C   0  0  0  0  0  2  0  0  0  0  0  0
  -30.9380  -15.0110   21.0430 C   0  0  0  0  0  0  0  0  0  0  0  0
  -30.7720  -12.7630   20.0510 C   0  0  0  0  0  2  0  0  0  0  0  0
  -29.9940  -12.8510   18.7240 C   0  0  0  0  0  2  0  0  0  0  0  0
  -28.4790  -12.7240   18.9800 C   0  0  0  0  0  2  0  0  0  0  0  0
  -27.9830  -13.6700   20.1090 C   0  0  0  0  0  3  0  0  0  0  0  0
  -28.8900  -13.5710   21.3570 C   0  0  0  0  0  2  0  0  0  0  0  0
  -30.2750  -13.8300   20.9320 N   0  0  0  0  0  0  0  0  0  0  0  0
  -32.1090  -15.1570   20.6850 O   0  0  0  0  0  0  0  0  0  0  0  0
  -30.2030  -16.0710   21.4160 N   0  0  0  0  0  0  0  0  0  0  0  0
  -29.2410  -15.9130   21.6770 H   0  0  0  0  0  0  0  0  0  0  0  0
  -25.5310  -14.3110   20.5520 C   0  0  0  0  0  0  0  0  0  0  0  0
  -24.4190  -13.5540   20.8030 C   0  0  0  0  0  0  0  0  0  0  0  0
  -24.8620  -12.1950   20.8250 C   0  0  0  0  0  0  0  0  0  0  0  0
  -26.5820  -13.4160   20.4400 N   0  0  0  0  0  0  0  0  0  0  0  0
  -26.1770  -12.1380   20.6630 N   0  0  0  0  0  0  0  0  0  0  0  0
  -24.1030  -10.9430   20.9340 C   0  0  0  0  0  0  0  0  0  0  0  0
  -24.4770   -9.9290   21.8440 C   0  0  0  0  0  3  0  0  0  0  0  0
  -23.7210   -8.7420   21.9450 C   0  0  0  0  0  3  0  0  0  0  0  0
  -22.5760   -8.5580   21.1330 C   0  0  0  0  0  0  0  0  0  0  0  0
  -22.2210   -9.5600   20.2110 C   0  0  0  0  0  3  0  0  0  0  0  0
  -22.9780  -10.7380   20.1090 C   0  0  0  0  0  3  0  0  0  0  0  0
  -21.7970   -7.4270   21.1430 O   0  0  0  0  0  0  0  0  0  0  0  0
  -21.7720   -6.5800   22.2220 C   0  0  0  0  0  0  0  0  0  0  0  0
  -21.4410   -7.0340   23.5170 C   0  0  0  0  0  3  0  0  0  0  0  0
  -21.3610   -6.1170   24.5840 C   0  0  0  0  0  3  0  0  0  0  0  0
  -21.6010   -4.7490   24.3570 C   0  0  0  0  0  0  0  0  0  0  0  0
  -21.9230   -4.2950   23.0660 C   0  0  0  0  0  3  0  0  0  0  0  0
  -22.0060   -5.2090   22.0010 C   0  0  0  0  0  0  0  0  0  0  0  0
  -22.2980   -4.7640   20.7540 F   0  0  0  0  0  0  0  0  0  0  0  0
  -21.5140   -3.8650   25.3780 F   0  0  0  0  0  0  0  0  0  0  0  0
  -23.0050  -14.0480   20.9170 C   0  0  0  0  0  0  0  0  0  0  0  0
  -22.1860  -13.3790   21.7220 N   0  0  0  0  0  0  0  0  0  0  0  0
  -22.6320  -15.0640   20.3330 O   0  0  0  0  0  0  0  0  0  0  0  0
  -22.4930  -12.5540   22.2160 H   0  0  0  0  0  0  0  0  0  0  0  0
  -21.2360  -13.6980   21.8470 H   0  0  0  0  0  0  0  0  0  0  0  0
  -25.7360  -15.6780   20.3880 N   0  0  0  0  0  0  0  0  0  0  0  0
  -24.9760  -16.3490   20.4050 H   0  0  0  0  0  0  0  0  0  0  0  0
  -26.6270  -16.0960   20.1470 H   0  0  0  0  0  0  0  0  0  0  0  0
  -28.6970  -24.4640   20.2660 N   0  0  0  0  0  0  0  0  0  0  0  0
  -27.7520  -24.8350   20.2970 H   0  0  0  0  0  0  0  0  0  0  0  0
  -29.9570  -25.0440   22.3040 C   0  0  0  0  0  1  0  0  0  0  0  0
  -30.9690  -25.4650   20.0390 C   0  0  0  0  0  1  0  0  0  0  0  0
  -29.6530  -25.4210   20.8390 C   0  0  1  0  0  0  0  0  0  0  0  0
  -29.0210  -26.8440   20.8630 C   0  0  0  0  0  2  0  0  0  0  0  0
  -28.5160  -27.2620   19.5890 O   0  0  0  0  0  0  0  0  0  0  0  0
  -24.6170  -31.9670   23.2570 C   0  0  0  0  0  0  0  0  0  0  0  0
  -27.3580  -27.9970   19.6760 C   0  0  0  0  0  0  0  0  0  0  0  0
  -23.4300  -30.7050   21.4890 C   0  0  0  0  0  3  0  0  0  0  0  0
  -24.9090  -29.3860   19.8810 C   0  0  0  0  0  0  0  0  0  0  0  0
  -25.9290  -31.1830   21.2900 C   0  0  0  0  0  2  0  0  0  0  0  0
  -26.0560  -29.8910   20.5100 C   0  0  0  0  0  0  0  0  0  0  0  0
  -27.2830  -29.2010   20.4140 C   0  0  0  0  0  3  0  0  0  0  0  0
  -26.2050  -27.5100   19.0310 C   0  0  0  0  0  3  0  0  0  0  0  0
  -24.9790  -28.1940   19.1380 C   0  0  0  0  0  3  0  0  0  0  0  0
  -23.6350  -30.1850   20.0400 C   0  0  0  0  0  2  0  0  0  0  0  0
  -24.6780  -31.2920   22.0730 N   0  0  0  0  0  0  0  0  0  0  0  0
  -23.5370  -32.1440   23.8410 O   0  0  0  0  0  0  0  0  0  0  0  0
  -22.8330  -29.5650   22.3460 C   0  0  0  0  0  0  0  0  0  0  0  0
  -21.5140  -29.3450   22.2160 N   0  0  0  0  0  0  0  0  0  0  0  0
  -23.5520  -28.8840   23.0810 O   0  0  0  0  0  0  0  0  0  0  0  0
  -20.9960  -29.9450   21.5900 H   0  0  0  0  0  0  0  0  0  0  0  0
  -18.1930  -27.9780   22.6150 C   0  0  0  0  0  0  0  0  0  0  0  0
  -20.7400  -28.3070   22.8970 C   0  0  0  0  0  3  0  0  0  0  0  0
  -20.8860  -26.9410   22.1890 C   0  0  0  0  0  2  0  0  0  0  0  0
  -19.7940  -26.6820   21.1480 C   0  0  0  0  0  2  0  0  0  0  0  0
  -18.4110  -26.7100   21.8040 C   0  0  0  0  0  2  0  0  0  0  0  0
  -19.2880  -28.7360   23.1120 C   0  0  0  0  0  0  0  0  0  0  0  0
  -19.0290  -29.9210   23.8340 C   0  0  0  0  0  3  0  0  0  0  0  0
  -17.7090  -30.3490   24.0620 C   0  0  0  0  0  3  0  0  0  0  0  0
  -16.6280  -29.5900   23.5810 C   0  0  0  0  0  3  0  0  0  0  0  0
  -16.8720  -28.4060   22.8630 C   0  0  0  0  0  3  0  0  0  0  0  0
  -25.8950  -32.5670   23.9200 C   0  0  0  0  0  3  0  0  0  0  0  0
  -25.5760  -33.9390   24.3350 N   0  0  0  0  0  0  0  0  0  0  0  0
  -25.9180  -35.0390   23.6530 C   0  0  0  0  0  0  0  0  0  0  0  0
  -26.6150  -35.0070   22.6340 O   0  0  0  0  0  0  0  0  0  0  0  0
  -24.9580  -34.0400   25.1270 H   0  0  0  0  0  0  0  0  0  0  0  0
  -24.1820  -36.8370   23.3690 C   0  0  0  0  0  1  0  0  0  0  0  0
  -25.4080  -36.3920   24.1830 C   0  0  0  0  0  3  0  0  0  0  0  0
  -27.5170  -37.2340   25.1140 C   0  0  0  0  0  1  0  0  0  0  0  0
  -26.4350  -37.4560   24.1600 N   0  0  0  0  0  0  0  0  0  0  0  0
  -26.0190  -38.3630   24.3550 H   0  0  0  0  0  0  0  0  0  0  0  0
  -26.4140  -31.7210   25.1450 C   0  0  1  0  0  0  0  0  0  0  0  0
  -25.3210  -31.4090   26.1910 C   0  0  0  0  0  1  0  0  0  0  0  0
  -27.0020  -30.3760   24.6640 C   0  0  0  0  0  1  0  0  0  0  0  0
  -27.5590  -32.4760   25.8630 C   0  0  0  0  0  1  0  0  0  0  0  0
  -26.4410  -22.9750   21.6450 C   0  0  0  0  0  2  0  0  0  0  0  0
  -24.3030  -24.1100   20.5740 C   0  0  0  0  0  2  0  0  0  0  0  0
  -25.1200  -25.1890   21.2300 C   0  0  0  0  0  2  0  0  0  0  0  0
  -25.8080  -23.9600   20.6770 C   0  0  0  0  0  3  0  0  0  0  0  0
  1  4  2  0
  1  3  1  0
  3  2  2  0
  4  5  1  0
  5  2  1  0
  5 95  1  0
  6  3  1  0
  6  8  1  0
  7  6  1  0
  8  9  1  0
  9 18  1  0
 10 18  1  0
 11 16  1  0
 12 13  1  0
 12 11  1  0
 14 13  1  0
 14 23  1  0
 14 15  1  0
 16 10  1  0
 16 15  1  0
 17 10  2  0
 18 19  1  0
 20 21  2  0
 21 22  1  0
 21 40  1  0
 22 25  1  0
 23 20  1  0
 23 24  1  0
 24 22  2  0
 25 26  1  0
 26 27  2  0
 28 31  1  0
 28 27  1  0
 29 28  2  0
 30 29  1  0
 30 25  2  0
 31 32  1  0
 32 33  1  0
 33 34  2  0
 35 34  1  0
 35 39  1  0
 36 35  2  0
 37 32  2  0
 37 36  1  0
 38 37  1  0
 40 41  1  0
 41 44  1  0
 41 43  1  0
 42 40  2  0
 45 46  1  0
 45 20  1  0
 47 45  1  0
 48 49  1  0
 48  4  1  0
 48 52  1  0
 52 51  1  6
 52 53  1  0
 52 50  1  0
 54 56  1  0
 54 53  1  0
 55 66  2  0
 56 61  1  0
 57 65  1  0
 57 67  1  0
 58 64  1  0
 58 60  1  0
 59 65  1  0
 60 59  1  0
 61 60  2  0
 62 63  1  0
 62 56  2  0
 63 58  2  0
 64 57  1  0
 65 55  1  0
 67 69  2  0
 68 67  1  0
 70 68  1  0
 71 80  2  0
 71 76  1  0
 72 68  1  0
 72 76  1  0
 73 72  1  0
 74 75  1  0
 74 73  1  0
 75 71  1  0
 76 77  2  0
 77 78  1  0
 79 78  2  0
 80 79  1  0
 81 55  1  0
 81 82  1  0
 81 91  1  0
 82 85  1  0
 83 87  1  0
 83 82  1  0
 84 83  2  0
 87 86  1  0
 89 87  1  0
 89 90  1  0
 89 88  1  0
 91 94  1  1
 91 92  1  0
 93 91  1  0
 96 98  1  0
 96 97  1  0
 98 97  1  0
 98 95  1  0
M  ISO  4  10 100  18 100  53 101  54 101
M  END
>  <TORSDO>  (62) 
F 24

>  <SCORE>  (62) 
-11.342

>  <name>  (62) 
62

>  <ligand_id>  (62) 
62

>  <original_smiles>  (62) 
[H]c1c([H])c([H])c2c(c1[H])C([H])([H])C([H])([H])C([H])([H])C2([H])N([H])C(=O)C1([H])N(C(=O)C([H])(N([H])C(=O)C([H])(N([H])C([H])([H])[H])C([H])([H])[H])C(C([H])([H])[H])(C([H])([H])[H])C([H])([H])[H])C([H])([H])c2c([H])c(OC([H])([H])C(N([H])c3c([H])c(N([H])C([H])([H])C([H])([H])N([H])C(=O)N4C([H])([H])C([H])([H])C([H])([H])C([H])(n5nc(-c6c([H])c([H])c(Oc7c([H])c([H])c(F)c([H])c7F)c([H])c6[H])c(C(=O)N([H])[H])c5N([H])[H])C4([H])[H])c([H])n3C([H])([H])C3([H])C([H])([H])C3([H])[H])(C([H])([H])[H])C([H])([H])[H])c([H])c([H])c2C1([H])[H]

>  <smiles>  (62) 
[H]c1c([H])c([H])c2c(c1[H])C([H])([H])C([H])([H])C([H])([H])C2([H])N([H])C(=O)C1([H])N(C(=O)C([H])(N([H])C(=O)C([H])(N([H])C([H])([H])[H])C([H])([H])[H])C(C([H])([H])[H])(C([H])([H])[H])C([H])([H])[H])C([H])([H])c2c([H])c(OC([H])([H])C(N([H])c3c([H])c(N([H])C([H])([H])C([H])([H])N([H])C(=O)N4C([H])([H])C([H])([H])C([H])([H])C([H])(n5nc(-c6c([H])c([H])c(Oc7c([H])c([H])c(F)c([H])c7F)c([H])c6[H])c(C(=O)N([H])[H])c5N([H])[H])C4([H])[H])c([H])n3C([H])([H])C3([H])C([H])([H])C3([H])[H])(C([H])([H])[H])C([H])([H])[H])c([H])c([H])c2C1([H])[H]

$$$$
63:0:0
     RDKit          3D

 93102  0  0  1  0  0  0  0  0999 V2000
  -28.6050  -21.8700   20.2550 C   0  0  0  0  0  2  0  0  0  0  0  0
  -30.2920  -21.9390   21.3950 C   0  0  0  0  0  2  0  0  0  0  0  0
  -29.1700  -22.9670   21.1780 C   0  0  0  0  0  3  0  0  0  0  0  0
  -29.3050  -20.8880   21.1070 N   0  0  2  0  0  4  0  0  0  0  0  0
  -28.7780  -20.6940   21.9450 H   0  0  0  0  0  0  0  0  0  0  0  0
  -30.2280  -25.1630   21.8610 C   0  0  0  0  0  1  0  0  0  0  0  0
  -29.4800  -24.4260   20.7370 C   0  0  0  0  0  3  0  0  0  0  0  0
  -28.2030  -25.2150   20.3360 C   0  0  0  0  0  2  0  0  0  0  0  0
  -28.3990  -26.6360   20.1410 O   0  0  0  0  0  0  0  0  0  0  0  0
  -24.4810  -31.7820   23.1600 C   0  0  0  0  0  0  0  0  0  0  0  0
  -27.2360  -27.3850   20.0900 C   0  0  0  0  0  0  0  0  0  0  0  0
  -23.3230  -30.3640   21.5000 C   0  0  0  0  0  3  0  0  0  0  0  0
  -24.8200  -28.8650   20.0820 C   0  0  0  0  0  0  0  0  0  0  0  0
  -25.8470  -30.7670   21.3340 C   0  0  0  0  0  2  0  0  0  0  0  0
  -25.9660  -29.4030   20.6820 C   0  0  0  0  0  0  0  0  0  0  0  0
  -27.1810  -28.6740   20.6760 C   0  0  0  0  0  3  0  0  0  0  0  0
  -26.0700  -26.8730   19.4750 C   0  0  0  0  0  3  0  0  0  0  0  0
  -24.8680  -27.6010   19.4740 C   0  0  0  0  0  3  0  0  0  0  0  0
  -23.5600  -29.6980   20.1200 C   0  0  0  0  0  2  0  0  0  0  0  0
  -24.5680  -30.9860   22.0560 N   0  0  0  0  0  0  0  0  0  0  0  0
  -23.3880  -32.0300   23.6870 O   0  0  0  0  0  0  0  0  0  0  0  0
  -22.6810  -29.3240   22.4480 C   0  0  0  0  0  0  0  0  0  0  0  0
  -21.3620  -29.1140   22.3020 N   0  0  0  0  0  0  0  0  0  0  0  0
  -23.3670  -28.7100   23.2690 O   0  0  0  0  0  0  0  0  0  0  0  0
  -20.8700  -29.6630   21.6120 H   0  0  0  0  0  0  0  0  0  0  0  0
  -18.0100  -27.8350   22.7380 C   0  0  0  0  0  0  0  0  0  0  0  0
  -20.5550  -28.1560   23.0580 C   0  0  0  0  0  3  0  0  0  0  0  0
  -20.7050  -26.7280   22.4860 C   0  0  0  0  0  2  0  0  0  0  0  0
  -19.6310  -26.3770   21.4510 C   0  0  0  0  0  2  0  0  0  0  0  0
  -18.2340  -26.4890   22.0680 C   0  0  0  0  0  2  0  0  0  0  0  0
  -19.1010  -28.6240   23.1880 C   0  0  0  0  0  0  0  0  0  0  0  0
  -18.8390  -29.8820   23.7730 C   0  0  0  0  0  3  0  0  0  0  0  0
  -17.5200  -30.3520   23.9110 C   0  0  0  0  0  3  0  0  0  0  0  0
  -16.4440  -29.5590   23.4780 C   0  0  0  0  0  3  0  0  0  0  0  0
  -16.6890  -28.3020   22.8970 C   0  0  0  0  0  3  0  0  0  0  0  0
  -25.7470  -32.4370   23.7960 C   0  0  0  0  0  3  0  0  0  0  0  0
  -26.2780  -31.6590   25.0630 C   0  0  1  0  0  0  0  0  0  0  0  0
  -25.1860  -31.3790   26.1220 C   0  0  0  0  0  1  0  0  0  0  0  0
  -26.8970  -30.3030   24.6510 C   0  0  0  0  0  1  0  0  0  0  0  0
  -27.4070  -32.4720   25.7400 C   0  0  0  0  0  1  0  0  0  0  0  0
  -25.3990  -33.8200   24.1450 N   0  0  0  0  0  0  0  0  0  0  0  0
  -25.7050  -34.8910   23.3990 C   0  0  0  0  0  0  0  0  0  0  0  0
  -26.3780  -34.8190   22.3670 O   0  0  0  0  0  0  0  0  0  0  0  0
  -24.7990  -33.9500   24.9450 H   0  0  0  0  0  0  0  0  0  0  0  0
  -23.9250  -36.6360   23.0720 C   0  0  0  0  0  1  0  0  0  0  0  0
  -25.1810  -36.2600   23.8730 C   0  0  0  0  0  3  0  0  0  0  0  0
  -27.2950  -37.1920   24.7050 C   0  0  0  0  0  1  0  0  0  0  0  0
  -26.1830  -37.3420   23.7680 N   0  0  0  0  0  0  0  0  0  0  0  0
  -25.7530  -38.2490   23.9300 H   0  0  0  0  0  0  0  0  0  0  0  0
  -29.8250  -19.6300   20.4860 C   0  0  0  0  0  2  0  0  0  0  0  0
  -30.7210  -14.5320   20.0350 C   0  0  0  0  0  0  0  0  0  0  0  0
  -30.3550  -12.3650   18.9230 C   0  0  0  0  0  2  0  0  0  0  0  0
  -29.3570  -12.5780   17.7660 C   0  0  0  0  0  2  0  0  0  0  0  0
  -27.9050  -12.4470   18.2690 C   0  0  0  0  0  2  0  0  0  0  0  0
  -27.6340  -13.2760   19.5550 C   0  0  0  0  0  3  0  0  0  0  0  0
  -28.7470  -13.0730   20.6050 C   0  0  0  0  0  2  0  0  0  0  0  0
  -30.0320  -13.3610   19.9560 N   0  0  0  0  0  0  0  0  0  0  0  0
  -31.8800  -14.6410   19.6210 O   0  0  0  0  0  0  0  0  0  0  0  0
  -28.9440  -17.4490   21.6450 C   0  0  0  0  0  2  0  0  0  0  0  0
  -30.0840  -16.4050   21.4700 C   0  0  0  0  0  2  0  0  0  0  0  0
  -29.9420  -16.5990   19.0710 C   0  0  0  0  0  2  0  0  0  0  0  0
  -28.7930  -18.4430   20.4600 C   0  0  0  0  0  3  0  0  0  0  0  0
  -28.7620  -17.5960   19.1580 C   0  0  0  0  0  3  0  0  0  0  0  0
  -28.6140  -18.4320   17.8740 C   0  0  0  0  0  1  0  0  0  0  0  0
  -29.9690  -15.6550   20.2070 N   0  0  0  0  0  0  0  0  0  0  0  0
  -25.2820  -13.8780   20.4000 C   0  0  0  0  0  0  0  0  0  0  0  0
  -24.2310  -13.1030   20.8100 C   0  0  0  0  0  0  0  0  0  0  0  0
  -24.6820  -11.7500   20.7350 C   0  0  0  0  0  0  0  0  0  0  0  0
  -26.3100  -12.9960   20.1030 N   0  0  0  0  0  0  0  0  0  0  0  0
  -25.9560  -11.7100   20.3650 N   0  0  0  0  0  0  0  0  0  0  0  0
  -23.9610  -10.4880   20.9400 C   0  0  0  0  0  0  0  0  0  0  0  0
  -24.4150   -9.5180   21.8630 C   0  0  0  0  0  3  0  0  0  0  0  0
  -23.6920   -8.3220   22.0570 C   0  0  0  0  0  3  0  0  0  0  0  0
  -22.5000   -8.0850   21.3310 C   0  0  0  0  0  0  0  0  0  0  0  0
  -22.0640   -9.0430   20.3990 C   0  0  0  0  0  3  0  0  0  0  0  0
  -22.7880  -10.2320   20.2020 C   0  0  0  0  0  3  0  0  0  0  0  0
  -21.7470   -6.9410   21.4350 O   0  0  0  0  0  0  0  0  0  0  0  0
  -21.6950   -6.2180   22.5990 C   0  0  0  0  0  0  0  0  0  0  0  0
  -21.2760   -6.7940   23.8180 C   0  0  0  0  0  3  0  0  0  0  0  0
  -21.1720   -5.9970   24.9760 C   0  0  0  0  0  3  0  0  0  0  0  0
  -21.4760   -4.6240   24.9150 C   0  0  0  0  0  0  0  0  0  0  0  0
  -21.8870   -4.0470   23.7000 C   0  0  0  0  0  3  0  0  0  0  0  0
  -21.9930   -4.8410   22.5460 C   0  0  0  0  0  0  0  0  0  0  0  0
  -22.3690   -4.2760   21.3740 F   0  0  0  0  0  0  0  0  0  0  0  0
  -21.3670   -3.8560   26.0240 F   0  0  0  0  0  0  0  0  0  0  0  0
  -22.8510  -13.5820   21.1560 C   0  0  0  0  0  0  0  0  0  0  0  0
  -22.1660  -12.8820   22.0550 N   0  0  0  0  0  0  0  0  0  0  0  0
  -22.3890  -14.6120   20.6670 O   0  0  0  0  0  0  0  0  0  0  0  0
  -22.5530  -12.0490   22.4740 H   0  0  0  0  0  0  0  0  0  0  0  0
  -21.2420  -13.1850   22.3270 H   0  0  0  0  0  0  0  0  0  0  0  0
  -25.4470  -15.2490   20.2360 N   0  0  0  0  0  0  0  0  0  0  0  0
  -24.6960  -15.9100   20.3960 H   0  0  0  0  0  0  0  0  0  0  0  0
  -26.2990  -15.6850   19.9050 H   0  0  0  0  0  0  0  0  0  0  0  0
  1  4  1  0
  1  3  1  0
  3  7  1  0
  3  2  1  0
  4  2  1  0
  4  5  1  1
  7  6  1  0
  8  7  1  0
  9  8  1  0
 10 21  2  0
 11  9  1  0
 11 16  1  0
 12 20  1  0
 12 22  1  0
 13 19  1  0
 13 15  1  0
 14 20  1  0
 15 14  1  0
 16 15  2  0
 17 11  2  0
 18 17  1  0
 18 13  2  0
 19 12  1  0
 20 10  1  0
 22 24  2  0
 23 22  1  0
 25 23  1  0
 26 35  2  0
 26 31  1  0
 27 23  1  0
 27 31  1  0
 28 27  1  0
 29 30  1  0
 29 28  1  0
 30 26  1  0
 31 32  2  0
 32 33  1  0
 34 33  2  0
 35 34  1  0
 36 10  1  0
 36 41  1  0
 36 37  1  0
 37 40  1  1
 37 38  1  0
 39 37  1  0
 41 44  1  0
 42 46  1  0
 42 41  1  0
 43 42  2  0
 46 45  1  0
 48 46  1  0
 48 49  1  0
 48 47  1  0
 50  4  1  0
 51 65  1  0
 52 57  1  0
 53 54  1  0
 53 52  1  0
 55 54  1  0
 55 69  1  0
 55 56  1  0
 57 51  1  0
 57 56  1  0
 58 51  2  0
 60 59  1  0
 61 63  1  0
 61 65  1  0
 62 50  1  0
 62 59  1  0
 63 64  1  0
 63 62  1  0
 65 60  1  0
 66 67  2  0
 67 86  1  0
 68 67  1  0
 68 71  1  0
 69 70  1  0
 69 66  1  0
 70 68  2  0
 71 72  1  0
 72 73  2  0
 74 77  1  0
 74 73  1  0
 75 74  2  0
 76 75  1  0
 76 71  2  0
 77 78  1  0
 78 79  1  0
 79 80  2  0
 81 80  1  0
 81 85  1  0
 82 81  2  0
 83 78  2  0
 83 82  1  0
 84 83  1  0
 86 87  1  0
 87 90  1  0
 87 89  1  0
 88 86  2  0
 91 92  1  0
 91 66  1  0
 93 91  1  0
M  ISO  4   8 101   9 101  51 100  65 100
M  END
>  <TORSDO>  (63) 
F 19

>  <SCORE>  (63) 
-13.677

>  <name>  (63) 
63

>  <ligand_id>  (63) 
63

>  <original_smiles>  (63) 
[H]c1c([H])c([H])c2c(c1[H])C([H])([H])C([H])([H])C([H])([H])C2([H])N([H])C(=O)C1([H])N(C(=O)C([H])(N([H])C(=O)C([H])(N([H])C([H])([H])[H])C([H])([H])[H])C(C([H])([H])[H])(C([H])([H])[H])C([H])([H])[H])C([H])([H])c2c([H])c(OC([H])([H])C([H])(C([H])([H])[H])C3([H])C([H])([H])[N+]([H])(C([H])([H])C4([H])C([H])([H])C([H])([H])N(C(=O)N5C([H])([H])C([H])([H])C([H])([H])C([H])(n6nc(-c7c([H])c([H])c(Oc8c([H])c([H])c(F)c([H])c8F)c([H])c7[H])c(C(=O)N([H])[H])c6N([H])[H])C5([H])[H])C([H])([H])C4([H])C([H])([H])[H])C3([H])[H])c([H])c([H])c2C1([H])[H]

>  <smiles>  (63) 
[H]c1c([H])c([H])c2c(c1[H])C([H])([H])C([H])([H])C([H])([H])C2([H])N([H])C(=O)C1([H])N(C(=O)C([H])(N([H])C(=O)C([H])(N([H])C([H])([H])[H])C([H])([H])[H])C(C([H])([H])[H])(C([H])([H])[H])C([H])([H])[H])C([H])([H])c2c([H])c(OC([H])([H])C([H])(C([H])([H])[H])C3([H])C([H])([H])[N+]([H])(C([H])([H])C4([H])C([H])([H])C([H])([H])N(C(=O)N5C([H])([H])C([H])([H])C([H])([H])C([H])(n6nc(-c7c([H])c([H])c(Oc8c([H])c([H])c(F)c([H])c8F)c([H])c7[H])c(C(=O)N([H])[H])c6N([H])[H])C5([H])[H])C([H])([H])C4([H])C([H])([H])[H])C3([H])[H])c([H])c([H])c2C1([H])[H]

$$$$
64:0:0
     RDKit          3D

 94103  0  0  1  0  0  0  0  0999 V2000
  -31.6880  -22.4950   20.1070 C   0  0  0  0  0  3  0  0  0  0  0  0
  -30.1780  -20.7650   20.9070 C   0  0  0  0  0  3  0  0  0  0  0  0
  -32.7520  -21.5720   20.0920 C   0  0  0  0  0  0  0  0  0  0  0  0
  -32.5390  -20.2370   20.5160 C   0  0  0  0  0  0  0  0  0  0  0  0
  -31.2490  -19.8310   20.9450 C   0  0  0  0  0  0  0  0  0  0  0  0
  -30.3850  -22.1160   20.5070 C   0  0  0  0  0  0  0  0  0  0  0  0
  -34.1200  -22.0550   19.6310 C   0  0  0  0  0  1  0  0  0  0  0  0
  -33.6850  -19.2220   20.5170 C   0  0  0  0  0  1  0  0  0  0  0  0
  -31.1250  -18.5320   21.4800 N   0  0  0  0  0  0  0  0  0  0  0  0
  -32.0130  -18.0540   21.5800 H   0  0  0  0  0  0  0  0  0  0  0  0
  -30.7000  -14.5030   20.2610 C   0  0  0  0  0  0  0  0  0  0  0  0
  -30.3430  -12.3570   19.1030 C   0  0  0  0  0  2  0  0  0  0  0  0
  -29.3760  -12.5930   17.9260 C   0  0  0  0  0  2  0  0  0  0  0  0
  -27.9120  -12.4660   18.3920 C   0  0  0  0  0  2  0  0  0  0  0  0
  -27.6170  -13.2780   19.6830 C   0  0  0  0  0  3  0  0  0  0  0  0
  -28.7030  -13.0440   20.7560 C   0  0  0  0  0  2  0  0  0  0  0  0
  -30.0060  -13.3380   20.1440 N   0  0  0  0  0  0  0  0  0  0  0  0
  -31.8450  -14.6390   19.8210 O   0  0  0  0  0  0  0  0  0  0  0  0
  -30.1260  -16.8710   19.8790 C   0  0  0  0  0  2  0  0  0  0  0  0
  -30.1830  -16.2670   21.8960 C   0  0  0  0  0  2  0  0  0  0  0  0
  -30.0150  -17.6210   21.1990 C   0  0  0  0  0  3  0  0  0  0  0  0
  -29.9680  -15.5910   20.6080 N   0  0  0  0  0  0  0  0  0  0  0  0
  -25.2360  -13.8760   20.4560 C   0  0  0  0  0  0  0  0  0  0  0  0
  -24.1790  -13.0980   20.8450 C   0  0  0  0  0  0  0  0  0  0  0  0
  -24.6420  -11.7480   20.7980 C   0  0  0  0  0  0  0  0  0  0  0  0
  -26.2770  -12.9980   20.1970 N   0  0  0  0  0  0  0  0  0  0  0  0
  -25.9250  -11.7120   20.4590 N   0  0  0  0  0  0  0  0  0  0  0  0
  -23.9230  -10.4830   20.9990 C   0  0  0  0  0  0  0  0  0  0  0  0
  -24.3720   -9.5150   21.9240 C   0  0  0  0  0  3  0  0  0  0  0  0
  -23.6530   -8.3150   22.1110 C   0  0  0  0  0  3  0  0  0  0  0  0
  -22.4690   -8.0760   21.3730 C   0  0  0  0  0  0  0  0  0  0  0  0
  -22.0390   -9.0320   20.4370 C   0  0  0  0  0  3  0  0  0  0  0  0
  -22.7590  -10.2220   20.2470 C   0  0  0  0  0  3  0  0  0  0  0  0
  -21.7180   -6.9290   21.4730 O   0  0  0  0  0  0  0  0  0  0  0  0
  -21.6800   -6.1900   22.6280 C   0  0  0  0  0  0  0  0  0  0  0  0
  -21.2630   -6.7490   23.8560 C   0  0  0  0  0  3  0  0  0  0  0  0
  -21.1710   -5.9370   25.0040 C   0  0  0  0  0  3  0  0  0  0  0  0
  -21.4880   -4.5670   24.9250 C   0  0  0  0  0  0  0  0  0  0  0  0
  -21.9000   -4.0080   23.7030 C   0  0  0  0  0  3  0  0  0  0  0  0
  -21.9930   -4.8170   22.5570 C   0  0  0  0  0  0  0  0  0  0  0  0
  -22.3680   -4.2700   21.3760 F   0  0  0  0  0  0  0  0  0  0  0  0
  -21.3930   -3.7850   26.0250 F   0  0  0  0  0  0  0  0  0  0  0  0
  -22.7870  -13.5730   21.1520 C   0  0  0  0  0  0  0  0  0  0  0  0
  -22.0800  -12.8730   22.0320 N   0  0  0  0  0  0  0  0  0  0  0  0
  -22.3360  -14.6000   20.6470 O   0  0  0  0  0  0  0  0  0  0  0  0
  -22.4590  -12.0450   22.4680 H   0  0  0  0  0  0  0  0  0  0  0  0
  -21.1470  -13.1740   22.2780 H   0  0  0  0  0  0  0  0  0  0  0  0
  -25.3980  -15.2460   20.2820 N   0  0  0  0  0  0  0  0  0  0  0  0
  -24.6420  -15.9070   20.4230 H   0  0  0  0  0  0  0  0  0  0  0  0
  -26.2570  -15.6850   19.9750 H   0  0  0  0  0  0  0  0  0  0  0  0
  -29.3150  -23.0060   20.5290 O   0  0  0  0  0  0  0  0  0  0  0  0
  -29.5590  -24.4170   20.3290 C   0  0  0  0  0  2  0  0  0  0  0  0
  -28.2360  -25.2090   20.1900 C   0  0  0  0  0  2  0  0  0  0  0  0
  -28.3870  -26.6490   20.2320 O   0  0  0  0  0  0  0  0  0  0  0  0
  -24.5770  -31.8970   23.2330 C   0  0  0  0  0  0  0  0  0  0  0  0
  -27.2220  -27.4020   20.2000 C   0  0  0  0  0  0  0  0  0  0  0  0
  -23.3750  -30.4850   21.6000 C   0  0  0  0  0  3  0  0  0  0  0  0
  -24.8310  -28.9360   20.1920 C   0  0  0  0  0  0  0  0  0  0  0  0
  -25.9070  -30.8330   21.4080 C   0  0  0  0  0  2  0  0  0  0  0  0
  -25.9930  -29.4570   20.7760 C   0  0  0  0  0  0  0  0  0  0  0  0
  -27.1920  -28.7010   20.7700 C   0  0  0  0  0  3  0  0  0  0  0  0
  -26.0330  -26.9080   19.6080 C   0  0  0  0  0  3  0  0  0  0  0  0
  -24.8480  -27.6630   19.6040 C   0  0  0  0  0  3  0  0  0  0  0  0
  -23.5900  -29.7990   20.2260 C   0  0  0  0  0  2  0  0  0  0  0  0
  -24.6370  -31.0870   22.1390 N   0  0  0  0  0  0  0  0  0  0  0  0
  -23.4920  -32.1750   23.7660 O   0  0  0  0  0  0  0  0  0  0  0  0
  -22.7190  -29.4700   22.5640 C   0  0  0  0  0  0  0  0  0  0  0  0
  -21.3930  -29.2980   22.4410 N   0  0  0  0  0  0  0  0  0  0  0  0
  -23.4000  -28.8410   23.3790 O   0  0  0  0  0  0  0  0  0  0  0  0
  -20.9040  -29.8570   21.7560 H   0  0  0  0  0  0  0  0  0  0  0  0
  -18.0080  -28.1410   22.9600 C   0  0  0  0  0  0  0  0  0  0  0  0
  -20.5700  -28.3690   23.2170 C   0  0  0  0  0  3  0  0  0  0  0  0
  -20.6520  -26.9360   22.6400 C   0  0  0  0  0  2  0  0  0  0  0  0
  -19.5420  -26.6270   21.6320 C   0  0  0  0  0  2  0  0  0  0  0  0
  -18.1650  -26.7880   22.2840 C   0  0  0  0  0  2  0  0  0  0  0  0
  -19.1380  -28.8890   23.3830 C   0  0  0  0  0  0  0  0  0  0  0  0
  -18.9380  -30.1550   23.9750 C   0  0  0  0  0  3  0  0  0  0  0  0
  -17.6400  -30.6730   24.1480 C   0  0  0  0  0  3  0  0  0  0  0  0
  -16.5250  -29.9200   23.7420 C   0  0  0  0  0  3  0  0  0  0  0  0
  -16.7090  -28.6560   23.1540 C   0  0  0  0  0  3  0  0  0  0  0  0
  -25.8600  -32.5330   23.8520 C   0  0  0  0  0  3  0  0  0  0  0  0
  -26.3840  -31.7600   25.1250 C   0  0  1  0  0  0  0  0  0  0  0  0
  -25.2940  -31.5120   26.1940 C   0  0  0  0  0  1  0  0  0  0  0  0
  -26.9730  -30.3880   24.7240 C   0  0  0  0  0  1  0  0  0  0  0  0
  -27.5320  -32.5580   25.7860 C   0  0  0  0  0  1  0  0  0  0  0  0
  -25.5450  -33.9290   24.1840 N   0  0  0  0  0  0  0  0  0  0  0  0
  -25.8730  -34.9820   23.4250 C   0  0  0  0  0  0  0  0  0  0  0  0
  -26.5410  -34.8830   22.3930 O   0  0  0  0  0  0  0  0  0  0  0  0
  -24.9500  -34.0810   24.9860 H   0  0  0  0  0  0  0  0  0  0  0  0
  -24.1370  -36.7670   23.0710 C   0  0  0  0  0  1  0  0  0  0  0  0
  -25.3790  -36.3680   23.8830 C   0  0  0  0  0  3  0  0  0  0  0  0
  -27.5100  -37.2590   24.7160 C   0  0  0  0  0  1  0  0  0  0  0  0
  -26.4070  -37.4260   23.7730 N   0  0  0  0  0  0  0  0  0  0  0  0
  -25.9980  -38.3440   23.9210 H   0  0  0  0  0  0  0  0  0  0  0  0
  1  6  1  0
  2  5  1  0
  3  1  2  0
  3  4  1  0
  4  8  1  0
  4  5  2  0
  5  9  1  0
  6 51  1  0
  6  2  2  0
  7  3  1  0
  9 10  1  0
 11 22  1  0
 12 17  1  0
 13 14  1  0
 13 12  1  0
 15 14  1  0
 15 26  1  0
 15 16  1  0
 17 11  1  0
 17 16  1  0
 18 11  2  0
 19 22  1  0
 19 21  1  0
 21  9  1  0
 21 20  1  0
 22 20  1  0
 23 24  2  0
 24 43  1  0
 25 24  1  0
 25 28  1  0
 26 23  1  0
 26 27  1  0
 27 25  2  0
 28 29  1  0
 29 30  2  0
 31 34  1  0
 31 30  1  0
 32 31  2  0
 33 32  1  0
 33 28  2  0
 34 35  1  0
 35 36  1  0
 36 37  2  0
 38 37  1  0
 38 42  1  0
 39 38  2  0
 40 35  2  0
 40 39  1  0
 41 40  1  0
 43 44  1  0
 44 47  1  0
 44 46  1  0
 45 43  2  0
 48 49  1  0
 48 23  1  0
 50 48  1  0
 52 51  1  0
 53 54  1  0
 53 52  1  0
 55 66  2  0
 56 54  1  0
 56 61  1  0
 57 65  1  0
 57 67  1  0
 58 64  1  0
 58 60  1  0
 59 65  1  0
 60 59  1  0
 61 60  2  0
 62 56  2  0
 63 62  1  0
 63 58  2  0
 64 57  1  0
 65 55  1  0
 67 69  2  0
 68 67  1  0
 70 68  1  0
 71 80  2  0
 71 76  1  0
 72 68  1  0
 72 76  1  0
 73 72  1  0
 74 75  1  0
 74 73  1  0
 75 71  1  0
 76 77  2  0
 77 78  1  0
 79 78  2  0
 80 79  1  0
 81 55  1  0
 81 86  1  0
 81 82  1  0
 82 85  1  1
 82 83  1  0
 84 82  1  0
 86 89  1  0
 87 91  1  0
 87 86  1  0
 88 87  2  0
 91 90  1  0
 93 91  1  0
 93 94  1  0
 93 92  1  0
M  ISO  4  11 100  22 100  53 101  54 101
M  END
>  <TORSDO>  (64) 
F 20

>  <SCORE>  (64) 
-14.123

>  <name>  (64) 
64

>  <ligand_id>  (64) 
64

>  <original_smiles>  (64) 
[H]c1c([H])c([H])c2c(c1[H])C([H])([H])C([H])([H])C([H])([H])C2([H])N([H])C(=O)C1([H])N(C(=O)C([H])(N([H])C(=O)C([H])(N([H])C([H])([H])[H])C([H])([H])[H])C(C([H])([H])[H])(C([H])([H])[H])C([H])([H])[H])C([H])([H])c2c([H])c(OC([H])([H])C([H])([H])Oc3c([H])c(N([H])C4([H])C([H])([H])N(C(=O)N5C([H])([H])C([H])([H])C([H])([H])C([H])(n6nc(-c7c([H])c([H])c(Oc8c([H])c([H])c(F)c([H])c8F)c([H])c7[H])c(C(=O)N([H])[H])c6N([H])[H])C5([H])[H])C4([H])[H])c(C([H])([H])[H])c(C([H])([H])[H])c3[H])c([H])c([H])c2C1([H])[H]

>  <smiles>  (64) 
[H]c1c([H])c([H])c2c(c1[H])C([H])([H])C([H])([H])C([H])([H])C2([H])N([H])C(=O)C1([H])N(C(=O)C([H])(N([H])C(=O)C([H])(N([H])C([H])([H])[H])C([H])([H])[H])C(C([H])([H])[H])(C([H])([H])[H])C([H])([H])[H])C([H])([H])c2c([H])c(OC([H])([H])C([H])([H])Oc3c([H])c(N([H])C4([H])C([H])([H])N(C(=O)N5C([H])([H])C([H])([H])C([H])([H])C([H])(n6nc(-c7c([H])c([H])c(Oc8c([H])c([H])c(F)c([H])c8F)c([H])c7[H])c(C(=O)N([H])[H])c6N([H])[H])C5([H])[H])C4([H])[H])c(C([H])([H])[H])c(C([H])([H])[H])c3[H])c([H])c([H])c2C1([H])[H]

$$$$
65:0:0
     RDKit          3D

 96105  0  0  1  0  0  0  0  0999 V2000
  -29.8830  -16.3590   18.9720 C   0  0  0  0  0  3  0  0  0  0  0  0
  -30.4740  -17.5300   20.9690 C   0  0  0  0  0  3  0  0  0  0  0  0
  -30.4740  -16.2690   20.2450 C   0  0  0  0  0  0  0  0  0  0  0  0
  -28.8410  -18.5430   19.4370 C   0  0  0  0  0  0  0  0  0  0  0  0
  -28.9910  -17.3930   18.6140 C   0  0  0  0  0  0  0  0  0  0  0  0
  -29.7530  -18.7150   20.5240 C   0  0  0  0  0  0  0  0  0  0  0  0
  -31.2130  -14.9340   20.6180 C   0  0  0  0  0  0  0  0  0  0  0  0
  -31.0350  -12.5140   20.0070 C   0  0  0  0  0  2  0  0  0  0  0  0
  -30.2500  -12.3660   18.6840 C   0  0  0  0  0  2  0  0  0  0  0  0
  -28.7330  -12.2740   18.9490 C   0  0  0  0  0  2  0  0  0  0  0  0
  -28.2320  -13.3650   19.9250 C   0  0  0  0  0  3  0  0  0  0  0  0
  -29.1560  -13.5290   21.1540 C   0  0  0  0  0  2  0  0  0  0  0  0
  -30.5360  -13.7310   20.6890 N   0  0  0  0  0  0  0  0  0  0  0  0
  -32.4450  -14.9310   20.5620 O   0  0  0  0  0  0  0  0  0  0  0  0
  -25.8570  -14.2000   20.3630 C   0  0  0  0  0  0  0  0  0  0  0  0
  -24.6980  -13.5400   20.6430 C   0  0  0  0  0  0  0  0  0  0  0  0
  -25.0470  -12.1580   20.7360 C   0  0  0  0  0  0  0  0  0  0  0  0
  -26.8370  -13.2210   20.2870 N   0  0  0  0  0  0  0  0  0  0  0  0
  -26.3530  -11.9930   20.5760 N   0  0  0  0  0  0  0  0  0  0  0  0
  -24.2060  -10.9710   20.9040 C   0  0  0  0  0  0  0  0  0  0  0  0
  -24.5060   -9.9950   21.8780 C   0  0  0  0  0  3  0  0  0  0  0  0
  -23.6770   -8.8650   22.0370 C   0  0  0  0  0  3  0  0  0  0  0  0
  -22.5300   -8.7100   21.2210 C   0  0  0  0  0  0  0  0  0  0  0  0
  -22.2470   -9.6730   20.2360 C   0  0  0  0  0  3  0  0  0  0  0  0
  -23.0790  -10.7950   20.0760 C   0  0  0  0  0  3  0  0  0  0  0  0
  -21.6790   -7.6350   21.2920 O   0  0  0  0  0  0  0  0  0  0  0  0
  -21.6140   -6.8430   22.4080 C   0  0  0  0  0  0  0  0  0  0  0  0
  -21.3010   -7.3700   23.6790 C   0  0  0  0  0  3  0  0  0  0  0  0
  -21.1830   -6.5090   24.7880 C   0  0  0  0  0  3  0  0  0  0  0  0
  -21.3620   -5.1230   24.6270 C   0  0  0  0  0  0  0  0  0  0  0  0
  -21.6630   -4.5950   23.3590 C   0  0  0  0  0  3  0  0  0  0  0  0
  -21.7890   -5.4520   22.2520 C   0  0  0  0  0  0  0  0  0  0  0  0
  -22.0650   -4.9370   21.0290 F   0  0  0  0  0  0  0  0  0  0  0  0
  -21.2340   -4.2950   25.6890 F   0  0  0  0  0  0  0  0  0  0  0  0
  -23.3250  -14.1410   20.7120 C   0  0  0  0  0  0  0  0  0  0  0  0
  -22.4470  -13.5680   21.5270 N   0  0  0  0  0  0  0  0  0  0  0  0
  -23.0350  -15.1520   20.0730 O   0  0  0  0  0  0  0  0  0  0  0  0
  -22.6870  -12.7480   22.0650 H   0  0  0  0  0  0  0  0  0  0  0  0
  -21.5180  -13.9560   21.6140 H   0  0  0  0  0  0  0  0  0  0  0  0
  -26.1410  -15.5420   20.1380 N   0  0  0  0  0  0  0  0  0  0  0  0
  -25.3990  -16.2310   20.0970 H   0  0  0  0  0  0  0  0  0  0  0  0
  -27.0250  -15.9040   19.8000 H   0  0  0  0  0  0  0  0  0  0  0  0
  -28.7740  -17.5410   16.2700 C   0  0  0  0  0  1  0  0  0  0  0  0
  -28.1900  -17.2120   17.5200 O   0  0  0  0  0  0  0  0  0  0  0  0
  -26.3300  -18.7840   19.6670 C   0  0  0  0  0  1  0  0  0  0  0  0
  -27.6370  -19.5080   19.2840 C   0  0  0  0  0  3  0  0  0  0  0  0
  -27.3080  -21.8900   18.3890 C   0  0  0  0  0  1  0  0  0  0  0  0
  -26.4350  -19.9940   17.0120 C   0  0  0  0  0  1  0  0  0  0  0  0
  -27.5340  -20.4140   18.0090 C   0  0  0  0  0  3  0  0  0  0  0  0
  -29.8160  -19.9610   21.2060 O   0  0  0  0  0  0  0  0  0  0  0  0
  -29.8160  -21.2630   20.4750 C   0  0  0  0  0  3  0  0  0  0  0  0
  -28.9530  -22.5110   21.0270 C   0  0  0  0  0  3  0  0  0  0  0  0
  -29.9190  -24.9730   20.9380 C   0  0  0  0  0  2  0  0  0  0  0  0
  -29.0460  -23.9230   20.2920 C   0  0  0  0  0  3  0  0  0  0  0  0
  -28.4590  -25.3330   20.7590 C   0  0  0  0  0  3  0  0  0  0  0  0
  -28.4700  -26.5950   19.9770 O   0  0  0  0  0  0  0  0  0  0  0  0
  -24.5200  -31.7230   23.1420 C   0  0  0  0  0  0  0  0  0  0  0  0
  -27.3210  -27.3910   19.9770 C   0  0  0  0  0  0  0  0  0  0  0  0
  -23.3810  -30.3740   21.4120 C   0  0  0  0  0  3  0  0  0  0  0  0
  -24.9060  -28.9210   19.9500 C   0  0  0  0  0  0  0  0  0  0  0  0
  -25.9080  -30.7790   21.2850 C   0  0  0  0  0  2  0  0  0  0  0  0
  -26.0440  -29.4270   20.5920 C   0  0  0  0  0  0  0  0  0  0  0  0
  -27.2540  -28.6790   20.5900 C   0  0  0  0  0  3  0  0  0  0  0  0
  -26.1660  -26.9270   19.3150 C   0  0  0  0  0  3  0  0  0  0  0  0
  -24.9700  -27.6760   19.2980 C   0  0  0  0  0  3  0  0  0  0  0  0
  -23.6420  -29.7590   20.0080 C   0  0  0  0  0  2  0  0  0  0  0  0
  -24.6200  -30.9730   22.0060 N   0  0  0  0  0  0  0  0  0  0  0  0
  -23.4220  -31.9440   23.6730 O   0  0  0  0  0  0  0  0  0  0  0  0
  -22.7300  -29.2980   22.3140 C   0  0  0  0  0  0  0  0  0  0  0  0
  -21.4080  -29.1000   22.1670 N   0  0  0  0  0  0  0  0  0  0  0  0
  -23.4130  -28.6480   23.1100 O   0  0  0  0  0  0  0  0  0  0  0  0
  -20.9140  -29.6790   21.5040 H   0  0  0  0  0  0  0  0  0  0  0  0
  -18.0510  -27.8290   22.5770 C   0  0  0  0  0  0  0  0  0  0  0  0
  -20.6040  -28.1050   22.8760 C   0  0  0  0  0  3  0  0  0  0  0  0
  -20.7290  -26.7130   22.2160 C   0  0  0  0  0  2  0  0  0  0  0  0
  -19.6350  -26.4340   21.1810 C   0  0  0  0  0  2  0  0  0  0  0  0
  -18.2490  -26.5220   21.8260 C   0  0  0  0  0  2  0  0  0  0  0  0
  -19.1570  -28.5800   23.0560 C   0  0  0  0  0  0  0  0  0  0  0  0
  -18.9160  -29.8020   23.7190 C   0  0  0  0  0  3  0  0  0  0  0  0
  -17.6030  -30.2750   23.9080 C   0  0  0  0  0  3  0  0  0  0  0  0
  -16.5120  -29.5200   23.4450 C   0  0  0  0  0  3  0  0  0  0  0  0
  -16.7360  -28.2980   22.7850 C   0  0  0  0  0  3  0  0  0  0  0  0
  -25.7750  -32.3560   23.8170 C   0  0  0  0  0  3  0  0  0  0  0  0
  -25.4480  -33.7510   24.1450 N   0  0  0  0  0  0  0  0  0  0  0  0
  -25.8260  -34.8110   23.4190 C   0  0  0  0  0  0  0  0  0  0  0  0
  -26.5520  -34.7160   22.4270 O   0  0  0  0  0  0  0  0  0  0  0  0
  -24.8090  -33.8950   24.9140 H   0  0  0  0  0  0  0  0  0  0  0  0
  -24.1260  -36.6120   22.9910 C   0  0  0  0  0  1  0  0  0  0  0  0
  -25.3200  -36.1970   23.8650 C   0  0  0  0  0  3  0  0  0  0  0  0
  -27.4040  -37.0730   24.8240 C   0  0  0  0  0  1  0  0  0  0  0  0
  -26.3600  -37.2470   23.8190 N   0  0  0  0  0  0  0  0  0  0  0  0
  -25.9470  -38.1680   23.9440 H   0  0  0  0  0  0  0  0  0  0  0  0
  -26.2450  -31.5760   25.1050 C   0  0  1  0  0  0  0  0  0  0  0  0
  -25.1120  -31.3310   26.1330 C   0  0  0  0  0  1  0  0  0  0  0  0
  -26.8430  -30.2030   24.7220 C   0  0  0  0  0  1  0  0  0  0  0  0
  -27.3720  -32.3660   25.8130 C   0  0  0  0  0  1  0  0  0  0  0  0
  1  3  1  0
  3  7  1  0
  3  2  2  0
  4  6  2  0
  5  1  2  0
  5  4  1  0
  6  2  1  0
  6 50  1  0
  7 13  1  0
  8 13  1  0
  9 10  1  0
  9  8  1  0
 11 10  1  0
 11 18  1  0
 11 12  1  0
 13 12  1  0
 14  7  2  0
 15 16  2  0
 16 35  1  0
 16 17  1  0
 17 20  1  0
 18 15  1  0
 18 19  1  0
 19 17  2  0
 20 21  1  0
 21 22  2  0
 23 26  1  0
 23 22  1  0
 24 23  2  0
 25 24  1  0
 25 20  2  0
 26 27  1  0
 27 28  1  0
 28 29  2  0
 30 29  1  0
 30 34  1  0
 31 30  2  0
 32 27  2  0
 32 31  1  0
 33 32  1  0
 35 36  1  0
 36 39  1  0
 36 38  1  0
 37 35  2  0
 40 15  1  0
 41 40  1  0
 42 40  1  0
 43 44  1  0
 44  5  1  0
 46  4  1  0
 46 45  1  0
 48 49  1  0
 49 47  1  0
 49 46  1  0
 51 52  2  0
 51 50  1  0
 54 55  1  0
 54 53  1  0
 54 52  1  0
 55 56  1  0
 55 53  1  0
 56 58  1  0
 57 68  2  0
 58 63  1  0
 59 67  1  0
 59 69  1  0
 60 66  1  0
 60 62  1  0
 61 67  1  0
 62 61  1  0
 63 62  2  0
 64 58  2  0
 65 64  1  0
 65 60  2  0
 66 59  1  0
 67 57  1  0
 69 71  2  0
 70 69  1  0
 72 70  1  0
 73 82  2  0
 73 78  1  0
 74 70  1  0
 74 78  1  0
 75 74  1  0
 76 77  1  0
 76 75  1  0
 77 73  1  0
 78 79  2  0
 79 80  1  0
 81 80  2  0
 82 81  1  0
 83 57  1  0
 83 84  1  0
 83 93  1  0
 84 87  1  0
 85 89  1  0
 85 84  1  0
 86 85  2  0
 89 88  1  0
 91 89  1  0
 91 92  1  0
 91 90  1  0
 93 96  1  1
 93 94  1  0
 95 93  1  0
M  ISO  4   3 100   7 100  55 101  56 101
M  END
>  <TORSDO>  (65) 
F 23

>  <SCORE>  (65) 
-9.684

>  <name>  (65) 
65

>  <ligand_id>  (65) 
65

>  <original_smiles>  (65) 
[H]c1c([H])c([H])c2c(c1[H])C([H])([H])C([H])([H])C([H])([H])C2([H])N([H])C(=O)C1([H])N(C(=O)C([H])(N([H])C(=O)C([H])(N([H])C([H])([H])[H])C([H])([H])[H])C(C([H])([H])[H])(C([H])([H])[H])C([H])([H])[H])C([H])([H])c2c([H])c(OC3([H])C([H])([H])C3([H])C([H])([H])C([H])([H])Oc3c([H])c(C(=O)N4C([H])([H])C([H])([H])C([H])([H])C([H])(n5nc(-c6c([H])c([H])c(Oc7c([H])c([H])c(F)c([H])c7F)c([H])c6[H])c(C(=O)N([H])[H])c5N([H])[H])C4([H])[H])c([H])c(OC([H])([H])[H])c3C([H])(C([H])([H])[H])C([H])(C([H])([H])[H])C([H])([H])[H])c([H])c([H])c2C1([H])[H]

>  <smiles>  (65) 
[H]c1c([H])c([H])c2c(c1[H])C([H])([H])C([H])([H])C([H])([H])C2([H])N([H])C(=O)C1([H])N(C(=O)C([H])(N([H])C(=O)C([H])(N([H])C([H])([H])[H])C([H])([H])[H])C(C([H])([H])[H])(C([H])([H])[H])C([H])([H])[H])C([H])([H])c2c([H])c(OC3([H])C([H])([H])C3([H])C([H])([H])C([H])([H])Oc3c([H])c(C(=O)N4C([H])([H])C([H])([H])C([H])([H])C([H])(n5nc(-c6c([H])c([H])c(Oc7c([H])c([H])c(F)c([H])c7F)c([H])c6[H])c(C(=O)N([H])[H])c5N([H])[H])C4([H])[H])c([H])c(OC([H])([H])[H])c3C([H])(C([H])([H])[H])C([H])(C([H])([H])[H])C([H])([H])[H])c([H])c([H])c2C1([H])[H]

$$$$
66:0:0
     RDKit          3D

 98108  0  0  1  0  0  0  0  0999 V2000
  -30.1170  -22.0230   20.0600 C   0  0  0  0  0  2  0  0  0  0  0  0
  -31.3780  -22.0160   22.1920 C   0  0  0  0  0  2  0  0  0  0  0  0
  -30.1300  -23.5700   20.0430 C   0  0  0  0  0  2  0  0  0  0  0  0
  -31.4230  -23.5610   22.1530 C   0  0  0  0  0  2  0  0  0  0  0  0
  -31.3530  -21.4350   20.7680 C   0  0  0  0  0  3  0  0  0  0  0  0
  -30.2860  -24.1730   21.3970 N   0  0  1  0  0  4  0  0  0  0  0  0
  -29.4490  -23.9510   21.9180 H   0  0  0  0  0  0  0  0  0  0  0  0
  -31.7680  -19.2950   19.4560 C   0  0  0  0  0  3  0  0  0  0  0  0
  -30.9350  -19.0710   21.7200 C   0  0  0  0  0  3  0  0  0  0  0  0
  -31.3800  -19.9010   20.6690 C   0  0  0  0  0  0  0  0  0  0  0  0
  -31.5810  -17.9130   19.2280 C   0  0  0  0  0  0  0  0  0  0  0  0
  -30.7680  -17.6810   21.5260 C   0  0  0  0  0  0  0  0  0  0  0  0
  -31.0200  -17.0970   20.2530 C   0  0  0  0  0  0  0  0  0  0  0  0
  -31.8800  -17.3880   17.8290 C   0  0  0  0  0  1  0  0  0  0  0  0
  -30.1840  -16.8720   22.6740 C   0  0  0  0  0  1  0  0  0  0  0  0
  -30.9730  -14.6290   19.9480 C   0  0  0  0  0  0  0  0  0  0  0  0
  -30.5870  -12.3870   18.9840 C   0  0  0  0  0  2  0  0  0  0  0  0
  -29.5560  -12.4280   17.8400 C   0  0  0  0  0  2  0  0  0  0  0  0
  -28.1350  -12.2190   18.3960 C   0  0  0  0  0  2  0  0  0  0  0  0
  -27.8320  -13.1540   19.5890 C   0  0  0  0  0  3  0  0  0  0  0  0
  -28.9840  -13.1680   20.6280 C   0  0  0  0  0  2  0  0  0  0  0  0
  -30.2330  -13.4740   19.9130 N   0  0  0  0  0  0  0  0  0  0  0  0
  -32.1820  -14.5860   19.7240 O   0  0  0  0  0  0  0  0  0  0  0  0
  -30.3520  -15.8630   19.9320 N   0  0  0  0  0  0  0  0  0  0  0  0
  -25.5490  -13.8410   20.5470 C   0  0  0  0  0  0  0  0  0  0  0  0
  -24.4860  -13.0940   20.9680 C   0  0  0  0  0  0  0  0  0  0  0  0
  -24.8930  -11.7310   20.8410 C   0  0  0  0  0  0  0  0  0  0  0  0
  -26.5320  -12.9260   20.1900 N   0  0  0  0  0  0  0  0  0  0  0  0
  -26.1500  -11.6530   20.4330 N   0  0  0  0  0  0  0  0  0  0  0  0
  -24.1420  -10.4890   21.0210 C   0  0  0  0  0  0  0  0  0  0  0  0
  -24.5830   -9.4900   21.9150 C   0  0  0  0  0  3  0  0  0  0  0  0
  -23.8350   -8.3060   22.0850 C   0  0  0  0  0  3  0  0  0  0  0  0
  -22.6360   -8.1170   21.3590 C   0  0  0  0  0  0  0  0  0  0  0  0
  -22.2160   -9.1050   20.4500 C   0  0  0  0  0  3  0  0  0  0  0  0
  -22.9640  -10.2800   20.2790 C   0  0  0  0  0  3  0  0  0  0  0  0
  -21.8550   -6.9900   21.4430 O   0  0  0  0  0  0  0  0  0  0  0  0
  -21.7670   -6.2640   22.6020 C   0  0  0  0  0  0  0  0  0  0  0  0
  -21.3180   -6.8400   23.8110 C   0  0  0  0  0  3  0  0  0  0  0  0
  -21.1770   -6.0390   24.9620 C   0  0  0  0  0  3  0  0  0  0  0  0
  -21.4740   -4.6650   24.9040 C   0  0  0  0  0  0  0  0  0  0  0  0
  -21.9150   -4.0890   23.6990 C   0  0  0  0  0  3  0  0  0  0  0  0
  -22.0580   -4.8870   22.5510 C   0  0  0  0  0  0  0  0  0  0  0  0
  -22.4650   -4.3230   21.3880 F   0  0  0  0  0  0  0  0  0  0  0  0
  -21.3290   -3.8930   26.0070 F   0  0  0  0  0  0  0  0  0  0  0  0
  -23.1310  -13.6070   21.3650 C   0  0  0  0  0  0  0  0  0  0  0  0
  -22.4480  -12.8980   22.2560 N   0  0  0  0  0  0  0  0  0  0  0  0
  -22.6910  -14.6680   20.9240 O   0  0  0  0  0  0  0  0  0  0  0  0
  -22.8190  -12.0400   22.6370 H   0  0  0  0  0  0  0  0  0  0  0  0
  -21.5400  -13.2190   22.5640 H   0  0  0  0  0  0  0  0  0  0  0  0
  -25.7400  -15.2130   20.4080 N   0  0  0  0  0  0  0  0  0  0  0  0
  -24.9950  -15.8760   20.5930 H   0  0  0  0  0  0  0  0  0  0  0  0
  -26.5470  -15.6390   19.9750 H   0  0  0  0  0  0  0  0  0  0  0  0
  -28.4730  -17.4430   19.0480 C   0  0  0  0  0  2  0  0  0  0  0  0
  -28.6030  -16.2910   18.0980 C   0  0  0  0  0  2  0  0  0  0  0  0
  -28.9730  -16.0900   19.5660 C   0  0  0  0  0  3  0  0  0  0  0  0
  -30.3920  -25.6660   21.3420 C   0  0  0  0  0  2  0  0  0  0  0  0
  -29.0560  -26.4360   21.4720 C   0  0  0  0  0  2  0  0  0  0  0  0
  -28.3520  -26.5430   20.2270 O   0  0  0  0  0  0  0  0  0  0  0  0
  -24.5630  -31.8120   23.2250 C   0  0  0  0  0  0  0  0  0  0  0  0
  -27.2200  -27.3350   20.2310 C   0  0  0  0  0  0  0  0  0  0  0  0
  -23.3620  -30.4130   21.5700 C   0  0  0  0  0  3  0  0  0  0  0  0
  -24.8250  -28.8500   20.1770 C   0  0  0  0  0  0  0  0  0  0  0  0
  -25.8890  -30.7510   21.4040 C   0  0  0  0  0  2  0  0  0  0  0  0
  -25.9730  -29.3730   20.7850 C   0  0  0  0  0  0  0  0  0  0  0  0
  -27.1690  -28.6250   20.8140 C   0  0  0  0  0  3  0  0  0  0  0  0
  -26.0610  -26.8310   19.6030 C   0  0  0  0  0  3  0  0  0  0  0  0
  -24.8640  -27.5750   19.5810 C   0  0  0  0  0  3  0  0  0  0  0  0
  -23.5860  -29.7180   20.1980 C   0  0  0  0  0  2  0  0  0  0  0  0
  -24.6220  -31.0070   22.1270 N   0  0  0  0  0  0  0  0  0  0  0  0
  -23.4790  -32.0990   23.7500 O   0  0  0  0  0  0  0  0  0  0  0  0
  -22.6870  -29.4070   22.5300 C   0  0  0  0  0  0  0  0  0  0  0  0
  -21.3640  -29.2310   22.3760 N   0  0  0  0  0  0  0  0  0  0  0  0
  -23.3500  -28.7880   23.3650 O   0  0  0  0  0  0  0  0  0  0  0  0
  -20.8900  -29.7860   21.6770 H   0  0  0  0  0  0  0  0  0  0  0  0
  -17.9790  -28.0380   22.7800 C   0  0  0  0  0  0  0  0  0  0  0  0
  -20.5260  -28.3040   23.1350 C   0  0  0  0  0  3  0  0  0  0  0  0
  -20.6490  -26.8630   22.5890 C   0  0  0  0  0  2  0  0  0  0  0  0
  -19.5830  -26.5190   21.5450 C   0  0  0  0  0  2  0  0  0  0  0  0
  -18.1810  -26.6750   22.1380 C   0  0  0  0  0  2  0  0  0  0  0  0
  -19.0820  -28.8080   23.2340 C   0  0  0  0  0  0  0  0  0  0  0  0
  -18.8420  -30.0830   23.7910 C   0  0  0  0  0  3  0  0  0  0  0  0
  -17.5330  -30.5870   23.9030 C   0  0  0  0  0  3  0  0  0  0  0  0
  -16.4440  -29.8110   23.4670 C   0  0  0  0  0  3  0  0  0  0  0  0
  -16.6680  -28.5400   22.9110 C   0  0  0  0  0  3  0  0  0  0  0  0
  -25.8500  -32.4290   23.8580 C   0  0  0  0  0  3  0  0  0  0  0  0
  -26.3540  -31.6450   25.1310 C   0  0  1  0  0  0  0  0  0  0  0  0
  -25.2540  -31.4080   26.1910 C   0  0  0  0  0  1  0  0  0  0  0  0
  -26.9300  -30.2680   24.7260 C   0  0  0  0  0  1  0  0  0  0  0  0
  -27.5050  -32.4270   25.8070 C   0  0  0  0  0  1  0  0  0  0  0  0
  -25.5540  -33.8270   24.1930 N   0  0  0  0  0  0  0  0  0  0  0  0
  -25.9000  -34.8790   23.4380 C   0  0  0  0  0  0  0  0  0  0  0  0
  -26.5730  -34.7720   22.4080 O   0  0  0  0  0  0  0  0  0  0  0  0
  -24.9640  -33.9860   24.9960 H   0  0  0  0  0  0  0  0  0  0  0  0
  -24.1850  -36.6810   23.0800 C   0  0  0  0  0  1  0  0  0  0  0  0
  -25.4210  -36.2700   23.8960 C   0  0  0  0  0  3  0  0  0  0  0  0
  -27.5590  -37.1390   24.7340 C   0  0  0  0  0  1  0  0  0  0  0  0
  -26.4620  -37.3150   23.7860 N   0  0  0  0  0  0  0  0  0  0  0  0
  -26.0620  -38.2380   23.9340 H   0  0  0  0  0  0  0  0  0  0  0  0
  1  5  1  0
  3  1  1  0
  3  6  1  0
  4  2  1  0
  5 10  1  0
  5  2  1  0
  6  7  1  1
  6  4  1  0
  8 10  1  0
 10  9  2  0
 11  8  2  0
 11 13  1  0
 12  9  1  0
 12 15  1  0
 13 12  2  0
 14 11  1  0
 17 22  1  0
 18 19  1  0
 18 17  1  0
 20 19  1  0
 20 28  1  0
 20 21  1  0
 22 16  1  0
 22 21  1  0
 23 16  2  0
 24 16  1  0
 24 13  1  0
 25 26  2  0
 26 45  1  0
 27 26  1  0
 27 30  1  0
 28 29  1  0
 28 25  1  0
 29 27  2  0
 30 31  1  0
 31 32  2  0
 33 36  1  0
 33 32  1  0
 34 33  2  0
 35 34  1  0
 35 30  2  0
 36 37  1  0
 37 38  1  0
 38 39  2  0
 40 39  1  0
 40 44  1  0
 41 40  2  0
 42 37  2  0
 42 41  1  0
 43 42  1  0
 45 46  1  0
 46 49  1  0
 46 48  1  0
 47 45  2  0
 50 25  1  0
 50 51  1  0
 52 50  1  0
 53 55  1  0
 54 53  1  0
 54 55  1  0
 55 24  1  0
 56  6  1  0
 56 57  1  0
 58 60  1  0
 58 57  1  0
 59 70  2  0
 60 65  1  0
 61 69  1  0
 61 71  1  0
 62 68  1  0
 62 64  1  0
 63 69  1  0
 64 65  2  0
 64 63  1  0
 66 60  2  0
 67 66  1  0
 67 62  2  0
 68 61  1  0
 69 59  1  0
 71 73  2  0
 72 71  1  0
 74 72  1  0
 75 84  2  0
 75 80  1  0
 76 72  1  0
 76 80  1  0
 77 76  1  0
 78 79  1  0
 78 77  1  0
 79 75  1  0
 80 81  2  0
 81 82  1  0
 83 82  2  0
 84 83  1  0
 85 59  1  0
 85 90  1  0
 85 86  1  0
 86 89  1  1
 86 87  1  0
 88 86  1  0
 90 93  1  0
 91 95  1  0
 91 90  1  0
 92 91  2  0
 95 94  1  0
 97 95  1  0
 97 98  1  0
 97 96  1  0
M  ISO  4  16 100  24 100  57 101  58 101
M  END
>  <TORSDO>  (66) 
F 20

>  <SCORE>  (66) 
-11.578

>  <name>  (66) 
66

>  <ligand_id>  (66) 
66

>  <original_smiles>  (66) 
[H]c1c([H])c([H])c2c(c1[H])C([H])([H])C([H])([H])C([H])([H])C2([H])N([H])C(=O)C1([H])N(C(=O)C([H])(N([H])C(=O)C([H])(N([H])C([H])([H])[H])C([H])([H])[H])C(C([H])([H])[H])(C([H])([H])[H])C([H])([H])[H])C([H])([H])c2c([H])c(OC([H])([H])C([H])([H])[N+]3([H])C([H])([H])C([H])([H])C([H])(c4c([H])c(C([H])([H])[H])c(N(C(=O)N5C([H])([H])C([H])([H])C([H])([H])C([H])(n6nc(-c7c([H])c([H])c(Oc8c([H])c([H])c(F)c([H])c8F)c([H])c7[H])c(C(=O)N([H])[H])c6N([H])[H])C5([H])[H])C5([H])C([H])([H])C5([H])[H])c(C([H])([H])[H])c4[H])C([H])([H])C3([H])[H])c([H])c([H])c2C1([H])[H]

>  <smiles>  (66) 
[H]c1c([H])c([H])c2c(c1[H])C([H])([H])C([H])([H])C([H])([H])C2([H])N([H])C(=O)C1([H])N(C(=O)C([H])(N([H])C(=O)C([H])(N([H])C([H])([H])[H])C([H])([H])[H])C(C([H])([H])[H])(C([H])([H])[H])C([H])([H])[H])C([H])([H])c2c([H])c(OC([H])([H])C([H])([H])[N+]3([H])C([H])([H])C([H])([H])C([H])(c4c([H])c(C([H])([H])[H])c(N(C(=O)N5C([H])([H])C([H])([H])C([H])([H])C([H])(n6nc(-c7c([H])c([H])c(Oc8c([H])c([H])c(F)c([H])c8F)c([H])c7[H])c(C(=O)N([H])[H])c6N([H])[H])C5([H])[H])C5([H])C([H])([H])C5([H])[H])c(C([H])([H])[H])c4[H])C([H])([H])C3([H])[H])c([H])c([H])c2C1([H])[H]

$$$$
67:0:0
     RDKit          3D

 92101  0  0  1  0  0  0  0  0999 V2000
  -28.8400  -20.1880   20.5910 C   0  0  0  0  0  3  0  0  0  0  0  0
  -31.3330  -19.8350   19.6010 C   0  0  0  0  0  3  0  0  0  0  0  0
  -29.2390  -18.8630   20.2470 C   0  0  0  0  0  0  0  0  0  0  0  0
  -30.5370  -18.6540   19.7090 C   0  0  0  0  0  0  0  0  0  0  0  0
  -29.7090  -21.2940   20.4510 C   0  0  0  0  0  0  0  0  0  0  0  0
  -30.9540  -21.1020   19.9580 N   0  0  0  0  0  0  0  0  0  0  0  0
  -28.1270  -16.6370   19.4660 C   0  0  0  0  0  2  0  0  0  0  0  0
  -26.9850  -17.5670   19.7900 C   0  0  0  0  0  2  0  0  0  0  0  0
  -28.3130  -17.7110   20.5060 C   0  0  0  0  0  3  0  0  0  0  0  0
  -31.2020  -17.2430   19.4220 C   0  0  0  0  0  2  0  0  0  0  0  0
  -31.2810  -14.7090   19.5100 C   0  0  0  0  0  0  0  0  0  0  0  0
  -30.9910  -12.3950   18.6530 C   0  0  0  0  0  2  0  0  0  0  0  0
  -30.0090  -12.4000   17.4630 C   0  0  0  0  0  2  0  0  0  0  0  0
  -28.5610  -12.2550   17.9630 C   0  0  0  0  0  2  0  0  0  0  0  0
  -28.2300  -13.2240   19.1300 C   0  0  0  0  0  3  0  0  0  0  0  0
  -29.3340  -13.2250   20.2120 C   0  0  0  0  0  2  0  0  0  0  0  0
  -30.6090  -13.5120   19.5440 N   0  0  0  0  0  0  0  0  0  0  0  0
  -32.4440  -14.7550   19.1050 O   0  0  0  0  0  0  0  0  0  0  0  0
  -30.5960  -15.8860   19.7110 N   0  0  0  0  0  0  0  0  0  0  0  0
  -29.6260  -15.8340   19.9820 H   0  0  0  0  0  0  0  0  0  0  0  0
  -25.8790  -13.8400   19.9550 C   0  0  0  0  0  0  0  0  0  0  0  0
  -24.8320  -13.0810   20.4010 C   0  0  0  0  0  0  0  0  0  0  0  0
  -25.2860  -11.7270   20.3690 C   0  0  0  0  0  0  0  0  0  0  0  0
  -26.9100  -12.9530   19.6930 N   0  0  0  0  0  0  0  0  0  0  0  0
  -26.5610  -11.6770   20.0000 N   0  0  0  0  0  0  0  0  0  0  0  0
  -24.5610  -10.4740   20.6120 C   0  0  0  0  0  0  0  0  0  0  0  0
  -24.9740   -9.5610   21.6070 C   0  0  0  0  0  3  0  0  0  0  0  0
  -24.2470   -8.3730   21.8340 C   0  0  0  0  0  3  0  0  0  0  0  0
  -23.0930   -8.0890   21.0660 C   0  0  0  0  0  0  0  0  0  0  0  0
  -22.7000   -8.9890   20.0610 C   0  0  0  0  0  3  0  0  0  0  0  0
  -23.4270  -10.1690   19.8320 C   0  0  0  0  0  3  0  0  0  0  0  0
  -22.3400   -6.9470   21.2000 O   0  0  0  0  0  0  0  0  0  0  0  0
  -22.1420   -6.3560   22.4220 C   0  0  0  0  0  0  0  0  0  0  0  0
  -21.5520   -7.0510   23.4990 C   0  0  0  0  0  3  0  0  0  0  0  0
  -21.3030   -6.3840   24.7170 C   0  0  0  0  0  3  0  0  0  0  0  0
  -21.6340   -5.0230   24.8540 C   0  0  0  0  0  0  0  0  0  0  0  0
  -22.2180   -4.3280   23.7810 C   0  0  0  0  0  3  0  0  0  0  0  0
  -22.4680   -4.9930   22.5660 C   0  0  0  0  0  0  0  0  0  0  0  0
  -23.0110   -4.3120   21.5280 F   0  0  0  0  0  0  0  0  0  0  0  0
  -21.3890   -4.3800   26.0200 F   0  0  0  0  0  0  0  0  0  0  0  0
  -23.4540  -13.5750   20.7340 C   0  0  0  0  0  0  0  0  0  0  0  0
  -22.7890  -12.9330   21.6870 N   0  0  0  0  0  0  0  0  0  0  0  0
  -22.9790  -14.5680   20.1850 O   0  0  0  0  0  0  0  0  0  0  0  0
  -23.1860  -12.1310   22.1540 H   0  0  0  0  0  0  0  0  0  0  0  0
  -21.8680  -13.2490   21.9580 H   0  0  0  0  0  0  0  0  0  0  0  0
  -26.0280  -15.2010   19.7220 N   0  0  0  0  0  0  0  0  0  0  0  0
  -25.2560  -15.8490   19.8320 H   0  0  0  0  0  0  0  0  0  0  0  0
  -26.8360  -15.6190   19.2800 H   0  0  0  0  0  0  0  0  0  0  0  0
  -29.2480  -22.5830   20.7920 O   0  0  0  0  0  0  0  0  0  0  0  0
  -29.9420  -23.8480   20.5180 C   0  0  0  0  0  2  0  0  0  0  0  0
  -28.9480  -25.0010   20.0420 C   0  0  0  0  0  2  0  0  0  0  0  0
  -29.0920  -26.4390   20.4010 O   0  0  0  0  0  0  0  0  0  0  0  0
  -24.6770  -31.4180   23.2370 C   0  0  0  0  0  0  0  0  0  0  0  0
  -27.9460  -27.2460   20.2550 C   0  0  0  0  0  0  0  0  0  0  0  0
  -23.7850  -30.0770   21.3690 C   0  0  0  0  0  3  0  0  0  0  0  0
  -25.5020  -28.7280   20.0450 C   0  0  0  0  0  0  0  0  0  0  0  0
  -26.3030  -30.5530   21.5400 C   0  0  0  0  0  2  0  0  0  0  0  0
  -26.5550  -29.2340   20.8180 C   0  0  0  0  0  0  0  0  0  0  0  0
  -27.7820  -28.5070   20.9150 C   0  0  0  0  0  3  0  0  0  0  0  0
  -26.8640  -26.8050   19.4550 C   0  0  0  0  0  3  0  0  0  0  0  0
  -25.6610  -27.5210   19.3550 C   0  0  0  0  0  3  0  0  0  0  0  0
  -24.2150  -29.5240   19.9870 C   0  0  0  0  0  2  0  0  0  0  0  0
  -24.9320  -30.6960   22.1080 N   0  0  0  0  0  0  0  0  0  0  0  0
  -23.5180  -31.5930   23.6420 O   0  0  0  0  0  0  0  0  0  0  0  0
  -23.0770  -28.9530   22.1640 C   0  0  0  0  0  0  0  0  0  0  0  0
  -21.7830  -28.7280   21.8760 N   0  0  0  0  0  0  0  0  0  0  0  0
  -23.6940  -28.2910   23.0010 O   0  0  0  0  0  0  0  0  0  0  0  0
  -21.3440  -29.3200   21.1850 H   0  0  0  0  0  0  0  0  0  0  0  0
  -18.4040  -27.4440   22.0100 C   0  0  0  0  0  0  0  0  0  0  0  0
  -20.9350  -27.6970   22.4750 C   0  0  0  0  0  3  0  0  0  0  0  0
  -21.0990  -26.3450   21.7410 C   0  0  0  0  0  2  0  0  0  0  0  0
  -20.0690  -26.1330   20.6270 C   0  0  0  0  0  2  0  0  0  0  0  0
  -18.6470  -26.1870   21.1930 C   0  0  0  0  0  2  0  0  0  0  0  0
  -19.4790  -28.1630   22.5990 C   0  0  0  0  0  0  0  0  0  0  0  0
  -19.2010  -29.3450   23.3180 C   0  0  0  0  0  3  0  0  0  0  0  0
  -17.8780  -29.8070   23.4590 C   0  0  0  0  0  3  0  0  0  0  0  0
  -16.8170  -29.0850   22.8870 C   0  0  0  0  0  3  0  0  0  0  0  0
  -17.0800  -27.9050   22.1680 C   0  0  0  0  0  3  0  0  0  0  0  0
  -25.8250  -32.0780   24.0600 C   0  0  0  0  0  3  0  0  0  0  0  0
  -25.4360  -33.4690   24.3290 N   0  0  0  0  0  0  0  0  0  0  0  0
  -25.8270  -34.5230   23.6010 C   0  0  0  0  0  0  0  0  0  0  0  0
  -26.6210  -34.4300   22.6610 O   0  0  0  0  0  0  0  0  0  0  0  0
  -24.7440  -33.6130   25.0490 H   0  0  0  0  0  0  0  0  0  0  0  0
  -24.1140  -36.2660   23.0010 C   0  0  0  0  0  1  0  0  0  0  0  0
  -25.2460  -35.9010   23.9750 C   0  0  0  0  0  3  0  0  0  0  0  0
  -27.2160  -36.8600   25.0860 C   0  0  0  0  0  1  0  0  0  0  0  0
  -26.2560  -36.9820   23.9910 N   0  0  0  0  0  0  0  0  0  0  0  0
  -25.8090  -37.8920   24.0620 H   0  0  0  0  0  0  0  0  0  0  0  0
  -26.1370  -31.3180   25.4080 C   0  0  1  0  0  0  0  0  0  0  0  0
  -24.8820  -31.0270   26.2640 C   0  0  0  0  0  1  0  0  0  0  0  0
  -26.8380  -29.9680   25.1270 C   0  0  0  0  0  1  0  0  0  0  0  0
  -27.1170  -32.1550   26.2640 C   0  0  0  0  0  1  0  0  0  0  0  0
  2  4  2  0
  2  6  1  0
  3  9  1  0
  3  1  2  0
  4  3  1  0
  5  1  1  0
  5 49  1  0
  6  5  2  0
  7  8  1  0
  7  9  1  0
  8  9  1  0
 10  4  1  0
 10 19  1  0
 11 17  1  0
 11 19  1  0
 12 17  1  0
 13 14  1  0
 13 12  1  0
 15 14  1  0
 15 24  1  0
 15 16  1  0
 17 16  1  0
 18 11  2  0
 19 20  1  0
 21 22  2  0
 22 41  1  0
 23 22  1  0
 23 26  1  0
 24 21  1  0
 24 25  1  0
 25 23  2  0
 26 27  1  0
 27 28  2  0
 29 32  1  0
 29 28  1  0
 30 29  2  0
 31 30  1  0
 31 26  2  0
 32 33  1  0
 33 38  2  0
 33 34  1  0
 34 35  2  0
 35 36  1  0
 36 40  1  0
 37 36  2  0
 38 37  1  0
 39 38  1  0
 41 42  1  0
 42 45  1  0
 42 44  1  0
 43 41  2  0
 46 47  1  0
 46 21  1  0
 48 46  1  0
 50 49  1  0
 51 52  1  0
 51 50  1  0
 53 64  2  0
 54 52  1  0
 54 59  1  0
 55 63  1  0
 55 65  1  0
 56 58  1  0
 57 63  1  0
 58 59  2  0
 58 57  1  0
 60 54  2  0
 61 60  1  0
 61 56  2  0
 62 56  1  0
 62 55  1  0
 63 53  1  0
 65 67  2  0
 66 65  1  0
 68 66  1  0
 69 78  2  0
 69 74  1  0
 70 66  1  0
 70 74  1  0
 71 70  1  0
 72 73  1  0
 72 71  1  0
 73 69  1  0
 74 75  2  0
 75 76  1  0
 77 76  2  0
 78 77  1  0
 79 53  1  0
 79 80  1  0
 79 89  1  0
 80 83  1  0
 81 85  1  0
 81 80  1  0
 82 81  2  0
 85 84  1  0
 85 87  1  0
 87 88  1  0
 87 86  1  0
 89 90  1  1
 89 92  1  0
 91 89  1  0
M  ISO  4  11 100  19 100  51 101  52 101
M  END
>  <TORSDO>  (67) 
F 21

>  <SCORE>  (67) 
-11.203

>  <name>  (67) 
67

>  <ligand_id>  (67) 
67

>  <original_smiles>  (67) 
[H]c1nc(OC([H])([H])C([H])([H])Oc2c([H])c([H])c3c(c2[H])C([H])([H])N(C(=O)C([H])(N([H])C(=O)C([H])(N([H])C([H])([H])[H])C([H])([H])[H])C(C([H])([H])[H])(C([H])([H])[H])C([H])([H])[H])C([H])(C(=O)N([H])C2([H])c4c([H])c([H])c([H])c([H])c4C([H])([H])C([H])([H])C2([H])[H])C3([H])[H])c([H])c(C2([H])C([H])([H])C2([H])[H])c1C([H])([H])N([H])C(=O)N1C([H])([H])C([H])([H])C([H])([H])C([H])(n2nc(-c3c([H])c([H])c(Oc4c([H])c([H])c(F)c([H])c4F)c([H])c3[H])c(C(=O)N([H])[H])c2N([H])[H])C1([H])[H]

>  <smiles>  (67) 
[H]c1nc(OC([H])([H])C([H])([H])Oc2c([H])c([H])c3c(c2[H])C([H])([H])N(C(=O)C([H])(N([H])C(=O)C([H])(N([H])C([H])([H])[H])C([H])([H])[H])C(C([H])([H])[H])(C([H])([H])[H])C([H])([H])[H])C([H])(C(=O)N([H])C2([H])c4c([H])c([H])c([H])c([H])c4C([H])([H])C([H])([H])C2([H])[H])C3([H])[H])c([H])c(C2([H])C([H])([H])C2([H])[H])c1C([H])([H])N([H])C(=O)N1C([H])([H])C([H])([H])C([H])([H])C([H])(n2nc(-c3c([H])c([H])c(Oc4c([H])c([H])c(F)c([H])c4F)c([H])c3[H])c(C(=O)N([H])[H])c2N([H])[H])C1([H])[H]

$$$$
68:0:0
     RDKit          3D

103114  0  0  1  0  0  0  0  0999 V2000
  -28.6010  -20.0320   21.7270 C   0  0  0  0  0  2  0  0  0  0  0  0
  -29.0670  -18.7550   22.4270 C   0  0  0  0  0  2  0  0  0  0  0  0
  -30.0660  -20.3990   21.4450 C   0  0  0  0  0  3  0  0  0  0  0  0
  -30.4370  -19.1270   22.1260 N   0  0  2  0  0  4  0  0  0  0  0  0
  -30.8560  -19.3840   23.0070 H   0  0  0  0  0  0  0  0  0  0  0  0
  -31.9110  -17.2100   22.6490 C   0  0  0  0  0  1  0  0  0  0  0  0
  -31.3650  -18.1030   21.5210 C   0  0  0  0  0  3  0  0  0  0  0  0
  -30.9730  -17.2330   20.2460 C   0  0  0  0  0  0  0  0  0  0  0  0
  -31.2180  -14.7190   19.8870 C   0  0  0  0  0  0  0  0  0  0  0  0
  -30.7010  -12.6980   18.5630 C   0  0  0  0  0  2  0  0  0  0  0  0
  -29.7090  -13.0650   17.4410 C   0  0  0  0  0  2  0  0  0  0  0  0
  -28.2580  -12.9510   17.9460 C   0  0  0  0  0  2  0  0  0  0  0  0
  -28.0420  -13.6750   19.2990 C   0  0  0  0  0  3  0  0  0  0  0  0
  -29.1490  -13.3280   20.3230 C   0  0  0  0  0  2  0  0  0  0  0  0
  -30.4530  -13.6060   19.7000 N   0  0  0  0  0  0  0  0  0  0  0  0
  -32.3350  -14.8280   19.3780 O   0  0  0  0  0  0  0  0  0  0  0  0
  -30.6120  -15.7910   20.4620 N   0  0  0  0  0  4  0  0  0  0  0  0
  -29.7100  -15.6040   20.8750 H   0  0  0  0  0  0  0  0  0  0  0  0
  -25.6950  -14.3430   20.1260 C   0  0  0  0  0  0  0  0  0  0  0  0
  -24.6260  -13.5970   20.5370 C   0  0  0  0  0  0  0  0  0  0  0  0
  -25.0520  -12.2360   20.4810 C   0  0  0  0  0  0  0  0  0  0  0  0
  -26.7060  -13.4370   19.8400 N   0  0  0  0  0  0  0  0  0  0  0  0
  -26.3250  -12.1640   20.1150 N   0  0  0  0  0  0  0  0  0  0  0  0
  -24.3040  -10.9930   20.6990 C   0  0  0  0  0  0  0  0  0  0  0  0
  -24.7100  -10.0480   21.6660 C   0  0  0  0  0  3  0  0  0  0  0  0
  -23.9630   -8.8680   21.8690 C   0  0  0  0  0  3  0  0  0  0  0  0
  -22.7980   -8.6280   21.1040 C   0  0  0  0  0  0  0  0  0  0  0  0
  -22.4120   -9.5600   20.1260 C   0  0  0  0  0  3  0  0  0  0  0  0
  -23.1580  -10.7320   19.9210 C   0  0  0  0  0  3  0  0  0  0  0  0
  -22.0240   -7.4980   21.2150 O   0  0  0  0  0  0  0  0  0  0  0  0
  -21.8910   -6.8310   22.4070 C   0  0  0  0  0  0  0  0  0  0  0  0
  -21.4320   -7.4780   23.5750 C   0  0  0  0  0  3  0  0  0  0  0  0
  -21.2430   -6.7400   24.7610 C   0  0  0  0  0  3  0  0  0  0  0  0
  -21.5020   -5.3570   24.7780 C   0  0  0  0  0  0  0  0  0  0  0  0
  -21.9550   -4.7090   23.6140 C   0  0  0  0  0  3  0  0  0  0  0  0
  -22.1450   -5.4450   22.4310 C   0  0  0  0  0  0  0  0  0  0  0  0
  -22.5610   -4.8130   21.3070 F   0  0  0  0  0  0  0  0  0  0  0  0
  -21.3150   -4.6450   25.9140 F   0  0  0  0  0  0  0  0  0  0  0  0
  -23.2560  -14.1110   20.8720 C   0  0  0  0  0  0  0  0  0  0  0  0
  -22.5630  -13.4530   21.7950 N   0  0  0  0  0  0  0  0  0  0  0  0
  -22.8080  -15.1300   20.3460 O   0  0  0  0  0  0  0  0  0  0  0  0
  -22.9390  -12.6270   22.2370 H   0  0  0  0  0  0  0  0  0  0  0  0
  -21.6440  -13.7790   22.0610 H   0  0  0  0  0  0  0  0  0  0  0  0
  -25.8740  -15.7090   19.9530 N   0  0  0  0  0  0  0  0  0  0  0  0
  -25.1170  -16.3660   20.1020 H   0  0  0  0  0  0  0  0  0  0  0  0
  -26.6830  -16.1330   19.5240 H   0  0  0  0  0  0  0  0  0  0  0  0
  -28.9310  -17.5720   16.3030 C   0  0  0  0  0  2  0  0  0  0  0  0
  -30.3530  -18.1260   16.4450 C   0  0  0  0  0  2  0  0  0  0  0  0
  -28.1130  -17.9310   17.5460 C   0  0  0  0  0  2  0  0  0  0  0  0
  -31.0350  -17.5710   17.7060 C   0  0  0  0  0  2  0  0  0  0  0  0
  -28.7830  -17.3960   18.8210 C   0  0  0  0  0  2  0  0  0  0  0  0
  -30.2440  -17.8660   19.0090 C   0  0  0  0  0  3  0  0  0  0  0  0
  -30.6670  -21.6730   22.1170 C   0  0  0  0  0  3  0  0  0  0  0  0
  -30.7460  -23.6550   20.3320 C   0  0  0  0  0  2  0  0  0  0  0  0
  -28.5970  -23.3070   21.5880 C   0  0  0  0  0  2  0  0  0  0  0  0
  -30.5300  -25.1850   20.2300 C   0  0  0  0  0  2  0  0  0  0  0  0
  -28.1460  -24.5690   20.7930 C   0  0  0  0  0  2  0  0  0  0  0  0
  -30.1360  -23.0860   21.6330 C   0  0  0  0  0  3  0  0  0  0  0  0
  -29.1900  -25.7030   20.8070 C   0  0  0  0  0  3  0  0  0  0  0  0
  -28.8930  -26.8610   20.0120 O   0  0  0  0  0  0  0  0  0  0  0  0
  -24.7190  -31.6220   23.3440 C   0  0  0  0  0  0  0  0  0  0  0  0
  -27.6780  -27.4950   20.1240 C   0  0  0  0  0  0  0  0  0  0  0  0
  -23.6540  -30.3180   21.5320 C   0  0  0  0  0  3  0  0  0  0  0  0
  -25.2360  -28.9240   20.0990 C   0  0  0  0  0  0  0  0  0  0  0  0
  -26.1730  -30.7600   21.5130 C   0  0  0  0  0  2  0  0  0  0  0  0
  -26.3400  -29.4360   20.7940 C   0  0  0  0  0  0  0  0  0  0  0  0
  -27.5640  -28.7300   20.8070 C   0  0  0  0  0  3  0  0  0  0  0  0
  -26.5630  -27.0030   19.4160 C   0  0  0  0  0  3  0  0  0  0  0  0
  -25.3400  -27.7020   19.4100 C   0  0  0  0  0  3  0  0  0  0  0  0
  -23.9700  -29.7460   20.1230 C   0  0  0  0  0  2  0  0  0  0  0  0
  -24.8630  -30.9110   22.1900 N   0  0  0  0  0  0  0  0  0  0  0  0
  -23.6020  -31.8230   23.8380 O   0  0  0  0  0  0  0  0  0  0  0  0
  -22.9810  -29.2070   22.3710 C   0  0  0  0  0  0  0  0  0  0  0  0
  -21.6680  -29.0130   22.1680 N   0  0  0  0  0  0  0  0  0  0  0  0
  -23.6380  -28.5250   23.1620 O   0  0  0  0  0  0  0  0  0  0  0  0
  -21.2000  -29.6220   21.5110 H   0  0  0  0  0  0  0  0  0  0  0  0
  -18.2890  -27.7620   22.4410 C   0  0  0  0  0  0  0  0  0  0  0  0
  -20.8360  -28.0020   22.8160 C   0  0  0  0  0  3  0  0  0  0  0  0
  -20.9670  -26.6320   22.1090 C   0  0  0  0  0  2  0  0  0  0  0  0
  -19.8990  -26.4050   21.0350 C   0  0  0  0  0  2  0  0  0  0  0  0
  -18.4950  -26.4830   21.6450 C   0  0  0  0  0  2  0  0  0  0  0  0
  -19.3880  -28.4820   22.9770 C   0  0  0  0  0  0  0  0  0  0  0  0
  -19.1430  -29.6830   23.6770 C   0  0  0  0  0  3  0  0  0  0  0  0
  -17.8310  -30.1610   23.8530 C   0  0  0  0  0  3  0  0  0  0  0  0
  -16.7450  -29.4350   23.3320 C   0  0  0  0  0  3  0  0  0  0  0  0
  -16.9750  -28.2370   22.6300 C   0  0  0  0  0  3  0  0  0  0  0  0
  -25.9480  -32.2380   24.0820 C   0  0  0  0  0  3  0  0  0  0  0  0
  -25.6020  -33.6220   24.4290 N   0  0  0  0  0  0  0  0  0  0  0  0
  -25.9810  -34.6980   23.7280 C   0  0  0  0  0  0  0  0  0  0  0  0
  -26.7240  -34.6290   22.7440 O   0  0  0  0  0  0  0  0  0  0  0  0
  -24.9440  -33.7480   25.1860 H   0  0  0  0  0  0  0  0  0  0  0  0
  -24.2610  -36.4880   23.3100 C   0  0  0  0  0  1  0  0  0  0  0  0
  -25.4490  -36.0690   24.1900 C   0  0  0  0  0  3  0  0  0  0  0  0
  -27.5110  -36.9540   25.1880 C   0  0  0  0  0  1  0  0  0  0  0  0
  -26.4760  -37.1350   24.1740 N   0  0  0  0  0  0  0  0  0  0  0  0
  -26.0500  -38.0460   24.3190 H   0  0  0  0  0  0  0  0  0  0  0  0
  -26.3720  -31.4300   25.3670 C   0  0  1  0  0  0  0  0  0  0  0  0
  -25.1970  -31.1230   26.3270 C   0  0  0  0  0  1  0  0  0  0  0  0
  -27.0250  -30.0850   24.9730 C   0  0  0  0  0  1  0  0  0  0  0  0
  -27.4370  -32.2270   26.1570 C   0  0  0  0  0  1  0  0  0  0  0  0
  -33.0180  -22.2010   23.2130 C   0  0  0  0  0  2  0  0  0  0  0  0
  -33.0490  -20.7210   22.9050 C   0  0  0  0  0  2  0  0  0  0  0  0
  -32.1970  -21.6490   22.0670 C   0  0  0  0  0  3  0  0  0  0  0  0
  1  2  1  0
  3  1  1  0
  3 53  1  0
  3  4  1  0
  4  2  1  0
  4  5  1  1
  7  4  1  0
  7  6  1  0
  8 17  2  3
  8  7  1  0
  9 17  1  0
 10 15  1  0
 11 12  1  0
 11 10  1  0
 13 12  1  0
 13 22  1  0
 13 14  1  0
 15  9  1  0
 15 14  1  0
 16  9  2  0
 17 18  1  0
 19 20  2  0
 20 39  1  0
 21 20  1  0
 21 24  1  0
 22 23  1  0
 22 19  1  0
 23 21  2  0
 24 25  1  0
 25 26  2  0
 27 30  1  0
 27 26  1  0
 28 27  2  0
 29 28  1  0
 29 24  2  0
 30 31  1  0
 31 36  2  0
 31 32  1  0
 32 33  2  0
 33 34  1  0
 34 38  1  0
 35 34  2  0
 36 35  1  0
 37 36  1  0
 39 40  1  0
 40 43  1  0
 40 42  1  0
 41 39  2  0
 44 45  1  0
 44 19  1  0
 46 44  1  0
 47 48  1  0
 47 49  1  0
 48 50  1  0
 49 51  1  0
 50 52  1  0
 51 52  1  0
 52  8  1  0
 53103  1  0
 54 58  1  0
 55 58  1  0
 56 54  1  0
 56 59  1  0
 57 59  1  0
 57 55  1  0
 58 53  1  0
 59 60  1  0
 60 62  1  0
 61 72  2  0
 62 67  1  0
 63 71  1  0
 63 73  1  0
 64 70  1  0
 64 66  1  0
 65 71  1  0
 66 67  2  0
 66 65  1  0
 68 62  2  0
 69 68  1  0
 69 64  2  0
 70 63  1  0
 71 61  1  0
 73 75  2  0
 74 73  1  0
 76 74  1  0
 77 86  2  0
 77 82  1  0
 78 74  1  0
 78 82  1  0
 79 78  1  0
 80 81  1  0
 80 79  1  0
 81 77  1  0
 82 83  2  0
 83 84  1  0
 85 84  2  0
 86 85  1  0
 87 61  1  0
 87 88  1  0
 87 97  1  0
 88 91  1  0
 89 93  1  0
 89 88  1  0
 90 89  2  0
 93 92  1  0
 95 93  1  0
 95 96  1  0
 95 94  1  0
 97100  1  1
 97 98  1  0
 99 97  1  0
102101  1  0
103102  1  0
103101  1  0
M  ISO  4   9 100  17 100  59 101  60 101
M  END
>  <TORSDO>  (68) 
F 22

>  <SCORE>  (68) 
-3.281

>  <name>  (68) 
68

>  <ligand_id>  (68) 
68

>  <original_smiles>  (68) 
[H]c1c([H])c([H])c2c(c1[H])C([H])([H])C([H])([H])C([H])([H])C2([H])N([H])C(=O)C1([H])N(C(=O)C([H])(N([H])C(=O)C([H])(N([H])C([H])([H])[H])C([H])([H])[H])C(C([H])([H])[H])(C([H])([H])[H])C([H])([H])[H])C([H])([H])c2c([H])c(OC3([H])C([H])([H])C([H])([H])C([H])(C([H])(C4([H])C([H])([H])C4([H])[H])C4([H])C([H])([H])C([H])([H])[N+]4([H])C([H])(C([H])([H])[H])C([H])(N([H])C(=O)N4C([H])([H])C([H])([H])C([H])([H])C([H])(n5nc(-c6c([H])c([H])c(Oc7c([H])c([H])c(F)c([H])c7F)c([H])c6[H])c(C(=O)N([H])[H])c5N([H])[H])C4([H])[H])C4([H])C([H])([H])C([H])([H])C([H])([H])C([H])([H])C4([H])[H])C([H])([H])C3([H])[H])c([H])c([H])c2C1([H])[H]

>  <smiles>  (68) 
[H]c1c([H])c([H])c2c(c1[H])C([H])([H])C([H])([H])C([H])([H])C2([H])N([H])C(=O)C1([H])N(C(=O)C([H])(N([H])C(=O)C([H])(N([H])C([H])([H])[H])C([H])([H])[H])C(C([H])([H])[H])(C([H])([H])[H])C([H])([H])[H])C([H])([H])c2c([H])c(OC3([H])C([H])([H])C([H])([H])C([H])(C([H])(C4([H])C([H])([H])C4([H])[H])C4([H])C([H])([H])C([H])([H])[N+]4([H])C([H])(C([H])([H])[H])C([H])(N([H])C(=O)N4C([H])([H])C([H])([H])C([H])([H])C([H])(n5nc(-c6c([H])c([H])c(Oc7c([H])c([H])c(F)c([H])c7F)c([H])c6[H])c(C(=O)N([H])[H])c5N([H])[H])C4([H])[H])C4([H])C([H])([H])C([H])([H])C([H])([H])C([H])([H])C4([H])[H])C([H])([H])C3([H])[H])c([H])c([H])c2C1([H])[H]

$$$$
69:0:0
     RDKit          3D

 99108  0  0  1  0  0  0  0  0999 V2000
  -29.3020  -20.9290   21.6830 C   0  0  0  0  0  3  0  0  0  0  0  0
  -28.1260  -21.6930   21.5620 C   0  0  0  0  0  3  0  0  0  0  0  0
  -29.0190  -22.7460   19.5620 C   0  0  0  0  0  3  0  0  0  0  0  0
  -30.3610  -21.0870   20.7640 C   0  0  0  0  0  0  0  0  0  0  0  0
  -27.9890  -22.6390   20.5270 C   0  0  0  0  0  0  0  0  0  0  0  0
  -30.2070  -21.9780   19.6720 C   0  0  0  0  0  0  0  0  0  0  0  0
  -32.3920  -20.3500   22.3500 C   0  0  0  0  0  2  0  0  0  0  0  0
  -31.6870  -20.3570   20.9950 C   0  0  0  0  0  3  0  0  0  0  0  0
  -31.8980  -18.8320   21.0300 C   0  0  0  0  0  3  0  0  0  0  0  0
  -33.0540  -19.1290   21.8990 N   0  0  0  0  0  4  0  0  0  0  0  0
  -33.2130  -18.4690   22.6420 H   0  0  0  0  0  0  0  0  0  0  0  0
  -33.9010  -19.3360   21.3960 H   0  0  0  0  0  0  0  0  0  0  0  0
  -31.0720  -17.9450   18.7870 C   0  0  0  0  0  1  0  0  0  0  0  0
  -32.2680  -18.0550   19.7440 C   0  0  0  0  0  3  0  0  0  0  0  0
  -32.9040  -16.6590   19.9760 C   0  0  0  0  0  2  0  0  0  0  0  0
  -32.3510  -14.3690   19.1240 C   0  0  0  0  0  0  0  0  0  0  0  0
  -32.0870  -11.9100   19.1500 C   0  0  0  0  0  2  0  0  0  0  0  0
  -31.1070  -11.3670   18.0970 C   0  0  0  0  0  2  0  0  0  0  0  0
  -29.6640  -11.3980   18.6310 C   0  0  0  0  0  2  0  0  0  0  0  0
  -29.2850  -12.7750   19.2370 C   0  0  0  0  0  3  0  0  0  0  0  0
  -30.3680  -13.2570   20.2270 C   0  0  0  0  0  2  0  0  0  0  0  0
  -31.6710  -13.2650   19.5390 N   0  0  0  0  0  0  0  0  0  0  0  0
  -33.2930  -14.3270   18.3330 O   0  0  0  0  0  0  0  0  0  0  0  0
  -32.0200  -15.5030   19.7680 N   0  0  0  0  0  0  0  0  0  0  0  0
  -31.2250  -15.4140   20.3810 H   0  0  0  0  0  0  0  0  0  0  0  0
  -27.1550  -13.7900   20.2730 C   0  0  0  0  0  0  0  0  0  0  0  0
  -25.9980  -13.2190   20.7300 C   0  0  0  0  0  0  0  0  0  0  0  0
  -26.1660  -11.8100   20.5720 C   0  0  0  0  0  0  0  0  0  0  0  0
  -27.9640  -12.7410   19.8670 N   0  0  0  0  0  0  0  0  0  0  0  0
  -27.3770  -11.5400   20.1030 N   0  0  0  0  0  0  0  0  0  0  0  0
  -25.2220  -10.7060   20.7840 C   0  0  0  0  0  0  0  0  0  0  0  0
  -25.3920   -9.7790   21.8370 C   0  0  0  0  0  3  0  0  0  0  0  0
  -24.4610   -8.7350   22.0300 C   0  0  0  0  0  3  0  0  0  0  0  0
  -23.3440   -8.6130   21.1690 C   0  0  0  0  0  0  0  0  0  0  0  0
  -23.1940   -9.5230   20.1090 C   0  0  0  0  0  3  0  0  0  0  0  0
  -24.1240  -10.5570   19.9140 C   0  0  0  0  0  3  0  0  0  0  0  0
  -22.4010   -7.6170   21.2650 O   0  0  0  0  0  0  0  0  0  0  0  0
  -21.8720   -7.2430   22.4740 C   0  0  0  0  0  0  0  0  0  0  0  0
  -21.1520   -8.1470   23.2860 C   0  0  0  0  0  3  0  0  0  0  0  0
  -20.5650   -7.7000   24.4870 C   0  0  0  0  0  3  0  0  0  0  0  0
  -20.6870   -6.3530   24.8730 C   0  0  0  0  0  0  0  0  0  0  0  0
  -21.3950   -5.4490   24.0630 C   0  0  0  0  0  3  0  0  0  0  0  0
  -21.9840   -5.8930   22.8660 C   0  0  0  0  0  0  0  0  0  0  0  0
  -22.6490   -5.0130   22.0790 F   0  0  0  0  0  0  0  0  0  0  0  0
  -20.1160   -5.9230   26.0220 F   0  0  0  0  0  0  0  0  0  0  0  0
  -24.7660  -13.9400   21.1960 C   0  0  0  0  0  0  0  0  0  0  0  0
  -24.0300  -13.3540   22.1330 N   0  0  0  0  0  0  0  0  0  0  0  0
  -24.4760  -15.0560   20.7640 O   0  0  0  0  0  0  0  0  0  0  0  0
  -24.2810  -12.4510   22.5070 H   0  0  0  0  0  0  0  0  0  0  0  0
  -23.1960  -13.8110   22.4760 H   0  0  0  0  0  0  0  0  0  0  0  0
  -27.5800  -15.1110   20.1470 N   0  0  0  0  0  0  0  0  0  0  0  0
  -26.9770  -15.8970   20.3670 H   0  0  0  0  0  0  0  0  0  0  0  0
  -28.4560  -15.3890   19.7260 H   0  0  0  0  0  0  0  0  0  0  0  0
  -31.1070  -22.9130   17.6380 C   0  0  0  0  0  1  0  0  0  0  0  0
  -31.2470  -22.0620   18.7670 O   0  0  0  0  0  0  0  0  0  0  0  0
  -26.8490  -23.4140   20.5350 O   0  0  0  0  0  0  0  0  0  0  0  0
  -26.9370  -24.8010   20.2000 C   0  0  0  0  0  2  0  0  0  0  0  0
  -26.7300  -25.0140   18.6810 C   0  0  0  0  0  2  0  0  0  0  0  0
  -26.9060  -26.3790   18.2790 O   0  0  0  0  0  0  0  0  0  0  0  0
  -25.3600  -30.8060   23.6020 C   0  0  0  0  0  0  0  0  0  0  0  0
  -26.0080  -27.3100   18.7550 C   0  0  0  0  0  0  0  0  0  0  0  0
  -23.5430  -30.4130   21.9740 C   0  0  0  0  0  3  0  0  0  0  0  0
  -24.2160  -29.2050   19.8310 C   0  0  0  0  0  0  0  0  0  0  0  0
  -25.9970  -30.2120   21.2720 C   0  0  0  0  0  2  0  0  0  0  0  0
  -25.5540  -29.1970   20.2420 C   0  0  0  0  0  0  0  0  0  0  0  0
  -26.4570  -28.2600   19.6940 C   0  0  0  0  0  3  0  0  0  0  0  0
  -24.6590  -27.3420   18.3320 C   0  0  0  0  0  3  0  0  0  0  0  0
  -23.7620  -28.2830   18.8700 C   0  0  0  0  0  3  0  0  0  0  0  0
  -23.3120  -30.2460   20.4490 C   0  0  0  0  0  2  0  0  0  0  0  0
  -24.9970  -30.4660   22.3350 N   0  0  0  0  0  0  0  0  0  0  0  0
  -24.5090  -31.1130   24.4490 O   0  0  0  0  0  0  0  0  0  0  0  0
  -22.7740  -29.2950   22.7130 C   0  0  0  0  0  0  0  0  0  0  0  0
  -21.4370  -29.3190   22.6000 N   0  0  0  0  0  0  0  0  0  0  0  0
  -23.3780  -28.4220   23.3430 O   0  0  0  0  0  0  0  0  0  0  0  0
  -21.0270  -30.0730   22.0690 H   0  0  0  0  0  0  0  0  0  0  0  0
  -17.9680  -28.2980   22.6670 C   0  0  0  0  0  0  0  0  0  0  0  0
  -20.5040  -28.3490   23.1720 C   0  0  0  0  0  3  0  0  0  0  0  0
  -20.5800  -27.0000   22.4220 C   0  0  0  0  0  2  0  0  0  0  0  0
  -19.5490  -26.8770   21.2930 C   0  0  0  0  0  2  0  0  0  0  0  0
  -18.1270  -27.0330   21.8420 C   0  0  0  0  0  2  0  0  0  0  0  0
  -19.0870  -28.9240   23.2780 C   0  0  0  0  0  0  0  0  0  0  0  0
  -18.8930  -30.1150   24.0110 C   0  0  0  0  0  3  0  0  0  0  0  0
  -17.6090  -30.6740   24.1460 C   0  0  0  0  0  3  0  0  0  0  0  0
  -16.5020  -30.0420   23.5540 C   0  0  0  0  0  3  0  0  0  0  0  0
  -16.6820  -28.8570   22.8170 C   0  0  0  0  0  3  0  0  0  0  0  0
  -26.8580  -30.8500   24.0420 C   0  0  0  0  0  3  0  0  0  0  0  0
  -27.0340  -32.0470   24.8770 N   0  0  0  0  0  0  0  0  0  0  0  0
  -27.6380  -33.1720   24.4760 C   0  0  0  0  0  0  0  0  0  0  0  0
  -28.1750  -33.2880   23.3710 O   0  0  0  0  0  0  0  0  0  0  0  0
  -26.5680  -32.0480   25.7740 H   0  0  0  0  0  0  0  0  0  0  0  0
  -26.5800  -35.3820   25.0460 C   0  0  0  0  0  1  0  0  0  0  0  0
  -27.6490  -34.3580   25.4590 C   0  0  0  0  0  3  0  0  0  0  0  0
  -29.9810  -34.1980   26.2050 C   0  0  0  0  0  1  0  0  0  0  0  0
  -28.9650  -35.0250   25.5590 N   0  0  0  0  0  0  0  0  0  0  0  0
  -28.8890  -35.8970   26.0760 H   0  0  0  0  0  0  0  0  0  0  0  0
  -27.3210  -29.5570   24.8170 C   0  0  1  0  0  0  0  0  0  0  0  0
  -26.3930  -29.1790   25.9970 C   0  0  0  0  0  1  0  0  0  0  0  0
  -27.3960  -28.3420   23.8640 C   0  0  0  0  0  1  0  0  0  0  0  0
  -28.7490  -29.7680   25.3770 C   0  0  0  0  0  1  0  0  0  0  0  0
  2  1  1  0
  3  6  2  0
  3  5  1  0
  4  1  2  0
  5 56  1  0
  5  2  2  0
  6  4  1  0
  8  4  1  0
  8  9  1  0
  8  7  1  0
  9 14  1  0
  9 10  1  0
 10  7  1  0
 10 11  1  0
 12 10  1  0
 14 13  1  0
 14 15  1  0
 16 22  1  0
 16 24  1  0
 17 22  1  0
 18 19  1  0
 18 17  1  0
 20 19  1  0
 20 29  1  0
 20 21  1  0
 22 21  1  0
 23 16  2  0
 24 15  1  0
 24 25  1  0
 26 27  2  0
 27 46  1  0
 28 27  1  0
 28 31  1  0
 29 30  1  0
 29 26  1  0
 30 28  2  0
 31 32  1  0
 32 33  2  0
 34 37  1  0
 34 33  1  0
 35 34  2  0
 36 35  1  0
 36 31  2  0
 37 38  1  0
 38 43  2  0
 38 39  1  0
 39 40  2  0
 40 41  1  0
 41 45  1  0
 42 41  2  0
 43 42  1  0
 44 43  1  0
 46 47  1  0
 47 50  1  0
 47 49  1  0
 48 46  2  0
 51 26  1  0
 51 52  1  0
 53 51  1  0
 54 55  1  0
 55  6  1  0
 57 56  1  0
 58 57  1  0
 59 58  1  0
 59 61  1  0
 60 71  2  0
 61 66  1  0
 62 70  1  0
 62 72  1  0
 63 65  1  0
 63 69  1  0
 64 70  1  0
 65 64  1  0
 66 65  2  0
 67 61  2  0
 67 68  1  0
 68 63  2  0
 69 62  1  0
 70 60  1  0
 72 74  2  0
 73 72  1  0
 75 73  1  0
 76 85  2  0
 76 81  1  0
 77 73  1  0
 77 81  1  0
 78 77  1  0
 79 80  1  0
 79 78  1  0
 80 76  1  0
 81 82  2  0
 82 83  1  0
 84 83  2  0
 85 84  1  0
 86 60  1  0
 86 96  1  0
 86 87  1  0
 87 90  1  0
 88 87  1  0
 88 92  1  0
 89 88  2  0
 92 91  1  0
 92 94  1  0
 94 95  1  0
 94 93  1  0
 96 99  1  1
 96 97  1  0
 98 96  1  0
M  ISO  4  16 100  24 100  58 101  59 101
M  END
>  <TORSDO>  (69) 
F 23

>  <SCORE>  (69) 
-8.919

>  <name>  (69) 
69

>  <ligand_id>  (69) 
69

>  <original_smiles>  (69) 
[H]c1c([H])c([H])c2c(c1[H])C([H])([H])C([H])([H])C([H])([H])C2([H])N([H])C(=O)C1([H])N(C(=O)C([H])(N([H])C(=O)C([H])(N([H])C([H])([H])[H])C([H])([H])[H])C(C([H])([H])[H])(C([H])([H])[H])C([H])([H])[H])C([H])([H])c2c([H])c(OC([H])([H])C([H])([H])Oc3c([H])c([H])c(C4([H])C([H])([H])[N+]([H])([H])C4([H])C([H])(C([H])([H])[H])C([H])([H])N([H])C(=O)N4C([H])([H])C([H])([H])C([H])([H])C([H])(n5nc(-c6c([H])c([H])c(Oc7c([H])c([H])c(F)c([H])c7F)c([H])c6[H])c(C(=O)N([H])[H])c5N([H])[H])C4([H])[H])c(OC([H])([H])[H])c3[H])c([H])c([H])c2C1([H])[H]

>  <smiles>  (69) 
[H]c1c([H])c([H])c2c(c1[H])C([H])([H])C([H])([H])C([H])([H])C2([H])N([H])C(=O)C1([H])N(C(=O)C([H])(N([H])C(=O)C([H])(N([H])C([H])([H])[H])C([H])([H])[H])C(C([H])([H])[H])(C([H])([H])[H])C([H])([H])[H])C([H])([H])c2c([H])c(OC([H])([H])C([H])([H])Oc3c([H])c([H])c(C4([H])C([H])([H])[N+]([H])([H])C4([H])C([H])(C([H])([H])[H])C([H])([H])N([H])C(=O)N4C([H])([H])C([H])([H])C([H])([H])C([H])(n5nc(-c6c([H])c([H])c(Oc7c([H])c([H])c(F)c([H])c7F)c([H])c6[H])c(C(=O)N([H])[H])c5N([H])[H])C4([H])[H])c(OC([H])([H])[H])c3[H])c([H])c([H])c2C1([H])[H]

$$$$
70:0:0
     RDKit          3D

 92101  0  0  1  0  0  0  0  0999 V2000
  -30.4120  -19.9950   19.6400 C   0  0  0  0  0  3  0  0  0  0  0  0
  -28.2540  -20.9340   20.1270 C   0  0  0  0  0  3  0  0  0  0  0  0
  -29.8590  -18.6850   19.7470 C   0  0  0  0  0  0  0  0  0  0  0  0
  -29.6110  -21.1600   19.8280 C   0  0  0  0  0  0  0  0  0  0  0  0
  -28.4950  -18.6130   20.1070 C   0  0  0  0  0  0  0  0  0  0  0  0
  -27.7160  -19.7070   20.2760 N   0  0  0  0  0  0  0  0  0  0  0  0
  -30.4590  -16.7460   18.1520 C   0  0  0  0  0  2  0  0  0  0  0  0
  -30.7170  -17.4310   19.4640 C   0  0  0  0  0  3  0  0  0  0  0  0
  -30.2640  -15.9350   19.4190 C   0  0  0  0  0  3  0  0  0  0  0  0
  -31.2240  -14.7350   19.4690 C   0  0  0  0  0  0  0  0  0  0  0  0
  -31.1010  -12.3200   18.9690 C   0  0  0  0  0  2  0  0  0  0  0  0
  -30.0960  -12.1530   17.8050 C   0  0  0  0  0  2  0  0  0  0  0  0
  -28.6510  -12.0340   18.3360 C   0  0  0  0  0  2  0  0  0  0  0  0
  -28.3050  -13.1370   19.3710 C   0  0  0  0  0  3  0  0  0  0  0  0
  -29.4190  -13.2590   20.4350 C   0  0  0  0  0  2  0  0  0  0  0  0
  -30.6900  -13.5080   19.7390 N   0  0  0  0  0  0  0  0  0  0  0  0
  -32.3750  -14.8480   19.0340 O   0  0  0  0  0  0  0  0  0  0  0  0
  -26.0490  -13.8520   20.3780 C   0  0  0  0  0  0  0  0  0  0  0  0
  -24.9720  -13.1280   20.8150 C   0  0  0  0  0  0  0  0  0  0  0  0
  -25.3290  -11.7550   20.6550 C   0  0  0  0  0  0  0  0  0  0  0  0
  -26.9960  -12.9210   19.9800 N   0  0  0  0  0  0  0  0  0  0  0  0
  -26.5730  -11.6510   20.2060 N   0  0  0  0  0  0  0  0  0  0  0  0
  -24.5390  -10.5310   20.8480 C   0  0  0  0  0  0  0  0  0  0  0  0
  -24.9290   -9.5390   21.7730 C   0  0  0  0  0  3  0  0  0  0  0  0
  -24.1420   -8.3810   21.9530 C   0  0  0  0  0  3  0  0  0  0  0  0
  -22.9520   -8.2080   21.2080 C   0  0  0  0  0  0  0  0  0  0  0  0
  -22.5800   -9.1880   20.2720 C   0  0  0  0  0  3  0  0  0  0  0  0
  -23.3670  -10.3380   20.0890 C   0  0  0  0  0  3  0  0  0  0  0  0
  -22.1390   -7.1030   21.2980 O   0  0  0  0  0  0  0  0  0  0  0  0
  -21.9420   -6.4490   22.4880 C   0  0  0  0  0  0  0  0  0  0  0  0
  -21.4090   -7.1040   23.6190 C   0  0  0  0  0  3  0  0  0  0  0  0
  -21.1580   -6.3770   24.8010 C   0  0  0  0  0  3  0  0  0  0  0  0
  -21.4310   -4.9970   24.8500 C   0  0  0  0  0  0  0  0  0  0  0  0
  -21.9590   -4.3420   23.7230 C   0  0  0  0  0  3  0  0  0  0  0  0
  -22.2100   -5.0660   22.5440 C   0  0  0  0  0  0  0  0  0  0  0  0
  -22.6980   -4.4270   21.4540 F   0  0  0  0  0  0  0  0  0  0  0  0
  -21.1850   -4.2970   25.9810 F   0  0  0  0  0  0  0  0  0  0  0  0
  -23.6490  -13.6770   21.2660 C   0  0  0  0  0  0  0  0  0  0  0  0
  -22.9770  -12.9820   22.1780 N   0  0  0  0  0  0  0  0  0  0  0  0
  -23.2250  -14.7520   20.8460 O   0  0  0  0  0  0  0  0  0  0  0  0
  -23.3340  -12.1110   22.5400 H   0  0  0  0  0  0  0  0  0  0  0  0
  -22.0920  -13.3300   22.5220 H   0  0  0  0  0  0  0  0  0  0  0  0
  -26.2950  -15.2170   20.2680 N   0  0  0  0  0  0  0  0  0  0  0  0
  -25.5920  -15.9110   20.4950 H   0  0  0  0  0  0  0  0  0  0  0  0
  -27.1360  -15.6170   19.8740 H   0  0  0  0  0  0  0  0  0  0  0  0
  -26.4910  -17.2900   20.3610 C   0  0  0  0  0  1  0  0  0  0  0  0
  -27.9130  -17.3790   20.3050 O   0  0  0  0  0  0  0  0  0  0  0  0
  -30.1620  -22.4410   19.7630 O   0  0  0  0  0  0  0  0  0  0  0  0
  -29.3740  -23.5360   19.2310 C   0  0  0  0  0  2  0  0  0  0  0  0
  -28.6140  -24.4750   20.2240 C   0  0  0  0  0  2  0  0  0  0  0  0
  -29.2040  -25.8790   20.5840 C   0  0  0  0  0  2  0  0  0  0  0  0
  -28.9420  -26.9970   19.7080 O   0  0  0  0  0  0  0  0  0  0  0  0
  -24.5890  -31.6360   23.0710 C   0  0  0  0  0  0  0  0  0  0  0  0
  -27.7230  -27.6410   19.8090 C   0  0  0  0  0  0  0  0  0  0  0  0
  -23.5740  -30.2710   21.2740 C   0  0  0  0  0  3  0  0  0  0  0  0
  -25.2130  -28.9630   19.8160 C   0  0  0  0  0  0  0  0  0  0  0  0
  -26.0700  -30.8390   21.2260 C   0  0  0  0  0  2  0  0  0  0  0  0
  -26.3000  -29.5250   20.5000 C   0  0  0  0  0  0  0  0  0  0  0  0
  -27.5590  -28.8710   20.4980 C   0  0  0  0  0  3  0  0  0  0  0  0
  -26.6230  -27.1040   19.1140 C   0  0  0  0  0  3  0  0  0  0  0  0
  -25.3710  -27.7510   19.1200 C   0  0  0  0  0  3  0  0  0  0  0  0
  -23.9010  -29.7150   19.8610 C   0  0  0  0  0  2  0  0  0  0  0  0
  -24.7580  -30.9280   21.9170 N   0  0  0  0  0  0  0  0  0  0  0  0
  -23.4680  -31.7780   23.5790 O   0  0  0  0  0  0  0  0  0  0  0  0
  -22.9710  -29.1320   22.1270 C   0  0  0  0  0  0  0  0  0  0  0  0
  -21.6630  -28.8810   21.9540 N   0  0  0  0  0  0  0  0  0  0  0  0
  -23.6780  -28.4780   22.8980 O   0  0  0  0  0  0  0  0  0  0  0  0
  -21.1500  -29.4650   21.3080 H   0  0  0  0  0  0  0  0  0  0  0  0
  -18.3520  -27.4810   22.3210 C   0  0  0  0  0  0  0  0  0  0  0  0
  -20.8960  -27.8260   22.6160 C   0  0  0  0  0  3  0  0  0  0  0  0
  -21.0620  -26.4740   21.8840 C   0  0  0  0  0  2  0  0  0  0  0  0
  -19.9680  -26.2150   20.8420 C   0  0  0  0  0  2  0  0  0  0  0  0
  -18.5860  -26.2230   21.5000 C   0  0  0  0  0  2  0  0  0  0  0  0
  -19.4360  -28.2420   22.8310 C   0  0  0  0  0  0  0  0  0  0  0  0
  -19.1640  -29.4210   23.5570 C   0  0  0  0  0  3  0  0  0  0  0  0
  -17.8390  -29.8420   23.7770 C   0  0  0  0  0  3  0  0  0  0  0  0
  -16.7680  -29.0760   23.2840 C   0  0  0  0  0  3  0  0  0  0  0  0
  -17.0260  -27.8960   22.5620 C   0  0  0  0  0  3  0  0  0  0  0  0
  -25.7900  -32.3190   23.7950 C   0  0  0  0  0  3  0  0  0  0  0  0
  -25.3860  -33.6930   24.1250 N   0  0  0  0  0  0  0  0  0  0  0  0
  -25.7040  -34.7740   23.4000 C   0  0  0  0  0  0  0  0  0  0  0  0
  -26.4380  -34.7240   22.4090 O   0  0  0  0  0  0  0  0  0  0  0  0
  -24.7380  -33.8010   24.8900 H   0  0  0  0  0  0  0  0  0  0  0  0
  -23.8870  -36.4630   22.9790 C   0  0  0  0  0  1  0  0  0  0  0  0
  -25.1130  -36.1260   23.8440 C   0  0  0  0  0  3  0  0  0  0  0  0
  -27.1450  -37.1340   24.7820 C   0  0  0  0  0  1  0  0  0  0  0  0
  -26.0830  -37.2400   23.7850 N   0  0  0  0  0  0  0  0  0  0  0  0
  -25.6150  -38.1330   23.9150 H   0  0  0  0  0  0  0  0  0  0  0  0
  -26.2550  -31.5490   25.0900 C   0  0  1  0  0  0  0  0  0  0  0  0
  -25.1030  -31.2330   26.0720 C   0  0  0  0  0  1  0  0  0  0  0  0
  -26.9390  -30.2130   24.7170 C   0  0  0  0  0  1  0  0  0  0  0  0
  -27.3100  -32.3880   25.8490 C   0  0  0  0  0  1  0  0  0  0  0  0
  1  3  2  0
  1  4  1  0
  2  6  1  0
  3  5  1  0
  4  2  2  0
  5  6  2  0
  5 47  1  0
  7  9  1  0
  7  8  1  0
  8  3  1  0
  9  8  1  0
  9 10  1  0
 10 16  1  0
 11 16  1  0
 12 13  1  0
 12 11  1  0
 14 13  1  0
 14 21  1  0
 14 15  1  0
 16 15  1  0
 17 10  2  0
 18 19  2  0
 19 38  1  0
 20 19  1  0
 20 23  1  0
 21 22  1  0
 21 18  1  0
 22 20  2  0
 23 24  1  0
 24 25  2  0
 26 29  1  0
 26 25  1  0
 27 26  2  0
 28 27  1  0
 28 23  2  0
 29 30  1  0
 30 35  2  0
 30 31  1  0
 31 32  2  0
 32 33  1  0
 33 37  1  0
 34 33  2  0
 35 34  1  0
 36 35  1  0
 38 39  1  0
 39 42  1  0
 39 41  1  0
 40 38  2  0
 43 18  1  0
 43 44  1  0
 45 43  1  0
 47 46  1  0
 48  4  1  0
 49 48  1  0
 49 50  1  0
 50 51  1  0
 52 54  1  0
 52 51  1  0
 53 64  2  0
 54 59  1  0
 55 63  1  0
 55 65  1  0
 56 62  1  0
 56 58  1  0
 57 63  1  0
 58 57  1  0
 59 58  2  0
 60 61  1  0
 60 54  2  0
 61 56  2  0
 62 55  1  0
 63 53  1  0
 65 67  2  0
 66 65  1  0
 68 66  1  0
 69 78  2  0
 69 74  1  0
 70 66  1  0
 70 74  1  0
 71 70  1  0
 72 73  1  0
 72 71  1  0
 73 69  1  0
 74 75  2  0
 75 76  1  0
 77 76  2  0
 78 77  1  0
 79 53  1  0
 79 80  1  0
 79 89  1  0
 80 83  1  0
 81 85  1  0
 81 80  1  0
 82 81  2  0
 85 84  1  0
 87 85  1  0
 87 88  1  0
 87 86  1  0
 89 92  1  1
 89 90  1  0
 91 89  1  0
M  ISO  4   9 100  10 100  51 101  52 101
M  END
>  <TORSDO>  (70) 
F 22

>  <SCORE>  (70) 
-11.449

>  <name>  (70) 
70

>  <ligand_id>  (70) 
70

>  <original_smiles>  (70) 
[H]c1nc(OC([H])([H])[H])c(C2([H])C([H])([H])C2([H])C(=O)N2C([H])([H])C([H])([H])C([H])([H])C([H])(n3nc(-c4c([H])c([H])c(Oc5c([H])c([H])c(F)c([H])c5F)c([H])c4[H])c(C(=O)N([H])[H])c3N([H])[H])C2([H])[H])c([H])c1OC([H])([H])C([H])([H])C([H])([H])Oc1c([H])c([H])c2c(c1[H])C([H])([H])N(C(=O)C([H])(N([H])C(=O)C([H])(N([H])C([H])([H])[H])C([H])([H])[H])C(C([H])([H])[H])(C([H])([H])[H])C([H])([H])[H])C([H])(C(=O)N([H])C1([H])c3c([H])c([H])c([H])c([H])c3C([H])([H])C([H])([H])C1([H])[H])C2([H])[H]

>  <smiles>  (70) 
[H]c1nc(OC([H])([H])[H])c(C2([H])C([H])([H])C2([H])C(=O)N2C([H])([H])C([H])([H])C([H])([H])C([H])(n3nc(-c4c([H])c([H])c(Oc5c([H])c([H])c(F)c([H])c5F)c([H])c4[H])c(C(=O)N([H])[H])c3N([H])[H])C2([H])[H])c([H])c1OC([H])([H])C([H])([H])C([H])([H])Oc1c([H])c([H])c2c(c1[H])C([H])([H])N(C(=O)C([H])(N([H])C(=O)C([H])(N([H])C([H])([H])[H])C([H])([H])[H])C(C([H])([H])[H])(C([H])([H])[H])C([H])([H])[H])C([H])(C(=O)N([H])C1([H])c3c([H])c([H])c([H])c([H])c3C([H])([H])C([H])([H])C1([H])[H])C2([H])[H]

$$$$
71:0:0
     RDKit          3D

 93102  0  0  1  0  0  0  0  0999 V2000
  -30.6140  -19.2620   20.8300 C   0  0  0  0  0  3  0  0  0  0  0  0
  -29.3760  -20.7130   19.6900 C   0  0  0  0  0  3  0  0  0  0  0  0
  -30.0350  -20.5720   20.8840 C   0  0  0  0  0  0  0  0  0  0  0  0
  -30.2790  -18.6260   19.6510 C   0  0  0  0  0  0  0  0  0  0  0  0
  -29.5080  -19.5460   18.9390 N   0  0  0  0  0  0  0  0  0  0  0  0
  -30.5410  -17.1660   19.2460 C   0  0  0  0  0  2  0  0  0  0  0  0
  -31.8300  -15.8830   17.4740 C   0  0  0  0  0  0  0  0  0  0  0  0
  -33.0520  -14.8730   15.5620 C   0  0  0  0  0  2  0  0  0  0  0  0
  -33.9660  -15.9220   14.8940 C   0  0  0  0  0  2  0  0  0  0  0  0
  -33.1900  -16.7180   13.8290 C   0  0  0  0  0  2  0  0  0  0  0  0
  -31.8290  -17.2450   14.3540 C   0  0  0  0  0  3  0  0  0  0  0  0
  -31.0380  -16.1340   15.0800 C   0  0  0  0  0  2  0  0  0  0  0  0
  -31.8970  -15.5850   16.1420 N   0  0  0  0  0  0  0  0  0  0  0  0
  -32.5910  -15.3620   18.2950 O   0  0  0  0  0  0  0  0  0  0  0  0
  -30.9380  -16.8280   17.8530 N   0  0  0  0  0  0  0  0  0  0  0  0
  -30.3680  -17.2110   17.1150 H   0  0  0  0  0  0  0  0  0  0  0  0
  -30.5090  -19.1340   13.2150 C   0  0  0  0  0  0  0  0  0  0  0  0
  -29.9340  -19.2340   11.9760 C   0  0  0  0  0  0  0  0  0  0  0  0
  -30.1690  -17.9820   11.3310 C   0  0  0  0  0  0  0  0  0  0  0  0
  -31.0470  -17.8600   13.2830 N   0  0  0  0  0  0  0  0  0  0  0  0
  -30.7880  -17.1470   12.1560 N   0  0  0  0  0  0  0  0  0  0  0  0
  -29.8900  -17.5480    9.9550 C   0  0  0  0  0  0  0  0  0  0  0  0
  -29.1270  -16.3910    9.6850 C   0  0  0  0  0  3  0  0  0  0  0  0
  -28.8560  -16.0060    8.3550 C   0  0  0  0  0  3  0  0  0  0  0  0
  -29.3450  -16.7820    7.2770 C   0  0  0  0  0  0  0  0  0  0  0  0
  -30.1240  -17.9200    7.5500 C   0  0  0  0  0  3  0  0  0  0  0  0
  -30.3970  -18.2980    8.8760 C   0  0  0  0  0  3  0  0  0  0  0  0
  -29.1520  -16.4720    5.9520 O   0  0  0  0  0  0  0  0  0  0  0  0
  -28.0320  -15.8060    5.5250 C   0  0  0  0  0  0  0  0  0  0  0  0
  -26.7320  -16.3020    5.7690 C   0  0  0  0  0  3  0  0  0  0  0  0
  -25.6110  -15.6220    5.2520 C   0  0  0  0  0  3  0  0  0  0  0  0
  -25.7860  -14.4540    4.4870 C   0  0  0  0  0  0  0  0  0  0  0  0
  -27.0790  -13.9600    4.2410 C   0  0  0  0  0  3  0  0  0  0  0  0
  -28.1990  -14.6360    4.7570 C   0  0  0  0  0  0  0  0  0  0  0  0
  -29.4440  -14.1700    4.4980 F   0  0  0  0  0  0  0  0  0  0  0  0
  -24.7100  -13.8040    3.9840 F   0  0  0  0  0  0  0  0  0  0  0  0
  -29.2920  -20.4550   11.3840 C   0  0  0  0  0  0  0  0  0  0  0  0
  -28.3150  -20.2670   10.5030 N   0  0  0  0  0  0  0  0  0  0  0  0
  -29.6240  -21.5860   11.7360 O   0  0  0  0  0  0  0  0  0  0  0  0
  -28.0340  -19.3370   10.2280 H   0  0  0  0  0  0  0  0  0  0  0  0
  -27.8420  -21.0610   10.1000 H   0  0  0  0  0  0  0  0  0  0  0  0
  -30.6420  -20.0270   14.2730 N   0  0  0  0  0  0  0  0  0  0  0  0
  -30.3310  -20.9890   14.2040 H   0  0  0  0  0  0  0  0  0  0  0  0
  -31.2180  -19.8500   15.0860 H   0  0  0  0  0  0  0  0  0  0  0  0
  -28.8860  -19.3590   17.6360 C   0  0  0  0  0  2  0  0  0  0  0  0
  -26.2560  -19.5860   17.5790 C   0  0  0  0  0  2  0  0  0  0  0  0
  -26.6600  -18.6370   16.4780 C   0  0  0  0  0  2  0  0  0  0  0  0
  -27.5040  -18.7410   17.7280 C   0  0  0  0  0  3  0  0  0  0  0  0
  -30.1180  -21.4670   21.9510 O   0  0  0  0  0  0  0  0  0  0  0  0
  -29.3840  -22.7120   21.8730 C   0  0  0  0  0  2  0  0  0  0  0  0
  -29.5450  -23.6600   23.1180 C   0  0  0  0  0  2  0  0  0  0  0  0
  -28.8350  -25.0450   22.9620 C   0  0  0  0  0  2  0  0  0  0  0  0
  -28.6800  -25.8690   24.1580 O   0  0  0  0  0  0  0  0  0  0  0  0
  -23.0260  -28.7420   27.5160 C   0  0  0  0  0  0  0  0  0  0  0  0
  -27.6600  -26.8200   24.1290 C   0  0  0  0  0  0  0  0  0  0  0  0
  -23.2450  -29.2550   25.1080 C   0  0  0  0  0  3  0  0  0  0  0  0
  -25.4900  -28.6660   24.0420 C   0  0  0  0  0  0  0  0  0  0  0  0
  -25.3220  -28.7720   26.5310 C   0  0  0  0  0  2  0  0  0  0  0  0
  -25.9900  -28.2330   25.2770 C   0  0  0  0  0  0  0  0  0  0  0  0
  -27.0750  -27.3180   25.3250 C   0  0  0  0  0  3  0  0  0  0  0  0
  -27.1500  -27.3060   22.9020 C   0  0  0  0  0  3  0  0  0  0  0  0
  -26.0730  -28.2070   22.8500 C   0  0  0  0  0  3  0  0  0  0  0  0
  -24.3270  -29.6320   24.0610 C   0  0  0  0  0  2  0  0  0  0  0  0
  -23.8430  -28.8920   26.4340 N   0  0  0  0  0  0  0  0  0  0  0  0
  -21.8060  -28.9420   27.4330 O   0  0  0  0  0  0  0  0  0  0  0  0
  -22.3370  -28.1500   24.5200 C   0  0  0  0  0  0  0  0  0  0  0  0
  -21.3930  -28.5510   23.6530 N   0  0  0  0  0  0  0  0  0  0  0  0
  -22.5050  -26.9660   24.8230 O   0  0  0  0  0  0  0  0  0  0  0  0
  -21.3160  -29.5410   23.4650 H   0  0  0  0  0  0  0  0  0  0  0  0
  -18.6340  -28.5400   21.3170 C   0  0  0  0  0  0  0  0  0  0  0  0
  -20.4530  -27.6820   22.9440 C   0  0  0  0  0  3  0  0  0  0  0  0
  -21.1160  -27.0420   21.7030 C   0  0  0  0  0  2  0  0  0  0  0  0
  -20.8970  -27.8450   20.4180 C   0  0  0  0  0  2  0  0  0  0  0  0
  -19.4010  -27.9910   20.1230 C   0  0  0  0  0  2  0  0  0  0  0  0
  -19.1380  -28.4100   22.6380 C   0  0  0  0  0  0  0  0  0  0  0  0
  -18.4080  -28.9710   23.7080 C   0  0  0  0  0  3  0  0  0  0  0  0
  -17.1920  -29.6390   23.4770 C   0  0  0  0  0  3  0  0  0  0  0  0
  -16.6870  -29.7470   22.1710 C   0  0  0  0  0  3  0  0  0  0  0  0
  -17.4070  -29.2000   21.0940 C   0  0  0  0  0  3  0  0  0  0  0  0
  -23.5890  -28.3400   28.9130 C   0  0  0  0  0  3  0  0  0  0  0  0
  -22.9440  -29.1990   29.9140 N   0  0  0  0  0  0  0  0  0  0  0  0
  -23.4980  -30.2960   30.4510 C   0  0  0  0  0  0  0  0  0  0  0  0
  -24.6530  -30.6520   30.1990 O   0  0  0  0  0  0  0  0  0  0  0  0
  -21.9770  -28.9980   30.1260 H   0  0  0  0  0  0  0  0  0  0  0  0
  -22.0540  -32.3420   30.6820 C   0  0  0  0  0  1  0  0  0  0  0  0
  -22.6340  -31.1250   31.4190 C   0  0  0  0  0  3  0  0  0  0  0  0
  -23.7230  -30.4860   33.5240 C   0  0  0  0  0  1  0  0  0  0  0  0
  -23.3630  -31.5780   32.6230 N   0  0  0  0  0  0  0  0  0  0  0  0
  -22.8090  -32.2510   33.1460 H   0  0  0  0  0  0  0  0  0  0  0  0
  -23.3690  -26.8150   29.2570 C   0  0  1  0  0  0  0  0  0  0  0  0
  -21.9080  -26.3390   29.0760 C   0  0  0  0  0  1  0  0  0  0  0  0
  -24.2690  -25.9220   28.3710 C   0  0  0  0  0  1  0  0  0  0  0  0
  -23.7800  -26.5490   30.7240 C   0  0  0  0  0  1  0  0  0  0  0  0
  1  3  1  0
  2  3  2  0
  3 49  1  0
  4  1  2  0
  5  4  1  0
  5  2  1  0
  6  4  1  0
  7 15  1  0
  7 14  2  0
  8 13  1  0
  9  8  1  0
 10 11  1  0
 10  9  1  0
 11 20  1  0
 11 12  1  0
 12 13  1  0
 13  7  1  0
 15  6  1  0
 16 15  1  0
 17 20  1  0
 17 42  1  0
 18 17  2  0
 19 18  1  0
 19 21  2  0
 21 20  1  0
 22 19  1  0
 23 22  1  0
 24 23  2  0
 25 26  2  0
 25 24  1  0
 26 27  1  0
 27 22  2  0
 28 25  1  0
 29 30  1  0
 29 28  1  0
 31 30  2  0
 32 31  1  0
 33 32  2  0
 33 34  1  0
 34 29  2  0
 35 34  1  0
 36 32  1  0
 37 39  2  0
 37 18  1  0
 38 37  1  0
 40 38  1  0
 41 38  1  0
 42 44  1  0
 43 42  1  0
 45 48  1  0
 45  5  1  0
 46 48  1  0
 47 46  1  0
 47 48  1  0
 50 49  1  0
 50 51  1  0
 52 51  1  0
 52 53  1  0
 55 53  1  0
 55 60  1  0
 56 66  1  0
 56 64  1  0
 57 63  1  0
 57 59  1  0
 59 60  2  0
 59 58  1  0
 61 55  2  0
 62 61  1  0
 62 57  2  0
 63 56  1  0
 64 58  1  0
 64 54  1  0
 65 54  2  0
 66 68  2  0
 67 66  1  0
 69 67  1  0
 70 75  1  0
 71 67  1  0
 72 71  1  0
 73 72  1  0
 74 73  1  0
 74 70  1  0
 75 71  1  0
 75 76  2  0
 77 76  1  0
 78 77  2  0
 79 70  2  0
 79 78  1  0
 80 54  1  0
 80 90  1  0
 80 81  1  0
 81 84  1  0
 81 82  1  0
 82 86  1  0
 83 82  2  0
 86 85  1  0
 86 88  1  0
 88 89  1  0
 88 87  1  0
 90 93  1  1
 91 90  1  0
 92 90  1  0
M  ISO  4   7 100  15 100  52 101  53 101
M  END
>  <TORSDO>  (71) 
F 23

>  <SCORE>  (71) 
11.259

>  <name>  (71) 
71

>  <ligand_id>  (71) 
71

>  <original_smiles>  (71) 
[H]c1c([H])c([H])c2c(c1[H])C([H])([H])C([H])([H])C([H])([H])C2([H])N([H])C(=O)C1([H])N(C(=O)C([H])(N([H])C(=O)C([H])(N([H])C([H])([H])[H])C([H])([H])[H])C(C([H])([H])[H])(C([H])([H])[H])C([H])([H])[H])C([H])([H])c2c([H])c(OC([H])([H])C([H])([H])C([H])([H])Oc3c([H])c(C([H])([H])N([H])C(=O)N4C([H])([H])C([H])([H])C([H])([H])C([H])(n5nc(-c6c([H])c([H])c(Oc7c([H])c([H])c(F)c([H])c7F)c([H])c6[H])c(C(=O)N([H])[H])c5N([H])[H])C4([H])[H])n(C([H])([H])C4([H])C([H])([H])C4([H])[H])c3[H])c([H])c([H])c2C1([H])[H]

>  <smiles>  (71) 
[H]c1c([H])c([H])c2c(c1[H])C([H])([H])C([H])([H])C([H])([H])C2([H])N([H])C(=O)C1([H])N(C(=O)C([H])(N([H])C(=O)C([H])(N([H])C([H])([H])[H])C([H])([H])[H])C(C([H])([H])[H])(C([H])([H])[H])C([H])([H])[H])C([H])([H])c2c([H])c(OC([H])([H])C([H])([H])C([H])([H])Oc3c([H])c(C([H])([H])N([H])C(=O)N4C([H])([H])C([H])([H])C([H])([H])C([H])(n5nc(-c6c([H])c([H])c(Oc7c([H])c([H])c(F)c([H])c7F)c([H])c6[H])c(C(=O)N([H])[H])c5N([H])[H])C4([H])[H])n(C([H])([H])C4([H])C([H])([H])C4([H])[H])c3[H])c([H])c([H])c2C1([H])[H]

$$$$
72:0:0
     RDKit          3D

 97106  0  0  1  0  0  0  0  0999 V2000
  -31.2060  -18.7940   21.6660 C   0  0  0  0  0  2  0  0  0  0  0  0
  -30.7830  -20.3300   21.6580 C   0  0  0  0  0  2  0  0  0  0  0  0
  -29.6610  -19.2080   19.8970 C   0  0  0  0  0  3  0  0  0  0  0  0
  -30.7470  -18.0600   20.3710 C   0  0  0  0  0  3  0  0  0  0  0  0
  -30.1520  -20.7370   20.2940 C   0  0  0  0  0  3  0  0  0  0  0  0
  -31.1790  -15.3170   20.1120 C   0  0  0  0  0  0  0  0  0  0  0  0
  -30.9420  -13.0810   18.9290 C   0  0  0  0  0  2  0  0  0  0  0  0
  -29.9480  -13.1950   17.7490 C   0  0  0  0  0  2  0  0  0  0  0  0
  -28.5030  -12.9760   18.2340 C   0  0  0  0  0  2  0  0  0  0  0  0
  -28.1840  -13.7730   19.5250 C   0  0  0  0  0  3  0  0  0  0  0  0
  -29.2940  -13.6320   20.5900 C   0  0  0  0  0  2  0  0  0  0  0  0
  -30.5450  -14.0810   19.9650 N   0  0  0  0  0  0  0  0  0  0  0  0
  -32.3560  -15.3840   19.7430 O   0  0  0  0  0  0  0  0  0  0  0  0
  -30.4530  -16.4940   20.4700 N   0  0  0  0  0  0  0  0  0  0  0  0
  -29.5050  -16.2860   20.7450 H   0  0  0  0  0  0  0  0  0  0  0  0
  -25.8260  -14.3170   20.3500 C   0  0  0  0  0  0  0  0  0  0  0  0
  -24.7800  -13.5300   20.7400 C   0  0  0  0  0  0  0  0  0  0  0  0
  -25.2490  -12.1820   20.6630 C   0  0  0  0  0  0  0  0  0  0  0  0
  -26.8650  -13.4520   20.0570 N   0  0  0  0  0  0  0  0  0  0  0  0
  -26.5300  -12.1610   20.3110 N   0  0  0  0  0  0  0  0  0  0  0  0
  -24.5350  -10.9130   20.8450 C   0  0  0  0  0  0  0  0  0  0  0  0
  -24.9190   -9.9830   21.8360 C   0  0  0  0  0  3  0  0  0  0  0  0
  -24.2020   -8.7790   22.0050 C   0  0  0  0  0  3  0  0  0  0  0  0
  -23.0860   -8.4960   21.1820 C   0  0  0  0  0  0  0  0  0  0  0  0
  -22.7210   -9.4150   20.1810 C   0  0  0  0  0  3  0  0  0  0  0  0
  -23.4400  -10.6090   20.0110 C   0  0  0  0  0  3  0  0  0  0  0  0
  -22.3450   -7.3410   21.2560 O   0  0  0  0  0  0  0  0  0  0  0  0
  -22.1110   -6.7120   22.4530 C   0  0  0  0  0  0  0  0  0  0  0  0
  -21.5030   -7.3790   23.5390 C   0  0  0  0  0  3  0  0  0  0  0  0
  -21.2180   -6.6770   24.7270 C   0  0  0  0  0  3  0  0  0  0  0  0
  -21.5320   -5.3080   24.8280 C   0  0  0  0  0  0  0  0  0  0  0  0
  -22.1320   -4.6410   23.7460 C   0  0  0  0  0  3  0  0  0  0  0  0
  -22.4180   -5.3410   22.5620 C   0  0  0  0  0  0  0  0  0  0  0  0
  -22.9780   -4.6880   21.5140 F   0  0  0  0  0  0  0  0  0  0  0  0
  -21.2510   -4.6300   25.9660 F   0  0  0  0  0  0  0  0  0  0  0  0
  -23.3890  -13.9940   21.0640 C   0  0  0  0  0  0  0  0  0  0  0  0
  -22.7090  -13.3050   21.9730 N   0  0  0  0  0  0  0  0  0  0  0  0
  -22.9170  -15.0050   20.5440 O   0  0  0  0  0  0  0  0  0  0  0  0
  -23.1050  -12.4870   22.4130 H   0  0  0  0  0  0  0  0  0  0  0  0
  -21.7780  -13.5990   22.2320 H   0  0  0  0  0  0  0  0  0  0  0  0
  -25.9720  -15.6900   20.1910 N   0  0  0  0  0  0  0  0  0  0  0  0
  -25.1800  -16.3120   20.2950 H   0  0  0  0  0  0  0  0  0  0  0  0
  -26.7610  -16.1270   19.7330 H   0  0  0  0  0  0  0  0  0  0  0  0
  -30.2920  -19.0910   17.4480 C   0  0  0  0  0  3  0  0  0  0  0  0
  -29.9900  -18.9810   16.0770 C   0  0  0  0  0  3  0  0  0  0  0  0
  -27.6230  -18.8570   16.6180 C   0  0  0  0  0  3  0  0  0  0  0  0
  -29.2670  -19.0810   18.4230 C   0  0  0  0  0  0  0  0  0  0  0  0
  -27.9140  -18.9660   17.9960 C   0  0  0  0  0  0  0  0  0  0  0  0
  -28.6540  -18.8630   15.6620 C   0  0  0  0  0  0  0  0  0  0  0  0
  -26.7400  -18.9660   18.9660 C   0  0  0  0  0  1  0  0  0  0  0  0
  -28.3580  -18.7580   14.3450 F   0  0  0  0  0  0  0  0  0  0  0  0
  -28.2090  -21.9890   21.3590 C   0  0  0  0  0  1  0  0  0  0  0  0
  -29.1950  -22.0320   20.2530 N   0  0  1  0  0  4  0  0  0  0  0  0
  -28.6530  -21.8550   19.4170 H   0  0  0  0  0  0  0  0  0  0  0  0
  -29.6930  -23.5440   20.0490 C   0  0  0  0  0  3  0  0  0  0  0  0
  -28.6450  -24.8650   19.7720 C   0  0  0  0  0  3  0  0  0  0  0  0
  -28.8820  -26.4130   19.9440 O   0  0  0  0  0  0  0  0  0  0  0  0
  -24.8420  -31.6370   23.2870 C   0  0  0  0  0  0  0  0  0  0  0  0
  -27.7960  -27.3740   19.9270 C   0  0  0  0  0  0  0  0  0  0  0  0
  -23.8070  -30.3990   21.4250 C   0  0  0  0  0  3  0  0  0  0  0  0
  -25.4060  -29.0480   19.9340 C   0  0  0  0  0  0  0  0  0  0  0  0
  -26.3560  -30.7640   21.4640 C   0  0  0  0  0  2  0  0  0  0  0  0
  -26.5280  -29.4560   20.6670 C   0  0  0  0  0  0  0  0  0  0  0  0
  -27.7230  -28.6390   20.6460 C   0  0  0  0  0  3  0  0  0  0  0  0
  -26.6430  -27.0790   19.1640 C   0  0  0  0  0  3  0  0  0  0  0  0
  -25.4790  -27.8760   19.1680 C   0  0  0  0  0  3  0  0  0  0  0  0
  -24.1430  -29.8930   19.9980 C   0  0  0  0  0  2  0  0  0  0  0  0
  -25.0180  -30.9510   22.1160 N   0  0  0  0  0  0  0  0  0  0  0  0
  -23.7140  -31.8210   23.7700 O   0  0  0  0  0  0  0  0  0  0  0  0
  -23.1120  -29.2650   22.2210 C   0  0  0  0  0  0  0  0  0  0  0  0
  -21.7900  -29.1030   22.0330 N   0  0  0  0  0  0  0  0  0  0  0  0
  -23.7670  -28.5400   22.9730 O   0  0  0  0  0  0  0  0  0  0  0  0
  -21.3170  -29.7440   21.4110 H   0  0  0  0  0  0  0  0  0  0  0  0
  -18.3890  -27.9020   22.3850 C   0  0  0  0  0  0  0  0  0  0  0  0
  -20.9580  -28.0630   22.6450 C   0  0  0  0  0  3  0  0  0  0  0  0
  -21.0170  -26.7500   21.8310 C   0  0  0  0  0  2  0  0  0  0  0  0
  -19.8930  -26.6290   20.7960 C   0  0  0  0  0  2  0  0  0  0  0  0
  -18.5240  -26.6890   21.4800 C   0  0  0  0  0  2  0  0  0  0  0  0
  -19.5310  -28.5570   22.9180 C   0  0  0  0  0  0  0  0  0  0  0  0
  -19.3490  -29.6990   23.7260 C   0  0  0  0  0  3  0  0  0  0  0  0
  -18.0570  -30.1880   24.0030 C   0  0  0  0  0  3  0  0  0  0  0  0
  -16.9300  -29.5290   23.4820 C   0  0  0  0  0  3  0  0  0  0  0  0
  -17.0970  -28.3860   22.6800 C   0  0  0  0  0  3  0  0  0  0  0  0
  -26.0500  -32.2430   24.0660 C   0  0  0  0  0  3  0  0  0  0  0  0
  -26.4320  -31.4150   25.3540 C   0  0  1  0  0  0  0  0  0  0  0  0
  -25.2370  -31.1350   26.2930 C   0  0  0  0  0  1  0  0  0  0  0  0
  -27.0570  -30.0540   24.9700 C   0  0  0  0  0  1  0  0  0  0  0  0
  -27.5060  -32.1780   26.1660 C   0  0  0  0  0  1  0  0  0  0  0  0
  -25.7000  -33.6240   24.4310 N   0  0  0  0  0  0  0  0  0  0  0  0
  -26.0640  -34.7140   23.7400 C   0  0  0  0  0  0  0  0  0  0  0  0
  -26.7930  -34.6600   22.7460 O   0  0  0  0  0  0  0  0  0  0  0  0
  -25.0590  -33.7400   25.2020 H   0  0  0  0  0  0  0  0  0  0  0  0
  -24.3380  -36.5070   23.3630 C   0  0  0  0  0  1  0  0  0  0  0  0
  -25.5360  -36.0780   24.2270 C   0  0  0  0  0  3  0  0  0  0  0  0
  -27.6000  -36.9580   25.2250 C   0  0  0  0  0  1  0  0  0  0  0  0
  -26.5620  -37.1440   24.2160 N   0  0  0  0  0  0  0  0  0  0  0  0
  -26.1350  -38.0550   24.3640 H   0  0  0  0  0  0  0  0  0  0  0  0
  2  1  1  0
  3 47  1  0
  3  5  1  0
  3  4  1  0
  4 14  1  0
  4  1  1  0
  5 53  1  0
  5  2  1  0
  6 14  1  0
  7 12  1  0
  8  9  1  0
  8  7  1  0
 10  9  1  0
 10 19  1  0
 10 11  1  0
 12  6  1  0
 12 11  1  0
 13  6  2  0
 14 15  1  0
 16 17  2  0
 17 36  1  0
 18 17  1  0
 18 21  1  0
 19 20  1  0
 19 16  1  0
 20 18  2  0
 21 22  1  0
 22 23  2  0
 24 27  1  0
 24 23  1  0
 25 24  2  0
 26 25  1  0
 26 21  2  0
 27 28  1  0
 28 33  2  0
 28 29  1  0
 29 30  2  0
 30 31  1  0
 31 35  1  0
 32 31  2  0
 33 32  1  0
 34 33  1  0
 36 37  1  0
 37 40  1  0
 37 39  1  0
 38 36  2  0
 41 42  1  0
 41 16  1  0
 43 41  1  0
 44 47  1  0
 45 44  2  0
 46 48  1  0
 48 47  2  0
 48 50  1  0
 49 45  1  0
 49 46  2  0
 51 49  1  0
 53 52  1  0
 53 54  1  6
 55 53  1  0
 56 57  1  0
 56 55  2  0
 58 69  2  0
 59 57  1  0
 59 64  1  0
 60 68  1  0
 60 70  1  0
 61 67  1  0
 61 63  1  0
 62 68  1  0
 63 62  1  0
 64 63  2  0
 65 66  1  0
 65 59  2  0
 66 61  2  0
 67 60  1  0
 68 58  1  0
 70 72  2  0
 71 70  1  0
 73 71  1  0
 74 83  2  0
 74 79  1  0
 75 71  1  0
 75 79  1  0
 76 75  1  0
 77 78  1  0
 77 76  1  0
 78 74  1  0
 79 80  2  0
 80 81  1  0
 82 81  2  0
 83 82  1  0
 84 58  1  0
 84 89  1  0
 84 85  1  0
 85 88  1  1
 85 86  1  0
 87 85  1  0
 89 92  1  0
 90 94  1  0
 90 89  1  0
 91 90  2  0
 94 93  1  0
 96 94  1  0
 96 97  1  0
 96 95  1  0
M  ISO  4   6 100  14 100  56 101  57 101
M  END
>  <TORSDO>  (72) 
F 20

>  <SCORE>  (72) 
-13.218

>  <name>  (72) 
72

>  <ligand_id>  (72) 
72

>  <original_smiles>  (72) 
[H]c1c([H])c([H])c2c(c1[H])C([H])([H])C([H])([H])C([H])([H])C2([H])N([H])C(=O)C1([H])N(C(=O)C([H])(N([H])C(=O)C([H])(N([H])C([H])([H])[H])C([H])([H])[H])C(C([H])([H])[H])(C([H])([H])[H])C([H])([H])[H])C([H])([H])c2c([H])c(OC([H])([H])C([H])([H])[N+]([H])(C([H])([H])[H])C3([H])C([H])([H])C([H])([H])C([H])(N([H])C(=O)N4C([H])([H])C([H])([H])C([H])([H])C([H])(n5nc(-c6c([H])c([H])c(Oc7c([H])c([H])c(F)c([H])c7F)c([H])c6[H])c(C(=O)N([H])[H])c5N([H])[H])C4([H])[H])C3([H])c3c([H])c([H])c(F)c([H])c3C([H])([H])[H])c([H])c([H])c2C1([H])[H]

>  <smiles>  (72) 
[H]c1c([H])c([H])c2c(c1[H])C([H])([H])C([H])([H])C([H])([H])C2([H])N([H])C(=O)C1([H])N(C(=O)C([H])(N([H])C(=O)C([H])(N([H])C([H])([H])[H])C([H])([H])[H])C(C([H])([H])[H])(C([H])([H])[H])C([H])([H])[H])C([H])([H])c2c([H])c(OC([H])([H])C([H])([H])[N+]([H])(C([H])([H])[H])C3([H])C([H])([H])C([H])([H])C([H])(N([H])C(=O)N4C([H])([H])C([H])([H])C([H])([H])C([H])(n5nc(-c6c([H])c([H])c(Oc7c([H])c([H])c(F)c([H])c7F)c([H])c6[H])c(C(=O)N([H])[H])c5N([H])[H])C4([H])[H])C3([H])c3c([H])c([H])c(F)c([H])c3C([H])([H])[H])c([H])c([H])c2C1([H])[H]

$$$$
73:0:0
     RDKit          3D

 95104  0  0  1  0  0  0  0  0999 V2000
  -30.3270  -22.4350   21.4260 C   0  0  0  0  0  3  0  0  0  0  0  0
  -30.9850  -21.3350   21.9990 C   0  0  0  0  0  3  0  0  0  0  0  0
  -28.9760  -20.8490   20.1940 C   0  0  0  0  0  0  0  0  0  0  0  0
  -29.3040  -22.2110   20.4940 C   0  0  0  0  0  0  0  0  0  0  0  0
  -29.7070  -19.7800   20.8180 C   0  0  0  0  0  0  0  0  0  0  0  0
  -27.8290  -20.5540   19.2350 C   0  0  0  0  0  1  0  0  0  0  0  0
  -30.6990  -20.0520   21.6970 N   0  0  0  0  0  0  0  0  0  0  0  0
  -30.8440  -14.7780   19.9810 C   0  0  0  0  0  0  0  0  0  0  0  0
  -30.5120  -12.6530   18.7250 C   0  0  0  0  0  2  0  0  0  0  0  0
  -29.4830  -12.9080   17.6020 C   0  0  0  0  0  2  0  0  0  0  0  0
  -28.0330  -12.7510   18.1120 C   0  0  0  0  0  2  0  0  0  0  0  0
  -27.7930  -13.4660   19.4710 C   0  0  0  0  0  3  0  0  0  0  0  0
  -28.9310  -13.1400   20.4590 C   0  0  0  0  0  2  0  0  0  0  0  0
  -30.1840  -13.5790   19.8320 N   0  0  0  0  0  0  0  0  0  0  0  0
  -31.9680  -14.9210   19.4900 O   0  0  0  0  0  0  0  0  0  0  0  0
  -29.2300  -17.5040   21.9590 C   0  0  0  0  0  2  0  0  0  0  0  0
  -29.3360  -16.0140   21.5940 C   0  0  0  0  0  2  0  0  0  0  0  0
  -29.3990  -18.2500   20.6370 C   0  0  0  0  0  3  0  0  0  0  0  0
  -30.4190  -17.3010   19.9090 C   0  0  0  0  0  3  0  0  0  0  0  0
  -30.1160  -15.8950   20.3490 N   0  0  0  0  0  0  0  0  0  0  0  0
  -25.4460  -14.0250   20.3500 C   0  0  0  0  0  0  0  0  0  0  0  0
  -24.4100  -13.2330   20.7630 C   0  0  0  0  0  0  0  0  0  0  0  0
  -24.8760  -11.8860   20.6550 C   0  0  0  0  0  0  0  0  0  0  0  0
  -26.4800  -13.1600   20.0250 N   0  0  0  0  0  0  0  0  0  0  0  0
  -26.1420  -11.8650   20.2590 N   0  0  0  0  0  0  0  0  0  0  0  0
  -24.1720  -10.6140   20.8570 C   0  0  0  0  0  0  0  0  0  0  0  0
  -24.5970   -9.6800   21.8280 C   0  0  0  0  0  3  0  0  0  0  0  0
  -23.8940   -8.4710   22.0160 C   0  0  0  0  0  3  0  0  0  0  0  0
  -22.7510   -8.1880   21.2310 C   0  0  0  0  0  0  0  0  0  0  0  0
  -22.3430   -9.1120   20.2540 C   0  0  0  0  0  3  0  0  0  0  0  0
  -23.0470  -10.3120   20.0630 C   0  0  0  0  0  3  0  0  0  0  0  0
  -22.0160   -7.0310   21.3260 O   0  0  0  0  0  0  0  0  0  0  0  0
  -21.8370   -6.3890   22.5250 C   0  0  0  0  0  0  0  0  0  0  0  0
  -21.2430   -7.0300   23.6340 C   0  0  0  0  0  3  0  0  0  0  0  0
  -21.0160   -6.3110   24.8240 C   0  0  0  0  0  3  0  0  0  0  0  0
  -21.3730   -4.9520   24.9040 C   0  0  0  0  0  0  0  0  0  0  0  0
  -21.9570   -4.3090   23.7980 C   0  0  0  0  0  3  0  0  0  0  0  0
  -22.1860   -5.0260   22.6110 C   0  0  0  0  0  0  0  0  0  0  0  0
  -22.7330   -4.3960   21.5430 F   0  0  0  0  0  0  0  0  0  0  0  0
  -21.1460   -4.2590   26.0450 F   0  0  0  0  0  0  0  0  0  0  0  0
  -23.0330  -13.6950   21.1450 C   0  0  0  0  0  0  0  0  0  0  0  0
  -22.3810  -12.9920   22.0640 N   0  0  0  0  0  0  0  0  0  0  0  0
  -22.5430  -14.7160   20.6640 O   0  0  0  0  0  0  0  0  0  0  0  0
  -22.7880  -12.1680   22.4780 H   0  0  0  0  0  0  0  0  0  0  0  0
  -21.4600  -13.2860   22.3600 H   0  0  0  0  0  0  0  0  0  0  0  0
  -25.5870  -15.4040   20.2090 N   0  0  0  0  0  0  0  0  0  0  0  0
  -24.8250  -16.0410   20.4200 H   0  0  0  0  0  0  0  0  0  0  0  0
  -26.4190  -15.8760   19.8850 H   0  0  0  0  0  0  0  0  0  0  0  0
  -29.1110  -17.3610   17.6640 C   0  0  0  0  0  1  0  0  0  0  0  0
  -31.2240  -18.7210   17.9320 C   0  0  0  0  0  1  0  0  0  0  0  0
  -30.4790  -17.4520   18.3600 C   0  0  0  0  0  3  0  0  0  0  0  0
  -28.6930  -23.2900   19.8540 O   0  0  0  0  0  0  0  0  0  0  0  0
  -28.0990  -24.3480   20.6550 C   0  0  0  0  0  2  0  0  0  0  0  0
  -28.8680  -25.7100   20.8440 C   0  0  0  0  0  2  0  0  0  0  0  0
  -28.6420  -26.8360   19.9580 O   0  0  0  0  0  0  0  0  0  0  0  0
  -24.6920  -31.9080   23.2290 C   0  0  0  0  0  0  0  0  0  0  0  0
  -27.4660  -27.5580   20.0730 C   0  0  0  0  0  0  0  0  0  0  0  0
  -23.5410  -30.5150   21.5420 C   0  0  0  0  0  3  0  0  0  0  0  0
  -25.0470  -29.0400   20.1000 C   0  0  0  0  0  0  0  0  0  0  0  0
  -26.0650  -30.9240   21.3870 C   0  0  0  0  0  2  0  0  0  0  0  0
  -26.1890  -29.5640   20.7190 C   0  0  0  0  0  0  0  0  0  0  0  0
  -27.4050  -28.8300   20.7020 C   0  0  0  0  0  3  0  0  0  0  0  0
  -26.3070  -27.0630   19.4430 C   0  0  0  0  0  3  0  0  0  0  0  0
  -25.1020  -27.7910   19.4580 C   0  0  0  0  0  3  0  0  0  0  0  0
  -23.7860  -29.8740   20.1500 C   0  0  0  0  0  2  0  0  0  0  0  0
  -24.7840  -31.1310   22.1110 N   0  0  0  0  0  0  0  0  0  0  0  0
  -23.5980  -32.1420   23.7600 O   0  0  0  0  0  0  0  0  0  0  0  0
  -22.9030  -29.4570   22.4710 C   0  0  0  0  0  0  0  0  0  0  0  0
  -21.5840  -29.2500   22.3300 N   0  0  0  0  0  0  0  0  0  0  0  0
  -23.5940  -28.8240   23.2730 O   0  0  0  0  0  0  0  0  0  0  0  0
  -21.0860  -29.8170   21.6590 H   0  0  0  0  0  0  0  0  0  0  0  0
  -18.2240  -27.9940   22.7950 C   0  0  0  0  0  0  0  0  0  0  0  0
  -20.7800  -28.2730   23.0680 C   0  0  0  0  0  3  0  0  0  0  0  0
  -20.8980  -26.8660   22.4390 C   0  0  0  0  0  2  0  0  0  0  0  0
  -19.7960  -26.5660   21.4180 C   0  0  0  0  0  2  0  0  0  0  0  0
  -18.4150  -26.6730   22.0700 C   0  0  0  0  0  2  0  0  0  0  0  0
  -19.3360  -28.7540   23.2490 C   0  0  0  0  0  0  0  0  0  0  0  0
  -19.1050  -29.9930   23.8850 C   0  0  0  0  0  3  0  0  0  0  0  0
  -17.7960  -30.4720   24.0740 C   0  0  0  0  0  3  0  0  0  0  0  0
  -16.6980  -29.7080   23.6370 C   0  0  0  0  0  3  0  0  0  0  0  0
  -16.9140  -28.4720   23.0030 C   0  0  0  0  0  3  0  0  0  0  0  0
  -25.9530  -32.5570   23.8770 C   0  0  0  0  0  3  0  0  0  0  0  0
  -26.4540  -31.7910   25.1620 C   0  0  1  0  0  0  0  0  0  0  0  0
  -25.3410  -31.5250   26.2030 C   0  0  0  0  0  1  0  0  0  0  0  0
  -27.0760  -30.4300   24.7750 C   0  0  0  0  0  1  0  0  0  0  0  0
  -27.5700  -32.6060   25.8570 C   0  0  0  0  0  1  0  0  0  0  0  0
  -25.6170  -33.9510   24.2020 N   0  0  0  0  0  0  0  0  0  0  0  0
  -25.9630  -35.0110   23.4590 C   0  0  0  0  0  0  0  0  0  0  0  0
  -26.6690  -34.9190   22.4510 O   0  0  0  0  0  0  0  0  0  0  0  0
  -24.9910  -34.0950   24.9810 H   0  0  0  0  0  0  0  0  0  0  0  0
  -24.2410  -36.7940   23.0380 C   0  0  0  0  0  1  0  0  0  0  0  0
  -25.4430  -36.3900   23.9050 C   0  0  0  0  0  3  0  0  0  0  0  0
  -27.5260  -37.2850   24.8510 C   0  0  0  0  0  1  0  0  0  0  0  0
  -26.4720  -37.4530   23.8540 N   0  0  0  0  0  0  0  0  0  0  0  0
  -26.0510  -38.3690   23.9890 H   0  0  0  0  0  0  0  0  0  0  0  0
  1  2  1  0
  3  4  1  0
  3  5  2  0
  4  1  2  0
  5  7  1  0
  6  3  1  0
  7  2  2  0
  8 20  1  0
  9 14  1  0
 10 11  1  0
 10  9  1  0
 12 11  1  0
 12 24  1  0
 12 13  1  0
 14  8  1  0
 14 13  1  0
 15  8  2  0
 17 16  1  0
 18  5  1  0
 18 16  1  0
 19 51  1  0
 19 20  1  0
 19 18  1  0
 20 17  1  0
 21 22  2  0
 22 41  1  0
 23 22  1  0
 23 26  1  0
 24 25  1  0
 24 21  1  0
 25 23  2  0
 26 27  1  0
 27 28  2  0
 29 32  1  0
 29 28  1  0
 30 29  2  0
 31 30  1  0
 31 26  2  0
 32 33  1  0
 33 38  2  0
 33 34  1  0
 34 35  2  0
 35 36  1  0
 36 40  1  0
 37 36  2  0
 38 37  1  0
 39 38  1  0
 41 42  1  0
 42 45  1  0
 42 44  1  0
 43 41  2  0
 46 21  1  0
 46 47  1  0
 48 46  1  0
 49 51  1  0
 50 51  1  0
 52  4  1  0
 52 53  1  0
 53 54  1  0
 55 57  1  0
 55 54  1  0
 56 67  2  0
 57 62  1  0
 58 66  1  0
 58 68  1  0
 59 65  1  0
 59 61  1  0
 60 66  1  0
 61 60  1  0
 62 61  2  0
 63 64  1  0
 63 57  2  0
 64 59  2  0
 65 58  1  0
 66 56  1  0
 68 70  2  0
 69 68  1  0
 71 69  1  0
 72 81  2  0
 72 77  1  0
 73 69  1  0
 73 77  1  0
 74 73  1  0
 75 76  1  0
 75 74  1  0
 76 72  1  0
 77 78  2  0
 78 79  1  0
 80 79  2  0
 81 80  1  0
 82 56  1  0
 82 87  1  0
 82 83  1  0
 83 86  1  1
 83 84  1  0
 85 83  1  0
 87 90  1  0
 88 92  1  0
 88 87  1  0
 89 88  2  0
 92 91  1  0
 94 92  1  0
 94 95  1  0
 94 93  1  0
M  ISO  4   8 100  20 100  54 101  55 101
M  END
>  <TORSDO>  (73) 
F 20

>  <SCORE>  (73) 
-11.868

>  <name>  (73) 
73

>  <ligand_id>  (73) 
73

>  <original_smiles>  (73) 
[H]c1nc(C2([H])C([H])([H])C([H])([H])N(C(=O)N3C([H])([H])C([H])([H])C([H])([H])C([H])(n4nc(-c5c([H])c([H])c(Oc6c([H])c([H])c(F)c([H])c6F)c([H])c5[H])c(C(=O)N([H])[H])c4N([H])[H])C3([H])[H])C2([H])C([H])(C([H])([H])[H])C([H])([H])[H])c(C([H])([H])[H])c(OC([H])([H])C([H])([H])Oc2c([H])c([H])c3c(c2[H])C([H])([H])N(C(=O)C([H])(N([H])C(=O)C([H])(N([H])C([H])([H])[H])C([H])([H])[H])C(C([H])([H])[H])(C([H])([H])[H])C([H])([H])[H])C([H])(C(=O)N([H])C2([H])c4c([H])c([H])c([H])c([H])c4C([H])([H])C([H])([H])C2([H])[H])C3([H])[H])c1[H]

>  <smiles>  (73) 
[H]c1nc(C2([H])C([H])([H])C([H])([H])N(C(=O)N3C([H])([H])C([H])([H])C([H])([H])C([H])(n4nc(-c5c([H])c([H])c(Oc6c([H])c([H])c(F)c([H])c6F)c([H])c5[H])c(C(=O)N([H])[H])c4N([H])[H])C3([H])[H])C2([H])C([H])(C([H])([H])[H])C([H])([H])[H])c(C([H])([H])[H])c(OC([H])([H])C([H])([H])Oc2c([H])c([H])c3c(c2[H])C([H])([H])N(C(=O)C([H])(N([H])C(=O)C([H])(N([H])C([H])([H])[H])C([H])([H])[H])C(C([H])([H])[H])(C([H])([H])[H])C([H])([H])[H])C([H])(C(=O)N([H])C2([H])c4c([H])c([H])c([H])c([H])c4C([H])([H])C([H])([H])C2([H])[H])C3([H])[H])c1[H]

$$$$
74:0:0
     RDKit          3D

100110  0  0  1  0  0  0  0  0999 V2000
  -32.7470  -19.0290   21.7730 C   0  0  0  0  0  3  0  0  0  0  0  0
  -30.8240  -20.4540   21.6420 C   0  0  0  0  0  3  0  0  0  0  0  0
  -32.1980  -18.1860   20.7900 C   0  0  0  0  0  0  0  0  0  0  0  0
  -30.2930  -19.7020   20.5650 C   0  0  0  0  0  0  0  0  0  0  0  0
  -30.8700  -18.3880   20.2890 C   0  0  0  0  0  0  0  0  0  0  0  0
  -32.0060  -20.0860   22.3010 C   0  0  0  0  0  0  0  0  0  0  0  0
  -33.1590  -17.1500   20.2500 C   0  0  0  0  0  1  0  0  0  0  0  0
  -30.4700  -17.3780   17.9310 C   0  0  0  0  0  1  0  0  0  0  0  0
  -30.1510  -17.2670   19.4380 C   0  0  0  0  0  0  0  0  0  0  0  0
  -30.6810  -14.6580   19.6820 C   0  0  0  0  0  0  0  0  0  0  0  0
  -30.2670  -12.3990   18.7670 C   0  0  0  0  0  2  0  0  0  0  0  0
  -29.2400  -12.5260   17.6230 C   0  0  0  0  0  2  0  0  0  0  0  0
  -27.8220  -12.3610   18.1930 C   0  0  0  0  0  2  0  0  0  0  0  0
  -27.5620  -13.2740   19.4210 C   0  0  0  0  0  3  0  0  0  0  0  0
  -28.7150  -13.2150   20.4490 C   0  0  0  0  0  2  0  0  0  0  0  0
  -29.9810  -13.4770   19.7420 N   0  0  0  0  0  0  0  0  0  0  0  0
  -31.8000  -14.6700   19.1860 O   0  0  0  0  0  0  0  0  0  0  0  0
  -30.0100  -15.8290   19.9380 N   0  0  0  0  0  4  0  0  0  0  0  0
  -29.1110  -15.6570   20.3640 H   0  0  0  0  0  0  0  0  0  0  0  0
  -25.2620  -13.8810   20.3870 C   0  0  0  0  0  0  0  0  0  0  0  0
  -24.2160  -13.1120   20.8250 C   0  0  0  0  0  0  0  0  0  0  0  0
  -24.6450  -11.7560   20.7070 C   0  0  0  0  0  0  0  0  0  0  0  0
  -26.2640  -12.9920   20.0290 N   0  0  0  0  0  0  0  0  0  0  0  0
  -25.9030  -11.7050   20.2810 N   0  0  0  0  0  0  0  0  0  0  0  0
  -23.9120  -10.5010   20.9220 C   0  0  0  0  0  0  0  0  0  0  0  0
  -24.3680   -9.5190   21.8290 C   0  0  0  0  0  3  0  0  0  0  0  0
  -23.6270   -8.3350   22.0320 C   0  0  0  0  0  3  0  0  0  0  0  0
  -22.4200   -8.1230   21.3270 C   0  0  0  0  0  0  0  0  0  0  0  0
  -21.9840   -9.0920   20.4060 C   0  0  0  0  0  3  0  0  0  0  0  0
  -22.7240  -10.2670   20.2010 C   0  0  0  0  0  3  0  0  0  0  0  0
  -21.6480   -6.9920   21.4380 O   0  0  0  0  0  0  0  0  0  0  0  0
  -21.5960   -6.2700   22.6050 C   0  0  0  0  0  0  0  0  0  0  0  0
  -21.1660   -6.8460   23.8200 C   0  0  0  0  0  3  0  0  0  0  0  0
  -21.0630   -6.0520   24.9800 C   0  0  0  0  0  3  0  0  0  0  0  0
  -21.3760   -4.6820   24.9240 C   0  0  0  0  0  0  0  0  0  0  0  0
  -21.8010   -4.1040   23.7160 C   0  0  0  0  0  3  0  0  0  0  0  0
  -21.9090   -4.8960   22.5580 C   0  0  0  0  0  0  0  0  0  0  0  0
  -22.2980   -4.3300   21.3910 F   0  0  0  0  0  0  0  0  0  0  0  0
  -21.2690   -3.9150   26.0360 F   0  0  0  0  0  0  0  0  0  0  0  0
  -22.8620  -13.6110   21.2350 C   0  0  0  0  0  0  0  0  0  0  0  0
  -22.2070  -12.9160   22.1590 N   0  0  0  0  0  0  0  0  0  0  0  0
  -22.3970  -14.6540   20.7740 O   0  0  0  0  0  0  0  0  0  0  0  0
  -22.5990  -12.0760   22.5550 H   0  0  0  0  0  0  0  0  0  0  0  0
  -21.3050  -13.2380   22.4790 H   0  0  0  0  0  0  0  0  0  0  0  0
  -25.4310  -15.2550   20.2430 N   0  0  0  0  0  0  0  0  0  0  0  0
  -24.6800  -15.9030   20.4570 H   0  0  0  0  0  0  0  0  0  0  0  0
  -26.2460  -15.7080   19.8530 H   0  0  0  0  0  0  0  0  0  0  0  0
  -29.1490  -20.4240   19.7740 C   0  0  0  0  0  2  0  0  0  0  0  0
  -28.7250  -22.6960   18.3840 C   0  0  0  0  0  2  0  0  0  0  0  0
  -28.3390  -22.7810   20.8300 C   0  0  0  0  0  2  0  0  0  0  0  0
  -28.8010  -24.2670   18.3480 C   0  0  0  0  0  2  0  0  0  0  0  0
  -28.4600  -24.3460   20.8070 C   0  0  0  0  0  2  0  0  0  0  0  0
  -29.1770  -22.0460   19.7310 C   0  0  0  0  0  3  0  0  0  0  0  0
  -28.0080  -24.9930   19.4710 C   0  0  0  0  0  3  0  0  0  0  0  0
  -28.1630  -26.4700   19.4610 O   0  0  0  0  0  0  0  0  0  0  0  0
  -24.4700  -31.5950   22.9560 C   0  0  0  0  0  0  0  0  0  0  0  0
  -27.0260  -27.2890   19.5130 C   0  0  0  0  0  0  0  0  0  0  0  0
  -23.2290  -30.2820   21.2720 C   0  0  0  0  0  3  0  0  0  0  0  0
  -24.6450  -28.8540   19.6950 C   0  0  0  0  0  0  0  0  0  0  0  0
  -25.7560  -30.6480   21.0260 C   0  0  0  0  0  2  0  0  0  0  0  0
  -25.8260  -29.3200   20.2840 C   0  0  0  0  0  0  0  0  0  0  0  0
  -27.0190  -28.5460   20.1910 C   0  0  0  0  0  3  0  0  0  0  0  0
  -25.8250  -26.8890   18.8850 C   0  0  0  0  0  3  0  0  0  0  0  0
  -24.6440  -27.6450   18.9860 C   0  0  0  0  0  3  0  0  0  0  0  0
  -23.4010  -29.7020   19.8440 C   0  0  0  0  0  2  0  0  0  0  0  0
  -24.5050  -30.8560   21.8080 N   0  0  0  0  0  0  0  0  0  0  0  0
  -23.4030  -31.8220   23.5450 O   0  0  0  0  0  0  0  0  0  0  0  0
  -22.6200  -29.1930   22.1890 C   0  0  0  0  0  0  0  0  0  0  0  0
  -21.2880  -29.0230   22.1230 N   0  0  0  0  0  0  0  0  0  0  0  0
  -23.3410  -28.5100   22.9210 O   0  0  0  0  0  0  0  0  0  0  0  0
  -20.7670  -29.6280   21.5060 H   0  0  0  0  0  0  0  0  0  0  0  0
  -17.9410  -27.7770   22.7040 C   0  0  0  0  0  0  0  0  0  0  0  0
  -20.5100  -28.0300   22.8650 C   0  0  0  0  0  3  0  0  0  0  0  0
  -20.5840  -26.6420   22.1850 C   0  0  0  0  0  2  0  0  0  0  0  0
  -19.4330  -26.3870   21.2070 C   0  0  0  0  0  2  0  0  0  0  0  0
  -18.0860  -26.4790   21.9290 C   0  0  0  0  0  2  0  0  0  0  0  0
  -19.0790  -28.5130   23.1300 C   0  0  0  0  0  0  0  0  0  0  0  0
  -18.8870  -29.7300   23.8190 C   0  0  0  0  0  3  0  0  0  0  0  0
  -17.5910  -30.2100   24.0860 C   0  0  0  0  0  3  0  0  0  0  0  0
  -16.4680  -29.4700   23.6770 C   0  0  0  0  0  3  0  0  0  0  0  0
  -16.6450  -28.2550   22.9900 C   0  0  0  0  0  3  0  0  0  0  0  0
  -25.7670  -32.2080   23.5690 C   0  0  0  0  0  3  0  0  0  0  0  0
  -25.4510  -33.5790   23.9960 N   0  0  0  0  0  0  0  0  0  0  0  0
  -25.7810  -34.6860   23.3180 C   0  0  0  0  0  0  0  0  0  0  0  0
  -26.4580  -34.6610   22.2860 O   0  0  0  0  0  0  0  0  0  0  0  0
  -24.8580  -33.6700   24.8090 H   0  0  0  0  0  0  0  0  0  0  0  0
  -24.0530  -36.4950   23.0760 C   0  0  0  0  0  1  0  0  0  0  0  0
  -25.2850  -36.0360   23.8720 C   0  0  0  0  0  3  0  0  0  0  0  0
  -27.4040  -36.8650   24.7960 C   0  0  0  0  0  1  0  0  0  0  0  0
  -26.3160  -37.0970   23.8480 N   0  0  0  0  0  0  0  0  0  0  0  0
  -25.9060  -38.0030   24.0530 H   0  0  0  0  0  0  0  0  0  0  0  0
  -26.3400  -31.3700   24.7770 C   0  0  1  0  0  0  0  0  0  0  0  0
  -25.2940  -31.0660   25.8740 C   0  0  0  0  0  1  0  0  0  0  0  0
  -26.9140  -30.0200   24.2880 C   0  0  0  0  0  1  0  0  0  0  0  0
  -27.5140  -32.1340   25.4350 C   0  0  0  0  0  1  0  0  0  0  0  0
  -32.5070  -20.7570   23.3880 O   0  0  0  0  0  0  0  0  0  0  0  0
  -31.5630  -21.1150   24.3980 C   0  0  0  0  0  2  0  0  0  0  0  0
  -29.4870  -22.4910   23.5690 C   0  0  0  0  0  2  0  0  0  0  0  0
  -29.8230  -23.0340   24.9360 C   0  0  0  0  0  2  0  0  0  0  0  0
  -30.9140  -22.4440   24.0670 C   0  0  0  0  0  3  0  0  0  0  0  0
  1  6  1  0
  2  6  2  0
  3  1  2  0
  4  2  1  0
  5  4  2  0
  5  3  1  0
  6 96  1  0
  7  3  1  0
  8  9  1  0
  9 18  2  3
  9  5  1  0
 10 16  1  0
 10 18  1  0
 11 16  1  0
 12 13  1  0
 12 11  1  0
 14 13  1  0
 14 23  1  0
 14 15  1  0
 16 15  1  0
 17 10  2  0
 18 19  1  0
 20 21  2  0
 21 40  1  0
 22 21  1  0
 22 25  1  0
 23 24  1  0
 23 20  1  0
 24 22  2  0
 25 26  1  0
 26 27  2  0
 28 31  1  0
 28 27  1  0
 29 28  2  0
 30 29  1  0
 30 25  2  0
 31 32  1  0
 32 33  1  0
 33 34  2  0
 35 34  1  0
 35 39  1  0
 36 35  2  0
 37 32  2  0
 37 36  1  0
 38 37  1  0
 40 41  1  0
 41 44  1  0
 41 43  1  0
 42 40  2  0
 45 20  1  0
 45 46  1  0
 47 45  1  0
 48  4  1  0
 49 53  1  0
 51 49  1  0
 51 54  1  0
 52 50  1  0
 53 48  1  0
 53 50  1  0
 54 55  1  0
 54 52  1  0
 55 57  1  0
 56 67  2  0
 57 62  1  0
 58 66  1  0
 58 68  1  0
 59 65  1  0
 59 61  1  0
 60 66  1  0
 61 60  1  0
 62 61  2  0
 63 64  1  0
 63 57  2  0
 64 59  2  0
 65 58  1  0
 66 56  1  0
 68 70  2  0
 69 68  1  0
 71 69  1  0
 72 81  2  0
 72 77  1  0
 73 69  1  0
 73 77  1  0
 74 73  1  0
 75 76  1  0
 75 74  1  0
 76 72  1  0
 77 78  2  0
 78 79  1  0
 80 79  2  0
 81 80  1  0
 82 56  1  0
 82 83  1  0
 82 92  1  0
 83 86  1  0
 84 88  1  0
 84 83  1  0
 85 84  2  0
 88 87  1  0
 90 88  1  0
 90 91  1  0
 90 89  1  0
 92 95  1  1
 92 93  1  0
 94 92  1  0
 96 97  1  0
 98100  1  0
 98 99  1  0
100 97  1  0
100 99  1  0
M  ISO  4  10 100  18 100  54 101  55 101
M  END
>  <TORSDO>  (74) 
F 22

>  <SCORE>  (74) 
-11.790

>  <name>  (74) 
74

>  <ligand_id>  (74) 
74

>  <original_smiles>  (74) 
[H]c1c([H])c([H])c2c(c1[H])C([H])([H])C([H])([H])C([H])([H])C2([H])N([H])C(=O)C1([H])N(C(=O)C([H])(N([H])C(=O)C([H])(N([H])C([H])([H])[H])C([H])([H])[H])C(C([H])([H])[H])(C([H])([H])[H])C([H])([H])[H])C([H])([H])c2c([H])c(OC3([H])C([H])([H])C([H])([H])C([H])(C([H])([H])c4c([H])c(OC([H])([H])C5([H])C([H])([H])C5([H])[H])c([H])c(C([H])([H])[H])c4C([H])(N([H])C(=O)N4C([H])([H])C([H])([H])C([H])([H])C([H])(n5nc(-c6c([H])c([H])c(Oc7c([H])c([H])c(F)c([H])c7F)c([H])c6[H])c(C(=O)N([H])[H])c5N([H])[H])C4([H])[H])C([H])([H])[H])C([H])([H])C3([H])[H])c([H])c([H])c2C1([H])[H]

>  <smiles>  (74) 
[H]c1c([H])c([H])c2c(c1[H])C([H])([H])C([H])([H])C([H])([H])C2([H])N([H])C(=O)C1([H])N(C(=O)C([H])(N([H])C(=O)C([H])(N([H])C([H])([H])[H])C([H])([H])[H])C(C([H])([H])[H])(C([H])([H])[H])C([H])([H])[H])C([H])([H])c2c([H])c(OC3([H])C([H])([H])C([H])([H])C([H])(C([H])([H])c4c([H])c(OC([H])([H])C5([H])C([H])([H])C5([H])[H])c([H])c(C([H])([H])[H])c4C([H])(N([H])C(=O)N4C([H])([H])C([H])([H])C([H])([H])C([H])(n5nc(-c6c([H])c([H])c(Oc7c([H])c([H])c(F)c([H])c7F)c([H])c6[H])c(C(=O)N([H])[H])c5N([H])[H])C4([H])[H])C([H])([H])[H])C([H])([H])C3([H])[H])c([H])c([H])c2C1([H])[H]

$$$$
75:0:0
     RDKit          3D

 93102  0  0  1  0  0  0  0  0999 V2000
  -28.4160  -23.2500   20.6430 C   0  0  0  0  0  0  0  0  0  0  0  0
  -29.0880  -24.1010   19.6870 C   0  0  0  0  0  0  0  0  0  0  0  0
  -28.7780  -21.8950   20.8830 C   0  0  0  0  0  3  0  0  0  0  0  0
  -30.0640  -23.4970   18.8820 C   0  0  0  0  0  3  0  0  0  0  0  0
  -29.8420  -21.3850   20.0600 C   0  0  0  0  0  0  0  0  0  0  0  0
  -27.4240  -24.3280   20.8870 C   0  0  0  0  0  0  0  0  0  0  0  0
  -28.0510  -25.2610   19.7070 C   0  0  0  0  0  3  0  0  0  0  0  0
  -28.0740  -21.0620   21.9350 C   0  0  0  0  0  1  0  0  0  0  0  0
  -30.6590  -24.2000   17.6840 C   0  0  0  0  0  1  0  0  0  0  0  0
  -30.4440  -22.1930   19.1190 N   0  0  0  0  0  0  0  0  0  0  0  0
  -26.4890  -24.4040   21.6910 O   0  0  0  0  0  0  0  0  0  0  0  0
  -28.3280  -26.6750   20.1140 O   0  0  0  0  0  0  0  0  0  0  0  0
  -24.6840  -32.0130   23.3980 C   0  0  0  0  0  0  0  0  0  0  0  0
  -27.2280  -27.5640   20.1040 C   0  0  0  0  0  0  0  0  0  0  0  0
  -23.4520  -30.6900   21.7220 C   0  0  0  0  0  3  0  0  0  0  0  0
  -24.8740  -29.2080   20.2060 C   0  0  0  0  0  0  0  0  0  0  0  0
  -25.9920  -31.0050   21.5130 C   0  0  0  0  0  2  0  0  0  0  0  0
  -26.0580  -29.6540   20.8050 C   0  0  0  0  0  0  0  0  0  0  0  0
  -27.2390  -28.8460   20.7460 C   0  0  0  0  0  3  0  0  0  0  0  0
  -26.0120  -27.1900   19.4790 C   0  0  0  0  0  3  0  0  0  0  0  0
  -24.8570  -27.9810   19.5340 C   0  0  0  0  0  3  0  0  0  0  0  0
  -23.6400  -30.0820   20.3110 C   0  0  0  0  0  2  0  0  0  0  0  0
  -24.7300  -31.2490   22.2670 N   0  0  0  0  0  0  0  0  0  0  0  0
  -23.6090  -32.2680   23.9620 O   0  0  0  0  0  0  0  0  0  0  0  0
  -22.8040  -29.6280   22.6470 C   0  0  0  0  0  0  0  0  0  0  0  0
  -21.4910  -29.3980   22.4780 N   0  0  0  0  0  0  0  0  0  0  0  0
  -23.4850  -29.0170   23.4750 O   0  0  0  0  0  0  0  0  0  0  0  0
  -21.0000  -29.9460   21.7850 H   0  0  0  0  0  0  0  0  0  0  0  0
  -18.1620  -28.0240   22.8290 C   0  0  0  0  0  0  0  0  0  0  0  0
  -20.6880  -28.4160   23.2100 C   0  0  0  0  0  3  0  0  0  0  0  0
  -20.8910  -26.9920   22.6400 C   0  0  0  0  0  2  0  0  0  0  0  0
  -19.8540  -26.6140   21.5790 C   0  0  0  0  0  2  0  0  0  0  0  0
  -18.4380  -26.6870   22.1600 C   0  0  0  0  0  2  0  0  0  0  0  0
  -19.2200  -28.8440   23.3050 C   0  0  0  0  0  0  0  0  0  0  0  0
  -18.9090  -30.0920   23.8890 C   0  0  0  0  0  3  0  0  0  0  0  0
  -17.5750  -30.5240   23.9970 C   0  0  0  0  0  3  0  0  0  0  0  0
  -16.5310  -29.7010   23.5360 C   0  0  0  0  0  3  0  0  0  0  0  0
  -16.8250  -28.4530   22.9590 C   0  0  0  0  0  3  0  0  0  0  0  0
  -25.9760  -32.6200   24.0250 C   0  0  0  0  0  3  0  0  0  0  0  0
  -26.4650  -31.8470   25.3120 C   0  0  1  0  0  0  0  0  0  0  0  0
  -25.3550  -31.6210   26.3660 C   0  0  0  0  0  1  0  0  0  0  0  0
  -27.0400  -30.4630   24.9300 C   0  0  0  0  0  1  0  0  0  0  0  0
  -27.6200  -32.6310   25.9840 C   0  0  0  0  0  1  0  0  0  0  0  0
  -25.6940  -34.0250   24.3470 N   0  0  0  0  0  0  0  0  0  0  0  0
  -25.9980  -35.0640   23.5570 C   0  0  0  0  0  0  0  0  0  0  0  0
  -26.6160  -34.9390   22.4950 O   0  0  0  0  0  0  0  0  0  0  0  0
  -25.1420  -34.1970   25.1740 H   0  0  0  0  0  0  0  0  0  0  0  0
  -24.2460  -36.8530   23.2950 C   0  0  0  0  0  1  0  0  0  0  0  0
  -25.5470  -36.4660   24.0160 C   0  0  0  0  0  3  0  0  0  0  0  0
  -27.7310  -37.3770   24.6710 C   0  0  0  0  0  1  0  0  0  0  0  0
  -26.5670  -37.5140   23.7980 N   0  0  0  0  0  0  0  0  0  0  0  0
  -26.1690  -38.4380   23.9480 H   0  0  0  0  0  0  0  0  0  0  0  0
  -30.4670  -20.1250   20.1970 O   0  0  0  0  0  0  0  0  0  0  0  0
  -29.7750  -18.8240   20.1530 C   0  0  0  0  0  2  0  0  0  0  0  0
  -30.7720  -17.5690   20.2840 C   0  0  0  0  0  2  0  0  0  0  0  0
  -30.9510  -14.9960   20.1020 C   0  0  0  0  0  0  0  0  0  0  0  0
  -30.7040  -12.6850   19.2060 C   0  0  0  0  0  2  0  0  0  0  0  0
  -29.7470  -12.6910   17.9950 C   0  0  0  0  0  2  0  0  0  0  0  0
  -28.2870  -12.5300   18.4640 C   0  0  0  0  0  2  0  0  0  0  0  0
  -27.9250  -13.4920   19.6260 C   0  0  0  0  0  3  0  0  0  0  0  0
  -29.0040  -13.4820   20.7320 C   0  0  0  0  0  2  0  0  0  0  0  0
  -30.2940  -13.7900   20.1000 N   0  0  0  0  0  0  0  0  0  0  0  0
  -32.1170  -15.0750   19.7120 O   0  0  0  0  0  0  0  0  0  0  0  0
  -30.2390  -16.1470   20.3520 N   0  0  0  0  0  0  0  0  0  0  0  0
  -29.2770  -16.0310   20.6280 H   0  0  0  0  0  0  0  0  0  0  0  0
  -25.5710  -14.1050   20.4490 C   0  0  0  0  0  0  0  0  0  0  0  0
  -24.5040  -13.3400   20.8360 C   0  0  0  0  0  0  0  0  0  0  0  0
  -24.9430  -11.9840   20.7580 C   0  0  0  0  0  0  0  0  0  0  0  0
  -26.5920  -13.2160   20.1580 N   0  0  0  0  0  0  0  0  0  0  0  0
  -26.2220  -11.9330   20.4060 N   0  0  0  0  0  0  0  0  0  0  0  0
  -24.2010  -10.7290   20.9420 C   0  0  0  0  0  0  0  0  0  0  0  0
  -24.5980   -9.7680   21.8990 C   0  0  0  0  0  3  0  0  0  0  0  0
  -23.8570   -8.5790   22.0700 C   0  0  0  0  0  3  0  0  0  0  0  0
  -22.7030   -8.3410   21.2860 C   0  0  0  0  0  0  0  0  0  0  0  0
  -22.3240   -9.2910   20.3200 C   0  0  0  0  0  3  0  0  0  0  0  0
  -23.0670  -10.4710   20.1470 C   0  0  0  0  0  3  0  0  0  0  0  0
  -21.9370   -7.2050   21.3660 O   0  0  0  0  0  0  0  0  0  0  0  0
  -21.7800   -6.5250   22.5470 C   0  0  0  0  0  0  0  0  0  0  0  0
  -21.1940   -7.1250   23.6830 C   0  0  0  0  0  3  0  0  0  0  0  0
  -20.9900   -6.3690   24.8540 C   0  0  0  0  0  3  0  0  0  0  0  0
  -21.3590   -5.0120   24.8900 C   0  0  0  0  0  0  0  0  0  0  0  0
  -21.9370   -4.4100   23.7590 C   0  0  0  0  0  3  0  0  0  0  0  0
  -22.1450   -5.1630   22.5900 C   0  0  0  0  0  0  0  0  0  0  0  0
  -22.6830   -4.5730   21.4960 F   0  0  0  0  0  0  0  0  0  0  0  0
  -21.1570   -4.2820   26.0120 F   0  0  0  0  0  0  0  0  0  0  0  0
  -23.1260  -13.8350   21.1650 C   0  0  0  0  0  0  0  0  0  0  0  0
  -22.4190  -13.1380   22.0490 N   0  0  0  0  0  0  0  0  0  0  0  0
  -22.6840  -14.8730   20.6750 O   0  0  0  0  0  0  0  0  0  0  0  0
  -22.7870  -12.2960   22.4690 H   0  0  0  0  0  0  0  0  0  0  0  0
  -21.4950  -13.4520   22.3140 H   0  0  0  0  0  0  0  0  0  0  0  0
  -25.7520  -15.4770   20.2990 N   0  0  0  0  0  0  0  0  0  0  0  0
  -24.9980  -16.1400   20.4470 H   0  0  0  0  0  0  0  0  0  0  0  0
  -26.5900  -15.9090   19.9320 H   0  0  0  0  0  0  0  0  0  0  0  0
  1  3  1  0
  1  6  1  0
  2  7  1  0
  2  1  2  0
  3  8  1  0
  4  9  1  0
  4 10  1  0
  4  2  1  0
  5 53  1  0
  5  3  1  0
  6 11  2  0
  7 12  1  0
  7  6  1  0
 10  5  2  0
 13 24  2  0
 14 12  1  0
 14 19  1  0
 15 23  1  0
 15 25  1  0
 16 22  1  0
 16 18  1  0
 17 23  1  0
 18 17  1  0
 19 18  2  0
 20 21  1  0
 20 14  2  0
 21 16  2  0
 22 15  1  0
 23 13  1  0
 25 27  2  0
 26 25  1  0
 28 26  1  0
 29 38  2  0
 29 34  1  0
 30 26  1  0
 30 34  1  0
 31 30  1  0
 32 33  1  0
 32 31  1  0
 33 29  1  0
 34 35  2  0
 35 36  1  0
 37 36  2  0
 38 37  1  0
 39 13  1  0
 39 44  1  0
 39 40  1  0
 40 43  1  1
 40 41  1  0
 42 40  1  0
 44 47  1  0
 45 49  1  0
 45 44  1  0
 46 45  2  0
 49 48  1  0
 51 52  1  0
 51 49  1  0
 51 50  1  0
 54 53  1  0
 54 55  1  0
 55 64  1  0
 56 64  1  0
 57 62  1  0
 58 59  1  0
 58 57  1  0
 60 59  1  0
 60 69  1  0
 60 61  1  0
 62 56  1  0
 62 61  1  0
 63 56  2  0
 64 65  1  0
 66 67  2  0
 67 86  1  0
 68 67  1  0
 68 71  1  0
 69 70  1  0
 69 66  1  0
 70 68  2  0
 71 72  1  0
 72 73  2  0
 74 77  1  0
 74 73  1  0
 75 74  2  0
 76 75  1  0
 76 71  2  0
 77 78  1  0
 78 83  2  0
 78 79  1  0
 79 80  2  0
 80 81  1  0
 81 85  1  0
 82 81  2  0
 83 82  1  0
 84 83  1  0
 86 87  1  0
 87 90  1  0
 87 89  1  0
 88 86  2  0
 91 92  1  0
 91 66  1  0
 93 91  1  0
M  ISO  4   7 101  12 101  56 100  64 100
M  END
>  <TORSDO>  (75) 
F 19

>  <SCORE>  (75) 
-13.135

>  <name>  (75) 
75

>  <ligand_id>  (75) 
75

>  <original_smiles>  (75) 
[H]c1c([H])c([H])c2c(c1[H])C([H])([H])C([H])([H])C([H])([H])C2([H])N([H])C(=O)C1([H])N(C(=O)C([H])(N([H])C(=O)C([H])(N([H])C([H])([H])[H])C([H])([H])[H])C(C([H])([H])[H])(C([H])([H])[H])C([H])([H])[H])C([H])([H])c2c([H])c(OC3([H])C(=O)c4c(C([H])([H])[H])c(OC([H])([H])C([H])([H])N([H])C(=O)N5C([H])([H])C([H])([H])C([H])([H])C([H])(n6nc(-c7c([H])c([H])c(Oc8c([H])c([H])c(F)c([H])c8F)c([H])c7[H])c(C(=O)N([H])[H])c6N([H])[H])C5([H])[H])nc(C([H])([H])[H])c43)c([H])c([H])c2C1([H])[H]

>  <smiles>  (75) 
[H]c1c([H])c([H])c2c(c1[H])C([H])([H])C([H])([H])C([H])([H])C2([H])N([H])C(=O)C1([H])N(C(=O)C([H])(N([H])C(=O)C([H])(N([H])C([H])([H])[H])C([H])([H])[H])C(C([H])([H])[H])(C([H])([H])[H])C([H])([H])[H])C([H])([H])c2c([H])c(OC3([H])C(=O)c4c(C([H])([H])[H])c(OC([H])([H])C([H])([H])N([H])C(=O)N5C([H])([H])C([H])([H])C([H])([H])C([H])(n6nc(-c7c([H])c([H])c(Oc8c([H])c([H])c(F)c([H])c8F)c([H])c7[H])c(C(=O)N([H])[H])c6N([H])[H])C5([H])[H])nc(C([H])([H])[H])c43)c([H])c([H])c2C1([H])[H]

$$$$
76:0:0
     RDKit          3D

100111  0  0  1  0  0  0  0  0999 V2000
  -28.2170  -21.6600   21.5120 C   0  0  0  0  0  2  0  0  0  0  0  0
  -29.2970  -21.3260   20.5080 C   0  0  0  0  0  3  0  0  0  0  0  0
  -28.8940  -22.7790   20.7600 C   0  0  0  0  0  3  0  0  0  0  0  0
  -27.9530  -23.4490   19.8260 N   0  0  0  0  0  4  0  0  0  0  0  0
  -27.0270  -23.0590   19.9230 H   0  0  0  0  0  0  0  0  0  0  0  0
  -28.2640  -23.2280   18.8920 H   0  0  0  0  0  0  0  0  0  0  0  0
  -27.8960  -24.9430   19.9500 C   0  0  0  0  0  3  0  0  0  0  0  0
  -25.3200  -24.7950   20.8080 C   0  0  0  0  0  2  0  0  0  0  0  0
  -26.1350  -25.1430   22.0320 C   0  0  0  0  0  2  0  0  0  0  0  0
  -26.6440  -25.5240   20.6530 C   0  0  0  0  0  3  0  0  0  0  0  0
  -28.2270  -25.6400   18.5830 C   0  0  0  0  0  2  0  0  0  0  0  0
  -27.1080  -26.0970   17.8000 O   0  0  0  0  0  0  0  0  0  0  0  0
  -25.7640  -30.1640   23.4850 C   0  0  0  0  0  0  0  0  0  0  0  0
  -26.3180  -27.0670   18.3750 C   0  0  0  0  0  0  0  0  0  0  0  0
  -23.9100  -29.8990   21.8660 C   0  0  0  0  0  3  0  0  0  0  0  0
  -24.5430  -28.8820   19.6120 C   0  0  0  0  0  0  0  0  0  0  0  0
  -26.3410  -29.7910   21.0900 C   0  0  0  0  0  2  0  0  0  0  0  0
  -25.8880  -28.8460   19.9980 C   0  0  0  0  0  0  0  0  0  0  0  0
  -26.7820  -27.9430   19.3850 C   0  0  0  0  0  3  0  0  0  0  0  0
  -24.9750  -27.1510   17.9610 C   0  0  0  0  0  3  0  0  0  0  0  0
  -24.0810  -28.0380   18.5870 C   0  0  0  0  0  3  0  0  0  0  0  0
  -23.6490  -29.8630   20.3340 C   0  0  0  0  0  2  0  0  0  0  0  0
  -25.3710  -29.9350   22.2000 N   0  0  0  0  0  0  0  0  0  0  0  0
  -24.9350  -30.3910   24.3770 O   0  0  0  0  0  0  0  0  0  0  0  0
  -23.1620  -28.7180   22.5260 C   0  0  0  0  0  0  0  0  0  0  0  0
  -21.8270  -28.7040   22.3850 N   0  0  0  0  0  0  0  0  0  0  0  0
  -23.7790  -27.8340   23.1250 O   0  0  0  0  0  0  0  0  0  0  0  0
  -21.3950  -29.4720   21.8890 H   0  0  0  0  0  0  0  0  0  0  0  0
  -18.4300  -27.4850   22.2050 C   0  0  0  0  0  0  0  0  0  0  0  0
  -20.9180  -27.6730   22.8860 C   0  0  0  0  0  3  0  0  0  0  0  0
  -21.1170  -26.3380   22.1330 C   0  0  0  0  0  2  0  0  0  0  0  0
  -20.1810  -26.1730   20.9340 C   0  0  0  0  0  2  0  0  0  0  0  0
  -18.7180  -26.2430   21.3790 C   0  0  0  0  0  2  0  0  0  0  0  0
  -19.4670  -28.1660   22.8980 C   0  0  0  0  0  0  0  0  0  0  0  0
  -19.1510  -29.3370   23.6220 C   0  0  0  0  0  3  0  0  0  0  0  0
  -17.8310  -29.8240   23.6630 C   0  0  0  0  0  3  0  0  0  0  0  0
  -16.8080  -29.1360   22.9860 C   0  0  0  0  0  3  0  0  0  0  0  0
  -17.1070  -27.9680   22.2630 C   0  0  0  0  0  3  0  0  0  0  0  0
  -27.2740  -30.1800   23.8890 C   0  0  0  0  0  3  0  0  0  0  0  0
  -27.4680  -31.2910   24.8290 N   0  0  0  0  0  0  0  0  0  0  0  0
  -28.0450  -32.4590   24.5160 C   0  0  0  0  0  0  0  0  0  0  0  0
  -28.5440  -32.6860   23.4110 O   0  0  0  0  0  0  0  0  0  0  0  0
  -27.0490  -31.1930   25.7430 H   0  0  0  0  0  0  0  0  0  0  0  0
  -26.9700  -34.5780   25.3340 C   0  0  0  0  0  1  0  0  0  0  0  0
  -28.0780  -33.5480   25.6050 C   0  0  0  0  0  3  0  0  0  0  0  0
  -30.4510  -33.3770   26.2150 C   0  0  0  0  0  1  0  0  0  0  0  0
  -29.3830  -34.2370   25.7110 N   0  0  0  0  0  0  0  0  0  0  0  0
  -29.3140  -35.0460   26.3230 H   0  0  0  0  0  0  0  0  0  0  0  0
  -27.7630  -28.8200   24.5210 C   0  0  1  0  0  0  0  0  0  0  0  0
  -26.8700  -28.3170   25.6780 C   0  0  0  0  0  1  0  0  0  0  0  0
  -27.8180  -27.7110   23.4450 C   0  0  0  0  0  1  0  0  0  0  0  0
  -29.2020  -28.9780   25.0640 C   0  0  0  0  0  1  0  0  0  0  0  0
  -30.6210  -20.7760   21.0460 C   0  0  0  0  0  2  0  0  0  0  0  0
  -30.4780  -19.4480   21.8370 C   0  0  0  0  0  3  0  0  0  0  0  0
  -30.5420  -20.3110   24.3370 C   0  0  0  0  0  2  0  0  0  0  0  0
  -30.5280  -18.7980   24.3790 C   0  0  0  0  0  2  0  0  0  0  0  0
  -31.1440  -19.5140   23.2030 C   0  0  0  0  0  3  0  0  0  0  0  0
  -30.8940  -18.1980   21.0250 C   0  0  0  0  0  2  0  0  0  0  0  0
  -31.7780  -14.2850   18.6630 C   0  0  0  0  0  0  0  0  0  0  0  0
  -30.8430  -12.2340   17.6740 C   0  0  0  0  0  2  0  0  0  0  0  0
  -29.6820  -12.5180   16.7040 C   0  0  0  0  0  2  0  0  0  0  0  0
  -28.3530  -12.4950   17.4690 C   0  0  0  0  0  2  0  0  0  0  0  0
  -28.3860  -13.4130   18.7130 C   0  0  0  0  0  3  0  0  0  0  0  0
  -29.6540  -13.1990   19.5700 C   0  0  0  0  0  2  0  0  0  0  0  0
  -30.8670  -13.2680   18.7320 N   0  0  0  0  0  0  0  0  0  0  0  0
  -32.4370  -14.4610   17.6320 O   0  0  0  0  0  0  0  0  0  0  0  0
  -33.1880  -17.1270   20.7290 C   0  0  0  0  0  2  0  0  0  0  0  0
  -31.4430  -15.8660   22.0410 C   0  0  0  0  0  2  0  0  0  0  0  0
  -32.8310  -16.3100   19.4770 C   0  0  0  0  0  2  0  0  0  0  0  0
  -31.9930  -14.7180   21.1560 C   0  0  0  0  0  2  0  0  0  0  0  0
  -31.9780  -17.2760   21.6550 C   0  0  0  0  0  3  0  0  0  0  0  0
  -32.0060  -15.1020   19.7320 N   0  0  0  0  0  0  0  0  0  0  0  0
  -26.3760  -14.2430   20.0930 C   0  0  0  0  0  0  0  0  0  0  0  0
  -25.3280  -13.5820   20.6740 C   0  0  0  0  0  0  0  0  0  0  0  0
  -25.5430  -12.1940   20.4130 C   0  0  0  0  0  0  0  0  0  0  0  0
  -27.1710  -13.2660   19.5160 N   0  0  0  0  0  0  0  0  0  0  0  0
  -26.6870  -12.0190   19.7630 N   0  0  0  0  0  0  0  0  0  0  0  0
  -24.6950  -11.0250   20.6920 C   0  0  0  0  0  0  0  0  0  0  0  0
  -25.1060  -10.0120   21.5860 C   0  0  0  0  0  3  0  0  0  0  0  0
  -24.2650   -8.9090   21.8510 C   0  0  0  0  0  3  0  0  0  0  0  0
  -23.0000   -8.8130   21.2250 C   0  0  0  0  0  0  0  0  0  0  0  0
  -22.6050   -9.8140   20.3200 C   0  0  0  0  0  3  0  0  0  0  0  0
  -23.4450  -10.9090   20.0520 C   0  0  0  0  0  3  0  0  0  0  0  0
  -22.1280   -7.7660   21.4020 O   0  0  0  0  0  0  0  0  0  0  0  0
  -21.8940   -7.2260   22.6420 C   0  0  0  0  0  0  0  0  0  0  0  0
  -21.6060   -8.0330   23.7640 C   0  0  0  0  0  3  0  0  0  0  0  0
  -21.3040   -7.4340   25.0030 C   0  0  0  0  0  3  0  0  0  0  0  0
  -21.2800   -6.0310   25.1200 C   0  0  0  0  0  0  0  0  0  0  0  0
  -21.5600   -5.2270   24.0030 C   0  0  0  0  0  3  0  0  0  0  0  0
  -21.8620   -5.8220   22.7660 C   0  0  0  0  0  0  0  0  0  0  0  0
  -22.1110   -5.0420   21.6870 F   0  0  0  0  0  0  0  0  0  0  0  0
  -20.9810   -5.4550   26.3080 F   0  0  0  0  0  0  0  0  0  0  0  0
  -24.1420  -14.2050   21.3510 C   0  0  0  0  0  0  0  0  0  0  0  0
  -23.6270  -13.5660   22.3960 N   0  0  0  0  0  0  0  0  0  0  0  0
  -23.6950  -15.2920   20.9860 O   0  0  0  0  0  0  0  0  0  0  0  0
  -24.0040  -12.6830   22.7060 H   0  0  0  0  0  0  0  0  0  0  0  0
  -22.8410  -13.9660   22.8900 H   0  0  0  0  0  0  0  0  0  0  0  0
  -26.7120  -15.5890   19.9890 N   0  0  0  0  0  0  0  0  0  0  0  0
  -26.1270  -16.3270   20.3630 H   0  0  0  0  0  0  0  0  0  0  0  0
  -27.5280  -15.9390   19.5040 H   0  0  0  0  0  0  0  0  0  0  0  0
  2  3  1  0
  2 53  1  0
  2  1  1  0
  3  4  1  0
  3  1  1  0
  4  5  1  0
  4  7  1  0
  6  4  1  0
  7 11  1  0
  7 10  1  0
  8  9  1  0
 10  8  1  0
 10  9  1  0
 12 14  1  0
 12 11  1  0
 13 24  2  0
 14 19  1  0
 15 23  1  0
 15 25  1  0
 16 18  1  0
 16 22  1  0
 17 23  1  0
 18 17  1  0
 19 18  2  0
 20 14  2  0
 20 21  1  0
 21 16  2  0
 22 15  1  0
 23 13  1  0
 25 27  2  0
 26 25  1  0
 28 26  1  0
 29 38  2  0
 29 34  1  0
 30 26  1  0
 30 34  1  0
 31 30  1  0
 32 33  1  0
 32 31  1  0
 33 29  1  0
 34 35  2  0
 35 36  1  0
 37 36  2  0
 38 37  1  0
 39 13  1  0
 39 49  1  0
 39 40  1  0
 40 43  1  0
 41 40  1  0
 41 45  1  0
 42 41  2  0
 45 44  1  0
 45 47  1  0
 47 46  1  0
 47 48  1  0
 49 52  1  1
 49 50  1  0
 51 49  1  0
 53 54  1  0
 54 58  1  0
 54 57  1  0
 55 56  1  0
 57 55  1  0
 57 56  1  0
 59 65  1  0
 59 72  1  0
 60 65  1  0
 61 62  1  0
 61 60  1  0
 63 62  1  0
 63 76  1  0
 63 64  1  0
 65 64  1  0
 66 59  2  0
 67 71  1  0
 69 72  1  0
 69 67  1  0
 70 68  1  0
 71 58  1  0
 71 68  1  0
 72 70  1  0
 73 74  2  0
 74 93  1  0
 75 74  1  0
 75 78  1  0
 76 77  1  0
 76 73  1  0
 77 75  2  0
 78 79  1  0
 79 80  2  0
 81 84  1  0
 81 80  1  0
 82 81  2  0
 83 82  1  0
 83 78  2  0
 84 85  1  0
 85 90  2  0
 85 86  1  0
 86 87  2  0
 87 88  1  0
 88 92  1  0
 89 88  2  0
 90 89  1  0
 91 90  1  0
 93 94  1  0
 94 96  1  0
 94 97  1  0
 95 93  2  0
 98 73  1  0
 98 99  1  0
100 98  1  0
M  ISO  4  11 101  12 101  59 100  72 100
M  END
>  <TORSDO>  (76) 
F 24

>  <SCORE>  (76) 
-4.405

>  <name>  (76) 
76

>  <ligand_id>  (76) 
76

>  <original_smiles>  (76) 
[H]c1c([H])c([H])c2c(c1[H])C([H])([H])C([H])([H])C([H])([H])C2([H])N([H])C(=O)C1([H])N(C(=O)C([H])(N([H])C(=O)C([H])(N([H])C([H])([H])[H])C([H])([H])[H])C(C([H])([H])[H])(C([H])([H])[H])C([H])([H])[H])C([H])([H])c2c([H])c(OC([H])([H])C([H])(C3([H])C([H])([H])C3([H])[H])[N+]([H])([H])C3([H])C([H])([H])C3([H])C([H])([H])C([H])(C([H])([H])C3([H])C([H])([H])C([H])([H])N(C(=O)N4C([H])([H])C([H])([H])C([H])([H])C([H])(n5nc(-c6c([H])c([H])c(Oc7c([H])c([H])c(F)c([H])c7F)c([H])c6[H])c(C(=O)N([H])[H])c5N([H])[H])C4([H])[H])C([H])([H])C3([H])[H])C3([H])C([H])([H])C3([H])[H])c([H])c([H])c2C1([H])[H]

>  <smiles>  (76) 
[H]c1c([H])c([H])c2c(c1[H])C([H])([H])C([H])([H])C([H])([H])C2([H])N([H])C(=O)C1([H])N(C(=O)C([H])(N([H])C(=O)C([H])(N([H])C([H])([H])[H])C([H])([H])[H])C(C([H])([H])[H])(C([H])([H])[H])C([H])([H])[H])C([H])([H])c2c([H])c(OC([H])([H])C([H])(C3([H])C([H])([H])C3([H])[H])[N+]([H])([H])C3([H])C([H])([H])C3([H])C([H])([H])C([H])(C([H])([H])C3([H])C([H])([H])C([H])([H])N(C(=O)N4C([H])([H])C([H])([H])C([H])([H])C([H])(n5nc(-c6c([H])c([H])c(Oc7c([H])c([H])c(F)c([H])c7F)c([H])c6[H])c(C(=O)N([H])[H])c5N([H])[H])C4([H])[H])C([H])([H])C3([H])[H])C3([H])C([H])([H])C3([H])[H])c([H])c([H])c2C1([H])[H]

$$$$
77:0:0
     RDKit          3D

 94103  0  0  1  0  0  0  0  0999 V2000
  -30.1540  -21.4330   20.6450 C   0  0  0  0  0  3  0  0  0  0  0  0
  -31.3840  -19.1090   20.5690 C   0  0  0  0  0  3  0  0  0  0  0  0
  -31.3920  -17.6820   20.5670 C   0  0  0  0  0  3  0  0  0  0  0  0
  -29.0040  -17.6960   20.2590 C   0  0  0  0  0  3  0  0  0  0  0  0
  -30.1850  -19.8680   20.4430 C   0  0  0  0  0  0  0  0  0  0  0  0
  -30.1930  -16.9370   20.4220 C   0  0  0  0  0  0  0  0  0  0  0  0
  -28.9810  -19.1300   20.2720 C   0  0  0  0  0  0  0  0  0  0  0  0
  -30.7770  -14.4900   19.7540 C   0  0  0  0  0  0  0  0  0  0  0  0
  -30.3950  -12.3270   18.5820 C   0  0  0  0  0  2  0  0  0  0  0  0
  -29.3200  -12.5280   17.4880 C   0  0  0  0  0  2  0  0  0  0  0  0
  -27.8990  -12.3860   18.0700 C   0  0  0  0  0  2  0  0  0  0  0  0
  -27.7050  -13.2050   19.3740 C   0  0  0  0  0  3  0  0  0  0  0  0
  -28.8680  -12.9420   20.3580 C   0  0  0  0  0  2  0  0  0  0  0  0
  -30.1240  -13.2890   19.6690 N   0  0  0  0  0  0  0  0  0  0  0  0
  -31.8640  -14.6750   19.1960 O   0  0  0  0  0  0  0  0  0  0  0  0
  -30.0840  -15.4820   20.3910 N   0  0  0  0  0  0  0  0  0  0  0  0
  -29.2670  -15.1200   20.8570 H   0  0  0  0  0  0  0  0  0  0  0  0
  -25.4340  -13.8470   20.3980 C   0  0  0  0  0  0  0  0  0  0  0  0
  -24.3780  -13.0900   20.8290 C   0  0  0  0  0  0  0  0  0  0  0  0
  -24.7680  -11.7290   20.6490 C   0  0  0  0  0  0  0  0  0  0  0  0
  -26.4040  -12.9450   19.9850 N   0  0  0  0  0  0  0  0  0  0  0  0
  -26.0120  -11.6620   20.1930 N   0  0  0  0  0  0  0  0  0  0  0  0
  -24.0090  -10.4840   20.8270 C   0  0  0  0  0  0  0  0  0  0  0  0
  -24.4470   -9.4730   21.7120 C   0  0  0  0  0  3  0  0  0  0  0  0
  -23.6920   -8.2940   21.8800 C   0  0  0  0  0  3  0  0  0  0  0  0
  -22.4830   -8.1170   21.1640 C   0  0  0  0  0  0  0  0  0  0  0  0
  -22.0640   -9.1160   20.2690 C   0  0  0  0  0  3  0  0  0  0  0  0
  -22.8210  -10.2870   20.0970 C   0  0  0  0  0  3  0  0  0  0  0  0
  -21.6960   -6.9930   21.2460 O   0  0  0  0  0  0  0  0  0  0  0  0
  -21.5960   -6.2680   22.4050 C   0  0  0  0  0  0  0  0  0  0  0  0
  -21.1440   -6.8480   23.6110 C   0  0  0  0  0  3  0  0  0  0  0  0
  -20.9890   -6.0510   24.7630 C   0  0  0  0  0  3  0  0  0  0  0  0
  -21.2770   -4.6730   24.7080 C   0  0  0  0  0  0  0  0  0  0  0  0
  -21.7210   -4.0930   23.5070 C   0  0  0  0  0  3  0  0  0  0  0  0
  -21.8770   -4.8880   22.3590 C   0  0  0  0  0  0  0  0  0  0  0  0
  -22.2860   -4.3200   21.1980 F   0  0  0  0  0  0  0  0  0  0  0  0
  -21.1210   -3.9040   25.8120 F   0  0  0  0  0  0  0  0  0  0  0  0
  -23.0430  -13.5990   21.2940 C   0  0  0  0  0  0  0  0  0  0  0  0
  -22.3960  -12.8800   22.2040 N   0  0  0  0  0  0  0  0  0  0  0  0
  -22.5880  -14.6660   20.8840 O   0  0  0  0  0  0  0  0  0  0  0  0
  -22.7790  -12.0160   22.5560 H   0  0  0  0  0  0  0  0  0  0  0  0
  -21.5060  -13.2010   22.5550 H   0  0  0  0  0  0  0  0  0  0  0  0
  -25.6460  -15.2200   20.3050 N   0  0  0  0  0  0  0  0  0  0  0  0
  -24.9290  -15.8940   20.5480 H   0  0  0  0  0  0  0  0  0  0  0  0
  -26.4620  -15.6460   19.8840 H   0  0  0  0  0  0  0  0  0  0  0  0
  -26.6700  -19.2380   19.5800 C   0  0  0  0  0  1  0  0  0  0  0  0
  -27.8160  -19.8600   20.1500 O   0  0  0  0  0  0  0  0  0  0  0  0
  -31.6430  -22.8380   22.3040 C   0  0  0  0  0  2  0  0  0  0  0  0
  -32.2600  -21.4620   22.2690 C   0  0  0  0  0  2  0  0  0  0  0  0
  -31.5150  -21.9850   21.0580 C   0  0  0  0  0  3  0  0  0  0  0  0
  -29.4860  -22.3500   19.5370 C   0  0  0  0  0  2  0  0  0  0  0  0
  -29.5820  -23.9260   19.7650 C   0  0  0  0  0  3  0  0  0  0  0  0
  -28.5410  -24.8600   19.0370 C   0  0  0  0  0  3  0  0  0  0  0  0
  -28.6540  -26.3150   19.2620 O   0  0  0  0  0  0  0  0  0  0  0  0
  -24.6550  -31.1390   22.7910 C   0  0  0  0  0  0  0  0  0  0  0  0
  -27.4820  -27.0810   19.2810 C   0  0  0  0  0  0  0  0  0  0  0  0
  -23.5090  -29.8330   21.0360 C   0  0  0  0  0  3  0  0  0  0  0  0
  -25.0240  -28.5250   19.4490 C   0  0  0  0  0  0  0  0  0  0  0  0
  -26.0210  -30.3270   20.8590 C   0  0  0  0  0  2  0  0  0  0  0  0
  -26.1690  -29.0280   20.0790 C   0  0  0  0  0  0  0  0  0  0  0  0
  -27.3990  -28.3160   19.9910 C   0  0  0  0  0  3  0  0  0  0  0  0
  -26.3130  -26.6380   18.6180 C   0  0  0  0  0  3  0  0  0  0  0  0
  -25.0970  -27.3360   18.7080 C   0  0  0  0  0  3  0  0  0  0  0  0
  -23.7380  -29.3100   19.5940 C   0  0  0  0  0  2  0  0  0  0  0  0
  -24.7460  -30.4460   21.6190 N   0  0  0  0  0  0  0  0  0  0  0  0
  -23.5660  -31.2960   23.3620 O   0  0  0  0  0  0  0  0  0  0  0  0
  -22.9260  -28.6900   21.9010 C   0  0  0  0  0  0  0  0  0  0  0  0
  -21.6080  -28.4550   21.7860 N   0  0  0  0  0  0  0  0  0  0  0  0
  -23.6580  -28.0220   22.6370 O   0  0  0  0  0  0  0  0  0  0  0  0
  -21.0730  -29.0540   21.1720 H   0  0  0  0  0  0  0  0  0  0  0  0
  -18.3050  -27.0440   22.2350 C   0  0  0  0  0  0  0  0  0  0  0  0
  -20.8580  -27.4020   22.4720 C   0  0  0  0  0  3  0  0  0  0  0  0
  -21.0100  -26.0430   21.7500 C   0  0  0  0  0  2  0  0  0  0  0  0
  -19.8960  -25.7710   20.7340 C   0  0  0  0  0  2  0  0  0  0  0  0
  -18.5270  -25.7820   21.4200 C   0  0  0  0  0  2  0  0  0  0  0  0
  -19.4000  -27.8130   22.7150 C   0  0  0  0  0  0  0  0  0  0  0  0
  -19.1390  -28.9990   23.4360 C   0  0  0  0  0  3  0  0  0  0  0  0
  -17.8160  -29.4140   23.6850 C   0  0  0  0  0  3  0  0  0  0  0  0
  -16.7390  -28.6410   23.2210 C   0  0  0  0  0  3  0  0  0  0  0  0
  -16.9840  -27.4590   22.4990 C   0  0  0  0  0  3  0  0  0  0  0  0
  -25.9090  -31.7870   23.4540 C   0  0  0  0  0  3  0  0  0  0  0  0
  -25.5070  -33.1000   23.9760 N   0  0  0  0  0  0  0  0  0  0  0  0
  -25.7700  -34.2710   23.3790 C   0  0  0  0  0  0  0  0  0  0  0  0
  -26.4480  -34.3620   22.3530 O   0  0  0  0  0  0  0  0  0  0  0  0
  -24.9030  -33.0980   24.7840 H   0  0  0  0  0  0  0  0  0  0  0  0
  -23.9290  -35.9800   23.2690 C   0  0  0  0  0  1  0  0  0  0  0  0
  -25.1910  -35.5430   24.0280 C   0  0  0  0  0  3  0  0  0  0  0  0
  -27.2550  -36.4410   25.0090 C   0  0  0  0  0  1  0  0  0  0  0  0
  -26.1500  -36.6680   24.0820 N   0  0  0  0  0  0  0  0  0  0  0  0
  -25.6800  -37.5260   24.3560 H   0  0  0  0  0  0  0  0  0  0  0  0
  -26.5310  -30.9000   24.6040 C   0  0  1  0  0  0  0  0  0  0  0  0
  -25.5050  -30.4420   25.6660 C   0  0  0  0  0  1  0  0  0  0  0  0
  -27.1980  -29.6330   24.0180 C   0  0  0  0  0  1  0  0  0  0  0  0
  -27.6470  -31.6910   25.3240 C   0  0  0  0  0  1  0  0  0  0  0  0
  1 51  1  0
  1 50  1  0
  3  2  1  0
  4  7  2  0
  4  6  1  0
  5  2  2  0
  5  1  1  0
  6  3  2  0
  7  5  1  0
  8 16  1  0
  9 14  1  0
 10 11  1  0
 10  9  1  0
 12 11  1  0
 12 21  1  0
 12 13  1  0
 14  8  1  0
 14 13  1  0
 15  8  2  0
 16  6  1  0
 16 17  1  0
 18 19  2  0
 19 38  1  0
 20 23  1  0
 20 19  1  0
 21 22  1  0
 21 18  1  0
 22 20  2  0
 23 24  1  0
 24 25  2  0
 26 29  1  0
 26 25  1  0
 27 26  2  0
 28 27  1  0
 28 23  2  0
 29 30  1  0
 30 31  1  0
 31 32  2  0
 33 32  1  0
 33 37  1  0
 34 33  2  0
 35 30  2  0
 35 34  1  0
 36 35  1  0
 38 39  1  0
 39 42  1  0
 39 41  1  0
 40 38  2  0
 43 18  1  0
 43 44  1  0
 45 43  1  0
 46 47  1  0
 47  7  1  0
 49 48  1  0
 50 49  1  0
 50 48  1  0
 51 52  1  0
 53 54  1  0
 53 52  2  0
 54 56  1  0
 55 66  2  0
 56 61  1  0
 57 65  1  0
 57 67  1  0
 58 64  1  0
 58 60  1  0
 59 65  1  0
 60 59  1  0
 61 60  2  0
 62 63  1  0
 62 56  2  0
 63 58  2  0
 64 57  1  0
 65 55  1  0
 67 69  2  0
 68 67  1  0
 70 68  1  0
 71 80  2  0
 71 76  1  0
 72 68  1  0
 72 76  1  0
 73 72  1  0
 74 75  1  0
 74 73  1  0
 75 71  1  0
 76 77  2  0
 77 78  1  0
 79 78  2  0
 80 79  1  0
 81 55  1  0
 81 82  1  0
 81 91  1  0
 82 85  1  0
 83 82  1  0
 83 87  1  0
 84 83  2  0
 87 86  1  0
 87 89  1  0
 89 90  1  0
 89 88  1  0
 91 94  1  1
 91 92  1  0
 93 91  1  0
M  ISO  4   8 100  16 100  53 101  54 101
M  END
>  <TORSDO>  (77) 
F 22

>  <SCORE>  (77) 
-9.650

>  <name>  (77) 
77

>  <ligand_id>  (77) 
77

>  <original_smiles>  (77) 
[H]c1c([H])c([H])c2c(c1[H])C([H])([H])C([H])([H])C([H])([H])C2([H])N([H])C(=O)C1([H])N(C(=O)C([H])(N([H])C(=O)C([H])(N([H])C([H])([H])[H])C([H])([H])[H])C(C([H])([H])[H])(C([H])([H])[H])C([H])([H])[H])C([H])([H])c2c([H])c(OC([H])([H])C([H])([H])C([H])([H])C([H])(c3c([H])c([H])c(N([H])C(=O)N4C([H])([H])C([H])([H])C([H])([H])C([H])(n5nc(-c6c([H])c([H])c(Oc7c([H])c([H])c(F)c([H])c7F)c([H])c6[H])c(C(=O)N([H])[H])c5N([H])[H])C4([H])[H])c([H])c3OC([H])([H])[H])C3([H])C([H])([H])C3([H])[H])c([H])c([H])c2C1([H])[H]

>  <smiles>  (77) 
[H]c1c([H])c([H])c2c(c1[H])C([H])([H])C([H])([H])C([H])([H])C2([H])N([H])C(=O)C1([H])N(C(=O)C([H])(N([H])C(=O)C([H])(N([H])C([H])([H])[H])C([H])([H])[H])C(C([H])([H])[H])(C([H])([H])[H])C([H])([H])[H])C([H])([H])c2c([H])c(OC([H])([H])C([H])([H])C([H])([H])C([H])(c3c([H])c([H])c(N([H])C(=O)N4C([H])([H])C([H])([H])C([H])([H])C([H])(n5nc(-c6c([H])c([H])c(Oc7c([H])c([H])c(F)c([H])c7F)c([H])c6[H])c(C(=O)N([H])[H])c5N([H])[H])C4([H])[H])c([H])c3OC([H])([H])[H])C3([H])C([H])([H])C3([H])[H])c([H])c([H])c2C1([H])[H]

$$$$
78:0:0
     RDKit          3D

103111  0  0  1  0  0  0  0  0999 V2000
  -31.4210  -19.0530   21.7980 N   0  0  1  0  0  4  0  0  0  0  0  0
  -30.5100  -19.2790   22.1670 H   0  0  0  0  0  0  0  0  0  0  0  0
  -30.3030  -15.5100   22.5270 C   0  0  0  0  0  2  0  0  0  0  0  0
  -30.9420  -16.8390   22.9410 C   0  0  0  0  0  2  0  0  0  0  0  0
  -30.3370  -17.0600   20.6220 C   0  0  0  0  0  2  0  0  0  0  0  0
  -29.9340  -15.6290   21.0360 C   0  0  0  0  0  3  0  0  0  0  0  0
  -31.3750  -17.5590   21.6450 C   0  0  0  0  0  3  0  0  0  0  0  0
  -30.5820  -14.5180   20.1710 C   0  0  0  0  0  0  0  0  0  0  0  0
  -30.2750  -12.3830   18.9550 C   0  0  0  0  0  2  0  0  0  0  0  0
  -29.2830  -12.5650   17.7900 C   0  0  0  0  0  2  0  0  0  0  0  0
  -27.8260  -12.4150   18.2750 C   0  0  0  0  0  2  0  0  0  0  0  0
  -27.5280  -13.2730   19.5340 C   0  0  0  0  0  3  0  0  0  0  0  0
  -28.6120  -13.0240   20.6060 C   0  0  0  0  0  2  0  0  0  0  0  0
  -29.9160  -13.3450   20.0060 N   0  0  0  0  0  0  0  0  0  0  0  0
  -31.6500  -14.7550   19.5930 O   0  0  0  0  0  0  0  0  0  0  0  0
  -25.1610  -13.9060   20.3390 C   0  0  0  0  0  0  0  0  0  0  0  0
  -24.0980  -13.1410   20.7320 C   0  0  0  0  0  0  0  0  0  0  0  0
  -24.5410  -11.7830   20.6600 C   0  0  0  0  0  0  0  0  0  0  0  0
  -26.1880  -13.0150   20.0540 N   0  0  0  0  0  0  0  0  0  0  0  0
  -25.8180  -11.7350   20.3010 N   0  0  0  0  0  0  0  0  0  0  0  0
  -23.8110  -10.5260   20.8560 C   0  0  0  0  0  0  0  0  0  0  0  0
  -24.2130   -9.5830   21.8280 C   0  0  0  0  0  3  0  0  0  0  0  0
  -23.4850   -8.3870   22.0090 C   0  0  0  0  0  3  0  0  0  0  0  0
  -22.3430   -8.1260   21.2160 C   0  0  0  0  0  0  0  0  0  0  0  0
  -21.9590   -9.0580   20.2350 C   0  0  0  0  0  3  0  0  0  0  0  0
  -22.6870  -10.2460   20.0520 C   0  0  0  0  0  3  0  0  0  0  0  0
  -21.5880   -6.9820   21.3050 O   0  0  0  0  0  0  0  0  0  0  0  0
  -21.4170   -6.3220   22.4950 C   0  0  0  0  0  0  0  0  0  0  0  0
  -20.8580   -6.9590   23.6260 C   0  0  0  0  0  3  0  0  0  0  0  0
  -20.6340   -6.2230   24.8070 C   0  0  0  0  0  3  0  0  0  0  0  0
  -20.9630   -4.8560   24.8590 C   0  0  0  0  0  0  0  0  0  0  0  0
  -21.5150   -4.2200   23.7330 C   0  0  0  0  0  3  0  0  0  0  0  0
  -21.7400   -4.9530   22.5540 C   0  0  0  0  0  0  0  0  0  0  0  0
  -22.2520   -4.3290   21.4660 F   0  0  0  0  0  0  0  0  0  0  0  0
  -20.7420   -4.1490   25.9930 F   0  0  0  0  0  0  0  0  0  0  0  0
  -22.7170  -13.6260   21.0690 C   0  0  0  0  0  0  0  0  0  0  0  0
  -22.0250  -12.9340   21.9680 N   0  0  0  0  0  0  0  0  0  0  0  0
  -22.2620  -14.6550   20.5690 O   0  0  0  0  0  0  0  0  0  0  0  0
  -22.4050  -12.1030   22.3950 H   0  0  0  0  0  0  0  0  0  0  0  0
  -21.0990  -13.2420   22.2320 H   0  0  0  0  0  0  0  0  0  0  0  0
  -25.3390  -15.2770   20.1790 N   0  0  0  0  0  0  0  0  0  0  0  0
  -24.5870  -15.9420   20.3330 H   0  0  0  0  0  0  0  0  0  0  0  0
  -26.1850  -15.7120   19.8340 H   0  0  0  0  0  0  0  0  0  0  0  0
  -32.4510  -19.4850   22.7980 C   0  0  0  0  0  2  0  0  0  0  0  0
  -32.0400  -20.6860   23.6870 C   0  0  0  0  0  2  0  0  0  0  0  0
  -30.7120  -20.5660   24.4790 C   0  0  0  0  0  2  0  0  0  0  0  0
  -30.5690  -19.3100   25.2620 N   0  0  0  0  0  4  0  0  0  0  0  0
  -31.3950  -19.2200   25.8350 H   0  0  0  0  0  0  0  0  0  0  0  0
  -30.5360  -18.5050   24.6570 H   0  0  0  0  0  0  0  0  0  0  0  0
  -29.3440  -17.9120   26.9180 C   0  0  0  0  0  1  0  0  0  0  0  0
  -28.0630  -19.5460   25.4810 C   0  0  0  0  0  1  0  0  0  0  0  0
  -29.4050  -19.2660   26.1890 C   0  0  0  0  0  3  0  0  0  0  0  0
  -31.5360  -19.8140   20.5120 C   0  0  0  0  0  2  0  0  0  0  0  0
  -30.4410  -20.8940   20.3480 C   0  0  0  0  0  2  0  0  0  0  0  0
  -30.7110  -21.8010   19.1270 C   0  0  0  0  0  2  0  0  0  0  0  0
  -29.9370  -23.0680   19.1760 N   0  0  0  0  0  4  0  0  0  0  0  0
  -30.3560  -23.6460   19.8900 H   0  0  0  0  0  0  0  0  0  0  0  0
  -28.9880  -22.8740   19.4570 H   0  0  0  0  0  0  0  0  0  0  0  0
  -29.0540  -23.2240   16.8260 C   0  0  0  0  0  1  0  0  0  0  0  0
  -29.9460  -23.8560   17.9160 C   0  0  0  0  0  3  0  0  0  0  0  0
  -29.6240  -25.3450   18.1690 C   0  0  0  0  0  2  0  0  0  0  0  0
  -28.1790  -25.6330   18.5980 C   0  0  0  0  0  2  0  0  0  0  0  0
  -28.1590  -26.7970   19.4200 O   0  0  0  0  0  0  0  0  0  0  0  0
  -24.4960  -31.6540   23.1160 C   0  0  0  0  0  0  0  0  0  0  0  0
  -26.9570  -27.4500   19.5830 C   0  0  0  0  0  0  0  0  0  0  0  0
  -23.2050  -30.3770   21.4390 C   0  0  0  0  0  3  0  0  0  0  0  0
  -24.5720  -28.9380   19.8520 C   0  0  0  0  0  0  0  0  0  0  0  0
  -25.7250  -30.7350   21.1540 C   0  0  0  0  0  2  0  0  0  0  0  0
  -25.7610  -29.4160   20.4150 C   0  0  0  0  0  0  0  0  0  0  0  0
  -26.9560  -28.6770   20.2800 C   0  0  0  0  0  3  0  0  0  0  0  0
  -25.7360  -26.9620   19.0610 C   0  0  0  0  0  3  0  0  0  0  0  0
  -24.5480  -27.7040   19.1840 C   0  0  0  0  0  3  0  0  0  0  0  0
  -23.3450  -29.8060   20.0060 C   0  0  0  0  0  2  0  0  0  0  0  0
  -24.4960  -30.9320   21.9600 N   0  0  0  0  0  0  0  0  0  0  0  0
  -23.4440  -31.8910   23.7230 O   0  0  0  0  0  0  0  0  0  0  0  0
  -22.5960  -29.2880   22.3510 C   0  0  0  0  0  0  0  0  0  0  0  0
  -21.2680  -29.1090   22.2670 N   0  0  0  0  0  0  0  0  0  0  0  0
  -23.3140  -28.6100   23.0910 O   0  0  0  0  0  0  0  0  0  0  0  0
  -20.7480  -29.7160   21.6470 H   0  0  0  0  0  0  0  0  0  0  0  0
  -17.9160  -27.8700   22.7940 C   0  0  0  0  0  0  0  0  0  0  0  0
  -20.4810  -28.1220   23.0000 C   0  0  0  0  0  3  0  0  0  0  0  0
  -20.5660  -26.7300   22.3340 C   0  0  0  0  0  2  0  0  0  0  0  0
  -19.4330  -26.4640   21.3370 C   0  0  0  0  0  2  0  0  0  0  0  0
  -18.0740  -26.5620   22.0350 C   0  0  0  0  0  2  0  0  0  0  0  0
  -19.0470  -28.6080   23.2340 C   0  0  0  0  0  0  0  0  0  0  0  0
  -18.8470  -29.8340   23.9070 C   0  0  0  0  0  3  0  0  0  0  0  0
  -17.5490  -30.3210   24.1450 C   0  0  0  0  0  3  0  0  0  0  0  0
  -16.4330  -29.5780   23.7240 C   0  0  0  0  0  3  0  0  0  0  0  0
  -16.6170  -28.3560   23.0520 C   0  0  0  0  0  3  0  0  0  0  0  0
  -25.8160  -32.2330   23.7160 C   0  0  0  0  0  3  0  0  0  0  0  0
  -25.5470  -33.6230   24.1080 N   0  0  0  0  0  0  0  0  0  0  0  0
  -25.8810  -34.6960   23.3800 C   0  0  0  0  0  0  0  0  0  0  0  0
  -26.5210  -34.6180   22.3270 O   0  0  0  0  0  0  0  0  0  0  0  0
  -24.9800  -33.7610   24.9310 H   0  0  0  0  0  0  0  0  0  0  0  0
  -24.1770  -36.5260   23.1420 C   0  0  0  0  0  1  0  0  0  0  0  0
  -25.4330  -36.0740   23.9010 C   0  0  0  0  0  3  0  0  0  0  0  0
  -27.6090  -36.8860   24.6940 C   0  0  0  0  0  1  0  0  0  0  0  0
  -26.4810  -37.1110   23.7940 N   0  0  0  0  0  0  0  0  0  0  0  0
  -26.0980  -38.0340   23.9880 H   0  0  0  0  0  0  0  0  0  0  0  0
  -26.3590  -31.4010   24.9430 C   0  0  1  0  0  0  0  0  0  0  0  0
  -25.2970  -31.1340   26.0350 C   0  0  0  0  0  1  0  0  0  0  0  0
  -26.9100  -30.0350   24.4700 C   0  0  0  0  0  1  0  0  0  0  0  0
  -27.5380  -32.1560   25.6030 C   0  0  0  0  0  1  0  0  0  0  0  0
  1  2  1  1
  1 44  1  0
  3  4  1  0
  5  6  1  0
  5  7  1  0
  6  8  1  0
  6  3  1  0
  7  1  1  0
  7  4  1  0
  9 14  1  0
 10 11  1  0
 10  9  1  0
 12 11  1  0
 12 19  1  0
 12 13  1  0
 14  8  1  0
 14 13  1  0
 15  8  2  0
 16 17  2  0
 17 36  1  0
 18 17  1  0
 18 21  1  0
 19 20  1  0
 19 16  1  0
 20 18  2  0
 21 22  1  0
 22 23  2  0
 24 27  1  0
 24 23  1  0
 25 24  2  0
 26 25  1  0
 26 21  2  0
 27 28  1  0
 28 33  2  0
 28 29  1  0
 29 30  2  0
 30 31  1  0
 31 35  1  0
 32 31  2  0
 33 32  1  0
 34 33  1  0
 36 37  1  0
 37 40  1  0
 37 39  1  0
 38 36  2  0
 41 42  1  0
 41 16  1  0
 43 41  1  0
 44 45  1  0
 45 46  1  0
 46 47  1  0
 47 48  1  0
 47 52  1  0
 49 47  1  0
 51 52  1  0
 52 50  1  0
 53  1  1  0
 54 53  1  0
 55 56  1  0
 55 54  1  0
 56 58  1  0
 56 57  1  0
 60 59  1  0
 60 61  1  0
 60 56  1  0
 61 62  1  0
 62 63  1  0
 63 65  1  0
 64 75  2  0
 65 70  1  0
 66 74  1  0
 66 76  1  0
 67 73  1  0
 67 69  1  0
 68 74  1  0
 69 68  1  0
 70 69  2  0
 71 72  1  0
 71 65  2  0
 72 67  2  0
 73 66  1  0
 74 64  1  0
 76 78  2  0
 77 76  1  0
 79 77  1  0
 80 89  2  0
 80 85  1  0
 81 77  1  0
 81 85  1  0
 82 81  1  0
 83 84  1  0
 83 82  1  0
 84 80  1  0
 85 86  2  0
 86 87  1  0
 88 87  2  0
 89 88  1  0
 90 64  1  0
 90 91  1  0
 90100  1  0
 91 94  1  0
 92 96  1  0
 92 91  1  0
 93 92  2  0
 96 95  1  0
 98 96  1  0
 98 99  1  0
 98 97  1  0
100103  1  1
100101  1  0
102100  1  0
M  ISO  4   6 100   8 100  62 101  63 101
M  END
>  <TORSDO>  (78) 
F 29

>  <SCORE>  (78) 
-1.327

>  <name>  (78) 
78

>  <ligand_id>  (78) 
78

>  <original_smiles>  (78) 
[H]c1c([H])c([H])c2c(c1[H])C([H])([H])C([H])([H])C([H])([H])C2([H])N([H])C(=O)C1([H])N(C(=O)C([H])(N([H])C(=O)C([H])(N([H])C([H])([H])[H])C([H])([H])[H])C(C([H])([H])[H])(C([H])([H])[H])C([H])([H])[H])C([H])([H])c2c([H])c(OC([H])([H])C([H])([H])C([H])(C([H])([H])[H])[N+]([H])([H])C([H])([H])C([H])([H])C([H])([H])[N+]([H])(C([H])([H])C([H])([H])C([H])([H])[N+]([H])([H])C([H])(C([H])([H])[H])C([H])([H])[H])C3([H])C([H])([H])C([H])([H])C([H])(C(=O)N4C([H])([H])C([H])([H])C([H])([H])C([H])(n5nc(-c6c([H])c([H])c(Oc7c([H])c([H])c(F)c([H])c7F)c([H])c6[H])c(C(=O)N([H])[H])c5N([H])[H])C4([H])[H])C3([H])[H])c([H])c([H])c2C1([H])[H]

>  <smiles>  (78) 
[H]c1c([H])c([H])c2c(c1[H])C([H])([H])C([H])([H])C([H])([H])C2([H])N([H])C(=O)C1([H])N(C(=O)C([H])(N([H])C(=O)C([H])(N([H])C([H])([H])[H])C([H])([H])[H])C(C([H])([H])[H])(C([H])([H])[H])C([H])([H])[H])C([H])([H])c2c([H])c(OC([H])([H])C([H])([H])C([H])(C([H])([H])[H])[N+]([H])([H])C([H])([H])C([H])([H])C([H])([H])[N+]([H])(C([H])([H])C([H])([H])C([H])([H])[N+]([H])([H])C([H])(C([H])([H])[H])C([H])([H])[H])C3([H])C([H])([H])C([H])([H])C([H])(C(=O)N4C([H])([H])C([H])([H])C([H])([H])C([H])(n5nc(-c6c([H])c([H])c(Oc7c([H])c([H])c(F)c([H])c7F)c([H])c6[H])c(C(=O)N([H])[H])c5N([H])[H])C4([H])[H])C3([H])[H])c([H])c([H])c2C1([H])[H]

$$$$
79:0:0
     RDKit          3D

 99109  0  0  1  0  0  0  0  0999 V2000
  -28.2170  -22.3800   20.6690 C   0  0  0  0  0  3  0  0  0  0  0  0
  -30.2800  -22.1210   19.8750 C   0  0  0  0  0  3  0  0  0  0  0  0
  -29.5140  -22.9720   20.6340 C   0  0  0  0  0  0  0  0  0  0  0  0
  -28.2000  -21.2670   19.8730 C   0  0  0  0  0  0  0  0  0  0  0  0
  -29.4880  -21.0930   19.3810 N   0  0  0  0  0  0  0  0  0  0  0  0
  -25.7780  -20.9960   18.9920 C   0  0  0  0  0  2  0  0  0  0  0  0
  -27.0590  -20.3700   19.5000 C   0  0  0  0  0  3  0  0  0  0  0  0
  -26.6380  -20.1770   18.0580 C   0  0  0  0  0  3  0  0  0  0  0  0
  -25.5920  -18.7450   16.3400 C   0  0  0  0  0  1  0  0  0  0  0  0
  -26.0280  -18.8680   17.7430 N   0  0  0  0  0  4  0  0  0  0  0  0
  -25.2300  -18.7140   18.3380 H   0  0  0  0  0  0  0  0  0  0  0  0
  -26.6930  -18.1340   17.9270 H   0  0  0  0  0  0  0  0  0  0  0  0
  -31.4120  -24.4430   21.4620 C   0  0  0  0  0  1  0  0  0  0  0  0
  -29.8960  -24.3060   21.2710 C   0  0  0  0  0  3  0  0  0  0  0  0
  -29.3090  -25.4680   20.4360 C   0  0  0  0  0  2  0  0  0  0  0  0
  -29.2760  -26.7660   21.0690 O   0  0  0  0  0  0  0  0  0  0  0  0
  -24.9020  -31.7700   23.6680 C   0  0  0  0  0  0  0  0  0  0  0  0
  -28.0980  -27.4790   20.8930 C   0  0  0  0  0  0  0  0  0  0  0  0
  -23.9630  -30.3160   21.9070 C   0  0  0  0  0  3  0  0  0  0  0  0
  -25.6450  -28.8800   20.6430 C   0  0  0  0  0  0  0  0  0  0  0  0
  -26.4780  -30.8060   21.9920 C   0  0  0  0  0  2  0  0  0  0  0  0
  -26.7070  -29.4480   21.3570 C   0  0  0  0  0  0  0  0  0  0  0  0
  -27.9380  -28.7580   21.4800 C   0  0  0  0  0  3  0  0  0  0  0  0
  -27.0170  -26.9450   20.1480 C   0  0  0  0  0  3  0  0  0  0  0  0
  -25.7970  -27.6270   20.0330 C   0  0  0  0  0  3  0  0  0  0  0  0
  -24.3600  -29.6670   20.5550 C   0  0  0  0  0  2  0  0  0  0  0  0
  -25.1260  -30.9780   22.5820 N   0  0  0  0  0  0  0  0  0  0  0  0
  -23.7540  -31.9800   24.0830 O   0  0  0  0  0  0  0  0  0  0  0  0
  -23.2680  -29.2500   22.7840 C   0  0  0  0  0  0  0  0  0  0  0  0
  -22.0060  -28.9320   22.4540 N   0  0  0  0  0  0  0  0  0  0  0  0
  -23.8680  -28.7130   23.7190 O   0  0  0  0  0  0  0  0  0  0  0  0
  -21.5820  -29.4240   21.6790 H   0  0  0  0  0  0  0  0  0  0  0  0
  -18.7020  -27.4660   22.4960 C   0  0  0  0  0  0  0  0  0  0  0  0
  -21.1670  -27.9330   23.1170 C   0  0  0  0  0  3  0  0  0  0  0  0
  -21.4660  -26.5120   22.5820 C   0  0  0  0  0  2  0  0  0  0  0  0
  -20.5450  -26.0960   21.4310 C   0  0  0  0  0  2  0  0  0  0  0  0
  -19.0790  -26.1320   21.8720 C   0  0  0  0  0  2  0  0  0  0  0  0
  -19.6850  -28.3170   23.0660 C   0  0  0  0  0  0  0  0  0  0  0  0
  -19.2850  -29.5620   23.5990 C   0  0  0  0  0  3  0  0  0  0  0  0
  -17.9350  -29.9580   23.5720 C   0  0  0  0  0  3  0  0  0  0  0  0
  -16.9650  -29.1030   23.0220 C   0  0  0  0  0  3  0  0  0  0  0  0
  -17.3470  -27.8600   22.4910 C   0  0  0  0  0  3  0  0  0  0  0  0
  -26.0740  -32.4660   24.4250 C   0  0  0  0  0  3  0  0  0  0  0  0
  -25.7240  -33.8860   24.5680 N   0  0  0  0  0  0  0  0  0  0  0  0
  -26.1390  -34.8570   23.7450 C   0  0  0  0  0  0  0  0  0  0  0  0
  -26.9230  -34.6570   22.8140 O   0  0  0  0  0  0  0  0  0  0  0  0
  -25.0410  -34.1140   25.2770 H   0  0  0  0  0  0  0  0  0  0  0  0
  -24.4320  -36.5610   23.0300 C   0  0  0  0  0  1  0  0  0  0  0  0
  -25.5940  -36.2770   23.9930 C   0  0  0  0  0  3  0  0  0  0  0  0
  -27.6430  -37.2800   24.9050 C   0  0  0  0  0  1  0  0  0  0  0  0
  -26.6230  -37.3320   23.8600 N   0  0  0  0  0  0  0  0  0  0  0  0
  -26.1950  -38.2530   23.8850 H   0  0  0  0  0  0  0  0  0  0  0  0
  -26.3750  -31.8220   25.8340 C   0  0  1  0  0  0  0  0  0  0  0  0
  -25.1090  -31.5530   26.6790 C   0  0  0  0  0  1  0  0  0  0  0  0
  -27.1270  -30.4800   25.6700 C   0  0  0  0  0  1  0  0  0  0  0  0
  -27.3050  -32.7540   26.6480 C   0  0  0  0  0  1  0  0  0  0  0  0
  -29.9410  -20.0830   18.4240 C   0  0  0  0  0  2  0  0  0  0  0  0
  -32.1770  -15.1150   20.3920 C   0  0  0  0  0  0  0  0  0  0  0  0
  -31.7560  -12.8030   19.6960 C   0  0  0  0  0  2  0  0  0  0  0  0
  -30.9440  -12.8420   18.3860 C   0  0  0  0  0  2  0  0  0  0  0  0
  -29.4340  -12.9250   18.6820 C   0  0  0  0  0  2  0  0  0  0  0  0
  -29.0710  -14.0090   19.7320 C   0  0  0  0  0  3  0  0  0  0  0  0
  -30.0150  -13.9560   20.9530 C   0  0  0  0  0  2  0  0  0  0  0  0
  -31.3960  -14.0060   20.4550 N   0  0  0  0  0  0  0  0  0  0  0  0
  -33.4010  -15.0560   20.2410 O   0  0  0  0  0  0  0  0  0  0  0  0
  -30.9200  -17.7600   18.0860 C   0  0  0  0  0  2  0  0  0  0  0  0
  -30.4850  -18.4960   20.4200 C   0  0  0  0  0  2  0  0  0  0  0  0
  -31.8950  -16.7090   18.6350 C   0  0  0  0  0  2  0  0  0  0  0  0
  -31.4160  -17.3650   20.9310 C   0  0  0  0  0  2  0  0  0  0  0  0
  -30.8700  -18.9890   19.0080 C   0  0  0  0  0  3  0  0  0  0  0  0
  -31.5290  -16.2380   19.9880 N   0  0  0  0  0  0  0  0  0  0  0  0
  -26.7620  -14.9470   20.3600 C   0  0  0  0  0  0  0  0  0  0  0  0
  -25.5630  -14.3380   20.6080 C   0  0  0  0  0  0  0  0  0  0  0  0
  -25.8040  -12.9330   20.5020 C   0  0  0  0  0  0  0  0  0  0  0  0
  -27.6670  -13.9250   20.1260 N   0  0  0  0  0  0  0  0  0  0  0  0
  -27.0900  -12.7040   20.2700 N   0  0  0  0  0  0  0  0  0  0  0  0
  -24.8750  -11.7980   20.5520 C   0  0  0  0  0  0  0  0  0  0  0  0
  -25.1670  -10.6360   21.3000 C   0  0  0  0  0  3  0  0  0  0  0  0
  -24.2500   -9.5650   21.3490 C   0  0  0  0  0  3  0  0  0  0  0  0
  -23.0230   -9.6490   20.6490 C   0  0  0  0  0  0  0  0  0  0  0  0
  -22.7450  -10.7990   19.8880 C   0  0  0  0  0  3  0  0  0  0  0  0
  -23.6630  -11.8620   19.8360 C   0  0  0  0  0  3  0  0  0  0  0  0
  -22.0810   -8.6480   20.6180 O   0  0  0  0  0  0  0  0  0  0  0  0
  -21.9370   -7.7630   21.6570 C   0  0  0  0  0  0  0  0  0  0  0  0
  -21.7000   -8.1980   22.9790 C   0  0  0  0  0  3  0  0  0  0  0  0
  -21.4890   -7.2540   24.0030 C   0  0  0  0  0  3  0  0  0  0  0  0
  -21.5070   -5.8790   23.7090 C   0  0  0  0  0  0  0  0  0  0  0  0
  -21.7370   -5.4430   22.3920 C   0  0  0  0  0  3  0  0  0  0  0  0
  -21.9490   -6.3840   21.3680 C   0  0  0  0  0  0  0  0  0  0  0  0
  -22.1500   -5.9590   20.0970 F   0  0  0  0  0  0  0  0  0  0  0  0
  -21.2960   -4.9710   24.6900 F   0  0  0  0  0  0  0  0  0  0  0  0
  -24.2450  -15.0190   20.8360 C   0  0  0  0  0  0  0  0  0  0  0  0
  -23.3610  -14.4020   21.6090 N   0  0  0  0  0  0  0  0  0  0  0  0
  -24.0150  -16.1340   20.3650 O   0  0  0  0  0  0  0  0  0  0  0  0
  -23.5590  -13.4990   22.0130 H   0  0  0  0  0  0  0  0  0  0  0  0
  -22.4710  -14.8410   21.8040 H   0  0  0  0  0  0  0  0  0  0  0  0
  -27.1500  -16.2820   20.2890 N   0  0  0  0  0  0  0  0  0  0  0  0
  -26.4330  -16.9880   20.1820 H   0  0  0  0  0  0  0  0  0  0  0  0
  -28.0560  -16.5640   19.9370 H   0  0  0  0  0  0  0  0  0  0  0  0
  2  3  2  0
  3  1  1  0
  3 14  1  0
  4  1  2  0
  5  4  1  0
  5  2  1  0
  6  7  1  0
  7  4  1  0
  8 10  1  0
  8  6  1  0
  8  7  1  0
  9 10  1  0
 10 12  1  0
 10 11  1  0
 14 13  1  0
 15 16  1  0
 15 14  1  0
 17 28  2  0
 18 16  1  0
 18 23  1  0
 19 27  1  0
 19 29  1  0
 20 22  1  0
 21 27  1  0
 22 23  2  0
 22 21  1  0
 24 18  2  0
 25 24  1  0
 25 20  2  0
 26 20  1  0
 26 19  1  0
 27 17  1  0
 29 31  2  0
 30 29  1  0
 32 30  1  0
 33 38  1  0
 34 30  1  0
 35 34  1  0
 36 37  1  0
 36 35  1  0
 37 33  1  0
 38 34  1  0
 38 39  2  0
 40 39  1  0
 41 40  2  0
 42 33  2  0
 42 41  1  0
 43 17  1  0
 43 44  1  0
 43 53  1  0
 44 47  1  0
 45 49  1  0
 45 44  1  0
 46 45  2  0
 49 48  1  0
 51 52  1  0
 51 49  1  0
 51 50  1  0
 53 56  1  1
 53 54  1  0
 55 53  1  0
 57  5  1  0
 58 64  1  0
 59 64  1  0
 60 61  1  0
 60 59  1  0
 62 61  1  0
 62 75  1  0
 62 63  1  0
 64 63  1  0
 65 58  2  0
 66 68  1  0
 66 70  1  0
 67 69  1  0
 68 71  1  0
 70 57  1  0
 70 67  1  0
 71 58  1  0
 71 69  1  0
 72 73  2  0
 73 92  1  0
 74 77  1  0
 74 73  1  0
 75 76  1  0
 75 72  1  0
 76 74  2  0
 77 78  1  0
 78 79  2  0
 80 79  1  0
 81 80  2  0
 82 81  1  0
 82 77  2  0
 83 80  1  0
 83 84  1  0
 84 85  1  0
 85 86  2  0
 87 86  1  0
 87 91  1  0
 88 87  2  0
 89 84  2  0
 89 88  1  0
 90 89  1  0
 92 93  1  0
 93 96  1  0
 93 95  1  0
 94 92  2  0
 97 72  1  0
 98 97  1  0
 99 97  1  0
M  ISO  4  15 101  16 101  58 100  71 100
M  END
>  <TORSDO>  (79) 
F 21

>  <SCORE>  (79) 
-6.334

>  <name>  (79) 
79

>  <ligand_id>  (79) 
79

>  <original_smiles>  (79) 
[H]c1c([H])c([H])c2c(c1[H])C([H])([H])C([H])([H])C([H])([H])C2([H])N([H])C(=O)C1([H])N(C(=O)C([H])(N([H])C(=O)C([H])(N([H])C([H])([H])[H])C([H])([H])[H])C(C([H])([H])[H])(C([H])([H])[H])C([H])([H])[H])C([H])([H])c2c([H])c(OC([H])([H])C([H])(c3c([H])c(C4([H])C([H])([H])C4([H])[N+]([H])([H])C([H])([H])[H])n(C([H])([H])C4([H])C([H])([H])C([H])([H])N(C(=O)N5C([H])([H])C([H])([H])C([H])([H])C([H])(n6nc(-c7c([H])c([H])c(Oc8c([H])c([H])c(F)c([H])c8F)c([H])c7[H])c(C(=O)N([H])[H])c6N([H])[H])C5([H])[H])C([H])([H])C4([H])[H])c3[H])C([H])([H])[H])c([H])c([H])c2C1([H])[H]

>  <smiles>  (79) 
[H]c1c([H])c([H])c2c(c1[H])C([H])([H])C([H])([H])C([H])([H])C2([H])N([H])C(=O)C1([H])N(C(=O)C([H])(N([H])C(=O)C([H])(N([H])C([H])([H])[H])C([H])([H])[H])C(C([H])([H])[H])(C([H])([H])[H])C([H])([H])[H])C([H])([H])c2c([H])c(OC([H])([H])C([H])(c3c([H])c(C4([H])C([H])([H])C4([H])[N+]([H])([H])C([H])([H])[H])n(C([H])([H])C4([H])C([H])([H])C([H])([H])N(C(=O)N5C([H])([H])C([H])([H])C([H])([H])C([H])(n6nc(-c7c([H])c([H])c(Oc8c([H])c([H])c(F)c([H])c8F)c([H])c7[H])c(C(=O)N([H])[H])c6N([H])[H])C5([H])[H])C([H])([H])C4([H])[H])c3[H])C([H])([H])[H])c([H])c([H])c2C1([H])[H]

$$$$
80:0:0
     RDKit          3D

 95104  0  0  1  0  0  0  0  0999 V2000
  -27.8780  -22.2640   20.6740 C   0  0  0  0  0  3  0  0  0  0  0  0
  -29.4660  -20.5710   22.1180 C   0  0  0  0  0  3  0  0  0  0  0  0
  -28.0460  -20.9540   20.1880 C   0  0  0  0  0  0  0  0  0  0  0  0
  -28.9040  -20.0960   20.9160 C   0  0  0  0  0  0  0  0  0  0  0  0
  -28.5790  -22.6800   21.8260 C   0  0  0  0  0  0  0  0  0  0  0  0
  -29.3260  -21.8380   22.5600 N   0  0  0  0  0  0  0  0  0  0  0  0
  -25.9230  -20.9570   18.6590 C   0  0  0  0  0  2  0  0  0  0  0  0
  -26.2400  -19.5070   18.9260 C   0  0  0  0  0  2  0  0  0  0  0  0
  -27.3510  -20.5350   18.9230 C   0  0  0  0  0  3  0  0  0  0  0  0
  -29.2530  -18.8510   20.4630 O   0  0  0  0  0  0  0  0  0  0  0  0
  -30.3050  -18.9120   19.5040 C   0  0  0  0  0  2  0  0  0  0  0  0
  -31.0470  -17.5800   19.4150 C   0  0  0  0  0  2  0  0  0  0  0  0
  -32.0830  -17.3200   20.5280 C   0  0  0  0  0  2  0  0  0  0  0  0
  -32.5860  -14.9410   19.9840 C   0  0  0  0  0  0  0  0  0  0  0  0
  -32.1170  -12.6730   19.1320 C   0  0  0  0  0  2  0  0  0  0  0  0
  -31.1910  -12.7380   17.9000 C   0  0  0  0  0  2  0  0  0  0  0  0
  -29.7090  -12.8190   18.3100 C   0  0  0  0  0  2  0  0  0  0  0  0
  -29.4520  -13.9010   19.3860 C   0  0  0  0  0  3  0  0  0  0  0  0
  -30.4550  -13.7360   20.5480 C   0  0  0  0  0  2  0  0  0  0  0  0
  -31.8250  -13.8190   19.9980 N   0  0  0  0  0  0  0  0  0  0  0  0
  -33.5900  -15.0930   19.2780 O   0  0  0  0  0  0  0  0  0  0  0  0
  -32.1140  -15.8900   20.8000 N   0  0  0  0  0  0  0  0  0  0  0  0
  -31.3980  -15.5530   21.4300 H   0  0  0  0  0  0  0  0  0  0  0  0
  -27.1950  -14.9200   20.1020 C   0  0  0  0  0  0  0  0  0  0  0  0
  -26.0100  -14.3380   20.4750 C   0  0  0  0  0  0  0  0  0  0  0  0
  -26.2340  -12.9280   20.4290 C   0  0  0  0  0  0  0  0  0  0  0  0
  -28.0720  -13.8720   19.8590 N   0  0  0  0  0  0  0  0  0  0  0  0
  -27.4950  -12.6690   20.1050 N   0  0  0  0  0  0  0  0  0  0  0  0
  -25.3070  -11.8040   20.6130 C   0  0  0  0  0  0  0  0  0  0  0  0
  -25.5780  -10.7690   21.5350 C   0  0  0  0  0  3  0  0  0  0  0  0
  -24.6620   -9.7100   21.7070 C   0  0  0  0  0  3  0  0  0  0  0  0
  -23.4610   -9.6800   20.9590 C   0  0  0  0  0  0  0  0  0  0  0  0
  -23.2090  -10.7020   20.0270 C   0  0  0  0  0  3  0  0  0  0  0  0
  -24.1230  -11.7530   19.8530 C   0  0  0  0  0  3  0  0  0  0  0  0
  -22.5270   -8.6770   21.0370 O   0  0  0  0  0  0  0  0  0  0  0  0
  -22.2960   -8.0010   22.2090 C   0  0  0  0  0  0  0  0  0  0  0  0
  -21.9550   -8.6740   23.4020 C   0  0  0  0  0  3  0  0  0  0  0  0
  -21.6530   -7.9340   24.5640 C   0  0  0  0  0  3  0  0  0  0  0  0
  -21.6890   -6.5280   24.5340 C   0  0  0  0  0  0  0  0  0  0  0  0
  -22.0260   -5.8580   23.3460 C   0  0  0  0  0  3  0  0  0  0  0  0
  -22.3260   -6.5920   22.1860 C   0  0  0  0  0  0  0  0  0  0  0  0
  -22.6270   -5.9400   21.0380 F   0  0  0  0  0  0  0  0  0  0  0  0
  -21.3950   -5.8190   25.6500 F   0  0  0  0  0  0  0  0  0  0  0  0
  -24.7180  -15.0450   20.7700 C   0  0  0  0  0  0  0  0  0  0  0  0
  -23.9020  -14.4760   21.6520 N   0  0  0  0  0  0  0  0  0  0  0  0
  -24.4480  -16.1310   20.2570 O   0  0  0  0  0  0  0  0  0  0  0  0
  -24.1400  -13.5950   22.0840 H   0  0  0  0  0  0  0  0  0  0  0  0
  -23.0320  -14.9250   21.9010 H   0  0  0  0  0  0  0  0  0  0  0  0
  -27.5930  -16.2420   19.9350 N   0  0  0  0  0  0  0  0  0  0  0  0
  -26.9670  -17.0270   20.0760 H   0  0  0  0  0  0  0  0  0  0  0  0
  -28.5080  -16.5200   19.5960 H   0  0  0  0  0  0  0  0  0  0  0  0
  -28.6000  -23.9710   22.3010 O   0  0  0  0  0  0  0  0  0  0  0  0
  -28.1630  -24.9940   21.4120 C   0  0  0  0  0  2  0  0  0  0  0  0
  -29.1830  -26.1410   21.3580 C   0  0  0  0  0  2  0  0  0  0  0  0
  -28.9360  -26.9460   20.2030 O   0  0  0  0  0  0  0  0  0  0  0  0
  -25.0260  -31.6690   23.7820 C   0  0  0  0  0  0  0  0  0  0  0  0
  -27.7730  -27.6660   20.2720 C   0  0  0  0  0  0  0  0  0  0  0  0
  -23.8650  -30.4740   21.9510 C   0  0  0  0  0  3  0  0  0  0  0  0
  -25.3630  -29.1170   20.3970 C   0  0  0  0  0  0  0  0  0  0  0  0
  -26.3890  -30.8680   21.8610 C   0  0  0  0  0  2  0  0  0  0  0  0
  -26.4970  -29.5830   21.0730 C   0  0  0  0  0  0  0  0  0  0  0  0
  -27.7060  -28.8600   21.0180 C   0  0  0  0  0  3  0  0  0  0  0  0
  -26.6310  -27.2090   19.5830 C   0  0  0  0  0  3  0  0  0  0  0  0
  -25.4200  -27.9260   19.6510 C   0  0  0  0  0  3  0  0  0  0  0  0
  -24.1140  -29.9600   20.5080 C   0  0  0  0  0  2  0  0  0  0  0  0
  -25.1090  -31.0100   22.5920 N   0  0  0  0  0  0  0  0  0  0  0  0
  -23.9310  -31.8740   24.3240 O   0  0  0  0  0  0  0  0  0  0  0  0
  -23.1930  -29.3470   22.7650 C   0  0  0  0  0  0  0  0  0  0  0  0
  -21.9020  -29.1030   22.4880 N   0  0  0  0  0  0  0  0  0  0  0  0
  -23.8330  -28.6980   23.5970 O   0  0  0  0  0  0  0  0  0  0  0  0
  -21.4490  -29.6790   21.7940 H   0  0  0  0  0  0  0  0  0  0  0  0
  -18.5910  -27.6630   22.5150 C   0  0  0  0  0  0  0  0  0  0  0  0
  -21.0750  -28.0650   23.1010 C   0  0  0  0  0  3  0  0  0  0  0  0
  -21.3450  -26.6840   22.4600 C   0  0  0  0  0  2  0  0  0  0  0  0
  -20.3940  -26.3610   21.3040 C   0  0  0  0  0  2  0  0  0  0  0  0
  -18.9390  -26.3750   21.7890 C   0  0  0  0  0  2  0  0  0  0  0  0
  -19.5960  -28.4660   23.1190 C   0  0  0  0  0  0  0  0  0  0  0  0
  -19.2210  -29.6700   23.7530 C   0  0  0  0  0  3  0  0  0  0  0  0
  -17.8750  -30.0760   23.7890 C   0  0  0  0  0  3  0  0  0  0  0  0
  -16.8820  -29.2700   23.2050 C   0  0  0  0  0  3  0  0  0  0  0  0
  -17.2400  -28.0660   22.5730 C   0  0  0  0  0  3  0  0  0  0  0  0
  -26.2970  -32.2190   24.5050 C   0  0  0  0  0  3  0  0  0  0  0  0
  -26.0130  -33.6000   24.9150 N   0  0  0  0  0  0  0  0  0  0  0  0
  -26.4220  -34.6880   24.2500 C   0  0  0  0  0  0  0  0  0  0  0  0
  -27.1490  -34.6300   23.2540 O   0  0  0  0  0  0  0  0  0  0  0  0
  -25.3750  -33.7200   25.6890 H   0  0  0  0  0  0  0  0  0  0  0  0
  -24.7690  -36.5520   23.9150 C   0  0  0  0  0  1  0  0  0  0  0  0
  -25.9470  -36.0580   24.7690 C   0  0  0  0  0  3  0  0  0  0  0  0
  -28.0650  -36.8020   25.7660 C   0  0  0  0  0  1  0  0  0  0  0  0
  -27.0160  -37.0800   24.7870 N   0  0  0  0  0  0  0  0  0  0  0  0
  -26.6320  -38.0000   24.9850 H   0  0  0  0  0  0  0  0  0  0  0  0
  -26.7330  -31.3460   25.7450 C   0  0  1  0  0  0  0  0  0  0  0  0
  -25.5680  -31.0060   26.7040 C   0  0  0  0  0  1  0  0  0  0  0  0
  -27.3650  -30.0130   25.2780 C   0  0  0  0  0  1  0  0  0  0  0  0
  -27.8220  -32.0890   26.5530 C   0  0  0  0  0  1  0  0  0  0  0  0
  1  5  1  0
  2  6  1  0
  3  1  2  0
  3  4  1  0
  4  2  2  0
  5 52  1  0
  5  6  2  0
  7  9  1  0
  7  8  1  0
  9  8  1  0
  9  3  1  0
 10  4  1  0
 11 10  1  0
 12 11  1  0
 12 13  1  0
 13 22  1  0
 14 20  1  0
 14 22  1  0
 15 20  1  0
 16 17  1  0
 16 15  1  0
 18 17  1  0
 18 27  1  0
 18 19  1  0
 20 19  1  0
 21 14  2  0
 22 23  1  0
 24 25  2  0
 25 44  1  0
 26 25  1  0
 26 29  1  0
 27 24  1  0
 27 28  1  0
 28 26  2  0
 29 30  1  0
 30 31  2  0
 32 35  1  0
 32 31  1  0
 33 32  2  0
 34 33  1  0
 34 29  2  0
 35 36  1  0
 36 37  1  0
 37 38  2  0
 39 38  1  0
 39 43  1  0
 40 39  2  0
 41 36  2  0
 41 40  1  0
 42 41  1  0
 44 45  1  0
 45 48  1  0
 45 47  1  0
 46 44  2  0
 49 50  1  0
 49 24  1  0
 51 49  1  0
 53 52  1  0
 54 53  1  0
 55 57  1  0
 55 54  1  0
 56 67  2  0
 57 62  1  0
 58 66  1  0
 58 68  1  0
 59 65  1  0
 59 61  1  0
 60 66  1  0
 61 60  1  0
 62 61  2  0
 63 64  1  0
 63 57  2  0
 64 59  2  0
 65 58  1  0
 66 56  1  0
 68 70  2  0
 69 68  1  0
 71 69  1  0
 72 81  2  0
 72 77  1  0
 73 69  1  0
 73 77  1  0
 74 73  1  0
 75 76  1  0
 75 74  1  0
 76 72  1  0
 77 78  2  0
 78 79  1  0
 80 79  2  0
 81 80  1  0
 82 56  1  0
 82 83  1  0
 82 92  1  0
 83 86  1  0
 84 88  1  0
 84 83  1  0
 85 84  2  0
 88 87  1  0
 88 90  1  0
 90 91  1  0
 90 89  1  0
 92 95  1  1
 92 93  1  0
 94 92  1  0
M  ISO  4  14 100  22 100  54 101  55 101
M  END
>  <TORSDO>  (80) 
F 24

>  <SCORE>  (80) 
-8.630

>  <name>  (80) 
80

>  <ligand_id>  (80) 
80

>  <original_smiles>  (80) 
[H]c1nc(OC([H])([H])C([H])([H])Oc2c([H])c([H])c3c(c2[H])C([H])([H])N(C(=O)C([H])(N([H])C(=O)C([H])(N([H])C([H])([H])[H])C([H])([H])[H])C(C([H])([H])[H])(C([H])([H])[H])C([H])([H])[H])C([H])(C(=O)N([H])C2([H])c4c([H])c([H])c([H])c([H])c4C([H])([H])C([H])([H])C2([H])[H])C3([H])[H])c([H])c(C2([H])C([H])([H])C2([H])[H])c1OC([H])([H])C([H])([H])C([H])([H])N([H])C(=O)N1C([H])([H])C([H])([H])C([H])([H])C([H])(n2nc(-c3c([H])c([H])c(Oc4c([H])c([H])c(F)c([H])c4F)c([H])c3[H])c(C(=O)N([H])[H])c2N([H])[H])C1([H])[H]

>  <smiles>  (80) 
[H]c1nc(OC([H])([H])C([H])([H])Oc2c([H])c([H])c3c(c2[H])C([H])([H])N(C(=O)C([H])(N([H])C(=O)C([H])(N([H])C([H])([H])[H])C([H])([H])[H])C(C([H])([H])[H])(C([H])([H])[H])C([H])([H])[H])C([H])(C(=O)N([H])C2([H])c4c([H])c([H])c([H])c([H])c4C([H])([H])C([H])([H])C2([H])[H])C3([H])[H])c([H])c(C2([H])C([H])([H])C2([H])[H])c1OC([H])([H])C([H])([H])C([H])([H])N([H])C(=O)N1C([H])([H])C([H])([H])C([H])([H])C([H])(n2nc(-c3c([H])c([H])c(Oc4c([H])c([H])c(F)c([H])c4F)c([H])c3[H])c(C(=O)N([H])[H])c2N([H])[H])C1([H])[H]

$$$$
81:0:0
     RDKit          3D

 98108  0  0  1  0  0  0  0  0999 V2000
  -29.9980  -21.1380   22.3200 C   0  0  0  0  0  3  0  0  0  0  0  0
  -28.4910  -20.1450   20.2080 C   0  0  0  0  0  3  0  0  0  0  0  0
  -30.2670  -19.8260   21.8490 C   0  0  0  0  0  0  0  0  0  0  0  0
  -28.9820  -21.9230   21.7620 C   0  0  0  0  0  0  0  0  0  0  0  0
  -29.4100  -19.2630   20.8490 C   0  0  0  0  0  0  0  0  0  0  0  0
  -28.3140  -21.4860   20.6100 C   0  0  0  0  0  0  0  0  0  0  0  0
  -28.5020  -23.1410   22.5210 C   0  0  0  0  0  1  0  0  0  0  0  0
  -31.5640  -19.1400   24.0250 C   0  0  0  0  0  2  0  0  0  0  0  0
  -32.6010  -19.7620   23.1280 C   0  0  0  0  0  2  0  0  0  0  0  0
  -31.3810  -19.0640   22.5220 C   0  0  0  0  0  3  0  0  0  0  0  0
  -29.2360  -17.7180   20.6890 C   0  0  0  0  0  2  0  0  0  0  0  0
  -29.7640  -16.8270   19.4940 C   0  0  0  0  0  3  0  0  0  0  0  0
  -31.6340  -15.0910   20.0400 C   0  0  0  0  0  0  0  0  0  0  0  0
  -31.3090  -12.7000   19.5100 C   0  0  0  0  0  2  0  0  0  0  0  0
  -30.4150  -12.4900   18.2750 C   0  0  0  0  0  2  0  0  0  0  0  0
  -28.9380  -12.3770   18.7090 C   0  0  0  0  0  2  0  0  0  0  0  0
  -28.5030  -13.5120   19.6690 C   0  0  0  0  0  3  0  0  0  0  0  0
  -29.5520  -13.7440   20.7910 C   0  0  0  0  0  2  0  0  0  0  0  0
  -30.8580  -13.9570   20.1450 N   0  0  0  0  0  0  0  0  0  0  0  0
  -32.8520  -14.9730   19.9570 O   0  0  0  0  0  0  0  0  0  0  0  0
  -32.0630  -17.3060   19.0390 C   0  0  0  0  0  1  0  0  0  0  0  0
  -31.1350  -16.3210   19.6470 N   0  0  0  0  0  0  0  0  0  0  0  0
  -26.1750  -14.2510   20.4650 C   0  0  0  0  0  0  0  0  0  0  0  0
  -25.0550  -13.5340   20.8070 C   0  0  0  0  0  0  0  0  0  0  0  0
  -25.4230  -12.1620   20.7110 C   0  0  0  0  0  0  0  0  0  0  0  0
  -27.1500  -13.3080   20.1820 N   0  0  0  0  0  0  0  0  0  0  0  0
  -26.7070  -12.0440   20.3950 N   0  0  0  0  0  0  0  0  0  0  0  0
  -24.6170  -10.9450   20.8480 C   0  0  0  0  0  0  0  0  0  0  0  0
  -24.9460   -9.9470   21.7920 C   0  0  0  0  0  3  0  0  0  0  0  0
  -24.1420   -8.7950   21.9200 C   0  0  0  0  0  3  0  0  0  0  0  0
  -22.9980   -8.6350   21.1040 C   0  0  0  0  0  0  0  0  0  0  0  0
  -22.6910   -9.6220   20.1510 C   0  0  0  0  0  3  0  0  0  0  0  0
  -23.4940  -10.7660   20.0210 C   0  0  0  0  0  3  0  0  0  0  0  0
  -22.1720   -7.5370   21.1430 O   0  0  0  0  0  0  0  0  0  0  0  0
  -21.9250   -6.8650   22.3120 C   0  0  0  0  0  0  0  0  0  0  0  0
  -21.3610   -7.5070   23.4360 C   0  0  0  0  0  3  0  0  0  0  0  0
  -21.0570   -6.7640   24.5960 C   0  0  0  0  0  3  0  0  0  0  0  0
  -21.3020   -5.3780   24.6270 C   0  0  0  0  0  0  0  0  0  0  0  0
  -21.8560   -4.7350   23.5070 C   0  0  0  0  0  3  0  0  0  0  0  0
  -22.1620   -5.4760   22.3510 C   0  0  0  0  0  0  0  0  0  0  0  0
  -22.6760   -4.8460   21.2670 F   0  0  0  0  0  0  0  0  0  0  0  0
  -21.0050   -4.6620   25.7360 F   0  0  0  0  0  0  0  0  0  0  0  0
  -23.6950  -14.1000   21.1040 C   0  0  0  0  0  0  0  0  0  0  0  0
  -22.9330  -13.4430   21.9750 N   0  0  0  0  0  0  0  0  0  0  0  0
  -23.3140  -15.1510   20.5990 O   0  0  0  0  0  0  0  0  0  0  0  0
  -23.2470  -12.5900   22.4130 H   0  0  0  0  0  0  0  0  0  0  0  0
  -22.0160  -13.8020   22.2020 H   0  0  0  0  0  0  0  0  0  0  0  0
  -26.4240  -15.6120   20.3510 N   0  0  0  0  0  0  0  0  0  0  0  0
  -25.7020  -16.3100   20.5000 H   0  0  0  0  0  0  0  0  0  0  0  0
  -27.2970  -16.0130   20.0260 H   0  0  0  0  0  0  0  0  0  0  0  0
  -28.0910  -17.8170   17.6920 C   0  0  0  0  0  2  0  0  0  0  0  0
  -29.4320  -18.4740   17.3700 C   0  0  0  0  0  2  0  0  0  0  0  0
  -29.3750  -17.1260   18.0340 C   0  0  0  0  0  3  0  0  0  0  0  0
  -27.3450  -22.2690   20.0240 O   0  0  0  0  0  0  0  0  0  0  0  0
  -27.8050  -23.3020   19.1490 C   0  0  0  0  0  2  0  0  0  0  0  0
  -28.1000  -24.6500   19.8560 C   0  0  0  0  0  2  0  0  0  0  0  0
  -28.5080  -25.8160   18.9410 C   0  0  0  0  0  2  0  0  0  0  0  0
  -28.4670  -27.0860   19.6180 O   0  0  0  0  0  0  0  0  0  0  0  0
  -24.4930  -31.7570   23.2970 C   0  0  0  0  0  0  0  0  0  0  0  0
  -27.2630  -27.7640   19.7140 C   0  0  0  0  0  0  0  0  0  0  0  0
  -23.3370  -30.5360   21.4850 C   0  0  0  0  0  3  0  0  0  0  0  0
  -24.8360  -29.2100   19.9080 C   0  0  0  0  0  0  0  0  0  0  0  0
  -25.8580  -30.9660   21.3600 C   0  0  0  0  0  2  0  0  0  0  0  0
  -25.9820  -29.6830   20.5580 C   0  0  0  0  0  0  0  0  0  0  0  0
  -27.1990  -28.9700   20.4560 C   0  0  0  0  0  3  0  0  0  0  0  0
  -26.0830  -27.2960   19.0870 C   0  0  0  0  0  3  0  0  0  0  0  0
  -24.8800  -28.0160   19.1750 C   0  0  0  0  0  3  0  0  0  0  0  0
  -23.5790  -30.0360   20.0360 C   0  0  0  0  0  2  0  0  0  0  0  0
  -24.5810  -31.0920   22.1100 N   0  0  0  0  0  0  0  0  0  0  0  0
  -23.4000  -31.9400   23.8550 O   0  0  0  0  0  0  0  0  0  0  0  0
  -22.7050  -29.3890   22.3020 C   0  0  0  0  0  0  0  0  0  0  0  0
  -21.3850  -29.2030   22.1480 N   0  0  0  0  0  0  0  0  0  0  0  0
  -23.3960  -28.6750   23.0340 O   0  0  0  0  0  0  0  0  0  0  0  0
  -20.8890  -29.8420   21.5420 H   0  0  0  0  0  0  0  0  0  0  0  0
  -18.0320  -27.8940   22.4910 C   0  0  0  0  0  0  0  0  0  0  0  0
  -20.5840  -28.1610   22.7910 C   0  0  0  0  0  3  0  0  0  0  0  0
  -20.7060  -26.8150   22.0390 C   0  0  0  0  0  2  0  0  0  0  0  0
  -19.6070  -26.6030   20.9910 C   0  0  0  0  0  2  0  0  0  0  0  0
  -18.2260  -26.6430   21.6510 C   0  0  0  0  0  2  0  0  0  0  0  0
  -19.1380  -28.6140   23.0130 C   0  0  0  0  0  0  0  0  0  0  0  0
  -18.9040  -29.7870   23.7590 C   0  0  0  0  0  3  0  0  0  0  0  0
  -17.5930  -30.2460   23.9830 C   0  0  0  0  0  3  0  0  0  0  0  0
  -16.4990  -29.5260   23.4680 C   0  0  0  0  0  3  0  0  0  0  0  0
  -16.7200  -28.3480   22.7350 C   0  0  0  0  0  3  0  0  0  0  0  0
  -25.7580  -32.3330   24.0030 C   0  0  0  0  0  3  0  0  0  0  0  0
  -25.4720  -33.7330   24.3420 N   0  0  0  0  0  0  0  0  0  0  0  0
  -25.8820  -34.7840   23.6220 C   0  0  0  0  0  0  0  0  0  0  0  0
  -26.6130  -34.6770   22.6310 O   0  0  0  0  0  0  0  0  0  0  0  0
  -24.8270  -33.8950   25.1020 H   0  0  0  0  0  0  0  0  0  0  0  0
  -24.2310  -36.6310   23.1900 C   0  0  0  0  0  1  0  0  0  0  0  0
  -25.4060  -36.1780   24.0710 C   0  0  0  0  0  3  0  0  0  0  0  0
  -27.5110  -36.9840   25.0470 C   0  0  0  0  0  1  0  0  0  0  0  0
  -26.4740  -37.2010   24.0400 N   0  0  0  0  0  0  0  0  0  0  0  0
  -26.0880  -38.1300   24.1770 H   0  0  0  0  0  0  0  0  0  0  0  0
  -26.1790  -31.5200   25.2860 C   0  0  1  0  0  0  0  0  0  0  0  0
  -25.0170  -31.2750   26.2770 C   0  0  0  0  0  1  0  0  0  0  0  0
  -26.7690  -30.1410   24.8960 C   0  0  0  0  0  1  0  0  0  0  0  0
  -27.2970  -32.2800   26.0390 C   0  0  0  0  0  1  0  0  0  0  0  0
  2  6  2  0
  2  5  1  0
  3  1  1  0
  3 10  1  0
  4  1  2  0
  4  7  1  0
  5  3  2  0
  6  4  1  0
  9  8  1  0
 10  9  1  0
 10  8  1  0
 11  5  1  0
 12 22  1  0
 12 11  1  0
 13 19  1  0
 14 19  1  0
 15 16  1  0
 15 14  1  0
 17 16  1  0
 17 26  1  0
 17 18  1  0
 19 18  1  0
 20 13  2  0
 21 22  1  0
 22 13  1  0
 23 24  2  0
 24 43  1  0
 25 24  1  0
 25 28  1  0
 26 27  1  0
 26 23  1  0
 27 25  2  0
 28 29  1  0
 29 30  2  0
 31 34  1  0
 31 30  1  0
 32 31  2  0
 33 32  1  0
 33 28  2  0
 34 35  1  0
 35 40  2  0
 35 36  1  0
 36 37  2  0
 37 38  1  0
 38 42  1  0
 39 38  2  0
 40 39  1  0
 41 40  1  0
 43 44  1  0
 44 47  1  0
 44 46  1  0
 45 43  2  0
 48 23  1  0
 48 49  1  0
 50 48  1  0
 51 53  1  0
 52 51  1  0
 52 53  1  0
 53 12  1  0
 54  6  1  0
 55 56  1  0
 55 54  1  0
 57 58  1  0
 57 56  1  0
 58 60  1  0
 59 70  2  0
 60 65  1  0
 61 69  1  0
 61 71  1  0
 62 68  1  0
 62 64  1  0
 63 69  1  0
 64 63  1  0
 65 64  2  0
 66 67  1  0
 66 60  2  0
 67 62  2  0
 68 61  1  0
 69 59  1  0
 71 73  2  0
 72 71  1  0
 74 72  1  0
 75 84  2  0
 75 80  1  0
 76 72  1  0
 76 80  1  0
 77 76  1  0
 78 79  1  0
 78 77  1  0
 79 75  1  0
 80 81  2  0
 81 82  1  0
 83 82  2  0
 84 83  1  0
 85 59  1  0
 85 86  1  0
 85 95  1  0
 86 89  1  0
 87 91  1  0
 87 86  1  0
 88 87  2  0
 91 90  1  0
 93 91  1  0
 93 94  1  0
 93 92  1  0
 95 98  1  1
 95 96  1  0
 97 95  1  0
M  ISO  4  13 100  22 100  57 101  58 101
M  END
>  <TORSDO>  (81) 
F 24

>  <SCORE>  (81) 
-10.062

>  <name>  (81) 
81

>  <ligand_id>  (81) 
81

>  <original_smiles>  (81) 
[H]c1c([H])c([H])c2c(c1[H])C([H])([H])C([H])([H])C([H])([H])C2([H])N([H])C(=O)C1([H])N(C(=O)C([H])(N([H])C(=O)C([H])(N([H])C([H])([H])[H])C([H])([H])[H])C(C([H])([H])[H])(C([H])([H])[H])C([H])([H])[H])C([H])([H])c2c([H])c(OC([H])([H])C([H])([H])C([H])([H])Oc3c([H])c(C([H])([H])C([H])(N(C(=O)N4C([H])([H])C([H])([H])C([H])([H])C([H])(n5nc(-c6c([H])c([H])c(Oc7c([H])c([H])c(F)c([H])c7F)c([H])c6[H])c(C(=O)N([H])[H])c5N([H])[H])C4([H])[H])C([H])([H])[H])C4([H])C([H])([H])C4([H])[H])c(C4([H])C([H])([H])C4([H])[H])c([H])c3C([H])([H])[H])c([H])c([H])c2C1([H])[H]

>  <smiles>  (81) 
[H]c1c([H])c([H])c2c(c1[H])C([H])([H])C([H])([H])C([H])([H])C2([H])N([H])C(=O)C1([H])N(C(=O)C([H])(N([H])C(=O)C([H])(N([H])C([H])([H])[H])C([H])([H])[H])C(C([H])([H])[H])(C([H])([H])[H])C([H])([H])[H])C([H])([H])c2c([H])c(OC([H])([H])C([H])([H])C([H])([H])Oc3c([H])c(C([H])([H])C([H])(N(C(=O)N4C([H])([H])C([H])([H])C([H])([H])C([H])(n5nc(-c6c([H])c([H])c(Oc7c([H])c([H])c(F)c([H])c7F)c([H])c6[H])c(C(=O)N([H])[H])c5N([H])[H])C4([H])[H])C([H])([H])[H])C4([H])C([H])([H])C4([H])[H])c(C4([H])C([H])([H])C4([H])[H])c([H])c3C([H])([H])[H])c([H])c([H])c2C1([H])[H]

$$$$
82:0:0
     RDKit          3D

 96105  0  0  1  0  0  0  0  0999 V2000
  -29.4740  -20.5230   20.5280 C   0  0  0  0  0  0  0  0  0  0  0  0
  -29.0000  -21.5160   19.5670 C   0  0  0  0  0  0  0  0  0  0  0  0
  -28.7770  -22.9250   19.9260 C   0  0  0  0  0  0  0  0  0  0  0  0
  -29.7000  -21.0510   21.8250 C   0  0  0  0  0  0  0  0  0  0  0  0
  -29.0670  -23.2350   21.2880 C   0  0  0  0  0  0  0  0  0  0  0  0
  -30.1410  -20.2140   23.0200 C   0  0  0  0  0  1  0  0  0  0  0  0
  -28.9240  -24.5850   21.9760 C   0  0  0  0  0  1  0  0  0  0  0  0
  -29.5090  -22.3290   22.1640 N   0  0  0  0  0  0  0  0  0  0  0  0
  -29.7690  -18.9550   20.4490 C   0  0  0  0  0  3  0  0  0  0  0  0
  -31.2550  -18.6390   20.2790 C   0  0  0  0  0  3  0  0  0  0  0  0
  -30.2970  -17.7920   19.5010 C   0  0  0  0  0  3  0  0  0  0  0  0
  -31.0160  -15.2980   19.8300 C   0  0  0  0  0  0  0  0  0  0  0  0
  -30.9970  -12.8470   19.3620 C   0  0  0  0  0  2  0  0  0  0  0  0
  -30.0490  -12.5710   18.1720 C   0  0  0  0  0  2  0  0  0  0  0  0
  -28.5950  -12.4000   18.6530 C   0  0  0  0  0  2  0  0  0  0  0  0
  -28.1590  -13.5160   19.6420 C   0  0  0  0  0  3  0  0  0  0  0  0
  -29.2220  -13.7480   20.7380 C   0  0  0  0  0  2  0  0  0  0  0  0
  -30.4950  -14.0490   20.0640 N   0  0  0  0  0  0  0  0  0  0  0  0
  -32.1610  -15.4320   19.3880 O   0  0  0  0  0  0  0  0  0  0  0  0
  -30.1560  -16.3690   19.9370 N   0  0  0  0  0  0  0  0  0  0  0  0
  -29.2450  -16.1260   20.2940 H   0  0  0  0  0  0  0  0  0  0  0  0
  -25.8520  -14.1560   20.5700 C   0  0  0  0  0  0  0  0  0  0  0  0
  -24.7820  -13.4020   20.9700 C   0  0  0  0  0  0  0  0  0  0  0  0
  -25.1820  -12.0390   20.8230 C   0  0  0  0  0  0  0  0  0  0  0  0
  -26.8380  -13.2530   20.2060 N   0  0  0  0  0  0  0  0  0  0  0  0
  -26.4450  -11.9700   20.4190 N   0  0  0  0  0  0  0  0  0  0  0  0
  -24.4160  -10.7970   20.9890 C   0  0  0  0  0  0  0  0  0  0  0  0
  -24.8350   -9.7850   21.8820 C   0  0  0  0  0  3  0  0  0  0  0  0
  -24.0710   -8.6080   22.0390 C   0  0  0  0  0  3  0  0  0  0  0  0
  -22.8740   -8.4350   21.3040 C   0  0  0  0  0  0  0  0  0  0  0  0
  -22.4730   -9.4350   20.4010 C   0  0  0  0  0  3  0  0  0  0  0  0
  -23.2370  -10.6040   20.2420 C   0  0  0  0  0  3  0  0  0  0  0  0
  -22.0810   -7.3150   21.3740 O   0  0  0  0  0  0  0  0  0  0  0  0
  -21.9700   -6.5820   22.5280 C   0  0  0  0  0  0  0  0  0  0  0  0
  -21.4840   -7.1480   23.7260 C   0  0  0  0  0  3  0  0  0  0  0  0
  -21.3200   -6.3420   24.8700 C   0  0  0  0  0  3  0  0  0  0  0  0
  -21.6320   -4.9700   24.8160 C   0  0  0  0  0  0  0  0  0  0  0  0
  -22.1130   -4.4040   23.6230 C   0  0  0  0  0  3  0  0  0  0  0  0
  -22.2780   -5.2080   22.4810 C   0  0  0  0  0  0  0  0  0  0  0  0
  -22.7210   -4.6530   21.3270 F   0  0  0  0  0  0  0  0  0  0  0  0
  -21.4690   -4.1930   25.9130 F   0  0  0  0  0  0  0  0  0  0  0  0
  -23.4290  -13.9160   21.3690 C   0  0  0  0  0  0  0  0  0  0  0  0
  -22.7450  -13.2110   22.2630 N   0  0  0  0  0  0  0  0  0  0  0  0
  -22.9900  -14.9760   20.9240 O   0  0  0  0  0  0  0  0  0  0  0  0
  -23.1130  -12.3520   22.6470 H   0  0  0  0  0  0  0  0  0  0  0  0
  -21.8390  -13.5370   22.5710 H   0  0  0  0  0  0  0  0  0  0  0  0
  -26.0600  -15.5280   20.4610 N   0  0  0  0  0  0  0  0  0  0  0  0
  -25.3220  -16.1960   20.6580 H   0  0  0  0  0  0  0  0  0  0  0  0
  -26.8810  -15.9590   20.0570 H   0  0  0  0  0  0  0  0  0  0  0  0
  -32.9120  -19.1440   22.1410 C   0  0  0  0  0  1  0  0  0  0  0  0
  -32.1090  -18.0650   21.4000 C   0  0  0  0  0  2  0  0  0  0  0  0
  -27.2780  -20.5000   18.0170 C   0  0  0  0  0  1  0  0  0  0  0  0
  -28.7050  -21.0460   18.1530 C   0  0  0  0  0  2  0  0  0  0  0  0
  -28.2640  -24.0510   18.8920 C   0  0  0  0  0  3  0  0  0  0  0  0
  -27.7620  -25.5250   19.3510 C   0  0  0  0  0  3  0  0  0  0  0  0
  -27.6110  -26.7110   18.4580 O   0  0  0  0  0  0  0  0  0  0  0  0
  -24.3100  -31.3520   22.9390 C   0  0  0  0  0  0  0  0  0  0  0  0
  -26.5250  -27.5590   18.7380 C   0  0  0  0  0  0  0  0  0  0  0  0
  -22.9120  -30.2680   21.2170 C   0  0  0  0  0  3  0  0  0  0  0  0
  -24.1750  -29.0760   19.3370 C   0  0  0  0  0  0  0  0  0  0  0  0
  -25.4060  -30.6950   20.7830 C   0  0  0  0  0  2  0  0  0  0  0  0
  -25.4100  -29.4730   19.8690 C   0  0  0  0  0  0  0  0  0  0  0  0
  -26.5910  -28.7300   19.5570 C   0  0  0  0  0  3  0  0  0  0  0  0
  -25.2690  -27.2290   18.1860 C   0  0  0  0  0  3  0  0  0  0  0  0
  -24.1050  -27.9640   18.4840 C   0  0  0  0  0  3  0  0  0  0  0  0
  -22.9500  -29.8860   19.7130 C   0  0  0  0  0  2  0  0  0  0  0  0
  -24.2350  -30.7780   21.7020 N   0  0  0  0  0  0  0  0  0  0  0  0
  -23.3020  -31.4870   23.6480 O   0  0  0  0  0  0  0  0  0  0  0  0
  -22.3850  -29.0620   22.0320 C   0  0  0  0  0  0  0  0  0  0  0  0
  -21.0690  -28.8010   21.9470 N   0  0  0  0  0  0  0  0  0  0  0  0
  -23.1570  -28.3710   22.7020 O   0  0  0  0  0  0  0  0  0  0  0  0
  -20.5000  -29.4220   21.3870 H   0  0  0  0  0  0  0  0  0  0  0  0
  -17.8570  -27.1690   22.2730 C   0  0  0  0  0  0  0  0  0  0  0  0
  -20.3670  -27.6930   22.5970 C   0  0  0  0  0  3  0  0  0  0  0  0
  -20.6350  -26.3570   21.8680 C   0  0  0  0  0  2  0  0  0  0  0  0
  -19.5770  -26.0230   20.8120 C   0  0  0  0  0  2  0  0  0  0  0  0
  -18.1890  -25.9340   21.4530 C   0  0  0  0  0  2  0  0  0  0  0  0
  -18.8790  -28.0030   22.7990 C   0  0  0  0  0  0  0  0  0  0  0  0
  -18.5170  -29.1550   23.5300 C   0  0  0  0  0  3  0  0  0  0  0  0
  -17.1640  -29.4780   23.7400 C   0  0  0  0  0  3  0  0  0  0  0  0
  -16.1550  -28.6410   23.2310 C   0  0  0  0  0  3  0  0  0  0  0  0
  -16.5010  -27.4880   22.5030 C   0  0  0  0  0  3  0  0  0  0  0  0
  -25.6580  -31.8910   23.5090 C   0  0  0  0  0  3  0  0  0  0  0  0
  -25.3980  -33.2200   24.0840 N   0  0  0  0  0  0  0  0  0  0  0  0
  -25.7340  -34.3790   23.5050 C   0  0  0  0  0  0  0  0  0  0  0  0
  -26.3640  -34.4390   22.4460 O   0  0  0  0  0  0  0  0  0  0  0  0
  -24.8370  -33.2470   24.9240 H   0  0  0  0  0  0  0  0  0  0  0  0
  -24.0960  -36.2880   23.4810 C   0  0  0  0  0  1  0  0  0  0  0  0
  -25.3040  -35.6800   24.2120 C   0  0  0  0  0  3  0  0  0  0  0  0
  -27.4570  -36.2940   25.2210 C   0  0  0  0  0  1  0  0  0  0  0  0
  -26.3850  -36.6840   24.3080 N   0  0  0  0  0  0  0  0  0  0  0  0
  -26.0180  -37.5820   24.6100 H   0  0  0  0  0  0  0  0  0  0  0  0
  -26.3010  -30.9350   24.5890 C   0  0  1  0  0  0  0  0  0  0  0  0
  -25.3290  -30.5280   25.7190 C   0  0  0  0  0  1  0  0  0  0  0  0
  -26.8240  -29.6380   23.9300 C   0  0  0  0  0  1  0  0  0  0  0  0
  -27.5250  -31.6250   25.2340 C   0  0  0  0  0  1  0  0  0  0  0  0
  1  4  1  0
  2  3  1  0
  2  1  2  0
  3  5  2  0
  4  8  2  0
  4  6  1  0
  5  7  1  0
  5  8  1  0
  9  1  1  0
 10  9  1  0
 10 51  1  0
 11 20  1  0
 11 10  1  0
 11  9  1  0
 12 20  1  0
 12 18  1  0
 13 18  1  0
 14 15  1  0
 14 13  1  0
 16 15  1  0
 16 25  1  0
 16 17  1  0
 18 17  1  0
 19 12  2  0
 20 21  1  0
 22 23  2  0
 23 42  1  0
 24 23  1  0
 24 27  1  0
 25 26  1  0
 25 22  1  0
 26 24  2  0
 27 28  1  0
 28 29  2  0
 30 33  1  0
 30 29  1  0
 31 30  2  0
 32 31  1  0
 32 27  2  0
 33 34  1  0
 34 35  1  0
 35 36  2  0
 37 36  1  0
 37 41  1  0
 38 37  2  0
 39 34  2  0
 39 38  1  0
 40 39  1  0
 42 43  1  0
 43 46  1  0
 43 45  1  0
 44 42  2  0
 47 22  1  0
 47 48  1  0
 49 47  1  0
 51 50  1  0
 52 53  1  0
 53  2  1  0
 54 55  2  0
 54  3  1  0
 56 58  1  0
 56 55  1  0
 57 68  2  0
 58 63  1  0
 59 67  1  0
 59 69  1  0
 60 66  1  0
 60 62  1  0
 61 67  1  0
 62 61  1  0
 63 62  2  0
 64 65  1  0
 64 58  2  0
 65 60  2  0
 66 59  1  0
 67 57  1  0
 69 71  2  0
 70 69  1  0
 72 70  1  0
 73 82  2  0
 73 78  1  0
 74 70  1  0
 74 78  1  0
 75 74  1  0
 76 77  1  0
 76 75  1  0
 77 73  1  0
 78 79  2  0
 79 80  1  0
 81 80  2  0
 82 81  1  0
 83 57  1  0
 83 84  1  0
 83 93  1  0
 84 87  1  0
 85 84  1  0
 85 89  1  0
 86 85  2  0
 89 88  1  0
 89 91  1  0
 91 92  1  0
 91 90  1  0
 93 96  1  1
 93 94  1  0
 95 93  1  0
M  ISO  4  12 100  20 100  55 101  56 101
M  END
>  <TORSDO>  (82) 
F 21

>  <SCORE>  (82) 
-10.640

>  <name>  (82) 
82

>  <ligand_id>  (82) 
82

>  <original_smiles>  (82) 
[H]c1c([H])c([H])c2c(c1[H])C([H])([H])C([H])([H])C([H])([H])C2([H])N([H])C(=O)C1([H])N(C(=O)C([H])(N([H])C(=O)C([H])(N([H])C([H])([H])[H])C([H])([H])[H])C(C([H])([H])[H])(C([H])([H])[H])C([H])([H])[H])C([H])([H])c2c([H])c(OC([H])([H])C([H])([H])c3c(C([H])([H])[H])nc(C([H])([H])[H])c(C4([H])C([H])(N([H])C(=O)N5C([H])([H])C([H])([H])C([H])([H])C([H])(n6nc(-c7c([H])c([H])c(Oc8c([H])c([H])c(F)c([H])c8F)c([H])c7[H])c(C(=O)N([H])[H])c6N([H])[H])C5([H])[H])C4([H])C([H])([H])C([H])([H])[H])c3C([H])([H])C([H])([H])[H])c([H])c([H])c2C1([H])[H]

>  <smiles>  (82) 
[H]c1c([H])c([H])c2c(c1[H])C([H])([H])C([H])([H])C([H])([H])C2([H])N([H])C(=O)C1([H])N(C(=O)C([H])(N([H])C(=O)C([H])(N([H])C([H])([H])[H])C([H])([H])[H])C(C([H])([H])[H])(C([H])([H])[H])C([H])([H])[H])C([H])([H])c2c([H])c(OC([H])([H])C([H])([H])c3c(C([H])([H])[H])nc(C([H])([H])[H])c(C4([H])C([H])(N([H])C(=O)N5C([H])([H])C([H])([H])C([H])([H])C([H])(n6nc(-c7c([H])c([H])c(Oc8c([H])c([H])c(F)c([H])c8F)c([H])c7[H])c(C(=O)N([H])[H])c6N([H])[H])C5([H])[H])C4([H])C([H])([H])C([H])([H])[H])c3C([H])([H])C([H])([H])[H])c([H])c([H])c2C1([H])[H]

$$$$
83:0:0
     RDKit          3D

 95104  0  0  1  0  0  0  0  0999 V2000
  -28.9330  -23.2110   21.1500 C   0  0  0  0  0  3  0  0  0  0  0  0
  -29.1240  -21.7820   21.2460 C   0  0  0  0  0  3  0  0  0  0  0  0
  -30.0510  -23.1670   19.0480 C   0  0  0  0  0  3  0  0  0  0  0  0
  -29.3650  -23.9510   20.0160 C   0  0  0  0  0  0  0  0  0  0  0  0
  -30.2220  -21.7480   19.1140 C   0  0  0  0  0  0  0  0  0  0  0  0
  -29.7320  -20.9920   20.2180 C   0  0  0  0  0  0  0  0  0  0  0  0
  -30.9110  -21.0700   17.9360 C   0  0  0  0  0  1  0  0  0  0  0  0
  -29.2190  -25.5220   19.7410 C   0  0  0  0  0  2  0  0  0  0  0  0
  -28.7220  -26.5350   20.7030 O   0  0  0  0  0  0  0  0  0  0  0  0
  -24.6020  -31.9010   23.1770 C   0  0  0  0  0  0  0  0  0  0  0  0
  -27.5780  -27.3300   20.4770 C   0  0  0  0  0  0  0  0  0  0  0  0
  -23.5550  -30.4040   21.5200 C   0  0  0  0  0  3  0  0  0  0  0  0
  -25.1480  -28.8550   20.2400 C   0  0  0  0  0  0  0  0  0  0  0  0
  -26.0860  -30.8080   21.4820 C   0  0  0  0  0  2  0  0  0  0  0  0
  -26.2560  -29.4100   20.8930 C   0  0  0  0  0  0  0  0  0  0  0  0
  -27.4640  -28.6580   20.9980 C   0  0  0  0  0  3  0  0  0  0  0  0
  -26.4400  -26.8270   19.7990 C   0  0  0  0  0  3  0  0  0  0  0  0
  -25.2480  -27.5710   19.6790 C   0  0  0  0  0  3  0  0  0  0  0  0
  -23.8770  -29.6820   20.1820 C   0  0  0  0  0  2  0  0  0  0  0  0
  -24.7620  -31.0550   22.1180 N   0  0  0  0  0  0  0  0  0  0  0  0
  -23.4780  -32.1590   23.6320 O   0  0  0  0  0  0  0  0  0  0  0  0
  -22.8700  -29.3970   22.4790 C   0  0  0  0  0  0  0  0  0  0  0  0
  -21.5430  -29.2310   22.3350 N   0  0  0  0  0  0  0  0  0  0  0  0
  -23.5340  -28.7690   23.3070 O   0  0  0  0  0  0  0  0  0  0  0  0
  -21.0610  -29.7990   21.6510 H   0  0  0  0  0  0  0  0  0  0  0  0
  -18.1500  -28.1110   22.8290 C   0  0  0  0  0  0  0  0  0  0  0  0
  -20.7110  -28.3040   23.1030 C   0  0  0  0  0  3  0  0  0  0  0  0
  -20.7730  -26.8720   22.5270 C   0  0  0  0  0  2  0  0  0  0  0  0
  -19.6770  -26.6030   21.4900 C   0  0  0  0  0  2  0  0  0  0  0  0
  -18.2930  -26.7740   22.1190 C   0  0  0  0  0  2  0  0  0  0  0  0
  -19.2880  -28.8360   23.2740 C   0  0  0  0  0  0  0  0  0  0  0  0
  -19.1010  -30.0940   23.8900 C   0  0  0  0  0  3  0  0  0  0  0  0
  -17.8110  -30.6180   24.0790 C   0  0  0  0  0  3  0  0  0  0  0  0
  -16.6910  -29.8830   23.6620 C   0  0  0  0  0  3  0  0  0  0  0  0
  -16.8570  -28.6350   23.0360 C   0  0  0  0  0  3  0  0  0  0  0  0
  -25.8220  -32.6040   23.8500 C   0  0  0  0  0  3  0  0  0  0  0  0
  -25.4240  -33.9850   24.1590 N   0  0  0  0  0  0  0  0  0  0  0  0
  -25.7100  -35.0450   23.3930 C   0  0  0  0  0  0  0  0  0  0  0  0
  -26.4090  -34.9700   22.3790 O   0  0  0  0  0  0  0  0  0  0  0  0
  -24.8090  -34.1120   24.9460 H   0  0  0  0  0  0  0  0  0  0  0  0
  -23.8700  -36.7150   23.0140 C   0  0  0  0  0  1  0  0  0  0  0  0
  -25.1350  -36.4080   23.8300 C   0  0  0  0  0  3  0  0  0  0  0  0
  -27.2080  -37.4470   24.6380 C   0  0  0  0  0  1  0  0  0  0  0  0
  -26.0960  -37.5230   23.6930 N   0  0  0  0  0  0  0  0  0  0  0  0
  -25.6310  -38.4150   23.8240 H   0  0  0  0  0  0  0  0  0  0  0  0
  -26.3190  -31.8650   25.1530 C   0  0  1  0  0  0  0  0  0  0  0  0
  -25.1830  -31.5460   26.1540 C   0  0  0  0  0  1  0  0  0  0  0  0
  -27.0210  -30.5330   24.7920 C   0  0  0  0  0  1  0  0  0  0  0  0
  -27.3760  -32.7310   25.8750 C   0  0  0  0  0  1  0  0  0  0  0  0
  -29.4980  -19.5610   20.0940 N   0  0  0  0  0  0  0  0  0  0  0  0
  -26.9880  -19.1390   17.3340 C   0  0  0  0  0  2  0  0  0  0  0  0
  -26.1540  -18.6440   18.5310 C   0  0  0  0  0  2  0  0  0  0  0  0
  -28.4370  -19.1950   17.8000 C   0  0  0  0  0  2  0  0  0  0  0  0
  -27.1460  -18.4970   19.7040 C   0  0  0  0  0  2  0  0  0  0  0  0
  -28.2630  -19.4610   19.2840 C   0  0  0  0  0  3  0  0  0  0  0  0
  -29.9690  -18.4150   20.9830 C   0  0  0  0  0  2  0  0  0  0  0  0
  -30.8860  -17.2310   20.3690 C   0  0  0  0  0  2  0  0  0  0  0  0
  -31.2990  -14.6370   20.3260 C   0  0  0  0  0  0  0  0  0  0  0  0
  -31.0260  -12.3450   19.3530 C   0  0  0  0  0  2  0  0  0  0  0  0
  -30.1020  -12.4170   18.1160 C   0  0  0  0  0  2  0  0  0  0  0  0
  -28.6240  -12.3360   18.5360 C   0  0  0  0  0  2  0  0  0  0  0  0
  -28.2860  -13.2980   19.7050 C   0  0  0  0  0  3  0  0  0  0  0  0
  -29.3130  -13.1700   20.8520 C   0  0  0  0  0  2  0  0  0  0  0  0
  -30.6380  -13.4320   20.2840 N   0  0  0  0  0  0  0  0  0  0  0  0
  -32.4600  -14.7180   19.9160 O   0  0  0  0  0  0  0  0  0  0  0  0
  -30.5680  -15.7680   20.6490 N   0  0  0  0  0  0  0  0  0  0  0  0
  -29.6100  -15.5920   20.9230 H   0  0  0  0  0  0  0  0  0  0  0  0
  -25.9410  -14.0690   20.4240 C   0  0  0  0  0  0  0  0  0  0  0  0
  -24.8130  -13.3730   20.7610 C   0  0  0  0  0  0  0  0  0  0  0  0
  -25.1710  -11.9930   20.7080 C   0  0  0  0  0  0  0  0  0  0  0  0
  -26.9140  -13.1140   20.1740 N   0  0  0  0  0  0  0  0  0  0  0  0
  -26.4550  -11.8590   20.4060 N   0  0  0  0  0  0  0  0  0  0  0  0
  -24.3490  -10.7860   20.8720 C   0  0  0  0  0  0  0  0  0  0  0  0
  -24.7090   -9.7690   21.7830 C   0  0  0  0  0  3  0  0  0  0  0  0
  -23.8960   -8.6260   21.9360 C   0  0  0  0  0  3  0  0  0  0  0  0
  -22.7100   -8.4930   21.1790 C   0  0  0  0  0  0  0  0  0  0  0  0
  -22.3670   -9.4970   20.2590 C   0  0  0  0  0  3  0  0  0  0  0  0
  -23.1780  -10.6340   20.1020 C   0  0  0  0  0  3  0  0  0  0  0  0
  -21.8700   -7.4070   21.2460 O   0  0  0  0  0  0  0  0  0  0  0  0
  -21.7480   -6.6620   22.3910 C   0  0  0  0  0  0  0  0  0  0  0  0
  -21.3620   -7.2420   23.6190 C   0  0  0  0  0  3  0  0  0  0  0  0
  -21.1780   -6.4290   24.7550 C   0  0  0  0  0  3  0  0  0  0  0  0
  -21.3740   -5.0380   24.6640 C   0  0  0  0  0  0  0  0  0  0  0  0
  -21.7570   -4.4590   23.4410 C   0  0  0  0  0  3  0  0  0  0  0  0
  -21.9410   -5.2700   22.3090 C   0  0  0  0  0  0  0  0  0  0  0  0
  -22.2890   -4.7040   21.1280 F   0  0  0  0  0  0  0  0  0  0  0  0
  -21.1910   -4.2540   25.7540 F   0  0  0  0  0  0  0  0  0  0  0  0
  -23.4550  -13.9570   21.0220 C   0  0  0  0  0  0  0  0  0  0  0  0
  -22.6790  -13.3290   21.9000 N   0  0  0  0  0  0  0  0  0  0  0  0
  -23.0990  -15.0030   20.4860 O   0  0  0  0  0  0  0  0  0  0  0  0
  -22.9830  -12.4830   22.3560 H   0  0  0  0  0  0  0  0  0  0  0  0
  -21.7660  -13.7050   22.1140 H   0  0  0  0  0  0  0  0  0  0  0  0
  -26.2170  -15.4280   20.2980 N   0  0  0  0  0  0  0  0  0  0  0  0
  -25.5180  -16.1330   20.4980 H   0  0  0  0  0  0  0  0  0  0  0  0
  -27.1170  -15.8190   20.0640 H   0  0  0  0  0  0  0  0  0  0  0  0
  1  2  1  0
  3  5  2  0
  3  4  1  0
  4  1  2  0
  5  6  1  0
  6  2  2  0
  7  5  1  0
  8  4  1  0
  8  9  1  0
 10 21  2  0
 11  9  1  0
 11 16  1  0
 12 20  1  0
 12 22  1  0
 13 15  1  0
 14 20  1  0
 15 16  2  0
 15 14  1  0
 17 11  2  0
 18 17  1  0
 18 13  2  0
 19 13  1  0
 19 12  1  0
 20 10  1  0
 22 24  2  0
 23 22  1  0
 25 23  1  0
 26 35  2  0
 26 31  1  0
 27 23  1  0
 27 31  1  0
 28 27  1  0
 29 30  1  0
 29 28  1  0
 30 26  1  0
 31 32  2  0
 32 33  1  0
 34 33  2  0
 35 34  1  0
 36 10  1  0
 36 37  1  0
 36 46  1  0
 37 40  1  0
 38 42  1  0
 38 37  1  0
 39 38  2  0
 42 41  1  0
 44 45  1  0
 44 42  1  0
 44 43  1  0
 46 49  1  1
 46 47  1  0
 48 46  1  0
 50  6  1  0
 50 56  1  0
 51 53  1  0
 51 52  1  0
 52 54  1  0
 53 55  1  0
 55 54  1  0
 55 50  1  0
 57 66  1  0
 57 56  1  0
 58 66  1  0
 59 64  1  0
 60 61  1  0
 60 59  1  0
 62 61  1  0
 62 71  1  0
 62 63  1  0
 64 58  1  0
 64 63  1  0
 65 58  2  0
 66 67  1  0
 68 69  2  0
 69 88  1  0
 70 69  1  0
 70 73  1  0
 71 72  1  0
 71 68  1  0
 72 70  2  0
 73 74  1  0
 74 75  2  0
 76 79  1  0
 76 75  1  0
 77 76  2  0
 78 77  1  0
 78 73  2  0
 79 80  1  0
 80 81  1  0
 81 82  2  0
 83 82  1  0
 83 87  1  0
 84 83  2  0
 85 80  2  0
 85 84  1  0
 86 85  1  0
 88 89  1  0
 89 92  1  0
 89 91  1  0
 90 88  2  0
 93 68  1  0
 93 94  1  0
 95 93  1  0
M  ISO  4   8 101   9 101  58 100  66 100
M  END
>  <TORSDO>  (83) 
F 21

>  <SCORE>  (83) 
-12.484

>  <name>  (83) 
83

>  <ligand_id>  (83) 
83

>  <original_smiles>  (83) 
[H]c1c([H])c([H])c2c(c1[H])C([H])([H])C([H])([H])C([H])([H])C2([H])N([H])C(=O)C1([H])N(C(=O)C([H])(N([H])C(=O)C([H])(N([H])C([H])([H])[H])C([H])([H])[H])C(C([H])([H])[H])(C([H])([H])[H])C([H])([H])[H])C([H])([H])c2c([H])c(OC([H])([H])c3c([H])c([H])c(N(C([H])([H])C([H])([H])N([H])C(=O)N4C([H])([H])C([H])([H])C([H])([H])C([H])(n5nc(-c6c([H])c([H])c(Oc7c([H])c([H])c(F)c([H])c7F)c([H])c6[H])c(C(=O)N([H])[H])c5N([H])[H])C4([H])[H])C4([H])C([H])([H])C([H])([H])C([H])([H])C4([H])[H])c(C([H])([H])[H])c3[H])c([H])c([H])c2C1([H])[H]

>  <smiles>  (83) 
[H]c1c([H])c([H])c2c(c1[H])C([H])([H])C([H])([H])C([H])([H])C2([H])N([H])C(=O)C1([H])N(C(=O)C([H])(N([H])C(=O)C([H])(N([H])C([H])([H])[H])C([H])([H])[H])C(C([H])([H])[H])(C([H])([H])[H])C([H])([H])[H])C([H])([H])c2c([H])c(OC([H])([H])c3c([H])c([H])c(N(C([H])([H])C([H])([H])N([H])C(=O)N4C([H])([H])C([H])([H])C([H])([H])C([H])(n5nc(-c6c([H])c([H])c(Oc7c([H])c([H])c(F)c([H])c7F)c([H])c6[H])c(C(=O)N([H])[H])c5N([H])[H])C4([H])[H])C4([H])C([H])([H])C([H])([H])C([H])([H])C4([H])[H])c(C([H])([H])[H])c3[H])c([H])c([H])c2C1([H])[H]

$$$$
84:0:0
     RDKit          3D

 94103  0  0  1  0  0  0  0  0999 V2000
  -27.5300  -24.1100   21.2970 C   0  0  0  0  0  2  0  0  0  0  0  0
  -27.5590  -22.5920   21.4560 C   0  0  0  0  0  2  0  0  0  0  0  0
  -28.1250  -23.8580   19.9090 C   0  0  0  0  0  3  0  0  0  0  0  0
  -28.6230  -22.5960   20.4540 N   0  0  2  0  0  4  0  0  0  0  0  0
  -29.5170  -22.7430   20.8980 H   0  0  0  0  0  0  0  0  0  0  0  0
  -29.2610  -24.7160   19.3430 C   0  0  0  0  0  2  0  0  0  0  0  0
  -28.8060  -26.1080   18.9050 C   0  0  0  0  0  2  0  0  0  0  0  0
  -28.4540  -26.8490   20.0680 O   0  0  0  0  0  0  0  0  0  0  0  0
  -24.6220  -31.9030   23.2220 C   0  0  0  0  0  0  0  0  0  0  0  0
  -27.2470  -27.5050   20.0850 C   0  0  0  0  0  0  0  0  0  0  0  0
  -23.3960  -30.5000   21.5910 C   0  0  0  0  0  3  0  0  0  0  0  0
  -24.8340  -28.9640   20.1540 C   0  0  0  0  0  0  0  0  0  0  0  0
  -25.9150  -30.8680   21.3640 C   0  0  0  0  0  2  0  0  0  0  0  0
  -25.9930  -29.4980   20.7280 C   0  0  0  0  0  0  0  0  0  0  0  0
  -27.1980  -28.7680   20.7050 C   0  0  0  0  0  3  0  0  0  0  0  0
  -26.0650  -26.9600   19.5340 C   0  0  0  0  0  3  0  0  0  0  0  0
  -24.8600  -27.6880   19.5630 C   0  0  0  0  0  3  0  0  0  0  0  0
  -23.5890  -29.8180   20.2100 C   0  0  0  0  0  2  0  0  0  0  0  0
  -24.6630  -31.1050   22.1180 N   0  0  0  0  0  0  0  0  0  0  0  0
  -23.5480  -32.1740   23.7750 O   0  0  0  0  0  0  0  0  0  0  0  0
  -22.7590  -29.4780   22.5590 C   0  0  0  0  0  0  0  0  0  0  0  0
  -21.4330  -29.2970   22.4450 N   0  0  0  0  0  0  0  0  0  0  0  0
  -23.4510  -28.8530   23.3660 O   0  0  0  0  0  0  0  0  0  0  0  0
  -20.9370  -29.8530   21.7630 H   0  0  0  0  0  0  0  0  0  0  0  0
  -18.0660  -28.1010   22.9660 C   0  0  0  0  0  0  0  0  0  0  0  0
  -20.6250  -28.3600   23.2230 C   0  0  0  0  0  3  0  0  0  0  0  0
  -20.7250  -26.9270   22.6490 C   0  0  0  0  0  2  0  0  0  0  0  0
  -19.6180  -26.6020   21.6430 C   0  0  0  0  0  2  0  0  0  0  0  0
  -18.2400  -26.7490   22.2940 C   0  0  0  0  0  2  0  0  0  0  0  0
  -19.1870  -28.8640   23.3880 C   0  0  0  0  0  0  0  0  0  0  0  0
  -18.9710  -30.1300   23.9750 C   0  0  0  0  0  3  0  0  0  0  0  0
  -17.6670  -30.6310   24.1460 C   0  0  0  0  0  3  0  0  0  0  0  0
  -16.5610  -29.8650   23.7420 C   0  0  0  0  0  3  0  0  0  0  0  0
  -16.7610  -28.6010   23.1560 C   0  0  0  0  0  3  0  0  0  0  0  0
  -25.9180  -32.5310   23.8260 C   0  0  0  0  0  3  0  0  0  0  0  0
  -25.6120  -33.9260   24.1700 N   0  0  0  0  0  0  0  0  0  0  0  0
  -25.9350  -34.9830   23.4140 C   0  0  0  0  0  0  0  0  0  0  0  0
  -26.5940  -34.8860   22.3740 O   0  0  0  0  0  0  0  0  0  0  0  0
  -25.0270  -34.0750   24.9800 H   0  0  0  0  0  0  0  0  0  0  0  0
  -24.2000  -36.7730   23.0890 C   0  0  0  0  0  1  0  0  0  0  0  0
  -25.4500  -36.3670   23.8850 C   0  0  0  0  0  3  0  0  0  0  0  0
  -27.5940  -37.2460   24.6960 C   0  0  0  0  0  1  0  0  0  0  0  0
  -26.4790  -37.4220   23.7680 N   0  0  0  0  0  0  0  0  0  0  0  0
  -26.0740  -38.3400   23.9310 H   0  0  0  0  0  0  0  0  0  0  0  0
  -26.4590  -31.7500   25.0860 C   0  0  1  0  0  0  0  0  0  0  0  0
  -25.3870  -31.5010   26.1720 C   0  0  0  0  0  1  0  0  0  0  0  0
  -27.0370  -30.3780   24.6700 C   0  0  0  0  0  1  0  0  0  0  0  0
  -27.6210  -32.5400   25.7340 C   0  0  0  0  0  1  0  0  0  0  0  0
  -28.6790  -21.4640   19.5100 C   0  0  0  0  0  2  0  0  0  0  0  0
  -29.7310  -20.4430   19.9610 C   0  0  0  0  0  2  0  0  0  0  0  0
  -29.0850  -18.5220   18.3620 C   0  0  0  0  0  2  0  0  0  0  0  0
  -31.4660  -18.7370   19.2440 C   0  0  0  0  0  2  0  0  0  0  0  0
  -28.8200  -17.3930   19.3720 C   0  0  0  0  0  2  0  0  0  0  0  0
  -31.1730  -17.6330   20.2730 C   0  0  0  0  0  2  0  0  0  0  0  0
  -30.1900  -19.4980   18.8340 C   0  0  0  0  0  3  0  0  0  0  0  0
  -30.1330  -16.6630   19.6900 C   0  0  0  0  0  3  0  0  0  0  0  0
  -30.6890  -14.4060   20.4200 C   0  0  0  0  0  0  0  0  0  0  0  0
  -30.3490  -12.2580   19.3260 C   0  0  0  0  0  2  0  0  0  0  0  0
  -29.4280  -12.5180   18.1150 C   0  0  0  0  0  2  0  0  0  0  0  0
  -27.9470  -12.4120   18.5330 C   0  0  0  0  0  2  0  0  0  0  0  0
  -27.6150  -13.2420   19.8020 C   0  0  0  0  0  3  0  0  0  0  0  0
  -28.6620  -13.0050   20.9170 C   0  0  0  0  0  2  0  0  0  0  0  0
  -30.0000  -13.2440   20.3550 N   0  0  0  0  0  0  0  0  0  0  0  0
  -31.8630  -14.5270   20.0640 O   0  0  0  0  0  0  0  0  0  0  0  0
  -29.9060  -15.4850   20.5250 N   0  0  0  0  0  0  0  0  0  0  0  0
  -28.9590  -15.3120   20.8240 H   0  0  0  0  0  0  0  0  0  0  0  0
  -25.2130  -13.8710   20.4820 C   0  0  0  0  0  0  0  0  0  0  0  0
  -24.1360  -13.1080   20.8450 C   0  0  0  0  0  0  0  0  0  0  0  0
  -24.5890  -11.7530   20.8240 C   0  0  0  0  0  0  0  0  0  0  0  0
  -26.2560  -12.9820   20.2680 N   0  0  0  0  0  0  0  0  0  0  0  0
  -25.8810  -11.7030   20.5280 N   0  0  0  0  0  0  0  0  0  0  0  0
  -23.8530  -10.4960   21.0080 C   0  0  0  0  0  0  0  0  0  0  0  0
  -24.2880   -9.5160   21.9260 C   0  0  0  0  0  3  0  0  0  0  0  0
  -23.5540   -8.3230   22.1000 C   0  0  0  0  0  3  0  0  0  0  0  0
  -22.3710   -8.1020   21.3540 C   0  0  0  0  0  0  0  0  0  0  0  0
  -21.9570   -9.0710   20.4240 C   0  0  0  0  0  3  0  0  0  0  0  0
  -22.6910  -10.2550   20.2470 C   0  0  0  0  0  3  0  0  0  0  0  0
  -21.6080   -6.9630   21.4390 O   0  0  0  0  0  0  0  0  0  0  0  0
  -21.5850   -6.1960   22.5760 C   0  0  0  0  0  0  0  0  0  0  0  0
  -21.2190   -6.7340   23.8290 C   0  0  0  0  0  3  0  0  0  0  0  0
  -21.1400   -5.8950   24.9590 C   0  0  0  0  0  3  0  0  0  0  0  0
  -21.4150   -4.5190   24.8350 C   0  0  0  0  0  0  0  0  0  0  0  0
  -21.7750   -3.9810   23.5870 C   0  0  0  0  0  3  0  0  0  0  0  0
  -21.8570   -4.8180   22.4600 C   0  0  0  0  0  0  0  0  0  0  0  0
  -22.1860   -4.2920   21.2550 F   0  0  0  0  0  0  0  0  0  0  0  0
  -21.3310   -3.7110   25.9180 F   0  0  0  0  0  0  0  0  0  0  0  0
  -22.7390  -13.5950   21.1000 C   0  0  0  0  0  0  0  0  0  0  0  0
  -21.9990  -12.9070   21.9630 N   0  0  0  0  0  0  0  0  0  0  0  0
  -22.3120  -14.6180   20.5680 O   0  0  0  0  0  0  0  0  0  0  0  0
  -22.3560  -12.0770   22.4120 H   0  0  0  0  0  0  0  0  0  0  0  0
  -21.0630  -13.2220   22.1780 H   0  0  0  0  0  0  0  0  0  0  0  0
  -25.3840  -15.2390   20.2970 N   0  0  0  0  0  0  0  0  0  0  0  0
  -24.6080  -15.8860   20.3820 H   0  0  0  0  0  0  0  0  0  0  0  0
  -26.2230  -15.6730   19.9350 H   0  0  0  0  0  0  0  0  0  0  0  0
  1  2  1  0
  3  6  1  0
  3  4  1  0
  3  1  1  0
  4  5  1  1
  4  2  1  0
  7  6  1  0
  7  8  1  0
  8 10  1  0
  9 20  2  0
 10 15  1  0
 11 19  1  0
 11 21  1  0
 12 18  1  0
 12 14  1  0
 13 19  1  0
 14 13  1  0
 15 14  2  0
 16 17  1  0
 16 10  2  0
 17 12  2  0
 18 11  1  0
 19  9  1  0
 21 23  2  0
 22 21  1  0
 24 22  1  0
 25 34  2  0
 25 30  1  0
 26 22  1  0
 26 30  1  0
 27 26  1  0
 28 29  1  0
 28 27  1  0
 29 25  1  0
 30 31  2  0
 31 32  1  0
 33 32  2  0
 34 33  1  0
 35  9  1  0
 35 36  1  0
 35 45  1  0
 36 39  1  0
 37 41  1  0
 37 36  1  0
 38 37  2  0
 41 40  1  0
 43 41  1  0
 43 44  1  0
 43 42  1  0
 45 48  1  1
 45 46  1  0
 47 45  1  0
 49 50  1  0
 49  4  1  0
 51 55  1  0
 51 53  1  0
 52 54  1  0
 53 56  1  0
 55 52  1  0
 55 50  1  0
 56 54  1  0
 56 65  1  0
 57 65  1  0
 58 63  1  0
 59 60  1  0
 59 58  1  0
 61 60  1  0
 61 70  1  0
 61 62  1  0
 63 57  1  0
 63 62  1  0
 64 57  2  0
 65 66  1  0
 67 68  2  0
 68 87  1  0
 69 68  1  0
 69 72  1  0
 70 67  1  0
 70 71  1  0
 71 69  2  0
 72 73  1  0
 73 74  2  0
 75 78  1  0
 75 74  1  0
 76 75  2  0
 77 76  1  0
 77 72  2  0
 78 79  1  0
 79 80  1  0
 80 81  2  0
 82 81  1  0
 82 86  1  0
 83 82  2  0
 84 79  2  0
 84 83  1  0
 85 84  1  0
 87 88  1  0
 88 91  1  0
 88 90  1  0
 89 87  2  0
 92 93  1  0
 92 67  1  0
 94 92  1  0
M  ISO  4   7 101   8 101  57 100  65 100
M  END
>  <TORSDO>  (84) 
F 21

>  <SCORE>  (84) 
-13.636

>  <name>  (84) 
84

>  <ligand_id>  (84) 
84

>  <original_smiles>  (84) 
[H]c1c([H])c([H])c2c(c1[H])C([H])([H])C([H])([H])C([H])([H])C2([H])N([H])C(=O)C1([H])N(C(=O)C([H])(N([H])C(=O)C([H])(N([H])C([H])([H])[H])C([H])([H])[H])C(C([H])([H])[H])(C([H])([H])[H])C([H])([H])[H])C([H])([H])c2c([H])c(OC([H])([H])C([H])([H])C3([H])C([H])([H])C([H])([H])[N+]3([H])C([H])([H])C([H])([H])C3([H])C([H])([H])C([H])([H])C([H])(N([H])C(=O)N4C([H])([H])C([H])([H])C([H])([H])C([H])(n5nc(-c6c([H])c([H])c(Oc7c([H])c([H])c(F)c([H])c7F)c([H])c6[H])c(C(=O)N([H])[H])c5N([H])[H])C4([H])[H])C([H])([H])C3([H])[H])c([H])c([H])c2C1([H])[H]

>  <smiles>  (84) 
[H]c1c([H])c([H])c2c(c1[H])C([H])([H])C([H])([H])C([H])([H])C2([H])N([H])C(=O)C1([H])N(C(=O)C([H])(N([H])C(=O)C([H])(N([H])C([H])([H])[H])C([H])([H])[H])C(C([H])([H])[H])(C([H])([H])[H])C([H])([H])[H])C([H])([H])c2c([H])c(OC([H])([H])C([H])([H])C3([H])C([H])([H])C([H])([H])[N+]3([H])C([H])([H])C([H])([H])C3([H])C([H])([H])C([H])([H])C([H])(N([H])C(=O)N4C([H])([H])C([H])([H])C([H])([H])C([H])(n5nc(-c6c([H])c([H])c(Oc7c([H])c([H])c(F)c([H])c7F)c([H])c6[H])c(C(=O)N([H])[H])c5N([H])[H])C4([H])[H])C([H])([H])C3([H])[H])c([H])c([H])c2C1([H])[H]

$$$$
85:0:0
     RDKit          3D

101111  0  0  1  0  0  0  0  0999 V2000
  -27.8500  -19.0650   19.9150 C   0  0  0  0  0  3  0  0  0  0  0  0
  -26.6620  -19.6170   19.3830 C   0  0  0  0  0  3  0  0  0  0  0  0
  -29.0140  -21.1340   19.4230 C   0  0  0  0  0  3  0  0  0  0  0  0
  -29.0640  -19.7910   19.9320 C   0  0  0  0  0  0  0  0  0  0  0  0
  -26.6350  -20.9250   18.8510 C   0  0  0  0  0  0  0  0  0  0  0  0
  -27.8230  -21.6960   18.8810 C   0  0  0  0  0  0  0  0  0  0  0  0
  -24.6540  -20.5990   17.5460 C   0  0  0  0  0  1  0  0  0  0  0  0
  -25.4950  -21.4770   18.2980 O   0  0  0  0  0  0  0  0  0  0  0  0
  -30.3230  -19.0940   20.5390 C   0  0  0  0  0  3  0  0  0  0  0  0
  -32.5870  -20.2550   20.2100 C   0  0  0  0  0  3  0  0  0  0  0  0
  -33.3110  -21.2020   20.8860 C   0  0  0  0  0  3  0  0  0  0  0  0
  -31.4100  -20.8450   21.9950 C   0  0  0  0  0  3  0  0  0  0  0  0
  -31.4080  -20.0610   20.8960 N   0  0  0  0  0  0  0  0  0  0  0  0
  -32.5580  -21.5410   21.9730 N   0  0  0  0  0  0  0  0  0  0  0  0
  -32.8620  -22.1780   22.7010 H   0  0  0  0  0  0  0  0  0  0  0  0
  -30.1280  -22.1930   23.8920 C   0  0  0  0  0  2  0  0  0  0  0  0
  -30.9150  -21.0700   24.5420 C   0  0  0  0  0  2  0  0  0  0  0  0
  -30.4150  -20.9200   23.1260 C   0  0  0  0  0  3  0  0  0  0  0  0
  -30.9320  -17.8600   19.7520 C   0  0  0  0  0  2  0  0  0  0  0  0
  -31.1240  -15.3350   19.8530 C   0  0  0  0  0  0  0  0  0  0  0  0
  -30.9250  -12.9370   19.2450 C   0  0  0  0  0  2  0  0  0  0  0  0
  -29.9980  -12.7640   18.0240 C   0  0  0  0  0  2  0  0  0  0  0  0
  -28.5250  -12.6400   18.4570 C   0  0  0  0  0  2  0  0  0  0  0  0
  -28.1230  -13.7310   19.4860 C   0  0  0  0  0  3  0  0  0  0  0  0
  -29.1630  -13.9170   20.6060 C   0  0  0  0  0  2  0  0  0  0  0  0
  -30.4740  -14.1370   19.9800 N   0  0  0  0  0  0  0  0  0  0  0  0
  -32.2820  -15.3920   19.4260 O   0  0  0  0  0  0  0  0  0  0  0  0
  -30.4110  -16.4830   20.0530 N   0  0  0  0  0  0  0  0  0  0  0  0
  -29.4430  -16.4030   20.3320 H   0  0  0  0  0  0  0  0  0  0  0  0
  -25.8190  -14.4140   20.3640 C   0  0  0  0  0  0  0  0  0  0  0  0
  -24.7310  -13.6920   20.7590 C   0  0  0  0  0  0  0  0  0  0  0  0
  -25.1030  -12.3130   20.6330 C   0  0  0  0  0  0  0  0  0  0  0  0
  -26.7910  -13.4920   20.0270 N   0  0  0  0  0  0  0  0  0  0  0  0
  -26.3690  -12.2180   20.2460 N   0  0  0  0  0  0  0  0  0  0  0  0
  -24.3120  -11.0850   20.7930 C   0  0  0  0  0  0  0  0  0  0  0  0
  -24.6950  -10.0550   21.6830 C   0  0  0  0  0  3  0  0  0  0  0  0
  -23.9020   -8.8960   21.8170 C   0  0  0  0  0  3  0  0  0  0  0  0
  -22.7070   -8.7580   21.0720 C   0  0  0  0  0  0  0  0  0  0  0  0
  -22.3440   -9.7740   20.1690 C   0  0  0  0  0  3  0  0  0  0  0  0
  -23.1390  -10.9250   20.0290 C   0  0  0  0  0  3  0  0  0  0  0  0
  -21.8870   -7.6560   21.1420 O   0  0  0  0  0  0  0  0  0  0  0  0
  -21.7550   -6.9260   22.2980 C   0  0  0  0  0  0  0  0  0  0  0  0
  -21.3140   -7.5070   23.5090 C   0  0  0  0  0  3  0  0  0  0  0  0
  -21.1230   -6.7000   24.6490 C   0  0  0  0  0  3  0  0  0  0  0  0
  -21.3670   -5.3160   24.5820 C   0  0  0  0  0  0  0  0  0  0  0  0
  -21.8050   -4.7360   23.3800 C   0  0  0  0  0  3  0  0  0  0  0  0
  -21.9960   -5.5380   22.2390 C   0  0  0  0  0  0  0  0  0  0  0  0
  -22.4010   -4.9680   21.0790 F   0  0  0  0  0  0  0  0  0  0  0  0
  -21.1810   -4.5390   25.6770 F   0  0  0  0  0  0  0  0  0  0  0  0
  -23.3800  -14.2360   21.1360 C   0  0  0  0  0  0  0  0  0  0  0  0
  -22.6610  -13.5390   22.0100 N   0  0  0  0  0  0  0  0  0  0  0  0
  -22.9780  -15.3130   20.6860 O   0  0  0  0  0  0  0  0  0  0  0  0
  -23.0010  -12.6610   22.3700 H   0  0  0  0  0  0  0  0  0  0  0  0
  -21.7600  -13.8710   22.3190 H   0  0  0  0  0  0  0  0  0  0  0  0
  -26.0670  -15.7780   20.2250 N   0  0  0  0  0  0  0  0  0  0  0  0
  -25.3090  -16.4480   20.2920 H   0  0  0  0  0  0  0  0  0  0  0  0
  -26.7970  -16.0800   19.6000 H   0  0  0  0  0  0  0  0  0  0  0  0
  -27.8670  -22.8800   18.1610 O   0  0  0  0  0  0  0  0  0  0  0  0
  -28.2540  -24.1220   18.7780 C   0  0  0  0  0  2  0  0  0  0  0  0
  -27.2090  -25.2370   18.4430 C   0  0  0  0  0  2  0  0  0  0  0  0
  -27.6050  -26.6440   18.4980 O   0  0  0  0  0  0  0  0  0  0  0  0
  -24.9270  -31.3970   23.1300 C   0  0  0  0  0  0  0  0  0  0  0  0
  -26.5790  -27.5490   18.7720 C   0  0  0  0  0  0  0  0  0  0  0  0
  -23.3760  -30.4650   21.4810 C   0  0  0  0  0  3  0  0  0  0  0  0
  -24.4070  -29.2310   19.5020 C   0  0  0  0  0  0  0  0  0  0  0  0
  -25.8550  -30.6880   20.9130 C   0  0  0  0  0  2  0  0  0  0  0  0
  -25.6920  -29.4990   19.9880 C   0  0  0  0  0  0  0  0  0  0  0  0
  -26.7840  -28.6620   19.6280 C   0  0  0  0  0  3  0  0  0  0  0  0
  -25.2810  -27.3570   18.2390 C   0  0  0  0  0  3  0  0  0  0  0  0
  -24.2020  -28.1720   18.6080 C   0  0  0  0  0  3  0  0  0  0  0  0
  -23.2810  -30.1220   19.9680 C   0  0  0  0  0  2  0  0  0  0  0  0
  -24.7540  -30.8470   21.8960 N   0  0  0  0  0  0  0  0  0  0  0  0
  -23.9640  -31.6080   23.8830 O   0  0  0  0  0  0  0  0  0  0  0  0
  -22.7970  -29.2980   22.3010 C   0  0  0  0  0  0  0  0  0  0  0  0
  -21.4710  -29.2550   22.2520 N   0  0  0  0  0  0  0  0  0  0  0  0
  -23.5000  -28.4810   22.8940 O   0  0  0  0  0  0  0  0  0  0  0  0
  -21.0630  -30.0420   21.7740 H   0  0  0  0  0  0  0  0  0  0  0  0
  -18.0700  -27.7280   22.5470 C   0  0  0  0  0  0  0  0  0  0  0  0
  -20.5370  -28.1980   22.5320 C   0  0  0  0  0  3  0  0  0  0  0  0
  -20.8320  -26.7340   22.2040 C   0  0  0  0  0  2  0  0  0  0  0  0
  -19.7450  -26.2210   21.2390 C   0  0  0  0  0  2  0  0  0  0  0  0
  -18.3180  -26.4090   21.8060 C   0  0  0  0  0  2  0  0  0  0  0  0
  -19.1420  -28.5290   23.0030 C   0  0  0  0  0  0  0  0  0  0  0  0
  -18.8850  -29.7250   23.7070 C   0  0  0  0  0  3  0  0  0  0  0  0
  -17.5600  -30.1520   23.9080 C   0  0  0  0  0  3  0  0  0  0  0  0
  -16.4880  -29.3750   23.4250 C   0  0  0  0  0  3  0  0  0  0  0  0
  -16.7450  -28.1600   22.7640 C   0  0  0  0  0  3  0  0  0  0  0  0
  -26.3370  -31.8070   23.6440 C   0  0  0  0  0  3  0  0  0  0  0  0
  -26.1990  -33.0930   24.3410 N   0  0  0  0  0  0  0  0  0  0  0  0
  -26.5510  -34.2810   23.8240 C   0  0  0  0  0  0  0  0  0  0  0  0
  -27.1100  -34.3930   22.7300 O   0  0  0  0  0  0  0  0  0  0  0  0
  -25.7080  -33.0820   25.2230 H   0  0  0  0  0  0  0  0  0  0  0  0
  -25.0100  -36.2520   24.0710 C   0  0  0  0  0  1  0  0  0  0  0  0
  -26.2440  -35.5410   24.6530 C   0  0  0  0  0  3  0  0  0  0  0  0
  -28.5080  -35.9720   25.5000 C   0  0  0  0  0  1  0  0  0  0  0  0
  -27.3810  -36.4850   24.7220 N   0  0  0  0  0  0  0  0  0  0  0  0
  -27.0930  -37.3730   25.1230 H   0  0  0  0  0  0  0  0  0  0  0  0
  -26.9790  -30.7250   24.5920 C   0  0  1  0  0  0  0  0  0  0  0  0
  -26.0470  -30.2890   25.7460 C   0  0  0  0  0  1  0  0  0  0  0  0
  -27.3680  -29.4600   23.7980 C   0  0  0  0  0  1  0  0  0  0  0  0
  -28.2890  -31.2810   25.1970 C   0  0  0  0  0  1  0  0  0  0  0  0
  1  4  1  0
  2  1  2  0
  3  4  2  0
  4  9  1  0
  5  6  2  0
  5  2  1  0
  6  3  1  0
  7  8  1  0
  8  5  1  0
  9 19  1  0
  9 13  1  0
 10 11  2  0
 10 13  1  0
 11 14  1  0
 12 18  1  0
 13 12  1  0
 14 12  1  0
 14 15  1  0
 16 17  1  0
 18 16  1  0
 18 17  1  0
 19 28  1  0
 20 26  1  0
 20 28  1  0
 21 26  1  0
 22 23  1  0
 22 21  1  0
 24 23  1  0
 24 33  1  0
 24 25  1  0
 26 25  1  0
 27 20  2  0
 28 29  1  0
 30 31  2  0
 31 50  1  0
 32 31  1  0
 32 35  1  0
 33 34  1  0
 33 30  1  0
 34 32  2  0
 35 36  1  0
 36 37  2  0
 38 41  1  0
 38 37  1  0
 39 38  2  0
 40 39  1  0
 40 35  2  0
 41 42  1  0
 42 43  1  0
 43 44  2  0
 45 44  1  0
 45 49  1  0
 46 45  2  0
 47 42  2  0
 47 46  1  0
 48 47  1  0
 50 51  1  0
 51 54  1  0
 51 53  1  0
 52 50  2  0
 55 56  1  0
 55 30  1  0
 57 55  1  0
 58 59  1  0
 58  6  1  0
 60 61  1  0
 60 59  1  0
 61 63  1  0
 62 73  2  0
 63 68  1  0
 64 72  1  0
 64 74  1  0
 65 71  1  0
 65 67  1  0
 66 72  1  0
 67 66  1  0
 68 67  2  0
 69 70  1  0
 69 63  2  0
 70 65  2  0
 71 64  1  0
 72 62  1  0
 74 76  2  0
 75 74  1  0
 77 75  1  0
 78 87  2  0
 78 83  1  0
 79 75  1  0
 79 83  1  0
 80 79  1  0
 81 82  1  0
 81 80  1  0
 82 78  1  0
 83 84  2  0
 84 85  1  0
 86 85  2  0
 87 86  1  0
 88 62  1  0
 88 89  1  0
 88 98  1  0
 89 92  1  0
 90 89  1  0
 90 94  1  0
 91 90  2  0
 94 93  1  0
 94 96  1  0
 96 97  1  0
 96 95  1  0
 98101  1  1
 98 99  1  0
100 98  1  0
M  ISO  4  20 100  28 100  60 101  61 101
M  END
>  <TORSDO>  (85) 
F 24

>  <SCORE>  (85) 
-10.934

>  <name>  (85) 
85

>  <ligand_id>  (85) 
85

>  <original_smiles>  (85) 
[H]c1c([H])c([H])c2c(c1[H])C([H])([H])C([H])([H])C([H])([H])C2([H])N([H])C(=O)C1([H])N(C(=O)C([H])(N([H])C(=O)C([H])(N([H])C([H])([H])[H])C([H])([H])[H])C(C([H])([H])[H])(C([H])([H])[H])C([H])([H])[H])C([H])([H])c2c([H])c(OC([H])([H])C([H])([H])Oc3c([H])c(C([H])(n4c([H])c([H])[n+]([H])c4C4([H])C([H])([H])C4([H])[H])C([H])([H])N([H])C(=O)N4C([H])([H])C([H])([H])C([H])([H])C([H])(n5nc(-c6c([H])c([H])c(Oc7c([H])c([H])c(F)c([H])c7F)c([H])c6[H])c(C(=O)N([H])[H])c5N([H])[H])C4([H])[H])c([H])c([H])c3OC([H])([H])[H])c([H])c([H])c2C1([H])[H]

>  <smiles>  (85) 
[H]c1c([H])c([H])c2c(c1[H])C([H])([H])C([H])([H])C([H])([H])C2([H])N([H])C(=O)C1([H])N(C(=O)C([H])(N([H])C(=O)C([H])(N([H])C([H])([H])[H])C([H])([H])[H])C(C([H])([H])[H])(C([H])([H])[H])C([H])([H])[H])C([H])([H])c2c([H])c(OC([H])([H])C([H])([H])Oc3c([H])c(C([H])(n4c([H])c([H])[n+]([H])c4C4([H])C([H])([H])C4([H])[H])C([H])([H])N([H])C(=O)N4C([H])([H])C([H])([H])C([H])([H])C([H])(n5nc(-c6c([H])c([H])c(Oc7c([H])c([H])c(F)c([H])c7F)c([H])c6[H])c(C(=O)N([H])[H])c5N([H])[H])C4([H])[H])c([H])c([H])c3OC([H])([H])[H])c([H])c([H])c2C1([H])[H]

$$$$
86:0:0
     RDKit          3D

 94103  0  0  1  0  0  0  0  0999 V2000
  -29.8370  -21.0090   21.1060 C   0  0  0  0  0  3  0  0  0  0  0  0
  -31.7220  -19.5160   20.0550 C   0  0  0  0  0  2  0  0  0  0  0  0
  -30.2220  -18.5370   21.8860 C   0  0  0  0  0  2  0  0  0  0  0  0
  -31.5430  -18.0790   19.5100 C   0  0  0  0  0  2  0  0  0  0  0  0
  -31.3040  -17.4480   21.9830 C   0  0  0  0  0  2  0  0  0  0  0  0
  -30.8330  -19.8260   21.2920 C   0  0  0  0  0  3  0  0  0  0  0  0
  -31.8360  -17.0130   20.5950 C   0  0  0  0  0  3  0  0  0  0  0  0
  -31.8340  -14.6710   19.6360 C   0  0  0  0  0  0  0  0  0  0  0  0
  -31.3810  -12.3980   18.7850 C   0  0  0  0  0  2  0  0  0  0  0  0
  -30.3660  -12.4580   17.6250 C   0  0  0  0  0  2  0  0  0  0  0  0
  -28.9190  -12.4600   18.1570 C   0  0  0  0  0  2  0  0  0  0  0  0
  -28.6970  -13.4950   19.2920 C   0  0  0  0  0  3  0  0  0  0  0  0
  -29.8040  -13.3640   20.3610 C   0  0  0  0  0  2  0  0  0  0  0  0
  -31.1030  -13.5270   19.6800 N   0  0  0  0  0  0  0  0  0  0  0  0
  -32.9010  -14.7770   19.0240 O   0  0  0  0  0  0  0  0  0  0  0  0
  -31.2680  -15.7030   20.2790 N   0  0  0  0  0  0  0  0  0  0  0  0
  -30.3680  -15.5010   20.6860 H   0  0  0  0  0  0  0  0  0  0  0  0
  -26.4650  -14.3730   20.2360 C   0  0  0  0  0  0  0  0  0  0  0  0
  -25.3410  -13.7270   20.6710 C   0  0  0  0  0  0  0  0  0  0  0  0
  -25.6150  -12.3300   20.5460 C   0  0  0  0  0  0  0  0  0  0  0  0
  -27.3620  -13.3770   19.8770 N   0  0  0  0  0  0  0  0  0  0  0  0
  -26.8550  -12.1410   20.1160 N   0  0  0  0  0  0  0  0  0  0  0  0
  -24.7490  -11.1630   20.7530 C   0  0  0  0  0  0  0  0  0  0  0  0
  -25.0800  -10.1560   21.6840 C   0  0  0  0  0  3  0  0  0  0  0  0
  -24.2250   -9.0500   21.8790 C   0  0  0  0  0  3  0  0  0  0  0  0
  -23.0220   -8.9450   21.1400 C   0  0  0  0  0  0  0  0  0  0  0  0
  -22.7070   -9.9400   20.2000 C   0  0  0  0  0  3  0  0  0  0  0  0
  -23.5620  -11.0360   20.0030 C   0  0  0  0  0  3  0  0  0  0  0  0
  -22.1430   -7.8940   21.2450 O   0  0  0  0  0  0  0  0  0  0  0  0
  -21.9440   -7.2380   22.4330 C   0  0  0  0  0  0  0  0  0  0  0  0
  -21.4930   -7.9120   23.5900 C   0  0  0  0  0  3  0  0  0  0  0  0
  -21.2330   -7.1870   24.7690 C   0  0  0  0  0  3  0  0  0  0  0  0
  -21.4150   -5.7910   24.7940 C   0  0  0  0  0  0  0  0  0  0  0  0
  -21.8590   -5.1190   23.6430 C   0  0  0  0  0  3  0  0  0  0  0  0
  -22.1210   -5.8400   22.4650 C   0  0  0  0  0  0  0  0  0  0  0  0
  -22.5290   -5.1850   21.3520 F   0  0  0  0  0  0  0  0  0  0  0  0
  -21.1570   -5.0940   25.9250 F   0  0  0  0  0  0  0  0  0  0  0  0
  -24.0470  -14.3630   21.0900 C   0  0  0  0  0  0  0  0  0  0  0  0
  -23.3160  -13.7290   22.0000 N   0  0  0  0  0  0  0  0  0  0  0  0
  -23.7000  -15.4570   20.6440 O   0  0  0  0  0  0  0  0  0  0  0  0
  -23.6090  -12.8410   22.3810 H   0  0  0  0  0  0  0  0  0  0  0  0
  -22.4510  -14.1380   22.3210 H   0  0  0  0  0  0  0  0  0  0  0  0
  -26.7940  -15.7190   20.0970 N   0  0  0  0  0  0  0  0  0  0  0  0
  -26.1280  -16.4560   20.2970 H   0  0  0  0  0  0  0  0  0  0  0  0
  -27.6670  -16.0660   19.7170 H   0  0  0  0  0  0  0  0  0  0  0  0
  -30.1230  -22.3780   23.3730 C   0  0  0  0  0  2  0  0  0  0  0  0
  -28.9010  -22.9370   22.6940 C   0  0  0  0  0  2  0  0  0  0  0  0
  -29.3020  -21.4950   22.4530 C   0  0  0  0  0  3  0  0  0  0  0  0
  -28.6820  -20.7370   20.0970 C   0  0  0  0  0  2  0  0  0  0  0  0
  -28.5760  -21.7790   19.1210 O   0  0  0  0  0  0  0  0  0  0  0  0
  -27.7440  -22.8590   19.5340 C   0  0  0  0  0  2  0  0  0  0  0  0
  -28.1020  -24.1970   18.8510 C   0  0  0  0  0  2  0  0  0  0  0  0
  -28.2270  -25.3490   19.8750 C   0  0  0  0  0  2  0  0  0  0  0  0
  -28.3030  -26.6490   19.2740 O   0  0  0  0  0  0  0  0  0  0  0  0
  -24.7870  -31.4450   23.1670 C   0  0  0  0  0  0  0  0  0  0  0  0
  -27.1580  -27.4020   19.4090 C   0  0  0  0  0  0  0  0  0  0  0  0
  -23.4580  -30.2750   21.4400 C   0  0  0  0  0  3  0  0  0  0  0  0
  -24.7950  -28.9090   19.7510 C   0  0  0  0  0  0  0  0  0  0  0  0
  -25.9730  -30.6280   21.1350 C   0  0  0  0  0  2  0  0  0  0  0  0
  -25.9960  -29.3470   20.3270 C   0  0  0  0  0  0  0  0  0  0  0  0
  -27.1830  -28.6020   20.1510 C   0  0  0  0  0  3  0  0  0  0  0  0
  -25.9450  -26.9820   18.8230 C   0  0  0  0  0  3  0  0  0  0  0  0
  -24.7640  -27.7280   18.9930 C   0  0  0  0  0  3  0  0  0  0  0  0
  -23.5740  -29.7690   19.9770 C   0  0  0  0  0  2  0  0  0  0  0  0
  -24.7620  -30.7880   21.9740 N   0  0  0  0  0  0  0  0  0  0  0  0
  -23.7440  -31.6590   23.8010 O   0  0  0  0  0  0  0  0  0  0  0  0
  -22.8450  -29.1490   22.3010 C   0  0  0  0  0  0  0  0  0  0  0  0
  -21.5240  -28.9410   22.1680 N   0  0  0  0  0  0  0  0  0  0  0  0
  -23.5530  -28.4710   23.0490 O   0  0  0  0  0  0  0  0  0  0  0  0
  -21.0080  -29.5450   21.5440 H   0  0  0  0  0  0  0  0  0  0  0  0
  -18.2110  -27.5530   22.4990 C   0  0  0  0  0  0  0  0  0  0  0  0
  -20.7440  -27.9150   22.8540 C   0  0  0  0  0  3  0  0  0  0  0  0
  -20.9300  -26.5320   22.1850 C   0  0  0  0  0  2  0  0  0  0  0  0
  -19.8690  -26.2270   21.1230 C   0  0  0  0  0  2  0  0  0  0  0  0
  -18.4690  -26.2640   21.7400 C   0  0  0  0  0  2  0  0  0  0  0  0
  -19.2790  -28.3370   23.0100 C   0  0  0  0  0  0  0  0  0  0  0  0
  -18.9860  -29.5470   23.6770 C   0  0  0  0  0  3  0  0  0  0  0  0
  -17.6530  -29.9710   23.8430 C   0  0  0  0  0  3  0  0  0  0  0  0
  -16.5980  -29.1840   23.3480 C   0  0  0  0  0  3  0  0  0  0  0  0
  -16.8770  -27.9790   22.6820 C   0  0  0  0  0  3  0  0  0  0  0  0
  -26.1170  -31.9800   23.7810 C   0  0  0  0  0  3  0  0  0  0  0  0
  -25.8630  -33.3400   24.2730 N   0  0  0  0  0  0  0  0  0  0  0  0
  -26.2130  -34.4600   23.6260 C   0  0  0  0  0  0  0  0  0  0  0  0
  -26.8560  -34.4520   22.5720 O   0  0  0  0  0  0  0  0  0  0  0  0
  -25.2970  -33.4190   25.1040 H   0  0  0  0  0  0  0  0  0  0  0  0
  -24.5430  -36.3400   23.5020 C   0  0  0  0  0  1  0  0  0  0  0  0
  -25.7790  -35.8040   24.2460 C   0  0  0  0  0  3  0  0  0  0  0  0
  -27.9490  -36.5120   25.1460 C   0  0  0  0  0  1  0  0  0  0  0  0
  -26.8460  -36.8280   24.2430 N   0  0  0  0  0  0  0  0  0  0  0  0
  -26.4750  -37.7380   24.5050 H   0  0  0  0  0  0  0  0  0  0  0  0
  -26.6850  -31.0620   24.9330 C   0  0  1  0  0  0  0  0  0  0  0  0
  -25.6470  -30.7270   26.0300 C   0  0  0  0  0  1  0  0  0  0  0  0
  -27.2130  -29.7260   24.3630 C   0  0  0  0  0  1  0  0  0  0  0  0
  -27.8880  -31.7570   25.6130 C   0  0  0  0  0  1  0  0  0  0  0  0
  1 49  1  0
  1 48  1  0
  2  6  1  0
  3  5  1  0
  4  2  1  0
  4  7  1  0
  6  1  1  0
  6  3  1  0
  7 16  1  0
  7  5  1  0
  8 14  1  0
  8 16  1  0
  9 14  1  0
 10 11  1  0
 10  9  1  0
 12 11  1  0
 12 21  1  0
 12 13  1  0
 14 13  1  0
 15  8  2  0
 16 17  1  0
 18 19  2  0
 19 38  1  0
 20 19  1  0
 20 23  1  0
 21 22  1  0
 21 18  1  0
 22 20  2  0
 23 24  1  0
 24 25  2  0
 26 29  1  0
 26 25  1  0
 27 26  2  0
 28 27  1  0
 28 23  2  0
 29 30  1  0
 30 35  2  0
 30 31  1  0
 31 32  2  0
 32 33  1  0
 33 37  1  0
 34 33  2  0
 35 34  1  0
 36 35  1  0
 38 39  1  0
 39 42  1  0
 39 41  1  0
 40 38  2  0
 43 18  1  0
 43 44  1  0
 45 43  1  0
 47 46  1  0
 48 47  1  0
 48 46  1  0
 50 51  1  0
 50 49  1  0
 52 51  1  0
 52 53  1  0
 54 56  1  0
 54 53  1  0
 55 66  2  0
 56 61  1  0
 57 65  1  0
 57 67  1  0
 58 64  1  0
 58 60  1  0
 59 65  1  0
 60 59  1  0
 61 60  2  0
 62 63  1  0
 62 56  2  0
 63 58  2  0
 64 57  1  0
 65 55  1  0
 67 69  2  0
 68 67  1  0
 70 68  1  0
 71 80  2  0
 71 76  1  0
 72 68  1  0
 72 76  1  0
 73 72  1  0
 74 75  1  0
 74 73  1  0
 75 71  1  0
 76 77  2  0
 77 78  1  0
 79 78  2  0
 80 79  1  0
 81 55  1  0
 81 82  1  0
 81 91  1  0
 82 85  1  0
 83 87  1  0
 83 82  1  0
 84 83  2  0
 87 86  1  0
 89 87  1  0
 89 90  1  0
 89 88  1  0
 91 94  1  1
 91 92  1  0
 93 91  1  0
M  ISO  4   8 100  16 100  53 101  54 101
M  END
>  <TORSDO>  (86) 
F 23

>  <SCORE>  (86) 
-10.386

>  <name>  (86) 
86

>  <ligand_id>  (86) 
86

>  <original_smiles>  (86) 
[H]c1c([H])c([H])c2c(c1[H])C([H])([H])C([H])([H])C([H])([H])C2([H])N([H])C(=O)C1([H])N(C(=O)C([H])(N([H])C(=O)C([H])(N([H])C([H])([H])[H])C([H])([H])[H])C(C([H])([H])[H])(C([H])([H])[H])C([H])([H])[H])C([H])([H])c2c([H])c(OC([H])([H])C([H])([H])C([H])([H])OC([H])([H])C([H])(C3([H])C([H])([H])C([H])([H])C([H])(N([H])C(=O)N4C([H])([H])C([H])([H])C([H])([H])C([H])(n5nc(-c6c([H])c([H])c(Oc7c([H])c([H])c(F)c([H])c7F)c([H])c6[H])c(C(=O)N([H])[H])c5N([H])[H])C4([H])[H])C([H])([H])C3([H])[H])C3([H])C([H])([H])C3([H])[H])c([H])c([H])c2C1([H])[H]

>  <smiles>  (86) 
[H]c1c([H])c([H])c2c(c1[H])C([H])([H])C([H])([H])C([H])([H])C2([H])N([H])C(=O)C1([H])N(C(=O)C([H])(N([H])C(=O)C([H])(N([H])C([H])([H])[H])C([H])([H])[H])C(C([H])([H])[H])(C([H])([H])[H])C([H])([H])[H])C([H])([H])c2c([H])c(OC([H])([H])C([H])([H])C([H])([H])OC([H])([H])C([H])(C3([H])C([H])([H])C([H])([H])C([H])(N([H])C(=O)N4C([H])([H])C([H])([H])C([H])([H])C([H])(n5nc(-c6c([H])c([H])c(Oc7c([H])c([H])c(F)c([H])c7F)c([H])c6[H])c(C(=O)N([H])[H])c5N([H])[H])C4([H])[H])C([H])([H])C3([H])[H])C3([H])C([H])([H])C3([H])[H])c([H])c([H])c2C1([H])[H]

$$$$
87:0:0
     RDKit          3D

 99109  0  0  1  0  0  0  0  0999 V2000
  -30.0470  -19.9350   19.2710 C   0  0  0  0  0  3  0  0  0  0  0  0
  -29.3750  -18.2420   20.8960 C   0  0  0  0  0  3  0  0  0  0  0  0
  -30.8500  -18.9600   18.6670 C   0  0  0  0  0  0  0  0  0  0  0  0
  -30.9610  -17.6600   19.1530 C   0  0  0  0  0  0  0  0  0  0  0  0
  -30.2230  -17.2480   20.3060 C   0  0  0  0  0  0  0  0  0  0  0  0
  -29.2530  -19.5750   20.3820 C   0  0  0  0  0  0  0  0  0  0  0  0
  -31.5540  -19.1200   17.3490 C   0  0  0  0  0  2  0  0  0  0  0  0
  -31.7710  -16.8570   18.1400 C   0  0  0  0  0  3  0  0  0  0  0  0
  -33.2330  -16.5870   18.5360 C   0  0  0  0  0  1  0  0  0  0  0  0
  -31.7980  -17.7200   16.9230 N   0  0  1  0  0  4  0  0  0  0  0  0
  -32.7360  -17.6820   16.5550 H   0  0  0  0  0  0  0  0  0  0  0  0
  -30.9450  -14.8160   20.5370 C   0  0  0  0  0  0  0  0  0  0  0  0
  -30.7050  -12.6630   19.3620 C   0  0  0  0  0  2  0  0  0  0  0  0
  -29.7950  -12.8920   18.1350 C   0  0  0  0  0  2  0  0  0  0  0  0
  -28.3020  -12.7870   18.5190 C   0  0  0  0  0  2  0  0  0  0  0  0
  -27.9430  -13.5790   19.8070 C   0  0  0  0  0  3  0  0  0  0  0  0
  -28.9670  -13.3050   20.9300 C   0  0  0  0  0  2  0  0  0  0  0  0
  -30.3020  -13.6250   20.4010 N   0  0  0  0  0  0  0  0  0  0  0  0
  -32.1420  -14.9560   20.2840 O   0  0  0  0  0  0  0  0  0  0  0  0
  -30.1320  -15.8800   20.7710 N   0  0  0  0  0  0  0  0  0  0  0  0
  -29.2460  -15.6300   21.1830 H   0  0  0  0  0  0  0  0  0  0  0  0
  -25.5240  -14.1940   20.4400 C   0  0  0  0  0  0  0  0  0  0  0  0
  -24.4430  -13.4240   20.7780 C   0  0  0  0  0  0  0  0  0  0  0  0
  -24.9040  -12.0720   20.7730 C   0  0  0  0  0  0  0  0  0  0  0  0
  -26.5740  -13.3100   20.2460 N   0  0  0  0  0  0  0  0  0  0  0  0
  -26.2040  -12.0300   20.5070 N   0  0  0  0  0  0  0  0  0  0  0  0
  -24.1720  -10.8110   20.9480 C   0  0  0  0  0  0  0  0  0  0  0  0
  -24.5630   -9.8590   21.9140 C   0  0  0  0  0  3  0  0  0  0  0  0
  -23.8330   -8.6610   22.0740 C   0  0  0  0  0  3  0  0  0  0  0  0
  -22.6980   -8.4090   21.2680 C   0  0  0  0  0  0  0  0  0  0  0  0
  -22.3260   -9.3510   20.2910 C   0  0  0  0  0  3  0  0  0  0  0  0
  -23.0570  -10.5390   20.1290 C   0  0  0  0  0  3  0  0  0  0  0  0
  -21.9430   -7.2620   21.3330 O   0  0  0  0  0  0  0  0  0  0  0  0
  -21.8200   -6.5500   22.5000 C   0  0  0  0  0  0  0  0  0  0  0  0
  -21.3340   -7.1390   23.6860 C   0  0  0  0  0  3  0  0  0  0  0  0
  -21.1570   -6.3520   24.8420 C   0  0  0  0  0  3  0  0  0  0  0  0
  -21.4590   -4.9770   24.8110 C   0  0  0  0  0  0  0  0  0  0  0  0
  -21.9380   -4.3870   23.6280 C   0  0  0  0  0  3  0  0  0  0  0  0
  -22.1150   -5.1720   22.4740 C   0  0  0  0  0  0  0  0  0  0  0  0
  -22.5580   -4.5950   21.3310 F   0  0  0  0  0  0  0  0  0  0  0  0
  -21.2820   -4.2190   25.9180 F   0  0  0  0  0  0  0  0  0  0  0  0
  -23.0370  -13.9040   21.0000 C   0  0  0  0  0  0  0  0  0  0  0  0
  -22.2890  -13.2350   21.8690 N   0  0  0  0  0  0  0  0  0  0  0  0
  -22.6100  -14.9080   20.4330 O   0  0  0  0  0  0  0  0  0  0  0  0
  -22.6480  -12.4240   22.3510 H   0  0  0  0  0  0  0  0  0  0  0  0
  -21.3430  -13.5390   22.0550 H   0  0  0  0  0  0  0  0  0  0  0  0
  -25.7000  -15.5620   20.2560 N   0  0  0  0  0  0  0  0  0  0  0  0
  -24.9350  -16.2210   20.3450 H   0  0  0  0  0  0  0  0  0  0  0  0
  -26.5590  -15.9930   19.9400 H   0  0  0  0  0  0  0  0  0  0  0  0
  -30.9240  -17.2400   15.8230 C   0  0  0  0  0  2  0  0  0  0  0  0
  -32.3140  -18.2410   13.8110 C   0  0  0  0  0  2  0  0  0  0  0  0
  -31.1440  -17.5020   13.2130 C   0  0  0  0  0  2  0  0  0  0  0  0
  -31.0220  -18.1220   14.5880 C   0  0  0  0  0  3  0  0  0  0  0  0
  -28.3700  -20.4780   20.9690 O   0  0  0  0  0  0  0  0  0  0  0  0
  -27.8470  -21.5910   20.1930 C   0  0  0  0  0  2  0  0  0  0  0  0
  -28.2970  -22.9840   20.7240 C   0  0  0  0  0  2  0  0  0  0  0  0
  -27.7480  -24.2230   19.9400 C   0  0  0  0  0  2  0  0  0  0  0  0
  -28.2540  -25.6030   20.4590 C   0  0  0  0  0  2  0  0  0  0  0  0
  -28.0420  -26.7350   19.5910 O   0  0  0  0  0  0  0  0  0  0  0  0
  -24.5820  -31.9010   23.1310 C   0  0  0  0  0  0  0  0  0  0  0  0
  -26.8960  -27.4820   19.7640 C   0  0  0  0  0  0  0  0  0  0  0  0
  -23.2310  -30.5800   21.5340 C   0  0  0  0  0  3  0  0  0  0  0  0
  -24.5470  -29.0510   19.9710 C   0  0  0  0  0  0  0  0  0  0  0  0
  -25.7460  -30.8890   21.1720 C   0  0  0  0  0  2  0  0  0  0  0  0
  -25.7550  -29.5310   20.4940 C   0  0  0  0  0  0  0  0  0  0  0  0
  -26.9350  -28.7550   20.3850 C   0  0  0  0  0  3  0  0  0  0  0  0
  -25.6740  -27.0190   19.2370 C   0  0  0  0  0  3  0  0  0  0  0  0
  -24.5020  -27.7950   19.3390 C   0  0  0  0  0  3  0  0  0  0  0  0
  -23.3320  -29.9400   20.1220 C   0  0  0  0  0  2  0  0  0  0  0  0
  -24.5420  -31.1360   22.0020 N   0  0  0  0  0  0  0  0  0  0  0  0
  -23.5480  -32.1760   23.7550 O   0  0  0  0  0  0  0  0  0  0  0  0
  -22.6250  -29.5420   22.5070 C   0  0  0  0  0  0  0  0  0  0  0  0
  -21.3030  -29.3280   22.4070 N   0  0  0  0  0  0  0  0  0  0  0  0
  -23.3400  -28.9350   23.3070 O   0  0  0  0  0  0  0  0  0  0  0  0
  -20.7850  -29.8730   21.7330 H   0  0  0  0  0  0  0  0  0  0  0  0
  -17.9820  -28.0050   22.9260 C   0  0  0  0  0  0  0  0  0  0  0  0
  -20.5270  -28.3680   23.1930 C   0  0  0  0  0  3  0  0  0  0  0  0
  -20.6860  -26.9350   22.6360 C   0  0  0  0  0  2  0  0  0  0  0  0
  -19.5960  -26.5540   21.6280 C   0  0  0  0  0  2  0  0  0  0  0  0
  -18.2100  -26.6540   22.2720 C   0  0  0  0  0  2  0  0  0  0  0  0
  -19.0680  -28.8160   23.3460 C   0  0  0  0  0  0  0  0  0  0  0  0
  -18.7990  -30.0780   23.9190 C   0  0  0  0  0  3  0  0  0  0  0  0
  -17.4750  -30.5280   24.0800 C   0  0  0  0  0  3  0  0  0  0  0  0
  -16.4020  -29.7130   23.6790 C   0  0  0  0  0  3  0  0  0  0  0  0
  -16.6560  -28.4550   23.1040 C   0  0  0  0  0  3  0  0  0  0  0  0
  -25.9230  -32.4820   23.6780 C   0  0  0  0  0  3  0  0  0  0  0  0
  -25.6630  -33.8630   24.1070 N   0  0  0  0  0  0  0  0  0  0  0  0
  -25.9610  -34.9520   23.3860 C   0  0  0  0  0  0  0  0  0  0  0  0
  -26.5570  -34.8980   22.3060 O   0  0  0  0  0  0  0  0  0  0  0  0
  -25.1260  -33.9800   24.9540 H   0  0  0  0  0  0  0  0  0  0  0  0
  -24.2480  -36.7880   23.2520 C   0  0  0  0  0  1  0  0  0  0  0  0
  -25.5310  -36.3180   23.9540 C   0  0  0  0  0  3  0  0  0  0  0  0
  -27.7320  -37.1210   24.6890 C   0  0  0  0  0  1  0  0  0  0  0  0
  -26.5720  -37.3610   23.8330 N   0  0  0  0  0  0  0  0  0  0  0  0
  -26.1920  -38.2750   24.0610 H   0  0  0  0  0  0  0  0  0  0  0  0
  -26.5320  -31.6360   24.8620 C   0  0  1  0  0  0  0  0  0  0  0  0
  -25.5230  -31.3330   25.9950 C   0  0  0  0  0  1  0  0  0  0  0  0
  -27.0770  -30.2850   24.3420 C   0  0  0  0  0  1  0  0  0  0  0  0
  -27.7340  -32.3880   25.4820 C   0  0  0  0  0  1  0  0  0  0  0  0
  1  6  1  0
  3  4  1  0
  3  1  2  0
  4  5  2  0
  5 20  1  0
  5  2  1  0
  6  2  2  0
  6 54  1  0
  7  3  1  0
  8  9  1  0
  8  4  1  0
 10  7  1  0
 10  8  1  0
 10 11  1  6
 12 20  1  0
 13 18  1  0
 14 15  1  0
 14 13  1  0
 16 15  1  0
 16 25  1  0
 16 17  1  0
 18 12  1  0
 18 17  1  0
 19 12  2  0
 20 21  1  0
 22 23  2  0
 23 42  1  0
 24 23  1  0
 24 27  1  0
 25 22  1  0
 25 26  1  0
 26 24  2  0
 27 28  1  0
 28 29  2  0
 30 33  1  0
 30 29  1  0
 31 30  2  0
 32 31  1  0
 32 27  2  0
 33 34  1  0
 34 35  1  0
 35 36  2  0
 37 36  1  0
 37 41  1  0
 38 37  2  0
 39 34  2  0
 39 38  1  0
 40 39  1  0
 42 43  1  0
 43 46  1  0
 43 45  1  0
 44 42  2  0
 47 48  1  0
 47 22  1  0
 49 47  1  0
 50 10  1  0
 51 53  1  0
 52 51  1  0
 52 53  1  0
 53 50  1  0
 55 56  1  0
 55 54  1  0
 57 58  1  0
 57 56  1  0
 59 61  1  0
 59 58  1  0
 60 71  2  0
 61 66  1  0
 62 70  1  0
 62 72  1  0
 63 69  1  0
 63 65  1  0
 64 70  1  0
 65 64  1  0
 66 65  2  0
 67 68  1  0
 67 61  2  0
 68 63  2  0
 69 62  1  0
 70 60  1  0
 72 74  2  0
 73 72  1  0
 75 73  1  0
 76 85  2  0
 76 81  1  0
 77 73  1  0
 77 81  1  0
 78 77  1  0
 79 80  1  0
 79 78  1  0
 80 76  1  0
 81 82  2  0
 82 83  1  0
 84 83  2  0
 85 84  1  0
 86 60  1  0
 86 87  1  0
 86 96  1  0
 87 90  1  0
 88 92  1  0
 88 87  1  0
 89 88  2  0
 92 91  1  0
 94 92  1  0
 94 95  1  0
 94 93  1  0
 96 99  1  1
 96 97  1  0
 98 96  1  0
M  ISO  4  12 100  20 100  58 101  59 101
M  END
>  <TORSDO>  (87) 
F 23

>  <SCORE>  (87) 
-12.399

>  <name>  (87) 
87

>  <ligand_id>  (87) 
87

>  <original_smiles>  (87) 
[H]c1c([H])c([H])c2c(c1[H])C([H])([H])C([H])([H])C([H])([H])C2([H])N([H])C(=O)C1([H])N(C(=O)C([H])(N([H])C(=O)C([H])(N([H])C([H])([H])[H])C([H])([H])[H])C(C([H])([H])[H])(C([H])([H])[H])C([H])([H])[H])C([H])([H])c2c([H])c(OC([H])([H])C([H])([H])C([H])([H])C([H])([H])Oc3c([H])c(N([H])C(=O)N4C([H])([H])C([H])([H])C([H])([H])C([H])(n5nc(-c6c([H])c([H])c(Oc7c([H])c([H])c(F)c([H])c7F)c([H])c6[H])c(C(=O)N([H])[H])c5N([H])[H])C4([H])[H])c4c(c3[H])C([H])([H])[N+]([H])(C([H])([H])C3([H])C([H])([H])C3([H])[H])C4([H])C([H])([H])[H])c([H])c([H])c2C1([H])[H]

>  <smiles>  (87) 
[H]c1c([H])c([H])c2c(c1[H])C([H])([H])C([H])([H])C([H])([H])C2([H])N([H])C(=O)C1([H])N(C(=O)C([H])(N([H])C(=O)C([H])(N([H])C([H])([H])[H])C([H])([H])[H])C(C([H])([H])[H])(C([H])([H])[H])C([H])([H])[H])C([H])([H])c2c([H])c(OC([H])([H])C([H])([H])C([H])([H])C([H])([H])Oc3c([H])c(N([H])C(=O)N4C([H])([H])C([H])([H])C([H])([H])C([H])(n5nc(-c6c([H])c([H])c(Oc7c([H])c([H])c(F)c([H])c7F)c([H])c6[H])c(C(=O)N([H])[H])c5N([H])[H])C4([H])[H])c4c(c3[H])C([H])([H])[N+]([H])(C([H])([H])C3([H])C([H])([H])C3([H])[H])C4([H])C([H])([H])[H])c([H])c([H])c2C1([H])[H]

$$$$
88:0:0
     RDKit          3D

 99101  0  0  1  0  0  0  0  0999 V2000
  -27.4170  -20.4790   19.0110 C   0  0  0  0  0  0  0  0  0  0  0  0
  -27.6700  -21.8900   18.9700 C   0  0  0  0  0  3  0  0  0  0  0  0
  -26.1260  -20.2010   19.8130 C   0  0  0  0  0  2  0  0  0  0  0  0
  -25.3300  -18.9430   19.4030 C   0  0  0  0  0  2  0  0  0  0  0  0
  -26.7510  -18.6220   17.3550 C   0  0  0  0  0  2  0  0  0  0  0  0
  -27.9100  -19.0630   18.3080 C   0  0  0  0  0  3  0  0  0  0  0  0
  -24.4940  -17.5570   17.5580 C   0  0  0  0  0  1  0  0  0  0  0  0
  -25.3730  -18.6920   17.9450 N   0  0  1  0  0  4  0  0  0  0  0  0
  -24.9380  -19.5040   17.5280 H   0  0  0  0  0  0  0  0  0  0  0  0
  -29.6210  -23.8440   18.9490 C   0  0  0  0  0  2  0  0  0  0  0  0
  -28.4010  -23.1840   18.3620 C   0  0  0  0  0  3  0  0  0  0  0  0
  -28.3610  -24.6690   19.1200 C   0  0  0  0  0  3  0  0  0  0  0  0
  -28.6910  -26.1480   18.7760 O   0  0  0  0  0  0  0  0  0  0  0  0
  -25.0310  -30.9770   22.9850 C   0  0  0  0  0  0  0  0  0  0  0  0
  -27.6530  -27.1020   18.9900 C   0  0  0  0  0  0  0  0  0  0  0  0
  -23.8210  -29.7750   21.2110 C   0  0  0  0  0  3  0  0  0  0  0  0
  -25.2510  -28.6260   19.4310 C   0  0  0  0  0  0  0  0  0  0  0  0
  -26.3270  -30.2980   20.9300 C   0  0  0  0  0  2  0  0  0  0  0  0
  -26.4440  -29.0570   20.0300 C   0  0  0  0  0  0  0  0  0  0  0  0
  -27.6600  -28.3090   19.7960 C   0  0  0  0  0  3  0  0  0  0  0  0
  -26.4390  -26.7880   18.3660 C   0  0  0  0  0  3  0  0  0  0  0  0
  -25.2570  -27.5110   18.5850 C   0  0  0  0  0  3  0  0  0  0  0  0
  -23.9710  -29.3830   19.7220 C   0  0  0  0  0  2  0  0  0  0  0  0
  -25.0820  -30.3640   21.7630 N   0  0  0  0  0  0  0  0  0  0  0  0
  -23.9730  -31.0640   23.6270 O   0  0  0  0  0  0  0  0  0  0  0  0
  -23.3140  -28.5500   22.0140 C   0  0  0  0  0  0  0  0  0  0  0  0
  -22.0350  -28.1830   21.8220 N   0  0  0  0  0  0  0  0  0  0  0  0
  -24.0670  -27.9410   22.7790 O   0  0  0  0  0  0  0  0  0  0  0  0
  -21.4780  -28.7370   21.1870 H   0  0  0  0  0  0  0  0  0  0  0  0
  -18.9680  -26.2580   21.8590 C   0  0  0  0  0  0  0  0  0  0  0  0
  -21.3650  -27.0380   22.4420 C   0  0  0  0  0  3  0  0  0  0  0  0
  -21.8400  -25.7090   21.8130 C   0  0  0  0  0  2  0  0  0  0  0  0
  -20.9480  -25.2330   20.6610 C   0  0  0  0  0  2  0  0  0  0  0  0
  -19.5100  -25.0310   21.1450 C   0  0  0  0  0  2  0  0  0  0  0  0
  -19.8400  -27.2080   22.4540 C   0  0  0  0  0  0  0  0  0  0  0  0
  -19.2890  -28.3470   23.0790 C   0  0  0  0  0  3  0  0  0  0  0  0
  -17.8960  -28.5470   23.1160 C   0  0  0  0  0  3  0  0  0  0  0  0
  -17.0360  -27.5950   22.5400 C   0  0  0  0  0  3  0  0  0  0  0  0
  -17.5710  -26.4520   21.9190 C   0  0  0  0  0  3  0  0  0  0  0  0
  -26.2990  -31.6150   23.6270 C   0  0  0  0  0  3  0  0  0  0  0  0
  -26.9530  -30.7000   24.7350 C   0  0  1  0  0  0  0  0  0  0  0  0
  -25.9520  -30.2090   25.8070 C   0  0  0  0  0  1  0  0  0  0  0  0
  -27.6090  -29.4510   24.1010 C   0  0  0  0  0  1  0  0  0  0  0  0
  -28.0820  -31.4740   25.4530 C   0  0  0  0  0  1  0  0  0  0  0  0
  -25.9020  -32.9110   24.2000 N   0  0  0  0  0  0  0  0  0  0  0  0
  -26.2170  -34.1050   23.6840 C   0  0  0  0  0  0  0  0  0  0  0  0
  -26.9440  -34.2340   22.6960 O   0  0  0  0  0  0  0  0  0  0  0  0
  -25.2570  -32.8730   24.9740 H   0  0  0  0  0  0  0  0  0  0  0  0
  -24.4410  -35.8870   23.5650 C   0  0  0  0  0  1  0  0  0  0  0  0
  -25.6380  -35.3580   24.3730 C   0  0  0  0  0  3  0  0  0  0  0  0
  -27.6690  -36.1160   25.5270 C   0  0  0  0  0  1  0  0  0  0  0  0
  -26.6280  -36.4400   24.5550 N   0  0  0  0  0  0  0  0  0  0  0  0
  -26.1760  -37.3010   24.8520 H   0  0  0  0  0  0  0  0  0  0  0  0
  -28.5370  -17.7220   19.1550 C   0  0  0  0  0  3  0  0  0  0  0  0
  -31.0910  -12.7960   20.1640 C   0  0  0  0  0  0  0  0  0  0  0  0
  -31.4870  -11.2750   19.8800 C   0  0  0  0  0  1  0  0  0  0  0  0
  -30.9380  -11.6440   18.1170 C   0  0  0  0  0  1  0  0  0  0  0  0
  -30.3220  -13.3310   17.8380 C   0  0  0  0  0  2  0  0  0  0  0  0
  -29.5390  -14.3060   19.3370 C   0  0  0  0  0  1  0  0  0  0  0  0
  -30.8650  -14.1840   20.7490 C   0  0  0  0  0  1  0  0  0  0  0  0
  -31.4410  -12.5670   21.0650 N   0  0  0  0  0  1  0  0  0  0  0  0
  -32.2620  -13.2780   19.4110 O   0  0  0  0  0  1  0  0  0  0  0  0
  -28.5090  -15.4580   21.1440 C   0  0  0  0  0 15  0  0  0  0  0  0
  -27.7870  -14.3790   17.8470 C   0  0  0  0  0 15  0  0  0  0  0  0
  -28.8660  -13.4540   21.6850 C   0  0  0  0  0  1  0  0  0  0  0  0
  -28.3450  -12.3570   18.6070 C   0  0  0  0  0 15  0  0  0  0  0  0
  -28.0050  -16.0530   19.1810 C   0  0  0  0  0  1  0  0  0  0  0  0
  -29.4330  -12.3170   20.2850 N   0  0  0  0  0  1  0  0  0  0  0  0
  -26.1160  -14.4970   20.4670 C   0  0  0  0  0  3  0  0  0  0  0  0
  -25.0040  -13.7500   20.6150 C   0  0  0  0  0  3  0  0  0  0  0  0
  -25.3620  -12.4090   20.5330 C   0  0  0  0  0  0  0  0  0  0  0  0
  -27.2830  -13.7980   20.0270 N   0  0  0  0  0  2  0  0  0  0  0  0
  -26.6560  -12.4450   20.2650 N   0  0  0  0  0  0  0  0  0  0  0  0
  -24.5090  -11.1940   20.6970 C   0  0  0  0  0  0  0  0  0  0  0  0
  -24.8190  -10.0940   21.5340 C   0  0  0  0  0  3  0  0  0  0  0  0
  -23.8670   -9.0650   21.7620 C   0  0  0  0  0  3  0  0  0  0  0  0
  -22.5920   -9.1090   21.1530 C   0  0  0  0  0  0  0  0  0  0  0  0
  -22.2950  -10.1810   20.3000 C   0  0  0  0  0  3  0  0  0  0  0  0
  -23.2420  -11.2000   20.0630 C   0  0  0  0  0  3  0  0  0  0  0  0
  -21.6250   -8.1340   21.2730 O   0  0  0  0  0  0  0  0  0  0  0  0
  -21.5970   -7.2610   22.3310 C   0  0  0  0  0  0  0  0  0  0  0  0
  -21.5180   -7.7270   23.6600 C   0  0  0  0  0  3  0  0  0  0  0  0
  -21.4220   -6.8160   24.7270 C   0  0  0  0  0  3  0  0  0  0  0  0
  -21.3880   -5.4310   24.4700 C   0  0  0  0  0  0  0  0  0  0  0  0
  -21.4640   -4.9640   23.1440 C   0  0  0  0  0  3  0  0  0  0  0  0
  -21.5580   -5.8740   22.0780 C   0  0  0  0  0  0  0  0  0  0  0  0
  -21.6070   -5.4140   20.8020 F   0  0  0  0  0  0  0  0  0  0  0  0
  -21.2980   -4.5500   25.4970 F   0  0  0  0  0  0  0  0  0  0  0  0
  -23.6790  -14.3610   20.8860 C   0  0  0  0  0  0  0  0  0  0  0  0
  -22.9880  -13.8580   21.8910 N   0  0  0  0  0  0  0  0  0  0  0  0
  -23.3280  -15.3760   20.2900 O   0  0  0  0  0  0  0  0  0  0  0  0
  -23.3590  -13.0770   22.4190 H   0  0  0  0  0  0  0  0  0  0  0  0
  -22.1300  -14.3120   22.1760 H   0  0  0  0  0  0  0  0  0  0  0  0
  -25.9970  -15.7960   20.9000 N   0  0  0  0  0  0  0  0  0  0  0  0
  -26.7860  -16.4300   20.8950 H   0  0  0  0  0  0  0  0  0  0  0  0
  -25.1600  -16.1780   21.3370 H   0  0  0  0  0  0  0  0  0  0  0  0
  -30.1590  -18.0320   21.3910 C   0  0  0  0  0  2  0  0  0  0  0  0
  -29.6690  -19.3930   21.0350 C   0  0  0  0  0  2  0  0  0  0  0  0
  -28.8200  -18.1720   20.6460 C   0  0  0  0  0  3  0  0  0  0  0  0
  1  3  1  0
  2  1  2  0
  4  3  1  0
  5  8  1  0
  5  6  1  0
  6  1  1  0
  6 54  1  0
  7  8  1  0
  8  4  1  0
  8  9  1  6
 10 12  1  0
 11 10  1  0
 11  2  1  0
 11 12  1  0
 12 13  1  0
 13 15  1  0
 14 25  2  0
 15 20  1  0
 16 24  1  0
 16 26  1  0
 17 23  1  0
 17 19  1  0
 18 24  1  0
 19 18  1  0
 20 19  2  0
 21 22  1  0
 21 15  2  0
 22 17  2  0
 23 16  1  0
 24 14  1  0
 26 28  2  0
 27 26  1  0
 29 27  1  0
 30 39  2  0
 30 35  1  0
 31 27  1  0
 31 35  1  0
 32 31  1  0
 33 34  1  0
 33 32  1  0
 34 30  1  0
 35 36  2  0
 36 37  1  0
 38 37  2  0
 39 38  1  0
 40 14  1  0
 40 45  1  0
 40 41  1  0
 41 44  1  1
 41 42  1  0
 43 41  1  0
 45 48  1  0
 46 45  1  0
 46 50  1  0
 47 46  2  0
 50 49  1  0
 50 52  1  0
 52 53  1  0
 52 51  1  0
 54 67  1  0
 54 99  1  0
 55 60  1  0
 55 61  1  0
 56 55  1  0
 58 57  1  0
 58 59  1  0
 62 55  1  0
 68 65  1  0
 69 70  1  0
 69 94  1  0
 70 89  1  0
 71 70  1  0
 71 74  1  0
 72 73  1  0
 72 69  1  0
 73 71  2  0
 74 75  1  0
 75 76  2  0
 77 80  1  0
 77 76  1  0
 78 77  2  0
 79 78  1  0
 79 74  2  0
 80 81  1  0
 81 82  1  0
 82 83  2  0
 84 83  1  0
 84 88  1  0
 85 84  2  0
 86 81  2  0
 86 85  1  0
 87 86  1  0
 89 90  1  0
 90 93  1  0
 90 92  1  0
 91 89  2  0
 94 96  1  0
 95 94  1  0
 98 97  1  0
 99 98  1  0
 99 97  1  0
M  ISO  4  12 101  13 101  55 100  68 100
M  END
>  <TORSDO>  (88) 
F 19

>  <SCORE>  (88) 
1.789

>  <name>  (88) 
88

>  <ligand_id>  (88) 
88

>  <original_smiles>  (88) 
[H]C(=C1C([H])([H])C([H])([H])[N+]([H])(C([H])([H])[H])C([H])([H])C1([H])C([H])(C1([H])C([H])([H])C([H])([H])N(C(=O)N2C([H])([H])C([H])([H])C([H])([H])C([H])(n3nc(-c4c([H])c([H])c(Oc5c([H])c([H])c(F)c([H])c5F)c([H])c4[H])c(C(=O)N([H])[H])c3N([H])[H])C2([H])[H])C([H])([H])C1([H])[H])C1([H])C([H])([H])C1([H])[H])C1([H])C([H])([H])C1([H])Oc1c([H])c([H])c2c(c1[H])C([H])([H])N(C(=O)C([H])(N([H])C(=O)C([H])(N([H])C([H])([H])[H])C([H])([H])[H])C(C([H])([H])[H])(C([H])([H])[H])C([H])([H])[H])C([H])(C(=O)N([H])C1([H])c3c([H])c([H])c([H])c([H])c3C([H])([H])C([H])([H])C1([H])[H])C2([H])[H]

>  <smiles>  (88) 
[H]C(=C1C([H])([H])C([H])([H])[N+]([H])(C([H])([H])[H])C([H])([H])C1([H])C([H])(C1([H])C([H])([H])C([H])([H])N(C(=O)N2C([H])([H])C([H])([H])C([H])([H])C([H])(n3nc(-c4c([H])c([H])c(Oc5c([H])c([H])c(F)c([H])c5F)c([H])c4[H])c(C(=O)N([H])[H])c3N([H])[H])C2([H])[H])C([H])([H])C1([H])[H])C1([H])C([H])([H])C1([H])[H])C1([H])C([H])([H])C1([H])Oc1c([H])c([H])c2c(c1[H])C([H])([H])N(C(=O)C([H])(N([H])C(=O)C([H])(N([H])C([H])([H])[H])C([H])([H])[H])C(C([H])([H])[H])(C([H])([H])[H])C([H])([H])[H])C([H])(C(=O)N([H])C1([H])c3c([H])c([H])c([H])c([H])c3C([H])([H])C([H])([H])C1([H])[H])C2([H])[H]

$$$$
89:0:0
     RDKit          3D

 97105  0  0  1  0  0  0  0  0999 V2000
  -29.9880  -21.9070   20.0720 C   0  0  0  0  0  2  0  0  0  0  0  0
  -30.5460  -18.1310   19.9090 C   0  0  0  0  0  2  0  0  0  0  0  0
  -31.6410  -20.1020   19.1120 C   0  0  0  0  0  2  0  0  0  0  0  0
  -29.8570  -19.3560   20.5210 C   0  0  0  0  0  3  0  0  0  0  0  0
  -30.1940  -20.4660   19.5210 C   0  0  0  0  0  3  0  0  0  0  0  0
  -28.3530  -19.1390   20.7590 C   0  0  0  0  0  1  0  0  0  0  0  0
  -31.7790  -18.6230   19.2490 N   0  0  1  0  0  4  0  0  0  0  0  0
  -31.7850  -18.2200   18.3250 H   0  0  0  0  0  0  0  0  0  0  0  0
  -33.0240  -18.1700   19.9280 C   0  0  0  0  0  2  0  0  0  0  0  0
  -35.1810  -16.8820   19.6290 C   0  0  0  0  0  1  0  0  0  0  0  0
  -33.6780  -16.9180   19.2930 C   0  0  0  0  0  3  0  0  0  0  0  0
  -33.5630  -14.4420   19.6550 C   0  0  0  0  0  0  0  0  0  0  0  0
  -33.3190  -12.0580   20.2440 C   0  0  0  0  0  2  0  0  0  0  0  0
  -32.5340  -11.2900   19.1650 C   0  0  0  0  0  2  0  0  0  0  0  0
  -31.0200  -11.3850   19.4250 C   0  0  0  0  0  2  0  0  0  0  0  0
  -30.5510  -12.8430   19.6700 C   0  0  0  0  0  3  0  0  0  0  0  0
  -31.4510  -13.5450   20.7100 C   0  0  0  0  0  2  0  0  0  0  0  0
  -32.8520  -13.4520   20.2550 N   0  0  0  0  0  0  0  0  0  0  0  0
  -34.6470  -14.2510   19.0980 O   0  0  0  0  0  0  0  0  0  0  0  0
  -33.0320  -15.6730   19.7420 N   0  0  0  0  0  0  0  0  0  0  0  0
  -32.1720  -15.7410   20.2670 H   0  0  0  0  0  0  0  0  0  0  0  0
  -28.2910  -13.9830   20.1470 C   0  0  0  0  0  0  0  0  0  0  0  0
  -27.0650  -13.4760   20.4880 C   0  0  0  0  0  0  0  0  0  0  0  0
  -27.2360  -12.0610   20.5810 C   0  0  0  0  0  0  0  0  0  0  0  0
  -29.1420  -12.8910   20.0560 N   0  0  0  0  0  0  0  0  0  0  0  0
  -28.5050  -11.7360   20.3740 N   0  0  0  0  0  0  0  0  0  0  0  0
  -26.2530  -10.9930   20.8030 C   0  0  0  0  0  0  0  0  0  0  0  0
  -26.2790  -10.1950   21.9680 C   0  0  0  0  0  3  0  0  0  0  0  0
  -25.3130   -9.1840   22.1660 C   0  0  0  0  0  3  0  0  0  0  0  0
  -24.3060   -8.9660   21.1970 C   0  0  0  0  0  0  0  0  0  0  0  0
  -24.2980   -9.7480   20.0280 C   0  0  0  0  0  3  0  0  0  0  0  0
  -25.2620  -10.7490   19.8300 C   0  0  0  0  0  3  0  0  0  0  0  0
  -23.3430   -7.9900   21.2920 O   0  0  0  0  0  0  0  0  0  0  0  0
  -22.7830   -7.6480   22.4970 C   0  0  0  0  0  0  0  0  0  0  0  0
  -22.0770   -8.5840   23.2840 C   0  0  0  0  0  3  0  0  0  0  0  0
  -21.4570   -8.1720   24.4810 C   0  0  0  0  0  3  0  0  0  0  0  0
  -21.5340   -6.8260   24.8880 C   0  0  0  0  0  0  0  0  0  0  0  0
  -22.2310   -5.8910   24.1010 C   0  0  0  0  0  3  0  0  0  0  0  0
  -22.8500   -6.3010   22.9080 C   0  0  0  0  0  0  0  0  0  0  0  0
  -23.5030   -5.3930   22.1430 F   0  0  0  0  0  0  0  0  0  0  0  0
  -20.9320   -6.4280   26.0330 F   0  0  0  0  0  0  0  0  0  0  0  0
  -25.7830  -14.2480   20.6200 C   0  0  0  0  0  0  0  0  0  0  0  0
  -24.8950  -13.8140   21.5060 N   0  0  0  0  0  0  0  0  0  0  0  0
  -25.5840  -15.2730   19.9690 O   0  0  0  0  0  0  0  0  0  0  0  0
  -25.0670  -12.9850   22.0570 H   0  0  0  0  0  0  0  0  0  0  0  0
  -24.0280  -14.3170   21.6360 H   0  0  0  0  0  0  0  0  0  0  0  0
  -28.7480  -15.2720   19.8860 N   0  0  0  0  0  0  0  0  0  0  0  0
  -28.1110  -16.0610   19.8490 H   0  0  0  0  0  0  0  0  0  0  0  0
  -29.6580  -15.4760   19.4960 H   0  0  0  0  0  0  0  0  0  0  0  0
  -29.8960  -22.9830   18.9670 C   0  0  0  0  0  2  0  0  0  0  0  0
  -29.9850  -24.3780   19.4800 N   0  0  0  0  0  4  0  0  0  0  0  0
  -30.9000  -24.5260   19.8820 H   0  0  0  0  0  0  0  0  0  0  0  0
  -29.3170  -24.4840   20.2290 H   0  0  0  0  0  0  0  0  0  0  0  0
  -30.3740  -25.1550   17.1150 C   0  0  0  0  0  1  0  0  0  0  0  0
  -29.6850  -25.4350   18.4690 C   0  0  0  0  0  3  0  0  0  0  0  0
  -30.0680  -26.8580   18.9640 C   0  0  0  0  0  2  0  0  0  0  0  0
  -29.4780  -27.2580   20.2060 O   0  0  0  0  0  0  0  0  0  0  0  0
  -24.8970  -31.6320   23.4550 C   0  0  0  0  0  0  0  0  0  0  0  0
  -28.2070  -27.7960   20.1920 C   0  0  0  0  0  0  0  0  0  0  0  0
  -23.9330  -30.1690   21.7100 C   0  0  0  0  0  3  0  0  0  0  0  0
  -25.6160  -28.9390   20.2420 C   0  0  0  0  0  0  0  0  0  0  0  0
  -26.3860  -30.8880   21.6020 C   0  0  0  0  0  2  0  0  0  0  0  0
  -26.6760  -29.5790   20.8940 C   0  0  0  0  0  0  0  0  0  0  0  0
  -27.9670  -29.0050   20.8840 C   0  0  0  0  0  3  0  0  0  0  0  0
  -27.1240  -27.1690   19.5340 C   0  0  0  0  0  3  0  0  0  0  0  0
  -25.8340  -27.7270   19.5660 C   0  0  0  0  0  3  0  0  0  0  0  0
  -24.2630  -29.6090   20.3000 C   0  0  0  0  0  2  0  0  0  0  0  0
  -25.0870  -30.9100   22.3140 N   0  0  0  0  0  0  0  0  0  0  0  0
  -23.7770  -31.7180   23.9790 O   0  0  0  0  0  0  0  0  0  0  0  0
  -23.4200  -29.0100   22.5950 C   0  0  0  0  0  0  0  0  0  0  0  0
  -22.1890  -28.5480   22.3220 N   0  0  0  0  0  0  0  0  0  0  0  0
  -24.1290  -28.5310   23.4830 O   0  0  0  0  0  0  0  0  0  0  0  0
  -21.6670  -29.0000   21.5830 H   0  0  0  0  0  0  0  0  0  0  0  0
  -19.1630  -26.5760   22.3720 C   0  0  0  0  0  0  0  0  0  0  0  0
  -21.5150  -27.4420   23.0010 C   0  0  0  0  0  3  0  0  0  0  0  0
  -22.0410  -26.0780   22.4980 C   0  0  0  0  0  2  0  0  0  0  0  0
  -21.2110  -25.4990   21.3480 C   0  0  0  0  0  2  0  0  0  0  0  0
  -19.7540  -25.3070   21.7810 C   0  0  0  0  0  2  0  0  0  0  0  0
  -19.9910  -27.5850   22.9310 C   0  0  0  0  0  0  0  0  0  0  0  0
  -19.3930  -28.7610   23.4340 C   0  0  0  0  0  3  0  0  0  0  0  0
  -17.9960  -28.9350   23.3890 C   0  0  0  0  0  3  0  0  0  0  0  0
  -17.1800  -27.9250   22.8500 C   0  0  0  0  0  3  0  0  0  0  0  0
  -17.7630  -26.7480   22.3470 C   0  0  0  0  0  3  0  0  0  0  0  0
  -26.0680  -32.4030   24.1380 C   0  0  0  0  0  3  0  0  0  0  0  0
  -25.6170  -33.7820   24.3610 N   0  0  0  0  0  0  0  0  0  0  0  0
  -25.9480  -34.8250   23.5870 C   0  0  0  0  0  0  0  0  0  0  0  0
  -26.7330  -34.7320   22.6390 O   0  0  0  0  0  0  0  0  0  0  0  0
  -24.9290  -33.9220   25.0860 H   0  0  0  0  0  0  0  0  0  0  0  0
  -24.1490  -36.4590   22.9420 C   0  0  0  0  0  1  0  0  0  0  0  0
  -25.3050  -36.1850   23.9170 C   0  0  0  0  0  3  0  0  0  0  0  0
  -27.2550  -37.2590   24.9550 C   0  0  0  0  0  1  0  0  0  0  0  0
  -26.2620  -37.3120   23.8840 N   0  0  0  0  0  0  0  0  0  0  0  0
  -25.7740  -38.2010   23.9480 H   0  0  0  0  0  0  0  0  0  0  0  0
  -26.5420  -31.7430   25.4920 C   0  0  1  0  0  0  0  0  0  0  0  0
  -25.3820  -31.3950   26.4530 C   0  0  0  0  0  1  0  0  0  0  0  0
  -27.3340  -30.4430   25.2180 C   0  0  0  0  0  1  0  0  0  0  0  0
  -27.5060  -32.7000   26.2320 C   0  0  0  0  0  1  0  0  0  0  0  0
  2  4  1  0
  3  7  1  0
  3  5  1  0
  4  6  1  0
  5  1  1  0
  5  4  1  0
  7  2  1  0
  7  9  1  0
  7  8  1  6
 11 10  1  0
 11 20  1  0
 11  9  1  0
 12 20  1  0
 12 18  1  0
 13 18  1  0
 14 15  1  0
 14 13  1  0
 16 15  1  0
 16 25  1  0
 16 17  1  0
 18 17  1  0
 19 12  2  0
 20 21  1  0
 22 23  2  0
 23 24  1  0
 23 42  1  0
 24 27  1  0
 25 22  1  0
 25 26  1  0
 26 24  2  0
 27 28  1  0
 28 29  2  0
 30 33  1  0
 30 29  1  0
 31 30  2  0
 32 31  1  0
 32 27  2  0
 33 34  1  0
 34 39  2  0
 34 35  1  0
 35 36  2  0
 36 37  1  0
 37 41  1  0
 38 37  2  0
 39 38  1  0
 40 39  1  0
 42 43  1  0
 43 46  1  0
 43 45  1  0
 44 42  2  0
 47 22  1  0
 48 47  1  0
 49 47  1  0
 50 51  1  0
 50  1  1  0
 51 52  1  0
 51 53  1  0
 55 54  1  0
 55 56  1  0
 55 51  1  0
 56 57  1  0
 58 69  2  0
 59 57  1  0
 59 64  1  0
 60 68  1  0
 60 70  1  0
 61 67  1  0
 61 63  1  0
 62 68  1  0
 63 62  1  0
 64 63  2  0
 65 66  1  0
 65 59  2  0
 66 61  2  0
 67 60  1  0
 68 58  1  0
 70 72  2  0
 71 70  1  0
 73 71  1  0
 74 79  1  0
 75 71  1  0
 76 75  1  0
 77 78  1  0
 77 76  1  0
 78 74  1  0
 79 75  1  0
 79 80  2  0
 81 80  1  0
 82 81  2  0
 83 74  2  0
 83 82  1  0
 84 58  1  0
 84 85  1  0
 84 94  1  0
 85 88  1  0
 86 90  1  0
 86 85  1  0
 87 86  2  0
 90 89  1  0
 92 90  1  0
 92 93  1  0
 92 91  1  0
 94 97  1  1
 94 95  1  0
 96 94  1  0
M  ISO  4  12 100  20 100  56 101  57 101
M  END
>  <TORSDO>  (89) 
F 23

>  <SCORE>  (89) 
-7.997

>  <name>  (89) 
89

>  <ligand_id>  (89) 
89

>  <original_smiles>  (89) 
[H]c1c([H])c([H])c2c(c1[H])C([H])([H])C([H])([H])C([H])([H])C2([H])N([H])C(=O)C1([H])N(C(=O)C([H])(N([H])C(=O)C([H])(N([H])C([H])([H])[H])C([H])([H])[H])C(C([H])([H])[H])(C([H])([H])[H])C([H])([H])[H])C([H])([H])c2c([H])c(OC([H])([H])C([H])(C([H])([H])[H])[N+]([H])([H])C([H])([H])C([H])([H])C3([H])C([H])(C([H])([H])[H])C([H])([H])[N+]([H])(C([H])([H])C([H])(N([H])C(=O)N4C([H])([H])C([H])([H])C([H])([H])C([H])(n5nc(-c6c([H])c([H])c(Oc7c([H])c([H])c(F)c([H])c7F)c([H])c6[H])c(C(=O)N([H])[H])c5N([H])[H])C4([H])[H])C([H])([H])[H])C3([H])[H])c([H])c([H])c2C1([H])[H]

>  <smiles>  (89) 
[H]c1c([H])c([H])c2c(c1[H])C([H])([H])C([H])([H])C([H])([H])C2([H])N([H])C(=O)C1([H])N(C(=O)C([H])(N([H])C(=O)C([H])(N([H])C([H])([H])[H])C([H])([H])[H])C(C([H])([H])[H])(C([H])([H])[H])C([H])([H])[H])C([H])([H])c2c([H])c(OC([H])([H])C([H])(C([H])([H])[H])[N+]([H])([H])C([H])([H])C([H])([H])C3([H])C([H])(C([H])([H])[H])C([H])([H])[N+]([H])(C([H])([H])C([H])(N([H])C(=O)N4C([H])([H])C([H])([H])C([H])([H])C([H])(n5nc(-c6c([H])c([H])c(Oc7c([H])c([H])c(F)c([H])c7F)c([H])c6[H])c(C(=O)N([H])[H])c5N([H])[H])C4([H])[H])C([H])([H])[H])C3([H])[H])c([H])c([H])c2C1([H])[H]

$$$$
90:0:0
     RDKit          3D

 96105  0  0  1  0  0  0  0  0999 V2000
  -28.2680  -23.3930   20.0190 C   0  0  0  0  0  3  0  0  0  0  0  0
  -30.8010  -22.5490   19.2510 C   0  0  0  0  0  3  0  0  0  0  0  0
  -28.7020  -22.0810   20.3770 C   0  0  0  0  0  0  0  0  0  0  0  0
  -30.3660  -23.8530   18.8950 C   0  0  0  0  0  0  0  0  0  0  0  0
  -29.0930  -24.3180   19.3250 C   0  0  0  0  0  0  0  0  0  0  0  0
  -30.0010  -21.6410   19.9900 C   0  0  0  0  0  0  0  0  0  0  0  0
  -27.7640  -21.2130   21.2140 C   0  0  0  0  0  1  0  0  0  0  0  0
  -31.2900  -24.7100   18.0340 C   0  0  0  0  0  1  0  0  0  0  0  0
  -31.2510  -20.3970   21.8250 C   0  0  0  0  0  1  0  0  0  0  0  0
  -30.6500  -20.2870   20.4100 C   0  0  0  0  0  3  0  0  0  0  0  0
  -31.0780  -14.7370   19.9380 C   0  0  0  0  0  0  0  0  0  0  0  0
  -30.6390  -12.5070   18.9590 C   0  0  0  0  0  2  0  0  0  0  0  0
  -29.6570  -12.5830   17.7770 C   0  0  0  0  0  2  0  0  0  0  0  0
  -28.2150  -12.4420   18.2860 C   0  0  0  0  0  2  0  0  0  0  0  0
  -27.9190  -13.3810   19.4860 C   0  0  0  0  0  3  0  0  0  0  0  0
  -29.0250  -13.2940   20.5550 C   0  0  0  0  0  2  0  0  0  0  0  0
  -30.2950  -13.6100   19.8900 N   0  0  0  0  0  0  0  0  0  0  0  0
  -32.2430  -14.6410   19.5520 O   0  0  0  0  0  0  0  0  0  0  0  0
  -29.3960  -16.5420   20.7450 C   0  0  0  0  0  2  0  0  0  0  0  0
  -29.5660  -18.0410   21.1970 C   0  0  0  0  0  2  0  0  0  0  0  0
  -30.3230  -18.3310   18.8610 C   0  0  0  0  0  2  0  0  0  0  0  0
  -31.2280  -17.0970   19.1660 C   0  0  0  0  0  3  0  0  0  0  0  0
  -32.5770  -17.5580   19.7900 C   0  0  0  0  0  1  0  0  0  0  0  0
  -30.5350  -16.0160   19.9480 N   0  0  0  0  0  0  0  0  0  0  0  0
  -29.8520  -19.0290   20.0930 N   0  0  2  0  0  4  0  0  0  0  0  0
  -28.9550  -19.4090   19.8290 H   0  0  0  0  0  0  0  0  0  0  0  0
  -25.6090  -14.0320   20.3740 C   0  0  0  0  0  0  0  0  0  0  0  0
  -24.5410  -13.2780   20.7900 C   0  0  0  0  0  0  0  0  0  0  0  0
  -24.9620  -11.9190   20.6990 C   0  0  0  0  0  0  0  0  0  0  0  0
  -26.6020  -13.1240   20.0470 N   0  0  0  0  0  0  0  0  0  0  0  0
  -26.2260  -11.8470   20.3100 N   0  0  0  0  0  0  0  0  0  0  0  0
  -24.2120  -10.6730   20.8980 C   0  0  0  0  0  0  0  0  0  0  0  0
  -24.6300   -9.7090   21.8390 C   0  0  0  0  0  3  0  0  0  0  0  0
  -23.8880   -8.5240   22.0250 C   0  0  0  0  0  3  0  0  0  0  0  0
  -22.7140   -8.2970   21.2660 C   0  0  0  0  0  0  0  0  0  0  0  0
  -22.3140   -9.2500   20.3120 C   0  0  0  0  0  3  0  0  0  0  0  0
  -23.0590  -10.4280   20.1260 C   0  0  0  0  0  3  0  0  0  0  0  0
  -21.9380   -7.1710   21.3660 O   0  0  0  0  0  0  0  0  0  0  0  0
  -21.8010   -6.4940   22.5500 C   0  0  0  0  0  0  0  0  0  0  0  0
  -21.2890   -7.1140   23.7110 C   0  0  0  0  0  3  0  0  0  0  0  0
  -21.0950   -6.3580   24.8830 C   0  0  0  0  0  3  0  0  0  0  0  0
  -21.4110   -4.9860   24.8970 C   0  0  0  0  0  0  0  0  0  0  0  0
  -21.9230   -4.3680   23.7440 C   0  0  0  0  0  3  0  0  0  0  0  0
  -22.1150   -5.1200   22.5720 C   0  0  0  0  0  0  0  0  0  0  0  0
  -22.5880   -4.5150   21.4550 F   0  0  0  0  0  0  0  0  0  0  0  0
  -21.2200   -4.2580   26.0240 F   0  0  0  0  0  0  0  0  0  0  0  0
  -23.1800  -13.7910   21.1530 C   0  0  0  0  0  0  0  0  0  0  0  0
  -22.4870  -13.1010   22.0530 N   0  0  0  0  0  0  0  0  0  0  0  0
  -22.7440  -14.8350   20.6720 O   0  0  0  0  0  0  0  0  0  0  0  0
  -22.8550  -12.2560   22.4610 H   0  0  0  0  0  0  0  0  0  0  0  0
  -21.5750  -13.4250   22.3380 H   0  0  0  0  0  0  0  0  0  0  0  0
  -25.8070  -15.3980   20.2240 N   0  0  0  0  0  0  0  0  0  0  0  0
  -25.0620  -16.0670   20.3870 H   0  0  0  0  0  0  0  0  0  0  0  0
  -26.6260  -15.8070   19.7920 H   0  0  0  0  0  0  0  0  0  0  0  0
  -28.5680  -25.7380   18.9630 C   0  0  0  0  0  2  0  0  0  0  0  0
  -28.3130  -26.6670   20.0670 O   0  0  0  0  0  0  0  0  0  0  0  0
  -24.6130  -31.9370   23.3060 C   0  0  0  0  0  0  0  0  0  0  0  0
  -27.1630  -27.4620   20.0800 C   0  0  0  0  0  0  0  0  0  0  0  0
  -23.3760  -30.5880   21.6560 C   0  0  0  0  0  3  0  0  0  0  0  0
  -24.7930  -29.0520   20.1730 C   0  0  0  0  0  0  0  0  0  0  0  0
  -25.9190  -30.8840   21.4470 C   0  0  0  0  0  2  0  0  0  0  0  0
  -25.9720  -29.5270   20.7590 C   0  0  0  0  0  0  0  0  0  0  0  0
  -27.1560  -28.7450   20.7050 C   0  0  0  0  0  3  0  0  0  0  0  0
  -25.9450  -27.0010   19.5330 C   0  0  0  0  0  3  0  0  0  0  0  0
  -24.7820  -27.7920   19.5500 C   0  0  0  0  0  3  0  0  0  0  0  0
  -23.5680  -29.9460   20.2550 C   0  0  0  0  0  2  0  0  0  0  0  0
  -24.6560  -31.1540   22.1870 N   0  0  0  0  0  0  0  0  0  0  0  0
  -23.5400  -32.2060   23.8600 O   0  0  0  0  0  0  0  0  0  0  0  0
  -22.7200  -29.5470   22.5950 C   0  0  0  0  0  0  0  0  0  0  0  0
  -21.4030  -29.3340   22.4310 N   0  0  0  0  0  0  0  0  0  0  0  0
  -23.3940  -28.9380   23.4260 O   0  0  0  0  0  0  0  0  0  0  0  0
  -20.9170  -29.8880   21.7360 H   0  0  0  0  0  0  0  0  0  0  0  0
  -18.0630  -27.9690   22.7970 C   0  0  0  0  0  0  0  0  0  0  0  0
  -20.5890  -28.3780   23.1840 C   0  0  0  0  0  3  0  0  0  0  0  0
  -20.7880  -26.9300   22.6750 C   0  0  0  0  0  2  0  0  0  0  0  0
  -19.7630  -26.5150   21.6140 C   0  0  0  0  0  2  0  0  0  0  0  0
  -18.3430  -26.6080   22.1790 C   0  0  0  0  0  2  0  0  0  0  0  0
  -19.1180  -28.8040   23.2570 C   0  0  0  0  0  0  0  0  0  0  0  0
  -18.8000  -30.0690   23.8010 C   0  0  0  0  0  3  0  0  0  0  0  0
  -17.4660  -30.5050   23.8730 C   0  0  0  0  0  3  0  0  0  0  0  0
  -16.4270  -29.6710   23.4250 C   0  0  0  0  0  3  0  0  0  0  0  0
  -16.7270  -28.4010   22.8970 C   0  0  0  0  0  3  0  0  0  0  0  0
  -25.9070  -32.5520   23.9190 C   0  0  0  0  0  3  0  0  0  0  0  0
  -25.6220  -33.9560   24.2490 N   0  0  0  0  0  0  0  0  0  0  0  0
  -25.9490  -34.9990   23.4710 C   0  0  0  0  0  0  0  0  0  0  0  0
  -26.5950  -34.8760   22.4280 O   0  0  0  0  0  0  0  0  0  0  0  0
  -25.0560  -34.1190   25.0690 H   0  0  0  0  0  0  0  0  0  0  0  0
  -24.2380  -36.8060   23.1220 C   0  0  0  0  0  1  0  0  0  0  0  0
  -25.4900  -36.4020   23.9210 C   0  0  0  0  0  3  0  0  0  0  0  0
  -27.6570  -37.2610   24.6970 C   0  0  0  0  0  1  0  0  0  0  0  0
  -26.5400  -37.4350   23.7680 N   0  0  0  0  0  0  0  0  0  0  0  0
  -26.1620  -38.3700   23.8960 H   0  0  0  0  0  0  0  0  0  0  0  0
  -26.4100  -31.7770   25.2010 C   0  0  1  0  0  0  0  0  0  0  0  0
  -25.3090  -31.5510   26.2710 C   0  0  0  0  0  1  0  0  0  0  0  0
  -26.9760  -30.3900   24.8190 C   0  0  0  0  0  1  0  0  0  0  0  0
  -27.5830  -32.5540   25.8440 C   0  0  0  0  0  1  0  0  0  0  0  0
  1  3  1  0
  2  6  1  0
  3  7  1  0
  4  2  2  0
  4  5  1  0
  5  1  2  0
  6  3  2  0
  6 10  1  0
  8  4  1  0
 10  9  1  0
 11 24  1  0
 12 17  1  0
 13 14  1  0
 13 12  1  0
 15 14  1  0
 15 30  1  0
 15 16  1  0
 17 11  1  0
 17 16  1  0
 18 11  2  0
 19 20  1  0
 21 22  1  0
 21 25  1  0
 22 23  1  0
 22 24  1  0
 24 19  1  0
 25 10  1  0
 25 20  1  0
 25 26  1  6
 27 28  2  0
 28 47  1  0
 29 28  1  0
 29 32  1  0
 30 31  1  0
 30 27  1  0
 31 29  2  0
 32 33  1  0
 33 34  2  0
 35 38  1  0
 35 34  1  0
 36 35  2  0
 37 36  1  0
 37 32  2  0
 38 39  1  0
 39 44  2  0
 39 40  1  0
 40 41  2  0
 41 42  1  0
 42 46  1  0
 43 42  2  0
 44 43  1  0
 45 44  1  0
 47 48  1  0
 48 51  1  0
 48 50  1  0
 49 47  2  0
 52 27  1  0
 52 53  1  0
 54 52  1  0
 55  5  1  0
 55 56  1  0
 56 58  1  0
 57 68  2  0
 58 63  1  0
 59 67  1  0
 59 69  1  0
 60 66  1  0
 60 62  1  0
 61 67  1  0
 62 61  1  0
 63 62  2  0
 64 65  1  0
 64 58  2  0
 65 60  2  0
 66 59  1  0
 67 57  1  0
 69 71  2  0
 70 69  1  0
 72 70  1  0
 73 82  2  0
 73 78  1  0
 74 70  1  0
 74 78  1  0
 75 74  1  0
 76 77  1  0
 76 75  1  0
 77 73  1  0
 78 79  2  0
 79 80  1  0
 81 80  2  0
 82 81  1  0
 83 57  1  0
 83 84  1  0
 83 93  1  0
 84 87  1  0
 85 89  1  0
 85 84  1  0
 86 85  2  0
 89 88  1  0
 91 92  1  0
 91 89  1  0
 91 90  1  0
 93 96  1  1
 93 94  1  0
 95 93  1  0
M  ISO  4  11 100  24 100  55 101  56 101
M  END
>  <TORSDO>  (90) 
F 18

>  <SCORE>  (90) 
-14.294

>  <name>  (90) 
90

>  <ligand_id>  (90) 
90

>  <original_smiles>  (90) 
[H]c1c([H])c([H])c2c(c1[H])C([H])([H])C([H])([H])C([H])([H])C2([H])N([H])C(=O)C1([H])N(C(=O)C([H])(N([H])C(=O)C([H])(N([H])C([H])([H])[H])C([H])([H])[H])C(C([H])([H])[H])(C([H])([H])[H])C([H])([H])[H])C([H])([H])c2c([H])c(OC([H])([H])c3c([H])c(C([H])([H])[H])c(C([H])(C([H])([H])[H])[N+]4([H])C([H])([H])C([H])([H])N(C(=O)N5C([H])([H])C([H])([H])C([H])([H])C([H])(n6nc(-c7c([H])c([H])c(Oc8c([H])c([H])c(F)c([H])c8F)c([H])c7[H])c(C(=O)N([H])[H])c6N([H])[H])C5([H])[H])C([H])(C([H])([H])[H])C4([H])[H])c([H])c3C([H])([H])[H])c([H])c([H])c2C1([H])[H]

>  <smiles>  (90) 
[H]c1c([H])c([H])c2c(c1[H])C([H])([H])C([H])([H])C([H])([H])C2([H])N([H])C(=O)C1([H])N(C(=O)C([H])(N([H])C(=O)C([H])(N([H])C([H])([H])[H])C([H])([H])[H])C(C([H])([H])[H])(C([H])([H])[H])C([H])([H])[H])C([H])([H])c2c([H])c(OC([H])([H])c3c([H])c(C([H])([H])[H])c(C([H])(C([H])([H])[H])[N+]4([H])C([H])([H])C([H])([H])N(C(=O)N5C([H])([H])C([H])([H])C([H])([H])C([H])(n6nc(-c7c([H])c([H])c(Oc8c([H])c([H])c(F)c([H])c8F)c([H])c7[H])c(C(=O)N([H])[H])c6N([H])[H])C5([H])[H])C([H])(C([H])([H])[H])C4([H])[H])c([H])c3C([H])([H])[H])c([H])c([H])c2C1([H])[H]

$$$$
91:0:0
     RDKit          3D

 96104  0  0  1  0  0  0  0  0999 V2000
  -30.1860  -20.8570   19.9940 C   0  0  0  0  0  3  0  0  0  0  0  0
  -30.0700  -21.9170   19.0420 C   0  0  0  0  0  0  0  0  0  0  0  0
  -30.9850  -21.6640   18.0360 C   0  0  0  0  0  0  0  0  0  0  0  0
  -31.1360  -19.9970   19.5320 C   0  0  0  0  0  0  0  0  0  0  0  0
  -32.7270  -19.8520   17.5780 C   0  0  0  0  0  1  0  0  0  0  0  0
  -31.6710  -20.4880   18.3600 N   0  0  0  0  0  0  0  0  0  0  0  0
  -31.3080  -23.8870   16.8000 C   0  0  0  0  0  1  0  0  0  0  0  0
  -30.2000  -21.9100   15.6590 C   0  0  0  0  0  1  0  0  0  0  0  0
  -31.2290  -22.3550   16.7120 C   0  0  0  0  0  3  0  0  0  0  0  0
  -31.5260  -18.8080   20.1490 N   0  0  0  0  0  0  0  0  0  0  0  0
  -32.4410  -18.5070   19.8280 H   0  0  0  0  0  0  0  0  0  0  0  0
  -30.5920  -17.6830   20.1370 C   0  0  0  0  0  2  0  0  0  0  0  0
  -30.3380  -17.2140   22.6220 C   0  0  0  0  0  1  0  0  0  0  0  0
  -30.8800  -16.6840   21.2860 C   0  0  0  0  0  3  0  0  0  0  0  0
  -30.9150  -14.3870   20.2830 C   0  0  0  0  0  0  0  0  0  0  0  0
  -30.5130  -12.2840   19.0580 C   0  0  0  0  0  2  0  0  0  0  0  0
  -29.5520  -12.5380   17.8800 C   0  0  0  0  0  2  0  0  0  0  0  0
  -28.0850  -12.4290   18.3400 C   0  0  0  0  0  2  0  0  0  0  0  0
  -27.7960  -13.2500   19.6240 C   0  0  0  0  0  3  0  0  0  0  0  0
  -28.8650  -12.9710   20.7040 C   0  0  0  0  0  2  0  0  0  0  0  0
  -30.1890  -13.2490   20.1190 N   0  0  0  0  0  0  0  0  0  0  0  0
  -32.0050  -14.5760   19.7350 O   0  0  0  0  0  0  0  0  0  0  0  0
  -30.3300  -15.3490   21.0150 N   0  0  0  0  0  0  0  0  0  0  0  0
  -29.4240  -15.1300   21.4020 H   0  0  0  0  0  0  0  0  0  0  0  0
  -25.4160  -13.9030   20.3610 C   0  0  0  0  0  0  0  0  0  0  0  0
  -24.3400  -13.1510   20.7510 C   0  0  0  0  0  0  0  0  0  0  0  0
  -24.7780  -11.7910   20.7240 C   0  0  0  0  0  0  0  0  0  0  0  0
  -26.4440  -13.0030   20.1250 N   0  0  0  0  0  0  0  0  0  0  0  0
  -26.0640  -11.7280   20.3980 N   0  0  0  0  0  0  0  0  0  0  0  0
  -24.0340  -10.5400   20.9330 C   0  0  0  0  0  0  0  0  0  0  0  0
  -24.4630   -9.5780   21.8750 C   0  0  0  0  0  3  0  0  0  0  0  0
  -23.7220   -8.3940   22.0730 C   0  0  0  0  0  3  0  0  0  0  0  0
  -22.5400   -8.1620   21.3290 C   0  0  0  0  0  0  0  0  0  0  0  0
  -22.1310   -9.1130   20.3790 C   0  0  0  0  0  3  0  0  0  0  0  0
  -22.8710  -10.2910   20.1780 C   0  0  0  0  0  3  0  0  0  0  0  0
  -21.7730   -7.0270   21.4340 O   0  0  0  0  0  0  0  0  0  0  0  0
  -21.7130   -6.3030   22.5980 C   0  0  0  0  0  0  0  0  0  0  0  0
  -21.2990   -6.8860   23.8160 C   0  0  0  0  0  3  0  0  0  0  0  0
  -21.1860   -6.0910   24.9740 C   0  0  0  0  0  3  0  0  0  0  0  0
  -21.4740   -4.7150   24.9140 C   0  0  0  0  0  0  0  0  0  0  0  0
  -21.8790   -4.1310   23.7010 C   0  0  0  0  0  3  0  0  0  0  0  0
  -21.9970   -4.9230   22.5470 C   0  0  0  0  0  0  0  0  0  0  0  0
  -22.3680   -4.3520   21.3740 F   0  0  0  0  0  0  0  0  0  0  0  0
  -21.3580   -3.9490   26.0250 F   0  0  0  0  0  0  0  0  0  0  0  0
  -22.9540  -13.6510   21.0400 C   0  0  0  0  0  0  0  0  0  0  0  0
  -22.2310  -12.9750   21.9250 N   0  0  0  0  0  0  0  0  0  0  0  0
  -22.5220  -14.6760   20.5130 O   0  0  0  0  0  0  0  0  0  0  0  0
  -22.5950  -12.1470   22.3750 H   0  0  0  0  0  0  0  0  0  0  0  0
  -21.2990  -13.2890   22.1570 H   0  0  0  0  0  0  0  0  0  0  0  0
  -25.6020  -15.2690   20.1660 N   0  0  0  0  0  0  0  0  0  0  0  0
  -24.8490  -15.9410   20.2680 H   0  0  0  0  0  0  0  0  0  0  0  0
  -26.4560  -15.6860   19.8200 H   0  0  0  0  0  0  0  0  0  0  0  0
  -29.0190  -23.0100   19.1030 C   0  0  0  0  0  2  0  0  0  0  0  0
  -29.4070  -24.3590   19.7680 C   0  0  0  0  0  2  0  0  0  0  0  0
  -28.1880  -25.3000   19.6890 C   0  0  0  0  0  2  0  0  0  0  0  0
  -28.3170  -26.6460   20.1850 O   0  0  0  0  0  0  0  0  0  0  0  0
  -24.5650  -31.9230   23.2380 C   0  0  0  0  0  0  0  0  0  0  0  0
  -27.1500  -27.4010   20.1850 C   0  0  0  0  0  0  0  0  0  0  0  0
  -23.3360  -30.5080   21.6260 C   0  0  0  0  0  3  0  0  0  0  0  0
  -24.7670  -28.9480   20.2120 C   0  0  0  0  0  0  0  0  0  0  0  0
  -25.8690  -30.8360   21.4090 C   0  0  0  0  0  2  0  0  0  0  0  0
  -25.9380  -29.4560   20.7850 C   0  0  0  0  0  0  0  0  0  0  0  0
  -27.1310  -28.6910   20.7710 C   0  0  0  0  0  3  0  0  0  0  0  0
  -25.9430  -26.9190   19.6120 C   0  0  0  0  0  3  0  0  0  0  0  0
  -24.7640  -27.6760   19.6290 C   0  0  0  0  0  3  0  0  0  0  0  0
  -23.5320  -29.8170   20.2530 C   0  0  0  0  0  2  0  0  0  0  0  0
  -24.6090  -31.1040   22.1480 N   0  0  0  0  0  0  0  0  0  0  0  0
  -23.4890  -32.2110   23.7810 O   0  0  0  0  0  0  0  0  0  0  0  0
  -22.6850  -29.5020   22.6020 C   0  0  0  0  0  0  0  0  0  0  0  0
  -21.3600  -29.3170   22.4760 N   0  0  0  0  0  0  0  0  0  0  0  0
  -23.3690  -28.8900   23.4280 O   0  0  0  0  0  0  0  0  0  0  0  0
  -20.8720  -29.8650   21.7830 H   0  0  0  0  0  0  0  0  0  0  0  0
  -17.9860  -28.1280   22.9780 C   0  0  0  0  0  0  0  0  0  0  0  0
  -20.5410  -28.3950   23.2630 C   0  0  0  0  0  3  0  0  0  0  0  0
  -20.6500  -26.9520   22.7190 C   0  0  0  0  0  2  0  0  0  0  0  0
  -19.5550  -26.6040   21.7060 C   0  0  0  0  0  2  0  0  0  0  0  0
  -18.1680  -26.7620   22.3380 C   0  0  0  0  0  2  0  0  0  0  0  0
  -19.1000  -28.9000   23.3990 C   0  0  0  0  0  0  0  0  0  0  0  0
  -18.8760  -30.1770   23.9580 C   0  0  0  0  0  3  0  0  0  0  0  0
  -17.5710  -30.6810   24.1030 C   0  0  0  0  0  3  0  0  0  0  0  0
  -16.4700  -29.9050   23.7020 C   0  0  0  0  0  3  0  0  0  0  0  0
  -16.6780  -28.6310   23.1430 C   0  0  0  0  0  3  0  0  0  0  0  0
  -25.8610  -32.5510   23.8390 C   0  0  0  0  0  3  0  0  0  0  0  0
  -25.5590  -33.9500   24.1690 N   0  0  0  0  0  0  0  0  0  0  0  0
  -25.8970  -35.0000   23.4090 C   0  0  0  0  0  0  0  0  0  0  0  0
  -26.5680  -34.8930   22.3790 O   0  0  0  0  0  0  0  0  0  0  0  0
  -24.9630  -34.1070   24.9690 H   0  0  0  0  0  0  0  0  0  0  0  0
  -24.1880  -36.8070   23.0400 C   0  0  0  0  0  1  0  0  0  0  0  0
  -25.4150  -36.3890   23.8660 C   0  0  0  0  0  3  0  0  0  0  0  0
  -27.5470  -37.2520   24.7270 C   0  0  0  0  0  1  0  0  0  0  0  0
  -26.4580  -37.4340   23.7710 N   0  0  0  0  0  0  0  0  0  0  0  0
  -26.0570  -38.3570   23.9190 H   0  0  0  0  0  0  0  0  0  0  0  0
  -26.3950  -31.7780   25.1080 C   0  0  1  0  0  0  0  0  0  0  0  0
  -25.3160  -31.5410   26.1910 C   0  0  0  0  0  1  0  0  0  0  0  0
  -26.9700  -30.4010   24.7040 C   0  0  0  0  0  1  0  0  0  0  0  0
  -27.5550  -32.5720   25.7550 C   0  0  0  0  0  1  0  0  0  0  0  0
  2 53  1  0
  2  1  1  0
  3  6  1  0
  3  2  2  0
  4  1  2  0
  4 10  1  0
  5  6  1  0
  6  4  1  0
  8  9  1  0
  9  7  1  0
  9  3  1  0
 11 10  1  0
 12 10  1  0
 12 14  1  0
 14 13  1  0
 15 23  1  0
 16 21  1  0
 17 18  1  0
 17 16  1  0
 19 18  1  0
 19 28  1  0
 19 20  1  0
 21 15  1  0
 21 20  1  0
 22 15  2  0
 23 14  1  0
 23 24  1  0
 25 26  2  0
 26 45  1  0
 27 26  1  0
 27 30  1  0
 28 25  1  0
 28 29  1  0
 29 27  2  0
 30 31  1  0
 31 32  2  0
 33 36  1  0
 33 32  1  0
 34 33  2  0
 35 34  1  0
 35 30  2  0
 36 37  1  0
 37 38  1  0
 38 39  2  0
 40 39  1  0
 40 44  1  0
 41 40  2  0
 42 37  2  0
 42 41  1  0
 43 42  1  0
 45 46  1  0
 46 49  1  0
 46 48  1  0
 47 45  2  0
 50 51  1  0
 50 25  1  0
 52 50  1  0
 53 54  1  0
 55 54  1  0
 55 56  1  0
 56 58  1  0
 57 68  2  0
 58 63  1  0
 59 67  1  0
 59 69  1  0
 60 66  1  0
 60 62  1  0
 61 67  1  0
 62 61  1  0
 63 62  2  0
 64 65  1  0
 64 58  2  0
 65 60  2  0
 66 59  1  0
 67 57  1  0
 69 71  2  0
 70 69  1  0
 72 70  1  0
 73 82  2  0
 73 78  1  0
 74 70  1  0
 74 78  1  0
 75 74  1  0
 76 77  1  0
 76 75  1  0
 77 73  1  0
 78 79  2  0
 79 80  1  0
 81 80  2  0
 82 81  1  0
 83 57  1  0
 83 84  1  0
 83 93  1  0
 84 87  1  0
 85 89  1  0
 85 84  1  0
 86 85  2  0
 89 88  1  0
 91 89  1  0
 91 92  1  0
 91 90  1  0
 93 96  1  1
 93 94  1  0
 95 93  1  0
M  ISO  4  15 100  23 100  55 101  56 101
M  END
>  <TORSDO>  (91) 
F 23

>  <SCORE>  (91) 
-12.655

>  <name>  (91) 
91

>  <ligand_id>  (91) 
91

>  <original_smiles>  (91) 
[H]c1c([H])c([H])c2c(c1[H])C([H])([H])C([H])([H])C([H])([H])C2([H])N([H])C(=O)C1([H])N(C(=O)C([H])(N([H])C(=O)C([H])(N([H])C([H])([H])[H])C([H])([H])[H])C(C([H])([H])[H])(C([H])([H])[H])C([H])([H])[H])C([H])([H])c2c([H])c(OC([H])([H])C([H])([H])C([H])([H])c3c([H])c(N([H])C([H])([H])C([H])(N([H])C(=O)N4C([H])([H])C([H])([H])C([H])([H])C([H])(n5nc(-c6c([H])c([H])c(Oc7c([H])c([H])c(F)c([H])c7F)c([H])c6[H])c(C(=O)N([H])[H])c5N([H])[H])C4([H])[H])C([H])([H])[H])n(C([H])([H])[H])c3C([H])(C([H])([H])[H])C([H])([H])[H])c([H])c([H])c2C1([H])[H]

>  <smiles>  (91) 
[H]c1c([H])c([H])c2c(c1[H])C([H])([H])C([H])([H])C([H])([H])C2([H])N([H])C(=O)C1([H])N(C(=O)C([H])(N([H])C(=O)C([H])(N([H])C([H])([H])[H])C([H])([H])[H])C(C([H])([H])[H])(C([H])([H])[H])C([H])([H])[H])C([H])([H])c2c([H])c(OC([H])([H])C([H])([H])C([H])([H])c3c([H])c(N([H])C([H])([H])C([H])(N([H])C(=O)N4C([H])([H])C([H])([H])C([H])([H])C([H])(n5nc(-c6c([H])c([H])c(Oc7c([H])c([H])c(F)c([H])c7F)c([H])c6[H])c(C(=O)N([H])[H])c5N([H])[H])C4([H])[H])C([H])([H])[H])n(C([H])([H])[H])c3C([H])(C([H])([H])[H])C([H])([H])[H])c([H])c([H])c2C1([H])[H]

$$$$
92:0:0
     RDKit          3D

 94102  0  0  1  0  0  0  0  0999 V2000
  -31.0320  -22.0180   21.8210 C   0  0  0  0  0  1  0  0  0  0  0  0
  -30.6630  -21.4210   20.4540 C   0  0  0  0  0  3  0  0  0  0  0  0
  -31.0970  -14.6310   20.0860 C   0  0  0  0  0  0  0  0  0  0  0  0
  -30.7360  -12.4650   18.9490 C   0  0  0  0  0  2  0  0  0  0  0  0
  -29.7400  -12.6800   17.7890 C   0  0  0  0  0  2  0  0  0  0  0  0
  -28.2840  -12.5670   18.2840 C   0  0  0  0  0  2  0  0  0  0  0  0
  -28.0190  -13.4100   19.5610 C   0  0  0  0  0  3  0  0  0  0  0  0
  -29.1170  -13.1560   20.6190 C   0  0  0  0  0  2  0  0  0  0  0  0
  -30.4220  -13.4490   19.9990 N   0  0  0  0  0  0  0  0  0  0  0  0
  -32.1980  -14.7950   19.5470 O   0  0  0  0  0  0  0  0  0  0  0  0
  -29.5360  -17.7750   21.2970 C   0  0  0  0  0  3  0  0  0  0  0  0
  -29.5290  -19.1890   21.2630 C   0  0  0  0  0  0  0  0  0  0  0  0
  -30.5420  -19.8690   20.5300 C   0  0  0  0  0  0  0  0  0  0  0  0
  -31.5060  -19.0410   19.8870 C   0  0  0  0  0  0  0  0  0  0  0  0
  -30.5290  -17.0340   20.6270 C   0  0  0  0  0  0  0  0  0  0  0  0
  -28.4280  -19.9030   22.0280 C   0  0  0  0  0  1  0  0  0  0  0  0
  -32.6720  -19.6040   19.0930 C   0  0  0  0  0  1  0  0  0  0  0  0
  -31.4880  -17.6880   19.9370 N   0  0  0  0  0  0  0  0  0  0  0  0
  -30.4220  -15.6120   20.7230 N   0  0  0  0  0  0  0  0  0  0  0  0
  -29.5970  -15.2840   21.1990 H   0  0  0  0  0  0  0  0  0  0  0  0
  -25.6950  -14.0730   20.4480 C   0  0  0  0  0  0  0  0  0  0  0  0
  -24.6130  -13.3240   20.8270 C   0  0  0  0  0  0  0  0  0  0  0  0
  -25.0060  -11.9580   20.6770 C   0  0  0  0  0  0  0  0  0  0  0  0
  -26.6820  -13.1640   20.0970 N   0  0  0  0  0  0  0  0  0  0  0  0
  -26.2740  -11.8840   20.2900 N   0  0  0  0  0  0  0  0  0  0  0  0
  -24.2320  -10.7190   20.8250 C   0  0  0  0  0  0  0  0  0  0  0  0
  -24.6230   -9.7090   21.7310 C   0  0  0  0  0  3  0  0  0  0  0  0
  -23.8530   -8.5330   21.8680 C   0  0  0  0  0  3  0  0  0  0  0  0
  -22.6790   -8.3610   21.0970 C   0  0  0  0  0  0  0  0  0  0  0  0
  -22.3070   -9.3590   20.1800 C   0  0  0  0  0  3  0  0  0  0  0  0
  -23.0780  -10.5260   20.0410 C   0  0  0  0  0  3  0  0  0  0  0  0
  -21.8840   -7.2420   21.1450 O   0  0  0  0  0  0  0  0  0  0  0  0
  -21.7110   -6.5300   22.3050 C   0  0  0  0  0  0  0  0  0  0  0  0
  -21.1860   -7.1230   23.4730 C   0  0  0  0  0  3  0  0  0  0  0  0
  -20.9610   -6.3380   24.6220 C   0  0  0  0  0  3  0  0  0  0  0  0
  -21.2510   -4.9620   24.6030 C   0  0  0  0  0  0  0  0  0  0  0  0
  -21.7690   -4.3670   23.4380 C   0  0  0  0  0  3  0  0  0  0  0  0
  -21.9960   -5.1490   22.2920 C   0  0  0  0  0  0  0  0  0  0  0  0
  -22.4750   -4.5670   21.1660 F   0  0  0  0  0  0  0  0  0  0  0  0
  -21.0280   -4.2050   25.7030 F   0  0  0  0  0  0  0  0  0  0  0  0
  -23.2580  -13.8410   21.2160 C   0  0  0  0  0  0  0  0  0  0  0  0
  -22.5640  -13.1360   22.1030 N   0  0  0  0  0  0  0  0  0  0  0  0
  -22.8260  -14.9030   20.7690 O   0  0  0  0  0  0  0  0  0  0  0  0
  -22.9270  -12.2750   22.4860 H   0  0  0  0  0  0  0  0  0  0  0  0
  -21.6570  -13.4630   22.4040 H   0  0  0  0  0  0  0  0  0  0  0  0
  -25.9160  -15.4440   20.3540 N   0  0  0  0  0  0  0  0  0  0  0  0
  -25.1860  -16.1210   20.5490 H   0  0  0  0  0  0  0  0  0  0  0  0
  -26.7610  -15.8670   19.9950 H   0  0  0  0  0  0  0  0  0  0  0  0
  -29.4940  -22.1920   19.7790 C   0  0  0  0  0  2  0  0  0  0  0  0
  -29.8500  -23.5710   19.5580 O   0  0  0  0  0  0  0  0  0  0  0  0
  -28.3630  -23.9550   17.6630 C   0  0  0  0  0  1  0  0  0  0  0  0
  -28.8190  -24.4450   19.0550 C   0  0  0  0  0  3  0  0  0  0  0  0
  -29.3570  -25.9110   18.9580 C   0  0  0  0  0  2  0  0  0  0  0  0
  -28.9620  -26.8240   20.0010 O   0  0  0  0  0  0  0  0  0  0  0  0
  -24.5680  -31.5220   23.0790 C   0  0  0  0  0  0  0  0  0  0  0  0
  -27.7310  -27.4550   19.9400 C   0  0  0  0  0  0  0  0  0  0  0  0
  -23.5780  -30.1390   21.2850 C   0  0  0  0  0  3  0  0  0  0  0  0
  -25.2300  -28.7950   19.8810 C   0  0  0  0  0  0  0  0  0  0  0  0
  -26.0800  -30.6790   21.2840 C   0  0  0  0  0  2  0  0  0  0  0  0
  -26.3060  -29.3560   20.5790 C   0  0  0  0  0  0  0  0  0  0  0  0
  -27.5530  -28.6890   20.6140 C   0  0  0  0  0  3  0  0  0  0  0  0
  -26.6270  -26.9100   19.2460 C   0  0  0  0  0  3  0  0  0  0  0  0
  -25.3850  -27.5690   19.2160 C   0  0  0  0  0  3  0  0  0  0  0  0
  -23.9250  -29.5600   19.8890 C   0  0  0  0  0  2  0  0  0  0  0  0
  -24.7550  -30.7940   21.9430 N   0  0  0  0  0  0  0  0  0  0  0  0
  -23.4380  -31.6850   23.5580 O   0  0  0  0  0  0  0  0  0  0  0  0
  -22.9440  -29.0180   22.1410 C   0  0  0  0  0  0  0  0  0  0  0  0
  -21.6300  -28.8030   21.9680 N   0  0  0  0  0  0  0  0  0  0  0  0
  -23.6320  -28.3490   22.9160 O   0  0  0  0  0  0  0  0  0  0  0  0
  -21.1350  -29.3990   21.3180 H   0  0  0  0  0  0  0  0  0  0  0  0
  -18.2740  -27.5220   22.3580 C   0  0  0  0  0  0  0  0  0  0  0  0
  -20.8310  -27.7770   22.6370 C   0  0  0  0  0  3  0  0  0  0  0  0
  -20.9430  -26.4190   21.9060 C   0  0  0  0  0  2  0  0  0  0  0  0
  -19.8350  -26.1970   20.8710 C   0  0  0  0  0  2  0  0  0  0  0  0
  -18.4580  -26.2560   21.5380 C   0  0  0  0  0  2  0  0  0  0  0  0
  -19.3880  -28.2450   22.8610 C   0  0  0  0  0  0  0  0  0  0  0  0
  -19.1630  -29.4330   23.5870 C   0  0  0  0  0  3  0  0  0  0  0  0
  -17.8550  -29.9010   23.8160 C   0  0  0  0  0  3  0  0  0  0  0  0
  -16.7540  -29.1730   23.3310 C   0  0  0  0  0  3  0  0  0  0  0  0
  -16.9650  -27.9850   22.6080 C   0  0  0  0  0  3  0  0  0  0  0  0
  -25.7620  -32.2040   23.8200 C   0  0  0  0  0  3  0  0  0  0  0  0
  -26.1980  -31.4410   25.1310 C   0  0  1  0  0  0  0  0  0  0  0  0
  -25.0270  -31.1400   26.0940 C   0  0  0  0  0  1  0  0  0  0  0  0
  -26.8770  -30.0960   24.7800 C   0  0  0  0  0  1  0  0  0  0  0  0
  -27.2480  -32.2790   25.8990 C   0  0  0  0  0  1  0  0  0  0  0  0
  -25.3600  -33.5820   24.1290 N   0  0  0  0  0  0  0  0  0  0  0  0
  -25.7090  -34.6550   23.4080 C   0  0  0  0  0  0  0  0  0  0  0  0
  -26.4730  -34.5940   22.4400 O   0  0  0  0  0  0  0  0  0  0  0  0
  -24.6900  -33.7010   24.8740 H   0  0  0  0  0  0  0  0  0  0  0  0
  -23.9320  -36.3650   22.9130 C   0  0  0  0  0  1  0  0  0  0  0  0
  -25.1170  -36.0150   23.8270 C   0  0  0  0  0  3  0  0  0  0  0  0
  -27.1210  -36.9990   24.8480 C   0  0  0  0  0  1  0  0  0  0  0  0
  -26.1030  -37.1180   23.8070 N   0  0  0  0  0  0  0  0  0  0  0  0
  -25.6410  -38.0160   23.9170 H   0  0  0  0  0  0  0  0  0  0  0  0
  2 13  1  0
  2  1  1  0
  3 19  1  0
  4  9  1  0
  5  6  1  0
  5  4  1  0
  7  6  1  0
  7 24  1  0
  7  8  1  0
  9  3  1  0
  9  8  1  0
 10  3  2  0
 12 11  1  0
 12 16  1  0
 13 12  2  0
 14 18  2  0
 14 13  1  0
 15 19  1  0
 15 11  2  0
 17 14  1  0
 18 15  1  0
 19 20  1  0
 21 22  2  0
 22 41  1  0
 23 26  1  0
 23 22  1  0
 24 25  1  0
 24 21  1  0
 25 23  2  0
 26 27  1  0
 27 28  2  0
 29 32  1  0
 29 28  1  0
 30 29  2  0
 31 30  1  0
 31 26  2  0
 32 33  1  0
 33 34  1  0
 34 35  2  0
 36 35  1  0
 36 40  1  0
 37 36  2  0
 38 33  2  0
 38 37  1  0
 39 38  1  0
 41 42  1  0
 42 45  1  0
 42 44  1  0
 43 41  2  0
 46 21  1  0
 46 47  1  0
 48 46  1  0
 49  2  1  0
 50 49  1  0
 52 51  1  0
 52 50  1  0
 53 52  1  0
 53 54  1  0
 55 66  2  0
 56 54  1  0
 56 61  1  0
 57 65  1  0
 57 67  1  0
 58 64  1  0
 58 60  1  0
 59 65  1  0
 60 61  2  0
 60 59  1  0
 62 56  2  0
 63 62  1  0
 63 58  2  0
 64 57  1  0
 65 55  1  0
 67 69  2  0
 68 67  1  0
 70 68  1  0
 71 80  2  0
 71 76  1  0
 72 68  1  0
 72 76  1  0
 73 72  1  0
 74 75  1  0
 74 73  1  0
 75 71  1  0
 76 77  2  0
 77 78  1  0
 79 78  2  0
 80 79  1  0
 81 55  1  0
 81 86  1  0
 81 82  1  0
 82 85  1  1
 82 83  1  0
 84 82  1  0
 86 89  1  0
 87 91  1  0
 87 86  1  0
 88 87  2  0
 91 90  1  0
 93 91  1  0
 93 94  1  0
 93 92  1  0
M  ISO  4   3 100  19 100  53 101  54 101
M  END
>  <TORSDO>  (92) 
F 20

>  <SCORE>  (92) 
-10.460

>  <name>  (92) 
92

>  <ligand_id>  (92) 
92

>  <original_smiles>  (92) 
[H]c1c([H])c([H])c2c(c1[H])C([H])([H])C([H])([H])C([H])([H])C2([H])N([H])C(=O)C1([H])N(C(=O)C([H])(N([H])C(=O)C([H])(N([H])C([H])([H])[H])C([H])([H])[H])C(C([H])([H])[H])(C([H])([H])[H])C([H])([H])[H])C([H])([H])c2c([H])c(OC([H])([H])C([H])(OC([H])([H])C([H])(c3c(C([H])([H])[H])nc(N([H])C(=O)N4C([H])([H])C([H])([H])C([H])([H])C([H])(n5nc(-c6c([H])c([H])c(Oc7c([H])c([H])c(F)c([H])c7F)c([H])c6[H])c(C(=O)N([H])[H])c5N([H])[H])C4([H])[H])c([H])c3C([H])([H])[H])C([H])([H])[H])C([H])([H])[H])c([H])c([H])c2C1([H])[H]

>  <smiles>  (92) 
[H]c1c([H])c([H])c2c(c1[H])C([H])([H])C([H])([H])C([H])([H])C2([H])N([H])C(=O)C1([H])N(C(=O)C([H])(N([H])C(=O)C([H])(N([H])C([H])([H])[H])C([H])([H])[H])C(C([H])([H])[H])(C([H])([H])[H])C([H])([H])[H])C([H])([H])c2c([H])c(OC([H])([H])C([H])(OC([H])([H])C([H])(c3c(C([H])([H])[H])nc(N([H])C(=O)N4C([H])([H])C([H])([H])C([H])([H])C([H])(n5nc(-c6c([H])c([H])c(Oc7c([H])c([H])c(F)c([H])c7F)c([H])c6[H])c(C(=O)N([H])[H])c5N([H])[H])C4([H])[H])c([H])c3C([H])([H])[H])C([H])([H])[H])C([H])([H])[H])c([H])c([H])c2C1([H])[H]

$$$$
93:0:0
     RDKit          3D

 92101  0  0  1  0  0  0  0  0999 V2000
  -28.0310  -19.0110   19.4650 C   0  0  0  0  0  3  0  0  0  0  0  0
  -29.3530  -20.7700   20.4300 C   0  0  0  0  0  3  0  0  0  0  0  0
  -27.3870  -21.4190   19.1290 C   0  0  0  0  0  0  0  0  0  0  0  0
  -29.1470  -19.3070   20.2580 C   0  0  0  0  0  0  0  0  0  0  0  0
  -27.2090  -20.0090   18.8920 C   0  0  0  0  0  0  0  0  0  0  0  0
  -28.5190  -21.8840   19.8880 C   0  0  0  0  0  0  0  0  0  0  0  0
  -26.1270  -19.4570   17.9620 C   0  0  0  0  0  1  0  0  0  0  0  0
  -25.4630  -23.2710   19.3310 C   0  0  0  0  0  2  0  0  0  0  0  0
  -24.8690  -22.1420   18.5590 C   0  0  0  0  0  2  0  0  0  0  0  0
  -26.3810  -22.3830   18.5110 C   0  0  0  0  0  3  0  0  0  0  0  0
  -28.8740  -23.5070   20.1210 C   0  0  0  0  0  3  0  0  0  0  0  0
  -28.0170  -24.9050   19.6750 C   0  0  0  0  0  3  0  0  0  0  0  0
  -28.3190  -26.4250   19.8900 O   0  0  0  0  0  0  0  0  0  0  0  0
  -24.5500  -31.8780   23.1600 C   0  0  0  0  0  0  0  0  0  0  0  0
  -27.2550  -27.4050   19.8740 C   0  0  0  0  0  0  0  0  0  0  0  0
  -23.3880  -30.5370   21.4510 C   0  0  0  0  0  3  0  0  0  0  0  0
  -24.8820  -29.0910   19.9420 C   0  0  0  0  0  0  0  0  0  0  0  0
  -25.9360  -30.8840   21.3000 C   0  0  0  0  0  2  0  0  0  0  0  0
  -26.0500  -29.5340   20.5720 C   0  0  0  0  0  0  0  0  0  0  0  0
  -27.2390  -28.7080   20.5250 C   0  0  0  0  0  3  0  0  0  0  0  0
  -26.0590  -27.0770   19.2030 C   0  0  0  0  0  3  0  0  0  0  0  0
  -24.8980  -27.8770   19.2430 C   0  0  0  0  0  3  0  0  0  0  0  0
  -23.6310  -29.9520   20.0360 C   0  0  0  0  0  2  0  0  0  0  0  0
  -24.6440  -31.1200   22.0260 N   0  0  0  0  0  0  0  0  0  0  0  0
  -23.4570  -32.0960   23.7050 O   0  0  0  0  0  0  0  0  0  0  0  0
  -22.7500  -29.4520   22.3550 C   0  0  0  0  0  0  0  0  0  0  0  0
  -21.4270  -29.2460   22.2320 N   0  0  0  0  0  0  0  0  0  0  0  0
  -23.4500  -28.8000   23.1320 O   0  0  0  0  0  0  0  0  0  0  0  0
  -20.9130  -29.8320   21.5870 H   0  0  0  0  0  0  0  0  0  0  0  0
  -18.0830  -27.9540   22.7420 C   0  0  0  0  0  0  0  0  0  0  0  0
  -20.6430  -28.2450   22.9600 C   0  0  0  0  0  3  0  0  0  0  0  0
  -20.7510  -26.8530   22.2930 C   0  0  0  0  0  2  0  0  0  0  0  0
  -19.6290  -26.5770   21.2860 C   0  0  0  0  0  2  0  0  0  0  0  0
  -18.2620  -26.6550   21.9730 C   0  0  0  0  0  2  0  0  0  0  0  0
  -19.2000  -28.7060   23.1930 C   0  0  0  0  0  0  0  0  0  0  0  0
  -18.9730  -29.9200   23.8780 C   0  0  0  0  0  3  0  0  0  0  0  0
  -17.6650  -30.3840   24.1090 C   0  0  0  0  0  3  0  0  0  0  0  0
  -16.5630  -29.6290   23.6700 C   0  0  0  0  0  3  0  0  0  0  0  0
  -16.7730  -28.4140   22.9930 C   0  0  0  0  0  3  0  0  0  0  0  0
  -25.8090  -32.5230   23.8140 C   0  0  0  0  0  3  0  0  0  0  0  0
  -26.3030  -31.7550   25.1000 C   0  0  1  0  0  0  0  0  0  0  0  0
  -25.1880  -31.5040   26.1430 C   0  0  0  0  0  1  0  0  0  0  0  0
  -26.9080  -30.3820   24.7230 C   0  0  0  0  0  1  0  0  0  0  0  0
  -27.4280  -32.5590   25.7930 C   0  0  0  0  0  1  0  0  0  0  0  0
  -25.4740  -33.9160   24.1470 N   0  0  0  0  0  0  0  0  0  0  0  0
  -25.8010  -34.9810   23.4010 C   0  0  0  0  0  0  0  0  0  0  0  0
  -26.4830  -34.8960   22.3770 O   0  0  0  0  0  0  0  0  0  0  0  0
  -24.8700  -34.0540   24.9420 H   0  0  0  0  0  0  0  0  0  0  0  0
  -24.0580  -36.7650   23.0400 C   0  0  0  0  0  1  0  0  0  0  0  0
  -25.2900  -36.3600   23.8660 C   0  0  0  0  0  3  0  0  0  0  0  0
  -27.3940  -37.2700   24.7480 C   0  0  0  0  0  1  0  0  0  0  0  0
  -26.3110  -37.4260   23.7810 N   0  0  0  0  0  0  0  0  0  0  0  0
  -25.8880  -38.3390   23.9250 H   0  0  0  0  0  0  0  0  0  0  0  0
  -30.0860  -18.0390   20.7690 C   0  0  0  0  0  2  0  0  0  0  0  0
  -30.5070  -15.3060   20.6680 C   0  0  0  0  0  0  0  0  0  0  0  0
  -30.4520  -12.9620   19.7070 C   0  0  0  0  0  2  0  0  0  0  0  0
  -29.5910  -12.9230   18.4270 C   0  0  0  0  0  2  0  0  0  0  0  0
  -28.0990  -12.7260   18.7660 C   0  0  0  0  0  2  0  0  0  0  0  0
  -27.6330  -13.6180   19.9470 C   0  0  0  0  0  3  0  0  0  0  0  0
  -28.6290  -13.6100   21.1230 C   0  0  0  0  0  2  0  0  0  0  0  0
  -29.9190  -14.0440   20.5800 N   0  0  0  0  0  0  0  0  0  0  0  0
  -31.7250  -15.3640   20.4710 O   0  0  0  0  0  0  0  0  0  0  0  0
  -29.7220  -16.4940   20.7730 N   0  0  0  0  0  0  0  0  0  0  0  0
  -28.7380  -16.3160   20.8930 H   0  0  0  0  0  0  0  0  0  0  0  0
  -25.2120  -14.1780   20.5550 C   0  0  0  0  0  0  0  0  0  0  0  0
  -24.1340  -13.3940   20.8650 C   0  0  0  0  0  0  0  0  0  0  0  0
  -24.6130  -12.0480   20.8660 C   0  0  0  0  0  0  0  0  0  0  0  0
  -26.2730  -13.3080   20.3730 N   0  0  0  0  0  0  0  0  0  0  0  0
  -25.9200  -12.0220   20.6280 N   0  0  0  0  0  0  0  0  0  0  0  0
  -23.8840  -10.7800   21.0190 C   0  0  0  0  0  0  0  0  0  0  0  0
  -24.2770   -9.8140   21.9720 C   0  0  0  0  0  3  0  0  0  0  0  0
  -23.5480   -8.6130   22.1180 C   0  0  0  0  0  3  0  0  0  0  0  0
  -22.4120   -8.3700   21.3110 C   0  0  0  0  0  0  0  0  0  0  0  0
  -22.0370   -9.3250   20.3500 C   0  0  0  0  0  3  0  0  0  0  0  0
  -22.7670  -10.5160   20.2010 C   0  0  0  0  0  3  0  0  0  0  0  0
  -21.6570   -7.2230   21.3670 O   0  0  0  0  0  0  0  0  0  0  0  0
  -21.5890   -6.4610   22.5060 C   0  0  0  0  0  0  0  0  0  0  0  0
  -21.1130   -6.9880   23.7270 C   0  0  0  0  0  3  0  0  0  0  0  0
  -20.9900   -6.1510   24.8540 C   0  0  0  0  0  3  0  0  0  0  0  0
  -21.3350   -4.7890   24.7630 C   0  0  0  0  0  0  0  0  0  0  0  0
  -21.8050   -4.2620   23.5460 C   0  0  0  0  0  3  0  0  0  0  0  0
  -21.9290   -5.0960   22.4200 C   0  0  0  0  0  0  0  0  0  0  0  0
  -22.3610   -4.5780   21.2460 F   0  0  0  0  0  0  0  0  0  0  0  0
  -21.2090   -3.9840   25.8430 F   0  0  0  0  0  0  0  0  0  0  0  0
  -22.7210  -13.8600   21.0450 C   0  0  0  0  0  0  0  0  0  0  0  0
  -21.9520  -13.1800   21.8920 N   0  0  0  0  0  0  0  0  0  0  0  0
  -22.3010  -14.8650   20.4720 O   0  0  0  0  0  0  0  0  0  0  0  0
  -22.3020  -12.3710   22.3800 H   0  0  0  0  0  0  0  0  0  0  0  0
  -21.0010  -13.4760   22.0530 H   0  0  0  0  0  0  0  0  0  0  0  0
  -25.3710  -15.5500   20.3900 N   0  0  0  0  0  0  0  0  0  0  0  0
  -24.5990  -16.2010   20.4910 H   0  0  0  0  0  0  0  0  0  0  0  0
  -26.2420  -16.0020   20.1450 H   0  0  0  0  0  0  0  0  0  0  0  0
  1  4  1  0
  3  6  2  0
  4  2  2  0
  4 54  1  0
  5  3  1  0
  5  1  2  0
  6 11  1  0
  6  2  1  0
  7  5  1  0
  9  8  1  0
 10  9  1  0
 10  3  1  0
 10  8  1  0
 12 13  1  0
 12 11  2  0
 14 25  2  0
 15 13  1  0
 15 20  1  0
 16 24  1  0
 16 26  1  0
 17 23  1  0
 17 19  1  0
 18 24  1  0
 19 18  1  0
 20 19  2  0
 21 22  1  0
 21 15  2  0
 22 17  2  0
 23 16  1  0
 24 14  1  0
 26 28  2  0
 27 26  1  0
 29 27  1  0
 30 39  2  0
 30 35  1  0
 31 27  1  0
 31 35  1  0
 32 31  1  0
 33 34  1  0
 33 32  1  0
 34 30  1  0
 35 36  2  0
 36 37  1  0
 38 37  2  0
 39 38  1  0
 40 14  1  0
 40 45  1  0
 40 41  1  0
 41 44  1  1
 41 42  1  0
 43 41  1  0
 45 48  1  0
 46 50  1  0
 46 45  1  0
 47 46  2  0
 50 49  1  0
 52 50  1  0
 52 53  1  0
 52 51  1  0
 54 63  1  0
 55 63  1  0
 56 61  1  0
 57 58  1  0
 57 56  1  0
 59 58  1  0
 59 68  1  0
 59 60  1  0
 61 55  1  0
 61 60  1  0
 62 55  2  0
 63 64  1  0
 65 66  2  0
 66 67  1  0
 66 85  1  0
 67 70  1  0
 68 65  1  0
 68 69  1  0
 69 67  2  0
 70 71  1  0
 71 72  2  0
 73 76  1  0
 73 72  1  0
 74 73  2  0
 75 74  1  0
 75 70  2  0
 76 77  1  0
 77 78  1  0
 78 79  2  0
 80 79  1  0
 80 84  1  0
 81 80  2  0
 82 77  2  0
 82 81  1  0
 83 82  1  0
 85 86  1  0
 86 89  1  0
 86 88  1  0
 87 85  2  0
 90 91  1  0
 90 65  1  0
 92 90  1  0
M  ISO  4  12 101  13 101  55 100  63 100
M  END
>  <TORSDO>  (93) 
F 20

>  <SCORE>  (93) 
-14.328

>  <name>  (93) 
93

>  <ligand_id>  (93) 
93

>  <original_smiles>  (93) 
[H]c1c([H])c([H])c2c(c1[H])C([H])([H])C([H])([H])C([H])([H])C2([H])N([H])C(=O)C1([H])N(C(=O)C([H])(N([H])C(=O)C([H])(N([H])C([H])([H])[H])C([H])([H])[H])C(C([H])([H])[H])(C([H])([H])[H])C([H])([H])[H])C([H])([H])c2c([H])c(OC([H])([H])C([H])([H])c3c([H])c(C([H])([H])N([H])C(=O)N4C([H])([H])C([H])([H])C([H])([H])C([H])(n5nc(-c6c([H])c([H])c(Oc7c([H])c([H])c(F)c([H])c7F)c([H])c6[H])c(C(=O)N([H])[H])c5N([H])[H])C4([H])[H])c([H])c(C([H])([H])[H])c3C3([H])C([H])([H])C3([H])[H])c([H])c([H])c2C1([H])[H]

>  <smiles>  (93) 
[H]c1c([H])c([H])c2c(c1[H])C([H])([H])C([H])([H])C([H])([H])C2([H])N([H])C(=O)C1([H])N(C(=O)C([H])(N([H])C(=O)C([H])(N([H])C([H])([H])[H])C([H])([H])[H])C(C([H])([H])[H])(C([H])([H])[H])C([H])([H])[H])C([H])([H])c2c([H])c(OC([H])([H])C([H])([H])c3c([H])c(C([H])([H])N([H])C(=O)N4C([H])([H])C([H])([H])C([H])([H])C([H])(n5nc(-c6c([H])c([H])c(Oc7c([H])c([H])c(F)c([H])c7F)c([H])c6[H])c(C(=O)N([H])[H])c5N([H])[H])C4([H])[H])c([H])c(C([H])([H])[H])c3C3([H])C([H])([H])C3([H])[H])c([H])c([H])c2C1([H])[H]

$$$$
94:0:0
     RDKit          3D

 95104  0  0  1  0  0  0  0  0999 V2000
  -29.9360  -22.0310   21.2960 C   0  0  0  0  0  3  0  0  0  0  0  0
  -30.2470  -20.9530   19.1390 C   0  0  0  0  0  3  0  0  0  0  0  0
  -30.2640  -20.8210   21.9450 C   0  0  0  0  0  0  0  0  0  0  0  0
  -30.5680  -19.7150   19.7700 C   0  0  0  0  0  0  0  0  0  0  0  0
  -29.9010  -22.1180   19.8860 C   0  0  0  0  0  0  0  0  0  0  0  0
  -30.5220  -19.6570   21.1820 C   0  0  0  0  0  0  0  0  0  0  0  0
  -31.1390  -21.7910   24.2290 C   0  0  0  0  0  2  0  0  0  0  0  0
  -31.5990  -20.3590   24.1440 C   0  0  0  0  0  2  0  0  0  0  0  0
  -30.3280  -20.7840   23.4450 C   0  0  0  0  0  3  0  0  0  0  0  0
  -29.6290  -17.5650   21.7150 C   0  0  0  0  0  1  0  0  0  0  0  0
  -30.7320  -18.4580   21.8130 O   0  0  0  0  0  0  0  0  0  0  0  0
  -30.8390  -18.4170   18.9630 C   0  0  0  0  0  2  0  0  0  0  0  0
  -31.9410  -17.4470   19.5170 C   0  0  0  0  0  2  0  0  0  0  0  0
  -32.1710  -14.9010   19.5290 C   0  0  0  0  0  0  0  0  0  0  0  0
  -31.8090  -12.5200   18.9790 C   0  0  0  0  0  2  0  0  0  0  0  0
  -30.8500  -12.4210   17.7740 C   0  0  0  0  0  2  0  0  0  0  0  0
  -29.3770  -12.4470   18.2340 C   0  0  0  0  0  2  0  0  0  0  0  0
  -29.0830  -13.5880   19.2490 C   0  0  0  0  0  3  0  0  0  0  0  0
  -30.1530  -13.6320   20.3630 C   0  0  0  0  0  2  0  0  0  0  0  0
  -31.4700  -13.7470   19.7150 N   0  0  0  0  0  0  0  0  0  0  0  0
  -33.3150  -14.9160   19.0650 O   0  0  0  0  0  0  0  0  0  0  0  0
  -31.4840  -16.0490   19.7210 N   0  0  0  0  0  0  0  0  0  0  0  0
  -30.5420  -15.9390   20.0660 H   0  0  0  0  0  0  0  0  0  0  0  0
  -26.8200  -14.4950   20.0750 C   0  0  0  0  0  0  0  0  0  0  0  0
  -25.6790  -13.8630   20.4940 C   0  0  0  0  0  0  0  0  0  0  0  0
  -25.9600  -12.4640   20.4380 C   0  0  0  0  0  0  0  0  0  0  0  0
  -27.7300  -13.4870   19.7940 N   0  0  0  0  0  0  0  0  0  0  0  0
  -27.2180  -12.2600   20.0710 N   0  0  0  0  0  0  0  0  0  0  0  0
  -25.0830  -11.3060   20.6590 C   0  0  0  0  0  0  0  0  0  0  0  0
  -25.3740  -10.3390   21.6480 C   0  0  0  0  0  3  0  0  0  0  0  0
  -24.5070   -9.2440   21.8540 C   0  0  0  0  0  3  0  0  0  0  0  0
  -23.3350   -9.1090   21.0720 C   0  0  0  0  0  0  0  0  0  0  0  0
  -23.0630  -10.0610   20.0730 C   0  0  0  0  0  3  0  0  0  0  0  0
  -23.9290  -11.1480   19.8650 C   0  0  0  0  0  3  0  0  0  0  0  0
  -22.4480   -8.0670   21.1840 O   0  0  0  0  0  0  0  0  0  0  0  0
  -22.1930   -7.4660   22.3910 C   0  0  0  0  0  0  0  0  0  0  0  0
  -21.7190   -8.1970   23.5020 C   0  0  0  0  0  3  0  0  0  0  0  0
  -21.4030   -7.5280   24.7010 C   0  0  0  0  0  3  0  0  0  0  0  0
  -21.5530   -6.1310   24.7900 C   0  0  0  0  0  0  0  0  0  0  0  0
  -22.0210   -5.4020   23.6830 C   0  0  0  0  0  3  0  0  0  0  0  0
  -22.3380   -6.0670   22.4860 C   0  0  0  0  0  0  0  0  0  0  0  0
  -22.7660   -5.3570   21.4160 F   0  0  0  0  0  0  0  0  0  0  0  0
  -21.2430   -5.4890   25.9400 F   0  0  0  0  0  0  0  0  0  0  0  0
  -24.3700  -14.5150   20.8320 C   0  0  0  0  0  0  0  0  0  0  0  0
  -23.6150  -13.9340   21.7610 N   0  0  0  0  0  0  0  0  0  0  0  0
  -24.0280  -15.5730   20.3070 O   0  0  0  0  0  0  0  0  0  0  0  0
  -23.9000  -13.0750   22.2080 H   0  0  0  0  0  0  0  0  0  0  0  0
  -22.7360  -14.3530   22.0260 H   0  0  0  0  0  0  0  0  0  0  0  0
  -27.1530  -15.8340   19.8870 N   0  0  0  0  0  0  0  0  0  0  0  0
  -26.4740  -16.5760   20.0170 H   0  0  0  0  0  0  0  0  0  0  0  0
  -28.0230  -16.1620   19.4920 H   0  0  0  0  0  0  0  0  0  0  0  0
  -29.5380  -23.2740   19.1990 O   0  0  0  0  0  0  0  0  0  0  0  0
  -29.5040  -24.5850   19.8270 C   0  0  0  0  0  2  0  0  0  0  0  0
  -28.1330  -25.3290   19.7270 C   0  0  0  0  0  2  0  0  0  0  0  0
  -28.2220  -26.7790   19.8030 O   0  0  0  0  0  0  0  0  0  0  0  0
  -24.5280  -31.8720   23.1960 C   0  0  0  0  0  0  0  0  0  0  0  0
  -27.0410  -27.5130   19.8550 C   0  0  0  0  0  0  0  0  0  0  0  0
  -23.2430  -30.4910   21.5990 C   0  0  0  0  0  3  0  0  0  0  0  0
  -24.6270  -29.0090   20.0440 C   0  0  0  0  0  0  0  0  0  0  0  0
  -25.7490  -30.8890   21.2500 C   0  0  0  0  0  2  0  0  0  0  0  0
  -25.8150  -29.5320   20.5710 C   0  0  0  0  0  0  0  0  0  0  0  0
  -27.0230  -28.7940   20.4650 C   0  0  0  0  0  3  0  0  0  0  0  0
  -25.8280  -27.0180   19.3200 C   0  0  0  0  0  3  0  0  0  0  0  0
  -24.6310  -27.7550   19.4130 C   0  0  0  0  0  3  0  0  0  0  0  0
  -23.3740  -29.8460   20.1940 C   0  0  0  0  0  2  0  0  0  0  0  0
  -24.5290  -31.0990   22.0720 N   0  0  0  0  0  0  0  0  0  0  0  0
  -23.4800  -32.1130   23.8100 O   0  0  0  0  0  0  0  0  0  0  0  0
  -22.6640  -29.4390   22.5760 C   0  0  0  0  0  0  0  0  0  0  0  0
  -21.3680  -29.1200   22.4160 N   0  0  0  0  0  0  0  0  0  0  0  0
  -23.3790  -28.9120   23.4320 O   0  0  0  0  0  0  0  0  0  0  0  0
  -20.8490  -29.6020   21.6960 H   0  0  0  0  0  0  0  0  0  0  0  0
  -18.1680  -27.4660   22.7230 C   0  0  0  0  0  0  0  0  0  0  0  0
  -20.6240  -28.1250   23.1910 C   0  0  0  0  0  3  0  0  0  0  0  0
  -20.9890  -26.6900   22.7460 C   0  0  0  0  0  2  0  0  0  0  0  0
  -20.0470  -26.1340   21.6740 C   0  0  0  0  0  2  0  0  0  0  0  0
  -18.6030  -26.1150   22.1830 C   0  0  0  0  0  2  0  0  0  0  0  0
  -19.1200  -28.4170   23.1820 C   0  0  0  0  0  0  0  0  0  0  0  0
  -18.6650  -29.6710   23.6420 C   0  0  0  0  0  3  0  0  0  0  0  0
  -17.2920  -29.9800   23.6560 C   0  0  0  0  0  3  0  0  0  0  0  0
  -16.3540  -29.0290   23.2180 C   0  0  0  0  0  3  0  0  0  0  0  0
  -16.7920  -27.7750   22.7560 C   0  0  0  0  0  3  0  0  0  0  0  0
  -25.8400  -32.5080   23.7530 C   0  0  0  0  0  3  0  0  0  0  0  0
  -25.5450  -33.9060   24.0980 N   0  0  0  0  0  0  0  0  0  0  0  0
  -25.8830  -34.9630   23.3480 C   0  0  0  0  0  0  0  0  0  0  0  0
  -26.5480  -34.8630   22.3140 O   0  0  0  0  0  0  0  0  0  0  0  0
  -24.9540  -34.0590   24.9020 H   0  0  0  0  0  0  0  0  0  0  0  0
  -24.1870  -36.7860   22.9980 C   0  0  0  0  0  1  0  0  0  0  0  0
  -25.4090  -36.3510   23.8220 C   0  0  0  0  0  3  0  0  0  0  0  0
  -27.5450  -37.1850   24.6940 C   0  0  0  0  0  1  0  0  0  0  0  0
  -26.4580  -37.3890   23.7420 N   0  0  0  0  0  0  0  0  0  0  0  0
  -26.0660  -38.3130   23.9030 H   0  0  0  0  0  0  0  0  0  0  0  0
  -26.4230  -31.7380   25.0030 C   0  0  1  0  0  0  0  0  0  0  0  0
  -25.3770  -31.4600   26.1070 C   0  0  0  0  0  1  0  0  0  0  0  0
  -27.0280  -30.3830   24.5700 C   0  0  0  0  0  1  0  0  0  0  0  0
  -27.5780  -32.5560   25.6280 C   0  0  0  0  0  1  0  0  0  0  0  0
  1  3  1  0
  2  4  2  0
  2  5  1  0
  3  9  1  0
  4  6  1  0
  5  1  2  0
  6 11  1  0
  6  3  2  0
  8  7  1  0
  9  8  1  0
  9  7  1  0
 10 11  1  0
 12 13  1  0
 12  4  1  0
 13 22  1  0
 14 20  1  0
 14 22  1  0
 15 20  1  0
 16 17  1  0
 16 15  1  0
 18 17  1  0
 18 27  1  0
 18 19  1  0
 20 19  1  0
 21 14  2  0
 22 23  1  0
 24 25  2  0
 25 44  1  0
 26 25  1  0
 26 29  1  0
 27 28  1  0
 27 24  1  0
 28 26  2  0
 29 30  1  0
 30 31  2  0
 32 35  1  0
 32 31  1  0
 33 32  2  0
 34 33  1  0
 34 29  2  0
 35 36  1  0
 36 41  2  0
 36 37  1  0
 37 38  2  0
 38 39  1  0
 39 43  1  0
 40 39  2  0
 41 40  1  0
 42 41  1  0
 44 45  1  0
 45 48  1  0
 45 47  1  0
 46 44  2  0
 49 50  1  0
 49 24  1  0
 51 49  1  0
 52 53  1  0
 52  5  1  0
 54 55  1  0
 54 53  1  0
 55 57  1  0
 56 67  2  0
 57 62  1  0
 58 66  1  0
 58 68  1  0
 59 65  1  0
 59 61  1  0
 60 66  1  0
 61 60  1  0
 62 61  2  0
 63 64  1  0
 63 57  2  0
 64 59  2  0
 65 58  1  0
 66 56  1  0
 68 70  2  0
 69 68  1  0
 71 69  1  0
 72 81  2  0
 72 77  1  0
 73 69  1  0
 74 73  1  0
 75 76  1  0
 75 74  1  0
 76 72  1  0
 77 73  1  0
 77 78  2  0
 78 79  1  0
 80 79  2  0
 81 80  1  0
 82 56  1  0
 82 83  1  0
 82 92  1  0
 83 86  1  0
 84 88  1  0
 84 83  1  0
 85 84  2  0
 88 87  1  0
 90 88  1  0
 90 91  1  0
 90 89  1  0
 92 95  1  1
 92 93  1  0
 94 92  1  0
M  ISO  4  14 100  22 100  54 101  55 101
M  END
>  <TORSDO>  (94) 
F 23

>  <SCORE>  (94) 
-10.787

>  <name>  (94) 
94

>  <ligand_id>  (94) 
94

>  <original_smiles>  (94) 
[H]c1c([H])c([H])c2c(c1[H])C([H])([H])C([H])([H])C([H])([H])C2([H])N([H])C(=O)C1([H])N(C(=O)C([H])(N([H])C(=O)C([H])(N([H])C([H])([H])[H])C([H])([H])[H])C(C([H])([H])[H])(C([H])([H])[H])C([H])([H])[H])C([H])([H])c2c([H])c(OC([H])([H])C([H])([H])Oc3c([H])c(C([H])([H])C([H])([H])N([H])C(=O)N4C([H])([H])C([H])([H])C([H])([H])C([H])(n5nc(-c6c([H])c([H])c(Oc7c([H])c([H])c(F)c([H])c7F)c([H])c6[H])c(C(=O)N([H])[H])c5N([H])[H])C4([H])[H])c(OC([H])([H])[H])c(C4([H])C([H])([H])C4([H])[H])c3[H])c([H])c([H])c2C1([H])[H]

>  <smiles>  (94) 
[H]c1c([H])c([H])c2c(c1[H])C([H])([H])C([H])([H])C([H])([H])C2([H])N([H])C(=O)C1([H])N(C(=O)C([H])(N([H])C(=O)C([H])(N([H])C([H])([H])[H])C([H])([H])[H])C(C([H])([H])[H])(C([H])([H])[H])C([H])([H])[H])C([H])([H])c2c([H])c(OC([H])([H])C([H])([H])Oc3c([H])c(C([H])([H])C([H])([H])N([H])C(=O)N4C([H])([H])C([H])([H])C([H])([H])C([H])(n5nc(-c6c([H])c([H])c(Oc7c([H])c([H])c(F)c([H])c7F)c([H])c6[H])c(C(=O)N([H])[H])c5N([H])[H])C4([H])[H])c(OC([H])([H])[H])c(C4([H])C([H])([H])C4([H])[H])c3[H])c([H])c([H])c2C1([H])[H]

$$$$
95:0:0
     RDKit          3D

 92100  0  0  1  0  0  0  0  0999 V2000
  -28.7000  -21.3860   21.1360 C   0  0  0  0  0  3  0  0  0  0  0  0
  -28.5440  -22.8230   20.9610 C   0  0  0  0  0  0  0  0  0  0  0  0
  -28.8330  -20.4240   20.0770 C   0  0  0  0  0  0  0  0  0  0  0  0
  -28.7630  -21.0530   18.7870 C   0  0  0  0  0  0  0  0  0  0  0  0
  -28.6660  -22.4990   18.6000 C   0  0  0  0  0  0  0  0  0  0  0  0
  -28.5570  -23.4620   19.6800 C   0  0  0  0  0  0  0  0  0  0  0  0
  -28.3080  -23.6840   22.1860 C   0  0  0  0  0  1  0  0  0  0  0  0
  -28.6800  -20.1160   17.5770 C   0  0  0  0  0  1  0  0  0  0  0  0
  -28.6180  -23.0130   17.1590 C   0  0  0  0  0  1  0  0  0  0  0  0
  -28.7720  -18.7930   20.3190 C   0  0  0  0  0  2  0  0  0  0  0  0
  -31.0100  -18.0290   19.1740 C   0  0  0  0  0  1  0  0  0  0  0  0
  -30.0180  -17.6810   20.3010 C   0  0  0  0  0  3  0  0  0  0  0  0
  -30.5410  -14.9700   20.3140 C   0  0  0  0  0  0  0  0  0  0  0  0
  -30.4240  -12.6300   19.3810 C   0  0  0  0  0  2  0  0  0  0  0  0
  -29.5000  -12.6140   18.1450 C   0  0  0  0  0  2  0  0  0  0  0  0
  -28.0340  -12.4080   18.5750 C   0  0  0  0  0  2  0  0  0  0  0  0
  -27.6210  -13.3360   19.7450 C   0  0  0  0  0  3  0  0  0  0  0  0
  -28.6680  -13.3280   20.8790 C   0  0  0  0  0  2  0  0  0  0  0  0
  -29.9460  -13.7170   20.2750 N   0  0  0  0  0  0  0  0  0  0  0  0
  -31.7550  -15.0390   20.0980 O   0  0  0  0  0  0  0  0  0  0  0  0
  -29.7340  -16.1320   20.3730 N   0  0  0  0  0  0  0  0  0  0  0  0
  -28.7520  -15.9130   20.4670 H   0  0  0  0  0  0  0  0  0  0  0  0
  -25.2410  -13.9250   20.4790 C   0  0  0  0  0  0  0  0  0  0  0  0
  -24.1730  -13.1510   20.8450 C   0  0  0  0  0  0  0  0  0  0  0  0
  -24.6350  -11.8000   20.8170 C   0  0  0  0  0  0  0  0  0  0  0  0
  -26.2800  -13.0420   20.2400 N   0  0  0  0  0  0  0  0  0  0  0  0
  -25.9270  -11.7610   20.5120 N   0  0  0  0  0  0  0  0  0  0  0  0
  -23.9050  -10.5370   21.0030 C   0  0  0  0  0  0  0  0  0  0  0  0
  -24.3170   -9.5800   21.9560 C   0  0  0  0  0  3  0  0  0  0  0  0
  -23.5880   -8.3850   22.1270 C   0  0  0  0  0  3  0  0  0  0  0  0
  -22.4340   -8.1390   21.3450 C   0  0  0  0  0  0  0  0  0  0  0  0
  -22.0410   -9.0850   20.3820 C   0  0  0  0  0  3  0  0  0  0  0  0
  -22.7700  -10.2730   20.2090 C   0  0  0  0  0  3  0  0  0  0  0  0
  -21.6790   -6.9940   21.4260 O   0  0  0  0  0  0  0  0  0  0  0  0
  -21.5900   -6.2670   22.5880 C   0  0  0  0  0  0  0  0  0  0  0  0
  -21.1000   -6.8340   23.7840 C   0  0  0  0  0  3  0  0  0  0  0  0
  -20.9610   -6.0350   24.9370 C   0  0  0  0  0  3  0  0  0  0  0  0
  -21.3040   -4.6700   24.8920 C   0  0  0  0  0  0  0  0  0  0  0  0
  -21.7870   -4.1020   23.7000 C   0  0  0  0  0  3  0  0  0  0  0  0
  -21.9260   -4.8990   22.5500 C   0  0  0  0  0  0  0  0  0  0  0  0
  -22.3730   -4.3440   21.3980 F   0  0  0  0  0  0  0  0  0  0  0  0
  -21.1650   -3.8980   25.9950 F   0  0  0  0  0  0  0  0  0  0  0  0
  -22.7740  -13.6300   21.1040 C   0  0  0  0  0  0  0  0  0  0  0  0
  -22.0370  -12.9300   21.9600 N   0  0  0  0  0  0  0  0  0  0  0  0
  -22.3410  -14.6570   20.5860 O   0  0  0  0  0  0  0  0  0  0  0  0
  -22.3940  -12.0950   22.4020 H   0  0  0  0  0  0  0  0  0  0  0  0
  -21.1020  -13.2390   22.1790 H   0  0  0  0  0  0  0  0  0  0  0  0
  -25.4050  -15.2950   20.2980 N   0  0  0  0  0  0  0  0  0  0  0  0
  -24.6320  -15.9440   20.3960 H   0  0  0  0  0  0  0  0  0  0  0  0
  -26.2250  -15.7190   19.8840 H   0  0  0  0  0  0  0  0  0  0  0  0
  -28.4310  -25.0700   19.3450 C   0  0  0  0  0  2  0  0  0  0  0  0
  -28.3200  -26.2830   20.2700 O   0  0  0  0  0  0  0  0  0  0  0  0
  -24.6540  -31.9070   23.2530 C   0  0  0  0  0  0  0  0  0  0  0  0
  -27.2570  -27.2380   20.1910 C   0  0  0  0  0  0  0  0  0  0  0  0
  -23.4650  -30.4990   21.6210 C   0  0  0  0  0  3  0  0  0  0  0  0
  -24.9190  -28.9450   20.1880 C   0  0  0  0  0  0  0  0  0  0  0  0
  -26.0120  -30.7850   21.4520 C   0  0  0  0  0  2  0  0  0  0  0  0
  -26.0930  -29.3960   20.8040 C   0  0  0  0  0  0  0  0  0  0  0  0
  -27.2600  -28.5520   20.8030 C   0  0  0  0  0  3  0  0  0  0  0  0
  -26.0480  -26.8780   19.5520 C   0  0  0  0  0  3  0  0  0  0  0  0
  -24.9090  -27.7010   19.5480 C   0  0  0  0  0  3  0  0  0  0  0  0
  -23.6830  -29.8210   20.2440 C   0  0  0  0  0  2  0  0  0  0  0  0
  -24.7310  -31.0830   22.1650 N   0  0  0  0  0  0  0  0  0  0  0  0
  -23.5640  -32.1860   23.7780 O   0  0  0  0  0  0  0  0  0  0  0  0
  -22.8010  -29.4820   22.5860 C   0  0  0  0  0  0  0  0  0  0  0  0
  -21.4740  -29.3060   22.4630 N   0  0  0  0  0  0  0  0  0  0  0  0
  -23.4800  -28.8590   23.4050 O   0  0  0  0  0  0  0  0  0  0  0  0
  -20.9820  -29.8820   21.7970 H   0  0  0  0  0  0  0  0  0  0  0  0
  -18.1030  -28.0870   22.9530 C   0  0  0  0  0  0  0  0  0  0  0  0
  -20.6570  -28.3630   23.2300 C   0  0  0  0  0  3  0  0  0  0  0  0
  -20.7630  -26.9310   22.6550 C   0  0  0  0  0  2  0  0  0  0  0  0
  -19.6720  -26.6150   21.6260 C   0  0  0  0  0  2  0  0  0  0  0  0
  -18.2890  -26.7410   22.2720 C   0  0  0  0  0  2  0  0  0  0  0  0
  -19.2150  -28.8590   23.3850 C   0  0  0  0  0  0  0  0  0  0  0  0
  -18.9860  -30.1200   23.9750 C   0  0  0  0  0  3  0  0  0  0  0  0
  -17.6790  -30.6110   24.1400 C   0  0  0  0  0  3  0  0  0  0  0  0
  -16.5800  -29.8370   23.7270 C   0  0  0  0  0  3  0  0  0  0  0  0
  -16.7940  -28.5760   23.1390 C   0  0  0  0  0  3  0  0  0  0  0  0
  -25.9260  -32.5540   23.8790 C   0  0  0  0  0  3  0  0  0  0  0  0
  -26.4350  -31.8010   25.1690 C   0  0  1  0  0  0  0  0  0  0  0  0
  -25.3330  -31.5700   26.2310 C   0  0  0  0  0  1  0  0  0  0  0  0
  -27.0270  -30.4210   24.8010 C   0  0  0  0  0  1  0  0  0  0  0  0
  -27.5770  -32.6060   25.8310 C   0  0  0  0  0  1  0  0  0  0  0  0
  -25.6040  -33.9560   24.1950 N   0  0  0  0  0  0  0  0  0  0  0  0
  -25.9380  -35.0060   23.4330 C   0  0  0  0  0  0  0  0  0  0  0  0
  -26.6160  -34.8970   22.4070 O   0  0  0  0  0  0  0  0  0  0  0  0
  -24.9930  -34.1150   24.9830 H   0  0  0  0  0  0  0  0  0  0  0  0
  -24.2090  -36.7950   23.0590 C   0  0  0  0  0  1  0  0  0  0  0  0
  -25.4450  -36.3970   23.8800 C   0  0  0  0  0  3  0  0  0  0  0  0
  -27.5690  -37.2950   24.7240 C   0  0  0  0  0  1  0  0  0  0  0  0
  -26.4780  -37.4510   23.7680 N   0  0  0  0  0  0  0  0  0  0  0  0
  -26.0680  -38.3710   23.9000 H   0  0  0  0  0  0  0  0  0  0  0  0
  2  1  1  0
  2  7  1  0
  3 10  1  0
  3  1  2  0
  4  3  1  0
  5  4  2  0
  5  6  1  0
  6  2  2  0
  8  4  1  0
  9  5  1  0
 12 11  1  0
 12 10  1  0
 12 21  1  0
 13 21  1  0
 14 19  1  0
 15 16  1  0
 15 14  1  0
 17 16  1  0
 17 26  1  0
 17 18  1  0
 19 13  1  0
 19 18  1  0
 20 13  2  0
 21 22  1  0
 23 24  2  0
 24 43  1  0
 25 24  1  0
 25 28  1  0
 26 23  1  0
 26 27  1  0
 27 25  2  0
 28 29  1  0
 29 30  2  0
 31 34  1  0
 31 30  1  0
 32 31  2  0
 33 32  1  0
 33 28  2  0
 34 35  1  0
 35 36  1  0
 36 37  2  0
 38 37  1  0
 38 42  1  0
 39 38  2  0
 40 35  2  0
 40 39  1  0
 41 40  1  0
 43 44  1  0
 44 47  1  0
 44 46  1  0
 45 43  2  0
 48 49  1  0
 48 23  1  0
 50 48  1  0
 51  6  1  0
 51 52  1  0
 53 64  2  0
 54 52  1  0
 54 59  1  0
 55 63  1  0
 55 65  1  0
 56 62  1  0
 56 58  1  0
 57 63  1  0
 58 57  1  0
 59 58  2  0
 60 54  2  0
 61 60  1  0
 61 56  2  0
 62 55  1  0
 63 53  1  0
 65 67  2  0
 66 65  1  0
 68 66  1  0
 69 78  2  0
 69 74  1  0
 70 66  1  0
 70 74  1  0
 71 70  1  0
 72 73  1  0
 72 71  1  0
 73 69  1  0
 74 75  2  0
 75 76  1  0
 77 76  2  0
 78 77  1  0
 79 53  1  0
 79 84  1  0
 79 80  1  0
 80 83  1  1
 80 81  1  0
 82 80  1  0
 84 87  1  0
 85 89  1  0
 85 84  1  0
 86 85  2  0
 89 88  1  0
 91 89  1  0
 91 92  1  0
 91 90  1  0
M  ISO  4  13 100  21 100  51 101  52 101
M  END
>  <TORSDO>  (95) 
F 19

>  <SCORE>  (95) 
-14.166

>  <name>  (95) 
95

>  <ligand_id>  (95) 
95

>  <original_smiles>  (95) 
[H]c1c([H])c([H])c2c(c1[H])C([H])([H])C([H])([H])C([H])([H])C2([H])N([H])C(=O)C1([H])N(C(=O)C([H])(N([H])C(=O)C([H])(N([H])C([H])([H])[H])C([H])([H])[H])C(C([H])([H])[H])(C([H])([H])[H])C([H])([H])[H])C([H])([H])c2c([H])c(OC([H])([H])c3c(C([H])([H])[H])c([H])c(C([H])([H])C([H])(N([H])C(=O)N4C([H])([H])C([H])([H])C([H])([H])C([H])(n5nc(-c6c([H])c([H])c(Oc7c([H])c([H])c(F)c([H])c7F)c([H])c6[H])c(C(=O)N([H])[H])c5N([H])[H])C4([H])[H])C([H])([H])[H])c(C([H])([H])[H])c3C([H])([H])[H])c([H])c([H])c2C1([H])[H]

>  <smiles>  (95) 
[H]c1c([H])c([H])c2c(c1[H])C([H])([H])C([H])([H])C([H])([H])C2([H])N([H])C(=O)C1([H])N(C(=O)C([H])(N([H])C(=O)C([H])(N([H])C([H])([H])[H])C([H])([H])[H])C(C([H])([H])[H])(C([H])([H])[H])C([H])([H])[H])C([H])([H])c2c([H])c(OC([H])([H])c3c(C([H])([H])[H])c([H])c(C([H])([H])C([H])(N([H])C(=O)N4C([H])([H])C([H])([H])C([H])([H])C([H])(n5nc(-c6c([H])c([H])c(Oc7c([H])c([H])c(F)c([H])c7F)c([H])c6[H])c(C(=O)N([H])[H])c5N([H])[H])C4([H])[H])C([H])([H])[H])c(C([H])([H])[H])c3C([H])([H])[H])c([H])c([H])c2C1([H])[H]

$$$$
96:0:0
     RDKit          3D

100110  0  0  1  0  0  0  0  0999 V2000
  -29.2260  -24.6880   17.8530 C   0  0  0  0  0  3  0  0  0  0  0  0
  -31.6510  -24.6450   17.8120 C   0  0  0  0  0  3  0  0  0  0  0  0
  -30.4100  -22.5850   18.3060 C   0  0  0  0  0  0  0  0  0  0  0  0
  -29.1890  -23.3080   18.1310 C   0  0  0  0  0  0  0  0  0  0  0  0
  -31.6450  -23.2680   18.0940 C   0  0  0  0  0  0  0  0  0  0  0  0
  -30.4490  -25.3640   17.7710 C   0  0  0  0  0  0  0  0  0  0  0  0
  -27.8020  -22.7090   18.3000 C   0  0  0  0  0  1  0  0  0  0  0  0
  -33.0050  -22.5990   18.2610 C   0  0  0  0  0  1  0  0  0  0  0  0
  -30.5040  -21.1380   20.3830 C   0  0  0  0  0  2  0  0  0  0  0  0
  -29.4350  -20.1180   18.3800 C   0  0  0  0  0  2  0  0  0  0  0  0
  -30.8910  -19.7480   20.9020 C   0  0  0  0  0  2  0  0  0  0  0  0
  -29.8320  -18.7270   18.8920 C   0  0  0  0  0  2  0  0  0  0  0  0
  -30.4720  -21.1480   18.8510 C   0  0  0  0  0  3  0  0  0  0  0  0
  -30.0110  -18.6640   20.3780 N   0  0  1  0  0  4  0  0  0  0  0  0
  -29.1050  -18.7910   20.8050 H   0  0  0  0  0  0  0  0  0  0  0  0
  -30.6820  -14.2160   20.2450 C   0  0  0  0  0  0  0  0  0  0  0  0
  -30.2120  -12.2010   18.9140 C   0  0  0  0  0  2  0  0  0  0  0  0
  -29.2220  -12.5140   17.7760 C   0  0  0  0  0  2  0  0  0  0  0  0
  -27.7670  -12.4020   18.2730 C   0  0  0  0  0  2  0  0  0  0  0  0
  -27.5220  -13.1790   19.5910 C   0  0  0  0  0  3  0  0  0  0  0  0
  -28.6120  -12.8400   20.6310 C   0  0  0  0  0  2  0  0  0  0  0  0
  -29.9290  -13.1130   20.0280 N   0  0  0  0  0  0  0  0  0  0  0  0
  -31.7030  -14.4900   19.6010 O   0  0  0  0  0  0  0  0  0  0  0  0
  -31.0060  -17.1080   22.1880 C   0  0  0  0  0  2  0  0  0  0  0  0
  -31.1150  -15.5750   22.2330 C   0  0  0  0  0  2  0  0  0  0  0  0
  -29.4890  -16.2020   20.6550 C   0  0  0  0  0  2  0  0  0  0  0  0
  -30.5160  -17.3240   20.7600 C   0  0  0  0  0  3  0  0  0  0  0  0
  -30.2120  -15.0510   21.1890 N   0  0  0  0  0  0  0  0  0  0  0  0
  -25.1560  -13.8200   20.3900 C   0  0  0  0  0  0  0  0  0  0  0  0
  -24.0980  -13.0560   20.8030 C   0  0  0  0  0  0  0  0  0  0  0  0
  -24.5430  -11.7000   20.7500 C   0  0  0  0  0  0  0  0  0  0  0  0
  -26.1830  -12.9270   20.1190 N   0  0  0  0  0  0  0  0  0  0  0  0
  -25.8170  -11.6480   20.3880 N   0  0  0  0  0  0  0  0  0  0  0  0
  -23.8170  -10.4440   20.9680 C   0  0  0  0  0  0  0  0  0  0  0  0
  -24.2770   -9.4740   21.8850 C   0  0  0  0  0  3  0  0  0  0  0  0
  -23.5480   -8.2830   22.0910 C   0  0  0  0  0  3  0  0  0  0  0  0
  -22.3480   -8.0530   21.3780 C   0  0  0  0  0  0  0  0  0  0  0  0
  -21.9060   -9.0130   20.4510 C   0  0  0  0  0  3  0  0  0  0  0  0
  -22.6340  -10.1960   20.2430 C   0  0  0  0  0  3  0  0  0  0  0  0
  -21.5870   -6.9140   21.4970 O   0  0  0  0  0  0  0  0  0  0  0  0
  -21.5800   -6.1690   22.6480 C   0  0  0  0  0  0  0  0  0  0  0  0
  -21.2200   -6.7270   23.8940 C   0  0  0  0  0  3  0  0  0  0  0  0
  -21.1590   -5.9090   25.0400 C   0  0  0  0  0  3  0  0  0  0  0  0
  -21.4460   -4.5340   24.9410 C   0  0  0  0  0  0  0  0  0  0  0  0
  -21.7990   -3.9760   23.7000 C   0  0  0  0  0  3  0  0  0  0  0  0
  -21.8640   -4.7910   22.5550 C   0  0  0  0  0  0  0  0  0  0  0  0
  -22.1840   -4.2440   21.3580 F   0  0  0  0  0  0  0  0  0  0  0  0
  -21.3780   -3.7470   26.0400 F   0  0  0  0  0  0  0  0  0  0  0  0
  -22.7170  -13.5450   21.1330 C   0  0  0  0  0  0  0  0  0  0  0  0
  -22.0200  -12.8500   22.0260 N   0  0  0  0  0  0  0  0  0  0  0  0
  -22.2650  -14.5760   20.6360 O   0  0  0  0  0  0  0  0  0  0  0  0
  -22.4010  -12.0140   22.4460 H   0  0  0  0  0  0  0  0  0  0  0  0
  -21.0930  -13.1530   22.2880 H   0  0  0  0  0  0  0  0  0  0  0  0
  -25.3280  -15.1880   20.2040 N   0  0  0  0  0  0  0  0  0  0  0  0
  -24.5690  -15.8510   20.3220 H   0  0  0  0  0  0  0  0  0  0  0  0
  -26.1550  -15.6070   19.7990 H   0  0  0  0  0  0  0  0  0  0  0  0
  -30.4680  -26.7260   17.8140 O   0  0  0  0  0  0  0  0  0  0  0  0
  -30.8300  -27.1770   19.1210 C   0  0  0  0  0  2  0  0  0  0  0  0
  -29.6190  -27.7530   19.8620 C   0  0  0  0  0  2  0  0  0  0  0  0
  -28.5180  -26.8390   20.0440 O   0  0  0  0  0  0  0  0  0  0  0  0
  -24.5730  -31.8730   23.1910 C   0  0  0  0  0  0  0  0  0  0  0  0
  -27.3010  -27.4750   20.1690 C   0  0  0  0  0  0  0  0  0  0  0  0
  -23.3750  -30.4410   21.5560 C   0  0  0  0  0  3  0  0  0  0  0  0
  -24.8480  -28.8810   20.1740 C   0  0  0  0  0  0  0  0  0  0  0  0
  -25.8860  -30.8270   21.3640 C   0  0  0  0  0  2  0  0  0  0  0  0
  -25.9830  -29.4460   20.7630 C   0  0  0  0  0  0  0  0  0  0  0  0
  -27.1950  -28.7430   20.7860 C   0  0  0  0  0  3  0  0  0  0  0  0
  -26.1440  -26.8900   19.6110 C   0  0  0  0  0  3  0  0  0  0  0  0
  -24.9150  -27.5900   19.6120 C   0  0  0  0  0  3  0  0  0  0  0  0
  -23.5950  -29.7270   20.1920 C   0  0  0  0  0  2  0  0  0  0  0  0
  -24.6270  -31.0650   22.0960 N   0  0  0  0  0  0  0  0  0  0  0  0
  -23.4910  -32.1510   23.7260 O   0  0  0  0  0  0  0  0  0  0  0  0
  -22.7270  -29.4350   22.5310 C   0  0  0  0  0  0  0  0  0  0  0  0
  -21.4030  -29.2550   22.4040 N   0  0  0  0  0  0  0  0  0  0  0  0
  -23.4110  -28.8150   23.3510 O   0  0  0  0  0  0  0  0  0  0  0  0
  -20.9140  -29.8080   21.7130 H   0  0  0  0  0  0  0  0  0  0  0  0
  -18.0250  -28.0950   22.9170 C   0  0  0  0  0  0  0  0  0  0  0  0
  -20.5840  -28.3280   23.1800 C   0  0  0  0  0  3  0  0  0  0  0  0
  -20.6720  -26.8940   22.6080 C   0  0  0  0  0  2  0  0  0  0  0  0
  -19.5630  -26.5790   21.5980 C   0  0  0  0  0  2  0  0  0  0  0  0
  -18.1840  -26.7410   22.2460 C   0  0  0  0  0  2  0  0  0  0  0  0
  -19.1510  -28.8480   23.3410 C   0  0  0  0  0  0  0  0  0  0  0  0
  -18.9490  -30.1170   23.9240 C   0  0  0  0  0  3  0  0  0  0  0  0
  -17.6500  -30.6320   24.0920 C   0  0  0  0  0  3  0  0  0  0  0  0
  -16.5360  -29.8760   23.6870 C   0  0  0  0  0  3  0  0  0  0  0  0
  -16.7250  -28.6100   23.1030 C   0  0  0  0  0  3  0  0  0  0  0  0
  -25.8600  -32.5080   23.8110 C   0  0  0  0  0  3  0  0  0  0  0  0
  -26.4040  -31.7210   25.0660 C   0  0  1  0  0  0  0  0  0  0  0  0
  -25.3270  -31.4450   26.1390 C   0  0  0  0  0  1  0  0  0  0  0  0
  -27.0060  -30.3600   24.6380 C   0  0  0  0  0  1  0  0  0  0  0  0
  -27.5480  -32.5190   25.7340 C   0  0  0  0  0  1  0  0  0  0  0  0
  -25.5410  -33.8980   24.1620 N   0  0  0  0  0  0  0  0  0  0  0  0
  -25.8540  -34.9630   23.4120 C   0  0  0  0  0  0  0  0  0  0  0  0
  -26.5160  -34.8800   22.3740 O   0  0  0  0  0  0  0  0  0  0  0  0
  -24.9590  -34.0390   24.9740 H   0  0  0  0  0  0  0  0  0  0  0  0
  -24.0980  -36.7310   23.0930 C   0  0  0  0  0  1  0  0  0  0  0  0
  -25.3510  -36.3370   23.8900 C   0  0  0  0  0  3  0  0  0  0  0  0
  -27.4810  -37.2410   24.7110 C   0  0  0  0  0  1  0  0  0  0  0  0
  -26.3660  -37.4070   23.7820 N   0  0  0  0  0  0  0  0  0  0  0  0
  -25.9480  -38.3180   23.9480 H   0  0  0  0  0  0  0  0  0  0  0  0
  1  4  1  0
  2  5  2  0
  4  7  1  0
  4  3  2  0
  5  8  1  0
  5  3  1  0
  6  2  1  0
  6 57  1  0
  6  1  2  0
  9 11  1  0
 10 13  1  0
 10 12  1  0
 12 14  1  0
 13  3  1  0
 13  9  1  0
 14 27  1  0
 14 15  1  1
 14 11  1  0
 16 28  1  0
 17 22  1  0
 18 19  1  0
 18 17  1  0
 20 19  1  0
 20 32  1  0
 20 21  1  0
 22 16  1  0
 22 21  1  0
 23 16  2  0
 24 25  1  0
 26 28  1  0
 27 26  1  0
 27 24  1  0
 28 25  1  0
 29 30  2  0
 30 49  1  0
 31 30  1  0
 31 34  1  0
 32 33  1  0
 32 29  1  0
 33 31  2  0
 34 35  1  0
 35 36  2  0
 37 40  1  0
 37 36  1  0
 38 37  2  0
 39 38  1  0
 39 34  2  0
 40 41  1  0
 41 42  1  0
 42 43  2  0
 44 43  1  0
 44 48  1  0
 45 44  2  0
 46 41  2  0
 46 45  1  0
 47 46  1  0
 49 50  1  0
 50 53  1  0
 50 52  1  0
 51 49  2  0
 54 55  1  0
 54 29  1  0
 56 54  1  0
 57 58  1  0
 58 59  1  0
 59 60  1  0
 60 62  1  0
 61 72  2  0
 62 67  1  0
 63 71  1  0
 63 73  1  0
 64 70  1  0
 64 66  1  0
 65 71  1  0
 66 67  2  0
 66 65  1  0
 68 69  1  0
 68 62  2  0
 69 64  2  0
 70 63  1  0
 71 61  1  0
 73 75  2  0
 74 73  1  0
 76 74  1  0
 77 86  2  0
 77 82  1  0
 78 74  1  0
 78 82  1  0
 79 78  1  0
 80 81  1  0
 80 79  1  0
 81 77  1  0
 82 83  2  0
 83 84  1  0
 85 84  2  0
 86 85  1  0
 87 61  1  0
 87 92  1  0
 87 88  1  0
 88 91  1  1
 88 89  1  0
 90 88  1  0
 92 95  1  0
 93 97  1  0
 93 92  1  0
 94 93  2  0
 97 96  1  0
 99 97  1  0
 99100  1  0
 99 98  1  0
M  ISO  4  16 100  28 100  59 101  60 101
M  END
>  <TORSDO>  (96) 
F 20

>  <SCORE>  (96) 
-13.658

>  <name>  (96) 
96

>  <ligand_id>  (96) 
96

>  <original_smiles>  (96) 
[H]c1c([H])c([H])c2c(c1[H])C([H])([H])C([H])([H])C([H])([H])C2([H])N([H])C(=O)C1([H])N(C(=O)C([H])(N([H])C(=O)C([H])(N([H])C([H])([H])[H])C([H])([H])[H])C(C([H])([H])[H])(C([H])([H])[H])C([H])([H])[H])C([H])([H])c2c([H])c(OC([H])([H])C([H])([H])Oc3c([H])c(C([H])([H])[H])c(C4([H])C([H])([H])C([H])([H])[N+]([H])(C5([H])C([H])([H])N(C(=O)N6C([H])([H])C([H])([H])C([H])([H])C([H])(n7nc(-c8c([H])c([H])c(Oc9c([H])c([H])c(F)c([H])c9F)c([H])c8[H])c(C(=O)N([H])[H])c7N([H])[H])C6([H])[H])C([H])([H])C5([H])[H])C([H])([H])C4([H])[H])c(C([H])([H])[H])c3[H])c([H])c([H])c2C1([H])[H]

>  <smiles>  (96) 
[H]c1c([H])c([H])c2c(c1[H])C([H])([H])C([H])([H])C([H])([H])C2([H])N([H])C(=O)C1([H])N(C(=O)C([H])(N([H])C(=O)C([H])(N([H])C([H])([H])[H])C([H])([H])[H])C(C([H])([H])[H])(C([H])([H])[H])C([H])([H])[H])C([H])([H])c2c([H])c(OC([H])([H])C([H])([H])Oc3c([H])c(C([H])([H])[H])c(C4([H])C([H])([H])C([H])([H])[N+]([H])(C5([H])C([H])([H])N(C(=O)N6C([H])([H])C([H])([H])C([H])([H])C([H])(n7nc(-c8c([H])c([H])c(Oc9c([H])c([H])c(F)c([H])c9F)c([H])c8[H])c(C(=O)N([H])[H])c7N([H])[H])C6([H])[H])C([H])([H])C5([H])[H])C([H])([H])C4([H])[H])c(C([H])([H])[H])c3[H])c([H])c([H])c2C1([H])[H]

$$$$
