0:0:0
     RDKit          3D

 99110  0  0  1  0  0  0  0  0999 V2000
  -33.8810  -23.6810   21.6090 C   0  0  0  0  0  2  0  0  0  0  0  0
  -34.4640  -25.2100   19.6910 C   0  0  0  0  0  2  0  0  0  0  0  0
  -35.1880  -24.1100   22.3040 C   0  0  0  0  0  2  0  0  0  0  0  0
  -35.7590  -25.5850   20.4280 C   0  0  0  0  0  2  0  0  0  0  0  0
  -33.9750  -23.8080   20.0790 C   0  0  0  0  0  3  0  0  0  0  0  0
  -35.5800  -25.4860   21.9010 N   0  0  2  0  0  4  0  0  0  0  0  0
  -34.8070  -26.0860   22.1550 H   0  0  0  0  0  0  0  0  0  0  0  0
  -36.7370  -26.0130   22.6700 C   0  0  0  0  0  2  0  0  0  0  0  0
  -36.2780  -26.8070   23.9040 C   0  0  0  0  0  2  0  0  0  0  0  0
  -37.4270  -27.0910   24.7040 O   0  0  0  0  0  0  0  0  0  0  0  0
  -41.5270  -23.7460   19.9500 C   0  0  0  0  0  0  0  0  0  0  0  0
  -38.5030  -26.2630   24.4940 C   0  0  0  0  0  0  0  0  0  0  0  0
  -41.8760  -23.1020   22.3150 C   0  0  0  0  0  3  0  0  0  0  0  0
  -40.7240  -24.5830   24.0430 C   0  0  0  0  0  0  0  0  0  0  0  0
  -41.0140  -25.4300   21.7080 C   0  0  0  0  0  2  0  0  0  0  0  0
  -40.2720  -25.4350   23.0270 C   0  0  0  0  0  0  0  0  0  0  0  0
  -39.1550  -26.2690   23.2440 C   0  0  0  0  0  3  0  0  0  0  0  0
  -38.9510  -25.3850   25.5030 C   0  0  0  0  0  3  0  0  0  0  0  0
  -40.0600  -24.5470   25.2830 C   0  0  0  0  0  3  0  0  0  0  0  0
  -41.9330  -23.7300   23.7340 C   0  0  0  0  0  2  0  0  0  0  0  0
  -41.4460  -24.0840   21.2680 N   0  0  0  0  0  0  0  0  0  0  0  0
  -41.9910  -22.6530   19.5990 O   0  0  0  0  0  0  0  0  0  0  0  0
  -40.9860  -21.8410   22.3720 C   0  0  0  0  0  0  0  0  0  0  0  0
  -40.4220  -21.4550   21.2170 N   0  0  0  0  0  0  0  0  0  0  0  0
  -40.8380  -21.2180   23.4270 O   0  0  0  0  0  0  0  0  0  0  0  0
  -40.5880  -22.0210   20.3960 H   0  0  0  0  0  0  0  0  0  0  0  0
  -38.9710  -18.6090   22.9030 C   0  0  0  0  0  0  0  0  0  0  0  0
  -39.5780  -20.2760   21.0240 C   0  0  0  0  0  3  0  0  0  0  0  0
  -38.0800  -20.6590   21.0180 C   0  0  0  0  0  2  0  0  0  0  0  0
  -37.4250  -20.5500   22.3980 C   0  0  0  0  0  2  0  0  0  0  0  0
  -37.5390  -19.1190   22.9340 C   0  0  0  0  0  2  0  0  0  0  0  0
  -39.9310  -19.1640   22.0170 C   0  0  0  0  0  0  0  0  0  0  0  0
  -41.2560  -18.6790   22.0520 C   0  0  0  0  0  3  0  0  0  0  0  0
  -41.6280  -17.6610   22.9500 C   0  0  0  0  0  3  0  0  0  0  0  0
  -40.6690  -17.1030   23.8130 C   0  0  0  0  0  3  0  0  0  0  0  0
  -39.3430  -17.5740   23.7850 C   0  0  0  0  0  3  0  0  0  0  0  0
  -41.0650  -24.7220   18.8230 C   0  0  0  0  0  3  0  0  0  0  0  0
  -42.0350  -24.6210   17.7250 N   0  0  0  0  0  0  0  0  0  0  0  0
  -42.8650  -25.6050   17.3530 C   0  0  0  0  0  0  0  0  0  0  0  0
  -42.8420  -26.7290   17.8600 O   0  0  0  0  0  0  0  0  0  0  0  0
  -42.1520  -23.7110   17.3070 H   0  0  0  0  0  0  0  0  0  0  0  0
  -45.0850  -24.5380   16.8400 C   0  0  0  0  0  1  0  0  0  0  0  0
  -43.8860  -25.2890   16.2420 C   0  0  0  0  0  3  0  0  0  0  0  0
  -43.3190  -27.1330   14.7240 C   0  0  0  0  0  1  0  0  0  0  0  0
  -44.3600  -26.4890   15.5190 N   0  0  0  0  0  0  0  0  0  0  0  0
  -45.1320  -26.2540   14.8990 H   0  0  0  0  0  0  0  0  0  0  0  0
  -39.6030  -24.4290   18.3050 C   0  0  1  0  0  0  0  0  0  0  0  0
  -39.5090  -23.1900   17.3840 C   0  0  0  0  0  1  0  0  0  0  0  0
  -38.6370  -24.2090   19.4930 C   0  0  0  0  0  1  0  0  0  0  0  0
  -39.0690  -25.6500   17.5210 C   0  0  0  0  0  1  0  0  0  0  0  0
  -32.6590  -23.6840   19.5400 O   0  0  0  0  0  0  0  0  0  0  0  0
  -31.2900  -25.4040   18.6510 C   0  0  0  0  0  3  0  0  0  0  0  0
  -32.4810  -24.9970   16.2200 C   0  0  0  0  0  3  0  0  0  0  0  0
  -30.9050  -26.2360   17.5900 C   0  0  0  0  0  0  0  0  0  0  0  0
  -31.5390  -26.0470   16.3400 C   0  0  0  0  0  0  0  0  0  0  0  0
  -32.2590  -24.4170   18.4460 C   0  0  0  0  0  0  0  0  0  0  0  0
  -32.8360  -24.1990   17.2460 N   0  0  0  0  0  0  0  0  0  0  0  0
  -30.0230  -27.4580   15.0260 C   0  0  0  0  0  3  0  0  0  0  0  0
  -28.2620  -27.6780   13.3140 C   0  0  0  0  0  2  0  0  0  0  0  0
  -27.3620  -26.4260   13.3360 C   0  0  0  0  0  2  0  0  0  0  0  0
  -27.9520  -25.3020   12.4590 C   0  0  0  0  0  2  0  0  0  0  0  0
  -29.4510  -25.0400   12.7600 C   0  0  0  0  0  3  0  0  0  0  0  0
  -30.2350  -26.3710   12.7630 C   0  0  0  0  0  2  0  0  0  0  0  0
  -29.6100  -27.2830   13.7450 N   0  0  0  0  0  0  0  0  0  0  0  0
  -29.3680  -28.0590   15.8810 O   0  0  0  0  0  0  0  0  0  0  0  0
  -31.2350  -26.9430   15.2810 N   0  0  0  0  0  0  0  0  0  0  0  0
  -31.7600  -26.7750   14.4370 H   0  0  0  0  0  0  0  0  0  0  0  0
  -29.6310  -23.7620   10.5260 C   0  0  0  0  0  0  0  0  0  0  0  0
  -30.5420  -22.8470   10.0680 C   0  0  0  0  0  0  0  0  0  0  0  0
  -31.4770  -22.6560   11.1290 C   0  0  0  0  0  0  0  0  0  0  0  0
  -30.0260  -24.0790   11.8190 N   0  0  0  0  0  0  0  0  0  0  0  0
  -31.1190  -23.3670   12.1920 N   0  0  0  0  0  0  0  0  0  0  0  0
  -32.7260  -21.8830   11.1760 C   0  0  0  0  0  0  0  0  0  0  0  0
  -33.3180  -21.5110   12.4030 C   0  0  0  0  0  3  0  0  0  0  0  0
  -34.5100  -20.7550   12.4230 C   0  0  0  0  0  3  0  0  0  0  0  0
  -35.1180  -20.3590   11.2090 C   0  0  0  0  0  0  0  0  0  0  0  0
  -34.5360  -20.7500    9.9900 C   0  0  0  0  0  3  0  0  0  0  0  0
  -33.3540  -21.5070    9.9710 C   0  0  0  0  0  3  0  0  0  0  0  0
  -36.2900  -19.6450   11.1320 O   0  0  0  0  0  0  0  0  0  0  0  0
  -36.9690  -19.2510   12.2570 C   0  0  0  0  0  0  0  0  0  0  0  0
  -36.4260  -18.3160   13.1660 C   0  0  0  0  0  3  0  0  0  0  0  0
  -37.1870  -17.8870   14.2720 C   0  0  0  0  0  3  0  0  0  0  0  0
  -38.4910  -18.3820   14.4660 C   0  0  0  0  0  0  0  0  0  0  0  0
  -39.0350  -19.3070   13.5580 C   0  0  0  0  0  3  0  0  0  0  0  0
  -38.2760  -19.7390   12.4570 C   0  0  0  0  0  0  0  0  0  0  0  0
  -38.8140  -20.6150   11.5730 F   0  0  0  0  0  0  0  0  0  0  0  0
  -39.2240  -17.9640   15.5230 F   0  0  0  0  0  0  0  0  0  0  0  0
  -30.6000  -22.2560    8.6870 C   0  0  0  0  0  0  0  0  0  0  0  0
  -30.7500  -20.9410    8.5870 N   0  0  0  0  0  0  0  0  0  0  0  0
  -30.4630  -22.9580    7.6850 O   0  0  0  0  0  0  0  0  0  0  0  0
  -30.8400  -20.3590    9.4070 H   0  0  0  0  0  0  0  0  0  0  0  0
  -30.7760  -20.5070    7.6740 H   0  0  0  0  0  0  0  0  0  0  0  0
  -28.5170  -24.3620    9.9490 N   0  0  0  0  0  0  0  0  0  0  0  0
  -28.2480  -24.1860    8.9870 H   0  0  0  0  0  0  0  0  0  0  0  0
  -27.9570  -25.0790   10.3920 H   0  0  0  0  0  0  0  0  0  0  0  0
  -28.6900  -27.0870   18.7310 C   0  0  0  0  0  2  0  0  0  0  0  0
  -29.8850  -27.3100   17.8330 C   0  0  0  0  0  3  0  0  0  0  0  0
  -28.5000  -27.2180   17.2370 C   0  0  0  0  0  3  0  0  0  0  0  0
  -27.8390  -28.4420   16.6390 C   0  0  0  0  0  2  0  0  0  0  0  0
  1  3  1  0
  2  5  1  0
  2  4  1  0
  4  6  1  0
  5 51  1  0
  5  1  1  0
  6  7  1  1
  6  3  1  0
  6  8  1  0
  8  9  1  0
  9 10  1  0
 11 21  1  0
 12 10  1  0
 12 18  1  0
 13 23  1  0
 13 20  1  0
 14 19  1  0
 15 16  1  0
 16 17  1  0
 16 14  2  0
 17 12  2  0
 19 18  2  0
 20 14  1  0
 21 15  1  0
 21 13  1  0
 22 11  2  0
 23 25  2  0
 24 23  1  0
 26 24  1  0
 27 31  1  0
 27 36  1  0
 28 24  1  0
 28 32  1  0
 29 28  1  0
 29 30  1  0
 30 31  1  0
 32 33  1  0
 32 27  2  0
 33 34  2  0
 34 35  1  0
 36 35  2  0
 37 11  1  0
 38 37  1  0
 39 38  1  0
 39 40  2  0
 41 38  1  0
 43 42  1  0
 43 39  1  0
 44 45  1  0
 45 43  1  0
 46 45  1  0
 47 37  1  0
 47 49  1  1
 48 47  1  0
 50 47  1  0
 53 55  2  0
 53 57  1  0
 54 97  1  0
 54 52  2  0
 55 54  1  0
 56 52  1  0
 56 51  1  0
 57 56  2  0
 58 66  1  0
 58 65  1  0
 59 60  1  0
 59 64  1  0
 61 62  1  0
 61 60  1  0
 62 71  1  0
 62 63  1  0
 64 63  1  0
 64 58  1  0
 65 99  1  0
 66 55  1  0
 67 66  1  0
 68 71  1  0
 69 68  2  0
 69 70  1  0
 70 73  1  0
 70 72  2  0
 71 72  1  0
 73 74  1  0
 74 75  2  0
 76 75  1  0
 77 76  2  0
 78 77  1  0
 78 73  2  0
 79 76  1  0
 79 80  1  0
 80 85  2  0
 80 81  1  0
 81 82  2  0
 82 83  1  0
 83 87  1  0
 84 83  2  0
 85 84  1  0
 86 85  1  0
 88 69  1  0
 89 88  1  0
 89 91  1  0
 90 88  2  0
 92 89  1  0
 93 95  1  0
 93 68  1  0
 94 93  1  0
 97 96  1  0
 98 99  1  0
 98 97  1  0
 98 96  1  0
M  ISO  4   9 101  10 101  58 100  66 100
M  END
>  <TORSDO>  (1) 
F 21

>  <SCORE>  (1) 
2.655

>  <name>  (1) 
0

>  <ligand_id>  (1) 
0

>  <original_smiles>  (1) 
[H]c1nc(OC2([H])C([H])([H])C([H])([H])[N+]([H])(C([H])([H])C([H])([H])Oc3c([H])c([H])c4c(c3[H])C([H])([H])N(C(=O)C([H])(N([H])C(=O)C([H])(N([H])C([H])([H])[H])C([H])([H])[H])C(C([H])([H])[H])(C([H])([H])[H])C([H])([H])[H])C([H])(C(=O)N([H])C3([H])c5c([H])c([H])c([H])c([H])c5C([H])([H])C([H])([H])C3([H])[H])C4([H])[H])C([H])([H])C2([H])[H])c([H])c(C2([H])C([H])([H])C2([H])C([H])([H])[H])c1N([H])C(=O)N1C([H])([H])C([H])([H])C([H])([H])C([H])(n2nc(-c3c([H])c([H])c(Oc4c([H])c([H])c(F)c([H])c4F)c([H])c3[H])c(C(=O)N([H])[H])c2N([H])[H])C1([H])[H]

>  <smiles>  (1) 
[H]c1nc(OC2([H])C([H])([H])C([H])([H])[N+]([H])(C([H])([H])C([H])([H])Oc3c([H])c([H])c4c(c3[H])C([H])([H])N(C(=O)C([H])(N([H])C(=O)C([H])(N([H])C([H])([H])[H])C([H])([H])[H])C(C([H])([H])[H])(C([H])([H])[H])C([H])([H])[H])C([H])(C(=O)N([H])C3([H])c5c([H])c([H])c([H])c([H])c5C([H])([H])C([H])([H])C3([H])[H])C4([H])[H])C([H])([H])C2([H])[H])c([H])c(C2([H])C([H])([H])C2([H])C([H])([H])[H])c1N([H])C(=O)N1C([H])([H])C([H])([H])C([H])([H])C([H])(n2nc(-c3c([H])c([H])c(Oc4c([H])c([H])c(F)c([H])c4F)c([H])c3[H])c(C(=O)N([H])[H])c2N([H])[H])C1([H])[H]

$$$$
1:0:0
     RDKit          3D

107117  0  0  1  0  0  0  0  0999 V2000
  -32.5930  -18.6560   21.3210 C   0  0  0  0  0  3  0  0  0  0  0  0
  -32.2500  -17.2940   21.3820 C   0  0  0  0  0  3  0  0  0  0  0  0
  -31.7120  -18.7730   19.0630 C   0  0  0  0  0  3  0  0  0  0  0  0
  -32.3230  -19.4040   20.1630 C   0  0  0  0  0  0  0  0  0  0  0  0
  -31.3810  -17.3960   19.0970 C   0  0  0  0  0  0  0  0  0  0  0  0
  -31.6560  -16.6380   20.2750 C   0  0  0  0  0  0  0  0  0  0  0  0
  -31.8120  -14.2270   19.6730 C   0  0  0  0  0  0  0  0  0  0  0  0
  -31.3150  -11.9880   18.7660 C   0  0  0  0  0  2  0  0  0  0  0  0
  -30.3130  -12.1080   17.6020 C   0  0  0  0  0  2  0  0  0  0  0  0
  -28.8600  -12.1130   18.1200 C   0  0  0  0  0  2  0  0  0  0  0  0
  -28.6460  -13.1130   19.2870 C   0  0  0  0  0  3  0  0  0  0  0  0
  -29.7490  -12.9360   20.3560 C   0  0  0  0  0  2  0  0  0  0  0  0
  -31.0600  -13.0940   19.7000 N   0  0  0  0  0  0  0  0  0  0  0  0
  -32.8530  -14.3190   19.0180 O   0  0  0  0  0  0  0  0  0  0  0  0
  -31.2970  -15.2580   20.3680 N   0  0  0  0  0  0  0  0  0  0  0  0
  -30.4510  -15.0270   20.8600 H   0  0  0  0  0  0  0  0  0  0  0  0
  -26.3820  -13.9700   20.1750 C   0  0  0  0  0  0  0  0  0  0  0  0
  -25.2670  -13.3150   20.6180 C   0  0  0  0  0  0  0  0  0  0  0  0
  -25.5680  -11.9230   20.5320 C   0  0  0  0  0  0  0  0  0  0  0  0
  -27.3050  -12.9860   19.8570 N   0  0  0  0  0  0  0  0  0  0  0  0
  -26.8190  -11.7480   20.1250 N   0  0  0  0  0  0  0  0  0  0  0  0
  -24.7210  -10.7460   20.7580 C   0  0  0  0  0  0  0  0  0  0  0  0
  -25.0390   -9.7860   21.7430 C   0  0  0  0  0  3  0  0  0  0  0  0
  -24.1980   -8.6730   21.9550 C   0  0  0  0  0  3  0  0  0  0  0  0
  -23.0240   -8.5120   21.1820 C   0  0  0  0  0  0  0  0  0  0  0  0
  -22.7240   -9.4590   20.1860 C   0  0  0  0  0  3  0  0  0  0  0  0
  -23.5660  -10.5640   19.9720 C   0  0  0  0  0  3  0  0  0  0  0  0
  -22.1630   -7.4490   21.3000 O   0  0  0  0  0  0  0  0  0  0  0  0
  -21.9020   -6.8650   22.5140 C   0  0  0  0  0  0  0  0  0  0  0  0
  -21.4200   -7.6120   23.6110 C   0  0  0  0  0  3  0  0  0  0  0  0
  -21.1010   -6.9600   24.8190 C   0  0  0  0  0  3  0  0  0  0  0  0
  -21.2540   -5.5650   24.9290 C   0  0  0  0  0  0  0  0  0  0  0  0
  -21.7290   -4.8200   23.8360 C   0  0  0  0  0  3  0  0  0  0  0  0
  -22.0500   -5.4690   22.6310 C   0  0  0  0  0  0  0  0  0  0  0  0
  -22.4880   -4.7430   21.5730 F   0  0  0  0  0  0  0  0  0  0  0  0
  -20.9400   -4.9380   26.0870 F   0  0  0  0  0  0  0  0  0  0  0  0
  -23.9560  -13.9420   20.9970 C   0  0  0  0  0  0  0  0  0  0  0  0
  -23.2310  -13.3320   21.9280 N   0  0  0  0  0  0  0  0  0  0  0  0
  -23.5920  -15.0070   20.5010 O   0  0  0  0  0  0  0  0  0  0  0  0
  -23.5380  -12.4670   22.3490 H   0  0  0  0  0  0  0  0  0  0  0  0
  -22.3520  -13.7340   22.2240 H   0  0  0  0  0  0  0  0  0  0  0  0
  -26.6770  -15.3160   19.9930 N   0  0  0  0  0  0  0  0  0  0  0  0
  -25.8380  -15.8890   19.9890 H   0  0  0  0  0  0  0  0  0  0  0  0
  -27.2360  -15.5040   19.1720 H   0  0  0  0  0  0  0  0  0  0  0  0
  -32.6680  -20.8840   20.1160 C   0  0  0  0  0  2  0  0  0  0  0  0
  -33.1070  -21.3730   18.7200 C   0  0  0  0  0  2  0  0  0  0  0  0
  -32.0540  -22.1660   17.9180 C   0  0  0  0  0  2  0  0  0  0  0  0
  -31.2150  -23.0310   18.7860 N   0  0  0  0  0  4  0  0  0  0  0  0
  -31.7710  -23.3090   19.5800 H   0  0  0  0  0  0  0  0  0  0  0  0
  -30.4400  -22.4890   19.1350 H   0  0  0  0  0  0  0  0  0  0  0  0
  -30.7030  -24.2640   18.1360 C   0  0  0  0  0  2  0  0  0  0  0  0
  -29.8030  -25.0930   19.0740 C   0  0  0  0  0  2  0  0  0  0  0  0
  -29.6650  -26.4140   18.5530 O   0  0  0  0  0  0  0  0  0  0  0  0
  -25.7310  -30.0850   23.2070 C   0  0  0  0  0  0  0  0  0  0  0  0
  -28.4760  -27.0450   18.8210 C   0  0  0  0  0  0  0  0  0  0  0  0
  -24.5770  -29.3960   21.1290 C   0  0  0  0  0  3  0  0  0  0  0  0
  -26.0750  -28.4480   19.2950 C   0  0  0  0  0  0  0  0  0  0  0  0
  -27.1050  -29.7710   21.1530 C   0  0  0  0  0  2  0  0  0  0  0  0
  -27.2100  -28.7180   20.0700 C   0  0  0  0  0  0  0  0  0  0  0  0
  -28.4160  -28.0270   19.8300 C   0  0  0  0  0  3  0  0  0  0  0  0
  -27.3270  -26.7710   18.0500 C   0  0  0  0  0  3  0  0  0  0  0  0
  -26.1270  -27.4720   18.2830 C   0  0  0  0  0  3  0  0  0  0  0  0
  -24.8320  -29.2510   19.6030 C   0  0  0  0  0  2  0  0  0  0  0  0
  -25.8210  -29.7420   21.8910 N   0  0  0  0  0  0  0  0  0  0  0  0
  -24.6340  -30.1590   23.7760 O   0  0  0  0  0  0  0  0  0  0  0  0
  -23.8910  -28.1080   21.6330 C   0  0  0  0  0  0  0  0  0  0  0  0
  -22.5740  -28.0010   21.3940 N   0  0  0  0  0  0  0  0  0  0  0  0
  -24.5400  -27.2240   22.1970 O   0  0  0  0  0  0  0  0  0  0  0  0
  -22.1120  -28.7730   20.9330 H   0  0  0  0  0  0  0  0  0  0  0  0
  -19.1770  -26.7720   21.3200 C   0  0  0  0  0  0  0  0  0  0  0  0
  -21.7250  -26.8600   21.7390 C   0  0  0  0  0  3  0  0  0  0  0  0
  -21.8370  -25.7420   20.6770 C   0  0  0  0  0  2  0  0  0  0  0  0
  -20.7680  -25.8360   19.5860 C   0  0  0  0  0  2  0  0  0  0  0  0
  -19.3650  -25.7620   20.1990 C   0  0  0  0  0  2  0  0  0  0  0  0
  -20.2860  -27.2980   22.0330 C   0  0  0  0  0  0  0  0  0  0  0  0
  -20.0610  -28.2600   23.0410 C   0  0  0  0  0  3  0  0  0  0  0  0
  -18.7560  -28.6920   23.3430 C   0  0  0  0  0  3  0  0  0  0  0  0
  -17.6590  -28.1570   22.6470 C   0  0  0  0  0  3  0  0  0  0  0  0
  -17.8690  -27.1960   21.6420 C   0  0  0  0  0  3  0  0  0  0  0  0
  -26.9980  -30.4270   24.0530 C   0  0  0  0  0  3  0  0  0  0  0  0
  -26.7150  -31.6620   24.7960 N   0  0  0  0  0  0  0  0  0  0  0  0
  -27.1710  -32.8750   24.4560 C   0  0  0  0  0  0  0  0  0  0  0  0
  -27.9430  -33.0600   23.5120 O   0  0  0  0  0  0  0  0  0  0  0  0
  -26.0480  -31.5930   25.5510 H   0  0  0  0  0  0  0  0  0  0  0  0
  -25.5630  -34.8060   24.5570 C   0  0  0  0  0  1  0  0  0  0  0  0
  -26.6930  -34.0740   25.2980 C   0  0  0  0  0  3  0  0  0  0  0  0
  -28.7600  -34.4850   26.5590 C   0  0  0  0  0  1  0  0  0  0  0  0
  -27.7740  -35.0290   25.6280 N   0  0  0  0  0  0  0  0  0  0  0  0
  -27.3900  -35.8790   26.0330 H   0  0  0  0  0  0  0  0  0  0  0  0
  -27.4180  -29.2670   25.0390 C   0  0  1  0  0  0  0  0  0  0  0  0
  -26.2610  -28.7580   25.9290 C   0  0  0  0  0  1  0  0  0  0  0  0
  -27.9750  -28.0600   24.2470 C   0  0  0  0  0  1  0  0  0  0  0  0
  -28.5560  -29.7530   25.9670 C   0  0  0  0  0  1  0  0  0  0  0  0
  -30.7600  -16.7720   17.8370 C   0  0  0  0  0  3  0  0  0  0  0  0
  -29.4910  -17.4330   17.4230 N   0  0  0  0  0  4  0  0  0  0  0  0
  -29.6960  -18.1440   16.7410 H   0  0  0  0  0  0  0  0  0  0  0  0
  -28.9490  -16.7270   16.9490 H   0  0  0  0  0  0  0  0  0  0  0  0
  -27.9140  -16.9930   19.3470 C   0  0  0  0  0  2  0  0  0  0  0  0
  -27.1590  -17.6810   18.2350 C   0  0  0  0  0  2  0  0  0  0  0  0
  -28.6160  -18.0230   18.4780 C   0  0  2  0  0  0  0  0  0  0  0  0
  -29.0450  -20.4180   17.7330 C   0  0  0  0  0  1  0  0  0  0  0  0
  -28.1210  -20.0160   20.0420 C   0  0  0  0  0  1  0  0  0  0  0  0
  -29.0120  -19.4440   18.9230 C   0  0  0  0  0  3  0  0  0  0  0  0
  -31.7740  -16.7340   16.6590 C   0  0  0  0  0  2  0  0  0  0  0  0
  -33.9710  -15.3980   17.3470 C   0  0  0  0  0  2  0  0  0  0  0  0
  -34.3060  -16.2310   16.1310 C   0  0  0  0  0  2  0  0  0  0  0  0
  -33.2360  -16.6940   17.0900 C   0  0  0  0  0  3  0  0  0  0  0  0
  1  2  1  0
  3  5  2  0
  3  4  1  0
  4  1  2  0
  5  6  1  0
  6 15  1  0
  6  2  2  0
  7 13  1  0
  7 15  1  0
  8 13  1  0
  9 10  1  0
  9  8  1  0
 11 10  1  0
 11 20  1  0
 11 12  1  0
 13 12  1  0
 14  7  2  0
 15 16  1  0
 17 18  2  0
 18 37  1  0
 19 18  1  0
 19 22  1  0
 20 21  1  0
 20 17  1  0
 21 19  2  0
 22 23  1  0
 23 24  2  0
 25 28  1  0
 25 24  1  0
 26 25  2  0
 27 26  1  0
 27 22  2  0
 28 29  1  0
 29 34  2  0
 29 30  1  0
 30 31  2  0
 31 32  1  0
 32 36  1  0
 33 32  2  0
 34 33  1  0
 35 34  1  0
 37 38  1  0
 38 41  1  0
 38 40  1  0
 39 37  2  0
 42 17  1  0
 43 42  1  0
 44 42  1  0
 45  4  1  0
 46 45  1  0
 47 46  1  0
 47 48  1  0
 48 50  1  0
 48 49  1  0
 51 48  1  0
 51 52  1  0
 53 55  1  0
 53 52  1  0
 54 65  2  0
 55 60  1  0
 56 66  1  0
 56 64  1  0
 57 63  1  0
 57 59  1  0
 58 64  1  0
 59 58  1  0
 60 59  2  0
 61 62  1  0
 61 55  2  0
 62 57  2  0
 63 56  1  0
 64 54  1  0
 66 68  2  0
 67 66  1  0
 69 67  1  0
 70 79  2  0
 70 75  1  0
 71 67  1  0
 71 75  1  0
 72 71  1  0
 73 74  1  0
 73 72  1  0
 74 70  1  0
 75 76  2  0
 76 77  1  0
 78 77  2  0
 79 78  1  0
 80 54  1  0
 80 81  1  0
 80 90  1  0
 81 84  1  0
 82 81  1  0
 82 86  1  0
 83 82  2  0
 86 85  1  0
 86 88  1  0
 88 89  1  0
 88 87  1  0
 90 91  1  1
 90 93  1  0
 92 90  1  0
 94104  1  0
 94  5  1  0
 95 94  1  0
 95100  1  0
 96 95  1  0
 97 95  1  0
 99100  1  0
 99 98  1  0
100103  1  1
100 98  1  0
101103  1  0
103102  1  0
104107  1  0
106107  1  0
106105  1  0
107105  1  0
M  ISO  4   7 100  15 100  52 101  53 101
M  END
>  <TORSDO>  (2) 
F 28

>  <SCORE>  (2) 
-6.699

>  <name>  (2) 
1

>  <ligand_id>  (2) 
1

>  <original_smiles>  (2) 
[H]c1c([H])c([H])c2c(c1[H])C([H])([H])C([H])([H])C([H])([H])C2([H])N([H])C(=O)C1([H])N(C(=O)C([H])(N([H])C(=O)C([H])(N([H])C([H])([H])[H])C([H])([H])[H])C(C([H])([H])[H])(C([H])([H])[H])C([H])([H])[H])C([H])([H])c2c([H])c(OC([H])([H])C([H])([H])[N+]([H])([H])C([H])([H])C([H])([H])C([H])([H])c3c([H])c([H])c(N([H])C(=O)N4C([H])([H])C([H])([H])C([H])([H])C([H])(n5nc(-c6c([H])c([H])c(Oc7c([H])c([H])c(F)c([H])c7F)c([H])c6[H])c(C(=O)N([H])[H])c5N([H])[H])C4([H])[H])c(C([H])(C([H])([H])C4([H])C([H])([H])C4([H])[H])[N+]([H])([H])C4(C([H])(C([H])([H])[H])C([H])([H])[H])C([H])([H])C4([H])[H])c3[H])c([H])c([H])c2C1([H])[H]

>  <smiles>  (2) 
[H]c1c([H])c([H])c2c(c1[H])C([H])([H])C([H])([H])C([H])([H])C2([H])N([H])C(=O)C1([H])N(C(=O)C([H])(N([H])C(=O)C([H])(N([H])C([H])([H])[H])C([H])([H])[H])C(C([H])([H])[H])(C([H])([H])[H])C([H])([H])[H])C([H])([H])c2c([H])c(OC([H])([H])C([H])([H])[N+]([H])([H])C([H])([H])C([H])([H])C([H])([H])c3c([H])c([H])c(N([H])C(=O)N4C([H])([H])C([H])([H])C([H])([H])C([H])(n5nc(-c6c([H])c([H])c(Oc7c([H])c([H])c(F)c([H])c7F)c([H])c6[H])c(C(=O)N([H])[H])c5N([H])[H])C4([H])[H])c(C([H])(C([H])([H])C4([H])C([H])([H])C4([H])[H])[N+]([H])([H])C4(C([H])(C([H])([H])[H])C([H])([H])[H])C([H])([H])C4([H])[H])c3[H])c([H])c([H])c2C1([H])[H]

$$$$
2:0:0
     RDKit          3D

 93102  0  0  1  0  0  0  0  0999 V2000
  -29.0310  -22.7440   18.2110 C   0  0  0  0  0  3  0  0  0  0  0  0
  -28.4310  -22.9850   19.4670 C   0  0  0  0  0  0  0  0  0  0  0  0
  -28.5900  -21.6800   20.2980 C   0  0  0  0  0  0  0  0  0  0  0  0
  -29.6250  -21.4980   17.8520 C   0  0  0  0  0  0  0  0  0  0  0  0
  -29.2520  -20.3320   19.8870 C   0  0  0  0  0  0  0  0  0  0  0  0
  -30.2080  -21.3480   16.4620 C   0  0  0  0  0  1  0  0  0  0  0  0
  -29.7280  -20.3750   18.6240 N   0  0  0  0  0  0  0  0  0  0  0  0
  -28.0040  -21.7440   21.6970 C   0  0  0  0  0  2  0  0  0  0  0  0
  -26.5480  -22.2310   21.6890 C   0  0  0  0  0  2  0  0  0  0  0  0
  -26.6330  -24.8440   21.9360 C   0  0  0  0  0  2  0  0  0  0  0  0
  -25.2140  -24.4290   22.2580 C   0  0  0  0  0  2  0  0  0  0  0  0
  -26.3570  -23.4800   22.5260 C   0  0  0  0  0  3  0  0  0  0  0  0
  -27.5260  -24.5030   19.6770 C   0  0  0  0  0  2  0  0  0  0  0  0
  -27.6310  -26.0740   19.1140 O   0  0  0  0  0  0  0  0  0  0  0  0
  -24.7040  -31.8540   23.1580 C   0  0  0  0  0  0  0  0  0  0  0  0
  -26.6860  -27.2200   19.3670 C   0  0  0  0  0  0  0  0  0  0  0  0
  -23.2820  -30.7010   21.5140 C   0  0  0  0  0  3  0  0  0  0  0  0
  -24.4960  -29.2080   19.7810 C   0  0  0  0  0  0  0  0  0  0  0  0
  -25.8310  -30.8190   21.1170 C   0  0  0  0  0  2  0  0  0  0  0  0
  -25.7640  -29.4860   20.3070 C   0  0  0  0  0  0  0  0  0  0  0  0
  -26.8520  -28.5210   20.0720 C   0  0  0  0  0  3  0  0  0  0  0  0
  -25.3870  -27.1100   18.8200 C   0  0  0  0  0  3  0  0  0  0  0  0
  -24.3340  -28.0430   19.0150 C   0  0  0  0  0  3  0  0  0  0  0  0
  -23.3390  -30.1710   20.0560 C   0  0  0  0  0  2  0  0  0  0  0  0
  -24.6350  -31.1460   21.9830 N   0  0  0  0  0  0  0  0  0  0  0  0
  -23.6900  -32.1220   23.8220 O   0  0  0  0  0  0  0  0  0  0  0  0
  -22.6400  -29.6310   22.4350 C   0  0  0  0  0  0  0  0  0  0  0  0
  -21.3080  -29.4490   22.3500 N   0  0  0  0  0  0  0  0  0  0  0  0
  -23.3470  -28.9640   23.1940 O   0  0  0  0  0  0  0  0  0  0  0  0
  -20.7880  -30.0400   21.7160 H   0  0  0  0  0  0  0  0  0  0  0  0
  -17.9840  -28.0770   22.8370 C   0  0  0  0  0  0  0  0  0  0  0  0
  -20.5330  -28.4440   23.0860 C   0  0  0  0  0  3  0  0  0  0  0  0
  -20.6890  -27.0450   22.4450 C   0  0  0  0  0  2  0  0  0  0  0  0
  -19.5900  -26.7210   21.4280 C   0  0  0  0  0  2  0  0  0  0  0  0
  -18.2120  -26.7730   22.0910 C   0  0  0  0  0  2  0  0  0  0  0  0
  -19.0720  -28.8690   23.2880 C   0  0  0  0  0  0  0  0  0  0  0  0
  -18.8030  -30.0870   23.9490 C   0  0  0  0  0  3  0  0  0  0  0  0
  -17.4790  -30.5170   24.1580 C   0  0  0  0  0  3  0  0  0  0  0  0
  -16.4050  -29.7230   23.7170 C   0  0  0  0  0  3  0  0  0  0  0  0
  -16.6580  -28.5040   23.0640 C   0  0  0  0  0  3  0  0  0  0  0  0
  -26.0620  -32.3740   23.7200 C   0  0  0  0  0  3  0  0  0  0  0  0
  -25.8270  -33.6950   24.3310 N   0  0  0  0  0  0  0  0  0  0  0  0
  -26.1370  -34.8700   23.7660 C   0  0  0  0  0  0  0  0  0  0  0  0
  -26.7120  -34.9530   22.6780 O   0  0  0  0  0  0  0  0  0  0  0  0
  -25.3100  -33.7030   25.1980 H   0  0  0  0  0  0  0  0  0  0  0  0
  -24.4820  -36.7640   23.9010 C   0  0  0  0  0  1  0  0  0  0  0  0
  -25.7480  -36.1560   24.5250 C   0  0  0  0  0  3  0  0  0  0  0  0
  -27.9720  -36.7830   25.3650 C   0  0  0  0  0  1  0  0  0  0  0  0
  -26.8230  -37.1740   24.5510 N   0  0  0  0  0  0  0  0  0  0  0  0
  -26.4720  -38.0600   24.9040 H   0  0  0  0  0  0  0  0  0  0  0  0
  -26.7090  -31.3970   24.7790 C   0  0  1  0  0  0  0  0  0  0  0  0
  -25.7500  -30.9970   25.9250 C   0  0  0  0  0  1  0  0  0  0  0  0
  -27.1960  -30.0940   24.1050 C   0  0  0  0  0  1  0  0  0  0  0  0
  -27.9570  -32.0590   25.4090 C   0  0  0  0  0  1  0  0  0  0  0  0
  -29.7340  -18.8550   20.7420 C   0  0  0  0  0  2  0  0  0  0  0  0
  -30.5180  -15.9510   20.6800 C   0  0  0  0  0  0  0  0  0  0  0  0
  -30.7590  -13.4210   20.0560 C   0  0  0  0  0  2  0  0  0  0  0  0
  -29.9810  -12.9790   18.7900 C   0  0  0  0  0  2  0  0  0  0  0  0
  -28.5200  -12.6370   19.1320 C   0  0  0  0  0  2  0  0  0  0  0  0
  -27.8920  -13.6780   20.0900 C   0  0  0  0  0  3  0  0  0  0  0  0
  -28.8130  -14.0500   21.2700 C   0  0  0  0  0  2  0  0  0  0  0  0
  -30.0450  -14.6010   20.6760 N   0  0  0  0  0  0  0  0  0  0  0  0
  -31.7580  -16.0010   20.6670 O   0  0  0  0  0  0  0  0  0  0  0  0
  -29.6770  -17.1800   20.5150 N   0  0  0  0  0  0  0  0  0  0  0  0
  -28.7230  -16.9040   20.3430 H   0  0  0  0  0  0  0  0  0  0  0  0
  -25.4670  -14.1570   20.7010 C   0  0  0  0  0  0  0  0  0  0  0  0
  -24.4040  -13.3470   20.9880 C   0  0  0  0  0  0  0  0  0  0  0  0
  -24.9110  -12.0110   20.9710 C   0  0  0  0  0  0  0  0  0  0  0  0
  -26.5470  -13.3160   20.5140 N   0  0  0  0  0  0  0  0  0  0  0  0
  -26.2200  -12.0170   20.7470 N   0  0  0  0  0  0  0  0  0  0  0  0
  -24.2070  -10.7270   21.0930 C   0  0  0  0  0  0  0  0  0  0  0  0
  -24.6160   -9.7460   22.0220 C   0  0  0  0  0  3  0  0  0  0  0  0
  -23.9100   -8.5290   22.1360 C   0  0  0  0  0  3  0  0  0  0  0  0
  -22.7800   -8.2850   21.3200 C   0  0  0  0  0  0  0  0  0  0  0  0
  -22.3910   -9.2550   20.3800 C   0  0  0  0  0  3  0  0  0  0  0  0
  -23.0990  -10.4630   20.2640 C   0  0  0  0  0  3  0  0  0  0  0  0
  -22.0470   -7.1230   21.3460 O   0  0  0  0  0  0  0  0  0  0  0  0
  -21.9510   -6.3560   22.4790 C   0  0  0  0  0  0  0  0  0  0  0  0
  -21.4630   -6.8810   23.6960 C   0  0  0  0  0  3  0  0  0  0  0  0
  -21.3150   -6.0410   24.8170 C   0  0  0  0  0  3  0  0  0  0  0  0
  -21.6450   -4.6760   24.7220 C   0  0  0  0  0  0  0  0  0  0  0  0
  -22.1260   -4.1490   23.5100 C   0  0  0  0  0  3  0  0  0  0  0  0
  -22.2750   -4.9870   22.3910 C   0  0  0  0  0  0  0  0  0  0  0  0
  -22.7180   -4.4700   21.2200 F   0  0  0  0  0  0  0  0  0  0  0  0
  -21.4950   -3.8660   25.7960 F   0  0  0  0  0  0  0  0  0  0  0  0
  -22.9800  -13.7820   21.1640 C   0  0  0  0  0  0  0  0  0  0  0  0
  -22.2160  -13.0640   21.9790 N   0  0  0  0  0  0  0  0  0  0  0  0
  -22.5500  -14.7970   20.6140 O   0  0  0  0  0  0  0  0  0  0  0  0
  -22.5780  -12.2450   22.4450 H   0  0  0  0  0  0  0  0  0  0  0  0
  -21.2570  -13.3360   22.1400 H   0  0  0  0  0  0  0  0  0  0  0  0
  -25.5980  -15.5350   20.5510 N   0  0  0  0  0  0  0  0  0  0  0  0
  -24.8020  -16.1600   20.6120 H   0  0  0  0  0  0  0  0  0  0  0  0
  -26.4410  -16.0020   20.2430 H   0  0  0  0  0  0  0  0  0  0  0  0
  1  2  1  0
  2 13  1  0
  2  3  2  0
  3  8  1  0
  4  1  2  0
  4  7  1  0
  5  3  1  0
  5 55  1  0
  6  4  1  0
  7  5  2  0
  9  8  1  0
  9 12  1  0
 10 11  1  0
 10 12  1  0
 11 12  1  0
 14 16  1  0
 14 13  1  0
 15 26  2  0
 16 21  1  0
 17 25  1  0
 17 27  1  0
 18 24  1  0
 18 20  1  0
 19 25  1  0
 20 19  1  0
 21 20  2  0
 22 23  1  0
 22 16  2  0
 23 18  2  0
 24 17  1  0
 25 15  1  0
 27 29  2  0
 28 27  1  0
 30 28  1  0
 31 40  2  0
 31 36  1  0
 32 28  1  0
 32 36  1  0
 33 32  1  0
 34 35  1  0
 34 33  1  0
 35 31  1  0
 36 37  2  0
 37 38  1  0
 39 38  2  0
 40 39  1  0
 41 15  1  0
 41 42  1  0
 41 51  1  0
 42 45  1  0
 43 42  1  0
 43 47  1  0
 44 43  2  0
 47 46  1  0
 47 49  1  0
 49 50  1  0
 49 48  1  0
 51 54  1  1
 51 52  1  0
 53 51  1  0
 57 62  1  0
 58 59  1  0
 58 57  1  0
 60 59  1  0
 60 69  1  0
 60 61  1  0
 62 56  1  0
 62 61  1  0
 63 56  2  0
 64 56  1  0
 64 55  1  0
 65 64  1  0
 66 67  2  0
 67 86  1  0
 68 67  1  0
 68 71  1  0
 69 66  1  0
 69 70  1  0
 70 68  2  0
 71 72  1  0
 72 73  2  0
 74 77  1  0
 74 73  1  0
 75 74  2  0
 76 75  1  0
 76 71  2  0
 77 78  1  0
 78 79  1  0
 79 80  2  0
 81 80  1  0
 81 85  1  0
 82 81  2  0
 83 78  2  0
 83 82  1  0
 84 83  1  0
 86 87  1  0
 87 90  1  0
 87 89  1  0
 88 86  2  0
 91 92  1  0
 91 66  1  0
 93 91  1  0
M  ISO  4  13 101  14 101  56 100  64 100
M  END
>  <TORSDO>  (3) 
F 21

>  <SCORE>  (3) 
-12.452

>  <name>  (3) 
2

>  <ligand_id>  (3) 
2

>  <original_smiles>  (3) 
[H]c1c([H])c([H])c2c(c1[H])C([H])([H])C([H])([H])C([H])([H])C2([H])N([H])C(=O)C1([H])N(C(=O)C([H])(N([H])C(=O)C([H])(N([H])C([H])([H])[H])C([H])([H])[H])C(C([H])([H])[H])(C([H])([H])[H])C([H])([H])[H])C([H])([H])c2c([H])c(OC([H])([H])c3c([H])c(C([H])([H])[H])nc(C([H])([H])N([H])C(=O)N4C([H])([H])C([H])([H])C([H])([H])C([H])(n5nc(-c6c([H])c([H])c(Oc7c([H])c([H])c(F)c([H])c7F)c([H])c6[H])c(C(=O)N([H])[H])c5N([H])[H])C4([H])[H])c3C([H])([H])C([H])([H])C3([H])C([H])([H])C3([H])[H])c([H])c([H])c2C1([H])[H]

>  <smiles>  (3) 
[H]c1c([H])c([H])c2c(c1[H])C([H])([H])C([H])([H])C([H])([H])C2([H])N([H])C(=O)C1([H])N(C(=O)C([H])(N([H])C(=O)C([H])(N([H])C([H])([H])[H])C([H])([H])[H])C(C([H])([H])[H])(C([H])([H])[H])C([H])([H])[H])C([H])([H])c2c([H])c(OC([H])([H])c3c([H])c(C([H])([H])[H])nc(C([H])([H])N([H])C(=O)N4C([H])([H])C([H])([H])C([H])([H])C([H])(n5nc(-c6c([H])c([H])c(Oc7c([H])c([H])c(F)c([H])c7F)c([H])c6[H])c(C(=O)N([H])[H])c5N([H])[H])C4([H])[H])c3C([H])([H])C([H])([H])C3([H])C([H])([H])C3([H])[H])c([H])c([H])c2C1([H])[H]

$$$$
3:0:0
     RDKit          3D

 96105  0  0  1  0  0  0  0  0999 V2000
  -28.4010  -21.5410   19.0250 C   0  0  0  0  0  3  0  0  0  0  0  0
  -29.7040  -22.1070   20.9430 C   0  0  0  0  0  3  0  0  0  0  0  0
  -29.6770  -19.7200   20.1770 C   0  0  0  0  0  0  0  0  0  0  0  0
  -28.9140  -22.5580   19.8660 C   0  0  0  0  0  0  0  0  0  0  0  0
  -28.7580  -20.1650   19.1720 C   0  0  0  0  0  0  0  0  0  0  0  0
  -30.0580  -20.7310   21.1310 C   0  0  0  0  0  0  0  0  0  0  0  0
  -31.4260  -17.0220   21.8830 C   0  0  0  0  0  2  0  0  0  0  0  0
  -32.4730  -17.5540   20.9110 C   0  0  0  0  0  2  0  0  0  0  0  0
  -30.3800  -18.2850   20.0640 C   0  0  0  0  0  3  0  0  0  0  0  0
  -30.1240  -17.0910   21.0900 C   0  0  0  0  0  3  0  0  0  0  0  0
  -31.7940  -18.4950   20.0870 O   0  0  0  0  0  0  0  0  0  0  0  0
  -30.4790  -14.6550   20.0700 C   0  0  0  0  0  0  0  0  0  0  0  0
  -30.1740  -12.4620   18.9260 C   0  0  0  0  0  2  0  0  0  0  0  0
  -29.1640  -12.6380   17.7730 C   0  0  0  0  0  2  0  0  0  0  0  0
  -27.7230  -12.4490   18.2870 C   0  0  0  0  0  2  0  0  0  0  0  0
  -27.4410  -13.2690   19.5740 C   0  0  0  0  0  3  0  0  0  0  0  0
  -28.5650  -13.0950   20.6190 C   0  0  0  0  0  2  0  0  0  0  0  0
  -29.8310  -13.4530   19.9660 N   0  0  0  0  0  0  0  0  0  0  0  0
  -31.6100  -14.8000   19.6080 O   0  0  0  0  0  0  0  0  0  0  0  0
  -29.7600  -15.7040   20.5860 N   0  0  0  0  0  0  0  0  0  0  0  0
  -28.8120  -15.4430   20.8120 H   0  0  0  0  0  0  0  0  0  0  0  0
  -25.0980  -13.8310   20.4550 C   0  0  0  0  0  0  0  0  0  0  0  0
  -24.0600  -13.0410   20.8680 C   0  0  0  0  0  0  0  0  0  0  0  0
  -24.5300  -11.6940   20.7790 C   0  0  0  0  0  0  0  0  0  0  0  0
  -26.1290  -12.9640   20.1360 N   0  0  0  0  0  0  0  0  0  0  0  0
  -25.7980  -11.6730   20.3920 N   0  0  0  0  0  0  0  0  0  0  0  0
  -23.8260  -10.4210   20.9830 C   0  0  0  0  0  0  0  0  0  0  0  0
  -24.2990   -9.4540   21.8980 C   0  0  0  0  0  3  0  0  0  0  0  0
  -23.5940   -8.2460   22.0910 C   0  0  0  0  0  3  0  0  0  0  0  0
  -22.4020   -7.9970   21.3710 C   0  0  0  0  0  0  0  0  0  0  0  0
  -21.9490   -8.9550   20.4460 C   0  0  0  0  0  3  0  0  0  0  0  0
  -22.6540  -10.1520   20.2500 C   0  0  0  0  0  3  0  0  0  0  0  0
  -21.6640   -6.8440   21.4760 O   0  0  0  0  0  0  0  0  0  0  0  0
  -21.6520   -6.0990   22.6290 C   0  0  0  0  0  0  0  0  0  0  0  0
  -21.2230   -6.6420   23.8600 C   0  0  0  0  0  3  0  0  0  0  0  0
  -21.1580   -5.8230   25.0040 C   0  0  0  0  0  3  0  0  0  0  0  0
  -21.5100   -4.4630   24.9200 C   0  0  0  0  0  0  0  0  0  0  0  0
  -21.9320   -3.9200   23.6940 C   0  0  0  0  0  3  0  0  0  0  0  0
  -21.9990   -4.7370   22.5500 C   0  0  0  0  0  0  0  0  0  0  0  0
  -22.3840   -4.2030   21.3660 F   0  0  0  0  0  0  0  0  0  0  0  0
  -21.4410   -3.6750   26.0180 F   0  0  0  0  0  0  0  0  0  0  0  0
  -22.6780  -13.5000   21.2310 C   0  0  0  0  0  0  0  0  0  0  0  0
  -22.0080  -12.7750   22.1200 N   0  0  0  0  0  0  0  0  0  0  0  0
  -22.2020  -14.5320   20.7600 O   0  0  0  0  0  0  0  0  0  0  0  0
  -22.4080  -11.9400   22.5220 H   0  0  0  0  0  0  0  0  0  0  0  0
  -21.0810  -13.0600   22.4030 H   0  0  0  0  0  0  0  0  0  0  0  0
  -25.2450  -15.2060   20.3000 N   0  0  0  0  0  0  0  0  0  0  0  0
  -24.4920  -15.8600   20.4810 H   0  0  0  0  0  0  0  0  0  0  0  0
  -26.0720  -15.6550   19.9280 H   0  0  0  0  0  0  0  0  0  0  0  0
  -28.8790  -19.2390   16.8180 C   0  0  0  0  0  1  0  0  0  0  0  0
  -28.1530  -19.1970   18.1670 C   0  0  0  0  0  2  0  0  0  0  0  0
  -30.9480  -21.4290   23.4750 C   0  0  0  0  0  1  0  0  0  0  0  0
  -30.8720  -20.3640   22.3700 C   0  0  0  0  0  2  0  0  0  0  0  0
  -28.7510  -24.0840   19.5180 C   0  0  0  0  0  3  0  0  0  0  0  0
  -28.1690  -25.1180   20.5620 C   0  0  0  0  0  3  0  0  0  0  0  0
  -28.3260  -26.5510   20.2310 O   0  0  0  0  0  0  0  0  0  0  0  0
  -24.5780  -31.9330   23.2210 C   0  0  0  0  0  0  0  0  0  0  0  0
  -27.1950  -27.3640   20.2140 C   0  0  0  0  0  0  0  0  0  0  0  0
  -23.3790  -30.5240   21.5830 C   0  0  0  0  0  3  0  0  0  0  0  0
  -24.8330  -28.9570   20.1800 C   0  0  0  0  0  0  0  0  0  0  0  0
  -25.9170  -30.8400   21.4120 C   0  0  0  0  0  2  0  0  0  0  0  0
  -25.9960  -29.4570   20.7790 C   0  0  0  0  0  0  0  0  0  0  0  0
  -27.1820  -28.6700   20.7870 C   0  0  0  0  0  3  0  0  0  0  0  0
  -26.0150  -26.9050   19.5940 C   0  0  0  0  0  3  0  0  0  0  0  0
  -24.8420  -27.6860   19.5820 C   0  0  0  0  0  3  0  0  0  0  0  0
  -23.6010  -29.8350   20.2100 C   0  0  0  0  0  2  0  0  0  0  0  0
  -24.6440  -31.1160   22.1290 N   0  0  0  0  0  0  0  0  0  0  0  0
  -23.4930  -32.2180   23.7470 O   0  0  0  0  0  0  0  0  0  0  0  0
  -22.7100  -29.5170   22.5480 C   0  0  0  0  0  0  0  0  0  0  0  0
  -21.3830  -29.3540   22.4230 N   0  0  0  0  0  0  0  0  0  0  0  0
  -23.3840  -28.8850   23.3660 O   0  0  0  0  0  0  0  0  0  0  0  0
  -20.8990  -29.9130   21.7320 H   0  0  0  0  0  0  0  0  0  0  0  0
  -17.9920  -28.2110   22.9450 C   0  0  0  0  0  0  0  0  0  0  0  0
  -20.5550  -28.4300   23.1990 C   0  0  0  0  0  3  0  0  0  0  0  0
  -20.6320  -26.9980   22.6210 C   0  0  0  0  0  2  0  0  0  0  0  0
  -19.5200  -26.6920   21.6150 C   0  0  0  0  0  2  0  0  0  0  0  0
  -18.1430  -26.8600   22.2670 C   0  0  0  0  0  2  0  0  0  0  0  0
  -19.1250  -28.9550   23.3680 C   0  0  0  0  0  0  0  0  0  0  0  0
  -18.9300  -30.2180   23.9660 C   0  0  0  0  0  3  0  0  0  0  0  0
  -17.6360  -30.7410   24.1420 C   0  0  0  0  0  3  0  0  0  0  0  0
  -16.5170  -29.9950   23.7350 C   0  0  0  0  0  3  0  0  0  0  0  0
  -16.6950  -28.7320   23.1420 C   0  0  0  0  0  3  0  0  0  0  0  0
  -25.8600  -32.5670   23.8440 C   0  0  0  0  0  3  0  0  0  0  0  0
  -25.5500  -33.9660   24.1750 N   0  0  0  0  0  0  0  0  0  0  0  0
  -25.8840  -35.0180   23.4170 C   0  0  0  0  0  0  0  0  0  0  0  0
  -26.5540  -34.9130   22.3860 O   0  0  0  0  0  0  0  0  0  0  0  0
  -24.9560  -34.1210   24.9760 H   0  0  0  0  0  0  0  0  0  0  0  0
  -24.1600  -36.8150   23.0520 C   0  0  0  0  0  1  0  0  0  0  0  0
  -25.3950  -36.4080   23.8720 C   0  0  0  0  0  3  0  0  0  0  0  0
  -27.5240  -37.2860   24.7200 C   0  0  0  0  0  1  0  0  0  0  0  0
  -26.4320  -37.4590   23.7670 N   0  0  0  0  0  0  0  0  0  0  0  0
  -26.0290  -38.3810   23.9110 H   0  0  0  0  0  0  0  0  0  0  0  0
  -26.3740  -31.7980   25.1240 C   0  0  1  0  0  0  0  0  0  0  0  0
  -25.2770  -31.5570   26.1880 C   0  0  0  0  0  1  0  0  0  0  0  0
  -26.9640  -30.4240   24.7320 C   0  0  0  0  0  1  0  0  0  0  0  0
  -27.5240  -32.5920   25.7870 C   0  0  0  0  0  1  0  0  0  0  0  0
  1  5  2  0
  1  4  1  0
  2  6  1  0
  3  6  2  0
  4  2  2  0
  5  3  1  0
  6 53  1  0
  8  7  1  0
  9 11  1  0
  9  3  1  0
  9 10  1  0
 10 20  1  0
 10  7  1  0
 11  8  1  0
 12 20  1  0
 13 18  1  0
 14 15  1  0
 14 13  1  0
 16 15  1  0
 16 25  1  0
 16 17  1  0
 18 12  1  0
 18 17  1  0
 19 12  2  0
 20 21  1  0
 22 23  2  0
 23 42  1  0
 24 23  1  0
 24 27  1  0
 25 26  1  0
 25 22  1  0
 26 24  2  0
 27 28  1  0
 28 29  2  0
 30 33  1  0
 30 29  1  0
 31 30  2  0
 32 31  1  0
 32 27  2  0
 33 34  1  0
 34 35  1  0
 35 36  2  0
 37 36  1  0
 37 41  1  0
 38 37  2  0
 39 34  2  0
 39 38  1  0
 40 39  1  0
 42 43  1  0
 43 46  1  0
 43 45  1  0
 44 42  2  0
 47 22  1  0
 47 48  1  0
 49 47  1  0
 50 51  1  0
 51  5  1  0
 53 52  1  0
 54  4  1  0
 54 55  2  0
 56 55  1  0
 57 68  2  0
 58 56  1  0
 58 63  1  0
 59 67  1  0
 59 69  1  0
 60 66  1  0
 60 62  1  0
 61 67  1  0
 62 63  2  0
 62 61  1  0
 64 58  2  0
 65 64  1  0
 65 60  2  0
 66 59  1  0
 67 57  1  0
 69 71  2  0
 70 69  1  0
 72 70  1  0
 73 82  2  0
 73 78  1  0
 74 70  1  0
 74 78  1  0
 75 74  1  0
 76 77  1  0
 76 75  1  0
 77 73  1  0
 78 79  2  0
 79 80  1  0
 81 80  2  0
 82 81  1  0
 83 57  1  0
 83 84  1  0
 83 93  1  0
 84 87  1  0
 85 89  1  0
 85 84  1  0
 86 85  2  0
 89 88  1  0
 91 89  1  0
 91 92  1  0
 91 90  1  0
 93 96  1  1
 93 94  1  0
 95 93  1  0
M  ISO  4  12 100  20 100  55 101  56 101
M  END
>  <TORSDO>  (4) 
F 21

>  <SCORE>  (4) 
-13.635

>  <name>  (4) 
3

>  <ligand_id>  (4) 
3

>  <original_smiles>  (4) 
[H]c1c([H])c([H])c2c(c1[H])C([H])([H])C([H])([H])C([H])([H])C2([H])N([H])C(=O)C1([H])N(C(=O)C([H])(N([H])C(=O)C([H])(N([H])C([H])([H])[H])C([H])([H])[H])C(C([H])([H])[H])(C([H])([H])[H])C([H])([H])[H])C([H])([H])c2c([H])c(OC([H])([H])C([H])([H])c3c([H])c(C([H])([H])C([H])([H])[H])c(C4([H])OC([H])([H])C([H])([H])C4([H])N([H])C(=O)N4C([H])([H])C([H])([H])C([H])([H])C([H])(n5nc(-c6c([H])c([H])c(Oc7c([H])c([H])c(F)c([H])c7F)c([H])c6[H])c(C(=O)N([H])[H])c5N([H])[H])C4([H])[H])c(C([H])([H])C([H])([H])[H])c3[H])c([H])c([H])c2C1([H])[H]

>  <smiles>  (4) 
[H]c1c([H])c([H])c2c(c1[H])C([H])([H])C([H])([H])C([H])([H])C2([H])N([H])C(=O)C1([H])N(C(=O)C([H])(N([H])C(=O)C([H])(N([H])C([H])([H])[H])C([H])([H])[H])C(C([H])([H])[H])(C([H])([H])[H])C([H])([H])[H])C([H])([H])c2c([H])c(OC([H])([H])C([H])([H])c3c([H])c(C([H])([H])C([H])([H])[H])c(C4([H])OC([H])([H])C([H])([H])C4([H])N([H])C(=O)N4C([H])([H])C([H])([H])C([H])([H])C([H])(n5nc(-c6c([H])c([H])c(Oc7c([H])c([H])c(F)c([H])c7F)c([H])c6[H])c(C(=O)N([H])[H])c5N([H])[H])C4([H])[H])c(C([H])([H])C([H])([H])[H])c3[H])c([H])c([H])c2C1([H])[H]

$$$$
4:0:0
     RDKit          3D

103113  0  0  1  0  0  0  0  0999 V2000
  -30.4570  -24.6020   21.4850 C   0  0  0  0  0  3  0  0  0  0  0  0
  -28.5620  -25.5330   20.2960 C   0  0  0  0  0  3  0  0  0  0  0  0
  -28.7570  -23.1020   20.5580 C   0  0  0  0  0  0  0  0  0  0  0  0
  -29.7490  -25.7290   21.0230 C   0  0  0  0  0  0  0  0  0  0  0  0
  -29.9920  -23.2850   21.2420 C   0  0  0  0  0  0  0  0  0  0  0  0
  -28.0770  -24.2320   20.0370 C   0  0  0  0  0  0  0  0  0  0  0  0
  -26.8500  -21.2990   20.9320 C   0  0  0  0  0  2  0  0  0  0  0  0
  -28.1250  -20.7020   21.4530 C   0  0  0  0  0  2  0  0  0  0  0  0
  -28.1800  -21.7230   20.3320 C   0  0  0  0  0  3  0  0  0  0  0  0
  -32.2040  -22.4950   22.2920 C   0  0  0  0  0  1  0  0  0  0  0  0
  -30.8530  -22.0800   21.6750 C   0  0  0  0  0  3  0  0  0  0  0  0
  -31.0940  -21.1360   20.4650 C   0  0  0  0  0  0  0  0  0  0  0  0
  -30.6030  -17.6640   21.7690 C   0  0  0  0  0  2  0  0  0  0  0  0
  -31.0970  -17.6490   19.3290 C   0  0  0  0  0  2  0  0  0  0  0  0
  -31.2950  -19.0400   21.8900 C   0  0  0  0  0  2  0  0  0  0  0  0
  -31.8150  -19.0000   19.4820 C   0  0  0  0  0  2  0  0  0  0  0  0
  -31.2160  -16.8400   20.6300 C   0  0  0  0  0  3  0  0  0  0  0  0
  -31.2880  -19.7930   20.6140 N   0  0  0  0  0  0  0  0  0  0  0  0
  -31.1500  -21.6670   19.3490 O   0  0  0  0  0  0  0  0  0  0  0  0
  -31.1630  -14.4760   19.8710 C   0  0  0  0  0  0  0  0  0  0  0  0
  -30.7560  -12.2360   18.9320 C   0  0  0  0  0  2  0  0  0  0  0  0
  -29.7360  -12.3270   17.7810 C   0  0  0  0  0  2  0  0  0  0  0  0
  -28.2990  -12.2260   18.3260 C   0  0  0  0  0  2  0  0  0  0  0  0
  -28.0450  -13.1870   19.5170 C   0  0  0  0  0  3  0  0  0  0  0  0
  -29.1740  -13.0820   20.5660 C   0  0  0  0  0  2  0  0  0  0  0  0
  -30.4570  -13.3150   19.8820 N   0  0  0  0  0  0  0  0  0  0  0  0
  -32.2150  -14.6170   19.2410 O   0  0  0  0  0  0  0  0  0  0  0  0
  -30.6120  -15.5070   20.5290 N   0  0  0  0  0  0  0  0  0  0  0  0
  -29.7350  -15.3400   21.0010 H   0  0  0  0  0  0  0  0  0  0  0  0
  -25.7990  -13.8760   20.5670 C   0  0  0  0  0  0  0  0  0  0  0  0
  -24.7130  -13.1420   20.9620 C   0  0  0  0  0  0  0  0  0  0  0  0
  -25.0480  -11.7770   20.7170 C   0  0  0  0  0  0  0  0  0  0  0  0
  -26.7330  -12.9570   20.1140 N   0  0  0  0  0  0  0  0  0  0  0  0
  -26.2890  -11.6830   20.2590 N   0  0  0  0  0  0  0  0  0  0  0  0
  -24.2410  -10.5560   20.8390 C   0  0  0  0  0  0  0  0  0  0  0  0
  -24.6430   -9.4830   21.6630 C   0  0  0  0  0  3  0  0  0  0  0  0
  -23.8410   -8.3280   21.7770 C   0  0  0  0  0  3  0  0  0  0  0  0
  -22.6220   -8.2390   21.0660 C   0  0  0  0  0  0  0  0  0  0  0  0
  -22.2350   -9.3000   20.2300 C   0  0  0  0  0  3  0  0  0  0  0  0
  -23.0370  -10.4480   20.1140 C   0  0  0  0  0  3  0  0  0  0  0  0
  -21.7890   -7.1470   21.0970 O   0  0  0  0  0  0  0  0  0  0  0  0
  -21.6790   -6.3550   22.2110 C   0  0  0  0  0  0  0  0  0  0  0  0
  -21.2680   -6.8770   23.4580 C   0  0  0  0  0  3  0  0  0  0  0  0
  -21.1010   -6.0160   24.5610 C   0  0  0  0  0  3  0  0  0  0  0  0
  -21.3360   -4.6350   24.4180 C   0  0  0  0  0  0  0  0  0  0  0  0
  -21.7400   -4.1130   23.1760 C   0  0  0  0  0  3  0  0  0  0  0  0
  -21.9070   -4.9720   22.0760 C   0  0  0  0  0  0  0  0  0  0  0  0
  -22.2760   -4.4600   20.8760 F   0  0  0  0  0  0  0  0  0  0  0  0
  -21.1690   -3.8060   25.4750 F   0  0  0  0  0  0  0  0  0  0  0  0
  -23.4000  -13.6820   21.4530 C   0  0  0  0  0  0  0  0  0  0  0  0
  -22.7260  -12.9450   22.3290 N   0  0  0  0  0  0  0  0  0  0  0  0
  -22.9890  -14.7850   21.0970 O   0  0  0  0  0  0  0  0  0  0  0  0
  -23.0750  -12.0480   22.6320 H   0  0  0  0  0  0  0  0  0  0  0  0
  -21.8480  -13.2820   22.7000 H   0  0  0  0  0  0  0  0  0  0  0  0
  -26.0650  -15.2420   20.5340 N   0  0  0  0  0  0  0  0  0  0  0  0
  -25.3720  -15.9350   20.7950 H   0  0  0  0  0  0  0  0  0  0  0  0
  -26.9160  -15.6480   20.1690 H   0  0  0  0  0  0  0  0  0  0  0  0
  -30.2580  -27.1360   21.3210 C   0  0  0  0  0  2  0  0  0  0  0  0
  -29.9260  -28.0810   20.2970 O   0  0  0  0  0  0  0  0  0  0  0  0
  -24.7420  -31.6250   23.6640 C   0  0  0  0  0  0  0  0  0  0  0  0
  -28.6290  -28.5360   20.2970 C   0  0  0  0  0  0  0  0  0  0  0  0
  -24.0500  -30.2970   21.6930 C   0  0  0  0  0  3  0  0  0  0  0  0
  -25.9460  -29.4100   20.2350 C   0  0  0  0  0  0  0  0  0  0  0  0
  -26.4100  -31.2600   21.8530 C   0  0  0  0  0  2  0  0  0  0  0  0
  -26.8810  -30.0770   21.0360 C   0  0  0  0  0  0  0  0  0  0  0  0
  -28.2240  -29.6450   21.0740 C   0  0  0  0  0  3  0  0  0  0  0  0
  -27.6860  -27.8870   19.4750 C   0  0  0  0  0  3  0  0  0  0  0  0
  -26.3420  -28.3100   19.4530 C   0  0  0  0  0  3  0  0  0  0  0  0
  -24.5280  -29.9320   20.2620 C   0  0  0  0  0  2  0  0  0  0  0  0
  -25.0770  -31.0670   22.4670 N   0  0  0  0  0  0  0  0  0  0  0  0
  -23.5880  -31.5470   24.1050 O   0  0  0  0  0  0  0  0  0  0  0  0
  -23.5950  -29.0030   22.4000 C   0  0  0  0  0  0  0  0  0  0  0  0
  -22.3790  -28.5390   22.0680 N   0  0  0  0  0  0  0  0  0  0  0  0
  -24.3340  -28.4250   23.2020 O   0  0  0  0  0  0  0  0  0  0  0  0
  -21.8310  -29.0760   21.4110 H   0  0  0  0  0  0  0  0  0  0  0  0
  -19.3610  -26.5590   21.9690 C   0  0  0  0  0  0  0  0  0  0  0  0
  -21.7550  -27.3180   22.5750 C   0  0  0  0  0  3  0  0  0  0  0  0
  -22.2390  -26.0800   21.7830 C   0  0  0  0  0  2  0  0  0  0  0  0
  -21.3220  -25.7160   20.6120 C   0  0  0  0  0  2  0  0  0  0  0  0
  -19.9000  -25.4320   21.1060 C   0  0  0  0  0  2  0  0  0  0  0  0
  -20.2310  -27.4560   22.6440 C   0  0  0  0  0  0  0  0  0  0  0  0
  -19.6730  -28.5110   23.4000 C   0  0  0  0  0  3  0  0  0  0  0  0
  -18.2780  -28.6720   23.4930 C   0  0  0  0  0  3  0  0  0  0  0  0
  -17.4230  -27.7700   22.8380 C   0  0  0  0  0  3  0  0  0  0  0  0
  -17.9640  -26.7150   22.0820 C   0  0  0  0  0  3  0  0  0  0  0  0
  -25.7850  -32.4080   24.5250 C   0  0  0  0  0  3  0  0  0  0  0  0
  -25.3250  -33.7990   24.6230 N   0  0  0  0  0  0  0  0  0  0  0  0
  -25.7750  -34.8010   23.8550 C   0  0  0  0  0  0  0  0  0  0  0  0
  -26.6840  -34.6600   23.0320 O   0  0  0  0  0  0  0  0  0  0  0  0
  -24.5470  -33.9790   25.2400 H   0  0  0  0  0  0  0  0  0  0  0  0
  -24.0800  -36.3950   22.9090 C   0  0  0  0  0  1  0  0  0  0  0  0
  -25.1100  -36.1790   24.0280 C   0  0  0  0  0  3  0  0  0  0  0  0
  -26.9390  -37.2980   25.2250 C   0  0  0  0  0  1  0  0  0  0  0  0
  -26.0750  -37.3000   24.0460 N   0  0  0  0  0  0  0  0  0  0  0  0
  -25.5900  -38.1930   24.0160 H   0  0  0  0  0  0  0  0  0  0  0  0
  -25.9980  -31.7880   25.9610 C   0  0  1  0  0  0  0  0  0  0  0  0
  -24.6780  -31.5180   26.7220 C   0  0  0  0  0  1  0  0  0  0  0  0
  -26.7710  -30.4530   25.8650 C   0  0  0  0  0  1  0  0  0  0  0  0
  -26.8690  -32.7360   26.8190 C   0  0  0  0  0  1  0  0  0  0  0  0
  -26.9500  -24.0220   19.2760 O   0  0  0  0  0  0  0  0  0  0  0  0
  -26.5290  -25.0900   18.4360 C   0  0  0  0  0  2  0  0  0  0  0  0
  -25.0080  -25.5610   16.4360 C   0  0  0  0  0  1  0  0  0  0  0  0
  -25.4210  -24.5560   17.5190 C   0  0  0  0  0  2  0  0  0  0  0  0
  2  4  1  0
  3  5  2  0
  4 58  1  0
  4  1  2  0
  5  1  1  0
  5 11  1  0
  6  2  2  0
  6  3  1  0
  7  8  1  0
  9  3  1  0
  9  7  1  0
  9  8  1  0
 11 10  1  0
 12 18  1  0
 12 11  1  0
 13 15  1  0
 14 16  1  0
 14 17  1  0
 16 18  1  0
 17 28  1  0
 17 13  1  0
 18 15  1  0
 19 12  2  0
 20 26  1  0
 20 28  1  0
 21 26  1  0
 22 23  1  0
 22 21  1  0
 24 23  1  0
 24 33  1  0
 24 25  1  0
 26 25  1  0
 27 20  2  0
 28 29  1  0
 30 31  2  0
 31 50  1  0
 32 35  1  0
 32 31  1  0
 33 34  1  0
 33 30  1  0
 34 32  2  0
 35 36  1  0
 36 37  2  0
 38 41  1  0
 38 37  1  0
 39 38  2  0
 40 39  1  0
 40 35  2  0
 41 42  1  0
 42 43  1  0
 43 44  2  0
 45 44  1  0
 45 49  1  0
 46 45  2  0
 47 42  2  0
 47 46  1  0
 48 47  1  0
 50 51  1  0
 51 53  1  0
 51 54  1  0
 52 50  2  0
 55 30  1  0
 55 56  1  0
 57 55  1  0
 59 61  1  0
 59 58  1  0
 60 71  2  0
 61 66  1  0
 62 72  1  0
 62 70  1  0
 63 69  1  0
 63 65  1  0
 64 70  1  0
 65 66  2  0
 65 64  1  0
 67 61  2  0
 68 67  1  0
 68 63  2  0
 69 62  1  0
 70 60  1  0
 72 74  2  0
 73 72  1  0
 75 73  1  0
 76 85  2  0
 76 81  1  0
 77 73  1  0
 77 81  1  0
 78 77  1  0
 79 80  1  0
 79 78  1  0
 80 76  1  0
 81 82  2  0
 82 83  1  0
 84 83  2  0
 85 84  1  0
 86 60  1  0
 86 87  1  0
 86 96  1  0
 87 90  1  0
 88 92  1  0
 88 87  1  0
 89 88  2  0
 92 91  1  0
 92 94  1  0
 94 93  1  0
 95 94  1  0
 96 97  1  1
 96 99  1  0
 98 96  1  0
100  6  1  0
101100  1  0
102103  1  0
103101  1  0
M  ISO  4  20 100  28 100  58 101  59 101
M  END
>  <TORSDO>  (5) 
F 23

>  <SCORE>  (5) 
-6.406

>  <name>  (5) 
4

>  <ligand_id>  (5) 
4

>  <original_smiles>  (5) 
[H]c1c([H])c([H])c2c(c1[H])C([H])([H])C([H])([H])C([H])([H])C2([H])N([H])C(=O)C1([H])N(C(=O)C([H])(N([H])C(=O)C([H])(N([H])C([H])([H])[H])C([H])([H])[H])C(C([H])([H])[H])(C([H])([H])[H])C([H])([H])[H])C([H])([H])c2c([H])c(OC([H])([H])c3c([H])c(OC([H])([H])C([H])([H])C([H])([H])[H])c(C4([H])C([H])([H])C4([H])[H])c(C([H])(C(=O)N4C([H])([H])C([H])([H])C([H])(N([H])C(=O)N5C([H])([H])C([H])([H])C([H])([H])C([H])(n6nc(-c7c([H])c([H])c(Oc8c([H])c([H])c(F)c([H])c8F)c([H])c7[H])c(C(=O)N([H])[H])c6N([H])[H])C5([H])[H])C([H])([H])C4([H])[H])C([H])([H])[H])c3[H])c([H])c([H])c2C1([H])[H]

>  <smiles>  (5) 
[H]c1c([H])c([H])c2c(c1[H])C([H])([H])C([H])([H])C([H])([H])C2([H])N([H])C(=O)C1([H])N(C(=O)C([H])(N([H])C(=O)C([H])(N([H])C([H])([H])[H])C([H])([H])[H])C(C([H])([H])[H])(C([H])([H])[H])C([H])([H])[H])C([H])([H])c2c([H])c(OC([H])([H])c3c([H])c(OC([H])([H])C([H])([H])C([H])([H])[H])c(C4([H])C([H])([H])C4([H])[H])c(C([H])(C(=O)N4C([H])([H])C([H])([H])C([H])(N([H])C(=O)N5C([H])([H])C([H])([H])C([H])([H])C([H])(n6nc(-c7c([H])c([H])c(Oc8c([H])c([H])c(F)c([H])c8F)c([H])c7[H])c(C(=O)N([H])[H])c6N([H])[H])C5([H])[H])C([H])([H])C4([H])[H])C([H])([H])[H])c3[H])c([H])c([H])c2C1([H])[H]

$$$$
5:0:0
     RDKit          3D

 96106  0  0  1  0  0  0  0  0999 V2000
  -30.1870  -22.2190   22.2450 C   0  0  0  0  0  3  0  0  0  0  0  0
  -29.3510  -20.4270   20.3570 C   0  0  0  0  0  3  0  0  0  0  0  0
  -30.4150  -20.8480   22.4880 C   0  0  0  0  0  0  0  0  0  0  0  0
  -29.9970  -19.9150   21.5030 C   0  0  0  0  0  0  0  0  0  0  0  0
  -29.5270  -22.6280   21.0790 C   0  0  0  0  0  0  0  0  0  0  0  0
  -29.1090  -21.7450   20.1510 N   0  0  0  0  0  0  0  0  0  0  0  0
  -29.3170  -23.9930   20.8440 N   0  0  0  0  0  0  0  0  0  0  0  0
  -29.7680  -24.6080   21.5130 H   0  0  0  0  0  0  0  0  0  0  0  0
  -31.0030  -14.6420   19.9590 C   0  0  0  0  0  0  0  0  0  0  0  0
  -30.5950  -12.5360   18.7130 C   0  0  0  0  0  2  0  0  0  0  0  0
  -29.5400  -12.7390   17.6050 C   0  0  0  0  0  2  0  0  0  0  0  0
  -28.1180  -12.5310   18.1620 C   0  0  0  0  0  2  0  0  0  0  0  0
  -27.8840  -13.3290   19.4680 C   0  0  0  0  0  3  0  0  0  0  0  0
  -29.0400  -13.0760   20.4700 C   0  0  0  0  0  2  0  0  0  0  0  0
  -30.2970  -13.4750   19.8160 N   0  0  0  0  0  0  0  0  0  0  0  0
  -32.0210  -14.8390   19.2840 O   0  0  0  0  0  0  0  0  0  0  0  0
  -29.1470  -17.5580   20.9470 C   0  0  0  0  0  2  0  0  0  0  0  0
  -31.5910  -17.8730   21.2690 C   0  0  0  0  0  2  0  0  0  0  0  0
  -29.3190  -16.0580   21.2610 C   0  0  0  0  0  2  0  0  0  0  0  0
  -31.7150  -16.3600   21.5940 C   0  0  0  0  0  2  0  0  0  0  0  0
  -30.2030  -18.3970   21.6750 C   0  0  0  0  0  3  0  0  0  0  0  0
  -30.6690  -15.5390   20.9410 N   0  0  0  0  0  0  0  0  0  0  0  0
  -25.5700  -13.9100   20.4410 C   0  0  0  0  0  0  0  0  0  0  0  0
  -24.5390  -13.1180   20.8720 C   0  0  0  0  0  0  0  0  0  0  0  0
  -24.9890  -11.7710   20.7210 C   0  0  0  0  0  0  0  0  0  0  0  0
  -26.5820  -13.0400   20.0600 N   0  0  0  0  0  0  0  0  0  0  0  0
  -26.2410  -11.7470   20.2870 N   0  0  0  0  0  0  0  0  0  0  0  0
  -24.2810  -10.4990   20.9070 C   0  0  0  0  0  0  0  0  0  0  0  0
  -24.6980   -9.5580   21.8720 C   0  0  0  0  0  3  0  0  0  0  0  0
  -23.9910   -8.3480   22.0450 C   0  0  0  0  0  3  0  0  0  0  0  0
  -22.8530   -8.0740   21.2500 C   0  0  0  0  0  0  0  0  0  0  0  0
  -22.4560   -9.0030   20.2720 C   0  0  0  0  0  3  0  0  0  0  0  0
  -23.1650  -10.2050   20.0990 C   0  0  0  0  0  3  0  0  0  0  0  0
  -22.1190   -6.9150   21.3290 O   0  0  0  0  0  0  0  0  0  0  0  0
  -21.8780   -6.2980   22.5300 C   0  0  0  0  0  0  0  0  0  0  0  0
  -21.2310   -6.9630   23.5940 C   0  0  0  0  0  3  0  0  0  0  0  0
  -20.9420   -6.2700   24.7860 C   0  0  0  0  0  3  0  0  0  0  0  0
  -21.2880   -4.9110   24.9120 C   0  0  0  0  0  0  0  0  0  0  0  0
  -21.9270   -4.2450   23.8520 C   0  0  0  0  0  3  0  0  0  0  0  0
  -22.2190   -4.9370   22.6630 C   0  0  0  0  0  0  0  0  0  0  0  0
  -22.8150   -4.2850   21.6360 F   0  0  0  0  0  0  0  0  0  0  0  0
  -21.0030   -4.2420   26.0540 F   0  0  0  0  0  0  0  0  0  0  0  0
  -23.1770  -13.5780   21.3060 C   0  0  0  0  0  0  0  0  0  0  0  0
  -22.5490  -12.8530   22.2240 N   0  0  0  0  0  0  0  0  0  0  0  0
  -22.6820  -14.6150   20.8660 O   0  0  0  0  0  0  0  0  0  0  0  0
  -22.9640  -12.0130   22.6000 H   0  0  0  0  0  0  0  0  0  0  0  0
  -21.6390  -13.1410   22.5560 H   0  0  0  0  0  0  0  0  0  0  0  0
  -25.7220  -15.2880   20.3230 N   0  0  0  0  0  0  0  0  0  0  0  0
  -24.9690  -15.9310   20.5440 H   0  0  0  0  0  0  0  0  0  0  0  0
  -26.5270  -15.7470   19.9180 H   0  0  0  0  0  0  0  0  0  0  0  0
  -30.2460  -19.9710   24.9500 C   0  0  0  0  0  2  0  0  0  0  0  0
  -30.9870  -21.2810   25.0250 C   0  0  0  0  0  2  0  0  0  0  0  0
  -31.0750  -20.4350   23.7740 C   0  0  0  0  0  3  0  0  0  0  0  0
  -27.9650  -24.4330   20.4990 C   0  0  0  0  0  2  0  0  0  0  0  0
  -27.9640  -25.6420   19.5360 C   0  0  0  0  0  2  0  0  0  0  0  0
  -28.0000  -26.9130   20.1990 O   0  0  0  0  0  0  0  0  0  0  0  0
  -24.8170  -32.2320   23.6740 C   0  0  0  0  0  0  0  0  0  0  0  0
  -26.8630  -27.6950   20.2810 C   0  0  0  0  0  0  0  0  0  0  0  0
  -23.3880  -31.0010   22.0730 C   0  0  0  0  0  3  0  0  0  0  0  0
  -24.6040  -29.3940   20.5080 C   0  0  0  0  0  0  0  0  0  0  0  0
  -25.9160  -31.1440   21.7190 C   0  0  0  0  0  2  0  0  0  0  0  0
  -25.8370  -29.7950   21.0370 C   0  0  0  0  0  0  0  0  0  0  0  0
  -26.9630  -28.9480   20.9280 C   0  0  0  0  0  3  0  0  0  0  0  0
  -25.6060  -27.3030   19.7590 C   0  0  0  0  0  3  0  0  0  0  0  0
  -24.4840  -28.1460   19.8710 C   0  0  0  0  0  3  0  0  0  0  0  0
  -23.4470  -30.3530   20.6620 C   0  0  0  0  0  2  0  0  0  0  0  0
  -24.7300  -31.4710   22.5460 N   0  0  0  0  0  0  0  0  0  0  0  0
  -23.8010  -32.5790   24.2930 O   0  0  0  0  0  0  0  0  0  0  0  0
  -22.7110  -30.0070   23.0440 C   0  0  0  0  0  0  0  0  0  0  0  0
  -21.4110  -29.7510   22.8270 N   0  0  0  0  0  0  0  0  0  0  0  0
  -23.3570  -29.4670   23.9450 O   0  0  0  0  0  0  0  0  0  0  0  0
  -20.9540  -30.2390   22.0690 H   0  0  0  0  0  0  0  0  0  0  0  0
  -18.1320  -28.2440   22.9910 C   0  0  0  0  0  0  0  0  0  0  0  0
  -20.5810  -28.8200   23.5900 C   0  0  0  0  0  3  0  0  0  0  0  0
  -20.9070  -27.3540   23.2240 C   0  0  0  0  0  2  0  0  0  0  0  0
  -20.0130  -26.7940   22.1130 C   0  0  0  0  0  2  0  0  0  0  0  0
  -18.5400  -26.8550   22.5280 C   0  0  0  0  0  2  0  0  0  0  0  0
  -19.0920  -29.1720   23.4740 C   0  0  0  0  0  0  0  0  0  0  0  0
  -18.6650  -30.4620   23.8580 C   0  0  0  0  0  3  0  0  0  0  0  0
  -17.3100  -30.8280   23.7680 C   0  0  0  0  0  3  0  0  0  0  0  0
  -16.3610  -29.9000   23.3040 C   0  0  0  0  0  3  0  0  0  0  0  0
  -16.7720  -28.6100   22.9220 C   0  0  0  0  0  3  0  0  0  0  0  0
  -26.1930  -32.7240   24.2260 C   0  0  0  0  0  3  0  0  0  0  0  0
  -26.7170  -31.8690   25.4440 C   0  0  1  0  0  0  0  0  0  0  0  0
  -25.6610  -31.6570   26.5540 C   0  0  0  0  0  1  0  0  0  0  0  0
  -27.1870  -30.4750   24.9680 C   0  0  0  0  0  1  0  0  0  0  0  0
  -27.9460  -32.5590   26.0790 C   0  0  0  0  0  1  0  0  0  0  0  0
  -26.0360  -34.1330   24.6090 N   0  0  0  0  0  0  0  0  0  0  0  0
  -26.4170  -35.1730   23.8550 C   0  0  0  0  0  0  0  0  0  0  0  0
  -27.0080  -35.0410   22.7790 O   0  0  0  0  0  0  0  0  0  0  0  0
  -25.5110  -34.3180   25.4510 H   0  0  0  0  0  0  0  0  0  0  0  0
  -24.8320  -37.1160   23.6640 C   0  0  0  0  0  1  0  0  0  0  0  0
  -26.0870  -36.5850   24.3750 C   0  0  0  0  0  3  0  0  0  0  0  0
  -28.3460  -37.2550   25.0680 C   0  0  0  0  0  1  0  0  0  0  0  0
  -27.1980  -37.5480   24.2130 N   0  0  0  0  0  0  0  0  0  0  0  0
  -26.8860  -38.4940   24.4160 H   0  0  0  0  0  0  0  0  0  0  0  0
  1  3  1  0
  2  4  1  0
  3 53  1  0
  4  3  2  0
  5  1  2  0
  6  2  2  0
  6  5  1  0
  7  5  1  0
  7  8  1  0
  9 22  1  0
 10 15  1  0
 11 12  1  0
 11 10  1  0
 13 12  1  0
 13 26  1  0
 13 14  1  0
 15  9  1  0
 15 14  1  0
 16  9  2  0
 17 19  1  0
 17 21  1  0
 18 20  1  0
 18 21  1  0
 21  4  1  0
 22 19  1  0
 22 20  1  0
 23 24  2  0
 24 43  1  0
 25 24  1  0
 25 28  1  0
 26 27  1  0
 26 23  1  0
 27 25  2  0
 28 29  1  0
 29 30  2  0
 31 34  1  0
 31 30  1  0
 32 31  2  0
 33 32  1  0
 33 28  2  0
 34 35  1  0
 35 40  2  0
 35 36  1  0
 36 37  2  0
 37 38  1  0
 38 42  1  0
 39 38  2  0
 40 39  1  0
 41 40  1  0
 43 44  1  0
 44 47  1  0
 44 46  1  0
 45 43  2  0
 48 23  1  0
 48 49  1  0
 50 48  1  0
 51 52  1  0
 53 51  1  0
 53 52  1  0
 54  7  1  0
 55 56  1  0
 55 54  1  0
 56 58  1  0
 57 68  2  0
 58 63  1  0
 59 67  1  0
 59 69  1  0
 60 66  1  0
 60 62  1  0
 61 67  1  0
 62 61  1  0
 63 62  2  0
 64 65  1  0
 64 58  2  0
 65 60  2  0
 66 59  1  0
 67 57  1  0
 69 71  2  0
 70 69  1  0
 72 70  1  0
 73 78  1  0
 74 70  1  0
 75 74  1  0
 76 77  1  0
 76 75  1  0
 77 73  1  0
 78 74  1  0
 78 79  2  0
 80 79  1  0
 81 80  2  0
 82 73  2  0
 82 81  1  0
 83 57  1  0
 83 88  1  0
 83 84  1  0
 84 87  1  1
 84 85  1  0
 86 84  1  0
 88 91  1  0
 89 93  1  0
 89 88  1  0
 90 89  2  0
 93 92  1  0
 95 93  1  0
 95 96  1  0
 95 94  1  0
M  ISO  4   9 100  22 100  55 101  56 101
M  END
>  <TORSDO>  (6) 
F 19

>  <SCORE>  (6) 
-11.584

>  <name>  (6) 
5

>  <ligand_id>  (6) 
5

>  <original_smiles>  (6) 
[H]c1nc(N([H])C([H])([H])C([H])([H])Oc2c([H])c([H])c3c(c2[H])C([H])([H])N(C(=O)C([H])(N([H])C(=O)C([H])(N([H])C([H])([H])[H])C([H])([H])[H])C(C([H])([H])[H])(C([H])([H])[H])C([H])([H])[H])C([H])(C(=O)N([H])C2([H])c4c([H])c([H])c([H])c([H])c4C([H])([H])C([H])([H])C2([H])[H])C3([H])[H])c([H])c(C2([H])C([H])([H])C2([H])[H])c1C1([H])C([H])([H])C([H])([H])N(C(=O)N2C([H])([H])C([H])([H])C([H])([H])C([H])(n3nc(-c4c([H])c([H])c(Oc5c([H])c([H])c(F)c([H])c5F)c([H])c4[H])c(C(=O)N([H])[H])c3N([H])[H])C2([H])[H])C([H])([H])C1([H])[H]

>  <smiles>  (6) 
[H]c1nc(N([H])C([H])([H])C([H])([H])Oc2c([H])c([H])c3c(c2[H])C([H])([H])N(C(=O)C([H])(N([H])C(=O)C([H])(N([H])C([H])([H])[H])C([H])([H])[H])C(C([H])([H])[H])(C([H])([H])[H])C([H])([H])[H])C([H])(C(=O)N([H])C2([H])c4c([H])c([H])c([H])c([H])c4C([H])([H])C([H])([H])C2([H])[H])C3([H])[H])c([H])c(C2([H])C([H])([H])C2([H])[H])c1C1([H])C([H])([H])C([H])([H])N(C(=O)N2C([H])([H])C([H])([H])C([H])([H])C([H])(n3nc(-c4c([H])c([H])c(Oc5c([H])c([H])c(F)c([H])c5F)c([H])c4[H])c(C(=O)N([H])[H])c3N([H])[H])C2([H])[H])C([H])([H])C1([H])[H]

$$$$
6:0:0
     RDKit          3D

100109  0  0  1  0  0  0  0  0999 V2000
  -31.0560  -19.9000   20.7490 C   0  0  0  0  0  3  0  0  0  0  0  0
  -30.5120  -21.2070   20.7470 C   0  0  0  0  0  3  0  0  0  0  0  0
  -28.2800  -20.2400   20.6600 C   0  0  0  0  0  3  0  0  0  0  0  0
  -28.8000  -18.9240   20.6630 C   0  0  0  0  0  0  0  0  0  0  0  0
  -30.2090  -18.7670   20.7340 C   0  0  0  0  0  0  0  0  0  0  0  0
  -29.1110  -21.3830   20.7180 C   0  0  0  0  0  0  0  0  0  0  0  0
  -28.2240  -17.6190   20.6300 C   0  0  0  0  0  0  0  0  0  0  0  0
  -29.2240  -16.6940   20.8390 C   0  0  0  0  0  0  0  0  0  0  0  0
  -29.0590  -15.2330   21.1370 C   0  0  0  0  0  1  0  0  0  0  0  0
  -30.4580  -17.3870   20.8340 N   0  0  0  0  0  0  0  0  0  0  0  0
  -26.0600  -16.7180   19.7300 C   0  0  0  0  0  0  0  0  0  0  0  0
  -26.6730  -15.9870   18.5340 C   0  0  0  0  0  1  0  0  0  0  0  0
  -26.8150  -17.4160   20.5980 N   0  0  0  0  0  0  0  0  0  0  0  0
  -24.8390  -16.6600   19.8860 O   0  0  0  0  0  0  0  0  0  0  0  0
  -26.2860  -17.9530   21.2720 H   0  0  0  0  0  0  0  0  0  0  0  0
  -28.4620  -22.6290   20.7380 N   0  0  0  0  0  0  0  0  0  0  0  0
  -27.4460  -22.6180   20.7810 H   0  0  0  0  0  0  0  0  0  0  0  0
  -29.0920  -23.9550   20.8510 C   0  0  0  0  0  2  0  0  0  0  0  0
  -28.1110  -25.0230   20.3130 C   0  0  0  0  0  2  0  0  0  0  0  0
  -28.5030  -26.4210   20.3220 O   0  0  0  0  0  0  0  0  0  0  0  0
  -24.7390  -31.7090   23.2900 C   0  0  0  0  0  0  0  0  0  0  0  0
  -27.4120  -27.2700   20.2090 C   0  0  0  0  0  0  0  0  0  0  0  0
  -23.5830  -30.3760   21.5630 C   0  0  0  0  0  3  0  0  0  0  0  0
  -25.0670  -28.8600   20.1530 C   0  0  0  0  0  0  0  0  0  0  0  0
  -26.1270  -30.6790   21.4900 C   0  0  0  0  0  2  0  0  0  0  0  0
  -26.2130  -29.3260   20.8110 C   0  0  0  0  0  0  0  0  0  0  0  0
  -27.3900  -28.5370   20.8410 C   0  0  0  0  0  3  0  0  0  0  0  0
  -26.2540  -26.8530   19.5070 C   0  0  0  0  0  3  0  0  0  0  0  0
  -25.0820  -27.6230   19.4990 C   0  0  0  0  0  3  0  0  0  0  0  0
  -23.8420  -29.7450   20.1720 C   0  0  0  0  0  2  0  0  0  0  0  0
  -24.8330  -30.9330   22.1740 N   0  0  0  0  0  0  0  0  0  0  0  0
  -23.6400  -31.9860   23.7910 O   0  0  0  0  0  0  0  0  0  0  0  0
  -22.8760  -29.3340   22.4610 C   0  0  0  0  0  0  0  0  0  0  0  0
  -21.5500  -29.1960   22.2920 N   0  0  0  0  0  0  0  0  0  0  0  0
  -23.5180  -28.6560   23.2680 O   0  0  0  0  0  0  0  0  0  0  0  0
  -21.0940  -29.7980   21.6210 H   0  0  0  0  0  0  0  0  0  0  0  0
  -18.1190  -28.1430   22.7110 C   0  0  0  0  0  0  0  0  0  0  0  0
  -20.6850  -28.2590   23.0070 C   0  0  0  0  0  3  0  0  0  0  0  0
  -20.7200  -26.8580   22.3540 C   0  0  0  0  0  2  0  0  0  0  0  0
  -19.6100  -26.6450   21.3200 C   0  0  0  0  0  2  0  0  0  0  0  0
  -18.2330  -26.8240   21.9650 C   0  0  0  0  0  2  0  0  0  0  0  0
  -19.2710  -28.8230   23.1870 C   0  0  0  0  0  0  0  0  0  0  0  0
  -19.1110  -30.0620   23.8450 C   0  0  0  0  0  3  0  0  0  0  0  0
  -17.8320  -30.6190   24.0320 C   0  0  0  0  0  3  0  0  0  0  0  0
  -16.6940  -29.9350   23.5720 C   0  0  0  0  0  3  0  0  0  0  0  0
  -16.8380  -28.6970   22.9170 C   0  0  0  0  0  3  0  0  0  0  0  0
  -26.0070  -32.3020   23.9780 C   0  0  0  0  0  3  0  0  0  0  0  0
  -25.6980  -33.6870   24.3530 N   0  0  0  0  0  0  0  0  0  0  0  0
  -26.0810  -34.7660   23.6560 C   0  0  0  0  0  0  0  0  0  0  0  0
  -26.8030  -34.6980   22.6580 O   0  0  0  0  0  0  0  0  0  0  0  0
  -25.0610  -33.8160   25.1250 H   0  0  0  0  0  0  0  0  0  0  0  0
  -24.3960  -36.5960   23.2870 C   0  0  0  0  0  1  0  0  0  0  0  0
  -25.5870  -36.1400   24.1450 C   0  0  0  0  0  3  0  0  0  0  0  0
  -27.6870  -36.9550   25.1230 C   0  0  0  0  0  1  0  0  0  0  0  0
  -26.6370  -37.1820   24.1330 N   0  0  0  0  0  0  0  0  0  0  0  0
  -26.2360  -38.1010   24.3040 H   0  0  0  0  0  0  0  0  0  0  0  0
  -26.4760  -31.4730   25.2370 C   0  0  1  0  0  0  0  0  0  0  0  0
  -25.3410  -31.1710   26.2420 C   0  0  0  0  0  1  0  0  0  0  0  0
  -27.0930  -30.1230   24.8030 C   0  0  0  0  0  1  0  0  0  0  0  0
  -27.5860  -32.2450   25.9890 C   0  0  0  0  0  1  0  0  0  0  0  0
  -31.8160  -16.8700   21.0530 C   0  0  0  0  0  2  0  0  0  0  0  0
  -32.0080  -15.3660   21.3170 C   0  0  0  0  0  2  0  0  0  0  0  0
  -31.2020  -13.6700   19.6970 C   0  0  0  0  0  0  0  0  0  0  0  0
  -30.7350  -11.3900   18.8730 C   0  0  0  0  0  2  0  0  0  0  0  0
  -29.6510  -11.3470   17.7840 C   0  0  0  0  0  2  0  0  0  0  0  0
  -28.2430  -11.2980   18.4080 C   0  0  0  0  0  2  0  0  0  0  0  0
  -28.0280  -12.3920   19.4790 C   0  0  0  0  0  3  0  0  0  0  0  0
  -29.1970  -12.3660   20.4880 C   0  0  0  0  0  2  0  0  0  0  0  0
  -30.4590  -12.5380   19.7480 N   0  0  0  0  0  0  0  0  0  0  0  0
  -32.1090  -13.8640   18.8810 O   0  0  0  0  0  0  0  0  0  0  0  0
  -30.9890  -14.4990   20.7230 N   0  0  0  0  0  0  0  0  0  0  0  0
  -30.1780  -14.2890   21.2820 H   0  0  0  0  0  0  0  0  0  0  0  0
  -25.8270  -13.1990   20.5570 C   0  0  0  0  0  0  0  0  0  0  0  0
  -24.7390  -12.5150   21.0400 C   0  0  0  0  0  0  0  0  0  0  0  0
  -25.0420  -11.1270   20.8740 C   0  0  0  0  0  0  0  0  0  0  0  0
  -26.7320  -12.2310   20.1430 N   0  0  0  0  0  0  0  0  0  0  0  0
  -26.2660  -10.9770   20.3870 N   0  0  0  0  0  0  0  0  0  0  0  0
  -24.2110   -9.9370   21.0980 C   0  0  0  0  0  0  0  0  0  0  0  0
  -24.6300   -8.9020   21.9630 C   0  0  0  0  0  3  0  0  0  0  0  0
  -23.8140   -7.7690   22.1740 C   0  0  0  0  0  3  0  0  0  0  0  0
  -22.5620   -7.6660   21.5250 C   0  0  0  0  0  0  0  0  0  0  0  0
  -22.1590   -8.6860   20.6470 C   0  0  0  0  0  3  0  0  0  0  0  0
  -22.9750   -9.8120   20.4360 C   0  0  0  0  0  3  0  0  0  0  0  0
  -21.7150   -6.5910   21.6500 O   0  0  0  0  0  0  0  0  0  0  0  0
  -21.6380   -5.8700   22.8130 C   0  0  0  0  0  0  0  0  0  0  0  0
  -21.3080   -6.4730   24.0460 C   0  0  0  0  0  3  0  0  0  0  0  0
  -21.1720   -5.6830   25.2030 C   0  0  0  0  0  3  0  0  0  0  0  0
  -21.3650   -4.2910   25.1300 C   0  0  0  0  0  0  0  0  0  0  0  0
  -21.6880   -3.6830   23.9030 C   0  0  0  0  0  3  0  0  0  0  0  0
  -21.8240   -4.4720   22.7470 C   0  0  0  0  0  0  0  0  0  0  0  0
  -22.1240   -3.8850   21.5650 F   0  0  0  0  0  0  0  0  0  0  0  0
  -21.2230   -3.5330   26.2410 F   0  0  0  0  0  0  0  0  0  0  0  0
  -23.4570  -13.1190   21.5370 C   0  0  0  0  0  0  0  0  0  0  0  0
  -22.7810  -12.4700   22.4820 N   0  0  0  0  0  0  0  0  0  0  0  0
  -23.0560  -14.2040   21.1180 O   0  0  0  0  0  0  0  0  0  0  0  0
  -23.0910  -11.5930   22.8670 H   0  0  0  0  0  0  0  0  0  0  0  0
  -21.9300  -12.8840   22.8300 H   0  0  0  0  0  0  0  0  0  0  0  0
  -26.1110  -14.5520   20.4360 N   0  0  0  0  0  0  0  0  0  0  0  0
  -25.4760  -15.2540   20.7980 H   0  0  0  0  0  0  0  0  0  0  0  0
  -26.9910  -14.9340   20.1100 H   0  0  0  0  0  0  0  0  0  0  0  0
  2  1  1  0
  3  4  2  0
  3  6  1  0
  4  5  1  0
  5  1  2  0
  5 10  1  0
  6 16  1  0
  6  2  2  0
  7  4  1  0
  7  8  2  0
  8  9  1  0
 10  8  1  0
 10 61  1  0
 11 14  2  0
 11 13  1  0
 12 11  1  0
 13  7  1  0
 13 15  1  0
 16 17  1  0
 16 18  1  0
 19 20  1  0
 19 18  1  0
 21 32  2  0
 22 20  1  0
 22 27  1  0
 23 31  1  0
 23 33  1  0
 24 30  1  0
 24 26  1  0
 25 31  1  0
 26 27  2  0
 26 25  1  0
 28 22  2  0
 29 28  1  0
 29 24  2  0
 30 23  1  0
 31 21  1  0
 33 35  2  0
 34 33  1  0
 36 34  1  0
 37 46  2  0
 37 42  1  0
 38 34  1  0
 38 42  1  0
 39 38  1  0
 40 41  1  0
 40 39  1  0
 41 37  1  0
 42 43  2  0
 43 44  1  0
 45 44  2  0
 46 45  1  0
 47 21  1  0
 47 48  1  0
 47 57  1  0
 48 51  1  0
 49 53  1  0
 49 48  1  0
 50 49  2  0
 53 52  1  0
 55 53  1  0
 55 56  1  0
 55 54  1  0
 57 60  1  1
 57 58  1  0
 59 57  1  0
 61 62  1  0
 63 69  1  0
 63 71  1  0
 64 69  1  0
 65 66  1  0
 65 64  1  0
 67 66  1  0
 67 76  1  0
 67 68  1  0
 69 68  1  0
 70 63  2  0
 71 72  1  0
 71 62  1  0
 73 74  2  0
 74 93  1  0
 75 74  1  0
 75 78  1  0
 76 77  1  0
 76 73  1  0
 77 75  2  0
 78 79  1  0
 79 80  2  0
 81 84  1  0
 81 80  1  0
 82 81  2  0
 83 82  1  0
 83 78  2  0
 84 85  1  0
 85 86  1  0
 86 87  2  0
 88 87  1  0
 88 92  1  0
 89 88  2  0
 90 85  2  0
 90 89  1  0
 91 90  1  0
 93 94  1  0
 94 97  1  0
 94 96  1  0
 95 93  2  0
 98 73  1  0
 98 99  1  0
100 98  1  0
M  ISO  4  19 101  20 101  63 100  71 100
M  END
>  <TORSDO>  (7) 
F 22

>  <SCORE>  (7) 
-9.811

>  <name>  (7) 
6

>  <ligand_id>  (7) 
6

>  <original_smiles>  (7) 
[H]c1c([H])c([H])c2c(c1[H])C([H])([H])C([H])([H])C([H])([H])C2([H])N([H])C(=O)C1([H])N(C(=O)C([H])(N([H])C(=O)C([H])(N([H])C([H])([H])[H])C([H])([H])[H])C(C([H])([H])[H])(C([H])([H])[H])C([H])([H])[H])C([H])([H])c2c([H])c(OC([H])([H])C([H])([H])N([H])c3c([H])c([H])c4c(c3[H])c(N([H])C(=O)C([H])([H])[H])c(C([H])([H])[H])n4C([H])([H])C([H])([H])N([H])C(=O)N3C([H])([H])C([H])([H])C([H])([H])C([H])(n4nc(-c5c([H])c([H])c(Oc6c([H])c([H])c(F)c([H])c6F)c([H])c5[H])c(C(=O)N([H])[H])c4N([H])[H])C3([H])[H])c([H])c([H])c2C1([H])[H]

>  <smiles>  (7) 
[H]c1c([H])c([H])c2c(c1[H])C([H])([H])C([H])([H])C([H])([H])C2([H])N([H])C(=O)C1([H])N(C(=O)C([H])(N([H])C(=O)C([H])(N([H])C([H])([H])[H])C([H])([H])[H])C(C([H])([H])[H])(C([H])([H])[H])C([H])([H])[H])C([H])([H])c2c([H])c(OC([H])([H])C([H])([H])N([H])c3c([H])c([H])c4c(c3[H])c(N([H])C(=O)C([H])([H])[H])c(C([H])([H])[H])n4C([H])([H])C([H])([H])N([H])C(=O)N3C([H])([H])C([H])([H])C([H])([H])C([H])(n4nc(-c5c([H])c([H])c(Oc6c([H])c([H])c(F)c([H])c6F)c([H])c5[H])c(C(=O)N([H])[H])c4N([H])[H])C3([H])[H])c([H])c([H])c2C1([H])[H]

$$$$
7:0:0
     RDKit          3D

 97106  0  0  1  0  0  0  0  0999 V2000
  -28.7020  -21.6290   18.8860 C   0  0  0  0  0  2  0  0  0  0  0  0
  -28.5890  -23.1490   19.1010 C   0  0  0  0  0  2  0  0  0  0  0  0
  -29.8620  -21.2110   19.7850 C   0  0  0  0  0  3  0  0  0  0  0  0
  -29.6680  -22.1570   21.0020 C   0  0  0  0  0  3  0  0  0  0  0  0
  -29.2480  -23.4600   20.3960 N   0  0  2  0  0  4  0  0  0  0  0  0
  -30.1060  -23.9320   20.1450 H   0  0  0  0  0  0  0  0  0  0  0  0
  -28.9580  -18.9780   20.7110 C   0  0  0  0  0  3  0  0  0  0  0  0
  -31.0900  -17.5130   19.6430 C   0  0  0  0  0  3  0  0  0  0  0  0
  -29.9680  -19.6790   20.0100 C   0  0  0  0  0  0  0  0  0  0  0  0
  -29.0050  -17.5700   20.8770 C   0  0  0  0  0  0  0  0  0  0  0  0
  -31.0500  -18.9190   19.4850 C   0  0  0  0  0  0  0  0  0  0  0  0
  -30.0660  -16.8090   20.3240 C   0  0  0  0  0  0  0  0  0  0  0  0
  -27.8920  -16.8890   21.6580 C   0  0  0  0  0  1  0  0  0  0  0  0
  -32.1950  -19.5760   18.7270 C   0  0  0  0  0  1  0  0  0  0  0  0
  -30.6350  -14.4140   19.7180 C   0  0  0  0  0  0  0  0  0  0  0  0
  -30.1650  -12.3350   18.4710 C   0  0  0  0  0  2  0  0  0  0  0  0
  -29.0980  -12.6440   17.4000 C   0  0  0  0  0  2  0  0  0  0  0  0
  -27.6780  -12.5010   17.9850 C   0  0  0  0  0  2  0  0  0  0  0  0
  -27.5090  -13.2510   19.3340 C   0  0  0  0  0  3  0  0  0  0  0  0
  -28.6770  -12.9250   20.2940 C   0  0  0  0  0  2  0  0  0  0  0  0
  -29.9390  -13.2470   19.6040 N   0  0  0  0  0  0  0  0  0  0  0  0
  -31.7010  -14.5990   19.1250 O   0  0  0  0  0  0  0  0  0  0  0  0
  -30.0280  -15.3740   20.4520 N   0  0  0  0  0  0  0  0  0  0  0  0
  -29.2590  -15.0250   20.9980 H   0  0  0  0  0  0  0  0  0  0  0  0
  -25.2070  -13.8470   20.3190 C   0  0  0  0  0  0  0  0  0  0  0  0
  -24.1770  -13.0700   20.7780 C   0  0  0  0  0  0  0  0  0  0  0  0
  -24.6150  -11.7170   20.6450 C   0  0  0  0  0  0  0  0  0  0  0  0
  -26.2110  -12.9690   19.9450 N   0  0  0  0  0  0  0  0  0  0  0  0
  -25.8630  -11.6790   20.1940 N   0  0  0  0  0  0  0  0  0  0  0  0
  -23.8970  -10.4550   20.8640 C   0  0  0  0  0  0  0  0  0  0  0  0
  -24.3790   -9.4790   21.7640 C   0  0  0  0  0  3  0  0  0  0  0  0
  -23.6630   -8.2810   21.9720 C   0  0  0  0  0  3  0  0  0  0  0  0
  -22.4490   -8.0500   21.2820 C   0  0  0  0  0  0  0  0  0  0  0  0
  -21.9860   -9.0150   20.3700 C   0  0  0  0  0  3  0  0  0  0  0  0
  -22.7030  -10.2040   20.1600 C   0  0  0  0  0  3  0  0  0  0  0  0
  -21.7000   -6.9060   21.4000 O   0  0  0  0  0  0  0  0  0  0  0  0
  -21.6600   -6.1890   22.5700 C   0  0  0  0  0  0  0  0  0  0  0  0
  -21.2460   -6.7720   23.7880 C   0  0  0  0  0  3  0  0  0  0  0  0
  -21.1550   -5.9820   24.9510 C   0  0  0  0  0  3  0  0  0  0  0  0
  -21.4670   -4.6100   24.8970 C   0  0  0  0  0  0  0  0  0  0  0  0
  -21.8740   -4.0270   23.6840 C   0  0  0  0  0  3  0  0  0  0  0  0
  -21.9670   -4.8150   22.5230 C   0  0  0  0  0  0  0  0  0  0  0  0
  -22.3410   -4.2430   21.3530 F   0  0  0  0  0  0  0  0  0  0  0  0
  -21.3720   -3.8490   26.0130 F   0  0  0  0  0  0  0  0  0  0  0  0
  -22.8230  -13.5490   21.2200 C   0  0  0  0  0  0  0  0  0  0  0  0
  -22.1940  -12.8370   22.1490 N   0  0  0  0  0  0  0  0  0  0  0  0
  -22.3360  -14.5880   20.7770 O   0  0  0  0  0  0  0  0  0  0  0  0
  -22.6030  -11.9960   22.5290 H   0  0  0  0  0  0  0  0  0  0  0  0
  -21.2920  -13.1400   22.4860 H   0  0  0  0  0  0  0  0  0  0  0  0
  -25.3610  -15.2210   20.1700 N   0  0  0  0  0  0  0  0  0  0  0  0
  -24.6080  -15.8680   20.3740 H   0  0  0  0  0  0  0  0  0  0  0  0
  -26.1560  -15.6660   19.7290 H   0  0  0  0  0  0  0  0  0  0  0  0
  -31.3410  -21.0950   22.6780 C   0  0  0  0  0  1  0  0  0  0  0  0
  -30.9350  -22.3380   21.8720 C   0  0  0  0  0  2  0  0  0  0  0  0
  -28.4840  -24.4000   21.2820 C   0  0  0  0  0  2  0  0  0  0  0  0
  -28.9820  -25.8730   21.2330 C   0  0  0  0  0  2  0  0  0  0  0  0
  -28.6420  -26.5700   20.0250 O   0  0  0  0  0  0  0  0  0  0  0  0
  -24.5460  -31.6150   23.0410 C   0  0  0  0  0  0  0  0  0  0  0  0
  -27.4630  -27.2820   20.0500 C   0  0  0  0  0  0  0  0  0  0  0  0
  -23.4550  -30.1810   21.3460 C   0  0  0  0  0  3  0  0  0  0  0  0
  -25.0190  -28.7000   19.9750 C   0  0  0  0  0  0  0  0  0  0  0  0
  -25.9710  -30.6290   21.2480 C   0  0  0  0  0  2  0  0  0  0  0  0
  -26.1310  -29.2600   20.6160 C   0  0  0  0  0  0  0  0  0  0  0  0
  -27.3590  -28.5580   20.6560 C   0  0  0  0  0  3  0  0  0  0  0  0
  -26.3390  -26.7380   19.3990 C   0  0  0  0  0  3  0  0  0  0  0  0
  -25.1170  -27.4370   19.3670 C   0  0  0  0  0  3  0  0  0  0  0  0
  -23.7430  -29.5140   19.9730 C   0  0  0  0  0  2  0  0  0  0  0  0
  -24.6730  -30.8250   21.9370 N   0  0  0  0  0  0  0  0  0  0  0  0
  -23.4360  -31.8450   23.5400 O   0  0  0  0  0  0  0  0  0  0  0  0
  -22.8040  -29.1320   22.2770 C   0  0  0  0  0  0  0  0  0  0  0  0
  -21.4840  -28.9340   22.1240 N   0  0  0  0  0  0  0  0  0  0  0  0
  -23.4840  -28.5000   23.0890 O   0  0  0  0  0  0  0  0  0  0  0  0
  -20.9970  -29.4970   21.4400 H   0  0  0  0  0  0  0  0  0  0  0  0
  -18.1140  -27.7130   22.5740 C   0  0  0  0  0  0  0  0  0  0  0  0
  -20.6690  -27.9700   22.8630 C   0  0  0  0  0  3  0  0  0  0  0  0
  -20.7780  -26.5590   22.2410 C   0  0  0  0  0  2  0  0  0  0  0  0
  -19.6810  -26.2650   21.2130 C   0  0  0  0  0  2  0  0  0  0  0  0
  -18.2960  -26.3860   21.8570 C   0  0  0  0  0  2  0  0  0  0  0  0
  -19.2280  -28.4640   23.0320 C   0  0  0  0  0  0  0  0  0  0  0  0
  -19.0030  -29.7090   23.6600 C   0  0  0  0  0  3  0  0  0  0  0  0
  -17.6960  -30.2000   23.8370 C   0  0  0  0  0  3  0  0  0  0  0  0
  -16.5950  -29.4450   23.3950 C   0  0  0  0  0  3  0  0  0  0  0  0
  -16.8060  -28.2040   22.7680 C   0  0  0  0  0  3  0  0  0  0  0  0
  -25.7850  -32.2860   23.7130 C   0  0  0  0  0  3  0  0  0  0  0  0
  -26.3130  -31.4970   24.9730 C   0  0  1  0  0  0  0  0  0  0  0  0
  -25.2110  -31.1700   26.0090 C   0  0  0  0  0  1  0  0  0  0  0  0
  -26.9720  -30.1640   24.5470 C   0  0  0  0  0  1  0  0  0  0  0  0
  -27.4100  -32.3220   25.6860 C   0  0  0  0  0  1  0  0  0  0  0  0
  -25.4000  -33.6560   24.0800 N   0  0  0  0  0  0  0  0  0  0  0  0
  -25.6850  -34.7450   23.3540 C   0  0  0  0  0  0  0  0  0  0  0  0
  -26.3690  -34.7060   22.3270 O   0  0  0  0  0  0  0  0  0  0  0  0
  -24.7890  -33.7560   24.8760 H   0  0  0  0  0  0  0  0  0  0  0  0
  -23.8610  -36.4470   23.0390 C   0  0  0  0  0  1  0  0  0  0  0  0
  -25.1200  -36.0920   23.8440 C   0  0  0  0  0  3  0  0  0  0  0  0
  -27.2010  -37.0730   24.7040 C   0  0  0  0  0  1  0  0  0  0  0  0
  -26.0930  -37.2030   23.7620 N   0  0  0  0  0  0  0  0  0  0  0  0
  -25.6360  -38.0960   23.9290 H   0  0  0  0  0  0  0  0  0  0  0  0
  1  2  1  0
  1  3  1  0
  2  5  1  0
  3  9  1  0
  3  4  1  0
  4 54  1  0
  5  4  1  0
  5 55  1  0
  5  6  1  6
  7 10  1  0
  8 12  1  0
  9  7  2  0
 10 13  1  0
 11  8  2  0
 11  9  1  0
 12 23  1  0
 12 10  2  0
 14 11  1  0
 15 23  1  0
 16 21  1  0
 17 18  1  0
 17 16  1  0
 19 18  1  0
 19 28  1  0
 19 20  1  0
 21 15  1  0
 21 20  1  0
 22 15  2  0
 23 24  1  0
 25 26  2  0
 26 45  1  0
 27 26  1  0
 27 30  1  0
 28 29  1  0
 28 25  1  0
 29 27  2  0
 30 31  1  0
 31 32  2  0
 33 36  1  0
 33 32  1  0
 34 33  2  0
 35 34  1  0
 35 30  2  0
 36 37  1  0
 37 38  1  0
 38 39  2  0
 40 39  1  0
 40 44  1  0
 41 40  2  0
 42 37  2  0
 42 41  1  0
 43 42  1  0
 45 46  1  0
 46 49  1  0
 46 48  1  0
 47 45  2  0
 50 25  1  0
 50 51  1  0
 52 50  1  0
 54 53  1  0
 56 55  1  0
 57 59  1  0
 57 56  1  0
 58 69  2  0
 59 64  1  0
 60 68  1  0
 60 70  1  0
 61 63  1  0
 62 68  1  0
 63 64  2  0
 63 62  1  0
 65 59  2  0
 66 65  1  0
 66 61  2  0
 67 61  1  0
 67 60  1  0
 68 58  1  0
 70 72  2  0
 71 70  1  0
 73 71  1  0
 74 83  2  0
 74 79  1  0
 75 71  1  0
 75 79  1  0
 76 75  1  0
 77 78  1  0
 77 76  1  0
 78 74  1  0
 79 80  2  0
 80 81  1  0
 82 81  2  0
 83 82  1  0
 84 58  1  0
 84 89  1  0
 84 85  1  0
 85 88  1  1
 85 86  1  0
 87 85  1  0
 89 92  1  0
 90 94  1  0
 90 89  1  0
 91 90  2  0
 94 93  1  0
 96 94  1  0
 96 97  1  0
 96 95  1  0
M  ISO  4  15 100  23 100  56 101  57 101
M  END
>  <TORSDO>  (8) 
F 20

>  <SCORE>  (8) 
-10.966

>  <name>  (8) 
7

>  <ligand_id>  (8) 
7

>  <original_smiles>  (8) 
[H]c1c([H])c([H])c2c(c1[H])C([H])([H])C([H])([H])C([H])([H])C2([H])N([H])C(=O)C1([H])N(C(=O)C([H])(N([H])C(=O)C([H])(N([H])C([H])([H])[H])C([H])([H])[H])C(C([H])([H])[H])(C([H])([H])[H])C([H])([H])[H])C([H])([H])c2c([H])c(OC([H])([H])C([H])([H])[N+]3([H])C([H])([H])C([H])([H])C([H])(c4c([H])c(C([H])([H])[H])c(N([H])C(=O)N5C([H])([H])C([H])([H])C([H])([H])C([H])(n6nc(-c7c([H])c([H])c(Oc8c([H])c([H])c(F)c([H])c8F)c([H])c7[H])c(C(=O)N([H])[H])c6N([H])[H])C5([H])[H])c([H])c4C([H])([H])[H])C3([H])C([H])([H])C([H])([H])[H])c([H])c([H])c2C1([H])[H]

>  <smiles>  (8) 
[H]c1c([H])c([H])c2c(c1[H])C([H])([H])C([H])([H])C([H])([H])C2([H])N([H])C(=O)C1([H])N(C(=O)C([H])(N([H])C(=O)C([H])(N([H])C([H])([H])[H])C([H])([H])[H])C(C([H])([H])[H])(C([H])([H])[H])C([H])([H])[H])C([H])([H])c2c([H])c(OC([H])([H])C([H])([H])[N+]3([H])C([H])([H])C([H])([H])C([H])(c4c([H])c(C([H])([H])[H])c(N([H])C(=O)N5C([H])([H])C([H])([H])C([H])([H])C([H])(n6nc(-c7c([H])c([H])c(Oc8c([H])c([H])c(F)c([H])c8F)c([H])c7[H])c(C(=O)N([H])[H])c6N([H])[H])C5([H])[H])c([H])c4C([H])([H])[H])C3([H])C([H])([H])C([H])([H])[H])c([H])c([H])c2C1([H])[H]

$$$$
8:0:0
     RDKit          3D

 91100  0  0  1  0  0  0  0  0999 V2000
  -29.2410  -18.9780   21.1310 C   0  0  0  0  0  3  0  0  0  0  0  0
  -28.8410  -20.3130   21.4530 C   0  0  0  0  0  3  0  0  0  0  0  0
  -30.0390  -19.8550   19.0810 C   0  0  0  0  0  3  0  0  0  0  0  0
  -29.8810  -18.6860   19.8990 C   0  0  0  0  0  0  0  0  0  0  0  0
  -29.0690  -21.3900   20.5620 C   0  0  0  0  0  0  0  0  0  0  0  0
  -29.6670  -21.1400   19.3790 N   0  0  0  0  0  0  0  0  0  0  0  0
  -30.1290  -16.9850   17.9220 C   0  0  0  0  0  2  0  0  0  0  0  0
  -31.5290  -17.2820   18.3730 C   0  0  0  0  0  2  0  0  0  0  0  0
  -30.3820  -17.2580   19.3980 C   0  0  1  0  0  0  0  0  0  0  0  0
  -30.9100  -14.8580   20.2510 C   0  0  0  0  0  0  0  0  0  0  0  0
  -30.6410  -12.5980   19.2650 C   0  0  0  0  0  2  0  0  0  0  0  0
  -29.7200  -12.7120   18.0310 C   0  0  0  0  0  2  0  0  0  0  0  0
  -28.2400  -12.5910   18.4470 C   0  0  0  0  0  2  0  0  0  0  0  0
  -27.8770  -13.4590   19.6830 C   0  0  0  0  0  3  0  0  0  0  0  0
  -28.9360  -13.3530   20.8030 C   0  0  0  0  0  2  0  0  0  0  0  0
  -30.2410  -13.6610   20.2100 N   0  0  0  0  0  0  0  0  0  0  0  0
  -32.1210  -14.8870   20.0200 O   0  0  0  0  0  0  0  0  0  0  0  0
  -30.1570  -16.0200   20.2190 N   0  0  0  0  0  0  0  0  0  0  0  0
  -29.1920  -15.8640   20.4700 H   0  0  0  0  0  0  0  0  0  0  0  0
  -25.4860  -14.0490   20.4020 C   0  0  0  0  0  0  0  0  0  0  0  0
  -24.4190  -13.2770   20.7720 C   0  0  0  0  0  0  0  0  0  0  0  0
  -24.8860  -11.9260   20.7560 C   0  0  0  0  0  0  0  0  0  0  0  0
  -26.5320  -13.1720   20.1740 N   0  0  0  0  0  0  0  0  0  0  0  0
  -26.1780  -11.8900   20.4520 N   0  0  0  0  0  0  0  0  0  0  0  0
  -24.1610  -10.6630   20.9520 C   0  0  0  0  0  0  0  0  0  0  0  0
  -24.5750   -9.7180   21.9170 C   0  0  0  0  0  3  0  0  0  0  0  0
  -23.8510   -8.5200   22.1000 C   0  0  0  0  0  3  0  0  0  0  0  0
  -22.7000   -8.2590   21.3180 C   0  0  0  0  0  0  0  0  0  0  0  0
  -22.3060   -9.1920   20.3430 C   0  0  0  0  0  3  0  0  0  0  0  0
  -23.0310  -10.3820   20.1590 C   0  0  0  0  0  3  0  0  0  0  0  0
  -21.9500   -7.1110   21.4100 O   0  0  0  0  0  0  0  0  0  0  0  0
  -21.8560   -6.4020   22.5800 C   0  0  0  0  0  0  0  0  0  0  0  0
  -21.3530   -6.9830   23.7660 C   0  0  0  0  0  3  0  0  0  0  0  0
  -21.2110   -6.2010   24.9290 C   0  0  0  0  0  3  0  0  0  0  0  0
  -21.5590   -4.8360   24.9070 C   0  0  0  0  0  0  0  0  0  0  0  0
  -22.0520   -4.2540   23.7260 C   0  0  0  0  0  3  0  0  0  0  0  0
  -22.1980   -5.0350   22.5660 C   0  0  0  0  0  0  0  0  0  0  0  0
  -22.6550   -4.4640   21.4250 F   0  0  0  0  0  0  0  0  0  0  0  0
  -21.4140   -4.0810   26.0190 F   0  0  0  0  0  0  0  0  0  0  0  0
  -23.0200  -13.7540   21.0300 C   0  0  0  0  0  0  0  0  0  0  0  0
  -22.2910  -13.0660   21.9030 N   0  0  0  0  0  0  0  0  0  0  0  0
  -22.5790  -14.7690   20.4920 O   0  0  0  0  0  0  0  0  0  0  0  0
  -22.6590  -12.2450   22.3610 H   0  0  0  0  0  0  0  0  0  0  0  0
  -21.3490  -13.3630   22.1150 H   0  0  0  0  0  0  0  0  0  0  0  0
  -25.6490  -15.4190   20.2160 N   0  0  0  0  0  0  0  0  0  0  0  0
  -24.8820  -16.0760   20.3080 H   0  0  0  0  0  0  0  0  0  0  0  0
  -26.5030  -15.8530   19.8900 H   0  0  0  0  0  0  0  0  0  0  0  0
  -28.6730  -22.7050   20.9040 O   0  0  0  0  0  0  0  0  0  0  0  0
  -28.7980  -23.8960   20.0430 C   0  0  0  0  0  2  0  0  0  0  0  0
  -28.2360  -25.2320   20.7360 C   0  0  0  0  0  2  0  0  0  0  0  0
  -28.3860  -26.5950   20.1570 O   0  0  0  0  0  0  0  0  0  0  0  0
  -24.6070  -31.9500   23.2520 C   0  0  0  0  0  0  0  0  0  0  0  0
  -27.2630  -27.4350   20.1670 C   0  0  0  0  0  0  0  0  0  0  0  0
  -23.4150  -30.5490   21.6020 C   0  0  0  0  0  3  0  0  0  0  0  0
  -24.8810  -29.0160   20.1680 C   0  0  0  0  0  0  0  0  0  0  0  0
  -25.9510  -30.8940   21.4180 C   0  0  0  0  0  2  0  0  0  0  0  0
  -26.0450  -29.5210   20.7620 C   0  0  0  0  0  0  0  0  0  0  0  0
  -27.2440  -28.7430   20.7470 C   0  0  0  0  0  3  0  0  0  0  0  0
  -26.0770  -26.9820   19.5540 C   0  0  0  0  0  3  0  0  0  0  0  0
  -24.8990  -27.7540   19.5530 C   0  0  0  0  0  3  0  0  0  0  0  0
  -23.6360  -29.8760   20.2190 C   0  0  0  0  0  2  0  0  0  0  0  0
  -24.6770  -31.1500   22.1470 N   0  0  0  0  0  0  0  0  0  0  0  0
  -23.5220  -32.2130   23.7910 O   0  0  0  0  0  0  0  0  0  0  0  0
  -22.7620  -29.5250   22.5610 C   0  0  0  0  0  0  0  0  0  0  0  0
  -21.4360  -29.3380   22.4360 N   0  0  0  0  0  0  0  0  0  0  0  0
  -23.4460  -28.9010   23.3750 O   0  0  0  0  0  0  0  0  0  0  0  0
  -20.9450  -29.8910   21.7490 H   0  0  0  0  0  0  0  0  0  0  0  0
  -18.0670  -28.1180   22.9470 C   0  0  0  0  0  0  0  0  0  0  0  0
  -20.6260  -28.3900   23.2040 C   0  0  0  0  0  3  0  0  0  0  0  0
  -20.7310  -26.9640   22.6160 C   0  0  0  0  0  2  0  0  0  0  0  0
  -19.6250  -26.6430   21.6070 C   0  0  0  0  0  2  0  0  0  0  0  0
  -18.2470  -26.7760   22.2590 C   0  0  0  0  0  2  0  0  0  0  0  0
  -19.1830  -28.8840   23.3770 C   0  0  0  0  0  0  0  0  0  0  0  0
  -18.9600  -30.1400   23.9830 C   0  0  0  0  0  3  0  0  0  0  0  0
  -17.6540  -30.6310   24.1620 C   0  0  0  0  0  3  0  0  0  0  0  0
  -16.5510  -29.8610   23.7490 C   0  0  0  0  0  3  0  0  0  0  0  0
  -16.7580  -28.6070   23.1470 C   0  0  0  0  0  3  0  0  0  0  0  0
  -25.8850  -32.5920   23.8780 C   0  0  0  0  0  3  0  0  0  0  0  0
  -26.3930  -31.8380   25.1670 C   0  0  1  0  0  0  0  0  0  0  0  0
  -25.2930  -31.6070   26.2300 C   0  0  0  0  0  1  0  0  0  0  0  0
  -26.9830  -30.4560   24.7980 C   0  0  0  0  0  1  0  0  0  0  0  0
  -27.5380  -32.6430   25.8260 C   0  0  0  0  0  1  0  0  0  0  0  0
  -25.5730  -33.9950   24.1900 N   0  0  0  0  0  0  0  0  0  0  0  0
  -25.9090  -35.0410   23.4220 C   0  0  0  0  0  0  0  0  0  0  0  0
  -26.5850  -34.9270   22.3950 O   0  0  0  0  0  0  0  0  0  0  0  0
  -24.9810  -34.1560   24.9910 H   0  0  0  0  0  0  0  0  0  0  0  0
  -24.1960  -36.8370   23.0200 C   0  0  0  0  0  1  0  0  0  0  0  0
  -25.4170  -36.4330   23.8600 C   0  0  0  0  0  3  0  0  0  0  0  0
  -27.5360  -37.3190   24.7310 C   0  0  0  0  0  1  0  0  0  0  0  0
  -26.4540  -37.4840   23.7640 N   0  0  0  0  0  0  0  0  0  0  0  0
  -26.0450  -38.4050   23.8990 H   0  0  0  0  0  0  0  0  0  0  0  0
  1  2  2  0
  3  6  1  0
  3  4  2  0
  4  1  1  0
  5 48  1  0
  5  2  1  0
  6  5  2  0
  7  8  1  0
  7  9  1  0
  8  9  1  0
  9  4  1  0
  9 18  1  1
 11 16  1  0
 12 13  1  0
 12 11  1  0
 14 13  1  0
 14 23  1  0
 14 15  1  0
 16 10  1  0
 16 15  1  0
 17 10  2  0
 18 10  1  0
 18 19  1  0
 20 21  2  0
 21 40  1  0
 22 21  1  0
 22 25  1  0
 23 20  1  0
 23 24  1  0
 24 22  2  0
 25 26  1  0
 26 27  2  0
 28 31  1  0
 28 27  1  0
 29 28  2  0
 30 29  1  0
 30 25  2  0
 31 32  1  0
 32 33  1  0
 33 34  2  0
 35 34  1  0
 35 39  1  0
 36 35  2  0
 37 32  2  0
 37 36  1  0
 38 37  1  0
 40 41  1  0
 41 44  1  0
 41 43  1  0
 42 40  2  0
 45 46  1  0
 45 20  1  0
 47 45  1  0
 49 50  1  0
 49 48  1  0
 51 53  1  0
 51 50  1  0
 52 63  2  0
 53 58  1  0
 54 62  1  0
 54 64  1  0
 55 61  1  0
 55 57  1  0
 56 62  1  0
 57 56  1  0
 58 57  2  0
 59 53  2  0
 60 59  1  0
 60 55  2  0
 61 54  1  0
 62 52  1  0
 64 66  2  0
 65 64  1  0
 67 65  1  0
 68 77  2  0
 68 73  1  0
 69 65  1  0
 69 73  1  0
 70 69  1  0
 71 72  1  0
 71 70  1  0
 72 68  1  0
 73 74  2  0
 74 75  1  0
 76 75  2  0
 77 76  1  0
 78 52  1  0
 78 83  1  0
 78 79  1  0
 79 82  1  1
 79 80  1  0
 81 79  1  0
 83 86  1  0
 84 88  1  0
 84 83  1  0
 85 84  2  0
 88 87  1  0
 90 88  1  0
 90 91  1  0
 90 89  1  0
M  ISO  4  10 100  18 100  50 101  51 101
M  END
>  <TORSDO>  (9) 
F 20

>  <SCORE>  (9) 
-12.707

>  <name>  (9) 
8

>  <ligand_id>  (9) 
8

>  <original_smiles>  (9) 
[H]c1nc(OC([H])([H])C([H])([H])Oc2c([H])c([H])c3c(c2[H])C([H])([H])N(C(=O)C([H])(N([H])C(=O)C([H])(N([H])C([H])([H])[H])C([H])([H])[H])C(C([H])([H])[H])(C([H])([H])[H])C([H])([H])[H])C([H])(C(=O)N([H])C2([H])c4c([H])c([H])c([H])c([H])c4C([H])([H])C([H])([H])C2([H])[H])C3([H])[H])c([H])c([H])c1C1(N([H])C(=O)N2C([H])([H])C([H])([H])C([H])([H])C([H])(n3nc(-c4c([H])c([H])c(Oc5c([H])c([H])c(F)c([H])c5F)c([H])c4[H])c(C(=O)N([H])[H])c3N([H])[H])C2([H])[H])C([H])([H])C1([H])[H]

>  <smiles>  (9) 
[H]c1nc(OC([H])([H])C([H])([H])Oc2c([H])c([H])c3c(c2[H])C([H])([H])N(C(=O)C([H])(N([H])C(=O)C([H])(N([H])C([H])([H])[H])C([H])([H])[H])C(C([H])([H])[H])(C([H])([H])[H])C([H])([H])[H])C([H])(C(=O)N([H])C2([H])c4c([H])c([H])c([H])c([H])c4C([H])([H])C([H])([H])C2([H])[H])C3([H])[H])c([H])c([H])c1C1(N([H])C(=O)N2C([H])([H])C([H])([H])C([H])([H])C([H])(n3nc(-c4c([H])c([H])c(Oc5c([H])c([H])c(F)c([H])c5F)c([H])c4[H])c(C(=O)N([H])[H])c3N([H])[H])C2([H])[H])C([H])([H])C1([H])[H]

$$$$
9:0:0
     RDKit          3D

 89 98  0  0  1  0  0  0  0  0999 V2000
  -29.4700  -21.5280   19.6090 O   0  0  0  0  0  0  0  0  0  0  0  0
  -30.5610  -18.3940   21.5680 C   0  0  0  0  0  3  0  0  0  0  0  0
  -30.3450  -19.7740   21.2100 C   0  0  0  0  0  3  0  0  0  0  0  0
  -29.2520  -19.1800   19.0850 C   0  0  0  0  0  3  0  0  0  0  0  0
  -30.1880  -17.4170   20.6220 C   0  0  0  0  0  0  0  0  0  0  0  0
  -29.5120  -17.8390   19.4350 C   0  0  0  0  0  0  0  0  0  0  0  0
  -29.7000  -20.1940   19.9890 C   0  0  0  0  0  0  0  0  0  0  0  0
  -28.9770  -16.4560   19.1680 C   0  0  0  0  0  2  0  0  0  0  0  0
  -29.6680  -15.9500   20.5400 C   0  0  0  0  0  3  0  0  0  0  0  0
  -30.5890  -14.6760   20.3010 C   0  0  0  0  0  0  0  0  0  0  0  0
  -30.3860  -12.4550   19.2130 C   0  0  0  0  0  2  0  0  0  0  0  0
  -29.4140  -12.6300   18.0220 C   0  0  0  0  0  2  0  0  0  0  0  0
  -27.9460  -12.4670   18.4710 C   0  0  0  0  0  2  0  0  0  0  0  0
  -27.6180  -13.2870   19.7450 C   0  0  0  0  0  3  0  0  0  0  0  0
  -28.7000  -13.0890   20.8290 C   0  0  0  0  0  2  0  0  0  0  0  0
  -30.0040  -13.4380   20.2450 N   0  0  0  0  0  0  0  0  0  0  0  0
  -31.7700  -14.8300   19.9650 O   0  0  0  0  0  0  0  0  0  0  0  0
  -25.2400  -13.9060   20.4990 C   0  0  0  0  0  0  0  0  0  0  0  0
  -24.1710  -13.1380   20.8750 C   0  0  0  0  0  0  0  0  0  0  0  0
  -24.6240  -11.7850   20.8280 C   0  0  0  0  0  0  0  0  0  0  0  0
  -26.2750  -13.0180   20.2460 N   0  0  0  0  0  0  0  0  0  0  0  0
  -25.9100  -11.7370   20.5030 N   0  0  0  0  0  0  0  0  0  0  0  0
  -23.8950  -10.5260   21.0160 C   0  0  0  0  0  0  0  0  0  0  0  0
  -24.3290   -9.5540   21.9440 C   0  0  0  0  0  3  0  0  0  0  0  0
  -23.6000   -8.3580   22.1210 C   0  0  0  0  0  3  0  0  0  0  0  0
  -22.4240   -8.1260   21.3680 C   0  0  0  0  0  0  0  0  0  0  0  0
  -22.0090   -9.0880   20.4300 C   0  0  0  0  0  3  0  0  0  0  0  0
  -22.7370  -10.2750   20.2520 C   0  0  0  0  0  3  0  0  0  0  0  0
  -21.6660   -6.9830   21.4540 O   0  0  0  0  0  0  0  0  0  0  0  0
  -21.6150   -6.2390   22.6060 C   0  0  0  0  0  0  0  0  0  0  0  0
  -21.1740   -6.7890   23.8290 C   0  0  0  0  0  3  0  0  0  0  0  0
  -21.0710   -5.9720   24.9710 C   0  0  0  0  0  3  0  0  0  0  0  0
  -21.3970   -4.6050   24.8920 C   0  0  0  0  0  0  0  0  0  0  0  0
  -21.8320   -4.0540   23.6730 C   0  0  0  0  0  3  0  0  0  0  0  0
  -21.9370   -4.8700   22.5320 C   0  0  0  0  0  0  0  0  0  0  0  0
  -22.3350   -4.3300   21.3550 F   0  0  0  0  0  0  0  0  0  0  0  0
  -21.2910   -3.8170   25.9870 F   0  0  0  0  0  0  0  0  0  0  0  0
  -22.7800  -13.6220   21.1690 C   0  0  0  0  0  0  0  0  0  0  0  0
  -22.0580  -12.9210   22.0360 N   0  0  0  0  0  0  0  0  0  0  0  0
  -22.3440  -14.6550   20.6640 O   0  0  0  0  0  0  0  0  0  0  0  0
  -22.4250  -12.0850   22.4650 H   0  0  0  0  0  0  0  0  0  0  0  0
  -21.1260  -13.2270   22.2750 H   0  0  0  0  0  0  0  0  0  0  0  0
  -25.4080  -15.2770   20.3350 N   0  0  0  0  0  0  0  0  0  0  0  0
  -24.6440  -15.9300   20.4680 H   0  0  0  0  0  0  0  0  0  0  0  0
  -26.2590  -15.7270   20.0230 H   0  0  0  0  0  0  0  0  0  0  0  0
  -29.1640  -22.5940   20.5560 C   0  0  0  0  0  2  0  0  0  0  0  0
  -29.0230  -24.0290   19.8810 C   0  0  0  0  0  3  0  0  0  0  0  0
  -28.3360  -25.1870   20.7170 C   0  0  0  0  0  3  0  0  0  0  0  0
  -28.4320  -26.5710   20.2170 O   0  0  0  0  0  0  0  0  0  0  0  0
  -24.5970  -31.8850   23.2250 C   0  0  0  0  0  0  0  0  0  0  0  0
  -27.2800  -27.3600   20.2170 C   0  0  0  0  0  0  0  0  0  0  0  0
  -23.4150  -30.4690   21.5800 C   0  0  0  0  0  3  0  0  0  0  0  0
  -24.8890  -28.9160   20.1830 C   0  0  0  0  0  0  0  0  0  0  0  0
  -25.9480  -30.8150   21.4100 C   0  0  0  0  0  2  0  0  0  0  0  0
  -26.0460  -29.4340   20.7780 C   0  0  0  0  0  0  0  0  0  0  0  0
  -27.2460  -28.6690   20.7810 C   0  0  0  0  0  3  0  0  0  0  0  0
  -26.1010  -26.8780   19.6090 C   0  0  0  0  0  3  0  0  0  0  0  0
  -24.9160  -27.6410   19.5910 C   0  0  0  0  0  3  0  0  0  0  0  0
  -23.6430  -29.7780   20.2090 C   0  0  0  0  0  2  0  0  0  0  0  0
  -24.6710  -31.0750   22.1290 N   0  0  0  0  0  0  0  0  0  0  0  0
  -23.5080  -32.1560   23.7520 O   0  0  0  0  0  0  0  0  0  0  0  0
  -22.7510  -29.4570   22.5440 C   0  0  0  0  0  0  0  0  0  0  0  0
  -21.4260  -29.2790   22.4120 N   0  0  0  0  0  0  0  0  0  0  0  0
  -23.4280  -28.8330   23.3650 O   0  0  0  0  0  0  0  0  0  0  0  0
  -20.9390  -29.8330   21.7210 H   0  0  0  0  0  0  0  0  0  0  0  0
  -18.0460  -28.0940   22.9120 C   0  0  0  0  0  0  0  0  0  0  0  0
  -20.6050  -28.3430   23.1820 C   0  0  0  0  0  3  0  0  0  0  0  0
  -20.7010  -26.9120   22.6050 C   0  0  0  0  0  2  0  0  0  0  0  0
  -19.5980  -26.5950   21.5900 C   0  0  0  0  0  2  0  0  0  0  0  0
  -18.2160  -26.7450   22.2340 C   0  0  0  0  0  2  0  0  0  0  0  0
  -19.1660  -28.8510   23.3420 C   0  0  0  0  0  0  0  0  0  0  0  0
  -18.9520  -30.1140   23.9360 C   0  0  0  0  0  3  0  0  0  0  0  0
  -17.6490  -30.6190   24.1030 C   0  0  0  0  0  3  0  0  0  0  0  0
  -16.5420  -29.8590   23.6870 C   0  0  0  0  0  3  0  0  0  0  0  0
  -16.7410  -28.5990   23.0960 C   0  0  0  0  0  3  0  0  0  0  0  0
  -25.8710  -32.5280   23.8560 C   0  0  0  0  0  3  0  0  0  0  0  0
  -26.3840  -31.7620   25.1370 C   0  0  1  0  0  0  0  0  0  0  0  0
  -25.2860  -31.5180   26.1990 C   0  0  0  0  0  1  0  0  0  0  0  0
  -26.9780  -30.3880   24.7500 C   0  0  0  0  0  1  0  0  0  0  0  0
  -27.5230  -32.5670   25.8070 C   0  0  0  0  0  1  0  0  0  0  0  0
  -25.5490  -33.9230   24.1830 N   0  0  0  0  0  0  0  0  0  0  0  0
  -25.8780  -34.9780   23.4240 C   0  0  0  0  0  0  0  0  0  0  0  0
  -26.5510  -34.8770   22.3940 O   0  0  0  0  0  0  0  0  0  0  0  0
  -24.9510  -34.0740   24.9810 H   0  0  0  0  0  0  0  0  0  0  0  0
  -24.1400  -36.7590   23.0600 C   0  0  0  0  0  1  0  0  0  0  0  0
  -25.3790  -36.3640   23.8780 C   0  0  0  0  0  3  0  0  0  0  0  0
  -27.5020  -37.2640   24.7230 C   0  0  0  0  0  1  0  0  0  0  0  0
  -26.4050  -37.4230   23.7710 N   0  0  0  0  0  0  0  0  0  0  0  0
  -25.9930  -38.3410   23.9120 H   0  0  0  0  0  0  0  0  0  0  0  0
  1  7  1  0
  1 46  1  0
  3  2  1  0
  4  6  2  0
  4  7  1  0
  5  2  2  0
  6  5  1  0
  7  3  2  0
  8  6  1  0
  8  9  1  0
  9 10  1  0
  9  5  1  0
 11 16  1  0
 12 13  1  0
 12 11  1  0
 14 13  1  0
 14 21  1  0
 14 15  1  0
 16 10  1  0
 16 15  1  0
 17 10  2  0
 18 19  2  0
 19 38  1  0
 20 19  1  0
 20 23  1  0
 21 18  1  0
 21 22  1  0
 22 20  2  0
 23 24  1  0
 24 25  2  0
 26 29  1  0
 26 25  1  0
 27 26  2  0
 28 27  1  0
 28 23  2  0
 29 30  1  0
 30 31  1  0
 31 32  2  0
 33 32  1  0
 33 37  1  0
 34 33  2  0
 35 30  2  0
 35 34  1  0
 36 35  1  0
 38 39  1  0
 39 42  1  0
 39 41  1  0
 40 38  2  0
 43 44  1  0
 43 18  1  0
 45 43  1  0
 47 46  1  0
 47 48  2  0
 49 51  1  0
 49 48  1  0
 50 61  2  0
 51 56  1  0
 52 60  1  0
 52 62  1  0
 53 59  1  0
 53 55  1  0
 54 60  1  0
 55 56  2  0
 55 54  1  0
 57 51  2  0
 58 57  1  0
 58 53  2  0
 59 52  1  0
 60 50  1  0
 62 64  2  0
 63 62  1  0
 65 63  1  0
 66 75  2  0
 66 71  1  0
 67 63  1  0
 67 71  1  0
 68 67  1  0
 69 70  1  0
 69 68  1  0
 70 66  1  0
 71 72  2  0
 72 73  1  0
 74 73  2  0
 75 74  1  0
 76 50  1  0
 76 81  1  0
 76 77  1  0
 77 80  1  1
 77 78  1  0
 79 77  1  0
 81 84  1  0
 82 86  1  0
 82 81  1  0
 83 82  2  0
 86 85  1  0
 88 86  1  0
 88 89  1  0
 88 87  1  0
M  ISO  4   9 100  10 100  48 101  49 101
M  END
>  <TORSDO>  (10) 
F 20

>  <SCORE>  (10) 
-13.892

>  <name>  (10) 
9

>  <ligand_id>  (10) 
9

>  <original_smiles>  (10) 
[H]c1c([H])c([H])c2c(c1[H])C([H])([H])C([H])([H])C([H])([H])C2([H])N([H])C(=O)C1([H])N(C(=O)C([H])(N([H])C(=O)C([H])(N([H])C([H])([H])[H])C([H])([H])[H])C(C([H])([H])[H])(C([H])([H])[H])C([H])([H])[H])C([H])([H])c2c([H])c(OC([H])([H])C([H])([H])C([H])([H])Oc3c([H])c([H])c4c(c3[H])C([H])([H])C4([H])C(=O)N3C([H])([H])C([H])([H])C([H])([H])C([H])(n4nc(-c5c([H])c([H])c(Oc6c([H])c([H])c(F)c([H])c6F)c([H])c5[H])c(C(=O)N([H])[H])c4N([H])[H])C3([H])[H])c([H])c([H])c2C1([H])[H]

>  <smiles>  (10) 
[H]c1c([H])c([H])c2c(c1[H])C([H])([H])C([H])([H])C([H])([H])C2([H])N([H])C(=O)C1([H])N(C(=O)C([H])(N([H])C(=O)C([H])(N([H])C([H])([H])[H])C([H])([H])[H])C(C([H])([H])[H])(C([H])([H])[H])C([H])([H])[H])C([H])([H])c2c([H])c(OC([H])([H])C([H])([H])C([H])([H])Oc3c([H])c([H])c4c(c3[H])C([H])([H])C4([H])C(=O)N3C([H])([H])C([H])([H])C([H])([H])C([H])(n4nc(-c5c([H])c([H])c(Oc6c([H])c([H])c(F)c([H])c6F)c([H])c5[H])c(C(=O)N([H])[H])c4N([H])[H])C3([H])[H])c([H])c([H])c2C1([H])[H]

$$$$
10:0:0
     RDKit          3D

 95105  0  0  1  0  0  0  0  0999 V2000
  -32.5350  -21.4500   20.4470 C   0  0  0  0  0  3  0  0  0  0  0  0
  -32.0410  -20.1510   20.6470 C   0  0  0  0  0  3  0  0  0  0  0  0
  -31.6500  -22.5370   20.3940 C   0  0  0  0  0  3  0  0  0  0  0  0
  -30.6600  -19.9230   20.8190 C   0  0  0  0  0  0  0  0  0  0  0  0
  -29.7540  -21.0270   20.7610 C   0  0  0  0  0  0  0  0  0  0  0  0
  -30.2570  -22.3380   20.5430 C   0  0  0  0  0  0  0  0  0  0  0  0
  -30.8000  -14.5300   20.1750 C   0  0  0  0  0  0  0  0  0  0  0  0
  -30.4090  -12.4270   18.9530 C   0  0  0  0  0  2  0  0  0  0  0  0
  -29.4250  -12.7020   17.7990 C   0  0  0  0  0  2  0  0  0  0  0  0
  -27.9680  -12.5450   18.2800 C   0  0  0  0  0  2  0  0  0  0  0  0
  -27.6860  -13.3330   19.5860 C   0  0  0  0  0  3  0  0  0  0  0  0
  -28.7870  -13.0830   20.6450 C   0  0  0  0  0  2  0  0  0  0  0  0
  -30.0950  -13.3750   20.0300 N   0  0  0  0  0  0  0  0  0  0  0  0
  -31.9140  -14.7180   19.6770 O   0  0  0  0  0  0  0  0  0  0  0  0
  -29.9620  -17.7900   19.6550 C   0  0  0  0  0  2  0  0  0  0  0  0
  -31.0820  -17.5800   21.8730 C   0  0  0  0  0  2  0  0  0  0  0  0
  -29.3110  -16.4190   19.8610 C   0  0  0  0  0  2  0  0  0  0  0  0
  -30.4960  -16.1530   22.0230 C   0  0  0  0  0  2  0  0  0  0  0  0
  -30.1720  -18.4800   21.0080 C   0  0  0  0  0  3  0  0  0  0  0  0
  -30.1140  -15.5510   20.7330 N   0  0  0  0  0  0  0  0  0  0  0  0
  -25.3180  -13.9470   20.3780 C   0  0  0  0  0  0  0  0  0  0  0  0
  -24.2610  -13.1750   20.7800 C   0  0  0  0  0  0  0  0  0  0  0  0
  -24.7190  -11.8240   20.7250 C   0  0  0  0  0  0  0  0  0  0  0  0
  -26.3520  -13.0620   20.1100 N   0  0  0  0  0  0  0  0  0  0  0  0
  -25.9970  -11.7810   20.3750 N   0  0  0  0  0  0  0  0  0  0  0  0
  -24.0000  -10.5620   20.9330 C   0  0  0  0  0  0  0  0  0  0  0  0
  -24.4460   -9.6060   21.8720 C   0  0  0  0  0  3  0  0  0  0  0  0
  -23.7280   -8.4060   22.0650 C   0  0  0  0  0  3  0  0  0  0  0  0
  -22.5510   -8.1550   21.3210 C   0  0  0  0  0  0  0  0  0  0  0  0
  -22.1260   -9.1000   20.3710 C   0  0  0  0  0  3  0  0  0  0  0  0
  -22.8440  -10.2910   20.1740 C   0  0  0  0  0  3  0  0  0  0  0  0
  -21.8060   -7.0060   21.4230 O   0  0  0  0  0  0  0  0  0  0  0  0
  -21.7410   -6.2920   22.5920 C   0  0  0  0  0  0  0  0  0  0  0  0
  -21.2960   -6.8750   23.7980 C   0  0  0  0  0  3  0  0  0  0  0  0
  -21.1790   -6.0860   24.9600 C   0  0  0  0  0  3  0  0  0  0  0  0
  -21.4980   -4.7160   24.9150 C   0  0  0  0  0  0  0  0  0  0  0  0
  -21.9350   -4.1320   23.7140 C   0  0  0  0  0  3  0  0  0  0  0  0
  -22.0530   -4.9180   22.5560 C   0  0  0  0  0  0  0  0  0  0  0  0
  -22.4540   -4.3460   21.3950 F   0  0  0  0  0  0  0  0  0  0  0  0
  -21.3810   -3.9550   26.0300 F   0  0  0  0  0  0  0  0  0  0  0  0
  -22.8740  -13.6540   21.1030 C   0  0  0  0  0  0  0  0  0  0  0  0
  -22.1750  -12.9560   21.9900 N   0  0  0  0  0  0  0  0  0  0  0  0
  -22.4190  -14.6840   20.6060 O   0  0  0  0  0  0  0  0  0  0  0  0
  -22.5530  -12.1190   22.4090 H   0  0  0  0  0  0  0  0  0  0  0  0
  -21.2480  -13.2610   22.2540 H   0  0  0  0  0  0  0  0  0  0  0  0
  -25.4820  -15.3170   20.1990 N   0  0  0  0  0  0  0  0  0  0  0  0
  -24.7280  -15.9820   20.3370 H   0  0  0  0  0  0  0  0  0  0  0  0
  -26.3320  -15.7460   19.8590 H   0  0  0  0  0  0  0  0  0  0  0  0
  -27.4510  -20.0560   19.9240 C   0  0  0  0  0  2  0  0  0  0  0  0
  -27.1760  -21.5150   20.1720 C   0  0  0  0  0  2  0  0  0  0  0  0
  -28.2670  -20.8100   20.9550 C   0  0  0  0  0  3  0  0  0  0  0  0
  -29.3660  -23.3890   20.5020 O   0  0  0  0  0  0  0  0  0  0  0  0
  -29.7220  -24.5720   19.7820 C   0  0  0  0  0  2  0  0  0  0  0  0
  -28.4210  -25.3160   19.4420 C   0  0  0  0  0  2  0  0  0  0  0  0
  -28.5220  -26.7370   19.6110 O   0  0  0  0  0  0  0  0  0  0  0  0
  -24.6050  -31.6270   22.9940 C   0  0  0  0  0  0  0  0  0  0  0  0
  -27.3270  -27.4280   19.6510 C   0  0  0  0  0  0  0  0  0  0  0  0
  -23.4200  -30.2880   21.2880 C   0  0  0  0  0  3  0  0  0  0  0  0
  -24.8960  -28.8740   19.7720 C   0  0  0  0  0  0  0  0  0  0  0  0
  -25.9370  -30.7180   21.0940 C   0  0  0  0  0  2  0  0  0  0  0  0
  -26.0480  -29.3900   20.3760 C   0  0  0  0  0  0  0  0  0  0  0  0
  -27.2670  -28.6760   20.3120 C   0  0  0  0  0  3  0  0  0  0  0  0
  -26.1490  -26.9270   19.0450 C   0  0  0  0  0  3  0  0  0  0  0  0
  -24.9410  -27.6420   19.1040 C   0  0  0  0  0  3  0  0  0  0  0  0
  -23.6330  -29.6940   19.8720 C   0  0  0  0  0  2  0  0  0  0  0  0
  -24.6730  -30.8900   21.8520 N   0  0  0  0  0  0  0  0  0  0  0  0
  -23.5210  -31.8440   23.5560 O   0  0  0  0  0  0  0  0  0  0  0  0
  -22.8060  -29.1970   22.1940 C   0  0  0  0  0  0  0  0  0  0  0  0
  -21.4810  -29.0110   22.0910 N   0  0  0  0  0  0  0  0  0  0  0  0
  -23.5170  -28.5230   22.9440 O   0  0  0  0  0  0  0  0  0  0  0  0
  -20.9680  -29.6120   21.4630 H   0  0  0  0  0  0  0  0  0  0  0  0
  -18.1200  -27.7970   22.6410 C   0  0  0  0  0  0  0  0  0  0  0  0
  -20.6900  -28.0180   22.8190 C   0  0  0  0  0  3  0  0  0  0  0  0
  -20.7550  -26.6370   22.1260 C   0  0  0  0  0  2  0  0  0  0  0  0
  -19.6070  -26.4030   21.1400 C   0  0  0  0  0  2  0  0  0  0  0  0
  -18.2560  -26.5050   21.8520 C   0  0  0  0  0  2  0  0  0  0  0  0
  -19.2640  -28.5160   23.0810 C   0  0  0  0  0  0  0  0  0  0  0  0
  -19.0840  -29.7320   23.7760 C   0  0  0  0  0  3  0  0  0  0  0  0
  -17.7920  -30.2240   24.0400 C   0  0  0  0  0  3  0  0  0  0  0  0
  -16.6630  -29.5000   23.6170 C   0  0  0  0  0  3  0  0  0  0  0  0
  -16.8290  -28.2880   22.9230 C   0  0  0  0  0  3  0  0  0  0  0  0
  -25.8810  -32.2560   23.6370 C   0  0  0  0  0  3  0  0  0  0  0  0
  -26.4270  -31.4320   24.8670 C   0  0  1  0  0  0  0  0  0  0  0  0
  -25.3510  -31.1180   25.9330 C   0  0  0  0  0  1  0  0  0  0  0  0
  -27.0320  -30.0880   24.3950 C   0  0  0  0  0  1  0  0  0  0  0  0
  -27.5670  -32.2150   25.5590 C   0  0  0  0  0  1  0  0  0  0  0  0
  -25.5430  -33.6270   24.0400 N   0  0  0  0  0  0  0  0  0  0  0  0
  -25.8310  -34.7230   23.3240 C   0  0  0  0  0  0  0  0  0  0  0  0
  -26.4840  -34.6870   22.2770 O   0  0  0  0  0  0  0  0  0  0  0  0
  -24.9670  -33.7280   24.8630 H   0  0  0  0  0  0  0  0  0  0  0  0
  -24.0400  -36.4700   23.0890 C   0  0  0  0  0  1  0  0  0  0  0  0
  -25.3120  -36.0730   23.8540 C   0  0  0  0  0  3  0  0  0  0  0  0
  -27.4390  -36.9850   24.6750 C   0  0  0  0  0  1  0  0  0  0  0  0
  -26.3090  -37.1630   23.7680 N   0  0  0  0  0  0  0  0  0  0  0  0
  -25.8770  -38.0610   23.9730 H   0  0  0  0  0  0  0  0  0  0  0  0
  1  2  1  0
  2  4  2  0
  3  1  2  0
  3  6  1  0
  5  4  1  0
  5 51  1  0
  6  5  2  0
  7 20  1  0
  8 13  1  0
  9 10  1  0
  9  8  1  0
 11 10  1  0
 11 24  1  0
 11 12  1  0
 13  7  1  0
 13 12  1  0
 14  7  2  0
 15 17  1  0
 15 19  1  0
 16 18  1  0
 17 20  1  0
 19  4  1  0
 19 16  1  0
 20 18  1  0
 21 22  2  0
 22 41  1  0
 23 22  1  0
 23 26  1  0
 24 25  1  0
 24 21  1  0
 25 23  2  0
 26 27  1  0
 27 28  2  0
 29 32  1  0
 29 28  1  0
 30 29  2  0
 31 30  1  0
 31 26  2  0
 32 33  1  0
 33 34  1  0
 34 35  2  0
 36 35  1  0
 36 40  1  0
 37 36  2  0
 38 33  2  0
 38 37  1  0
 39 38  1  0
 41 42  1  0
 42 45  1  0
 42 44  1  0
 43 41  2  0
 46 47  1  0
 46 21  1  0
 48 46  1  0
 49 50  1  0
 49 51  1  0
 50 51  1  0
 52  6  1  0
 53 52  1  0
 54 55  1  0
 54 53  1  0
 55 57  1  0
 56 67  2  0
 57 62  1  0
 58 66  1  0
 58 68  1  0
 59 65  1  0
 59 61  1  0
 60 66  1  0
 61 60  1  0
 62 61  2  0
 63 64  1  0
 63 57  2  0
 64 59  2  0
 65 58  1  0
 66 56  1  0
 68 70  2  0
 69 68  1  0
 71 69  1  0
 72 81  2  0
 72 77  1  0
 73 69  1  0
 73 77  1  0
 74 73  1  0
 75 76  1  0
 75 74  1  0
 76 72  1  0
 77 78  2  0
 78 79  1  0
 80 79  2  0
 81 80  1  0
 82 56  1  0
 82 87  1  0
 82 83  1  0
 83 86  1  1
 83 84  1  0
 85 83  1  0
 87 90  1  0
 88 92  1  0
 88 87  1  0
 89 88  2  0
 92 91  1  0
 94 92  1  0
 94 95  1  0
 94 93  1  0
M  ISO  4   7 100  20 100  54 101  55 101
M  END
>  <TORSDO>  (11) 
F 20

>  <SCORE>  (11) 
-13.160

>  <name>  (11) 
10

>  <ligand_id>  (11) 
10

>  <original_smiles>  (11) 
[H]c1c([H])c([H])c2c(c1[H])C([H])([H])C([H])([H])C([H])([H])C2([H])N([H])C(=O)C1([H])N(C(=O)C([H])(N([H])C(=O)C([H])(N([H])C([H])([H])[H])C([H])([H])[H])C(C([H])([H])[H])(C([H])([H])[H])C([H])([H])[H])C([H])([H])c2c([H])c(OC([H])([H])C([H])([H])Oc3c([H])c([H])c([H])c(C4([H])C([H])([H])C([H])([H])N(C(=O)N5C([H])([H])C([H])([H])C([H])([H])C([H])(n6nc(-c7c([H])c([H])c(Oc8c([H])c([H])c(F)c([H])c8F)c([H])c7[H])c(C(=O)N([H])[H])c6N([H])[H])C5([H])[H])C([H])([H])C4([H])[H])c3C3([H])C([H])([H])C3([H])[H])c([H])c([H])c2C1([H])[H]

>  <smiles>  (11) 
[H]c1c([H])c([H])c2c(c1[H])C([H])([H])C([H])([H])C([H])([H])C2([H])N([H])C(=O)C1([H])N(C(=O)C([H])(N([H])C(=O)C([H])(N([H])C([H])([H])[H])C([H])([H])[H])C(C([H])([H])[H])(C([H])([H])[H])C([H])([H])[H])C([H])([H])c2c([H])c(OC([H])([H])C([H])([H])Oc3c([H])c([H])c([H])c(C4([H])C([H])([H])C([H])([H])N(C(=O)N5C([H])([H])C([H])([H])C([H])([H])C([H])(n6nc(-c7c([H])c([H])c(Oc8c([H])c([H])c(F)c([H])c8F)c([H])c7[H])c(C(=O)N([H])[H])c6N([H])[H])C5([H])[H])C([H])([H])C4([H])[H])c3C3([H])C([H])([H])C3([H])[H])c([H])c([H])c2C1([H])[H]

$$$$
11:0:0
     RDKit          3D

 98108  0  0  1  0  0  0  0  0999 V2000
  -28.6530  -19.2060   19.6140 C   0  0  0  0  0  3  0  0  0  0  0  0
  -29.4200  -20.9350   21.1300 C   0  0  0  0  0  3  0  0  0  0  0  0
  -27.3940  -21.2720   19.8110 C   0  0  0  0  0  3  0  0  0  0  0  0
  -29.6070  -19.6670   20.5500 C   0  0  0  0  0  0  0  0  0  0  0  0
  -27.5570  -20.0010   19.2250 C   0  0  0  0  0  0  0  0  0  0  0  0
  -28.3350  -21.7420   20.7460 C   0  0  0  0  0  0  0  0  0  0  0  0
  -31.5550  -14.8190   20.3610 C   0  0  0  0  0  0  0  0  0  0  0  0
  -31.0300  -12.9100   18.9260 C   0  0  0  0  0  2  0  0  0  0  0  0
  -30.0700  -13.3910   17.8180 C   0  0  0  0  0  2  0  0  0  0  0  0
  -28.6040  -13.2850   18.2840 C   0  0  0  0  0  2  0  0  0  0  0  0
  -28.3680  -13.9190   19.6790 C   0  0  0  0  0  3  0  0  0  0  0  0
  -29.4470  -13.4530   20.6860 C   0  0  0  0  0  2  0  0  0  0  0  0
  -30.7680  -13.7420   20.1050 N   0  0  0  0  0  0  0  0  0  0  0  0
  -32.7480  -14.8570   20.0450 O   0  0  0  0  0  0  0  0  0  0  0  0
  -30.6450  -17.8260   21.9970 C   0  0  0  0  0  2  0  0  0  0  0  0
  -31.6320  -18.3020   19.7030 C   0  0  0  0  0  2  0  0  0  0  0  0
  -30.0780  -16.5060   21.4500 C   0  0  0  0  0  2  0  0  0  0  0  0
  -31.1330  -16.9240   19.2250 C   0  0  0  0  0  2  0  0  0  0  0  0
  -30.8700  -18.8850   20.9070 C   0  0  0  0  0  3  0  0  0  0  0  0
  -30.8790  -15.9860   20.3330 N   0  0  0  0  0  0  0  0  0  0  0  0
  -25.9960  -14.5480   20.4580 C   0  0  0  0  0  0  0  0  0  0  0  0
  -24.9160  -13.7850   20.8050 C   0  0  0  0  0  0  0  0  0  0  0  0
  -25.3470  -12.4260   20.7080 C   0  0  0  0  0  0  0  0  0  0  0  0
  -27.0180  -13.6560   20.1700 N   0  0  0  0  0  0  0  0  0  0  0  0
  -26.6320  -12.3720   20.3790 N   0  0  0  0  0  0  0  0  0  0  0  0
  -24.5960  -11.1730   20.8520 C   0  0  0  0  0  0  0  0  0  0  0  0
  -24.9260  -10.2250   21.8460 C   0  0  0  0  0  3  0  0  0  0  0  0
  -24.1790   -9.0350   21.9750 C   0  0  0  0  0  3  0  0  0  0  0  0
  -23.0870   -8.7840   21.1100 C   0  0  0  0  0  0  0  0  0  0  0  0
  -22.7770   -9.7210   20.1080 C   0  0  0  0  0  3  0  0  0  0  0  0
  -23.5250  -10.9030   19.9770 C   0  0  0  0  0  3  0  0  0  0  0  0
  -22.3210   -7.6460   21.1470 O   0  0  0  0  0  0  0  0  0  0  0  0
  -22.0480   -6.9980   22.3260 C   0  0  0  0  0  0  0  0  0  0  0  0
  -21.3580   -7.6320   23.3820 C   0  0  0  0  0  3  0  0  0  0  0  0
  -21.0360   -6.9090   24.5470 C   0  0  0  0  0  3  0  0  0  0  0  0
  -21.3970   -5.5530   24.6570 C   0  0  0  0  0  0  0  0  0  0  0  0
  -22.0800   -4.9180   23.6040 C   0  0  0  0  0  3  0  0  0  0  0  0
  -22.4020   -5.6390   22.4420 C   0  0  0  0  0  0  0  0  0  0  0  0
  -23.0420   -5.0170   21.4220 F   0  0  0  0  0  0  0  0  0  0  0  0
  -21.0810   -4.8560   25.7730 F   0  0  0  0  0  0  0  0  0  0  0  0
  -23.5330  -14.2800   21.1160 C   0  0  0  0  0  0  0  0  0  0  0  0
  -22.8120  -13.5770   21.9840 N   0  0  0  0  0  0  0  0  0  0  0  0
  -23.1000  -15.3210   20.6270 O   0  0  0  0  0  0  0  0  0  0  0  0
  -23.1740  -12.7330   22.4010 H   0  0  0  0  0  0  0  0  0  0  0  0
  -21.8860  -13.8900   22.2350 H   0  0  0  0  0  0  0  0  0  0  0  0
  -26.1870  -15.9220   20.3470 N   0  0  0  0  0  0  0  0  0  0  0  0
  -25.4360  -16.5830   20.5050 H   0  0  0  0  0  0  0  0  0  0  0  0
  -27.0460  -16.3620   20.0480 H   0  0  0  0  0  0  0  0  0  0  0  0
  -25.2250  -20.1020   18.0840 C   0  0  0  0  0  2  0  0  0  0  0  0
  -25.4310  -18.6670   18.5070 C   0  0  0  0  0  2  0  0  0  0  0  0
  -26.6240  -19.5290   18.1450 C   0  0  2  0  0  0  0  0  0  0  0  0
  -28.4260  -18.1130   16.9980 C   0  0  0  0  0  1  0  0  0  0  0  0
  -27.3830  -19.2340   16.8570 C   0  0  0  0  0  2  0  0  0  0  0  0
  -28.2570  -23.0170   21.2210 O   0  0  0  0  0  0  0  0  0  0  0  0
  -28.9920  -23.9230   20.4080 C   0  0  0  0  0  2  0  0  0  0  0  0
  -29.3720  -25.1480   21.2370 C   0  0  0  0  0  2  0  0  0  0  0  0
  -29.9070  -26.2880   20.3520 C   0  0  0  0  0  2  0  0  0  0  0  0
  -29.6180  -27.5600   20.9210 O   0  0  0  0  0  0  0  0  0  0  0  0
  -24.8250  -32.1050   23.5130 C   0  0  0  0  0  0  0  0  0  0  0  0
  -28.3460  -28.0760   20.7730 C   0  0  0  0  0  0  0  0  0  0  0  0
  -24.0040  -30.5790   21.7500 C   0  0  0  0  0  3  0  0  0  0  0  0
  -25.7890  -29.2510   20.5150 C   0  0  0  0  0  0  0  0  0  0  0  0
  -26.4690  -31.2520   21.8490 C   0  0  0  0  0  2  0  0  0  0  0  0
  -26.7940  -29.9090   21.2350 C   0  0  0  0  0  0  0  0  0  0  0  0
  -28.0700  -29.3230   21.3710 C   0  0  0  0  0  3  0  0  0  0  0  0
  -27.3150  -27.4250   20.0500 C   0  0  0  0  0  3  0  0  0  0  0  0
  -26.0400  -28.0020   19.9280 C   0  0  0  0  0  3  0  0  0  0  0  0
  -24.4530  -29.9460   20.4080 C   0  0  0  0  0  2  0  0  0  0  0  0
  -25.1100  -31.3260   22.4320 N   0  0  0  0  0  0  0  0  0  0  0  0
  -23.6630  -32.2370   23.9200 O   0  0  0  0  0  0  0  0  0  0  0  0
  -23.3800  -29.4730   22.6310 C   0  0  0  0  0  0  0  0  0  0  0  0
  -22.1010  -29.1540   22.3700 N   0  0  0  0  0  0  0  0  0  0  0  0
  -24.0440  -28.9050   23.5020 O   0  0  0  0  0  0  0  0  0  0  0  0
  -21.6270  -29.6690   21.6420 H   0  0  0  0  0  0  0  0  0  0  0  0
  -18.8070  -27.6930   22.6010 C   0  0  0  0  0  0  0  0  0  0  0  0
  -21.3160  -28.1240   23.0470 C   0  0  0  0  0  3  0  0  0  0  0  0
  -21.5640  -26.7340   22.4170 C   0  0  0  0  0  2  0  0  0  0  0  0
  -20.5520  -26.3800   21.3220 C   0  0  0  0  0  2  0  0  0  0  0  0
  -19.1270  -26.3920   21.8830 C   0  0  0  0  0  2  0  0  0  0  0  0
  -19.8360  -28.5130   23.1340 C   0  0  0  0  0  0  0  0  0  0  0  0
  -19.4870  -29.7290   23.7620 C   0  0  0  0  0  3  0  0  0  0  0  0
  -18.1420  -30.1250   23.8640 C   0  0  0  0  0  3  0  0  0  0  0  0
  -17.1250  -29.3010   23.3510 C   0  0  0  0  0  3  0  0  0  0  0  0
  -17.4590  -28.0870   22.7250 C   0  0  0  0  0  3  0  0  0  0  0  0
  -25.9440  -32.8830   24.2760 C   0  0  0  0  0  3  0  0  0  0  0  0
  -25.4950  -34.2730   24.4220 N   0  0  0  0  0  0  0  0  0  0  0  0
  -25.8750  -35.2810   23.6260 C   0  0  0  0  0  0  0  0  0  0  0  0
  -26.7100  -35.1470   22.7260 O   0  0  0  0  0  0  0  0  0  0  0  0
  -24.7700  -34.4440   25.1040 H   0  0  0  0  0  0  0  0  0  0  0  0
  -24.0940  -36.8770   22.8450 C   0  0  0  0  0  1  0  0  0  0  0  0
  -25.2240  -36.6560   23.8650 C   0  0  0  0  0  3  0  0  0  0  0  0
  -27.1460  -37.7860   24.8970 C   0  0  0  0  0  1  0  0  0  0  0  0
  -26.1830  -37.7800   23.7970 N   0  0  0  0  0  0  0  0  0  0  0  0
  -25.6940  -38.6710   23.8000 H   0  0  0  0  0  0  0  0  0  0  0  0
  -26.2890  -32.2560   25.6820 C   0  0  1  0  0  0  0  0  0  0  0  0
  -25.0470  -31.9780   26.5590 C   0  0  0  0  0  1  0  0  0  0  0  0
  -27.0570  -30.9250   25.5120 C   0  0  0  0  0  1  0  0  0  0  0  0
  -27.2250  -33.2080   26.4650 C   0  0  0  0  0  1  0  0  0  0  0  0
  1  4  1  0
  3  6  2  0
  4  2  2  0
  5  1  2  0
  5  3  1  0
  6  2  1  0
  6 54  1  0
  8 13  1  0
  9 10  1  0
  9  8  1  0
 11 10  1  0
 11 24  1  0
 11 12  1  0
 13  7  1  0
 13 12  1  0
 14  7  2  0
 16 19  1  0
 17 15  1  0
 18 16  1  0
 18 20  1  0
 19  4  1  0
 19 15  1  0
 20  7  1  0
 20 17  1  0
 21 22  2  0
 22 41  1  0
 23 22  1  0
 23 26  1  0
 24 25  1  0
 24 21  1  0
 25 23  2  0
 26 27  1  0
 27 28  2  0
 29 32  1  0
 29 28  1  0
 30 29  2  0
 31 30  1  0
 31 26  2  0
 32 33  1  0
 33 38  2  0
 33 34  1  0
 34 35  2  0
 35 36  1  0
 36 40  1  0
 37 36  2  0
 38 37  1  0
 39 38  1  0
 41 42  1  0
 42 45  1  0
 42 44  1  0
 43 41  2  0
 46 21  1  0
 46 47  1  0
 48 46  1  0
 49 51  1  0
 49 50  1  0
 51 50  1  0
 51  5  1  0
 53 52  1  0
 51 53  1  6
 55 54  1  0
 55 56  1  0
 57 58  1  0
 57 56  1  0
 59 70  2  0
 60 58  1  0
 60 65  1  0
 61 69  1  0
 61 71  1  0
 62 64  1  0
 63 69  1  0
 64 65  2  0
 64 63  1  0
 66 60  2  0
 67 66  1  0
 67 62  2  0
 68 62  1  0
 68 61  1  0
 69 59  1  0
 71 73  2  0
 72 71  1  0
 74 72  1  0
 75 84  2  0
 75 80  1  0
 76 72  1  0
 76 80  1  0
 77 76  1  0
 78 79  1  0
 78 77  1  0
 79 75  1  0
 80 81  2  0
 81 82  1  0
 83 82  2  0
 84 83  1  0
 85 59  1  0
 85 86  1  0
 85 95  1  0
 86 89  1  0
 87 91  1  0
 87 86  1  0
 88 87  2  0
 91 90  1  0
 93 94  1  0
 93 91  1  0
 93 92  1  0
 95 98  1  1
 95 96  1  0
 97 95  1  0
M  ISO  4   7 100  20 100  57 101  58 101
M  END
>  <TORSDO>  (12) 
F 22

>  <SCORE>  (12) 
-9.321

>  <name>  (12) 
11

>  <ligand_id>  (12) 
11

>  <original_smiles>  (12) 
[H]c1c([H])c([H])c2c(c1[H])C([H])([H])C([H])([H])C([H])([H])C2([H])N([H])C(=O)C1([H])N(C(=O)C([H])(N([H])C(=O)C([H])(N([H])C([H])([H])[H])C([H])([H])[H])C(C([H])([H])[H])(C([H])([H])[H])C([H])([H])[H])C([H])([H])c2c([H])c(OC([H])([H])C([H])([H])C([H])([H])Oc3c([H])c(C4([H])C([H])([H])C([H])([H])N(C(=O)N5C([H])([H])C([H])([H])C([H])([H])C([H])(n6nc(-c7c([H])c([H])c(Oc8c([H])c([H])c(F)c([H])c8F)c([H])c7[H])c(C(=O)N([H])[H])c6N([H])[H])C5([H])[H])C([H])([H])C4([H])[H])c([H])c(C4(C([H])([H])C([H])([H])[H])C([H])([H])C4([H])[H])c3[H])c([H])c([H])c2C1([H])[H]

>  <smiles>  (12) 
[H]c1c([H])c([H])c2c(c1[H])C([H])([H])C([H])([H])C([H])([H])C2([H])N([H])C(=O)C1([H])N(C(=O)C([H])(N([H])C(=O)C([H])(N([H])C([H])([H])[H])C([H])([H])[H])C(C([H])([H])[H])(C([H])([H])[H])C([H])([H])[H])C([H])([H])c2c([H])c(OC([H])([H])C([H])([H])C([H])([H])Oc3c([H])c(C4([H])C([H])([H])C([H])([H])N(C(=O)N5C([H])([H])C([H])([H])C([H])([H])C([H])(n6nc(-c7c([H])c([H])c(Oc8c([H])c([H])c(F)c([H])c8F)c([H])c7[H])c(C(=O)N([H])[H])c6N([H])[H])C5([H])[H])C([H])([H])C4([H])[H])c([H])c(C4(C([H])([H])C([H])([H])[H])C([H])([H])C4([H])[H])c3[H])c([H])c([H])c2C1([H])[H]

$$$$
12:0:0
     RDKit          3D

 91100  0  0  1  0  0  0  0  0999 V2000
  -27.1760  -21.7280   20.5360 C   0  0  0  0  0  2  0  0  0  0  0  0
  -27.6210  -22.8430   21.4910 C   0  0  0  0  0  2  0  0  0  0  0  0
  -28.5730  -21.7060   19.9130 C   0  0  0  0  0  3  0  0  0  0  0  0
  -28.6290  -23.3310   20.4410 C   0  0  0  0  0  3  0  0  0  0  0  0
  -30.5620  -15.1140   20.1030 C   0  0  0  0  0  0  0  0  0  0  0  0
  -30.4500  -12.7640   19.1500 C   0  0  0  0  0  2  0  0  0  0  0  0
  -29.4770  -12.7150   17.9510 C   0  0  0  0  0  2  0  0  0  0  0  0
  -28.0240  -12.5110   18.4330 C   0  0  0  0  0  2  0  0  0  0  0  0
  -27.6540  -13.4330   19.6270 C   0  0  0  0  0  3  0  0  0  0  0  0
  -28.7490  -13.4140   20.7150 C   0  0  0  0  0  2  0  0  0  0  0  0
  -29.9840  -13.8450   20.0570 N   0  0  0  0  0  0  0  0  0  0  0  0
  -31.7750  -15.1760   19.8600 O   0  0  0  0  0  0  0  0  0  0  0  0
  -29.1470  -18.9080   19.8930 C   0  0  0  0  0  3  0  0  0  0  0  0
  -29.3880  -20.3110   20.3140 C   0  0  0  0  0  0  0  0  0  0  0  0
  -29.9450  -17.7650   20.3950 C   0  0  0  0  0  0  0  0  0  0  0  0
  -31.0180  -19.3980   21.6990 C   0  0  0  0  0  0  0  0  0  0  0  0
  -31.9680  -19.6350   22.8680 C   0  0  0  0  0  1  0  0  0  0  0  0
  -30.3480  -20.4660   21.2460 N   0  0  0  0  0  0  0  0  0  0  0  0
  -30.8840  -18.1280   21.2980 N   0  0  0  0  0  0  0  0  0  0  0  0
  -29.7330  -16.2740   20.1070 N   0  0  0  0  0  0  0  0  0  0  0  0
  -28.7620  -16.0370   19.9670 H   0  0  0  0  0  0  0  0  0  0  0  0
  -25.3140  -13.9990   20.4860 C   0  0  0  0  0  0  0  0  0  0  0  0
  -24.2610  -13.2160   20.8740 C   0  0  0  0  0  0  0  0  0  0  0  0
  -24.7190  -11.8660   20.7910 C   0  0  0  0  0  0  0  0  0  0  0  0
  -26.3420  -13.1260   20.1780 N   0  0  0  0  0  0  0  0  0  0  0  0
  -25.9980  -11.8360   20.4330 N   0  0  0  0  0  0  0  0  0  0  0  0
  -23.9950  -10.6030   20.9770 C   0  0  0  0  0  0  0  0  0  0  0  0
  -24.4390   -9.6310   21.9020 C   0  0  0  0  0  3  0  0  0  0  0  0
  -23.7190   -8.4300   22.0780 C   0  0  0  0  0  3  0  0  0  0  0  0
  -22.5370   -8.1930   21.3360 C   0  0  0  0  0  0  0  0  0  0  0  0
  -22.1120   -9.1530   20.4000 C   0  0  0  0  0  3  0  0  0  0  0  0
  -22.8330  -10.3470   20.2200 C   0  0  0  0  0  3  0  0  0  0  0  0
  -21.7830   -7.0490   21.4280 O   0  0  0  0  0  0  0  0  0  0  0  0
  -21.7180   -6.3230   22.5900 C   0  0  0  0  0  0  0  0  0  0  0  0
  -21.2400   -6.8780   23.7980 C   0  0  0  0  0  3  0  0  0  0  0  0
  -21.1260   -6.0730   24.9470 C   0  0  0  0  0  3  0  0  0  0  0  0
  -21.4770   -4.7110   24.8920 C   0  0  0  0  0  0  0  0  0  0  0  0
  -21.9470   -4.1540   23.6900 C   0  0  0  0  0  3  0  0  0  0  0  0
  -22.0660   -4.9580   22.5420 C   0  0  0  0  0  0  0  0  0  0  0  0
  -22.4980   -4.4090   21.3820 F   0  0  0  0  0  0  0  0  0  0  0  0
  -21.3590   -3.9340   25.9950 F   0  0  0  0  0  0  0  0  0  0  0  0
  -22.8790  -13.6890   21.2080 C   0  0  0  0  0  0  0  0  0  0  0  0
  -22.1780  -12.9710   22.0800 N   0  0  0  0  0  0  0  0  0  0  0  0
  -22.4290  -14.7290   20.7280 O   0  0  0  0  0  0  0  0  0  0  0  0
  -22.5520  -12.1330   22.5000 H   0  0  0  0  0  0  0  0  0  0  0  0
  -21.2450  -13.2650   22.3310 H   0  0  0  0  0  0  0  0  0  0  0  0
  -25.4740  -15.3740   20.3440 N   0  0  0  0  0  0  0  0  0  0  0  0
  -24.7220  -16.0110   20.5780 H   0  0  0  0  0  0  0  0  0  0  0  0
  -26.3220  -15.8500   20.0720 H   0  0  0  0  0  0  0  0  0  0  0  0
  -28.2130  -24.7840   19.6590 C   0  0  0  0  0  2  0  0  0  0  0  0
  -28.2570  -26.2690   20.1930 O   0  0  0  0  0  0  0  0  0  0  0  0
  -24.6220  -31.9530   23.2180 C   0  0  0  0  0  0  0  0  0  0  0  0
  -27.1950  -27.2580   20.1200 C   0  0  0  0  0  0  0  0  0  0  0  0
  -23.4200  -30.5640   21.5840 C   0  0  0  0  0  3  0  0  0  0  0  0
  -24.8630  -29.0120   20.1310 C   0  0  0  0  0  0  0  0  0  0  0  0
  -25.9750  -30.8390   21.4050 C   0  0  0  0  0  2  0  0  0  0  0  0
  -26.0500  -29.4580   20.7270 C   0  0  0  0  0  0  0  0  0  0  0  0
  -27.2150  -28.5960   20.7010 C   0  0  0  0  0  3  0  0  0  0  0  0
  -25.9750  -26.9220   19.4990 C   0  0  0  0  0  3  0  0  0  0  0  0
  -24.8390  -27.7590   19.5060 C   0  0  0  0  0  3  0  0  0  0  0  0
  -23.6290  -29.9010   20.2010 C   0  0  0  0  0  2  0  0  0  0  0  0
  -24.6910  -31.1380   22.1190 N   0  0  0  0  0  0  0  0  0  0  0  0
  -23.5400  -32.2280   23.7570 O   0  0  0  0  0  0  0  0  0  0  0  0
  -22.7590  -29.5400   22.5410 C   0  0  0  0  0  0  0  0  0  0  0  0
  -21.4330  -29.3520   22.4230 N   0  0  0  0  0  0  0  0  0  0  0  0
  -23.4460  -28.9140   23.3520 O   0  0  0  0  0  0  0  0  0  0  0  0
  -20.9300  -29.8990   21.7390 H   0  0  0  0  0  0  0  0  0  0  0  0
  -18.0720  -28.1180   22.9430 C   0  0  0  0  0  0  0  0  0  0  0  0
  -20.6340  -28.4060   23.2050 C   0  0  0  0  0  3  0  0  0  0  0  0
  -20.7420  -26.9740   22.6380 C   0  0  0  0  0  2  0  0  0  0  0  0
  -19.6510  -26.6490   21.6140 C   0  0  0  0  0  2  0  0  0  0  0  0
  -18.2640  -26.7780   22.2510 C   0  0  0  0  0  2  0  0  0  0  0  0
  -19.1860  -28.8880   23.3740 C   0  0  0  0  0  0  0  0  0  0  0  0
  -18.9560  -30.1450   23.9720 C   0  0  0  0  0  3  0  0  0  0  0  0
  -17.6460  -30.6280   24.1490 C   0  0  0  0  0  3  0  0  0  0  0  0
  -16.5460  -29.8580   23.7280 C   0  0  0  0  0  3  0  0  0  0  0  0
  -16.7620  -28.6010   23.1320 C   0  0  0  0  0  3  0  0  0  0  0  0
  -25.9040  -32.5900   23.8370 C   0  0  0  0  0  3  0  0  0  0  0  0
  -25.5890  -33.9870   24.1670 N   0  0  0  0  0  0  0  0  0  0  0  0
  -25.9190  -35.0460   23.4160 C   0  0  0  0  0  0  0  0  0  0  0  0
  -26.5850  -34.9470   22.3810 O   0  0  0  0  0  0  0  0  0  0  0  0
  -24.9840  -34.1380   24.9610 H   0  0  0  0  0  0  0  0  0  0  0  0
  -24.1840  -36.8420   23.0920 C   0  0  0  0  0  1  0  0  0  0  0  0
  -25.4320  -36.4280   23.8870 C   0  0  0  0  0  3  0  0  0  0  0  0
  -27.5600  -37.3240   24.7190 C   0  0  0  0  0  1  0  0  0  0  0  0
  -26.4580  -37.4880   23.7760 N   0  0  0  0  0  0  0  0  0  0  0  0
  -26.0440  -38.4030   23.9290 H   0  0  0  0  0  0  0  0  0  0  0  0
  -26.4220  -31.8310   25.1240 C   0  0  1  0  0  0  0  0  0  0  0  0
  -25.3280  -31.6070   26.1930 C   0  0  0  0  0  1  0  0  0  0  0  0
  -27.0140  -30.4490   24.7600 C   0  0  0  0  0  1  0  0  0  0  0  0
  -27.5610  -32.6440   25.7890 C   0  0  0  0  0  1  0  0  0  0  0  0
  1  2  1  0
  3 14  1  0
  3  4  1  0
  3  1  1  0
  4 50  1  0
  4  2  1  0
  5 20  1  0
  6 11  1  0
  7  8  1  0
  7  6  1  0
  9  8  1  0
  9 25  1  0
  9 10  1  0
 11  5  1  0
 11 10  1  0
 12  5  2  0
 13 14  2  0
 13 15  1  0
 14 18  1  0
 15 19  2  0
 16 17  1  0
 18 16  2  0
 19 16  1  0
 20 15  1  0
 21 20  1  0
 22 23  2  0
 23 42  1  0
 24 23  1  0
 24 27  1  0
 25 26  1  0
 25 22  1  0
 26 24  2  0
 27 28  1  0
 28 29  2  0
 30 33  1  0
 30 29  1  0
 31 30  2  0
 32 31  1  0
 32 27  2  0
 33 34  1  0
 34 35  1  0
 35 36  2  0
 37 36  1  0
 37 41  1  0
 38 37  2  0
 39 34  2  0
 39 38  1  0
 40 39  1  0
 42 43  1  0
 43 46  1  0
 43 45  1  0
 44 42  2  0
 47 22  1  0
 47 48  1  0
 49 47  1  0
 50 51  1  0
 52 63  2  0
 53 51  1  0
 53 58  1  0
 54 62  1  0
 54 64  1  0
 55 61  1  0
 55 57  1  0
 56 62  1  0
 57 56  1  0
 58 57  2  0
 59 60  1  0
 59 53  2  0
 60 55  2  0
 61 54  1  0
 62 52  1  0
 64 66  2  0
 65 64  1  0
 67 65  1  0
 68 77  2  0
 68 73  1  0
 69 65  1  0
 69 73  1  0
 70 69  1  0
 71 72  1  0
 71 70  1  0
 72 68  1  0
 73 74  2  0
 74 75  1  0
 76 75  2  0
 77 76  1  0
 78 52  1  0
 78 79  1  0
 78 88  1  0
 79 82  1  0
 80 84  1  0
 80 79  1  0
 81 80  2  0
 84 83  1  0
 86 84  1  0
 86 87  1  0
 86 85  1  0
 88 91  1  1
 88 89  1  0
 90 88  1  0
M  ISO  4   5 100  20 100  50 101  51 101
M  END
>  <TORSDO>  (13) 
F 17

>  <SCORE>  (13) 
-15.792

>  <name>  (13) 
12

>  <ligand_id>  (13) 
12

>  <original_smiles>  (13) 
[H]c1c(N([H])C(=O)N2C([H])([H])C([H])([H])C([H])([H])C([H])(n3nc(-c4c([H])c([H])c(Oc5c([H])c([H])c(F)c([H])c5F)c([H])c4[H])c(C(=O)N([H])[H])c3N([H])[H])C2([H])[H])nc(C([H])([H])[H])nc1C1([H])C([H])([H])C([H])([H])C1([H])C([H])([H])Oc1c([H])c([H])c2c(c1[H])C([H])([H])N(C(=O)C([H])(N([H])C(=O)C([H])(N([H])C([H])([H])[H])C([H])([H])[H])C(C([H])([H])[H])(C([H])([H])[H])C([H])([H])[H])C([H])(C(=O)N([H])C1([H])c3c([H])c([H])c([H])c([H])c3C([H])([H])C([H])([H])C1([H])[H])C2([H])[H]

>  <smiles>  (13) 
[H]c1c(N([H])C(=O)N2C([H])([H])C([H])([H])C([H])([H])C([H])(n3nc(-c4c([H])c([H])c(Oc5c([H])c([H])c(F)c([H])c5F)c([H])c4[H])c(C(=O)N([H])[H])c3N([H])[H])C2([H])[H])nc(C([H])([H])[H])nc1C1([H])C([H])([H])C([H])([H])C1([H])C([H])([H])Oc1c([H])c([H])c2c(c1[H])C([H])([H])N(C(=O)C([H])(N([H])C(=O)C([H])(N([H])C([H])([H])[H])C([H])([H])[H])C(C([H])([H])[H])(C([H])([H])[H])C([H])([H])[H])C([H])(C(=O)N([H])C1([H])c3c([H])c([H])c([H])c([H])c3C([H])([H])C([H])([H])C1([H])[H])C2([H])[H]

$$$$
13:0:0
     RDKit          3D

 96105  0  0  1  0  0  0  0  0999 V2000
  -29.7510  -23.3910   21.5970 C   0  0  0  0  0  3  0  0  0  0  0  0
  -28.5230  -21.3860   20.0920 C   0  0  0  0  0  3  0  0  0  0  0  0
  -28.6620  -23.8200   20.7910 C   0  0  0  0  0  0  0  0  0  0  0  0
  -30.2010  -22.0280   21.6620 C   0  0  0  0  0  0  0  0  0  0  0  0
  -28.0710  -22.7580   20.0210 C   0  0  0  0  0  0  0  0  0  0  0  0
  -29.6010  -20.9640   20.9240 C   0  0  0  0  0  0  0  0  0  0  0  0
  -31.3370  -21.6920   22.6100 C   0  0  0  0  0  1  0  0  0  0  0  0
  -26.8810  -23.0620   19.1300 C   0  0  0  0  0  1  0  0  0  0  0  0
  -27.9710  -25.2560   21.0210 C   0  0  0  0  0  2  0  0  0  0  0  0
  -28.3230  -26.5600   20.3480 O   0  0  0  0  0  0  0  0  0  0  0  0
  -24.6080  -32.0600   23.3420 C   0  0  0  0  0  0  0  0  0  0  0  0
  -27.2640  -27.4990   20.2870 C   0  0  0  0  0  0  0  0  0  0  0  0
  -23.4270  -30.6520   21.6960 C   0  0  0  0  0  3  0  0  0  0  0  0
  -24.9010  -29.1300   20.2570 C   0  0  0  0  0  0  0  0  0  0  0  0
  -25.9680  -30.9910   21.5240 C   0  0  0  0  0  2  0  0  0  0  0  0
  -26.0660  -29.6140   20.8680 C   0  0  0  0  0  0  0  0  0  0  0  0
  -27.2560  -28.8100   20.8730 C   0  0  0  0  0  3  0  0  0  0  0  0
  -26.0860  -27.0990   19.6220 C   0  0  0  0  0  3  0  0  0  0  0  0
  -24.9170  -27.8830   19.6190 C   0  0  0  0  0  3  0  0  0  0  0  0
  -23.6540  -29.9920   20.3110 C   0  0  0  0  0  2  0  0  0  0  0  0
  -24.6870  -31.2530   22.2440 N   0  0  0  0  0  0  0  0  0  0  0  0
  -23.5190  -32.3220   23.8730 O   0  0  0  0  0  0  0  0  0  0  0  0
  -22.7740  -29.6230   22.6500 C   0  0  0  0  0  0  0  0  0  0  0  0
  -21.4570  -29.4010   22.4930 N   0  0  0  0  0  0  0  0  0  0  0  0
  -23.4510  -29.0300   23.4920 O   0  0  0  0  0  0  0  0  0  0  0  0
  -20.9670  -29.9340   21.7870 H   0  0  0  0  0  0  0  0  0  0  0  0
  -18.1120  -28.0820   22.9200 C   0  0  0  0  0  0  0  0  0  0  0  0
  -20.6500  -28.4440   23.2550 C   0  0  0  0  0  3  0  0  0  0  0  0
  -20.8230  -27.0090   22.7040 C   0  0  0  0  0  2  0  0  0  0  0  0
  -19.7630  -26.6310   21.6640 C   0  0  0  0  0  2  0  0  0  0  0  0
  -18.3590  -26.7320   22.2680 C   0  0  0  0  0  2  0  0  0  0  0  0
  -19.1880  -28.8930   23.3680 C   0  0  0  0  0  0  0  0  0  0  0  0
  -18.9050  -30.1530   23.9360 C   0  0  0  0  0  3  0  0  0  0  0  0
  -17.5790  -30.6060   24.0610 C   0  0  0  0  0  3  0  0  0  0  0  0
  -16.5150  -29.7940   23.6290 C   0  0  0  0  0  3  0  0  0  0  0  0
  -16.7830  -28.5350   23.0640 C   0  0  0  0  0  3  0  0  0  0  0  0
  -25.8790  -32.7080   23.9690 C   0  0  0  0  0  3  0  0  0  0  0  0
  -25.5640  -34.1150   24.2590 N   0  0  0  0  0  0  0  0  0  0  0  0
  -25.9110  -35.1490   23.4810 C   0  0  0  0  0  0  0  0  0  0  0  0
  -26.5970  -35.0210   22.4650 O   0  0  0  0  0  0  0  0  0  0  0  0
  -24.9570  -34.2880   25.0450 H   0  0  0  0  0  0  0  0  0  0  0  0
  -24.1950  -36.9390   23.0550 C   0  0  0  0  0  1  0  0  0  0  0  0
  -25.4200  -36.5490   23.8980 C   0  0  0  0  0  3  0  0  0  0  0  0
  -27.5380  -37.4510   24.7520 C   0  0  0  0  0  1  0  0  0  0  0  0
  -26.4570  -37.5960   23.7800 N   0  0  0  0  0  0  0  0  0  0  0  0
  -26.0500  -38.5220   23.8960 H   0  0  0  0  0  0  0  0  0  0  0  0
  -26.3730  -31.9710   25.2740 C   0  0  1  0  0  0  0  0  0  0  0  0
  -25.2550  -31.7400   26.3190 C   0  0  0  0  0  1  0  0  0  0  0  0
  -26.9830  -30.5920   24.9300 C   0  0  0  0  0  1  0  0  0  0  0  0
  -27.4970  -32.7920   25.9460 C   0  0  0  0  0  1  0  0  0  0  0  0
  -30.1440  -19.6470   21.0740 O   0  0  0  0  0  0  0  0  0  0  0  0
  -30.8250  -15.0570   20.4840 C   0  0  0  0  0  0  0  0  0  0  0  0
  -30.6650  -12.7970   19.4260 C   0  0  0  0  0  2  0  0  0  0  0  0
  -29.7380  -12.8630   18.1940 C   0  0  0  0  0  2  0  0  0  0  0  0
  -28.2700  -12.6570   18.6100 C   0  0  0  0  0  2  0  0  0  0  0  0
  -27.8660  -13.5200   19.8360 C   0  0  0  0  0  3  0  0  0  0  0  0
  -28.9170  -13.4520   20.9630 C   0  0  0  0  0  2  0  0  0  0  0  0
  -30.2030  -13.8350   20.3750 N   0  0  0  0  0  0  0  0  0  0  0  0
  -32.0330  -15.1440   20.2430 O   0  0  0  0  0  0  0  0  0  0  0  0
  -29.9070  -17.1520   21.6660 C   0  0  0  0  0  2  0  0  0  0  0  0
  -29.5580  -18.3310   20.6970 C   0  0  0  0  0  3  0  0  0  0  0  0
  -30.3470  -17.4300   19.6960 C   0  0  0  0  0  3  0  0  0  0  0  0
  -30.0360  -16.2070   20.5180 N   0  0  0  0  0  0  0  0  0  0  0  0
  -25.4590  -14.0410   20.5470 C   0  0  0  0  0  0  0  0  0  0  0  0
  -24.4080  -13.2360   20.8920 C   0  0  0  0  0  0  0  0  0  0  0  0
  -24.9050  -11.8980   20.8530 C   0  0  0  0  0  0  0  0  0  0  0  0
  -26.5260  -13.1900   20.3120 N   0  0  0  0  0  0  0  0  0  0  0  0
  -26.2000  -11.8960   20.5620 N   0  0  0  0  0  0  0  0  0  0  0  0
  -24.2070  -10.6160   21.0190 C   0  0  0  0  0  0  0  0  0  0  0  0
  -24.6210   -9.6650   21.9790 C   0  0  0  0  0  3  0  0  0  0  0  0
  -23.9210   -8.4500   22.1320 C   0  0  0  0  0  3  0  0  0  0  0  0
  -22.7910   -8.1740   21.3260 C   0  0  0  0  0  0  0  0  0  0  0  0
  -22.3970   -9.1130   20.3560 C   0  0  0  0  0  3  0  0  0  0  0  0
  -23.0990  -10.3210   20.2010 C   0  0  0  0  0  3  0  0  0  0  0  0
  -22.0650   -7.0100   21.3880 O   0  0  0  0  0  0  0  0  0  0  0  0
  -21.9240   -6.3120   22.5600 C   0  0  0  0  0  0  0  0  0  0  0  0
  -21.3380   -6.8910   23.7070 C   0  0  0  0  0  3  0  0  0  0  0  0
  -21.1490   -6.1170   24.8680 C   0  0  0  0  0  3  0  0  0  0  0  0
  -21.5340   -4.7630   24.8830 C   0  0  0  0  0  0  0  0  0  0  0  0
  -22.1120   -4.1830   23.7420 C   0  0  0  0  0  3  0  0  0  0  0  0
  -22.3040   -4.9540   22.5820 C   0  0  0  0  0  0  0  0  0  0  0  0
  -22.8410   -4.3850   21.4770 F   0  0  0  0  0  0  0  0  0  0  0  0
  -21.3450   -4.0160   25.9960 F   0  0  0  0  0  0  0  0  0  0  0  0
  -22.9960  -13.6760   21.1500 C   0  0  0  0  0  0  0  0  0  0  0  0
  -22.2810  -12.9670   22.0150 N   0  0  0  0  0  0  0  0  0  0  0  0
  -22.5340  -14.6860   20.6180 O   0  0  0  0  0  0  0  0  0  0  0  0
  -22.6670  -12.1500   22.4660 H   0  0  0  0  0  0  0  0  0  0  0  0
  -21.3340  -13.2450   22.2320 H   0  0  0  0  0  0  0  0  0  0  0  0
  -25.5950  -15.4180   20.3890 N   0  0  0  0  0  0  0  0  0  0  0  0
  -24.8170  -16.0580   20.5080 H   0  0  0  0  0  0  0  0  0  0  0  0
  -26.4540  -15.8790   20.1190 H   0  0  0  0  0  0  0  0  0  0  0  0
  -29.8620  -17.2550   18.2530 C   0  0  0  0  0  3  0  0  0  0  0  0
  -29.0640  -18.4500   16.1190 C   0  0  0  0  0  1  0  0  0  0  0  0
  -29.6420  -18.5980   17.5360 C   0  0  0  0  0  2  0  0  0  0  0  0
  -30.8540  -16.5530   17.5270 O   0  0  0  0  0  0  0  0  0  0  0  0
  -30.5420  -16.4630   16.6320 H   0  0  0  0  0  0  0  0  0  0  0  0
  1  4  1  0
  2  6  1  0
  3  9  1  0
  3  1  2  0
  4  7  1  0
  5  2  2  0
  5  3  1  0
  6 51  1  0
  6  4  2  0
  8  5  1  0
 10  9  1  0
 11 22  2  0
 12 10  1  0
 12 17  1  0
 13 21  1  0
 13 23  1  0
 14 20  1  0
 14 16  1  0
 15 21  1  0
 16 17  2  0
 16 15  1  0
 18 12  2  0
 19 18  1  0
 19 14  2  0
 20 13  1  0
 21 11  1  0
 23 25  2  0
 24 23  1  0
 26 24  1  0
 27 36  2  0
 27 32  1  0
 28 24  1  0
 28 32  1  0
 29 28  1  0
 30 31  1  0
 30 29  1  0
 31 27  1  0
 32 33  2  0
 33 34  1  0
 35 34  2  0
 36 35  1  0
 37 11  1  0
 37 38  1  0
 37 47  1  0
 38 41  1  0
 39 43  1  0
 39 38  1  0
 40 39  2  0
 43 42  1  0
 45 46  1  0
 45 43  1  0
 45 44  1  0
 47 50  1  1
 47 48  1  0
 49 47  1  0
 52 63  1  0
 53 58  1  0
 54 55  1  0
 54 53  1  0
 56 55  1  0
 56 67  1  0
 56 57  1  0
 58 52  1  0
 58 57  1  0
 59 52  2  0
 61 51  1  0
 61 60  1  0
 62 92  1  0
 62 63  1  0
 62 61  1  0
 63 60  1  0
 64 65  2  0
 65 84  1  0
 66 65  1  0
 66 69  1  0
 67 64  1  0
 67 68  1  0
 68 66  2  0
 69 70  1  0
 70 71  2  0
 72 75  1  0
 72 71  1  0
 73 72  2  0
 74 73  1  0
 74 69  2  0
 75 76  1  0
 76 81  2  0
 76 77  1  0
 77 78  2  0
 78 79  1  0
 79 83  1  0
 80 79  2  0
 81 80  1  0
 82 81  1  0
 84 85  1  0
 85 88  1  0
 85 87  1  0
 86 84  2  0
 89 90  1  0
 89 64  1  0
 91 89  1  0
 92 94  1  0
 93 94  1  0
 95 92  1  0
 96 95  1  0
M  ISO  4   9 101  10 101  52 100  63 100
M  END
>  <TORSDO>  (14) 
F 21

>  <SCORE>  (14) 
-13.559

>  <name>  (14) 
13

>  <ligand_id>  (14) 
13

>  <original_smiles>  (14) 
[H]OC([H])(C([H])([H])C([H])([H])[H])C1([H])N(C(=O)N2C([H])([H])C([H])([H])C([H])([H])C([H])(n3nc(-c4c([H])c([H])c(Oc5c([H])c([H])c(F)c([H])c5F)c([H])c4[H])c(C(=O)N([H])[H])c3N([H])[H])C2([H])[H])C([H])([H])C1([H])Oc1c([H])c(C([H])([H])[H])c(C([H])([H])Oc2c([H])c([H])c3c(c2[H])C([H])([H])N(C(=O)C([H])(N([H])C(=O)C([H])(N([H])C([H])([H])[H])C([H])([H])[H])C(C([H])([H])[H])(C([H])([H])[H])C([H])([H])[H])C([H])(C(=O)N([H])C2([H])c4c([H])c([H])c([H])c([H])c4C([H])([H])C([H])([H])C2([H])[H])C3([H])[H])c([H])c1C([H])([H])[H]

>  <smiles>  (14) 
[H]OC([H])(C([H])([H])C([H])([H])[H])C1([H])N(C(=O)N2C([H])([H])C([H])([H])C([H])([H])C([H])(n3nc(-c4c([H])c([H])c(Oc5c([H])c([H])c(F)c([H])c5F)c([H])c4[H])c(C(=O)N([H])[H])c3N([H])[H])C2([H])[H])C([H])([H])C1([H])Oc1c([H])c(C([H])([H])[H])c(C([H])([H])Oc2c([H])c([H])c3c(c2[H])C([H])([H])N(C(=O)C([H])(N([H])C(=O)C([H])(N([H])C([H])([H])[H])C([H])([H])[H])C(C([H])([H])[H])(C([H])([H])[H])C([H])([H])[H])C([H])(C(=O)N([H])C2([H])c4c([H])c([H])c([H])c([H])c4C([H])([H])C([H])([H])C2([H])[H])C3([H])[H])c([H])c1C([H])([H])[H]

$$$$
14:0:0
     RDKit          3D

 96105  0  0  1  0  0  0  0  0999 V2000
  -29.7060  -21.8630   18.7950 C   0  0  0  0  0  0  0  0  0  0  0  0
  -29.6740  -23.3780   18.9950 C   0  0  0  0  0  2  0  0  0  0  0  0
  -29.6120  -22.1580   21.0760 C   0  0  0  0  0  2  0  0  0  0  0  0
  -30.0440  -23.5170   20.4780 C   0  0  0  0  0  3  0  0  0  0  0  0
  -29.7800  -21.2100   19.9740 N   0  0  0  0  0  0  0  0  0  0  0  0
  -29.6590  -21.3490   17.6730 O   0  0  0  0  0  0  0  0  0  0  0  0
  -28.8640  -19.0790   20.8010 C   0  0  0  0  0  3  0  0  0  0  0  0
  -28.9370  -17.6790   20.9800 C   0  0  0  0  0  3  0  0  0  0  0  0
  -31.1220  -17.6580   19.9370 C   0  0  0  0  0  3  0  0  0  0  0  0
  -31.0600  -19.0610   19.7560 C   0  0  0  0  0  0  0  0  0  0  0  0
  -29.9060  -19.7890   20.1620 C   0  0  0  0  0  0  0  0  0  0  0  0
  -30.0580  -16.9400   20.5410 C   0  0  0  0  0  0  0  0  0  0  0  0
  -32.2690  -19.7540   19.1460 C   0  0  0  0  0  1  0  0  0  0  0  0
  -30.7270  -14.5380   20.0930 C   0  0  0  0  0  0  0  0  0  0  0  0
  -30.3800  -12.4070   18.9010 C   0  0  0  0  0  2  0  0  0  0  0  0
  -29.3640  -12.6570   17.7660 C   0  0  0  0  0  2  0  0  0  0  0  0
  -27.9180  -12.5060   18.2780 C   0  0  0  0  0  2  0  0  0  0  0  0
  -27.6630  -13.2920   19.5910 C   0  0  0  0  0  3  0  0  0  0  0  0
  -28.7830  -13.0200   20.6210 C   0  0  0  0  0  2  0  0  0  0  0  0
  -30.0720  -13.3490   19.9890 N   0  0  0  0  0  0  0  0  0  0  0  0
  -31.8270  -14.7320   19.5660 O   0  0  0  0  0  0  0  0  0  0  0  0
  -30.0310  -15.5140   20.7190 N   0  0  0  0  0  0  0  0  0  0  0  0
  -29.2200  -15.1650   21.2050 H   0  0  0  0  0  0  0  0  0  0  0  0
  -25.3110  -13.8810   20.4560 C   0  0  0  0  0  0  0  0  0  0  0  0
  -24.2650  -13.0980   20.8670 C   0  0  0  0  0  0  0  0  0  0  0  0
  -24.7210  -11.7480   20.7710 C   0  0  0  0  0  0  0  0  0  0  0  0
  -26.3390  -13.0060   20.1390 N   0  0  0  0  0  0  0  0  0  0  0  0
  -25.9910  -11.7170   20.3850 N   0  0  0  0  0  0  0  0  0  0  0  0
  -24.0070  -10.4800   20.9690 C   0  0  0  0  0  0  0  0  0  0  0  0
  -24.4490   -9.5220   21.9060 C   0  0  0  0  0  3  0  0  0  0  0  0
  -23.7350   -8.3180   22.0910 C   0  0  0  0  0  3  0  0  0  0  0  0
  -22.5630   -8.0660   21.3380 C   0  0  0  0  0  0  0  0  0  0  0  0
  -22.1400   -9.0130   20.3910 C   0  0  0  0  0  3  0  0  0  0  0  0
  -22.8550  -10.2080   20.2030 C   0  0  0  0  0  3  0  0  0  0  0  0
  -21.8200   -6.9150   21.4330 O   0  0  0  0  0  0  0  0  0  0  0  0
  -21.7250   -6.2130   22.6080 C   0  0  0  0  0  0  0  0  0  0  0  0
  -21.1890   -6.7900   23.7800 C   0  0  0  0  0  3  0  0  0  0  0  0
  -21.0460   -6.0120   24.9460 C   0  0  0  0  0  3  0  0  0  0  0  0
  -21.4290   -4.6580   24.9410 C   0  0  0  0  0  0  0  0  0  0  0  0
  -21.9570   -4.0800   23.7730 C   0  0  0  0  0  3  0  0  0  0  0  0
  -22.1020   -4.8540   22.6100 C   0  0  0  0  0  0  0  0  0  0  0  0
  -22.5920   -4.2870   21.4810 F   0  0  0  0  0  0  0  0  0  0  0  0
  -21.2840   -3.9080   26.0590 F   0  0  0  0  0  0  0  0  0  0  0  0
  -22.8870  -13.5670   21.2370 C   0  0  0  0  0  0  0  0  0  0  0  0
  -22.2130  -12.8470   22.1270 N   0  0  0  0  0  0  0  0  0  0  0  0
  -22.4190  -14.6060   20.7720 O   0  0  0  0  0  0  0  0  0  0  0  0
  -22.6060  -12.0060   22.5230 H   0  0  0  0  0  0  0  0  0  0  0  0
  -21.2910  -13.1410   22.4160 H   0  0  0  0  0  0  0  0  0  0  0  0
  -25.4670  -15.2550   20.3060 N   0  0  0  0  0  0  0  0  0  0  0  0
  -24.7060  -15.9050   20.4700 H   0  0  0  0  0  0  0  0  0  0  0  0
  -26.2920  -15.7010   19.9220 H   0  0  0  0  0  0  0  0  0  0  0  0
  -29.6290  -24.8060   21.2710 C   0  0  0  0  0  3  0  0  0  0  0  0
  -30.5780  -26.9050   22.4470 C   0  0  0  0  0  1  0  0  0  0  0  0
  -30.7880  -25.8270   21.3700 C   0  0  0  0  0  2  0  0  0  0  0  0
  -28.2750  -25.4830   20.8980 C   0  0  0  0  0  2  0  0  0  0  0  0
  -28.4030  -26.6780   20.1010 O   0  0  0  0  0  0  0  0  0  0  0  0
  -24.5020  -31.8170   23.1290 C   0  0  0  0  0  0  0  0  0  0  0  0
  -27.2480  -27.4290   20.0630 C   0  0  0  0  0  0  0  0  0  0  0  0
  -23.3380  -30.4060   21.4640 C   0  0  0  0  0  3  0  0  0  0  0  0
  -24.8330  -28.9010   20.0470 C   0  0  0  0  0  0  0  0  0  0  0  0
  -25.8600  -30.8060   21.2980 C   0  0  0  0  0  2  0  0  0  0  0  0
  -25.9770  -29.4410   20.6480 C   0  0  0  0  0  0  0  0  0  0  0  0
  -27.1910  -28.7160   20.6480 C   0  0  0  0  0  3  0  0  0  0  0  0
  -26.0900  -26.9030   19.4540 C   0  0  0  0  0  3  0  0  0  0  0  0
  -24.8860  -27.6310   19.4430 C   0  0  0  0  0  3  0  0  0  0  0  0
  -23.5740  -29.7380   20.0840 C   0  0  0  0  0  2  0  0  0  0  0  0
  -24.5840  -31.0240   22.0230 N   0  0  0  0  0  0  0  0  0  0  0  0
  -23.4110  -32.0690   23.6580 O   0  0  0  0  0  0  0  0  0  0  0  0
  -22.6900  -29.3700   22.4120 C   0  0  0  0  0  0  0  0  0  0  0  0
  -21.3660  -29.1860   22.2840 N   0  0  0  0  0  0  0  0  0  0  0  0
  -23.3760  -28.7360   23.2170 O   0  0  0  0  0  0  0  0  0  0  0  0
  -20.8740  -29.7510   21.6050 H   0  0  0  0  0  0  0  0  0  0  0  0
  -17.9910  -28.0000   22.7890 C   0  0  0  0  0  0  0  0  0  0  0  0
  -20.5530  -28.2350   23.0410 C   0  0  0  0  0  3  0  0  0  0  0  0
  -20.6410  -26.8170   22.4310 C   0  0  0  0  0  2  0  0  0  0  0  0
  -19.5270  -26.5260   21.4200 C   0  0  0  0  0  2  0  0  0  0  0  0
  -18.1520  -26.6650   22.0810 C   0  0  0  0  0  2  0  0  0  0  0  0
  -19.1180  -28.7440   23.2250 C   0  0  0  0  0  0  0  0  0  0  0  0
  -18.9140  -29.9960   23.8460 C   0  0  0  0  0  3  0  0  0  0  0  0
  -17.6160  -30.5020   24.0360 C   0  0  0  0  0  3  0  0  0  0  0  0
  -16.5020  -29.7540   23.6170 C   0  0  0  0  0  3  0  0  0  0  0  0
  -16.6900  -28.5040   22.9990 C   0  0  0  0  0  3  0  0  0  0  0  0
  -25.7710  -32.4640   23.7670 C   0  0  0  0  0  3  0  0  0  0  0  0
  -26.2970  -31.6820   25.0330 C   0  0  1  0  0  0  0  0  0  0  0  0
  -25.2030  -31.4030   26.0900 C   0  0  0  0  0  1  0  0  0  0  0  0
  -26.9130  -30.3240   24.6190 C   0  0  0  0  0  1  0  0  0  0  0  0
  -27.4250  -32.4900   25.7180 C   0  0  0  0  0  1  0  0  0  0  0  0
  -25.4340  -33.8500   24.1160 N   0  0  0  0  0  0  0  0  0  0  0  0
  -25.7510  -34.9190   23.3730 C   0  0  0  0  0  0  0  0  0  0  0  0
  -26.4290  -34.8430   22.3450 O   0  0  0  0  0  0  0  0  0  0  0  0
  -24.8320  -33.9820   24.9150 H   0  0  0  0  0  0  0  0  0  0  0  0
  -24.0010  -36.6890   23.0180 C   0  0  0  0  0  1  0  0  0  0  0  0
  -25.2330  -36.2910   23.8460 C   0  0  0  0  0  3  0  0  0  0  0  0
  -27.3320  -37.1990   24.7390 C   0  0  0  0  0  1  0  0  0  0  0  0
  -26.2510  -37.3620   23.7700 N   0  0  0  0  0  0  0  0  0  0  0  0
  -25.8260  -38.2730   23.9200 H   0  0  0  0  0  0  0  0  0  0  0  0
  1  2  1  0
  1  5  1  0
  2  4  1  0
  4  3  1  0
  4 52  1  0
  5 11  1  0
  5  3  1  0
  6  1  2  0
  7  8  1  0
  9 12  1  0
 10  9  2  0
 10 11  1  0
 11  7  2  0
 12 22  1  0
 12  8  2  0
 13 10  1  0
 14 22  1  0
 15 20  1  0
 16 17  1  0
 16 15  1  0
 18 17  1  0
 18 27  1  0
 18 19  1  0
 20 14  1  0
 20 19  1  0
 21 14  2  0
 22 23  1  0
 24 25  2  0
 25 44  1  0
 26 25  1  0
 26 29  1  0
 27 28  1  0
 27 24  1  0
 28 26  2  0
 29 30  1  0
 30 31  2  0
 32 35  1  0
 32 31  1  0
 33 32  2  0
 34 33  1  0
 34 29  2  0
 35 36  1  0
 36 41  2  0
 36 37  1  0
 37 38  2  0
 39 38  1  0
 39 43  1  0
 40 39  2  0
 41 40  1  0
 42 41  1  0
 44 45  1  0
 45 48  1  0
 45 47  1  0
 46 44  2  0
 49 24  1  0
 49 50  1  0
 51 49  1  0
 52 55  1  0
 52 54  1  0
 54 53  1  0
 56 55  1  0
 57 68  2  0
 58 56  1  0
 58 63  1  0
 59 67  1  0
 59 69  1  0
 60 66  1  0
 60 62  1  0
 61 67  1  0
 62 61  1  0
 63 62  2  0
 64 58  2  0
 65 64  1  0
 65 60  2  0
 66 59  1  0
 67 57  1  0
 69 71  2  0
 70 69  1  0
 72 70  1  0
 73 82  2  0
 73 78  1  0
 74 70  1  0
 74 78  1  0
 75 74  1  0
 76 77  1  0
 76 75  1  0
 77 73  1  0
 78 79  2  0
 79 80  1  0
 81 80  2  0
 82 81  1  0
 83 57  1  0
 83 88  1  0
 83 84  1  0
 84 87  1  1
 84 85  1  0
 86 84  1  0
 88 91  1  0
 89 93  1  0
 89 88  1  0
 90 89  2  0
 93 92  1  0
 95 93  1  0
 95 96  1  0
 95 94  1  0
M  ISO  4  14 100  22 100  55 101  56 101
M  END
>  <TORSDO>  (15) 
F 20

>  <SCORE>  (15) 
-13.754

>  <name>  (15) 
14

>  <ligand_id>  (15) 
14

>  <original_smiles>  (15) 
[H]c1c([H])c([H])c2c(c1[H])C([H])([H])C([H])([H])C([H])([H])C2([H])N([H])C(=O)C1([H])N(C(=O)C([H])(N([H])C(=O)C([H])(N([H])C([H])([H])[H])C([H])([H])[H])C(C([H])([H])[H])(C([H])([H])[H])C([H])([H])[H])C([H])([H])c2c([H])c(OC([H])([H])C([H])(C([H])([H])C([H])([H])[H])C3([H])C([H])([H])C(=O)N(c4c([H])c([H])c(N([H])C(=O)N5C([H])([H])C([H])([H])C([H])([H])C([H])(n6nc(-c7c([H])c([H])c(Oc8c([H])c([H])c(F)c([H])c8F)c([H])c7[H])c(C(=O)N([H])[H])c6N([H])[H])C5([H])[H])c([H])c4C([H])([H])[H])C3([H])[H])c([H])c([H])c2C1([H])[H]

>  <smiles>  (15) 
[H]c1c([H])c([H])c2c(c1[H])C([H])([H])C([H])([H])C([H])([H])C2([H])N([H])C(=O)C1([H])N(C(=O)C([H])(N([H])C(=O)C([H])(N([H])C([H])([H])[H])C([H])([H])[H])C(C([H])([H])[H])(C([H])([H])[H])C([H])([H])[H])C([H])([H])c2c([H])c(OC([H])([H])C([H])(C([H])([H])C([H])([H])[H])C3([H])C([H])([H])C(=O)N(c4c([H])c([H])c(N([H])C(=O)N5C([H])([H])C([H])([H])C([H])([H])C([H])(n6nc(-c7c([H])c([H])c(Oc8c([H])c([H])c(F)c([H])c8F)c([H])c7[H])c(C(=O)N([H])[H])c6N([H])[H])C5([H])[H])c([H])c4C([H])([H])[H])C3([H])[H])c([H])c([H])c2C1([H])[H]

$$$$
15:0:0
     RDKit          3D

 94103  0  0  1  0  0  0  0  0999 V2000
  -27.8540  -20.5700   20.2210 C   0  0  0  0  0  3  0  0  0  0  0  0
  -29.8480  -21.7500   19.4220 C   0  0  0  0  0  3  0  0  0  0  0  0
  -27.2090  -21.8090   20.3260 C   0  0  0  0  0  0  0  0  0  0  0  0
  -27.8530  -22.9930   19.9990 C   0  0  0  0  0  0  0  0  0  0  0  0
  -29.2070  -20.5430   19.7890 C   0  0  0  0  0  0  0  0  0  0  0  0
  -29.1830  -22.9900   19.5240 C   0  0  0  0  0  0  0  0  0  0  0  0
  -25.8210  -22.0470   20.8550 C   0  0  0  0  0  2  0  0  0  0  0  0
  -26.9810  -24.1870   20.2870 C   0  0  0  0  0  3  0  0  0  0  0  0
  -25.6520  -23.5840   20.7990 C   0  0  0  0  0  3  0  0  0  0  0  0
  -29.9610  -19.3960   19.7240 O   0  0  0  0  0  0  0  0  0  0  0  0
  -29.6290  -18.3430   20.6170 C   0  0  0  0  0  2  0  0  0  0  0  0
  -30.8950  -17.5240   20.8620 C   0  0  0  0  0  2  0  0  0  0  0  0
  -31.2780  -15.0930   20.8150 C   0  0  0  0  0  0  0  0  0  0  0  0
  -31.0140  -12.8860   19.7830 C   0  0  0  0  0  2  0  0  0  0  0  0
  -30.2110  -13.0470   18.4760 C   0  0  0  0  0  2  0  0  0  0  0  0
  -28.6980  -12.9910   18.7550 C   0  0  0  0  0  2  0  0  0  0  0  0
  -28.2650  -13.9360   19.9080 C   0  0  0  0  0  3  0  0  0  0  0  0
  -29.1810  -13.7380   21.1390 C   0  0  0  0  0  2  0  0  0  0  0  0
  -30.5760  -13.9390   20.7080 N   0  0  0  0  0  0  0  0  0  0  0  0
  -32.4440  -15.2340   20.4310 O   0  0  0  0  0  0  0  0  0  0  0  0
  -30.5520  -16.1450   21.1860 N   0  0  0  0  0  0  0  0  0  0  0  0
  -29.6180  -15.9590   21.5220 H   0  0  0  0  0  0  0  0  0  0  0  0
  -25.8320  -14.6880   20.3060 C   0  0  0  0  0  0  0  0  0  0  0  0
  -24.6930  -13.9830   20.5930 C   0  0  0  0  0  0  0  0  0  0  0  0
  -25.0900  -12.6140   20.6790 C   0  0  0  0  0  0  0  0  0  0  0  0
  -26.8540  -13.7520   20.2410 N   0  0  0  0  0  0  0  0  0  0  0  0
  -26.4030  -12.5030   20.5160 N   0  0  0  0  0  0  0  0  0  0  0  0
  -24.2890  -11.3930   20.8400 C   0  0  0  0  0  0  0  0  0  0  0  0
  -24.6390  -10.4000   21.7810 C   0  0  0  0  0  3  0  0  0  0  0  0
  -23.8410   -9.2450   21.9330 C   0  0  0  0  0  3  0  0  0  0  0  0
  -22.6790   -9.0750   21.1440 C   0  0  0  0  0  0  0  0  0  0  0  0
  -22.3480  -10.0570   20.1920 C   0  0  0  0  0  3  0  0  0  0  0  0
  -23.1460  -11.2030   20.0360 C   0  0  0  0  0  3  0  0  0  0  0  0
  -21.8600   -7.9740   21.2060 O   0  0  0  0  0  0  0  0  0  0  0  0
  -21.8280   -7.1620   22.3120 C   0  0  0  0  0  0  0  0  0  0  0  0
  -21.5370   -7.6660   23.5970 C   0  0  0  0  0  3  0  0  0  0  0  0
  -21.4430   -6.7850   24.6950 C   0  0  0  0  0  3  0  0  0  0  0  0
  -21.6340   -5.4030   24.5090 C   0  0  0  0  0  0  0  0  0  0  0  0
  -21.9190   -4.8990   23.2280 C   0  0  0  0  0  3  0  0  0  0  0  0
  -22.0120   -5.7750   22.1330 C   0  0  0  0  0  0  0  0  0  0  0  0
  -22.2650   -5.2800   20.8960 F   0  0  0  0  0  0  0  0  0  0  0  0
  -21.5370   -4.5580   25.5610 F   0  0  0  0  0  0  0  0  0  0  0  0
  -23.2980  -14.5320   20.6840 C   0  0  0  0  0  0  0  0  0  0  0  0
  -22.4530  -13.9240   21.5110 N   0  0  0  0  0  0  0  0  0  0  0  0
  -22.9640  -15.5380   20.0580 O   0  0  0  0  0  0  0  0  0  0  0  0
  -22.7300  -13.1140   22.0430 H   0  0  0  0  0  0  0  0  0  0  0  0
  -21.5110  -14.2740   21.6070 H   0  0  0  0  0  0  0  0  0  0  0  0
  -26.0820  -16.0370   20.0770 N   0  0  0  0  0  0  0  0  0  0  0  0
  -25.3400  -16.7260   20.0400 H   0  0  0  0  0  0  0  0  0  0  0  0
  -26.9730  -16.4040   19.7630 H   0  0  0  0  0  0  0  0  0  0  0  0
  -29.8660  -24.1470   19.2560 O   0  0  0  0  0  0  0  0  0  0  0  0
  -29.2460  -24.9990   18.3050 C   0  0  0  0  0  2  0  0  0  0  0  0
  -29.6990  -26.4400   18.5780 C   0  0  0  0  0  2  0  0  0  0  0  0
  -28.9960  -27.3560   17.7500 O   0  0  0  0  0  0  0  0  0  0  0  0
  -25.0050  -30.3410   22.8280 C   0  0  0  0  0  0  0  0  0  0  0  0
  -27.7430  -27.6930   18.1920 C   0  0  0  0  0  0  0  0  0  0  0  0
  -23.7680  -29.1960   21.0160 C   0  0  0  0  0  3  0  0  0  0  0  0
  -25.1630  -28.4870   19.0030 C   0  0  0  0  0  0  0  0  0  0  0  0
  -26.0870  -30.1860   20.5920 C   0  0  0  0  0  2  0  0  0  0  0  0
  -26.2930  -29.0970   19.5620 C   0  0  0  0  0  0  0  0  0  0  0  0
  -27.5850  -28.7070   19.1560 C   0  0  0  0  0  3  0  0  0  0  0  0
  -26.6020  -27.0800   17.6330 C   0  0  0  0  0  3  0  0  0  0  0  0
  -25.3100  -27.4730   18.0400 C   0  0  0  0  0  3  0  0  0  0  0  0
  -23.8170  -28.9800   19.4790 C   0  0  0  0  0  2  0  0  0  0  0  0
  -24.9800  -29.9080   21.5370 N   0  0  0  0  0  0  0  0  0  0  0  0
  -24.0260  -30.1940   23.5710 O   0  0  0  0  0  0  0  0  0  0  0  0
  -23.5210  -27.8320   21.6960 C   0  0  0  0  0  0  0  0  0  0  0  0
  -22.2990  -27.2990   21.5360 N   0  0  0  0  0  0  0  0  0  0  0  0
  -24.4210  -27.2640   22.3190 O   0  0  0  0  0  0  0  0  0  0  0  0
  -21.6200  -27.8300   21.0090 H   0  0  0  0  0  0  0  0  0  0  0  0
  -19.5380  -24.9730   21.5310 C   0  0  0  0  0  0  0  0  0  0  0  0
  -21.8490  -26.0080   22.0540 C   0  0  0  0  0  3  0  0  0  0  0  0
  -22.4390  -24.8420   21.2260 C   0  0  0  0  0  2  0  0  0  0  0  0
  -21.5260  -24.3970   20.0770 C   0  0  0  0  0  2  0  0  0  0  0  0
  -20.1750  -23.9320   20.6280 C   0  0  0  0  0  2  0  0  0  0  0  0
  -20.3230  -25.9590   22.1870 C   0  0  0  0  0  0  0  0  0  0  0  0
  -19.6770  -26.9280   22.9860 C   0  0  0  0  0  3  0  0  0  0  0  0
  -18.2770  -26.9190   23.1430 C   0  0  0  0  0  3  0  0  0  0  0  0
  -17.5080  -25.9310   22.5060 C   0  0  0  0  0  3  0  0  0  0  0  0
  -18.1380  -24.9600   21.7050 C   0  0  0  0  0  3  0  0  0  0  0  0
  -26.2550  -31.0590   23.4290 C   0  0  0  0  0  3  0  0  0  0  0  0
  -25.7920  -32.3070   24.0480 N   0  0  0  0  0  0  0  0  0  0  0  0
  -25.9730  -33.5270   23.5230 C   0  0  0  0  0  0  0  0  0  0  0  0
  -26.6160  -33.7220   22.4870 O   0  0  0  0  0  0  0  0  0  0  0  0
  -25.2120  -32.2190   24.8690 H   0  0  0  0  0  0  0  0  0  0  0  0
  -24.0550  -35.1550   23.5310 C   0  0  0  0  0  1  0  0  0  0  0  0
  -25.3360  -34.7200   24.2610 C   0  0  0  0  0  3  0  0  0  0  0  0
  -27.3640  -35.6260   25.3070 C   0  0  0  0  0  1  0  0  0  0  0  0
  -26.2460  -35.8780   24.4030 N   0  0  0  0  0  0  0  0  0  0  0  0
  -25.7420  -36.6940   24.7390 H   0  0  0  0  0  0  0  0  0  0  0  0
  -27.0390  -30.1730   24.4760 C   0  0  1  0  0  0  0  0  0  0  0  0
  -26.1410  -29.5820   25.5870 C   0  0  0  0  0  1  0  0  0  0  0  0
  -27.7480  -28.9950   23.7670 C   0  0  0  0  0  1  0  0  0  0  0  0
  -28.1460  -31.0170   25.1520 C   0  0  0  0  0  1  0  0  0  0  0  0
  1  3  1  0
  2  6  2  0
  2  5  1  0
  3  7  1  0
  4  8  1  0
  4  3  2  0
  5  1  2  0
  6  4  1  0
  8  9  2  0
  9  7  1  0
 10  5  1  0
 10 11  1  0
 11 12  1  0
 12 21  1  0
 13 21  1  0
 14 19  1  0
 15 16  1  0
 15 14  1  0
 17 16  1  0
 17 26  1  0
 17 18  1  0
 19 13  1  0
 19 18  1  0
 20 13  2  0
 21 22  1  0
 23 24  2  0
 24 25  1  0
 24 43  1  0
 25 28  1  0
 26 23  1  0
 26 27  1  0
 27 25  2  0
 28 29  1  0
 29 30  2  0
 31 34  1  0
 31 30  1  0
 32 31  2  0
 33 32  1  0
 33 28  2  0
 34 35  1  0
 35 36  1  0
 36 37  2  0
 38 37  1  0
 38 42  1  0
 39 38  2  0
 40 35  2  0
 40 39  1  0
 41 40  1  0
 43 44  1  0
 44 47  1  0
 44 46  1  0
 45 43  2  0
 48 23  1  0
 49 48  1  0
 50 48  1  0
 51  6  1  0
 52 53  1  0
 52 51  1  0
 54 56  1  0
 54 53  1  0
 55 66  2  0
 56 61  1  0
 57 65  1  0
 57 67  1  0
 58 64  1  0
 58 60  1  0
 59 65  1  0
 60 59  1  0
 61 60  2  0
 62 63  1  0
 62 56  2  0
 63 58  2  0
 64 57  1  0
 65 55  1  0
 67 69  2  0
 68 67  1  0
 70 68  1  0
 71 80  2  0
 71 76  1  0
 72 68  1  0
 72 76  1  0
 73 72  1  0
 74 75  1  0
 74 73  1  0
 75 71  1  0
 76 77  2  0
 77 78  1  0
 79 78  2  0
 80 79  1  0
 81 55  1  0
 81 82  1  0
 81 91  1  0
 82 85  1  0
 83 82  1  0
 83 87  1  0
 84 83  2  0
 87 86  1  0
 87 89  1  0
 89 90  1  0
 89 88  1  0
 91 94  1  1
 91 92  1  0
 93 91  1  0
M  ISO  4  13 100  21 100  53 101  54 101
M  END
>  <TORSDO>  (16) 
F 22

>  <SCORE>  (16) 
-6.485

>  <name>  (16) 
15

>  <ligand_id>  (16) 
15

>  <original_smiles>  (16) 
[H]c1c([H])c([H])c2c(c1[H])C([H])([H])C([H])([H])C([H])([H])C2([H])N([H])C(=O)C1([H])N(C(=O)C([H])(N([H])C(=O)C([H])(N([H])C([H])([H])[H])C([H])([H])[H])C(C([H])([H])[H])(C([H])([H])[H])C([H])([H])[H])C([H])([H])c2c([H])c(OC([H])([H])C([H])([H])Oc3c([H])c(OC([H])([H])C([H])([H])N([H])C(=O)N4C([H])([H])C([H])([H])C([H])([H])C([H])(n5nc(-c6c([H])c([H])c(Oc7c([H])c([H])c(F)c([H])c7F)c([H])c6[H])c(C(=O)N([H])[H])c5N([H])[H])C4([H])[H])c([H])c4c3C([H])([H])C([H])([H])C4([H])[H])c([H])c([H])c2C1([H])[H]

>  <smiles>  (16) 
[H]c1c([H])c([H])c2c(c1[H])C([H])([H])C([H])([H])C([H])([H])C2([H])N([H])C(=O)C1([H])N(C(=O)C([H])(N([H])C(=O)C([H])(N([H])C([H])([H])[H])C([H])([H])[H])C(C([H])([H])[H])(C([H])([H])[H])C([H])([H])[H])C([H])([H])c2c([H])c(OC([H])([H])C([H])([H])Oc3c([H])c(OC([H])([H])C([H])([H])N([H])C(=O)N4C([H])([H])C([H])([H])C([H])([H])C([H])(n5nc(-c6c([H])c([H])c(Oc7c([H])c([H])c(F)c([H])c7F)c([H])c6[H])c(C(=O)N([H])[H])c5N([H])[H])C4([H])[H])c([H])c4c3C([H])([H])C([H])([H])C4([H])[H])c([H])c([H])c2C1([H])[H]

$$$$
16:0:0
     RDKit          3D

 94103  0  0  1  0  0  0  0  0999 V2000
  -31.6290  -23.2530   18.5780 C   0  0  0  0  0  3  0  0  0  0  0  0
  -32.1070  -21.9390   18.7780 C   0  0  0  0  0  3  0  0  0  0  0  0
  -30.2280  -23.0490   20.5550 C   0  0  0  0  0  3  0  0  0  0  0  0
  -30.6750  -23.8140   19.4580 C   0  0  0  0  0  0  0  0  0  0  0  0
  -30.7230  -21.7480   20.7750 C   0  0  0  0  0  0  0  0  0  0  0  0
  -31.6600  -21.1820   19.8850 C   0  0  0  0  0  0  0  0  0  0  0  0
  -30.2610  -20.9640   21.9910 C   0  0  0  0  0  1  0  0  0  0  0  0
  -30.1860  -25.2540   19.2640 C   0  0  0  0  0  2  0  0  0  0  0  0
  -28.6570  -25.4880   19.3920 C   0  0  0  0  0  2  0  0  0  0  0  0
  -28.3940  -26.5040   20.3640 O   0  0  0  0  0  0  0  0  0  0  0  0
  -24.5460  -31.7510   23.2300 C   0  0  0  0  0  0  0  0  0  0  0  0
  -27.1950  -27.1870   20.3220 C   0  0  0  0  0  0  0  0  0  0  0  0
  -23.3510  -30.3230   21.5970 C   0  0  0  0  0  3  0  0  0  0  0  0
  -24.8080  -28.7080   20.2610 C   0  0  0  0  0  0  0  0  0  0  0  0
  -25.8880  -30.6220   21.4570 C   0  0  0  0  0  2  0  0  0  0  0  0
  -25.9570  -29.2320   20.8620 C   0  0  0  0  0  0  0  0  0  0  0  0
  -27.1470  -28.4730   20.9000 C   0  0  0  0  0  3  0  0  0  0  0  0
  -26.0230  -26.6660   19.7210 C   0  0  0  0  0  3  0  0  0  0  0  0
  -24.8330  -27.4180   19.6970 C   0  0  0  0  0  3  0  0  0  0  0  0
  -23.5810  -29.5930   20.2470 C   0  0  0  0  0  2  0  0  0  0  0  0
  -24.6120  -30.9170   22.1530 N   0  0  0  0  0  0  0  0  0  0  0  0
  -23.4580  -32.0600   23.7340 O   0  0  0  0  0  0  0  0  0  0  0  0
  -22.6560  -29.3460   22.5710 C   0  0  0  0  0  0  0  0  0  0  0  0
  -21.3360  -29.1720   22.3990 N   0  0  0  0  0  0  0  0  0  0  0  0
  -23.3020  -28.7450   23.4340 O   0  0  0  0  0  0  0  0  0  0  0  0
  -20.8820  -29.7090   21.6730 H   0  0  0  0  0  0  0  0  0  0  0  0
  -17.9410  -27.9960   22.7780 C   0  0  0  0  0  0  0  0  0  0  0  0
  -20.4810  -28.2700   23.1690 C   0  0  0  0  0  3  0  0  0  0  0  0
  -20.6140  -26.8150   22.6650 C   0  0  0  0  0  2  0  0  0  0  0  0
  -19.5650  -26.4420   21.6130 C   0  0  0  0  0  2  0  0  0  0  0  0
  -18.1510  -26.6170   22.1750 C   0  0  0  0  0  2  0  0  0  0  0  0
  -19.0380  -28.7790   23.2290 C   0  0  0  0  0  0  0  0  0  0  0  0
  -18.7900  -30.0680   23.7470 C   0  0  0  0  0  3  0  0  0  0  0  0
  -17.4800  -30.5770   23.8200 C   0  0  0  0  0  3  0  0  0  0  0  0
  -16.3960  -29.7910   23.3880 C   0  0  0  0  0  3  0  0  0  0  0  0
  -16.6280  -28.5030   22.8720 C   0  0  0  0  0  3  0  0  0  0  0  0
  -25.8280  -32.3710   23.8660 C   0  0  0  0  0  3  0  0  0  0  0  0
  -25.5360  -33.7790   24.1680 N   0  0  0  0  0  0  0  0  0  0  0  0
  -25.8970  -34.8120   23.3970 C   0  0  0  0  0  0  0  0  0  0  0  0
  -26.5850  -34.6800   22.3810 O   0  0  0  0  0  0  0  0  0  0  0  0
  -24.9360  -33.9550   24.9590 H   0  0  0  0  0  0  0  0  0  0  0  0
  -24.1970  -36.6190   22.9820 C   0  0  0  0  0  1  0  0  0  0  0  0
  -25.4210  -36.2150   23.8190 C   0  0  0  0  0  3  0  0  0  0  0  0
  -27.5560  -37.0900   24.6640 C   0  0  0  0  0  1  0  0  0  0  0  0
  -26.4690  -37.2530   23.7020 N   0  0  0  0  0  0  0  0  0  0  0  0
  -26.0740  -38.1820   23.8240 H   0  0  0  0  0  0  0  0  0  0  0  0
  -26.3100  -31.6110   25.1640 C   0  0  1  0  0  0  0  0  0  0  0  0
  -25.1950  -31.4020   26.2150 C   0  0  0  0  0  1  0  0  0  0  0  0
  -26.8810  -30.2210   24.7990 C   0  0  0  0  0  1  0  0  0  0  0  0
  -27.4600  -32.3990   25.8380 C   0  0  0  0  0  1  0  0  0  0  0  0
  -32.1550  -19.9400   20.2020 O   0  0  0  0  0  0  0  0  0  0  0  0
  -32.2110  -18.9590   19.1710 C   0  0  0  0  0  2  0  0  0  0  0  0
  -32.0000  -17.5810   19.8400 C   0  0  0  0  0  2  0  0  0  0  0  0
  -31.1470  -14.4420   19.9480 C   0  0  0  0  0  0  0  0  0  0  0  0
  -30.7880  -12.2400   18.9020 C   0  0  0  0  0  2  0  0  0  0  0  0
  -29.8110  -12.4210   17.7220 C   0  0  0  0  0  2  0  0  0  0  0  0
  -28.3380  -12.3750   18.1780 C   0  0  0  0  0  2  0  0  0  0  0  0
  -28.0800  -13.2400   19.4400 C   0  0  0  0  0  3  0  0  0  0  0  0
  -29.1580  -12.9390   20.5100 C   0  0  0  0  0  2  0  0  0  0  0  0
  -30.4540  -13.2630   19.9060 N   0  0  0  0  0  0  0  0  0  0  0  0
  -32.2810  -14.5020   19.4570 O   0  0  0  0  0  0  0  0  0  0  0  0
  -29.0820  -17.3940   21.1050 C   0  0  0  0  0  2  0  0  0  0  0  0
  -29.4970  -17.7640   19.7000 C   0  0  0  0  0  2  0  0  0  0  0  0
  -29.4700  -15.9160   21.2250 C   0  0  0  0  0  2  0  0  0  0  0  0
  -30.7000  -16.8590   19.4040 C   0  0  0  0  0  3  0  0  0  0  0  0
  -30.4370  -15.6030   20.1510 N   0  0  0  0  0  0  0  0  0  0  0  0
  -25.7540  -14.0230   20.2200 C   0  0  0  0  0  0  0  0  0  0  0  0
  -24.6490  -13.3230   20.6370 C   0  0  0  0  0  0  0  0  0  0  0  0
  -25.0080  -11.9470   20.5740 C   0  0  0  0  0  0  0  0  0  0  0  0
  -26.7270  -13.0650   19.9560 N   0  0  0  0  0  0  0  0  0  0  0  0
  -26.2810  -11.8100   20.2200 N   0  0  0  0  0  0  0  0  0  0  0  0
  -24.1970  -10.7430   20.7830 C   0  0  0  0  0  0  0  0  0  0  0  0
  -24.5950   -9.7430   21.6970 C   0  0  0  0  0  3  0  0  0  0  0  0
  -23.7960   -8.5990   21.8980 C   0  0  0  0  0  3  0  0  0  0  0  0
  -22.5820   -8.4500   21.1810 C   0  0  0  0  0  0  0  0  0  0  0  0
  -22.2080   -9.4350   20.2520 C   0  0  0  0  0  3  0  0  0  0  0  0
  -23.0070  -10.5710   20.0500 C   0  0  0  0  0  3  0  0  0  0  0  0
  -21.7460   -7.3660   21.2950 O   0  0  0  0  0  0  0  0  0  0  0  0
  -21.6730   -6.6240   22.4470 C   0  0  0  0  0  0  0  0  0  0  0  0
  -21.3180   -7.2080   23.6820 C   0  0  0  0  0  3  0  0  0  0  0  0
  -21.1750   -6.3990   24.8260 C   0  0  0  0  0  3  0  0  0  0  0  0
  -21.3820   -5.0110   24.7390 C   0  0  0  0  0  0  0  0  0  0  0  0
  -21.7310   -4.4260   23.5080 C   0  0  0  0  0  3  0  0  0  0  0  0
  -21.8730   -5.2320   22.3650 C   0  0  0  0  0  0  0  0  0  0  0  0
  -22.1870   -4.6610   21.1780 F   0  0  0  0  0  0  0  0  0  0  0  0
  -21.2450   -4.2360   25.8410 F   0  0  0  0  0  0  0  0  0  0  0  0
  -23.3010  -13.9000   20.9790 C   0  0  0  0  0  0  0  0  0  0  0  0
  -22.5660  -13.2600   21.8820 N   0  0  0  0  0  0  0  0  0  0  0  0
  -22.9110  -14.9520   20.4790 O   0  0  0  0  0  0  0  0  0  0  0  0
  -22.8970  -12.4030   22.3040 H   0  0  0  0  0  0  0  0  0  0  0  0
  -21.6660  -13.6270   22.1630 H   0  0  0  0  0  0  0  0  0  0  0  0
  -25.9890  -15.3800   20.0280 N   0  0  0  0  0  0  0  0  0  0  0  0
  -25.2450  -16.0660   20.1360 H   0  0  0  0  0  0  0  0  0  0  0  0
  -26.8170  -15.7630   19.5870 H   0  0  0  0  0  0  0  0  0  0  0  0
  1  2  2  0
  1  4  1  0
  2  6  1  0
  3  5  1  0
  4  3  2  0
  5  7  1  0
  6 51  1  0
  6  5  2  0
  8  9  1  0
  8  4  1  0
  9 10  1  0
 11 22  2  0
 12 10  1  0
 12 17  1  0
 13 21  1  0
 13 23  1  0
 14 16  1  0
 15 21  1  0
 16 17  2  0
 16 15  1  0
 18 12  2  0
 19 18  1  0
 19 14  2  0
 20 14  1  0
 20 13  1  0
 21 11  1  0
 23 25  2  0
 24 23  1  0
 26 24  1  0
 27 36  2  0
 27 32  1  0
 28 24  1  0
 28 32  1  0
 29 28  1  0
 30 31  1  0
 30 29  1  0
 31 27  1  0
 32 33  2  0
 33 34  1  0
 35 34  2  0
 36 35  1  0
 37 11  1  0
 37 38  1  0
 37 47  1  0
 38 41  1  0
 39 43  1  0
 39 38  1  0
 40 39  2  0
 43 42  1  0
 45 43  1  0
 45 46  1  0
 45 44  1  0
 47 50  1  1
 47 48  1  0
 49 47  1  0
 52 53  1  0
 52 51  1  0
 54 66  1  0
 55 60  1  0
 56 57  1  0
 56 55  1  0
 58 57  1  0
 58 70  1  0
 58 59  1  0
 60 54  1  0
 60 59  1  0
 61 54  2  0
 62 64  1  0
 63 62  1  0
 65 63  1  0
 65 53  1  0
 65 66  1  0
 66 64  1  0
 67 68  2  0
 68 87  1  0
 69 68  1  0
 69 72  1  0
 70 67  1  0
 70 71  1  0
 71 69  2  0
 72 73  1  0
 73 74  2  0
 75 78  1  0
 75 74  1  0
 76 75  2  0
 77 76  1  0
 77 72  2  0
 78 79  1  0
 79 80  1  0
 80 81  2  0
 82 81  1  0
 82 86  1  0
 83 82  2  0
 84 79  2  0
 84 83  1  0
 85 84  1  0
 87 88  1  0
 88 91  1  0
 88 90  1  0
 89 87  2  0
 92 93  1  0
 92 67  1  0
 94 92  1  0
M  ISO  4   9 101  10 101  54 100  66 100
M  END
>  <TORSDO>  (17) 
F 21

>  <SCORE>  (17) 
-13.107

>  <name>  (17) 
16

>  <ligand_id>  (17) 
16

>  <original_smiles>  (17) 
[H]c1c([H])c([H])c2c(c1[H])C([H])([H])C([H])([H])C([H])([H])C2([H])N([H])C(=O)C1([H])N(C(=O)C([H])(N([H])C(=O)C([H])(N([H])C([H])([H])[H])C([H])([H])[H])C(C([H])([H])[H])(C([H])([H])[H])C([H])([H])[H])C([H])([H])c2c([H])c(OC([H])([H])C([H])([H])c3c([H])c([H])c(OC([H])([H])C([H])([H])C4([H])N(C(=O)N5C([H])([H])C([H])([H])C([H])([H])C([H])(n6nc(-c7c([H])c([H])c(Oc8c([H])c([H])c(F)c([H])c8F)c([H])c7[H])c(C(=O)N([H])[H])c6N([H])[H])C5([H])[H])C([H])([H])C([H])([H])C4([H])[H])c(C([H])([H])[H])c3[H])c([H])c([H])c2C1([H])[H]

>  <smiles>  (17) 
[H]c1c([H])c([H])c2c(c1[H])C([H])([H])C([H])([H])C([H])([H])C2([H])N([H])C(=O)C1([H])N(C(=O)C([H])(N([H])C(=O)C([H])(N([H])C([H])([H])[H])C([H])([H])[H])C(C([H])([H])[H])(C([H])([H])[H])C([H])([H])[H])C([H])([H])c2c([H])c(OC([H])([H])C([H])([H])c3c([H])c([H])c(OC([H])([H])C([H])([H])C4([H])N(C(=O)N5C([H])([H])C([H])([H])C([H])([H])C([H])(n6nc(-c7c([H])c([H])c(Oc8c([H])c([H])c(F)c([H])c8F)c([H])c7[H])c(C(=O)N([H])[H])c6N([H])[H])C5([H])[H])C([H])([H])C([H])([H])C4([H])[H])c(C([H])([H])[H])c3[H])c([H])c([H])c2C1([H])[H]

$$$$
17:0:0
     RDKit          3D

 89 97  0  0  1  0  0  0  0  0999 V2000
  -29.7220  -21.7180   21.8490 C   0  0  0  0  0  2  0  0  0  0  0  0
  -30.7860  -20.9420   21.0620 C   0  0  0  0  0  2  0  0  0  0  0  0
  -28.9410  -21.8630   20.5460 C   0  0  0  0  0  3  0  0  0  0  0  0
  -29.7600  -20.5610   20.0870 N   0  0  2  0  0  4  0  0  0  0  0  0
  -30.1160  -20.6560   19.1460 H   0  0  0  0  0  0  0  0  0  0  0  0
  -30.3800  -23.9270   19.5960 C   0  0  0  0  0  1  0  0  0  0  0  0
  -28.9600  -23.4090   19.8310 C   0  0  0  0  0  3  0  0  0  0  0  0
  -28.1020  -24.7160   20.4770 C   0  0  0  0  0  2  0  0  0  0  0  0
  -28.2980  -26.2440   20.2090 O   0  0  0  0  0  0  0  0  0  0  0  0
  -24.6260  -31.9080   23.2530 C   0  0  0  0  0  0  0  0  0  0  0  0
  -27.2170  -27.1980   20.2230 C   0  0  0  0  0  0  0  0  0  0  0  0
  -23.4270  -30.5030   21.6220 C   0  0  0  0  0  3  0  0  0  0  0  0
  -24.8780  -28.9250   20.2050 C   0  0  0  0  0  0  0  0  0  0  0  0
  -25.9810  -30.7770   21.4510 C   0  0  0  0  0  2  0  0  0  0  0  0
  -26.0590  -29.3840   20.8030 C   0  0  0  0  0  0  0  0  0  0  0  0
  -27.2310  -28.5370   20.7890 C   0  0  0  0  0  3  0  0  0  0  0  0
  -26.0060  -26.8360   19.5980 C   0  0  0  0  0  3  0  0  0  0  0  0
  -24.8630  -27.6660   19.5890 C   0  0  0  0  0  3  0  0  0  0  0  0
  -23.6460  -29.8170   20.2480 C   0  0  0  0  0  2  0  0  0  0  0  0
  -24.6990  -31.0830   22.1660 N   0  0  0  0  0  0  0  0  0  0  0  0
  -23.5370  -32.1940   23.7790 O   0  0  0  0  0  0  0  0  0  0  0  0
  -22.7520  -29.4990   22.5910 C   0  0  0  0  0  0  0  0  0  0  0  0
  -21.4250  -29.3250   22.4640 N   0  0  0  0  0  0  0  0  0  0  0  0
  -23.4240  -28.8800   23.4200 O   0  0  0  0  0  0  0  0  0  0  0  0
  -20.9390  -29.8760   21.7680 H   0  0  0  0  0  0  0  0  0  0  0  0
  -18.0460  -28.1130   22.9570 C   0  0  0  0  0  0  0  0  0  0  0  0
  -20.6030  -28.3890   23.2350 C   0  0  0  0  0  3  0  0  0  0  0  0
  -20.7150  -26.9540   22.6690 C   0  0  0  0  0  2  0  0  0  0  0  0
  -19.6180  -26.6180   21.6540 C   0  0  0  0  0  2  0  0  0  0  0  0
  -18.2330  -26.7600   22.2890 C   0  0  0  0  0  2  0  0  0  0  0  0
  -19.1580  -28.8840   23.3870 C   0  0  0  0  0  0  0  0  0  0  0  0
  -18.9290  -30.1490   23.9700 C   0  0  0  0  0  3  0  0  0  0  0  0
  -17.6200  -30.6420   24.1310 C   0  0  0  0  0  3  0  0  0  0  0  0
  -16.5220  -29.8660   23.7200 C   0  0  0  0  0  3  0  0  0  0  0  0
  -16.7350  -28.6050   23.1360 C   0  0  0  0  0  3  0  0  0  0  0  0
  -25.9010  -32.5490   23.8790 C   0  0  0  0  0  3  0  0  0  0  0  0
  -26.4050  -31.7910   25.1690 C   0  0  1  0  0  0  0  0  0  0  0  0
  -25.3020  -31.5680   26.2310 C   0  0  0  0  0  1  0  0  0  0  0  0
  -26.9890  -30.4070   24.8030 C   0  0  0  0  0  1  0  0  0  0  0  0
  -27.5550  -32.5880   25.8310 C   0  0  0  0  0  1  0  0  0  0  0  0
  -25.5900  -33.9510   24.2020 N   0  0  0  0  0  0  0  0  0  0  0  0
  -25.9170  -35.0030   23.4400 C   0  0  0  0  0  0  0  0  0  0  0  0
  -26.5850  -34.8960   22.4070 O   0  0  0  0  0  0  0  0  0  0  0  0
  -25.0010  -34.1090   25.0050 H   0  0  0  0  0  0  0  0  0  0  0  0
  -24.1880  -36.7980   23.0930 C   0  0  0  0  0  1  0  0  0  0  0  0
  -25.4340  -36.3940   23.8950 C   0  0  0  0  0  3  0  0  0  0  0  0
  -27.5750  -37.2840   24.7100 C   0  0  0  0  0  1  0  0  0  0  0  0
  -26.4670  -37.4470   23.7720 N   0  0  0  0  0  0  0  0  0  0  0  0
  -26.0620  -38.3680   23.9140 H   0  0  0  0  0  0  0  0  0  0  0  0
  -29.2860  -19.0530   20.3090 C   0  0  0  0  0  3  0  0  0  0  0  0
  -30.2810  -17.6970   20.1060 C   0  0  0  0  0  3  0  0  0  0  0  0
  -30.5710  -14.9760   20.2290 C   0  0  0  0  0  0  0  0  0  0  0  0
  -30.3800  -12.6300   19.3030 C   0  0  0  0  0  2  0  0  0  0  0  0
  -29.4330  -12.6250   18.0820 C   0  0  0  0  0  2  0  0  0  0  0  0
  -27.9740  -12.4310   18.5280 C   0  0  0  0  0  2  0  0  0  0  0  0
  -27.5910  -13.3360   19.7260 C   0  0  0  0  0  3  0  0  0  0  0  0
  -28.6670  -13.3490   20.8320 C   0  0  0  0  0  2  0  0  0  0  0  0
  -29.9370  -13.7350   20.2000 N   0  0  0  0  0  0  0  0  0  0  0  0
  -31.7740  -15.0100   19.9600 O   0  0  0  0  0  0  0  0  0  0  0  0
  -29.8400  -16.1870   20.3190 N   0  0  0  0  0  0  0  0  0  0  0  0
  -28.8490  -16.0530   20.4590 H   0  0  0  0  0  0  0  0  0  0  0  0
  -25.2140  -13.8950   20.4890 C   0  0  0  0  0  0  0  0  0  0  0  0
  -24.1590  -13.1140   20.8710 C   0  0  0  0  0  0  0  0  0  0  0  0
  -24.6340  -11.7670   20.8410 C   0  0  0  0  0  0  0  0  0  0  0  0
  -26.2610  -13.0260   20.2440 N   0  0  0  0  0  0  0  0  0  0  0  0
  -25.9240  -11.7410   20.5240 N   0  0  0  0  0  0  0  0  0  0  0  0
  -23.9160  -10.4990   21.0340 C   0  0  0  0  0  0  0  0  0  0  0  0
  -24.3580   -9.5330   21.9650 C   0  0  0  0  0  3  0  0  0  0  0  0
  -23.6380   -8.3330   22.1470 C   0  0  0  0  0  3  0  0  0  0  0  0
  -22.4590   -8.0900   21.4010 C   0  0  0  0  0  0  0  0  0  0  0  0
  -22.0370   -9.0450   20.4580 C   0  0  0  0  0  3  0  0  0  0  0  0
  -22.7590  -10.2360   20.2740 C   0  0  0  0  0  3  0  0  0  0  0  0
  -21.7100   -6.9430   21.4950 O   0  0  0  0  0  0  0  0  0  0  0  0
  -21.6730   -6.1970   22.6470 C   0  0  0  0  0  0  0  0  0  0  0  0
  -21.2550   -6.7480   23.8780 C   0  0  0  0  0  3  0  0  0  0  0  0
  -21.1680   -5.9310   25.0220 C   0  0  0  0  0  3  0  0  0  0  0  0
  -21.4860   -4.5620   24.9340 C   0  0  0  0  0  0  0  0  0  0  0  0
  -21.9000   -4.0110   23.7090 C   0  0  0  0  0  3  0  0  0  0  0  0
  -21.9890   -4.8260   22.5680 C   0  0  0  0  0  0  0  0  0  0  0  0
  -22.3660   -4.2850   21.3840 F   0  0  0  0  0  0  0  0  0  0  0  0
  -21.3950   -3.7740   26.0310 F   0  0  0  0  0  0  0  0  0  0  0  0
  -22.7590  -13.5820   21.1450 C   0  0  0  0  0  0  0  0  0  0  0  0
  -22.0400  -12.8800   22.0140 N   0  0  0  0  0  0  0  0  0  0  0  0
  -22.3130  -14.6040   20.6250 O   0  0  0  0  0  0  0  0  0  0  0  0
  -22.4200  -12.0530   22.4530 H   0  0  0  0  0  0  0  0  0  0  0  0
  -21.0980  -13.1680   22.2400 H   0  0  0  0  0  0  0  0  0  0  0  0
  -25.3630  -15.2650   20.2960 N   0  0  0  0  0  0  0  0  0  0  0  0
  -24.5780  -15.9030   20.3760 H   0  0  0  0  0  0  0  0  0  0  0  0
  -26.1810  -15.6940   19.8800 H   0  0  0  0  0  0  0  0  0  0  0  0
  2  1  1  0
  3  7  1  0
  3  1  1  0
  4 50  1  0
  4  3  1  0
  4  2  1  0
  4  5  1  6
  7  6  1  0
  7  8  1  0
  9 11  1  0
  9  8  1  0
 10 21  2  0
 11 16  1  0
 12 20  1  0
 12 22  1  0
 13 19  1  0
 13 15  1  0
 14 20  1  0
 15 14  1  0
 16 15  2  0
 17 11  2  0
 18 17  1  0
 18 13  2  0
 19 12  1  0
 20 10  1  0
 22 24  2  0
 23 22  1  0
 25 23  1  0
 26 35  2  0
 26 31  1  0
 27 23  1  0
 27 31  1  0
 28 27  1  0
 29 30  1  0
 29 28  1  0
 30 26  1  0
 31 32  2  0
 32 33  1  0
 34 33  2  0
 35 34  1  0
 36 10  1  0
 36 41  1  0
 36 37  1  0
 37 40  1  1
 37 38  1  0
 39 37  1  0
 41 44  1  0
 42 46  1  0
 42 41  1  0
 43 42  2  0
 46 45  1  0
 48 46  1  0
 48 49  1  0
 48 47  1  0
 51 50  2  0
 51 60  1  0
 52 60  1  0
 53 58  1  0
 54 55  1  0
 54 53  1  0
 56 55  1  0
 56 65  1  0
 56 57  1  0
 58 52  1  0
 58 57  1  0
 59 52  2  0
 60 61  1  0
 62 63  2  0
 63 82  1  0
 64 63  1  0
 64 67  1  0
 65 62  1  0
 65 66  1  0
 66 64  2  0
 67 68  1  0
 68 69  2  0
 70 73  1  0
 70 69  1  0
 71 70  2  0
 72 71  1  0
 72 67  2  0
 73 74  1  0
 74 75  1  0
 75 76  2  0
 77 76  1  0
 77 81  1  0
 78 77  2  0
 79 74  2  0
 79 78  1  0
 80 79  1  0
 82 83  1  0
 83 86  1  0
 83 85  1  0
 84 82  2  0
 87 88  1  0
 87 62  1  0
 89 87  1  0
M  ISO  4   8 101   9 101  52 100  60 100
M  END
>  <TORSDO>  (18) 
F 20

>  <SCORE>  (18) 
-14.147

>  <name>  (18) 
17

>  <ligand_id>  (18) 
17

>  <original_smiles>  (18) 
[H]c1c([H])c([H])c2c(c1[H])C([H])([H])C([H])([H])C([H])([H])C2([H])N([H])C(=O)C1([H])N(C(=O)C([H])(N([H])C(=O)C([H])(N([H])C([H])([H])[H])C([H])([H])[H])C(C([H])([H])[H])(C([H])([H])[H])C([H])([H])[H])C([H])([H])c2c([H])c(OC([H])([H])C([H])(C([H])([H])[H])C3([H])C([H])([H])C([H])([H])[N+]3([H])C([H])([H])C([H])([H])N([H])C(=O)N3C([H])([H])C([H])([H])C([H])([H])C([H])(n4nc(-c5c([H])c([H])c(Oc6c([H])c([H])c(F)c([H])c6F)c([H])c5[H])c(C(=O)N([H])[H])c4N([H])[H])C3([H])[H])c([H])c([H])c2C1([H])[H]

>  <smiles>  (18) 
[H]c1c([H])c([H])c2c(c1[H])C([H])([H])C([H])([H])C([H])([H])C2([H])N([H])C(=O)C1([H])N(C(=O)C([H])(N([H])C(=O)C([H])(N([H])C([H])([H])[H])C([H])([H])[H])C(C([H])([H])[H])(C([H])([H])[H])C([H])([H])[H])C([H])([H])c2c([H])c(OC([H])([H])C([H])(C([H])([H])[H])C3([H])C([H])([H])C([H])([H])[N+]3([H])C([H])([H])C([H])([H])N([H])C(=O)N3C([H])([H])C([H])([H])C([H])([H])C([H])(n4nc(-c5c([H])c([H])c(Oc6c([H])c([H])c(F)c([H])c6F)c([H])c5[H])c(C(=O)N([H])[H])c4N([H])[H])C3([H])[H])c([H])c([H])c2C1([H])[H]

$$$$
18:0:0
     RDKit          3D

 93102  0  0  1  0  0  0  0  0999 V2000
  -30.4000  -15.2350   20.3670 C   0  0  0  0  0  0  0  0  0  0  0  0
  -30.4210  -12.7930   19.5010 C   0  0  0  0  0  2  0  0  0  0  0  0
  -29.5110  -12.5920   18.2630 C   0  0  0  0  0  2  0  0  0  0  0  0
  -28.0560  -12.3250   18.6880 C   0  0  0  0  0  2  0  0  0  0  0  0
  -27.5880  -13.2900   19.8050 C   0  0  0  0  0  3  0  0  0  0  0  0
  -28.6240  -13.4270   20.9420 C   0  0  0  0  0  2  0  0  0  0  0  0
  -29.8650  -13.9230   20.3220 N   0  0  0  0  0  0  0  0  0  0  0  0
  -31.6260  -15.2760   20.1780 O   0  0  0  0  0  0  0  0  0  0  0  0
  -28.2720  -20.2300   19.5760 C   0  0  0  0  0  3  0  0  0  0  0  0
  -28.4600  -18.7620   19.6330 C   0  0  0  0  0  3  0  0  0  0  0  0
  -29.0880  -21.2130   20.2570 C   0  0  0  0  0  0  0  0  0  0  0  0
  -30.0800  -20.4090   20.9630 C   0  0  0  0  0  0  0  0  0  0  0  0
  -29.5080  -18.0310   20.3320 C   0  0  0  0  0  0  0  0  0  0  0  0
  -31.1110  -21.1960   21.7340 C   0  0  0  0  0  2  0  0  0  0  0  0
  -31.6160  -22.3630   20.8840 C   0  0  0  0  0  2  0  0  0  0  0  0
  -29.1570  -22.9510   20.0680 C   0  0  0  0  0  3  0  0  0  0  0  0
  -30.5510  -23.4600   20.5910 C   0  0  0  0  0  3  0  0  0  0  0  0
  -30.2760  -18.9930   20.9900 N   0  0  0  0  0  0  0  0  0  0  0  0
  -29.5370  -16.4260   20.3770 N   0  0  0  0  0  0  0  0  0  0  0  0
  -28.5920  -16.0820   20.3510 H   0  0  0  0  0  0  0  0  0  0  0  0
  -25.2030  -13.8440   20.5270 C   0  0  0  0  0  0  0  0  0  0  0  0
  -24.1420  -13.0630   20.8880 C   0  0  0  0  0  0  0  0  0  0  0  0
  -24.6170  -11.7150   20.8690 C   0  0  0  0  0  0  0  0  0  0  0  0
  -26.2550  -12.9740   20.2990 N   0  0  0  0  0  0  0  0  0  0  0  0
  -25.9120  -11.6880   20.5730 N   0  0  0  0  0  0  0  0  0  0  0  0
  -23.8950  -10.4500   21.0530 C   0  0  0  0  0  0  0  0  0  0  0  0
  -24.3220   -9.4850   21.9920 C   0  0  0  0  0  3  0  0  0  0  0  0
  -23.5980   -8.2860   22.1660 C   0  0  0  0  0  3  0  0  0  0  0  0
  -22.4320   -8.0430   21.4010 C   0  0  0  0  0  0  0  0  0  0  0  0
  -22.0240   -8.9960   20.4510 C   0  0  0  0  0  3  0  0  0  0  0  0
  -22.7500  -10.1860   20.2750 C   0  0  0  0  0  3  0  0  0  0  0  0
  -21.6800   -6.8950   21.4830 O   0  0  0  0  0  0  0  0  0  0  0  0
  -21.6210   -6.1560   22.6370 C   0  0  0  0  0  0  0  0  0  0  0  0
  -21.1950   -6.7170   23.8620 C   0  0  0  0  0  3  0  0  0  0  0  0
  -21.0830   -5.9040   25.0080 C   0  0  0  0  0  3  0  0  0  0  0  0
  -21.3850   -4.5320   24.9290 C   0  0  0  0  0  0  0  0  0  0  0  0
  -21.8040   -3.9700   23.7100 C   0  0  0  0  0  3  0  0  0  0  0  0
  -21.9180   -4.7800   22.5670 C   0  0  0  0  0  0  0  0  0  0  0  0
  -22.3010   -4.2290   21.3900 F   0  0  0  0  0  0  0  0  0  0  0  0
  -21.2700   -3.7490   26.0280 F   0  0  0  0  0  0  0  0  0  0  0  0
  -22.7370  -13.5330   21.1340 C   0  0  0  0  0  0  0  0  0  0  0  0
  -22.0030  -12.8430   21.9990 N   0  0  0  0  0  0  0  0  0  0  0  0
  -22.3010  -14.5490   20.5930 O   0  0  0  0  0  0  0  0  0  0  0  0
  -22.3690  -12.0220   22.4570 H   0  0  0  0  0  0  0  0  0  0  0  0
  -21.0600  -13.1410   22.2060 H   0  0  0  0  0  0  0  0  0  0  0  0
  -25.3550  -15.2160   20.3430 N   0  0  0  0  0  0  0  0  0  0  0  0
  -24.5690  -15.8520   20.4320 H   0  0  0  0  0  0  0  0  0  0  0  0
  -26.1740  -15.6580   19.9510 H   0  0  0  0  0  0  0  0  0  0  0  0
  -32.1800  -25.4540   20.4700 C   0  0  0  0  0  1  0  0  0  0  0  0
  -31.7840  -24.0950   18.3750 C   0  0  0  0  0  1  0  0  0  0  0  0
  -31.1680  -24.5870   19.7010 C   0  0  0  0  0  3  0  0  0  0  0  0
  -28.0230  -24.3110   20.3000 C   0  0  0  0  0  2  0  0  0  0  0  0
  -28.2150  -25.9360   20.1940 O   0  0  0  0  0  0  0  0  0  0  0  0
  -24.6510  -31.8690   23.1570 C   0  0  0  0  0  0  0  0  0  0  0  0
  -27.1770  -26.9920   20.1640 C   0  0  0  0  0  0  0  0  0  0  0  0
  -23.4400  -30.4670   21.5350 C   0  0  0  0  0  3  0  0  0  0  0  0
  -24.8730  -28.8490   20.1190 C   0  0  0  0  0  0  0  0  0  0  0  0
  -26.0030  -30.6790   21.3660 C   0  0  0  0  0  2  0  0  0  0  0  0
  -26.0660  -29.2670   20.7230 C   0  0  0  0  0  0  0  0  0  0  0  0
  -27.2140  -28.3610   20.7170 C   0  0  0  0  0  3  0  0  0  0  0  0
  -25.9520  -26.7130   19.5180 C   0  0  0  0  0  3  0  0  0  0  0  0
  -24.8380  -27.5910   19.4960 C   0  0  0  0  0  3  0  0  0  0  0  0
  -23.6560  -29.7710   20.1640 C   0  0  0  0  0  2  0  0  0  0  0  0
  -24.7200  -31.0310   22.0730 N   0  0  0  0  0  0  0  0  0  0  0  0
  -23.5660  -32.1660   23.6850 O   0  0  0  0  0  0  0  0  0  0  0  0
  -22.7500  -29.4780   22.5120 C   0  0  0  0  0  0  0  0  0  0  0  0
  -21.4180  -29.3240   22.4030 N   0  0  0  0  0  0  0  0  0  0  0  0
  -23.4200  -28.8510   23.3360 O   0  0  0  0  0  0  0  0  0  0  0  0
  -20.9310  -29.8810   21.7130 H   0  0  0  0  0  0  0  0  0  0  0  0
  -18.0320  -28.1410   22.9460 C   0  0  0  0  0  0  0  0  0  0  0  0
  -20.5950  -28.3970   23.1860 C   0  0  0  0  0  3  0  0  0  0  0  0
  -20.6850  -26.9590   22.6210 C   0  0  0  0  0  2  0  0  0  0  0  0
  -19.5730  -26.6350   21.6180 C   0  0  0  0  0  2  0  0  0  0  0  0
  -18.1970  -26.7890   22.2730 C   0  0  0  0  0  2  0  0  0  0  0  0
  -19.1580  -28.9030   23.3600 C   0  0  0  0  0  0  0  0  0  0  0  0
  -18.9470  -30.1660   23.9530 C   0  0  0  0  0  3  0  0  0  0  0  0
  -17.6450  -30.6700   24.1320 C   0  0  0  0  0  3  0  0  0  0  0  0
  -16.5350  -29.9070   23.7320 C   0  0  0  0  0  3  0  0  0  0  0  0
  -16.7290  -28.6440   23.1450 C   0  0  0  0  0  3  0  0  0  0  0  0
  -25.9300  -32.5100   23.7770 C   0  0  0  0  0  3  0  0  0  0  0  0
  -25.6090  -33.9020   24.1380 N   0  0  0  0  0  0  0  0  0  0  0  0
  -25.9160  -34.9760   23.4000 C   0  0  0  0  0  0  0  0  0  0  0  0
  -26.5640  -34.9010   22.3520 O   0  0  0  0  0  0  0  0  0  0  0  0
  -25.0300  -34.0330   24.9540 H   0  0  0  0  0  0  0  0  0  0  0  0
  -24.1640  -36.7660   23.1380 C   0  0  0  0  0  1  0  0  0  0  0  0
  -25.4330  -36.3530   23.9000 C   0  0  0  0  0  3  0  0  0  0  0  0
  -27.5870  -37.2430   24.6780 C   0  0  0  0  0  1  0  0  0  0  0  0
  -26.4530  -37.4180   23.7740 N   0  0  0  0  0  0  0  0  0  0  0  0
  -26.0440  -38.3320   23.9530 H   0  0  0  0  0  0  0  0  0  0  0  0
  -26.4610  -31.7300   25.0430 C   0  0  1  0  0  0  0  0  0  0  0  0
  -25.3820  -31.4830   26.1230 C   0  0  0  0  0  1  0  0  0  0  0  0
  -27.0420  -30.3550   24.6410 C   0  0  0  0  0  1  0  0  0  0  0  0
  -27.6190  -32.5200   25.6970 C   0  0  0  0  0  1  0  0  0  0  0  0
  1 19  1  0
  2  7  1  0
  3  4  1  0
  3  2  1  0
  5  4  1  0
  5 24  1  0
  5  6  1  0
  7  1  1  0
  7  6  1  0
  8  1  2  0
  9 10  2  0
  9 11  1  0
 10 13  1  0
 11 12  2  0
 12 18  1  0
 12 14  1  0
 13 19  1  0
 13 18  2  0
 15 14  1  0
 16 11  1  0
 16 52  1  0
 16 17  1  0
 17 51  1  0
 17 15  1  0
 20 19  1  0
 21 22  2  0
 22 41  1  0
 23 22  1  0
 23 26  1  0
 24 21  1  0
 24 25  1  0
 25 23  2  0
 26 27  1  0
 27 28  2  0
 29 32  1  0
 29 28  1  0
 30 29  2  0
 31 30  1  0
 31 26  2  0
 32 33  1  0
 33 34  1  0
 34 35  2  0
 36 35  1  0
 36 40  1  0
 37 36  2  0
 38 33  2  0
 38 37  1  0
 39 38  1  0
 41 42  1  0
 42 45  1  0
 42 44  1  0
 43 41  2  0
 46 47  1  0
 46 21  1  0
 48 46  1  0
 50 51  1  0
 51 49  1  0
 53 52  1  0
 54 65  2  0
 55 53  1  0
 55 60  1  0
 56 64  1  0
 56 66  1  0
 57 63  1  0
 57 59  1  0
 58 64  1  0
 59 58  1  0
 60 59  2  0
 61 55  2  0
 62 61  1  0
 62 57  2  0
 63 56  1  0
 64 54  1  0
 66 68  2  0
 67 66  1  0
 69 67  1  0
 70 79  2  0
 70 75  1  0
 71 67  1  0
 71 75  1  0
 72 71  1  0
 73 74  1  0
 73 72  1  0
 74 70  1  0
 75 76  2  0
 76 77  1  0
 78 77  2  0
 79 78  1  0
 80 54  1  0
 80 81  1  0
 80 90  1  0
 81 84  1  0
 82 86  1  0
 82 81  1  0
 83 82  2  0
 86 85  1  0
 88 86  1  0
 88 89  1  0
 88 87  1  0
 90 93  1  1
 90 91  1  0
 92 90  1  0
M  ISO  4   1 100  19 100  52 101  53 101
M  END
>  <TORSDO>  (19) 
F 17

>  <SCORE>  (19) 
-15.975

>  <name>  (19) 
18

>  <ligand_id>  (19) 
18

>  <original_smiles>  (19) 
[H]c1c(N([H])C(=O)N2C([H])([H])C([H])([H])C([H])([H])C([H])(n3nc(-c4c([H])c([H])c(Oc5c([H])c([H])c(F)c([H])c5F)c([H])c4[H])c(C(=O)N([H])[H])c3N([H])[H])C2([H])[H])nc2c(c1[H])C([H])(C([H])([H])Oc1c([H])c([H])c3c(c1[H])C([H])([H])N(C(=O)C([H])(N([H])C(=O)C([H])(N([H])C([H])([H])[H])C([H])([H])[H])C(C([H])([H])[H])(C([H])([H])[H])C([H])([H])[H])C([H])(C(=O)N([H])C1([H])c4c([H])c([H])c([H])c([H])c4C([H])([H])C([H])([H])C1([H])[H])C3([H])[H])C([H])(C([H])(C([H])([H])[H])C([H])([H])[H])C([H])([H])C2([H])[H]

>  <smiles>  (19) 
[H]c1c(N([H])C(=O)N2C([H])([H])C([H])([H])C([H])([H])C([H])(n3nc(-c4c([H])c([H])c(Oc5c([H])c([H])c(F)c([H])c5F)c([H])c4[H])c(C(=O)N([H])[H])c3N([H])[H])C2([H])[H])nc2c(c1[H])C([H])(C([H])([H])Oc1c([H])c([H])c3c(c1[H])C([H])([H])N(C(=O)C([H])(N([H])C(=O)C([H])(N([H])C([H])([H])[H])C([H])([H])[H])C(C([H])([H])[H])(C([H])([H])[H])C([H])([H])[H])C([H])(C(=O)N([H])C1([H])c4c([H])c([H])c([H])c([H])c4C([H])([H])C([H])([H])C1([H])[H])C3([H])[H])C([H])(C([H])(C([H])([H])[H])C([H])([H])[H])C([H])([H])C2([H])[H]

$$$$
19:0:0
     RDKit          3D

 90 98  0  0  1  0  0  0  0  0999 V2000
  -30.4280  -15.2300   20.3590 C   0  0  0  0  0  0  0  0  0  0  0  0
  -30.4380  -12.7720   19.5440 C   0  0  0  0  0  2  0  0  0  0  0  0
  -29.5490  -12.5720   18.2900 C   0  0  0  0  0  2  0  0  0  0  0  0
  -28.0840  -12.3240   18.6900 C   0  0  0  0  0  2  0  0  0  0  0  0
  -27.6090  -13.3050   19.7910 C   0  0  0  0  0  3  0  0  0  0  0  0
  -28.6270  -13.4440   20.9440 C   0  0  0  0  0  2  0  0  0  0  0  0
  -29.8850  -13.9180   20.3460 N   0  0  0  0  0  0  0  0  0  0  0  0
  -31.6470  -15.2630   20.1300 O   0  0  0  0  0  0  0  0  0  0  0  0
  -28.1400  -20.2510   20.5480 C   0  0  0  0  0  3  0  0  0  0  0  0
  -28.3220  -18.7820   20.5920 C   0  0  0  0  0  3  0  0  0  0  0  0
  -29.1640  -21.2300   20.2430 C   0  0  0  0  0  0  0  0  0  0  0  0
  -30.3580  -20.4070   19.9990 C   0  0  0  0  0  0  0  0  0  0  0  0
  -29.5460  -18.0350   20.3520 C   0  0  0  0  0  0  0  0  0  0  0  0
  -31.6620  -21.1200   19.6960 C   0  0  0  0  0  1  0  0  0  0  0  0
  -30.5200  -18.9840   20.0420 N   0  0  0  0  0  0  0  0  0  0  0  0
  -29.5820  -16.4310   20.4600 N   0  0  0  0  0  0  0  0  0  0  0  0
  -28.6520  -16.0960   20.6510 H   0  0  0  0  0  0  0  0  0  0  0  0
  -25.2160  -13.8900   20.4600 C   0  0  0  0  0  0  0  0  0  0  0  0
  -24.1430  -13.1240   20.8170 C   0  0  0  0  0  0  0  0  0  0  0  0
  -24.6070  -11.7720   20.8260 C   0  0  0  0  0  0  0  0  0  0  0  0
  -26.2630  -13.0070   20.2640 N   0  0  0  0  0  0  0  0  0  0  0  0
  -25.9060  -11.7290   20.5530 N   0  0  0  0  0  0  0  0  0  0  0  0
  -23.8700  -10.5160   21.0190 C   0  0  0  0  0  0  0  0  0  0  0  0
  -24.2850   -9.5540   21.9660 C   0  0  0  0  0  3  0  0  0  0  0  0
  -23.5460   -8.3630   22.1480 C   0  0  0  0  0  3  0  0  0  0  0  0
  -22.3790   -8.1290   21.3830 C   0  0  0  0  0  0  0  0  0  0  0  0
  -21.9830   -9.0790   20.4250 C   0  0  0  0  0  3  0  0  0  0  0  0
  -22.7220  -10.2590   20.2420 C   0  0  0  0  0  3  0  0  0  0  0  0
  -21.6150   -6.9900   21.4730 O   0  0  0  0  0  0  0  0  0  0  0  0
  -21.5600   -6.2490   22.6260 C   0  0  0  0  0  0  0  0  0  0  0  0
  -21.1610   -6.8150   23.8570 C   0  0  0  0  0  3  0  0  0  0  0  0
  -21.0520   -6.0020   25.0020 C   0  0  0  0  0  3  0  0  0  0  0  0
  -21.3310   -4.6250   24.9200 C   0  0  0  0  0  0  0  0  0  0  0  0
  -21.7210   -4.0580   23.6940 C   0  0  0  0  0  3  0  0  0  0  0  0
  -21.8320   -4.8680   22.5490 C   0  0  0  0  0  0  0  0  0  0  0  0
  -22.1890   -4.3140   21.3660 F   0  0  0  0  0  0  0  0  0  0  0  0
  -21.2180   -3.8420   26.0180 F   0  0  0  0  0  0  0  0  0  0  0  0
  -22.7400  -13.6090   21.0340 C   0  0  0  0  0  0  0  0  0  0  0  0
  -21.9850  -12.9400   21.8970 N   0  0  0  0  0  0  0  0  0  0  0  0
  -22.3210  -14.6210   20.4720 O   0  0  0  0  0  0  0  0  0  0  0  0
  -22.3370  -12.1220   22.3740 H   0  0  0  0  0  0  0  0  0  0  0  0
  -21.0420  -13.2490   22.0860 H   0  0  0  0  0  0  0  0  0  0  0  0
  -25.3840  -15.2570   20.2520 N   0  0  0  0  0  0  0  0  0  0  0  0
  -24.5990  -15.8970   20.3010 H   0  0  0  0  0  0  0  0  0  0  0  0
  -26.2040  -15.6720   19.8310 H   0  0  0  0  0  0  0  0  0  0  0  0
  -29.1250  -22.9720   20.4060 C   0  0  0  0  0  3  0  0  0  0  0  0
  -29.2320  -23.2340   21.7900 O   0  0  0  0  0  0  0  0  0  0  0  0
  -29.3310  -24.1780   21.8860 H   0  0  0  0  0  0  0  0  0  0  0  0
  -28.0740  -24.3250   19.9340 C   0  0  0  0  0  2  0  0  0  0  0  0
  -28.2790  -25.9390   20.0960 O   0  0  0  0  0  0  0  0  0  0  0  0
  -24.6990  -31.8180   23.1000 C   0  0  0  0  0  0  0  0  0  0  0  0
  -27.2460  -26.9990   20.0360 C   0  0  0  0  0  0  0  0  0  0  0  0
  -23.4910  -30.4270   21.4660 C   0  0  0  0  0  3  0  0  0  0  0  0
  -24.9300  -28.8380   20.0200 C   0  0  0  0  0  0  0  0  0  0  0  0
  -26.0520  -30.6610   21.2880 C   0  0  0  0  0  2  0  0  0  0  0  0
  -26.1200  -29.2570   20.6270 C   0  0  0  0  0  0  0  0  0  0  0  0
  -27.2730  -28.3570   20.6110 C   0  0  0  0  0  3  0  0  0  0  0  0
  -26.0240  -26.7190   19.3840 C   0  0  0  0  0  3  0  0  0  0  0  0
  -24.9040  -27.5890   19.3780 C   0  0  0  0  0  3  0  0  0  0  0  0
  -23.7060  -29.7500   20.0830 C   0  0  0  0  0  2  0  0  0  0  0  0
  -24.7690  -30.9950   22.0050 N   0  0  0  0  0  0  0  0  0  0  0  0
  -23.6150  -32.1000   23.6350 O   0  0  0  0  0  0  0  0  0  0  0  0
  -22.8130  -29.4220   22.4330 C   0  0  0  0  0  0  0  0  0  0  0  0
  -21.4790  -29.2700   22.3360 N   0  0  0  0  0  0  0  0  0  0  0  0
  -23.4910  -28.7810   23.2390 O   0  0  0  0  0  0  0  0  0  0  0  0
  -20.9850  -29.8380   21.6610 H   0  0  0  0  0  0  0  0  0  0  0  0
  -18.0980  -28.0910   22.9060 C   0  0  0  0  0  0  0  0  0  0  0  0
  -20.6640  -28.3300   23.1130 C   0  0  0  0  0  3  0  0  0  0  0  0
  -20.7390  -26.9050   22.5170 C   0  0  0  0  0  2  0  0  0  0  0  0
  -19.6100  -26.6080   21.5230 C   0  0  0  0  0  2  0  0  0  0  0  0
  -18.2470  -26.7510   22.2030 C   0  0  0  0  0  2  0  0  0  0  0  0
  -19.2330  -28.8390   23.3190 C   0  0  0  0  0  0  0  0  0  0  0  0
  -19.0350  -30.0910   23.9410 C   0  0  0  0  0  3  0  0  0  0  0  0
  -17.7370  -30.5950   24.1510 C   0  0  0  0  0  3  0  0  0  0  0  0
  -16.6180  -29.8450   23.7510 C   0  0  0  0  0  3  0  0  0  0  0  0
  -16.8000  -28.5940   23.1350 C   0  0  0  0  0  3  0  0  0  0  0  0
  -25.9760  -32.4600   23.7230 C   0  0  0  0  0  3  0  0  0  0  0  0
  -25.6490  -33.8460   24.0990 N   0  0  0  0  0  0  0  0  0  0  0  0
  -25.9470  -34.9280   23.3700 C   0  0  0  0  0  0  0  0  0  0  0  0
  -26.5920  -34.8670   22.3190 O   0  0  0  0  0  0  0  0  0  0  0  0
  -25.0720  -33.9660   24.9180 H   0  0  0  0  0  0  0  0  0  0  0  0
  -24.1820  -36.7100   23.1330 C   0  0  0  0  0  1  0  0  0  0  0  0
  -25.4580  -36.2990   23.8850 C   0  0  0  0  0  3  0  0  0  0  0  0
  -27.6110  -37.1950   24.6600 C   0  0  0  0  0  1  0  0  0  0  0  0
  -26.4710  -37.3710   23.7640 N   0  0  0  0  0  0  0  0  0  0  0  0
  -26.0580  -38.2810   23.9510 H   0  0  0  0  0  0  0  0  0  0  0  0
  -26.5150  -31.6690   24.9800 C   0  0  1  0  0  0  0  0  0  0  0  0
  -25.4400  -31.4080   26.0600 C   0  0  0  0  0  1  0  0  0  0  0  0
  -27.0980  -30.3000   24.5610 C   0  0  0  0  0  1  0  0  0  0  0  0
  -27.6730  -32.4570   25.6370 C   0  0  0  0  0  1  0  0  0  0  0  0
  1 16  1  0
  2  7  1  0
  3  4  1  0
  3  2  1  0
  5  4  1  0
  5 21  1  0
  5  6  1  0
  7  1  1  0
  7  6  1  0
  8  1  2  0
  9 10  1  0
 11 46  1  0
 11  9  2  0
 12 15  2  0
 12 11  1  0
 13 16  1  0
 13 10  2  0
 14 12  1  0
 15 13  1  0
 16 17  1  0
 18 19  2  0
 19 20  1  0
 19 38  1  0
 20 23  1  0
 21 18  1  0
 21 22  1  0
 22 20  2  0
 23 24  1  0
 24 25  2  0
 26 29  1  0
 26 25  1  0
 27 26  2  0
 28 27  1  0
 28 23  2  0
 29 30  1  0
 30 31  1  0
 31 32  2  0
 33 32  1  0
 33 37  1  0
 34 33  2  0
 35 30  2  0
 35 34  1  0
 36 35  1  0
 38 39  1  0
 39 42  1  0
 39 41  1  0
 40 38  2  0
 43 44  1  0
 43 18  1  0
 45 43  1  0
 46 49  1  0
 46 47  1  0
 47 48  1  0
 49 50  1  0
 51 62  2  0
 52 50  1  0
 52 57  1  0
 53 61  1  0
 53 63  1  0
 54 60  1  0
 54 56  1  0
 55 61  1  0
 56 55  1  0
 57 56  2  0
 58 52  2  0
 59 58  1  0
 59 54  2  0
 60 53  1  0
 61 51  1  0
 63 65  2  0
 64 63  1  0
 66 64  1  0
 67 76  2  0
 67 72  1  0
 68 64  1  0
 68 72  1  0
 69 68  1  0
 70 71  1  0
 70 69  1  0
 71 67  1  0
 72 73  2  0
 73 74  1  0
 75 74  2  0
 76 75  1  0
 77 51  1  0
 77 78  1  0
 77 87  1  0
 78 81  1  0
 79 83  1  0
 79 78  1  0
 80 79  2  0
 83 82  1  0
 85 83  1  0
 85 86  1  0
 85 84  1  0
 87 90  1  1
 87 88  1  0
 89 87  1  0
M  ISO  4   1 100  16 100  49 101  50 101
M  END
>  <TORSDO>  (20) 
F 18

>  <SCORE>  (20) 
-15.924

>  <name>  (20) 
19

>  <ligand_id>  (20) 
19

>  <original_smiles>  (20) 
[H]OC([H])(c1c(C([H])([H])[H])nc(N([H])C(=O)N2C([H])([H])C([H])([H])C([H])([H])C([H])(n3nc(-c4c([H])c([H])c(Oc5c([H])c([H])c(F)c([H])c5F)c([H])c4[H])c(C(=O)N([H])[H])c3N([H])[H])C2([H])[H])c([H])c1[H])C([H])([H])Oc1c([H])c([H])c2c(c1[H])C([H])([H])N(C(=O)C([H])(N([H])C(=O)C([H])(N([H])C([H])([H])[H])C([H])([H])[H])C(C([H])([H])[H])(C([H])([H])[H])C([H])([H])[H])C([H])(C(=O)N([H])C1([H])c3c([H])c([H])c([H])c([H])c3C([H])([H])C([H])([H])C1([H])[H])C2([H])[H]

>  <smiles>  (20) 
[H]OC([H])(c1c(C([H])([H])[H])nc(N([H])C(=O)N2C([H])([H])C([H])([H])C([H])([H])C([H])(n3nc(-c4c([H])c([H])c(Oc5c([H])c([H])c(F)c([H])c5F)c([H])c4[H])c(C(=O)N([H])[H])c3N([H])[H])C2([H])[H])c([H])c1[H])C([H])([H])Oc1c([H])c([H])c2c(c1[H])C([H])([H])N(C(=O)C([H])(N([H])C(=O)C([H])(N([H])C([H])([H])[H])C([H])([H])[H])C(C([H])([H])[H])(C([H])([H])[H])C([H])([H])[H])C([H])(C(=O)N([H])C1([H])c3c([H])c([H])c([H])c([H])c3C([H])([H])C([H])([H])C1([H])[H])C2([H])[H]

$$$$
20:0:0
     RDKit          3D

 96106  0  0  1  0  0  0  0  0999 V2000
  -30.7910  -21.1510   20.6230 C   0  0  0  0  0  3  0  0  0  0  0  0
  -31.3070  -19.9940   21.1800 C   0  0  0  0  0  3  0  0  0  0  0  0
  -29.3070  -20.3230   18.9090 C   0  0  0  0  0  3  0  0  0  0  0  0
  -30.3030  -19.3290   18.4760 C   0  0  0  0  0  3  0  0  0  0  0  0
  -29.6410  -21.3610   19.7260 C   0  0  0  0  0  3  0  0  0  0  0  0
  -29.9960  -18.0920   18.8870 C   0  0  0  0  0  3  0  0  0  0  0  0
  -31.0640  -18.4220   21.2010 C   0  0  0  0  0  2  0  0  0  0  0  0
  -30.4260  -19.2620   16.9610 C   0  0  0  0  0  2  0  0  0  0  0  0
  -29.5310  -18.0650   16.5810 C   0  0  0  0  0  2  0  0  0  0  0  0
  -27.6470  -18.5170   18.2320 C   0  0  0  0  0  2  0  0  0  0  0  0
  -27.9200  -20.0700   18.2730 C   0  0  0  0  0  3  0  0  0  0  0  0
  -28.9190  -17.6490   17.9290 C   0  0  0  0  0  3  0  0  0  0  0  0
  -30.0230  -17.5970   20.3340 C   0  0  0  0  0  3  0  0  0  0  0  0
  -26.7400  -20.7980   18.9460 C   0  0  0  0  0  1  0  0  0  0  0  0
  -30.8050  -14.9870   20.0590 C   0  0  0  0  0  0  0  0  0  0  0  0
  -30.5660  -12.7270   19.0050 C   0  0  0  0  0  2  0  0  0  0  0  0
  -29.5780  -12.8380   17.8210 C   0  0  0  0  0  2  0  0  0  0  0  0
  -28.1250  -12.6640   18.3040 C   0  0  0  0  0  2  0  0  0  0  0  0
  -27.8090  -13.5300   19.5510 C   0  0  0  0  0  3  0  0  0  0  0  0
  -28.9070  -13.3920   20.6300 C   0  0  0  0  0  2  0  0  0  0  0  0
  -30.1890  -13.7530   20.0060 N   0  0  0  0  0  0  0  0  0  0  0  0
  -31.9470  -15.1300   19.6110 O   0  0  0  0  0  0  0  0  0  0  0  0
  -30.0230  -16.0590   20.4570 N   0  0  0  0  0  0  0  0  0  0  0  0
  -29.1490  -15.7250   20.8350 H   0  0  0  0  0  0  0  0  0  0  0  0
  -25.4700  -14.1720   20.3930 C   0  0  0  0  0  0  0  0  0  0  0  0
  -24.3960  -13.4180   20.7840 C   0  0  0  0  0  0  0  0  0  0  0  0
  -24.8130  -12.0560   20.6810 C   0  0  0  0  0  0  0  0  0  0  0  0
  -26.4750  -13.2700   20.0810 N   0  0  0  0  0  0  0  0  0  0  0  0
  -26.0880  -11.9890   20.3140 N   0  0  0  0  0  0  0  0  0  0  0  0
  -24.0550  -10.8110   20.8510 C   0  0  0  0  0  0  0  0  0  0  0  0
  -24.4870   -9.8030   21.7400 C   0  0  0  0  0  3  0  0  0  0  0  0
  -23.7330   -8.6200   21.9020 C   0  0  0  0  0  3  0  0  0  0  0  0
  -22.5330   -8.4380   21.1770 C   0  0  0  0  0  0  0  0  0  0  0  0
  -22.1180   -9.4350   20.2760 C   0  0  0  0  0  3  0  0  0  0  0  0
  -22.8730  -10.6090   20.1110 C   0  0  0  0  0  3  0  0  0  0  0  0
  -21.7500   -7.3130   21.2520 O   0  0  0  0  0  0  0  0  0  0  0  0
  -21.6990   -6.5450   22.3890 C   0  0  0  0  0  0  0  0  0  0  0  0
  -21.2680   -7.0720   23.6250 C   0  0  0  0  0  3  0  0  0  0  0  0
  -21.1660   -6.2310   24.7510 C   0  0  0  0  0  3  0  0  0  0  0  0
  -21.4840   -4.8640   24.6430 C   0  0  0  0  0  0  0  0  0  0  0  0
  -21.9090   -4.3370   23.4100 C   0  0  0  0  0  3  0  0  0  0  0  0
  -22.0150   -5.1750   22.2860 C   0  0  0  0  0  0  0  0  0  0  0  0
  -22.4060   -4.6580   21.0980 F   0  0  0  0  0  0  0  0  0  0  0  0
  -21.3780   -4.0540   25.7220 F   0  0  0  0  0  0  0  0  0  0  0  0
  -23.0270  -13.9290   21.1320 C   0  0  0  0  0  0  0  0  0  0  0  0
  -22.3120  -13.2260   22.0020 N   0  0  0  0  0  0  0  0  0  0  0  0
  -22.6010  -14.9850   20.6670 O   0  0  0  0  0  0  0  0  0  0  0  0
  -22.6670  -12.3720   22.4070 H   0  0  0  0  0  0  0  0  0  0  0  0
  -21.3940  -13.5490   22.2730 H   0  0  0  0  0  0  0  0  0  0  0  0
  -25.6660  -15.5400   20.2490 N   0  0  0  0  0  0  0  0  0  0  0  0
  -24.9040  -16.1980   20.3680 H   0  0  0  0  0  0  0  0  0  0  0  0
  -26.4700  -15.9460   19.7900 H   0  0  0  0  0  0  0  0  0  0  0  0
  -28.8630  -22.5520   19.6870 O   0  0  0  0  0  0  0  0  0  0  0  0
  -29.3650  -23.9160   20.0090 C   0  0  0  0  0  2  0  0  0  0  0  0
  -28.3470  -25.1130   19.6050 C   0  0  0  0  0  2  0  0  0  0  0  0
  -28.5410  -26.5790   19.8990 O   0  0  0  0  0  0  0  0  0  0  0  0
  -24.5130  -31.7160   23.0900 C   0  0  0  0  0  0  0  0  0  0  0  0
  -27.4080  -27.4310   19.8480 C   0  0  0  0  0  0  0  0  0  0  0  0
  -23.4190  -30.3600   21.3450 C   0  0  0  0  0  3  0  0  0  0  0  0
  -24.9750  -28.9680   19.8650 C   0  0  0  0  0  0  0  0  0  0  0  0
  -25.9470  -30.7970   21.2470 C   0  0  0  0  0  2  0  0  0  0  0  0
  -26.1090  -29.4620   20.5220 C   0  0  0  0  0  0  0  0  0  0  0  0
  -27.3280  -28.7070   20.5020 C   0  0  0  0  0  3  0  0  0  0  0  0
  -26.2470  -27.0140   19.1560 C   0  0  0  0  0  3  0  0  0  0  0  0
  -25.0490  -27.7520   19.1710 C   0  0  0  0  0  3  0  0  0  0  0  0
  -23.6980  -29.7830   19.9330 C   0  0  0  0  0  2  0  0  0  0  0  0
  -24.6440  -30.9740   21.9510 N   0  0  0  0  0  0  0  0  0  0  0  0
  -23.4050  -31.9100   23.6120 O   0  0  0  0  0  0  0  0  0  0  0  0
  -22.7860  -29.2560   22.2280 C   0  0  0  0  0  0  0  0  0  0  0  0
  -21.4640  -29.0550   22.0930 N   0  0  0  0  0  0  0  0  0  0  0  0
  -23.4850  -28.5890   22.9950 O   0  0  0  0  0  0  0  0  0  0  0  0
  -20.9560  -29.6490   21.4530 H   0  0  0  0  0  0  0  0  0  0  0  0
  -18.1070  -27.7990   22.5950 C   0  0  0  0  0  0  0  0  0  0  0  0
  -20.6740  -28.0420   22.7960 C   0  0  0  0  0  3  0  0  0  0  0  0
  -20.7540  -26.6740   22.0800 C   0  0  0  0  0  2  0  0  0  0  0  0
  -19.6170  -26.4490   21.0780 C   0  0  0  0  0  2  0  0  0  0  0  0
  -18.2590  -26.5230   21.7820 C   0  0  0  0  0  2  0  0  0  0  0  0
  -19.2410  -28.5200   23.0580 C   0  0  0  0  0  0  0  0  0  0  0  0
  -19.0430  -29.7150   23.7810 C   0  0  0  0  0  3  0  0  0  0  0  0
  -17.7450  -30.1920   24.0430 C   0  0  0  0  0  3  0  0  0  0  0  0
  -16.6270  -29.4680   23.5940 C   0  0  0  0  0  3  0  0  0  0  0  0
  -16.8090  -28.2720   22.8770 C   0  0  0  0  0  3  0  0  0  0  0  0
  -25.7470  -32.3740   23.7790 C   0  0  0  0  0  3  0  0  0  0  0  0
  -26.2300  -31.5950   25.0640 C   0  0  1  0  0  0  0  0  0  0  0  0
  -25.1000  -31.3080   26.0810 C   0  0  0  0  0  1  0  0  0  0  0  0
  -26.8680  -30.2400   24.6760 C   0  0  0  0  0  1  0  0  0  0  0  0
  -27.3290  -32.4090   25.7890 C   0  0  0  0  0  1  0  0  0  0  0  0
  -25.3810  -33.7570   24.1210 N   0  0  0  0  0  0  0  0  0  0  0  0
  -25.6920  -34.8320   23.3850 C   0  0  0  0  0  0  0  0  0  0  0  0
  -26.3860  -34.7670   22.3660 O   0  0  0  0  0  0  0  0  0  0  0  0
  -24.7660  -33.8800   24.9120 H   0  0  0  0  0  0  0  0  0  0  0  0
  -23.9000  -36.5620   23.0280 C   0  0  0  0  0  1  0  0  0  0  0  0
  -25.1470  -36.1950   23.8490 C   0  0  0  0  0  3  0  0  0  0  0  0
  -27.2260  -37.1630   24.7260 C   0  0  0  0  0  1  0  0  0  0  0  0
  -26.1390  -37.2890   23.7600 N   0  0  0  0  0  0  0  0  0  0  0  0
  -25.6930  -38.1910   23.9000 H   0  0  0  0  0  0  0  0  0  0  0  0
  1  2  2  0
  2  7  1  0
  3  5  1  0
  4  6  1  0
  4  3  1  0
  5  1  1  0
  6 13  1  0
  8  4  1  0
  9  8  1  0
  9 12  1  0
 10 11  1  0
 11  3  1  0
 11 14  1  0
 12 10  1  0
 12  6  1  0
 13 23  1  0
 13  7  1  0
 15 23  1  0
 16 21  1  0
 17 18  1  0
 17 16  1  0
 18 19  1  0
 19 28  1  0
 19 20  1  0
 21 15  1  0
 21 20  1  0
 22 15  2  0
 23 24  1  0
 25 26  2  0
 26 45  1  0
 27 26  1  0
 27 30  1  0
 28 29  1  0
 28 25  1  0
 29 27  2  0
 30 31  1  0
 31 32  2  0
 33 36  1  0
 33 32  1  0
 34 33  2  0
 35 34  1  0
 35 30  2  0
 36 37  1  0
 37 38  1  0
 38 39  2  0
 40 39  1  0
 40 44  1  0
 41 40  2  0
 42 37  2  0
 42 41  1  0
 43 42  1  0
 45 46  1  0
 46 49  1  0
 46 48  1  0
 47 45  2  0
 50 51  1  0
 50 25  1  0
 52 50  1  0
 53  5  1  0
 53 54  1  0
 55 56  1  0
 55 54  1  0
 57 68  2  0
 57 83  1  0
 58 56  1  0
 58 63  1  0
 59 67  1  0
 59 69  1  0
 60 66  1  0
 60 62  1  0
 61 67  1  0
 62 61  1  0
 63 62  2  0
 64 65  1  0
 64 58  2  0
 65 60  2  0
 66 59  1  0
 67 57  1  0
 69 71  2  0
 70 69  1  0
 70 74  1  0
 72 70  1  0
 73 82  2  0
 73 78  1  0
 74 78  1  0
 75 74  1  0
 76 77  1  0
 76 75  1  0
 77 73  1  0
 78 79  2  0
 79 80  1  0
 81 80  2  0
 82 81  1  0
 83 88  1  0
 83 84  1  0
 84 87  1  1
 84 85  1  0
 86 84  1  0
 88 91  1  0
 89 93  1  0
 89 88  1  0
 90 89  2  0
 92 93  1  0
 95 93  1  0
 95 96  1  0
 95 94  1  0
M  ISO  4  15 100  23 100  55 101  56 101
M  END
>  <TORSDO>  (21) 
F 19

>  <SCORE>  (21) 
-13.462

>  <name>  (21) 
20

>  <ligand_id>  (21) 
20

>  <original_smiles>  (21) 
[H]C1=C([H])C([H])([H])C([H])(N([H])C(=O)N2C([H])([H])C([H])([H])C([H])([H])C([H])(n3nc(-c4c([H])c([H])c(Oc5c([H])c([H])c(F)c([H])c5F)c([H])c4[H])c(C(=O)N([H])[H])c3N([H])[H])C2([H])[H])C2=C3C(=C1OC([H])([H])C([H])([H])Oc1c([H])c([H])c4c(c1[H])C([H])([H])N(C(=O)C([H])(N([H])C(=O)C([H])(N([H])C([H])([H])[H])C([H])([H])[H])C(C([H])([H])[H])(C([H])([H])[H])C([H])([H])[H])C([H])(C(=O)N([H])C1([H])c5c([H])c([H])c([H])c([H])c5C([H])([H])C([H])([H])C1([H])[H])C4([H])[H])C([H])(C([H])([H])[H])C([H])([H])C2([H])C([H])([H])C3([H])[H]

>  <smiles>  (21) 
[H]C1=C([H])C([H])([H])C([H])(N([H])C(=O)N2C([H])([H])C([H])([H])C([H])([H])C([H])(n3nc(-c4c([H])c([H])c(Oc5c([H])c([H])c(F)c([H])c5F)c([H])c4[H])c(C(=O)N([H])[H])c3N([H])[H])C2([H])[H])C2=C3C(=C1OC([H])([H])C([H])([H])Oc1c([H])c([H])c4c(c1[H])C([H])([H])N(C(=O)C([H])(N([H])C(=O)C([H])(N([H])C([H])([H])[H])C([H])([H])[H])C(C([H])([H])[H])(C([H])([H])[H])C([H])([H])[H])C([H])(C(=O)N([H])C1([H])c5c([H])c([H])c([H])c([H])c5C([H])([H])C([H])([H])C1([H])[H])C4([H])[H])C([H])(C([H])([H])[H])C([H])([H])C2([H])C([H])([H])C3([H])[H]

$$$$
21:0:0
     RDKit          3D

 92 94  0  0  1  0  0  0  0  0999 V2000
  -30.6780  -16.2650   20.7040 C   0  0  0  0  0  1  0  0  0  0  0  0
  -32.4200  -18.1090   18.7470 C   0  0  0  0  0  1  0  0  0  0  0  0
  -32.5780  -16.7130   19.9960 C   0  0  0  0  0  2  0  0  0  0  0  0
  -29.4640  -17.4950   19.8430 C   0  0  0  0  0  2  0  0  0  0  0  0
  -33.8940  -16.0830   20.3780 C   0  0  0  0  0  1  0  0  0  0  0  0
  -30.5360  -18.7740   18.5690 N   0  0  0  0  0 15  0  0  0  0  0  0
  -30.9270  -16.3780   18.4210 C   0  0  0  0  0  2  0  0  0  0  0  0
  -31.0680  -13.5100   17.8370 C   0  0  0  0  0  2  0  0  0  0  0  0
  -30.0020  -12.7190   16.9650 C   0  0  0  0  0  2  0  0  0  0  0  0
  -28.7780  -12.2800   17.7720 C   0  0  0  0  0  2  0  0  0  0  0  0
  -28.4130  -13.4170   18.7320 C   0  0  0  0  0  3  0  0  0  0  0  0
  -29.6240  -14.0200   19.5160 C   0  0  0  0  0  2  0  0  0  0  0  0
  -30.5850  -14.8170   18.6200 N   0  0  0  0  0  0  0  0  0  0  0  0
  -31.7360  -16.0660   17.4710 O   0  0  0  0  0  1  0  0  0  0  0  0
  -29.5650  -18.1460   22.2950 C   0  0  0  0  0  2  0  0  0  0  0  0
  -29.0790  -19.8170   20.7060 C   0  0  0  0  0  2  0  0  0  0  0  0
  -31.1000  -18.4870   22.0180 C   0  0  0  0  0  2  0  0  0  0  0  0
  -30.6590  -19.9910   20.5930 C   0  0  0  0  0  2  0  0  0  0  0  0
  -28.7590  -18.3110   20.9460 C   0  0  0  0  0  3  0  0  0  0  0  0
  -31.2500  -18.5520   20.4410 N   0  0  0  0  0  2  0  0  0  0  0  0
  -26.5430  -14.0380   20.3280 C   0  0  0  0  0  0  0  0  0  0  0  0
  -25.4950  -13.3590   20.8750 C   0  0  0  0  0  0  0  0  0  0  0  0
  -25.6330  -12.0030   20.4440 C   0  0  0  0  0  0  0  0  0  0  0  0
  -27.2600  -13.1200   19.5850 N   0  0  0  0  0  0  0  0  0  0  0  0
  -26.7410  -11.8660   19.7070 N   0  0  0  0  0  0  0  0  0  0  0  0
  -24.7310  -10.8550   20.6410 C   0  0  0  0  0  0  0  0  0  0  0  0
  -25.1240   -9.7150   21.3760 C   0  0  0  0  0  3  0  0  0  0  0  0
  -24.2260   -8.6410   21.5730 C   0  0  0  0  0  3  0  0  0  0  0  0
  -22.9150   -8.7030   21.0400 C   0  0  0  0  0  0  0  0  0  0  0  0
  -22.5330   -9.8330   20.2960 C   0  0  0  0  0  3  0  0  0  0  0  0
  -23.4310  -10.8960   20.0970 C   0  0  0  0  0  3  0  0  0  0  0  0
  -21.9870   -7.6970   21.1560 O   0  0  0  0  0  0  0  0  0  0  0  0
  -21.8790   -6.9430   22.2960 C   0  0  0  0  0  0  0  0  0  0  0  0
  -21.5500   -7.5220   23.5420 C   0  0  0  0  0  3  0  0  0  0  0  0
  -21.3800   -6.7030   24.6760 C   0  0  0  0  0  3  0  0  0  0  0  0
  -21.5310   -5.3070   24.5670 C   0  0  0  0  0  0  0  0  0  0  0  0
  -21.8510   -4.7280   23.3270 C   0  0  0  0  0  3  0  0  0  0  0  0
  -22.0220   -5.5440   22.1940 C   0  0  0  0  0  0  0  0  0  0  0  0
  -22.3120   -4.9820   20.9970 F   0  0  0  0  0  0  0  0  0  0  0  0
  -21.3600   -4.5180   25.6530 F   0  0  0  0  0  0  0  0  0  0  0  0
  -24.3770  -13.9620   21.6710 C   0  0  0  0  0  0  0  0  0  0  0  0
  -23.8190  -13.2120   22.6140 N   0  0  0  0  0  0  0  0  0  0  0  0
  -24.0290  -15.1310   21.4990 O   0  0  0  0  0  0  0  0  0  0  0  0
  -24.1290  -12.2670   22.7780 H   0  0  0  0  0  0  0  0  0  0  0  0
  -23.0740  -13.5900   23.1790 H   0  0  0  0  0  0  0  0  0  0  0  0
  -26.9300  -15.3720   20.3660 N   0  0  0  0  0  0  0  0  0  0  0  0
  -26.3900  -16.0640   20.8720 H   0  0  0  0  0  0  0  0  0  0  0  0
  -27.7640  -15.7500   19.9310 H   0  0  0  0  0  0  0  0  0  0  0  0
  -31.5540  -21.1290   17.4600 C   0  0  0  0  0  1  0  0  0  0  0  0
  -30.1810  -20.7450   18.0260 C   0  0  0  0  0  1  0  0  0  0  0  0
  -29.4420  -22.8190   18.4850 C   0  0  0  0  0 15  0  0  0  0  0  0
  -28.7350  -24.6560   18.0210 O   0  0  0  0  0  1  0  0  0  0  0  0
  -25.0070  -30.7540   22.1500 C   0  0  0  0  0  0  0  0  0  0  0  0
  -27.6600  -25.9270   18.3440 C   0  0  0  0  0  0  0  0  0  0  0  0
  -23.7840  -29.3990   20.5090 C   0  0  0  0  0  3  0  0  0  0  0  0
  -25.2150  -27.9860   18.7810 C   0  0  0  0  0  0  0  0  0  0  0  0
  -26.3370  -29.7040   20.1460 C   0  0  0  0  0  2  0  0  0  0  0  0
  -26.4600  -28.3140   19.3260 C   0  0  0  0  0  0  0  0  0  0  0  0
  -27.6330  -27.3380   19.0640 C   0  0  0  0  0  3  0  0  0  0  0  0
  -26.3310  -25.9240   17.7820 C   0  0  0  0  0  3  0  0  0  0  0  0
  -25.2110  -26.8280   17.9770 C   0  0  0  0  0  3  0  0  0  0  0  0
  -23.9490  -28.8470   19.0580 C   0  0  0  0  0  2  0  0  0  0  0  0
  -25.0730  -29.9970   20.9860 N   0  0  0  0  0  0  0  0  0  0  0  0
  -23.9480  -30.8940   22.7920 O   0  0  0  0  0  0  0  0  0  0  0  0
  -23.2520  -28.2850   21.4560 C   0  0  0  0  0  0  0  0  0  0  0  0
  -21.9560  -27.9250   21.3740 N   0  0  0  0  0  0  0  0  0  0  0  0
  -24.0270  -27.7410   22.2440 O   0  0  0  0  0  0  0  0  0  0  0  0
  -21.3590  -28.4170   20.7260 H   0  0  0  0  0  0  0  0  0  0  0  0
  -18.8650  -26.0680   21.9200 C   0  0  0  0  0  0  0  0  0  0  0  0
  -21.3380  -26.8140   22.1170 C   0  0  0  0  0  3  0  0  0  0  0  0
  -21.6820  -25.4530   21.4640 C   0  0  0  0  0  2  0  0  0  0  0  0
  -20.6250  -24.9780   20.4650 C   0  0  0  0  0  2  0  0  0  0  0  0
  -19.2680  -24.8200   21.1530 C   0  0  0  0  0  2  0  0  0  0  0  0
  -19.8330  -27.0140   22.3560 C   0  0  0  0  0  0  0  0  0  0  0  0
  -19.3960  -28.1680   23.0430 C   0  0  0  0  0  3  0  0  0  0  0  0
  -18.0270  -28.3860   23.2910 C   0  0  0  0  0  3  0  0  0  0  0  0
  -17.0750  -27.4440   22.8590 C   0  0  0  0  0  3  0  0  0  0  0  0
  -17.4950  -26.2850   22.1820 C   0  0  0  0  0  3  0  0  0  0  0  0
  -26.2510  -31.4890   22.7360 C   0  0  0  0  0  3  0  0  0  0  0  0
  -25.7870  -32.6870   23.4760 N   0  0  0  0  0  0  0  0  0  0  0  0
  -25.9320  -33.9590   23.0750 C   0  0  0  0  0  0  0  0  0  0  0  0
  -26.5060  -34.2590   22.0250 O   0  0  0  0  0  0  0  0  0  0  0  0
  -25.2510  -32.5150   24.3140 H   0  0  0  0  0  0  0  0  0  0  0  0
  -24.0190  -35.5800   23.3850 C   0  0  0  0  0  1  0  0  0  0  0  0
  -25.3490  -35.0770   23.9690 C   0  0  0  0  0  3  0  0  0  0  0  0
  -27.4340  -35.9130   24.9710 C   0  0  0  0  0  1  0  0  0  0  0  0
  -26.2650  -36.2270   24.1550 N   0  0  0  0  0  0  0  0  0  0  0  0
  -25.7770  -37.0070   24.5870 H   0  0  0  0  0  0  0  0  0  0  0  0
  -27.1010  -30.5810   23.7100 C   0  0  1  0  0  0  0  0  0  0  0  0
  -26.2670  -29.9220   24.8360 C   0  0  0  0  0  1  0  0  0  0  0  0
  -27.8060  -29.4460   22.9370 C   0  0  0  0  0  1  0  0  0  0  0  0
  -28.2220  -31.4190   24.3670 C   0  0  0  0  0  1  0  0  0  0  0  0
  2  3  1  0
  3  5  1  0
  4  1  1  0
  4 19  1  0
  7 13  1  0
  8 13  1  0
  9 10  1  0
  9  8  1  0
 11 10  1  0
 11 12  1  0
 11 24  1  0
 13 12  1  0
 14  7  1  0
 16 19  1  0
 17 15  1  0
 18 16  1  0
 19 15  1  0
 20 18  1  0
 20 17  1  0
 21 46  1  0
 21 22  2  0
 22 41  1  0
 23 26  1  0
 23 22  1  0
 24 25  1  0
 24 21  1  0
 25 23  2  0
 26 27  1  0
 27 28  2  0
 29 32  1  0
 29 28  1  0
 30 29  2  0
 31 30  1  0
 31 26  2  0
 32 33  1  0
 33 34  1  0
 34 35  2  0
 36 35  1  0
 36 40  1  0
 37 36  2  0
 38 33  2  0
 38 37  1  0
 39 38  1  0
 41 42  1  0
 42 44  1  0
 42 45  1  0
 43 41  2  0
 46 47  1  0
 48 46  1  0
 49 50  1  0
 52 54  1  0
 53 64  2  0
 54 59  1  0
 55 63  1  0
 55 65  1  0
 56 62  1  0
 56 58  1  0
 57 63  1  0
 58 57  1  0
 59 58  2  0
 60 61  1  0
 60 54  2  0
 61 56  2  0
 62 55  1  0
 63 53  1  0
 65 67  2  0
 66 65  1  0
 68 66  1  0
 69 78  2  0
 69 74  1  0
 70 66  1  0
 70 74  1  0
 71 70  1  0
 72 73  1  0
 72 71  1  0
 73 69  1  0
 74 75  2  0
 75 76  1  0
 77 76  2  0
 78 77  1  0
 79 53  1  0
 79 80  1  0
 79 89  1  0
 80 83  1  0
 81 80  1  0
 81 85  1  0
 82 81  2  0
 85 84  1  0
 85 87  1  0
 87 88  1  0
 87 86  1  0
 89 92  1  1
 89 90  1  0
 91 89  1  0
M  ISO  4   7 100  20 100  51 101  52 101
M  END
>  <TORSDO>  (22) 
F 18

>  <SCORE>  (22) 
-5.902

>  <name>  (22) 
21

>  <ligand_id>  (22) 
21

>  <original_smiles>  (22) 
[H]c1c([H])c([H])c2c(c1[H])C([H])([H])C([H])([H])C([H])([H])C2([H])N([H])C(=O)C1([H])N(C(=O)C([H])(N([H])C(=O)C([H])(N([H])C([H])([H])[H])C([H])([H])[H])C(C([H])([H])[H])(C([H])([H])[H])C([H])([H])[H])C([H])([H])c2c([H])c(OC([H])([H])C([H])(n3c([H])c(C([H])([H])[H])c([H])c3C3([H])C([H])([H])C([H])([H])N(C(=O)N4C([H])([H])C([H])([H])C([H])([H])C([H])(n5nc(-c6c([H])c([H])c(Oc7c([H])c([H])c(F)c([H])c7F)c([H])c6[H])c(C(=O)N([H])[H])c5N([H])[H])C4([H])[H])C([H])([H])C3([H])[H])C([H])([H])[H])c([H])c([H])c2C1([H])[H]

>  <smiles>  (22) 
[H]c1c([H])c([H])c2c(c1[H])C([H])([H])C([H])([H])C([H])([H])C2([H])N([H])C(=O)C1([H])N(C(=O)C([H])(N([H])C(=O)C([H])(N([H])C([H])([H])[H])C([H])([H])[H])C(C([H])([H])[H])(C([H])([H])[H])C([H])([H])[H])C([H])([H])c2c([H])c(OC([H])([H])C([H])(n3c([H])c(C([H])([H])[H])c([H])c3C3([H])C([H])([H])C([H])([H])N(C(=O)N4C([H])([H])C([H])([H])C([H])([H])C([H])(n5nc(-c6c([H])c([H])c(Oc7c([H])c([H])c(F)c([H])c7F)c([H])c6[H])c(C(=O)N([H])[H])c5N([H])[H])C4([H])[H])C([H])([H])C3([H])[H])C([H])([H])[H])c([H])c([H])c2C1([H])[H]

$$$$
22:0:0
     RDKit          3D

 95105  0  0  1  0  0  0  0  0999 V2000
  -27.1770  -20.8340   19.4050 C   0  0  0  0  0  3  0  0  0  0  0  0
  -27.9910  -21.9670   19.4990 C   0  0  0  0  0  3  0  0  0  0  0  0
  -29.7780  -20.5680   20.3460 C   0  0  0  0  0  3  0  0  0  0  0  0
  -27.6010  -19.5560   19.8240 C   0  0  0  0  0  0  0  0  0  0  0  0
  -28.9560  -19.3920   20.2630 C   0  0  0  0  0  0  0  0  0  0  0  0
  -29.2900  -21.8780   20.0140 C   0  0  0  0  0  0  0  0  0  0  0  0
  -30.2890  -17.9090   22.0270 C   0  0  0  0  0  2  0  0  0  0  0  0
  -31.5090  -17.5820   21.1570 C   0  0  0  0  0  2  0  0  0  0  0  0
  -29.4570  -17.9830   20.7380 C   0  0  0  0  0  3  0  0  0  0  0  0
  -30.5390  -17.0490   20.0900 C   0  0  0  0  0  3  0  0  0  0  0  0
  -30.9640  -14.5160   19.9290 C   0  0  0  0  0  0  0  0  0  0  0  0
  -30.6280  -12.2440   19.0120 C   0  0  0  0  0  2  0  0  0  0  0  0
  -29.6390  -12.3270   17.8280 C   0  0  0  0  0  2  0  0  0  0  0  0
  -28.1830  -12.2280   18.3270 C   0  0  0  0  0  2  0  0  0  0  0  0
  -27.8930  -13.1710   19.5290 C   0  0  0  0  0  3  0  0  0  0  0  0
  -28.9950  -13.0780   20.6050 C   0  0  0  0  0  2  0  0  0  0  0  0
  -30.2920  -13.3260   19.9530 N   0  0  0  0  0  0  0  0  0  0  0  0
  -32.0860  -14.6310   19.4310 O   0  0  0  0  0  0  0  0  0  0  0  0
  -30.2470  -15.6000   20.3110 N   0  0  0  0  0  0  0  0  0  0  0  0
  -29.3400  -15.3940   20.6990 H   0  0  0  0  0  0  0  0  0  0  0  0
  -25.5790  -13.8540   20.4160 C   0  0  0  0  0  0  0  0  0  0  0  0
  -24.4920  -13.1270   20.8120 C   0  0  0  0  0  0  0  0  0  0  0  0
  -24.8790  -11.7570   20.7040 C   0  0  0  0  0  0  0  0  0  0  0  0
  -26.5620  -12.9340   20.0820 N   0  0  0  0  0  0  0  0  0  0  0  0
  -26.1450  -11.6640   20.3180 N   0  0  0  0  0  0  0  0  0  0  0  0
  -24.1000  -10.5310   20.8900 C   0  0  0  0  0  0  0  0  0  0  0  0
  -24.4840   -9.5540   21.8350 C   0  0  0  0  0  3  0  0  0  0  0  0
  -23.7110   -8.3880   22.0140 C   0  0  0  0  0  3  0  0  0  0  0  0
  -22.5360   -8.1930   21.2500 C   0  0  0  0  0  0  0  0  0  0  0  0
  -22.1680   -9.1560   20.2940 C   0  0  0  0  0  3  0  0  0  0  0  0
  -22.9430  -10.3130   20.1110 C   0  0  0  0  0  3  0  0  0  0  0  0
  -21.7350   -7.0800   21.3430 O   0  0  0  0  0  0  0  0  0  0  0  0
  -21.5780   -6.4000   22.5260 C   0  0  0  0  0  0  0  0  0  0  0  0
  -21.0790   -7.0290   23.6860 C   0  0  0  0  0  3  0  0  0  0  0  0
  -20.8600   -6.2780   24.8580 C   0  0  0  0  0  3  0  0  0  0  0  0
  -21.1340   -4.8960   24.8710 C   0  0  0  0  0  0  0  0  0  0  0  0
  -21.6300   -4.2660   23.7150 C   0  0  0  0  0  3  0  0  0  0  0  0
  -21.8450   -5.0160   22.5450 C   0  0  0  0  0  0  0  0  0  0  0  0
  -22.3000   -4.3980   21.4280 F   0  0  0  0  0  0  0  0  0  0  0  0
  -20.9180   -4.1730   25.9930 F   0  0  0  0  0  0  0  0  0  0  0  0
  -23.1410  -13.6670   21.1840 C   0  0  0  0  0  0  0  0  0  0  0  0
  -22.4350  -12.9870   22.0820 N   0  0  0  0  0  0  0  0  0  0  0  0
  -22.7220  -14.7230   20.7110 O   0  0  0  0  0  0  0  0  0  0  0  0
  -22.7890  -12.1310   22.4850 H   0  0  0  0  0  0  0  0  0  0  0  0
  -21.5340  -13.3320   22.3810 H   0  0  0  0  0  0  0  0  0  0  0  0
  -25.8110  -15.2190   20.3030 N   0  0  0  0  0  0  0  0  0  0  0  0
  -25.0900  -15.8990   20.5180 H   0  0  0  0  0  0  0  0  0  0  0  0
  -26.6720  -15.6380   19.9870 H   0  0  0  0  0  0  0  0  0  0  0  0
  -26.0620  -17.8850   18.4880 C   0  0  0  0  0  2  0  0  0  0  0  0
  -25.1210  -18.6030   19.4250 C   0  0  0  0  0  2  0  0  0  0  0  0
  -26.5810  -18.4320   19.7990 C   0  0  0  0  0  3  0  0  0  0  0  0
  -30.0800  -23.0260   20.1030 O   0  0  0  0  0  0  0  0  0  0  0  0
  -29.5470  -24.2920   20.6090 C   0  0  0  0  0  2  0  0  0  0  0  0
  -28.5920  -25.1890   19.7360 C   0  0  0  0  0  2  0  0  0  0  0  0
  -28.5980  -26.6260   20.0310 O   0  0  0  0  0  0  0  0  0  0  0  0
  -24.5800  -31.6710   23.1350 C   0  0  0  0  0  0  0  0  0  0  0  0
  -27.4140  -27.3660   19.9650 C   0  0  0  0  0  0  0  0  0  0  0  0
  -23.4430  -30.2930   21.4230 C   0  0  0  0  0  3  0  0  0  0  0  0
  -24.9730  -28.8480   19.9700 C   0  0  0  0  0  0  0  0  0  0  0  0
  -25.9690  -30.7190   21.2890 C   0  0  0  0  0  2  0  0  0  0  0  0
  -26.1070  -29.3700   20.6030 C   0  0  0  0  0  0  0  0  0  0  0  0
  -27.3260  -28.6400   20.5960 C   0  0  0  0  0  3  0  0  0  0  0  0
  -26.2620  -26.8920   19.2930 C   0  0  0  0  0  3  0  0  0  0  0  0
  -25.0520  -27.6120   19.3090 C   0  0  0  0  0  3  0  0  0  0  0  0
  -23.7010  -29.6680   20.0250 C   0  0  0  0  0  2  0  0  0  0  0  0
  -24.6800  -30.9110   22.0050 N   0  0  0  0  0  0  0  0  0  0  0  0
  -23.4820  -31.8940   23.6630 O   0  0  0  0  0  0  0  0  0  0  0  0
  -22.8030  -29.2240   22.3390 C   0  0  0  0  0  0  0  0  0  0  0  0
  -21.4810  -29.0270   22.2060 N   0  0  0  0  0  0  0  0  0  0  0  0
  -23.4940  -28.5740   23.1270 O   0  0  0  0  0  0  0  0  0  0  0  0
  -20.9860  -29.6050   21.5420 H   0  0  0  0  0  0  0  0  0  0  0  0
  -18.1220  -27.7660   22.6550 C   0  0  0  0  0  0  0  0  0  0  0  0
  -20.6780  -28.0400   22.9310 C   0  0  0  0  0  3  0  0  0  0  0  0
  -20.7950  -26.6410   22.2820 C   0  0  0  0  0  2  0  0  0  0  0  0
  -19.6930  -26.3580   21.2590 C   0  0  0  0  0  2  0  0  0  0  0  0
  -18.3120  -26.4530   21.9140 C   0  0  0  0  0  2  0  0  0  0  0  0
  -19.2330  -28.5200   23.1180 C   0  0  0  0  0  0  0  0  0  0  0  0
  -19.0010  -29.7500   23.7720 C   0  0  0  0  0  3  0  0  0  0  0  0
  -17.6910  -30.2260   23.9700 C   0  0  0  0  0  3  0  0  0  0  0  0
  -16.5940  -29.4690   23.5220 C   0  0  0  0  0  3  0  0  0  0  0  0
  -16.8100  -28.2420   22.8700 C   0  0  0  0  0  3  0  0  0  0  0  0
  -25.8350  -32.3170   23.8000 C   0  0  0  0  0  3  0  0  0  0  0  0
  -25.4840  -33.6990   24.1600 N   0  0  0  0  0  0  0  0  0  0  0  0
  -25.7920  -34.7790   23.4300 C   0  0  0  0  0  0  0  0  0  0  0  0
  -26.4780  -34.7210   22.4040 O   0  0  0  0  0  0  0  0  0  0  0  0
  -24.8690  -33.8160   24.9530 H   0  0  0  0  0  0  0  0  0  0  0  0
  -24.0110  -36.5260   23.1110 C   0  0  0  0  0  1  0  0  0  0  0  0
  -25.2630  -36.1420   23.9170 C   0  0  0  0  0  3  0  0  0  0  0  0
  -27.3650  -37.0780   24.7710 C   0  0  0  0  0  1  0  0  0  0  0  0
  -26.2620  -37.2290   23.8250 N   0  0  0  0  0  0  0  0  0  0  0  0
  -25.8260  -38.1320   23.9870 H   0  0  0  0  0  0  0  0  0  0  0  0
  -26.3470  -31.5260   25.0650 C   0  0  1  0  0  0  0  0  0  0  0  0
  -25.2440  -31.2370   26.1090 C   0  0  0  0  0  1  0  0  0  0  0  0
  -26.9700  -30.1740   24.6480 C   0  0  0  0  0  1  0  0  0  0  0  0
  -27.4640  -32.3310   25.7680 C   0  0  0  0  0  1  0  0  0  0  0  0
  1  2  2  0
  1  4  1  0
  2  6  1  0
  4  5  2  0
  5  3  1  0
  6 52  1  0
  6  3  2  0
  8  7  1  0
  9  5  1  0
  9  7  1  0
 10 19  1  0
 10  9  1  0
 10  8  1  0
 11 17  1  0
 11 19  1  0
 12 17  1  0
 13 14  1  0
 13 12  1  0
 15 14  1  0
 15 24  1  0
 15 16  1  0
 17 16  1  0
 18 11  2  0
 19 20  1  0
 21 22  2  0
 22 41  1  0
 23 22  1  0
 23 26  1  0
 24 25  1  0
 24 21  1  0
 25 23  2  0
 26 27  1  0
 27 28  2  0
 29 32  1  0
 29 28  1  0
 30 29  2  0
 31 30  1  0
 31 26  2  0
 32 33  1  0
 33 38  2  0
 33 34  1  0
 34 35  2  0
 35 36  1  0
 36 40  1  0
 37 36  2  0
 38 37  1  0
 39 38  1  0
 41 42  1  0
 42 45  1  0
 42 44  1  0
 43 41  2  0
 46 21  1  0
 46 47  1  0
 48 46  1  0
 49 50  1  0
 49 51  1  0
 50 51  1  0
 51  4  1  0
 52 53  1  0
 54 55  1  0
 54 53  1  0
 56 67  2  0
 57 55  1  0
 57 62  1  0
 58 66  1  0
 58 68  1  0
 59 65  1  0
 59 61  1  0
 60 66  1  0
 61 60  1  0
 62 61  2  0
 63 64  1  0
 63 57  2  0
 64 59  2  0
 65 58  1  0
 66 56  1  0
 68 70  2  0
 69 68  1  0
 71 69  1  0
 72 81  2  0
 72 77  1  0
 73 69  1  0
 73 77  1  0
 74 73  1  0
 75 76  1  0
 75 74  1  0
 76 72  1  0
 77 78  2  0
 78 79  1  0
 80 79  2  0
 81 80  1  0
 82 56  1  0
 82 83  1  0
 82 92  1  0
 83 86  1  0
 84 88  1  0
 84 83  1  0
 85 84  2  0
 88 87  1  0
 90 88  1  0
 90 91  1  0
 90 89  1  0
 92 95  1  1
 92 93  1  0
 94 92  1  0
M  ISO  4  11 100  19 100  54 101  55 101
M  END
>  <TORSDO>  (23) 
F 21

>  <SCORE>  (23) 
-10.976

>  <name>  (23) 
22

>  <ligand_id>  (23) 
22

>  <original_smiles>  (23) 
[H]c1c([H])c([H])c2c(c1[H])C([H])([H])C([H])([H])C([H])([H])C2([H])N([H])C(=O)C1([H])N(C(=O)C([H])(N([H])C(=O)C([H])(N([H])C([H])([H])[H])C([H])([H])[H])C(C([H])([H])[H])(C([H])([H])[H])C([H])([H])[H])C([H])([H])c2c([H])c(OC([H])([H])C([H])([H])Oc3c([H])c([H])c(C4([H])C([H])([H])C4([H])[H])c(C4([H])C([H])([H])C([H])([H])C4([H])N([H])C(=O)N4C([H])([H])C([H])([H])C([H])([H])C([H])(n5nc(-c6c([H])c([H])c(Oc7c([H])c([H])c(F)c([H])c7F)c([H])c6[H])c(C(=O)N([H])[H])c5N([H])[H])C4([H])[H])c3[H])c([H])c([H])c2C1([H])[H]

>  <smiles>  (23) 
[H]c1c([H])c([H])c2c(c1[H])C([H])([H])C([H])([H])C([H])([H])C2([H])N([H])C(=O)C1([H])N(C(=O)C([H])(N([H])C(=O)C([H])(N([H])C([H])([H])[H])C([H])([H])[H])C(C([H])([H])[H])(C([H])([H])[H])C([H])([H])[H])C([H])([H])c2c([H])c(OC([H])([H])C([H])([H])Oc3c([H])c([H])c(C4([H])C([H])([H])C4([H])[H])c(C4([H])C([H])([H])C([H])([H])C4([H])N([H])C(=O)N4C([H])([H])C([H])([H])C([H])([H])C([H])(n5nc(-c6c([H])c([H])c(Oc7c([H])c([H])c(F)c([H])c7F)c([H])c6[H])c(C(=O)N([H])[H])c5N([H])[H])C4([H])[H])c3[H])c([H])c([H])c2C1([H])[H]

$$$$
23:0:0
     RDKit          3D

 93102  0  0  1  0  0  0  0  0999 V2000
  -28.6440  -22.1540   20.5820 C   0  0  0  0  0  3  0  0  0  0  0  0
  -27.2650  -21.9090   19.9600 C   0  0  0  0  0  0  0  0  0  0  0  0
  -27.2350  -21.3920   18.8220 O   0  0  0  0  0  0  0  0  0  0  0  0
  -26.2420  -22.2180   20.6020 O   0  0  0  0  0  1  0  0  0  0  0  0
  -29.1640  -24.6200   21.5240 C   0  0  0  0  0  2  0  0  0  0  0  0
  -29.0200  -23.7260   20.3110 C   0  0  0  0  0  3  0  0  0  0  0  0
  -28.1020  -25.0620   20.5550 C   0  0  0  0  0  3  0  0  0  0  0  0
  -28.3880  -26.5360   20.3090 O   0  0  0  0  0  0  0  0  0  0  0  0
  -24.6170  -31.9760   23.3710 C   0  0  0  0  0  0  0  0  0  0  0  0
  -27.3010  -27.4480   20.2690 C   0  0  0  0  0  0  0  0  0  0  0  0
  -23.4550  -30.6140   21.6730 C   0  0  0  0  0  3  0  0  0  0  0  0
  -24.9430  -29.1010   20.2340 C   0  0  0  0  0  0  0  0  0  0  0  0
  -26.0000  -30.9350   21.5490 C   0  0  0  0  0  2  0  0  0  0  0  0
  -26.1020  -29.5680   20.8670 C   0  0  0  0  0  0  0  0  0  0  0  0
  -27.2870  -28.7570   20.8670 C   0  0  0  0  0  3  0  0  0  0  0  0
  -26.1200  -27.0550   19.6030 C   0  0  0  0  0  3  0  0  0  0  0  0
  -24.9590  -27.8550   19.5870 C   0  0  0  0  0  3  0  0  0  0  0  0
  -23.7020  -29.9740   20.2810 C   0  0  0  0  0  2  0  0  0  0  0  0
  -24.7090  -31.1930   22.2540 N   0  0  0  0  0  0  0  0  0  0  0  0
  -23.5210  -32.2340   23.8900 O   0  0  0  0  0  0  0  0  0  0  0  0
  -22.7750  -29.5720   22.5940 C   0  0  0  0  0  0  0  0  0  0  0  0
  -21.4560  -29.3770   22.4270 N   0  0  0  0  0  0  0  0  0  0  0  0
  -23.4390  -28.9400   23.4210 O   0  0  0  0  0  0  0  0  0  0  0  0
  -20.9770  -29.9380   21.7360 H   0  0  0  0  0  0  0  0  0  0  0  0
  -18.0770  -28.1490   22.8450 C   0  0  0  0  0  0  0  0  0  0  0  0
  -20.6310  -28.4130   23.1590 C   0  0  0  0  0  3  0  0  0  0  0  0
  -20.7480  -27.0010   22.5400 C   0  0  0  0  0  2  0  0  0  0  0  0
  -19.6620  -26.7050   21.5010 C   0  0  0  0  0  2  0  0  0  0  0  0
  -18.2700  -26.8240   22.1290 C   0  0  0  0  0  2  0  0  0  0  0  0
  -19.1860  -28.9030   23.3150 C   0  0  0  0  0  0  0  0  0  0  0  0
  -18.9510  -30.1460   23.9440 C   0  0  0  0  0  3  0  0  0  0  0  0
  -17.6410  -30.6350   24.1080 C   0  0  0  0  0  3  0  0  0  0  0  0
  -16.5470  -29.8780   23.6540 C   0  0  0  0  0  3  0  0  0  0  0  0
  -16.7660  -28.6370   23.0300 C   0  0  0  0  0  3  0  0  0  0  0  0
  -25.8800  -32.6030   24.0340 C   0  0  0  0  0  3  0  0  0  0  0  0
  -26.3560  -31.8240   25.3210 C   0  0  1  0  0  0  0  0  0  0  0  0
  -25.2280  -31.5700   26.3470 C   0  0  0  0  0  1  0  0  0  0  0  0
  -26.9630  -30.4540   24.9390 C   0  0  0  0  0  1  0  0  0  0  0  0
  -27.4750  -32.6220   26.0320 C   0  0  0  0  0  1  0  0  0  0  0  0
  -25.5630  -34.0000   24.3660 N   0  0  0  0  0  0  0  0  0  0  0  0
  -25.8890  -35.0570   23.6090 C   0  0  0  0  0  0  0  0  0  0  0  0
  -26.5540  -34.9590   22.5740 O   0  0  0  0  0  0  0  0  0  0  0  0
  -24.9730  -34.1500   25.1700 H   0  0  0  0  0  0  0  0  0  0  0  0
  -24.1430  -36.8390   23.2750 C   0  0  0  0  0  1  0  0  0  0  0  0
  -25.3970  -36.4430   24.0720 C   0  0  0  0  0  3  0  0  0  0  0  0
  -27.5290  -37.3500   24.8870 C   0  0  0  0  0  1  0  0  0  0  0  0
  -26.4190  -37.5050   23.9500 N   0  0  0  0  0  0  0  0  0  0  0  0
  -26.0050  -38.4210   24.1000 H   0  0  0  0  0  0  0  0  0  0  0  0
  -29.5400  -21.0070   20.0470 N   0  0  0  0  0  4  0  0  0  0  0  0
  -29.1820  -20.9610   19.1020 H   0  0  0  0  0  0  0  0  0  0  0  0
  -30.4940  -21.3190   20.0120 H   0  0  0  0  0  0  0  0  0  0  0  0
  -30.8600  -15.0860   20.2590 C   0  0  0  0  0  0  0  0  0  0  0  0
  -30.6050  -12.7980   19.2490 C   0  0  0  0  0  2  0  0  0  0  0  0
  -29.6410  -12.8030   18.0440 C   0  0  0  0  0  2  0  0  0  0  0  0
  -28.1940  -12.5890   18.5200 C   0  0  0  0  0  2  0  0  0  0  0  0
  -27.8240  -13.4980   19.7210 C   0  0  0  0  0  3  0  0  0  0  0  0
  -28.9130  -13.5080   20.8140 C   0  0  0  0  0  2  0  0  0  0  0  0
  -30.1750  -13.8840   20.1680 N   0  0  0  0  0  0  0  0  0  0  0  0
  -32.0630  -15.0800   19.9810 O   0  0  0  0  0  0  0  0  0  0  0  0
  -30.8700  -18.8970   20.9570 C   0  0  0  0  0  2  0  0  0  0  0  0
  -28.9840  -18.4510   19.5530 C   0  0  0  0  0  2  0  0  0  0  0  0
  -30.8890  -17.3700   21.4270 C   0  0  0  0  0  2  0  0  0  0  0  0
  -28.9990  -16.9020   19.9720 C   0  0  0  0  0  2  0  0  0  0  0  0
  -29.4870  -19.5350   20.5780 C   0  0  0  0  0  3  0  0  0  0  0  0
  -30.2350  -16.3160   20.5780 N   0  0  0  0  0  0  0  0  0  0  0  0
  -25.4770  -14.0780   20.5610 C   0  0  0  0  0  0  0  0  0  0  0  0
  -24.4180  -13.3000   20.9330 C   0  0  0  0  0  0  0  0  0  0  0  0
  -24.8680  -11.9480   20.8350 C   0  0  0  0  0  0  0  0  0  0  0  0
  -26.5030  -13.1990   20.2550 N   0  0  0  0  0  0  0  0  0  0  0  0
  -26.1480  -11.9110   20.4850 N   0  0  0  0  0  0  0  0  0  0  0  0
  -24.1350  -10.6850   20.9920 C   0  0  0  0  0  0  0  0  0  0  0  0
  -24.5430   -9.7090   21.9270 C   0  0  0  0  0  3  0  0  0  0  0  0
  -23.8120   -8.5110   22.0740 C   0  0  0  0  0  3  0  0  0  0  0  0
  -22.6590   -8.2840   21.2870 C   0  0  0  0  0  0  0  0  0  0  0  0
  -22.2710   -9.2480   20.3410 C   0  0  0  0  0  3  0  0  0  0  0  0
  -23.0030  -10.4380   20.1920 C   0  0  0  0  0  3  0  0  0  0  0  0
  -21.8990   -7.1400   21.3450 O   0  0  0  0  0  0  0  0  0  0  0  0
  -21.7760   -6.4170   22.5040 C   0  0  0  0  0  0  0  0  0  0  0  0
  -21.2050   -6.9700   23.6700 C   0  0  0  0  0  3  0  0  0  0  0  0
  -21.0340   -6.1700   24.8190 C   0  0  0  0  0  3  0  0  0  0  0  0
  -21.4220   -4.8180   24.7990 C   0  0  0  0  0  0  0  0  0  0  0  0
  -21.9850   -4.2630   23.6360 C   0  0  0  0  0  3  0  0  0  0  0  0
  -22.1580   -5.0600   22.4910 C   0  0  0  0  0  0  0  0  0  0  0  0
  -22.6830   -4.5150   21.3660 F   0  0  0  0  0  0  0  0  0  0  0  0
  -21.2510   -4.0460   25.8980 F   0  0  0  0  0  0  0  0  0  0  0  0
  -23.0340  -13.7800   21.2610 C   0  0  0  0  0  0  0  0  0  0  0  0
  -22.3260  -13.0610   22.1260 N   0  0  0  0  0  0  0  0  0  0  0  0
  -22.5900  -14.8230   20.7850 O   0  0  0  0  0  0  0  0  0  0  0  0
  -22.7000  -12.2180   22.5330 H   0  0  0  0  0  0  0  0  0  0  0  0
  -21.3990  -13.3630   22.3870 H   0  0  0  0  0  0  0  0  0  0  0  0
  -25.6450  -15.4540   20.4310 N   0  0  0  0  0  0  0  0  0  0  0  0
  -24.8840  -16.1040   20.5920 H   0  0  0  0  0  0  0  0  0  0  0  0
  -26.4790  -15.9000   20.0760 H   0  0  0  0  0  0  0  0  0  0  0  0
  1  2  1  0
  2  4  1  0
  3  2  2  0
  6  7  1  0
  6  1  1  0
  6  5  1  0
  7  8  1  0
  7  5  1  0
  9 20  2  0
 10  8  1  0
 10 15  1  0
 11 19  1  0
 11 21  1  0
 12 18  1  0
 12 14  1  0
 13 19  1  0
 14 13  1  0
 15 14  2  0
 16 10  2  0
 17 16  1  0
 17 12  2  0
 18 11  1  0
 19  9  1  0
 21 23  2  0
 22 21  1  0
 24 22  1  0
 25 34  2  0
 25 30  1  0
 26 22  1  0
 26 30  1  0
 27 26  1  0
 28 29  1  0
 28 27  1  0
 29 25  1  0
 30 31  2  0
 31 32  1  0
 33 32  2  0
 34 33  1  0
 35  9  1  0
 35 40  1  0
 35 36  1  0
 36 39  1  1
 36 37  1  0
 38 36  1  0
 40 43  1  0
 41 45  1  0
 41 40  1  0
 42 41  2  0
 45 44  1  0
 47 45  1  0
 47 48  1  0
 47 46  1  0
 49  1  1  0
 50 49  1  0
 51 49  1  0
 52 65  1  0
 53 58  1  0
 54 55  1  0
 54 53  1  0
 56 55  1  0
 56 69  1  0
 56 57  1  0
 58 52  1  0
 58 57  1  0
 59 52  2  0
 60 62  1  0
 61 63  1  0
 61 64  1  0
 63 65  1  0
 64 49  1  0
 64 60  1  0
 65 62  1  0
 66 67  2  0
 67 86  1  0
 68 67  1  0
 68 71  1  0
 69 70  1  0
 69 66  1  0
 70 68  2  0
 71 72  1  0
 72 73  2  0
 74 77  1  0
 74 73  1  0
 75 74  2  0
 76 75  1  0
 76 71  2  0
 77 78  1  0
 78 79  1  0
 79 80  2  0
 81 80  1  0
 81 85  1  0
 82 81  2  0
 83 78  2  0
 83 82  1  0
 84 83  1  0
 86 87  1  0
 87 90  1  0
 87 89  1  0
 88 86  2  0
 91 66  1  0
 91 92  1  0
 93 91  1  0
M  ISO  4   7 101   8 101  52 100  65 100
M  END
>  <TORSDO>  (24) 
F 19

>  <SCORE>  (24) 
-13.795

>  <name>  (24) 
23

>  <ligand_id>  (24) 
23

>  <original_smiles>  (24) 
[H]c1c([H])c([H])c2c(c1[H])C([H])([H])C([H])([H])C([H])([H])C2([H])N([H])C(=O)C1([H])N(C(=O)C([H])(N([H])C(=O)C([H])(N([H])C([H])([H])[H])C([H])([H])[H])C(C([H])([H])[H])(C([H])([H])[H])C([H])([H])[H])C([H])([H])c2c([H])c(OC3([H])C([H])([H])C3([H])C([H])(C(=O)[O-])[N+]([H])([H])C3([H])C([H])([H])C([H])([H])N(C(=O)N4C([H])([H])C([H])([H])C([H])([H])C([H])(n5nc(-c6c([H])c([H])c(Oc7c([H])c([H])c(F)c([H])c7F)c([H])c6[H])c(C(=O)N([H])[H])c5N([H])[H])C4([H])[H])C([H])([H])C3([H])[H])c([H])c([H])c2C1([H])[H]

>  <smiles>  (24) 
[H]c1c([H])c([H])c2c(c1[H])C([H])([H])C([H])([H])C([H])([H])C2([H])N([H])C(=O)C1([H])N(C(=O)C([H])(N([H])C(=O)C([H])(N([H])C([H])([H])[H])C([H])([H])[H])C(C([H])([H])[H])(C([H])([H])[H])C([H])([H])[H])C([H])([H])c2c([H])c(OC3([H])C([H])([H])C3([H])C([H])(C(=O)[O-])[N+]([H])([H])C3([H])C([H])([H])C([H])([H])N(C(=O)N4C([H])([H])C([H])([H])C([H])([H])C([H])(n5nc(-c6c([H])c([H])c(Oc7c([H])c([H])c(F)c([H])c7F)c([H])c6[H])c(C(=O)N([H])[H])c5N([H])[H])C4([H])[H])C([H])([H])C3([H])[H])c([H])c([H])c2C1([H])[H]

$$$$
24:0:0
     RDKit          3D

 90 99  0  0  1  0  0  0  0  0999 V2000
  -30.3250  -15.5740   20.3000 C   0  0  0  0  0  0  0  0  0  0  0  0
  -30.4010  -13.0490   19.5130 C   0  0  0  0  0  2  0  0  0  0  0  0
  -29.5070  -12.7250   18.2840 C   0  0  0  0  0  2  0  0  0  0  0  0
  -28.0760  -12.3880   18.7300 C   0  0  0  0  0  2  0  0  0  0  0  0
  -27.5720  -13.3750   19.8080 C   0  0  0  0  0  3  0  0  0  0  0  0
  -28.6030  -13.6380   20.9330 C   0  0  0  0  0  2  0  0  0  0  0  0
  -29.8040  -14.2180   20.2910 N   0  0  0  0  0  0  0  0  0  0  0  0
  -31.5460  -15.5410   20.0650 O   0  0  0  0  0  0  0  0  0  0  0  0
  -30.4800  -19.1740   19.2930 C   0  0  0  0  0  3  0  0  0  0  0  0
  -29.6580  -21.6170   19.4700 C   0  0  0  0  0  0  0  0  0  0  0  0
  -30.5350  -20.5960   18.9230 C   0  0  0  0  0  0  0  0  0  0  0  0
  -28.7540  -21.1190   20.3900 C   0  0  0  0  0  0  0  0  0  0  0  0
  -29.5620  -18.5530   20.2120 C   0  0  0  0  0  0  0  0  0  0  0  0
  -27.8990  -22.5000   20.8390 C   0  0  0  0  0  3  0  0  0  0  0  0
  -29.4850  -23.2280   19.1830 C   0  0  0  0  0  3  0  0  0  0  0  0
  -28.4660  -24.0220   20.2200 C   0  0  0  0  0  0  0  0  0  0  0  0
  -31.5830  -20.9900   17.8920 C   0  0  0  0  0  1  0  0  0  0  0  0
  -30.8300  -23.9780   19.0860 C   0  0  0  0  0  1  0  0  0  0  0  0
  -28.7100  -19.6640   20.7200 N   0  0  0  0  0  0  0  0  0  0  0  0
  -29.5410  -16.8820   20.4480 N   0  0  0  0  0  0  0  0  0  0  0  0
  -28.6320  -16.6180   20.7970 H   0  0  0  0  0  0  0  0  0  0  0  0
  -25.1930  -13.8960   20.5460 C   0  0  0  0  0  0  0  0  0  0  0  0
  -24.1350  -13.1070   20.8990 C   0  0  0  0  0  0  0  0  0  0  0  0
  -24.6150  -11.7610   20.8670 C   0  0  0  0  0  0  0  0  0  0  0  0
  -26.2480  -13.0340   20.3110 N   0  0  0  0  0  0  0  0  0  0  0  0
  -25.9140  -11.7410   20.5710 N   0  0  0  0  0  0  0  0  0  0  0  0
  -23.8950  -10.4920   21.0470 C   0  0  0  0  0  0  0  0  0  0  0  0
  -24.3130   -9.5300   21.9920 C   0  0  0  0  0  3  0  0  0  0  0  0
  -23.5910   -8.3290   22.1590 C   0  0  0  0  0  3  0  0  0  0  0  0
  -22.4350   -8.0800   21.3810 C   0  0  0  0  0  0  0  0  0  0  0  0
  -22.0350   -9.0310   20.4260 C   0  0  0  0  0  3  0  0  0  0  0  0
  -22.7590  -10.2230   20.2570 C   0  0  0  0  0  3  0  0  0  0  0  0
  -21.6880   -6.9310   21.4590 O   0  0  0  0  0  0  0  0  0  0  0  0
  -21.6050   -6.2010   22.6180 C   0  0  0  0  0  0  0  0  0  0  0  0
  -21.1100   -6.7590   23.8170 C   0  0  0  0  0  3  0  0  0  0  0  0
  -20.9760   -5.9550   24.9650 C   0  0  0  0  0  3  0  0  0  0  0  0
  -21.3270   -4.5930   24.9170 C   0  0  0  0  0  0  0  0  0  0  0  0
  -21.8160   -4.0330   23.7230 C   0  0  0  0  0  3  0  0  0  0  0  0
  -21.9510   -4.8330   22.5770 C   0  0  0  0  0  0  0  0  0  0  0  0
  -22.4030   -4.2840   21.4230 F   0  0  0  0  0  0  0  0  0  0  0  0
  -21.1890   -3.8170   26.0180 F   0  0  0  0  0  0  0  0  0  0  0  0
  -22.7300  -13.5720   21.1490 C   0  0  0  0  0  0  0  0  0  0  0  0
  -21.9970  -12.8770   22.0100 N   0  0  0  0  0  0  0  0  0  0  0  0
  -22.2910  -14.5910   20.6130 O   0  0  0  0  0  0  0  0  0  0  0  0
  -22.3660  -12.0560   22.4670 H   0  0  0  0  0  0  0  0  0  0  0  0
  -21.0540  -13.1720   22.2190 H   0  0  0  0  0  0  0  0  0  0  0  0
  -25.3410  -15.2690   20.3690 N   0  0  0  0  0  0  0  0  0  0  0  0
  -24.5490  -15.9000   20.4430 H   0  0  0  0  0  0  0  0  0  0  0  0
  -26.1660  -15.7150   19.9900 H   0  0  0  0  0  0  0  0  0  0  0  0
  -28.2280  -25.7490   20.3260 O   0  0  0  0  0  0  0  0  0  0  0  0
  -24.6040  -31.8740   23.2230 C   0  0  0  0  0  0  0  0  0  0  0  0
  -27.1740  -26.8570   20.2490 C   0  0  0  0  0  0  0  0  0  0  0  0
  -23.4260  -30.4770   21.5760 C   0  0  0  0  0  3  0  0  0  0  0  0
  -24.8840  -28.8290   20.1810 C   0  0  0  0  0  0  0  0  0  0  0  0
  -26.0010  -30.6360   21.4690 C   0  0  0  0  0  2  0  0  0  0  0  0
  -26.0690  -29.2090   20.8160 C   0  0  0  0  0  0  0  0  0  0  0  0
  -27.2010  -28.2500   20.8150 C   0  0  0  0  0  3  0  0  0  0  0  0
  -25.9500  -26.6550   19.5690 C   0  0  0  0  0  3  0  0  0  0  0  0
  -24.8560  -27.5770   19.5390 C   0  0  0  0  0  3  0  0  0  0  0  0
  -23.6720  -29.7740   20.2100 C   0  0  0  0  0  2  0  0  0  0  0  0
  -24.7000  -31.0270   22.1430 N   0  0  0  0  0  0  0  0  0  0  0  0
  -23.5080  -32.1750   23.7270 O   0  0  0  0  0  0  0  0  0  0  0  0
  -22.7020  -29.5010   22.5420 C   0  0  0  0  0  0  0  0  0  0  0  0
  -21.3680  -29.3560   22.4110 N   0  0  0  0  0  0  0  0  0  0  0  0
  -23.3500  -28.8720   23.3820 O   0  0  0  0  0  0  0  0  0  0  0  0
  -20.8940  -29.9150   21.7150 H   0  0  0  0  0  0  0  0  0  0  0  0
  -17.9720  -28.1710   22.9050 C   0  0  0  0  0  0  0  0  0  0  0  0
  -20.5330  -28.4250   23.1780 C   0  0  0  0  0  3  0  0  0  0  0  0
  -20.6270  -26.9900   22.6050 C   0  0  0  0  0  2  0  0  0  0  0  0
  -19.5280  -26.6760   21.5850 C   0  0  0  0  0  2  0  0  0  0  0  0
  -18.1450  -26.8240   22.2240 C   0  0  0  0  0  2  0  0  0  0  0  0
  -19.0920  -28.9290   23.3400 C   0  0  0  0  0  0  0  0  0  0  0  0
  -18.8740  -30.1880   23.9400 C   0  0  0  0  0  3  0  0  0  0  0  0
  -17.5680  -30.6890   24.1100 C   0  0  0  0  0  3  0  0  0  0  0  0
  -16.4630  -29.9300   23.6880 C   0  0  0  0  0  3  0  0  0  0  0  0
  -16.6670  -28.6720   23.0910 C   0  0  0  0  0  3  0  0  0  0  0  0
  -25.8650  -32.5200   23.8760 C   0  0  0  0  0  3  0  0  0  0  0  0
  -25.5500  -33.9260   24.1900 N   0  0  0  0  0  0  0  0  0  0  0  0
  -25.9010  -34.9820   23.4420 C   0  0  0  0  0  0  0  0  0  0  0  0
  -26.5810  -34.8720   22.4200 O   0  0  0  0  0  0  0  0  0  0  0  0
  -24.9450  -34.0830   24.9820 H   0  0  0  0  0  0  0  0  0  0  0  0
  -24.1920  -36.8030   23.0830 C   0  0  0  0  0  1  0  0  0  0  0  0
  -25.4270  -36.3800   23.8960 C   0  0  0  0  0  3  0  0  0  0  0  0
  -27.5580  -37.2660   24.7390 C   0  0  0  0  0  1  0  0  0  0  0  0
  -26.4720  -37.4210   23.7770 N   0  0  0  0  0  0  0  0  0  0  0  0
  -26.0750  -38.3480   23.8900 H   0  0  0  0  0  0  0  0  0  0  0  0
  -26.3380  -31.7700   25.1820 C   0  0  1  0  0  0  0  0  0  0  0  0
  -25.2160  -31.5700   26.2290 C   0  0  0  0  0  1  0  0  0  0  0  0
  -26.9150  -30.3760   24.8460 C   0  0  0  0  0  1  0  0  0  0  0  0
  -27.4800  -32.5660   25.8590 C   0  0  0  0  0  1  0  0  0  0  0  0
  1 20  1  0
  2  7  1  0
  3  4  1  0
  3  2  1  0
  5  4  1  0
  5 25  1  0
  5  6  1  0
  7  1  1  0
  7  6  1  0
  8  1  2  0
  9 13  1  0
 10 12  2  0
 11  9  2  0
 11 10  1  0
 12 19  1  0
 12 14  1  0
 13 20  1  0
 13 19  2  0
 15 18  1  0
 15 10  1  0
 15 16  1  0
 16 50  1  0
 16 14  2  0
 17 11  1  0
 20 21  1  0
 22 23  2  0
 23 42  1  0
 24 23  1  0
 24 27  1  0
 25 22  1  0
 25 26  1  0
 26 24  2  0
 27 28  1  0
 28 29  2  0
 30 33  1  0
 30 29  1  0
 31 30  2  0
 32 31  1  0
 32 27  2  0
 33 34  1  0
 34 35  1  0
 35 36  2  0
 37 36  1  0
 37 41  1  0
 38 37  2  0
 39 34  2  0
 39 38  1  0
 40 39  1  0
 42 43  1  0
 43 46  1  0
 43 45  1  0
 44 42  2  0
 47 48  1  0
 47 22  1  0
 49 47  1  0
 51 62  2  0
 52 50  1  0
 52 57  1  0
 53 61  1  0
 53 63  1  0
 54 60  1  0
 54 56  1  0
 55 61  1  0
 56 55  1  0
 57 56  2  0
 58 52  2  0
 59 58  1  0
 59 54  2  0
 60 53  1  0
 61 51  1  0
 63 65  2  0
 64 63  1  0
 66 64  1  0
 67 76  2  0
 67 72  1  0
 68 64  1  0
 68 72  1  0
 69 68  1  0
 70 71  1  0
 70 69  1  0
 71 67  1  0
 72 73  2  0
 73 74  1  0
 75 74  2  0
 76 75  1  0
 77 51  1  0
 77 78  1  0
 77 87  1  0
 78 81  1  0
 79 83  1  0
 79 78  1  0
 80 79  2  0
 83 82  1  0
 85 86  1  0
 85 83  1  0
 85 84  1  0
 87 90  1  1
 87 88  1  0
 89 87  1  0
M  ISO  4   1 100  16 101  20 100  50 101
M  END
>  <TORSDO>  (25) 
F 15

>  <SCORE>  (25) 
-16.723

>  <name>  (25) 
24

>  <ligand_id>  (25) 
24

>  <original_smiles>  (25) 
[H]c1c([H])c([H])c2c(c1[H])C([H])([H])C([H])([H])C([H])([H])C2([H])N([H])C(=O)C1([H])N(C(=O)C([H])(N([H])C(=O)C([H])(N([H])C([H])([H])[H])C([H])([H])[H])C(C([H])([H])[H])(C([H])([H])[H])C([H])([H])[H])C([H])([H])c2c([H])c(OC3([H])C([H])([H])c4nc(N([H])C(=O)N5C([H])([H])C([H])([H])C([H])([H])C([H])(n6nc(-c7c([H])c([H])c(Oc8c([H])c([H])c(F)c([H])c8F)c([H])c7[H])c(C(=O)N([H])[H])c6N([H])[H])C5([H])[H])c([H])c(C([H])([H])[H])c4C3([H])C([H])([H])[H])c([H])c([H])c2C1([H])[H]

>  <smiles>  (25) 
[H]c1c([H])c([H])c2c(c1[H])C([H])([H])C([H])([H])C([H])([H])C2([H])N([H])C(=O)C1([H])N(C(=O)C([H])(N([H])C(=O)C([H])(N([H])C([H])([H])[H])C([H])([H])[H])C(C([H])([H])[H])(C([H])([H])[H])C([H])([H])[H])C([H])([H])c2c([H])c(OC3([H])C([H])([H])c4nc(N([H])C(=O)N5C([H])([H])C([H])([H])C([H])([H])C([H])(n6nc(-c7c([H])c([H])c(Oc8c([H])c([H])c(F)c([H])c8F)c([H])c7[H])c(C(=O)N([H])[H])c6N([H])[H])C5([H])[H])c([H])c(C([H])([H])[H])c4C3([H])C([H])([H])[H])c([H])c([H])c2C1([H])[H]

$$$$
25:0:0
     RDKit          3D

 93102  0  0  1  0  0  0  0  0999 V2000
  -27.7310  -22.1520   20.0090 C   0  0  0  0  0  2  0  0  0  0  0  0
  -30.0160  -22.6720   20.7710 C   0  0  0  0  0  2  0  0  0  0  0  0
  -27.4980  -23.7270   19.6860 C   0  0  0  0  0  2  0  0  0  0  0  0
  -29.7670  -24.2300   20.4830 C   0  0  0  0  0  2  0  0  0  0  0  0
  -29.2170  -21.6580   19.8760 C   0  0  0  0  0  3  0  0  0  0  0  0
  -28.3010  -24.8220   20.5160 C   0  0  0  0  0  3  0  0  0  0  0  0
  -29.4000  -18.8060   20.3430 C   0  0  0  0  0  3  0  0  0  0  0  0
  -30.9650  -17.6190   18.9400 C   0  0  0  0  0  3  0  0  0  0  0  0
  -29.7480  -20.0950   19.6970 C   0  0  0  0  0  0  0  0  0  0  0  0
  -30.0340  -17.5080   19.9840 C   0  0  0  0  0  0  0  0  0  0  0  0
  -30.7480  -19.9380   18.6960 C   0  0  0  0  0  0  0  0  0  0  0  0
  -31.3030  -18.7630   18.3330 N   0  0  0  0  0  0  0  0  0  0  0  0
  -30.5430  -14.9120   20.3350 C   0  0  0  0  0  0  0  0  0  0  0  0
  -30.3930  -12.5860   19.3940 C   0  0  0  0  0  2  0  0  0  0  0  0
  -29.4660  -12.6040   18.1570 C   0  0  0  0  0  2  0  0  0  0  0  0
  -27.9980  -12.4100   18.5800 C   0  0  0  0  0  2  0  0  0  0  0  0
  -27.6010  -13.3170   19.7750 C   0  0  0  0  0  3  0  0  0  0  0  0
  -28.6490  -13.2880   20.9060 C   0  0  0  0  0  2  0  0  0  0  0  0
  -29.9340  -13.6670   20.3080 N   0  0  0  0  0  0  0  0  0  0  0  0
  -31.7450  -14.9640   20.0570 O   0  0  0  0  0  0  0  0  0  0  0  0
  -29.7830  -16.0970   20.4990 N   0  0  0  0  0  0  0  0  0  0  0  0
  -28.8660  -15.9430   20.8930 H   0  0  0  0  0  0  0  0  0  0  0  0
  -25.2110  -13.8950   20.4880 C   0  0  0  0  0  0  0  0  0  0  0  0
  -24.1500  -13.1180   20.8560 C   0  0  0  0  0  0  0  0  0  0  0  0
  -24.6190  -11.7670   20.8360 C   0  0  0  0  0  0  0  0  0  0  0  0
  -26.2600  -13.0190   20.2620 N   0  0  0  0  0  0  0  0  0  0  0  0
  -25.9110  -11.7350   20.5360 N   0  0  0  0  0  0  0  0  0  0  0  0
  -23.8960  -10.5040   21.0260 C   0  0  0  0  0  0  0  0  0  0  0  0
  -24.3210   -9.5430   21.9700 C   0  0  0  0  0  3  0  0  0  0  0  0
  -23.5960   -8.3440   22.1470 C   0  0  0  0  0  3  0  0  0  0  0  0
  -22.4330   -8.0990   21.3790 C   0  0  0  0  0  0  0  0  0  0  0  0
  -22.0260   -9.0490   20.4260 C   0  0  0  0  0  3  0  0  0  0  0  0
  -22.7520  -10.2380   20.2470 C   0  0  0  0  0  3  0  0  0  0  0  0
  -21.6790   -6.9520   21.4670 O   0  0  0  0  0  0  0  0  0  0  0  0
  -21.6140   -6.2200   22.6250 C   0  0  0  0  0  0  0  0  0  0  0  0
  -21.1570   -6.7810   23.8370 C   0  0  0  0  0  3  0  0  0  0  0  0
  -21.0390   -5.9750   24.9870 C   0  0  0  0  0  3  0  0  0  0  0  0
  -21.3720   -4.6080   24.9270 C   0  0  0  0  0  0  0  0  0  0  0  0
  -21.8220   -4.0460   23.7200 C   0  0  0  0  0  3  0  0  0  0  0  0
  -21.9410   -4.8500   22.5720 C   0  0  0  0  0  0  0  0  0  0  0  0
  -22.3560   -4.2980   21.4060 F   0  0  0  0  0  0  0  0  0  0  0  0
  -21.2520   -3.8310   26.0290 F   0  0  0  0  0  0  0  0  0  0  0  0
  -22.7490  -13.5910   21.1150 C   0  0  0  0  0  0  0  0  0  0  0  0
  -22.0180  -12.8980   21.9800 N   0  0  0  0  0  0  0  0  0  0  0  0
  -22.3130  -14.6130   20.5860 O   0  0  0  0  0  0  0  0  0  0  0  0
  -22.3820  -12.0710   22.4330 H   0  0  0  0  0  0  0  0  0  0  0  0
  -21.0790  -13.1990   22.1980 H   0  0  0  0  0  0  0  0  0  0  0  0
  -25.3740  -15.2650   20.3020 N   0  0  0  0  0  0  0  0  0  0  0  0
  -24.6020  -15.9170   20.4040 H   0  0  0  0  0  0  0  0  0  0  0  0
  -26.2180  -15.7030   19.9600 H   0  0  0  0  0  0  0  0  0  0  0  0
  -32.0410  -20.8550   16.8630 C   0  0  0  0  0  1  0  0  0  0  0  0
  -31.2110  -21.0440   18.0080 O   0  0  0  0  0  0  0  0  0  0  0  0
  -28.3070  -26.3340   20.1950 O   0  0  0  0  0  0  0  0  0  0  0  0
  -24.6150  -31.9020   23.2480 C   0  0  0  0  0  0  0  0  0  0  0  0
  -27.1910  -27.2240   20.2220 C   0  0  0  0  0  0  0  0  0  0  0  0
  -23.4070  -30.5050   21.6100 C   0  0  0  0  0  3  0  0  0  0  0  0
  -24.8510  -28.9270   20.1920 C   0  0  0  0  0  0  0  0  0  0  0  0
  -25.9560  -30.7820   21.4370 C   0  0  0  0  0  2  0  0  0  0  0  0
  -26.0270  -29.3910   20.7930 C   0  0  0  0  0  0  0  0  0  0  0  0
  -27.2000  -28.5560   20.7860 C   0  0  0  0  0  3  0  0  0  0  0  0
  -25.9900  -26.8430   19.5910 C   0  0  0  0  0  3  0  0  0  0  0  0
  -24.8410  -27.6640   19.5770 C   0  0  0  0  0  3  0  0  0  0  0  0
  -23.6210  -29.8190   20.2340 C   0  0  0  0  0  2  0  0  0  0  0  0
  -24.6790  -31.0850   22.1520 N   0  0  0  0  0  0  0  0  0  0  0  0
  -23.5310  -32.1870   23.7810 O   0  0  0  0  0  0  0  0  0  0  0  0
  -22.7340  -29.4990   22.5760 C   0  0  0  0  0  0  0  0  0  0  0  0
  -21.4070  -29.3260   22.4480 N   0  0  0  0  0  0  0  0  0  0  0  0
  -23.4070  -28.8770   23.4020 O   0  0  0  0  0  0  0  0  0  0  0  0
  -20.9210  -29.8800   21.7570 H   0  0  0  0  0  0  0  0  0  0  0  0
  -18.0270  -28.1240   22.9420 C   0  0  0  0  0  0  0  0  0  0  0  0
  -20.5840  -28.3910   23.2190 C   0  0  0  0  0  3  0  0  0  0  0  0
  -20.6880  -26.9560   22.6520 C   0  0  0  0  0  2  0  0  0  0  0  0
  -19.5920  -26.6270   21.6340 C   0  0  0  0  0  2  0  0  0  0  0  0
  -18.2080  -26.7710   22.2720 C   0  0  0  0  0  2  0  0  0  0  0  0
  -19.1420  -28.8910   23.3710 C   0  0  0  0  0  0  0  0  0  0  0  0
  -18.9190  -30.1550   23.9580 C   0  0  0  0  0  3  0  0  0  0  0  0
  -17.6130  -30.6530   24.1200 C   0  0  0  0  0  3  0  0  0  0  0  0
  -16.5100  -29.8850   23.7060 C   0  0  0  0  0  3  0  0  0  0  0  0
  -16.7180  -28.6210   23.1230 C   0  0  0  0  0  3  0  0  0  0  0  0
  -25.8970  -32.5340   23.8700 C   0  0  0  0  0  3  0  0  0  0  0  0
  -25.5910  -33.9340   24.2010 N   0  0  0  0  0  0  0  0  0  0  0  0
  -25.9140  -34.9880   23.4400 C   0  0  0  0  0  0  0  0  0  0  0  0
  -26.5710  -34.8850   22.4010 O   0  0  0  0  0  0  0  0  0  0  0  0
  -25.0030  -34.0870   25.0070 H   0  0  0  0  0  0  0  0  0  0  0  0
  -24.1790  -36.7830   23.1190 C   0  0  0  0  0  1  0  0  0  0  0  0
  -25.4350  -36.3770   23.9060 C   0  0  0  0  0  3  0  0  0  0  0  0
  -27.5820  -37.2690   24.6990 C   0  0  0  0  0  1  0  0  0  0  0  0
  -26.4640  -37.4300   23.7730 N   0  0  0  0  0  0  0  0  0  0  0  0
  -26.0590  -38.3510   23.9230 H   0  0  0  0  0  0  0  0  0  0  0  0
  -26.4090  -31.7650   25.1530 C   0  0  1  0  0  0  0  0  0  0  0  0
  -25.3140  -31.5380   26.2210 C   0  0  0  0  0  1  0  0  0  0  0  0
  -26.9870  -30.3830   24.7740 C   0  0  0  0  0  1  0  0  0  0  0  0
  -27.5590  -32.5590   25.8150 C   0  0  0  0  0  1  0  0  0  0  0  0
  3  1  1  0
  3  6  1  0
  4  6  1  0
  4  2  1  0
  5  9  1  0
  5  1  1  0
  5  2  1  0
  6 53  1  0
  8 10  2  0
  9  7  2  0
 10  7  1  0
 10 21  1  0
 11  9  1  0
 12 11  2  0
 12  8  1  0
 13 21  1  0
 14 19  1  0
 15 16  1  0
 15 14  1  0
 17 16  1  0
 17 26  1  0
 17 18  1  0
 19 13  1  0
 19 18  1  0
 20 13  2  0
 21 22  1  0
 23 24  2  0
 24 43  1  0
 25 24  1  0
 25 28  1  0
 26 23  1  0
 26 27  1  0
 27 25  2  0
 28 29  1  0
 29 30  2  0
 31 34  1  0
 31 30  1  0
 32 31  2  0
 33 32  1  0
 33 28  2  0
 34 35  1  0
 35 36  1  0
 36 37  2  0
 38 37  1  0
 38 42  1  0
 39 38  2  0
 40 35  2  0
 40 39  1  0
 41 40  1  0
 43 44  1  0
 44 47  1  0
 44 46  1  0
 45 43  2  0
 48 49  1  0
 48 23  1  0
 50 48  1  0
 51 52  1  0
 52 11  1  0
 53 55  1  0
 54 65  2  0
 55 60  1  0
 56 64  1  0
 56 66  1  0
 57 63  1  0
 57 59  1  0
 58 64  1  0
 59 58  1  0
 60 59  2  0
 61 55  2  0
 62 61  1  0
 62 57  2  0
 63 56  1  0
 64 54  1  0
 66 68  2  0
 67 66  1  0
 69 67  1  0
 70 79  2  0
 70 75  1  0
 71 67  1  0
 71 75  1  0
 72 71  1  0
 73 74  1  0
 73 72  1  0
 74 70  1  0
 75 76  2  0
 76 77  1  0
 78 77  2  0
 79 78  1  0
 80 54  1  0
 80 81  1  0
 80 90  1  0
 81 84  1  0
 82 86  1  0
 82 81  1  0
 83 82  2  0
 86 85  1  0
 88 86  1  0
 88 89  1  0
 88 87  1  0
 90 93  1  1
 90 91  1  0
 92 90  1  0
M  ISO  4   6 101  13 100  21 100  53 101
M  END
>  <TORSDO>  (26) 
F 18

>  <SCORE>  (26) 
-14.738

>  <name>  (26) 
25

>  <ligand_id>  (26) 
25

>  <original_smiles>  (26) 
[H]c1nc(OC([H])([H])[H])c(C2([H])C([H])([H])C([H])([H])C([H])(Oc3c([H])c([H])c4c(c3[H])C([H])([H])N(C(=O)C([H])(N([H])C(=O)C([H])(N([H])C([H])([H])[H])C([H])([H])[H])C(C([H])([H])[H])(C([H])([H])[H])C([H])([H])[H])C([H])(C(=O)N([H])C3([H])c5c([H])c([H])c([H])c([H])c5C([H])([H])C([H])([H])C3([H])[H])C4([H])[H])C([H])([H])C2([H])[H])c([H])c1N([H])C(=O)N1C([H])([H])C([H])([H])C([H])([H])C([H])(n2nc(-c3c([H])c([H])c(Oc4c([H])c([H])c(F)c([H])c4F)c([H])c3[H])c(C(=O)N([H])[H])c2N([H])[H])C1([H])[H]

>  <smiles>  (26) 
[H]c1nc(OC([H])([H])[H])c(C2([H])C([H])([H])C([H])([H])C([H])(Oc3c([H])c([H])c4c(c3[H])C([H])([H])N(C(=O)C([H])(N([H])C(=O)C([H])(N([H])C([H])([H])[H])C([H])([H])[H])C(C([H])([H])[H])(C([H])([H])[H])C([H])([H])[H])C([H])(C(=O)N([H])C3([H])c5c([H])c([H])c([H])c([H])c5C([H])([H])C([H])([H])C3([H])[H])C4([H])[H])C([H])([H])C2([H])[H])c([H])c1N([H])C(=O)N1C([H])([H])C([H])([H])C([H])([H])C([H])(n2nc(-c3c([H])c([H])c(Oc4c([H])c([H])c(F)c([H])c4F)c([H])c3[H])c(C(=O)N([H])[H])c2N([H])[H])C1([H])[H]

$$$$
26:0:0
     RDKit          3D

 93103  0  0  1  0  0  0  0  0999 V2000
  -29.0120  -17.1650   19.7120 C   0  0  0  0  0  3  0  0  0  0  0  0
  -29.2230  -19.8810   20.0190 C   0  0  0  0  0  3  0  0  0  0  0  0
  -27.9750  -17.9630   19.2000 C   0  0  0  0  0  0  0  0  0  0  0  0
  -28.0870  -19.3550   19.3830 C   0  0  0  0  0  0  0  0  0  0  0  0
  -30.1370  -17.6030   20.4600 C   0  0  0  0  0  0  0  0  0  0  0  0
  -30.2790  -19.1340   20.6080 C   0  0  0  0  0  0  0  0  0  0  0  0
  -27.0340  -20.3430   18.9100 C   0  0  0  0  0  1  0  0  0  0  0  0
  -31.3000  -15.0930   20.3220 C   0  0  0  0  0  0  0  0  0  0  0  0
  -30.7460  -13.1000   18.8200 C   0  0  0  0  0  2  0  0  0  0  0  0
  -29.6910  -13.3990   17.7360 C   0  0  0  0  0  2  0  0  0  0  0  0
  -28.2740  -13.1830   18.2960 C   0  0  0  0  0  2  0  0  0  0  0  0
  -28.0860  -13.8050   19.7040 C   0  0  0  0  0  3  0  0  0  0  0  0
  -29.2660  -13.5230   20.6560 C   0  0  0  0  0  2  0  0  0  0  0  0
  -30.4770  -14.0070   19.9830 N   0  0  0  0  0  0  0  0  0  0  0  0
  -32.4690  -14.9940   19.9350 O   0  0  0  0  0  0  0  0  0  0  0  0
  -30.8980  -16.3480   20.9320 N   0  0  0  0  0  0  0  0  0  0  0  0
  -31.6330  -16.6370   21.5640 H   0  0  0  0  0  0  0  0  0  0  0  0
  -25.8170  -14.3630   20.7160 C   0  0  0  0  0  0  0  0  0  0  0  0
  -24.7510  -13.5860   21.0680 C   0  0  0  0  0  0  0  0  0  0  0  0
  -25.1540  -12.2330   20.8440 C   0  0  0  0  0  0  0  0  0  0  0  0
  -26.7960  -13.4850   20.2860 N   0  0  0  0  0  0  0  0  0  0  0  0
  -26.4140  -12.1910   20.4270 N   0  0  0  0  0  0  0  0  0  0  0  0
  -24.3930  -10.9830   20.9400 C   0  0  0  0  0  0  0  0  0  0  0  0
  -24.7730   -9.9490   21.8260 C   0  0  0  0  0  3  0  0  0  0  0  0
  -24.0080   -8.7650   21.9070 C   0  0  0  0  0  3  0  0  0  0  0  0
  -22.8510   -8.6080   21.1080 C   0  0  0  0  0  0  0  0  0  0  0  0
  -22.4950   -9.6300   20.2100 C   0  0  0  0  0  3  0  0  0  0  0  0
  -23.2610  -10.8030   20.1220 C   0  0  0  0  0  3  0  0  0  0  0  0
  -22.0620   -7.4830   21.1080 O   0  0  0  0  0  0  0  0  0  0  0  0
  -21.8300   -6.7690   22.2570 C   0  0  0  0  0  0  0  0  0  0  0  0
  -21.2580   -7.3640   23.4030 C   0  0  0  0  0  3  0  0  0  0  0  0
  -20.9700   -6.5770   24.5360 C   0  0  0  0  0  3  0  0  0  0  0  0
  -21.2440   -5.1950   24.5210 C   0  0  0  0  0  0  0  0  0  0  0  0
  -21.8140   -4.6010   23.3820 C   0  0  0  0  0  3  0  0  0  0  0  0
  -22.1000   -5.3860   22.2510 C   0  0  0  0  0  0  0  0  0  0  0  0
  -22.6250   -4.8040   21.1460 F   0  0  0  0  0  0  0  0  0  0  0  0
  -20.9600   -4.4370   25.6060 F   0  0  0  0  0  0  0  0  0  0  0  0
  -23.3980  -14.0770   21.4950 C   0  0  0  0  0  0  0  0  0  0  0  0
  -22.7100  -13.3180   22.3400 N   0  0  0  0  0  0  0  0  0  0  0  0
  -22.9660  -15.1630   21.1150 O   0  0  0  0  0  0  0  0  0  0  0  0
  -23.0670  -12.4280   22.6540 H   0  0  0  0  0  0  0  0  0  0  0  0
  -21.8040  -13.6270   22.6660 H   0  0  0  0  0  0  0  0  0  0  0  0
  -26.0340  -15.7390   20.7000 N   0  0  0  0  0  4  0  0  0  0  0  0
  -25.3170  -16.4060   20.9580 H   0  0  0  0  0  0  0  0  0  0  0  0
  -26.8810  -16.1790   20.3610 H   0  0  0  0  0  0  0  0  0  0  0  0
  -25.3940  -17.6120   18.3010 C   0  0  0  0  0  2  0  0  0  0  0  0
  -25.7520  -16.5840   19.3450 C   0  0  0  0  0  3  0  0  0  0  0  0
  -26.8450  -17.2090   18.5110 C   0  0  0  0  0  3  0  0  0  0  0  0
  -31.2710  -20.0810   21.1560 O   0  0  0  0  0  0  0  0  0  0  0  0
  -30.9870  -21.4940   21.8510 C   0  0  0  0  0  2  0  0  0  0  0  0
  -31.1440  -23.1310   21.3320 C   0  0  0  0  0  3  0  0  0  0  0  0
  -30.1530  -24.4770   21.7590 C   0  0  0  0  0  3  0  0  0  0  0  0
  -30.2210  -26.0200   21.3780 O   0  0  0  0  0  0  0  0  0  0  0  0
  -25.2810  -31.1570   23.5440 C   0  0  0  0  0  0  0  0  0  0  0  0
  -29.0400  -26.8450   21.1500 C   0  0  0  0  0  0  0  0  0  0  0  0
  -24.5990  -29.5340   21.8260 C   0  0  0  0  0  3  0  0  0  0  0  0
  -26.4890  -28.2020   20.6990 C   0  0  0  0  0  0  0  0  0  0  0  0
  -27.0730  -30.2270   22.0190 C   0  0  0  0  0  2  0  0  0  0  0  0
  -27.4770  -28.8480   21.4520 C   0  0  0  0  0  0  0  0  0  0  0  0
  -28.7540  -28.1870   21.6580 C   0  0  0  0  0  3  0  0  0  0  0  0
  -28.0130  -26.3170   20.3380 C   0  0  0  0  0  3  0  0  0  0  0  0
  -26.7720  -26.9550   20.1280 C   0  0  0  0  0  3  0  0  0  0  0  0
  -25.1360  -28.8770   20.5280 C   0  0  0  0  0  2  0  0  0  0  0  0
  -25.6600  -30.3330   22.5190 N   0  0  0  0  0  0  0  0  0  0  0  0
  -24.0940  -31.2580   23.8930 O   0  0  0  0  0  0  0  0  0  0  0  0
  -23.9640  -28.4450   22.7290 C   0  0  0  0  0  0  0  0  0  0  0  0
  -22.8030  -27.9030   22.3170 N   0  0  0  0  0  0  0  0  0  0  0  0
  -24.5280  -28.0880   23.7660 O   0  0  0  0  0  0  0  0  0  0  0  0
  -22.3930  -28.2520   21.4620 H   0  0  0  0  0  0  0  0  0  0  0  0
  -19.8750  -25.7750   22.1200 C   0  0  0  0  0  0  0  0  0  0  0  0
  -22.0700  -26.8300   22.9960 C   0  0  0  0  0  3  0  0  0  0  0  0
  -22.7180  -25.4530   22.7190 C   0  0  0  0  0  2  0  0  0  0  0  0
  -22.0980  -24.7250   21.5230 C   0  0  0  0  0  2  0  0  0  0  0  0
  -20.6020  -24.4930   21.7500 C   0  0  0  0  0  2  0  0  0  0  0  0
  -20.5660  -26.8770   22.6890 C   0  0  0  0  0  0  0  0  0  0  0  0
  -19.8470  -28.0550   22.9860 C   0  0  0  0  0  3  0  0  0  0  0  0
  -18.4670  -28.1420   22.7230 C   0  0  0  0  0  3  0  0  0  0  0  0
  -17.7870  -27.0430   22.1710 C   0  0  0  0  0  3  0  0  0  0  0  0
  -18.4880  -25.8620   21.8760 C   0  0  0  0  0  3  0  0  0  0  0  0
  -26.3170  -32.0260   24.3170 C   0  0  0  0  0  3  0  0  0  0  0  0
  -25.7610  -33.3840   24.4440 N   0  0  0  0  0  0  0  0  0  0  0  0
  -26.0760  -34.4180   23.6520 C   0  0  0  0  0  0  0  0  0  0  0  0
  -26.9260  -34.3390   22.7610 O   0  0  0  0  0  0  0  0  0  0  0  0
  -25.0150  -33.5050   25.1140 H   0  0  0  0  0  0  0  0  0  0  0  0
  -24.2070  -35.8990   22.8470 C   0  0  0  0  0  1  0  0  0  0  0  0
  -25.3330  -35.7490   23.8830 C   0  0  0  0  0  3  0  0  0  0  0  0
  -27.1410  -37.0160   24.9590 C   0  0  0  0  0  1  0  0  0  0  0  0
  -26.2180  -36.9340   23.8310 N   0  0  0  0  0  0  0  0  0  0  0  0
  -25.6730  -37.7910   23.8040 H   0  0  0  0  0  0  0  0  0  0  0  0
  -26.6740  -31.4470   25.7420 C   0  0  1  0  0  0  0  0  0  0  0  0
  -25.4340  -31.1200   26.6090 C   0  0  0  0  0  1  0  0  0  0  0  0
  -27.5110  -30.1550   25.6160 C   0  0  0  0  0  1  0  0  0  0  0  0
  -27.5510  -32.4600   26.5140 C   0  0  0  0  0  1  0  0  0  0  0  0
  1  5  1  0
  2  6  1  0
  3  4  1  0
  3  1  2  0
  4  2  2  0
  5  6  2  0
  5 16  1  0
  6 49  1  0
  7  4  1  0
  8 16  1  0
  9 14  1  0
 10 11  1  0
 10  9  1  0
 12 11  1  0
 12 21  1  0
 12 13  1  0
 14  8  1  0
 14 13  1  0
 15  8  2  0
 16 17  1  0
 18 19  2  0
 19 38  1  0
 20 23  1  0
 20 19  1  0
 21 22  1  0
 21 18  1  0
 22 20  2  0
 23 24  1  0
 24 25  2  0
 26 29  1  0
 26 25  1  0
 27 26  2  0
 28 27  1  0
 28 23  2  0
 29 30  1  0
 30 31  1  0
 31 32  2  0
 33 32  1  0
 33 37  1  0
 34 33  2  0
 35 30  2  0
 35 34  1  0
 36 35  1  0
 38 39  1  0
 39 41  1  0
 39 42  1  0
 40 38  2  0
 43 18  1  0
 43 44  1  0
 45 43  1  0
 47 46  1  0
 47 43  1  0
 48 46  1  0
 48  3  1  0
 48 47  1  0
 49 50  1  0
 51 52  2  0
 51 50  1  0
 53 52  1  0
 54 65  2  0
 55 53  1  0
 55 60  1  0
 56 64  1  0
 56 66  1  0
 57 59  1  0
 58 64  1  0
 59 60  2  0
 59 58  1  0
 61 55  2  0
 62 61  1  0
 62 57  2  0
 63 57  1  0
 63 56  1  0
 64 54  1  0
 66 68  2  0
 67 66  1  0
 69 67  1  0
 70 75  1  0
 71 67  1  0
 72 71  1  0
 73 74  1  0
 73 72  1  0
 74 70  1  0
 75 76  2  0
 75 71  1  0
 77 76  1  0
 78 77  2  0
 79 70  2  0
 79 78  1  0
 80 54  1  0
 80 81  1  0
 80 90  1  0
 81 84  1  0
 82 86  1  0
 82 81  1  0
 83 82  2  0
 86 85  1  0
 88 86  1  0
 88 87  1  0
 89 88  1  0
 90 93  1  1
 90 91  1  0
 92 90  1  0
M  ISO  4   8 100  16 100  52 101  53 101
M  END
>  <TORSDO>  (27) 
F 21

>  <SCORE>  (27) 
-6.416

>  <name>  (27) 
26

>  <ligand_id>  (27) 
26

>  <original_smiles>  (27) 
[H]c1c([H])c([H])c2c(c1[H])C([H])([H])C([H])([H])C([H])([H])C2([H])N([H])C(=O)C1([H])N(C(=O)C([H])(N([H])C(=O)C([H])(N([H])C([H])([H])[H])C([H])([H])[H])C(C([H])([H])[H])(C([H])([H])[H])C([H])([H])[H])C([H])([H])c2c([H])c(OC([H])([H])C([H])([H])C([H])([H])Oc3c([H])c(C([H])([H])[H])c(C4([H])C([H])([H])C4([H])[H])c([H])c3N([H])C(=O)N3C([H])([H])C([H])([H])C([H])([H])C([H])(n4nc(-c5c([H])c([H])c(Oc6c([H])c([H])c(F)c([H])c6F)c([H])c5[H])c(C(=O)N([H])[H])c4N([H])[H])C3([H])[H])c([H])c([H])c2C1([H])[H]

>  <smiles>  (27) 
[H]c1c([H])c([H])c2c(c1[H])C([H])([H])C([H])([H])C([H])([H])C2([H])N([H])C(=O)C1([H])N(C(=O)C([H])(N([H])C(=O)C([H])(N([H])C([H])([H])[H])C([H])([H])[H])C(C([H])([H])[H])(C([H])([H])[H])C([H])([H])[H])C([H])([H])c2c([H])c(OC([H])([H])C([H])([H])C([H])([H])Oc3c([H])c(C([H])([H])[H])c(C4([H])C([H])([H])C4([H])[H])c([H])c3N([H])C(=O)N3C([H])([H])C([H])([H])C([H])([H])C([H])(n4nc(-c5c([H])c([H])c(Oc6c([H])c([H])c(F)c([H])c6F)c([H])c5[H])c(C(=O)N([H])[H])c4N([H])[H])C3([H])[H])c([H])c([H])c2C1([H])[H]

$$$$
27:0:0
     RDKit          3D

 96105  0  0  1  0  0  0  0  0999 V2000
  -30.3250  -20.8300   20.1450 C   0  0  0  0  0  3  0  0  0  0  0  0
  -31.0790  -19.4660   22.0160 C   0  0  0  0  0  3  0  0  0  0  0  0
  -30.6190  -21.8320   22.3470 C   0  0  0  0  0  3  0  0  0  0  0  0
  -30.7400  -19.5630   20.6490 C   0  0  0  0  0  0  0  0  0  0  0  0
  -30.2530  -21.9730   20.9920 C   0  0  0  0  0  0  0  0  0  0  0  0
  -31.0260  -20.5810   22.8710 C   0  0  0  0  0  0  0  0  0  0  0  0
  -31.1460  -14.6830   19.0380 C   0  0  0  0  0  0  0  0  0  0  0  0
  -30.4890  -12.5570   17.9330 C   0  0  0  0  0  2  0  0  0  0  0  0
  -29.3170  -12.7870   16.9580 C   0  0  0  0  0  2  0  0  0  0  0  0
  -27.9700  -12.6220   17.6900 C   0  0  0  0  0  2  0  0  0  0  0  0
  -27.9140  -13.4460   18.9970 C   0  0  0  0  0  3  0  0  0  0  0  0
  -29.1930  -13.2510   19.8570 C   0  0  0  0  0  2  0  0  0  0  0  0
  -30.3650  -13.5510   19.0180 N   0  0  0  0  0  0  0  0  0  0  0  0
  -32.2060  -14.7050   18.4130 O   0  0  0  0  0  0  0  0  0  0  0  0
  -29.2810  -17.8530   19.5350 C   0  0  0  0  0  2  0  0  0  0  0  0
  -29.3520  -16.3510   19.2790 C   0  0  0  0  0  2  0  0  0  0  0  0
  -30.7070  -18.2930   19.7690 C   0  0  0  0  0  3  0  0  0  0  0  0
  -31.3710  -16.9760   20.2970 C   0  0  0  0  0  3  0  0  0  0  0  0
  -30.6680  -15.8140   19.6590 N   0  0  0  0  0  0  0  0  0  0  0  0
  -25.8200  -14.1310   20.3280 C   0  0  0  0  0  0  0  0  0  0  0  0
  -24.7990  -13.3930   20.8590 C   0  0  0  0  0  0  0  0  0  0  0  0
  -25.1160  -12.0290   20.5820 C   0  0  0  0  0  0  0  0  0  0  0  0
  -26.6970  -13.2140   19.7630 N   0  0  0  0  0  0  0  0  0  0  0  0
  -26.2930  -11.9390   19.9780 N   0  0  0  0  0  0  0  0  0  0  0  0
  -24.3410  -10.8040   20.7970 C   0  0  0  0  0  0  0  0  0  0  0  0
  -24.7730   -9.8090   21.7020 C   0  0  0  0  0  3  0  0  0  0  0  0
  -24.0000   -8.6460   21.9050 C   0  0  0  0  0  3  0  0  0  0  0  0
  -22.7840   -8.4710   21.2030 C   0  0  0  0  0  0  0  0  0  0  0  0
  -22.3720   -9.4540   20.2870 C   0  0  0  0  0  3  0  0  0  0  0  0
  -23.1440  -10.6090   20.0820 C   0  0  0  0  0  3  0  0  0  0  0  0
  -21.9840   -7.3600   21.3170 O   0  0  0  0  0  0  0  0  0  0  0  0
  -21.8110   -6.7180   22.5170 C   0  0  0  0  0  0  0  0  0  0  0  0
  -21.2560   -7.3740   23.6380 C   0  0  0  0  0  3  0  0  0  0  0  0
  -21.0310   -6.6580   24.8310 C   0  0  0  0  0  3  0  0  0  0  0  0
  -21.3530   -5.2890   24.9030 C   0  0  0  0  0  0  0  0  0  0  0  0
  -21.9040   -4.6350   23.7870 C   0  0  0  0  0  3  0  0  0  0  0  0
  -22.1290   -5.3480   22.5970 C   0  0  0  0  0  0  0  0  0  0  0  0
  -22.6400   -4.7080   21.5160 F   0  0  0  0  0  0  0  0  0  0  0  0
  -21.1290   -4.6000   26.0460 F   0  0  0  0  0  0  0  0  0  0  0  0
  -23.5460  -13.9260   21.4930 C   0  0  0  0  0  0  0  0  0  0  0  0
  -23.0200  -13.2280   22.4930 N   0  0  0  0  0  0  0  0  0  0  0  0
  -23.0530  -14.9950   21.1340 O   0  0  0  0  0  0  0  0  0  0  0  0
  -23.4350  -12.3610   22.8010 H   0  0  0  0  0  0  0  0  0  0  0  0
  -22.1890  -13.5660   22.9580 H   0  0  0  0  0  0  0  0  0  0  0  0
  -26.0550  -15.5010   20.2560 N   0  0  0  0  0  0  0  0  0  0  0  0
  -25.3850  -16.1780   20.6020 H   0  0  0  0  0  0  0  0  0  0  0  0
  -26.8190  -15.9260   19.7480 H   0  0  0  0  0  0  0  0  0  0  0  0
  -33.5970  -15.6960   20.7670 C   0  0  0  0  0  1  0  0  0  0  0  0
  -33.6520  -17.7770   19.2730 C   0  0  0  0  0  1  0  0  0  0  0  0
  -32.9250  -17.0370   20.4120 C   0  0  0  0  0  3  0  0  0  0  0  0
  -31.4200  -21.4750   25.0640 C   0  0  0  0  0  1  0  0  0  0  0  0
  -31.3760  -20.3610   24.1830 O   0  0  0  0  0  0  0  0  0  0  0  0
  -29.8610  -23.3710   20.4690 C   0  0  0  0  0  2  0  0  0  0  0  0
  -28.5100  -23.9570   21.0050 C   0  0  0  0  0  2  0  0  0  0  0  0
  -28.4530  -25.5050   21.2250 C   0  0  0  0  0  2  0  0  0  0  0  0
  -28.1800  -26.2840   20.0460 O   0  0  0  0  0  0  0  0  0  0  0  0
  -24.5500  -31.6830   23.0450 C   0  0  0  0  0  0  0  0  0  0  0  0
  -27.0460  -27.0710   20.0890 C   0  0  0  0  0  0  0  0  0  0  0  0
  -23.2890  -30.2620   21.4620 C   0  0  0  0  0  3  0  0  0  0  0  0
  -24.6910  -28.6390   20.0710 C   0  0  0  0  0  0  0  0  0  0  0  0
  -25.8200  -30.5470   21.2240 C   0  0  0  0  0  2  0  0  0  0  0  0
  -25.8660  -29.1510   20.6350 C   0  0  0  0  0  0  0  0  0  0  0  0
  -27.0480  -28.3720   20.6470 C   0  0  0  0  0  3  0  0  0  0  0  0
  -25.8590  -26.5760   19.5140 C   0  0  0  0  0  3  0  0  0  0  0  0
  -24.6810  -27.3490   19.5080 C   0  0  0  0  0  3  0  0  0  0  0  0
  -23.4670  -29.5310   20.1030 C   0  0  0  0  0  2  0  0  0  0  0  0
  -24.5730  -30.8490   21.9680 N   0  0  0  0  0  0  0  0  0  0  0  0
  -23.4810  -32.0000   23.5890 O   0  0  0  0  0  0  0  0  0  0  0  0
  -22.6240  -29.2890   22.4620 C   0  0  0  0  0  0  0  0  0  0  0  0
  -21.2900  -29.1560   22.3700 N   0  0  0  0  0  0  0  0  0  0  0  0
  -23.3020  -28.6590   23.2760 O   0  0  0  0  0  0  0  0  0  0  0  0
  -20.8040  -29.7110   21.6800 H   0  0  0  0  0  0  0  0  0  0  0  0
  -17.8850  -28.1190   22.9970 C   0  0  0  0  0  0  0  0  0  0  0  0
  -20.4590  -28.2660   23.1810 C   0  0  0  0  0  3  0  0  0  0  0  0
  -20.4800  -26.8240   22.6250 C   0  0  0  0  0  2  0  0  0  0  0  0
  -19.3310  -26.5370   21.6520 C   0  0  0  0  0  2  0  0  0  0  0  0
  -17.9800  -26.7530   22.3380 C   0  0  0  0  0  2  0  0  0  0  0  0
  -19.0500  -28.8370   23.3790 C   0  0  0  0  0  0  0  0  0  0  0  0
  -18.9070  -30.1160   23.9560 C   0  0  0  0  0  3  0  0  0  0  0  0
  -17.6320  -30.6770   24.1570 C   0  0  0  0  0  3  0  0  0  0  0  0
  -16.4830  -29.9570   23.7910 C   0  0  0  0  0  3  0  0  0  0  0  0
  -16.6090  -28.6800   23.2160 C   0  0  0  0  0  3  0  0  0  0  0  0
  -25.8590  -32.3000   23.6290 C   0  0  0  0  0  3  0  0  0  0  0  0
  -25.5550  -33.6780   24.0390 N   0  0  0  0  0  0  0  0  0  0  0  0
  -25.8510  -34.7670   23.3180 C   0  0  0  0  0  0  0  0  0  0  0  0
  -26.4790  -34.7180   22.2560 O   0  0  0  0  0  0  0  0  0  0  0  0
  -24.9900  -33.7900   24.8670 H   0  0  0  0  0  0  0  0  0  0  0  0
  -24.1010  -36.5650   23.1120 C   0  0  0  0  0  1  0  0  0  0  0  0
  -25.3720  -36.1290   23.8580 C   0  0  0  0  0  3  0  0  0  0  0  0
  -27.5290  -36.9850   24.6580 C   0  0  0  0  0  1  0  0  0  0  0  0
  -26.3950  -37.1930   23.7630 N   0  0  0  0  0  0  0  0  0  0  0  0
  -25.9880  -38.1020   23.9690 H   0  0  0  0  0  0  0  0  0  0  0  0
  -26.4510  -31.4760   24.8380 C   0  0  1  0  0  0  0  0  0  0  0  0
  -25.4090  -31.1380   25.9310 C   0  0  0  0  0  1  0  0  0  0  0  0
  -27.0650  -30.1450   24.3450 C   0  0  0  0  0  1  0  0  0  0  0  0
  -27.6010  -32.2720   25.5010 C   0  0  0  0  0  1  0  0  0  0  0  0
  1  4  2  0
  1  5  1  0
  2  6  2  0
  3  6  1  0
  4  2  1  0
  5  3  2  0
  6 52  1  0
  7 19  1  0
  8 13  1  0
  9 10  1  0
  9  8  1  0
 11 10  1  0
 11 23  1  0
 11 12  1  0
 13  7  1  0
 13 12  1  0
 14  7  2  0
 15 17  1  0
 16 15  1  0
 16 19  1  0
 17 18  1  0
 17  4  1  0
 18 50  1  0
 19 18  1  0
 20 21  2  0
 21 40  1  0
 22 25  1  0
 22 21  1  0
 23 24  1  0
 23 20  1  0
 24 22  2  0
 25 26  1  0
 26 27  2  0
 28 31  1  0
 28 27  1  0
 29 28  2  0
 30 29  1  0
 30 25  2  0
 31 32  1  0
 32 37  2  0
 32 33  1  0
 33 34  2  0
 34 35  1  0
 35 39  1  0
 36 35  2  0
 37 36  1  0
 38 37  1  0
 40 41  1  0
 41 43  1  0
 41 44  1  0
 42 40  2  0
 45 20  1  0
 45 46  1  0
 47 45  1  0
 49 50  1  0
 50 48  1  0
 52 51  1  0
 53  5  1  0
 53 54  1  0
 54 55  1  0
 56 58  1  0
 56 55  1  0
 57 68  2  0
 58 63  1  0
 59 67  1  0
 59 69  1  0
 60 66  1  0
 60 62  1  0
 61 67  1  0
 62 63  2  0
 62 61  1  0
 64 58  2  0
 65 64  1  0
 65 60  2  0
 66 59  1  0
 67 57  1  0
 69 71  2  0
 70 69  1  0
 72 70  1  0
 73 82  2  0
 73 78  1  0
 74 70  1  0
 74 78  1  0
 75 74  1  0
 76 77  1  0
 76 75  1  0
 77 73  1  0
 78 79  2  0
 79 80  1  0
 81 80  2  0
 82 81  1  0
 83 57  1  0
 83 84  1  0
 83 93  1  0
 84 87  1  0
 85 89  1  0
 85 84  1  0
 86 85  2  0
 89 88  1  0
 91 89  1  0
 91 92  1  0
 91 90  1  0
 93 96  1  1
 93 94  1  0
 95 93  1  0
M  ISO  4   7 100  19 100  55 101  56 101
M  END
>  <TORSDO>  (28) 
F 21

>  <SCORE>  (28) 
-9.368

>  <name>  (28) 
27

>  <ligand_id>  (28) 
27

>  <original_smiles>  (28) 
[H]c1c([H])c([H])c2c(c1[H])C([H])([H])C([H])([H])C([H])([H])C2([H])N([H])C(=O)C1([H])N(C(=O)C([H])(N([H])C(=O)C([H])(N([H])C([H])([H])[H])C([H])([H])[H])C(C([H])([H])[H])(C([H])([H])[H])C([H])([H])[H])C([H])([H])c2c([H])c(OC([H])([H])C([H])([H])C([H])([H])c3c([H])c(OC([H])([H])[H])c([H])c(C4([H])C([H])([H])C([H])([H])N(C(=O)N5C([H])([H])C([H])([H])C([H])([H])C([H])(n6nc(-c7c([H])c([H])c(Oc8c([H])c([H])c(F)c([H])c8F)c([H])c7[H])c(C(=O)N([H])[H])c6N([H])[H])C5([H])[H])C4([H])C([H])(C([H])([H])[H])C([H])([H])[H])c3[H])c([H])c([H])c2C1([H])[H]

>  <smiles>  (28) 
[H]c1c([H])c([H])c2c(c1[H])C([H])([H])C([H])([H])C([H])([H])C2([H])N([H])C(=O)C1([H])N(C(=O)C([H])(N([H])C(=O)C([H])(N([H])C([H])([H])[H])C([H])([H])[H])C(C([H])([H])[H])(C([H])([H])[H])C([H])([H])[H])C([H])([H])c2c([H])c(OC([H])([H])C([H])([H])C([H])([H])c3c([H])c(OC([H])([H])[H])c([H])c(C4([H])C([H])([H])C([H])([H])N(C(=O)N5C([H])([H])C([H])([H])C([H])([H])C([H])(n6nc(-c7c([H])c([H])c(Oc8c([H])c([H])c(F)c([H])c8F)c([H])c7[H])c(C(=O)N([H])[H])c6N([H])[H])C5([H])[H])C4([H])C([H])(C([H])([H])[H])C([H])([H])[H])c3[H])c([H])c([H])c2C1([H])[H]

$$$$
28:0:0
     RDKit          3D

 97106  0  0  1  0  0  0  0  0999 V2000
  -31.2910  -22.6030   16.4370 C   0  0  0  0  0  3  0  0  0  0  0  0
  -32.4170  -21.8380   16.7520 C   0  0  0  0  0  3  0  0  0  0  0  0
  -30.3140  -22.7910   17.4260 C   0  0  0  0  0  3  0  0  0  0  0  0
  -31.3370  -21.0790   18.8920 C   0  0  0  0  0  0  0  0  0  0  0  0
  -31.6570  -19.8240   19.6470 C   0  0  0  0  0  3  0  0  0  0  0  0
  -32.4220  -21.1260   17.9590 C   0  0  0  0  0  0  0  0  0  0  0  0
  -30.4030  -22.1890   18.7180 C   0  0  0  0  0  0  0  0  0  0  0  0
  -33.0330  -19.7510   19.5370 C   0  0  0  0  0  3  0  0  0  0  0  0
  -33.4780  -20.3960   18.4310 O   0  0  0  0  0  0  0  0  0  0  0  0
  -30.8340  -18.7040   20.3560 C   0  0  0  0  0  2  0  0  0  0  0  0
  -31.3490  -17.2260   19.9790 C   0  0  0  0  0  2  0  0  0  0  0  0
  -31.2220  -14.7200   20.1150 C   0  0  0  0  0  0  0  0  0  0  0  0
  -30.7960  -12.5310   19.0510 C   0  0  0  0  0  2  0  0  0  0  0  0
  -29.8580  -12.7310   17.8430 C   0  0  0  0  0  2  0  0  0  0  0  0
  -28.3850  -12.6460   18.2900 C   0  0  0  0  0  2  0  0  0  0  0  0
  -28.0830  -13.5080   19.5470 C   0  0  0  0  0  3  0  0  0  0  0  0
  -29.1530  -13.3350   20.6480 C   0  0  0  0  0  2  0  0  0  0  0  0
  -30.4640  -13.5820   20.0330 N   0  0  0  0  0  0  0  0  0  0  0  0
  -32.4160  -14.6930   19.8160 O   0  0  0  0  0  0  0  0  0  0  0  0
  -30.6060  -15.9420   20.2570 N   0  0  0  0  0  0  0  0  0  0  0  0
  -29.6090  -15.9740   20.3970 H   0  0  0  0  0  0  0  0  0  0  0  0
  -25.7280  -14.1810   20.3140 C   0  0  0  0  0  0  0  0  0  0  0  0
  -24.6380  -13.4450   20.6890 C   0  0  0  0  0  0  0  0  0  0  0  0
  -25.0500  -12.0760   20.6420 C   0  0  0  0  0  0  0  0  0  0  0  0
  -26.7360  -13.2660   20.0560 N   0  0  0  0  0  0  0  0  0  0  0  0
  -26.3350  -11.9950   20.3180 N   0  0  0  0  0  0  0  0  0  0  0  0
  -24.2790  -10.8400   20.8280 C   0  0  0  0  0  0  0  0  0  0  0  0
  -24.6640   -9.8600   21.7700 C   0  0  0  0  0  3  0  0  0  0  0  0
  -23.8930   -8.6910   21.9430 C   0  0  0  0  0  3  0  0  0  0  0  0
  -22.7220   -8.4910   21.1730 C   0  0  0  0  0  0  0  0  0  0  0  0
  -22.3540   -9.4590   20.2210 C   0  0  0  0  0  3  0  0  0  0  0  0
  -23.1270  -10.6200   20.0470 C   0  0  0  0  0  3  0  0  0  0  0  0
  -21.9260   -7.3750   21.2550 O   0  0  0  0  0  0  0  0  0  0  0  0
  -21.8010   -6.6630   22.4220 C   0  0  0  0  0  0  0  0  0  0  0  0
  -21.3630   -7.2690   23.6200 C   0  0  0  0  0  3  0  0  0  0  0  0
  -21.1810   -6.4870   24.7770 C   0  0  0  0  0  3  0  0  0  0  0  0
  -21.4260   -5.1010   24.7380 C   0  0  0  0  0  0  0  0  0  0  0  0
  -21.8570   -4.4950   23.5450 C   0  0  0  0  0  3  0  0  0  0  0  0
  -22.0400   -5.2750   22.3890 C   0  0  0  0  0  0  0  0  0  0  0  0
  -22.4350   -4.6830   21.2360 F   0  0  0  0  0  0  0  0  0  0  0  0
  -21.2440   -4.3470   25.8480 F   0  0  0  0  0  0  0  0  0  0  0  0
  -23.2630  -13.9710   20.9770 C   0  0  0  0  0  0  0  0  0  0  0  0
  -22.5220  -13.3050   21.8540 N   0  0  0  0  0  0  0  0  0  0  0  0
  -22.8560  -15.0110   20.4590 O   0  0  0  0  0  0  0  0  0  0  0  0
  -22.8620  -12.4630   22.2940 H   0  0  0  0  0  0  0  0  0  0  0  0
  -21.5980  -13.6420   22.0920 H   0  0  0  0  0  0  0  0  0  0  0  0
  -25.9430  -15.5460   20.1460 N   0  0  0  0  0  0  0  0  0  0  0  0
  -25.2030  -16.2300   20.2660 H   0  0  0  0  0  0  0  0  0  0  0  0
  -26.8040  -15.9500   19.8000 H   0  0  0  0  0  0  0  0  0  0  0  0
  -34.0970  -19.0350   20.3060 C   0  0  0  0  0  2  0  0  0  0  0  0
  -35.0250  -18.1800   19.4330 C   0  0  0  0  0  2  0  0  0  0  0  0
  -37.1870  -16.8540   19.3900 C   0  0  0  0  0  1  0  0  0  0  0  0
  -36.1100  -17.4950   20.2700 C   0  0  0  0  0  2  0  0  0  0  0  0
  -29.7340  -22.8400   19.7720 O   0  0  0  0  0  0  0  0  0  0  0  0
  -29.4120  -24.2730   19.5500 C   0  0  0  0  0  3  0  0  0  0  0  0
  -28.9290  -25.1900   20.7310 C   0  0  0  0  0  3  0  0  0  0  0  0
  -29.0040  -26.6450   20.4830 O   0  0  0  0  0  0  0  0  0  0  0  0
  -24.8280  -31.8100   23.2680 C   0  0  0  0  0  0  0  0  0  0  0  0
  -27.8240  -27.3830   20.4040 C   0  0  0  0  0  0  0  0  0  0  0  0
  -23.7760  -30.3140   21.6080 C   0  0  0  0  0  3  0  0  0  0  0  0
  -25.3700  -28.8270   20.2720 C   0  0  0  0  0  0  0  0  0  0  0  0
  -26.2950  -30.7830   21.5230 C   0  0  0  0  0  2  0  0  0  0  0  0
  -26.4810  -29.4040   20.9030 C   0  0  0  0  0  0  0  0  0  0  0  0
  -27.7120  -28.6940   20.9560 C   0  0  0  0  0  3  0  0  0  0  0  0
  -26.6940  -26.8480   19.7520 C   0  0  0  0  0  3  0  0  0  0  0  0
  -25.4770  -27.5530   19.6910 C   0  0  0  0  0  3  0  0  0  0  0  0
  -24.0840  -29.6260   20.2520 C   0  0  0  0  0  2  0  0  0  0  0  0
  -24.9830  -30.9880   22.1900 N   0  0  0  0  0  0  0  0  0  0  0  0
  -23.7090  -32.0350   23.7500 O   0  0  0  0  0  0  0  0  0  0  0  0
  -23.1320  -29.2780   22.5580 C   0  0  0  0  0  0  0  0  0  0  0  0
  -21.8240  -29.0290   22.3800 N   0  0  0  0  0  0  0  0  0  0  0  0
  -23.8090  -28.7010   23.4130 O   0  0  0  0  0  0  0  0  0  0  0  0
  -21.3330  -29.5500   21.6660 H   0  0  0  0  0  0  0  0  0  0  0  0
  -18.5010  -27.6490   22.7450 C   0  0  0  0  0  0  0  0  0  0  0  0
  -21.0240  -28.0580   23.1300 C   0  0  0  0  0  3  0  0  0  0  0  0
  -21.2340  -26.6230   22.5920 C   0  0  0  0  0  2  0  0  0  0  0  0
  -20.2030  -26.2210   21.5330 C   0  0  0  0  0  2  0  0  0  0  0  0
  -18.7860  -26.2990   22.1080 C   0  0  0  0  0  2  0  0  0  0  0  0
  -19.5530  -28.4810   23.2090 C   0  0  0  0  0  0  0  0  0  0  0  0
  -19.2370  -29.7430   23.7590 C   0  0  0  0  0  3  0  0  0  0  0  0
  -17.9010  -30.1730   23.8520 C   0  0  0  0  0  3  0  0  0  0  0  0
  -16.8610  -29.3380   23.4070 C   0  0  0  0  0  3  0  0  0  0  0  0
  -17.1610  -28.0780   22.8600 C   0  0  0  0  0  3  0  0  0  0  0  0
  -26.0450  -32.5220   23.9310 C   0  0  0  0  0  3  0  0  0  0  0  0
  -25.6400  -33.9020   24.2360 N   0  0  0  0  0  0  0  0  0  0  0  0
  -25.9350  -34.9670   23.4790 C   0  0  0  0  0  0  0  0  0  0  0  0
  -26.6440  -34.8970   22.4710 O   0  0  0  0  0  0  0  0  0  0  0  0
  -25.0060  -34.0240   25.0110 H   0  0  0  0  0  0  0  0  0  0  0  0
  -24.1070  -36.6440   23.0560 C   0  0  0  0  0  1  0  0  0  0  0  0
  -25.3480  -36.3280   23.9060 C   0  0  0  0  0  3  0  0  0  0  0  0
  -27.4010  -37.3530   24.7780 C   0  0  0  0  0  1  0  0  0  0  0  0
  -26.3150  -37.4430   23.8050 N   0  0  0  0  0  0  0  0  0  0  0  0
  -25.8500  -38.3380   23.9320 H   0  0  0  0  0  0  0  0  0  0  0  0
  -26.5600  -31.7920   25.2320 C   0  0  1  0  0  0  0  0  0  0  0  0
  -25.4450  -31.4940   26.2610 C   0  0  0  0  0  1  0  0  0  0  0  0
  -27.2420  -30.4500   24.8750 C   0  0  0  0  0  1  0  0  0  0  0  0
  -27.6360  -32.6590   25.9280 C   0  0  0  0  0  1  0  0  0  0  0  0
  1  2  2  0
  1  3  1  0
  2  6  1  0
  3  7  2  0
  4  5  1  0
  5 10  1  0
  6  9  1  0
  6  4  2  0
  7  4  1  0
  7 54  1  0
  8  5  1  0
  8 50  1  0
  9  8  1  0
 11 20  1  0
 11 10  1  0
 12 20  1  0
 13 18  1  0
 14 15  1  0
 14 13  1  0
 16 15  1  0
 16 25  1  0
 16 17  1  0
 18 12  1  0
 18 17  1  0
 19 12  2  0
 20 21  1  0
 22 23  2  0
 23 42  1  0
 24 23  1  0
 24 27  1  0
 25 22  1  0
 25 26  1  0
 26 24  2  0
 27 28  1  0
 28 29  2  0
 30 33  1  0
 30 29  1  0
 31 30  2  0
 32 31  1  0
 32 27  2  0
 33 34  1  0
 34 35  1  0
 35 36  2  0
 37 36  1  0
 37 41  1  0
 38 37  2  0
 39 34  2  0
 39 38  1  0
 40 39  1  0
 42 43  1  0
 43 46  1  0
 43 45  1  0
 44 42  2  0
 47 48  1  0
 47 22  1  0
 49 47  1  0
 51 53  1  0
 51 50  1  0
 52 53  1  0
 55 54  1  0
 55 56  2  0
 57 56  1  0
 58 69  2  0
 59 57  1  0
 59 64  1  0
 60 68  1  0
 60 70  1  0
 61 63  1  0
 62 68  1  0
 63 64  2  0
 63 62  1  0
 65 59  2  0
 66 65  1  0
 66 61  2  0
 67 61  1  0
 67 60  1  0
 68 58  1  0
 70 72  2  0
 71 70  1  0
 73 71  1  0
 74 83  2  0
 74 79  1  0
 75 71  1  0
 75 79  1  0
 76 75  1  0
 77 78  1  0
 77 76  1  0
 78 74  1  0
 79 80  2  0
 80 81  1  0
 82 81  2  0
 83 82  1  0
 84 58  1  0
 84 85  1  0
 84 94  1  0
 85 88  1  0
 86 90  1  0
 86 85  1  0
 87 86  2  0
 90 89  1  0
 92 90  1  0
 92 93  1  0
 92 91  1  0
 94 97  1  1
 94 95  1  0
 96 94  1  0
M  ISO  4  12 100  20 100  56 101  57 101
M  END
>  <TORSDO>  (29) 
F 24

>  <SCORE>  (29) 
-11.461

>  <name>  (29) 
28

>  <ligand_id>  (29) 
28

>  <original_smiles>  (29) 
[H]c1c([H])c([H])c2c(c1[H])C([H])([H])C([H])([H])C([H])([H])C2([H])N([H])C(=O)C1([H])N(C(=O)C([H])(N([H])C(=O)C([H])(N([H])C([H])([H])[H])C([H])([H])[H])C(C([H])([H])[H])(C([H])([H])[H])C([H])([H])[H])C([H])([H])c2c([H])c(OC([H])([H])C([H])([H])Oc3c([H])c([H])c([H])c4oc(C([H])([H])C([H])([H])C([H])([H])C([H])([H])[H])c(C([H])([H])C([H])([H])N([H])C(=O)N5C([H])([H])C([H])([H])C([H])([H])C([H])(n6nc(-c7c([H])c([H])c(Oc8c([H])c([H])c(F)c([H])c8F)c([H])c7[H])c(C(=O)N([H])[H])c6N([H])[H])C5([H])[H])c34)c([H])c([H])c2C1([H])[H]

>  <smiles>  (29) 
[H]c1c([H])c([H])c2c(c1[H])C([H])([H])C([H])([H])C([H])([H])C2([H])N([H])C(=O)C1([H])N(C(=O)C([H])(N([H])C(=O)C([H])(N([H])C([H])([H])[H])C([H])([H])[H])C(C([H])([H])[H])(C([H])([H])[H])C([H])([H])[H])C([H])([H])c2c([H])c(OC([H])([H])C([H])([H])Oc3c([H])c([H])c([H])c4oc(C([H])([H])C([H])([H])C([H])([H])C([H])([H])[H])c(C([H])([H])C([H])([H])N([H])C(=O)N5C([H])([H])C([H])([H])C([H])([H])C([H])(n6nc(-c7c([H])c([H])c(Oc8c([H])c([H])c(F)c([H])c8F)c([H])c7[H])c(C(=O)N([H])[H])c6N([H])[H])C5([H])[H])c34)c([H])c([H])c2C1([H])[H]

$$$$
30:0:0
     RDKit          3D

 99108  0  0  1  0  0  0  0  0999 V2000
  -30.0030  -21.8150   18.4500 C   0  0  0  0  0  3  0  0  0  0  0  0
  -29.3060  -21.8090   19.6760 C   0  0  0  0  0  0  0  0  0  0  0  0
  -29.5220  -22.8910   20.5710 C   0  0  0  0  0  0  0  0  0  0  0  0
  -30.8710  -22.8740   18.1530 C   0  0  0  0  0  0  0  0  0  0  0  0
  -30.4190  -23.9140   20.1780 C   0  0  0  0  0  0  0  0  0  0  0  0
  -28.7860  -22.9530   21.9080 C   0  0  0  0  0  1  0  0  0  0  0  0
  -31.6090  -22.9260   16.8320 C   0  0  0  0  0  1  0  0  0  0  0  0
  -31.0850  -23.8910   19.0060 N   0  0  0  0  0  0  0  0  0  0  0  0
  -27.2110  -20.6660   18.9060 C   0  0  0  0  0  1  0  0  0  0  0  0
  -28.3430  -20.6480   19.9580 C   0  0  0  0  0  3  0  0  0  0  0  0
  -29.1390  -19.3190   20.0970 C   0  0  0  0  0  2  0  0  0  0  0  0
  -30.8500  -14.5010   20.0610 C   0  0  0  0  0  0  0  0  0  0  0  0
  -30.5100  -12.3570   18.9230 C   0  0  0  0  0  2  0  0  0  0  0  0
  -29.5070  -12.5960   17.7740 C   0  0  0  0  0  2  0  0  0  0  0  0
  -28.0530  -12.4640   18.2730 C   0  0  0  0  0  2  0  0  0  0  0  0
  -27.7850  -13.2560   19.5800 C   0  0  0  0  0  3  0  0  0  0  0  0
  -28.8990  -13.0250   20.6250 C   0  0  0  0  0  2  0  0  0  0  0  0
  -30.1900  -13.3190   19.9830 N   0  0  0  0  0  0  0  0  0  0  0  0
  -32.0150  -14.6540   19.6710 O   0  0  0  0  0  0  0  0  0  0  0  0
  -28.6300  -17.1530   21.4090 C   0  0  0  0  0  2  0  0  0  0  0  0
  -29.9760  -16.3990   21.3380 C   0  0  0  0  0  2  0  0  0  0  0  0
  -29.8990  -16.3990   18.9200 C   0  0  0  0  0  2  0  0  0  0  0  0
  -28.3250  -17.9950   20.1420 C   0  0  0  0  0  3  0  0  0  0  0  0
  -28.5310  -17.1100   18.8810 C   0  0  0  0  0  3  0  0  0  0  0  0
  -28.3110  -17.8140   17.5330 C   0  0  0  0  0  1  0  0  0  0  0  0
  -30.0290  -15.5730   20.1290 N   0  0  0  0  0  0  0  0  0  0  0  0
  -25.4200  -13.8620   20.4040 C   0  0  0  0  0  0  0  0  0  0  0  0
  -24.3710  -13.0840   20.8120 C   0  0  0  0  0  0  0  0  0  0  0  0
  -24.8350  -11.7340   20.7460 C   0  0  0  0  0  0  0  0  0  0  0  0
  -26.4570  -12.9850   20.1200 N   0  0  0  0  0  0  0  0  0  0  0  0
  -26.1090  -11.7000   20.3810 N   0  0  0  0  0  0  0  0  0  0  0  0
  -24.1220  -10.4680   20.9530 C   0  0  0  0  0  0  0  0  0  0  0  0
  -24.5680   -9.5210   21.9010 C   0  0  0  0  0  3  0  0  0  0  0  0
  -23.8590   -8.3150   22.0940 C   0  0  0  0  0  3  0  0  0  0  0  0
  -22.6920   -8.0510   21.3400 C   0  0  0  0  0  0  0  0  0  0  0  0
  -22.2660   -8.9880   20.3830 C   0  0  0  0  0  3  0  0  0  0  0  0
  -22.9750  -10.1850   20.1870 C   0  0  0  0  0  3  0  0  0  0  0  0
  -21.9520   -6.8990   21.4430 O   0  0  0  0  0  0  0  0  0  0  0  0
  -21.8640   -6.2030   22.6230 C   0  0  0  0  0  0  0  0  0  0  0  0
  -21.3750   -6.8010   23.8040 C   0  0  0  0  0  3  0  0  0  0  0  0
  -21.2370   -6.0310   24.9760 C   0  0  0  0  0  3  0  0  0  0  0  0
  -21.5760   -4.6640   24.9660 C   0  0  0  0  0  0  0  0  0  0  0  0
  -22.0560   -4.0670   23.7870 C   0  0  0  0  0  3  0  0  0  0  0  0
  -22.1970   -4.8350   22.6180 C   0  0  0  0  0  0  0  0  0  0  0  0
  -22.6420   -4.2490   21.4790 F   0  0  0  0  0  0  0  0  0  0  0  0
  -21.4350   -3.9210   26.0880 F   0  0  0  0  0  0  0  0  0  0  0  0
  -22.9860  -13.5540   21.1530 C   0  0  0  0  0  0  0  0  0  0  0  0
  -22.3050  -12.8550   22.0520 N   0  0  0  0  0  0  0  0  0  0  0  0
  -22.5180  -14.5780   20.6570 O   0  0  0  0  0  0  0  0  0  0  0  0
  -22.6970  -12.0290   22.4790 H   0  0  0  0  0  0  0  0  0  0  0  0
  -21.3780  -13.1530   22.3210 H   0  0  0  0  0  0  0  0  0  0  0  0
  -25.5680  -15.2330   20.2350 N   0  0  0  0  0  0  0  0  0  0  0  0
  -24.8060  -15.8830   20.3990 H   0  0  0  0  0  0  0  0  0  0  0  0
  -26.4170  -15.6840   19.9220 H   0  0  0  0  0  0  0  0  0  0  0  0
  -30.6870  -24.9970   21.0180 N   0  0  0  0  0  0  0  0  0  0  0  0
  -30.1570  -25.0050   21.8800 H   0  0  0  0  0  0  0  0  0  0  0  0
  -30.8990  -26.3190   20.4300 C   0  0  0  0  0  2  0  0  0  0  0  0
  -29.7200  -27.2530   20.7090 C   0  0  0  0  0  2  0  0  0  0  0  0
  -28.5440  -26.7360   20.0880 O   0  0  0  0  0  0  0  0  0  0  0  0
  -24.6860  -31.8760   23.2220 C   0  0  0  0  0  0  0  0  0  0  0  0
  -27.3920  -27.4870   20.1540 C   0  0  0  0  0  0  0  0  0  0  0  0
  -23.4890  -30.4650   21.5760 C   0  0  0  0  0  3  0  0  0  0  0  0
  -24.9580  -28.9310   20.1610 C   0  0  0  0  0  0  0  0  0  0  0  0
  -26.0040  -30.8540   21.3750 C   0  0  0  0  0  2  0  0  0  0  0  0
  -26.1020  -29.4820   20.7500 C   0  0  0  0  0  0  0  0  0  0  0  0
  -27.3170  -28.7680   20.7530 C   0  0  0  0  0  3  0  0  0  0  0  0
  -26.2280  -26.9420   19.5710 C   0  0  0  0  0  3  0  0  0  0  0  0
  -25.0130  -27.6560   19.5730 C   0  0  0  0  0  3  0  0  0  0  0  0
  -23.7040  -29.7750   20.2000 C   0  0  0  0  0  2  0  0  0  0  0  0
  -24.7440  -31.0790   22.1170 N   0  0  0  0  0  0  0  0  0  0  0  0
  -23.6030  -32.1440   23.7590 O   0  0  0  0  0  0  0  0  0  0  0  0
  -22.8450  -29.4420   22.5400 C   0  0  0  0  0  0  0  0  0  0  0  0
  -21.5200  -29.2600   22.4170 N   0  0  0  0  0  0  0  0  0  0  0  0
  -23.5310  -28.8160   23.3500 O   0  0  0  0  0  0  0  0  0  0  0  0
  -21.0270  -29.8170   21.7320 H   0  0  0  0  0  0  0  0  0  0  0  0
  -18.1460  -28.0830   22.9300 C   0  0  0  0  0  0  0  0  0  0  0  0
  -20.7050  -28.3210   23.1870 C   0  0  0  0  0  3  0  0  0  0  0  0
  -20.7960  -26.8930   22.6020 C   0  0  0  0  0  2  0  0  0  0  0  0
  -19.6850  -26.5860   21.5920 C   0  0  0  0  0  2  0  0  0  0  0  0
  -18.3090  -26.7360   22.2460 C   0  0  0  0  0  2  0  0  0  0  0  0
  -19.2720  -28.8350   23.3570 C   0  0  0  0  0  0  0  0  0  0  0  0
  -19.0650  -30.0970   23.9540 C   0  0  0  0  0  3  0  0  0  0  0  0
  -17.7650  -30.6070   24.1310 C   0  0  0  0  0  3  0  0  0  0  0  0
  -16.6530  -29.8490   23.7210 C   0  0  0  0  0  3  0  0  0  0  0  0
  -16.8440  -28.5900   23.1260 C   0  0  0  0  0  3  0  0  0  0  0  0
  -25.9690  -32.5110   23.8430 C   0  0  0  0  0  3  0  0  0  0  0  0
  -25.6500  -33.9030   24.1890 N   0  0  0  0  0  0  0  0  0  0  0  0
  -25.9630  -34.9640   23.4340 C   0  0  0  0  0  0  0  0  0  0  0  0
  -26.6250  -34.8770   22.3960 O   0  0  0  0  0  0  0  0  0  0  0  0
  -25.0610  -34.0440   24.9970 H   0  0  0  0  0  0  0  0  0  0  0  0
  -24.2140  -36.7390   23.1090 C   0  0  0  0  0  1  0  0  0  0  0  0
  -25.4650  -36.3430   23.9060 C   0  0  0  0  0  3  0  0  0  0  0  0
  -27.5990  -37.2460   24.7230 C   0  0  0  0  0  1  0  0  0  0  0  0
  -26.4860  -37.4080   23.7900 N   0  0  0  0  0  0  0  0  0  0  0  0
  -26.0710  -38.3220   23.9470 H   0  0  0  0  0  0  0  0  0  0  0  0
  -26.5060  -31.7290   25.1030 C   0  0  1  0  0  0  0  0  0  0  0  0
  -25.4250  -31.4660   26.1770 C   0  0  0  0  0  1  0  0  0  0  0  0
  -27.1020  -30.3640   24.6850 C   0  0  0  0  0  1  0  0  0  0  0  0
  -27.6550  -32.5250   25.7640 C   0  0  0  0  0  1  0  0  0  0  0  0
  1  2  1  0
  2 10  1  0
  2  3  2  0
  3  6  1  0
  4  1  2  0
  4  8  1  0
  5  3  1  0
  5 55  1  0
  7  4  1  0
  8  5  2  0
 10  9  1  0
 10 11  1  0
 12 26  1  0
 13 18  1  0
 14 15  1  0
 14 13  1  0
 16 15  1  0
 16 30  1  0
 16 17  1  0
 18 12  1  0
 18 17  1  0
 19 12  2  0
 21 20  1  0
 22 26  1  0
 23 11  1  0
 23 20  1  0
 24 25  1  0
 24 22  1  0
 24 23  1  0
 26 21  1  0
 27 28  2  0
 28 47  1  0
 29 28  1  0
 29 32  1  0
 30 31  1  0
 30 27  1  0
 31 29  2  0
 32 33  1  0
 33 34  2  0
 35 38  1  0
 35 34  1  0
 36 35  2  0
 37 36  1  0
 37 32  2  0
 38 39  1  0
 39 40  1  0
 40 41  2  0
 42 41  1  0
 42 46  1  0
 43 42  2  0
 44 39  2  0
 44 43  1  0
 45 44  1  0
 47 48  1  0
 48 51  1  0
 48 50  1  0
 49 47  2  0
 52 53  1  0
 52 27  1  0
 54 52  1  0
 55 56  1  0
 57 58  1  0
 57 55  1  0
 59 61  1  0
 59 58  1  0
 60 71  2  0
 61 66  1  0
 62 70  1  0
 62 72  1  0
 63 69  1  0
 63 65  1  0
 64 70  1  0
 65 66  2  0
 65 64  1  0
 67 68  1  0
 67 61  2  0
 68 63  2  0
 69 62  1  0
 70 60  1  0
 72 74  2  0
 73 72  1  0
 75 73  1  0
 76 85  2  0
 76 81  1  0
 77 73  1  0
 77 81  1  0
 78 77  1  0
 79 80  1  0
 79 78  1  0
 80 76  1  0
 81 82  2  0
 82 83  1  0
 84 83  2  0
 85 84  1  0
 86 60  1  0
 86 87  1  0
 86 96  1  0
 87 90  1  0
 88 92  1  0
 88 87  1  0
 89 88  2  0
 92 91  1  0
 94 92  1  0
 94 95  1  0
 94 93  1  0
 96 99  1  1
 96 97  1  0
 98 96  1  0
M  ISO  4  12 100  26 100  58 101  59 101
M  END
>  <TORSDO>  (30) 
F 21

>  <SCORE>  (30) 
-12.901

>  <name>  (30) 
30

>  <ligand_id>  (30) 
30

>  <original_smiles>  (30) 
[H]c1c([H])c([H])c2c(c1[H])C([H])([H])C([H])([H])C([H])([H])C2([H])N([H])C(=O)C1([H])N(C(=O)C([H])(N([H])C(=O)C([H])(N([H])C([H])([H])[H])C([H])([H])[H])C(C([H])([H])[H])(C([H])([H])[H])C([H])([H])[H])C([H])([H])c2c([H])c(OC([H])([H])C([H])([H])N([H])c3nc(C([H])([H])[H])c([H])c(C([H])(C([H])([H])[H])C([H])([H])C4([H])C([H])([H])C([H])([H])N(C(=O)N5C([H])([H])C([H])([H])C([H])([H])C([H])(n6nc(-c7c([H])c([H])c(Oc8c([H])c([H])c(F)c([H])c8F)c([H])c7[H])c(C(=O)N([H])[H])c6N([H])[H])C5([H])[H])C([H])([H])C4([H])C([H])([H])[H])c3C([H])([H])[H])c([H])c([H])c2C1([H])[H]

>  <smiles>  (30) 
[H]c1c([H])c([H])c2c(c1[H])C([H])([H])C([H])([H])C([H])([H])C2([H])N([H])C(=O)C1([H])N(C(=O)C([H])(N([H])C(=O)C([H])(N([H])C([H])([H])[H])C([H])([H])[H])C(C([H])([H])[H])(C([H])([H])[H])C([H])([H])[H])C([H])([H])c2c([H])c(OC([H])([H])C([H])([H])N([H])c3nc(C([H])([H])[H])c([H])c(C([H])(C([H])([H])[H])C([H])([H])C4([H])C([H])([H])C([H])([H])N(C(=O)N5C([H])([H])C([H])([H])C([H])([H])C([H])(n6nc(-c7c([H])c([H])c(Oc8c([H])c([H])c(F)c([H])c8F)c([H])c7[H])c(C(=O)N([H])[H])c6N([H])[H])C5([H])[H])C([H])([H])C4([H])C([H])([H])[H])c3C([H])([H])[H])c([H])c([H])c2C1([H])[H]

$$$$
31:0:0
     RDKit          3D

 97106  0  0  1  0  0  0  0  0999 V2000
  -28.1720  -20.9010   20.4590 C   0  0  0  0  0  2  0  0  0  0  0  0
  -29.0040  -20.7610   21.7120 C   0  0  0  0  0  3  0  0  0  0  0  0
  -28.2140  -22.0510   21.4310 C   0  0  0  0  0  3  0  0  0  0  0  0
  -28.0560  -20.0730   23.9470 C   0  0  0  0  0  3  0  0  0  0  0  0
  -27.5120  -19.1260   24.8350 C   0  0  0  0  0  3  0  0  0  0  0  0
  -27.9210  -17.3750   23.2030 C   0  0  0  0  0  3  0  0  0  0  0  0
  -28.5440  -19.6890   22.6780 C   0  0  0  0  0  0  0  0  0  0  0  0
  -28.5440  -18.3020   22.3380 C   0  0  0  0  0  0  0  0  0  0  0  0
  -27.3890  -17.7830   24.4440 C   0  0  0  0  0  0  0  0  0  0  0  0
  -25.6880  -16.1890   24.7210 C   0  0  0  0  0  1  0  0  0  0  0  0
  -26.7790  -16.8980   25.2960 O   0  0  0  0  0  0  0  0  0  0  0  0
  -29.1980  -17.7730   21.0600 C   0  0  0  0  0  2  0  0  0  0  0  0
  -30.3900  -16.8140   21.3140 C   0  0  0  0  0  2  0  0  0  0  0  0
  -30.7050  -14.4310   20.6080 C   0  0  0  0  0  0  0  0  0  0  0  0
  -30.4250  -12.2950   19.4120 C   0  0  0  0  0  2  0  0  0  0  0  0
  -29.4920  -12.5090   18.2010 C   0  0  0  0  0  2  0  0  0  0  0  0
  -28.0160  -12.3500   18.6160 C   0  0  0  0  0  2  0  0  0  0  0  0
  -27.6660  -13.1860   19.8750 C   0  0  0  0  0  3  0  0  0  0  0  0
  -28.7050  -12.9440   20.9960 C   0  0  0  0  0  2  0  0  0  0  0  0
  -30.0380  -13.2570   20.4540 N   0  0  0  0  0  0  0  0  0  0  0  0
  -31.8110  -14.6490   20.1060 O   0  0  0  0  0  0  0  0  0  0  0  0
  -30.0160  -15.3970   21.2430 N   0  0  0  0  0  0  0  0  0  0  0  0
  -29.1250  -15.1320   21.6300 H   0  0  0  0  0  0  0  0  0  0  0  0
  -25.2650  -13.8180   20.5590 C   0  0  0  0  0  0  0  0  0  0  0  0
  -24.1880  -13.0490   20.9150 C   0  0  0  0  0  0  0  0  0  0  0  0
  -24.6390  -11.6940   20.8730 C   0  0  0  0  0  0  0  0  0  0  0  0
  -26.3030  -12.9260   20.3320 N   0  0  0  0  0  0  0  0  0  0  0  0
  -25.9290  -11.6460   20.5720 N   0  0  0  0  0  0  0  0  0  0  0  0
  -23.9050  -10.4330   21.0410 C   0  0  0  0  0  0  0  0  0  0  0  0
  -24.3600   -9.4250   21.9180 C   0  0  0  0  0  3  0  0  0  0  0  0
  -23.6300   -8.2280   22.0740 C   0  0  0  0  0  3  0  0  0  0  0  0
  -22.4280   -8.0300   21.3540 C   0  0  0  0  0  0  0  0  0  0  0  0
  -21.9910   -9.0290   20.4650 C   0  0  0  0  0  3  0  0  0  0  0  0
  -22.7220  -10.2180   20.3060 C   0  0  0  0  0  3  0  0  0  0  0  0
  -21.6640   -6.8900   21.4240 O   0  0  0  0  0  0  0  0  0  0  0  0
  -21.6890   -6.0760   22.5280 C   0  0  0  0  0  0  0  0  0  0  0  0
  -21.4040   -6.5660   23.8210 C   0  0  0  0  0  3  0  0  0  0  0  0
  -21.3600   -5.6790   24.9150 C   0  0  0  0  0  3  0  0  0  0  0  0
  -21.6020   -4.3060   24.7200 C   0  0  0  0  0  0  0  0  0  0  0  0
  -21.8870   -3.8180   23.4340 C   0  0  0  0  0  3  0  0  0  0  0  0
  -21.9220   -4.6990   22.3390 C   0  0  0  0  0  0  0  0  0  0  0  0
  -22.1690   -4.2190   21.0970 F   0  0  0  0  0  0  0  0  0  0  0  0
  -21.5530   -3.4540   25.7720 F   0  0  0  0  0  0  0  0  0  0  0  0
  -22.7910  -13.5300   21.1790 C   0  0  0  0  0  0  0  0  0  0  0  0
  -22.0580  -12.8280   22.0360 N   0  0  0  0  0  0  0  0  0  0  0  0
  -22.3570  -14.5580   20.6640 O   0  0  0  0  0  0  0  0  0  0  0  0
  -22.4230  -11.9950   22.4740 H   0  0  0  0  0  0  0  0  0  0  0  0
  -21.1270  -13.1390   22.2680 H   0  0  0  0  0  0  0  0  0  0  0  0
  -25.4510  -15.1860   20.3880 N   0  0  0  0  0  0  0  0  0  0  0  0
  -24.7030  -15.8630   20.4920 H   0  0  0  0  0  0  0  0  0  0  0  0
  -26.2890  -15.5900   19.9890 H   0  0  0  0  0  0  0  0  0  0  0  0
  -28.9090  -23.1840   20.7700 N   0  0  0  0  0  4  0  0  0  0  0  0
  -29.0140  -22.9310   19.8020 H   0  0  0  0  0  0  0  0  0  0  0  0
  -29.8370  -23.3050   21.1510 H   0  0  0  0  0  0  0  0  0  0  0  0
  -28.1820  -24.4800   20.8320 C   0  0  0  0  0  2  0  0  0  0  0  0
  -28.6260  -25.4550   19.7170 C   0  0  0  0  0  2  0  0  0  0  0  0
  -28.4750  -26.8190   20.1090 O   0  0  0  0  0  0  0  0  0  0  0  0
  -24.6100  -31.8720   23.2090 C   0  0  0  0  0  0  0  0  0  0  0  0
  -27.2520  -27.4570   20.0990 C   0  0  0  0  0  0  0  0  0  0  0  0
  -23.3940  -30.4900   21.5520 C   0  0  0  0  0  3  0  0  0  0  0  0
  -24.8430  -28.9480   20.1190 C   0  0  0  0  0  0  0  0  0  0  0  0
  -25.9160  -30.8420   21.3540 C   0  0  0  0  0  2  0  0  0  0  0  0
  -25.9970  -29.4740   20.7100 C   0  0  0  0  0  0  0  0  0  0  0  0
  -27.1970  -28.7340   20.6980 C   0  0  0  0  0  3  0  0  0  0  0  0
  -26.0770  -26.9290   19.5150 C   0  0  0  0  0  3  0  0  0  0  0  0
  -24.8780  -27.6750   19.5200 C   0  0  0  0  0  3  0  0  0  0  0  0
  -23.6020  -29.8120   20.1680 C   0  0  0  0  0  2  0  0  0  0  0  0
  -24.6590  -31.0820   22.0990 N   0  0  0  0  0  0  0  0  0  0  0  0
  -23.5310  -32.1480   23.7500 O   0  0  0  0  0  0  0  0  0  0  0  0
  -22.7360  -29.4690   22.5040 C   0  0  0  0  0  0  0  0  0  0  0  0
  -21.4100  -29.3030   22.3750 N   0  0  0  0  0  0  0  0  0  0  0  0
  -23.4150  -28.8260   23.3090 O   0  0  0  0  0  0  0  0  0  0  0  0
  -20.9250  -29.8750   21.6980 H   0  0  0  0  0  0  0  0  0  0  0  0
  -18.0280  -28.1370   22.8520 C   0  0  0  0  0  0  0  0  0  0  0  0
  -20.5850  -28.3660   23.1340 C   0  0  0  0  0  3  0  0  0  0  0  0
  -20.6740  -26.9400   22.5420 C   0  0  0  0  0  2  0  0  0  0  0  0
  -19.5730  -26.6400   21.5200 C   0  0  0  0  0  2  0  0  0  0  0  0
  -18.1920  -26.7920   22.1630 C   0  0  0  0  0  2  0  0  0  0  0  0
  -19.1520  -28.8840   23.2940 C   0  0  0  0  0  0  0  0  0  0  0  0
  -18.9460  -30.1430   23.8950 C   0  0  0  0  0  3  0  0  0  0  0  0
  -17.6460  -30.6600   24.0570 C   0  0  0  0  0  3  0  0  0  0  0  0
  -16.5350  -29.9100   23.6320 C   0  0  0  0  0  3  0  0  0  0  0  0
  -16.7270  -28.6510   23.0360 C   0  0  0  0  0  3  0  0  0  0  0  0
  -25.9010  -32.4850   23.8390 C   0  0  0  0  0  3  0  0  0  0  0  0
  -25.5890  -33.8640   24.2340 N   0  0  0  0  0  0  0  0  0  0  0  0
  -25.9020  -34.9490   23.5140 C   0  0  0  0  0  0  0  0  0  0  0  0
  -26.5580  -34.8940   22.4700 O   0  0  0  0  0  0  0  0  0  0  0  0
  -25.0060  -33.9810   25.0500 H   0  0  0  0  0  0  0  0  0  0  0  0
  -24.1470  -36.7280   23.2640 C   0  0  0  0  0  1  0  0  0  0  0  0
  -25.4090  -36.3120   24.0350 C   0  0  0  0  0  3  0  0  0  0  0  0
  -27.5570  -37.1790   24.8480 C   0  0  0  0  0  1  0  0  0  0  0  0
  -26.4280  -37.3800   23.9430 N   0  0  0  0  0  0  0  0  0  0  0  0
  -26.0170  -38.2870   24.1480 H   0  0  0  0  0  0  0  0  0  0  0  0
  -26.4450  -31.6620   25.0690 C   0  0  1  0  0  0  0  0  0  0  0  0
  -25.3750  -31.3680   26.1460 C   0  0  0  0  0  1  0  0  0  0  0  0
  -27.0250  -30.3090   24.5960 C   0  0  0  0  0  1  0  0  0  0  0  0
  -27.6050  -32.4300   25.7440 C   0  0  0  0  0  1  0  0  0  0  0  0
  1  3  1  0
  1  2  1  0
  2  7  1  0
  3 52  1  0
  3  2  1  0
  4  5  1  0
  6  9  1  0
  7  4  2  0
  8  7  1  0
  8  6  2  0
  9  5  2  0
  9 11  1  0
 10 11  1  0
 12 13  1  0
 12  8  1  0
 14 22  1  0
 15 20  1  0
 16 17  1  0
 16 15  1  0
 18 17  1  0
 18 27  1  0
 18 19  1  0
 20 14  1  0
 20 19  1  0
 21 14  2  0
 22 13  1  0
 22 23  1  0
 24 25  2  0
 25 44  1  0
 26 25  1  0
 26 29  1  0
 27 24  1  0
 27 28  1  0
 28 26  2  0
 29 30  1  0
 30 31  2  0
 32 35  1  0
 32 31  1  0
 33 32  2  0
 34 33  1  0
 34 29  2  0
 35 36  1  0
 36 37  1  0
 37 38  2  0
 39 38  1  0
 39 43  1  0
 40 39  2  0
 41 36  2  0
 41 40  1  0
 42 41  1  0
 44 45  1  0
 45 48  1  0
 45 47  1  0
 46 44  2  0
 49 50  1  0
 49 24  1  0
 51 49  1  0
 52 55  1  0
 52 54  1  0
 53 52  1  0
 56 57  1  0
 56 55  1  0
 58 69  2  0
 59 57  1  0
 59 64  1  0
 60 68  1  0
 60 70  1  0
 61 67  1  0
 61 63  1  0
 62 68  1  0
 63 62  1  0
 64 63  2  0
 65 66  1  0
 65 59  2  0
 66 61  2  0
 67 60  1  0
 68 58  1  0
 70 72  2  0
 71 70  1  0
 73 71  1  0
 74 83  2  0
 74 79  1  0
 75 71  1  0
 75 79  1  0
 76 75  1  0
 77 78  1  0
 77 76  1  0
 78 74  1  0
 79 80  2  0
 80 81  1  0
 82 81  2  0
 83 82  1  0
 84 58  1  0
 84 85  1  0
 84 94  1  0
 85 88  1  0
 86 90  1  0
 86 85  1  0
 87 86  2  0
 90 89  1  0
 92 90  1  0
 92 93  1  0
 92 91  1  0
 94 97  1  1
 94 95  1  0
 96 94  1  0
M  ISO  4  14 100  22 100  56 101  57 101
M  END
>  <TORSDO>  (31) 
F 23

>  <SCORE>  (31) 
37.194

>  <name>  (31) 
31

>  <ligand_id>  (31) 
31

>  <original_smiles>  (31) 
[H]c1c([H])c([H])c2c(c1[H])C([H])([H])C([H])([H])C([H])([H])C2([H])N([H])C(=O)C1([H])N(C(=O)C([H])(N([H])C(=O)C([H])(N([H])C([H])([H])[H])C([H])([H])[H])C(C([H])([H])[H])(C([H])([H])[H])C([H])([H])[H])C([H])([H])c2c([H])c(OC([H])([H])C([H])([H])[N+]([H])([H])C3([H])C([H])([H])C3([H])c3c([H])c([H])c(OC([H])([H])[H])c([H])c3C([H])([H])C([H])([H])N([H])C(=O)N3C([H])([H])C([H])([H])C([H])([H])C([H])(n4nc(-c5c([H])c([H])c(Oc6c([H])c([H])c(F)c([H])c6F)c([H])c5[H])c(C(=O)N([H])[H])c4N([H])[H])C3([H])[H])c([H])c([H])c2C1([H])[H]

>  <smiles>  (31) 
[H]c1c([H])c([H])c2c(c1[H])C([H])([H])C([H])([H])C([H])([H])C2([H])N([H])C(=O)C1([H])N(C(=O)C([H])(N([H])C(=O)C([H])(N([H])C([H])([H])[H])C([H])([H])[H])C(C([H])([H])[H])(C([H])([H])[H])C([H])([H])[H])C([H])([H])c2c([H])c(OC([H])([H])C([H])([H])[N+]([H])([H])C3([H])C([H])([H])C3([H])c3c([H])c([H])c(OC([H])([H])[H])c([H])c3C([H])([H])C([H])([H])N([H])C(=O)N3C([H])([H])C([H])([H])C([H])([H])C([H])(n4nc(-c5c([H])c([H])c(Oc6c([H])c([H])c(F)c([H])c6F)c([H])c5[H])c(C(=O)N([H])[H])c4N([H])[H])C3([H])[H])c([H])c([H])c2C1([H])[H]

$$$$
32:0:0
     RDKit          3D

 95104  0  0  1  0  0  0  0  0999 V2000
  -30.4770  -21.0700   20.4110 C   0  0  0  0  0  0  0  0  0  0  0  0
  -29.5890  -20.0060   20.0000 C   0  0  0  0  0  0  0  0  0  0  0  0
  -31.7130  -20.7390   21.0300 C   0  0  0  0  0  0  0  0  0  0  0  0
  -31.9340  -19.4210   21.4780 C   0  0  0  0  0  0  0  0  0  0  0  0
  -30.0510  -18.4710   20.1120 C   0  0  0  0  0  0  0  0  0  0  0  0
  -31.1150  -18.3540   21.0600 C   0  0  0  0  0  0  0  0  0  0  0  0
  -28.3250  -21.0240   19.5780 C   0  0  0  0  0  2  0  0  0  0  0  0
  -28.4710  -22.7020   20.0750 C   0  0  0  0  0  3  0  0  0  0  0  0
  -30.0270  -22.5940   20.1460 C   0  0  1  0  0  0  0  0  0  0  0  0
  -32.8200  -21.7610   21.2710 C   0  0  0  0  0  1  0  0  0  0  0  0
  -33.0870  -19.1240   22.4420 C   0  0  0  0  0  1  0  0  0  0  0  0
  -30.4400  -23.6110   21.2420 C   0  0  0  0  0  1  0  0  0  0  0  0
  -30.5850  -23.0370   18.7780 C   0  0  0  0  0  1  0  0  0  0  0  0
  -30.4740  -15.6390   19.5550 C   0  0  0  0  0  0  0  0  0  0  0  0
  -30.4460  -13.1610   18.7170 C   0  0  0  0  0  2  0  0  0  0  0  0
  -29.4090  -12.8470   17.6110 C   0  0  0  0  0  2  0  0  0  0  0  0
  -28.0350  -12.5280   18.2240 C   0  0  0  0  0  2  0  0  0  0  0  0
  -27.6690  -13.5130   19.3620 C   0  0  0  0  0  3  0  0  0  0  0  0
  -28.8270  -13.7620   20.3500 C   0  0  0  0  0  2  0  0  0  0  0  0
  -29.9310  -14.3170   19.5510 N   0  0  0  0  0  0  0  0  0  0  0  0
  -31.6760  -15.6270   19.2420 O   0  0  0  0  0  0  0  0  0  0  0  0
  -29.7080  -16.9400   19.6460 N   0  0  0  0  0  0  0  0  0  0  0  0
  -28.7210  -16.7930   19.4970 H   0  0  0  0  0  0  0  0  0  0  0  0
  -25.4470  -14.0260   20.4940 C   0  0  0  0  0  0  0  0  0  0  0  0
  -24.4300  -13.2320   20.9430 C   0  0  0  0  0  0  0  0  0  0  0  0
  -24.8560  -11.8830   20.7310 C   0  0  0  0  0  0  0  0  0  0  0  0
  -26.4240  -13.1650   20.0310 N   0  0  0  0  0  0  0  0  0  0  0  0
  -26.0910  -11.8630   20.2380 N   0  0  0  0  0  0  0  0  0  0  0  0
  -24.1320  -10.6190   20.9120 C   0  0  0  0  0  0  0  0  0  0  0  0
  -24.5920   -9.6250   21.8030 C   0  0  0  0  0  3  0  0  0  0  0  0
  -23.8650   -8.4260   21.9760 C   0  0  0  0  0  3  0  0  0  0  0  0
  -22.6640   -8.2150   21.2590 C   0  0  0  0  0  0  0  0  0  0  0  0
  -22.2220   -9.1990   20.3560 C   0  0  0  0  0  3  0  0  0  0  0  0
  -22.9490  -10.3880   20.1810 C   0  0  0  0  0  3  0  0  0  0  0  0
  -21.9050   -7.0710   21.3430 O   0  0  0  0  0  0  0  0  0  0  0  0
  -21.7940   -6.3670   22.5150 C   0  0  0  0  0  0  0  0  0  0  0  0
  -21.2470   -6.9450   23.6820 C   0  0  0  0  0  3  0  0  0  0  0  0
  -21.0860   -6.1640   24.8440 C   0  0  0  0  0  3  0  0  0  0  0  0
  -21.4620   -4.8090   24.8410 C   0  0  0  0  0  0  0  0  0  0  0  0
  -22.0020   -4.2310   23.6780 C   0  0  0  0  0  3  0  0  0  0  0  0
  -22.1640   -5.0080   22.5180 C   0  0  0  0  0  0  0  0  0  0  0  0
  -22.6650   -4.4410   21.3940 F   0  0  0  0  0  0  0  0  0  0  0  0
  -21.3020   -4.0560   25.9550 F   0  0  0  0  0  0  0  0  0  0  0  0
  -23.0960  -13.7010   21.4390 C   0  0  0  0  0  0  0  0  0  0  0  0
  -22.4830  -12.9530   22.3510 N   0  0  0  0  0  0  0  0  0  0  0  0
  -22.6090  -14.7630   21.0560 O   0  0  0  0  0  0  0  0  0  0  0  0
  -22.8930  -12.0900   22.6810 H   0  0  0  0  0  0  0  0  0  0  0  0
  -21.5930  -13.2460   22.7250 H   0  0  0  0  0  0  0  0  0  0  0  0
  -25.6120  -15.4050   20.4110 N   0  0  0  0  0  0  0  0  0  0  0  0
  -24.8770  -16.0500   20.6820 H   0  0  0  0  0  0  0  0  0  0  0  0
  -26.3990  -15.8660   19.9740 H   0  0  0  0  0  0  0  0  0  0  0  0
  -30.5710  -16.8860   22.7970 C   0  0  0  0  0  1  0  0  0  0  0  0
  -31.3850  -17.1450   21.6570 O   0  0  0  0  0  0  0  0  0  0  0  0
  -27.6790  -24.3050   19.6150 C   0  0  0  0  0  2  0  0  0  0  0  0
  -27.8360  -25.9420   19.9450 O   0  0  0  0  0  0  0  0  0  0  0  0
  -24.5180  -31.9600   23.1640 C   0  0  0  0  0  0  0  0  0  0  0  0
  -26.8370  -27.0680   19.9240 C   0  0  0  0  0  0  0  0  0  0  0  0
  -23.2090  -30.5730   21.6080 C   0  0  0  0  0  3  0  0  0  0  0  0
  -24.5480  -28.9800   20.0620 C   0  0  0  0  0  0  0  0  0  0  0  0
  -25.7600  -30.7760   21.2810 C   0  0  0  0  0  2  0  0  0  0  0  0
  -25.7790  -29.3670   20.6060 C   0  0  0  0  0  0  0  0  0  0  0  0
  -26.9100  -28.4310   20.5170 C   0  0  0  0  0  3  0  0  0  0  0  0
  -25.5770  -26.8500   19.3220 C   0  0  0  0  0  3  0  0  0  0  0  0
  -24.4740  -27.7440   19.3970 C   0  0  0  0  0  3  0  0  0  0  0  0
  -23.3380  -29.9030   20.2120 C   0  0  0  0  0  2  0  0  0  0  0  0
  -24.5210  -31.1330   22.0680 N   0  0  0  0  0  0  0  0  0  0  0  0
  -23.4710  -32.2460   23.7650 O   0  0  0  0  0  0  0  0  0  0  0  0
  -22.5880  -29.5700   22.6160 C   0  0  0  0  0  0  0  0  0  0  0  0
  -21.2790  -29.2860   22.4850 N   0  0  0  0  0  0  0  0  0  0  0  0
  -23.2910  -29.0510   23.4860 O   0  0  0  0  0  0  0  0  0  0  0  0
  -20.7610  -29.7600   21.7590 H   0  0  0  0  0  0  0  0  0  0  0  0
  -18.0550  -27.6690   22.8990 C   0  0  0  0  0  0  0  0  0  0  0  0
  -20.5280  -28.3170   23.2930 C   0  0  0  0  0  3  0  0  0  0  0  0
  -20.8640  -26.8660   22.8760 C   0  0  0  0  0  2  0  0  0  0  0  0
  -19.8960  -26.2990   21.8320 C   0  0  0  0  0  2  0  0  0  0  0  0
  -18.4630  -26.3020   22.3710 C   0  0  0  0  0  2  0  0  0  0  0  0
  -19.0240  -28.6200   23.3160 C   0  0  0  0  0  0  0  0  0  0  0  0
  -18.5900  -29.8830   23.7720 C   0  0  0  0  0  3  0  0  0  0  0  0
  -17.2200  -30.2030   23.8100 C   0  0  0  0  0  3  0  0  0  0  0  0
  -16.2640  -29.2530   23.4090 C   0  0  0  0  0  3  0  0  0  0  0  0
  -16.6810  -27.9880   22.9600 C   0  0  0  0  0  3  0  0  0  0  0  0
  -25.8310  -32.6030   23.7070 C   0  0  0  0  0  3  0  0  0  0  0  0
  -25.5220  -33.9830   24.1220 N   0  0  0  0  0  0  0  0  0  0  0  0
  -25.7700  -35.0810   23.3940 C   0  0  0  0  0  0  0  0  0  0  0  0
  -26.3430  -35.0380   22.3020 O   0  0  0  0  0  0  0  0  0  0  0  0
  -24.9950  -34.0860   24.9780 H   0  0  0  0  0  0  0  0  0  0  0  0
  -23.9750  -36.8490   23.3240 C   0  0  0  0  0  1  0  0  0  0  0  0
  -25.3130  -36.4410   23.9620 C   0  0  0  0  0  3  0  0  0  0  0  0
  -27.5050  -37.3620   24.5810 C   0  0  0  0  0  1  0  0  0  0  0  0
  -26.3030  -37.5250   23.7700 N   0  0  0  0  0  0  0  0  0  0  0  0
  -25.8940  -38.4300   23.9880 H   0  0  0  0  0  0  0  0  0  0  0  0
  -26.4580  -31.8030   24.9160 C   0  0  1  0  0  0  0  0  0  0  0  0
  -25.4420  -31.4540   26.0300 C   0  0  0  0  0  1  0  0  0  0  0  0
  -27.0910  -30.4780   24.4360 C   0  0  0  0  0  1  0  0  0  0  0  0
  -27.6020  -32.6280   25.5510 C   0  0  0  0  0  1  0  0  0  0  0  0
  1  3  1  0
  2  5  1  0
  2  1  2  0
  3 10  1  0
  3  4  2  0
  4 11  1  0
  5  6  2  0
  6  4  1  0
  6 53  1  0
  7  2  1  0
  7  8  1  0
  8 54  1  0
  8  9  1  0
  9  1  1  0
  9 12  1  1
 13  9  1  0
 14 22  1  0
 15 20  1  0
 16 17  1  0
 16 15  1  0
 18 17  1  0
 18 27  1  0
 18 19  1  0
 20 14  1  0
 20 19  1  0
 21 14  2  0
 22  5  1  0
 23 22  1  0
 24 25  2  0
 25 44  1  0
 26 29  1  0
 26 25  1  0
 27 28  1  0
 27 24  1  0
 28 26  2  0
 29 30  1  0
 30 31  2  0
 32 35  1  0
 32 31  1  0
 33 32  2  0
 34 33  1  0
 34 29  2  0
 35 36  1  0
 36 41  2  0
 36 37  1  0
 37 38  2  0
 39 38  1  0
 39 43  1  0
 40 39  2  0
 41 40  1  0
 42 41  1  0
 44 45  1  0
 45 47  1  0
 45 48  1  0
 46 44  2  0
 49 24  1  0
 49 50  1  0
 51 49  1  0
 53 52  1  0
 54 55  1  0
 56 67  2  0
 57 55  1  0
 57 62  1  0
 58 66  1  0
 58 68  1  0
 59 65  1  0
 59 61  1  0
 60 66  1  0
 61 60  1  0
 62 61  2  0
 63 64  1  0
 63 57  2  0
 64 59  2  0
 65 58  1  0
 66 56  1  0
 68 70  2  0
 69 68  1  0
 71 69  1  0
 72 81  2  0
 72 77  1  0
 73 69  1  0
 73 77  1  0
 74 73  1  0
 75 76  1  0
 75 74  1  0
 76 72  1  0
 77 78  2  0
 78 79  1  0
 80 79  2  0
 81 80  1  0
 82 56  1  0
 82 83  1  0
 82 92  1  0
 83 86  1  0
 84 88  1  0
 84 83  1  0
 85 84  2  0
 88 87  1  0
 90 88  1  0
 90 91  1  0
 90 89  1  0
 92 95  1  1
 92 93  1  0
 94 92  1  0
M  ISO  4  14 100  22 100  54 101  55 101
M  END
>  <TORSDO>  (32) 
F 18

>  <SCORE>  (32) 
-14.250

>  <name>  (32) 
32

>  <ligand_id>  (32) 
32

>  <original_smiles>  (32) 
[H]c1c([H])c([H])c2c(c1[H])C([H])([H])C([H])([H])C([H])([H])C2([H])N([H])C(=O)C1([H])N(C(=O)C([H])(N([H])C(=O)C([H])(N([H])C([H])([H])[H])C([H])([H])[H])C(C([H])([H])[H])(C([H])([H])[H])C([H])([H])[H])C([H])([H])c2c([H])c(OC([H])([H])C3([H])C([H])([H])c4c(N([H])C(=O)N5C([H])([H])C([H])([H])C([H])([H])C([H])(n6nc(-c7c([H])c([H])c(Oc8c([H])c([H])c(F)c([H])c8F)c([H])c7[H])c(C(=O)N([H])[H])c6N([H])[H])C5([H])[H])c(OC([H])([H])[H])c(C([H])([H])[H])c(C([H])([H])[H])c4C3(C([H])([H])[H])C([H])([H])[H])c([H])c([H])c2C1([H])[H]

>  <smiles>  (32) 
[H]c1c([H])c([H])c2c(c1[H])C([H])([H])C([H])([H])C([H])([H])C2([H])N([H])C(=O)C1([H])N(C(=O)C([H])(N([H])C(=O)C([H])(N([H])C([H])([H])[H])C([H])([H])[H])C(C([H])([H])[H])(C([H])([H])[H])C([H])([H])[H])C([H])([H])c2c([H])c(OC([H])([H])C3([H])C([H])([H])c4c(N([H])C(=O)N5C([H])([H])C([H])([H])C([H])([H])C([H])(n6nc(-c7c([H])c([H])c(Oc8c([H])c([H])c(F)c([H])c8F)c([H])c7[H])c(C(=O)N([H])[H])c6N([H])[H])C5([H])[H])c(OC([H])([H])[H])c(C([H])([H])[H])c(C([H])([H])[H])c4C3(C([H])([H])[H])C([H])([H])[H])c([H])c([H])c2C1([H])[H]

$$$$
33:0:0
     RDKit          3D

 97107  0  0  1  0  0  0  0  0999 V2000
  -31.1970  -14.9120   20.5790 C   0  0  0  0  0  0  0  0  0  0  0  0
  -30.8230  -12.7840   19.2950 C   0  0  0  0  0  2  0  0  0  0  0  0
  -29.9040  -12.9780   18.0680 C   0  0  0  0  0  2  0  0  0  0  0  0
  -28.4180  -12.9290   18.4680 C   0  0  0  0  0  2  0  0  0  0  0  0
  -28.0920  -13.7110   19.7690 C   0  0  0  0  0  3  0  0  0  0  0  0
  -29.1300  -13.4490   20.8800 C   0  0  0  0  0  2  0  0  0  0  0  0
  -30.4410  -13.7840   20.3230 N   0  0  0  0  0  0  0  0  0  0  0  0
  -32.4130  -14.8470   20.3680 O   0  0  0  0  0  0  0  0  0  0  0  0
  -30.0160  -19.7800   22.0890 C   0  0  0  0  0  3  0  0  0  0  0  0
  -30.9040  -21.0840   20.2520 C   0  0  0  0  0  3  0  0  0  0  0  0
  -30.3260  -18.5540   21.3780 C   0  0  0  0  0  0  0  0  0  0  0  0
  -30.8600  -18.6170   20.1100 C   0  0  0  0  0  0  0  0  0  0  0  0
  -31.2010  -19.8790   19.5370 C   0  0  0  0  0  0  0  0  0  0  0  0
  -30.2760  -21.0980   21.5280 C   0  0  0  0  0  0  0  0  0  0  0  0
  -30.1610  -17.0400   21.7420 C   0  0  0  0  0  2  0  0  0  0  0  0
  -30.9620  -17.1920   19.5150 C   0  0  0  0  0  3  0  0  0  0  0  0
  -30.5810  -16.1780   20.5650 N   0  0  0  0  0  0  0  0  0  0  0  0
  -25.7030  -14.3670   20.4210 C   0  0  0  0  0  0  0  0  0  0  0  0
  -24.6020  -13.6210   20.7480 C   0  0  0  0  0  0  0  0  0  0  0  0
  -25.0320  -12.2580   20.7390 C   0  0  0  0  0  0  0  0  0  0  0  0
  -26.7290  -13.4600   20.2220 N   0  0  0  0  0  0  0  0  0  0  0  0
  -26.3320  -12.1890   20.4870 N   0  0  0  0  0  0  0  0  0  0  0  0
  -24.2650  -11.0150   20.8970 C   0  0  0  0  0  0  0  0  0  0  0  0
  -24.6470  -10.0250   21.8300 C   0  0  0  0  0  3  0  0  0  0  0  0
  -23.8830   -8.8470   21.9770 C   0  0  0  0  0  3  0  0  0  0  0  0
  -22.7210   -8.6520   21.1930 C   0  0  0  0  0  0  0  0  0  0  0  0
  -22.3590   -9.6290   20.2490 C   0  0  0  0  0  3  0  0  0  0  0  0
  -23.1230  -10.7970   20.1000 C   0  0  0  0  0  3  0  0  0  0  0  0
  -21.9310   -7.5290   21.2510 O   0  0  0  0  0  0  0  0  0  0  0  0
  -21.8610   -6.7560   22.3820 C   0  0  0  0  0  0  0  0  0  0  0  0
  -21.4780   -7.2940   23.6300 C   0  0  0  0  0  3  0  0  0  0  0  0
  -21.3510   -6.4510   24.7520 C   0  0  0  0  0  3  0  0  0  0  0  0
  -21.5980   -5.0700   24.6250 C   0  0  0  0  0  0  0  0  0  0  0  0
  -21.9770   -4.5320   23.3820 C   0  0  0  0  0  3  0  0  0  0  0  0
  -22.1050   -5.3720   22.2630 C   0  0  0  0  0  0  0  0  0  0  0  0
  -22.4480   -4.8450   21.0630 F   0  0  0  0  0  0  0  0  0  0  0  0
  -21.4690   -4.2570   25.7000 F   0  0  0  0  0  0  0  0  0  0  0  0
  -23.2070  -14.1340   20.9530 C   0  0  0  0  0  0  0  0  0  0  0  0
  -22.4390  -13.4830   21.8190 N   0  0  0  0  0  0  0  0  0  0  0  0
  -22.8080  -15.1500   20.3860 O   0  0  0  0  0  0  0  0  0  0  0  0
  -22.7770  -12.6610   22.2980 H   0  0  0  0  0  0  0  0  0  0  0  0
  -21.5010  -13.8080   22.0020 H   0  0  0  0  0  0  0  0  0  0  0  0
  -25.9130  -15.7320   20.2480 N   0  0  0  0  0  0  0  0  0  0  0  0
  -25.1660  -16.4120   20.3260 H   0  0  0  0  0  0  0  0  0  0  0  0
  -26.7920  -16.1340   19.9480 H   0  0  0  0  0  0  0  0  0  0  0  0
  -31.8730  -19.9260   18.1610 C   0  0  0  0  0  2  0  0  0  0  0  0
  -32.3940  -21.2930   17.6610 C   0  0  0  0  0  2  0  0  0  0  0  0
  -34.0100  -22.9990   17.9950 C   0  0  0  0  0  1  0  0  0  0  0  0
  -33.4240  -21.8050   18.5020 O   0  0  0  0  0  0  0  0  0  0  0  0
  -30.0470  -17.0000   18.2770 C   0  0  0  0  0  2  0  0  0  0  0  0
  -28.7870  -19.2400   17.6350 C   0  0  0  0  0  2  0  0  0  0  0  0
  -28.0080  -18.1050   17.0190 C   0  0  0  0  0  2  0  0  0  0  0  0
  -28.7970  -17.8710   18.2850 C   0  0  0  0  0  3  0  0  0  0  0  0
  -29.8960  -22.3130   22.1960 O   0  0  0  0  0  0  0  0  0  0  0  0
  -30.2600  -23.7170   21.7820 C   0  0  0  0  0  3  0  0  0  0  0  0
  -29.1590  -24.9170   21.9560 C   0  0  0  0  0  3  0  0  0  0  0  0
  -29.3860  -26.3710   21.5630 O   0  0  0  0  0  0  0  0  0  0  0  0
  -24.9500  -31.8660   23.3740 C   0  0  0  0  0  0  0  0  0  0  0  0
  -28.2680  -27.1900   21.2590 C   0  0  0  0  0  0  0  0  0  0  0  0
  -24.1000  -30.2150   21.7490 C   0  0  0  0  0  3  0  0  0  0  0  0
  -25.8490  -28.6550   20.7090 C   0  0  0  0  0  0  0  0  0  0  0  0
  -26.6180  -30.7060   21.8960 C   0  0  0  0  0  2  0  0  0  0  0  0
  -26.8810  -29.2730   21.4240 C   0  0  0  0  0  0  0  0  0  0  0  0
  -28.0940  -28.5530   21.6890 C   0  0  0  0  0  3  0  0  0  0  0  0
  -27.2250  -26.6510   20.4730 C   0  0  0  0  0  3  0  0  0  0  0  0
  -26.0290  -27.3540   20.2150 C   0  0  0  0  0  3  0  0  0  0  0  0
  -24.5620  -29.4310   20.4920 C   0  0  0  0  0  2  0  0  0  0  0  0
  -25.2320  -30.9570   22.3930 N   0  0  0  0  0  0  0  0  0  0  0  0
  -23.7830  -32.1060   23.7150 O   0  0  0  0  0  0  0  0  0  0  0  0
  -23.3700  -29.2500   22.7170 C   0  0  0  0  0  0  0  0  0  0  0  0
  -22.0630  -29.0300   22.4850 N   0  0  0  0  0  0  0  0  0  0  0  0
  -23.9810  -28.7000   23.6350 O   0  0  0  0  0  0  0  0  0  0  0  0
  -21.6330  -29.5230   21.7150 H   0  0  0  0  0  0  0  0  0  0  0  0
  -18.6400  -27.9340   22.8970 C   0  0  0  0  0  0  0  0  0  0  0  0
  -21.1950  -28.1270   23.2430 C   0  0  0  0  0  3  0  0  0  0  0  0
  -21.2780  -26.6880   22.6840 C   0  0  0  0  0  2  0  0  0  0  0  0
  -20.1950  -26.3820   21.6440 C   0  0  0  0  0  2  0  0  0  0  0  0
  -18.7990  -26.5720   22.2420 C   0  0  0  0  0  2  0  0  0  0  0  0
  -19.7650  -28.6720   23.3510 C   0  0  0  0  0  0  0  0  0  0  0  0
  -19.5620  -29.9470   23.9220 C   0  0  0  0  0  3  0  0  0  0  0  0
  -18.2660  -30.4800   24.0500 C   0  0  0  0  0  3  0  0  0  0  0  0
  -17.1540  -29.7400   23.6100 C   0  0  0  0  0  3  0  0  0  0  0  0
  -17.3420  -28.4700   23.0370 C   0  0  0  0  0  3  0  0  0  0  0  0
  -26.0780  -32.6630   24.0970 C   0  0  0  0  0  3  0  0  0  0  0  0
  -25.5940  -34.0370   24.3040 N   0  0  0  0  0  0  0  0  0  0  0  0
  -25.9040  -35.0800   23.5230 C   0  0  0  0  0  0  0  0  0  0  0  0
  -26.6940  -34.9980   22.5780 O   0  0  0  0  0  0  0  0  0  0  0  0
  -24.9020  -34.1690   25.0260 H   0  0  0  0  0  0  0  0  0  0  0  0
  -24.0740  -36.6750   22.8570 C   0  0  0  0  0  1  0  0  0  0  0  0
  -25.2310  -36.4300   23.8400 C   0  0  0  0  0  3  0  0  0  0  0  0
  -27.1740  -37.5340   24.8560 C   0  0  0  0  0  1  0  0  0  0  0  0
  -26.1660  -37.5770   23.8010 N   0  0  0  0  0  0  0  0  0  0  0  0
  -25.6600  -38.4550   23.8780 H   0  0  0  0  0  0  0  0  0  0  0  0
  -26.5120  -32.0150   25.4680 C   0  0  1  0  0  0  0  0  0  0  0  0
  -25.3220  -31.5900   26.3580 C   0  0  0  0  0  1  0  0  0  0  0  0
  -27.3950  -30.7680   25.2310 C   0  0  0  0  0  1  0  0  0  0  0  0
  -27.3760  -33.0180   26.2670 C   0  0  0  0  0  1  0  0  0  0  0  0
  2  7  1  0
  3  4  1  0
  3  2  1  0
  5  4  1  0
  5 21  1  0
  5  6  1  0
  7  1  1  0
  7  6  1  0
  8  1  2  0
 10 14  2  0
 11 15  1  0
 11  9  2  0
 12 11  1  0
 13 12  2  0
 13 10  1  0
 14  9  1  0
 14 54  1  0
 16 50  1  0
 16 12  1  0
 16 17  1  0
 17  1  1  0
 17 15  1  0
 18 19  2  0
 19 38  1  0
 20 19  1  0
 20 23  1  0
 21 18  1  0
 21 22  1  0
 22 20  2  0
 23 24  1  0
 24 25  2  0
 26 29  1  0
 26 25  1  0
 27 26  2  0
 28 27  1  0
 28 23  2  0
 29 30  1  0
 30 31  1  0
 31 32  2  0
 33 32  1  0
 33 37  1  0
 34 33  2  0
 35 30  2  0
 35 34  1  0
 36 35  1  0
 38 39  1  0
 39 42  1  0
 39 41  1  0
 40 38  2  0
 43 44  1  0
 43 18  1  0
 45 43  1  0
 46 13  1  0
 47 46  1  0
 47 49  1  0
 48 49  1  0
 50 53  1  0
 51 53  1  0
 52 51  1  0
 52 53  1  0
 55 56  2  0
 55 54  1  0
 57 56  1  0
 58 69  2  0
 59 57  1  0
 59 64  1  0
 60 68  1  0
 60 70  1  0
 61 63  1  0
 62 68  1  0
 63 64  2  0
 63 62  1  0
 65 59  2  0
 66 65  1  0
 66 61  2  0
 67 61  1  0
 67 60  1  0
 68 58  1  0
 70 72  2  0
 71 70  1  0
 73 71  1  0
 74 83  2  0
 74 79  1  0
 75 71  1  0
 75 79  1  0
 76 75  1  0
 77 78  1  0
 77 76  1  0
 78 74  1  0
 79 80  2  0
 80 81  1  0
 82 81  2  0
 83 82  1  0
 84 58  1  0
 84 85  1  0
 84 94  1  0
 85 88  1  0
 86 90  1  0
 86 85  1  0
 87 86  2  0
 90 89  1  0
 92 90  1  0
 92 93  1  0
 92 91  1  0
 94 97  1  1
 94 95  1  0
 96 94  1  0
M  ISO  4   1 100  17 100  56 101  57 101
M  END
>  <TORSDO>  (33) 
F 23

>  <SCORE>  (33) 
-11.398

>  <name>  (33) 
33

>  <ligand_id>  (33) 
33

>  <original_smiles>  (33) 
[H]c1c([H])c([H])c2c(c1[H])C([H])([H])C([H])([H])C([H])([H])C2([H])N([H])C(=O)C1([H])N(C(=O)C([H])(N([H])C(=O)C([H])(N([H])C([H])([H])[H])C([H])([H])[H])C(C([H])([H])[H])(C([H])([H])[H])C([H])([H])[H])C([H])([H])c2c([H])c(OC([H])([H])C([H])([H])Oc3c([H])c4c(c(C([H])([H])C([H])([H])OC([H])([H])[H])c3[H])C([H])(C([H])([H])C3([H])C([H])([H])C3([H])[H])N(C(=O)N3C([H])([H])C([H])([H])C([H])([H])C([H])(n5nc(-c6c([H])c([H])c(Oc7c([H])c([H])c(F)c([H])c7F)c([H])c6[H])c(C(=O)N([H])[H])c5N([H])[H])C3([H])[H])C4([H])[H])c([H])c([H])c2C1([H])[H]

>  <smiles>  (33) 
[H]c1c([H])c([H])c2c(c1[H])C([H])([H])C([H])([H])C([H])([H])C2([H])N([H])C(=O)C1([H])N(C(=O)C([H])(N([H])C(=O)C([H])(N([H])C([H])([H])[H])C([H])([H])[H])C(C([H])([H])[H])(C([H])([H])[H])C([H])([H])[H])C([H])([H])c2c([H])c(OC([H])([H])C([H])([H])Oc3c([H])c4c(c(C([H])([H])C([H])([H])OC([H])([H])[H])c3[H])C([H])(C([H])([H])C3([H])C([H])([H])C3([H])[H])N(C(=O)N3C([H])([H])C([H])([H])C([H])([H])C([H])(n5nc(-c6c([H])c([H])c(Oc7c([H])c([H])c(F)c([H])c7F)c([H])c6[H])c(C(=O)N([H])[H])c5N([H])[H])C3([H])[H])C4([H])[H])c([H])c([H])c2C1([H])[H]

$$$$
34:0:0
     RDKit          3D

 94103  0  0  1  0  0  0  0  0999 V2000
  -28.9410  -23.1800   19.6490 C   0  0  0  0  0  3  0  0  0  0  0  0
  -30.2370  -23.9500   21.5600 C   0  0  0  0  0  3  0  0  0  0  0  0
  -28.4710  -24.4940   19.4360 C   0  0  0  0  0  3  0  0  0  0  0  0
  -29.7510  -25.2610   21.3550 C   0  0  0  0  0  3  0  0  0  0  0  0
  -29.8660  -22.9070   20.6810 C   0  0  0  0  0  0  0  0  0  0  0  0
  -28.8940  -25.5500   20.2710 C   0  0  0  0  0  0  0  0  0  0  0  0
  -28.6650  -26.8610   19.9250 O   0  0  0  0  0  0  0  0  0  0  0  0
  -24.6670  -31.7730   23.1800 C   0  0  0  0  0  0  0  0  0  0  0  0
  -27.4300  -27.4610   20.0370 C   0  0  0  0  0  0  0  0  0  0  0  0
  -23.4920  -30.3600   21.5210 C   0  0  0  0  0  3  0  0  0  0  0  0
  -24.9830  -28.8760   20.0780 C   0  0  0  0  0  0  0  0  0  0  0  0
  -26.0010  -30.7960   21.3180 C   0  0  0  0  0  2  0  0  0  0  0  0
  -26.1220  -29.4320   20.6710 C   0  0  0  0  0  0  0  0  0  0  0  0
  -27.3470  -28.7300   20.6510 C   0  0  0  0  0  3  0  0  0  0  0  0
  -26.2740  -26.9090   19.4450 C   0  0  0  0  0  3  0  0  0  0  0  0
  -25.0510  -27.6110   19.4650 C   0  0  0  0  0  3  0  0  0  0  0  0
  -23.7150  -29.6980   20.1330 C   0  0  0  0  0  2  0  0  0  0  0  0
  -24.7370  -30.9920   22.0650 N   0  0  0  0  0  0  0  0  0  0  0  0
  -23.5810  -32.0060   23.7300 O   0  0  0  0  0  0  0  0  0  0  0  0
  -22.8750  -29.3090   22.4700 C   0  0  0  0  0  0  0  0  0  0  0  0
  -21.5610  -29.0770   22.3300 N   0  0  0  0  0  0  0  0  0  0  0  0
  -23.5770  -28.7020   23.2840 O   0  0  0  0  0  0  0  0  0  0  0  0
  -21.0550  -29.6200   21.6450 H   0  0  0  0  0  0  0  0  0  0  0  0
  -18.2440  -27.7030   22.7430 C   0  0  0  0  0  0  0  0  0  0  0  0
  -20.7740  -28.1010   23.0860 C   0  0  0  0  0  3  0  0  0  0  0  0
  -20.9710  -26.6750   22.5250 C   0  0  0  0  0  2  0  0  0  0  0  0
  -19.9190  -26.2850   21.4810 C   0  0  0  0  0  2  0  0  0  0  0  0
  -18.5130  -26.3600   22.0850 C   0  0  0  0  0  2  0  0  0  0  0  0
  -19.3070  -28.5270   23.1980 C   0  0  0  0  0  0  0  0  0  0  0  0
  -19.0050  -29.7810   23.7700 C   0  0  0  0  0  3  0  0  0  0  0  0
  -17.6700  -30.2150   23.8910 C   0  0  0  0  0  3  0  0  0  0  0  0
  -16.6220  -29.3890   23.4500 C   0  0  0  0  0  3  0  0  0  0  0  0
  -16.9090  -28.1340   22.8850 C   0  0  0  0  0  3  0  0  0  0  0  0
  -25.9390  -32.4270   23.8050 C   0  0  0  0  0  3  0  0  0  0  0  0
  -26.4740  -31.6590   25.0760 C   0  0  1  0  0  0  0  0  0  0  0  0
  -25.3880  -31.3930   26.1440 C   0  0  0  0  0  1  0  0  0  0  0  0
  -27.0860  -30.2980   24.6730 C   0  0  0  0  0  1  0  0  0  0  0  0
  -27.6090  -32.4740   25.7410 C   0  0  0  0  0  1  0  0  0  0  0  0
  -25.6010  -33.8160   24.1420 N   0  0  0  0  0  0  0  0  0  0  0  0
  -25.9300  -34.8800   23.3960 C   0  0  0  0  0  0  0  0  0  0  0  0
  -26.6240  -34.7960   22.3790 O   0  0  0  0  0  0  0  0  0  0  0  0
  -24.9850  -33.9540   24.9300 H   0  0  0  0  0  0  0  0  0  0  0  0
  -24.1860  -36.6470   23.0090 C   0  0  0  0  0  1  0  0  0  0  0  0
  -25.4090  -36.2550   23.8520 C   0  0  0  0  0  3  0  0  0  0  0  0
  -27.5070  -37.1610   24.7510 C   0  0  0  0  0  1  0  0  0  0  0  0
  -26.4300  -37.3240   23.7770 N   0  0  0  0  0  0  0  0  0  0  0  0
  -26.0080  -38.2380   23.9200 H   0  0  0  0  0  0  0  0  0  0  0  0
  -30.5710  -21.5500   20.7360 C   0  0  0  0  0  2  0  0  0  0  0  0
  -30.2070  -20.6860   21.8830 N   0  0  0  0  0  4  0  0  0  0  0  0
  -30.4700  -21.1720   22.7240 H   0  0  0  0  0  0  0  0  0  0  0  0
  -29.2080  -20.5620   21.9000 H   0  0  0  0  0  0  0  0  0  0  0  0
  -30.8580  -17.0250   22.6510 C   0  0  0  0  0  2  0  0  0  0  0  0
  -30.6560  -18.4900   23.1090 C   0  0  0  0  0  2  0  0  0  0  0  0
  -30.4170  -18.4420   20.7370 C   0  0  0  0  0  2  0  0  0  0  0  0
  -30.9390  -17.0400   21.1090 C   0  0  0  0  0  3  0  0  0  0  0  0
  -30.8900  -19.3620   21.8640 C   0  0  0  0  0  3  0  0  0  0  0  0
  -29.8890  -16.2370   18.9180 C   0  0  0  0  0  1  0  0  0  0  0  0
  -30.2170  -15.8550   20.3840 C   0  0  0  0  0  3  0  0  0  0  0  0
  -31.0340  -14.5300   20.3310 C   0  0  0  0  0  0  0  0  0  0  0  0
  -30.7530  -12.3150   19.3160 C   0  0  0  0  0  2  0  0  0  0  0  0
  -29.8310  -12.4900   18.0880 C   0  0  0  0  0  2  0  0  0  0  0  0
  -28.3430  -12.4120   18.4950 C   0  0  0  0  0  2  0  0  0  0  0  0
  -27.9990  -13.2810   19.7340 C   0  0  0  0  0  3  0  0  0  0  0  0
  -29.0420  -13.0860   20.8580 C   0  0  0  0  0  2  0  0  0  0  0  0
  -30.3790  -13.3380   20.3050 N   0  0  0  0  0  0  0  0  0  0  0  0
  -32.2250  -14.6260   20.0220 O   0  0  0  0  0  0  0  0  0  0  0  0
  -25.6100  -13.9390   20.4280 C   0  0  0  0  0  0  0  0  0  0  0  0
  -24.5260  -13.1880   20.7940 C   0  0  0  0  0  0  0  0  0  0  0  0
  -24.9640  -11.8280   20.7770 C   0  0  0  0  0  0  0  0  0  0  0  0
  -26.6400  -13.0360   20.2090 N   0  0  0  0  0  0  0  0  0  0  0  0
  -26.2560  -11.7640   20.4790 N   0  0  0  0  0  0  0  0  0  0  0  0
  -24.2160  -10.5800   20.9700 C   0  0  0  0  0  0  0  0  0  0  0  0
  -24.6150   -9.6200   21.9260 C   0  0  0  0  0  3  0  0  0  0  0  0
  -23.8690   -8.4340   22.1050 C   0  0  0  0  0  3  0  0  0  0  0  0
  -22.7110   -8.2020   21.3260 C   0  0  0  0  0  0  0  0  0  0  0  0
  -22.3320   -9.1500   20.3590 C   0  0  0  0  0  3  0  0  0  0  0  0
  -23.0790  -10.3260   20.1790 C   0  0  0  0  0  3  0  0  0  0  0  0
  -21.9390   -7.0680   21.4120 O   0  0  0  0  0  0  0  0  0  0  0  0
  -21.8280   -6.3610   22.5830 C   0  0  0  0  0  0  0  0  0  0  0  0
  -21.3550   -6.9590   23.7710 C   0  0  0  0  0  3  0  0  0  0  0  0
  -21.1900   -6.1790   24.9340 C   0  0  0  0  0  3  0  0  0  0  0  0
  -21.4890   -4.8040   24.9080 C   0  0  0  0  0  0  0  0  0  0  0  0
  -21.9540   -4.2050   23.7230 C   0  0  0  0  0  3  0  0  0  0  0  0
  -22.1210   -4.9830   22.5630 C   0  0  0  0  0  0  0  0  0  0  0  0
  -22.5500   -4.3980   21.4190 F   0  0  0  0  0  0  0  0  0  0  0  0
  -21.3220   -4.0520   26.0210 F   0  0  0  0  0  0  0  0  0  0  0  0
  -23.1340  -13.6900   21.0520 C   0  0  0  0  0  0  0  0  0  0  0  0
  -22.3930  -13.0220   21.9290 N   0  0  0  0  0  0  0  0  0  0  0  0
  -22.7120  -14.7100   20.5090 O   0  0  0  0  0  0  0  0  0  0  0  0
  -22.7460  -12.1970   22.3890 H   0  0  0  0  0  0  0  0  0  0  0  0
  -21.4590  -13.3410   22.1440 H   0  0  0  0  0  0  0  0  0  0  0  0
  -25.8000  -15.3060   20.2430 N   0  0  0  0  0  0  0  0  0  0  0  0
  -25.0450  -15.9750   20.3450 H   0  0  0  0  0  0  0  0  0  0  0  0
  -26.6620  -15.7270   19.9220 H   0  0  0  0  0  0  0  0  0  0  0  0
  1  5  1  0
  3  1  2  0
  3  6  1  0
  4  2  1  0
  5 48  1  0
  5  2  2  0
  6  4  2  0
  7  9  1  0
  7  6  1  0
  8 19  2  0
  9 14  1  0
 10 18  1  0
 10 20  1  0
 11 17  1  0
 11 13  1  0
 12 18  1  0
 13 12  1  0
 14 13  2  0
 15 16  1  0
 15  9  2  0
 16 11  2  0
 17 10  1  0
 18  8  1  0
 20 22  2  0
 21 20  1  0
 23 21  1  0
 24 33  2  0
 24 29  1  0
 25 21  1  0
 25 29  1  0
 26 25  1  0
 27 28  1  0
 27 26  1  0
 28 24  1  0
 29 30  2  0
 30 31  1  0
 32 31  2  0
 33 32  1  0
 34  8  1  0
 34 39  1  0
 34 35  1  0
 35 38  1  1
 35 36  1  0
 37 35  1  0
 39 42  1  0
 40 44  1  0
 40 39  1  0
 41 40  2  0
 44 43  1  0
 46 44  1  0
 46 47  1  0
 46 45  1  0
 48 49  1  0
 49 51  1  0
 49 50  1  0
 52 53  1  0
 54 55  1  0
 54 56  1  0
 55 58  1  0
 55 52  1  0
 56 49  1  0
 56 53  1  0
 58 57  1  0
 59 58  1  0
 60 65  1  0
 61 62  1  0
 61 60  1  0
 63 62  1  0
 63 70  1  0
 63 64  1  0
 65 59  1  0
 65 64  1  0
 66 59  2  0
 67 68  2  0
 68 87  1  0
 69 68  1  0
 69 72  1  0
 70 67  1  0
 70 71  1  0
 71 69  2  0
 72 73  1  0
 73 74  2  0
 75 78  1  0
 75 74  1  0
 76 75  2  0
 77 76  1  0
 77 72  2  0
 78 79  1  0
 79 80  1  0
 80 81  2  0
 82 81  1  0
 82 86  1  0
 83 82  2  0
 84 79  2  0
 84 83  1  0
 85 84  1  0
 87 88  1  0
 88 91  1  0
 88 90  1  0
 89 87  2  0
 92 93  1  0
 92 67  1  0
 94 92  1  0
M  ISO  4   6 101   7 101  58 100  59 100
M  END
>  <TORSDO>  (34) 
F 20

>  <SCORE>  (34) 
-13.190

>  <name>  (34) 
34

>  <ligand_id>  (34) 
34

>  <original_smiles>  (34) 
[H]c1c([H])c([H])c2c(c1[H])C([H])([H])C([H])([H])C([H])([H])C2([H])N([H])C(=O)C1([H])N(C(=O)C([H])(N([H])C(=O)C([H])(N([H])C([H])([H])[H])C([H])([H])[H])C(C([H])([H])[H])(C([H])([H])[H])C([H])([H])[H])C([H])([H])c2c([H])c(Oc3c([H])c([H])c(C([H])([H])[N+]([H])([H])C4([H])C([H])([H])C([H])([H])C([H])(C([H])(C(=O)N5C([H])([H])C([H])([H])C([H])([H])C([H])(n6nc(-c7c([H])c([H])c(Oc8c([H])c([H])c(F)c([H])c8F)c([H])c7[H])c(C(=O)N([H])[H])c6N([H])[H])C5([H])[H])C([H])([H])[H])C4([H])[H])c([H])c3[H])c([H])c([H])c2C1([H])[H]

>  <smiles>  (34) 
[H]c1c([H])c([H])c2c(c1[H])C([H])([H])C([H])([H])C([H])([H])C2([H])N([H])C(=O)C1([H])N(C(=O)C([H])(N([H])C(=O)C([H])(N([H])C([H])([H])[H])C([H])([H])[H])C(C([H])([H])[H])(C([H])([H])[H])C([H])([H])[H])C([H])([H])c2c([H])c(Oc3c([H])c([H])c(C([H])([H])[N+]([H])([H])C4([H])C([H])([H])C([H])([H])C([H])(C([H])(C(=O)N5C([H])([H])C([H])([H])C([H])([H])C([H])(n6nc(-c7c([H])c([H])c(Oc8c([H])c([H])c(F)c([H])c8F)c([H])c7[H])c(C(=O)N([H])[H])c6N([H])[H])C5([H])[H])C([H])([H])[H])C4([H])[H])c([H])c3[H])c([H])c([H])c2C1([H])[H]

$$$$
35:0:0
     RDKit          3D

 94103  0  0  1  0  0  0  0  0999 V2000
  -28.4120  -21.6270   18.4190 C   0  0  0  0  0  2  0  0  0  0  0  0
  -26.9550  -21.9870   18.0900 C   0  0  0  0  0  2  0  0  0  0  0  0
  -27.1060  -21.4480   20.4120 C   0  0  0  0  0  2  0  0  0  0  0  0
  -28.5580  -21.7060   19.9510 C   0  0  1  0  0  0  0  0  0  0  0  0
  -26.2080  -21.9500   19.3580 N   0  0  0  0  0  4  0  0  0  0  0  0
  -25.4020  -21.3500   19.2720 H   0  0  0  0  0  0  0  0  0  0  0  0
  -25.8780  -22.8720   19.5880 H   0  0  0  0  0  0  0  0  0  0  0  0
  -30.6400  -15.1230   20.4400 C   0  0  0  0  0  0  0  0  0  0  0  0
  -30.5680  -12.7520   19.5220 C   0  0  0  0  0  2  0  0  0  0  0  0
  -29.6690  -12.6690   18.2660 C   0  0  0  0  0  2  0  0  0  0  0  0
  -28.1990  -12.4430   18.6660 C   0  0  0  0  0  2  0  0  0  0  0  0
  -27.7470  -13.3870   19.8110 C   0  0  0  0  0  3  0  0  0  0  0  0
  -28.7710  -13.4400   20.9640 C   0  0  0  0  0  2  0  0  0  0  0  0
  -30.0490  -13.8600   20.3750 N   0  0  0  0  0  0  0  0  0  0  0  0
  -31.8620  -15.1630   20.2410 O   0  0  0  0  0  0  0  0  0  0  0  0
  -30.6700  -20.6080   21.1200 C   0  0  0  0  0  3  0  0  0  0  0  0
  -29.2170  -18.9360   20.2000 C   0  0  0  0  0  3  0  0  0  0  0  0
  -31.4900  -19.5220   21.4990 C   0  0  0  0  0  3  0  0  0  0  0  0
  -29.4660  -20.3930   20.4300 C   0  0  0  0  0  0  0  0  0  0  0  0
  -30.1060  -17.8160   20.6160 C   0  0  0  0  0  0  0  0  0  0  0  0
  -31.2290  -18.2100   21.2570 N   0  0  0  0  0  0  0  0  0  0  0  0
  -29.8380  -16.3090   20.4510 N   0  0  0  0  0  0  0  0  0  0  0  0
  -28.8570  -16.0940   20.3690 H   0  0  0  0  0  0  0  0  0  0  0  0
  -25.3460  -13.9570   20.4870 C   0  0  0  0  0  0  0  0  0  0  0  0
  -24.2780  -13.1780   20.8350 C   0  0  0  0  0  0  0  0  0  0  0  0
  -24.7520  -11.8300   20.8270 C   0  0  0  0  0  0  0  0  0  0  0  0
  -26.4000  -13.0830   20.2800 N   0  0  0  0  0  0  0  0  0  0  0  0
  -26.0510  -11.8000   20.5520 N   0  0  0  0  0  0  0  0  0  0  0  0
  -24.0290  -10.5640   21.0050 C   0  0  0  0  0  0  0  0  0  0  0  0
  -24.4410   -9.6050   21.9560 C   0  0  0  0  0  3  0  0  0  0  0  0
  -23.7150   -8.4040   22.1220 C   0  0  0  0  0  3  0  0  0  0  0  0
  -22.5640   -8.1550   21.3370 C   0  0  0  0  0  0  0  0  0  0  0  0
  -22.1720   -9.1040   20.3760 C   0  0  0  0  0  3  0  0  0  0  0  0
  -22.8980  -10.2950   20.2080 C   0  0  0  0  0  3  0  0  0  0  0  0
  -21.8130   -7.0070   21.4120 O   0  0  0  0  0  0  0  0  0  0  0  0
  -21.7360   -6.2710   22.5670 C   0  0  0  0  0  0  0  0  0  0  0  0
  -21.2620   -6.8270   23.7750 C   0  0  0  0  0  3  0  0  0  0  0  0
  -21.1340   -6.0180   24.9200 C   0  0  0  0  0  3  0  0  0  0  0  0
  -21.4710   -4.6520   24.8590 C   0  0  0  0  0  0  0  0  0  0  0  0
  -21.9390   -4.0950   23.6560 C   0  0  0  0  0  3  0  0  0  0  0  0
  -22.0680   -4.9030   22.5130 C   0  0  0  0  0  0  0  0  0  0  0  0
  -22.4990   -4.3570   21.3500 F   0  0  0  0  0  0  0  0  0  0  0  0
  -21.3410   -3.8720   25.9580 F   0  0  0  0  0  0  0  0  0  0  0  0
  -22.8710  -13.6490   21.0600 C   0  0  0  0  0  0  0  0  0  0  0  0
  -22.1180  -12.9500   21.9050 N   0  0  0  0  0  0  0  0  0  0  0  0
  -22.4450  -14.6700   20.5230 O   0  0  0  0  0  0  0  0  0  0  0  0
  -22.4750  -12.1250   22.3630 H   0  0  0  0  0  0  0  0  0  0  0  0
  -21.1730  -13.2470   22.0980 H   0  0  0  0  0  0  0  0  0  0  0  0
  -25.5040  -15.3270   20.3010 N   0  0  0  0  0  0  0  0  0  0  0  0
  -24.7220  -15.9680   20.3730 H   0  0  0  0  0  0  0  0  0  0  0  0
  -26.3370  -15.7640   19.9320 H   0  0  0  0  0  0  0  0  0  0  0  0
  -28.9540  -23.3330   20.3280 C   0  0  0  0  0  3  0  0  0  0  0  0
  -28.0560  -24.7290   19.9270 C   0  0  0  0  0  3  0  0  0  0  0  0
  -28.3280  -26.2500   20.1830 O   0  0  0  0  0  0  0  0  0  0  0  0
  -24.7160  -31.9120   23.2520 C   0  0  0  0  0  0  0  0  0  0  0  0
  -27.2790  -27.2480   20.1220 C   0  0  0  0  0  0  0  0  0  0  0  0
  -23.5050  -30.5330   21.6080 C   0  0  0  0  0  3  0  0  0  0  0  0
  -24.9460  -28.9930   20.1350 C   0  0  0  0  0  0  0  0  0  0  0  0
  -26.0560  -30.8150   21.4160 C   0  0  0  0  0  2  0  0  0  0  0  0
  -26.1290  -29.4320   20.7420 C   0  0  0  0  0  0  0  0  0  0  0  0
  -27.2960  -28.5750   20.7190 C   0  0  0  0  0  3  0  0  0  0  0  0
  -26.0720  -26.9220   19.4660 C   0  0  0  0  0  3  0  0  0  0  0  0
  -24.9320  -27.7530   19.4800 C   0  0  0  0  0  3  0  0  0  0  0  0
  -23.7140  -29.8830   20.2140 C   0  0  0  0  0  2  0  0  0  0  0  0
  -24.7790  -31.1080   22.1470 N   0  0  0  0  0  0  0  0  0  0  0  0
  -23.6350  -32.1810   23.7970 O   0  0  0  0  0  0  0  0  0  0  0  0
  -22.8440  -29.5060   22.5620 C   0  0  0  0  0  0  0  0  0  0  0  0
  -21.5180  -29.3160   22.4390 N   0  0  0  0  0  0  0  0  0  0  0  0
  -23.5270  -28.8850   23.3800 O   0  0  0  0  0  0  0  0  0  0  0  0
  -21.0200  -29.8710   21.7560 H   0  0  0  0  0  0  0  0  0  0  0  0
  -18.1620  -28.0400   22.9240 C   0  0  0  0  0  0  0  0  0  0  0  0
  -20.7130  -28.3600   23.2060 C   0  0  0  0  0  3  0  0  0  0  0  0
  -20.8500  -26.9310   22.6320 C   0  0  0  0  0  2  0  0  0  0  0  0
  -19.7610  -26.5830   21.6110 C   0  0  0  0  0  2  0  0  0  0  0  0
  -18.3730  -26.6960   22.2480 C   0  0  0  0  0  2  0  0  0  0  0  0
  -19.2600  -28.8290   23.3600 C   0  0  0  0  0  0  0  0  0  0  0  0
  -19.0080  -30.0830   23.9550 C   0  0  0  0  0  3  0  0  0  0  0  0
  -17.6900  -30.5510   24.1180 C   0  0  0  0  0  3  0  0  0  0  0  0
  -16.6060  -29.7610   23.6980 C   0  0  0  0  0  3  0  0  0  0  0  0
  -16.8440  -28.5080   23.1050 C   0  0  0  0  0  3  0  0  0  0  0  0
  -25.9970  -32.5490   23.8710 C   0  0  0  0  0  3  0  0  0  0  0  0
  -25.6820  -33.9450   24.2150 N   0  0  0  0  0  0  0  0  0  0  0  0
  -25.9950  -35.0090   23.4610 C   0  0  0  0  0  0  0  0  0  0  0  0
  -26.6460  -34.9180   22.4170 O   0  0  0  0  0  0  0  0  0  0  0  0
  -25.1040  -34.0890   25.0300 H   0  0  0  0  0  0  0  0  0  0  0  0
  -24.2540  -36.8010   23.1570 C   0  0  0  0  0  1  0  0  0  0  0  0
  -25.5120  -36.3930   23.9400 C   0  0  0  0  0  3  0  0  0  0  0  0
  -27.6590  -37.2830   24.7380 C   0  0  0  0  0  1  0  0  0  0  0  0
  -26.5400  -37.4510   23.8150 N   0  0  0  0  0  0  0  0  0  0  0  0
  -26.1330  -38.3690   23.9740 H   0  0  0  0  0  0  0  0  0  0  0  0
  -26.5190  -31.7740   25.1430 C   0  0  1  0  0  0  0  0  0  0  0  0
  -25.4310  -31.5330   26.2170 C   0  0  0  0  0  1  0  0  0  0  0  0
  -27.1000  -30.3960   24.7490 C   0  0  0  0  0  1  0  0  0  0  0  0
  -27.6720  -32.5670   25.8020 C   0  0  0  0  0  1  0  0  0  0  0  0
  1  4  1  0
  2  1  1  0
  2  5  1  0
  4 52  1  6
  4  3  1  0
  4 19  1  0
  5  7  1  0
  5  3  1  0
  6  5  1  0
  8 22  1  0
  9 14  1  0
 10 11  1  0
 10  9  1  0
 12 11  1  0
 12 27  1  0
 12 13  1  0
 14  8  1  0
 14 13  1  0
 15  8  2  0
 16 18  1  0
 17 19  1  0
 17 20  2  0
 19 16  2  0
 20 21  1  0
 21 18  2  0
 22 20  1  0
 23 22  1  0
 24 25  2  0
 25 44  1  0
 26 25  1  0
 26 29  1  0
 27 24  1  0
 27 28  1  0
 28 26  2  0
 29 30  1  0
 30 31  2  0
 32 35  1  0
 32 31  1  0
 33 32  2  0
 34 33  1  0
 34 29  2  0
 35 36  1  0
 36 37  1  0
 37 38  2  0
 39 38  1  0
 39 43  1  0
 40 39  2  0
 41 36  2  0
 41 40  1  0
 42 41  1  0
 44 45  1  0
 45 48  1  0
 45 47  1  0
 46 44  2  0
 49 50  1  0
 49 24  1  0
 51 49  1  0
 53 54  1  0
 53 52  2  0
 55 66  2  0
 56 54  1  0
 56 61  1  0
 57 65  1  0
 57 67  1  0
 58 64  1  0
 58 60  1  0
 59 65  1  0
 60 59  1  0
 61 60  2  0
 62 63  1  0
 62 56  2  0
 63 58  2  0
 64 57  1  0
 65 55  1  0
 67 69  2  0
 68 67  1  0
 70 68  1  0
 71 80  2  0
 71 76  1  0
 72 68  1  0
 72 76  1  0
 73 72  1  0
 74 75  1  0
 74 73  1  0
 75 71  1  0
 76 77  2  0
 77 78  1  0
 79 78  2  0
 80 79  1  0
 81 55  1  0
 81 82  1  0
 81 91  1  0
 82 85  1  0
 83 87  1  0
 83 82  1  0
 84 83  2  0
 87 86  1  0
 89 87  1  0
 89 90  1  0
 89 88  1  0
 91 94  1  1
 91 92  1  0
 93 91  1  0
M  ISO  4   8 100  22 100  53 101  54 101
M  END
>  <TORSDO>  (35) 
F 18

>  <SCORE>  (35) 
-15.667

>  <name>  (35) 
35

>  <ligand_id>  (35) 
35

>  <original_smiles>  (35) 
[H]c1nc(N([H])C(=O)N2C([H])([H])C([H])([H])C([H])([H])C([H])(n3nc(-c4c([H])c([H])c(Oc5c([H])c([H])c(F)c([H])c5F)c([H])c4[H])c(C(=O)N([H])[H])c3N([H])[H])C2([H])[H])c([H])c(C2(C([H])([H])C([H])([H])Oc3c([H])c([H])c4c(c3[H])C([H])([H])N(C(=O)C([H])(N([H])C(=O)C([H])(N([H])C([H])([H])[H])C([H])([H])[H])C(C([H])([H])[H])(C([H])([H])[H])C([H])([H])[H])C([H])(C(=O)N([H])C3([H])c5c([H])c([H])c([H])c([H])c5C([H])([H])C([H])([H])C3([H])[H])C4([H])[H])C([H])([H])C([H])([H])[N+]([H])([H])C2([H])[H])c1[H]

>  <smiles>  (35) 
[H]c1nc(N([H])C(=O)N2C([H])([H])C([H])([H])C([H])([H])C([H])(n3nc(-c4c([H])c([H])c(Oc5c([H])c([H])c(F)c([H])c5F)c([H])c4[H])c(C(=O)N([H])[H])c3N([H])[H])C2([H])[H])c([H])c(C2(C([H])([H])C([H])([H])Oc3c([H])c([H])c4c(c3[H])C([H])([H])N(C(=O)C([H])(N([H])C(=O)C([H])(N([H])C([H])([H])[H])C([H])([H])[H])C(C([H])([H])[H])(C([H])([H])[H])C([H])([H])[H])C([H])(C(=O)N([H])C3([H])c5c([H])c([H])c([H])c([H])c5C([H])([H])C([H])([H])C3([H])[H])C4([H])[H])C([H])([H])C([H])([H])[N+]([H])([H])C2([H])[H])c1[H]

$$$$
36:0:0
     RDKit          3D

 92 93  0  0  1  0  0  0  0  0999 V2000
  -31.3430  -19.2450   19.2340 C   0  0  0  0  0 15  0  0  0  0  0  0
  -30.6020  -20.6830   20.4860 C   0  0  0  0  0 15  0  0  0  0  0  0
  -29.9200  -18.1280   18.1110 C   0  0  0  0  0  1  0  0  0  0  0  0
  -27.9880  -18.4960   18.9340 C   0  0  0  0  0  1  0  0  0  0  0  0
  -28.8310  -21.5700   20.5200 C   0  0  0  0  0  1  0  0  0  0  0  0
  -27.7480  -20.0300   20.1520 N   0  0  0  0  0  1  0  0  0  0  0  0
  -29.7460  -17.9810   20.4010 C   0  0  0  0  0  2  0  0  0  0  0  0
  -30.4910  -14.9180   19.5920 C   0  0  0  0  0  2  0  0  0  0  0  0
  -29.9470  -13.7310   18.5990 C   0  0  0  0  0  2  0  0  0  0  0  0
  -28.7510  -12.9220   19.1170 C   0  0  0  0  0  2  0  0  0  0  0  0
  -27.9360  -13.8970   19.9640 C   0  0  0  0  0  3  0  0  0  0  0  0
  -28.7660  -14.9840   20.8780 C   0  0  0  0  0  2  0  0  0  0  0  0
  -29.5550  -16.2190   20.1430 N   0  0  0  0  0  0  0  0  0  0  0  0
  -30.8850  -17.4090   20.8080 O   0  0  0  0  0  1  0  0  0  0  0  0
  -28.6050  -19.4120   16.3750 C   0  0  0  0  0  2  0  0  0  0  0  0
  -30.8980  -19.9280   16.6220 C   0  0  0  0  0  2  0  0  0  0  0  0
  -28.3880  -20.4840   17.5190 C   0  0  0  0  0  2  0  0  0  0  0  0
  -30.4030  -20.9490   17.7300 C   0  0  0  0  0  2  0  0  0  0  0  0
  -29.9540  -18.6820   16.6530 C   0  0  0  0  0  3  0  0  0  0  0  0
  -29.4160  -20.1220   18.7090 N   0  0  0  0  0  2  0  0  0  0  0  0
  -25.5550  -14.0280   20.7960 C   0  0  0  0  0  0  0  0  0  0  0  0
  -24.5410  -13.1690   21.0690 C   0  0  0  0  0  0  0  0  0  0  0  0
  -25.0910  -11.8580   20.9480 C   0  0  0  0  0  0  0  0  0  0  0  0
  -26.6830  -13.2950   20.5130 N   0  0  0  0  0  0  0  0  0  0  0  0
  -26.4020  -11.9460   20.6310 N   0  0  0  0  0  0  0  0  0  0  0  0
  -24.3870  -10.5590   21.0770 C   0  0  0  0  0  0  0  0  0  0  0  0
  -24.6990   -9.6310   22.0950 C   0  0  0  0  0  3  0  0  0  0  0  0
  -23.9710   -8.4240   22.2250 C   0  0  0  0  0  3  0  0  0  0  0  0
  -22.9080   -8.1300   21.3380 C   0  0  0  0  0  0  0  0  0  0  0  0
  -22.6060   -9.0490   20.3180 C   0  0  0  0  0  3  0  0  0  0  0  0
  -23.3340  -10.2450   20.1860 C   0  0  0  0  0  3  0  0  0  0  0  0
  -22.1730   -6.9670   21.3660 O   0  0  0  0  0  0  0  0  0  0  0  0
  -21.8620   -6.3310   22.5440 C   0  0  0  0  0  0  0  0  0  0  0  0
  -21.0900   -6.9580   23.5450 C   0  0  0  0  0  3  0  0  0  0  0  0
  -20.7370   -6.2510   24.7110 C   0  0  0  0  0  3  0  0  0  0  0  0
  -21.1440   -4.9130   24.8750 C   0  0  0  0  0  0  0  0  0  0  0  0
  -21.9070   -4.2830   23.8770 C   0  0  0  0  0  3  0  0  0  0  0  0
  -22.2630   -4.9890   22.7130 C   0  0  0  0  0  0  0  0  0  0  0  0
  -22.9780   -4.3660   21.7460 F   0  0  0  0  0  0  0  0  0  0  0  0
  -20.8000   -4.2320   25.9930 F   0  0  0  0  0  0  0  0  0  0  0  0
  -23.1220  -13.5810   21.3380 C   0  0  0  0  0  0  0  0  0  0  0  0
  -22.4310  -12.8730   22.2210 N   0  0  0  0  0  0  0  0  0  0  0  0
  -22.6390  -14.5840   20.8120 O   0  0  0  0  0  0  0  0  0  0  0  0
  -22.8380  -12.0700   22.6770 H   0  0  0  0  0  0  0  0  0  0  0  0
  -21.4820  -13.1340   22.4460 H   0  0  0  0  0  0  0  0  0  0  0  0
  -25.5880  -15.4020   20.7450 N   0  0  0  0  0  0  0  0  0  0  0  0
  -24.7560  -15.9680   20.8710 H   0  0  0  0  0  0  0  0  0  0  0  0
  -26.4170  -15.9320   20.5370 H   0  0  0  0  0  0  0  0  0  0  0  0
  -28.4170  -23.7030   20.6570 O   0  0  0  0  0 15  0  0  0  0  0  0
  -24.8290  -31.7680   23.3630 C   0  0  0  0  0  0  0  0  0  0  0  0
  -27.4970  -25.4890   20.6450 C   0  0  0  0  0  3  0  0  0  0  0  0
  -23.7640  -30.2840   21.7310 C   0  0  0  0  0  3  0  0  0  0  0  0
  -25.2840  -28.3290   20.4890 C   0  0  0  0  0  0  0  0  0  0  0  0
  -26.3700  -30.0540   21.8610 C   0  0  0  0  0  2  0  0  0  0  0  0
  -26.4670  -28.4600   21.2230 C   0  0  0  0  0  0  0  0  0  0  0  0
  -27.4740  -27.1270   21.2340 C   0  0  0  0  0  3  0  0  0  0  0  0
  -26.2750  -25.9250   19.8600 C   0  0  0  0  0  3  0  0  0  0  0  0
  -25.3050  -27.0830   19.7880 C   0  0  0  0  0  3  0  0  0  0  0  0
  -24.1210  -29.4320   20.4420 C   0  0  0  0  0  2  0  0  0  0  0  0
  -25.0310  -30.7700   22.3750 N   0  0  0  0  0  0  0  0  0  0  0  0
  -23.6920  -32.1240   23.7500 O   0  0  0  0  0  0  0  0  0  0  0  0
  -22.8850  -29.4640   22.7260 C   0  0  0  0  0  0  0  0  0  0  0  0
  -21.5540  -29.3260   22.5230 N   0  0  0  0  0  0  0  0  0  0  0  0
  -23.4420  -28.9320   23.6860 O   0  0  0  0  0  0  0  0  0  0  0  0
  -21.1350  -29.8030   21.7370 H   0  0  0  0  0  0  0  0  0  0  0  0
  -18.1580  -27.9980   22.9020 C   0  0  0  0  0  0  0  0  0  0  0  0
  -20.6870  -28.4100   23.2910 C   0  0  0  0  0  3  0  0  0  0  0  0
  -20.8780  -26.9520   22.8120 C   0  0  0  0  0  2  0  0  0  0  0  0
  -19.8650  -26.5320   21.7440 C   0  0  0  0  0  2  0  0  0  0  0  0
  -18.4390  -26.6350   22.2910 C   0  0  0  0  0  2  0  0  0  0  0  0
  -19.2110  -28.8400   23.3530 C   0  0  0  0  0  0  0  0  0  0  0  0
  -18.8880  -30.1010   23.8960 C   0  0  0  0  0  3  0  0  0  0  0  0
  -17.5480  -30.5270   23.9870 C   0  0  0  0  0  3  0  0  0  0  0  0
  -16.5110  -29.6870   23.5440 C   0  0  0  0  0  3  0  0  0  0  0  0
  -16.8170  -28.4250   23.0070 C   0  0  0  0  0  3  0  0  0  0  0  0
  -25.9870  -32.5350   24.0930 C   0  0  0  0  0  3  0  0  0  0  0  0
  -25.6150  -33.9660   24.3190 N   0  0  0  0  0  0  0  0  0  0  0  0
  -25.9840  -35.0200   23.5700 C   0  0  0  0  0  0  0  0  0  0  0  0
  -26.6900  -34.8910   22.5700 O   0  0  0  0  0  0  0  0  0  0  0  0
  -24.9790  -34.1380   25.0820 H   0  0  0  0  0  0  0  0  0  0  0  0
  -24.2630  -36.8350   23.1710 C   0  0  0  0  0  1  0  0  0  0  0  0
  -25.5080  -36.4390   23.9820 C   0  0  0  0  0  3  0  0  0  0  0  0
  -27.6390  -37.3860   24.7740 C   0  0  0  0  0  1  0  0  0  0  0  0
  -26.5390  -37.4930   23.8200 N   0  0  0  0  0  0  0  0  0  0  0  0
  -26.1250  -38.4160   23.9190 H   0  0  0  0  0  0  0  0  0  0  0  0
  -26.3400  -31.9030   25.4990 C   0  0  1  0  0  0  0  0  0  0  0  0
  -25.1210  -31.7360   26.4410 C   0  0  0  0  0  1  0  0  0  0  0  0
  -26.9830  -30.5140   25.3380 C   0  0  0  0  0  1  0  0  0  0  0  0
  -27.3880  -32.7780   26.2280 C   0  0  0  0  0  1  0  0  0  0  0  0
  -26.8370  -17.5810   18.5750 C   0  0  0  0  0  2  0  0  0  0  0  0
  -24.7780  -18.0480   20.0620 C   0  0  0  0  0  1  0  0  0  0  0  0
  -25.4130  -18.1610   18.6670 C   0  0  0  0  0  2  0  0  0  0  0  0
  6  5  1  0
  7 14  1  0
  8 13  1  0
  9 10  1  0
  9  8  1  0
 11 10  1  0
 11 24  1  0
 11 12  1  0
 13  7  1  0
 13 12  1  0
 15 19  1  0
 15 17  1  0
 16 19  1  0
 16 18  1  0
 17 20  1  0
 18 20  1  0
 19  3  1  0
 21 22  2  0
 22 41  1  0
 23 22  1  0
 23 26  1  0
 24 25  1  0
 24 21  1  0
 25 23  2  0
 26 27  1  0
 27 28  2  0
 29 32  1  0
 29 28  1  0
 30 29  2  0
 31 30  1  0
 31 26  2  0
 32 33  1  0
 33 38  2  0
 33 34  1  0
 34 35  2  0
 35 36  1  0
 36 40  1  0
 37 36  2  0
 38 37  1  0
 39 38  1  0
 41 42  1  0
 42 45  1  0
 42 44  1  0
 43 41  2  0
 46 21  1  0
 46 47  1  0
 48 46  1  0
 50 61  2  0
 51 56  1  0
 52 60  1  0
 52 62  1  0
 53 55  1  0
 54 60  1  0
 55 56  2  0
 55 54  1  0
 57 51  2  0
 58 57  1  0
 58 53  2  0
 59 53  1  0
 59 52  1  0
 60 50  1  0
 62 64  2  0
 63 62  1  0
 65 63  1  0
 66 75  2  0
 66 71  1  0
 67 63  1  0
 67 71  1  0
 68 67  1  0
 69 70  1  0
 69 68  1  0
 70 66  1  0
 71 72  2  0
 72 73  1  0
 74 73  2  0
 75 74  1  0
 76 50  1  0
 76 77  1  0
 76 86  1  0
 77 80  1  0
 78 82  1  0
 78 77  1  0
 79 78  2  0
 82 81  1  0
 84 85  1  0
 84 82  1  0
 84 83  1  0
 86 89  1  1
 86 87  1  0
 88 86  1  0
 90 92  1  0
 90  4  1  0
 92 91  1  0
M  ISO  4   5 101   7 100  20 100  49 101
M  END
>  <TORSDO>  (36) 
F 18

>  <SCORE>  (36) 
-11.842

>  <name>  (36) 
36

>  <ligand_id>  (36) 
36

>  <original_smiles>  (36) 
[H]c1c(Oc2c([H])c([H])c3c(c2[H])C([H])([H])N(C(=O)C([H])(N([H])C(=O)C([H])(N([H])C([H])([H])[H])C([H])([H])[H])C(C([H])([H])[H])(C([H])([H])[H])C([H])([H])[H])C([H])(C(=O)N([H])C2([H])c4c([H])c([H])c([H])c([H])c4C([H])([H])C([H])([H])C2([H])[H])C3([H])[H])nc(C([H])([H])C([H])([H])C([H])([H])[H])c(C2([H])C([H])([H])C([H])([H])N(C(=O)N3C([H])([H])C([H])([H])C([H])([H])C([H])(n4nc(-c5c([H])c([H])c(Oc6c([H])c([H])c(F)c([H])c6F)c([H])c5[H])c(C(=O)N([H])[H])c4N([H])[H])C3([H])[H])C([H])([H])C2([H])[H])c1[H]

>  <smiles>  (36) 
[H]c1c(Oc2c([H])c([H])c3c(c2[H])C([H])([H])N(C(=O)C([H])(N([H])C(=O)C([H])(N([H])C([H])([H])[H])C([H])([H])[H])C(C([H])([H])[H])(C([H])([H])[H])C([H])([H])[H])C([H])(C(=O)N([H])C2([H])c4c([H])c([H])c([H])c([H])c4C([H])([H])C([H])([H])C2([H])[H])C3([H])[H])nc(C([H])([H])C([H])([H])C([H])([H])[H])c(C2([H])C([H])([H])C([H])([H])N(C(=O)N3C([H])([H])C([H])([H])C([H])([H])C([H])(n4nc(-c5c([H])c([H])c(Oc6c([H])c([H])c(F)c([H])c6F)c([H])c5[H])c(C(=O)N([H])[H])c4N([H])[H])C3([H])[H])C([H])([H])C2([H])[H])c1[H]

$$$$
37:0:0
     RDKit          3D

 95104  0  0  1  0  0  0  0  0999 V2000
  -30.5200  -14.7990   20.3870 C   0  0  0  0  0  0  0  0  0  0  0  0
  -30.3610  -12.4760   19.4550 C   0  0  0  0  0  2  0  0  0  0  0  0
  -29.4510  -12.4720   18.2070 C   0  0  0  0  0  2  0  0  0  0  0  0
  -27.9750  -12.2950   18.6130 C   0  0  0  0  0  2  0  0  0  0  0  0
  -27.5590  -13.2320   19.7790 C   0  0  0  0  0  3  0  0  0  0  0  0
  -28.5950  -13.2230   20.9250 C   0  0  0  0  0  2  0  0  0  0  0  0
  -29.8940  -13.5710   20.3380 N   0  0  0  0  0  0  0  0  0  0  0  0
  -31.7230  -14.8620   20.1090 O   0  0  0  0  0  0  0  0  0  0  0  0
  -31.2660  -17.6930   21.3380 C   0  0  0  0  0  3  0  0  0  0  0  0
  -31.7080  -19.0160   21.5220 C   0  0  0  0  0  0  0  0  0  0  0  0
  -30.9440  -20.0910   21.0050 C   0  0  0  0  0  0  0  0  0  0  0  0
  -30.0830  -17.3940   20.6350 C   0  0  0  0  0  0  0  0  0  0  0  0
  -29.7010  -19.8160   20.3840 C   0  0  0  0  0  0  0  0  0  0  0  0
  -33.0340  -19.2230   22.2570 C   0  0  0  0  0  2  0  0  0  0  0  0
  -31.5230  -21.5010   21.0480 C   0  0  0  0  0  2  0  0  0  0  0  0
  -33.0520  -21.5110   21.1430 C   0  0  0  0  0  2  0  0  0  0  0  0
  -33.5880  -20.6720   22.3190 C   0  0  1  0  0  0  0  0  0  0  0  0
  -33.2050  -21.3230   23.6660 C   0  0  0  0  0  1  0  0  0  0  0  0
  -35.1270  -20.6390   22.2300 C   0  0  0  0  0  1  0  0  0  0  0  0
  -29.3160  -18.4820   20.1990 N   0  0  0  0  0  0  0  0  0  0  0  0
  -29.7330  -15.9500   20.4940 N   0  0  0  0  0  0  0  0  0  0  0  0
  -28.7450  -15.7660   20.4660 H   0  0  0  0  0  0  0  0  0  0  0  0
  -25.1630  -13.8260   20.4710 C   0  0  0  0  0  0  0  0  0  0  0  0
  -24.0930  -13.0550   20.8320 C   0  0  0  0  0  0  0  0  0  0  0  0
  -24.5560  -11.7030   20.8170 C   0  0  0  0  0  0  0  0  0  0  0  0
  -26.2100  -12.9440   20.2550 N   0  0  0  0  0  0  0  0  0  0  0  0
  -25.8510  -11.6640   20.5290 N   0  0  0  0  0  0  0  0  0  0  0  0
  -23.8240  -10.4430   21.0050 C   0  0  0  0  0  0  0  0  0  0  0  0
  -24.2360   -9.4860   21.9590 C   0  0  0  0  0  3  0  0  0  0  0  0
  -23.5050   -8.2900   22.1330 C   0  0  0  0  0  3  0  0  0  0  0  0
  -22.3500   -8.0450   21.3550 C   0  0  0  0  0  0  0  0  0  0  0  0
  -21.9580   -8.9900   20.3920 C   0  0  0  0  0  3  0  0  0  0  0  0
  -22.6890  -10.1780   20.2150 C   0  0  0  0  0  3  0  0  0  0  0  0
  -21.5920   -6.9010   21.4400 O   0  0  0  0  0  0  0  0  0  0  0  0
  -21.5030   -6.1810   22.6030 C   0  0  0  0  0  0  0  0  0  0  0  0
  -21.0370   -6.7600   23.8040 C   0  0  0  0  0  3  0  0  0  0  0  0
  -20.8970   -5.9650   24.9600 C   0  0  0  0  0  3  0  0  0  0  0  0
  -21.2110   -4.5930   24.9150 C   0  0  0  0  0  0  0  0  0  0  0  0
  -21.6690   -4.0140   23.7190 C   0  0  0  0  0  3  0  0  0  0  0  0
  -21.8120   -4.8050   22.5650 C   0  0  0  0  0  0  0  0  0  0  0  0
  -22.2350   -4.2390   21.4090 F   0  0  0  0  0  0  0  0  0  0  0  0
  -21.0680   -3.8280   26.0220 F   0  0  0  0  0  0  0  0  0  0  0  0
  -22.6920  -13.5350   21.0760 C   0  0  0  0  0  0  0  0  0  0  0  0
  -21.9510  -12.8500   21.9400 N   0  0  0  0  0  0  0  0  0  0  0  0
  -22.2630  -14.5540   20.5360 O   0  0  0  0  0  0  0  0  0  0  0  0
  -22.3100  -12.0270   22.4020 H   0  0  0  0  0  0  0  0  0  0  0  0
  -21.0100  -13.1540   22.1460 H   0  0  0  0  0  0  0  0  0  0  0  0
  -25.3290  -15.1950   20.2830 N   0  0  0  0  0  0  0  0  0  0  0  0
  -24.5510  -15.8420   20.3710 H   0  0  0  0  0  0  0  0  0  0  0  0
  -26.1650  -15.6330   19.9210 H   0  0  0  0  0  0  0  0  0  0  0  0
  -28.9050  -20.8470   19.7880 O   0  0  0  0  0  0  0  0  0  0  0  0
  -28.4790  -22.1280   20.4590 C   0  0  0  0  0  3  0  0  0  0  0  0
  -28.5950  -23.5910   19.7360 C   0  0  0  0  0  3  0  0  0  0  0  0
  -27.8710  -24.9060   20.3750 C   0  0  0  0  0  2  0  0  0  0  0  0
  -28.0910  -26.3270   19.8970 O   0  0  0  0  0  0  0  0  0  0  0  0
  -24.5190  -31.8030   23.1150 C   0  0  0  0  0  0  0  0  0  0  0  0
  -27.0090  -27.2410   19.9200 C   0  0  0  0  0  0  0  0  0  0  0  0
  -23.2720  -30.4590   21.4630 C   0  0  0  0  0  3  0  0  0  0  0  0
  -24.6790  -28.9220   19.9730 C   0  0  0  0  0  0  0  0  0  0  0  0
  -25.8150  -30.7400   21.2450 C   0  0  0  0  0  2  0  0  0  0  0  0
  -25.8670  -29.3720   20.5640 C   0  0  0  0  0  0  0  0  0  0  0  0
  -27.0380  -28.5460   20.5210 C   0  0  0  0  0  3  0  0  0  0  0  0
  -25.8010  -26.8610   19.3000 C   0  0  0  0  0  3  0  0  0  0  0  0
  -24.6510  -27.6750   19.3290 C   0  0  0  0  0  3  0  0  0  0  0  0
  -23.4560  -29.8160   20.0630 C   0  0  0  0  0  2  0  0  0  0  0  0
  -24.5560  -31.0180   21.9970 N   0  0  0  0  0  0  0  0  0  0  0  0
  -23.4470  -32.0790   23.6740 O   0  0  0  0  0  0  0  0  0  0  0  0
  -22.6100  -29.4280   22.4100 C   0  0  0  0  0  0  0  0  0  0  0  0
  -21.2780  -29.2790   22.3120 N   0  0  0  0  0  0  0  0  0  0  0  0
  -23.2960  -28.7670   23.1950 O   0  0  0  0  0  0  0  0  0  0  0  0
  -20.7850  -29.8640   21.6540 H   0  0  0  0  0  0  0  0  0  0  0  0
  -17.8910  -28.1310   22.8680 C   0  0  0  0  0  0  0  0  0  0  0  0
  -20.4600  -28.3330   23.0750 C   0  0  0  0  0  3  0  0  0  0  0  0
  -20.5170  -26.9190   22.4510 C   0  0  0  0  0  2  0  0  0  0  0  0
  -19.3820  -26.6510   21.4580 C   0  0  0  0  0  2  0  0  0  0  0  0
  -18.0220  -26.8010   22.1440 C   0  0  0  0  0  2  0  0  0  0  0  0
  -19.0350  -28.8570   23.2900 C   0  0  0  0  0  0  0  0  0  0  0  0
  -18.8580  -30.1030   23.9280 C   0  0  0  0  0  3  0  0  0  0  0  0
  -17.5670  -30.6230   24.1470 C   0  0  0  0  0  3  0  0  0  0  0  0
  -16.4370  -29.8920   23.7410 C   0  0  0  0  0  3  0  0  0  0  0  0
  -16.6000  -28.6480   23.1070 C   0  0  0  0  0  3  0  0  0  0  0  0
  -25.8180  -32.4070   23.7320 C   0  0  0  0  0  3  0  0  0  0  0  0
  -26.3420  -31.6030   24.9850 C   0  0  1  0  0  0  0  0  0  0  0  0
  -25.2630  -31.3620   26.0680 C   0  0  0  0  0  1  0  0  0  0  0  0
  -26.8950  -30.2230   24.5600 C   0  0  0  0  0  1  0  0  0  0  0  0
  -27.5160  -32.3650   25.6430 C   0  0  0  0  0  1  0  0  0  0  0  0
  -25.5290  -33.8010   24.0990 N   0  0  0  0  0  0  0  0  0  0  0  0
  -25.8660  -34.8690   23.3630 C   0  0  0  0  0  0  0  0  0  0  0  0
  -26.5210  -34.7830   22.3210 O   0  0  0  0  0  0  0  0  0  0  0  0
  -24.9460  -33.9430   24.9110 H   0  0  0  0  0  0  0  0  0  0  0  0
  -24.1630  -36.7000   23.0720 C   0  0  0  0  0  1  0  0  0  0  0  0
  -25.4030  -36.2530   23.8620 C   0  0  0  0  0  3  0  0  0  0  0  0
  -27.5600  -37.0810   24.6970 C   0  0  0  0  0  1  0  0  0  0  0  0
  -26.4500  -37.2940   23.7710 N   0  0  0  0  0  0  0  0  0  0  0  0
  -26.0590  -38.2150   23.9510 H   0  0  0  0  0  0  0  0  0  0  0  0
  1 21  1  0
  2  7  1  0
  3  4  1  0
  3  2  1  0
  5  4  1  0
  5 26  1  0
  5  6  1  0
  7  1  1  0
  7  6  1  0
  8  1  2  0
  9 10  1  0
 10 14  1  0
 11 15  1  0
 11 10  2  0
 12  9  2  0
 13 11  1  0
 14 17  1  0
 15 16  1  0
 16 17  1  0
 17 18  1  1
 19 17  1  0
 20 13  2  0
 20 12  1  0
 21 12  1  0
 22 21  1  0
 23 24  2  0
 24 43  1  0
 25 24  1  0
 25 28  1  0
 26 23  1  0
 26 27  1  0
 27 25  2  0
 28 29  1  0
 29 30  2  0
 31 34  1  0
 31 30  1  0
 32 31  2  0
 33 32  1  0
 33 28  2  0
 34 35  1  0
 35 36  1  0
 36 37  2  0
 38 37  1  0
 38 42  1  0
 39 38  2  0
 40 35  2  0
 40 39  1  0
 41 40  1  0
 43 44  1  0
 44 47  1  0
 44 46  1  0
 45 43  2  0
 48 49  1  0
 48 23  1  0
 50 48  1  0
 51 13  1  0
 51 52  1  0
 53 54  1  0
 53 52  2  0
 55 57  1  0
 55 54  1  0
 56 67  2  0
 57 62  1  0
 58 66  1  0
 58 68  1  0
 59 65  1  0
 59 61  1  0
 60 66  1  0
 61 60  1  0
 62 61  2  0
 63 64  1  0
 63 57  2  0
 64 59  2  0
 65 58  1  0
 66 56  1  0
 68 70  2  0
 69 68  1  0
 71 69  1  0
 72 81  2  0
 72 77  1  0
 73 69  1  0
 73 77  1  0
 74 73  1  0
 75 76  1  0
 75 74  1  0
 76 72  1  0
 77 78  2  0
 78 79  1  0
 80 79  2  0
 81 80  1  0
 82 56  1  0
 82 87  1  0
 82 83  1  0
 83 86  1  1
 83 84  1  0
 85 83  1  0
 87 90  1  0
 88 92  1  0
 88 87  1  0
 89 88  2  0
 92 91  1  0
 94 92  1  0
 94 95  1  0
 94 93  1  0
M  ISO  4   1 100  21 100  54 101  55 101
M  END
>  <TORSDO>  (37) 
F 19

>  <SCORE>  (37) 
-13.721

>  <name>  (37) 
37

>  <ligand_id>  (37) 
37

>  <original_smiles>  (37) 
[H]c1c([H])c([H])c2c(c1[H])C([H])([H])C([H])([H])C([H])([H])C2([H])N([H])C(=O)C1([H])N(C(=O)C([H])(N([H])C(=O)C([H])(N([H])C([H])([H])[H])C([H])([H])[H])C(C([H])([H])[H])(C([H])([H])[H])C([H])([H])[H])C([H])([H])c2c([H])c(OC([H])([H])C([H])([H])C([H])([H])Oc3nc(N([H])C(=O)N4C([H])([H])C([H])([H])C([H])([H])C([H])(n5nc(-c6c([H])c([H])c(Oc7c([H])c([H])c(F)c([H])c7F)c([H])c6[H])c(C(=O)N([H])[H])c5N([H])[H])C4([H])[H])c([H])c4c3C([H])([H])C([H])([H])C(C([H])([H])[H])(C([H])([H])[H])C4([H])[H])c([H])c([H])c2C1([H])[H]

>  <smiles>  (37) 
[H]c1c([H])c([H])c2c(c1[H])C([H])([H])C([H])([H])C([H])([H])C2([H])N([H])C(=O)C1([H])N(C(=O)C([H])(N([H])C(=O)C([H])(N([H])C([H])([H])[H])C([H])([H])[H])C(C([H])([H])[H])(C([H])([H])[H])C([H])([H])[H])C([H])([H])c2c([H])c(OC([H])([H])C([H])([H])C([H])([H])Oc3nc(N([H])C(=O)N4C([H])([H])C([H])([H])C([H])([H])C([H])(n5nc(-c6c([H])c([H])c(Oc7c([H])c([H])c(F)c([H])c7F)c([H])c6[H])c(C(=O)N([H])[H])c5N([H])[H])C4([H])[H])c([H])c4c3C([H])([H])C([H])([H])C(C([H])([H])[H])(C([H])([H])[H])C4([H])[H])c([H])c([H])c2C1([H])[H]

$$$$
38:0:0
     RDKit          3D

 92101  0  0  1  0  0  0  0  0999 V2000
  -30.4320  -22.0530   21.8420 C   0  0  0  0  0  3  0  0  0  0  0  0
  -28.8680  -21.3740   20.1260 C   0  0  0  0  0  3  0  0  0  0  0  0
  -30.0090  -19.6490   21.4740 C   0  0  0  0  0  0  0  0  0  0  0  0
  -30.6560  -20.6990   22.1840 C   0  0  0  0  0  0  0  0  0  0  0  0
  -29.0880  -20.0130   20.4520 C   0  0  0  0  0  0  0  0  0  0  0  0
  -29.5430  -22.4040   20.8110 C   0  0  0  0  0  0  0  0  0  0  0  0
  -31.6020  -20.4040   23.3400 C   0  0  0  0  0  1  0  0  0  0  0  0
  -28.3070  -18.9560   19.6870 C   0  0  0  0  0  1  0  0  0  0  0  0
  -31.6460  -17.5810   21.7750 C   0  0  0  0  0  2  0  0  0  0  0  0
  -30.2620  -18.1930   21.8530 C   0  0  0  0  0  3  0  0  0  0  0  0
  -30.5610  -17.0640   20.8650 C   0  0  0  0  0  3  0  0  0  0  0  0
  -29.9700  -15.6620   21.0630 C   0  0  0  0  0  2  0  0  0  0  0  0
  -30.6450  -14.5240   20.2560 C   0  0  0  0  0  0  0  0  0  0  0  0
  -30.3260  -12.3990   19.0230 C   0  0  0  0  0  2  0  0  0  0  0  0
  -29.3380  -12.6340   17.8620 C   0  0  0  0  0  2  0  0  0  0  0  0
  -27.8790  -12.4790   18.3390 C   0  0  0  0  0  2  0  0  0  0  0  0
  -27.5880  -13.2850   19.6320 C   0  0  0  0  0  3  0  0  0  0  0  0
  -28.6800  -13.0250   20.6960 C   0  0  0  0  0  2  0  0  0  0  0  0
  -29.9850  -13.3450   20.0960 N   0  0  0  0  0  0  0  0  0  0  0  0
  -31.7280  -14.7470   19.7030 O   0  0  0  0  0  0  0  0  0  0  0  0
  -25.2100  -13.8840   20.4190 C   0  0  0  0  0  0  0  0  0  0  0  0
  -24.1550  -13.1060   20.8140 C   0  0  0  0  0  0  0  0  0  0  0  0
  -24.6180  -11.7560   20.7570 C   0  0  0  0  0  0  0  0  0  0  0  0
  -26.2500  -13.0060   20.1500 N   0  0  0  0  0  0  0  0  0  0  0  0
  -25.8970  -11.7210   20.4080 N   0  0  0  0  0  0  0  0  0  0  0  0
  -23.9000  -10.4900   20.9590 C   0  0  0  0  0  0  0  0  0  0  0  0
  -24.3440   -9.5310   21.8980 C   0  0  0  0  0  3  0  0  0  0  0  0
  -23.6270   -8.3300   22.0870 C   0  0  0  0  0  3  0  0  0  0  0  0
  -22.4530   -8.0780   21.3380 C   0  0  0  0  0  0  0  0  0  0  0  0
  -22.0280   -9.0260   20.3890 C   0  0  0  0  0  3  0  0  0  0  0  0
  -22.7450  -10.2190   20.1990 C   0  0  0  0  0  3  0  0  0  0  0  0
  -21.7070   -6.9290   21.4360 O   0  0  0  0  0  0  0  0  0  0  0  0
  -21.6460   -6.2080   22.6020 C   0  0  0  0  0  0  0  0  0  0  0  0
  -21.1980   -6.7840   23.8110 C   0  0  0  0  0  3  0  0  0  0  0  0
  -21.0850   -5.9880   24.9700 C   0  0  0  0  0  3  0  0  0  0  0  0
  -21.4100   -4.6200   24.9190 C   0  0  0  0  0  0  0  0  0  0  0  0
  -21.8520   -4.0450   23.7150 C   0  0  0  0  0  3  0  0  0  0  0  0
  -21.9670   -4.8360   22.5590 C   0  0  0  0  0  0  0  0  0  0  0  0
  -22.3730   -4.2730   21.3950 F   0  0  0  0  0  0  0  0  0  0  0  0
  -21.2940   -3.8540   26.0280 F   0  0  0  0  0  0  0  0  0  0  0  0
  -22.7650  -13.5770   21.1350 C   0  0  0  0  0  0  0  0  0  0  0  0
  -22.0660  -12.8680   22.0130 N   0  0  0  0  0  0  0  0  0  0  0  0
  -22.3100  -14.6090   20.6420 O   0  0  0  0  0  0  0  0  0  0  0  0
  -22.4480  -12.0320   22.4310 H   0  0  0  0  0  0  0  0  0  0  0  0
  -21.1360  -13.1640   22.2700 H   0  0  0  0  0  0  0  0  0  0  0  0
  -25.3680  -15.2560   20.2470 N   0  0  0  0  0  0  0  0  0  0  0  0
  -24.6050  -15.9100   20.3840 H   0  0  0  0  0  0  0  0  0  0  0  0
  -26.2100  -15.6970   19.9020 H   0  0  0  0  0  0  0  0  0  0  0  0
  -29.3940  -23.7270   20.4510 O   0  0  0  0  0  0  0  0  0  0  0  0
  -28.3060  -24.4260   21.0670 C   0  0  0  0  0  2  0  0  0  0  0  0
  -28.6450  -25.9240   21.2900 C   0  0  0  0  0  2  0  0  0  0  0  0
  -28.4170  -26.7560   20.1440 O   0  0  0  0  0  0  0  0  0  0  0  0
  -24.5770  -31.9200   23.2410 C   0  0  0  0  0  0  0  0  0  0  0  0
  -27.2560  -27.4910   20.1790 C   0  0  0  0  0  0  0  0  0  0  0  0
  -23.3820  -30.5070   21.5970 C   0  0  0  0  0  3  0  0  0  0  0  0
  -24.8500  -28.9730   20.1810 C   0  0  0  0  0  0  0  0  0  0  0  0
  -25.9050  -30.8820   21.4050 C   0  0  0  0  0  2  0  0  0  0  0  0
  -26.0020  -29.5080   20.7740 C   0  0  0  0  0  0  0  0  0  0  0  0
  -27.2080  -28.7720   20.7750 C   0  0  0  0  0  3  0  0  0  0  0  0
  -26.0940  -26.9680   19.5790 C   0  0  0  0  0  3  0  0  0  0  0  0
  -24.8900  -27.7000   19.5830 C   0  0  0  0  0  3  0  0  0  0  0  0
  -23.6000  -29.8230   20.2200 C   0  0  0  0  0  2  0  0  0  0  0  0
  -24.6390  -31.1190   22.1400 N   0  0  0  0  0  0  0  0  0  0  0  0
  -23.4930  -32.1870   23.7790 O   0  0  0  0  0  0  0  0  0  0  0  0
  -22.7350  -29.4850   22.5580 C   0  0  0  0  0  0  0  0  0  0  0  0
  -21.4120  -29.2890   22.4220 N   0  0  0  0  0  0  0  0  0  0  0  0
  -23.4180  -28.8710   23.3820 O   0  0  0  0  0  0  0  0  0  0  0  0
  -20.9220  -29.8390   21.7310 H   0  0  0  0  0  0  0  0  0  0  0  0
  -18.0480  -28.0610   22.8910 C   0  0  0  0  0  0  0  0  0  0  0  0
  -20.5990  -28.3470   23.1890 C   0  0  0  0  0  3  0  0  0  0  0  0
  -20.7220  -26.9140   22.6220 C   0  0  0  0  0  2  0  0  0  0  0  0
  -19.6360  -26.5750   21.5980 C   0  0  0  0  0  2  0  0  0  0  0  0
  -18.2450  -26.7100   22.2250 C   0  0  0  0  0  2  0  0  0  0  0  0
  -19.1540  -28.8370   23.3290 C   0  0  0  0  0  0  0  0  0  0  0  0
  -18.9160  -30.1020   23.9090 C   0  0  0  0  0  3  0  0  0  0  0  0
  -17.6050  -30.5920   24.0560 C   0  0  0  0  0  3  0  0  0  0  0  0
  -16.5130  -29.8130   23.6360 C   0  0  0  0  0  3  0  0  0  0  0  0
  -16.7350  -28.5500   23.0590 C   0  0  0  0  0  3  0  0  0  0  0  0
  -25.8590  -32.5570   23.8620 C   0  0  0  0  0  3  0  0  0  0  0  0
  -25.5470  -33.9570   24.1800 N   0  0  0  0  0  0  0  0  0  0  0  0
  -25.8930  -35.0050   23.4200 C   0  0  0  0  0  0  0  0  0  0  0  0
  -26.5800  -34.8950   22.4010 O   0  0  0  0  0  0  0  0  0  0  0  0
  -24.9380  -34.1170   24.9700 H   0  0  0  0  0  0  0  0  0  0  0  0
  -24.1780  -36.7990   23.0210 C   0  0  0  0  0  1  0  0  0  0  0  0
  -25.3990  -36.3960   23.8620 C   0  0  0  0  0  3  0  0  0  0  0  0
  -27.5180  -37.2750   24.7350 C   0  0  0  0  0  1  0  0  0  0  0  0
  -26.4350  -37.4470   23.7690 N   0  0  0  0  0  0  0  0  0  0  0  0
  -26.0280  -38.3670   23.9120 H   0  0  0  0  0  0  0  0  0  0  0  0
  -26.3750  -31.7950   25.1430 C   0  0  1  0  0  0  0  0  0  0  0  0
  -25.2790  -31.5560   26.2080 C   0  0  0  0  0  1  0  0  0  0  0  0
  -26.9650  -30.4180   24.7580 C   0  0  0  0  0  1  0  0  0  0  0  0
  -27.5190  -32.5970   25.8070 C   0  0  0  0  0  1  0  0  0  0  0  0
  1  4  1  0
  2  5  2  0
  2  6  1  0
  3  4  2  0
  4  7  1  0
  5  3  1  0
  6  1  2  0
  8  5  1  0
  9 10  1  0
 10  3  1  0
 11 12  1  0
 11  9  1  0
 11 10  1  0
 13 12  1  0
 14 19  1  0
 15 16  1  0
 15 14  1  0
 17 16  1  0
 17 24  1  0
 17 18  1  0
 19 13  1  0
 19 18  1  0
 20 13  2  0
 21 22  2  0
 22 41  1  0
 23 22  1  0
 23 26  1  0
 24 25  1  0
 24 21  1  0
 25 23  2  0
 26 27  1  0
 27 28  2  0
 29 32  1  0
 29 28  1  0
 30 29  2  0
 31 30  1  0
 31 26  2  0
 32 33  1  0
 33 34  1  0
 34 35  2  0
 36 35  1  0
 36 40  1  0
 37 36  2  0
 38 33  2  0
 38 37  1  0
 39 38  1  0
 41 42  1  0
 42 45  1  0
 42 44  1  0
 43 41  2  0
 46 47  1  0
 46 21  1  0
 48 46  1  0
 49  6  1  0
 49 50  1  0
 50 51  1  0
 52 54  1  0
 52 51  1  0
 53 64  2  0
 54 59  1  0
 55 63  1  0
 55 65  1  0
 56 62  1  0
 56 58  1  0
 57 63  1  0
 58 59  2  0
 58 57  1  0
 60 61  1  0
 60 54  2  0
 61 56  2  0
 62 55  1  0
 63 53  1  0
 65 67  2  0
 66 65  1  0
 68 66  1  0
 69 78  2  0
 69 74  1  0
 70 66  1  0
 70 74  1  0
 71 70  1  0
 72 73  1  0
 72 71  1  0
 73 69  1  0
 74 75  2  0
 75 76  1  0
 77 76  2  0
 78 77  1  0
 79 53  1  0
 79 80  1  0
 79 89  1  0
 80 83  1  0
 81 85  1  0
 81 80  1  0
 82 81  2  0
 85 84  1  0
 87 85  1  0
 87 88  1  0
 87 86  1  0
 89 92  1  1
 89 90  1  0
 91 89  1  0
M  ISO  4  12 100  13 100  51 101  52 101
M  END
>  <TORSDO>  (38) 
F 21

>  <SCORE>  (38) 
-13.503

>  <name>  (38) 
38

>  <ligand_id>  (38) 
38

>  <original_smiles>  (38) 
[H]c1c([H])c([H])c2c(c1[H])C([H])([H])C([H])([H])C([H])([H])C2([H])N([H])C(=O)C1([H])N(C(=O)C([H])(N([H])C(=O)C([H])(N([H])C([H])([H])[H])C([H])([H])[H])C(C([H])([H])[H])(C([H])([H])[H])C([H])([H])[H])C([H])([H])c2c([H])c(OC([H])([H])C([H])([H])Oc3c([H])c(C([H])([H])[H])c(C4([H])C([H])([H])C4([H])C([H])([H])C(=O)N4C([H])([H])C([H])([H])C([H])([H])C([H])(n5nc(-c6c([H])c([H])c(Oc7c([H])c([H])c(F)c([H])c7F)c([H])c6[H])c(C(=O)N([H])[H])c5N([H])[H])C4([H])[H])c(C([H])([H])[H])c3[H])c([H])c([H])c2C1([H])[H]

>  <smiles>  (38) 
[H]c1c([H])c([H])c2c(c1[H])C([H])([H])C([H])([H])C([H])([H])C2([H])N([H])C(=O)C1([H])N(C(=O)C([H])(N([H])C(=O)C([H])(N([H])C([H])([H])[H])C([H])([H])[H])C(C([H])([H])[H])(C([H])([H])[H])C([H])([H])[H])C([H])([H])c2c([H])c(OC([H])([H])C([H])([H])Oc3c([H])c(C([H])([H])[H])c(C4([H])C([H])([H])C4([H])C([H])([H])C(=O)N4C([H])([H])C([H])([H])C([H])([H])C([H])(n5nc(-c6c([H])c([H])c(Oc7c([H])c([H])c(F)c([H])c7F)c([H])c6[H])c(C(=O)N([H])[H])c5N([H])[H])C4([H])[H])c(C([H])([H])[H])c3[H])c([H])c([H])c2C1([H])[H]

$$$$
39:0:0
     RDKit          3D

 93103  0  0  1  0  0  0  0  0999 V2000
  -29.6720  -20.6910   22.0170 C   0  0  0  0  0  2  0  0  0  0  0  0
  -29.3890  -20.6240   20.0100 C   0  0  0  0  0  2  0  0  0  0  0  0
  -29.3110  -19.5100   21.0880 C   0  0  0  0  0  3  0  0  0  0  0  0
  -29.0400  -21.6080   21.0500 N   0  0  2  0  0  4  0  0  0  0  0  0
  -28.0430  -21.6250   21.1990 H   0  0  0  0  0  0  0  0  0  0  0  0
  -29.6050  -23.0050   20.9550 C   0  0  0  0  0  2  0  0  0  0  0  0
  -28.6290  -24.1330   20.4010 C   0  0  0  0  0  2  0  0  0  0  0  0
  -28.2540  -25.5340   21.0470 C   0  0  0  0  0  2  0  0  0  0  0  0
  -28.3460  -26.7160   20.2040 O   0  0  0  0  0  0  0  0  0  0  0  0
  -24.5490  -31.9750   23.2360 C   0  0  0  0  0  0  0  0  0  0  0  0
  -27.2080  -27.5070   20.1830 C   0  0  0  0  0  0  0  0  0  0  0  0
  -23.3500  -30.5620   21.6000 C   0  0  0  0  0  3  0  0  0  0  0  0
  -24.8110  -29.0230   20.1760 C   0  0  0  0  0  0  0  0  0  0  0  0
  -25.8750  -30.9240   21.4000 C   0  0  0  0  0  2  0  0  0  0  0  0
  -25.9700  -29.5500   20.7630 C   0  0  0  0  0  0  0  0  0  0  0  0
  -27.1760  -28.8020   20.7570 C   0  0  0  0  0  3  0  0  0  0  0  0
  -26.0340  -27.0020   19.5890 C   0  0  0  0  0  3  0  0  0  0  0  0
  -24.8400  -27.7500   19.5820 C   0  0  0  0  0  3  0  0  0  0  0  0
  -23.5640  -29.8790   20.2230 C   0  0  0  0  0  2  0  0  0  0  0  0
  -24.6100  -31.1680   22.1380 N   0  0  0  0  0  0  0  0  0  0  0  0
  -23.4670  -32.2450   23.7750 O   0  0  0  0  0  0  0  0  0  0  0  0
  -22.6990  -29.5440   22.5650 C   0  0  0  0  0  0  0  0  0  0  0  0
  -21.3750  -29.3540   22.4340 N   0  0  0  0  0  0  0  0  0  0  0  0
  -23.3820  -28.9270   23.3870 O   0  0  0  0  0  0  0  0  0  0  0  0
  -20.8820  -29.9120   21.7520 H   0  0  0  0  0  0  0  0  0  0  0  0
  -18.0080  -28.1340   22.9280 C   0  0  0  0  0  0  0  0  0  0  0  0
  -20.5620  -28.4140   23.2050 C   0  0  0  0  0  3  0  0  0  0  0  0
  -20.6770  -26.9800   22.6390 C   0  0  0  0  0  2  0  0  0  0  0  0
  -19.5810  -26.6430   21.6220 C   0  0  0  0  0  2  0  0  0  0  0  0
  -18.1960  -26.7830   22.2600 C   0  0  0  0  0  2  0  0  0  0  0  0
  -19.1190  -28.9060   23.3580 C   0  0  0  0  0  0  0  0  0  0  0  0
  -18.8900  -30.1710   23.9420 C   0  0  0  0  0  3  0  0  0  0  0  0
  -17.5840  -30.6670   24.0980 C   0  0  0  0  0  3  0  0  0  0  0  0
  -16.4850  -29.8920   23.6860 C   0  0  0  0  0  3  0  0  0  0  0  0
  -16.6980  -28.6280   23.1060 C   0  0  0  0  0  3  0  0  0  0  0  0
  -25.8330  -32.6150   23.8530 C   0  0  0  0  0  3  0  0  0  0  0  0
  -25.5160  -34.0090   24.1860 N   0  0  0  0  0  0  0  0  0  0  0  0
  -25.8460  -35.0660   23.4300 C   0  0  0  0  0  0  0  0  0  0  0  0
  -26.5190  -34.9670   22.4000 O   0  0  0  0  0  0  0  0  0  0  0  0
  -24.9180  -34.1590   24.9850 H   0  0  0  0  0  0  0  0  0  0  0  0
  -24.1110  -36.8520   23.0760 C   0  0  0  0  0  1  0  0  0  0  0  0
  -25.3520  -36.4500   23.8890 C   0  0  0  0  0  3  0  0  0  0  0  0
  -27.4820  -37.3420   24.7240 C   0  0  0  0  0  1  0  0  0  0  0  0
  -26.3800  -37.5070   23.7810 N   0  0  0  0  0  0  0  0  0  0  0  0
  -25.9680  -38.4250   23.9320 H   0  0  0  0  0  0  0  0  0  0  0  0
  -26.3600  -31.8440   25.1260 C   0  0  1  0  0  0  0  0  0  0  0  0
  -25.2730  -31.5890   26.1950 C   0  0  0  0  0  1  0  0  0  0  0  0
  -26.9600  -30.4750   24.7260 C   0  0  0  0  0  1  0  0  0  0  0  0
  -27.5010  -32.6510   25.7890 C   0  0  0  0  0  1  0  0  0  0  0  0
  -30.1270  -18.1590   21.0260 C   0  0  0  0  0  3  0  0  0  0  0  0
  -30.6480  -14.6930   20.2120 C   0  0  0  0  0  0  0  0  0  0  0  0
  -30.3830  -12.4330   19.2470 C   0  0  0  0  0  2  0  0  0  0  0  0
  -29.4450  -12.5400   18.0270 C   0  0  0  0  0  2  0  0  0  0  0  0
  -27.9680  -12.4400   18.4590 C   0  0  0  0  0  2  0  0  0  0  0  0
  -27.6220  -13.3330   19.6820 C   0  0  0  0  0  3  0  0  0  0  0  0
  -28.6870  -13.2200   20.7950 C   0  0  0  0  0  2  0  0  0  0  0  0
  -29.9980  -13.4930   20.1930 N   0  0  0  0  0  0  0  0  0  0  0  0
  -31.8480  -14.7760   19.9420 O   0  0  0  0  0  0  0  0  0  0  0  0
  -28.6310  -17.1760   19.0610 C   0  0  0  0  0  2  0  0  0  0  0  0
  -29.7350  -16.2880   18.5100 C   0  0  0  0  0  2  0  0  0  0  0  0
  -29.2420  -16.9830   20.4500 C   0  0  0  0  0  3  0  0  0  0  0  0
  -29.8380  -15.7330   19.8610 N   0  0  0  0  0  0  0  0  0  0  0  0
  -25.2440  -13.9620   20.4270 C   0  0  0  0  0  0  0  0  0  0  0  0
  -24.1720  -13.1980   20.8050 C   0  0  0  0  0  0  0  0  0  0  0  0
  -24.6230  -11.8440   20.7770 C   0  0  0  0  0  0  0  0  0  0  0  0
  -26.2770  -13.0690   20.1860 N   0  0  0  0  0  0  0  0  0  0  0  0
  -25.9100  -11.7910   20.4610 N   0  0  0  0  0  0  0  0  0  0  0  0
  -23.8890  -10.5890   20.9760 C   0  0  0  0  0  0  0  0  0  0  0  0
  -24.3130   -9.6290   21.9210 C   0  0  0  0  0  3  0  0  0  0  0  0
  -23.5790   -8.4370   22.1070 C   0  0  0  0  0  3  0  0  0  0  0  0
  -22.4080   -8.1990   21.3490 C   0  0  0  0  0  0  0  0  0  0  0  0
  -22.0060   -9.1480   20.3910 C   0  0  0  0  0  3  0  0  0  0  0  0
  -22.7390  -10.3290   20.2030 C   0  0  0  0  0  3  0  0  0  0  0  0
  -21.6470   -7.0600   21.4440 O   0  0  0  0  0  0  0  0  0  0  0  0
  -21.5740   -6.3370   22.6080 C   0  0  0  0  0  0  0  0  0  0  0  0
  -21.1380   -6.9170   23.8190 C   0  0  0  0  0  3  0  0  0  0  0  0
  -21.0130   -6.1210   24.9760 C   0  0  0  0  0  3  0  0  0  0  0  0
  -21.3140   -4.7470   24.9210 C   0  0  0  0  0  0  0  0  0  0  0  0
  -21.7430   -4.1680   23.7150 C   0  0  0  0  0  3  0  0  0  0  0  0
  -21.8690   -4.9590   22.5610 C   0  0  0  0  0  0  0  0  0  0  0  0
  -22.2630   -4.3910   21.3950 F   0  0  0  0  0  0  0  0  0  0  0  0
  -21.1850   -3.9800   26.0290 F   0  0  0  0  0  0  0  0  0  0  0  0
  -22.7810  -13.6900   21.0850 C   0  0  0  0  0  0  0  0  0  0  0  0
  -22.0540  -13.0010   21.9570 N   0  0  0  0  0  0  0  0  0  0  0  0
  -22.3490  -14.7200   20.5700 O   0  0  0  0  0  0  0  0  0  0  0  0
  -22.4220  -12.1700   22.3970 H   0  0  0  0  0  0  0  0  0  0  0  0
  -21.1210  -13.3070   22.1900 H   0  0  0  0  0  0  0  0  0  0  0  0
  -25.4210  -15.3290   20.2500 N   0  0  0  0  0  0  0  0  0  0  0  0
  -24.6670  -15.9960   20.3750 H   0  0  0  0  0  0  0  0  0  0  0  0
  -26.2880  -15.7590   19.9550 H   0  0  0  0  0  0  0  0  0  0  0  0
  -32.6110  -19.0990   21.0070 C   0  0  0  0  0  2  0  0  0  0  0  0
  -32.7080  -17.6170   20.7660 C   0  0  0  0  0  2  0  0  0  0  0  0
  -31.4700  -18.3650   20.3310 C   0  0  0  0  0  3  0  0  0  0  0  0
  2  4  1  0
  2  3  1  0
  3 50  1  0
  3  1  1  0
  4  5  1  1
  4  1  1  0
  6  4  1  0
  7  6  1  0
  7  8  1  0
  9  8  1  0
 10 21  2  0
 11  9  1  0
 11 16  1  0
 12 20  1  0
 12 22  1  0
 13 19  1  0
 13 15  1  0
 14 20  1  0
 15 14  1  0
 16 15  2  0
 17 11  2  0
 18 17  1  0
 18 13  2  0
 19 12  1  0
 20 10  1  0
 22 24  2  0
 23 22  1  0
 25 23  1  0
 26 35  2  0
 26 31  1  0
 27 23  1  0
 27 31  1  0
 28 27  1  0
 29 30  1  0
 29 28  1  0
 30 26  1  0
 31 32  2  0
 32 33  1  0
 34 33  2  0
 35 34  1  0
 36 10  1  0
 36 37  1  0
 36 46  1  0
 37 40  1  0
 38 42  1  0
 38 37  1  0
 39 38  2  0
 42 41  1  0
 44 42  1  0
 44 45  1  0
 44 43  1  0
 46 49  1  1
 46 47  1  0
 48 46  1  0
 50 93  1  0
 52 57  1  0
 53 54  1  0
 53 52  1  0
 55 54  1  0
 55 66  1  0
 55 56  1  0
 57 51  1  0
 57 56  1  0
 58 51  2  0
 59 61  1  0
 60 59  1  0
 60 62  1  0
 61 50  1  0
 62 51  1  0
 62 61  1  0
 63 64  2  0
 64 83  1  0
 65 64  1  0
 65 68  1  0
 66 63  1  0
 66 67  1  0
 67 65  2  0
 68 69  1  0
 69 70  2  0
 71 74  1  0
 71 70  1  0
 72 71  2  0
 73 72  1  0
 73 68  2  0
 74 75  1  0
 75 76  1  0
 76 77  2  0
 78 77  1  0
 78 82  1  0
 79 78  2  0
 80 75  2  0
 80 79  1  0
 81 80  1  0
 83 84  1  0
 84 87  1  0
 84 86  1  0
 85 83  2  0
 88 89  1  0
 88 63  1  0
 90 88  1  0
 92 91  1  0
 93 92  1  0
 93 91  1  0
M  ISO  4   8 101   9 101  51 100  62 100
M  END
>  <TORSDO>  (39) 
F 21

>  <SCORE>  (39) 
-12.953

>  <name>  (39) 
39

>  <ligand_id>  (39) 
39

>  <original_smiles>  (39) 
[H]c1c([H])c([H])c2c(c1[H])C([H])([H])C([H])([H])C([H])([H])C2([H])N([H])C(=O)C1([H])N(C(=O)C([H])(N([H])C(=O)C([H])(N([H])C([H])([H])[H])C([H])([H])[H])C(C([H])([H])[H])(C([H])([H])[H])C([H])([H])[H])C([H])([H])c2c([H])c(OC([H])([H])C([H])([H])C([H])([H])[N+]3([H])C([H])([H])C([H])(C([H])(C4([H])N(C(=O)N5C([H])([H])C([H])([H])C([H])([H])C([H])(n6nc(-c7c([H])c([H])c(Oc8c([H])c([H])c(F)c([H])c8F)c([H])c7[H])c(C(=O)N([H])[H])c6N([H])[H])C5([H])[H])C([H])([H])C4([H])[H])C4([H])C([H])([H])C4([H])[H])C3([H])[H])c([H])c([H])c2C1([H])[H]

>  <smiles>  (39) 
[H]c1c([H])c([H])c2c(c1[H])C([H])([H])C([H])([H])C([H])([H])C2([H])N([H])C(=O)C1([H])N(C(=O)C([H])(N([H])C(=O)C([H])(N([H])C([H])([H])[H])C([H])([H])[H])C(C([H])([H])[H])(C([H])([H])[H])C([H])([H])[H])C([H])([H])c2c([H])c(OC([H])([H])C([H])([H])C([H])([H])[N+]3([H])C([H])([H])C([H])(C([H])(C4([H])N(C(=O)N5C([H])([H])C([H])([H])C([H])([H])C([H])(n6nc(-c7c([H])c([H])c(Oc8c([H])c([H])c(F)c([H])c8F)c([H])c7[H])c(C(=O)N([H])[H])c6N([H])[H])C5([H])[H])C([H])([H])C4([H])[H])C4([H])C([H])([H])C4([H])[H])C3([H])[H])c([H])c([H])c2C1([H])[H]

$$$$
40:0:0
     RDKit          3D

 92101  0  0  1  0  0  0  0  0999 V2000
  -30.5270  -15.2850   20.2520 C   0  0  0  0  0  0  0  0  0  0  0  0
  -30.5490  -12.7960   19.5510 C   0  0  0  0  0  2  0  0  0  0  0  0
  -29.6650  -12.5470   18.3030 C   0  0  0  0  0  2  0  0  0  0  0  0
  -28.1970  -12.3160   18.7060 C   0  0  0  0  0  2  0  0  0  0  0  0
  -27.7190  -13.3450   19.7600 C   0  0  0  0  0  3  0  0  0  0  0  0
  -28.7300  -13.5250   20.9140 C   0  0  0  0  0  2  0  0  0  0  0  0
  -29.9940  -13.9720   20.3070 N   0  0  0  0  0  0  0  0  0  0  0  0
  -31.7420  -15.3170   19.9990 O   0  0  0  0  0  0  0  0  0  0  0  0
  -28.5280  -18.8680   20.6400 C   0  0  0  0  0  3  0  0  0  0  0  0
  -29.1990  -21.2300   19.7690 C   0  0  0  0  0  0  0  0  0  0  0  0
  -28.3230  -20.3280   20.4910 C   0  0  0  0  0  0  0  0  0  0  0  0
  -30.2630  -20.3550   19.2580 C   0  0  0  0  0  0  0  0  0  0  0  0
  -29.6270  -18.0690   20.1240 C   0  0  0  0  0  0  0  0  0  0  0  0
  -27.1020  -20.9370   21.1490 C   0  0  0  0  0  1  0  0  0  0  0  0
  -30.4480  -18.9450   19.4210 N   0  0  0  0  0  0  0  0  0  0  0  0
  -29.6830  -16.4820   20.3490 N   0  0  0  0  0  0  0  0  0  0  0  0
  -28.7830  -16.1640   20.6700 H   0  0  0  0  0  0  0  0  0  0  0  0
  -25.3370  -13.9630   20.4440 C   0  0  0  0  0  0  0  0  0  0  0  0
  -24.2560  -13.2110   20.8030 C   0  0  0  0  0  0  0  0  0  0  0  0
  -24.6990  -11.8520   20.8040 C   0  0  0  0  0  0  0  0  0  0  0  0
  -26.3710  -13.0660   20.2400 N   0  0  0  0  0  0  0  0  0  0  0  0
  -25.9960  -11.7910   20.5240 N   0  0  0  0  0  0  0  0  0  0  0  0
  -23.9460  -10.6060   20.9960 C   0  0  0  0  0  0  0  0  0  0  0  0
  -24.3490   -9.6370   21.9420 C   0  0  0  0  0  3  0  0  0  0  0  0
  -23.5950   -8.4570   22.1240 C   0  0  0  0  0  3  0  0  0  0  0  0
  -22.4240   -8.2370   21.3590 C   0  0  0  0  0  0  0  0  0  0  0  0
  -22.0410   -9.1950   20.4020 C   0  0  0  0  0  3  0  0  0  0  0  0
  -22.7960  -10.3660   20.2190 C   0  0  0  0  0  3  0  0  0  0  0  0
  -21.6440   -7.1110   21.4480 O   0  0  0  0  0  0  0  0  0  0  0  0
  -21.5750   -6.3730   22.6030 C   0  0  0  0  0  0  0  0  0  0  0  0
  -21.1600   -6.9420   23.8270 C   0  0  0  0  0  3  0  0  0  0  0  0
  -21.0370   -6.1330   24.9740 C   0  0  0  0  0  3  0  0  0  0  0  0
  -21.3180   -4.7550   24.8980 C   0  0  0  0  0  0  0  0  0  0  0  0
  -21.7260   -4.1860   23.6790 C   0  0  0  0  0  3  0  0  0  0  0  0
  -21.8510   -4.9930   22.5350 C   0  0  0  0  0  0  0  0  0  0  0  0
  -22.2230   -4.4340   21.3580 F   0  0  0  0  0  0  0  0  0  0  0  0
  -21.1920   -3.9760   25.9980 F   0  0  0  0  0  0  0  0  0  0  0  0
  -22.8610  -13.7150   21.0310 C   0  0  0  0  0  0  0  0  0  0  0  0
  -22.1020  -13.0510   21.8940 N   0  0  0  0  0  0  0  0  0  0  0  0
  -22.4530  -14.7360   20.4770 O   0  0  0  0  0  0  0  0  0  0  0  0
  -22.4430  -12.2230   22.3600 H   0  0  0  0  0  0  0  0  0  0  0  0
  -21.1650  -13.3750   22.0940 H   0  0  0  0  0  0  0  0  0  0  0  0
  -25.5240  -15.3300   20.2450 N   0  0  0  0  0  0  0  0  0  0  0  0
  -24.7520  -15.9840   20.3090 H   0  0  0  0  0  0  0  0  0  0  0  0
  -26.3580  -15.7440   19.8500 H   0  0  0  0  0  0  0  0  0  0  0  0
  -28.5840  -23.6170   18.3750 C   0  0  0  0  0  2  0  0  0  0  0  0
  -29.1620  -22.9760   19.6280 C   0  0  0  0  0  3  0  0  0  0  0  0
  -28.1270  -24.3890   19.5930 C   0  0  0  0  0  3  0  0  0  0  0  0
  -28.3910  -25.9930   19.4560 O   0  0  0  0  0  0  0  0  0  0  0  0
  -25.0090  -31.6270   23.0910 C   0  0  0  0  0  0  0  0  0  0  0  0
  -27.3860  -27.0760   19.5320 C   0  0  0  0  0  0  0  0  0  0  0  0
  -23.7430  -30.4330   21.3490 C   0  0  0  0  0  3  0  0  0  0  0  0
  -25.1200  -28.9570   19.7350 C   0  0  0  0  0  0  0  0  0  0  0  0
  -26.3050  -30.6190   21.1560 C   0  0  0  0  0  2  0  0  0  0  0  0
  -26.3290  -29.2870   20.3600 C   0  0  0  0  0  0  0  0  0  0  0  0
  -27.4580  -28.3680   20.2370 C   0  0  0  0  0  3  0  0  0  0  0  0
  -26.1520  -26.8900   18.8730 C   0  0  0  0  0  3  0  0  0  0  0  0
  -25.0520  -27.7770   18.9760 C   0  0  0  0  0  3  0  0  0  0  0  0
  -23.9210  -29.8860   19.9060 C   0  0  0  0  0  2  0  0  0  0  0  0
  -25.0410  -30.9120   21.9210 N   0  0  0  0  0  0  0  0  0  0  0  0
  -23.9400  -31.8840   23.6690 O   0  0  0  0  0  0  0  0  0  0  0  0
  -23.0510  -29.3560   22.2250 C   0  0  0  0  0  0  0  0  0  0  0  0
  -21.7160  -29.2310   22.1150 N   0  0  0  0  0  0  0  0  0  0  0  0
  -23.7220  -28.6380   22.9730 O   0  0  0  0  0  0  0  0  0  0  0  0
  -21.2310  -29.8600   21.4910 H   0  0  0  0  0  0  0  0  0  0  0  0
  -18.3200  -28.0560   22.5930 C   0  0  0  0  0  0  0  0  0  0  0  0
  -20.8910  -28.2370   22.8080 C   0  0  0  0  0  3  0  0  0  0  0  0
  -20.9440  -26.8730   22.0830 C   0  0  0  0  0  2  0  0  0  0  0  0
  -19.8070  -26.6820   21.0740 C   0  0  0  0  0  2  0  0  0  0  0  0
  -18.4460  -26.7850   21.7700 C   0  0  0  0  0  2  0  0  0  0  0  0
  -19.4680  -28.7460   23.0670 C   0  0  0  0  0  0  0  0  0  0  0  0
  -19.2950  -29.9370   23.8030 C   0  0  0  0  0  3  0  0  0  0  0  0
  -18.0080  -30.4420   24.0660 C   0  0  0  0  0  3  0  0  0  0  0  0
  -16.8750  -29.7490   23.6070 C   0  0  0  0  0  3  0  0  0  0  0  0
  -17.0310  -28.5570   22.8770 C   0  0  0  0  0  3  0  0  0  0  0  0
  -26.3110  -32.1740   23.7500 C   0  0  0  0  0  3  0  0  0  0  0  0
  -26.0100  -33.5000   24.3160 N   0  0  0  0  0  0  0  0  0  0  0  0
  -26.2930  -34.6690   23.7260 C   0  0  0  0  0  0  0  0  0  0  0  0
  -26.9010  -34.7430   22.6550 O   0  0  0  0  0  0  0  0  0  0  0  0
  -25.4630  -33.5120   25.1640 H   0  0  0  0  0  0  0  0  0  0  0  0
  -24.5330  -36.4690   23.7860 C   0  0  0  0  0  1  0  0  0  0  0  0
  -25.8310  -35.9610   24.4330 C   0  0  0  0  0  3  0  0  0  0  0  0
  -28.0160  -36.7440   25.2400 C   0  0  0  0  0  1  0  0  0  0  0  0
  -26.8450  -37.0380   24.4170 N   0  0  0  0  0  0  0  0  0  0  0  0
  -26.4430  -37.9150   24.7390 H   0  0  0  0  0  0  0  0  0  0  0  0
  -26.8820  -31.2220   24.8740 C   0  0  1  0  0  0  0  0  0  0  0  0
  -25.8370  -30.8290   25.9440 C   0  0  0  0  0  1  0  0  0  0  0  0
  -27.4390  -29.9150   24.2640 C   0  0  0  0  0  1  0  0  0  0  0  0
  -28.0660  -31.9110   25.5920 C   0  0  0  0  0  1  0  0  0  0  0  0
  -31.3360  -21.0250   18.3970 C   0  0  0  0  0  2  0  0  0  0  0  0
  -33.4420  -20.2210   19.1630 C   0  0  0  0  0  1  0  0  0  0  0  0
  -32.4810  -20.2170   18.1160 O   0  0  0  0  0  0  0  0  0  0  0  0
  1  7  1  0
  1 16  1  0
  2  7  1  0
  3  4  1  0
  3  2  1  0
  5  4  1  0
  5 21  1  0
  5  6  1  0
  7  6  1  0
  8  1  2  0
 10 11  2  0
 11  9  1  0
 11 14  1  0
 12 15  2  0
 12 10  1  0
 13 16  1  0
 13  9  2  0
 15 13  1  0
 16 17  1  0
 18 19  2  0
 19 20  1  0
 19 38  1  0
 20 23  1  0
 21 18  1  0
 21 22  1  0
 22 20  2  0
 23 24  1  0
 24 25  2  0
 26 29  1  0
 26 25  1  0
 27 26  2  0
 28 27  1  0
 28 23  2  0
 29 30  1  0
 30 31  1  0
 31 32  2  0
 33 32  1  0
 33 37  1  0
 34 33  2  0
 35 30  2  0
 35 34  1  0
 36 35  1  0
 38 39  1  0
 39 42  1  0
 39 41  1  0
 40 38  2  0
 43 44  1  0
 43 18  1  0
 45 43  1  0
 46 48  1  0
 46 47  1  0
 47 10  1  0
 48 49  1  0
 48 47  1  0
 49 51  1  0
 50 61  2  0
 51 56  1  0
 52 60  1  0
 52 62  1  0
 53 59  1  0
 53 55  1  0
 54 60  1  0
 55 54  1  0
 56 55  2  0
 57 58  1  0
 57 51  2  0
 58 53  2  0
 59 52  1  0
 60 50  1  0
 62 64  2  0
 63 62  1  0
 65 63  1  0
 66 75  2  0
 66 71  1  0
 67 63  1  0
 67 71  1  0
 68 67  1  0
 69 70  1  0
 69 68  1  0
 70 66  1  0
 71 72  2  0
 72 73  1  0
 74 73  2  0
 75 74  1  0
 76 50  1  0
 76 77  1  0
 76 86  1  0
 77 80  1  0
 78 77  1  0
 78 82  1  0
 79 78  2  0
 82 81  1  0
 84 82  1  0
 84 85  1  0
 84 83  1  0
 86 89  1  1
 86 87  1  0
 88 86  1  0
 90 12  1  0
 92 90  1  0
 92 91  1  0
M  ISO  4   1 100  16 100  48 101  49 101
M  END
>  <TORSDO>  (40) 
F 18

>  <SCORE>  (40) 
-12.294

>  <name>  (40) 
40

>  <ligand_id>  (40) 
40

>  <original_smiles>  (40) 
[H]c1c([H])c([H])c2c(c1[H])C([H])([H])C([H])([H])C([H])([H])C2([H])N([H])C(=O)C1([H])N(C(=O)C([H])(N([H])C(=O)C([H])(N([H])C([H])([H])[H])C([H])([H])[H])C(C([H])([H])[H])(C([H])([H])[H])C([H])([H])[H])C([H])([H])c2c([H])c(OC3([H])C([H])([H])C3([H])c3c(C([H])([H])OC([H])([H])[H])nc(N([H])C(=O)N4C([H])([H])C([H])([H])C([H])([H])C([H])(n5nc(-c6c([H])c([H])c(Oc7c([H])c([H])c(F)c([H])c7F)c([H])c6[H])c(C(=O)N([H])[H])c5N([H])[H])C4([H])[H])c([H])c3C([H])([H])[H])c([H])c([H])c2C1([H])[H]

>  <smiles>  (40) 
[H]c1c([H])c([H])c2c(c1[H])C([H])([H])C([H])([H])C([H])([H])C2([H])N([H])C(=O)C1([H])N(C(=O)C([H])(N([H])C(=O)C([H])(N([H])C([H])([H])[H])C([H])([H])[H])C(C([H])([H])[H])(C([H])([H])[H])C([H])([H])[H])C([H])([H])c2c([H])c(OC3([H])C([H])([H])C3([H])c3c(C([H])([H])OC([H])([H])[H])nc(N([H])C(=O)N4C([H])([H])C([H])([H])C([H])([H])C([H])(n5nc(-c6c([H])c([H])c(Oc7c([H])c([H])c(F)c([H])c7F)c([H])c6[H])c(C(=O)N([H])[H])c5N([H])[H])C4([H])[H])c([H])c3C([H])([H])[H])c([H])c([H])c2C1([H])[H]

$$$$
41:0:0
     RDKit          3D

102112  0  0  1  0  0  0  0  0999 V2000
  -30.4010  -20.3590   21.8840 C   0  0  0  0  0  3  0  0  0  0  0  0
  -30.5370  -21.7560   21.7570 C   0  0  0  0  0  3  0  0  0  0  0  0
  -31.2680  -21.4610   19.4630 C   0  0  0  0  0  3  0  0  0  0  0  0
  -31.0790  -20.0600   19.5530 C   0  0  0  0  0  0  0  0  0  0  0  0
  -30.6690  -19.4990   20.7930 C   0  0  0  0  0  0  0  0  0  0  0  0
  -30.9780  -22.3210   20.5410 C   0  0  0  0  0  0  0  0  0  0  0  0
  -30.6160  -14.5150   20.2290 C   0  0  0  0  0  0  0  0  0  0  0  0
  -30.2170  -12.4450   18.9310 C   0  0  0  0  0  2  0  0  0  0  0  0
  -29.2130  -12.6970   17.7900 C   0  0  0  0  0  2  0  0  0  0  0  0
  -27.7640  -12.5210   18.2880 C   0  0  0  0  0  2  0  0  0  0  0  0
  -27.4900  -13.3050   19.5970 C   0  0  0  0  0  3  0  0  0  0  0  0
  -28.5990  -13.0310   20.6380 C   0  0  0  0  0  2  0  0  0  0  0  0
  -29.8960  -13.3730   20.0290 N   0  0  0  0  0  0  0  0  0  0  0  0
  -31.6870  -14.7300   19.6500 O   0  0  0  0  0  0  0  0  0  0  0  0
  -29.1100  -17.7090   21.0800 C   0  0  0  0  0  2  0  0  0  0  0  0
  -31.3960  -17.4700   21.8990 C   0  0  0  0  0  2  0  0  0  0  0  0
  -28.9390  -16.1960   20.8420 C   0  0  0  0  0  2  0  0  0  0  0  0
  -31.0410  -15.9800   22.1510 C   0  0  0  0  0  2  0  0  0  0  0  0
  -30.5020  -18.1080   20.9330 N   0  0  0  0  0  0  0  0  0  0  0  0
  -30.1370  -15.3850   21.1500 N   0  0  0  0  0  0  0  0  0  0  0  0
  -25.1190  -13.8990   20.4050 C   0  0  0  0  0  0  0  0  0  0  0  0
  -24.0740  -13.1190   20.8140 C   0  0  0  0  0  0  0  0  0  0  0  0
  -24.5450  -11.7700   20.7610 C   0  0  0  0  0  0  0  0  0  0  0  0
  -26.1610  -13.0250   20.1300 N   0  0  0  0  0  0  0  0  0  0  0  0
  -25.8210  -11.7410   20.4000 N   0  0  0  0  0  0  0  0  0  0  0  0
  -23.8390  -10.5020   20.9740 C   0  0  0  0  0  0  0  0  0  0  0  0
  -24.3140   -9.5420   21.8960 C   0  0  0  0  0  3  0  0  0  0  0  0
  -23.6090   -8.3370   22.0970 C   0  0  0  0  0  3  0  0  0  0  0  0
  -22.4180   -8.0820   21.3760 C   0  0  0  0  0  0  0  0  0  0  0  0
  -21.9650   -9.0310   20.4420 C   0  0  0  0  0  3  0  0  0  0  0  0
  -22.6700  -10.2280   20.2390 C   0  0  0  0  0  3  0  0  0  0  0  0
  -21.6810   -6.9280   21.4880 O   0  0  0  0  0  0  0  0  0  0  0  0
  -21.6680   -6.1920   22.6460 C   0  0  0  0  0  0  0  0  0  0  0  0
  -21.2830   -6.7550   23.8820 C   0  0  0  0  0  3  0  0  0  0  0  0
  -21.2170   -5.9440   25.0330 C   0  0  0  0  0  3  0  0  0  0  0  0
  -21.5260   -4.5740   24.9500 C   0  0  0  0  0  0  0  0  0  0  0  0
  -21.9060   -4.0110   23.7190 C   0  0  0  0  0  3  0  0  0  0  0  0
  -21.9730   -4.8180   22.5690 C   0  0  0  0  0  0  0  0  0  0  0  0
  -22.3180   -4.2660   21.3810 F   0  0  0  0  0  0  0  0  0  0  0  0
  -21.4540   -3.7940   26.0530 F   0  0  0  0  0  0  0  0  0  0  0  0
  -22.6830  -13.5820   21.1440 C   0  0  0  0  0  0  0  0  0  0  0  0
  -21.9990  -12.8760   22.0380 N   0  0  0  0  0  0  0  0  0  0  0  0
  -22.2150  -14.6040   20.6450 O   0  0  0  0  0  0  0  0  0  0  0  0
  -22.3930  -12.0490   22.4610 H   0  0  0  0  0  0  0  0  0  0  0  0
  -21.0690  -13.1670   22.3020 H   0  0  0  0  0  0  0  0  0  0  0  0
  -25.2630  -15.2720   20.2240 N   0  0  0  0  0  0  0  0  0  0  0  0
  -24.4890  -15.9150   20.3590 H   0  0  0  0  0  0  0  0  0  0  0  0
  -26.0870  -15.7180   19.8430 H   0  0  0  0  0  0  0  0  0  0  0  0
  -30.4920  -19.6830   17.0840 C   0  0  0  0  0  1  0  0  0  0  0  0
  -31.2900  -19.1890   18.3060 C   0  0  0  0  0  3  0  0  0  0  0  0
  -32.7290  -19.0710   17.9930 N   0  0  0  0  0  4  0  0  0  0  0  0
  -32.8830  -19.3900   17.0510 H   0  0  0  0  0  0  0  0  0  0  0  0
  -33.2350  -19.6830   18.6130 H   0  0  0  0  0  0  0  0  0  0  0  0
  -33.2730  -17.7050   18.1270 C   0  0  0  0  0  2  0  0  0  0  0  0
  -35.7710  -17.9320   18.9410 C   0  0  0  0  0  2  0  0  0  0  0  0
  -35.6060  -16.5350   18.3930 C   0  0  0  0  0  2  0  0  0  0  0  0
  -34.7620  -17.6660   17.8460 C   0  0  0  0  0  3  0  0  0  0  0  0
  -31.1520  -23.6760   20.3410 O   0  0  0  0  0  0  0  0  0  0  0  0
  -30.2910  -24.5770   21.0390 C   0  0  0  0  0  2  0  0  0  0  0  0
  -30.5430  -26.0090   20.5240 C   0  0  0  0  0  2  0  0  0  0  0  0
  -29.4450  -27.0290   20.8880 C   0  0  0  0  0  2  0  0  0  0  0  0
  -28.2820  -26.7110   20.1320 O   0  0  0  0  0  0  0  0  0  0  0  0
  -24.5550  -31.9900   23.2560 C   0  0  0  0  0  0  0  0  0  0  0  0
  -27.1630  -27.5120   20.2150 C   0  0  0  0  0  0  0  0  0  0  0  0
  -23.3240  -30.5720   21.6430 C   0  0  0  0  0  3  0  0  0  0  0  0
  -24.7590  -29.0050   20.2320 C   0  0  0  0  0  0  0  0  0  0  0  0
  -25.8460  -30.9200   21.4170 C   0  0  0  0  0  2  0  0  0  0  0  0
  -25.9220  -29.5380   20.8060 C   0  0  0  0  0  0  0  0  0  0  0  0
  -27.1240  -28.7970   20.8070 C   0  0  0  0  0  3  0  0  0  0  0  0
  -25.9860  -26.9930   19.6410 C   0  0  0  0  0  3  0  0  0  0  0  0
  -24.7840  -27.7260   19.6510 C   0  0  0  0  0  3  0  0  0  0  0  0
  -23.5180  -29.8670   20.2730 C   0  0  0  0  0  2  0  0  0  0  0  0
  -24.5930  -31.1770   22.1630 N   0  0  0  0  0  0  0  0  0  0  0  0
  -23.4830  -32.2770   23.8050 O   0  0  0  0  0  0  0  0  0  0  0  0
  -22.6760  -29.5710   22.6250 C   0  0  0  0  0  0  0  0  0  0  0  0
  -21.3540  -29.3760   22.4950 N   0  0  0  0  0  0  0  0  0  0  0  0
  -23.3600  -28.9690   23.4590 O   0  0  0  0  0  0  0  0  0  0  0  0
  -20.8640  -29.9130   21.7920 H   0  0  0  0  0  0  0  0  0  0  0  0
  -17.9910  -28.1460   22.9730 C   0  0  0  0  0  0  0  0  0  0  0  0
  -20.5390  -28.4510   23.2820 C   0  0  0  0  0  3  0  0  0  0  0  0
  -20.6730  -27.0040   22.7540 C   0  0  0  0  0  2  0  0  0  0  0  0
  -19.5950  -26.6320   21.7320 C   0  0  0  0  0  2  0  0  0  0  0  0
  -18.2000  -26.7770   22.3470 C   0  0  0  0  0  2  0  0  0  0  0  0
  -19.0900  -28.9380   23.3970 C   0  0  0  0  0  0  0  0  0  0  0  0
  -18.8430  -30.2180   23.9410 C   0  0  0  0  0  3  0  0  0  0  0  0
  -17.5280  -30.7050   24.0670 C   0  0  0  0  0  3  0  0  0  0  0  0
  -16.4430  -29.9090   23.6590 C   0  0  0  0  0  3  0  0  0  0  0  0
  -16.6750  -28.6320   23.1180 C   0  0  0  0  0  3  0  0  0  0  0  0
  -25.8540  -32.6180   23.8550 C   0  0  0  0  0  3  0  0  0  0  0  0
  -25.5570  -34.0190   24.1830 N   0  0  0  0  0  0  0  0  0  0  0  0
  -25.8910  -35.0660   23.4180 C   0  0  0  0  0  0  0  0  0  0  0  0
  -26.5540  -34.9550   22.3820 O   0  0  0  0  0  0  0  0  0  0  0  0
  -24.9690  -34.1800   24.9880 H   0  0  0  0  0  0  0  0  0  0  0  0
  -24.1720  -36.8660   23.0630 C   0  0  0  0  0  1  0  0  0  0  0  0
  -25.4140  -36.4580   23.8720 C   0  0  0  0  0  3  0  0  0  0  0  0
  -27.5590  -37.3270   24.6880 C   0  0  0  0  0  1  0  0  0  0  0  0
  -26.4520  -37.5040   23.7520 N   0  0  0  0  0  0  0  0  0  0  0  0
  -26.0540  -38.4270   23.9040 H   0  0  0  0  0  0  0  0  0  0  0  0
  -26.3920  -31.8480   25.1220 C   0  0  1  0  0  0  0  0  0  0  0  0
  -25.3160  -31.6070   26.2060 C   0  0  0  0  0  1  0  0  0  0  0  0
  -26.9710  -30.4720   24.7160 C   0  0  0  0  0  1  0  0  0  0  0  0
  -27.5510  -32.6430   25.7670 C   0  0  0  0  0  1  0  0  0  0  0  0
  2  1  1  0
  3  4  2  0
  3  6  1  0
  4  5  1  0
  5 19  1  0
  5  1  2  0
  6  2  2  0
  7 20  1  0
  8 13  1  0
  9 10  1  0
  9  8  1  0
 11 10  1  0
 11 24  1  0
 11 12  1  0
 13  7  1  0
 13 12  1  0
 14  7  2  0
 16 18  1  0
 17 15  1  0
 17 20  1  0
 19 15  1  0
 19 16  1  0
 20 18  1  0
 21 22  2  0
 22 41  1  0
 23 22  1  0
 23 26  1  0
 24 25  1  0
 24 21  1  0
 25 23  2  0
 26 27  1  0
 27 28  2  0
 29 32  1  0
 29 28  1  0
 30 29  2  0
 31 30  1  0
 31 26  2  0
 32 33  1  0
 33 34  1  0
 34 35  2  0
 36 35  1  0
 36 40  1  0
 37 36  2  0
 38 33  2  0
 38 37  1  0
 39 38  1  0
 41 42  1  0
 42 45  1  0
 42 44  1  0
 43 41  2  0
 46 47  1  0
 46 21  1  0
 48 46  1  0
 50 49  1  0
 50  4  1  0
 51 54  1  0
 51 50  1  0
 51 53  1  0
 52 51  1  0
 56 55  1  0
 57 54  1  0
 57 56  1  0
 57 55  1  0
 58  6  1  0
 58 59  1  0
 60 61  1  0
 60 59  1  0
 62 64  1  0
 62 61  1  0
 63 74  2  0
 64 69  1  0
 65 73  1  0
 65 75  1  0
 66 72  1  0
 66 68  1  0
 67 73  1  0
 68 69  2  0
 68 67  1  0
 70 71  1  0
 70 64  2  0
 71 66  2  0
 72 65  1  0
 73 63  1  0
 75 77  2  0
 76 75  1  0
 78 76  1  0
 79 88  2  0
 79 84  1  0
 80 76  1  0
 80 84  1  0
 81 80  1  0
 82 83  1  0
 82 81  1  0
 83 79  1  0
 84 85  2  0
 85 86  1  0
 87 86  2  0
 88 87  1  0
 89 63  1  0
 89 90  1  0
 89 99  1  0
 90 93  1  0
 91 95  1  0
 91 90  1  0
 92 91  2  0
 95 94  1  0
 97 95  1  0
 97 98  1  0
 97 96  1  0
 99102  1  1
 99100  1  0
101 99  1  0
M  ISO  4   7 100  20 100  61 101  62 101
M  END
>  <TORSDO>  (41) 
F 24

>  <SCORE>  (41) 
-12.474

>  <name>  (41) 
41

>  <ligand_id>  (41) 
41

>  <original_smiles>  (41) 
[H]c1c([H])c([H])c2c(c1[H])C([H])([H])C([H])([H])C([H])([H])C2([H])N([H])C(=O)C1([H])N(C(=O)C([H])(N([H])C(=O)C([H])(N([H])C([H])([H])[H])C([H])([H])[H])C(C([H])([H])[H])(C([H])([H])[H])C([H])([H])[H])C([H])([H])c2c([H])c(OC([H])([H])C([H])([H])C([H])([H])Oc3c([H])c([H])c(N4C([H])([H])C([H])([H])N(C(=O)N5C([H])([H])C([H])([H])C([H])([H])C([H])(n6nc(-c7c([H])c([H])c(Oc8c([H])c([H])c(F)c([H])c8F)c([H])c7[H])c(C(=O)N([H])[H])c6N([H])[H])C5([H])[H])C([H])([H])C4([H])[H])c(C([H])(C([H])([H])[H])[N+]([H])([H])C([H])([H])C4([H])C([H])([H])C4([H])[H])c3[H])c([H])c([H])c2C1([H])[H]

>  <smiles>  (41) 
[H]c1c([H])c([H])c2c(c1[H])C([H])([H])C([H])([H])C([H])([H])C2([H])N([H])C(=O)C1([H])N(C(=O)C([H])(N([H])C(=O)C([H])(N([H])C([H])([H])[H])C([H])([H])[H])C(C([H])([H])[H])(C([H])([H])[H])C([H])([H])[H])C([H])([H])c2c([H])c(OC([H])([H])C([H])([H])C([H])([H])Oc3c([H])c([H])c(N4C([H])([H])C([H])([H])N(C(=O)N5C([H])([H])C([H])([H])C([H])([H])C([H])(n6nc(-c7c([H])c([H])c(Oc8c([H])c([H])c(F)c([H])c8F)c([H])c7[H])c(C(=O)N([H])[H])c6N([H])[H])C5([H])[H])C([H])([H])C4([H])[H])c(C([H])(C([H])([H])[H])[N+]([H])([H])C([H])([H])C4([H])C([H])([H])C4([H])[H])c3[H])c([H])c([H])c2C1([H])[H]

$$$$
42:0:0
     RDKit          3D

 96105  0  0  1  0  0  0  0  0999 V2000
  -28.0450  -24.3820   19.0390 C   0  0  0  0  0  3  0  0  0  0  0  0
  -28.3280  -22.9930   18.9440 C   0  0  0  0  0  0  0  0  0  0  0  0
  -29.2300  -22.3580   19.8630 C   0  0  0  0  0  3  0  0  0  0  0  0
  -29.6490  -23.2240   20.9300 C   0  0  0  0  0  3  0  0  0  0  0  0
  -28.5420  -25.1600   20.1000 C   0  0  0  0  0  0  0  0  0  0  0  0
  -27.6680  -22.2430   17.7930 C   0  0  0  0  0  1  0  0  0  0  0  0
  -30.5350  -22.7730   22.0720 C   0  0  0  0  0  1  0  0  0  0  0  0
  -29.3200  -24.5510   21.0300 N   0  0  0  0  0  0  0  0  0  0  0  0
  -30.9720  -21.2070   18.4450 C   0  0  0  0  0  1  0  0  0  0  0  0
  -29.8360  -20.9280   19.4610 C   0  0  0  0  0  3  0  0  0  0  0  0
  -31.6420  -19.8040   20.8270 C   0  0  0  0  0  1  0  0  0  0  0  0
  -30.2040  -19.7970   20.4400 N   0  0  2  0  0  4  0  0  0  0  0  0
  -29.6880  -20.0000   21.2830 H   0  0  0  0  0  0  0  0  0  0  0  0
  -30.8560  -14.7200   19.9610 C   0  0  0  0  0  0  0  0  0  0  0  0
  -30.5580  -12.4790   18.9460 C   0  0  0  0  0  2  0  0  0  0  0  0
  -29.5440  -12.5860   17.7870 C   0  0  0  0  0  2  0  0  0  0  0  0
  -28.1000  -12.4270   18.3080 C   0  0  0  0  0  2  0  0  0  0  0  0
  -27.8140  -13.3020   19.5580 C   0  0  0  0  0  3  0  0  0  0  0  0
  -28.9410  -13.1960   20.6060 C   0  0  0  0  0  2  0  0  0  0  0  0
  -30.2020  -13.5180   19.9280 N   0  0  0  0  0  0  0  0  0  0  0  0
  -32.0510  -14.8010   19.6600 O   0  0  0  0  0  0  0  0  0  0  0  0
  -29.9370  -17.9160   18.6330 C   0  0  0  0  0  2  0  0  0  0  0  0
  -29.6460  -16.4030   18.6800 C   0  0  0  0  0  2  0  0  0  0  0  0
  -29.7410  -18.3700   20.0760 C   0  0  0  0  0  3  0  0  0  0  0  0
  -30.3710  -17.0990   20.8010 C   0  0  0  0  0  3  0  0  0  0  0  0
  -29.8730  -16.9220   22.2450 C   0  0  0  0  0  1  0  0  0  0  0  0
  -30.0760  -15.8650   19.9910 N   0  0  0  0  0  0  0  0  0  0  0  0
  -25.4910  -13.9130   20.4610 C   0  0  0  0  0  0  0  0  0  0  0  0
  -24.4360  -13.1440   20.8710 C   0  0  0  0  0  0  0  0  0  0  0  0
  -24.8730  -11.7880   20.7680 C   0  0  0  0  0  0  0  0  0  0  0  0
  -26.5010  -13.0240   20.1300 N   0  0  0  0  0  0  0  0  0  0  0  0
  -26.1410  -11.7410   20.3770 N   0  0  0  0  0  0  0  0  0  0  0  0
  -24.1410  -10.5310   20.9620 C   0  0  0  0  0  0  0  0  0  0  0  0
  -24.5800   -9.5550   21.8840 C   0  0  0  0  0  3  0  0  0  0  0  0
  -23.8490   -8.3620   22.0640 C   0  0  0  0  0  3  0  0  0  0  0  0
  -22.6650   -8.1360   21.3220 C   0  0  0  0  0  0  0  0  0  0  0  0
  -22.2470   -9.0980   20.3870 C   0  0  0  0  0  3  0  0  0  0  0  0
  -22.9770  -10.2840   20.2050 C   0  0  0  0  0  3  0  0  0  0  0  0
  -21.9050   -6.9960   21.4140 O   0  0  0  0  0  0  0  0  0  0  0  0
  -21.8070   -6.2880   22.5850 C   0  0  0  0  0  0  0  0  0  0  0  0
  -21.3280   -6.8770   23.7750 C   0  0  0  0  0  3  0  0  0  0  0  0
  -21.1810   -6.0930   24.9380 C   0  0  0  0  0  3  0  0  0  0  0  0
  -21.5030   -4.7240   24.9110 C   0  0  0  0  0  0  0  0  0  0  0  0
  -21.9760   -4.1350   23.7250 C   0  0  0  0  0  3  0  0  0  0  0  0
  -22.1250   -4.9150   22.5640 C   0  0  0  0  0  0  0  0  0  0  0  0
  -22.5610   -4.3370   21.4190 F   0  0  0  0  0  0  0  0  0  0  0  0
  -21.3550   -3.9690   26.0240 F   0  0  0  0  0  0  0  0  0  0  0  0
  -23.0670  -13.6320   21.2460 C   0  0  0  0  0  0  0  0  0  0  0  0
  -22.3860  -12.9180   22.1350 N   0  0  0  0  0  0  0  0  0  0  0  0
  -22.6120  -14.6780   20.7860 O   0  0  0  0  0  0  0  0  0  0  0  0
  -22.7690  -12.0720   22.5310 H   0  0  0  0  0  0  0  0  0  0  0  0
  -21.4680  -13.2230   22.4290 H   0  0  0  0  0  0  0  0  0  0  0  0
  -25.6730  -15.2860   20.3210 N   0  0  0  0  0  0  0  0  0  0  0  0
  -24.9370  -15.9580   20.5050 H   0  0  0  0  0  0  0  0  0  0  0  0
  -26.5230  -15.7130   19.9740 H   0  0  0  0  0  0  0  0  0  0  0  0
  -28.4690  -26.5690   20.1690 O   0  0  0  0  0  0  0  0  0  0  0  0
  -24.5060  -31.7940   23.1330 C   0  0  0  0  0  0  0  0  0  0  0  0
  -27.2870  -27.3220   20.1260 C   0  0  0  0  0  0  0  0  0  0  0  0
  -23.3660  -30.3740   21.4670 C   0  0  0  0  0  3  0  0  0  0  0  0
  -24.8790  -28.8630   20.0700 C   0  0  0  0  0  0  0  0  0  0  0  0
  -25.8980  -30.7550   21.3360 C   0  0  0  0  0  2  0  0  0  0  0  0
  -26.0210  -29.3820   20.6910 C   0  0  0  0  0  0  0  0  0  0  0  0
  -27.2270  -28.6230   20.7090 C   0  0  0  0  0  3  0  0  0  0  0  0
  -26.1140  -26.8470   19.4940 C   0  0  0  0  0  3  0  0  0  0  0  0
  -24.9290  -27.6010   19.4610 C   0  0  0  0  0  3  0  0  0  0  0  0
  -23.6200  -29.7050   20.0900 C   0  0  0  0  0  2  0  0  0  0  0  0
  -24.6070  -30.9910   22.0360 N   0  0  0  0  0  0  0  0  0  0  0  0
  -23.4050  -32.0510   23.6430 O   0  0  0  0  0  0  0  0  0  0  0  0
  -22.7070  -29.3410   22.4110 C   0  0  0  0  0  0  0  0  0  0  0  0
  -21.3830  -29.1560   22.2700 N   0  0  0  0  0  0  0  0  0  0  0  0
  -23.3850  -28.7090   23.2250 O   0  0  0  0  0  0  0  0  0  0  0  0
  -20.8970  -29.7230   21.5890 H   0  0  0  0  0  0  0  0  0  0  0  0
  -18.0070  -27.9400   22.7330 C   0  0  0  0  0  0  0  0  0  0  0  0
  -20.5630  -28.2050   23.0230 C   0  0  0  0  0  3  0  0  0  0  0  0
  -20.6730  -26.7820   22.4280 C   0  0  0  0  0  2  0  0  0  0  0  0
  -19.5790  -26.4680   21.4030 C   0  0  0  0  0  2  0  0  0  0  0  0
  -18.1930  -26.5990   22.0410 C   0  0  0  0  0  2  0  0  0  0  0  0
  -19.1210  -28.7010   23.1780 C   0  0  0  0  0  0  0  0  0  0  0  0
  -18.8930  -29.9560   23.7850 C   0  0  0  0  0  3  0  0  0  0  0  0
  -17.5860  -30.4520   23.9460 C   0  0  0  0  0  3  0  0  0  0  0  0
  -16.4880  -29.6880   23.5170 C   0  0  0  0  0  3  0  0  0  0  0  0
  -16.6990  -28.4330   22.9160 C   0  0  0  0  0  3  0  0  0  0  0  0
  -25.7620  -32.4510   23.7850 C   0  0  0  0  0  3  0  0  0  0  0  0
  -25.4130  -33.8380   24.1230 N   0  0  0  0  0  0  0  0  0  0  0  0
  -25.7390  -34.9070   23.3840 C   0  0  0  0  0  0  0  0  0  0  0  0
  -26.4360  -34.8310   22.3670 O   0  0  0  0  0  0  0  0  0  0  0  0
  -24.7960  -33.9700   24.9100 H   0  0  0  0  0  0  0  0  0  0  0  0
  -23.9790  -36.6650   23.0100 C   0  0  0  0  0  1  0  0  0  0  0  0
  -25.2090  -36.2780   23.8450 C   0  0  0  0  0  3  0  0  0  0  0  0
  -27.3030  -37.1970   24.7380 C   0  0  0  0  0  1  0  0  0  0  0  0
  -26.2200  -37.3560   23.7730 N   0  0  0  0  0  0  0  0  0  0  0  0
  -25.7890  -38.2640   23.9240 H   0  0  0  0  0  0  0  0  0  0  0  0
  -26.2760  -31.6790   25.0620 C   0  0  1  0  0  0  0  0  0  0  0  0
  -25.1720  -31.4010   26.1090 C   0  0  0  0  0  1  0  0  0  0  0  0
  -26.9020  -30.3200   24.6680 C   0  0  0  0  0  1  0  0  0  0  0  0
  -27.3950  -32.4970   25.7520 C   0  0  0  0  0  1  0  0  0  0  0  0
  1  5  1  0
  2  1  2  0
  2  3  1  0
  3 10  1  0
  3  4  1  0
  4  8  1  0
  4  7  1  0
  5 56  1  0
  5  8  2  0
  6  2  1  0
 10  9  1  0
 10 12  1  0
 12 11  1  0
 12 13  1  1
 14 27  1  0
 15 20  1  0
 16 17  1  0
 16 15  1  0
 18 17  1  0
 18 31  1  0
 18 19  1  0
 20 14  1  0
 20 19  1  0
 21 14  2  0
 22 23  1  0
 22 24  1  0
 23 27  1  0
 24 12  1  0
 24 25  1  0
 25 26  1  0
 27 25  1  0
 28 29  2  0
 29 48  1  0
 30 29  1  0
 30 33  1  0
 31 32  1  0
 31 28  1  0
 32 30  2  0
 33 34  1  0
 34 35  2  0
 36 39  1  0
 36 35  1  0
 37 36  2  0
 38 37  1  0
 38 33  2  0
 39 40  1  0
 40 41  1  0
 41 42  2  0
 43 42  1  0
 43 47  1  0
 44 43  2  0
 45 40  2  0
 45 44  1  0
 46 45  1  0
 48 49  1  0
 49 52  1  0
 49 51  1  0
 50 48  2  0
 53 28  1  0
 53 54  1  0
 55 53  1  0
 57 68  2  0
 58 56  1  0
 58 63  1  0
 59 67  1  0
 59 69  1  0
 60 66  1  0
 60 62  1  0
 61 67  1  0
 62 63  2  0
 62 61  1  0
 64 58  2  0
 65 64  1  0
 65 60  2  0
 66 59  1  0
 67 57  1  0
 69 71  2  0
 70 69  1  0
 72 70  1  0
 73 82  2  0
 73 78  1  0
 74 70  1  0
 74 78  1  0
 75 74  1  0
 76 77  1  0
 76 75  1  0
 77 73  1  0
 78 79  2  0
 79 80  1  0
 81 80  2  0
 82 81  1  0
 83 57  1  0
 83 84  1  0
 83 93  1  0
 84 87  1  0
 85 89  1  0
 85 84  1  0
 86 85  2  0
 89 88  1  0
 91 89  1  0
 91 92  1  0
 91 90  1  0
 93 96  1  1
 93 94  1  0
 95 93  1  0
M  ISO  4   5 101  14 100  27 100  56 101
M  END
>  <TORSDO>  (42) 
F 18

>  <SCORE>  (42) 
-14.072

>  <name>  (42) 
42

>  <ligand_id>  (42) 
42

>  <original_smiles>  (42) 
[H]c1c([H])c([H])c2c(c1[H])C([H])([H])C([H])([H])C([H])([H])C2([H])N([H])C(=O)C1([H])N(C(=O)C([H])(N([H])C(=O)C([H])(N([H])C([H])([H])[H])C([H])([H])[H])C(C([H])([H])[H])(C([H])([H])[H])C([H])([H])[H])C([H])([H])c2c([H])c(Oc3nc(C([H])([H])[H])c(C([H])(C([H])([H])[H])[N+]([H])(C([H])([H])[H])C4([H])C([H])([H])C([H])([H])N(C(=O)N5C([H])([H])C([H])([H])C([H])([H])C([H])(n6nc(-c7c([H])c([H])c(Oc8c([H])c([H])c(F)c([H])c8F)c([H])c7[H])c(C(=O)N([H])[H])c6N([H])[H])C5([H])[H])C4([H])C([H])([H])[H])c(C([H])([H])[H])c3[H])c([H])c([H])c2C1([H])[H]

>  <smiles>  (42) 
[H]c1c([H])c([H])c2c(c1[H])C([H])([H])C([H])([H])C([H])([H])C2([H])N([H])C(=O)C1([H])N(C(=O)C([H])(N([H])C(=O)C([H])(N([H])C([H])([H])[H])C([H])([H])[H])C(C([H])([H])[H])(C([H])([H])[H])C([H])([H])[H])C([H])([H])c2c([H])c(Oc3nc(C([H])([H])[H])c(C([H])(C([H])([H])[H])[N+]([H])(C([H])([H])[H])C4([H])C([H])([H])C([H])([H])N(C(=O)N5C([H])([H])C([H])([H])C([H])([H])C([H])(n6nc(-c7c([H])c([H])c(Oc8c([H])c([H])c(F)c([H])c8F)c([H])c7[H])c(C(=O)N([H])[H])c6N([H])[H])C5([H])[H])C4([H])C([H])([H])[H])c(C([H])([H])[H])c3[H])c([H])c([H])c2C1([H])[H]

$$$$
43:0:0
     RDKit          3D

 91100  0  0  1  0  0  0  0  0999 V2000
  -28.4270  -22.5480   20.0810 C   0  0  0  0  0  2  0  0  0  0  0  0
  -30.7350  -22.6090   20.3120 C   0  0  0  0  0  2  0  0  0  0  0  0
  -29.6490  -21.6360   19.8280 C   0  0  0  0  0  3  0  0  0  0  0  0
  -28.8890  -24.0090   19.7680 C   0  0  0  0  0  3  0  0  0  0  0  0
  -30.2930  -23.9510   20.0420 O   0  0  0  0  0  0  0  0  0  0  0  0
  -31.0570  -19.4340   20.3400 C   0  0  0  0  0  2  0  0  0  0  0  0
  -28.5630  -19.2310   20.0530 C   0  0  0  0  0  2  0  0  0  0  0  0
  -30.9880  -17.9090   19.9640 C   0  0  0  0  0  2  0  0  0  0  0  0
  -28.5990  -17.8240   20.7420 C   0  0  0  0  0  2  0  0  0  0  0  0
  -29.6900  -20.1920   20.5040 C   0  0  0  0  0  3  0  0  0  0  0  0
  -29.9920  -17.1300   20.8640 C   0  0  0  0  0  3  0  0  0  0  0  0
  -30.6570  -14.6230   20.2990 C   0  0  0  0  0  0  0  0  0  0  0  0
  -30.4130  -12.4250   19.1710 C   0  0  0  0  0  2  0  0  0  0  0  0
  -29.4360  -12.5940   17.9860 C   0  0  0  0  0  2  0  0  0  0  0  0
  -27.9750  -12.4180   18.4480 C   0  0  0  0  0  2  0  0  0  0  0  0
  -27.6480  -13.2520   19.7170 C   0  0  0  0  0  3  0  0  0  0  0  0
  -28.7360  -13.0570   20.8000 C   0  0  0  0  0  2  0  0  0  0  0  0
  -30.0330  -13.4090   20.1990 N   0  0  0  0  0  0  0  0  0  0  0  0
  -31.8120  -14.8040   19.9020 O   0  0  0  0  0  0  0  0  0  0  0  0
  -29.8450  -15.6470   20.6780 N   0  0  0  0  0  0  0  0  0  0  0  0
  -28.9250  -15.3120   20.9220 H   0  0  0  0  0  0  0  0  0  0  0  0
  -25.2600  -13.8440   20.4680 C   0  0  0  0  0  0  0  0  0  0  0  0
  -24.2010  -13.0650   20.8520 C   0  0  0  0  0  0  0  0  0  0  0  0
  -24.6660  -11.7160   20.8080 C   0  0  0  0  0  0  0  0  0  0  0  0
  -26.3070  -12.9680   20.2230 N   0  0  0  0  0  0  0  0  0  0  0  0
  -25.9540  -11.6840   20.4840 N   0  0  0  0  0  0  0  0  0  0  0  0
  -23.9490  -10.4480   21.0030 C   0  0  0  0  0  0  0  0  0  0  0  0
  -24.3950   -9.4890   21.9400 C   0  0  0  0  0  3  0  0  0  0  0  0
  -23.6790   -8.2880   22.1320 C   0  0  0  0  0  3  0  0  0  0  0  0
  -22.5030   -8.0350   21.3850 C   0  0  0  0  0  0  0  0  0  0  0  0
  -22.0760   -8.9840   20.4390 C   0  0  0  0  0  3  0  0  0  0  0  0
  -22.7910  -10.1770   20.2460 C   0  0  0  0  0  3  0  0  0  0  0  0
  -21.7610   -6.8840   21.4800 O   0  0  0  0  0  0  0  0  0  0  0  0
  -21.7130   -6.1500   22.6390 C   0  0  0  0  0  0  0  0  0  0  0  0
  -21.2680   -6.7090   23.8570 C   0  0  0  0  0  3  0  0  0  0  0  0
  -21.1730   -5.9010   25.0080 C   0  0  0  0  0  3  0  0  0  0  0  0
  -21.5140   -4.5370   24.9400 C   0  0  0  0  0  0  0  0  0  0  0  0
  -21.9520   -3.9780   23.7280 C   0  0  0  0  0  3  0  0  0  0  0  0
  -22.0510   -4.7840   22.5780 C   0  0  0  0  0  0  0  0  0  0  0  0
  -22.4520   -4.2370   21.4070 F   0  0  0  0  0  0  0  0  0  0  0  0
  -21.4130   -3.7570   26.0440 F   0  0  0  0  0  0  0  0  0  0  0  0
  -22.8060  -13.5360   21.1400 C   0  0  0  0  0  0  0  0  0  0  0  0
  -22.0930  -12.8350   22.0170 N   0  0  0  0  0  0  0  0  0  0  0  0
  -22.3550  -14.5580   20.6260 O   0  0  0  0  0  0  0  0  0  0  0  0
  -22.4670  -12.0090   22.4590 H   0  0  0  0  0  0  0  0  0  0  0  0
  -21.1560  -13.1320   22.2510 H   0  0  0  0  0  0  0  0  0  0  0  0
  -25.4130  -15.2140   20.2810 N   0  0  0  0  0  0  0  0  0  0  0  0
  -24.6420  -15.8600   20.4110 H   0  0  0  0  0  0  0  0  0  0  0  0
  -26.2340  -15.6510   19.8830 H   0  0  0  0  0  0  0  0  0  0  0  0
  -28.1710  -25.1620   20.5790 C   0  0  0  0  0  2  0  0  0  0  0  0
  -28.3590  -26.5560   20.1520 O   0  0  0  0  0  0  0  0  0  0  0  0
  -24.5940  -31.8800   23.2300 C   0  0  0  0  0  0  0  0  0  0  0  0
  -27.2270  -27.3710   20.1490 C   0  0  0  0  0  0  0  0  0  0  0  0
  -23.3920  -30.4800   21.5890 C   0  0  0  0  0  3  0  0  0  0  0  0
  -24.8500  -28.9430   20.1510 C   0  0  0  0  0  0  0  0  0  0  0  0
  -25.9290  -30.8090   21.4090 C   0  0  0  0  0  2  0  0  0  0  0  0
  -26.0120  -29.4350   20.7610 C   0  0  0  0  0  0  0  0  0  0  0  0
  -27.2020  -28.6550   20.7620 C   0  0  0  0  0  3  0  0  0  0  0  0
  -26.0540  -26.9280   19.5000 C   0  0  0  0  0  3  0  0  0  0  0  0
  -24.8700  -27.6900   19.5150 C   0  0  0  0  0  3  0  0  0  0  0  0
  -23.6050  -29.8070   20.2070 C   0  0  0  0  0  2  0  0  0  0  0  0
  -24.6570  -31.0740   22.1310 N   0  0  0  0  0  0  0  0  0  0  0  0
  -23.5100  -32.1530   23.7670 O   0  0  0  0  0  0  0  0  0  0  0  0
  -22.7400  -29.4560   22.5440 C   0  0  0  0  0  0  0  0  0  0  0  0
  -21.4150  -29.2750   22.4160 N   0  0  0  0  0  0  0  0  0  0  0  0
  -23.4220  -28.8240   23.3540 O   0  0  0  0  0  0  0  0  0  0  0  0
  -20.9270  -29.8240   21.7220 H   0  0  0  0  0  0  0  0  0  0  0  0
  -18.0320  -28.1130   22.9270 C   0  0  0  0  0  0  0  0  0  0  0  0
  -20.5950  -28.3370   23.1810 C   0  0  0  0  0  3  0  0  0  0  0  0
  -20.6790  -26.9130   22.5840 C   0  0  0  0  0  2  0  0  0  0  0  0
  -19.5640  -26.6190   21.5770 C   0  0  0  0  0  2  0  0  0  0  0  0
  -18.1890  -26.7710   22.2340 C   0  0  0  0  0  2  0  0  0  0  0  0
  -19.1630  -28.8570   23.3570 C   0  0  0  0  0  0  0  0  0  0  0  0
  -18.9630  -30.1160   23.9610 C   0  0  0  0  0  3  0  0  0  0  0  0
  -17.6650  -30.6300   24.1450 C   0  0  0  0  0  3  0  0  0  0  0  0
  -16.5490  -29.8800   23.7330 C   0  0  0  0  0  3  0  0  0  0  0  0
  -16.7350  -28.6250   23.1290 C   0  0  0  0  0  3  0  0  0  0  0  0
  -25.8760  -32.5100   23.8520 C   0  0  0  0  0  3  0  0  0  0  0  0
  -25.5630  -33.9060   24.1840 N   0  0  0  0  0  0  0  0  0  0  0  0
  -25.9020  -34.9610   23.4320 C   0  0  0  0  0  0  0  0  0  0  0  0
  -26.5810  -34.8610   22.4070 O   0  0  0  0  0  0  0  0  0  0  0  0
  -24.9480  -34.0600   24.9710 H   0  0  0  0  0  0  0  0  0  0  0  0
  -24.1740  -36.7540   23.0700 C   0  0  0  0  0  1  0  0  0  0  0  0
  -25.4080  -36.3470   23.8910 C   0  0  0  0  0  3  0  0  0  0  0  0
  -27.5340  -37.2270   24.7450 C   0  0  0  0  0  1  0  0  0  0  0  0
  -26.4410  -37.4020   23.7940 N   0  0  0  0  0  0  0  0  0  0  0  0
  -26.0320  -38.3210   23.9490 H   0  0  0  0  0  0  0  0  0  0  0  0
  -26.3900  -31.7350   25.1280 C   0  0  1  0  0  0  0  0  0  0  0  0
  -25.2910  -31.4930   26.1890 C   0  0  0  0  0  1  0  0  0  0  0  0
  -26.9750  -30.3590   24.7350 C   0  0  0  0  0  1  0  0  0  0  0  0
  -27.5360  -32.5290   25.7950 C   0  0  0  0  0  1  0  0  0  0  0  0
  3  1  1  0
  3  2  1  0
  3 10  1  0
  4  5  1  0
  4  1  1  0
  4 50  1  0
  5  2  1  0
  6 10  1  0
  7  9  1  0
  8  6  1  0
  8 11  1  0
  9 11  1  0
 10  7  1  0
 11 20  1  0
 12 20  1  0
 13 18  1  0
 14 15  1  0
 14 13  1  0
 16 15  1  0
 16 25  1  0
 16 17  1  0
 18 12  1  0
 18 17  1  0
 19 12  2  0
 20 21  1  0
 22 23  2  0
 23 42  1  0
 24 23  1  0
 24 27  1  0
 25 22  1  0
 25 26  1  0
 26 24  2  0
 27 28  1  0
 28 29  2  0
 30 33  1  0
 30 29  1  0
 31 30  2  0
 32 31  1  0
 32 27  2  0
 33 34  1  0
 34 35  1  0
 35 36  2  0
 37 36  1  0
 37 41  1  0
 38 37  2  0
 39 34  2  0
 39 38  1  0
 40 39  1  0
 42 43  1  0
 43 46  1  0
 43 45  1  0
 44 42  2  0
 47 48  1  0
 47 22  1  0
 49 47  1  0
 51 50  1  0
 52 63  2  0
 53 51  1  0
 53 58  1  0
 54 62  1  0
 54 64  1  0
 55 61  1  0
 55 57  1  0
 56 62  1  0
 57 58  2  0
 57 56  1  0
 59 60  1  0
 59 53  2  0
 60 55  2  0
 61 54  1  0
 62 52  1  0
 64 66  2  0
 65 64  1  0
 67 65  1  0
 68 77  2  0
 68 73  1  0
 69 65  1  0
 69 73  1  0
 70 69  1  0
 71 72  1  0
 71 70  1  0
 72 68  1  0
 73 74  2  0
 74 75  1  0
 76 75  2  0
 77 76  1  0
 78 52  1  0
 78 79  1  0
 78 88  1  0
 79 82  1  0
 80 84  1  0
 80 79  1  0
 81 80  2  0
 84 83  1  0
 86 84  1  0
 86 87  1  0
 86 85  1  0
 88 91  1  1
 88 89  1  0
 90 88  1  0
M  ISO  4  12 100  20 100  50 101  51 101
M  END
>  <TORSDO>  (43) 
F 18

>  <SCORE>  (43) 
-14.737

>  <name>  (43) 
43

>  <ligand_id>  (43) 
43

>  <original_smiles>  (43) 
[H]c1c([H])c([H])c2c(c1[H])C([H])([H])C([H])([H])C([H])([H])C2([H])N([H])C(=O)C1([H])N(C(=O)C([H])(N([H])C(=O)C([H])(N([H])C([H])([H])[H])C([H])([H])[H])C(C([H])([H])[H])(C([H])([H])[H])C([H])([H])[H])C([H])([H])c2c([H])c(OC([H])([H])C3([H])OC([H])([H])C([H])(C4([H])C([H])([H])C([H])([H])C([H])(N([H])C(=O)N5C([H])([H])C([H])([H])C([H])([H])C([H])(n6nc(-c7c([H])c([H])c(Oc8c([H])c([H])c(F)c([H])c8F)c([H])c7[H])c(C(=O)N([H])[H])c6N([H])[H])C5([H])[H])C([H])([H])C4([H])[H])C3([H])[H])c([H])c([H])c2C1([H])[H]

>  <smiles>  (43) 
[H]c1c([H])c([H])c2c(c1[H])C([H])([H])C([H])([H])C([H])([H])C2([H])N([H])C(=O)C1([H])N(C(=O)C([H])(N([H])C(=O)C([H])(N([H])C([H])([H])[H])C([H])([H])[H])C(C([H])([H])[H])(C([H])([H])[H])C([H])([H])[H])C([H])([H])c2c([H])c(OC([H])([H])C3([H])OC([H])([H])C([H])(C4([H])C([H])([H])C([H])([H])C([H])(N([H])C(=O)N5C([H])([H])C([H])([H])C([H])([H])C([H])(n6nc(-c7c([H])c([H])c(Oc8c([H])c([H])c(F)c([H])c8F)c([H])c7[H])c(C(=O)N([H])[H])c6N([H])[H])C5([H])[H])C([H])([H])C4([H])[H])C3([H])[H])c([H])c([H])c2C1([H])[H]

$$$$
44:0:0
     RDKit          3D

 96105  0  0  1  0  0  0  0  0999 V2000
  -28.5620  -21.5380   20.0820 C   0  0  0  0  0  2  0  0  0  0  0  0
  -30.0920  -21.0970   21.9650 C   0  0  0  0  0  2  0  0  0  0  0  0
  -28.7420  -23.0500   20.2470 C   0  0  0  0  0  2  0  0  0  0  0  0
  -30.2060  -22.6310   22.2100 C   0  0  0  0  0  2  0  0  0  0  0  0
  -29.8620  -20.8100   20.4710 C   0  0  0  0  0  3  0  0  0  0  0  0
  -29.0770  -23.4380   21.6440 N   0  0  1  0  0  4  0  0  0  0  0  0
  -28.2690  -23.2320   22.2180 H   0  0  0  0  0  0  0  0  0  0  0  0
  -29.9310  -16.7760   18.8000 C   0  0  0  0  0  3  0  0  0  0  0  0
  -29.9200  -17.9110   17.9830 C   0  0  0  0  0  3  0  0  0  0  0  0
  -29.8760  -18.1910   20.7890 C   0  0  0  0  0  3  0  0  0  0  0  0
  -29.9010  -19.3550   19.9600 C   0  0  0  0  0  0  0  0  0  0  0  0
  -29.9410  -16.8890   20.2080 C   0  0  0  0  0  0  0  0  0  0  0  0
  -29.9540  -19.1960   18.5490 C   0  0  0  0  0  0  0  0  0  0  0  0
  -30.7350  -14.6140   20.6560 C   0  0  0  0  0  0  0  0  0  0  0  0
  -30.5390  -12.4160   19.5690 C   0  0  0  0  0  2  0  0  0  0  0  0
  -29.6300  -12.5500   18.3300 C   0  0  0  0  0  2  0  0  0  0  0  0
  -28.1390  -12.4190   18.7080 C   0  0  0  0  0  2  0  0  0  0  0  0
  -27.7480  -13.2940   19.9280 C   0  0  0  0  0  3  0  0  0  0  0  0
  -28.7630  -13.1060   21.0770 C   0  0  0  0  0  2  0  0  0  0  0  0
  -30.1020  -13.4160   20.5550 N   0  0  0  0  0  0  0  0  0  0  0  0
  -31.9050  -14.7780   20.2920 O   0  0  0  0  0  0  0  0  0  0  0  0
  -29.9550  -15.6760   20.9740 N   0  0  0  0  0  0  0  0  0  0  0  0
  -29.0700  -15.4350   21.3970 H   0  0  0  0  0  0  0  0  0  0  0  0
  -25.3230  -13.9020   20.5550 C   0  0  0  0  0  0  0  0  0  0  0  0
  -24.2460  -13.1310   20.9020 C   0  0  0  0  0  0  0  0  0  0  0  0
  -24.7110  -11.7800   20.8980 C   0  0  0  0  0  0  0  0  0  0  0  0
  -26.3780  -13.0230   20.3660 N   0  0  0  0  0  0  0  0  0  0  0  0
  -26.0130  -11.7420   20.6330 N   0  0  0  0  0  0  0  0  0  0  0  0
  -23.9810  -10.5190   21.0810 C   0  0  0  0  0  0  0  0  0  0  0  0
  -24.4030   -9.5540   22.0220 C   0  0  0  0  0  3  0  0  0  0  0  0
  -23.6790   -8.3530   22.1910 C   0  0  0  0  0  3  0  0  0  0  0  0
  -22.5170   -8.1110   21.4180 C   0  0  0  0  0  0  0  0  0  0  0  0
  -22.1130   -9.0660   20.4680 C   0  0  0  0  0  3  0  0  0  0  0  0
  -22.8370  -10.2590   20.2980 C   0  0  0  0  0  3  0  0  0  0  0  0
  -21.7620   -6.9670   21.4980 O   0  0  0  0  0  0  0  0  0  0  0  0
  -21.7050   -6.2180   22.6480 C   0  0  0  0  0  0  0  0  0  0  0  0
  -21.2600   -6.7650   23.8710 C   0  0  0  0  0  3  0  0  0  0  0  0
  -21.1510   -5.9430   25.0100 C   0  0  0  0  0  3  0  0  0  0  0  0
  -21.4810   -4.5770   24.9280 C   0  0  0  0  0  0  0  0  0  0  0  0
  -21.9170   -4.0280   23.7090 C   0  0  0  0  0  3  0  0  0  0  0  0
  -22.0280   -4.8470   22.5710 C   0  0  0  0  0  0  0  0  0  0  0  0
  -22.4310   -4.3100   21.3930 F   0  0  0  0  0  0  0  0  0  0  0  0
  -21.3680   -3.7850   26.0200 F   0  0  0  0  0  0  0  0  0  0  0  0
  -22.8380  -13.6060   21.1290 C   0  0  0  0  0  0  0  0  0  0  0  0
  -22.0780  -12.9180   21.9750 N   0  0  0  0  0  0  0  0  0  0  0  0
  -22.4160  -14.6260   20.5860 O   0  0  0  0  0  0  0  0  0  0  0  0
  -22.4220  -12.0940   22.4450 H   0  0  0  0  0  0  0  0  0  0  0  0
  -21.1350  -13.2280   22.1610 H   0  0  0  0  0  0  0  0  0  0  0  0
  -25.4920  -15.2710   20.3660 N   0  0  0  0  0  0  0  0  0  0  0  0
  -24.7220  -15.9260   20.4540 H   0  0  0  0  0  0  0  0  0  0  0  0
  -26.3550  -15.7100   20.0690 H   0  0  0  0  0  0  0  0  0  0  0  0
  -29.3330  -20.3460   16.5540 C   0  0  0  0  0  1  0  0  0  0  0  0
  -30.0820  -20.3190   17.7620 O   0  0  0  0  0  0  0  0  0  0  0  0
  -29.3330  -24.9090   21.7370 C   0  0  0  0  0  2  0  0  0  0  0  0
  -28.0910  -25.7840   21.4230 C   0  0  0  0  0  2  0  0  0  0  0  0
  -28.2720  -26.6940   20.3210 O   0  0  0  0  0  0  0  0  0  0  0  0
  -24.5510  -31.9430   23.2470 C   0  0  0  0  0  0  0  0  0  0  0  0
  -27.1620  -27.4940   20.1940 C   0  0  0  0  0  0  0  0  0  0  0  0
  -23.3310  -30.5410   21.6140 C   0  0  0  0  0  3  0  0  0  0  0  0
  -24.7750  -28.9930   20.1870 C   0  0  0  0  0  0  0  0  0  0  0  0
  -25.8530  -30.8960   21.3990 C   0  0  0  0  0  2  0  0  0  0  0  0
  -25.9340  -29.5240   20.7680 C   0  0  0  0  0  0  0  0  0  0  0  0
  -27.1330  -28.7800   20.7730 C   0  0  0  0  0  3  0  0  0  0  0  0
  -26.0020  -26.9820   19.5760 C   0  0  0  0  0  3  0  0  0  0  0  0
  -24.8010  -27.7210   19.5890 C   0  0  0  0  0  3  0  0  0  0  0  0
  -23.5310  -29.8490   20.2380 C   0  0  0  0  0  2  0  0  0  0  0  0
  -24.5970  -31.1430   22.1450 N   0  0  0  0  0  0  0  0  0  0  0  0
  -23.4750  -32.2180   23.7950 O   0  0  0  0  0  0  0  0  0  0  0  0
  -22.6830  -29.5260   22.5800 C   0  0  0  0  0  0  0  0  0  0  0  0
  -21.3600  -29.3410   22.4550 N   0  0  0  0  0  0  0  0  0  0  0  0
  -23.3700  -28.9050   23.3970 O   0  0  0  0  0  0  0  0  0  0  0  0
  -20.8670  -29.8900   21.7640 H   0  0  0  0  0  0  0  0  0  0  0  0
  -17.9900  -28.1500   22.9680 C   0  0  0  0  0  0  0  0  0  0  0  0
  -20.5480  -28.4100   23.2350 C   0  0  0  0  0  3  0  0  0  0  0  0
  -20.6510  -26.9750   22.6680 C   0  0  0  0  0  2  0  0  0  0  0  0
  -19.5490  -26.6460   21.6570 C   0  0  0  0  0  2  0  0  0  0  0  0
  -18.1670  -26.7980   22.3010 C   0  0  0  0  0  2  0  0  0  0  0  0
  -19.1100  -28.9130   23.3930 C   0  0  0  0  0  0  0  0  0  0  0  0
  -18.8930  -30.1810   23.9770 C   0  0  0  0  0  3  0  0  0  0  0  0
  -17.5900  -30.6860   24.1420 C   0  0  0  0  0  3  0  0  0  0  0  0
  -16.4830  -29.9200   23.7320 C   0  0  0  0  0  3  0  0  0  0  0  0
  -16.6860  -28.6550   23.1500 C   0  0  0  0  0  3  0  0  0  0  0  0
  -25.8430  -32.5720   23.8570 C   0  0  0  0  0  3  0  0  0  0  0  0
  -26.3730  -31.8040   25.1300 C   0  0  1  0  0  0  0  0  0  0  0  0
  -25.2890  -31.5590   26.2070 C   0  0  0  0  0  1  0  0  0  0  0  0
  -26.9570  -30.4290   24.7310 C   0  0  0  0  0  1  0  0  0  0  0  0
  -27.5260  -32.6020   25.7850 C   0  0  0  0  0  1  0  0  0  0  0  0
  -25.5440  -33.9720   24.1840 N   0  0  0  0  0  0  0  0  0  0  0  0
  -25.8860  -35.0210   23.4210 C   0  0  0  0  0  0  0  0  0  0  0  0
  -26.5580  -34.9090   22.3920 O   0  0  0  0  0  0  0  0  0  0  0  0
  -24.9510  -34.1330   24.9850 H   0  0  0  0  0  0  0  0  0  0  0  0
  -24.1830  -36.8310   23.0370 C   0  0  0  0  0  1  0  0  0  0  0  0
  -25.4040  -36.4130   23.8710 C   0  0  0  0  0  3  0  0  0  0  0  0
  -27.5340  -37.2730   24.7420 C   0  0  0  0  0  1  0  0  0  0  0  0
  -26.4500  -37.4560   23.7830 N   0  0  0  0  0  0  0  0  0  0  0  0
  -26.0500  -38.3790   23.9290 H   0  0  0  0  0  0  0  0  0  0  0  0
  1  3  1  0
  1  5  1  0
  2  4  1  0
  3  6  1  0
  5 11  1  0
  5  2  1  0
  6 54  1  0
  6  4  1  0
  6  7  1  1
  8 12  1  0
  9 13  1  0
  9  8  2  0
 11 10  1  0
 12 10  2  0
 12 22  1  0
 13 11  2  0
 14 22  1  0
 15 20  1  0
 16 17  1  0
 16 15  1  0
 18 17  1  0
 18 27  1  0
 18 19  1  0
 20 14  1  0
 20 19  1  0
 21 14  2  0
 22 23  1  0
 24 25  2  0
 25 44  1  0
 26 25  1  0
 26 29  1  0
 27 24  1  0
 27 28  1  0
 28 26  2  0
 29 30  1  0
 30 31  2  0
 32 35  1  0
 32 31  1  0
 33 32  2  0
 34 33  1  0
 34 29  2  0
 35 36  1  0
 36 37  1  0
 37 38  2  0
 39 38  1  0
 39 43  1  0
 40 39  2  0
 41 36  2  0
 41 40  1  0
 42 41  1  0
 44 45  1  0
 45 48  1  0
 45 47  1  0
 46 44  2  0
 49 50  1  0
 49 24  1  0
 51 49  1  0
 52 53  1  0
 53 13  1  0
 55 54  1  0
 56 55  1  0
 57 68  2  0
 58 56  1  0
 58 63  1  0
 59 67  1  0
 59 69  1  0
 60 66  1  0
 60 62  1  0
 61 67  1  0
 62 63  2  0
 62 61  1  0
 64 65  1  0
 64 58  2  0
 65 60  2  0
 66 59  1  0
 67 57  1  0
 69 71  2  0
 70 69  1  0
 72 70  1  0
 73 82  2  0
 73 78  1  0
 74 70  1  0
 74 78  1  0
 75 74  1  0
 76 77  1  0
 76 75  1  0
 77 73  1  0
 78 79  2  0
 79 80  1  0
 81 80  2  0
 82 81  1  0
 83 57  1  0
 83 88  1  0
 83 84  1  0
 84 87  1  1
 84 85  1  0
 86 84  1  0
 88 91  1  0
 89 93  1  0
 89 88  1  0
 90 89  2  0
 93 92  1  0
 95 93  1  0
 95 96  1  0
 95 94  1  0
M  ISO  4  14 100  22 100  55 101  56 101
M  END
>  <TORSDO>  (44) 
F 20

>  <SCORE>  (44) 
-14.152

>  <name>  (44) 
44

>  <ligand_id>  (44) 
44

>  <original_smiles>  (44) 
[H]c1c([H])c([H])c2c(c1[H])C([H])([H])C([H])([H])C([H])([H])C2([H])N([H])C(=O)C1([H])N(C(=O)C([H])(N([H])C(=O)C([H])(N([H])C([H])([H])[H])C([H])([H])[H])C(C([H])([H])[H])(C([H])([H])[H])C([H])([H])[H])C([H])([H])c2c([H])c(OC([H])([H])C([H])([H])[N+]3([H])C([H])([H])C([H])([H])C([H])(c4c([H])c(N([H])C(=O)N5C([H])([H])C([H])([H])C([H])([H])C([H])(n6nc(-c7c([H])c([H])c(Oc8c([H])c([H])c(F)c([H])c8F)c([H])c7[H])c(C(=O)N([H])[H])c6N([H])[H])C5([H])[H])c([H])c([H])c4OC([H])([H])[H])C([H])([H])C3([H])[H])c([H])c([H])c2C1([H])[H]

>  <smiles>  (44) 
[H]c1c([H])c([H])c2c(c1[H])C([H])([H])C([H])([H])C([H])([H])C2([H])N([H])C(=O)C1([H])N(C(=O)C([H])(N([H])C(=O)C([H])(N([H])C([H])([H])[H])C([H])([H])[H])C(C([H])([H])[H])(C([H])([H])[H])C([H])([H])[H])C([H])([H])c2c([H])c(OC([H])([H])C([H])([H])[N+]3([H])C([H])([H])C([H])([H])C([H])(c4c([H])c(N([H])C(=O)N5C([H])([H])C([H])([H])C([H])([H])C([H])(n6nc(-c7c([H])c([H])c(Oc8c([H])c([H])c(F)c([H])c8F)c([H])c7[H])c(C(=O)N([H])[H])c6N([H])[H])C5([H])[H])c([H])c([H])c4OC([H])([H])[H])C([H])([H])C3([H])[H])c([H])c([H])c2C1([H])[H]

$$$$
45:0:0
     RDKit          3D

 98107  0  0  1  0  0  0  0  0999 V2000
  -31.1880  -21.4900   21.5670 C   0  0  0  0  0  3  0  0  0  0  0  0
  -31.2880  -22.8010   21.0750 C   0  0  0  0  0  3  0  0  0  0  0  0
  -29.6820  -22.2640   23.3190 C   0  0  0  0  0  0  0  0  0  0  0  0
  -30.3810  -21.2040   22.6880 C   0  0  0  0  0  0  0  0  0  0  0  0
  -30.5770  -23.8610   21.6760 C   0  0  0  0  0  0  0  0  0  0  0  0
  -29.7920  -23.5990   22.8400 C   0  0  0  0  0  0  0  0  0  0  0  0
  -28.8030  -21.9610   24.5310 C   0  0  0  0  0  1  0  0  0  0  0  0
  -29.3750  -25.9370   23.4030 C   0  0  0  0  0  1  0  0  0  0  0  0
  -29.0810  -24.5540   23.5460 O   0  0  0  0  0  0  0  0  0  0  0  0
  -30.2630  -19.9010   23.2050 N   0  0  0  0  0  0  0  0  0  0  0  0
  -29.3920  -19.6360   23.6550 H   0  0  0  0  0  0  0  0  0  0  0  0
  -31.3680  -17.8430   24.0490 C   0  0  0  0  0  2  0  0  0  0  0  0
  -32.1060  -16.6720   23.3940 C   0  0  0  0  0  2  0  0  0  0  0  0
  -30.8400  -17.9590   21.7240 C   0  0  0  0  0  2  0  0  0  0  0  0
  -31.2270  -18.8470   22.9130 C   0  0  0  0  0  3  0  0  0  0  0  0
  -31.7000  -16.6920   21.9050 C   0  0  0  0  0  3  0  0  0  0  0  0
  -31.3980  -14.5880   20.6000 C   0  0  0  0  0  0  0  0  0  0  0  0
  -31.0220  -12.3940   19.5400 C   0  0  0  0  0  2  0  0  0  0  0  0
  -30.1190  -12.5040   18.2970 C   0  0  0  0  0  2  0  0  0  0  0  0
  -28.6360  -12.4250   18.6970 C   0  0  0  0  0  2  0  0  0  0  0  0
  -28.2810  -13.3910   19.8570 C   0  0  0  0  0  3  0  0  0  0  0  0
  -29.2900  -13.2600   21.0190 C   0  0  0  0  0  2  0  0  0  0  0  0
  -30.6510  -13.4600   20.4850 N   0  0  0  0  0  0  0  0  0  0  0  0
  -32.4210  -14.7870   19.9390 O   0  0  0  0  0  0  0  0  0  0  0  0
  -30.9910  -15.4650   21.5300 N   0  0  0  0  0  0  0  0  0  0  0  0
  -30.1610  -15.2230   22.0510 H   0  0  0  0  0  0  0  0  0  0  0  0
  -25.9260  -14.1260   20.5980 C   0  0  0  0  0  0  0  0  0  0  0  0
  -24.8010  -13.4110   20.9120 C   0  0  0  0  0  0  0  0  0  0  0  0
  -25.1610  -12.0340   20.7880 C   0  0  0  0  0  0  0  0  0  0  0  0
  -26.9050  -13.1880   20.3110 N   0  0  0  0  0  0  0  0  0  0  0  0
  -26.4460  -11.9200   20.4790 N   0  0  0  0  0  0  0  0  0  0  0  0
  -24.3420  -10.8190   20.8900 C   0  0  0  0  0  0  0  0  0  0  0  0
  -24.6490   -9.7990   21.8160 C   0  0  0  0  0  3  0  0  0  0  0  0
  -23.8370   -8.6470   21.9080 C   0  0  0  0  0  3  0  0  0  0  0  0
  -22.7040   -8.5090   21.0720 C   0  0  0  0  0  0  0  0  0  0  0  0
  -22.4170   -9.5180   20.1360 C   0  0  0  0  0  3  0  0  0  0  0  0
  -23.2280  -10.6600   20.0420 C   0  0  0  0  0  3  0  0  0  0  0  0
  -21.8740   -7.4150   21.0740 O   0  0  0  0  0  0  0  0  0  0  0  0
  -21.6040   -6.7180   22.2230 C   0  0  0  0  0  0  0  0  0  0  0  0
  -21.0460   -7.3430   23.3600 C   0  0  0  0  0  3  0  0  0  0  0  0
  -20.7190   -6.5760   24.4970 C   0  0  0  0  0  3  0  0  0  0  0  0
  -20.9400   -5.1860   24.4950 C   0  0  0  0  0  0  0  0  0  0  0  0
  -21.4900   -4.5600   23.3620 C   0  0  0  0  0  3  0  0  0  0  0  0
  -21.8180   -5.3250   22.2290 C   0  0  0  0  0  0  0  0  0  0  0  0
  -22.3270   -4.7150   21.1320 F   0  0  0  0  0  0  0  0  0  0  0  0
  -20.6190   -4.4470   25.5830 F   0  0  0  0  0  0  0  0  0  0  0  0
  -23.4420  -13.9700   21.2170 C   0  0  0  0  0  0  0  0  0  0  0  0
  -22.6700  -13.2810   22.0520 N   0  0  0  0  0  0  0  0  0  0  0  0
  -23.0740  -15.0480   20.7550 O   0  0  0  0  0  0  0  0  0  0  0  0
  -22.9820  -12.4070   22.4480 H   0  0  0  0  0  0  0  0  0  0  0  0
  -21.7560  -13.6330   22.2980 H   0  0  0  0  0  0  0  0  0  0  0  0
  -26.1960  -15.4890   20.5150 N   0  0  0  0  0  0  0  0  0  0  0  0
  -25.4860  -16.1970   20.6690 H   0  0  0  0  0  0  0  0  0  0  0  0
  -27.0910  -15.8770   20.2410 H   0  0  0  0  0  0  0  0  0  0  0  0
  -30.6450  -25.1340   21.1520 O   0  0  0  0  0  0  0  0  0  0  0  0
  -30.8000  -25.2950   19.7420 C   0  0  0  0  0  2  0  0  0  0  0  0
  -29.5380  -25.9860   19.2140 C   0  0  0  0  0  2  0  0  0  0  0  0
  -29.3660  -27.2510   19.8560 O   0  0  0  0  0  0  0  0  0  0  0  0
  -24.9270  -31.5290   23.3680 C   0  0  0  0  0  0  0  0  0  0  0  0
  -28.1220  -27.8440   19.8450 C   0  0  0  0  0  0  0  0  0  0  0  0
  -23.9450  -30.3200   21.4470 C   0  0  0  0  0  3  0  0  0  0  0  0
  -25.6050  -29.1370   19.9170 C   0  0  0  0  0  0  0  0  0  0  0  0
  -26.4380  -30.8890   21.4940 C   0  0  0  0  0  2  0  0  0  0  0  0
  -26.6750  -29.6450   20.6640 C   0  0  0  0  0  0  0  0  0  0  0  0
  -27.9310  -29.0010   20.6320 C   0  0  0  0  0  3  0  0  0  0  0  0
  -27.0320  -27.3560   19.0820 C   0  0  0  0  0  3  0  0  0  0  0  0
  -25.7770  -27.9880   19.1300 C   0  0  0  0  0  3  0  0  0  0  0  0
  -24.2940  -29.8830   20.0010 C   0  0  0  0  0  2  0  0  0  0  0  0
  -25.1160  -30.9200   22.1640 N   0  0  0  0  0  0  0  0  0  0  0  0
  -23.7960  -31.6340   23.8620 O   0  0  0  0  0  0  0  0  0  0  0  0
  -23.3280  -29.1130   22.1900 C   0  0  0  0  0  0  0  0  0  0  0  0
  -22.0250  -28.8770   21.9680 N   0  0  0  0  0  0  0  0  0  0  0  0
  -24.0200  -28.4000   22.9220 O   0  0  0  0  0  0  0  0  0  0  0  0
  -21.5260  -29.5150   21.3650 H   0  0  0  0  0  0  0  0  0  0  0  0
  -18.7160  -27.4330   22.1000 C   0  0  0  0  0  0  0  0  0  0  0  0
  -21.2410  -27.7780   22.5300 C   0  0  0  0  0  3  0  0  0  0  0  0
  -21.4500  -26.4740   21.7250 C   0  0  0  0  0  2  0  0  0  0  0  0
  -20.4090  -26.2710   20.6210 C   0  0  0  0  0  2  0  0  0  0  0  0
  -18.9990  -26.2310   21.2160 C   0  0  0  0  0  2  0  0  0  0  0  0
  -19.7690  -28.1700   22.7050 C   0  0  0  0  0  0  0  0  0  0  0  0
  -19.4540  -29.3000   23.4890 C   0  0  0  0  0  3  0  0  0  0  0  0
  -18.1160  -29.6980   23.6710 C   0  0  0  0  0  3  0  0  0  0  0  0
  -17.0760  -28.9570   23.0830 C   0  0  0  0  0  3  0  0  0  0  0  0
  -17.3770  -27.8240   22.3050 C   0  0  0  0  0  3  0  0  0  0  0  0
  -26.1160  -32.1460   24.1690 C   0  0  0  0  0  3  0  0  0  0  0  0
  -25.7410  -33.5240   24.5180 N   0  0  0  0  0  0  0  0  0  0  0  0
  -26.1580  -34.6140   23.8590 C   0  0  0  0  0  0  0  0  0  0  0  0
  -26.9650  -34.5670   22.9260 O   0  0  0  0  0  0  0  0  0  0  0  0
  -25.0340  -33.6320   25.2290 H   0  0  0  0  0  0  0  0  0  0  0  0
  -24.4720  -36.4120   23.3470 C   0  0  0  0  0  1  0  0  0  0  0  0
  -25.5890  -35.9740   24.3080 C   0  0  0  0  0  3  0  0  0  0  0  0
  -27.5660  -36.8370   25.4820 C   0  0  0  0  0  1  0  0  0  0  0  0
  -26.6100  -37.0400   24.3970 N   0  0  0  0  0  0  0  0  0  0  0  0
  -26.1720  -37.9490   24.5240 H   0  0  0  0  0  0  0  0  0  0  0  0
  -26.4920  -31.3200   25.4610 C   0  0  1  0  0  0  0  0  0  0  0  0
  -25.2890  -31.0180   26.3850 C   0  0  0  0  0  1  0  0  0  0  0  0
  -27.1350  -29.9670   25.0760 C   0  0  0  0  0  1  0  0  0  0  0  0
  -27.5470  -32.0930   26.2880 C   0  0  0  0  0  1  0  0  0  0  0  0
  1  4  1  0
  2  1  2  0
  2  5  1  0
  3  7  1  0
  4 10  1  0
  4  3  2  0
  5  6  2  0
  6  3  1  0
  6  9  1  0
  8  9  1  0
 10 11  1  0
 13 12  1  0
 14 16  1  0
 14 15  1  0
 15 10  1  0
 15 12  1  0
 16 25  1  0
 16 13  1  0
 17 25  1  0
 18 23  1  0
 19 20  1  0
 19 18  1  0
 21 20  1  0
 21 30  1  0
 21 22  1  0
 23 17  1  0
 23 22  1  0
 24 17  2  0
 25 26  1  0
 27 28  2  0
 28 47  1  0
 29 32  1  0
 29 28  1  0
 30 31  1  0
 30 27  1  0
 31 29  2  0
 32 33  1  0
 33 34  2  0
 35 38  1  0
 35 34  1  0
 36 35  2  0
 37 36  1  0
 37 32  2  0
 38 39  1  0
 39 44  2  0
 39 40  1  0
 40 41  2  0
 42 41  1  0
 42 46  1  0
 43 42  2  0
 44 43  1  0
 45 44  1  0
 47 48  1  0
 48 51  1  0
 48 50  1  0
 49 47  2  0
 52 27  1  0
 52 53  1  0
 54 52  1  0
 55  5  1  0
 56 55  1  0
 57 56  1  0
 57 58  1  0
 59 70  2  0
 60 58  1  0
 60 65  1  0
 61 69  1  0
 61 71  1  0
 62 68  1  0
 62 64  1  0
 63 69  1  0
 64 63  1  0
 65 64  2  0
 66 67  1  0
 66 60  2  0
 67 62  2  0
 68 61  1  0
 69 59  1  0
 71 73  2  0
 72 71  1  0
 74 72  1  0
 75 84  2  0
 75 80  1  0
 76 72  1  0
 76 80  1  0
 77 76  1  0
 78 79  1  0
 78 77  1  0
 79 75  1  0
 80 81  2  0
 81 82  1  0
 83 82  2  0
 84 83  1  0
 85 59  1  0
 85 86  1  0
 85 95  1  0
 86 89  1  0
 87 91  1  0
 87 86  1  0
 88 87  2  0
 91 90  1  0
 91 93  1  0
 93 94  1  0
 93 92  1  0
 95 98  1  1
 95 96  1  0
 97 95  1  0
M  ISO  4  17 100  25 100  57 101  58 101
M  END
>  <TORSDO>  (45) 
F 22

>  <SCORE>  (45) 
-3.602

>  <name>  (45) 
45

>  <ligand_id>  (45) 
45

>  <original_smiles>  (45) 
[H]c1c([H])c([H])c2c(c1[H])C([H])([H])C([H])([H])C([H])([H])C2([H])N([H])C(=O)C1([H])N(C(=O)C([H])(N([H])C(=O)C([H])(N([H])C([H])([H])[H])C([H])([H])[H])C(C([H])([H])[H])(C([H])([H])[H])C([H])([H])[H])C([H])([H])c2c([H])c(OC([H])([H])C([H])([H])Oc3c([H])c([H])c(N([H])C4([H])C([H])([H])C([H])([H])C([H])(N([H])C(=O)N5C([H])([H])C([H])([H])C([H])([H])C([H])(n6nc(-c7c([H])c([H])c(Oc8c([H])c([H])c(F)c([H])c8F)c([H])c7[H])c(C(=O)N([H])[H])c6N([H])[H])C5([H])[H])C4([H])[H])c(C([H])([H])[H])c3OC([H])([H])[H])c([H])c([H])c2C1([H])[H]

>  <smiles>  (45) 
[H]c1c([H])c([H])c2c(c1[H])C([H])([H])C([H])([H])C([H])([H])C2([H])N([H])C(=O)C1([H])N(C(=O)C([H])(N([H])C(=O)C([H])(N([H])C([H])([H])[H])C([H])([H])[H])C(C([H])([H])[H])(C([H])([H])[H])C([H])([H])[H])C([H])([H])c2c([H])c(OC([H])([H])C([H])([H])Oc3c([H])c([H])c(N([H])C4([H])C([H])([H])C([H])([H])C([H])(N([H])C(=O)N5C([H])([H])C([H])([H])C([H])([H])C([H])(n6nc(-c7c([H])c([H])c(Oc8c([H])c([H])c(F)c([H])c8F)c([H])c7[H])c(C(=O)N([H])[H])c6N([H])[H])C5([H])[H])C4([H])[H])c(C([H])([H])[H])c3OC([H])([H])[H])c([H])c([H])c2C1([H])[H]

$$$$
46:0:0
     RDKit          3D

 93101  0  0  1  0  0  0  0  0999 V2000
  -29.5880  -23.8070   18.8260 C   0  0  0  0  0  3  0  0  0  0  0  0
  -29.0500  -23.8100   20.1260 C   0  0  0  0  0  0  0  0  0  0  0  0
  -29.0690  -22.5060   20.8010 C   0  0  0  0  0  0  0  0  0  0  0  0
  -30.0540  -22.6110   18.2460 C   0  0  0  0  0  0  0  0  0  0  0  0
  -29.5840  -21.3190   20.1280 C   0  0  0  0  0  0  0  0  0  0  0  0
  -30.6020  -22.6070   16.8350 C   0  0  0  0  0  1  0  0  0  0  0  0
  -30.0430  -21.4100   18.8660 N   0  0  0  0  0  0  0  0  0  0  0  0
  -27.1220  -22.8620   22.4650 C   0  0  0  0  0  1  0  0  0  0  0  0
  -29.5340  -22.7560   23.3200 C   0  0  0  0  0  1  0  0  0  0  0  0
  -28.5400  -22.3090   22.2340 C   0  0  0  0  0  3  0  0  0  0  0  0
  -28.3790  -25.1630   20.6580 C   0  0  0  0  0  2  0  0  0  0  0  0
  -28.6320  -26.5220   20.0510 O   0  0  0  0  0  0  0  0  0  0  0  0
  -24.7420  -31.8230   23.1620 C   0  0  0  0  0  0  0  0  0  0  0  0
  -27.5300  -27.4060   20.0210 C   0  0  0  0  0  0  0  0  0  0  0  0
  -23.5990  -30.4110   21.4920 C   0  0  0  0  0  3  0  0  0  0  0  0
  -25.1140  -28.9590   20.0300 C   0  0  0  0  0  0  0  0  0  0  0  0
  -26.1290  -30.8310   21.3220 C   0  0  0  0  0  2  0  0  0  0  0  0
  -26.2670  -29.4700   20.6410 C   0  0  0  0  0  0  0  0  0  0  0  0
  -27.4800  -28.7070   20.6270 C   0  0  0  0  0  3  0  0  0  0  0  0
  -26.3590  -26.9780   19.3580 C   0  0  0  0  0  3  0  0  0  0  0  0
  -25.1630  -27.7180   19.3780 C   0  0  0  0  0  3  0  0  0  0  0  0
  -23.8420  -29.7820   20.0970 C   0  0  0  0  0  2  0  0  0  0  0  0
  -24.8420  -31.0390   22.0480 N   0  0  0  0  0  0  0  0  0  0  0  0
  -23.6460  -32.0420   23.7010 O   0  0  0  0  0  0  0  0  0  0  0  0
  -22.9840  -29.3430   22.4280 C   0  0  0  0  0  0  0  0  0  0  0  0
  -21.6710  -29.0920   22.2830 N   0  0  0  0  0  0  0  0  0  0  0  0
  -23.6860  -28.7430   23.2470 O   0  0  0  0  0  0  0  0  0  0  0  0
  -21.1600  -29.6320   21.5990 H   0  0  0  0  0  0  0  0  0  0  0  0
  -18.3650  -27.6820   22.7120 C   0  0  0  0  0  0  0  0  0  0  0  0
  -20.8980  -28.0980   23.0290 C   0  0  0  0  0  3  0  0  0  0  0  0
  -21.0990  -26.6810   22.4460 C   0  0  0  0  0  2  0  0  0  0  0  0
  -20.0360  -26.2990   21.4090 C   0  0  0  0  0  2  0  0  0  0  0  0
  -18.6370  -26.3520   22.0300 C   0  0  0  0  0  2  0  0  0  0  0  0
  -19.4270  -28.5090   23.1680 C   0  0  0  0  0  0  0  0  0  0  0  0
  -19.1190  -29.7490   23.7670 C   0  0  0  0  0  3  0  0  0  0  0  0
  -17.7830  -30.1690   23.9120 C   0  0  0  0  0  3  0  0  0  0  0  0
  -16.7360  -29.3410   23.4710 C   0  0  0  0  0  3  0  0  0  0  0  0
  -17.0290  -28.0980   22.8780 C   0  0  0  0  0  3  0  0  0  0  0  0
  -25.9950  -32.4970   23.7980 C   0  0  0  0  0  3  0  0  0  0  0  0
  -25.6230  -33.8710   24.1600 N   0  0  0  0  0  0  0  0  0  0  0  0
  -25.8940  -34.9540   23.4200 C   0  0  0  0  0  0  0  0  0  0  0  0
  -26.5520  -34.9070   22.3780 O   0  0  0  0  0  0  0  0  0  0  0  0
  -25.0320  -33.9820   24.9700 H   0  0  0  0  0  0  0  0  0  0  0  0
  -24.0690  -36.6630   23.1380 C   0  0  0  0  0  1  0  0  0  0  0  0
  -25.3470  -36.3080   23.9150 C   0  0  0  0  0  3  0  0  0  0  0  0
  -27.4520  -37.2850   24.7190 C   0  0  0  0  0  1  0  0  0  0  0  0
  -26.3240  -37.4140   23.8010 N   0  0  0  0  0  0  0  0  0  0  0  0
  -25.8750  -38.3090   23.9760 H   0  0  0  0  0  0  0  0  0  0  0  0
  -26.5450  -31.7220   25.0590 C   0  0  1  0  0  0  0  0  0  0  0  0
  -25.4640  -31.4200   26.1210 C   0  0  0  0  0  1  0  0  0  0  0  0
  -27.1860  -30.3780   24.6410 C   0  0  0  0  0  1  0  0  0  0  0  0
  -27.6610  -32.5520   25.7380 C   0  0  0  0  0  1  0  0  0  0  0  0
  -29.6820  -20.0280   20.7300 O   0  0  0  0  0  0  0  0  0  0  0  0
  -29.8620  -18.7420   19.9870 C   0  0  0  0  0  2  0  0  0  0  0  0
  -30.4020  -17.4550   20.8110 C   0  0  0  0  0  2  0  0  0  0  0  0
  -30.9170  -14.9190   20.1500 C   0  0  0  0  0  0  0  0  0  0  0  0
  -30.7040  -12.6510   19.1170 C   0  0  0  0  0  2  0  0  0  0  0  0
  -29.7330  -12.7180   17.9170 C   0  0  0  0  0  2  0  0  0  0  0  0
  -28.2730  -12.5550   18.3820 C   0  0  0  0  0  2  0  0  0  0  0  0
  -27.9290  -13.4720   19.5840 C   0  0  0  0  0  3  0  0  0  0  0  0
  -29.0010  -13.3660   20.6890 C   0  0  0  0  0  2  0  0  0  0  0  0
  -30.2930  -13.6980   20.0740 N   0  0  0  0  0  0  0  0  0  0  0  0
  -32.1080  -15.0390   19.8500 O   0  0  0  0  0  0  0  0  0  0  0  0
  -30.1090  -16.0150   20.3910 N   0  0  0  0  0  0  0  0  0  0  0  0
  -29.1400  -15.7560   20.4910 H   0  0  0  0  0  0  0  0  0  0  0  0
  -25.5700  -14.1290   20.3590 C   0  0  0  0  0  0  0  0  0  0  0  0
  -24.4960  -13.3820   20.7500 C   0  0  0  0  0  0  0  0  0  0  0  0
  -24.9270  -12.0190   20.7100 C   0  0  0  0  0  0  0  0  0  0  0  0
  -26.5870  -13.2240   20.1000 N   0  0  0  0  0  0  0  0  0  0  0  0
  -26.2090  -11.9500   20.3760 N   0  0  0  0  0  0  0  0  0  0  0  0
  -24.1740  -10.7750   20.9080 C   0  0  0  0  0  0  0  0  0  0  0  0
  -24.5890   -9.7990   21.8410 C   0  0  0  0  0  3  0  0  0  0  0  0
  -23.8370   -8.6210   22.0270 C   0  0  0  0  0  3  0  0  0  0  0  0
  -22.6540   -8.4080   21.2780 C   0  0  0  0  0  0  0  0  0  0  0  0
  -22.2590   -9.3700   20.3310 C   0  0  0  0  0  3  0  0  0  0  0  0
  -23.0130  -10.5400   20.1430 C   0  0  0  0  0  3  0  0  0  0  0  0
  -21.8740   -7.2810   21.3720 O   0  0  0  0  0  0  0  0  0  0  0  0
  -21.8000   -6.5530   22.5330 C   0  0  0  0  0  0  0  0  0  0  0  0
  -21.3680   -7.1290   23.7480 C   0  0  0  0  0  3  0  0  0  0  0  0
  -21.2390   -6.3270   24.9000 C   0  0  0  0  0  3  0  0  0  0  0  0
  -21.5320   -4.9520   24.8380 C   0  0  0  0  0  0  0  0  0  0  0  0
  -21.9600   -4.3770   23.6280 C   0  0  0  0  0  3  0  0  0  0  0  0
  -22.0900   -5.1750   22.4790 C   0  0  0  0  0  0  0  0  0  0  0  0
  -22.4800   -4.6110   21.3100 F   0  0  0  0  0  0  0  0  0  0  0  0
  -21.4020   -4.1800   25.9420 F   0  0  0  0  0  0  0  0  0  0  0  0
  -23.1140  -13.8910   21.0450 C   0  0  0  0  0  0  0  0  0  0  0  0
  -22.3850  -13.2170   21.9250 N   0  0  0  0  0  0  0  0  0  0  0  0
  -22.6910  -14.9260   20.5290 O   0  0  0  0  0  0  0  0  0  0  0  0
  -22.7390  -12.3820   22.3680 H   0  0  0  0  0  0  0  0  0  0  0  0
  -21.4590  -13.5440   22.1640 H   0  0  0  0  0  0  0  0  0  0  0  0
  -25.7600  -15.4980   20.1780 N   0  0  0  0  0  0  0  0  0  0  0  0
  -24.9990  -16.1560   20.2950 H   0  0  0  0  0  0  0  0  0  0  0  0
  -26.5870  -15.9210   19.7780 H   0  0  0  0  0  0  0  0  0  0  0  0
  1  2  1  0
  2 11  1  0
  2  3  2  0
  3 10  1  0
  4  1  2  0
  4  7  1  0
  5 53  1  0
  5  3  1  0
  6  4  1  0
  7  5  2  0
 10  8  1  0
 10  9  1  0
 12 11  1  0
 13 24  2  0
 14 12  1  0
 14 19  1  0
 15 23  1  0
 15 25  1  0
 16 22  1  0
 16 18  1  0
 17 23  1  0
 18 17  1  0
 19 18  2  0
 20 21  1  0
 20 14  2  0
 21 16  2  0
 22 15  1  0
 23 13  1  0
 25 27  2  0
 26 25  1  0
 28 26  1  0
 29 38  2  0
 29 34  1  0
 30 26  1  0
 30 34  1  0
 31 30  1  0
 32 33  1  0
 32 31  1  0
 33 29  1  0
 34 35  2  0
 35 36  1  0
 37 36  2  0
 38 37  1  0
 39 13  1  0
 39 40  1  0
 39 49  1  0
 40 43  1  0
 41 45  1  0
 41 40  1  0
 42 41  2  0
 45 44  1  0
 47 45  1  0
 47 48  1  0
 47 46  1  0
 49 52  1  1
 49 50  1  0
 51 49  1  0
 54 53  1  0
 54 55  1  0
 56 64  1  0
 57 62  1  0
 58 59  1  0
 58 57  1  0
 60 59  1  0
 60 69  1  0
 60 61  1  0
 62 56  1  0
 62 61  1  0
 63 56  2  0
 64 65  1  0
 64 55  1  0
 66 67  2  0
 67 86  1  0
 68 67  1  0
 68 71  1  0
 69 66  1  0
 69 70  1  0
 70 68  2  0
 71 72  1  0
 72 73  2  0
 74 77  1  0
 74 73  1  0
 75 74  2  0
 76 75  1  0
 76 71  2  0
 77 78  1  0
 78 79  1  0
 79 80  2  0
 81 80  1  0
 81 85  1  0
 82 81  2  0
 83 78  2  0
 83 82  1  0
 84 83  1  0
 86 87  1  0
 87 90  1  0
 87 89  1  0
 88 86  2  0
 91 92  1  0
 91 66  1  0
 93 91  1  0
M  ISO  4  11 101  12 101  56 100  64 100
M  END
>  <TORSDO>  (46) 
F 21

>  <SCORE>  (46) 
-12.115

>  <name>  (46) 
46

>  <ligand_id>  (46) 
46

>  <original_smiles>  (46) 
[H]c1c([H])c([H])c2c(c1[H])C([H])([H])C([H])([H])C([H])([H])C2([H])N([H])C(=O)C1([H])N(C(=O)C([H])(N([H])C(=O)C([H])(N([H])C([H])([H])[H])C([H])([H])[H])C(C([H])([H])[H])(C([H])([H])[H])C([H])([H])[H])C([H])([H])c2c([H])c(OC([H])([H])c3c([H])c(C([H])([H])[H])nc(OC([H])([H])C([H])([H])N([H])C(=O)N4C([H])([H])C([H])([H])C([H])([H])C([H])(n5nc(-c6c([H])c([H])c(Oc7c([H])c([H])c(F)c([H])c7F)c([H])c6[H])c(C(=O)N([H])[H])c5N([H])[H])C4([H])[H])c3C([H])(C([H])([H])[H])C([H])([H])[H])c([H])c([H])c2C1([H])[H]

>  <smiles>  (46) 
[H]c1c([H])c([H])c2c(c1[H])C([H])([H])C([H])([H])C([H])([H])C2([H])N([H])C(=O)C1([H])N(C(=O)C([H])(N([H])C(=O)C([H])(N([H])C([H])([H])[H])C([H])([H])[H])C(C([H])([H])[H])(C([H])([H])[H])C([H])([H])[H])C([H])([H])c2c([H])c(OC([H])([H])c3c([H])c(C([H])([H])[H])nc(OC([H])([H])C([H])([H])N([H])C(=O)N4C([H])([H])C([H])([H])C([H])([H])C([H])(n5nc(-c6c([H])c([H])c(Oc7c([H])c([H])c(F)c([H])c7F)c([H])c6[H])c(C(=O)N([H])[H])c5N([H])[H])C4([H])[H])c3C([H])(C([H])([H])[H])C([H])([H])[H])c([H])c([H])c2C1([H])[H]

$$$$
47:0:0
     RDKit          3D

 91100  0  0  1  0  0  0  0  0999 V2000
  -29.2600  -19.8680   21.3980 C   0  0  0  0  0  3  0  0  0  0  0  0
  -29.4220  -18.4260   21.4160 C   0  0  0  0  0  3  0  0  0  0  0  0
  -29.9510  -18.4080   19.0920 C   0  0  0  0  0  3  0  0  0  0  0  0
  -29.4160  -20.6230   20.2000 C   0  0  0  0  0  0  0  0  0  0  0  0
  -29.7980  -17.6130   20.2840 C   0  0  0  0  0  0  0  0  0  0  0  0
  -29.7470  -19.8480   19.0740 C   0  0  0  0  0  0  0  0  0  0  0  0
  -29.4080  -22.0030   18.3050 C   0  0  0  0  0  2  0  0  0  0  0  0
  -29.4640  -22.1880   19.8440 C   0  0  0  0  0  3  0  0  0  0  0  0
  -29.8660  -20.6620   17.9750 O   0  0  0  0  0  0  0  0  0  0  0  0
  -30.5940  -15.0060   19.9590 C   0  0  0  0  0  0  0  0  0  0  0  0
  -30.4240  -12.7080   18.9260 C   0  0  0  0  0  2  0  0  0  0  0  0
  -29.3990  -12.7540   17.7670 C   0  0  0  0  0  2  0  0  0  0  0  0
  -27.9670  -12.5370   18.2900 C   0  0  0  0  0  2  0  0  0  0  0  0
  -27.6590  -13.4020   19.5400 C   0  0  0  0  0  3  0  0  0  0  0  0
  -28.7870  -13.3120   20.5900 C   0  0  0  0  0  2  0  0  0  0  0  0
  -30.0290  -13.7380   19.9260 N   0  0  0  0  0  0  0  0  0  0  0  0
  -31.7400  -15.1500   19.5230 O   0  0  0  0  0  0  0  0  0  0  0  0
  -29.7910  -16.0900   20.3740 N   0  0  0  0  0  0  0  0  0  0  0  0
  -28.9680  -15.7410   20.8430 H   0  0  0  0  0  0  0  0  0  0  0  0
  -25.3270  -13.9750   20.4350 C   0  0  0  0  0  0  0  0  0  0  0  0
  -24.2840  -13.1920   20.8500 C   0  0  0  0  0  0  0  0  0  0  0  0
  -24.7400  -11.8420   20.7510 C   0  0  0  0  0  0  0  0  0  0  0  0
  -26.3500  -13.1000   20.1070 N   0  0  0  0  0  0  0  0  0  0  0  0
  -26.0080  -11.8100   20.3590 N   0  0  0  0  0  0  0  0  0  0  0  0
  -24.0200  -10.5760   20.9490 C   0  0  0  0  0  0  0  0  0  0  0  0
  -24.4760   -9.6020   21.8650 C   0  0  0  0  0  3  0  0  0  0  0  0
  -23.7560   -8.4020   22.0520 C   0  0  0  0  0  3  0  0  0  0  0  0
  -22.5670   -8.1680   21.3220 C   0  0  0  0  0  0  0  0  0  0  0  0
  -22.1290   -9.1310   20.3940 C   0  0  0  0  0  3  0  0  0  0  0  0
  -22.8490  -10.3220   20.2070 C   0  0  0  0  0  3  0  0  0  0  0  0
  -21.8160   -7.0220   21.4200 O   0  0  0  0  0  0  0  0  0  0  0  0
  -21.7610   -6.2930   22.5810 C   0  0  0  0  0  0  0  0  0  0  0  0
  -21.2870   -6.8530   23.7870 C   0  0  0  0  0  3  0  0  0  0  0  0
  -21.1810   -6.0500   24.9420 C   0  0  0  0  0  3  0  0  0  0  0  0
  -21.5400   -4.6900   24.8890 C   0  0  0  0  0  0  0  0  0  0  0  0
  -22.0060   -4.1300   23.6870 C   0  0  0  0  0  3  0  0  0  0  0  0
  -22.1130   -4.9300   22.5350 C   0  0  0  0  0  0  0  0  0  0  0  0
  -22.5440   -4.3810   21.3730 F   0  0  0  0  0  0  0  0  0  0  0  0
  -21.4310   -3.9160   25.9940 F   0  0  0  0  0  0  0  0  0  0  0  0
  -22.9100  -13.6650   21.2250 C   0  0  0  0  0  0  0  0  0  0  0  0
  -22.2320  -12.9420   22.1090 N   0  0  0  0  0  0  0  0  0  0  0  0
  -22.4470  -14.7100   20.7700 O   0  0  0  0  0  0  0  0  0  0  0  0
  -22.6210  -12.0950   22.4980 H   0  0  0  0  0  0  0  0  0  0  0  0
  -21.3120  -13.2390   22.4010 H   0  0  0  0  0  0  0  0  0  0  0  0
  -25.4820  -15.3490   20.2820 N   0  0  0  0  0  0  0  0  0  0  0  0
  -24.7120  -15.9940   20.4270 H   0  0  0  0  0  0  0  0  0  0  0  0
  -26.2910  -15.7920   19.8630 H   0  0  0  0  0  0  0  0  0  0  0  0
  -27.1480  -23.0150   20.7800 C   0  0  0  0  0  1  0  0  0  0  0  0
  -28.5730  -23.4750   20.4420 C   0  0  0  0  0  3  0  0  0  0  0  0
  -28.5200  -24.9680   19.6780 C   0  0  0  0  0  2  0  0  0  0  0  0
  -28.3840  -26.3760   20.2920 O   0  0  0  0  0  0  0  0  0  0  0  0
  -24.6350  -31.9220   23.2380 C   0  0  0  0  0  0  0  0  0  0  0  0
  -27.2770  -27.2810   20.1870 C   0  0  0  0  0  0  0  0  0  0  0  0
  -23.4470  -30.5140   21.5970 C   0  0  0  0  0  3  0  0  0  0  0  0
  -24.9130  -28.9610   20.1650 C   0  0  0  0  0  0  0  0  0  0  0  0
  -25.9930  -30.8240   21.4210 C   0  0  0  0  0  2  0  0  0  0  0  0
  -26.0830  -29.4360   20.7700 C   0  0  0  0  0  0  0  0  0  0  0  0
  -27.2620  -28.6090   20.7650 C   0  0  0  0  0  3  0  0  0  0  0  0
  -26.0790  -26.8890   19.5550 C   0  0  0  0  0  3  0  0  0  0  0  0
  -24.9210  -27.7010   19.5440 C   0  0  0  0  0  3  0  0  0  0  0  0
  -23.6710  -29.8350   20.2180 C   0  0  0  0  0  2  0  0  0  0  0  0
  -24.7110  -31.1070   22.1410 N   0  0  0  0  0  0  0  0  0  0  0  0
  -23.5470  -32.1930   23.7690 O   0  0  0  0  0  0  0  0  0  0  0  0
  -22.7840  -29.4980   22.5600 C   0  0  0  0  0  0  0  0  0  0  0  0
  -21.4580  -29.3140   22.4340 N   0  0  0  0  0  0  0  0  0  0  0  0
  -23.4640  -28.8770   23.3800 O   0  0  0  0  0  0  0  0  0  0  0  0
  -20.9670  -29.8670   21.7460 H   0  0  0  0  0  0  0  0  0  0  0  0
  -18.0890  -28.0900   22.9410 C   0  0  0  0  0  0  0  0  0  0  0  0
  -20.6460  -28.3680   23.2030 C   0  0  0  0  0  3  0  0  0  0  0  0
  -20.7560  -26.9400   22.6210 C   0  0  0  0  0  2  0  0  0  0  0  0
  -19.6540  -26.6150   21.6080 C   0  0  0  0  0  2  0  0  0  0  0  0
  -18.2730  -26.7450   22.2570 C   0  0  0  0  0  2  0  0  0  0  0  0
  -19.2030  -28.8580   23.3710 C   0  0  0  0  0  0  0  0  0  0  0  0
  -18.9750  -30.1150   23.9720 C   0  0  0  0  0  3  0  0  0  0  0  0
  -17.6680  -30.6040   24.1490 C   0  0  0  0  0  3  0  0  0  0  0  0
  -16.5670  -29.8330   23.7330 C   0  0  0  0  0  3  0  0  0  0  0  0
  -16.7790  -28.5780   23.1370 C   0  0  0  0  0  3  0  0  0  0  0  0
  -25.9070  -32.5680   23.8660 C   0  0  0  0  0  3  0  0  0  0  0  0
  -25.5870  -33.9680   24.1870 N   0  0  0  0  0  0  0  0  0  0  0  0
  -25.9150  -35.0210   23.4260 C   0  0  0  0  0  0  0  0  0  0  0  0
  -26.5890  -34.9170   22.3980 O   0  0  0  0  0  0  0  0  0  0  0  0
  -24.9870  -34.1210   24.9850 H   0  0  0  0  0  0  0  0  0  0  0  0
  -24.1850  -36.8110   23.0550 C   0  0  0  0  0  1  0  0  0  0  0  0
  -25.4210  -36.4100   23.8770 C   0  0  0  0  0  3  0  0  0  0  0  0
  -27.5430  -37.3070   24.7280 C   0  0  0  0  0  1  0  0  0  0  0  0
  -26.4520  -37.4660   23.7700 N   0  0  0  0  0  0  0  0  0  0  0  0
  -26.0430  -38.3860   23.9050 H   0  0  0  0  0  0  0  0  0  0  0  0
  -26.4150  -31.8110   25.1550 C   0  0  1  0  0  0  0  0  0  0  0  0
  -25.3110  -31.5740   26.2130 C   0  0  0  0  0  1  0  0  0  0  0  0
  -27.0100  -30.4330   24.7810 C   0  0  0  0  0  1  0  0  0  0  0  0
  -27.5530  -32.6170   25.8230 C   0  0  0  0  0  1  0  0  0  0  0  0
  1  2  1  0
  3  5  1  0
  4  1  2  0
  5 18  1  0
  5  2  2  0
  6  3  2  0
  6  4  1  0
  7  8  1  0
  8  4  1  0
  8 49  1  0
  9  7  1  0
  9  6  1  0
 10 18  1  0
 11 16  1  0
 12 13  1  0
 12 11  1  0
 14 13  1  0
 14 23  1  0
 14 15  1  0
 16 10  1  0
 16 15  1  0
 17 10  2  0
 18 19  1  0
 20 21  2  0
 21 40  1  0
 22 21  1  0
 22 25  1  0
 23 24  1  0
 23 20  1  0
 24 22  2  0
 25 26  1  0
 26 27  2  0
 28 31  1  0
 28 27  1  0
 29 28  2  0
 30 29  1  0
 30 25  2  0
 31 32  1  0
 32 33  1  0
 33 34  2  0
 35 34  1  0
 35 39  1  0
 36 35  2  0
 37 32  2  0
 37 36  1  0
 38 37  1  0
 40 41  1  0
 41 44  1  0
 41 43  1  0
 42 40  2  0
 45 46  1  0
 45 20  1  0
 47 45  1  0
 49 48  1  0
 50 51  1  0
 50 49  1  0
 52 63  2  0
 53 51  1  0
 53 58  1  0
 54 62  1  0
 54 64  1  0
 55 61  1  0
 55 57  1  0
 56 62  1  0
 57 56  1  0
 58 57  2  0
 59 53  2  0
 60 59  1  0
 60 55  2  0
 61 54  1  0
 62 52  1  0
 64 66  2  0
 65 64  1  0
 67 65  1  0
 68 77  2  0
 68 73  1  0
 69 65  1  0
 69 73  1  0
 70 69  1  0
 71 72  1  0
 71 70  1  0
 72 68  1  0
 73 74  2  0
 74 75  1  0
 76 75  2  0
 77 76  1  0
 78 52  1  0
 78 79  1  0
 78 88  1  0
 79 82  1  0
 80 84  1  0
 80 79  1  0
 81 80  2  0
 84 83  1  0
 86 84  1  0
 86 87  1  0
 86 85  1  0
 88 91  1  1
 88 89  1  0
 90 88  1  0
M  ISO  4  10 100  18 100  50 101  51 101
M  END
>  <TORSDO>  (47) 
F 18

>  <SCORE>  (47) 
-13.830

>  <name>  (47) 
47

>  <ligand_id>  (47) 
47

>  <original_smiles>  (47) 
[H]c1c([H])c([H])c2c(c1[H])C([H])([H])C([H])([H])C([H])([H])C2([H])N([H])C(=O)C1([H])N(C(=O)C([H])(N([H])C(=O)C([H])(N([H])C([H])([H])[H])C([H])([H])[H])C(C([H])([H])[H])(C([H])([H])[H])C([H])([H])[H])C([H])([H])c2c([H])c(OC([H])([H])C([H])(C([H])([H])[H])C3([H])c4c([H])c([H])c(N([H])C(=O)N5C([H])([H])C([H])([H])C([H])([H])C([H])(n6nc(-c7c([H])c([H])c(Oc8c([H])c([H])c(F)c([H])c8F)c([H])c7[H])c(C(=O)N([H])[H])c6N([H])[H])C5([H])[H])c([H])c4OC3([H])[H])c([H])c([H])c2C1([H])[H]

>  <smiles>  (47) 
[H]c1c([H])c([H])c2c(c1[H])C([H])([H])C([H])([H])C([H])([H])C2([H])N([H])C(=O)C1([H])N(C(=O)C([H])(N([H])C(=O)C([H])(N([H])C([H])([H])[H])C([H])([H])[H])C(C([H])([H])[H])(C([H])([H])[H])C([H])([H])[H])C([H])([H])c2c([H])c(OC([H])([H])C([H])(C([H])([H])[H])C3([H])c4c([H])c([H])c(N([H])C(=O)N5C([H])([H])C([H])([H])C([H])([H])C([H])(n6nc(-c7c([H])c([H])c(Oc8c([H])c([H])c(F)c([H])c8F)c([H])c7[H])c(C(=O)N([H])[H])c6N([H])[H])C5([H])[H])c([H])c4OC3([H])[H])c([H])c([H])c2C1([H])[H]

$$$$
48:0:0
     RDKit          3D

 93103  0  0  1  0  0  0  0  0999 V2000
  -29.5540  -23.3000   20.8990 C   0  0  0  0  0  3  0  0  0  0  0  0
  -29.3700  -24.2920   19.9200 C   0  0  0  0  0  3  0  0  0  0  0  0
  -29.9820  -22.6260   18.2510 C   0  0  0  0  0  3  0  0  0  0  0  0
  -29.9140  -21.9620   20.6000 C   0  0  0  0  0  0  0  0  0  0  0  0
  -30.1990  -21.5540   19.2530 C   0  0  0  0  0  0  0  0  0  0  0  0
  -29.5410  -24.0120   18.5580 C   0  0  0  0  0  0  0  0  0  0  0  0
  -32.4420  -15.6250   18.9180 C   0  0  0  0  0  0  0  0  0  0  0  0
  -32.1690  -13.1940   18.3110 C   0  0  0  0  0  2  0  0  0  0  0  0
  -31.0150  -12.9480   17.3190 C   0  0  0  0  0  2  0  0  0  0  0  0
  -29.6970  -12.7330   18.0850 C   0  0  0  0  0  2  0  0  0  0  0  0
  -29.4740  -13.7990   19.1880 C   0  0  0  0  0  3  0  0  0  0  0  0
  -30.7380  -14.0330   20.0480 C   0  0  0  0  0  2  0  0  0  0  0  0
  -31.8150  -14.3980   19.1180 N   0  0  0  0  0  0  0  0  0  0  0  0
  -33.5870  -15.5740   18.4570 O   0  0  0  0  0  0  0  0  0  0  0  0
  -29.8670  -18.7490   19.2080 C   0  0  0  0  0  2  0  0  0  0  0  0
  -31.7730  -19.5010   18.0100 C   0  0  0  0  0  2  0  0  0  0  0  0
  -30.5530  -17.3580   19.6190 C   0  0  0  0  0  2  0  0  0  0  0  0
  -32.5300  -18.1300   18.3980 C   0  0  0  0  0  2  0  0  0  0  0  0
  -30.7970  -20.0180   19.1020 C   0  0  0  0  0  3  0  0  0  0  0  0
  -31.7850  -16.9010   18.9010 N   0  0  0  0  0  0  0  0  0  0  0  0
  -27.5580  -14.3930   20.7780 C   0  0  0  0  0  0  0  0  0  0  0  0
  -26.4990  -13.6690   21.2520 C   0  0  0  0  0  0  0  0  0  0  0  0
  -26.6560  -12.3510   20.7250 C   0  0  0  0  0  0  0  0  0  0  0  0
  -28.2970  -13.5190   19.9990 N   0  0  0  0  0  0  0  0  0  0  0  0
  -27.7800  -12.2630   20.0260 N   0  0  0  0  0  0  0  0  0  0  0  0
  -25.7650  -11.1850   20.7950 C   0  0  0  0  0  0  0  0  0  0  0  0
  -26.0330  -10.1040   21.6620 C   0  0  0  0  0  3  0  0  0  0  0  0
  -25.1510   -9.0020   21.7240 C   0  0  0  0  0  3  0  0  0  0  0  0
  -23.9880   -8.9780   20.9180 C   0  0  0  0  0  0  0  0  0  0  0  0
  -23.7390  -10.0460   20.0400 C   0  0  0  0  0  3  0  0  0  0  0  0
  -24.6200  -11.1390   19.9760 C   0  0  0  0  0  3  0  0  0  0  0  0
  -23.0880   -7.9400   20.8960 O   0  0  0  0  0  0  0  0  0  0  0  0
  -22.5090   -7.4650   22.0440 C   0  0  0  0  0  0  0  0  0  0  0  0
  -21.7330   -8.2910   22.8850 C   0  0  0  0  0  3  0  0  0  0  0  0
  -21.0980   -7.7450   24.0180 C   0  0  0  0  0  3  0  0  0  0  0  0
  -21.2300   -6.3740   24.3070 C   0  0  0  0  0  0  0  0  0  0  0  0
  -21.9980   -5.5470   23.4680 C   0  0  0  0  0  3  0  0  0  0  0  0
  -22.6340   -6.0910   22.3390 C   0  0  0  0  0  0  0  0  0  0  0  0
  -23.3550   -5.2870   21.5220 F   0  0  0  0  0  0  0  0  0  0  0  0
  -20.6140   -5.8470   25.3910 F   0  0  0  0  0  0  0  0  0  0  0  0
  -25.3540  -14.1990   22.0630 C   0  0  0  0  0  0  0  0  0  0  0  0
  -24.7820  -13.3720   22.9320 N   0  0  0  0  0  0  0  0  0  0  0  0
  -24.9890  -15.3700   21.9660 O   0  0  0  0  0  0  0  0  0  0  0  0
  -25.0950  -12.4170   23.0280 H   0  0  0  0  0  0  0  0  0  0  0  0
  -24.0240  -13.7020   23.5110 H   0  0  0  0  0  0  0  0  0  0  0  0
  -27.9320  -15.7250   20.9160 N   0  0  0  0  0  0  0  0  0  0  0  0
  -27.3570  -16.3960   21.4150 H   0  0  0  0  0  0  0  0  0  0  0  0
  -28.7010  -16.1560   20.4200 H   0  0  0  0  0  0  0  0  0  0  0  0
  -29.4990  -21.2970   23.1810 C   0  0  0  0  0  2  0  0  0  0  0  0
  -28.7070  -20.3710   22.3060 C   0  0  0  0  0  2  0  0  0  0  0  0
  -29.9830  -20.9930   21.7710 C   0  0  0  0  0  3  0  0  0  0  0  0
  -29.1600  -25.2100   17.5230 C   0  0  0  0  0  2  0  0  0  0  0  0
  -28.9610  -26.6890   17.9090 O   0  0  0  0  0  0  0  0  0  0  0  0
  -25.1040  -30.3860   22.9000 C   0  0  0  0  0  0  0  0  0  0  0  0
  -27.7290  -27.3300   18.2600 C   0  0  0  0  0  0  0  0  0  0  0  0
  -23.8340  -29.1900   21.1570 C   0  0  0  0  0  3  0  0  0  0  0  0
  -25.1760  -28.4040   19.1150 C   0  0  0  0  0  0  0  0  0  0  0  0
  -26.1860  -30.0890   20.6450 C   0  0  0  0  0  2  0  0  0  0  0  0
  -26.3570  -28.9590   19.6200 C   0  0  0  0  0  0  0  0  0  0  0  0
  -27.6250  -28.4380   19.1850 C   0  0  0  0  0  3  0  0  0  0  0  0
  -26.4990  -26.8530   17.7560 C   0  0  0  0  0  3  0  0  0  0  0  0
  -25.2540  -27.3660   18.1740 C   0  0  0  0  0  3  0  0  0  0  0  0
  -23.8500  -28.9440   19.6240 C   0  0  0  0  0  2  0  0  0  0  0  0
  -25.0700  -29.9000   21.6230 N   0  0  0  0  0  0  0  0  0  0  0  0
  -24.1350  -30.2690   23.6650 O   0  0  0  0  0  0  0  0  0  0  0  0
  -23.5880  -27.8470   21.8880 C   0  0  0  0  0  0  0  0  0  0  0  0
  -22.4270  -27.2180   21.6330 N   0  0  0  0  0  0  0  0  0  0  0  0
  -24.4410  -27.3830   22.6490 O   0  0  0  0  0  0  0  0  0  0  0  0
  -21.7770  -27.6670   21.0010 H   0  0  0  0  0  0  0  0  0  0  0  0
  -19.9060  -24.6270   21.4270 C   0  0  0  0  0  0  0  0  0  0  0  0
  -22.0160  -25.9190   22.1740 C   0  0  0  0  0  3  0  0  0  0  0  0
  -22.8250  -24.7680   21.5340 C   0  0  0  0  0  2  0  0  0  0  0  0
  -22.1300  -24.1470   20.3200 C   0  0  0  0  0  2  0  0  0  0  0  0
  -20.7560  -23.5930   20.7070 C   0  0  0  0  0  2  0  0  0  0  0  0
  -20.4980  -25.7270   22.1030 C   0  0  0  0  0  0  0  0  0  0  0  0
  -19.6620  -26.6740   22.7300 C   0  0  0  0  0  3  0  0  0  0  0  0
  -18.2620  -26.5390   22.6910 C   0  0  0  0  0  3  0  0  0  0  0  0
  -17.6800  -25.4410   22.0330 C   0  0  0  0  0  3  0  0  0  0  0  0
  -18.5020  -24.4850   21.4070 C   0  0  0  0  0  3  0  0  0  0  0  0
  -26.3600  -31.1250   23.4530 C   0  0  0  0  0  3  0  0  0  0  0  0
  -25.9010  -32.3790   24.0700 N   0  0  0  0  0  0  0  0  0  0  0  0
  -25.9990  -33.5890   23.5060 C   0  0  0  0  0  0  0  0  0  0  0  0
  -26.5510  -33.7760   22.4180 O   0  0  0  0  0  0  0  0  0  0  0  0
  -25.3910  -32.2950   24.9370 H   0  0  0  0  0  0  0  0  0  0  0  0
  -24.0110  -35.1240   23.6610 C   0  0  0  0  0  1  0  0  0  0  0  0
  -25.3840  -34.7830   24.2620 C   0  0  0  0  0  3  0  0  0  0  0  0
  -27.4460  -35.8400   25.0720 C   0  0  0  0  0  1  0  0  0  0  0  0
  -26.2400  -35.9880   24.2610 N   0  0  0  0  0  0  0  0  0  0  0  0
  -25.7280  -36.7960   24.6020 H   0  0  0  0  0  0  0  0  0  0  0  0
  -27.1820  -30.2660   24.4940 C   0  0  1  0  0  0  0  0  0  0  0  0
  -26.3120  -29.6470   25.6130 C   0  0  0  0  0  1  0  0  0  0  0  0
  -27.9280  -29.1130   23.7860 C   0  0  0  0  0  1  0  0  0  0  0  0
  -28.2630  -31.1470   25.1610 C   0  0  0  0  0  1  0  0  0  0  0  0
  2  1  2  0
  3  6  2  0
  3  5  1  0
  4  1  1  0
  4 51  1  0
  5  4  2  0
  6  2  1  0
  7 13  1  0
  8 13  1  0
  9 10  1  0
  9  8  1  0
 11 10  1  0
 11 24  1  0
 11 12  1  0
 13 12  1  0
 14  7  2  0
 15 17  1  0
 16 18  1  0
 16 19  1  0
 18 20  1  0
 19 15  1  0
 19  5  1  0
 20  7  1  0
 20 17  1  0
 21 46  1  0
 21 22  2  0
 22 41  1  0
 23 26  1  0
 23 22  1  0
 24 25  1  0
 24 21  1  0
 25 23  2  0
 26 27  1  0
 27 28  2  0
 29 28  1  0
 30 29  2  0
 31 30  1  0
 31 26  2  0
 32 29  1  0
 32 33  1  0
 33 38  2  0
 33 34  1  0
 34 35  2  0
 35 36  1  0
 36 40  1  0
 37 36  2  0
 38 37  1  0
 39 38  1  0
 41 42  1  0
 42 44  1  0
 42 45  1  0
 43 41  2  0
 46 47  1  0
 48 46  1  0
 50 49  1  0
 51 50  1  0
 51 49  1  0
 52 53  1  0
 52  6  1  0
 53 55  1  0
 54 65  2  0
 55 60  1  0
 56 64  1  0
 56 66  1  0
 57 59  1  0
 57 63  1  0
 58 64  1  0
 59 58  1  0
 60 59  2  0
 61 62  1  0
 61 55  2  0
 62 57  2  0
 63 56  1  0
 64 54  1  0
 66 68  2  0
 67 66  1  0
 69 67  1  0
 70 75  1  0
 71 67  1  0
 72 71  1  0
 73 74  1  0
 73 72  1  0
 74 70  1  0
 75 71  1  0
 75 76  2  0
 77 76  1  0
 78 77  2  0
 79 70  2  0
 79 78  1  0
 80 54  1  0
 80 81  1  0
 80 90  1  0
 81 84  1  0
 82 81  1  0
 82 86  1  0
 83 82  2  0
 86 85  1  0
 88 86  1  0
 88 89  1  0
 88 87  1  0
 90 93  1  1
 90 91  1  0
 92 90  1  0
M  ISO  4   7 100  20 100  52 101  53 101
M  END
>  <TORSDO>  (48) 
F 18

>  <SCORE>  (48) 
-3.157

>  <name>  (48) 
48

>  <ligand_id>  (48) 
48

>  <original_smiles>  (48) 
[H]c1c([H])c([H])c2c(c1[H])C([H])([H])C([H])([H])C([H])([H])C2([H])N([H])C(=O)C1([H])N(C(=O)C([H])(N([H])C(=O)C([H])(N([H])C([H])([H])[H])C([H])([H])[H])C(C([H])([H])[H])(C([H])([H])[H])C([H])([H])[H])C([H])([H])c2c([H])c(OC([H])([H])c3c([H])c([H])c(C4([H])C([H])([H])C4([H])[H])c(C4([H])C([H])([H])C([H])([H])N(C(=O)N5C([H])([H])C([H])([H])C([H])([H])C([H])(n6nc(-c7c([H])c([H])c(Oc8c([H])c([H])c(F)c([H])c8F)c([H])c7[H])c(C(=O)N([H])[H])c6N([H])[H])C5([H])[H])C([H])([H])C4([H])[H])c3[H])c([H])c([H])c2C1([H])[H]

>  <smiles>  (48) 
[H]c1c([H])c([H])c2c(c1[H])C([H])([H])C([H])([H])C([H])([H])C2([H])N([H])C(=O)C1([H])N(C(=O)C([H])(N([H])C(=O)C([H])(N([H])C([H])([H])[H])C([H])([H])[H])C(C([H])([H])[H])(C([H])([H])[H])C([H])([H])[H])C([H])([H])c2c([H])c(OC([H])([H])c3c([H])c([H])c(C4([H])C([H])([H])C4([H])[H])c(C4([H])C([H])([H])C([H])([H])N(C(=O)N5C([H])([H])C([H])([H])C([H])([H])C([H])(n6nc(-c7c([H])c([H])c(Oc8c([H])c([H])c(F)c([H])c8F)c([H])c7[H])c(C(=O)N([H])[H])c6N([H])[H])C5([H])[H])C([H])([H])C4([H])[H])c3[H])c([H])c([H])c2C1([H])[H]

$$$$
49:0:0
     RDKit          3D

 99108  0  0  1  0  0  0  0  0999 V2000
  -30.1730  -19.5100   21.2110 C   0  0  0  0  0  3  0  0  0  0  0  0
  -34.2840  -20.5830   20.2710 C   0  0  0  0  0  3  0  0  0  0  0  0
  -32.5250  -20.1980   21.9150 C   0  0  0  0  0  3  0  0  0  0  0  0
  -32.0570  -19.9060   19.5380 C   0  0  0  0  0  3  0  0  0  0  0  0
  -33.8530  -20.5540   21.6120 C   0  0  0  0  0  0  0  0  0  0  0  0
  -33.3880  -20.2560   19.2330 C   0  0  0  0  0  0  0  0  0  0  0  0
  -31.6180  -19.8770   20.8790 C   0  0  0  0  0  0  0  0  0  0  0  0
  -34.8100  -20.9050   22.7340 C   0  0  0  0  0  1  0  0  0  0  0  0
  -33.8460  -20.2800   17.7890 C   0  0  0  0  0  1  0  0  0  0  0  0
  -28.2830  -17.7860   20.9010 C   0  0  0  0  0  1  0  0  0  0  0  0
  -29.7670  -18.1070   20.6220 C   0  0  0  0  0  3  0  0  0  0  0  0
  -30.6950  -16.9470   21.1280 C   0  0  0  0  0  2  0  0  0  0  0  0
  -30.8280  -14.5970   20.1770 C   0  0  0  0  0  0  0  0  0  0  0  0
  -30.4590  -12.4440   19.0170 C   0  0  0  0  0  2  0  0  0  0  0  0
  -29.4660  -12.6450   17.8550 C   0  0  0  0  0  2  0  0  0  0  0  0
  -28.0110  -12.5140   18.3520 C   0  0  0  0  0  2  0  0  0  0  0  0
  -27.7340  -13.3600   19.6230 C   0  0  0  0  0  3  0  0  0  0  0  0
  -28.8330  -13.1330   20.6840 C   0  0  0  0  0  2  0  0  0  0  0  0
  -30.1340  -13.4310   20.0600 N   0  0  0  0  0  0  0  0  0  0  0  0
  -31.9150  -14.7870   19.6250 O   0  0  0  0  0  0  0  0  0  0  0  0
  -30.2030  -15.5800   20.8540 N   0  0  0  0  0  0  0  0  0  0  0  0
  -29.3070  -15.3370   21.2490 H   0  0  0  0  0  0  0  0  0  0  0  0
  -25.3920  -13.9940   20.4850 C   0  0  0  0  0  0  0  0  0  0  0  0
  -24.3230  -13.2340   20.8770 C   0  0  0  0  0  0  0  0  0  0  0  0
  -24.7430  -11.8740   20.7580 C   0  0  0  0  0  0  0  0  0  0  0  0
  -26.4000  -13.0990   20.1590 N   0  0  0  0  0  0  0  0  0  0  0  0
  -26.0140  -11.8150   20.3790 N   0  0  0  0  0  0  0  0  0  0  0  0
  -23.9910  -10.6240   20.9280 C   0  0  0  0  0  0  0  0  0  0  0  0
  -24.4390   -9.6040   21.7960 C   0  0  0  0  0  3  0  0  0  0  0  0
  -23.6900   -8.4180   21.9560 C   0  0  0  0  0  3  0  0  0  0  0  0
  -22.4770   -8.2450   21.2470 C   0  0  0  0  0  0  0  0  0  0  0  0
  -22.0470   -9.2550   20.3680 C   0  0  0  0  0  3  0  0  0  0  0  0
  -22.7960  -10.4310   20.2060 C   0  0  0  0  0  3  0  0  0  0  0  0
  -21.6960   -7.1180   21.3210 O   0  0  0  0  0  0  0  0  0  0  0  0
  -21.6620   -6.3370   22.4490 C   0  0  0  0  0  0  0  0  0  0  0  0
  -21.2710   -6.8560   23.7020 C   0  0  0  0  0  3  0  0  0  0  0  0
  -21.1840   -6.0030   24.8200 C   0  0  0  0  0  3  0  0  0  0  0  0
  -21.4770   -4.6330   24.6860 C   0  0  0  0  0  0  0  0  0  0  0  0
  -21.8610   -4.1140   23.4380 C   0  0  0  0  0  3  0  0  0  0  0  0
  -21.9510   -4.9640   22.3210 C   0  0  0  0  0  0  0  0  0  0  0  0
  -22.3010   -4.4540   21.1160 F   0  0  0  0  0  0  0  0  0  0  0  0
  -21.3850   -3.8120   25.7590 F   0  0  0  0  0  0  0  0  0  0  0  0
  -22.9570  -13.7360   21.2470 C   0  0  0  0  0  0  0  0  0  0  0  0
  -22.2580  -13.0240   22.1260 N   0  0  0  0  0  0  0  0  0  0  0  0
  -22.5200  -14.7930   20.7950 O   0  0  0  0  0  0  0  0  0  0  0  0
  -22.6250  -12.1690   22.5150 H   0  0  0  0  0  0  0  0  0  0  0  0
  -21.3440  -13.3420   22.4140 H   0  0  0  0  0  0  0  0  0  0  0  0
  -25.5810  -15.3660   20.3570 N   0  0  0  0  0  0  0  0  0  0  0  0
  -24.8320  -16.0290   20.5280 H   0  0  0  0  0  0  0  0  0  0  0  0
  -26.4130  -15.7970   19.9760 H   0  0  0  0  0  0  0  0  0  0  0  0
  -29.2140  -20.7150   20.8940 C   0  0  0  0  0  2  0  0  0  0  0  0
  -29.3630  -23.5400   22.8070 C   0  0  0  0  0  2  0  0  0  0  0  0
  -29.8180  -22.0960   22.8750 C   0  0  0  0  0  2  0  0  0  0  0  0
  -28.7830  -23.1930   21.4360 C   0  0  0  0  0  3  0  0  0  0  0  0
  -29.7140  -22.0300   21.4110 N   0  0  2  0  0  4  0  0  0  0  0  0
  -30.6020  -22.2730   20.9970 H   0  0  0  0  0  0  0  0  0  0  0  0
  -28.9090  -24.2480   20.3050 C   0  0  0  0  0  2  0  0  0  0  0  0
  -28.2030  -25.5780   20.6960 C   0  0  0  0  0  2  0  0  0  0  0  0
  -28.2920  -26.6720   19.7560 O   0  0  0  0  0  0  0  0  0  0  0  0
  -24.5130  -31.7240   23.0760 C   0  0  0  0  0  0  0  0  0  0  0  0
  -27.1560  -27.4530   19.7620 C   0  0  0  0  0  0  0  0  0  0  0  0
  -23.2920  -30.3590   21.4120 C   0  0  0  0  0  3  0  0  0  0  0  0
  -24.7400  -28.9160   19.8840 C   0  0  0  0  0  0  0  0  0  0  0  0
  -25.8040  -30.7800   21.1630 C   0  0  0  0  0  2  0  0  0  0  0  0
  -25.9030  -29.4400   20.4630 C   0  0  0  0  0  0  0  0  0  0  0  0
  -27.1190  -28.7160   20.3980 C   0  0  0  0  0  3  0  0  0  0  0  0
  -25.9800  -26.9530   19.1660 C   0  0  0  0  0  3  0  0  0  0  0  0
  -24.7730  -27.6730   19.2290 C   0  0  0  0  0  3  0  0  0  0  0  0
  -23.4770  -29.7410   20.0010 C   0  0  0  0  0  2  0  0  0  0  0  0
  -24.5550  -30.9660   21.9420 N   0  0  0  0  0  0  0  0  0  0  0  0
  -23.4410  -31.9500   23.6550 O   0  0  0  0  0  0  0  0  0  0  0  0
  -22.6890  -29.2870   22.3490 C   0  0  0  0  0  0  0  0  0  0  0  0
  -21.3680  -29.0690   22.2400 N   0  0  0  0  0  0  0  0  0  0  0  0
  -23.4060  -28.6560   23.1300 O   0  0  0  0  0  0  0  0  0  0  0  0
  -20.8490  -29.6340   21.5820 H   0  0  0  0  0  0  0  0  0  0  0  0
  -18.0460  -27.7320   22.7260 C   0  0  0  0  0  0  0  0  0  0  0  0
  -20.5940  -28.0830   22.9920 C   0  0  0  0  0  3  0  0  0  0  0  0
  -20.7480  -26.6700   22.3820 C   0  0  0  0  0  2  0  0  0  0  0  0
  -19.6540  -26.3290   21.3660 C   0  0  0  0  0  2  0  0  0  0  0  0
  -18.2710  -26.4060   22.0190 C   0  0  0  0  0  2  0  0  0  0  0  0
  -19.1370  -28.5270   23.1690 C   0  0  0  0  0  0  0  0  0  0  0  0
  -18.8730  -29.7680   23.7890 C   0  0  0  0  0  3  0  0  0  0  0  0
  -17.5520  -30.2160   23.9710 C   0  0  0  0  0  3  0  0  0  0  0  0
  -16.4750  -29.4180   23.5460 C   0  0  0  0  0  3  0  0  0  0  0  0
  -16.7230  -28.1780   22.9290 C   0  0  0  0  0  3  0  0  0  0  0  0
  -25.8020  -32.3580   23.6840 C   0  0  0  0  0  3  0  0  0  0  0  0
  -25.4810  -33.7440   24.0510 N   0  0  0  0  0  0  0  0  0  0  0  0
  -25.7920  -34.8170   23.3120 C   0  0  0  0  0  0  0  0  0  0  0  0
  -26.4500  -34.7450   22.2690 O   0  0  0  0  0  0  0  0  0  0  0  0
  -24.8950  -33.8730   24.8620 H   0  0  0  0  0  0  0  0  0  0  0  0
  -24.0370  -36.5940   23.0200 C   0  0  0  0  0  1  0  0  0  0  0  0
  -25.2940  -36.1890   23.8070 C   0  0  0  0  0  3  0  0  0  0  0  0
  -27.4250  -37.0840   24.6350 C   0  0  0  0  0  1  0  0  0  0  0  0
  -26.3120  -37.2560   23.7040 N   0  0  0  0  0  0  0  0  0  0  0  0
  -25.8960  -38.1680   23.8740 H   0  0  0  0  0  0  0  0  0  0  0  0
  -26.3570  -31.5650   24.9310 C   0  0  1  0  0  0  0  0  0  0  0  0
  -25.2930  -31.3010   26.0220 C   0  0  0  0  0  1  0  0  0  0  0  0
  -26.9390  -30.2000   24.4950 C   0  0  0  0  0  1  0  0  0  0  0  0
  -27.5190  -32.3540   25.5780 C   0  0  0  0  0  1  0  0  0  0  0  0
  1 51  1  0
  2  5  1  0
  4  7  2  0
  5  3  2  0
  5  8  1  0
  6  4  1  0
  6  2  2  0
  7  1  1  0
  7  3  1  0
  9  6  1  0
 11 10  1  0
 11 12  1  0
 11  1  1  0
 13 21  1  0
 14 19  1  0
 15 16  1  0
 15 14  1  0
 17 16  1  0
 17 26  1  0
 17 18  1  0
 19 13  1  0
 19 18  1  0
 20 13  2  0
 21 12  1  0
 21 22  1  0
 23 24  2  0
 24 43  1  0
 25 24  1  0
 25 28  1  0
 26 27  1  0
 26 23  1  0
 27 25  2  0
 28 29  1  0
 29 30  2  0
 31 34  1  0
 31 30  1  0
 32 31  2  0
 33 32  1  0
 33 28  2  0
 34 35  1  0
 35 36  1  0
 36 37  2  0
 38 37  1  0
 38 42  1  0
 39 38  2  0
 40 35  2  0
 40 39  1  0
 41 40  1  0
 43 44  1  0
 44 47  1  0
 44 46  1  0
 45 43  2  0
 48 23  1  0
 48 49  1  0
 50 48  1  0
 51 55  1  0
 52 53  1  0
 54 57  1  0
 54 52  1  0
 55 54  1  0
 55 53  1  0
 55 56  1  6
 57 58  1  0
 59 61  1  0
 59 58  1  0
 60 71  2  0
 61 66  1  0
 62 70  1  0
 62 72  1  0
 63 69  1  0
 63 65  1  0
 64 70  1  0
 65 64  1  0
 66 65  2  0
 67 68  1  0
 67 61  2  0
 68 63  2  0
 69 62  1  0
 70 60  1  0
 72 74  2  0
 73 72  1  0
 75 73  1  0
 76 85  2  0
 76 81  1  0
 77 73  1  0
 77 81  1  0
 78 77  1  0
 79 80  1  0
 79 78  1  0
 80 76  1  0
 81 82  2  0
 82 83  1  0
 84 83  2  0
 85 84  1  0
 86 60  1  0
 86 87  1  0
 86 96  1  0
 87 90  1  0
 88 92  1  0
 88 87  1  0
 89 88  2  0
 92 91  1  0
 94 92  1  0
 94 95  1  0
 94 93  1  0
 96 99  1  1
 96 97  1  0
 98 96  1  0
M  ISO  4  13 100  21 100  58 101  59 101
M  END
>  <TORSDO>  (49) 
F 23

>  <SCORE>  (49) 
-12.739

>  <name>  (49) 
49

>  <ligand_id>  (49) 
49

>  <original_smiles>  (49) 
[H]c1c([H])c([H])c2c(c1[H])C([H])([H])C([H])([H])C([H])([H])C2([H])N([H])C(=O)C1([H])N(C(=O)C([H])(N([H])C(=O)C([H])(N([H])C([H])([H])[H])C([H])([H])[H])C(C([H])([H])[H])(C([H])([H])[H])C([H])([H])[H])C([H])([H])c2c([H])c(OC([H])([H])C([H])([H])C3([H])C([H])([H])C([H])([H])[N+]3([H])C([H])([H])C([H])(c3c([H])c(C([H])([H])[H])c([H])c(C([H])([H])[H])c3[H])C([H])(C([H])([H])[H])C([H])([H])N([H])C(=O)N3C([H])([H])C([H])([H])C([H])([H])C([H])(n4nc(-c5c([H])c([H])c(Oc6c([H])c([H])c(F)c([H])c6F)c([H])c5[H])c(C(=O)N([H])[H])c4N([H])[H])C3([H])[H])c([H])c([H])c2C1([H])[H]

>  <smiles>  (49) 
[H]c1c([H])c([H])c2c(c1[H])C([H])([H])C([H])([H])C([H])([H])C2([H])N([H])C(=O)C1([H])N(C(=O)C([H])(N([H])C(=O)C([H])(N([H])C([H])([H])[H])C([H])([H])[H])C(C([H])([H])[H])(C([H])([H])[H])C([H])([H])[H])C([H])([H])c2c([H])c(OC([H])([H])C([H])([H])C3([H])C([H])([H])C([H])([H])[N+]3([H])C([H])([H])C([H])(c3c([H])c(C([H])([H])[H])c([H])c(C([H])([H])[H])c3[H])C([H])(C([H])([H])[H])C([H])([H])N([H])C(=O)N3C([H])([H])C([H])([H])C([H])([H])C([H])(n4nc(-c5c([H])c([H])c(Oc6c([H])c([H])c(F)c([H])c6F)c([H])c5[H])c(C(=O)N([H])[H])c4N([H])[H])C3([H])[H])c([H])c([H])c2C1([H])[H]

$$$$
50:0:0
     RDKit          3D

 97106  0  0  1  0  0  0  0  0999 V2000
  -30.7830  -20.4480   21.8170 C   0  0  0  0  0  3  0  0  0  0  0  0
  -30.4520  -22.8050   21.3930 C   0  0  0  0  0  3  0  0  0  0  0  0
  -31.2710  -21.7670   21.8600 C   0  0  0  0  0  0  0  0  0  0  0  0
  -29.5300  -20.1910   21.2320 C   0  0  0  0  0  0  0  0  0  0  0  0
  -29.1630  -22.4950   20.9300 C   0  0  0  0  0  0  0  0  0  0  0  0
  -32.6360  -22.0670   22.4420 C   0  0  0  0  0  1  0  0  0  0  0  0
  -28.7200  -21.2080   20.8240 N   0  0  0  0  0  0  0  0  0  0  0  0
  -29.0720  -18.8560   21.1590 N   0  0  0  0  0  0  0  0  0  0  0  0
  -29.4480  -18.2890   21.9070 H   0  0  0  0  0  0  0  0  0  0  0  0
  -28.2510  -23.5400   20.7050 N   0  0  0  0  0  0  0  0  0  0  0  0
  -27.3150  -23.2660   20.9880 H   0  0  0  0  0  0  0  0  0  0  0  0
  -28.5570  -23.3560   18.2410 C   0  0  0  0  0  1  0  0  0  0  0  0
  -28.2010  -24.2800   19.4260 C   0  0  0  0  0  3  0  0  0  0  0  0
  -29.0110  -25.6360   19.3140 C   0  0  0  0  0  2  0  0  0  0  0  0
  -28.7340  -26.8160   20.1170 O   0  0  0  0  0  0  0  0  0  0  0  0
  -24.6550  -31.7640   23.2450 C   0  0  0  0  0  0  0  0  0  0  0  0
  -27.5550  -27.5470   20.0160 C   0  0  0  0  0  0  0  0  0  0  0  0
  -23.5570  -30.4050   21.4950 C   0  0  0  0  0  3  0  0  0  0  0  0
  -25.1130  -29.0100   20.0240 C   0  0  0  0  0  0  0  0  0  0  0  0
  -26.0770  -30.8610   21.3980 C   0  0  0  0  0  2  0  0  0  0  0  0
  -26.2310  -29.5260   20.6870 C   0  0  0  0  0  0  0  0  0  0  0  0
  -27.4480  -28.7970   20.6880 C   0  0  0  0  0  3  0  0  0  0  0  0
  -26.4220  -27.0790   19.3150 C   0  0  0  0  0  3  0  0  0  0  0  0
  -25.2060  -27.7890   19.3330 C   0  0  0  0  0  3  0  0  0  0  0  0
  -23.8330  -29.8160   20.0860 C   0  0  0  0  0  2  0  0  0  0  0  0
  -24.7800  -31.0240   22.1050 N   0  0  0  0  0  0  0  0  0  0  0  0
  -23.5480  -31.9600   23.7660 O   0  0  0  0  0  0  0  0  0  0  0  0
  -22.9260  -29.3050   22.3770 C   0  0  0  0  0  0  0  0  0  0  0  0
  -21.6130  -29.0800   22.2090 N   0  0  0  0  0  0  0  0  0  0  0  0
  -23.6140  -28.6590   23.1710 O   0  0  0  0  0  0  0  0  0  0  0  0
  -21.1180  -29.6500   21.5380 H   0  0  0  0  0  0  0  0  0  0  0  0
  -18.2730  -27.7470   22.5830 C   0  0  0  0  0  0  0  0  0  0  0  0
  -20.8180  -28.0680   22.9050 C   0  0  0  0  0  3  0  0  0  0  0  0
  -20.9750  -26.6800   22.2400 C   0  0  0  0  0  2  0  0  0  0  0  0
  -19.8950  -26.3910   21.1920 C   0  0  0  0  0  2  0  0  0  0  0  0
  -18.5010  -26.4510   21.8230 C   0  0  0  0  0  2  0  0  0  0  0  0
  -19.3620  -28.5130   23.0770 C   0  0  0  0  0  0  0  0  0  0  0  0
  -19.0930  -29.7280   23.7460 C   0  0  0  0  0  3  0  0  0  0  0  0
  -17.7720  -30.1760   23.9240 C   0  0  0  0  0  3  0  0  0  0  0  0
  -16.6980  -29.4070   23.4420 C   0  0  0  0  0  3  0  0  0  0  0  0
  -16.9510  -28.1920   22.7790 C   0  0  0  0  0  3  0  0  0  0  0  0
  -25.8910  -32.4160   23.9340 C   0  0  0  0  0  3  0  0  0  0  0  0
  -26.3590  -31.6440   25.2280 C   0  0  1  0  0  0  0  0  0  0  0  0
  -25.2150  -31.3560   26.2260 C   0  0  0  0  0  1  0  0  0  0  0  0
  -27.0120  -30.2920   24.8560 C   0  0  0  0  0  1  0  0  0  0  0  0
  -27.4400  -32.4700   25.9660 C   0  0  0  0  0  1  0  0  0  0  0  0
  -25.5360  -33.8040   24.2580 N   0  0  0  0  0  0  0  0  0  0  0  0
  -25.8780  -34.8680   23.5200 C   0  0  0  0  0  0  0  0  0  0  0  0
  -26.5940  -34.7860   22.5190 O   0  0  0  0  0  0  0  0  0  0  0  0
  -24.9020  -33.9430   25.0310 H   0  0  0  0  0  0  0  0  0  0  0  0
  -24.1140  -36.6160   23.1080 C   0  0  0  0  0  1  0  0  0  0  0  0
  -25.3360  -36.2410   23.9630 C   0  0  0  0  0  3  0  0  0  0  0  0
  -27.4120  -37.1820   24.8760 C   0  0  0  0  0  1  0  0  0  0  0  0
  -26.3430  -37.3220   23.8900 N   0  0  0  0  0  0  0  0  0  0  0  0
  -25.9070  -38.2300   24.0220 H   0  0  0  0  0  0  0  0  0  0  0  0
  -29.1430  -18.1090   19.8840 C   0  0  0  0  0  2  0  0  0  0  0  0
  -30.7720  -14.6750   19.7830 C   0  0  0  0  0  0  0  0  0  0  0  0
  -30.4020  -12.4190   18.8490 C   0  0  0  0  0  2  0  0  0  0  0  0
  -29.3930  -12.5270   17.6870 C   0  0  0  0  0  2  0  0  0  0  0  0
  -27.9590  -12.4000   18.2250 C   0  0  0  0  0  2  0  0  0  0  0  0
  -27.6860  -13.3210   19.4460 C   0  0  0  0  0  3  0  0  0  0  0  0
  -28.8160  -13.2270   20.4970 C   0  0  0  0  0  2  0  0  0  0  0  0
  -30.0870  -13.4950   19.8080 N   0  0  0  0  0  0  0  0  0  0  0  0
  -31.8230  -14.7810   19.1420 O   0  0  0  0  0  0  0  0  0  0  0  0
  -31.7960  -17.0990   21.6380 C   0  0  0  0  0  2  0  0  0  0  0  0
  -31.7090  -17.6350   20.2090 C   0  0  0  0  0  2  0  0  0  0  0  0
  -30.6850  -16.0300   21.7390 C   0  0  0  0  0  2  0  0  0  0  0  0
  -30.3570  -17.1100   19.7150 C   0  0  0  0  0  3  0  0  0  0  0  0
  -30.2130  -15.7750   20.3720 N   0  0  0  0  0  0  0  0  0  0  0  0
  -25.3630  -13.9250   20.3640 C   0  0  0  0  0  0  0  0  0  0  0  0
  -24.3230  -13.1540   20.8020 C   0  0  0  0  0  0  0  0  0  0  0  0
  -24.7660  -11.8000   20.7040 C   0  0  0  0  0  0  0  0  0  0  0  0
  -26.3780  -13.0410   20.0330 N   0  0  0  0  0  0  0  0  0  0  0  0
  -26.0270  -11.7550   20.2920 N   0  0  0  0  0  0  0  0  0  0  0  0
  -24.0420  -10.5400   20.9240 C   0  0  0  0  0  0  0  0  0  0  0  0
  -24.4890   -9.5860   21.8640 C   0  0  0  0  0  3  0  0  0  0  0  0
  -23.7660   -8.3910   22.0710 C   0  0  0  0  0  3  0  0  0  0  0  0
  -22.5810   -8.1440   21.3390 C   0  0  0  0  0  0  0  0  0  0  0  0
  -22.1550   -9.0850   20.3860 C   0  0  0  0  0  3  0  0  0  0  0  0
  -22.8780  -10.2710   20.1770 C   0  0  0  0  0  3  0  0  0  0  0  0
  -21.8270   -7.0000   21.4540 O   0  0  0  0  0  0  0  0  0  0  0  0
  -21.7290   -6.3210   22.6420 C   0  0  0  0  0  0  0  0  0  0  0  0
  -21.2360   -6.9350   23.8140 C   0  0  0  0  0  3  0  0  0  0  0  0
  -21.0930   -6.1820   24.9970 C   0  0  0  0  0  3  0  0  0  0  0  0
  -21.4270   -4.8140   25.0060 C   0  0  0  0  0  0  0  0  0  0  0  0
  -21.9120   -4.2010   23.8390 C   0  0  0  0  0  3  0  0  0  0  0  0
  -22.0620   -4.9520   22.6600 C   0  0  0  0  0  0  0  0  0  0  0  0
  -22.5120   -4.3490   21.5330 F   0  0  0  0  0  0  0  0  0  0  0  0
  -21.2810   -4.0900   26.1400 F   0  0  0  0  0  0  0  0  0  0  0  0
  -22.9610  -13.6400   21.2020 C   0  0  0  0  0  0  0  0  0  0  0  0
  -22.3060  -12.9310   22.1140 N   0  0  0  0  0  0  0  0  0  0  0  0
  -22.4950  -14.6830   20.7460 O   0  0  0  0  0  0  0  0  0  0  0  0
  -22.7010  -12.0820   22.4960 H   0  0  0  0  0  0  0  0  0  0  0  0
  -21.4020  -13.2430   22.4400 H   0  0  0  0  0  0  0  0  0  0  0  0
  -25.5330  -15.2940   20.2020 N   0  0  0  0  0  0  0  0  0  0  0  0
  -24.7960  -15.9640   20.3880 H   0  0  0  0  0  0  0  0  0  0  0  0
  -26.3680  -15.7190   19.8180 H   0  0  0  0  0  0  0  0  0  0  0  0
  1  3  1  0
  2  3  2  0
  3  6  1  0
  4  1  2  0
  5  2  1  0
  7  5  2  0
  7  4  1  0
  8  4  1  0
  8  9  1  0
 10  5  1  0
 10 11  1  0
 13 12  1  0
 13 10  1  0
 14 13  1  0
 14 15  1  0
 16 27  2  0
 17 15  1  0
 17 22  1  0
 18 26  1  0
 18 28  1  0
 19 25  1  0
 19 21  1  0
 20 26  1  0
 21 22  2  0
 21 20  1  0
 23 24  1  0
 23 17  2  0
 24 19  2  0
 25 18  1  0
 26 16  1  0
 28 30  2  0
 29 28  1  0
 31 29  1  0
 32 41  2  0
 32 37  1  0
 33 29  1  0
 33 37  1  0
 34 33  1  0
 35 36  1  0
 35 34  1  0
 36 32  1  0
 37 38  2  0
 38 39  1  0
 40 39  2  0
 41 40  1  0
 42 16  1  0
 42 47  1  0
 42 43  1  0
 43 46  1  1
 43 44  1  0
 45 43  1  0
 47 50  1  0
 48 52  1  0
 48 47  1  0
 49 48  2  0
 52 51  1  0
 54 52  1  0
 54 55  1  0
 54 53  1  0
 56  8  1  0
 57 63  1  0
 57 69  1  0
 58 63  1  0
 59 60  1  0
 59 58  1  0
 61 60  1  0
 61 73  1  0
 61 62  1  0
 63 62  1  0
 64 57  2  0
 65 67  1  0
 66 65  1  0
 68 56  1  0
 68 66  1  0
 68 69  1  0
 69 67  1  0
 70 71  2  0
 71 90  1  0
 72 71  1  0
 72 75  1  0
 73 74  1  0
 73 70  1  0
 74 72  2  0
 75 76  1  0
 76 77  2  0
 78 81  1  0
 78 77  1  0
 79 78  2  0
 80 79  1  0
 80 75  2  0
 81 82  1  0
 82 87  2  0
 82 83  1  0
 83 84  2  0
 84 85  1  0
 85 89  1  0
 86 85  2  0
 87 86  1  0
 88 87  1  0
 90 91  1  0
 91 94  1  0
 91 93  1  0
 92 90  2  0
 95 70  1  0
 95 96  1  0
 97 95  1  0
M  ISO  4  14 101  15 101  57 100  69 100
M  END
>  <TORSDO>  (50) 
F 20

>  <SCORE>  (50) 
-12.482

>  <name>  (50) 
50

>  <ligand_id>  (50) 
50

>  <original_smiles>  (50) 
[H]c1c([H])c([H])c2c(c1[H])C([H])([H])C([H])([H])C([H])([H])C2([H])N([H])C(=O)C1([H])N(C(=O)C([H])(N([H])C(=O)C([H])(N([H])C([H])([H])[H])C([H])([H])[H])C(C([H])([H])[H])(C([H])([H])[H])C([H])([H])[H])C([H])([H])c2c([H])c(OC([H])([H])C([H])(N([H])c3nc(N([H])C([H])([H])C4([H])N(C(=O)N5C([H])([H])C([H])([H])C([H])([H])C([H])(n6nc(-c7c([H])c([H])c(Oc8c([H])c([H])c(F)c([H])c8F)c([H])c7[H])c(C(=O)N([H])[H])c6N([H])[H])C5([H])[H])C([H])([H])C([H])([H])C4([H])[H])c([H])c(C([H])([H])[H])c3[H])C([H])([H])[H])c([H])c([H])c2C1([H])[H]

>  <smiles>  (50) 
[H]c1c([H])c([H])c2c(c1[H])C([H])([H])C([H])([H])C([H])([H])C2([H])N([H])C(=O)C1([H])N(C(=O)C([H])(N([H])C(=O)C([H])(N([H])C([H])([H])[H])C([H])([H])[H])C(C([H])([H])[H])(C([H])([H])[H])C([H])([H])[H])C([H])([H])c2c([H])c(OC([H])([H])C([H])(N([H])c3nc(N([H])C([H])([H])C4([H])N(C(=O)N5C([H])([H])C([H])([H])C([H])([H])C([H])(n6nc(-c7c([H])c([H])c(Oc8c([H])c([H])c(F)c([H])c8F)c([H])c7[H])c(C(=O)N([H])[H])c6N([H])[H])C5([H])[H])C([H])([H])C([H])([H])C4([H])[H])c([H])c(C([H])([H])[H])c3[H])C([H])([H])[H])c([H])c([H])c2C1([H])[H]

$$$$
51:0:0
     RDKit          3D

 95104  0  0  1  0  0  0  0  0999 V2000
  -27.1610  -20.2620   19.6690 C   0  0  0  0  0  3  0  0  0  0  0  0
  -26.1010  -20.7500   18.8870 C   0  0  0  0  0  3  0  0  0  0  0  0
  -27.1980  -22.9200   18.7890 C   0  0  0  0  0  3  0  0  0  0  0  0
  -28.2460  -21.0890   20.0290 C   0  0  0  0  0  0  0  0  0  0  0  0
  -26.1180  -22.0830   18.4410 C   0  0  0  0  0  0  0  0  0  0  0  0
  -28.2650  -22.4460   19.5960 C   0  0  0  0  0  0  0  0  0  0  0  0
  -24.9710  -22.6190   17.6100 C   0  0  0  0  0  1  0  0  0  0  0  0
  -30.7780  -20.8020   20.8260 C   0  0  0  0  0  2  0  0  0  0  0  0
  -29.3080  -20.4760   20.9110 C   0  0  0  0  0  3  0  0  0  0  0  0
  -30.2900  -19.4440   20.3630 C   0  0  0  0  0  3  0  0  0  0  0  0
  -32.1340  -17.9500   21.2390 C   0  0  0  0  0  1  0  0  0  0  0  0
  -30.6130  -18.1490   21.1170 C   0  0  0  0  0  3  0  0  0  0  0  0
  -29.9370  -16.9490   20.4080 C   0  0  0  0  0  2  0  0  0  0  0  0
  -30.8990  -14.6550   20.3840 C   0  0  0  0  0  0  0  0  0  0  0  0
  -30.5740  -12.5690   19.1260 C   0  0  0  0  0  2  0  0  0  0  0  0
  -29.6090  -12.8870   17.9620 C   0  0  0  0  0  2  0  0  0  0  0  0
  -28.1410  -12.7450   18.4130 C   0  0  0  0  0  2  0  0  0  0  0  0
  -27.8480  -13.4950   19.7410 C   0  0  0  0  0  3  0  0  0  0  0  0
  -28.9210  -13.1560   20.8040 C   0  0  0  0  0  2  0  0  0  0  0  0
  -30.2450  -13.4730   20.2390 N   0  0  0  0  0  0  0  0  0  0  0  0
  -31.9760  -14.9020   19.8370 O   0  0  0  0  0  0  0  0  0  0  0  0
  -30.1720  -15.6160   20.9830 N   0  0  0  0  0  0  0  0  0  0  0  0
  -29.4000  -15.2580   21.5260 H   0  0  0  0  0  0  0  0  0  0  0  0
  -25.4540  -14.0970   20.4810 C   0  0  0  0  0  0  0  0  0  0  0  0
  -24.3910  -13.3200   20.8550 C   0  0  0  0  0  0  0  0  0  0  0  0
  -24.8510  -11.9690   20.8000 C   0  0  0  0  0  0  0  0  0  0  0  0
  -26.4970  -13.2180   20.2280 N   0  0  0  0  0  0  0  0  0  0  0  0
  -26.1360  -11.9330   20.4720 N   0  0  0  0  0  0  0  0  0  0  0  0
  -24.1290  -10.7040   20.9840 C   0  0  0  0  0  0  0  0  0  0  0  0
  -24.5370   -9.7530   21.9450 C   0  0  0  0  0  3  0  0  0  0  0  0
  -23.8180   -8.5510   22.1150 C   0  0  0  0  0  3  0  0  0  0  0  0
  -22.6750   -8.2900   21.3220 C   0  0  0  0  0  0  0  0  0  0  0  0
  -22.2860   -9.2290   20.3510 C   0  0  0  0  0  3  0  0  0  0  0  0
  -23.0060  -10.4230   20.1800 C   0  0  0  0  0  3  0  0  0  0  0  0
  -21.9280   -7.1400   21.4010 O   0  0  0  0  0  0  0  0  0  0  0  0
  -21.8060   -6.4400   22.5730 C   0  0  0  0  0  0  0  0  0  0  0  0
  -21.2280   -7.0140   23.7270 C   0  0  0  0  0  3  0  0  0  0  0  0
  -21.0580   -6.2360   24.8890 C   0  0  0  0  0  3  0  0  0  0  0  0
  -21.4550   -4.8850   24.9000 C   0  0  0  0  0  0  0  0  0  0  0  0
  -22.0230   -4.3100   23.7500 C   0  0  0  0  0  3  0  0  0  0  0  0
  -22.1970   -5.0850   22.5890 C   0  0  0  0  0  0  0  0  0  0  0  0
  -22.7270   -4.5210   21.4780 F   0  0  0  0  0  0  0  0  0  0  0  0
  -21.2850   -4.1360   26.0140 F   0  0  0  0  0  0  0  0  0  0  0  0
  -22.9960  -13.7930   21.1540 C   0  0  0  0  0  0  0  0  0  0  0  0
  -22.2860  -13.0910   22.0310 N   0  0  0  0  0  0  0  0  0  0  0  0
  -22.5470  -14.8200   20.6470 O   0  0  0  0  0  0  0  0  0  0  0  0
  -22.6610  -12.2610   22.4650 H   0  0  0  0  0  0  0  0  0  0  0  0
  -21.3530  -13.3910   22.2740 H   0  0  0  0  0  0  0  0  0  0  0  0
  -25.6160  -15.4680   20.3210 N   0  0  0  0  0  0  0  0  0  0  0  0
  -24.8490  -16.1190   20.4450 H   0  0  0  0  0  0  0  0  0  0  0  0
  -26.4580  -15.9110   19.9780 H   0  0  0  0  0  0  0  0  0  0  0  0
  -29.3210  -23.2470   19.9900 O   0  0  0  0  0  0  0  0  0  0  0  0
  -29.3520  -24.6350   19.6250 C   0  0  0  0  0  2  0  0  0  0  0  0
  -28.6330  -25.5270   20.6550 C   0  0  0  0  0  2  0  0  0  0  0  0
  -28.6850  -26.9020   20.2540 O   0  0  0  0  0  0  0  0  0  0  0  0
  -24.5880  -31.8860   23.2160 C   0  0  0  0  0  0  0  0  0  0  0  0
  -27.4850  -27.5700   20.2120 C   0  0  0  0  0  0  0  0  0  0  0  0
  -23.4850  -30.4560   21.5250 C   0  0  0  0  0  3  0  0  0  0  0  0
  -25.0370  -28.9770   20.1420 C   0  0  0  0  0  0  0  0  0  0  0  0
  -25.9990  -30.9060   21.4130 C   0  0  0  0  0  2  0  0  0  0  0  0
  -26.1550  -29.5450   20.7710 C   0  0  0  0  0  0  0  0  0  0  0  0
  -27.3810  -28.8510   20.7960 C   0  0  0  0  0  3  0  0  0  0  0  0
  -26.3530  -27.0120   19.5760 C   0  0  0  0  0  3  0  0  0  0  0  0
  -25.1310  -27.7090   19.5400 C   0  0  0  0  0  3  0  0  0  0  0  0
  -23.7640  -29.7900   20.1500 C   0  0  0  0  0  2  0  0  0  0  0  0
  -24.7070  -31.0970   22.1110 N   0  0  0  0  0  0  0  0  0  0  0  0
  -23.4820  -32.1190   23.7210 O   0  0  0  0  0  0  0  0  0  0  0  0
  -22.8380  -29.4080   22.4570 C   0  0  0  0  0  0  0  0  0  0  0  0
  -21.5210  -29.1990   22.2950 N   0  0  0  0  0  0  0  0  0  0  0  0
  -23.5160  -28.7870   23.2790 O   0  0  0  0  0  0  0  0  0  0  0  0
  -21.0350  -29.7530   21.6040 H   0  0  0  0  0  0  0  0  0  0  0  0
  -18.1510  -27.9790   22.7480 C   0  0  0  0  0  0  0  0  0  0  0  0
  -20.7080  -28.2330   23.0310 C   0  0  0  0  0  3  0  0  0  0  0  0
  -20.8150  -26.8220   22.4030 C   0  0  0  0  0  2  0  0  0  0  0  0
  -19.7130  -26.5340   21.3790 C   0  0  0  0  0  2  0  0  0  0  0  0
  -18.3310  -26.6540   22.0260 C   0  0  0  0  0  2  0  0  0  0  0  0
  -19.2680  -28.7290   23.2050 C   0  0  0  0  0  0  0  0  0  0  0  0
  -19.0460  -29.9710   23.8370 C   0  0  0  0  0  3  0  0  0  0  0  0
  -17.7400  -30.4640   24.0190 C   0  0  0  0  0  3  0  0  0  0  0  0
  -16.6380  -29.7110   23.5790 C   0  0  0  0  0  3  0  0  0  0  0  0
  -16.8440  -28.4710   22.9490 C   0  0  0  0  0  3  0  0  0  0  0  0
  -25.8320  -32.5530   23.8840 C   0  0  0  0  0  3  0  0  0  0  0  0
  -25.4790  -33.9480   24.1790 N   0  0  0  0  0  0  0  0  0  0  0  0
  -25.8200  -34.9970   23.4180 C   0  0  0  0  0  0  0  0  0  0  0  0
  -26.5350  -34.8930   22.4170 O   0  0  0  0  0  0  0  0  0  0  0  0
  -24.8500  -34.1020   24.9550 H   0  0  0  0  0  0  0  0  0  0  0  0
  -24.0690  -36.7400   22.9600 C   0  0  0  0  0  1  0  0  0  0  0  0
  -25.2810  -36.3800   23.8320 C   0  0  0  0  0  3  0  0  0  0  0  0
  -27.3490  -37.3330   24.7490 C   0  0  0  0  0  1  0  0  0  0  0  0
  -26.2930  -37.4560   23.7470 N   0  0  0  0  0  0  0  0  0  0  0  0
  -25.8580  -38.3690   23.8540 H   0  0  0  0  0  0  0  0  0  0  0  0
  -26.3100  -31.8100   25.1910 C   0  0  1  0  0  0  0  0  0  0  0  0
  -25.1750  -31.5520   26.2110 C   0  0  0  0  0  1  0  0  0  0  0  0
  -26.9470  -30.4460   24.8390 C   0  0  0  0  0  1  0  0  0  0  0  0
  -27.4060  -32.6440   25.8970 C   0  0  0  0  0  1  0  0  0  0  0  0
  1  4  1  0
  2  1  2  0
  3  6  1  0
  5  3  2  0
  5  2  1  0
  6 52  1  0
  6  4  2  0
  7  5  1  0
  8  9  1  0
  9  4  1  0
 10  8  1  0
 10  9  1  0
 10 12  1  0
 12 11  1  0
 13 22  1  0
 13 12  1  0
 14 22  1  0
 15 20  1  0
 16 17  1  0
 16 15  1  0
 18 17  1  0
 18 27  1  0
 18 19  1  0
 20 14  1  0
 20 19  1  0
 21 14  2  0
 22 23  1  0
 24 25  2  0
 25 44  1  0
 26 25  1  0
 26 29  1  0
 27 28  1  0
 27 24  1  0
 28 26  2  0
 29 30  1  0
 30 31  2  0
 32 35  1  0
 32 31  1  0
 33 32  2  0
 34 33  1  0
 34 29  2  0
 35 36  1  0
 36 41  2  0
 36 37  1  0
 37 38  2  0
 38 39  1  0
 39 43  1  0
 40 39  2  0
 41 40  1  0
 42 41  1  0
 44 45  1  0
 45 48  1  0
 45 47  1  0
 46 44  2  0
 49 50  1  0
 49 24  1  0
 51 49  1  0
 53 52  1  0
 53 54  1  0
 55 54  1  0
 56 67  2  0
 57 55  1  0
 57 62  1  0
 58 66  1  0
 58 68  1  0
 59 65  1  0
 59 61  1  0
 60 66  1  0
 61 62  2  0
 61 60  1  0
 63 57  2  0
 64 63  1  0
 64 59  2  0
 65 58  1  0
 66 56  1  0
 68 70  2  0
 69 68  1  0
 71 69  1  0
 72 81  2  0
 72 77  1  0
 73 69  1  0
 73 77  1  0
 74 73  1  0
 75 76  1  0
 75 74  1  0
 76 72  1  0
 77 78  2  0
 78 79  1  0
 80 79  2  0
 81 80  1  0
 82 56  1  0
 82 83  1  0
 82 92  1  0
 83 86  1  0
 84 88  1  0
 84 83  1  0
 85 84  2  0
 88 87  1  0
 90 88  1  0
 90 91  1  0
 90 89  1  0
 92 95  1  1
 92 93  1  0
 94 92  1  0
M  ISO  4  14 100  22 100  54 101  55 101
M  END
>  <TORSDO>  (51) 
F 22

>  <SCORE>  (51) 
-12.838

>  <name>  (51) 
51

>  <ligand_id>  (51) 
51

>  <original_smiles>  (51) 
[H]c1c([H])c([H])c2c(c1[H])C([H])([H])C([H])([H])C([H])([H])C2([H])N([H])C(=O)C1([H])N(C(=O)C([H])(N([H])C(=O)C([H])(N([H])C([H])([H])[H])C([H])([H])[H])C(C([H])([H])[H])(C([H])([H])[H])C([H])([H])[H])C([H])([H])c2c([H])c(OC([H])([H])C([H])([H])Oc3c([H])c(C([H])([H])[H])c([H])c([H])c3C3([H])C([H])([H])C3([H])C([H])(C([H])([H])[H])C([H])([H])N([H])C(=O)N3C([H])([H])C([H])([H])C([H])([H])C([H])(n4nc(-c5c([H])c([H])c(Oc6c([H])c([H])c(F)c([H])c6F)c([H])c5[H])c(C(=O)N([H])[H])c4N([H])[H])C3([H])[H])c([H])c([H])c2C1([H])[H]

>  <smiles>  (51) 
[H]c1c([H])c([H])c2c(c1[H])C([H])([H])C([H])([H])C([H])([H])C2([H])N([H])C(=O)C1([H])N(C(=O)C([H])(N([H])C(=O)C([H])(N([H])C([H])([H])[H])C([H])([H])[H])C(C([H])([H])[H])(C([H])([H])[H])C([H])([H])[H])C([H])([H])c2c([H])c(OC([H])([H])C([H])([H])Oc3c([H])c(C([H])([H])[H])c([H])c([H])c3C3([H])C([H])([H])C3([H])C([H])(C([H])([H])[H])C([H])([H])N([H])C(=O)N3C([H])([H])C([H])([H])C([H])([H])C([H])(n4nc(-c5c([H])c([H])c(Oc6c([H])c([H])c(F)c([H])c6F)c([H])c5[H])c(C(=O)N([H])[H])c4N([H])[H])C3([H])[H])c([H])c([H])c2C1([H])[H]

$$$$
52:0:0
     RDKit          3D

 94105  0  0  1  0  0  0  0  0999 V2000
  -28.3020  -20.7990   19.9560 C   0  0  0  0  0  3  0  0  0  0  0  0
  -27.7840  -22.1460   19.9420 C   0  0  0  0  0  3  0  0  0  0  0  0
  -29.9470  -23.0140   19.6050 C   0  0  0  0  0  3  0  0  0  0  0  0
  -29.6820  -20.4600   19.8210 C   0  0  0  0  0  0  0  0  0  0  0  0
  -30.4870  -21.6560   19.6330 C   0  0  0  0  0  0  0  0  0  0  0  0
  -28.5650  -23.3390   19.7840 C   0  0  0  0  0  0  0  0  0  0  0  0
  -32.8060  -22.3850   18.5670 C   0  0  0  0  0  2  0  0  0  0  0  0
  -32.6280  -20.9140   18.2770 C   0  0  0  0  0  2  0  0  0  0  0  0
  -31.9840  -21.5190   19.5050 C   0  0  0  0  0  3  0  0  0  0  0  0
  -29.5980  -18.2430   21.1350 C   0  0  0  0  0  2  0  0  0  0  0  0
  -30.2660  -18.9320   19.9970 C   0  0  0  0  0  3  0  0  0  0  0  0
  -29.6920  -17.3620   19.8860 C   0  0  0  0  0  3  0  0  0  0  0  0
  -30.5580  -14.8610   19.3150 C   0  0  0  0  0  0  0  0  0  0  0  0
  -30.1190  -12.5990   18.2620 C   0  0  0  0  0  2  0  0  0  0  0  0
  -29.0030  -12.6870   17.1970 C   0  0  0  0  0  2  0  0  0  0  0  0
  -27.6230  -12.4860   17.8470 C   0  0  0  0  0  2  0  0  0  0  0  0
  -27.4490  -13.3420   19.1290 C   0  0  0  0  0  3  0  0  0  0  0  0
  -28.6750  -13.2620   20.0670 C   0  0  0  0  0  2  0  0  0  0  0  0
  -29.8780  -13.6420   19.3030 N   0  0  0  0  0  0  0  0  0  0  0  0
  -31.4970  -15.0080   18.5270 O   0  0  0  0  0  0  0  0  0  0  0  0
  -30.2290  -15.9190   20.1880 N   0  0  0  0  0  0  0  0  0  0  0  0
  -25.2340  -13.9010   20.2960 C   0  0  0  0  0  0  0  0  0  0  0  0
  -24.2230  -13.1180   20.7880 C   0  0  0  0  0  0  0  0  0  0  0  0
  -24.6350  -11.7670   20.5790 C   0  0  0  0  0  0  0  0  0  0  0  0
  -26.1990  -13.0290   19.8230 N   0  0  0  0  0  0  0  0  0  0  0  0
  -25.8560  -11.7320   20.0530 N   0  0  0  0  0  0  0  0  0  0  0  0
  -23.9110  -10.5050   20.8010 C   0  0  0  0  0  0  0  0  0  0  0  0
  -24.3860   -9.5300   21.7040 C   0  0  0  0  0  3  0  0  0  0  0  0
  -23.6630   -8.3340   21.9160 C   0  0  0  0  0  3  0  0  0  0  0  0
  -22.4480   -8.1090   21.2270 C   0  0  0  0  0  0  0  0  0  0  0  0
  -21.9890   -9.0730   20.3130 C   0  0  0  0  0  3  0  0  0  0  0  0
  -22.7140  -10.2590   20.0990 C   0  0  0  0  0  3  0  0  0  0  0  0
  -21.6920   -6.9670   21.3530 O   0  0  0  0  0  0  0  0  0  0  0  0
  -21.6070   -6.2860   22.5400 C   0  0  0  0  0  0  0  0  0  0  0  0
  -21.1410   -6.9010   23.7240 C   0  0  0  0  0  3  0  0  0  0  0  0
  -21.0040   -6.1430   24.9030 C   0  0  0  0  0  3  0  0  0  0  0  0
  -21.3230   -4.7720   24.9010 C   0  0  0  0  0  0  0  0  0  0  0  0
  -21.7830   -4.1570   23.7230 C   0  0  0  0  0  3  0  0  0  0  0  0
  -21.9200   -4.9120   22.5450 C   0  0  0  0  0  0  0  0  0  0  0  0
  -22.3430   -4.3090   21.4080 F   0  0  0  0  0  0  0  0  0  0  0  0
  -21.1840   -4.0420   26.0320 F   0  0  0  0  0  0  0  0  0  0  0  0
  -22.9060  -13.5990   21.3210 C   0  0  0  0  0  0  0  0  0  0  0  0
  -22.3290  -12.8800   22.2780 N   0  0  0  0  0  0  0  0  0  0  0  0
  -22.4010  -14.6490   20.9230 O   0  0  0  0  0  0  0  0  0  0  0  0
  -22.7500  -12.0320   22.6270 H   0  0  0  0  0  0  0  0  0  0  0  0
  -21.4490  -13.1830   22.6680 H   0  0  0  0  0  0  0  0  0  0  0  0
  -25.3960  -15.2790   20.1920 N   0  0  0  0  0  0  0  0  0  0  0  0
  -24.6660  -15.9230   20.4790 H   0  0  0  0  0  0  0  0  0  0  0  0
  -26.1960  -15.7390   19.7770 H   0  0  0  0  0  0  0  0  0  0  0  0
  -31.8020  -15.7880   22.1880 C   0  0  0  0  0  2  0  0  0  0  0  0
  -31.1130  -14.4530   22.2040 C   0  0  0  0  0  2  0  0  0  0  0  0
  -30.4000  -15.6680   21.6140 C   0  0  0  0  0  3  0  0  0  0  0  0
  -27.8010  -24.7830   19.6160 C   0  0  0  0  0  2  0  0  0  0  0  0
  -28.1360  -26.1960   20.1380 O   0  0  0  0  0  0  0  0  0  0  0  0
  -24.7710  -31.9150   23.3460 C   0  0  0  0  0  0  0  0  0  0  0  0
  -27.1100  -27.2130   20.1170 C   0  0  0  0  0  0  0  0  0  0  0  0
  -23.4720  -30.5850   21.7320 C   0  0  0  0  0  3  0  0  0  0  0  0
  -24.8220  -29.0090   20.2220 C   0  0  0  0  0  0  0  0  0  0  0  0
  -26.0230  -30.7870   21.4740 C   0  0  0  0  0  2  0  0  0  0  0  0
  -26.0350  -29.4070   20.7980 C   0  0  0  0  0  0  0  0  0  0  0  0
  -27.1770  -28.5220   20.7380 C   0  0  0  0  0  3  0  0  0  0  0  0
  -25.8710  -26.9300   19.4910 C   0  0  0  0  0  3  0  0  0  0  0  0
  -24.7510  -27.7800   19.5570 C   0  0  0  0  0  3  0  0  0  0  0  0
  -23.6190  -29.9290   20.3350 C   0  0  0  0  0  2  0  0  0  0  0  0
  -24.7780  -31.1130   22.2390 N   0  0  0  0  0  0  0  0  0  0  0  0
  -23.7140  -32.2230   23.9180 O   0  0  0  0  0  0  0  0  0  0  0  0
  -22.8010  -29.5760   22.6980 C   0  0  0  0  0  0  0  0  0  0  0  0
  -21.4850  -29.3510   22.5330 N   0  0  0  0  0  0  0  0  0  0  0  0
  -23.4660  -28.9980   23.5610 O   0  0  0  0  0  0  0  0  0  0  0  0
  -21.0010  -29.8710   21.8130 H   0  0  0  0  0  0  0  0  0  0  0  0
  -18.1550  -27.9750   22.8950 C   0  0  0  0  0  0  0  0  0  0  0  0
  -20.6710  -28.4080   23.3050 C   0  0  0  0  0  3  0  0  0  0  0  0
  -20.8940  -26.9560   22.8210 C   0  0  0  0  0  2  0  0  0  0  0  0
  -19.8810  -26.5120   21.7610 C   0  0  0  0  0  2  0  0  0  0  0  0
  -18.4540  -26.6060   22.3080 C   0  0  0  0  0  2  0  0  0  0  0  0
  -19.1960  -28.8270   23.3470 C   0  0  0  0  0  0  0  0  0  0  0  0
  -18.8630  -30.1040   23.8520 C   0  0  0  0  0  3  0  0  0  0  0  0
  -17.5230  -30.5290   23.9100 C   0  0  0  0  0  3  0  0  0  0  0  0
  -16.4950  -29.6730   23.4760 C   0  0  0  0  0  3  0  0  0  0  0  0
  -16.8110  -28.3980   22.9750 C   0  0  0  0  0  3  0  0  0  0  0  0
  -26.0900  -32.5030   23.9340 C   0  0  0  0  0  3  0  0  0  0  0  0
  -26.6210  -31.7000   25.1870 C   0  0  1  0  0  0  0  0  0  0  0  0
  -25.5450  -31.4510   26.2690 C   0  0  0  0  0  1  0  0  0  0  0  0
  -27.1800  -30.3230   24.7620 C   0  0  0  0  0  1  0  0  0  0  0  0
  -27.7940  -32.4670   25.8420 C   0  0  0  0  0  1  0  0  0  0  0  0
  -25.8360  -33.9080   24.2930 N   0  0  0  0  0  0  0  0  0  0  0  0
  -26.1280  -34.9580   23.5130 C   0  0  0  0  0  0  0  0  0  0  0  0
  -26.7090  -34.8460   22.4300 O   0  0  0  0  0  0  0  0  0  0  0  0
  -25.3170  -34.0730   25.1430 H   0  0  0  0  0  0  0  0  0  0  0  0
  -24.4090  -36.7830   23.3150 C   0  0  0  0  0  1  0  0  0  0  0  0
  -25.7110  -36.3550   24.0120 C   0  0  0  0  0  3  0  0  0  0  0  0
  -27.9280  -37.2010   24.6440 C   0  0  0  0  0  1  0  0  0  0  0  0
  -26.7460  -37.3910   23.8060 N   0  0  0  0  0  0  0  0  0  0  0  0
  -26.3710  -38.3160   23.9950 H   0  0  0  0  0  0  0  0  0  0  0  0
  2  1  1  0
  3  5  2  0
  3  6  1  0
  4  1  2  0
  5  4  1  0
  6  2  2  0
  7  9  1  0
  8  7  1  0
  8  9  1  0
  9  5  1  0
 11  4  1  0
 11 10  1  0
 12 11  1  0
 12 21  1  0
 12 10  1  0
 13 21  1  0
 14 19  1  0
 15 16  1  0
 15 14  1  0
 17 16  1  0
 17 25  1  0
 17 18  1  0
 19 13  1  0
 19 18  1  0
 20 13  2  0
 21 52  1  0
 22 23  2  0
 23 42  1  0
 24 23  1  0
 24 27  1  0
 25 26  1  0
 25 22  1  0
 26 24  2  0
 27 28  1  0
 28 29  2  0
 30 33  1  0
 30 29  1  0
 31 30  2  0
 32 31  1  0
 32 27  2  0
 33 34  1  0
 34 39  2  0
 34 35  1  0
 35 36  2  0
 37 36  1  0
 37 41  1  0
 38 37  2  0
 39 38  1  0
 40 39  1  0
 42 43  1  0
 43 45  1  0
 43 46  1  0
 44 42  2  0
 47 22  1  0
 47 48  1  0
 49 47  1  0
 50 51  1  0
 52 50  1  0
 52 51  1  0
 53  6  1  0
 53 54  1  0
 55 66  2  0
 56 54  1  0
 56 61  1  0
 57 65  1  0
 57 67  1  0
 58 64  1  0
 58 60  1  0
 59 65  1  0
 60 59  1  0
 61 60  2  0
 62 63  1  0
 62 56  2  0
 63 58  2  0
 64 57  1  0
 65 55  1  0
 67 69  2  0
 68 67  1  0
 70 68  1  0
 71 80  2  0
 71 76  1  0
 72 68  1  0
 72 76  1  0
 73 72  1  0
 74 75  1  0
 74 73  1  0
 75 71  1  0
 76 77  2  0
 77 78  1  0
 79 78  2  0
 80 79  1  0
 81 55  1  0
 81 86  1  0
 81 82  1  0
 82 85  1  1
 82 83  1  0
 84 82  1  0
 86 89  1  0
 87 91  1  0
 87 86  1  0
 88 87  2  0
 91 90  1  0
 93 94  1  0
 93 91  1  0
 93 92  1  0
M  ISO  4  13 100  21 100  53 101  54 101
M  END
>  <TORSDO>  (52) 
F 20

>  <SCORE>  (52) 
-10.593

>  <name>  (52) 
52

>  <ligand_id>  (52) 
52

>  <original_smiles>  (52) 
[H]c1c([H])c([H])c2c(c1[H])C([H])([H])C([H])([H])C([H])([H])C2([H])N([H])C(=O)C1([H])N(C(=O)C([H])(N([H])C(=O)C([H])(N([H])C([H])([H])[H])C([H])([H])[H])C(C([H])([H])[H])(C([H])([H])[H])C([H])([H])[H])C([H])([H])c2c([H])c(OC([H])([H])c3c([H])c([H])c(C4([H])C([H])([H])C4([H])N(C(=O)N4C([H])([H])C([H])([H])C([H])([H])C([H])(n5nc(-c6c([H])c([H])c(Oc7c([H])c([H])c(F)c([H])c7F)c([H])c6[H])c(C(=O)N([H])[H])c5N([H])[H])C4([H])[H])C4([H])C([H])([H])C4([H])[H])c(C4([H])C([H])([H])C4([H])[H])c3[H])c([H])c([H])c2C1([H])[H]

>  <smiles>  (52) 
[H]c1c([H])c([H])c2c(c1[H])C([H])([H])C([H])([H])C([H])([H])C2([H])N([H])C(=O)C1([H])N(C(=O)C([H])(N([H])C(=O)C([H])(N([H])C([H])([H])[H])C([H])([H])[H])C(C([H])([H])[H])(C([H])([H])[H])C([H])([H])[H])C([H])([H])c2c([H])c(OC([H])([H])c3c([H])c([H])c(C4([H])C([H])([H])C4([H])N(C(=O)N4C([H])([H])C([H])([H])C([H])([H])C([H])(n5nc(-c6c([H])c([H])c(Oc7c([H])c([H])c(F)c([H])c7F)c([H])c6[H])c(C(=O)N([H])[H])c5N([H])[H])C4([H])[H])C4([H])C([H])([H])C4([H])[H])c(C4([H])C([H])([H])C4([H])[H])c3[H])c([H])c([H])c2C1([H])[H]

$$$$
53:0:0
     RDKit          3D

 96104  0  0  1  0  0  0  0  0999 V2000
  -29.5040  -22.4050   19.5790 C   0  0  0  0  0  2  0  0  0  0  0  0
  -28.7910  -23.5870   20.2530 C   0  0  0  0  0  2  0  0  0  0  0  0
  -29.5870  -24.1720   21.3580 N   0  0  0  0  0  4  0  0  0  0  0  0
  -29.6840  -23.4550   22.0640 H   0  0  0  0  0  0  0  0  0  0  0  0
  -30.5210  -24.3880   21.0380 H   0  0  0  0  0  0  0  0  0  0  0  0
  -28.9920  -25.3760   21.9960 C   0  0  0  0  0  2  0  0  0  0  0  0
  -29.2250  -26.6830   21.2090 C   0  0  0  0  0  2  0  0  0  0  0  0
  -28.3500  -26.7530   20.0800 O   0  0  0  0  0  0  0  0  0  0  0  0
  -24.5430  -31.9110   23.2530 C   0  0  0  0  0  0  0  0  0  0  0  0
  -27.1990  -27.5030   20.1700 C   0  0  0  0  0  0  0  0  0  0  0  0
  -23.3270  -30.5030   21.6200 C   0  0  0  0  0  3  0  0  0  0  0  0
  -24.7780  -28.9670   20.1910 C   0  0  0  0  0  0  0  0  0  0  0  0
  -25.8420  -30.8840   21.3950 C   0  0  0  0  0  2  0  0  0  0  0  0
  -25.9310  -29.5100   20.7700 C   0  0  0  0  0  0  0  0  0  0  0  0
  -27.1420  -28.7890   20.7590 C   0  0  0  0  0  3  0  0  0  0  0  0
  -26.0330  -26.9750   19.5800 C   0  0  0  0  0  3  0  0  0  0  0  0
  -24.8210  -27.6950   19.5940 C   0  0  0  0  0  3  0  0  0  0  0  0
  -23.5270  -29.8150   20.2420 C   0  0  0  0  0  2  0  0  0  0  0  0
  -24.5890  -31.1130   22.1490 N   0  0  0  0  0  0  0  0  0  0  0  0
  -23.4660  -32.1790   23.8040 O   0  0  0  0  0  0  0  0  0  0  0  0
  -22.6890  -29.4810   22.5880 C   0  0  0  0  0  0  0  0  0  0  0  0
  -21.3650  -29.2920   22.4670 N   0  0  0  0  0  0  0  0  0  0  0  0
  -23.3810  -28.8610   23.4000 O   0  0  0  0  0  0  0  0  0  0  0  0
  -20.8700  -29.8460   21.7820 H   0  0  0  0  0  0  0  0  0  0  0  0
  -18.0000  -28.0790   22.9670 C   0  0  0  0  0  0  0  0  0  0  0  0
  -20.5560  -28.3510   23.2410 C   0  0  0  0  0  3  0  0  0  0  0  0
  -20.6660  -26.9190   22.6700 C   0  0  0  0  0  2  0  0  0  0  0  0
  -19.5660  -26.5850   21.6580 C   0  0  0  0  0  2  0  0  0  0  0  0
  -18.1840  -26.7270   22.3000 C   0  0  0  0  0  2  0  0  0  0  0  0
  -19.1140  -28.8490   23.3950 C   0  0  0  0  0  0  0  0  0  0  0  0
  -18.8900  -30.1150   23.9770 C   0  0  0  0  0  3  0  0  0  0  0  0
  -17.5830  -30.6110   24.1390 C   0  0  0  0  0  3  0  0  0  0  0  0
  -16.4820  -29.8370   23.7300 C   0  0  0  0  0  3  0  0  0  0  0  0
  -16.6920  -28.5740   23.1500 C   0  0  0  0  0  3  0  0  0  0  0  0
  -25.8330  -32.5430   23.8620 C   0  0  0  0  0  3  0  0  0  0  0  0
  -25.5310  -33.9430   24.1820 N   0  0  0  0  0  0  0  0  0  0  0  0
  -25.8780  -34.9890   23.4190 C   0  0  0  0  0  0  0  0  0  0  0  0
  -26.5580  -34.8750   22.3960 O   0  0  0  0  0  0  0  0  0  0  0  0
  -24.9250  -34.1050   24.9730 H   0  0  0  0  0  0  0  0  0  0  0  0
  -24.1700  -36.7910   23.0250 C   0  0  0  0  0  1  0  0  0  0  0  0
  -25.3930  -36.3820   23.8630 C   0  0  0  0  0  3  0  0  0  0  0  0
  -27.5220  -37.2500   24.7240 C   0  0  0  0  0  1  0  0  0  0  0  0
  -26.4350  -37.4260   23.7640 N   0  0  0  0  0  0  0  0  0  0  0  0
  -26.0350  -38.3500   23.9050 H   0  0  0  0  0  0  0  0  0  0  0  0
  -26.3570  -31.7790   25.1390 C   0  0  1  0  0  0  0  0  0  0  0  0
  -25.2710  -31.5510   26.2160 C   0  0  0  0  0  1  0  0  0  0  0  0
  -26.9350  -30.3990   24.7460 C   0  0  0  0  0  1  0  0  0  0  0  0
  -27.5130  -32.5750   25.7880 C   0  0  0  0  0  1  0  0  0  0  0  0
  -29.5480  -21.2720   20.4500 O   0  0  0  0  0  0  0  0  0  0  0  0
  -30.7990  -20.0110   18.7440 C   0  0  0  0  0  3  0  0  0  0  0  0
  -31.1590  -18.7670   18.2020 C   0  0  0  0  0  3  0  0  0  0  0  0
  -29.6460  -18.8810   20.5570 C   0  0  0  0  0  3  0  0  0  0  0  0
  -29.9960  -17.6210   20.0170 C   0  0  0  0  0  0  0  0  0  0  0  0
  -30.0060  -20.0840   19.9130 C   0  0  0  0  0  0  0  0  0  0  0  0
  -30.7390  -17.5600   18.8080 C   0  0  0  0  0  0  0  0  0  0  0  0
  -31.9650  -16.2440   17.2120 C   0  0  0  0  0  1  0  0  0  0  0  0
  -30.9950  -16.3250   18.2530 O   0  0  0  0  0  0  0  0  0  0  0  0
  -29.4900  -16.3500   20.7070 C   0  0  0  0  0  2  0  0  0  0  0  0
  -31.0100  -14.4130   20.5260 C   0  0  0  0  0  0  0  0  0  0  0  0
  -30.6160  -12.2300   19.4400 C   0  0  0  0  0  2  0  0  0  0  0  0
  -29.7190  -12.3520   18.1950 C   0  0  0  0  0  2  0  0  0  0  0  0
  -28.2360  -12.2380   18.5910 C   0  0  0  0  0  2  0  0  0  0  0  0
  -27.8670  -13.1930   19.7510 C   0  0  0  0  0  3  0  0  0  0  0  0
  -28.8820  -13.0850   20.9170 C   0  0  0  0  0  2  0  0  0  0  0  0
  -30.2380  -13.2980   20.3820 N   0  0  0  0  0  0  0  0  0  0  0  0
  -32.1540  -14.4830   20.0650 O   0  0  0  0  0  0  0  0  0  0  0  0
  -31.4020  -16.1100   22.2130 C   0  0  0  0  0  1  0  0  0  0  0  0
  -30.5140  -15.4410   21.2560 N   0  0  0  0  0  0  0  0  0  0  0  0
  -25.4880  -13.9280   20.3940 C   0  0  0  0  0  0  0  0  0  0  0  0
  -24.3780  -13.2090   20.7490 C   0  0  0  0  0  0  0  0  0  0  0  0
  -24.7850  -11.8400   20.7620 C   0  0  0  0  0  0  0  0  0  0  0  0
  -26.4970  -12.9960   20.2070 N   0  0  0  0  0  0  0  0  0  0  0  0
  -26.0790  -11.7390   20.4930 N   0  0  0  0  0  0  0  0  0  0  0  0
  -24.0060  -10.6110   20.9540 C   0  0  0  0  0  0  0  0  0  0  0  0
  -24.3940   -9.6330   21.8950 C   0  0  0  0  0  3  0  0  0  0  0  0
  -23.6200   -8.4660   22.0740 C   0  0  0  0  0  3  0  0  0  0  0  0
  -22.4440   -8.2720   21.3110 C   0  0  0  0  0  0  0  0  0  0  0  0
  -22.0760   -9.2390   20.3590 C   0  0  0  0  0  3  0  0  0  0  0  0
  -22.8500  -10.3970   20.1790 C   0  0  0  0  0  3  0  0  0  0  0  0
  -21.6430   -7.1590   21.4010 O   0  0  0  0  0  0  0  0  0  0  0  0
  -21.5710   -6.4150   22.5500 C   0  0  0  0  0  0  0  0  0  0  0  0
  -21.1850   -6.9840   23.7830 C   0  0  0  0  0  3  0  0  0  0  0  0
  -21.0570   -6.1680   24.9250 C   0  0  0  0  0  3  0  0  0  0  0  0
  -21.3050   -4.7860   24.8360 C   0  0  0  0  0  0  0  0  0  0  0  0
  -21.6850   -4.2160   23.6070 C   0  0  0  0  0  3  0  0  0  0  0  0
  -21.8150   -5.0290   22.4670 C   0  0  0  0  0  0  0  0  0  0  0  0
  -22.1610   -4.4720   21.2810 F   0  0  0  0  0  0  0  0  0  0  0  0
  -21.1740   -4.0010   25.9300 F   0  0  0  0  0  0  0  0  0  0  0  0
  -22.9940  -13.7460   20.9680 C   0  0  0  0  0  0  0  0  0  0  0  0
  -22.2160  -13.1060   21.8340 N   0  0  0  0  0  0  0  0  0  0  0  0
  -22.6080  -14.7700   20.4020 O   0  0  0  0  0  0  0  0  0  0  0  0
  -22.5390  -12.2780   22.3120 H   0  0  0  0  0  0  0  0  0  0  0  0
  -21.2860  -13.4490   22.0220 H   0  0  0  0  0  0  0  0  0  0  0  0
  -25.7150  -15.2860   20.1910 N   0  0  0  0  0  0  0  0  0  0  0  0
  -24.9720  -15.9730   20.2600 H   0  0  0  0  0  0  0  0  0  0  0  0
  -26.5840  -15.6780   19.8520 H   0  0  0  0  0  0  0  0  0  0  0  0
  1  2  1  0
  1 49  1  0
  2  3  1  0
  3  6  1  0
  3  4  1  0
  5  3  1  0
  7  6  1  0
  8 10  1  0
  8  7  1  0
  9 20  2  0
 10 15  1  0
 11 19  1  0
 11 21  1  0
 12 18  1  0
 12 14  1  0
 13 19  1  0
 14 13  1  0
 15 14  2  0
 16 17  1  0
 16 10  2  0
 17 12  2  0
 18 11  1  0
 19  9  1  0
 21 23  2  0
 22 21  1  0
 24 22  1  0
 25 34  2  0
 25 30  1  0
 26 22  1  0
 26 30  1  0
 27 26  1  0
 28 29  1  0
 28 27  1  0
 29 25  1  0
 30 31  2  0
 31 32  1  0
 33 32  2  0
 34 33  1  0
 35  9  1  0
 35 36  1  0
 35 45  1  0
 36 39  1  0
 37 41  1  0
 37 36  1  0
 38 37  2  0
 41 40  1  0
 43 41  1  0
 43 44  1  0
 43 42  1  0
 45 48  1  1
 45 46  1  0
 47 45  1  0
 50 54  1  0
 51 50  2  0
 51 55  1  0
 53 52  1  0
 53 58  1  0
 54 49  1  0
 54 52  2  0
 55 53  2  0
 56 57  1  0
 57 55  1  0
 58 68  1  0
 59 68  1  0
 60 65  1  0
 61 62  1  0
 61 60  1  0
 63 62  1  0
 63 72  1  0
 63 64  1  0
 65 59  1  0
 65 64  1  0
 66 59  2  0
 68 67  1  0
 69 70  2  0
 70 71  1  0
 70 89  1  0
 71 74  1  0
 72 69  1  0
 72 73  1  0
 73 71  2  0
 74 75  1  0
 75 76  2  0
 77 80  1  0
 77 76  1  0
 78 77  2  0
 79 78  1  0
 79 74  2  0
 80 81  1  0
 81 82  1  0
 82 83  2  0
 84 83  1  0
 84 88  1  0
 85 84  2  0
 86 81  2  0
 86 85  1  0
 87 86  1  0
 89 90  1  0
 90 93  1  0
 90 92  1  0
 91 89  2  0
 94 95  1  0
 94 69  1  0
 96 94  1  0
M  ISO  4   7 101   8 101  59 100  68 100
M  END
>  <TORSDO>  (53) 
F 24

>  <SCORE>  (53) 
-12.129

>  <name>  (53) 
53

>  <ligand_id>  (53) 
53

>  <original_smiles>  (53) 
[H]c1c([H])c([H])c2c(c1[H])C([H])([H])C([H])([H])C([H])([H])C2([H])N([H])C(=O)C1([H])N(C(=O)C([H])(N([H])C(=O)C([H])(N([H])C([H])([H])[H])C([H])([H])[H])C(C([H])([H])[H])(C([H])([H])[H])C([H])([H])[H])C([H])([H])c2c([H])c(OC([H])([H])C([H])([H])[N+]([H])([H])C([H])([H])C([H])([H])Oc3c([H])c([H])c(OC([H])([H])[H])c(C([H])([H])N(C(=O)N4C([H])([H])C([H])([H])C([H])([H])C([H])(n5nc(-c6c([H])c([H])c(Oc7c([H])c([H])c(F)c([H])c7F)c([H])c6[H])c(C(=O)N([H])[H])c5N([H])[H])C4([H])[H])C([H])([H])[H])c3[H])c([H])c([H])c2C1([H])[H]

>  <smiles>  (53) 
[H]c1c([H])c([H])c2c(c1[H])C([H])([H])C([H])([H])C([H])([H])C2([H])N([H])C(=O)C1([H])N(C(=O)C([H])(N([H])C(=O)C([H])(N([H])C([H])([H])[H])C([H])([H])[H])C(C([H])([H])[H])(C([H])([H])[H])C([H])([H])[H])C([H])([H])c2c([H])c(OC([H])([H])C([H])([H])[N+]([H])([H])C([H])([H])C([H])([H])Oc3c([H])c([H])c(OC([H])([H])[H])c(C([H])([H])N(C(=O)N4C([H])([H])C([H])([H])C([H])([H])C([H])(n5nc(-c6c([H])c([H])c(Oc7c([H])c([H])c(F)c([H])c7F)c([H])c6[H])c(C(=O)N([H])[H])c5N([H])[H])C4([H])[H])C([H])([H])[H])c3[H])c([H])c([H])c2C1([H])[H]

$$$$
54:0:0
     RDKit          3D

 98108  0  0  1  0  0  0  0  0999 V2000
  -28.7160  -23.0200   21.8640 C   0  0  0  0  0  2  0  0  0  0  0  0
  -28.6770  -24.5690   21.9200 C   0  0  0  0  0  2  0  0  0  0  0  0
  -28.5430  -23.8630   19.6110 C   0  0  0  0  0  3  0  0  0  0  0  0
  -29.2040  -22.6780   20.4520 C   0  0  0  0  0  3  0  0  0  0  0  0
  -28.0670  -25.0320   20.5840 C   0  0  0  0  0  3  0  0  0  0  0  0
  -29.5270  -23.7090   17.1660 C   0  0  0  0  0  2  0  0  0  0  0  0
  -28.8650  -25.0640   17.2940 C   0  0  0  0  0  2  0  0  0  0  0  0
  -29.4490  -24.3880   18.5120 C   0  0  0  0  0  3  0  0  0  0  0  0
  -28.9210  -21.2340   20.0680 N   0  0  0  0  0  0  0  0  0  0  0  0
  -28.5550  -21.2290   19.1200 H   0  0  0  0  0  0  0  0  0  0  0  0
  -30.0480  -20.2270   20.1200 C   0  0  0  0  0  3  0  0  0  0  0  0
  -30.8010  -17.5400   20.2190 C   0  0  0  0  0  2  0  0  0  0  0  0
  -28.6900  -16.6330   20.8640 C   0  0  0  0  0  2  0  0  0  0  0  0
  -30.1820  -16.2090   20.8460 C   0  0  0  0  0  3  0  0  0  0  0  0
  -29.6750  -18.6370   20.0140 C   0  0  0  0  0  3  0  0  0  0  0  0
  -28.6430  -18.1300   20.9290 N   0  0  0  0  0  4  0  0  0  0  0  0
  -28.8580  -18.4410   21.8630 H   0  0  0  0  0  0  0  0  0  0  0  0
  -27.7390  -18.5000   20.6810 H   0  0  0  0  0  0  0  0  0  0  0  0
  -30.6890  -14.8040   20.2280 C   0  0  0  0  0  0  0  0  0  0  0  0
  -30.3980  -12.5340   19.2060 C   0  0  0  0  0  2  0  0  0  0  0  0
  -29.4560  -12.6350   17.9890 C   0  0  0  0  0  2  0  0  0  0  0  0
  -27.9940  -12.4580   18.4330 C   0  0  0  0  0  2  0  0  0  0  0  0
  -27.6420  -13.3300   19.6640 C   0  0  0  0  0  3  0  0  0  0  0  0
  -28.7200  -13.2600   20.7720 C   0  0  0  0  0  2  0  0  0  0  0  0
  -30.0120  -13.6010   20.1690 N   0  0  0  0  0  0  0  0  0  0  0  0
  -31.8190  -14.8460   19.7360 O   0  0  0  0  0  0  0  0  0  0  0  0
  -25.2720  -13.9210   20.4390 C   0  0  0  0  0  0  0  0  0  0  0  0
  -24.2150  -13.1490   20.8370 C   0  0  0  0  0  0  0  0  0  0  0  0
  -24.6740  -11.7970   20.7830 C   0  0  0  0  0  0  0  0  0  0  0  0
  -26.3080  -13.0420   20.1770 N   0  0  0  0  0  0  0  0  0  0  0  0
  -25.9570  -11.7590   20.4450 N   0  0  0  0  0  0  0  0  0  0  0  0
  -23.9460  -10.5350   20.9730 C   0  0  0  0  0  0  0  0  0  0  0  0
  -24.3680   -9.5720   21.9170 C   0  0  0  0  0  3  0  0  0  0  0  0
  -23.6400   -8.3790   22.0970 C   0  0  0  0  0  3  0  0  0  0  0  0
  -22.4740   -8.1350   21.3310 C   0  0  0  0  0  0  0  0  0  0  0  0
  -22.0720   -9.0850   20.3750 C   0  0  0  0  0  3  0  0  0  0  0  0
  -22.8030  -10.2720   20.1940 C   0  0  0  0  0  3  0  0  0  0  0  0
  -21.7200   -6.9910   21.4180 O   0  0  0  0  0  0  0  0  0  0  0  0
  -21.6270   -6.2780   22.5860 C   0  0  0  0  0  0  0  0  0  0  0  0
  -21.1360   -6.8610   23.7740 C   0  0  0  0  0  3  0  0  0  0  0  0
  -20.9920   -6.0770   24.9350 C   0  0  0  0  0  3  0  0  0  0  0  0
  -21.3270   -4.7100   24.9080 C   0  0  0  0  0  0  0  0  0  0  0  0
  -21.8090   -4.1250   23.7240 C   0  0  0  0  0  3  0  0  0  0  0  0
  -21.9570   -4.9080   22.5650 C   0  0  0  0  0  0  0  0  0  0  0  0
  -22.4010   -4.3360   21.4200 F   0  0  0  0  0  0  0  0  0  0  0  0
  -21.1790   -3.9520   26.0200 F   0  0  0  0  0  0  0  0  0  0  0  0
  -22.8260  -13.6270   21.1420 C   0  0  0  0  0  0  0  0  0  0  0  0
  -22.1120  -12.9240   22.0130 N   0  0  0  0  0  0  0  0  0  0  0  0
  -22.3830  -14.6600   20.6390 O   0  0  0  0  0  0  0  0  0  0  0  0
  -22.4850  -12.0850   22.4350 H   0  0  0  0  0  0  0  0  0  0  0  0
  -21.1820  -13.2280   22.2630 H   0  0  0  0  0  0  0  0  0  0  0  0
  -25.4320  -15.2900   20.2410 N   0  0  0  0  0  0  0  0  0  0  0  0
  -24.5830  -15.8470   20.2380 H   0  0  0  0  0  0  0  0  0  0  0  0
  -26.0660  -15.5770   19.5080 H   0  0  0  0  0  0  0  0  0  0  0  0
  -32.5060  -20.3740   19.3020 C   0  0  0  0  0  1  0  0  0  0  0  0
  -30.6610  -20.0810   17.5790 C   0  0  0  0  0  1  0  0  0  0  0  0
  -31.0310  -20.6410   18.9670 C   0  0  0  0  0  3  0  0  0  0  0  0
  -28.3260  -26.4820   20.2910 O   0  0  0  0  0  0  0  0  0  0  0  0
  -24.6140  -31.9420   23.2500 C   0  0  0  0  0  0  0  0  0  0  0  0
  -27.2300  -27.3640   20.2280 C   0  0  0  0  0  0  0  0  0  0  0  0
  -23.4180  -30.5420   21.6050 C   0  0  0  0  0  3  0  0  0  0  0  0
  -24.8750  -28.9920   20.1830 C   0  0  0  0  0  0  0  0  0  0  0  0
  -25.9560  -30.8640   21.4260 C   0  0  0  0  0  2  0  0  0  0  0  0
  -26.0410  -29.4790   20.7890 C   0  0  0  0  0  0  0  0  0  0  0  0
  -27.2240  -28.6760   20.7990 C   0  0  0  0  0  3  0  0  0  0  0  0
  -26.0510  -26.9460   19.5730 C   0  0  0  0  0  3  0  0  0  0  0  0
  -24.8840  -27.7340   19.5590 C   0  0  0  0  0  3  0  0  0  0  0  0
  -23.6380  -29.8660   20.2260 C   0  0  0  0  0  2  0  0  0  0  0  0
  -24.6830  -31.1330   22.1510 N   0  0  0  0  0  0  0  0  0  0  0  0
  -23.5290  -32.2180   23.7810 O   0  0  0  0  0  0  0  0  0  0  0  0
  -22.7520  -29.5260   22.5630 C   0  0  0  0  0  0  0  0  0  0  0  0
  -21.4250  -29.3520   22.4340 N   0  0  0  0  0  0  0  0  0  0  0  0
  -23.4270  -28.9010   23.3850 O   0  0  0  0  0  0  0  0  0  0  0  0
  -20.9380  -29.9080   21.7470 H   0  0  0  0  0  0  0  0  0  0  0  0
  -18.0440  -28.1730   22.9420 C   0  0  0  0  0  0  0  0  0  0  0  0
  -20.6040  -28.4160   23.2060 C   0  0  0  0  0  3  0  0  0  0  0  0
  -20.6970  -26.9870   22.6230 C   0  0  0  0  0  2  0  0  0  0  0  0
  -19.5900  -26.6750   21.6120 C   0  0  0  0  0  2  0  0  0  0  0  0
  -18.2090  -26.8270   22.2580 C   0  0  0  0  0  2  0  0  0  0  0  0
  -19.1680  -28.9270   23.3730 C   0  0  0  0  0  0  0  0  0  0  0  0
  -18.9560  -30.1880   23.9700 C   0  0  0  0  0  3  0  0  0  0  0  0
  -17.6550  -30.6950   24.1430 C   0  0  0  0  0  3  0  0  0  0  0  0
  -16.5460  -29.9380   23.7270 C   0  0  0  0  0  3  0  0  0  0  0  0
  -16.7410  -28.6790   23.1320 C   0  0  0  0  0  3  0  0  0  0  0  0
  -25.8940  -32.5770   23.8760 C   0  0  0  0  0  3  0  0  0  0  0  0
  -25.5850  -33.9780   24.2010 N   0  0  0  0  0  0  0  0  0  0  0  0
  -25.9180  -35.0260   23.4360 C   0  0  0  0  0  0  0  0  0  0  0  0
  -26.5870  -34.9180   22.4050 O   0  0  0  0  0  0  0  0  0  0  0  0
  -24.9900  -34.1360   25.0000 H   0  0  0  0  0  0  0  0  0  0  0  0
  -24.1910  -36.8200   23.0780 C   0  0  0  0  0  1  0  0  0  0  0  0
  -25.4330  -36.4170   23.8890 C   0  0  0  0  0  3  0  0  0  0  0  0
  -27.5660  -37.3070   24.7170 C   0  0  0  0  0  1  0  0  0  0  0  0
  -26.4660  -37.4690   23.7710 N   0  0  0  0  0  0  0  0  0  0  0  0
  -26.0590  -38.3900   23.9130 H   0  0  0  0  0  0  0  0  0  0  0  0
  -26.4040  -31.8080   25.1570 C   0  0  1  0  0  0  0  0  0  0  0  0
  -25.3030  -31.5670   26.2170 C   0  0  0  0  0  1  0  0  0  0  0  0
  -26.9920  -30.4330   24.7680 C   0  0  0  0  0  1  0  0  0  0  0  0
  -27.5480  -32.6040   25.8270 C   0  0  0  0  0  1  0  0  0  0  0  0
  1  2  1  0
  3  8  1  0
  3  4  1  0
  3  5  1  0
  4  9  1  0
  4  1  1  0
  5 58  1  0
  5  2  1  0
  6  7  1  0
  6  8  1  0
  7  8  1  0
  9 11  1  0
 10  9  1  0
 11 57  1  0
 12 14  1  0
 13 16  1  0
 14 19  1  0
 14 13  1  0
 15 11  1  0
 15 12  1  0
 15 16  1  0
 16 17  1  0
 18 16  1  0
 20 25  1  0
 21 22  1  0
 21 20  1  0
 23 22  1  0
 23 30  1  0
 23 24  1  0
 25 19  1  0
 25 24  1  0
 26 19  2  0
 27 28  2  0
 28 47  1  0
 29 28  1  0
 29 32  1  0
 30 27  1  0
 30 31  1  0
 31 29  2  0
 32 33  1  0
 33 34  2  0
 35 38  1  0
 35 34  1  0
 36 35  2  0
 37 36  1  0
 37 32  2  0
 38 39  1  0
 39 40  1  0
 40 41  2  0
 42 41  1  0
 42 46  1  0
 43 42  2  0
 44 39  2  0
 44 43  1  0
 45 44  1  0
 47 48  1  0
 48 51  1  0
 48 50  1  0
 49 47  2  0
 52 27  1  0
 53 52  1  0
 54 52  1  0
 56 57  1  0
 57 55  1  0
 59 70  2  0
 60 58  1  0
 60 65  1  0
 61 69  1  0
 61 71  1  0
 62 68  1  0
 62 64  1  0
 63 69  1  0
 64 65  2  0
 64 63  1  0
 66 60  2  0
 67 66  1  0
 67 62  2  0
 68 61  1  0
 69 59  1  0
 71 73  2  0
 72 71  1  0
 74 72  1  0
 75 84  2  0
 75 80  1  0
 76 72  1  0
 76 80  1  0
 77 76  1  0
 78 79  1  0
 78 77  1  0
 79 75  1  0
 80 81  2  0
 81 82  1  0
 83 82  2  0
 84 83  1  0
 85 59  1  0
 85 86  1  0
 85 95  1  0
 86 89  1  0
 87 91  1  0
 87 86  1  0
 88 87  2  0
 91 90  1  0
 93 91  1  0
 93 94  1  0
 93 92  1  0
 95 98  1  1
 95 96  1  0
 97 95  1  0
M  ISO  4   5 101  14 100  19 100  58 101
M  END
>  <TORSDO>  (54) 
F 21

>  <SCORE>  (54) 
-13.813

>  <name>  (54) 
54

>  <ligand_id>  (54) 
54

>  <original_smiles>  (54) 
[H]c1c([H])c([H])c2c(c1[H])C([H])([H])C([H])([H])C([H])([H])C2([H])N([H])C(=O)C1([H])N(C(=O)C([H])(N([H])C(=O)C([H])(N([H])C([H])([H])[H])C([H])([H])[H])C(C([H])([H])[H])(C([H])([H])[H])C([H])([H])[H])C([H])([H])c2c([H])c(OC3([H])C([H])([H])C([H])([H])C([H])(N([H])C([H])(C([H])(C([H])([H])[H])C([H])([H])[H])C4([H])C([H])([H])C([H])(C(=O)N5C([H])([H])C([H])([H])C([H])([H])C([H])(n6nc(-c7c([H])c([H])c(Oc8c([H])c([H])c(F)c([H])c8F)c([H])c7[H])c(C(=O)N([H])[H])c6N([H])[H])C5([H])[H])C([H])([H])[N+]4([H])[H])C3([H])C3([H])C([H])([H])C3([H])[H])c([H])c([H])c2C1([H])[H]

>  <smiles>  (54) 
[H]c1c([H])c([H])c2c(c1[H])C([H])([H])C([H])([H])C([H])([H])C2([H])N([H])C(=O)C1([H])N(C(=O)C([H])(N([H])C(=O)C([H])(N([H])C([H])([H])[H])C([H])([H])[H])C(C([H])([H])[H])(C([H])([H])[H])C([H])([H])[H])C([H])([H])c2c([H])c(OC3([H])C([H])([H])C([H])([H])C([H])(N([H])C([H])(C([H])(C([H])([H])[H])C([H])([H])[H])C4([H])C([H])([H])C([H])(C(=O)N5C([H])([H])C([H])([H])C([H])([H])C([H])(n6nc(-c7c([H])c([H])c(Oc8c([H])c([H])c(F)c([H])c8F)c([H])c7[H])c(C(=O)N([H])[H])c6N([H])[H])C5([H])[H])C([H])([H])[N+]4([H])[H])C3([H])C3([H])C([H])([H])C3([H])[H])c([H])c([H])c2C1([H])[H]

$$$$
55:0:0
     RDKit          3D

 95 99  0  0  1  0  0  0  0  0999 V2000
  -25.3030  -25.6530   20.6300 C   0  0  0  0  0  2  0  0  0  0  0  0
  -26.6620  -23.4750   21.2040 C   0  0  0  0  0  2  0  0  0  0  0  0
  -24.3900  -24.4450   20.4810 C   0  0  0  0  0  0  0  0  0  0  0  0
  -25.4740  -23.2120   20.4770 C   0  0  0  0  0  3  0  0  0  0  0  0
  -26.7820  -25.7140   20.8600 C   0  0  0  0  0  0  0  0  0  0  0  0
  -27.3450  -24.6080   21.3070 N   0  0  0  0  0  0  0  0  0  0  0  0
  -21.9910  -26.1200   20.3350 C   0  0  0  0  0  2  0  0  0  0  0  0
  -22.4580  -24.7180   20.4150 C   0  0  0  0  0  3  0  0  0  0  0  0
  -20.7330  -25.4970   19.5730 C   0  0  0  0  0  1  0  0  0  0  0  0
  -19.8240  -25.1320   16.9650 C   0  0  0  0  0  2  0  0  0  0  0  0
  -20.2570  -25.6310   15.8870 O   0  0  0  0  0  1  0  0  0  0  0  0
  -18.9350  -24.3230   16.5610 O   0  0  0  0  0  1  0  0  0  0  0  0
  -27.8360  -26.7480   20.7810 O   0  0  0  0  0  0  0  0  0  0  0  0
  -24.4550  -32.1340   22.9390 C   0  0  0  0  0  0  0  0  0  0  0  0
  -27.5470  -27.9230   20.1730 C   0  0  0  0  0  0  0  0  0  0  0  0
  -23.7920  -31.0180   20.8790 C   0  0  0  0  0  3  0  0  0  0  0  0
  -25.5340  -29.6870   19.6090 C   0  0  0  0  0  0  0  0  0  0  0  0
  -26.2470  -31.3160   21.3800 C   0  0  0  0  0  2  0  0  0  0  0  0
  -26.4750  -30.0380   20.5900 C   0  0  0  0  0  0  0  0  0  0  0  0
  -27.5230  -29.1440   20.8870 C   0  0  0  0  0  3  0  0  0  0  0  0
  -26.8160  -27.7360   19.0040 C   0  0  0  0  0  3  0  0  0  0  0  0
  -25.7240  -28.5710   18.7810 C   0  0  0  0  0  3  0  0  0  0  0  0
  -24.3130  -30.5550   19.4970 C   0  0  0  0  0  2  0  0  0  0  0  0
  -24.8410  -31.5250   21.7820 N   0  0  0  0  0  0  0  0  0  0  0  0
  -23.2580  -32.3060   23.2220 O   0  0  0  0  0  0  0  0  0  0  0  0
  -23.0900  -29.8810   21.5860 C   0  0  0  0  0  0  0  0  0  0  0  0
  -21.7960  -30.0230   21.6380 N   0  0  0  0  0  0  0  0  0  0  0  0
  -23.6940  -28.9260   22.0940 O   0  0  0  0  0  0  0  0  0  0  0  0
  -21.3330  -30.7140   21.0490 H   0  0  0  0  0  0  0  0  0  0  0  0
  -18.2590  -28.2060   22.6720 C   0  0  0  0  0  0  0  0  0  0  0  0
  -21.1160  -28.8220   21.6820 C   0  0  0  0  0  2  0  0  0  0  0  0
  -20.7840  -28.2660   19.6310 C   0  0  0  0  0 15  0  0  0  0  0  0
  -18.8170  -27.4040   19.3280 C   0  0  0  0  0 15  0  0  0  0  0  0
  -17.6670  -27.3400   21.0870 C   0  0  0  0  0  1  0  0  0  0  0  0
  -19.7370  -28.8060   22.9150 C   0  0  0  0  0  0  0  0  0  0  0  0
  -19.8630  -29.8450   23.8980 C   0  0  0  0  0  3  0  0  0  0  0  0
  -18.7790  -30.4180   24.5970 C   0  0  0  0  0  3  0  0  0  0  0  0
  -17.4770  -29.9660   24.3430 C   0  0  0  0  0  3  0  0  0  0  0  0
  -17.2420  -28.9100   23.4200 C   0  0  0  0  0  3  0  0  0  0  0  0
  -25.5050  -32.6640   23.9440 C   0  0  0  0  0  3  0  0  0  0  0  0
  -25.2030  -34.0850   24.1440 N   0  0  0  0  0  0  0  0  0  0  0  0
  -25.7420  -35.0730   23.4220 C   0  0  0  0  0  0  0  0  0  0  0  0
  -26.6180  -34.8810   22.5750 O   0  0  0  0  0  0  0  0  0  0  0  0
  -24.4540  -34.3060   24.7840 H   0  0  0  0  0  0  0  0  0  0  0  0
  -24.2040  -36.8930   22.6190 C   0  0  0  0  0  1  0  0  0  0  0  0
  -25.2350  -36.5020   23.6900 C   0  0  0  0  0  3  0  0  0  0  0  0
  -27.2090  -37.3420   24.8800 C   0  0  0  0  0  1  0  0  0  0  0  0
  -26.3190  -37.5050   23.7330 N   0  0  0  0  0  0  0  0  0  0  0  0
  -25.9380  -38.4470   23.7590 H   0  0  0  0  0  0  0  0  0  0  0  0
  -25.5050  -31.8870   25.3150 C   0  0  1  0  0  0  0  0  0  0  0  0
  -24.1040  -31.7240   25.9490 C   0  0  0  0  0  1  0  0  0  0  0  0
  -26.1110  -30.4750   25.1430 C   0  0  0  0  0  1  0  0  0  0  0  0
  -26.4050  -32.6390   26.3220 C   0  0  0  0  0  1  0  0  0  0  0  0
  -25.7930  -21.7520   20.0420 O   0  0  0  0  0  0  0  0  0  0  0  0
  -27.2610  -20.8640   20.1450 C   0  0  0  0  0  2  0  0  0  0  0  0
  -27.9010  -19.1320   20.3610 C   0  0  0  0  0  3  0  0  0  0  0  0
  -29.4570  -18.2060   19.9350 C   0  0  0  0  0  3  0  0  0  0  0  0
  -31.1140  -15.6100   19.7270 C   0  0  0  0  0  0  0  0  0  0  0  0
  -31.5220  -13.1350   18.9230 C   0  0  0  0  0  2  0  0  0  0  0  0
  -30.5580  -12.7910   17.7490 C   0  0  0  0  0  2  0  0  0  0  0  0
  -29.1300  -12.5110   18.2590 C   0  0  0  0  0  2  0  0  0  0  0  0
  -28.7210  -13.5320   19.3490 C   0  0  0  0  0  3  0  0  0  0  0  0
  -29.7710  -13.6330   20.4570 C   0  0  0  0  0  2  0  0  0  0  0  0
  -30.9040  -14.2170   19.7870 N   0  0  0  0  0  0  0  0  0  0  0  0
  -32.2550  -15.8610   19.2680 O   0  0  0  0  0  0  0  0  0  0  0  0
  -29.9970  -16.5870   20.0650 N   0  0  0  0  0  0  0  0  0  0  0  0
  -29.2520  -16.0390   20.4690 H   0  0  0  0  0  0  0  0  0  0  0  0
  -26.5290  -14.2170   20.4100 C   0  0  0  0  0  0  0  0  0  0  0  0
  -25.4560  -13.4870   20.8320 C   0  0  0  0  0  0  0  0  0  0  0  0
  -25.7940  -12.1170   20.6030 C   0  0  0  0  0  0  0  0  0  0  0  0
  -27.4330  -13.2870   19.9340 N   0  0  0  0  0  0  0  0  0  0  0  0
  -27.0230  -12.0140   20.1210 N   0  0  0  0  0  0  0  0  0  0  0  0
  -24.9960  -10.9010   20.7460 C   0  0  0  0  0  0  0  0  0  0  0  0
  -25.3270   -9.9080   21.6940 C   0  0  0  0  0  3  0  0  0  0  0  0
  -24.5280   -8.7510   21.8210 C   0  0  0  0  0  3  0  0  0  0  0  0
  -23.3890   -8.5830   20.9960 C   0  0  0  0  0  0  0  0  0  0  0  0
  -23.0820   -9.5640   20.0380 C   0  0  0  0  0  3  0  0  0  0  0  0
  -23.8800  -10.7120   19.9090 C   0  0  0  0  0  3  0  0  0  0  0  0
  -22.5690   -7.4840   21.0330 O   0  0  0  0  0  0  0  0  0  0  0  0
  -22.1740   -6.9200   22.2190 C   0  0  0  0  0  0  0  0  0  0  0  0
  -21.5600   -7.6810   23.2370 C   0  0  0  0  0  3  0  0  0  0  0  0
  -21.1080   -7.0470   24.4120 C   0  0  0  0  0  3  0  0  0  0  0  0
  -21.2600   -5.6560   24.5660 C   0  0  0  0  0  0  0  0  0  0  0  0
  -21.8660   -4.8970   23.5490 C   0  0  0  0  0  3  0  0  0  0  0  0
  -22.3210   -5.5270   22.3780 C   0  0  0  0  0  0  0  0  0  0  0  0
  -22.8860   -4.7890   21.3930 F   0  0  0  0  0  0  0  0  0  0  0  0
  -20.8170   -5.0450   25.6890 F   0  0  0  0  0  0  0  0  0  0  0  0
  -24.1510  -14.0360   21.3190 C   0  0  0  0  0  0  0  0  0  0  0  0
  -23.4940  -13.3310   22.2320 N   0  0  0  0  0  0  0  0  0  0  0  0
  -23.7300  -15.1230   20.9240 O   0  0  0  0  0  0  0  0  0  0  0  0
  -23.8540  -12.4500   22.5700 H   0  0  0  0  0  0  0  0  0  0  0  0
  -22.6200  -13.6770   22.6020 H   0  0  0  0  0  0  0  0  0  0  0  0
  -26.8000  -15.5830   20.3620 N   0  0  0  0  0  0  0  0  0  0  0  0
  -26.0830  -16.2570   20.6020 H   0  0  0  0  0  0  0  0  0  0  0  0
  -27.5570  -15.9910   19.8290 H   0  0  0  0  0  0  0  0  0  0  0  0
  1  5  1  0
  2  6  1  0
  3  1  1  0
  4 54  1  0
  4  3  1  0
  4  2  1  0
  5  6  2  0
  7  8  1  0
  8  3  2  0
  9  7  1  0
 11 10  1  0
 12 10  1  0
 13  5  1  0
 14 25  2  0
 15 13  1  0
 15 20  1  0
 16 26  1  0
 16 24  1  0
 17 19  1  0
 18 24  1  0
 19 20  2  0
 19 18  1  0
 21 15  2  0
 22 21  1  0
 22 17  2  0
 23 17  1  0
 23 16  1  0
 24 14  1  0
 26 27  1  0
 26 28  2  0
 27 31  1  0
 29 27  1  0
 30 35  2  0
 30 39  1  0
 31 35  1  0
 34 30  1  0
 35 36  1  0
 36 37  2  0
 38 37  1  0
 39 38  2  0
 40 14  1  0
 40 41  1  0
 40 50  1  0
 41 44  1  0
 42 46  1  0
 42 41  1  0
 43 42  2  0
 46 45  1  0
 46 48  1  0
 48 49  1  0
 48 47  1  0
 50 51  1  1
 50 53  1  0
 52 50  1  0
 54 55  1  0
 55 56  1  0
 57 66  1  0
 57 56  2  0
 58 64  1  0
 58 66  1  0
 59 64  1  0
 60 61  1  0
 60 59  1  0
 62 61  1  0
 62 71  1  0
 62 63  1  0
 64 63  1  0
 65 58  2  0
 66 67  1  0
 68 69  2  0
 69 88  1  0
 70 73  1  0
 70 69  1  0
 71 72  1  0
 71 68  1  0
 72 70  2  0
 73 74  1  0
 74 75  2  0
 76 79  1  0
 76 75  1  0
 77 76  2  0
 78 77  1  0
 78 73  2  0
 79 80  1  0
 80 85  2  0
 80 81  1  0
 81 82  2  0
 82 83  1  0
 83 87  1  0
 84 83  2  0
 85 84  1  0
 86 85  1  0
 88 89  1  0
 89 91  1  0
 89 92  1  0
 90 88  2  0
 93 68  1  0
 93 94  1  0
 95 93  1  0
M  ISO  4   5 101  13 101  58 100  66 100
M  END
>  <TORSDO>  (55) 
F 22

>  <SCORE>  (55) 
-8.995

>  <name>  (55) 
55

>  <ligand_id>  (55) 
55

>  <original_smiles>  (55) 
[H]c1nc(Oc2c([H])c([H])c3c(c2[H])C([H])([H])N(C(=O)C([H])(N([H])C(=O)C([H])(N([H])C([H])([H])[H])C([H])([H])[H])C(C([H])([H])[H])(C([H])([H])[H])C([H])([H])[H])C([H])(C(=O)N([H])C2([H])c4c([H])c([H])c([H])c([H])c4C([H])([H])C([H])([H])C2([H])[H])C3([H])[H])c([H])c(C2([H])C([H])([H])C2([H])C(=O)[O-])c1OC([H])([H])C([H])([H])C([H])([H])N([H])C(=O)N1C([H])([H])C([H])([H])C([H])([H])C([H])(n2nc(-c3c([H])c([H])c(Oc4c([H])c([H])c(F)c([H])c4F)c([H])c3[H])c(C(=O)N([H])[H])c2N([H])[H])C1([H])[H]

>  <smiles>  (55) 
[H]c1nc(Oc2c([H])c([H])c3c(c2[H])C([H])([H])N(C(=O)C([H])(N([H])C(=O)C([H])(N([H])C([H])([H])[H])C([H])([H])[H])C(C([H])([H])[H])(C([H])([H])[H])C([H])([H])[H])C([H])(C(=O)N([H])C2([H])c4c([H])c([H])c([H])c([H])c4C([H])([H])C([H])([H])C2([H])[H])C3([H])[H])c([H])c(C2([H])C([H])([H])C2([H])C(=O)[O-])c1OC([H])([H])C([H])([H])C([H])([H])N([H])C(=O)N1C([H])([H])C([H])([H])C([H])([H])C([H])(n2nc(-c3c([H])c([H])c(Oc4c([H])c([H])c(F)c([H])c4F)c([H])c3[H])c(C(=O)N([H])[H])c2N([H])[H])C1([H])[H]

$$$$
56:0:0
     RDKit          3D

 92101  0  0  1  0  0  0  0  0999 V2000
  -28.9830  -22.6010   18.9320 C   0  0  0  0  0  3  0  0  0  0  0  0
  -29.0150  -23.0110   21.2540 C   0  0  0  0  0  3  0  0  0  0  0  0
  -29.5060  -20.6310   20.4480 C   0  0  0  0  0  0  0  0  0  0  0  0
  -28.8100  -23.5770   19.9680 C   0  0  0  0  0  0  0  0  0  0  0  0
  -29.3170  -21.2050   19.1440 C   0  0  0  0  0  0  0  0  0  0  0  0
  -29.3330  -21.6180   21.4910 C   0  0  0  0  0  0  0  0  0  0  0  0
  -29.3970  -20.3180   17.9140 C   0  0  0  0  0  1  0  0  0  0  0  0
  -29.4280  -21.2000   22.9520 C   0  0  0  0  0  1  0  0  0  0  0  0
  -31.1050  -18.8900   21.6530 C   0  0  0  0  0  2  0  0  0  0  0  0
  -31.7870  -18.1890   20.4780 C   0  0  0  0  0  2  0  0  0  0  0  0
  -29.8240  -19.0520   20.8050 C   0  0  0  0  0  3  0  0  0  0  0  0
  -30.4030  -17.7090   20.0200 C   0  0  0  0  0  3  0  0  0  0  0  0
  -30.8700  -15.0690   20.3040 C   0  0  0  0  0  0  0  0  0  0  0  0
  -30.7060  -12.7190   19.4270 C   0  0  0  0  0  2  0  0  0  0  0  0
  -29.7840  -12.6840   18.1870 C   0  0  0  0  0  2  0  0  0  0  0  0
  -28.3220  -12.4790   18.6180 C   0  0  0  0  0  2  0  0  0  0  0  0
  -27.9100  -13.4310   19.7740 C   0  0  0  0  0  3  0  0  0  0  0  0
  -28.9580  -13.4710   20.9100 C   0  0  0  0  0  2  0  0  0  0  0  0
  -30.2510  -13.8280   20.3100 N   0  0  0  0  0  0  0  0  0  0  0  0
  -32.0420  -15.1290   19.9230 O   0  0  0  0  0  0  0  0  0  0  0  0
  -30.1320  -16.2480   20.5090 N   0  0  0  0  0  0  0  0  0  0  0  0
  -29.2020  -16.0950   20.8690 H   0  0  0  0  0  0  0  0  0  0  0  0
  -25.5280  -13.9970   20.5270 C   0  0  0  0  0  0  0  0  0  0  0  0
  -24.4660  -13.2140   20.8880 C   0  0  0  0  0  0  0  0  0  0  0  0
  -24.9320  -11.8640   20.8290 C   0  0  0  0  0  0  0  0  0  0  0  0
  -26.5720  -13.1250   20.2690 N   0  0  0  0  0  0  0  0  0  0  0  0
  -26.2220  -11.8350   20.5150 N   0  0  0  0  0  0  0  0  0  0  0  0
  -24.2070  -10.5970   20.9980 C   0  0  0  0  0  0  0  0  0  0  0  0
  -24.6010   -9.6440   21.9640 C   0  0  0  0  0  3  0  0  0  0  0  0
  -23.8740   -8.4440   22.1220 C   0  0  0  0  0  3  0  0  0  0  0  0
  -22.7410   -8.1890   21.3140 C   0  0  0  0  0  0  0  0  0  0  0  0
  -22.3670   -9.1290   20.3390 C   0  0  0  0  0  3  0  0  0  0  0  0
  -23.0940  -10.3220   20.1790 C   0  0  0  0  0  3  0  0  0  0  0  0
  -21.9910   -7.0400   21.3790 O   0  0  0  0  0  0  0  0  0  0  0  0
  -21.7970   -6.3720   22.5620 C   0  0  0  0  0  0  0  0  0  0  0  0
  -21.1690   -6.9840   23.6680 C   0  0  0  0  0  3  0  0  0  0  0  0
  -20.9290   -6.2400   24.8410 C   0  0  0  0  0  3  0  0  0  0  0  0
  -21.3060   -4.8850   24.9060 C   0  0  0  0  0  0  0  0  0  0  0  0
  -21.9260   -4.2730   23.8030 C   0  0  0  0  0  3  0  0  0  0  0  0
  -22.1700   -5.0150   22.6330 C   0  0  0  0  0  0  0  0  0  0  0  0
  -22.7480   -4.4150   21.5650 F   0  0  0  0  0  0  0  0  0  0  0  0
  -21.0690   -4.1680   26.0290 F   0  0  0  0  0  0  0  0  0  0  0  0
  -23.0710  -13.6840   21.1770 C   0  0  0  0  0  0  0  0  0  0  0  0
  -22.3560  -12.9750   22.0440 N   0  0  0  0  0  0  0  0  0  0  0  0
  -22.6240  -14.7130   20.6740 O   0  0  0  0  0  0  0  0  0  0  0  0
  -22.7330  -12.1410   22.4680 H   0  0  0  0  0  0  0  0  0  0  0  0
  -21.4190  -13.2680   22.2870 H   0  0  0  0  0  0  0  0  0  0  0  0
  -25.6880  -15.3700   20.3700 N   0  0  0  0  0  0  0  0  0  0  0  0
  -24.9120  -16.0130   20.4750 H   0  0  0  0  0  0  0  0  0  0  0  0
  -26.5230  -15.8160   20.0130 H   0  0  0  0  0  0  0  0  0  0  0  0
  -28.0630  -24.9950   19.6980 C   0  0  0  0  0  2  0  0  0  0  0  0
  -28.4180  -26.4160   20.1510 O   0  0  0  0  0  0  0  0  0  0  0  0
  -24.6990  -31.8650   23.3680 C   0  0  0  0  0  0  0  0  0  0  0  0
  -27.3740  -27.4020   20.1000 C   0  0  0  0  0  0  0  0  0  0  0  0
  -23.5440  -30.5620   21.6290 C   0  0  0  0  0  3  0  0  0  0  0  0
  -25.0320  -29.1070   20.1390 C   0  0  0  0  0  0  0  0  0  0  0  0
  -26.0980  -30.8660   21.5300 C   0  0  0  0  0  2  0  0  0  0  0  0
  -26.1950  -29.5230   20.7980 C   0  0  0  0  0  0  0  0  0  0  0  0
  -27.3690  -28.6830   20.7730 C   0  0  0  0  0  3  0  0  0  0  0  0
  -26.1850  -27.0990   19.3920 C   0  0  0  0  0  3  0  0  0  0  0  0
  -25.0360  -27.9050   19.4240 C   0  0  0  0  0  3  0  0  0  0  0  0
  -23.7950  -29.9810   20.2140 C   0  0  0  0  0  2  0  0  0  0  0  0
  -24.7990  -31.1130   22.2320 N   0  0  0  0  0  0  0  0  0  0  0  0
  -23.6010  -32.1040   23.8910 O   0  0  0  0  0  0  0  0  0  0  0  0
  -22.8620  -29.4850   22.5090 C   0  0  0  0  0  0  0  0  0  0  0  0
  -21.5420  -29.2950   22.3330 N   0  0  0  0  0  0  0  0  0  0  0  0
  -23.5230  -28.8250   23.3160 O   0  0  0  0  0  0  0  0  0  0  0  0
  -21.0630  -29.8880   21.6680 H   0  0  0  0  0  0  0  0  0  0  0  0
  -18.1690  -28.0160   22.6680 C   0  0  0  0  0  0  0  0  0  0  0  0
  -20.7150  -28.3040   23.0250 C   0  0  0  0  0  3  0  0  0  0  0  0
  -20.8590  -26.9050   22.3810 C   0  0  0  0  0  2  0  0  0  0  0  0
  -19.7910  -26.6150   21.3220 C   0  0  0  0  0  2  0  0  0  0  0  0
  -18.3880  -26.7090   21.9270 C   0  0  0  0  0  2  0  0  0  0  0  0
  -19.2620  -28.7740   23.1690 C   0  0  0  0  0  0  0  0  0  0  0  0
  -19.0030  -30.0000   23.8190 C   0  0  0  0  0  3  0  0  0  0  0  0
  -17.6840  -30.4700   23.9730 C   0  0  0  0  0  3  0  0  0  0  0  0
  -16.6060  -29.7080   23.4890 C   0  0  0  0  0  3  0  0  0  0  0  0
  -16.8490  -28.4830   22.8430 C   0  0  0  0  0  3  0  0  0  0  0  0
  -25.9590  -32.4770   24.0540 C   0  0  0  0  0  3  0  0  0  0  0  0
  -25.6510  -33.8720   24.3960 N   0  0  0  0  0  0  0  0  0  0  0  0
  -25.9730  -34.9330   23.6440 C   0  0  0  0  0  0  0  0  0  0  0  0
  -26.6330  -34.8380   22.6060 O   0  0  0  0  0  0  0  0  0  0  0  0
  -25.0810  -34.0200   25.2160 H   0  0  0  0  0  0  0  0  0  0  0  0
  -24.2290  -36.7180   23.3420 C   0  0  0  0  0  1  0  0  0  0  0  0
  -25.4910  -36.3170   24.1210 C   0  0  0  0  0  3  0  0  0  0  0  0
  -27.6340  -37.2170   24.9130 C   0  0  0  0  0  1  0  0  0  0  0  0
  -26.5160  -37.3770   23.9890 N   0  0  0  0  0  0  0  0  0  0  0  0
  -26.1060  -38.2950   24.1440 H   0  0  0  0  0  0  0  0  0  0  0  0
  -26.4070  -31.6830   25.3420 C   0  0  1  0  0  0  0  0  0  0  0  0
  -25.2620  -31.4410   26.3530 C   0  0  0  0  0  1  0  0  0  0  0  0
  -27.0050  -30.3110   24.9580 C   0  0  0  0  0  1  0  0  0  0  0  0
  -27.5270  -32.4630   26.0720 C   0  0  0  0  0  1  0  0  0  0  0  0
  1  5  2  0
  1  4  1  0
  2  6  1  0
  3  6  2  0
  4  2  2  0
  5  3  1  0
  6  8  1  0
  7  5  1  0
 10  9  1  0
 11  3  1  0
 11  9  1  0
 12 10  1  0
 12 21  1  0
 12 11  1  0
 13 19  1  0
 13 21  1  0
 14 19  1  0
 15 16  1  0
 15 14  1  0
 17 16  1  0
 17 26  1  0
 17 18  1  0
 19 18  1  0
 20 13  2  0
 21 22  1  0
 23 24  2  0
 24 43  1  0
 25 24  1  0
 25 28  1  0
 26 27  1  0
 26 23  1  0
 27 25  2  0
 28 29  1  0
 29 30  2  0
 31 34  1  0
 31 30  1  0
 32 31  2  0
 33 32  1  0
 33 28  2  0
 34 35  1  0
 35 40  2  0
 35 36  1  0
 36 37  2  0
 37 38  1  0
 38 42  1  0
 39 38  2  0
 40 39  1  0
 41 40  1  0
 43 44  1  0
 44 47  1  0
 44 46  1  0
 45 43  2  0
 48 49  1  0
 48 23  1  0
 50 48  1  0
 51  4  1  0
 51 52  1  0
 53 64  2  0
 54 52  1  0
 54 59  1  0
 55 63  1  0
 55 65  1  0
 56 62  1  0
 56 58  1  0
 57 63  1  0
 58 57  1  0
 59 58  2  0
 60 61  1  0
 60 54  2  0
 61 56  2  0
 62 55  1  0
 63 53  1  0
 65 67  2  0
 66 65  1  0
 68 66  1  0
 69 78  2  0
 69 74  1  0
 70 66  1  0
 70 74  1  0
 71 70  1  0
 72 73  1  0
 72 71  1  0
 73 69  1  0
 74 75  2  0
 75 76  1  0
 77 76  2  0
 78 77  1  0
 79 53  1  0
 79 80  1  0
 79 89  1  0
 80 83  1  0
 81 85  1  0
 81 80  1  0
 82 81  2  0
 85 84  1  0
 87 85  1  0
 87 88  1  0
 87 86  1  0
 89 92  1  1
 89 90  1  0
 91 89  1  0
M  ISO  4  13 100  21 100  51 101  52 101
M  END
>  <TORSDO>  (56) 
F 18

>  <SCORE>  (56) 
-14.188

>  <name>  (56) 
56

>  <ligand_id>  (56) 
56

>  <original_smiles>  (56) 
[H]c1c([H])c([H])c2c(c1[H])C([H])([H])C([H])([H])C([H])([H])C2([H])N([H])C(=O)C1([H])N(C(=O)C([H])(N([H])C(=O)C([H])(N([H])C([H])([H])[H])C([H])([H])[H])C(C([H])([H])[H])(C([H])([H])[H])C([H])([H])[H])C([H])([H])c2c([H])c(OC([H])([H])c3c([H])c(C([H])([H])[H])c(C4([H])C([H])([H])C([H])([H])C4([H])N([H])C(=O)N4C([H])([H])C([H])([H])C([H])([H])C([H])(n5nc(-c6c([H])c([H])c(Oc7c([H])c([H])c(F)c([H])c7F)c([H])c6[H])c(C(=O)N([H])[H])c5N([H])[H])C4([H])[H])c(C([H])([H])[H])c3[H])c([H])c([H])c2C1([H])[H]

>  <smiles>  (56) 
[H]c1c([H])c([H])c2c(c1[H])C([H])([H])C([H])([H])C([H])([H])C2([H])N([H])C(=O)C1([H])N(C(=O)C([H])(N([H])C(=O)C([H])(N([H])C([H])([H])[H])C([H])([H])[H])C(C([H])([H])[H])(C([H])([H])[H])C([H])([H])[H])C([H])([H])c2c([H])c(OC([H])([H])c3c([H])c(C([H])([H])[H])c(C4([H])C([H])([H])C([H])([H])C4([H])N([H])C(=O)N4C([H])([H])C([H])([H])C([H])([H])C([H])(n5nc(-c6c([H])c([H])c(Oc7c([H])c([H])c(F)c([H])c7F)c([H])c6[H])c(C(=O)N([H])[H])c5N([H])[H])C4([H])[H])c(C([H])([H])[H])c3[H])c([H])c([H])c2C1([H])[H]

$$$$
57:0:0
     RDKit          3D

 95104  0  0  1  0  0  0  0  0999 V2000
  -27.7090  -20.0760   20.2560 C   0  0  0  0  0  3  0  0  0  0  0  0
  -26.5830  -19.3340   19.8620 C   0  0  0  0  0  3  0  0  0  0  0  0
  -27.9930  -17.3830   19.5800 C   0  0  0  0  0  3  0  0  0  0  0  0
  -28.9950  -19.4950   20.3210 C   0  0  0  0  0  0  0  0  0  0  0  0
  -29.1200  -18.0920   20.0480 C   0  0  0  0  0  0  0  0  0  0  0  0
  -26.7200  -17.9750   19.5110 C   0  0  0  0  0  0  0  0  0  0  0  0
  -31.5050  -19.5670   20.7460 C   0  0  0  0  0  2  0  0  0  0  0  0
  -31.3730  -18.0930   21.1920 C   0  0  0  0  0  2  0  0  0  0  0  0
  -30.1810  -20.3730   20.7810 C   0  0  0  0  0  3  0  0  0  0  0  0
  -30.4290  -17.3040   20.2640 C   0  0  0  0  0  3  0  0  0  0  0  0
  -31.0450  -14.8430   20.5980 C   0  0  0  0  0  0  0  0  0  0  0  0
  -30.9460  -12.4990   19.8260 C   0  0  0  0  0  2  0  0  0  0  0  0
  -30.0520  -12.4380   18.5690 C   0  0  0  0  0  2  0  0  0  0  0  0
  -28.5730  -12.2620   18.9640 C   0  0  0  0  0  2  0  0  0  0  0  0
  -28.1210  -13.2560   20.0650 C   0  0  0  0  0  3  0  0  0  0  0  0
  -29.1370  -13.3060   21.2300 C   0  0  0  0  0  2  0  0  0  0  0  0
  -30.4600  -13.6120   20.6600 N   0  0  0  0  0  0  0  0  0  0  0  0
  -32.2090  -14.9970   20.2190 O   0  0  0  0  0  0  0  0  0  0  0  0
  -30.2150  -15.9070   20.7450 N   0  0  0  0  0  0  0  0  0  0  0  0
  -29.2820  -15.6920   21.0600 H   0  0  0  0  0  0  0  0  0  0  0  0
  -25.7410  -13.8510   20.8400 C   0  0  0  0  0  0  0  0  0  0  0  0
  -24.6580  -13.0720   21.1440 C   0  0  0  0  0  0  0  0  0  0  0  0
  -25.0930  -11.7200   21.0010 C   0  0  0  0  0  0  0  0  0  0  0  0
  -26.7660  -12.9700   20.5280 N   0  0  0  0  0  0  0  0  0  0  0  0
  -26.3810  -11.6790   20.6870 N   0  0  0  0  0  0  0  0  0  0  0  0
  -24.3430  -10.4610   21.0900 C   0  0  0  0  0  0  0  0  0  0  0  0
  -24.6920   -9.4600   22.0230 C   0  0  0  0  0  3  0  0  0  0  0  0
  -23.9450   -8.2660   22.1030 C   0  0  0  0  0  3  0  0  0  0  0  0
  -22.8350   -8.0640   21.2490 C   0  0  0  0  0  0  0  0  0  0  0  0
  -22.5050   -9.0540   20.3060 C   0  0  0  0  0  3  0  0  0  0  0  0
  -23.2530  -10.2410   20.2240 C   0  0  0  0  0  3  0  0  0  0  0  0
  -22.0670   -6.9250   21.2380 O   0  0  0  0  0  0  0  0  0  0  0  0
  -21.8070   -6.2230   22.3870 C   0  0  0  0  0  0  0  0  0  0  0  0
  -21.1370   -6.8080   23.4840 C   0  0  0  0  0  3  0  0  0  0  0  0
  -20.8290   -6.0290   24.6170 C   0  0  0  0  0  3  0  0  0  0  0  0
  -21.1820   -4.6670   24.6530 C   0  0  0  0  0  0  0  0  0  0  0  0
  -21.8450   -4.0820   23.5600 C   0  0  0  0  0  3  0  0  0  0  0  0
  -22.1540   -4.8570   22.4290 C   0  0  0  0  0  0  0  0  0  0  0  0
  -22.7740   -4.2840   21.3690 F   0  0  0  0  0  0  0  0  0  0  0  0
  -20.8790   -3.9160   25.7370 F   0  0  0  0  0  0  0  0  0  0  0  0
  -23.2700  -13.5550   21.4540 C   0  0  0  0  0  0  0  0  0  0  0  0
  -22.5310  -12.8090   22.2670 N   0  0  0  0  0  0  0  0  0  0  0  0
  -22.8500  -14.6230   21.0110 O   0  0  0  0  0  0  0  0  0  0  0  0
  -22.8830  -11.9430   22.6460 H   0  0  0  0  0  0  0  0  0  0  0  0
  -21.5990  -13.1090   22.5150 H   0  0  0  0  0  0  0  0  0  0  0  0
  -25.9290  -15.2260   20.7840 N   0  0  0  0  0  0  0  0  0  0  0  0
  -25.1640  -15.8670   20.9580 H   0  0  0  0  0  0  0  0  0  0  0  0
  -26.7430  -15.6830   20.3940 H   0  0  0  0  0  0  0  0  0  0  0  0
  -24.3810  -17.4860   19.6500 C   0  0  0  0  0  1  0  0  0  0  0  0
  -25.6690  -17.1700   19.1310 O   0  0  0  0  0  0  0  0  0  0  0  0
  -30.3920  -21.7690   20.0580 C   0  0  0  0  0  2  0  0  0  0  0  0
  -29.2490  -22.8470   20.0520 C   0  0  0  0  0  2  0  0  0  0  0  0
  -29.6740  -24.3620   19.9830 C   0  0  0  0  0  2  0  0  0  0  0  0
  -28.4810  -25.3290   19.6910 C   0  0  0  0  0  2  0  0  0  0  0  0
  -28.6450  -26.7490   19.9810 O   0  0  0  0  0  0  0  0  0  0  0  0
  -24.7000  -31.7700   23.2500 C   0  0  0  0  0  0  0  0  0  0  0  0
  -27.4800  -27.5190   19.9620 C   0  0  0  0  0  0  0  0  0  0  0  0
  -23.5480  -30.4190   21.5340 C   0  0  0  0  0  3  0  0  0  0  0  0
  -25.0550  -29.0070   20.0330 C   0  0  0  0  0  0  0  0  0  0  0  0
  -26.0730  -30.8450   21.3800 C   0  0  0  0  0  2  0  0  0  0  0  0
  -26.2010  -29.5120   20.6610 C   0  0  0  0  0  0  0  0  0  0  0  0
  -27.4180  -28.7790   20.6200 C   0  0  0  0  0  3  0  0  0  0  0  0
  -26.3090  -27.0580   19.3110 C   0  0  0  0  0  3  0  0  0  0  0  0
  -25.1070  -27.7850   19.3510 C   0  0  0  0  0  3  0  0  0  0  0  0
  -23.7880  -29.8280   20.1200 C   0  0  0  0  0  2  0  0  0  0  0  0
  -24.7920  -31.0250   22.1120 N   0  0  0  0  0  0  0  0  0  0  0  0
  -23.6070  -31.9840   23.7940 O   0  0  0  0  0  0  0  0  0  0  0  0
  -22.9210  -29.3280   22.4330 C   0  0  0  0  0  0  0  0  0  0  0  0
  -21.6060  -29.1020   22.2720 N   0  0  0  0  0  0  0  0  0  0  0  0
  -23.6120  -28.6950   23.2340 O   0  0  0  0  0  0  0  0  0  0  0  0
  -21.1100  -29.6680   21.5990 H   0  0  0  0  0  0  0  0  0  0  0  0
  -18.2710  -27.7470   22.6430 C   0  0  0  0  0  0  0  0  0  0  0  0
  -20.8110  -28.0970   22.9820 C   0  0  0  0  0  3  0  0  0  0  0  0
  -20.9860  -26.7000   22.3460 C   0  0  0  0  0  2  0  0  0  0  0  0
  -19.9190  -26.3770   21.2940 C   0  0  0  0  0  2  0  0  0  0  0  0
  -18.5180  -26.4360   21.9120 C   0  0  0  0  0  2  0  0  0  0  0  0
  -19.3480  -28.5360   23.1280 C   0  0  0  0  0  0  0  0  0  0  0  0
  -19.0660  -29.7630   23.7660 C   0  0  0  0  0  3  0  0  0  0  0  0
  -17.7390  -30.2030   23.9250 C   0  0  0  0  0  3  0  0  0  0  0  0
  -16.6760  -29.4110   23.4580 C   0  0  0  0  0  3  0  0  0  0  0  0
  -16.9430  -28.1860   22.8200 C   0  0  0  0  0  3  0  0  0  0  0  0
  -25.9620  -32.4070   23.9120 C   0  0  0  0  0  3  0  0  0  0  0  0
  -25.6380  -33.8030   24.2370 N   0  0  0  0  0  0  0  0  0  0  0  0
  -25.9500  -34.8540   23.4670 C   0  0  0  0  0  0  0  0  0  0  0  0
  -26.6160  -34.7520   22.4330 O   0  0  0  0  0  0  0  0  0  0  0  0
  -25.0480  -33.9540   25.0420 H   0  0  0  0  0  0  0  0  0  0  0  0
  -24.1810  -36.6080   23.1270 C   0  0  0  0  0  1  0  0  0  0  0  0
  -25.4440  -36.2380   23.9180 C   0  0  0  0  0  3  0  0  0  0  0  0
  -27.5710  -37.1800   24.7030 C   0  0  0  0  0  1  0  0  0  0  0  0
  -26.4540  -37.3080   23.7710 N   0  0  0  0  0  0  0  0  0  0  0  0
  -26.0310  -38.2220   23.9060 H   0  0  0  0  0  0  0  0  0  0  0  0
  -26.4430  -31.6330   25.2020 C   0  0  1  0  0  0  0  0  0  0  0  0
  -25.3190  -31.3890   26.2370 C   0  0  0  0  0  1  0  0  0  0  0  0
  -27.0440  -30.2600   24.8240 C   0  0  0  0  0  1  0  0  0  0  0  0
  -27.5720  -32.4320   25.8990 C   0  0  0  0  0  1  0  0  0  0  0  0
  1  4  1  0
  2  1  2  0
  3  5  1  0
  4  9  1  0
  5 10  1  0
  5  4  2  0
  6  3  2  0
  6  2  1  0
  7  9  1  0
  7  8  1  0
  9 51  1  0
 10 19  1  0
 10  8  1  0
 11 17  1  0
 11 19  1  0
 12 17  1  0
 13 14  1  0
 13 12  1  0
 15 14  1  0
 15 24  1  0
 15 16  1  0
 17 16  1  0
 18 11  2  0
 19 20  1  0
 21 22  2  0
 22 41  1  0
 23 26  1  0
 23 22  1  0
 24 25  1  0
 24 21  1  0
 25 23  2  0
 26 27  1  0
 27 28  2  0
 29 28  1  0
 30 29  2  0
 31 30  1  0
 31 26  2  0
 32 29  1  0
 32 33  1  0
 33 38  2  0
 33 34  1  0
 34 35  2  0
 35 36  1  0
 36 40  1  0
 37 36  2  0
 38 37  1  0
 39 38  1  0
 41 42  1  0
 42 45  1  0
 42 44  1  0
 43 41  2  0
 46 21  1  0
 46 47  1  0
 48 46  1  0
 50  6  1  0
 50 49  1  0
 52 51  1  0
 53 52  1  0
 54 55  1  0
 54 53  1  0
 56 67  2  0
 57 55  1  0
 57 62  1  0
 58 66  1  0
 58 68  1  0
 59 65  1  0
 59 61  1  0
 60 66  1  0
 61 60  1  0
 62 61  2  0
 63 64  1  0
 63 57  2  0
 64 59  2  0
 65 58  1  0
 66 56  1  0
 68 70  2  0
 69 68  1  0
 71 69  1  0
 72 81  2  0
 72 77  1  0
 73 69  1  0
 73 77  1  0
 74 73  1  0
 75 76  1  0
 75 74  1  0
 76 72  1  0
 77 78  2  0
 78 79  1  0
 80 79  2  0
 81 80  1  0
 82 56  1  0
 82 83  1  0
 82 92  1  0
 83 86  1  0
 84 88  1  0
 84 83  1  0
 85 84  2  0
 88 87  1  0
 90 91  1  0
 90 88  1  0
 90 89  1  0
 92 95  1  1
 92 93  1  0
 94 92  1  0
M  ISO  4  11 100  19 100  54 101  55 101
M  END
>  <TORSDO>  (57) 
F 21

>  <SCORE>  (57) 
-10.719

>  <name>  (57) 
57

>  <ligand_id>  (57) 
57

>  <original_smiles>  (57) 
[H]c1c([H])c([H])c2c(c1[H])C([H])([H])C([H])([H])C([H])([H])C2([H])N([H])C(=O)C1([H])N(C(=O)C([H])(N([H])C(=O)C([H])(N([H])C([H])([H])[H])C([H])([H])[H])C(C([H])([H])[H])(C([H])([H])[H])C([H])([H])[H])C([H])([H])c2c([H])c(OC([H])([H])C([H])([H])C([H])([H])C([H])([H])C3([H])c4c([H])c([H])c(OC([H])([H])[H])c([H])c4C([H])(N([H])C(=O)N4C([H])([H])C([H])([H])C([H])([H])C([H])(n5nc(-c6c([H])c([H])c(Oc7c([H])c([H])c(F)c([H])c7F)c([H])c6[H])c(C(=O)N([H])[H])c5N([H])[H])C4([H])[H])C([H])([H])C3([H])[H])c([H])c([H])c2C1([H])[H]

>  <smiles>  (57) 
[H]c1c([H])c([H])c2c(c1[H])C([H])([H])C([H])([H])C([H])([H])C2([H])N([H])C(=O)C1([H])N(C(=O)C([H])(N([H])C(=O)C([H])(N([H])C([H])([H])[H])C([H])([H])[H])C(C([H])([H])[H])(C([H])([H])[H])C([H])([H])[H])C([H])([H])c2c([H])c(OC([H])([H])C([H])([H])C([H])([H])C([H])([H])C3([H])c4c([H])c([H])c(OC([H])([H])[H])c([H])c4C([H])(N([H])C(=O)N4C([H])([H])C([H])([H])C([H])([H])C([H])(n5nc(-c6c([H])c([H])c(Oc7c([H])c([H])c(F)c([H])c7F)c([H])c6[H])c(C(=O)N([H])[H])c5N([H])[H])C4([H])[H])C([H])([H])C3([H])[H])c([H])c([H])c2C1([H])[H]

$$$$
58:0:0
     RDKit          3D

 94103  0  0  1  0  0  0  0  0999 V2000
  -30.6910  -21.6680   20.3880 C   0  0  0  0  0  3  0  0  0  0  0  0
  -31.1250  -20.3310   20.2600 C   0  0  0  0  0  3  0  0  0  0  0  0
  -28.4370  -20.9750   19.8220 C   0  0  0  0  0  3  0  0  0  0  0  0
  -28.8590  -19.6320   19.6950 C   0  0  0  0  0  0  0  0  0  0  0  0
  -29.3360  -22.0030   20.1700 C   0  0  0  0  0  0  0  0  0  0  0  0
  -30.2130  -19.2950   19.9320 C   0  0  0  0  0  0  0  0  0  0  0  0
  -26.5130  -18.4590   19.9640 C   0  0  0  0  0  2  0  0  0  0  0  0
  -27.5640  -17.4030   20.2030 C   0  0  0  0  0  2  0  0  0  0  0  0
  -27.8650  -18.5750   19.2990 C   0  0  0  0  0  3  0  0  0  0  0  0
  -28.8200  -23.2740   20.3210 O   0  0  0  0  0  0  0  0  0  0  0  0
  -29.5770  -24.4020   19.8600 C   0  0  0  0  0  2  0  0  0  0  0  0
  -28.5850  -25.4390   19.2840 C   0  0  0  0  0  2  0  0  0  0  0  0
  -28.5050  -26.6640   20.0350 O   0  0  0  0  0  0  0  0  0  0  0  0
  -24.6930  -31.7540   23.2230 C   0  0  0  0  0  0  0  0  0  0  0  0
  -27.3250  -27.3920   20.0070 C   0  0  0  0  0  0  0  0  0  0  0  0
  -23.4830  -30.4160   21.5310 C   0  0  0  0  0  3  0  0  0  0  0  0
  -24.9310  -28.9200   20.0610 C   0  0  0  0  0  0  0  0  0  0  0  0
  -26.0140  -30.7660   21.3540 C   0  0  0  0  0  2  0  0  0  0  0  0
  -26.0920  -29.4170   20.6670 C   0  0  0  0  0  0  0  0  0  0  0  0
  -27.2860  -28.6610   20.6390 C   0  0  0  0  0  3  0  0  0  0  0  0
  -26.1400  -26.9250   19.3860 C   0  0  0  0  0  3  0  0  0  0  0  0
  -24.9500  -27.6740   19.4190 C   0  0  0  0  0  3  0  0  0  0  0  0
  -23.6920  -29.7840   20.1310 C   0  0  0  0  0  2  0  0  0  0  0  0
  -24.7490  -30.9930   22.0940 N   0  0  0  0  0  0  0  0  0  0  0  0
  -23.6130  -32.0100   23.7710 O   0  0  0  0  0  0  0  0  0  0  0  0
  -22.8230  -29.3670   22.4560 C   0  0  0  0  0  0  0  0  0  0  0  0
  -21.4940  -29.2120   22.3350 N   0  0  0  0  0  0  0  0  0  0  0  0
  -23.5040  -28.6990   23.2380 O   0  0  0  0  0  0  0  0  0  0  0  0
  -21.0050  -29.8010   21.6760 H   0  0  0  0  0  0  0  0  0  0  0  0
  -18.1000  -28.0790   22.8390 C   0  0  0  0  0  0  0  0  0  0  0  0
  -20.6680  -28.2610   23.0780 C   0  0  0  0  0  3  0  0  0  0  0  0
  -20.7260  -26.8550   22.4360 C   0  0  0  0  0  2  0  0  0  0  0  0
  -19.6000  -26.6080   21.4270 C   0  0  0  0  0  2  0  0  0  0  0  0
  -18.2320  -26.7590   22.0980 C   0  0  0  0  0  2  0  0  0  0  0  0
  -19.2440  -28.7930   23.2830 C   0  0  0  0  0  0  0  0  0  0  0  0
  -19.0670  -30.0370   23.9290 C   0  0  0  0  0  3  0  0  0  0  0  0
  -17.7780  -30.5610   24.1420 C   0  0  0  0  0  3  0  0  0  0  0  0
  -16.6490  -29.8430   23.7140 C   0  0  0  0  0  3  0  0  0  0  0  0
  -16.8100  -28.6050   23.0650 C   0  0  0  0  0  3  0  0  0  0  0  0
  -25.9810  -32.3570   23.8660 C   0  0  0  0  0  3  0  0  0  0  0  0
  -25.6880  -33.7510   24.2230 N   0  0  0  0  0  0  0  0  0  0  0  0
  -26.0440  -34.8150   23.4900 C   0  0  0  0  0  0  0  0  0  0  0  0
  -26.7210  -34.7250   22.4620 O   0  0  0  0  0  0  0  0  0  0  0  0
  -25.0900  -33.8960   25.0240 H   0  0  0  0  0  0  0  0  0  0  0  0
  -24.3310  -36.6240   23.1590 C   0  0  0  0  0  1  0  0  0  0  0  0
  -25.5650  -36.1970   23.9700 C   0  0  0  0  0  3  0  0  0  0  0  0
  -27.7080  -37.0380   24.8240 C   0  0  0  0  0  1  0  0  0  0  0  0
  -26.6070  -37.2430   23.8850 N   0  0  0  0  0  0  0  0  0  0  0  0
  -26.2070  -38.1610   24.0600 H   0  0  0  0  0  0  0  0  0  0  0  0
  -26.4820  -31.5510   25.1270 C   0  0  1  0  0  0  0  0  0  0  0  0
  -25.3800  -31.2970   26.1810 C   0  0  0  0  0  1  0  0  0  0  0  0
  -27.0610  -30.1810   24.7050 C   0  0  0  0  0  1  0  0  0  0  0  0
  -27.6320  -32.3200   25.8170 C   0  0  0  0  0  1  0  0  0  0  0  0
  -30.5660  -17.9600   19.8280 O   0  0  0  0  0  0  0  0  0  0  0  0
  -31.9120  -17.5790   20.1110 C   0  0  0  0  0  2  0  0  0  0  0  0
  -31.9320  -16.4640   21.1740 C   0  0  0  0  0  2  0  0  0  0  0  0
  -31.4650  -14.3820   19.9230 C   0  0  0  0  0  0  0  0  0  0  0  0
  -31.0020  -12.1490   18.9830 C   0  0  0  0  0  2  0  0  0  0  0  0
  -30.0380  -12.2230   17.7870 C   0  0  0  0  0  2  0  0  0  0  0  0
  -28.5740  -12.1970   18.2650 C   0  0  0  0  0  2  0  0  0  0  0  0
  -28.2960  -13.2110   19.4040 C   0  0  0  0  0  3  0  0  0  0  0  0
  -29.3680  -13.1050   20.5120 C   0  0  0  0  0  2  0  0  0  0  0  0
  -30.6960  -13.2630   19.8930 N   0  0  0  0  0  0  0  0  0  0  0  0
  -32.4650  -14.5390   19.2180 O   0  0  0  0  0  0  0  0  0  0  0  0
  -31.1200  -15.2970   20.8280 N   0  0  0  0  0  0  0  0  0  0  0  0
  -30.2960  -15.1150   21.3820 H   0  0  0  0  0  0  0  0  0  0  0  0
  -25.9910  -14.0110   20.2330 C   0  0  0  0  0  0  0  0  0  0  0  0
  -24.8760  -13.3280   20.6400 C   0  0  0  0  0  0  0  0  0  0  0  0
  -25.2160  -11.9410   20.5680 C   0  0  0  0  0  0  0  0  0  0  0  0
  -26.9450  -13.0480   19.9420 N   0  0  0  0  0  0  0  0  0  0  0  0
  -26.4820  -11.7960   20.1980 N   0  0  0  0  0  0  0  0  0  0  0  0
  -24.3930  -10.7430   20.7750 C   0  0  0  0  0  0  0  0  0  0  0  0
  -24.7670   -9.7400   21.6980 C   0  0  0  0  0  3  0  0  0  0  0  0
  -23.9480   -8.6070   21.8930 C   0  0  0  0  0  3  0  0  0  0  0  0
  -22.7410   -8.4680   21.1660 C   0  0  0  0  0  0  0  0  0  0  0  0
  -22.3860   -9.4580   20.2320 C   0  0  0  0  0  3  0  0  0  0  0  0
  -23.2050  -10.5820   20.0340 C   0  0  0  0  0  3  0  0  0  0  0  0
  -21.8970   -7.3890   21.2700 O   0  0  0  0  0  0  0  0  0  0  0  0
  -21.7870   -6.6710   22.4340 C   0  0  0  0  0  0  0  0  0  0  0  0
  -21.4170   -7.2820   23.6530 C   0  0  0  0  0  3  0  0  0  0  0  0
  -21.2460   -6.4960   24.8110 C   0  0  0  0  0  3  0  0  0  0  0  0
  -21.4360   -5.1030   24.7500 C   0  0  0  0  0  0  0  0  0  0  0  0
  -21.7990   -4.4920   23.5360 C   0  0  0  0  0  3  0  0  0  0  0  0
  -21.9710   -5.2750   22.3810 C   0  0  0  0  0  0  0  0  0  0  0  0
  -22.2990   -4.6800   21.2100 F   0  0  0  0  0  0  0  0  0  0  0  0
  -21.2640   -4.3460   25.8590 F   0  0  0  0  0  0  0  0  0  0  0  0
  -23.5410  -13.9180   20.9860 C   0  0  0  0  0  0  0  0  0  0  0  0
  -22.8020  -13.2780   21.8870 N   0  0  0  0  0  0  0  0  0  0  0  0
  -23.1620  -14.9790   20.4920 O   0  0  0  0  0  0  0  0  0  0  0  0
  -23.1230  -12.4190   22.3060 H   0  0  0  0  0  0  0  0  0  0  0  0
  -21.9040  -13.6510   22.1570 H   0  0  0  0  0  0  0  0  0  0  0  0
  -26.2630  -15.3650   20.0670 N   0  0  0  0  0  0  0  0  0  0  0  0
  -25.5660  -16.0790   20.2410 H   0  0  0  0  0  0  0  0  0  0  0  0
  -27.1370  -15.7380   19.7180 H   0  0  0  0  0  0  0  0  0  0  0  0
  2  1  1  0
  3  5  1  0
  4  3  2  0
  4  6  1  0
  5 10  1  0
  5  1  2  0
  6  2  2  0
  7  8  1  0
  9  4  1  0
  9  7  1  0
  9  8  1  0
 11 10  1  0
 12 11  1  0
 12 13  1  0
 14 25  2  0
 15 13  1  0
 15 20  1  0
 16 24  1  0
 16 26  1  0
 17 23  1  0
 17 19  1  0
 18 24  1  0
 19 18  1  0
 20 19  2  0
 21 22  1  0
 21 15  2  0
 22 17  2  0
 23 16  1  0
 24 14  1  0
 26 28  2  0
 27 26  1  0
 29 27  1  0
 30 39  2  0
 30 35  1  0
 31 27  1  0
 31 35  1  0
 32 31  1  0
 33 34  1  0
 33 32  1  0
 34 30  1  0
 35 36  2  0
 36 37  1  0
 38 37  2  0
 39 38  1  0
 40 14  1  0
 40 41  1  0
 40 50  1  0
 41 44  1  0
 42 46  1  0
 42 41  1  0
 43 42  2  0
 46 45  1  0
 48 46  1  0
 48 49  1  0
 48 47  1  0
 50 53  1  1
 50 51  1  0
 52 50  1  0
 54  6  1  0
 54 55  1  0
 55 56  1  0
 57 65  1  0
 58 63  1  0
 59 60  1  0
 59 58  1  0
 61 60  1  0
 61 70  1  0
 61 62  1  0
 63 57  1  0
 63 62  1  0
 64 57  2  0
 65 56  1  0
 65 66  1  0
 67 68  2  0
 68 87  1  0
 69 68  1  0
 69 72  1  0
 70 71  1  0
 70 67  1  0
 71 69  2  0
 72 73  1  0
 73 74  2  0
 75 78  1  0
 75 74  1  0
 76 75  2  0
 77 76  1  0
 77 72  2  0
 78 79  1  0
 79 80  1  0
 80 81  2  0
 82 81  1  0
 82 86  1  0
 83 82  2  0
 84 79  2  0
 84 83  1  0
 85 84  1  0
 87 88  1  0
 88 91  1  0
 88 90  1  0
 89 87  2  0
 92 67  1  0
 92 93  1  0
 94 92  1  0
M  ISO  4  12 101  13 101  57 100  65 100
M  END
>  <TORSDO>  (58) 
F 23

>  <SCORE>  (58) 
-12.147

>  <name>  (58) 
58

>  <ligand_id>  (58) 
58

>  <original_smiles>  (58) 
[H]c1c([H])c([H])c2c(c1[H])C([H])([H])C([H])([H])C([H])([H])C2([H])N([H])C(=O)C1([H])N(C(=O)C([H])(N([H])C(=O)C([H])(N([H])C([H])([H])[H])C([H])([H])[H])C(C([H])([H])[H])(C([H])([H])[H])C([H])([H])[H])C([H])([H])c2c([H])c(OC([H])([H])C([H])([H])Oc3c([H])c([H])c(OC([H])([H])C([H])([H])N([H])C(=O)N4C([H])([H])C([H])([H])C([H])([H])C([H])(n5nc(-c6c([H])c([H])c(Oc7c([H])c([H])c(F)c([H])c7F)c([H])c6[H])c(C(=O)N([H])[H])c5N([H])[H])C4([H])[H])c(C4([H])C([H])([H])C4([H])[H])c3[H])c([H])c([H])c2C1([H])[H]

>  <smiles>  (58) 
[H]c1c([H])c([H])c2c(c1[H])C([H])([H])C([H])([H])C([H])([H])C2([H])N([H])C(=O)C1([H])N(C(=O)C([H])(N([H])C(=O)C([H])(N([H])C([H])([H])[H])C([H])([H])[H])C(C([H])([H])[H])(C([H])([H])[H])C([H])([H])[H])C([H])([H])c2c([H])c(OC([H])([H])C([H])([H])Oc3c([H])c([H])c(OC([H])([H])C([H])([H])N([H])C(=O)N4C([H])([H])C([H])([H])C([H])([H])C([H])(n5nc(-c6c([H])c([H])c(Oc7c([H])c([H])c(F)c([H])c7F)c([H])c6[H])c(C(=O)N([H])[H])c5N([H])[H])C4([H])[H])c(C4([H])C([H])([H])C4([H])[H])c3[H])c([H])c([H])c2C1([H])[H]

$$$$
59:0:0
     RDKit          3D

 93101  0  0  1  0  0  0  0  0999 V2000
  -30.3340  -21.2760   21.1760 C   0  0  0  0  0  3  0  0  0  0  0  0
  -29.9870  -19.8640   19.2660 C   0  0  0  0  0  3  0  0  0  0  0  0
  -30.3380  -19.9740   20.6270 C   0  0  0  0  0  0  0  0  0  0  0  0
  -29.9940  -22.4060   20.3920 C   0  0  0  0  0  0  0  0  0  0  0  0
  -29.6810  -22.1590   19.0170 C   0  0  0  0  0  0  0  0  0  0  0  0
  -29.2990  -23.2040   17.9810 C   0  0  0  0  0  1  0  0  0  0  0  0
  -29.6820  -20.9180   18.4890 N   0  0  0  0  0  0  0  0  0  0  0  0
  -30.6760  -18.8580   21.4210 N   0  0  0  0  0  0  0  0  0  0  0  0
  -30.9820  -18.9760   22.3870 H   0  0  0  0  0  0  0  0  0  0  0  0
  -30.3450  -17.5190   20.9450 C   0  0  0  0  0  2  0  0  0  0  0  0
  -30.7600  -16.4120   21.9250 C   0  0  0  0  0  2  0  0  0  0  0  0
  -30.7180  -14.3830   20.4700 C   0  0  0  0  0  0  0  0  0  0  0  0
  -30.3360  -12.3690   19.0920 C   0  0  0  0  0  2  0  0  0  0  0  0
  -29.3510  -12.6390   17.9380 C   0  0  0  0  0  2  0  0  0  0  0  0
  -27.8900  -12.4900   18.4010 C   0  0  0  0  0  2  0  0  0  0  0  0
  -27.6020  -13.2720   19.7100 C   0  0  0  0  0  3  0  0  0  0  0  0
  -28.6720  -12.9440   20.7720 C   0  0  0  0  0  2  0  0  0  0  0  0
  -29.9970  -13.2630   20.2090 N   0  0  0  0  0  0  0  0  0  0  0  0
  -31.7360  -14.7010   19.8470 O   0  0  0  0  0  0  0  0  0  0  0  0
  -30.2340  -15.1330   21.4710 N   0  0  0  0  0  0  0  0  0  0  0  0
  -29.3780  -14.8110   21.9010 H   0  0  0  0  0  0  0  0  0  0  0  0
  -25.2150  -13.8880   20.4580 C   0  0  0  0  0  0  0  0  0  0  0  0
  -24.1510  -13.1150   20.8450 C   0  0  0  0  0  0  0  0  0  0  0  0
  -24.6090  -11.7640   20.8030 C   0  0  0  0  0  0  0  0  0  0  0  0
  -26.2540  -13.0050   20.2070 N   0  0  0  0  0  0  0  0  0  0  0  0
  -25.8920  -11.7230   20.4690 N   0  0  0  0  0  0  0  0  0  0  0  0
  -23.8870  -10.5020   21.0060 C   0  0  0  0  0  0  0  0  0  0  0  0
  -24.3400   -9.5310   21.9260 C   0  0  0  0  0  3  0  0  0  0  0  0
  -23.6180   -8.3320   22.1150 C   0  0  0  0  0  3  0  0  0  0  0  0
  -22.4300   -8.0970   21.3830 C   0  0  0  0  0  0  0  0  0  0  0  0
  -21.9970   -9.0570   20.4510 C   0  0  0  0  0  3  0  0  0  0  0  0
  -22.7190  -10.2450   20.2600 C   0  0  0  0  0  3  0  0  0  0  0  0
  -21.6780   -6.9510   21.4820 O   0  0  0  0  0  0  0  0  0  0  0  0
  -21.6570   -6.2020   22.6310 C   0  0  0  0  0  0  0  0  0  0  0  0
  -21.2700   -6.7510   23.8720 C   0  0  0  0  0  3  0  0  0  0  0  0
  -21.1950   -5.9280   25.0130 C   0  0  0  0  0  3  0  0  0  0  0  0
  -21.4980   -4.5570   24.9150 C   0  0  0  0  0  0  0  0  0  0  0  0
  -21.8780   -4.0070   23.6780 C   0  0  0  0  0  3  0  0  0  0  0  0
  -21.9550   -4.8270   22.5380 C   0  0  0  0  0  0  0  0  0  0  0  0
  -22.3010   -4.2890   21.3440 F   0  0  0  0  0  0  0  0  0  0  0  0
  -21.4180   -3.7640   26.0070 F   0  0  0  0  0  0  0  0  0  0  0  0
  -22.7600  -13.5930   21.1470 C   0  0  0  0  0  0  0  0  0  0  0  0
  -22.0480  -12.8930   22.0240 N   0  0  0  0  0  0  0  0  0  0  0  0
  -22.3120  -14.6200   20.6390 O   0  0  0  0  0  0  0  0  0  0  0  0
  -22.4230  -12.0620   22.4570 H   0  0  0  0  0  0  0  0  0  0  0  0
  -21.1140  -13.1930   22.2650 H   0  0  0  0  0  0  0  0  0  0  0  0
  -25.3770  -15.2580   20.2820 N   0  0  0  0  0  0  0  0  0  0  0  0
  -24.6180  -15.9170   20.4130 H   0  0  0  0  0  0  0  0  0  0  0  0
  -26.2310  -15.6960   19.9580 H   0  0  0  0  0  0  0  0  0  0  0  0
  -30.0070  -23.6000   21.0990 O   0  0  0  0  0  0  0  0  0  0  0  0
  -29.8560  -24.8930   20.5110 C   0  0  0  0  0  2  0  0  0  0  0  0
  -28.4220  -25.4420   20.6280 C   0  0  0  0  0  2  0  0  0  0  0  0
  -28.4320  -26.8020   20.1930 O   0  0  0  0  0  0  0  0  0  0  0  0
  -24.5390  -31.9080   23.2250 C   0  0  0  0  0  0  0  0  0  0  0  0
  -27.2340  -27.4710   20.2070 C   0  0  0  0  0  0  0  0  0  0  0  0
  -23.3510  -30.4890   21.5810 C   0  0  0  0  0  3  0  0  0  0  0  0
  -24.8240  -28.9440   20.1840 C   0  0  0  0  0  0  0  0  0  0  0  0
  -25.8720  -30.8670   21.3970 C   0  0  0  0  0  2  0  0  0  0  0  0
  -25.9700  -29.4880   20.7760 C   0  0  0  0  0  0  0  0  0  0  0  0
  -27.1780  -28.7590   20.7830 C   0  0  0  0  0  3  0  0  0  0  0  0
  -26.0710  -26.9320   19.6120 C   0  0  0  0  0  3  0  0  0  0  0  0
  -24.8670  -27.6640   19.6010 C   0  0  0  0  0  3  0  0  0  0  0  0
  -23.5750  -29.7960   20.2090 C   0  0  0  0  0  2  0  0  0  0  0  0
  -24.6050  -31.1040   22.1260 N   0  0  0  0  0  0  0  0  0  0  0  0
  -23.4530  -32.1790   23.7560 O   0  0  0  0  0  0  0  0  0  0  0  0
  -22.6990  -29.4730   22.5440 C   0  0  0  0  0  0  0  0  0  0  0  0
  -21.3750  -29.2910   22.4110 N   0  0  0  0  0  0  0  0  0  0  0  0
  -23.3780  -28.8510   23.3660 O   0  0  0  0  0  0  0  0  0  0  0  0
  -20.8900  -29.8450   21.7190 H   0  0  0  0  0  0  0  0  0  0  0  0
  -17.9930  -28.1140   22.9030 C   0  0  0  0  0  0  0  0  0  0  0  0
  -20.5520  -28.3580   23.1790 C   0  0  0  0  0  3  0  0  0  0  0  0
  -20.6480  -26.9280   22.6010 C   0  0  0  0  0  2  0  0  0  0  0  0
  -19.5470  -26.6130   21.5840 C   0  0  0  0  0  2  0  0  0  0  0  0
  -18.1640  -26.7640   22.2260 C   0  0  0  0  0  2  0  0  0  0  0  0
  -19.1160  -28.8700   23.3340 C   0  0  0  0  0  0  0  0  0  0  0  0
  -18.9020  -30.1350   23.9250 C   0  0  0  0  0  3  0  0  0  0  0  0
  -17.6010  -30.6430   24.0870 C   0  0  0  0  0  3  0  0  0  0  0  0
  -16.4930  -29.8850   23.6730 C   0  0  0  0  0  3  0  0  0  0  0  0
  -16.6910  -28.6230   23.0850 C   0  0  0  0  0  3  0  0  0  0  0  0
  -25.8200  -32.5460   23.8510 C   0  0  0  0  0  3  0  0  0  0  0  0
  -25.5020  -33.9430   24.1750 N   0  0  0  0  0  0  0  0  0  0  0  0
  -25.8440  -34.9940   23.4180 C   0  0  0  0  0  0  0  0  0  0  0  0
  -26.5310  -34.8920   22.3970 O   0  0  0  0  0  0  0  0  0  0  0  0
  -24.8990  -34.0950   24.9680 H   0  0  0  0  0  0  0  0  0  0  0  0
  -24.1200  -36.7830   23.0260 C   0  0  0  0  0  1  0  0  0  0  0  0
  -25.3450  -36.3820   23.8630 C   0  0  0  0  0  3  0  0  0  0  0  0
  -27.4660  -37.2660   24.7330 C   0  0  0  0  0  1  0  0  0  0  0  0
  -26.3780  -37.4360   23.7710 N   0  0  0  0  0  0  0  0  0  0  0  0
  -25.9680  -38.3550   23.9160 H   0  0  0  0  0  0  0  0  0  0  0  0
  -26.3370  -31.7760   25.1280 C   0  0  1  0  0  0  0  0  0  0  0  0
  -25.2410  -31.5280   26.1900 C   0  0  0  0  0  1  0  0  0  0  0  0
  -26.9300  -30.4030   24.7330 C   0  0  0  0  0  1  0  0  0  0  0  0
  -27.4840  -32.5750   25.7940 C   0  0  0  0  0  1  0  0  0  0  0  0
  2  3  2  0
  3  1  1  0
  3  8  1  0
  4 50  1  0
  4  1  2  0
  5  4  1  0
  6  5  1  0
  7  5  2  0
  7  2  1  0
  8  9  1  0
 10  8  1  0
 10 11  1  0
 12 20  1  0
 13 18  1  0
 14 15  1  0
 14 13  1  0
 16 15  1  0
 16 25  1  0
 16 17  1  0
 18 12  1  0
 18 17  1  0
 19 12  2  0
 20 21  1  0
 20 11  1  0
 22 23  2  0
 23 42  1  0
 24 23  1  0
 24 27  1  0
 25 22  1  0
 25 26  1  0
 26 24  2  0
 27 28  1  0
 28 29  2  0
 30 33  1  0
 30 29  1  0
 31 30  2  0
 32 31  1  0
 32 27  2  0
 33 34  1  0
 34 35  1  0
 35 36  2  0
 37 36  1  0
 37 41  1  0
 38 37  2  0
 39 34  2  0
 39 38  1  0
 40 39  1  0
 42 43  1  0
 43 46  1  0
 43 45  1  0
 44 42  2  0
 47 48  1  0
 47 22  1  0
 49 47  1  0
 51 52  1  0
 51 50  1  0
 53 55  1  0
 53 52  1  0
 54 65  2  0
 55 60  1  0
 56 64  1  0
 56 66  1  0
 57 63  1  0
 57 59  1  0
 58 64  1  0
 59 60  2  0
 59 58  1  0
 61 55  2  0
 62 61  1  0
 62 57  2  0
 63 56  1  0
 64 54  1  0
 66 68  2  0
 67 66  1  0
 69 67  1  0
 70 79  2  0
 70 75  1  0
 71 67  1  0
 71 75  1  0
 72 71  1  0
 73 74  1  0
 73 72  1  0
 74 70  1  0
 75 76  2  0
 76 77  1  0
 78 77  2  0
 79 78  1  0
 80 54  1  0
 80 81  1  0
 80 90  1  0
 81 84  1  0
 82 86  1  0
 82 81  1  0
 83 82  2  0
 86 85  1  0
 88 86  1  0
 88 89  1  0
 88 87  1  0
 90 93  1  1
 90 91  1  0
 92 90  1  0
M  ISO  4  12 100  20 100  52 101  53 101
M  END
>  <TORSDO>  (59) 
F 22

>  <SCORE>  (59) 
-13.396

>  <name>  (59) 
59

>  <ligand_id>  (59) 
59

>  <original_smiles>  (59) 
[H]c1nc(C([H])([H])[H])c(OC([H])([H])C([H])([H])Oc2c([H])c([H])c3c(c2[H])C([H])([H])N(C(=O)C([H])(N([H])C(=O)C([H])(N([H])C([H])([H])[H])C([H])([H])[H])C(C([H])([H])[H])(C([H])([H])[H])C([H])([H])[H])C([H])(C(=O)N([H])C2([H])c4c([H])c([H])c([H])c([H])c4C([H])([H])C([H])([H])C2([H])[H])C3([H])[H])c([H])c1N([H])C([H])([H])C([H])([H])N([H])C(=O)N1C([H])([H])C([H])([H])C([H])([H])C([H])(n2nc(-c3c([H])c([H])c(Oc4c([H])c([H])c(F)c([H])c4F)c([H])c3[H])c(C(=O)N([H])[H])c2N([H])[H])C1([H])[H]

>  <smiles>  (59) 
[H]c1nc(C([H])([H])[H])c(OC([H])([H])C([H])([H])Oc2c([H])c([H])c3c(c2[H])C([H])([H])N(C(=O)C([H])(N([H])C(=O)C([H])(N([H])C([H])([H])[H])C([H])([H])[H])C(C([H])([H])[H])(C([H])([H])[H])C([H])([H])[H])C([H])(C(=O)N([H])C2([H])c4c([H])c([H])c([H])c([H])c4C([H])([H])C([H])([H])C2([H])[H])C3([H])[H])c([H])c1N([H])C([H])([H])C([H])([H])N([H])C(=O)N1C([H])([H])C([H])([H])C([H])([H])C([H])(n2nc(-c3c([H])c([H])c(Oc4c([H])c([H])c(F)c([H])c4F)c([H])c3[H])c(C(=O)N([H])[H])c2N([H])[H])C1([H])[H]

$$$$
60:0:0
     RDKit          3D

 95104  0  0  1  0  0  0  0  0999 V2000
  -30.5040  -27.5970   12.9530 C   0  0  0  0  0  3  0  0  0  0  0  0
  -30.4500  -26.8720   15.2740 C   0  0  0  0  0  3  0  0  0  0  0  0
  -31.8990  -27.7560   13.0190 C   0  0  0  0  0  0  0  0  0  0  0  0
  -32.5900  -27.4510   14.2190 C   0  0  0  0  0  0  0  0  0  0  0  0
  -31.8740  -26.9590   15.3430 C   0  0  0  0  0  0  0  0  0  0  0  0
  -29.7510  -27.2060   14.0770 C   0  0  0  0  0  0  0  0  0  0  0  0
  -32.6270  -28.2270   11.7700 C   0  0  0  0  0  1  0  0  0  0  0  0
  -34.1080  -27.6170   14.2930 C   0  0  0  0  0  1  0  0  0  0  0  0
  -32.6510  -26.5180   16.4400 N   0  0  0  0  0  0  0  0  0  0  0  0
  -33.6120  -26.2780   16.2180 H   0  0  0  0  0  0  0  0  0  0  0  0
  -34.0720  -26.9230   21.1440 C   0  0  0  0  0  0  0  0  0  0  0  0
  -35.9760  -27.7950   22.4350 C   0  0  0  0  0  2  0  0  0  0  0  0
  -36.4330  -29.1150   21.7810 C   0  0  0  0  0  2  0  0  0  0  0  0
  -37.4660  -28.8330   20.6720 C   0  0  0  0  0  2  0  0  0  0  0  0
  -36.9930  -27.7400   19.6780 C   0  0  0  0  0  3  0  0  0  0  0  0
  -36.4600  -26.5000   20.4340 C   0  0  0  0  0  2  0  0  0  0  0  0
  -35.4160  -26.9580   21.3610 N   0  0  0  0  0  0  0  0  0  0  0  0
  -33.2660  -27.1170   22.0590 O   0  0  0  0  0  0  0  0  0  0  0  0
  -32.4020  -28.2980   18.1490 C   0  0  0  0  0  2  0  0  0  0  0  0
  -32.7820  -28.3630   19.6260 C   0  0  0  0  0  2  0  0  0  0  0  0
  -33.5490  -26.2870   18.7620 C   0  0  0  0  0  2  0  0  0  0  0  0
  -32.4050  -26.8060   17.8500 C   0  0  0  0  0  3  0  0  0  0  0  0
  -33.6920  -27.2380   19.8760 N   0  0  0  0  0  0  0  0  0  0  0  0
  -39.2560  -26.7590   18.9500 C   0  0  0  0  0  0  0  0  0  0  0  0
  -39.8260  -26.5930   17.7150 C   0  0  0  0  0  0  0  0  0  0  0  0
  -38.9020  -27.1450   16.7770 C   0  0  0  0  0  0  0  0  0  0  0  0
  -38.0420  -27.3890   18.7240 N   0  0  0  0  0  0  0  0  0  0  0  0
  -37.8620  -27.6710   17.4100 N   0  0  0  0  0  0  0  0  0  0  0  0
  -38.9180  -27.1490   15.3090 C   0  0  0  0  0  0  0  0  0  0  0  0
  -37.9950  -26.3860   14.5600 C   0  0  0  0  0  3  0  0  0  0  0  0
  -38.0160  -26.4220   13.1490 C   0  0  0  0  0  3  0  0  0  0  0  0
  -38.9630  -27.2280   12.4740 C   0  0  0  0  0  0  0  0  0  0  0  0
  -39.8960  -27.9660   13.2250 C   0  0  0  0  0  3  0  0  0  0  0  0
  -39.8770  -27.9260   14.6290 C   0  0  0  0  0  3  0  0  0  0  0  0
  -39.0770  -27.3050   11.1070 O   0  0  0  0  0  0  0  0  0  0  0  0
  -40.1850  -26.8340   10.4510 C   0  0  0  0  0  0  0  0  0  0  0  0
  -41.2530  -27.6820   10.0880 C   0  0  0  0  0  3  0  0  0  0  0  0
  -42.4030  -27.1450    9.4760 C   0  0  0  0  0  3  0  0  0  0  0  0
  -42.4910  -25.7610    9.2340 C   0  0  0  0  0  0  0  0  0  0  0  0
  -41.4320  -24.9130    9.6020 C   0  0  0  0  0  3  0  0  0  0  0  0
  -40.2820  -25.4490   10.2090 C   0  0  0  0  0  0  0  0  0  0  0  0
  -39.2730  -24.6250   10.5800 F   0  0  0  0  0  0  0  0  0  0  0  0
  -43.5990  -25.2430    8.6530 F   0  0  0  0  0  0  0  0  0  0  0  0
  -41.1120  -25.8760   17.4110 C   0  0  0  0  0  0  0  0  0  0  0  0
  -41.0500  -24.5650   17.2050 N   0  0  0  0  0  0  0  0  0  0  0  0
  -42.1750  -26.4870   17.3050 O   0  0  0  0  0  0  0  0  0  0  0  0
  -40.1770  -24.0630   17.2740 H   0  0  0  0  0  0  0  0  0  0  0  0
  -41.8890  -24.0510   16.9760 H   0  0  0  0  0  0  0  0  0  0  0  0
  -39.6520  -26.4090   20.2360 N   0  0  0  0  0  0  0  0  0  0  0  0
  -40.4980  -25.8800   20.4140 H   0  0  0  0  0  0  0  0  0  0  0  0
  -39.0790  -26.5320   21.0600 H   0  0  0  0  0  0  0  0  0  0  0  0
  -28.3840  -27.0110   13.9330 O   0  0  0  0  0  0  0  0  0  0  0  0
  -27.5230  -27.2180   15.0770 C   0  0  0  0  0  2  0  0  0  0  0  0
  -26.8730  -25.9740   15.7610 C   0  0  0  0  0  2  0  0  0  0  0  0
  -27.7160  -25.0600   16.5160 O   0  0  0  0  0  0  0  0  0  0  0  0
  -22.8440  -26.1180   21.6460 C   0  0  0  0  0  0  0  0  0  0  0  0
  -27.2330  -24.6600   17.7610 C   0  0  0  0  0  0  0  0  0  0  0  0
  -24.8300  -24.8000   22.2850 C   0  0  0  0  0  3  0  0  0  0  0  0
  -26.2940  -23.9950   20.3620 C   0  0  0  0  0  0  0  0  0  0  0  0
  -23.9840  -24.7900   19.8660 C   0  0  0  0  0  2  0  0  0  0  0  0
  -25.4160  -24.5520   19.4240 C   0  0  0  0  0  0  0  0  0  0  0  0
  -25.8770  -24.8820   18.1220 C   0  0  0  0  0  3  0  0  0  0  0  0
  -28.0780  -24.0520   18.7230 C   0  0  0  0  0  3  0  0  0  0  0  0
  -27.6260  -23.7380   20.0130 C   0  0  0  0  0  3  0  0  0  0  0  0
  -25.7480  -23.6790   21.7360 C   0  0  0  0  0  2  0  0  0  0  0  0
  -23.8540  -25.2880   21.2590 N   0  0  0  0  0  0  0  0  0  0  0  0
  -22.7010  -26.4450   22.8330 O   0  0  0  0  0  0  0  0  0  0  0  0
  -25.7150  -25.9240   22.8760 C   0  0  0  0  0  0  0  0  0  0  0  0
  -25.2390  -26.5560   23.9610 N   0  0  0  0  0  0  0  0  0  0  0  0
  -26.8110  -26.1940   22.3750 O   0  0  0  0  0  0  0  0  0  0  0  0
  -24.3280  -26.2850   24.3030 H   0  0  0  0  0  0  0  0  0  0  0  0
  -24.8210  -29.8860   25.3040 C   0  0  0  0  0  0  0  0  0  0  0  0
  -25.9140  -27.6220   24.7020 C   0  0  0  0  0  3  0  0  0  0  0  0
  -25.9110  -27.3350   26.2220 C   0  0  0  0  0  2  0  0  0  0  0  0
  -24.7270  -27.9710   26.9560 C   0  0  0  0  0  2  0  0  0  0  0  0
  -24.7290  -29.4900   26.7670 C   0  0  0  0  0  2  0  0  0  0  0  0
  -25.3620  -29.0040   24.3300 C   0  0  0  0  0  0  0  0  0  0  0  0
  -25.3890  -29.4090   22.9790 C   0  0  0  0  0  3  0  0  0  0  0  0
  -24.8940  -30.6690   22.5940 C   0  0  0  0  0  3  0  0  0  0  0  0
  -24.3750  -31.5450   23.5630 C   0  0  0  0  0  3  0  0  0  0  0  0
  -24.3410  -31.1550   24.9140 C   0  0  0  0  0  3  0  0  0  0  0  0
  -21.8100  -26.6760   20.6210 C   0  0  0  0  0  3  0  0  0  0  0  0
  -20.4830  -25.8260   20.5530 C   0  0  1  0  0  0  0  0  0  0  0  0
  -19.2840  -26.4840   21.2770 C   0  0  0  0  0  1  0  0  0  0  0  0
  -20.0670  -25.5730   19.0850 C   0  0  0  0  0  1  0  0  0  0  0  0
  -20.7200  -24.4360   21.1890 C   0  0  0  0  0  1  0  0  0  0  0  0
  -22.4690  -26.7190   19.3090 N   0  0  0  0  0  0  0  0  0  0  0  0
  -23.0760  -27.7990   18.7980 C   0  0  0  0  0  0  0  0  0  0  0  0
  -23.0770  -28.8950   19.3640 O   0  0  0  0  0  0  0  0  0  0  0  0
  -22.5590  -25.8400   18.8200 H   0  0  0  0  0  0  0  0  0  0  0  0
  -24.5650  -28.9240   17.1130 C   0  0  0  0  0  1  0  0  0  0  0  0
  -23.7960  -27.6350   17.4460 C   0  0  0  0  0  3  0  0  0  0  0  0
  -23.0370  -25.9210   15.8610 C   0  0  0  0  0  1  0  0  0  0  0  0
  -22.8860  -27.2960   16.3320 N   0  0  0  0  0  0  0  0  0  0  0  0
  -23.0320  -27.9200   15.5440 H   0  0  0  0  0  0  0  0  0  0  0  0
  1  3  2  0
  1  6  1  0
  2  5  1  0
  3  4  1  0
  4  8  1  0
  4  5  2  0
  5  9  1  0
  6  2  2  0
  7  3  1  0
 10  9  1  0
 11 17  1  0
 11 18  2  0
 13 12  1  0
 14 13  1  0
 15 27  1  0
 15 16  1  0
 15 14  1  0
 16 17  1  0
 17 12  1  0
 19 20  1  0
 20 23  1  0
 21 23  1  0
 22  9  1  0
 22 19  1  0
 22 21  1  0
 23 11  1  0
 24 49  1  0
 25 24  2  0
 26 28  2  0
 26 25  1  0
 27 24  1  0
 28 27  1  0
 29 26  1  0
 30 29  2  0
 31 30  1  0
 32 31  2  0
 32 33  1  0
 33 34  2  0
 34 29  1  0
 35 32  1  0
 36 35  1  0
 37 36  2  0
 38 37  1  0
 39 38  2  0
 39 40  1  0
 40 41  2  0
 41 36  1  0
 41 42  1  0
 43 39  1  0
 44 25  1  0
 45 47  1  0
 45 44  1  0
 46 44  2  0
 48 45  1  0
 49 50  1  0
 49 51  1  0
 52  6  1  0
 52 53  1  0
 53 54  1  0
 54 55  1  0
 55 57  1  0
 56 67  2  0
 57 62  2  0
 57 63  1  0
 58 68  1  0
 59 65  1  0
 60 66  1  0
 61 60  1  0
 61 59  2  0
 62 61  1  0
 63 64  2  0
 64 59  1  0
 65 58  1  0
 66 56  1  0
 66 58  1  0
 68 69  1  0
 69 71  1  0
 70 68  2  0
 72 76  1  0
 73 69  1  0
 73 74  1  0
 74 75  1  0
 76 75  1  0
 77 73  1  0
 77 72  2  0
 78 77  1  0
 79 78  2  0
 79 80  1  0
 80 81  2  0
 81 72  1  0
 82 56  1  0
 83 82  1  0
 83 86  1  1
 83 84  1  0
 85 83  1  0
 87 82  1  0
 88 87  1  0
 88 89  2  0
 90 87  1  0
 92 91  1  0
 92 88  1  0
 93 94  1  0
 94 92  1  0
 95 94  1  0
M  ISO  4  11 100  23 100  54 101  55 101
M  END
>  <TORSDO>  (60) 
F 20

>  <SCORE>  (60) 
-4.684

>  <name>  (60) 
60

>  <ligand_id>  (60) 
60

>  <original_smiles>  (60) 
[H]c1c([H])c([H])c2c(c1[H])C([H])([H])C([H])([H])C([H])([H])C2([H])N([H])C(=O)C1([H])N(C(=O)C([H])(N([H])C(=O)C([H])(N([H])C([H])([H])[H])C([H])([H])[H])C(C([H])([H])[H])(C([H])([H])[H])C([H])([H])[H])C([H])([H])c2c([H])c(OC([H])([H])C([H])([H])Oc3c([H])c(N([H])C4([H])C([H])([H])N(C(=O)N5C([H])([H])C([H])([H])C([H])([H])C([H])(n6nc(-c7c([H])c([H])c(Oc8c([H])c([H])c(F)c([H])c8F)c([H])c7[H])c(C(=O)N([H])[H])c6N([H])[H])C5([H])[H])C([H])([H])C4([H])[H])c(C([H])([H])[H])c(C([H])([H])[H])c3[H])c([H])c([H])c2C1([H])[H]

>  <smiles>  (60) 
[H]c1c([H])c([H])c2c(c1[H])C([H])([H])C([H])([H])C([H])([H])C2([H])N([H])C(=O)C1([H])N(C(=O)C([H])(N([H])C(=O)C([H])(N([H])C([H])([H])[H])C([H])([H])[H])C(C([H])([H])[H])(C([H])([H])[H])C([H])([H])[H])C([H])([H])c2c([H])c(OC([H])([H])C([H])([H])Oc3c([H])c(N([H])C4([H])C([H])([H])N(C(=O)N5C([H])([H])C([H])([H])C([H])([H])C([H])(n6nc(-c7c([H])c([H])c(Oc8c([H])c([H])c(F)c([H])c8F)c([H])c7[H])c(C(=O)N([H])[H])c6N([H])[H])C5([H])[H])C([H])([H])C4([H])[H])c(C([H])([H])[H])c(C([H])([H])[H])c3[H])c([H])c([H])c2C1([H])[H]

$$$$
61:0:0
     RDKit          3D

 97105  0  0  1  0  0  0  0  0999 V2000
  -27.4090  -23.2930   21.3250 C   0  0  0  0  0  3  0  0  0  0  0  0
  -28.6440  -22.3090   19.4880 C   0  0  0  0  0  3  0  0  0  0  0  0
  -28.4230  -22.9270   22.2250 C   0  0  0  0  0  0  0  0  0  0  0  0
  -29.6030  -22.2730   21.7570 C   0  0  0  0  0  0  0  0  0  0  0  0
  -29.6970  -21.9530   20.3640 C   0  0  0  0  0  0  0  0  0  0  0  0
  -27.5260  -23.0100   19.9540 C   0  0  0  0  0  0  0  0  0  0  0  0
  -28.1970  -23.2800   23.6890 C   0  0  0  0  0  1  0  0  0  0  0  0
  -31.8650  -23.0370   22.6550 C   0  0  0  0  0  1  0  0  0  0  0  0
  -31.2640  -20.5340   22.8210 C   0  0  0  0  0  1  0  0  0  0  0  0
  -30.7390  -21.9890   22.7690 C   0  0  0  0  0  3  0  0  0  0  0  0
  -30.8360  -21.3280   19.8330 N   0  0  0  0  0  0  0  0  0  0  0  0
  -31.6620  -21.4280   20.4110 H   0  0  0  0  0  0  0  0  0  0  0  0
  -30.6820  -20.0390   19.1590 C   0  0  0  0  0  2  0  0  0  0  0  0
  -31.2190  -18.8820   20.0190 C   0  0  0  0  0  2  0  0  0  0  0  0
  -31.6710  -17.6960   19.1460 C   0  0  0  0  0  2  0  0  0  0  0  0
  -32.2080  -15.3190   19.5600 C   0  0  0  0  0  0  0  0  0  0  0  0
  -32.1660  -12.8560   19.5980 C   0  0  0  0  0  2  0  0  0  0  0  0
  -31.2990  -12.3490   18.4300 C   0  0  0  0  0  2  0  0  0  0  0  0
  -29.8120  -12.2920   18.8250 C   0  0  0  0  0  2  0  0  0  0  0  0
  -29.3200  -13.5980   19.5060 C   0  0  0  0  0  3  0  0  0  0  0  0
  -30.3040  -14.0500   20.6090 C   0  0  0  0  0  2  0  0  0  0  0  0
  -31.6470  -14.1680   20.0060 N   0  0  0  0  0  0  0  0  0  0  0  0
  -33.2530  -15.3680   18.9010 O   0  0  0  0  0  0  0  0  0  0  0  0
  -31.5060  -16.4190   19.8330 N   0  0  0  0  0  0  0  0  0  0  0  0
  -30.7000  -16.2880   20.4250 H   0  0  0  0  0  0  0  0  0  0  0  0
  -27.0220  -14.4210   20.3330 C   0  0  0  0  0  0  0  0  0  0  0  0
  -25.8890  -13.7470   20.7010 C   0  0  0  0  0  0  0  0  0  0  0  0
  -26.1930  -12.3590   20.5760 C   0  0  0  0  0  0  0  0  0  0  0  0
  -27.9580  -13.4470   20.0210 N   0  0  0  0  0  0  0  0  0  0  0  0
  -27.4640  -12.1950   20.2180 N   0  0  0  0  0  0  0  0  0  0  0  0
  -25.3360  -11.1740   20.7310 C   0  0  0  0  0  0  0  0  0  0  0  0
  -25.5910  -10.2020   21.7250 C   0  0  0  0  0  3  0  0  0  0  0  0
  -24.7480   -9.0820   21.8650 C   0  0  0  0  0  3  0  0  0  0  0  0
  -23.6320   -8.9250   21.0110 C   0  0  0  0  0  0  0  0  0  0  0  0
  -23.3940   -9.8830   20.0100 C   0  0  0  0  0  3  0  0  0  0  0  0
  -24.2370  -10.9960   19.8680 C   0  0  0  0  0  3  0  0  0  0  0  0
  -22.7710   -7.8550   21.0580 O   0  0  0  0  0  0  0  0  0  0  0  0
  -22.3550   -7.3130   22.2470 C   0  0  0  0  0  0  0  0  0  0  0  0
  -21.6850   -8.0870   23.2180 C   0  0  0  0  0  3  0  0  0  0  0  0
  -21.2100   -7.4780   24.3970 C   0  0  0  0  0  3  0  0  0  0  0  0
  -21.3960   -6.1000   24.6030 C   0  0  0  0  0  0  0  0  0  0  0  0
  -22.0590   -5.3260   23.6350 C   0  0  0  0  0  3  0  0  0  0  0  0
  -22.5340   -5.9310   22.4560 C   0  0  0  0  0  0  0  0  0  0  0  0
  -23.1520   -5.1760   21.5170 F   0  0  0  0  0  0  0  0  0  0  0  0
  -20.9310   -5.5100   25.7320 F   0  0  0  0  0  0  0  0  0  0  0  0
  -24.5630  -14.3560   21.0600 C   0  0  0  0  0  0  0  0  0  0  0  0
  -23.8120  -13.7110   21.9440 N   0  0  0  0  0  0  0  0  0  0  0  0
  -24.2100  -15.4350   20.5900 O   0  0  0  0  0  0  0  0  0  0  0  0
  -24.1120  -12.8370   22.3450 H   0  0  0  0  0  0  0  0  0  0  0  0
  -22.9230  -14.1040   22.2250 H   0  0  0  0  0  0  0  0  0  0  0  0
  -27.3330  -15.7740   20.2300 N   0  0  0  0  0  0  0  0  0  0  0  0
  -26.6450  -16.4990   20.4040 H   0  0  0  0  0  0  0  0  0  0  0  0
  -28.2190  -16.1390   19.9020 H   0  0  0  0  0  0  0  0  0  0  0  0
  -26.5780  -23.4280   19.0590 O   0  0  0  0  0  0  0  0  0  0  0  0
  -26.4700  -24.8450   19.0140 C   0  0  0  0  0  2  0  0  0  0  0  0
  -25.7670  -25.3030   17.7350 C   0  0  0  0  0  2  0  0  0  0  0  0
  -25.9510  -26.7110   17.6000 O   0  0  0  0  0  0  0  0  0  0  0  0
  -25.2640  -30.0790   23.7980 C   0  0  0  0  0  0  0  0  0  0  0  0
  -25.1650  -27.5730   18.3390 C   0  0  0  0  0  0  0  0  0  0  0  0
  -23.3290  -30.2810   22.2700 C   0  0  0  0  0  3  0  0  0  0  0  0
  -23.7100  -29.4320   19.8980 C   0  0  0  0  0  0  0  0  0  0  0  0
  -25.6850  -29.8990   21.3530 C   0  0  0  0  0  2  0  0  0  0  0  0
  -25.0500  -29.1600   20.1960 C   0  0  0  0  0  0  0  0  0  0  0  0
  -25.7780  -28.2320   19.4250 C   0  0  0  0  0  3  0  0  0  0  0  0
  -23.8040  -27.8530   18.0520 C   0  0  0  0  0  3  0  0  0  0  0  0
  -23.0800  -28.7740   18.8310 C   0  0  0  0  0  3  0  0  0  0  0  0
  -23.0090  -30.4580   20.7580 C   0  0  0  0  0  2  0  0  0  0  0  0
  -24.7900  -30.0560   22.5210 N   0  0  0  0  0  0  0  0  0  0  0  0
  -24.5180  -30.3170   24.7560 O   0  0  0  0  0  0  0  0  0  0  0  0
  -22.4320  -29.1590   22.8410 C   0  0  0  0  0  0  0  0  0  0  0  0
  -21.1060  -29.3690   22.8010 N   0  0  0  0  0  0  0  0  0  0  0  0
  -22.9280  -28.1180   23.2800 O   0  0  0  0  0  0  0  0  0  0  0  0
  -20.7720  -30.2500   22.4380 H   0  0  0  0  0  0  0  0  0  0  0  0
  -17.5540  -28.7470   22.7850 C   0  0  0  0  0  0  0  0  0  0  0  0
  -20.0760  -28.4340   23.2500 C   0  0  0  0  0  3  0  0  0  0  0  0
  -20.0010  -27.2050   22.3150 C   0  0  0  0  0  2  0  0  0  0  0  0
  -18.9580  -27.3550   21.2050 C   0  0  0  0  0  2  0  0  0  0  0  0
  -17.5630  -27.5970   21.7930 C   0  0  0  0  0  2  0  0  0  0  0  0
  -18.7360  -29.1480   23.4610 C   0  0  0  0  0  0  0  0  0  0  0  0
  -18.6780  -30.2440   24.3500 C   0  0  0  0  0  3  0  0  0  0  0  0
  -17.4680  -30.9280   24.5700 C   0  0  0  0  0  3  0  0  0  0  0  0
  -16.2970  -30.5130   23.9130 C   0  0  0  0  0  3  0  0  0  0  0  0
  -16.3420  -29.4280   23.0200 C   0  0  0  0  0  3  0  0  0  0  0  0
  -26.7710  -29.8260   24.1130 C   0  0  0  0  0  3  0  0  0  0  0  0
  -27.1070  -30.5990   25.3150 N   0  0  0  0  0  0  0  0  0  0  0  0
  -27.8290  -31.7270   25.3180 C   0  0  0  0  0  0  0  0  0  0  0  0
  -28.3520  -32.1910   24.3010 O   0  0  0  0  0  0  0  0  0  0  0  0
  -26.6700  -30.3060   26.1770 H   0  0  0  0  0  0  0  0  0  0  0  0
  -27.0810  -33.6900   26.7010 C   0  0  0  0  0  1  0  0  0  0  0  0
  -27.9960  -32.4560   26.6640 C   0  0  0  0  0  3  0  0  0  0  0  0
  -30.2830  -31.7420   27.2040 C   0  0  0  0  0  1  0  0  0  0  0  0
  -29.3890  -32.8660   26.9450 N   0  0  0  0  0  0  0  0  0  0  0  0
  -29.4240  -33.4900   27.7470 H   0  0  0  0  0  0  0  0  0  0  0  0
  -27.1200  -28.3000   24.3110 C   0  0  1  0  0  0  0  0  0  0  0  0
  -26.1940  -27.5700   25.3100 C   0  0  0  0  0  1  0  0  0  0  0  0
  -27.0320  -27.5500   22.9630 C   0  0  0  0  0  1  0  0  0  0  0  0
  -28.5760  -28.1470   24.8110 C   0  0  0  0  0  1  0  0  0  0  0  0
  1  3  1  0
  2  6  1  0
  2  5  2  0
  3  7  1  0
  4  3  2  0
  4 10  1  0
  5  4  1  0
  6  1  2  0
  8 10  1  0
 10  9  1  0
 11  5  1  0
 11 12  1  0
 13 11  1  0
 13 14  1  0
 15 24  1  0
 15 14  1  0
 16 24  1  0
 16 22  1  0
 17 22  1  0
 18 19  1  0
 18 17  1  0
 20 19  1  0
 20 29  1  0
 20 21  1  0
 22 21  1  0
 23 16  2  0
 24 25  1  0
 26 27  2  0
 27 46  1  0
 28 27  1  0
 28 31  1  0
 29 30  1  0
 29 26  1  0
 30 28  2  0
 31 32  1  0
 32 33  2  0
 34 37  1  0
 34 33  1  0
 35 34  2  0
 36 35  1  0
 36 31  2  0
 37 38  1  0
 38 43  2  0
 38 39  1  0
 39 40  2  0
 40 41  1  0
 41 45  1  0
 42 41  2  0
 43 42  1  0
 44 43  1  0
 46 47  1  0
 47 50  1  0
 47 49  1  0
 48 46  2  0
 51 26  1  0
 51 52  1  0
 53 51  1  0
 54  6  1  0
 55 54  1  0
 56 55  1  0
 57 56  1  0
 57 59  1  0
 58 69  2  0
 59 64  1  0
 60 68  1  0
 60 70  1  0
 61 63  1  0
 61 67  1  0
 62 68  1  0
 63 62  1  0
 64 63  2  0
 65 59  2  0
 65 66  1  0
 66 61  2  0
 67 60  1  0
 68 58  1  0
 70 72  2  0
 71 70  1  0
 73 71  1  0
 74 83  2  0
 74 79  1  0
 75 71  1  0
 75 79  1  0
 76 75  1  0
 77 78  1  0
 77 76  1  0
 78 74  1  0
 79 80  2  0
 80 81  1  0
 82 81  2  0
 83 82  1  0
 84 58  1  0
 84 94  1  0
 84 85  1  0
 85 86  1  0
 85 88  1  0
 86 90  1  0
 87 86  2  0
 90 89  1  0
 90 92  1  0
 92 91  1  0
 92 93  1  0
 94 97  1  1
 94 95  1  0
 96 94  1  0
M  ISO  4  16 100  24 100  56 101  57 101
M  END
>  <TORSDO>  (61) 
F 24

>  <SCORE>  (61) 
-4.853

>  <name>  (61) 
61

>  <ligand_id>  (61) 
61

>  <original_smiles>  (61) 
[H]c1c([H])c([H])c2c(c1[H])C([H])([H])C([H])([H])C([H])([H])C2([H])N([H])C(=O)C1([H])N(C(=O)C([H])(N([H])C(=O)C([H])(N([H])C([H])([H])[H])C([H])([H])[H])C(C([H])([H])[H])(C([H])([H])[H])C([H])([H])[H])C([H])([H])c2c([H])c(OC([H])([H])C([H])([H])Oc3c([H])c(N([H])C([H])([H])C([H])([H])C([H])([H])N([H])C(=O)N4C([H])([H])C([H])([H])C([H])([H])C([H])(n5nc(-c6c([H])c([H])c(Oc7c([H])c([H])c(F)c([H])c7F)c([H])c6[H])c(C(=O)N([H])[H])c5N([H])[H])C4([H])[H])c(C([H])(C([H])([H])[H])C([H])([H])[H])c(C([H])([H])[H])c3[H])c([H])c([H])c2C1([H])[H]

>  <smiles>  (61) 
[H]c1c([H])c([H])c2c(c1[H])C([H])([H])C([H])([H])C([H])([H])C2([H])N([H])C(=O)C1([H])N(C(=O)C([H])(N([H])C(=O)C([H])(N([H])C([H])([H])[H])C([H])([H])[H])C(C([H])([H])[H])(C([H])([H])[H])C([H])([H])[H])C([H])([H])c2c([H])c(OC([H])([H])C([H])([H])Oc3c([H])c(N([H])C([H])([H])C([H])([H])C([H])([H])N([H])C(=O)N4C([H])([H])C([H])([H])C([H])([H])C([H])(n5nc(-c6c([H])c([H])c(Oc7c([H])c([H])c(F)c([H])c7F)c([H])c6[H])c(C(=O)N([H])[H])c5N([H])[H])C4([H])[H])c(C([H])(C([H])([H])[H])C([H])([H])[H])c(C([H])([H])[H])c3[H])c([H])c([H])c2C1([H])[H]

$$$$
62:0:0
     RDKit          3D

100109  0  0  1  0  0  0  0  0999 V2000
  -29.0940  -19.3960   16.6000 C   0  0  0  0  0  3  0  0  0  0  0  0
  -29.3210  -19.8660   15.2950 C   0  0  0  0  0  3  0  0  0  0  0  0
  -29.5810  -22.1110   16.1680 C   0  0  0  0  0  3  0  0  0  0  0  0
  -29.4200  -21.6500   17.5000 C   0  0  0  0  0  0  0  0  0  0  0  0
  -29.1120  -20.2740   17.7060 C   0  0  0  0  0  0  0  0  0  0  0  0
  -29.5320  -21.2330   15.0600 C   0  0  0  0  0  0  0  0  0  0  0  0
  -28.0760  -23.1270   19.0290 C   0  0  0  0  0  2  0  0  0  0  0  0
  -30.4690  -23.8590   18.3680 C   0  0  0  0  0  2  0  0  0  0  0  0
  -28.0860  -24.2680   20.0510 C   0  0  0  0  0  2  0  0  0  0  0  0
  -30.3310  -25.0390   19.3540 C   0  0  0  0  0  2  0  0  0  0  0  0
  -29.5000  -22.6670   18.6520 C   0  0  0  0  0  3  0  0  0  0  0  0
  -28.8580  -25.4640   19.4520 C   0  0  0  0  0  3  0  0  0  0  0  0
  -28.7080  -26.6730   20.2000 O   0  0  0  0  0  0  0  0  0  0  0  0
  -24.5360  -31.6090   23.1770 C   0  0  0  0  0  0  0  0  0  0  0  0
  -27.4940  -27.3370   20.1360 C   0  0  0  0  0  0  0  0  0  0  0  0
  -23.4620  -30.1910   21.4630 C   0  0  0  0  0  3  0  0  0  0  0  0
  -25.0360  -28.7480   20.0780 C   0  0  0  0  0  0  0  0  0  0  0  0
  -25.9790  -30.6490   21.3900 C   0  0  0  0  0  2  0  0  0  0  0  0
  -26.1450  -29.2950   20.7350 C   0  0  0  0  0  0  0  0  0  0  0  0
  -27.3700  -28.5930   20.7730 C   0  0  0  0  0  3  0  0  0  0  0  0
  -26.3600  -26.8170   19.4590 C   0  0  0  0  0  3  0  0  0  0  0  0
  -25.1370  -27.5030   19.4440 C   0  0  0  0  0  3  0  0  0  0  0  0
  -23.7590  -29.5520   20.0820 C   0  0  0  0  0  2  0  0  0  0  0  0
  -24.6740  -30.8310   22.0680 N   0  0  0  0  0  0  0  0  0  0  0  0
  -23.4200  -31.8310   23.6690 O   0  0  0  0  0  0  0  0  0  0  0  0
  -22.8120  -29.1230   22.3720 C   0  0  0  0  0  0  0  0  0  0  0  0
  -21.4960  -28.9140   22.2040 N   0  0  0  0  0  0  0  0  0  0  0  0
  -23.4910  -28.4890   23.1840 O   0  0  0  0  0  0  0  0  0  0  0  0
  -21.0100  -29.4810   21.5230 H   0  0  0  0  0  0  0  0  0  0  0  0
  -18.1320  -27.6670   22.6180 C   0  0  0  0  0  0  0  0  0  0  0  0
  -20.6830  -27.9350   22.9250 C   0  0  0  0  0  3  0  0  0  0  0  0
  -20.8060  -26.5310   22.2890 C   0  0  0  0  0  2  0  0  0  0  0  0
  -19.7180  -26.2430   21.2510 C   0  0  0  0  0  2  0  0  0  0  0  0
  -18.3280  -26.3500   21.8850 C   0  0  0  0  0  2  0  0  0  0  0  0
  -19.2390  -28.4190   23.0920 C   0  0  0  0  0  0  0  0  0  0  0  0
  -19.0050  -29.6540   23.7340 C   0  0  0  0  0  3  0  0  0  0  0  0
  -17.6960  -30.1410   23.9030 C   0  0  0  0  0  3  0  0  0  0  0  0
  -16.6020  -29.3850   23.4460 C   0  0  0  0  0  3  0  0  0  0  0  0
  -16.8200  -28.1490   22.8120 C   0  0  0  0  0  3  0  0  0  0  0  0
  -25.7670  -32.2790   23.8650 C   0  0  0  0  0  3  0  0  0  0  0  0
  -25.3930  -33.6630   24.1880 N   0  0  0  0  0  0  0  0  0  0  0  0
  -25.6980  -34.7260   23.4320 C   0  0  0  0  0  0  0  0  0  0  0  0
  -26.3960  -34.6500   22.4180 O   0  0  0  0  0  0  0  0  0  0  0  0
  -24.7770  -33.7940   24.9760 H   0  0  0  0  0  0  0  0  0  0  0  0
  -23.8890  -36.4270   23.0500 C   0  0  0  0  0  1  0  0  0  0  0  0
  -25.1410  -36.0920   23.8750 C   0  0  0  0  0  3  0  0  0  0  0  0
  -27.2200  -37.0870   24.7220 C   0  0  0  0  0  1  0  0  0  0  0  0
  -26.1220  -37.1930   23.7640 N   0  0  0  0  0  0  0  0  0  0  0  0
  -25.6680  -38.0920   23.8990 H   0  0  0  0  0  0  0  0  0  0  0  0
  -26.2510  -31.5150   25.1570 C   0  0  1  0  0  0  0  0  0  0  0  0
  -25.1180  -31.2210   26.1670 C   0  0  0  0  0  1  0  0  0  0  0  0
  -26.9060  -30.1660   24.7790 C   0  0  0  0  0  1  0  0  0  0  0  0
  -27.3400  -32.3440   25.8800 C   0  0  0  0  0  1  0  0  0  0  0  0
  -29.8530  -23.0160   13.4870 C   0  0  0  0  0  1  0  0  0  0  0  0
  -29.6720  -21.6300   13.7490 O   0  0  0  0  0  0  0  0  0  0  0  0
  -28.7100  -19.6900   19.0600 C   0  0  0  0  0  2  0  0  0  0  0  0
  -29.8750  -19.2610   19.8520 N   0  0  0  0  0  4  0  0  0  0  0  0
  -30.3190  -20.0760   20.2420 H   0  0  0  0  0  0  0  0  0  0  0  0
  -30.5310  -18.8250   19.2260 H   0  0  0  0  0  0  0  0  0  0  0  0
  -29.5330  -18.3030   20.9270 C   0  0  0  0  0  2  0  0  0  0  0  0
  -30.7680  -17.8610   21.7310 C   0  0  0  0  0  2  0  0  0  0  0  0
  -30.5000  -16.6930   22.7100 C   0  0  0  0  0  2  0  0  0  0  0  0
  -30.4110  -14.8400   21.0350 C   0  0  0  0  0  0  0  0  0  0  0  0
  -30.1740  -12.9010   19.5350 C   0  0  0  0  0  2  0  0  0  0  0  0
  -29.2200  -13.1990   18.3630 C   0  0  0  0  0  2  0  0  0  0  0  0
  -27.7600  -12.9160   18.7630 C   0  0  0  0  0  2  0  0  0  0  0  0
  -27.3720  -13.5770   20.1110 C   0  0  0  0  0  3  0  0  0  0  0  0
  -28.4320  -13.2790   21.1960 C   0  0  0  0  0  2  0  0  0  0  0  0
  -29.7510  -13.7050   20.6910 N   0  0  0  0  0  0  0  0  0  0  0  0
  -31.4190  -15.2410   20.4480 O   0  0  0  0  0  0  0  0  0  0  0  0
  -29.9090  -15.5070   22.0820 N   0  0  0  0  0  0  0  0  0  0  0  0
  -29.1020  -15.0950   22.5320 H   0  0  0  0  0  0  0  0  0  0  0  0
  -24.9180  -13.9470   20.8040 C   0  0  0  0  0  0  0  0  0  0  0  0
  -23.9080  -13.0710   21.0940 C   0  0  0  0  0  0  0  0  0  0  0  0
  -24.4740  -11.7640   20.9780 C   0  0  0  0  0  0  0  0  0  0  0  0
  -26.0330  -13.1690   20.5370 N   0  0  0  0  0  0  0  0  0  0  0  0
  -25.7680  -11.8470   20.6960 N   0  0  0  0  0  0  0  0  0  0  0  0
  -23.8460  -10.4390   21.0620 C   0  0  0  0  0  0  0  0  0  0  0  0
  -24.3580   -9.4330   21.9110 C   0  0  0  0  0  3  0  0  0  0  0  0
  -23.7260   -8.1720   21.9880 C   0  0  0  0  0  3  0  0  0  0  0  0
  -22.5680   -7.9110   21.2160 C   0  0  0  0  0  0  0  0  0  0  0  0
  -22.0780   -8.9090   20.3560 C   0  0  0  0  0  3  0  0  0  0  0  0
  -22.7110  -10.1610   20.2760 C   0  0  0  0  0  3  0  0  0  0  0  0
  -21.9020   -6.7090   21.2070 O   0  0  0  0  0  0  0  0  0  0  0  0
  -21.9460   -5.8540   22.2800 C   0  0  0  0  0  0  0  0  0  0  0  0
  -21.5260   -6.2530   23.5680 C   0  0  0  0  0  3  0  0  0  0  0  0
  -21.5220   -5.3240   24.6260 C   0  0  0  0  0  3  0  0  0  0  0  0
  -21.9260   -3.9940   24.3990 C   0  0  0  0  0  0  0  0  0  0  0  0
  -22.3370   -3.5960   23.1150 C   0  0  0  0  0  3  0  0  0  0  0  0
  -22.3450   -4.5220   22.0590 C   0  0  0  0  0  0  0  0  0  0  0  0
  -22.7230   -4.1260   20.8200 F   0  0  0  0  0  0  0  0  0  0  0  0
  -21.9140   -3.0990   25.4130 F   0  0  0  0  0  0  0  0  0  0  0  0
  -22.4720  -13.4180   21.3700 C   0  0  0  0  0  0  0  0  0  0  0  0
  -21.7970  -12.6220   22.1920 N   0  0  0  0  0  0  0  0  0  0  0  0
  -21.9570  -14.4290   20.8980 O   0  0  0  0  0  0  0  0  0  0  0  0
  -22.2260  -11.8030   22.5950 H   0  0  0  0  0  0  0  0  0  0  0  0
  -20.8350  -12.8320   22.4170 H   0  0  0  0  0  0  0  0  0  0  0  0
  -24.9770  -15.3360   20.7270 N   0  0  0  0  0  0  0  0  0  0  0  0
  -24.1560  -15.9160   20.8550 H   0  0  0  0  0  0  0  0  0  0  0  0
  -25.7950  -15.8600   20.4440 H   0  0  0  0  0  0  0  0  0  0  0  0
  1  5  1  0
  2  1  2  0
  3  4  1  0
  4  5  2  0
  5 56  1  0
  6  2  1  0
  6  3  2  0
  7  9  1  0
  8 11  1  0
  8 10  1  0
 10 12  1  0
 11  4  1  0
 11  7  1  0
 12  9  1  0
 12 13  1  0
 14 25  2  0
 15 13  1  0
 15 20  1  0
 16 24  1  0
 16 26  1  0
 17 23  1  0
 17 19  1  0
 18 24  1  0
 19 20  2  0
 19 18  1  0
 21 15  2  0
 22 21  1  0
 22 17  2  0
 23 16  1  0
 24 14  1  0
 26 28  2  0
 27 26  1  0
 29 27  1  0
 30 39  2  0
 30 35  1  0
 31 27  1  0
 31 35  1  0
 32 31  1  0
 33 34  1  0
 33 32  1  0
 34 30  1  0
 35 36  2  0
 36 37  1  0
 38 37  2  0
 39 38  1  0
 40 14  1  0
 40 41  1  0
 40 50  1  0
 41 44  1  0
 42 46  1  0
 42 41  1  0
 43 42  2  0
 46 45  1  0
 48 46  1  0
 48 49  1  0
 48 47  1  0
 50 53  1  1
 50 51  1  0
 52 50  1  0
 54 55  1  0
 55  6  1  0
 56 57  1  0
 57 58  1  0
 57 60  1  0
 59 57  1  0
 60 61  1  0
 61 62  1  0
 63 71  1  0
 64 69  1  0
 65 66  1  0
 65 64  1  0
 67 66  1  0
 67 76  1  0
 67 68  1  0
 69 63  1  0
 69 68  1  0
 70 63  2  0
 71 72  1  0
 71 62  1  0
 73 74  2  0
 74 93  1  0
 75 78  1  0
 75 74  1  0
 76 77  1  0
 76 73  1  0
 77 75  2  0
 78 79  1  0
 79 80  2  0
 81 80  1  0
 82 81  2  0
 83 82  1  0
 83 78  2  0
 84 81  1  0
 84 85  1  0
 85 86  1  0
 86 87  2  0
 88 87  1  0
 88 92  1  0
 89 88  2  0
 90 85  2  0
 90 89  1  0
 91 90  1  0
 93 94  1  0
 94 97  1  0
 94 96  1  0
 95 93  2  0
 98 73  1  0
 98 99  1  0
100 98  1  0
M  ISO  4  12 101  13 101  63 100  71 100
M  END
>  <TORSDO>  (62) 
F 23

>  <SCORE>  (62) 
-11.224

>  <name>  (62) 
62

>  <ligand_id>  (62) 
62

>  <original_smiles>  (62) 
[H]c1c([H])c([H])c2c(c1[H])C([H])([H])C([H])([H])C([H])([H])C2([H])N([H])C(=O)C1([H])N(C(=O)C([H])(N([H])C(=O)C([H])(N([H])C([H])([H])[H])C([H])([H])[H])C(C([H])([H])[H])(C([H])([H])[H])C([H])([H])[H])C([H])([H])c2c([H])c(OC3([H])C([H])([H])C([H])([H])C([H])(c4c([H])c(OC([H])([H])[H])c([H])c([H])c4C([H])([H])[N+]([H])([H])C([H])([H])C([H])([H])C([H])([H])N([H])C(=O)N4C([H])([H])C([H])([H])C([H])([H])C([H])(n5nc(-c6c([H])c([H])c(Oc7c([H])c([H])c(F)c([H])c7F)c([H])c6[H])c(C(=O)N([H])[H])c5N([H])[H])C4([H])[H])C([H])([H])C3([H])[H])c([H])c([H])c2C1([H])[H]

>  <smiles>  (62) 
[H]c1c([H])c([H])c2c(c1[H])C([H])([H])C([H])([H])C([H])([H])C2([H])N([H])C(=O)C1([H])N(C(=O)C([H])(N([H])C(=O)C([H])(N([H])C([H])([H])[H])C([H])([H])[H])C(C([H])([H])[H])(C([H])([H])[H])C([H])([H])[H])C([H])([H])c2c([H])c(OC3([H])C([H])([H])C([H])([H])C([H])(c4c([H])c(OC([H])([H])[H])c([H])c([H])c4C([H])([H])[N+]([H])([H])C([H])([H])C([H])([H])C([H])([H])N([H])C(=O)N4C([H])([H])C([H])([H])C([H])([H])C([H])(n5nc(-c6c([H])c([H])c(Oc7c([H])c([H])c(F)c([H])c7F)c([H])c6[H])c(C(=O)N([H])[H])c5N([H])[H])C4([H])[H])C([H])([H])C3([H])[H])c([H])c([H])c2C1([H])[H]

$$$$
63:0:0
     RDKit          3D

 94102  0  0  1  0  0  0  0  0999 V2000
  -30.6210  -22.8380   21.6070 C   0  0  0  0  0  3  0  0  0  0  0  0
  -31.8760  -22.4210   22.0720 C   0  0  0  0  0  3  0  0  0  0  0  0
  -31.4170  -20.1930   21.2400 C   0  0  0  0  0  3  0  0  0  0  0  0
  -29.7380  -21.9580   20.9410 C   0  0  0  0  0  0  0  0  0  0  0  0
  -30.1300  -20.5700   20.7810 C   0  0  0  0  0  0  0  0  0  0  0  0
  -32.2970  -21.0980   21.8810 C   0  0  0  0  0  0  0  0  0  0  0  0
  -29.2850  -19.5650   20.2240 N   0  0  0  0  0  0  0  0  0  0  0  0
  -28.4290  -19.9110   19.7980 H   0  0  0  0  0  0  0  0  0  0  0  0
  -29.6920  -18.1900   19.7820 C   0  0  0  0  0  2  0  0  0  0  0  0
  -30.0860  -17.1110   20.8730 C   0  0  0  0  0  2  0  0  0  0  0  0
  -30.5100  -14.6430   20.1650 C   0  0  0  0  0  0  0  0  0  0  0  0
  -30.2660  -12.4320   19.0510 C   0  0  0  0  0  2  0  0  0  0  0  0
  -29.2800  -12.5860   17.8740 C   0  0  0  0  0  2  0  0  0  0  0  0
  -27.8240  -12.4100   18.3500 C   0  0  0  0  0  2  0  0  0  0  0  0
  -27.5060  -13.2470   19.6170 C   0  0  0  0  0  3  0  0  0  0  0  0
  -28.6030  -13.0730   20.6900 C   0  0  0  0  0  2  0  0  0  0  0  0
  -29.8890  -13.4270   20.0710 N   0  0  0  0  0  0  0  0  0  0  0  0
  -31.6530  -14.8270   19.7410 O   0  0  0  0  0  0  0  0  0  0  0  0
  -29.7370  -15.6790   20.5990 N   0  0  0  0  0  0  0  0  0  0  0  0
  -28.8050  -15.4090   20.8820 H   0  0  0  0  0  0  0  0  0  0  0  0
  -25.1260  -13.8090   20.4080 C   0  0  0  0  0  0  0  0  0  0  0  0
  -24.0860  -13.0200   20.8140 C   0  0  0  0  0  0  0  0  0  0  0  0
  -24.5710  -11.6750   20.7770 C   0  0  0  0  0  0  0  0  0  0  0  0
  -26.1780  -12.9460   20.1440 N   0  0  0  0  0  0  0  0  0  0  0  0
  -25.8500  -11.6580   20.4260 N   0  0  0  0  0  0  0  0  0  0  0  0
  -23.8750  -10.4010   20.9950 C   0  0  0  0  0  0  0  0  0  0  0  0
  -24.3360   -9.4560   21.9390 C   0  0  0  0  0  3  0  0  0  0  0  0
  -23.6370   -8.2480   22.1420 C   0  0  0  0  0  3  0  0  0  0  0  0
  -22.4620   -7.9740   21.4030 C   0  0  0  0  0  0  0  0  0  0  0  0
  -22.0200   -8.9070   20.4480 C   0  0  0  0  0  3  0  0  0  0  0  0
  -22.7210  -10.1060   20.2420 C   0  0  0  0  0  3  0  0  0  0  0  0
  -21.7300   -6.8160   21.5160 O   0  0  0  0  0  0  0  0  0  0  0  0
  -21.6940   -6.1010   22.6860 C   0  0  0  0  0  0  0  0  0  0  0  0
  -21.2450   -6.6740   23.8960 C   0  0  0  0  0  3  0  0  0  0  0  0
  -21.1560   -5.8820   25.0590 C   0  0  0  0  0  3  0  0  0  0  0  0
  -21.5100   -4.5200   25.0120 C   0  0  0  0  0  0  0  0  0  0  0  0
  -21.9550   -3.9470   23.8080 C   0  0  0  0  0  3  0  0  0  0  0  0
  -22.0430   -4.7360   22.6470 C   0  0  0  0  0  0  0  0  0  0  0  0
  -22.4500   -4.1740   21.4830 F   0  0  0  0  0  0  0  0  0  0  0  0
  -21.4180   -3.7580   26.1280 F   0  0  0  0  0  0  0  0  0  0  0  0
  -22.6900  -13.4710   21.1340 C   0  0  0  0  0  0  0  0  0  0  0  0
  -22.0100  -12.7580   22.0250 N   0  0  0  0  0  0  0  0  0  0  0  0
  -22.2140  -14.4870   20.6290 O   0  0  0  0  0  0  0  0  0  0  0  0
  -22.4130  -11.9290   22.4400 H   0  0  0  0  0  0  0  0  0  0  0  0
  -21.0770  -13.0370   22.2910 H   0  0  0  0  0  0  0  0  0  0  0  0
  -25.2730  -15.1810   20.2160 N   0  0  0  0  0  0  0  0  0  0  0  0
  -24.5220  -15.8480   20.3510 H   0  0  0  0  0  0  0  0  0  0  0  0
  -26.1160  -15.6080   19.8520 H   0  0  0  0  0  0  0  0  0  0  0  0
  -33.9970  -19.4180   22.2080 C   0  0  0  0  0  1  0  0  0  0  0  0
  -33.5510  -20.7640   22.3490 O   0  0  0  0  0  0  0  0  0  0  0  0
  -28.4060  -22.5950   20.4650 C   0  0  0  0  0  2  0  0  0  0  0  0
  -28.4970  -24.0540   19.8440 C   0  0  0  0  0  3  0  0  0  0  0  0
  -27.9920  -25.2470   20.7310 C   0  0  0  0  0  3  0  0  0  0  0  0
  -28.1600  -26.5890   20.1820 O   0  0  0  0  0  0  0  0  0  0  0  0
  -24.5030  -31.9470   23.2590 C   0  0  0  0  0  0  0  0  0  0  0  0
  -27.0310  -27.3980   20.1830 C   0  0  0  0  0  0  0  0  0  0  0  0
  -23.2550  -30.5450   21.6550 C   0  0  0  0  0  3  0  0  0  0  0  0
  -24.6670  -28.9730   20.2160 C   0  0  0  0  0  0  0  0  0  0  0  0
  -25.7880  -30.8560   21.4130 C   0  0  0  0  0  2  0  0  0  0  0  0
  -25.8470  -29.4770   20.7790 C   0  0  0  0  0  0  0  0  0  0  0  0
  -27.0360  -28.7010   20.7490 C   0  0  0  0  0  3  0  0  0  0  0  0
  -25.8370  -26.9310   19.5970 C   0  0  0  0  0  3  0  0  0  0  0  0
  -24.6580  -27.7010   19.6170 C   0  0  0  0  0  3  0  0  0  0  0  0
  -23.4320  -29.8490   20.2810 C   0  0  0  0  0  2  0  0  0  0  0  0
  -24.5360  -31.1320   22.1660 N   0  0  0  0  0  0  0  0  0  0  0  0
  -23.4340  -32.2410   23.8100 O   0  0  0  0  0  0  0  0  0  0  0  0
  -22.6030  -29.5430   22.6350 C   0  0  0  0  0  0  0  0  0  0  0  0
  -21.2810  -29.3520   22.5040 N   0  0  0  0  0  0  0  0  0  0  0  0
  -23.2870  -28.9410   23.4680 O   0  0  0  0  0  0  0  0  0  0  0  0
  -20.7960  -29.8840   21.7960 H   0  0  0  0  0  0  0  0  0  0  0  0
  -17.9160  -28.1260   22.9790 C   0  0  0  0  0  0  0  0  0  0  0  0
  -20.4650  -28.4260   23.2860 C   0  0  0  0  0  3  0  0  0  0  0  0
  -20.5980  -26.9830   22.7500 C   0  0  0  0  0  2  0  0  0  0  0  0
  -19.5200  -26.6170   21.7270 C   0  0  0  0  0  2  0  0  0  0  0  0
  -18.1240  -26.7600   22.3440 C   0  0  0  0  0  2  0  0  0  0  0  0
  -19.0170  -28.9140   23.4040 C   0  0  0  0  0  0  0  0  0  0  0  0
  -18.7760  -30.1910   23.9540 C   0  0  0  0  0  3  0  0  0  0  0  0
  -17.4630  -30.6840   24.0810 C   0  0  0  0  0  3  0  0  0  0  0  0
  -16.3730  -29.8930   23.6760 C   0  0  0  0  0  3  0  0  0  0  0  0
  -16.6010  -28.6150   23.1320 C   0  0  0  0  0  3  0  0  0  0  0  0
  -25.8060  -32.5660   23.8530 C   0  0  0  0  0  3  0  0  0  0  0  0
  -25.5240  -33.9740   24.1650 N   0  0  0  0  0  0  0  0  0  0  0  0
  -25.8790  -35.0100   23.3920 C   0  0  0  0  0  0  0  0  0  0  0  0
  -26.5490  -34.8800   22.3650 O   0  0  0  0  0  0  0  0  0  0  0  0
  -24.9210  -34.1490   24.9560 H   0  0  0  0  0  0  0  0  0  0  0  0
  -24.1920  -36.8360   23.0050 C   0  0  0  0  0  1  0  0  0  0  0  0
  -25.4180  -36.4140   23.8300 C   0  0  0  0  0  3  0  0  0  0  0  0
  -27.5640  -37.2620   24.6680 C   0  0  0  0  0  1  0  0  0  0  0  0
  -26.4730  -37.4420   23.7130 N   0  0  0  0  0  0  0  0  0  0  0  0
  -26.0860  -38.3740   23.8420 H   0  0  0  0  0  0  0  0  0  0  0  0
  -26.3280  -31.8040   25.1340 C   0  0  1  0  0  0  0  0  0  0  0  0
  -25.2420  -31.5940   26.2150 C   0  0  0  0  0  1  0  0  0  0  0  0
  -26.8860  -30.4110   24.7520 C   0  0  0  0  0  1  0  0  0  0  0  0
  -27.4950  -32.5920   25.7720 C   0  0  0  0  0  1  0  0  0  0  0  0
  1  2  1  0
  3  6  1  0
  4  1  2  0
  5  4  1  0
  5  3  2  0
  6  2  2  0
  6 50  1  0
  7  5  1  0
  8  7  1  0
  9  7  1  0
  9 10  1  0
 11 19  1  0
 12 17  1  0
 13 14  1  0
 13 12  1  0
 15 14  1  0
 15 24  1  0
 15 16  1  0
 17 11  1  0
 17 16  1  0
 18 11  2  0
 19 10  1  0
 19 20  1  0
 21 22  2  0
 22 41  1  0
 23 22  1  0
 23 26  1  0
 24 21  1  0
 24 25  1  0
 25 23  2  0
 26 27  1  0
 27 28  2  0
 29 32  1  0
 29 28  1  0
 30 29  2  0
 31 30  1  0
 31 26  2  0
 32 33  1  0
 33 34  1  0
 34 35  2  0
 36 35  1  0
 36 40  1  0
 37 36  2  0
 38 33  2  0
 38 37  1  0
 39 38  1  0
 41 42  1  0
 42 45  1  0
 42 44  1  0
 43 41  2  0
 46 47  1  0
 46 21  1  0
 48 46  1  0
 49 50  1  0
 51  4  1  0
 52 51  1  0
 52 53  2  0
 54 56  1  0
 54 53  1  0
 55 66  2  0
 56 61  1  0
 57 65  1  0
 57 67  1  0
 58 64  1  0
 58 60  1  0
 59 65  1  0
 60 59  1  0
 61 60  2  0
 62 63  1  0
 62 56  2  0
 63 58  2  0
 64 57  1  0
 65 55  1  0
 67 69  2  0
 68 67  1  0
 70 68  1  0
 71 80  2  0
 71 76  1  0
 72 68  1  0
 72 76  1  0
 73 72  1  0
 74 75  1  0
 74 73  1  0
 75 71  1  0
 76 77  2  0
 77 78  1  0
 79 78  2  0
 80 79  1  0
 81 55  1  0
 81 82  1  0
 81 91  1  0
 82 85  1  0
 83 87  1  0
 83 82  1  0
 84 83  2  0
 87 86  1  0
 89 87  1  0
 89 90  1  0
 89 88  1  0
 91 94  1  1
 91 92  1  0
 93 91  1  0
M  ISO  4  11 100  19 100  53 101  54 101
M  END
>  <TORSDO>  (63) 
F 23

>  <SCORE>  (63) 
-12.132

>  <name>  (63) 
63

>  <ligand_id>  (63) 
63

>  <original_smiles>  (63) 
[H]c1c([H])c([H])c2c(c1[H])C([H])([H])C([H])([H])C([H])([H])C2([H])N([H])C(=O)C1([H])N(C(=O)C([H])(N([H])C(=O)C([H])(N([H])C([H])([H])[H])C([H])([H])[H])C(C([H])([H])[H])(C([H])([H])[H])C([H])([H])[H])C([H])([H])c2c([H])c(OC([H])([H])C([H])([H])C([H])([H])c3c([H])c([H])c(OC([H])([H])[H])c([H])c3N([H])C([H])([H])C([H])([H])N([H])C(=O)N3C([H])([H])C([H])([H])C([H])([H])C([H])(n4nc(-c5c([H])c([H])c(Oc6c([H])c([H])c(F)c([H])c6F)c([H])c5[H])c(C(=O)N([H])[H])c4N([H])[H])C3([H])[H])c([H])c([H])c2C1([H])[H]

>  <smiles>  (63) 
[H]c1c([H])c([H])c2c(c1[H])C([H])([H])C([H])([H])C([H])([H])C2([H])N([H])C(=O)C1([H])N(C(=O)C([H])(N([H])C(=O)C([H])(N([H])C([H])([H])[H])C([H])([H])[H])C(C([H])([H])[H])(C([H])([H])[H])C([H])([H])[H])C([H])([H])c2c([H])c(OC([H])([H])C([H])([H])C([H])([H])c3c([H])c([H])c(OC([H])([H])[H])c([H])c3N([H])C([H])([H])C([H])([H])N([H])C(=O)N3C([H])([H])C([H])([H])C([H])([H])C([H])(n4nc(-c5c([H])c([H])c(Oc6c([H])c([H])c(F)c([H])c6F)c([H])c5[H])c(C(=O)N([H])[H])c4N([H])[H])C3([H])[H])c([H])c([H])c2C1([H])[H]

$$$$
64:0:0
     RDKit          3D

 91 99  0  0  1  0  0  0  0  0999 V2000
  -28.9590  -21.7360   20.9470 C   0  0  0  0  0  3  0  0  0  0  0  0
  -28.9610  -20.3730   21.3180 C   0  0  0  0  0  3  0  0  0  0  0  0
  -29.9750  -22.2210   20.0910 C   0  0  0  0  0  0  0  0  0  0  0  0
  -29.9760  -19.5190   20.8390 C   0  0  0  0  0  0  0  0  0  0  0  0
  -30.9430  -21.2840   19.6590 C   0  0  0  0  0  0  0  0  0  0  0  0
  -32.0650  -21.7180   18.7360 C   0  0  0  0  0  1  0  0  0  0  0  0
  -30.9590  -19.9820   20.0360 N   0  0  0  0  0  0  0  0  0  0  0  0
  -30.0620  -18.0450   21.2850 C   0  0  0  0  0  2  0  0  0  0  0  0
  -30.1290  -17.0050   20.1330 C   0  0  0  0  0  2  0  0  0  0  0  0
  -30.6950  -14.5490   20.1450 C   0  0  0  0  0  0  0  0  0  0  0  0
  -30.3580  -12.3990   18.9970 C   0  0  0  0  0  2  0  0  0  0  0  0
  -29.3770  -12.6420   17.8300 C   0  0  0  0  0  2  0  0  0  0  0  0
  -27.9180  -12.5020   18.3080 C   0  0  0  0  0  2  0  0  0  0  0  0
  -27.6280  -13.3140   19.5990 C   0  0  0  0  0  3  0  0  0  0  0  0
  -28.7220  -13.0640   20.6640 C   0  0  0  0  0  2  0  0  0  0  0  0
  -30.0290  -13.3650   20.0560 N   0  0  0  0  0  0  0  0  0  0  0  0
  -31.8210  -14.7200   19.6720 O   0  0  0  0  0  0  0  0  0  0  0  0
  -29.9470  -15.5940   20.5540 N   0  0  0  0  0  0  0  0  0  0  0  0
  -29.0410  -15.3520   20.9280 H   0  0  0  0  0  0  0  0  0  0  0  0
  -25.2500  -13.9200   20.3770 C   0  0  0  0  0  0  0  0  0  0  0  0
  -24.1940  -13.1460   20.7780 C   0  0  0  0  0  0  0  0  0  0  0  0
  -24.6540  -11.7950   20.7340 C   0  0  0  0  0  0  0  0  0  0  0  0
  -26.2900  -13.0380   20.1170 N   0  0  0  0  0  0  0  0  0  0  0  0
  -25.9350  -11.7560   20.3880 N   0  0  0  0  0  0  0  0  0  0  0  0
  -23.9350  -10.5320   20.9430 C   0  0  0  0  0  0  0  0  0  0  0  0
  -24.3890   -9.5690   21.8700 C   0  0  0  0  0  3  0  0  0  0  0  0
  -23.6690   -8.3710   22.0670 C   0  0  0  0  0  3  0  0  0  0  0  0
  -22.4830   -8.1260   21.3380 C   0  0  0  0  0  0  0  0  0  0  0  0
  -22.0470   -9.0800   20.3990 C   0  0  0  0  0  3  0  0  0  0  0  0
  -22.7680  -10.2690   20.2000 C   0  0  0  0  0  3  0  0  0  0  0  0
  -21.7330   -6.9800   21.4450 O   0  0  0  0  0  0  0  0  0  0  0  0
  -21.7020   -6.2450   22.6040 C   0  0  0  0  0  0  0  0  0  0  0  0
  -21.2870   -6.8070   23.8310 C   0  0  0  0  0  3  0  0  0  0  0  0
  -21.2020   -5.9990   24.9820 C   0  0  0  0  0  3  0  0  0  0  0  0
  -21.5240   -4.6310   24.9080 C   0  0  0  0  0  0  0  0  0  0  0  0
  -21.9340   -4.0690   23.6860 C   0  0  0  0  0  3  0  0  0  0  0  0
  -22.0190   -4.8740   22.5360 C   0  0  0  0  0  0  0  0  0  0  0  0
  -22.3940   -4.3220   21.3560 F   0  0  0  0  0  0  0  0  0  0  0  0
  -21.4360   -3.8520   26.0110 F   0  0  0  0  0  0  0  0  0  0  0  0
  -22.8040  -13.6230   21.0900 C   0  0  0  0  0  0  0  0  0  0  0  0
  -22.1010  -12.9280   21.9770 N   0  0  0  0  0  0  0  0  0  0  0  0
  -22.3520  -14.6500   20.5850 O   0  0  0  0  0  0  0  0  0  0  0  0
  -22.4780  -12.0990   22.4120 H   0  0  0  0  0  0  0  0  0  0  0  0
  -21.1700  -13.2320   22.2270 H   0  0  0  0  0  0  0  0  0  0  0  0
  -25.4070  -15.2900   20.1920 N   0  0  0  0  0  0  0  0  0  0  0  0
  -24.6390  -15.9410   20.3180 H   0  0  0  0  0  0  0  0  0  0  0  0
  -26.2380  -15.7300   19.8160 H   0  0  0  0  0  0  0  0  0  0  0  0
  -30.0580  -23.5280   19.6350 O   0  0  0  0  0  0  0  0  0  0  0  0
  -29.5940  -24.6120   20.4560 C   0  0  0  0  0  2  0  0  0  0  0  0
  -28.3590  -25.3390   19.8720 C   0  0  0  0  0  2  0  0  0  0  0  0
  -28.3780  -26.7410   20.2030 O   0  0  0  0  0  0  0  0  0  0  0  0
  -24.5630  -31.9050   23.2740 C   0  0  0  0  0  0  0  0  0  0  0  0
  -27.1920  -27.4530   20.1770 C   0  0  0  0  0  0  0  0  0  0  0  0
  -23.3480  -30.5020   21.6390 C   0  0  0  0  0  3  0  0  0  0  0  0
  -24.7910  -28.9630   20.2040 C   0  0  0  0  0  0  0  0  0  0  0  0
  -25.8720  -30.8580   21.4270 C   0  0  0  0  0  2  0  0  0  0  0  0
  -25.9530  -29.4860   20.7850 C   0  0  0  0  0  0  0  0  0  0  0  0
  -27.1530  -28.7380   20.7700 C   0  0  0  0  0  3  0  0  0  0  0  0
  -26.0100  -26.9520   19.5810 C   0  0  0  0  0  3  0  0  0  0  0  0
  -24.8150  -27.6940   19.5990 C   0  0  0  0  0  3  0  0  0  0  0  0
  -23.5490  -29.8220   20.2570 C   0  0  0  0  0  2  0  0  0  0  0  0
  -24.6130  -31.1030   22.1710 N   0  0  0  0  0  0  0  0  0  0  0  0
  -23.4850  -32.1780   23.8200 O   0  0  0  0  0  0  0  0  0  0  0  0
  -22.7030  -29.4800   22.6040 C   0  0  0  0  0  0  0  0  0  0  0  0
  -21.3800  -29.2820   22.4710 N   0  0  0  0  0  0  0  0  0  0  0  0
  -23.3880  -28.8700   23.4280 O   0  0  0  0  0  0  0  0  0  0  0  0
  -20.8890  -29.8320   21.7800 H   0  0  0  0  0  0  0  0  0  0  0  0
  -18.0210  -28.0390   22.9390 C   0  0  0  0  0  0  0  0  0  0  0  0
  -20.5690  -28.3420   23.2430 C   0  0  0  0  0  3  0  0  0  0  0  0
  -20.7030  -26.9050   22.6880 C   0  0  0  0  0  2  0  0  0  0  0  0
  -19.6210  -26.5500   21.6630 C   0  0  0  0  0  2  0  0  0  0  0  0
  -18.2280  -26.6830   22.2860 C   0  0  0  0  0  2  0  0  0  0  0  0
  -19.1210  -28.8250   23.3740 C   0  0  0  0  0  0  0  0  0  0  0  0
  -18.8730  -30.0940   23.9430 C   0  0  0  0  0  3  0  0  0  0  0  0
  -17.5590  -30.5760   24.0830 C   0  0  0  0  0  3  0  0  0  0  0  0
  -16.4720  -29.7870   23.6640 C   0  0  0  0  0  3  0  0  0  0  0  0
  -16.7050  -28.5210   23.0980 C   0  0  0  0  0  3  0  0  0  0  0  0
  -25.8540  -32.5360   23.8840 C   0  0  0  0  0  3  0  0  0  0  0  0
  -25.5530  -33.9380   24.2010 N   0  0  0  0  0  0  0  0  0  0  0  0
  -25.8960  -34.9800   23.4320 C   0  0  0  0  0  0  0  0  0  0  0  0
  -26.5710  -34.8620   22.4050 O   0  0  0  0  0  0  0  0  0  0  0  0
  -24.9580  -34.1050   24.9990 H   0  0  0  0  0  0  0  0  0  0  0  0
  -24.1870  -36.7850   23.0420 C   0  0  0  0  0  1  0  0  0  0  0  0
  -25.4150  -36.3760   23.8730 C   0  0  0  0  0  3  0  0  0  0  0  0
  -27.5460  -37.2490   24.7240 C   0  0  0  0  0  1  0  0  0  0  0  0
  -26.4580  -37.4200   23.7650 N   0  0  0  0  0  0  0  0  0  0  0  0
  -26.0570  -38.3450   23.9000 H   0  0  0  0  0  0  0  0  0  0  0  0
  -26.3720  -31.7750   25.1660 C   0  0  1  0  0  0  0  0  0  0  0  0
  -25.2830  -31.5510   26.2410 C   0  0  0  0  0  1  0  0  0  0  0  0
  -26.9470  -30.3920   24.7820 C   0  0  0  0  0  1  0  0  0  0  0  0
  -27.5270  -32.5710   25.8180 C   0  0  0  0  0  1  0  0  0  0  0  0
  1  2  1  0
  3  1  2  0
  4  8  1  0
  4  2  2  0
  5  7  2  0
  5  3  1  0
  6  5  1  0
  7  4  1  0
  9 18  1  0
  9  8  1  0
 10 18  1  0
 11 16  1  0
 12 13  1  0
 12 11  1  0
 14 13  1  0
 14 23  1  0
 14 15  1  0
 16 10  1  0
 16 15  1  0
 17 10  2  0
 18 19  1  0
 20 21  2  0
 21 40  1  0
 22 21  1  0
 22 25  1  0
 23 20  1  0
 23 24  1  0
 24 22  2  0
 25 26  1  0
 26 27  2  0
 28 31  1  0
 28 27  1  0
 29 28  2  0
 30 29  1  0
 30 25  2  0
 31 32  1  0
 32 33  1  0
 33 34  2  0
 35 34  1  0
 35 39  1  0
 36 35  2  0
 37 32  2  0
 37 36  1  0
 38 37  1  0
 40 41  1  0
 41 44  1  0
 41 43  1  0
 42 40  2  0
 45 46  1  0
 45 20  1  0
 47 45  1  0
 48  3  1  0
 48 49  1  0
 50 51  1  0
 50 49  1  0
 52 63  2  0
 53 51  1  0
 53 58  1  0
 54 62  1  0
 54 64  1  0
 55 61  1  0
 55 57  1  0
 56 62  1  0
 57 56  1  0
 58 57  2  0
 59 60  1  0
 59 53  2  0
 60 55  2  0
 61 54  1  0
 62 52  1  0
 64 66  2  0
 65 64  1  0
 67 65  1  0
 68 77  2  0
 68 73  1  0
 69 65  1  0
 69 73  1  0
 70 69  1  0
 71 72  1  0
 71 70  1  0
 72 68  1  0
 73 74  2  0
 74 75  1  0
 76 75  2  0
 77 76  1  0
 78 52  1  0
 78 79  1  0
 78 88  1  0
 79 82  1  0
 80 84  1  0
 80 79  1  0
 81 80  2  0
 84 83  1  0
 86 84  1  0
 86 87  1  0
 86 85  1  0
 88 91  1  1
 88 89  1  0
 90 88  1  0
M  ISO  4  10 100  18 100  50 101  51 101
M  END
>  <TORSDO>  (64) 
F 21

>  <SCORE>  (64) 
-13.183

>  <name>  (64) 
64

>  <ligand_id>  (64) 
64

>  <original_smiles>  (64) 
[H]c1c(C([H])([H])C([H])([H])N([H])C(=O)N2C([H])([H])C([H])([H])C([H])([H])C([H])(n3nc(-c4c([H])c([H])c(Oc5c([H])c([H])c(F)c([H])c5F)c([H])c4[H])c(C(=O)N([H])[H])c3N([H])[H])C2([H])[H])nc(C([H])([H])[H])c(OC([H])([H])C([H])([H])Oc2c([H])c([H])c3c(c2[H])C([H])([H])N(C(=O)C([H])(N([H])C(=O)C([H])(N([H])C([H])([H])[H])C([H])([H])[H])C(C([H])([H])[H])(C([H])([H])[H])C([H])([H])[H])C([H])(C(=O)N([H])C2([H])c4c([H])c([H])c([H])c([H])c4C([H])([H])C([H])([H])C2([H])[H])C3([H])[H])c1[H]

>  <smiles>  (64) 
[H]c1c(C([H])([H])C([H])([H])N([H])C(=O)N2C([H])([H])C([H])([H])C([H])([H])C([H])(n3nc(-c4c([H])c([H])c(Oc5c([H])c([H])c(F)c([H])c5F)c([H])c4[H])c(C(=O)N([H])[H])c3N([H])[H])C2([H])[H])nc(C([H])([H])[H])c(OC([H])([H])C([H])([H])Oc2c([H])c([H])c3c(c2[H])C([H])([H])N(C(=O)C([H])(N([H])C(=O)C([H])(N([H])C([H])([H])[H])C([H])([H])[H])C(C([H])([H])[H])(C([H])([H])[H])C([H])([H])[H])C([H])(C(=O)N([H])C2([H])c4c([H])c([H])c([H])c([H])c4C([H])([H])C([H])([H])C2([H])[H])C3([H])[H])c1[H]

$$$$
65:0:0
     RDKit          3D

 95104  0  0  1  0  0  0  0  0999 V2000
  -29.3530  -20.9610   20.7190 C   0  0  0  0  0  3  0  0  0  0  0  0
  -29.7480  -22.7900   22.2550 C   0  0  0  0  0  3  0  0  0  0  0  0
  -30.0470  -20.0480   21.5630 C   0  0  0  0  0  0  0  0  0  0  0  0
  -30.4610  -21.9260   23.1060 C   0  0  0  0  0  0  0  0  0  0  0  0
  -30.6040  -20.5450   22.7850 C   0  0  0  0  0  0  0  0  0  0  0  0
  -29.1920  -22.3260   21.0500 C   0  0  0  0  0  0  0  0  0  0  0  0
  -31.0670  -22.5530   24.3570 C   0  0  0  0  0  1  0  0  0  0  0  0
  -30.9610  -14.5670   20.0470 C   0  0  0  0  0  0  0  0  0  0  0  0
  -30.5890  -12.3990   18.9230 C   0  0  0  0  0  2  0  0  0  0  0  0
  -29.5790  -12.5950   17.7740 C   0  0  0  0  0  2  0  0  0  0  0  0
  -28.1290  -12.4720   18.2860 C   0  0  0  0  0  2  0  0  0  0  0  0
  -27.8730  -13.2920   19.5810 C   0  0  0  0  0  3  0  0  0  0  0  0
  -28.9950  -13.0340   20.6100 C   0  0  0  0  0  2  0  0  0  0  0  0
  -30.2620  -13.3940   19.9630 N   0  0  0  0  0  0  0  0  0  0  0  0
  -32.1070  -14.6320   19.5870 O   0  0  0  0  0  0  0  0  0  0  0  0
  -29.2950  -17.5690   21.8040 C   0  0  0  0  0  2  0  0  0  0  0  0
  -30.0840  -18.2650   19.6350 C   0  0  0  0  0  2  0  0  0  0  0  0
  -29.6360  -16.0790   21.5300 C   0  0  0  0  0  2  0  0  0  0  0  0
  -30.5930  -16.8490   19.2900 C   0  0  0  0  0  2  0  0  0  0  0  0
  -30.2430  -18.5670   21.1280 C   0  0  0  0  0  3  0  0  0  0  0  0
  -30.2530  -15.7330   20.2220 N   0  0  0  0  0  0  0  0  0  0  0  0
  -25.5330  -13.9120   20.4510 C   0  0  0  0  0  0  0  0  0  0  0  0
  -24.4780  -13.1430   20.8600 C   0  0  0  0  0  0  0  0  0  0  0  0
  -24.9130  -11.7870   20.7580 C   0  0  0  0  0  0  0  0  0  0  0  0
  -26.5490  -13.0220   20.1320 N   0  0  0  0  0  0  0  0  0  0  0  0
  -26.1810  -11.7370   20.3710 N   0  0  0  0  0  0  0  0  0  0  0  0
  -24.1790  -10.5300   20.9520 C   0  0  0  0  0  0  0  0  0  0  0  0
  -24.6090   -9.5600   21.8840 C   0  0  0  0  0  3  0  0  0  0  0  0
  -23.8760   -8.3670   22.0650 C   0  0  0  0  0  3  0  0  0  0  0  0
  -22.6970   -8.1380   21.3170 C   0  0  0  0  0  0  0  0  0  0  0  0
  -22.2860   -9.0970   20.3750 C   0  0  0  0  0  3  0  0  0  0  0  0
  -23.0200  -10.2800   20.1900 C   0  0  0  0  0  3  0  0  0  0  0  0
  -21.9340   -6.9990   21.4090 O   0  0  0  0  0  0  0  0  0  0  0  0
  -21.8290   -6.2960   22.5820 C   0  0  0  0  0  0  0  0  0  0  0  0
  -21.3480   -6.8930   23.7680 C   0  0  0  0  0  3  0  0  0  0  0  0
  -21.1910   -6.1160   24.9330 C   0  0  0  0  0  3  0  0  0  0  0  0
  -21.5040   -4.7440   24.9140 C   0  0  0  0  0  0  0  0  0  0  0  0
  -21.9770   -4.1470   23.7320 C   0  0  0  0  0  3  0  0  0  0  0  0
  -22.1360   -4.9210   22.5680 C   0  0  0  0  0  0  0  0  0  0  0  0
  -22.5730   -4.3360   21.4270 F   0  0  0  0  0  0  0  0  0  0  0  0
  -21.3460   -3.9960   26.0300 F   0  0  0  0  0  0  0  0  0  0  0  0
  -23.1080  -13.6340   21.2330 C   0  0  0  0  0  0  0  0  0  0  0  0
  -22.4330  -12.9340   22.1400 N   0  0  0  0  0  0  0  0  0  0  0  0
  -22.6470  -14.6690   20.7570 O   0  0  0  0  0  0  0  0  0  0  0  0
  -22.8200  -12.0960   22.5470 H   0  0  0  0  0  0  0  0  0  0  0  0
  -21.5160  -13.2440   22.4320 H   0  0  0  0  0  0  0  0  0  0  0  0
  -25.7110  -15.2840   20.3050 N   0  0  0  0  0  0  0  0  0  0  0  0
  -24.9670  -15.9480   20.4880 H   0  0  0  0  0  0  0  0  0  0  0  0
  -26.5580  -15.7210   19.9640 H   0  0  0  0  0  0  0  0  0  0  0  0
  -30.5800  -19.2630   25.0160 C   0  0  0  0  0  1  0  0  0  0  0  0
  -31.3750  -19.6310   23.7510 C   0  0  0  0  0  2  0  0  0  0  0  0
  -28.5310  -23.1640   20.1680 O   0  0  0  0  0  0  0  0  0  0  0  0
  -27.7760  -24.2690   20.6960 C   0  0  0  0  0  2  0  0  0  0  0  0
  -28.5570  -25.6020   20.9030 C   0  0  0  0  0  2  0  0  0  0  0  0
  -28.3920  -26.6170   19.8930 O   0  0  0  0  0  0  0  0  0  0  0  0
  -24.6960  -31.7880   23.1890 C   0  0  0  0  0  0  0  0  0  0  0  0
  -27.2460  -27.3790   19.9750 C   0  0  0  0  0  0  0  0  0  0  0  0
  -23.4580  -30.4460   21.5220 C   0  0  0  0  0  3  0  0  0  0  0  0
  -24.8790  -28.9270   20.0460 C   0  0  0  0  0  0  0  0  0  0  0  0
  -25.9890  -30.7690   21.3170 C   0  0  0  0  0  2  0  0  0  0  0  0
  -26.0500  -29.4110   20.6470 C   0  0  0  0  0  0  0  0  0  0  0  0
  -27.2370  -28.6410   20.6160 C   0  0  0  0  0  3  0  0  0  0  0  0
  -26.0670  -26.9250   19.3490 C   0  0  0  0  0  3  0  0  0  0  0  0
  -24.8830  -27.6810   19.3980 C   0  0  0  0  0  3  0  0  0  0  0  0
  -23.6490  -29.8020   20.1230 C   0  0  0  0  0  2  0  0  0  0  0  0
  -24.7340  -31.0140   22.0670 N   0  0  0  0  0  0  0  0  0  0  0  0
  -23.6240  -32.0590   23.7440 O   0  0  0  0  0  0  0  0  0  0  0  0
  -22.8020  -29.4070   22.4590 C   0  0  0  0  0  0  0  0  0  0  0  0
  -21.4730  -29.2490   22.3420 N   0  0  0  0  0  0  0  0  0  0  0  0
  -23.4840  -28.7480   23.2490 O   0  0  0  0  0  0  0  0  0  0  0  0
  -20.9860  -29.8320   21.6760 H   0  0  0  0  0  0  0  0  0  0  0  0
  -18.0860  -28.1000   22.8440 C   0  0  0  0  0  0  0  0  0  0  0  0
  -20.6510  -28.3030   23.0950 C   0  0  0  0  0  3  0  0  0  0  0  0
  -20.7220  -26.8890   22.4760 C   0  0  0  0  0  2  0  0  0  0  0  0
  -19.6020  -26.6160   21.4660 C   0  0  0  0  0  2  0  0  0  0  0  0
  -18.2310  -26.7680   22.1290 C   0  0  0  0  0  2  0  0  0  0  0  0
  -19.2230  -28.8280   23.2840 C   0  0  0  0  0  0  0  0  0  0  0  0
  -19.0330  -30.0780   23.9130 C   0  0  0  0  0  3  0  0  0  0  0  0
  -17.7390  -30.5980   24.1070 C   0  0  0  0  0  3  0  0  0  0  0  0
  -16.6170  -29.8650   23.6850 C   0  0  0  0  0  3  0  0  0  0  0  0
  -16.7920  -28.6180   23.0580 C   0  0  0  0  0  3  0  0  0  0  0  0
  -25.9950  -32.3850   23.8130 C   0  0  0  0  0  3  0  0  0  0  0  0
  -26.5550  -31.5320   25.0170 C   0  0  1  0  0  0  0  0  0  0  0  0
  -25.4930  -31.2090   26.0930 C   0  0  0  0  0  1  0  0  0  0  0  0
  -27.1400  -30.1930   24.5120 C   0  0  0  0  0  1  0  0  0  0  0  0
  -27.7170  -32.2900   25.7000 C   0  0  0  0  0  1  0  0  0  0  0  0
  -25.6890  -33.7550   24.2450 N   0  0  0  0  0  0  0  0  0  0  0  0
  -26.0000  -34.8580   23.5500 C   0  0  0  0  0  0  0  0  0  0  0  0
  -26.6480  -34.8280   22.5010 O   0  0  0  0  0  0  0  0  0  0  0  0
  -25.1120  -33.8520   25.0670 H   0  0  0  0  0  0  0  0  0  0  0  0
  -24.2630  -36.6630   23.3470 C   0  0  0  0  0  1  0  0  0  0  0  0
  -25.5170  -36.2090   24.1100 C   0  0  0  0  0  3  0  0  0  0  0  0
  -27.6610  -37.0410   24.9710 C   0  0  0  0  0  1  0  0  0  0  0  0
  -26.5450  -37.2710   24.0550 N   0  0  0  0  0  0  0  0  0  0  0  0
  -26.1390  -38.1770   24.2710 H   0  0  0  0  0  0  0  0  0  0  0  0
  1  6  2  0
  1  3  1  0
  2  4  2  0
  3  5  2  0
  4  7  1  0
  5  4  1  0
  5 51  1  0
  6  2  1  0
  8 21  1  0
  9 14  1  0
 10 11  1  0
 10  9  1  0
 12 11  1  0
 12 25  1  0
 12 13  1  0
 14  8  1  0
 14 13  1  0
 15  8  2  0
 17 20  1  0
 18 16  1  0
 19 17  1  0
 19 21  1  0
 20  3  1  0
 20 16  1  0
 21 18  1  0
 22 23  2  0
 23 42  1  0
 24 23  1  0
 24 27  1  0
 25 26  1  0
 25 22  1  0
 26 24  2  0
 27 28  1  0
 28 29  2  0
 30 33  1  0
 30 29  1  0
 31 30  2  0
 32 31  1  0
 32 27  2  0
 33 34  1  0
 34 35  1  0
 35 36  2  0
 37 36  1  0
 37 41  1  0
 38 37  2  0
 39 34  2  0
 39 38  1  0
 40 39  1  0
 42 43  1  0
 43 46  1  0
 43 45  1  0
 44 42  2  0
 47 22  1  0
 47 48  1  0
 49 47  1  0
 51 50  1  0
 52 53  1  0
 52  6  1  0
 53 54  1  0
 55 57  1  0
 55 54  1  0
 56 67  2  0
 57 62  1  0
 58 66  1  0
 58 68  1  0
 59 65  1  0
 59 61  1  0
 60 66  1  0
 61 60  1  0
 62 61  2  0
 63 64  1  0
 63 57  2  0
 64 59  2  0
 65 58  1  0
 66 56  1  0
 68 70  2  0
 69 68  1  0
 71 69  1  0
 72 81  2  0
 72 77  1  0
 73 69  1  0
 73 77  1  0
 74 73  1  0
 75 76  1  0
 75 74  1  0
 76 72  1  0
 77 78  2  0
 78 79  1  0
 80 79  2  0
 81 80  1  0
 82 56  1  0
 82 87  1  0
 82 83  1  0
 83 86  1  1
 83 84  1  0
 85 83  1  0
 87 90  1  0
 88 92  1  0
 88 87  1  0
 89 88  2  0
 92 91  1  0
 94 92  1  0
 94 95  1  0
 94 93  1  0
M  ISO  4   8 100  21 100  54 101  55 101
M  END
>  <TORSDO>  (65) 
F 20

>  <SCORE>  (65) 
-11.436

>  <name>  (65) 
65

>  <ligand_id>  (65) 
65

>  <original_smiles>  (65) 
[H]c1c([H])c([H])c2c(c1[H])C([H])([H])C([H])([H])C([H])([H])C2([H])N([H])C(=O)C1([H])N(C(=O)C([H])(N([H])C(=O)C([H])(N([H])C([H])([H])[H])C([H])([H])[H])C(C([H])([H])[H])(C([H])([H])[H])C([H])([H])[H])C([H])([H])c2c([H])c(OC([H])([H])C([H])([H])Oc3c([H])c(C([H])([H])[H])c(C([H])([H])C([H])([H])[H])c(C4([H])C([H])([H])C([H])([H])N(C(=O)N5C([H])([H])C([H])([H])C([H])([H])C([H])(n6nc(-c7c([H])c([H])c(Oc8c([H])c([H])c(F)c([H])c8F)c([H])c7[H])c(C(=O)N([H])[H])c6N([H])[H])C5([H])[H])C([H])([H])C4([H])[H])c3[H])c([H])c([H])c2C1([H])[H]

>  <smiles>  (65) 
[H]c1c([H])c([H])c2c(c1[H])C([H])([H])C([H])([H])C([H])([H])C2([H])N([H])C(=O)C1([H])N(C(=O)C([H])(N([H])C(=O)C([H])(N([H])C([H])([H])[H])C([H])([H])[H])C(C([H])([H])[H])(C([H])([H])[H])C([H])([H])[H])C([H])([H])c2c([H])c(OC([H])([H])C([H])([H])Oc3c([H])c(C([H])([H])[H])c(C([H])([H])C([H])([H])[H])c(C4([H])C([H])([H])C([H])([H])N(C(=O)N5C([H])([H])C([H])([H])C([H])([H])C([H])(n6nc(-c7c([H])c([H])c(Oc8c([H])c([H])c(F)c([H])c8F)c([H])c7[H])c(C(=O)N([H])[H])c6N([H])[H])C5([H])[H])C([H])([H])C4([H])[H])c3[H])c([H])c([H])c2C1([H])[H]

$$$$
66:0:0
     RDKit          3D

 93102  0  0  1  0  0  0  0  0999 V2000
  -30.0760  -23.3870   20.2340 C   0  0  0  0  0  2  0  0  0  0  0  0
  -27.6820  -22.9580   20.9850 C   0  0  0  0  0  2  0  0  0  0  0  0
  -29.9620  -24.7880   20.9010 C   0  0  0  0  0  2  0  0  0  0  0  0
  -27.5140  -24.3710   20.3700 C   0  0  0  0  0  2  0  0  0  0  0  0
  -29.0990  -22.3360   20.8360 C   0  0  0  0  0  3  0  0  0  0  0  0
  -28.5350  -25.4090   20.9110 C   0  0  0  0  0  3  0  0  0  0  0  0
  -28.6460  -21.0490   18.6560 C   0  0  0  0  0  1  0  0  0  0  0  0
  -29.0840  -20.9240   20.1310 C   0  0  0  0  0  3  0  0  0  0  0  0
  -30.8640  -19.1390   19.2010 C   0  0  0  0  0  2  0  0  0  0  0  0
  -30.4260  -19.3020   21.6980 C   0  0  0  0  0  2  0  0  0  0  0  0
  -30.2200  -17.7340   19.2040 C   0  0  0  0  0  2  0  0  0  0  0  0
  -29.8310  -17.8670   21.6480 C   0  0  0  0  0  2  0  0  0  0  0  0
  -30.3970  -20.0830   20.3510 C   0  0  0  0  0  3  0  0  0  0  0  0
  -30.4930  -17.0170   20.5410 C   0  0  0  0  0  3  0  0  0  0  0  0
  -30.7490  -14.5550   20.0290 C   0  0  0  0  0  0  0  0  0  0  0  0
  -30.4040  -12.3700   18.9320 C   0  0  0  0  0  2  0  0  0  0  0  0
  -29.3910  -12.5430   17.7810 C   0  0  0  0  0  2  0  0  0  0  0  0
  -27.9460  -12.4040   18.2990 C   0  0  0  0  0  2  0  0  0  0  0  0
  -27.6770  -13.2590   19.5670 C   0  0  0  0  0  3  0  0  0  0  0  0
  -28.7970  -13.0670   20.6150 C   0  0  0  0  0  2  0  0  0  0  0  0
  -30.0800  -13.3710   19.9630 N   0  0  0  0  0  0  0  0  0  0  0  0
  -31.8580  -14.7180   19.5130 O   0  0  0  0  0  0  0  0  0  0  0  0
  -30.0600  -15.6010   20.5420 N   0  0  0  0  0  0  0  0  0  0  0  0
  -29.1460  -15.3950   20.9160 H   0  0  0  0  0  0  0  0  0  0  0  0
  -25.3430  -13.8730   20.4540 C   0  0  0  0  0  0  0  0  0  0  0  0
  -24.2900  -13.1030   20.8710 C   0  0  0  0  0  0  0  0  0  0  0  0
  -24.7280  -11.7470   20.7680 C   0  0  0  0  0  0  0  0  0  0  0  0
  -26.3570  -12.9850   20.1270 N   0  0  0  0  0  0  0  0  0  0  0  0
  -25.9940  -11.7000   20.3720 N   0  0  0  0  0  0  0  0  0  0  0  0
  -23.9960  -10.4900   20.9670 C   0  0  0  0  0  0  0  0  0  0  0  0
  -24.4460   -9.5100   21.8790 C   0  0  0  0  0  3  0  0  0  0  0  0
  -23.7160   -8.3170   22.0680 C   0  0  0  0  0  3  0  0  0  0  0  0
  -22.5220   -8.0950   21.3420 C   0  0  0  0  0  0  0  0  0  0  0  0
  -22.0910   -9.0630   20.4180 C   0  0  0  0  0  3  0  0  0  0  0  0
  -22.8220  -10.2470   20.2290 C   0  0  0  0  0  3  0  0  0  0  0  0
  -21.7600   -6.9550   21.4400 O   0  0  0  0  0  0  0  0  0  0  0  0
  -21.6910   -6.2340   22.6050 C   0  0  0  0  0  0  0  0  0  0  0  0
  -21.2280   -6.8070   23.8090 C   0  0  0  0  0  3  0  0  0  0  0  0
  -21.1080   -6.0110   24.9660 C   0  0  0  0  0  3  0  0  0  0  0  0
  -21.4390   -4.6450   24.9190 C   0  0  0  0  0  0  0  0  0  0  0  0
  -21.8940   -4.0710   23.7200 C   0  0  0  0  0  3  0  0  0  0  0  0
  -22.0170   -4.8630   22.5650 C   0  0  0  0  0  0  0  0  0  0  0  0
  -22.4360   -4.3010   21.4060 F   0  0  0  0  0  0  0  0  0  0  0  0
  -21.3150   -3.8780   26.0290 F   0  0  0  0  0  0  0  0  0  0  0  0
  -22.9220  -13.5910   21.2520 C   0  0  0  0  0  0  0  0  0  0  0  0
  -22.2450  -12.8770   22.1460 N   0  0  0  0  0  0  0  0  0  0  0  0
  -22.4650  -14.6360   20.7930 O   0  0  0  0  0  0  0  0  0  0  0  0
  -22.6290  -12.0310   22.5380 H   0  0  0  0  0  0  0  0  0  0  0  0
  -21.3300  -13.1840   22.4440 H   0  0  0  0  0  0  0  0  0  0  0  0
  -25.5160  -15.2460   20.3070 N   0  0  0  0  0  0  0  0  0  0  0  0
  -24.7690  -15.9070   20.4870 H   0  0  0  0  0  0  0  0  0  0  0  0
  -26.3460  -15.6830   19.9260 H   0  0  0  0  0  0  0  0  0  0  0  0
  -28.5640  -26.7050   20.2510 O   0  0  0  0  0  0  0  0  0  0  0  0
  -24.6770  -31.9180   23.2650 C   0  0  0  0  0  0  0  0  0  0  0  0
  -27.4050  -27.4640   20.2510 C   0  0  0  0  0  0  0  0  0  0  0  0
  -23.5150  -30.5090   21.6000 C   0  0  0  0  0  3  0  0  0  0  0  0
  -25.0090  -28.9840   20.2030 C   0  0  0  0  0  0  0  0  0  0  0  0
  -26.0450  -30.8760   21.4590 C   0  0  0  0  0  2  0  0  0  0  0  0
  -26.1540  -29.5020   20.8230 C   0  0  0  0  0  0  0  0  0  0  0  0
  -27.3550  -28.7500   20.8460 C   0  0  0  0  0  3  0  0  0  0  0  0
  -26.2520  -26.9890   19.5900 C   0  0  0  0  0  3  0  0  0  0  0  0
  -25.0550  -27.7240   19.5840 C   0  0  0  0  0  3  0  0  0  0  0  0
  -23.7600  -29.8360   20.2240 C   0  0  0  0  0  2  0  0  0  0  0  0
  -24.7620  -31.1170   22.1660 N   0  0  0  0  0  0  0  0  0  0  0  0
  -23.5830  -32.1830   23.7830 O   0  0  0  0  0  0  0  0  0  0  0  0
  -22.8520  -29.4800   22.5460 C   0  0  0  0  0  0  0  0  0  0  0  0
  -21.5340  -29.2800   22.3850 N   0  0  0  0  0  0  0  0  0  0  0  0
  -23.5220  -28.8660   23.3800 O   0  0  0  0  0  0  0  0  0  0  0  0
  -21.0540  -29.8300   21.6860 H   0  0  0  0  0  0  0  0  0  0  0  0
  -18.1670  -28.0270   22.7860 C   0  0  0  0  0  0  0  0  0  0  0  0
  -20.7100  -28.3340   23.1370 C   0  0  0  0  0  3  0  0  0  0  0  0
  -20.8570  -26.9000   22.5780 C   0  0  0  0  0  2  0  0  0  0  0  0
  -19.7940  -26.5490   21.5310 C   0  0  0  0  0  2  0  0  0  0  0  0
  -18.3890  -26.6750   22.1290 C   0  0  0  0  0  2  0  0  0  0  0  0
  -19.2580  -28.8120   23.2460 C   0  0  0  0  0  0  0  0  0  0  0  0
  -18.9980  -30.0760   23.8180 C   0  0  0  0  0  3  0  0  0  0  0  0
  -17.6810  -30.5570   23.9370 C   0  0  0  0  0  3  0  0  0  0  0  0
  -16.6040  -29.7690   23.4950 C   0  0  0  0  0  3  0  0  0  0  0  0
  -16.8480  -28.5060   22.9260 C   0  0  0  0  0  3  0  0  0  0  0  0
  -25.9460  -32.5590   23.9090 C   0  0  0  0  0  3  0  0  0  0  0  0
  -25.6240  -33.9580   24.2200 N   0  0  0  0  0  0  0  0  0  0  0  0
  -25.9540  -35.0040   23.4500 C   0  0  0  0  0  0  0  0  0  0  0  0
  -26.6340  -34.8930   22.4250 O   0  0  0  0  0  0  0  0  0  0  0  0
  -25.0240  -34.1180   25.0150 H   0  0  0  0  0  0  0  0  0  0  0  0
  -24.2090  -36.7740   23.0630 C   0  0  0  0  0  1  0  0  0  0  0  0
  -25.4510  -36.3930   23.8850 C   0  0  0  0  0  3  0  0  0  0  0  0
  -27.5700  -37.3140   24.7140 C   0  0  0  0  0  1  0  0  0  0  0  0
  -26.4730  -37.4560   23.7610 N   0  0  0  0  0  0  0  0  0  0  0  0
  -26.0570  -38.3740   23.8920 H   0  0  0  0  0  0  0  0  0  0  0  0
  -26.4390  -31.8000   25.2020 C   0  0  1  0  0  0  0  0  0  0  0  0
  -25.3230  -31.5600   26.2440 C   0  0  0  0  0  1  0  0  0  0  0  0
  -27.0430  -30.4240   24.8320 C   0  0  0  0  0  1  0  0  0  0  0  0
  -27.5670  -32.6080   25.8870 C   0  0  0  0  0  1  0  0  0  0  0  0
  1  5  1  0
  1  3  1  0
  3  6  1  0
  4  6  1  0
  4  2  1  0
  5  8  1  0
  5  2  1  0
  6 53  1  0
  8  7  1  0
  9 11  1  0
  9 13  1  0
 11 14  1  0
 12 10  1  0
 13  8  1  0
 13 10  1  0
 14 23  1  0
 14 12  1  0
 15 23  1  0
 16 21  1  0
 17 18  1  0
 17 16  1  0
 19 18  1  0
 19 28  1  0
 19 20  1  0
 21 15  1  0
 21 20  1  0
 22 15  2  0
 23 24  1  0
 25 26  2  0
 26 45  1  0
 27 26  1  0
 27 30  1  0
 28 29  1  0
 28 25  1  0
 29 27  2  0
 30 31  1  0
 31 32  2  0
 33 36  1  0
 33 32  1  0
 34 33  2  0
 35 34  1  0
 35 30  2  0
 36 37  1  0
 37 38  1  0
 38 39  2  0
 40 39  1  0
 40 44  1  0
 41 40  2  0
 42 37  2  0
 42 41  1  0
 43 42  1  0
 45 46  1  0
 46 49  1  0
 46 48  1  0
 47 45  2  0
 50 25  1  0
 50 51  1  0
 52 50  1  0
 53 55  1  0
 54 65  2  0
 55 60  1  0
 56 64  1  0
 56 66  1  0
 57 63  1  0
 57 59  1  0
 58 64  1  0
 59 60  2  0
 59 58  1  0
 61 55  2  0
 62 61  1  0
 62 57  2  0
 63 56  1  0
 64 54  1  0
 66 68  2  0
 67 66  1  0
 69 67  1  0
 70 79  2  0
 70 75  1  0
 71 67  1  0
 71 75  1  0
 72 71  1  0
 73 74  1  0
 73 72  1  0
 74 70  1  0
 75 76  2  0
 76 77  1  0
 78 77  2  0
 79 78  1  0
 80 54  1  0
 80 81  1  0
 80 90  1  0
 81 84  1  0
 82 86  1  0
 82 81  1  0
 83 82  2  0
 86 85  1  0
 88 86  1  0
 88 89  1  0
 88 87  1  0
 90 93  1  1
 90 91  1  0
 92 90  1  0
M  ISO  4   6 101  15 100  23 100  53 101
M  END
>  <TORSDO>  (66) 
F 18

>  <SCORE>  (66) 
-14.420

>  <name>  (66) 
66

>  <ligand_id>  (66) 
66

>  <original_smiles>  (66) 
[H]c1c([H])c([H])c2c(c1[H])C([H])([H])C([H])([H])C([H])([H])C2([H])N([H])C(=O)C1([H])N(C(=O)C([H])(N([H])C(=O)C([H])(N([H])C([H])([H])[H])C([H])([H])[H])C(C([H])([H])[H])(C([H])([H])[H])C([H])([H])[H])C([H])([H])c2c([H])c(OC3([H])C([H])([H])C([H])([H])C([H])(C([H])(C([H])([H])[H])C4([H])C([H])([H])C([H])([H])C([H])(N([H])C(=O)N5C([H])([H])C([H])([H])C([H])([H])C([H])(n6nc(-c7c([H])c([H])c(Oc8c([H])c([H])c(F)c([H])c8F)c([H])c7[H])c(C(=O)N([H])[H])c6N([H])[H])C5([H])[H])C([H])([H])C4([H])[H])C([H])([H])C3([H])[H])c([H])c([H])c2C1([H])[H]

>  <smiles>  (66) 
[H]c1c([H])c([H])c2c(c1[H])C([H])([H])C([H])([H])C([H])([H])C2([H])N([H])C(=O)C1([H])N(C(=O)C([H])(N([H])C(=O)C([H])(N([H])C([H])([H])[H])C([H])([H])[H])C(C([H])([H])[H])(C([H])([H])[H])C([H])([H])[H])C([H])([H])c2c([H])c(OC3([H])C([H])([H])C([H])([H])C([H])(C([H])(C([H])([H])[H])C4([H])C([H])([H])C([H])([H])C([H])(N([H])C(=O)N5C([H])([H])C([H])([H])C([H])([H])C([H])(n6nc(-c7c([H])c([H])c(Oc8c([H])c([H])c(F)c([H])c8F)c([H])c7[H])c(C(=O)N([H])[H])c6N([H])[H])C5([H])[H])C([H])([H])C4([H])[H])C([H])([H])C3([H])[H])c([H])c([H])c2C1([H])[H]

$$$$
67:0:0
     RDKit          3D

 96104  0  0  1  0  0  0  0  0999 V2000
  -30.6770  -20.6400   19.3650 C   0  0  0  0  0  3  0  0  0  0  0  0
  -29.4460  -19.0970   20.7670 C   0  0  0  0  0  3  0  0  0  0  0  0
  -29.6110  -20.4950   20.2660 C   0  0  0  0  0  0  0  0  0  0  0  0
  -31.4560  -19.5450   18.9260 C   0  0  0  0  0  0  0  0  0  0  0  0
  -30.2570  -17.9030   20.3740 C   0  0  0  0  0  0  0  0  0  0  0  0
  -31.2130  -18.2060   19.3600 C   0  0  0  0  0  0  0  0  0  0  0  0
  -32.5870  -19.8660   17.9600 C   0  0  0  0  0  1  0  0  0  0  0  0
  -30.8760  -15.2380   20.7380 C   0  0  0  0  0  0  0  0  0  0  0  0
  -30.8380  -12.8560   19.8640 C   0  0  0  0  0  2  0  0  0  0  0  0
  -29.9970  -12.7800   18.5690 C   0  0  0  0  0  2  0  0  0  0  0  0
  -28.5080  -12.5690   18.8990 C   0  0  0  0  0  2  0  0  0  0  0  0
  -28.0130  -13.5030   20.0340 C   0  0  0  0  0  3  0  0  0  0  0  0
  -28.9890  -13.5530   21.2280 C   0  0  0  0  0  2  0  0  0  0  0  0
  -30.2940  -13.9690   20.6980 N   0  0  0  0  0  0  0  0  0  0  0  0
  -32.0980  -15.2750   20.5560 O   0  0  0  0  0  0  0  0  0  0  0  0
  -30.0830  -16.4300   20.8270 N   0  0  0  0  0  0  0  0  0  0  0  0
  -29.1630  -16.2330   21.1900 H   0  0  0  0  0  0  0  0  0  0  0  0
  -25.5860  -14.0590   20.6130 C   0  0  0  0  0  0  0  0  0  0  0  0
  -24.5060  -13.2780   20.9170 C   0  0  0  0  0  0  0  0  0  0  0  0
  -24.9840  -11.9310   20.9310 C   0  0  0  0  0  0  0  0  0  0  0  0
  -26.6500  -13.1910   20.4480 N   0  0  0  0  0  0  0  0  0  0  0  0
  -26.2940  -11.9060   20.7060 N   0  0  0  0  0  0  0  0  0  0  0  0
  -24.2570  -10.6650   21.0820 C   0  0  0  0  0  0  0  0  0  0  0  0
  -24.6250   -9.7130   22.0590 C   0  0  0  0  0  3  0  0  0  0  0  0
  -23.8960   -8.5130   22.2000 C   0  0  0  0  0  3  0  0  0  0  0  0
  -22.7850   -8.2540   21.3620 C   0  0  0  0  0  0  0  0  0  0  0  0
  -22.4360   -9.1930   20.3760 C   0  0  0  0  0  3  0  0  0  0  0  0
  -23.1670  -10.3860   20.2340 C   0  0  0  0  0  3  0  0  0  0  0  0
  -22.0340   -7.1040   21.4100 O   0  0  0  0  0  0  0  0  0  0  0  0
  -21.8460   -6.4150   22.5810 C   0  0  0  0  0  0  0  0  0  0  0  0
  -21.2080   -6.9990   23.6960 C   0  0  0  0  0  3  0  0  0  0  0  0
  -20.9740   -6.2330   24.8550 C   0  0  0  0  0  3  0  0  0  0  0  0
  -21.3670   -4.8810   24.8980 C   0  0  0  0  0  0  0  0  0  0  0  0
  -21.9970   -4.2950   23.7860 C   0  0  0  0  0  3  0  0  0  0  0  0
  -22.2320   -5.0590   22.6300 C   0  0  0  0  0  0  0  0  0  0  0  0
  -22.8200   -4.4850   21.5530 F   0  0  0  0  0  0  0  0  0  0  0  0
  -21.1360   -4.1430   26.0090 F   0  0  0  0  0  0  0  0  0  0  0  0
  -23.0910  -13.7460   21.0880 C   0  0  0  0  0  0  0  0  0  0  0  0
  -22.3110  -13.0490   21.9080 N   0  0  0  0  0  0  0  0  0  0  0  0
  -22.6840  -14.7650   20.5330 O   0  0  0  0  0  0  0  0  0  0  0  0
  -22.6510  -12.2260   22.3810 H   0  0  0  0  0  0  0  0  0  0  0  0
  -21.3570  -13.3450   22.0640 H   0  0  0  0  0  0  0  0  0  0  0  0
  -25.7480  -15.4310   20.4360 N   0  0  0  0  0  0  0  0  0  0  0  0
  -24.9720  -16.0780   20.5160 H   0  0  0  0  0  0  0  0  0  0  0  0
  -26.6190  -15.8880   20.2050 H   0  0  0  0  0  0  0  0  0  0  0  0
  -28.7090  -21.8500   20.5820 C   0  0  0  0  0  2  0  0  0  0  0  0
  -29.0460  -23.4490   20.1080 C   0  0  0  0  0  3  0  0  0  0  0  0
  -28.0410  -24.7970   20.3310 C   0  0  0  0  0  3  0  0  0  0  0  0
  -28.3090  -26.3130   20.0430 O   0  0  0  0  0  0  0  0  0  0  0  0
  -24.6090  -31.7720   23.3930 C   0  0  0  0  0  0  0  0  0  0  0  0
  -27.2530  -27.3020   20.0630 C   0  0  0  0  0  0  0  0  0  0  0  0
  -23.4460  -30.5080   21.6250 C   0  0  0  0  0  3  0  0  0  0  0  0
  -24.9280  -29.0520   20.1120 C   0  0  0  0  0  0  0  0  0  0  0  0
  -26.0030  -30.7860   21.5350 C   0  0  0  0  0  2  0  0  0  0  0  0
  -26.0940  -29.4470   20.7800 C   0  0  0  0  0  0  0  0  0  0  0  0
  -27.2590  -28.5900   20.7370 C   0  0  0  0  0  3  0  0  0  0  0  0
  -26.0650  -27.0210   19.3520 C   0  0  0  0  0  3  0  0  0  0  0  0
  -24.9280  -27.8550   19.3810 C   0  0  0  0  0  3  0  0  0  0  0  0
  -23.6970  -29.9420   20.2030 C   0  0  0  0  0  2  0  0  0  0  0  0
  -24.7050  -31.0390   22.2410 N   0  0  0  0  0  0  0  0  0  0  0  0
  -23.5110  -32.0120   23.9190 O   0  0  0  0  0  0  0  0  0  0  0  0
  -22.7510  -29.4260   22.4910 C   0  0  0  0  0  0  0  0  0  0  0  0
  -21.4370  -29.2280   22.2900 N   0  0  0  0  0  0  0  0  0  0  0  0
  -23.4010  -28.7690   23.3090 O   0  0  0  0  0  0  0  0  0  0  0  0
  -20.9690  -29.8120   21.6110 H   0  0  0  0  0  0  0  0  0  0  0  0
  -18.0670  -27.9280   22.5700 C   0  0  0  0  0  0  0  0  0  0  0  0
  -20.6050  -28.2270   22.9640 C   0  0  0  0  0  3  0  0  0  0  0  0
  -20.7660  -26.8370   22.3050 C   0  0  0  0  0  2  0  0  0  0  0  0
  -19.7150  -26.5570   21.2250 C   0  0  0  0  0  2  0  0  0  0  0  0
  -18.3040  -26.6300   21.8160 C   0  0  0  0  0  2  0  0  0  0  0  0
  -19.1470  -28.6860   23.0950 C   0  0  0  0  0  0  0  0  0  0  0  0
  -18.8720  -29.9000   23.7590 C   0  0  0  0  0  3  0  0  0  0  0  0
  -17.5490  -30.3590   23.9010 C   0  0  0  0  0  3  0  0  0  0  0  0
  -16.4830  -29.5990   23.3920 C   0  0  0  0  0  3  0  0  0  0  0  0
  -16.7410  -28.3840   22.7330 C   0  0  0  0  0  3  0  0  0  0  0  0
  -25.8710  -32.3580   24.0940 C   0  0  0  0  0  3  0  0  0  0  0  0
  -25.6270  -33.7890   24.3340 N   0  0  0  0  0  0  0  0  0  0  0  0
  -26.0720  -34.7830   23.5530 C   0  0  0  0  0  0  0  0  0  0  0  0
  -26.7960  -34.5880   22.5740 O   0  0  0  0  0  0  0  0  0  0  0  0
  -24.9940  -34.0190   25.0860 H   0  0  0  0  0  0  0  0  0  0  0  0
  -24.4550  -36.6430   23.0390 C   0  0  0  0  0  1  0  0  0  0  0  0
  -25.6470  -36.2200   23.9140 C   0  0  0  0  0  3  0  0  0  0  0  0
  -27.7980  -37.0420   24.7690 C   0  0  0  0  0  1  0  0  0  0  0  0
  -26.7380  -37.2100   23.7770 N   0  0  0  0  0  0  0  0  0  0  0  0
  -26.3790  -38.1580   23.8560 H   0  0  0  0  0  0  0  0  0  0  0  0
  -26.2250  -31.6270   25.4470 C   0  0  1  0  0  0  0  0  0  0  0  0
  -25.0100  -31.4310   26.3840 C   0  0  0  0  0  1  0  0  0  0  0  0
  -26.8360  -30.2320   25.1760 C   0  0  0  0  0  1  0  0  0  0  0  0
  -27.2980  -32.4350   26.2130 C   0  0  0  0  0  1  0  0  0  0  0  0
  -31.8950  -17.1710   18.7690 O   0  0  0  0  0  0  0  0  0  0  0  0
  -31.6900  -16.9690   17.3650 C   0  0  0  0  0  2  0  0  0  0  0  0
  -30.2350  -17.2080   16.9030 C   0  0  0  0  0  2  0  0  0  0  0  0
  -28.6060  -18.9280   16.1620 C   0  0  0  0  0  1  0  0  0  0  0  0
  -30.0250  -18.5650   16.3400 N   0  0  0  0  0  4  0  0  0  0  0  0
  -30.4520  -19.2600   16.9330 H   0  0  0  0  0  0  0  0  0  0  0  0
  -30.4710  -18.6250   15.4370 H   0  0  0  0  0  0  0  0  0  0  0  0
  1  3  1  0
  3 46  1  0
  3  2  2  0
  4  6  1  0
  4  1  2  0
  5  2  1  0
  5 16  1  0
  6  5  2  0
  7  4  1  0
  8 16  1  0
  9 14  1  0
 10 11  1  0
 10  9  1  0
 12 11  1  0
 12 21  1  0
 12 13  1  0
 14  8  1  0
 14 13  1  0
 15  8  2  0
 16 17  1  0
 18 19  2  0
 19 20  1  0
 19 38  1  0
 20 23  1  0
 21 18  1  0
 21 22  1  0
 22 20  2  0
 23 24  1  0
 24 25  2  0
 26 29  1  0
 26 25  1  0
 27 26  2  0
 28 27  1  0
 28 23  2  0
 29 30  1  0
 30 35  2  0
 30 31  1  0
 31 32  2  0
 32 33  1  0
 33 37  1  0
 34 33  2  0
 35 34  1  0
 36 35  1  0
 38 39  1  0
 39 42  1  0
 39 41  1  0
 40 38  2  0
 43 44  1  0
 43 18  1  0
 45 43  1  0
 47 48  2  0
 47 46  1  0
 49 51  1  0
 49 48  1  0
 50 61  2  0
 51 56  1  0
 52 60  1  0
 52 62  1  0
 53 59  1  0
 53 55  1  0
 54 60  1  0
 55 54  1  0
 56 55  2  0
 57 58  1  0
 57 51  2  0
 58 53  2  0
 59 52  1  0
 60 50  1  0
 62 64  2  0
 63 62  1  0
 65 63  1  0
 66 75  2  0
 66 71  1  0
 67 63  1  0
 67 71  1  0
 68 67  1  0
 69 70  1  0
 69 68  1  0
 70 66  1  0
 71 72  2  0
 72 73  1  0
 74 73  2  0
 75 74  1  0
 76 50  1  0
 76 77  1  0
 76 86  1  0
 77 80  1  0
 78 82  1  0
 78 77  1  0
 79 78  2  0
 82 81  1  0
 84 85  1  0
 84 82  1  0
 84 83  1  0
 86 89  1  1
 86 87  1  0
 88 86  1  0
 90  6  1  0
 91 90  1  0
 92 91  1  0
 93 94  1  0
 94 92  1  0
 94 95  1  0
 96 94  1  0
M  ISO  4   8 100  16 100  48 101  49 101
M  END
>  <TORSDO>  (67) 
F 23

>  <SCORE>  (67) 
-12.684

>  <name>  (67) 
67

>  <ligand_id>  (67) 
67

>  <original_smiles>  (67) 
[H]c1c([H])c([H])c2c(c1[H])C([H])([H])C([H])([H])C([H])([H])C2([H])N([H])C(=O)C1([H])N(C(=O)C([H])(N([H])C(=O)C([H])(N([H])C([H])([H])[H])C([H])([H])[H])C(C([H])([H])[H])(C([H])([H])[H])C([H])([H])[H])C([H])([H])c2c([H])c(OC([H])([H])C([H])([H])C([H])([H])c3c([H])c(N([H])C(=O)N4C([H])([H])C([H])([H])C([H])([H])C([H])(n5nc(-c6c([H])c([H])c(Oc7c([H])c([H])c(F)c([H])c7F)c([H])c6[H])c(C(=O)N([H])[H])c5N([H])[H])C4([H])[H])c(OC([H])([H])C([H])([H])[N+]([H])([H])C([H])([H])[H])c(C([H])([H])[H])c3[H])c([H])c([H])c2C1([H])[H]

>  <smiles>  (67) 
[H]c1c([H])c([H])c2c(c1[H])C([H])([H])C([H])([H])C([H])([H])C2([H])N([H])C(=O)C1([H])N(C(=O)C([H])(N([H])C(=O)C([H])(N([H])C([H])([H])[H])C([H])([H])[H])C(C([H])([H])[H])(C([H])([H])[H])C([H])([H])[H])C([H])([H])c2c([H])c(OC([H])([H])C([H])([H])C([H])([H])c3c([H])c(N([H])C(=O)N4C([H])([H])C([H])([H])C([H])([H])C([H])(n5nc(-c6c([H])c([H])c(Oc7c([H])c([H])c(F)c([H])c7F)c([H])c6[H])c(C(=O)N([H])[H])c5N([H])[H])C4([H])[H])c(OC([H])([H])C([H])([H])[N+]([H])([H])C([H])([H])[H])c(C([H])([H])[H])c3[H])c([H])c([H])c2C1([H])[H]

$$$$
68:0:0
     RDKit          3D

 93103  0  0  1  0  0  0  0  0999 V2000
  -27.8080  -20.2100   20.4920 C   0  0  0  0  0  3  0  0  0  0  0  0
  -27.3220  -21.5470   20.4170 C   0  0  0  0  0  3  0  0  0  0  0  0
  -30.0730  -21.0390   20.4750 C   0  0  0  0  0  3  0  0  0  0  0  0
  -29.1940  -19.9130   20.5680 C   0  0  0  0  0  0  0  0  0  0  0  0
  -28.2000  -22.6570   20.3960 C   0  0  0  0  0  0  0  0  0  0  0  0
  -29.5840  -22.3870   20.3850 C   0  0  0  0  0  0  0  0  0  0  0  0
  -27.6890  -24.1300   20.4900 C   0  0  0  0  0  2  0  0  0  0  0  0
  -30.5070  -23.6040   20.3510 C   0  0  0  0  0  2  0  0  0  0  0  0
  -29.9690  -24.7810   19.4780 C   0  0  0  0  0  2  0  0  0  0  0  0
  -28.4860  -25.2280   19.6860 C   0  0  0  0  0  3  0  0  0  0  0  0
  -31.6080  -17.7680   20.6900 C   0  0  0  0  0  2  0  0  0  0  0  0
  -29.6620  -18.4400   20.9140 C   0  0  0  0  0  3  0  0  0  0  0  0
  -30.3150  -17.3110   20.0130 C   0  0  0  0  0  3  0  0  0  0  0  0
  -30.8780  -18.5040   21.7080 O   0  0  0  0  0  0  0  0  0  0  0  0
  -30.7320  -14.7550   19.9780 C   0  0  0  0  0  0  0  0  0  0  0  0
  -30.4340  -12.5210   18.9360 C   0  0  0  0  0  2  0  0  0  0  0  0
  -29.4260  -12.6560   17.7730 C   0  0  0  0  0  2  0  0  0  0  0  0
  -27.9820  -12.4950   18.2880 C   0  0  0  0  0  2  0  0  0  0  0  0
  -27.6960  -13.3550   19.5490 C   0  0  0  0  0  3  0  0  0  0  0  0
  -28.8180  -13.2130   20.6020 C   0  0  0  0  0  2  0  0  0  0  0  0
  -30.0890  -13.5450   19.9440 N   0  0  0  0  0  0  0  0  0  0  0  0
  -31.8650  -14.8810   19.5080 O   0  0  0  0  0  0  0  0  0  0  0  0
  -30.0020  -15.8610   20.3320 N   0  0  0  0  0  0  0  0  0  0  0  0
  -29.0840  -15.6770   20.7060 H   0  0  0  0  0  0  0  0  0  0  0  0
  -25.3620  -13.9470   20.4400 C   0  0  0  0  0  0  0  0  0  0  0  0
  -24.3140  -13.1710   20.8550 C   0  0  0  0  0  0  0  0  0  0  0  0
  -24.7600  -11.8170   20.7520 C   0  0  0  0  0  0  0  0  0  0  0  0
  -26.3800  -13.0660   20.1110 N   0  0  0  0  0  0  0  0  0  0  0  0
  -26.0270  -11.7790   20.3600 N   0  0  0  0  0  0  0  0  0  0  0  0
  -24.0340  -10.5550   20.9500 C   0  0  0  0  0  0  0  0  0  0  0  0
  -24.4680   -9.5930   21.8880 C   0  0  0  0  0  3  0  0  0  0  0  0
  -23.7420   -8.3960   22.0730 C   0  0  0  0  0  3  0  0  0  0  0  0
  -22.5690   -8.1530   21.3190 C   0  0  0  0  0  0  0  0  0  0  0  0
  -22.1560   -9.1040   20.3700 C   0  0  0  0  0  3  0  0  0  0  0  0
  -22.8820  -10.2920   20.1820 C   0  0  0  0  0  3  0  0  0  0  0  0
  -21.8160   -7.0090   21.4130 O   0  0  0  0  0  0  0  0  0  0  0  0
  -21.6980   -6.3190   22.5940 C   0  0  0  0  0  0  0  0  0  0  0  0
  -21.1430   -6.9090   23.7490 C   0  0  0  0  0  3  0  0  0  0  0  0
  -20.9770   -6.1430   24.9210 C   0  0  0  0  0  3  0  0  0  0  0  0
  -21.3570   -4.7870   24.9350 C   0  0  0  0  0  0  0  0  0  0  0  0
  -21.9060   -4.1960   23.7850 C   0  0  0  0  0  3  0  0  0  0  0  0
  -22.0730   -4.9600   22.6150 C   0  0  0  0  0  0  0  0  0  0  0  0
  -22.5830   -4.3810   21.5020 F   0  0  0  0  0  0  0  0  0  0  0  0
  -21.1920   -4.0490   26.0580 F   0  0  0  0  0  0  0  0  0  0  0  0
  -22.9420  -13.6510   21.2310 C   0  0  0  0  0  0  0  0  0  0  0  0
  -22.2660  -12.9370   22.1260 N   0  0  0  0  0  0  0  0  0  0  0  0
  -22.4800  -14.6920   20.7670 O   0  0  0  0  0  0  0  0  0  0  0  0
  -22.6550  -12.0950   22.5230 H   0  0  0  0  0  0  0  0  0  0  0  0
  -21.3480  -13.2390   22.4180 H   0  0  0  0  0  0  0  0  0  0  0  0
  -25.5260  -15.3210   20.2920 N   0  0  0  0  0  0  0  0  0  0  0  0
  -24.7670  -15.9730   20.4600 H   0  0  0  0  0  0  0  0  0  0  0  0
  -26.3400  -15.7610   19.8830 H   0  0  0  0  0  0  0  0  0  0  0  0
  -28.4440  -26.6300   20.1690 O   0  0  0  0  0  0  0  0  0  0  0  0
  -24.6860  -31.9040   23.2990 C   0  0  0  0  0  0  0  0  0  0  0  0
  -27.2940  -27.4320   20.1230 C   0  0  0  0  0  0  0  0  0  0  0  0
  -23.4780  -30.5480   21.6250 C   0  0  0  0  0  3  0  0  0  0  0  0
  -24.9240  -29.0330   20.1560 C   0  0  0  0  0  0  0  0  0  0  0  0
  -26.0140  -30.8730   21.4440 C   0  0  0  0  0  2  0  0  0  0  0  0
  -26.0900  -29.5110   20.7630 C   0  0  0  0  0  0  0  0  0  0  0  0
  -27.2750  -28.7210   20.7380 C   0  0  0  0  0  3  0  0  0  0  0  0
  -26.1040  -27.0000   19.4960 C   0  0  0  0  0  3  0  0  0  0  0  0
  -24.9320  -27.7830   19.5160 C   0  0  0  0  0  3  0  0  0  0  0  0
  -23.6870  -29.9050   20.2280 C   0  0  0  0  0  2  0  0  0  0  0  0
  -24.7450  -31.1250   22.1800 N   0  0  0  0  0  0  0  0  0  0  0  0
  -23.6030  -32.1690   23.8440 O   0  0  0  0  0  0  0  0  0  0  0  0
  -22.8170  -29.5090   22.5620 C   0  0  0  0  0  0  0  0  0  0  0  0
  -21.4950  -29.3150   22.4110 N   0  0  0  0  0  0  0  0  0  0  0  0
  -23.4910  -28.8800   23.3800 O   0  0  0  0  0  0  0  0  0  0  0  0
  -21.0100  -29.8750   21.7250 H   0  0  0  0  0  0  0  0  0  0  0  0
  -18.1280  -28.0680   22.8410 C   0  0  0  0  0  0  0  0  0  0  0  0
  -20.6770  -28.3560   23.1560 C   0  0  0  0  0  3  0  0  0  0  0  0
  -20.8070  -26.9350   22.5600 C   0  0  0  0  0  2  0  0  0  0  0  0
  -19.7260  -26.6130   21.5240 C   0  0  0  0  0  2  0  0  0  0  0  0
  -18.3320  -26.7320   22.1490 C   0  0  0  0  0  2  0  0  0  0  0  0
  -19.2300  -28.8380   23.2990 C   0  0  0  0  0  0  0  0  0  0  0  0
  -18.9850  -30.0890   23.9060 C   0  0  0  0  0  3  0  0  0  0  0  0
  -17.6710  -30.5710   24.0580 C   0  0  0  0  0  3  0  0  0  0  0  0
  -16.5830  -29.7980   23.6160 C   0  0  0  0  0  3  0  0  0  0  0  0
  -16.8120  -28.5480   23.0130 C   0  0  0  0  0  3  0  0  0  0  0  0
  -25.9710  -32.5180   23.9360 C   0  0  0  0  0  3  0  0  0  0  0  0
  -26.4620  -31.7410   25.2190 C   0  0  1  0  0  0  0  0  0  0  0  0
  -25.3520  -31.5150   26.2720 C   0  0  0  0  0  1  0  0  0  0  0  0
  -27.0350  -30.3570   24.8340 C   0  0  0  0  0  1  0  0  0  0  0  0
  -27.6120  -32.5220   25.8970 C   0  0  0  0  0  1  0  0  0  0  0  0
  -25.6790  -33.9210   24.2620 N   0  0  0  0  0  0  0  0  0  0  0  0
  -25.9870  -34.9650   23.4820 C   0  0  0  0  0  0  0  0  0  0  0  0
  -26.6190  -34.8490   22.4280 O   0  0  0  0  0  0  0  0  0  0  0  0
  -25.1130  -34.0860   25.0820 H   0  0  0  0  0  0  0  0  0  0  0  0
  -24.2320  -36.7450   23.2010 C   0  0  0  0  0  1  0  0  0  0  0  0
  -25.5230  -36.3600   23.9430 C   0  0  0  0  0  3  0  0  0  0  0  0
  -27.6910  -37.2780   24.6380 C   0  0  0  0  0  1  0  0  0  0  0  0
  -26.5420  -37.4140   23.7470 N   0  0  0  0  0  0  0  0  0  0  0  0
  -26.1380  -38.3360   23.8900 H   0  0  0  0  0  0  0  0  0  0  0  0
  1  4  1  0
  2  1  2  0
  3  4  2  0
  5  2  1  0
  5  7  1  0
  6  5  2  0
  6  3  1  0
  8  6  1  0
  9 10  1  0
  9  8  1  0
 10 53  1  0
 10  7  1  0
 11 14  1  0
 12  4  1  0
 12 14  1  0
 13 23  1  0
 13 11  1  0
 13 12  1  0
 15 23  1  0
 16 21  1  0
 17 18  1  0
 17 16  1  0
 19 18  1  0
 19 28  1  0
 19 20  1  0
 21 15  1  0
 21 20  1  0
 22 15  2  0
 23 24  1  0
 25 26  2  0
 26 45  1  0
 27 26  1  0
 27 30  1  0
 28 29  1  0
 28 25  1  0
 29 27  2  0
 30 31  1  0
 31 32  2  0
 33 36  1  0
 33 32  1  0
 34 33  2  0
 35 34  1  0
 35 30  2  0
 36 37  1  0
 37 42  2  0
 37 38  1  0
 38 39  2  0
 39 40  1  0
 40 44  1  0
 41 40  2  0
 42 41  1  0
 43 42  1  0
 45 46  1  0
 46 49  1  0
 46 48  1  0
 47 45  2  0
 50 25  1  0
 50 51  1  0
 52 50  1  0
 54 65  2  0
 55 53  1  0
 55 60  1  0
 56 64  1  0
 56 66  1  0
 57 63  1  0
 57 59  1  0
 58 64  1  0
 59 58  1  0
 60 59  2  0
 61 62  1  0
 61 55  2  0
 62 57  2  0
 63 56  1  0
 64 54  1  0
 66 68  2  0
 67 66  1  0
 69 67  1  0
 70 79  2  0
 70 75  1  0
 71 67  1  0
 71 75  1  0
 72 71  1  0
 73 74  1  0
 73 72  1  0
 74 70  1  0
 75 76  2  0
 76 77  1  0
 78 77  2  0
 79 78  1  0
 80 54  1  0
 80 85  1  0
 80 81  1  0
 81 84  1  1
 81 82  1  0
 83 81  1  0
 85 88  1  0
 86 90  1  0
 86 85  1  0
 87 86  2  0
 90 89  1  0
 92 93  1  0
 92 90  1  0
 92 91  1  0
M  ISO  4  10 101  15 100  23 100  53 101
M  END
>  <TORSDO>  (68) 
F 17

>  <SCORE>  (68) 
-14.664

>  <name>  (68) 
68

>  <ligand_id>  (68) 
68

>  <original_smiles>  (68) 
[H]c1c([H])c([H])c2c(c1[H])C([H])([H])C([H])([H])C([H])([H])C2([H])N([H])C(=O)C1([H])N(C(=O)C([H])(N([H])C(=O)C([H])(N([H])C([H])([H])[H])C([H])([H])[H])C(C([H])([H])[H])(C([H])([H])[H])C([H])([H])[H])C([H])([H])c2c([H])c(OC3([H])C([H])([H])c4c([H])c([H])c(C5([H])OC([H])([H])C5([H])N([H])C(=O)N5C([H])([H])C([H])([H])C([H])([H])C([H])(n6nc(-c7c([H])c([H])c(Oc8c([H])c([H])c(F)c([H])c8F)c([H])c7[H])c(C(=O)N([H])[H])c6N([H])[H])C5([H])[H])c([H])c4C([H])([H])C3([H])[H])c([H])c([H])c2C1([H])[H]

>  <smiles>  (68) 
[H]c1c([H])c([H])c2c(c1[H])C([H])([H])C([H])([H])C([H])([H])C2([H])N([H])C(=O)C1([H])N(C(=O)C([H])(N([H])C(=O)C([H])(N([H])C([H])([H])[H])C([H])([H])[H])C(C([H])([H])[H])(C([H])([H])[H])C([H])([H])[H])C([H])([H])c2c([H])c(OC3([H])C([H])([H])c4c([H])c([H])c(C5([H])OC([H])([H])C5([H])N([H])C(=O)N5C([H])([H])C([H])([H])C([H])([H])C([H])(n6nc(-c7c([H])c([H])c(Oc8c([H])c([H])c(F)c([H])c8F)c([H])c7[H])c(C(=O)N([H])[H])c6N([H])[H])C5([H])[H])c([H])c4C([H])([H])C3([H])[H])c([H])c([H])c2C1([H])[H]

$$$$
69:0:0
     RDKit          3D

 98108  0  0  1  0  0  0  0  0999 V2000
  -30.1990  -23.5810   19.1570 C   0  0  0  0  0  3  0  0  0  0  0  0
  -27.9840  -23.4490   20.0790 C   0  0  0  0  0  3  0  0  0  0  0  0
  -28.9650  -24.2200   19.4160 C   0  0  0  0  0  0  0  0  0  0  0  0
  -30.4740  -22.2490   19.5680 C   0  0  0  0  0  0  0  0  0  0  0  0
  -28.2360  -22.1080   20.4970 C   0  0  0  0  0  0  0  0  0  0  0  0
  -29.4970  -21.4740   20.2620 C   0  0  0  0  0  0  0  0  0  0  0  0
  -31.8670  -21.7070   19.2820 C   0  0  0  0  0  1  0  0  0  0  0  0
  -27.1290  -21.3860   21.2500 C   0  0  0  0  0  1  0  0  0  0  0  0
  -29.8720  -20.1030   20.9360 C   0  0  0  0  0  2  0  0  0  0  0  0
  -30.2300  -14.7510   19.2980 C   0  0  0  0  0  0  0  0  0  0  0  0
  -29.7640  -12.6310   18.1020 C   0  0  0  0  0  2  0  0  0  0  0  0
  -28.6290  -12.8710   17.0830 C   0  0  0  0  0  2  0  0  0  0  0  0
  -27.2490  -12.6880   17.7450 C   0  0  0  0  0  2  0  0  0  0  0  0
  -27.1280  -13.4410   19.0960 C   0  0  0  0  0  3  0  0  0  0  0  0
  -28.3570  -13.1710   19.9900 C   0  0  0  0  0  2  0  0  0  0  0  0
  -29.5500  -13.5640   19.2260 N   0  0  0  0  0  0  0  0  0  0  0  0
  -31.3140  -14.8910   18.7240 O   0  0  0  0  0  0  0  0  0  0  0  0
  -29.3620  -16.9810   18.5880 C   0  0  0  0  0  2  0  0  0  0  0  0
  -28.9530  -16.2840   20.8780 C   0  0  0  0  0  2  0  0  0  0  0  0
  -29.8890  -18.3670   19.0790 C   0  0  0  0  0  2  0  0  0  0  0  0
  -29.5410  -17.6380   21.4010 C   0  0  0  0  0  3  0  0  0  0  0  0
  -29.4810  -15.8740   19.5650 N   0  0  0  0  0  0  0  0  0  0  0  0
  -29.3700  -18.7690   20.4160 N   0  0  1  0  0  4  0  0  0  0  0  0
  -28.3730  -18.8900   20.3050 H   0  0  0  0  0  0  0  0  0  0  0  0
  -24.8720  -13.9830   20.1990 C   0  0  0  0  0  0  0  0  0  0  0  0
  -23.8920  -13.1820   20.7190 C   0  0  0  0  0  0  0  0  0  0  0  0
  -24.3650  -11.8410   20.5850 C   0  0  0  0  0  0  0  0  0  0  0  0
  -25.8790  -13.1270   19.7810 N   0  0  0  0  0  0  0  0  0  0  0  0
  -25.5890  -11.8330   20.0720 N   0  0  0  0  0  0  0  0  0  0  0  0
  -23.7000  -10.5620   20.8600 C   0  0  0  0  0  0  0  0  0  0  0  0
  -24.2210   -9.6450   21.8010 C   0  0  0  0  0  3  0  0  0  0  0  0
  -23.5530   -8.4300   22.0620 C   0  0  0  0  0  3  0  0  0  0  0  0
  -22.3510   -8.1200   21.3820 C   0  0  0  0  0  0  0  0  0  0  0  0
  -21.8500   -9.0260   20.4300 C   0  0  0  0  0  3  0  0  0  0  0  0
  -22.5180  -10.2330   20.1680 C   0  0  0  0  0  3  0  0  0  0  0  0
  -21.6470   -6.9530   21.5520 O   0  0  0  0  0  0  0  0  0  0  0  0
  -21.6660   -6.2680   22.7410 C   0  0  0  0  0  0  0  0  0  0  0  0
  -21.2150   -6.8520   23.9450 C   0  0  0  0  0  3  0  0  0  0  0  0
  -21.1870   -6.0900   25.1290 C   0  0  0  0  0  3  0  0  0  0  0  0
  -21.5980   -4.7440   25.1130 C   0  0  0  0  0  0  0  0  0  0  0  0
  -22.0430   -4.1590   23.9130 C   0  0  0  0  0  3  0  0  0  0  0  0
  -22.0730   -4.9190   22.7310 C   0  0  0  0  0  0  0  0  0  0  0  0
  -22.4820   -4.3450   21.5740 F   0  0  0  0  0  0  0  0  0  0  0  0
  -21.5650   -4.0090   26.2490 F   0  0  0  0  0  0  0  0  0  0  0  0
  -22.5500  -13.6260   21.2230 C   0  0  0  0  0  0  0  0  0  0  0  0
  -22.0000  -12.9220   22.2060 N   0  0  0  0  0  0  0  0  0  0  0  0
  -22.0020  -14.6350   20.7780 O   0  0  0  0  0  0  0  0  0  0  0  0
  -22.4570  -12.1050   22.5830 H   0  0  0  0  0  0  0  0  0  0  0  0
  -21.1080  -13.2040   22.5860 H   0  0  0  0  0  0  0  0  0  0  0  0
  -24.9840  -15.3600   20.0240 N   0  0  0  0  0  0  0  0  0  0  0  0
  -24.2250  -15.9930   20.2530 H   0  0  0  0  0  0  0  0  0  0  0  0
  -25.7380  -15.8090   19.5210 H   0  0  0  0  0  0  0  0  0  0  0  0
  -31.0140  -17.4500   21.8770 C   0  0  0  0  0  2  0  0  0  0  0  0
  -31.6580  -14.8890   21.5640 C   0  0  0  0  0  2  0  0  0  0  0  0
  -32.7140  -15.5250   22.4320 C   0  0  0  0  0  2  0  0  0  0  0  0
  -31.3040  -16.0690   22.4450 C   0  0  0  0  0  3  0  0  0  0  0  0
  -28.6940  -25.6500   18.8560 C   0  0  0  0  0  2  0  0  0  0  0  0
  -28.4670  -26.7450   19.7940 O   0  0  0  0  0  0  0  0  0  0  0  0
  -24.6740  -31.9100   23.0010 C   0  0  0  0  0  0  0  0  0  0  0  0
  -27.2910  -27.4990   19.7760 C   0  0  0  0  0  0  0  0  0  0  0  0
  -23.4470  -30.5190   21.3680 C   0  0  0  0  0  3  0  0  0  0  0  0
  -24.8820  -29.0240   19.8750 C   0  0  0  0  0  0  0  0  0  0  0  0
  -25.9680  -30.9000   21.1160 C   0  0  0  0  0  2  0  0  0  0  0  0
  -26.0540  -29.5370   20.4450 C   0  0  0  0  0  0  0  0  0  0  0  0
  -27.2550  -28.7820   20.3930 C   0  0  0  0  0  3  0  0  0  0  0  0
  -26.0870  -27.0130   19.2160 C   0  0  0  0  0  3  0  0  0  0  0  0
  -24.8980  -27.7650   19.2590 C   0  0  0  0  0  3  0  0  0  0  0  0
  -23.6310  -29.8700   19.9710 C   0  0  0  0  0  2  0  0  0  0  0  0
  -24.7160  -31.1260   21.8860 N   0  0  0  0  0  0  0  0  0  0  0  0
  -23.6020  -32.1580   23.5720 O   0  0  0  0  0  0  0  0  0  0  0  0
  -22.8310  -29.4730   22.3270 C   0  0  0  0  0  0  0  0  0  0  0  0
  -21.5060  -29.2740   22.2300 N   0  0  0  0  0  0  0  0  0  0  0  0
  -23.5430  -28.8460   23.1160 O   0  0  0  0  0  0  0  0  0  0  0  0
  -20.9910  -29.8340   21.5660 H   0  0  0  0  0  0  0  0  0  0  0  0
  -18.1630  -28.0190   22.7950 C   0  0  0  0  0  0  0  0  0  0  0  0
  -20.7230  -28.3100   23.0040 C   0  0  0  0  0  3  0  0  0  0  0  0
  -20.8310  -26.8900   22.3990 C   0  0  0  0  0  2  0  0  0  0  0  0
  -19.7070  -26.5700   21.4080 C   0  0  0  0  0  2  0  0  0  0  0  0
  -18.3410  -26.6850   22.0900 C   0  0  0  0  0  2  0  0  0  0  0  0
  -19.2820  -28.7880   23.2100 C   0  0  0  0  0  0  0  0  0  0  0  0
  -19.0610  -30.0380   23.8290 C   0  0  0  0  0  3  0  0  0  0  0  0
  -17.7550  -30.5170   24.0380 C   0  0  0  0  0  3  0  0  0  0  0  0
  -16.6500  -29.7430   23.6400 C   0  0  0  0  0  3  0  0  0  0  0  0
  -16.8560  -28.4960   23.0240 C   0  0  0  0  0  3  0  0  0  0  0  0
  -25.9640  -32.5510   23.5990 C   0  0  0  0  0  3  0  0  0  0  0  0
  -26.5760  -31.7200   24.7930 C   0  0  1  0  0  0  0  0  0  0  0  0
  -25.5490  -31.3580   25.8900 C   0  0  0  0  0  1  0  0  0  0  0  0
  -27.1980  -30.4010   24.2760 C   0  0  0  0  0  1  0  0  0  0  0  0
  -27.7220  -32.5200   25.4560 C   0  0  0  0  0  1  0  0  0  0  0  0
  -25.6220  -33.9110   24.0390 N   0  0  0  0  0  0  0  0  0  0  0  0
  -25.8780  -35.0240   23.3410 C   0  0  0  0  0  0  0  0  0  0  0  0
  -26.5020  -35.0170   22.2750 O   0  0  0  0  0  0  0  0  0  0  0  0
  -25.0630  -33.9880   24.8760 H   0  0  0  0  0  0  0  0  0  0  0  0
  -24.0880  -36.7810   23.1710 C   0  0  0  0  0  1  0  0  0  0  0  0
  -25.3640  -36.3590   23.9150 C   0  0  0  0  0  3  0  0  0  0  0  0
  -27.4930  -37.2480   24.7530 C   0  0  0  0  0  1  0  0  0  0  0  0
  -26.3610  -37.4500   23.8530 N   0  0  0  0  0  0  0  0  0  0  0  0
  -25.9320  -38.3430   24.0780 H   0  0  0  0  0  0  0  0  0  0  0  0
  1  3  2  0
  1  4  1  0
  2  5  2  0
  3  2  1  0
  4  6  2  0
  5  8  1  0
  6  5  1  0
  6  9  1  0
  7  4  1  0
 10 22  1  0
 11 16  1  0
 12 13  1  0
 12 11  1  0
 14 13  1  0
 14 28  1  0
 14 15  1  0
 16 10  1  0
 16 15  1  0
 17 10  2  0
 18 20  1  0
 18 22  1  0
 19 21  1  0
 20 23  1  0
 21 53  1  0
 22 19  1  0
 23  9  1  0
 23 21  1  0
 23 24  1  6
 25 26  2  0
 26 45  1  0
 27 26  1  0
 27 30  1  0
 28 29  1  0
 28 25  1  0
 29 27  2  0
 30 31  1  0
 31 32  2  0
 33 36  1  0
 33 32  1  0
 34 33  2  0
 35 34  1  0
 35 30  2  0
 36 37  1  0
 37 38  1  0
 38 39  2  0
 40 39  1  0
 40 44  1  0
 41 40  2  0
 42 37  2  0
 42 41  1  0
 43 42  1  0
 45 46  1  0
 46 48  1  0
 46 49  1  0
 47 45  2  0
 50 25  1  0
 50 51  1  0
 52 50  1  0
 53 56  1  0
 54 55  1  0
 54 56  1  0
 55 56  1  0
 57  3  1  0
 57 58  1  0
 59 70  2  0
 60 58  1  0
 60 65  1  0
 61 69  1  0
 61 71  1  0
 62 68  1  0
 62 64  1  0
 63 69  1  0
 64 63  1  0
 65 64  2  0
 66 67  1  0
 66 60  2  0
 67 62  2  0
 68 61  1  0
 69 59  1  0
 71 73  2  0
 72 71  1  0
 74 72  1  0
 75 84  2  0
 75 80  1  0
 76 72  1  0
 76 80  1  0
 77 76  1  0
 78 79  1  0
 78 77  1  0
 79 75  1  0
 80 81  2  0
 81 82  1  0
 83 82  2  0
 84 83  1  0
 85 59  1  0
 85 90  1  0
 85 86  1  0
 86 89  1  1
 86 87  1  0
 88 86  1  0
 90 93  1  0
 91 95  1  0
 91 90  1  0
 92 91  2  0
 95 94  1  0
 97 95  1  0
 97 98  1  0
 97 96  1  0
M  ISO  4  10 100  22 100  57 101  58 101
M  END
>  <TORSDO>  (69) 
F 20

>  <SCORE>  (69) 
-5.912

>  <name>  (69) 
69

>  <ligand_id>  (69) 
69

>  <original_smiles>  (69) 
[H]c1c([H])c([H])c2c(c1[H])C([H])([H])C([H])([H])C([H])([H])C2([H])N([H])C(=O)C1([H])N(C(=O)C([H])(N([H])C(=O)C([H])(N([H])C([H])([H])[H])C([H])([H])[H])C(C([H])([H])[H])(C([H])([H])[H])C([H])([H])[H])C([H])([H])c2c([H])c(OC([H])([H])c3c([H])c(C([H])([H])[H])c(C([H])([H])[N+]4([H])C([H])([H])C([H])([H])N(C(=O)N5C([H])([H])C([H])([H])C([H])([H])C([H])(n6nc(-c7c([H])c([H])c(Oc8c([H])c([H])c(F)c([H])c8F)c([H])c7[H])c(C(=O)N([H])[H])c6N([H])[H])C5([H])[H])C([H])([H])C4([H])C([H])([H])C4([H])C([H])([H])C4([H])[H])c(C([H])([H])[H])c3[H])c([H])c([H])c2C1([H])[H]

>  <smiles>  (69) 
[H]c1c([H])c([H])c2c(c1[H])C([H])([H])C([H])([H])C([H])([H])C2([H])N([H])C(=O)C1([H])N(C(=O)C([H])(N([H])C(=O)C([H])(N([H])C([H])([H])[H])C([H])([H])[H])C(C([H])([H])[H])(C([H])([H])[H])C([H])([H])[H])C([H])([H])c2c([H])c(OC([H])([H])c3c([H])c(C([H])([H])[H])c(C([H])([H])[N+]4([H])C([H])([H])C([H])([H])N(C(=O)N5C([H])([H])C([H])([H])C([H])([H])C([H])(n6nc(-c7c([H])c([H])c(Oc8c([H])c([H])c(F)c([H])c8F)c([H])c7[H])c(C(=O)N([H])[H])c6N([H])[H])C5([H])[H])C([H])([H])C4([H])C([H])([H])C4([H])C([H])([H])C4([H])[H])c(C([H])([H])[H])c3[H])c([H])c([H])c2C1([H])[H]

$$$$
70:0:0
     RDKit          3D

 98107  0  0  1  0  0  0  0  0999 V2000
  -29.1640  -21.4130   20.0720 N   0  0  0  0  0  4  0  0  0  0  0  0
  -28.6360  -21.4040   19.2150 H   0  0  0  0  0  0  0  0  0  0  0  0
  -28.6910  -20.7920   20.7090 H   0  0  0  0  0  0  0  0  0  0  0  0
  -30.0930  -23.8240   20.0170 C   0  0  0  0  0  2  0  0  0  0  0  0
  -27.7450  -23.4290   20.6830 C   0  0  0  0  0  2  0  0  0  0  0  0
  -30.1190  -25.1740   20.7930 C   0  0  0  0  0  2  0  0  0  0  0  0
  -27.6880  -24.7740   21.4560 C   0  0  0  0  0  2  0  0  0  0  0  0
  -29.1570  -22.7870   20.6900 C   0  0  0  0  0  3  0  0  0  0  0  0
  -28.7400  -25.8470   21.0410 C   0  0  0  0  0  3  0  0  0  0  0  0
  -28.3920  -26.7010   19.9330 O   0  0  0  0  0  0  0  0  0  0  0  0
  -24.7160  -31.8650   23.3530 C   0  0  0  0  0  0  0  0  0  0  0  0
  -27.2680  -27.4990   20.0590 C   0  0  0  0  0  0  0  0  0  0  0  0
  -23.4800  -30.5530   21.6620 C   0  0  0  0  0  3  0  0  0  0  0  0
  -24.9020  -29.0590   20.1590 C   0  0  0  0  0  0  0  0  0  0  0  0
  -26.0110  -30.8780   21.4620 C   0  0  0  0  0  2  0  0  0  0  0  0
  -26.0750  -29.5310   20.7660 C   0  0  0  0  0  0  0  0  0  0  0  0
  -27.2640  -28.7560   20.7190 C   0  0  0  0  0  3  0  0  0  0  0  0
  -26.0820  -27.0550   19.4430 C   0  0  0  0  0  3  0  0  0  0  0  0
  -24.9000  -27.8180   19.5000 C   0  0  0  0  0  3  0  0  0  0  0  0
  -23.6730  -29.9360   20.2510 C   0  0  0  0  0  2  0  0  0  0  0  0
  -24.7540  -31.1110   22.2170 N   0  0  0  0  0  0  0  0  0  0  0  0
  -23.6420  -32.1280   23.9120 O   0  0  0  0  0  0  0  0  0  0  0  0
  -22.8210  -29.4980   22.5800 C   0  0  0  0  0  0  0  0  0  0  0  0
  -21.4950  -29.3310   22.4490 N   0  0  0  0  0  0  0  0  0  0  0  0
  -23.5010  -28.8340   23.3670 O   0  0  0  0  0  0  0  0  0  0  0  0
  -21.0050  -29.9220   21.7920 H   0  0  0  0  0  0  0  0  0  0  0  0
  -18.1190  -28.1110   22.8750 C   0  0  0  0  0  0  0  0  0  0  0  0
  -20.6730  -28.3660   23.1800 C   0  0  0  0  0  3  0  0  0  0  0  0
  -20.7860  -26.9540   22.5600 C   0  0  0  0  0  2  0  0  0  0  0  0
  -19.6950  -26.6620   21.5260 C   0  0  0  0  0  2  0  0  0  0  0  0
  -18.3060  -26.7840   22.1590 C   0  0  0  0  0  2  0  0  0  0  0  0
  -19.2310  -28.8620   23.3400 C   0  0  0  0  0  0  0  0  0  0  0  0
  -19.0040  -30.1050   23.9680 C   0  0  0  0  0  3  0  0  0  0  0  0
  -17.6970  -30.5980   24.1370 C   0  0  0  0  0  3  0  0  0  0  0  0
  -16.5990  -29.8450   23.6890 C   0  0  0  0  0  3  0  0  0  0  0  0
  -16.8100  -28.6030   23.0640 C   0  0  0  0  0  3  0  0  0  0  0  0
  -26.0140  -32.4530   23.9890 C   0  0  0  0  0  3  0  0  0  0  0  0
  -26.5570  -31.5970   25.1990 C   0  0  1  0  0  0  0  0  0  0  0  0
  -25.4850  -31.2880   26.2700 C   0  0  0  0  0  1  0  0  0  0  0  0
  -27.1310  -30.2500   24.7010 C   0  0  0  0  0  1  0  0  0  0  0  0
  -27.7210  -32.3440   25.8900 C   0  0  0  0  0  1  0  0  0  0  0  0
  -25.7160  -33.8240   24.4180 N   0  0  0  0  0  0  0  0  0  0  0  0
  -26.0370  -34.9250   23.7270 C   0  0  0  0  0  0  0  0  0  0  0  0
  -26.6880  -34.8910   22.6780 O   0  0  0  0  0  0  0  0  0  0  0  0
  -25.1380  -33.9270   25.2400 H   0  0  0  0  0  0  0  0  0  0  0  0
  -24.3080  -36.7390   23.5230 C   0  0  0  0  0  1  0  0  0  0  0  0
  -25.5610  -36.2790   24.2860 C   0  0  0  0  0  3  0  0  0  0  0  0
  -27.7110  -37.1000   25.1380 C   0  0  0  0  0  1  0  0  0  0  0  0
  -26.5940  -37.3360   24.2280 N   0  0  0  0  0  0  0  0  0  0  0  0
  -26.1940  -38.2450   24.4470 H   0  0  0  0  0  0  0  0  0  0  0  0
  -30.7510  -20.5740   18.3170 C   0  0  0  0  0  1  0  0  0  0  0  0
  -30.4820  -20.7520   19.8210 C   0  0  0  0  0  3  0  0  0  0  0  0
  -31.1560  -18.4070   22.7610 C   0  0  0  0  0  3  0  0  0  0  0  0
  -30.9720  -19.5630   21.9960 C   0  0  0  0  0  3  0  0  0  0  0  0
  -31.0300  -17.1410   22.1510 C   0  0  0  0  0  0  0  0  0  0  0  0
  -30.6700  -19.4450   20.6330 C   0  0  0  0  0  0  0  0  0  0  0  0
  -30.7530  -17.0720   20.7580 C   0  0  0  0  0  0  0  0  0  0  0  0
  -30.5470  -18.2180   20.0370 N   0  0  0  0  0  0  0  0  0  0  0  0
  -31.2610  -14.7370   19.8680 C   0  0  0  0  0  0  0  0  0  0  0  0
  -30.9160  -12.5110   18.8220 C   0  0  0  0  0  2  0  0  0  0  0  0
  -29.9180  -12.6670   17.6540 C   0  0  0  0  0  2  0  0  0  0  0  0
  -28.4570  -12.5980   18.1500 C   0  0  0  0  0  2  0  0  0  0  0  0
  -28.2000  -13.5080   19.3790 C   0  0  0  0  0  3  0  0  0  0  0  0
  -29.2900  -13.2820   20.4490 C   0  0  0  0  0  2  0  0  0  0  0  0
  -30.5950  -13.5470   19.8160 N   0  0  0  0  0  0  0  0  0  0  0  0
  -32.4050  -14.8780   19.4160 O   0  0  0  0  0  0  0  0  0  0  0  0
  -30.4640  -15.7690   20.2420 N   0  0  0  0  0  0  0  0  0  0  0  0
  -29.5400  -15.4460   20.4760 H   0  0  0  0  0  0  0  0  0  0  0  0
  -25.8900  -14.2790   20.2120 C   0  0  0  0  0  0  0  0  0  0  0  0
  -24.7890  -13.5780   20.6260 C   0  0  0  0  0  0  0  0  0  0  0  0
  -25.1530  -12.1980   20.5610 C   0  0  0  0  0  0  0  0  0  0  0  0
  -26.8570  -13.3270   19.9220 N   0  0  0  0  0  0  0  0  0  0  0  0
  -26.4210  -12.0710   20.1900 N   0  0  0  0  0  0  0  0  0  0  0  0
  -24.3520  -10.9870   20.7730 C   0  0  0  0  0  0  0  0  0  0  0  0
  -24.7350  -10.0010   21.7080 C   0  0  0  0  0  3  0  0  0  0  0  0
  -23.9380   -8.8540   21.9060 C   0  0  0  0  0  3  0  0  0  0  0  0
  -22.7430   -8.6850   21.1660 C   0  0  0  0  0  0  0  0  0  0  0  0
  -22.3780   -9.6580   20.2180 C   0  0  0  0  0  3  0  0  0  0  0  0
  -23.1770  -10.7960   20.0200 C   0  0  0  0  0  3  0  0  0  0  0  0
  -21.9170   -7.5910   21.2750 O   0  0  0  0  0  0  0  0  0  0  0  0
  -21.7820   -6.9050   22.4550 C   0  0  0  0  0  0  0  0  0  0  0  0
  -21.3730   -7.5440   23.6450 C   0  0  0  0  0  3  0  0  0  0  0  0
  -21.1800   -6.7880   24.8190 C   0  0  0  0  0  3  0  0  0  0  0  0
  -21.3860   -5.3950   24.8030 C   0  0  0  0  0  0  0  0  0  0  0  0
  -21.7860   -4.7570   23.6160 C   0  0  0  0  0  3  0  0  0  0  0  0
  -21.9820   -5.5100   22.4450 C   0  0  0  0  0  0  0  0  0  0  0  0
  -22.3490   -4.8850   21.3000 F   0  0  0  0  0  0  0  0  0  0  0  0
  -21.1930   -4.6670   25.9280 F   0  0  0  0  0  0  0  0  0  0  0  0
  -23.4420  -14.1480   20.9690 C   0  0  0  0  0  0  0  0  0  0  0  0
  -22.7260  -13.5120   21.8910 N   0  0  0  0  0  0  0  0  0  0  0  0
  -23.0370  -15.1880   20.4540 O   0  0  0  0  0  0  0  0  0  0  0  0
  -23.0680  -12.6690   22.3250 H   0  0  0  0  0  0  0  0  0  0  0  0
  -21.8240  -13.8760   22.1660 H   0  0  0  0  0  0  0  0  0  0  0  0
  -26.1410  -15.6370   20.0370 N   0  0  0  0  0  0  0  0  0  0  0  0
  -25.4120  -16.3310   20.1650 H   0  0  0  0  0  0  0  0  0  0  0  0
  -26.9830  -16.0220   19.6300 H   0  0  0  0  0  0  0  0  0  0  0  0
  -31.6800  -16.0320   24.4250 C   0  0  0  0  0  1  0  0  0  0  0  0
  -31.1510  -15.8630   22.9920 C   0  0  0  0  0  2  0  0  0  0  0  0
  1  3  1  0
  2  1  1  0
  4  8  1  0
  4  6  1  0
  5  8  1  0
  5  7  1  0
  6  9  1  0
  8  1  1  0
  9 10  1  0
  9  7  1  0
 10 12  1  0
 11 22  2  0
 12 17  1  0
 13 21  1  0
 13 23  1  0
 14 20  1  0
 14 16  1  0
 15 21  1  0
 16 15  1  0
 17 16  2  0
 18 19  1  0
 18 12  2  0
 19 14  2  0
 20 13  1  0
 21 11  1  0
 23 25  2  0
 24 23  1  0
 26 24  1  0
 27 36  2  0
 27 32  1  0
 28 24  1  0
 28 32  1  0
 29 28  1  0
 30 31  1  0
 30 29  1  0
 31 27  1  0
 32 33  2  0
 33 34  1  0
 35 34  2  0
 36 35  1  0
 37 11  1  0
 37 42  1  0
 37 38  1  0
 38 41  1  1
 38 39  1  0
 40 38  1  0
 42 45  1  0
 43 47  1  0
 43 42  1  0
 44 43  2  0
 47 46  1  0
 49 47  1  0
 49 50  1  0
 49 48  1  0
 52 51  1  0
 52  1  1  0
 52 56  1  0
 54 53  2  0
 55 53  1  0
 55 98  1  0
 56 54  1  0
 57 55  2  0
 58 56  2  0
 58 57  1  0
 59 67  1  0
 60 65  1  0
 61 62  1  0
 61 60  1  0
 63 62  1  0
 63 72  1  0
 63 64  1  0
 65 59  1  0
 65 64  1  0
 66 59  2  0
 67 68  1  0
 67 57  1  0
 69 70  2  0
 70 89  1  0
 71 70  1  0
 71 74  1  0
 72 73  1  0
 72 69  1  0
 73 71  2  0
 74 75  1  0
 75 76  2  0
 77 80  1  0
 77 76  1  0
 78 77  2  0
 79 78  1  0
 79 74  2  0
 80 81  1  0
 81 82  1  0
 82 83  2  0
 84 83  1  0
 84 88  1  0
 85 84  2  0
 86 81  2  0
 86 85  1  0
 87 86  1  0
 89 90  1  0
 90 93  1  0
 90 92  1  0
 91 89  2  0
 94 95  1  0
 94 69  1  0
 96 94  1  0
 98 97  1  0
M  ISO  4   9 101  10 101  59 100  67 100
M  END
>  <TORSDO>  (70) 
F 20

>  <SCORE>  (70) 
-7.483

>  <name>  (70) 
70

>  <ligand_id>  (70) 
70

>  <original_smiles>  (70) 
[H]c1c(C([H])(C([H])([H])[H])[N+]([H])([H])C2([H])C([H])([H])C([H])([H])C([H])(Oc3c([H])c([H])c4c(c3[H])C([H])([H])N(C(=O)C([H])(N([H])C(=O)C([H])(N([H])C([H])([H])[H])C([H])([H])[H])C(C([H])([H])[H])(C([H])([H])[H])C([H])([H])[H])C([H])(C(=O)N([H])C3([H])c5c([H])c([H])c([H])c([H])c5C([H])([H])C([H])([H])C3([H])[H])C4([H])[H])C([H])([H])C2([H])[H])nc(N([H])C(=O)N2C([H])([H])C([H])([H])C([H])([H])C([H])(n3nc(-c4c([H])c([H])c(Oc5c([H])c([H])c(F)c([H])c5F)c([H])c4[H])c(C(=O)N([H])[H])c3N([H])[H])C2([H])[H])c(C([H])([H])C([H])([H])[H])c1[H]

>  <smiles>  (70) 
[H]c1c(C([H])(C([H])([H])[H])[N+]([H])([H])C2([H])C([H])([H])C([H])([H])C([H])(Oc3c([H])c([H])c4c(c3[H])C([H])([H])N(C(=O)C([H])(N([H])C(=O)C([H])(N([H])C([H])([H])[H])C([H])([H])[H])C(C([H])([H])[H])(C([H])([H])[H])C([H])([H])[H])C([H])(C(=O)N([H])C3([H])c5c([H])c([H])c([H])c([H])c5C([H])([H])C([H])([H])C3([H])[H])C4([H])[H])C([H])([H])C2([H])[H])nc(N([H])C(=O)N2C([H])([H])C([H])([H])C([H])([H])C([H])(n3nc(-c4c([H])c([H])c(Oc5c([H])c([H])c(F)c([H])c5F)c([H])c4[H])c(C(=O)N([H])[H])c3N([H])[H])C2([H])[H])c(C([H])([H])C([H])([H])[H])c1[H]

$$$$
71:0:0
     RDKit          3D

 94103  0  0  1  0  0  0  0  0999 V2000
  -30.0500  -22.8160   20.1540 C   0  0  0  0  0  3  0  0  0  0  0  0
  -27.8560  -22.0780   19.7870 C   0  0  0  0  0  3  0  0  0  0  0  0
  -29.6150  -20.2630   20.0820 C   0  0  0  0  0  0  0  0  0  0  0  0
  -28.6970  -23.2230   19.9470 C   0  0  0  0  0  0  0  0  0  0  0  0
  -30.4840  -21.4240   20.2240 C   0  0  0  0  0  0  0  0  0  0  0  0
  -28.2570  -20.6880   19.8430 C   0  0  0  0  0  0  0  0  0  0  0  0
  -31.9720  -21.2140   20.4590 C   0  0  0  0  0  1  0  0  0  0  0  0
  -27.1310  -19.6990   19.5890 C   0  0  0  0  0  1  0  0  0  0  0  0
  -30.8870  -14.8500   19.7430 C   0  0  0  0  0  0  0  0  0  0  0  0
  -30.5690  -12.5420   18.7740 C   0  0  0  0  0  2  0  0  0  0  0  0
  -29.5090  -12.5640   17.6510 C   0  0  0  0  0  2  0  0  0  0  0  0
  -28.1020  -12.3650   18.2410 C   0  0  0  0  0  2  0  0  0  0  0  0
  -27.8460  -13.2660   19.4780 C   0  0  0  0  0  3  0  0  0  0  0  0
  -29.0210  -13.2420   20.4790 C   0  0  0  0  0  2  0  0  0  0  0  0
  -30.2310  -13.6240   19.7400 N   0  0  0  0  0  0  0  0  0  0  0  0
  -32.0150  -14.8840   19.2390 O   0  0  0  0  0  0  0  0  0  0  0  0
  -30.3460  -16.5210   21.4950 C   0  0  0  0  0  2  0  0  0  0  0  0
  -30.1480  -18.6970   20.3060 C   0  0  0  0  0  3  0  0  0  0  0  0
  -29.8430  -17.9930   21.6400 C   0  0  0  0  0  3  0  0  0  0  0  0
  -30.0220  -17.3980   19.3210 C   0  0  2  0  0  0  0  0  0  0  0  0
  -30.4160  -18.7120   22.8700 C   0  0  0  0  0  1  0  0  0  0  0  0
  -31.0580  -17.5590   18.1880 C   0  0  0  0  0  1  0  0  0  0  0  0
  -28.6340  -17.3290   18.6640 C   0  0  0  0  0  1  0  0  0  0  0  0
  -30.2260  -16.0610   20.0980 N   0  0  0  0  0  0  0  0  0  0  0  0
  -25.6000  -13.8420   20.5640 C   0  0  0  0  0  0  0  0  0  0  0  0
  -24.5620  -13.0670   21.0010 C   0  0  0  0  0  0  0  0  0  0  0  0
  -24.9670  -11.7120   20.7980 C   0  0  0  0  0  0  0  0  0  0  0  0
  -26.5710  -12.9610   20.1180 N   0  0  0  0  0  0  0  0  0  0  0  0
  -26.2060  -11.6680   20.3210 N   0  0  0  0  0  0  0  0  0  0  0  0
  -24.2220  -10.4580   20.9760 C   0  0  0  0  0  0  0  0  0  0  0  0
  -24.6570   -9.4590   21.8740 C   0  0  0  0  0  3  0  0  0  0  0  0
  -23.9120   -8.2720   22.0430 C   0  0  0  0  0  3  0  0  0  0  0  0
  -22.7160   -8.0760   21.3120 C   0  0  0  0  0  0  0  0  0  0  0  0
  -22.2990   -9.0630   20.4000 C   0  0  0  0  0  3  0  0  0  0  0  0
  -23.0460  -10.2410   20.2310 C   0  0  0  0  0  3  0  0  0  0  0  0
  -21.9410   -6.9440   21.3900 O   0  0  0  0  0  0  0  0  0  0  0  0
  -21.7920   -6.2530   22.5660 C   0  0  0  0  0  0  0  0  0  0  0  0
  -21.2800   -6.8660   23.7300 C   0  0  0  0  0  3  0  0  0  0  0  0
  -21.0780   -6.1030   24.8970 C   0  0  0  0  0  3  0  0  0  0  0  0
  -21.3800   -4.7270   24.9010 C   0  0  0  0  0  0  0  0  0  0  0  0
  -21.8840   -4.1140   23.7400 C   0  0  0  0  0  3  0  0  0  0  0  0
  -22.0870   -4.8750   22.5760 C   0  0  0  0  0  0  0  0  0  0  0  0
  -22.5530   -4.2740   21.4540 F   0  0  0  0  0  0  0  0  0  0  0  0
  -21.1790   -3.9910   26.0190 F   0  0  0  0  0  0  0  0  0  0  0  0
  -23.2300  -13.5570   21.4890 C   0  0  0  0  0  0  0  0  0  0  0  0
  -22.6070  -12.8240   22.4060 N   0  0  0  0  0  0  0  0  0  0  0  0
  -22.7570  -14.6210   21.0940 O   0  0  0  0  0  0  0  0  0  0  0  0
  -23.0070  -11.9620   22.7440 H   0  0  0  0  0  0  0  0  0  0  0  0
  -21.7180  -13.1310   22.7740 H   0  0  0  0  0  0  0  0  0  0  0  0
  -25.7950  -15.2170   20.4830 N   0  0  0  0  0  0  0  0  0  0  0  0
  -25.0790  -15.8830   20.7540 H   0  0  0  0  0  0  0  0  0  0  0  0
  -26.6230  -15.6540   20.1020 H   0  0  0  0  0  0  0  0  0  0  0  0
  -28.0570  -24.7020   19.6480 C   0  0  0  0  0  2  0  0  0  0  0  0
  -28.3810  -26.1210   20.1550 O   0  0  0  0  0  0  0  0  0  0  0  0
  -24.6150  -31.6780   23.1550 C   0  0  0  0  0  0  0  0  0  0  0  0
  -27.3390  -27.1150   20.0540 C   0  0  0  0  0  0  0  0  0  0  0  0
  -23.4740  -30.3030   21.4600 C   0  0  0  0  0  3  0  0  0  0  0  0
  -24.9810  -28.8100   20.0200 C   0  0  0  0  0  0  0  0  0  0  0  0
  -26.0260  -30.6240   21.3570 C   0  0  0  0  0  2  0  0  0  0  0  0
  -26.1380  -29.2560   20.6720 C   0  0  0  0  0  0  0  0  0  0  0  0
  -27.3170  -28.4200   20.6840 C   0  0  0  0  0  3  0  0  0  0  0  0
  -26.1630  -26.7940   19.3320 C   0  0  0  0  0  3  0  0  0  0  0  0
  -25.0050  -27.5920   19.3340 C   0  0  0  0  0  3  0  0  0  0  0  0
  -23.7340  -29.6740   20.0670 C   0  0  0  0  0  2  0  0  0  0  0  0
  -24.7230  -30.8880   22.0460 N   0  0  0  0  0  0  0  0  0  0  0  0
  -23.5130  -31.9290   23.6670 O   0  0  0  0  0  0  0  0  0  0  0  0
  -22.8000  -29.2530   22.3790 C   0  0  0  0  0  0  0  0  0  0  0  0
  -21.4760  -29.0670   22.2260 N   0  0  0  0  0  0  0  0  0  0  0  0
  -23.4690  -28.6130   23.1940 O   0  0  0  0  0  0  0  0  0  0  0  0
  -20.9920  -29.6370   21.5470 H   0  0  0  0  0  0  0  0  0  0  0  0
  -18.0990  -27.8320   22.6670 C   0  0  0  0  0  0  0  0  0  0  0  0
  -20.6560  -28.0990   22.9600 C   0  0  0  0  0  3  0  0  0  0  0  0
  -20.7690  -26.6890   22.3380 C   0  0  0  0  0  2  0  0  0  0  0  0
  -19.6750  -26.3930   21.3060 C   0  0  0  0  0  2  0  0  0  0  0  0
  -18.2880  -26.5080   21.9460 C   0  0  0  0  0  2  0  0  0  0  0  0
  -19.2110  -28.5860   23.1290 C   0  0  0  0  0  0  0  0  0  0  0  0
  -18.9800  -29.8260   23.7660 C   0  0  0  0  0  3  0  0  0  0  0  0
  -17.6700  -30.3110   23.9420 C   0  0  0  0  0  3  0  0  0  0  0  0
  -16.5730  -29.5540   23.4950 C   0  0  0  0  0  3  0  0  0  0  0  0
  -16.7890  -28.3160   22.8640 C   0  0  0  0  0  3  0  0  0  0  0  0
  -25.8690  -32.3210   23.8220 C   0  0  0  0  0  3  0  0  0  0  0  0
  -25.5290  -33.7100   24.1650 N   0  0  0  0  0  0  0  0  0  0  0  0
  -25.8460  -34.7790   23.4230 C   0  0  0  0  0  0  0  0  0  0  0  0
  -26.5230  -34.7010   22.3940 O   0  0  0  0  0  0  0  0  0  0  0  0
  -24.9280  -33.8430   24.9650 H   0  0  0  0  0  0  0  0  0  0  0  0
  -24.0780  -36.5400   23.0960 C   0  0  0  0  0  1  0  0  0  0  0  0
  -25.3330  -36.1540   23.8960 C   0  0  0  0  0  3  0  0  0  0  0  0
  -27.4520  -37.0790   24.7250 C   0  0  0  0  0  1  0  0  0  0  0  0
  -26.3430  -37.2290   23.7860 N   0  0  0  0  0  0  0  0  0  0  0  0
  -25.9180  -38.1390   23.9410 H   0  0  0  0  0  0  0  0  0  0  0  0
  -26.3580  -31.5400   25.1030 C   0  0  1  0  0  0  0  0  0  0  0  0
  -25.2370  -31.2700   26.1340 C   0  0  0  0  0  1  0  0  0  0  0  0
  -26.9740  -30.1750   24.7150 C   0  0  0  0  0  1  0  0  0  0  0  0
  -27.4770  -32.3420   25.8100 C   0  0  0  0  0  1  0  0  0  0  0  0
  1  5  1  0
  2  6  2  0
  2  4  1  0
  3  5  2  0
  4  1  2  0
  5  7  1  0
  6  3  1  0
  8  6  1  0
  9 24  1  0
 10 15  1  0
 11 12  1  0
 11 10  1  0
 13 12  1  0
 13 28  1  0
 13 14  1  0
 15  9  1  0
 15 14  1  0
 16  9  2  0
 17 19  1  0
 18  3  1  0
 18 19  1  0
 19 21  1  0
 20 24  1  0
 20 18  1  0
 20 22  1  6
 23 20  1  0
 24 17  1  0
 25 26  2  0
 26 45  1  0
 27 30  1  0
 27 26  1  0
 28 29  1  0
 28 25  1  0
 29 27  2  0
 30 31  1  0
 31 32  2  0
 33 36  1  0
 33 32  1  0
 34 33  2  0
 35 34  1  0
 35 30  2  0
 36 37  1  0
 37 42  2  0
 37 38  1  0
 38 39  2  0
 39 40  1  0
 40 44  1  0
 41 40  2  0
 42 41  1  0
 43 42  1  0
 45 46  1  0
 46 48  1  0
 46 49  1  0
 47 45  2  0
 50 25  1  0
 50 51  1  0
 52 50  1  0
 53  4  1  0
 53 54  1  0
 55 66  2  0
 56 54  1  0
 56 61  1  0
 57 65  1  0
 57 67  1  0
 58 64  1  0
 58 60  1  0
 59 65  1  0
 60 61  2  0
 60 59  1  0
 62 63  1  0
 62 56  2  0
 63 58  2  0
 64 57  1  0
 65 55  1  0
 67 69  2  0
 68 67  1  0
 70 68  1  0
 71 80  2  0
 71 76  1  0
 72 68  1  0
 72 76  1  0
 73 72  1  0
 74 75  1  0
 74 73  1  0
 75 71  1  0
 76 77  2  0
 77 78  1  0
 79 78  2  0
 80 79  1  0
 81 55  1  0
 81 82  1  0
 81 91  1  0
 82 85  1  0
 83 87  1  0
 83 82  1  0
 84 83  2  0
 87 86  1  0
 89 87  1  0
 89 90  1  0
 89 88  1  0
 91 94  1  1
 91 92  1  0
 93 91  1  0
M  ISO  4   9 100  24 100  53 101  54 101
M  END
>  <TORSDO>  (71) 
F 17

>  <SCORE>  (71) 
-13.580

>  <name>  (71) 
71

>  <ligand_id>  (71) 
71

>  <original_smiles>  (71) 
[H]c1c([H])c([H])c2c(c1[H])C([H])([H])C([H])([H])C([H])([H])C2([H])N([H])C(=O)C1([H])N(C(=O)C([H])(N([H])C(=O)C([H])(N([H])C([H])([H])[H])C([H])([H])[H])C(C([H])([H])[H])(C([H])([H])[H])C([H])([H])[H])C([H])([H])c2c([H])c(OC([H])([H])c3c([H])c(C([H])([H])[H])c(C4([H])C([H])(C([H])([H])[H])C([H])([H])N(C(=O)N5C([H])([H])C([H])([H])C([H])([H])C([H])(n6nc(-c7c([H])c([H])c(Oc8c([H])c([H])c(F)c([H])c8F)c([H])c7[H])c(C(=O)N([H])[H])c6N([H])[H])C5([H])[H])C4(C([H])([H])[H])C([H])([H])[H])c(C([H])([H])[H])c3[H])c([H])c([H])c2C1([H])[H]

>  <smiles>  (71) 
[H]c1c([H])c([H])c2c(c1[H])C([H])([H])C([H])([H])C([H])([H])C2([H])N([H])C(=O)C1([H])N(C(=O)C([H])(N([H])C(=O)C([H])(N([H])C([H])([H])[H])C([H])([H])[H])C(C([H])([H])[H])(C([H])([H])[H])C([H])([H])[H])C([H])([H])c2c([H])c(OC([H])([H])c3c([H])c(C([H])([H])[H])c(C4([H])C([H])(C([H])([H])[H])C([H])([H])N(C(=O)N5C([H])([H])C([H])([H])C([H])([H])C([H])(n6nc(-c7c([H])c([H])c(Oc8c([H])c([H])c(F)c([H])c8F)c([H])c7[H])c(C(=O)N([H])[H])c6N([H])[H])C5([H])[H])C4(C([H])([H])[H])C([H])([H])[H])c(C([H])([H])[H])c3[H])c([H])c([H])c2C1([H])[H]

$$$$
72:0:0
     RDKit          3D

 93102  0  0  1  0  0  0  0  0999 V2000
  -30.1540  -19.5940   21.5130 C   0  0  0  0  0  2  0  0  0  0  0  0
  -29.1480  -18.5930   19.6170 C   0  0  0  0  0  2  0  0  0  0  0  0
  -29.5750  -18.2290   21.0530 C   0  0  0  0  0  3  0  0  0  0  0  0
  -29.2810  -20.6890   20.8440 C   0  0  0  0  0  3  0  0  0  0  0  0
  -28.8410  -20.0500   19.5830 N   0  0  0  0  0  4  0  0  0  0  0  0
  -27.8510  -20.1950   19.4570 H   0  0  0  0  0  0  0  0  0  0  0  0
  -29.3150  -20.4620   18.7950 H   0  0  0  0  0  0  0  0  0  0  0  0
  -31.1290  -16.9200   22.6330 C   0  0  0  0  0  1  0  0  0  0  0  0
  -30.5460  -16.9890   21.2080 C   0  0  0  0  0  3  0  0  0  0  0  0
  -30.6260  -14.6090   20.3220 C   0  0  0  0  0  0  0  0  0  0  0  0
  -30.3080  -12.4590   19.1380 C   0  0  0  0  0  2  0  0  0  0  0  0
  -29.3510  -12.6640   17.9460 C   0  0  0  0  0  2  0  0  0  0  0  0
  -27.8840  -12.5120   18.3940 C   0  0  0  0  0  2  0  0  0  0  0  0
  -27.5600  -13.3280   19.6750 C   0  0  0  0  0  3  0  0  0  0  0  0
  -28.6330  -13.1160   20.7660 C   0  0  0  0  0  2  0  0  0  0  0  0
  -29.9400  -13.4380   20.1760 N   0  0  0  0  0  0  0  0  0  0  0  0
  -31.7580  -14.7600   19.8560 O   0  0  0  0  0  0  0  0  0  0  0  0
  -29.9640  -15.6530   20.8870 N   0  0  0  0  0  0  0  0  0  0  0  0
  -29.0200  -15.4680   21.1950 H   0  0  0  0  0  0  0  0  0  0  0  0
  -25.1670  -13.9110   20.4120 C   0  0  0  0  0  0  0  0  0  0  0  0
  -24.1110  -13.1310   20.7960 C   0  0  0  0  0  0  0  0  0  0  0  0
  -24.5820  -11.7830   20.7640 C   0  0  0  0  0  0  0  0  0  0  0  0
  -26.2160  -13.0380   20.1720 N   0  0  0  0  0  0  0  0  0  0  0  0
  -25.8690  -11.7540   20.4420 N   0  0  0  0  0  0  0  0  0  0  0  0
  -23.8670  -10.5150   20.9650 C   0  0  0  0  0  0  0  0  0  0  0  0
  -24.3080   -9.5610   21.9070 C   0  0  0  0  0  3  0  0  0  0  0  0
  -23.5930   -8.3570   22.0950 C   0  0  0  0  0  3  0  0  0  0  0  0
  -22.4250   -8.1010   21.3410 C   0  0  0  0  0  0  0  0  0  0  0  0
  -22.0030   -9.0450   20.3870 C   0  0  0  0  0  3  0  0  0  0  0  0
  -22.7180  -10.2390   20.1970 C   0  0  0  0  0  3  0  0  0  0  0  0
  -21.6820   -6.9500   21.4380 O   0  0  0  0  0  0  0  0  0  0  0  0
  -21.6320   -6.2190   22.5990 C   0  0  0  0  0  0  0  0  0  0  0  0
  -21.1910   -6.7840   23.8150 C   0  0  0  0  0  3  0  0  0  0  0  0
  -21.0900   -5.9800   24.9680 C   0  0  0  0  0  3  0  0  0  0  0  0
  -21.4210   -4.6140   24.9060 C   0  0  0  0  0  0  0  0  0  0  0  0
  -21.8540   -4.0480   23.6940 C   0  0  0  0  0  3  0  0  0  0  0  0
  -21.9570   -4.8490   22.5430 C   0  0  0  0  0  0  0  0  0  0  0  0
  -22.3560   -4.2950   21.3720 F   0  0  0  0  0  0  0  0  0  0  0  0
  -21.3160   -3.8390   26.0110 F   0  0  0  0  0  0  0  0  0  0  0  0
  -22.7120  -13.5990   21.0790 C   0  0  0  0  0  0  0  0  0  0  0  0
  -21.9960  -12.8970   21.9510 N   0  0  0  0  0  0  0  0  0  0  0  0
  -22.2640  -14.6220   20.5640 O   0  0  0  0  0  0  0  0  0  0  0  0
  -22.3700  -12.0710   22.3930 H   0  0  0  0  0  0  0  0  0  0  0  0
  -21.0590  -13.1930   22.1830 H   0  0  0  0  0  0  0  0  0  0  0  0
  -25.3180  -15.2830   20.2260 N   0  0  0  0  0  0  0  0  0  0  0  0
  -24.5380  -15.9240   20.3230 H   0  0  0  0  0  0  0  0  0  0  0  0
  -26.1480  -15.7220   19.8510 H   0  0  0  0  0  0  0  0  0  0  0  0
  -30.0030  -22.0740   20.6440 C   0  0  0  0  0  2  0  0  0  0  0  0
  -29.1710  -23.3620   20.2650 C   0  0  0  0  0  2  0  0  0  0  0  0
  -27.5330  -24.8540   21.6670 C   0  0  0  0  0  2  0  0  0  0  0  0
  -28.9470  -24.3750   21.4130 C   0  0  0  0  0  3  0  0  0  0  0  0
  -28.5870  -25.8910   21.3700 C   0  0  0  0  0  3  0  0  0  0  0  0
  -28.3840  -26.6360   20.1480 O   0  0  0  0  0  0  0  0  0  0  0  0
  -24.5980  -31.9100   23.2340 C   0  0  0  0  0  0  0  0  0  0  0  0
  -27.2690  -27.4560   20.1580 C   0  0  0  0  0  0  0  0  0  0  0  0
  -23.4070  -30.5080   21.5830 C   0  0  0  0  0  3  0  0  0  0  0  0
  -24.8770  -28.9820   20.1550 C   0  0  0  0  0  0  0  0  0  0  0  0
  -25.9350  -30.8700   21.4010 C   0  0  0  0  0  2  0  0  0  0  0  0
  -26.0320  -29.4970   20.7610 C   0  0  0  0  0  0  0  0  0  0  0  0
  -27.2330  -28.7380   20.7670 C   0  0  0  0  0  3  0  0  0  0  0  0
  -26.1040  -26.9770   19.5270 C   0  0  0  0  0  3  0  0  0  0  0  0
  -24.9100  -27.7230   19.5330 C   0  0  0  0  0  3  0  0  0  0  0  0
  -23.6280  -29.8370   20.2010 C   0  0  0  0  0  2  0  0  0  0  0  0
  -24.6640  -31.1120   22.1310 N   0  0  0  0  0  0  0  0  0  0  0  0
  -23.5120  -32.1750   23.7710 O   0  0  0  0  0  0  0  0  0  0  0  0
  -22.7580  -29.4790   22.5370 C   0  0  0  0  0  0  0  0  0  0  0  0
  -21.4320  -29.2980   22.4130 N   0  0  0  0  0  0  0  0  0  0  0  0
  -23.4440  -28.8480   23.3450 O   0  0  0  0  0  0  0  0  0  0  0  0
  -20.9390  -29.8580   21.7330 H   0  0  0  0  0  0  0  0  0  0  0  0
  -18.0570  -28.1070   22.9250 C   0  0  0  0  0  0  0  0  0  0  0  0
  -20.6190  -28.3530   23.1780 C   0  0  0  0  0  3  0  0  0  0  0  0
  -20.7110  -26.9290   22.5810 C   0  0  0  0  0  2  0  0  0  0  0  0
  -19.5990  -26.6230   21.5730 C   0  0  0  0  0  2  0  0  0  0  0  0
  -18.2230  -26.7660   22.2310 C   0  0  0  0  0  2  0  0  0  0  0  0
  -19.1830  -28.8590   23.3550 C   0  0  0  0  0  0  0  0  0  0  0  0
  -18.9730  -30.1140   23.9660 C   0  0  0  0  0  3  0  0  0  0  0  0
  -17.6720  -30.6180   24.1480 C   0  0  0  0  0  3  0  0  0  0  0  0
  -16.5620  -29.8640   23.7330 C   0  0  0  0  0  3  0  0  0  0  0  0
  -16.7550  -28.6090   23.1270 C   0  0  0  0  0  3  0  0  0  0  0  0
  -25.8770  -32.5470   23.8610 C   0  0  0  0  0  3  0  0  0  0  0  0
  -26.3910  -31.7780   25.1390 C   0  0  1  0  0  0  0  0  0  0  0  0
  -25.2930  -31.5330   26.2010 C   0  0  0  0  0  1  0  0  0  0  0  0
  -26.9850  -30.4040   24.7470 C   0  0  0  0  0  1  0  0  0  0  0  0
  -27.5340  -32.5780   25.8070 C   0  0  0  0  0  1  0  0  0  0  0  0
  -25.5600  -33.9430   24.1900 N   0  0  0  0  0  0  0  0  0  0  0  0
  -25.8930  -34.9970   23.4300 C   0  0  0  0  0  0  0  0  0  0  0  0
  -26.5690  -34.8960   22.4030 O   0  0  0  0  0  0  0  0  0  0  0  0
  -24.9610  -34.0950   24.9880 H   0  0  0  0  0  0  0  0  0  0  0  0
  -24.1630  -36.7840   23.0590 C   0  0  0  0  0  1  0  0  0  0  0  0
  -25.3970  -36.3830   23.8830 C   0  0  0  0  0  3  0  0  0  0  0  0
  -27.5200  -37.2750   24.7360 C   0  0  0  0  0  1  0  0  0  0  0  0
  -26.4280  -37.4400   23.7800 N   0  0  0  0  0  0  0  0  0  0  0  0
  -26.0180  -38.3590   23.9220 H   0  0  0  0  0  0  0  0  0  0  0  0
  2  3  1  0
  3  9  1  0
  3  1  1  0
  4 48  1  0
  4  1  1  0
  5  2  1  0
  5  4  1  0
  6  5  1  0
  7  5  1  0
  9  8  1  0
 10 18  1  0
 11 16  1  0
 12 13  1  0
 12 11  1  0
 14 13  1  0
 14 23  1  0
 14 15  1  0
 16 10  1  0
 16 15  1  0
 17 10  2  0
 18 19  1  0
 18  9  1  0
 20 21  2  0
 21 40  1  0
 22 21  1  0
 22 25  1  0
 23 20  1  0
 23 24  1  0
 24 22  2  0
 25 26  1  0
 26 27  2  0
 28 31  1  0
 28 27  1  0
 29 28  2  0
 30 29  1  0
 30 25  2  0
 31 32  1  0
 32 33  1  0
 33 34  2  0
 35 34  1  0
 35 39  1  0
 36 35  2  0
 37 32  2  0
 37 36  1  0
 38 37  1  0
 40 41  1  0
 41 44  1  0
 41 43  1  0
 42 40  2  0
 45 46  1  0
 45 20  1  0
 47 45  1  0
 49 48  1  0
 51 49  1  0
 51 50  1  0
 52 53  1  0
 52 51  1  0
 52 50  1  0
 53 55  1  0
 54 65  2  0
 55 60  1  0
 56 64  1  0
 56 66  1  0
 57 63  1  0
 57 59  1  0
 58 64  1  0
 59 60  2  0
 59 58  1  0
 61 62  1  0
 61 55  2  0
 62 57  2  0
 63 56  1  0
 64 54  1  0
 66 68  2  0
 67 66  1  0
 69 67  1  0
 70 79  2  0
 70 75  1  0
 71 67  1  0
 71 75  1  0
 72 71  1  0
 73 74  1  0
 73 72  1  0
 74 70  1  0
 75 76  2  0
 76 77  1  0
 78 77  2  0
 79 78  1  0
 80 54  1  0
 80 85  1  0
 80 81  1  0
 81 84  1  1
 81 82  1  0
 83 81  1  0
 85 88  1  0
 86 90  1  0
 86 85  1  0
 87 86  2  0
 90 89  1  0
 92 90  1  0
 92 93  1  0
 92 91  1  0
M  ISO  4  10 100  18 100  52 101  53 101
M  END
>  <TORSDO>  (72) 
F 20

>  <SCORE>  (72) 
-13.583

>  <name>  (72) 
72

>  <ligand_id>  (72) 
72

>  <original_smiles>  (72) 
[H]c1c([H])c([H])c2c(c1[H])C([H])([H])C([H])([H])C([H])([H])C2([H])N([H])C(=O)C1([H])N(C(=O)C([H])(N([H])C(=O)C([H])(N([H])C([H])([H])[H])C([H])([H])[H])C(C([H])([H])[H])(C([H])([H])[H])C([H])([H])[H])C([H])([H])c2c([H])c(OC3([H])C([H])([H])C3([H])C([H])([H])C([H])([H])C3([H])C([H])([H])C([H])(C([H])(N([H])C(=O)N4C([H])([H])C([H])([H])C([H])([H])C([H])(n5nc(-c6c([H])c([H])c(Oc7c([H])c([H])c(F)c([H])c7F)c([H])c6[H])c(C(=O)N([H])[H])c5N([H])[H])C4([H])[H])C([H])([H])[H])C([H])([H])[N+]3([H])[H])c([H])c([H])c2C1([H])[H]

>  <smiles>  (72) 
[H]c1c([H])c([H])c2c(c1[H])C([H])([H])C([H])([H])C([H])([H])C2([H])N([H])C(=O)C1([H])N(C(=O)C([H])(N([H])C(=O)C([H])(N([H])C([H])([H])[H])C([H])([H])[H])C(C([H])([H])[H])(C([H])([H])[H])C([H])([H])[H])C([H])([H])c2c([H])c(OC3([H])C([H])([H])C3([H])C([H])([H])C([H])([H])C3([H])C([H])([H])C([H])(C([H])(N([H])C(=O)N4C([H])([H])C([H])([H])C([H])([H])C([H])(n5nc(-c6c([H])c([H])c(Oc7c([H])c([H])c(F)c([H])c7F)c([H])c6[H])c(C(=O)N([H])[H])c5N([H])[H])C4([H])[H])C([H])([H])[H])C([H])([H])[N+]3([H])[H])c([H])c([H])c2C1([H])[H]

$$$$
73:0:0
     RDKit          3D

 93102  0  0  1  0  0  0  0  0999 V2000
  -30.9750  -19.7370   19.9420 C   0  0  0  0  0  3  0  0  0  0  0  0
  -30.4380  -21.0490   19.8010 C   0  0  0  0  0  3  0  0  0  0  0  0
  -29.0070  -18.7800   18.9540 C   0  0  0  0  0  3  0  0  0  0  0  0
  -28.4520  -20.0940   18.8160 C   0  0  0  0  0  0  0  0  0  0  0  0
  -30.2890  -18.5660   19.5130 C   0  0  0  0  0  0  0  0  0  0  0  0
  -29.1640  -21.2660   19.2210 C   0  0  0  0  0  0  0  0  0  0  0  0
  -25.9440  -20.8370   18.9500 C   0  0  0  0  0  2  0  0  0  0  0  0
  -25.9260  -19.3760   18.5690 C   0  0  0  0  0  2  0  0  0  0  0  0
  -27.1010  -20.2450   18.1790 C   0  0  0  0  0  3  0  0  0  0  0  0
  -31.4820  -16.9040   18.0600 C   0  0  0  0  0  1  0  0  0  0  0  0
  -31.0590  -17.1900   19.5170 C   0  0  0  0  0  3  0  0  0  0  0  0
  -31.1810  -14.7170   20.0780 C   0  0  0  0  0  0  0  0  0  0  0  0
  -30.8070  -12.4610   19.1360 C   0  0  0  0  0  2  0  0  0  0  0  0
  -29.8660  -12.5810   17.9200 C   0  0  0  0  0  2  0  0  0  0  0  0
  -28.3970  -12.4960   18.3700 C   0  0  0  0  0  2  0  0  0  0  0  0
  -28.0800  -13.4240   19.5750 C   0  0  0  0  0  3  0  0  0  0  0  0
  -29.1490  -13.3170   20.6860 C   0  0  0  0  0  2  0  0  0  0  0  0
  -30.4570  -13.5550   20.0660 N   0  0  0  0  0  0  0  0  0  0  0  0
  -32.3750  -14.7070   19.7740 O   0  0  0  0  0  0  0  0  0  0  0  0
  -30.5060  -15.9160   20.1160 N   0  0  0  0  0  0  0  0  0  0  0  0
  -29.5250  -15.8930   20.3440 H   0  0  0  0  0  0  0  0  0  0  0  0
  -25.7470  -14.1240   20.3830 C   0  0  0  0  0  0  0  0  0  0  0  0
  -24.6480  -13.4000   20.7540 C   0  0  0  0  0  0  0  0  0  0  0  0
  -25.0320  -12.0270   20.6670 C   0  0  0  0  0  0  0  0  0  0  0  0
  -26.7340  -13.1970   20.0910 N   0  0  0  0  0  0  0  0  0  0  0  0
  -26.3100  -11.9270   20.3250 N   0  0  0  0  0  0  0  0  0  0  0  0
  -24.2390  -10.8010   20.8310 C   0  0  0  0  0  0  0  0  0  0  0  0
  -24.6310   -9.7810   21.7260 C   0  0  0  0  0  3  0  0  0  0  0  0
  -23.8410   -8.6220   21.8810 C   0  0  0  0  0  3  0  0  0  0  0  0
  -22.6440   -8.4740   21.1410 C   0  0  0  0  0  0  0  0  0  0  0  0
  -22.2700   -9.4810   20.2340 C   0  0  0  0  0  3  0  0  0  0  0  0
  -23.0610  -10.6320   20.0770 C   0  0  0  0  0  3  0  0  0  0  0  0
  -21.8270   -7.3710   21.2070 O   0  0  0  0  0  0  0  0  0  0  0  0
  -21.7390   -6.6080   22.3430 C   0  0  0  0  0  0  0  0  0  0  0  0
  -21.3620   -7.1620   23.5860 C   0  0  0  0  0  3  0  0  0  0  0  0
  -21.2170   -6.3290   24.7140 C   0  0  0  0  0  3  0  0  0  0  0  0
  -21.4380   -4.9440   24.6000 C   0  0  0  0  0  0  0  0  0  0  0  0
  -21.8070   -4.3890   23.3610 C   0  0  0  0  0  3  0  0  0  0  0  0
  -21.9540   -5.2190   22.2360 C   0  0  0  0  0  0  0  0  0  0  0  0
  -22.2890   -4.6760   21.0400 F   0  0  0  0  0  0  0  0  0  0  0  0
  -21.2910   -4.1410   25.6800 F   0  0  0  0  0  0  0  0  0  0  0  0
  -23.2870  -13.9450   21.0740 C   0  0  0  0  0  0  0  0  0  0  0  0
  -22.5490  -13.2740   21.9520 N   0  0  0  0  0  0  0  0  0  0  0  0
  -22.8900  -15.0010   20.5820 O   0  0  0  0  0  0  0  0  0  0  0  0
  -22.8850  -12.4210   22.3710 H   0  0  0  0  0  0  0  0  0  0  0  0
  -21.6350  -13.6190   22.2060 H   0  0  0  0  0  0  0  0  0  0  0  0
  -25.9850  -15.4890   20.2450 N   0  0  0  0  0  0  0  0  0  0  0  0
  -25.2570  -16.1790   20.3900 H   0  0  0  0  0  0  0  0  0  0  0  0
  -26.8370  -15.8860   19.8690 H   0  0  0  0  0  0  0  0  0  0  0  0
  -28.5600  -22.5270   19.0340 O   0  0  0  0  0  0  0  0  0  0  0  0
  -29.2540  -23.8180   19.1140 C   0  0  0  0  0  2  0  0  0  0  0  0
  -28.2580  -24.9970   19.5160 C   0  0  0  0  0  2  0  0  0  0  0  0
  -28.5270  -26.4230   19.1970 O   0  0  0  0  0  0  0  0  0  0  0  0
  -24.8320  -31.2950   23.0370 C   0  0  0  0  0  0  0  0  0  0  0  0
  -27.4290  -27.2910   19.2920 C   0  0  0  0  0  0  0  0  0  0  0  0
  -23.6240  -30.1820   21.1940 C   0  0  0  0  0  3  0  0  0  0  0  0
  -25.0720  -28.8850   19.5340 C   0  0  0  0  0  0  0  0  0  0  0  0
  -26.1640  -30.5240   21.0630 C   0  0  0  0  0  2  0  0  0  0  0  0
  -26.2410  -29.2690   20.2040 C   0  0  0  0  0  0  0  0  0  0  0  0
  -27.4260  -28.4850   20.0760 C   0  0  0  0  0  3  0  0  0  0  0  0
  -26.2460  -26.9770   18.5890 C   0  0  0  0  0  3  0  0  0  0  0  0
  -25.0770  -27.7460   18.7160 C   0  0  0  0  0  3  0  0  0  0  0  0
  -23.8350  -29.7380   19.7230 C   0  0  0  0  0  2  0  0  0  0  0  0
  -24.8930  -30.6750   21.8230 N   0  0  0  0  0  0  0  0  0  0  0  0
  -23.7500  -31.4840   23.6110 O   0  0  0  0  0  0  0  0  0  0  0  0
  -22.9610  -29.0240   21.9780 C   0  0  0  0  0  0  0  0  0  0  0  0
  -21.6280  -28.9010   21.8640 N   0  0  0  0  0  0  0  0  0  0  0  0
  -23.6460  -28.2460   22.6490 O   0  0  0  0  0  0  0  0  0  0  0  0
  -21.1360  -29.5830   21.3040 H   0  0  0  0  0  0  0  0  0  0  0  0
  -18.2260  -27.7580   22.3150 C   0  0  0  0  0  0  0  0  0  0  0  0
  -20.8040  -27.8600   22.4810 C   0  0  0  0  0  3  0  0  0  0  0  0
  -20.8080  -26.5680   21.6310 C   0  0  0  0  0  2  0  0  0  0  0  0
  -19.6420  -26.4960   20.6390 C   0  0  0  0  0  2  0  0  0  0  0  0
  -18.3020  -26.5650   21.3770 C   0  0  0  0  0  2  0  0  0  0  0  0
  -19.4000  -28.3760   22.8200 C   0  0  0  0  0  0  0  0  0  0  0  0
  -19.2740  -29.5040   23.6590 C   0  0  0  0  0  3  0  0  0  0  0  0
  -18.0050  -30.0110   23.9960 C   0  0  0  0  0  3  0  0  0  0  0  0
  -16.8450  -29.3870   23.5050 C   0  0  0  0  0  3  0  0  0  0  0  0
  -16.9570  -28.2610   22.6700 C   0  0  0  0  0  3  0  0  0  0  0  0
  -26.1170  -31.8170   23.7510 C   0  0  0  0  0  3  0  0  0  0  0  0
  -25.8140  -33.1500   24.2910 N   0  0  0  0  0  0  0  0  0  0  0  0
  -26.1510  -34.3050   23.7030 C   0  0  0  0  0  0  0  0  0  0  0  0
  -26.8210  -34.3570   22.6680 O   0  0  0  0  0  0  0  0  0  0  0  0
  -25.2220  -33.1830   25.1090 H   0  0  0  0  0  0  0  0  0  0  0  0
  -24.4310  -36.1380   23.6310 C   0  0  0  0  0  1  0  0  0  0  0  0
  -25.6720  -35.6100   24.3680 C   0  0  0  0  0  3  0  0  0  0  0  0
  -27.8130  -36.3480   25.3170 C   0  0  0  0  0  1  0  0  0  0  0  0
  -26.7090  -36.6640   24.4130 N   0  0  0  0  0  0  0  0  0  0  0  0
  -26.3080  -37.5530   24.7000 H   0  0  0  0  0  0  0  0  0  0  0  0
  -26.6250  -30.8550   24.8940 C   0  0  1  0  0  0  0  0  0  0  0  0
  -25.5270  -30.4700   25.9140 C   0  0  0  0  0  1  0  0  0  0  0  0
  -27.1950  -29.5480   24.2980 C   0  0  0  0  0  1  0  0  0  0  0  0
  -27.7830  -31.5290   25.6690 C   0  0  0  0  0  1  0  0  0  0  0  0
  2  1  1  0
  3  5  1  0
  4  3  2  0
  4  6  1  0
  5 11  1  0
  5  1  2  0
  6  2  2  0
  8  7  1  0
  9  8  1  0
  9  4  1  0
  9  7  1  0
 11 10  1  0
 11 20  1  0
 12 20  1  0
 13 18  1  0
 14 15  1  0
 14 13  1  0
 16 15  1  0
 16 25  1  0
 16 17  1  0
 18 12  1  0
 18 17  1  0
 19 12  2  0
 20 21  1  0
 22 23  2  0
 23 42  1  0
 24 23  1  0
 24 27  1  0
 25 26  1  0
 25 22  1  0
 26 24  2  0
 27 28  1  0
 28 29  2  0
 30 33  1  0
 30 29  1  0
 31 30  2  0
 32 31  1  0
 32 27  2  0
 33 34  1  0
 34 35  1  0
 35 36  2  0
 37 36  1  0
 37 41  1  0
 38 37  2  0
 39 34  2  0
 39 38  1  0
 40 39  1  0
 42 43  1  0
 43 46  1  0
 43 45  1  0
 44 42  2  0
 47 22  1  0
 47 48  1  0
 49 47  1  0
 50 51  1  0
 50  6  1  0
 51 52  1  0
 53 55  1  0
 53 52  1  0
 54 65  2  0
 55 60  1  0
 56 64  1  0
 56 66  1  0
 57 63  1  0
 57 59  1  0
 58 64  1  0
 59 58  1  0
 60 59  2  0
 61 62  1  0
 61 55  2  0
 62 57  2  0
 63 56  1  0
 64 54  1  0
 66 68  2  0
 67 66  1  0
 69 67  1  0
 70 79  2  0
 70 75  1  0
 71 67  1  0
 71 75  1  0
 72 71  1  0
 73 74  1  0
 73 72  1  0
 74 70  1  0
 75 76  2  0
 76 77  1  0
 78 77  2  0
 79 78  1  0
 80 54  1  0
 80 81  1  0
 80 90  1  0
 81 84  1  0
 82 81  1  0
 82 86  1  0
 83 82  2  0
 86 85  1  0
 86 88  1  0
 88 89  1  0
 88 87  1  0
 90 93  1  1
 90 91  1  0
 92 90  1  0
M  ISO  4  12 100  20 100  52 101  53 101
M  END
>  <TORSDO>  (73) 
F 21

>  <SCORE>  (73) 
-11.249

>  <name>  (73) 
73

>  <ligand_id>  (73) 
73

>  <original_smiles>  (73) 
[H]c1c([H])c([H])c2c(c1[H])C([H])([H])C([H])([H])C([H])([H])C2([H])N([H])C(=O)C1([H])N(C(=O)C([H])(N([H])C(=O)C([H])(N([H])C([H])([H])[H])C([H])([H])[H])C(C([H])([H])[H])(C([H])([H])[H])C([H])([H])[H])C([H])([H])c2c([H])c(OC([H])([H])C([H])([H])Oc3c([H])c([H])c(C([H])(N([H])C(=O)N4C([H])([H])C([H])([H])C([H])([H])C([H])(n5nc(-c6c([H])c([H])c(Oc7c([H])c([H])c(F)c([H])c7F)c([H])c6[H])c(C(=O)N([H])[H])c5N([H])[H])C4([H])[H])C([H])([H])[H])c([H])c3C3([H])C([H])([H])C3([H])[H])c([H])c([H])c2C1([H])[H]

>  <smiles>  (73) 
[H]c1c([H])c([H])c2c(c1[H])C([H])([H])C([H])([H])C([H])([H])C2([H])N([H])C(=O)C1([H])N(C(=O)C([H])(N([H])C(=O)C([H])(N([H])C([H])([H])[H])C([H])([H])[H])C(C([H])([H])[H])(C([H])([H])[H])C([H])([H])[H])C([H])([H])c2c([H])c(OC([H])([H])C([H])([H])Oc3c([H])c([H])c(C([H])(N([H])C(=O)N4C([H])([H])C([H])([H])C([H])([H])C([H])(n5nc(-c6c([H])c([H])c(Oc7c([H])c([H])c(F)c([H])c7F)c([H])c6[H])c(C(=O)N([H])[H])c5N([H])[H])C4([H])[H])C([H])([H])[H])c([H])c3C3([H])C([H])([H])C3([H])[H])c([H])c([H])c2C1([H])[H]

$$$$
74:0:0
     RDKit          3D

 96105  0  0  1  0  0  0  0  0999 V2000
  -28.7750  -22.5860   20.7800 C   0  0  0  0  0  3  0  0  0  0  0  0
  -29.0270  -21.1020   18.8790 C   0  0  0  0  0  3  0  0  0  0  0  0
  -29.2550  -21.5710   21.6360 C   0  0  0  0  0  0  0  0  0  0  0  0
  -29.5140  -20.0520   19.7180 C   0  0  0  0  0  0  0  0  0  0  0  0
  -29.6300  -20.2960   21.1160 C   0  0  0  0  0  0  0  0  0  0  0  0
  -28.6320  -22.3730   19.3960 C   0  0  0  0  0  0  0  0  0  0  0  0
  -29.2700  -21.8800   23.1260 C   0  0  0  0  0  1  0  0  0  0  0  0
  -30.0370  -19.2330   21.9470 N   0  0  0  0  0  0  0  0  0  0  0  0
  -29.8350  -18.3190   21.5600 H   0  0  0  0  0  0  0  0  0  0  0  0
  -31.3210  -19.3180   24.1620 C   0  0  0  0  0  2  0  0  0  0  0  0
  -31.8130  -18.1000   23.4240 C   0  0  0  0  0  2  0  0  0  0  0  0
  -31.3160  -19.3020   22.6450 C   0  0  0  0  0  3  0  0  0  0  0  0
  -29.7680  -18.6230   19.1530 C   0  0  0  0  0  2  0  0  0  0  0  0
  -30.9850  -17.8070   19.7130 C   0  0  0  0  0  2  0  0  0  0  0  0
  -31.4950  -15.2790   19.6170 C   0  0  0  0  0  0  0  0  0  0  0  0
  -31.2310  -12.9350   18.8650 C   0  0  0  0  0  2  0  0  0  0  0  0
  -30.2400  -12.9180   17.6800 C   0  0  0  0  0  2  0  0  0  0  0  0
  -28.7800  -12.8450   18.1780 C   0  0  0  0  0  2  0  0  0  0  0  0
  -28.4770  -13.8680   19.3070 C   0  0  0  0  0  3  0  0  0  0  0  0
  -29.5770  -13.8410   20.3940 C   0  0  0  0  0  2  0  0  0  0  0  0
  -30.8670  -14.0720   19.7260 N   0  0  0  0  0  0  0  0  0  0  0  0
  -32.6290  -15.4040   19.1470 O   0  0  0  0  0  0  0  0  0  0  0  0
  -30.7110  -16.3520   19.8800 N   0  0  0  0  0  0  0  0  0  0  0  0
  -29.7970  -16.1100   20.2290 H   0  0  0  0  0  0  0  0  0  0  0  0
  -26.1820  -14.6120   20.1980 C   0  0  0  0  0  0  0  0  0  0  0  0
  -25.0890  -13.9030   20.6130 C   0  0  0  0  0  0  0  0  0  0  0  0
  -25.4460  -12.5230   20.5000 C   0  0  0  0  0  0  0  0  0  0  0  0
  -27.1440  -13.6690   19.8680 N   0  0  0  0  0  0  0  0  0  0  0  0
  -26.7070  -12.4050   20.1040 N   0  0  0  0  0  0  0  0  0  0  0  0
  -24.6410  -11.3100   20.6880 C   0  0  0  0  0  0  0  0  0  0  0  0
  -25.0090  -10.3200   21.6250 C   0  0  0  0  0  3  0  0  0  0  0  0
  -24.2090   -9.1700   21.8040 C   0  0  0  0  0  3  0  0  0  0  0  0
  -23.0260   -9.0030   21.0440 C   0  0  0  0  0  0  0  0  0  0  0  0
  -22.6780   -9.9800   20.0960 C   0  0  0  0  0  3  0  0  0  0  0  0
  -23.4770  -11.1210   19.9140 C   0  0  0  0  0  3  0  0  0  0  0  0
  -22.2020   -7.9050   21.1310 O   0  0  0  0  0  0  0  0  0  0  0  0
  -21.9910   -7.2590   22.3220 C   0  0  0  0  0  0  0  0  0  0  0  0
  -21.4460   -7.9240   23.4440 C   0  0  0  0  0  3  0  0  0  0  0  0
  -21.1770   -7.2050   24.6250 C   0  0  0  0  0  3  0  0  0  0  0  0
  -21.4420   -5.8240   24.6880 C   0  0  0  0  0  0  0  0  0  0  0  0
  -21.9820   -5.1600   23.5710 C   0  0  0  0  0  3  0  0  0  0  0  0
  -22.2520   -5.8760   22.3900 C   0  0  0  0  0  0  0  0  0  0  0  0
  -22.7510   -5.2290   21.3100 F   0  0  0  0  0  0  0  0  0  0  0  0
  -21.1800   -5.1290   25.8200 F   0  0  0  0  0  0  0  0  0  0  0  0
  -23.7500  -14.4630   20.9980 C   0  0  0  0  0  0  0  0  0  0  0  0
  -23.0380  -13.7920   21.8960 N   0  0  0  0  0  0  0  0  0  0  0  0
  -23.3520  -15.5330   20.5380 O   0  0  0  0  0  0  0  0  0  0  0  0
  -23.3750  -12.9220   22.2840 H   0  0  0  0  0  0  0  0  0  0  0  0
  -22.1410  -14.1490   22.1960 H   0  0  0  0  0  0  0  0  0  0  0  0
  -26.4350  -15.9730   20.0540 N   0  0  0  0  0  0  0  0  0  0  0  0
  -25.7230  -16.6730   20.2270 H   0  0  0  0  0  0  0  0  0  0  0  0
  -27.2750  -16.3550   19.6480 H   0  0  0  0  0  0  0  0  0  0  0  0
  -28.1280  -23.3610   18.5520 O   0  0  0  0  0  0  0  0  0  0  0  0
  -27.2190  -24.3820   19.0640 C   0  0  0  0  0  2  0  0  0  0  0  0
  -27.8560  -25.6110   19.8010 C   0  0  0  0  0  2  0  0  0  0  0  0
  -27.7710  -26.9200   19.1630 O   0  0  0  0  0  0  0  0  0  0  0  0
  -24.5320  -31.8110   23.2940 C   0  0  0  0  0  0  0  0  0  0  0  0
  -26.6530  -27.7010   19.4070 C   0  0  0  0  0  0  0  0  0  0  0  0
  -23.1150  -30.6900   21.6050 C   0  0  0  0  0  3  0  0  0  0  0  0
  -24.3540  -29.3050   19.8580 C   0  0  0  0  0  0  0  0  0  0  0  0
  -25.6300  -30.9730   21.2100 C   0  0  0  0  0  2  0  0  0  0  0  0
  -25.5900  -29.6980   20.3860 C   0  0  0  0  0  0  0  0  0  0  0  0
  -26.7430  -28.9070   20.1520 C   0  0  0  0  0  3  0  0  0  0  0  0
  -25.3970  -27.3290   18.8830 C   0  0  0  0  0  3  0  0  0  0  0  0
  -24.2550  -28.1240   19.1030 C   0  0  0  0  0  3  0  0  0  0  0  0
  -23.1650  -30.1970   20.1360 C   0  0  0  0  0  2  0  0  0  0  0  0
  -24.4500  -31.1660   22.0930 N   0  0  0  0  0  0  0  0  0  0  0  0
  -23.5170  -32.0440   23.9660 O   0  0  0  0  0  0  0  0  0  0  0  0
  -22.5050  -29.5720   22.4820 C   0  0  0  0  0  0  0  0  0  0  0  0
  -21.1850  -29.3560   22.3490 N   0  0  0  0  0  0  0  0  0  0  0  0
  -23.2170  -28.9020   23.2360 O   0  0  0  0  0  0  0  0  0  0  0  0
  -20.6710  -29.9520   21.7160 H   0  0  0  0  0  0  0  0  0  0  0  0
  -17.8880  -27.9080   22.6550 C   0  0  0  0  0  0  0  0  0  0  0  0
  -20.4090  -28.3280   23.0430 C   0  0  0  0  0  3  0  0  0  0  0  0
  -20.6350  -26.9360   22.4100 C   0  0  0  0  0  2  0  0  0  0  0  0
  -19.5990  -26.5880   21.3370 C   0  0  0  0  0  2  0  0  0  0  0  0
  -18.1850  -26.6080   21.9280 C   0  0  0  0  0  2  0  0  0  0  0  0
  -18.9320  -28.7230   23.1650 C   0  0  0  0  0  0  0  0  0  0  0  0
  -18.6040  -29.9390   23.8040 C   0  0  0  0  0  3  0  0  0  0  0  0
  -17.2620  -30.3400   23.9370 C   0  0  0  0  0  3  0  0  0  0  0  0
  -16.2300  -29.5210   23.4450 C   0  0  0  0  0  3  0  0  0  0  0  0
  -16.5450  -28.3070   22.8120 C   0  0  0  0  0  3  0  0  0  0  0  0
  -25.8970  -32.3090   23.8640 C   0  0  0  0  0  3  0  0  0  0  0  0
  -25.7020  -33.6830   24.3450 N   0  0  0  0  0  0  0  0  0  0  0  0
  -26.0880  -34.7840   23.6840 C   0  0  0  0  0  0  0  0  0  0  0  0
  -26.7150  -34.7390   22.6220 O   0  0  0  0  0  0  0  0  0  0  0  0
  -25.1480  -33.8000   25.1800 H   0  0  0  0  0  0  0  0  0  0  0  0
  -24.4900  -36.7230   23.5730 C   0  0  0  0  0  1  0  0  0  0  0  0
  -25.7180  -36.1480   24.2970 C   0  0  0  0  0  3  0  0  0  0  0  0
  -27.9290  -36.7880   25.1490 C   0  0  0  0  0  1  0  0  0  0  0  0
  -26.8240  -37.1290   24.2560 N   0  0  0  0  0  0  0  0  0  0  0  0
  -26.4910  -38.0570   24.5050 H   0  0  0  0  0  0  0  0  0  0  0  0
  -26.4590  -31.3910   25.0180 C   0  0  1  0  0  0  0  0  0  0  0  0
  -25.4400  -31.1140   26.1460 C   0  0  0  0  0  1  0  0  0  0  0  0
  -26.9180  -30.0260   24.4520 C   0  0  0  0  0  1  0  0  0  0  0  0
  -27.7080  -32.0500   25.6490 C   0  0  0  0  0  1  0  0  0  0  0  0
  1  3  1  0
  2  6  1  0
  2  4  2  0
  3  7  1  0
  4  5  1  0
  5  3  2  0
  5  8  1  0
  6  1  2  0
  8 12  1  0
  9  8  1  0
 11 10  1  0
 12 11  1  0
 12 10  1  0
 13 14  1  0
 13  4  1  0
 14 23  1  0
 15 21  1  0
 15 23  1  0
 16 21  1  0
 17 18  1  0
 17 16  1  0
 19 18  1  0
 19 28  1  0
 19 20  1  0
 21 20  1  0
 22 15  2  0
 23 24  1  0
 25 26  2  0
 26 45  1  0
 27 26  1  0
 27 30  1  0
 28 29  1  0
 28 25  1  0
 29 27  2  0
 30 31  1  0
 31 32  2  0
 33 36  1  0
 33 32  1  0
 34 33  2  0
 35 34  1  0
 35 30  2  0
 36 37  1  0
 37 42  2  0
 37 38  1  0
 38 39  2  0
 39 40  1  0
 40 44  1  0
 41 40  2  0
 42 41  1  0
 43 42  1  0
 45 46  1  0
 46 49  1  0
 46 48  1  0
 47 45  2  0
 50 25  1  0
 50 51  1  0
 52 50  1  0
 53 54  1  0
 53  6  1  0
 54 55  1  0
 56 58  1  0
 56 55  1  0
 57 68  2  0
 58 63  1  0
 59 67  1  0
 59 69  1  0
 60 66  1  0
 60 62  1  0
 61 67  1  0
 62 61  1  0
 63 62  2  0
 64 65  1  0
 64 58  2  0
 65 60  2  0
 66 59  1  0
 67 57  1  0
 69 71  2  0
 70 69  1  0
 72 70  1  0
 73 82  2  0
 73 78  1  0
 74 70  1  0
 74 78  1  0
 75 74  1  0
 76 77  1  0
 76 75  1  0
 77 73  1  0
 78 79  2  0
 79 80  1  0
 81 80  2  0
 82 81  1  0
 83 57  1  0
 83 84  1  0
 83 93  1  0
 84 87  1  0
 85 89  1  0
 85 84  1  0
 86 85  2  0
 89 88  1  0
 91 89  1  0
 91 92  1  0
 91 90  1  0
 93 96  1  1
 93 94  1  0
 95 93  1  0
M  ISO  4  15 100  23 100  55 101  56 101
M  END
>  <TORSDO>  (74) 
F 23

>  <SCORE>  (74) 
-9.190

>  <name>  (74) 
74

>  <ligand_id>  (74) 
74

>  <original_smiles>  (74) 
[H]c1c([H])c([H])c2c(c1[H])C([H])([H])C([H])([H])C([H])([H])C2([H])N([H])C(=O)C1([H])N(C(=O)C([H])(N([H])C(=O)C([H])(N([H])C([H])([H])[H])C([H])([H])[H])C(C([H])([H])[H])(C([H])([H])[H])C([H])([H])[H])C([H])([H])c2c([H])c(OC([H])([H])C([H])([H])Oc3c([H])c(C([H])([H])[H])c(N([H])C4([H])C([H])([H])C4([H])[H])c(C([H])([H])C([H])([H])N([H])C(=O)N4C([H])([H])C([H])([H])C([H])([H])C([H])(n5nc(-c6c([H])c([H])c(Oc7c([H])c([H])c(F)c([H])c7F)c([H])c6[H])c(C(=O)N([H])[H])c5N([H])[H])C4([H])[H])c3[H])c([H])c([H])c2C1([H])[H]

>  <smiles>  (74) 
[H]c1c([H])c([H])c2c(c1[H])C([H])([H])C([H])([H])C([H])([H])C2([H])N([H])C(=O)C1([H])N(C(=O)C([H])(N([H])C(=O)C([H])(N([H])C([H])([H])[H])C([H])([H])[H])C(C([H])([H])[H])(C([H])([H])[H])C([H])([H])[H])C([H])([H])c2c([H])c(OC([H])([H])C([H])([H])Oc3c([H])c(C([H])([H])[H])c(N([H])C4([H])C([H])([H])C4([H])[H])c(C([H])([H])C([H])([H])N([H])C(=O)N4C([H])([H])C([H])([H])C([H])([H])C([H])(n5nc(-c6c([H])c([H])c(Oc7c([H])c([H])c(F)c([H])c7F)c([H])c6[H])c(C(=O)N([H])[H])c5N([H])[H])C4([H])[H])c3[H])c([H])c([H])c2C1([H])[H]

$$$$
75:0:0
     RDKit          3D

 97106  0  0  1  0  0  0  0  0999 V2000
  -29.2590  -23.1230   19.6130 C   0  0  0  0  0  2  0  0  0  0  0  0
  -29.7380  -22.0940   20.7140 C   0  0  0  0  0  3  0  0  0  0  0  0
  -28.4210  -24.3150   20.2740 C   0  0  0  0  0  3  0  0  0  0  0  0
  -28.8610  -22.4420   21.9330 C   0  0  0  0  0  3  0  0  0  0  0  0
  -28.4340  -23.9310   21.7890 C   0  0  0  0  0  3  0  0  0  0  0  0
  -29.5840  -22.1370   23.2590 C   0  0  0  0  0  1  0  0  0  0  0  0
  -31.2970  -18.4250   20.8810 C   0  0  0  0  0  3  0  0  0  0  0  0
  -29.0150  -18.2100   20.2130 C   0  0  0  0  0  3  0  0  0  0  0  0
  -29.9390  -20.5180   20.4750 C   0  0  0  0  0  0  0  0  0  0  0  0
  -31.1740  -19.8530   20.8000 C   0  0  0  0  0  0  0  0  0  0  0  0
  -28.8790  -19.6280   20.1050 C   0  0  0  0  0  0  0  0  0  0  0  0
  -30.2010  -17.5580   20.6340 C   0  0  0  0  0  0  0  0  0  0  0  0
  -32.4220  -20.6680   21.1000 C   0  0  0  0  0  1  0  0  0  0  0  0
  -27.5370  -20.1360   19.6020 C   0  0  0  0  0  1  0  0  0  0  0  0
  -31.0360  -15.0560   20.5860 C   0  0  0  0  0  0  0  0  0  0  0  0
  -30.9260  -12.7430   19.6620 C   0  0  0  0  0  2  0  0  0  0  0  0
  -30.0630  -12.7790   18.3800 C   0  0  0  0  0  2  0  0  0  0  0  0
  -28.5630  -12.6450   18.7140 C   0  0  0  0  0  2  0  0  0  0  0  0
  -28.1220  -13.5870   19.8660 C   0  0  0  0  0  3  0  0  0  0  0  0
  -29.1000  -13.4950   21.0590 C   0  0  0  0  0  2  0  0  0  0  0  0
  -30.4460  -13.8150   20.5560 N   0  0  0  0  0  0  0  0  0  0  0  0
  -32.2220  -15.2090   20.2800 O   0  0  0  0  0  0  0  0  0  0  0  0
  -30.1660  -16.0970   20.8020 N   0  0  0  0  0  0  0  0  0  0  0  0
  -29.2480  -15.7460   21.0240 H   0  0  0  0  0  0  0  0  0  0  0  0
  -25.7100  -14.2580   20.4540 C   0  0  0  0  0  0  0  0  0  0  0  0
  -24.6030  -13.5180   20.7660 C   0  0  0  0  0  0  0  0  0  0  0  0
  -25.0250  -12.1540   20.7550 C   0  0  0  0  0  0  0  0  0  0  0  0
  -26.7400  -13.3460   20.2740 N   0  0  0  0  0  0  0  0  0  0  0  0
  -26.3280  -12.0750   20.5130 N   0  0  0  0  0  0  0  0  0  0  0  0
  -24.2520  -10.9130   20.9010 C   0  0  0  0  0  0  0  0  0  0  0  0
  -24.6180   -9.9200   21.8360 C   0  0  0  0  0  3  0  0  0  0  0  0
  -23.8490   -8.7450   21.9730 C   0  0  0  0  0  3  0  0  0  0  0  0
  -22.6990   -8.5540   21.1720 C   0  0  0  0  0  0  0  0  0  0  0  0
  -22.3500   -9.5340   20.2260 C   0  0  0  0  0  3  0  0  0  0  0  0
  -23.1200  -10.7020   20.0870 C   0  0  0  0  0  3  0  0  0  0  0  0
  -21.9100   -7.4300   21.2130 O   0  0  0  0  0  0  0  0  0  0  0  0
  -21.8050   -6.6660   22.3480 C   0  0  0  0  0  0  0  0  0  0  0  0
  -21.3580   -7.2100   23.5730 C   0  0  0  0  0  3  0  0  0  0  0  0
  -21.1970   -6.3750   24.6960 C   0  0  0  0  0  3  0  0  0  0  0  0
  -21.4730   -4.9980   24.5970 C   0  0  0  0  0  0  0  0  0  0  0  0
  -21.9130   -4.4550   23.3770 C   0  0  0  0  0  3  0  0  0  0  0  0
  -22.0760   -5.2860   22.2550 C   0  0  0  0  0  0  0  0  0  0  0  0
  -22.4780   -4.7540   21.0770 F   0  0  0  0  0  0  0  0  0  0  0  0
  -21.3130   -4.1940   25.6750 F   0  0  0  0  0  0  0  0  0  0  0  0
  -23.2070  -14.0370   20.9610 C   0  0  0  0  0  0  0  0  0  0  0  0
  -22.4140  -13.3730   21.7940 N   0  0  0  0  0  0  0  0  0  0  0  0
  -22.8260  -15.0690   20.4100 O   0  0  0  0  0  0  0  0  0  0  0  0
  -22.7320  -12.5410   22.2680 H   0  0  0  0  0  0  0  0  0  0  0  0
  -21.4750  -13.7010   21.9620 H   0  0  0  0  0  0  0  0  0  0  0  0
  -25.9230  -15.6210   20.2810 N   0  0  0  0  0  0  0  0  0  0  0  0
  -25.1520  -16.2800   20.3120 H   0  0  0  0  0  0  0  0  0  0  0  0
  -26.7610  -16.0160   19.8760 H   0  0  0  0  0  0  0  0  0  0  0  0
  -27.0860  -25.6780   23.1710 C   0  0  0  0  0  1  0  0  0  0  0  0
  -25.8190  -23.9210   21.8830 C   0  0  0  0  0  1  0  0  0  0  0  0
  -27.1390  -24.2510   22.6040 C   0  0  0  0  0  3  0  0  0  0  0  0
  -28.8640  -25.8530   20.0970 C   0  0  0  0  0  2  0  0  0  0  0  0
  -28.2870  -26.8070   19.1460 O   0  0  0  0  0  0  0  0  0  0  0  0
  -24.6350  -31.7170   23.0860 C   0  0  0  0  0  0  0  0  0  0  0  0
  -27.1510  -27.5640   19.4400 C   0  0  0  0  0  0  0  0  0  0  0  0
  -23.3650  -30.4770   21.3700 C   0  0  0  0  0  3  0  0  0  0  0  0
  -24.7610  -29.1030   19.7250 C   0  0  0  0  0  0  0  0  0  0  0  0
  -25.8840  -30.8600   21.0920 C   0  0  0  0  0  2  0  0  0  0  0  0
  -25.9510  -29.5540   20.3120 C   0  0  0  0  0  0  0  0  0  0  0  0
  -27.1510  -28.7950   20.1650 C   0  0  0  0  0  3  0  0  0  0  0  0
  -25.9400  -27.1540   18.8510 C   0  0  0  0  0  3  0  0  0  0  0  0
  -24.7550  -27.9050   18.9910 C   0  0  0  0  0  3  0  0  0  0  0  0
  -23.5160  -29.9480   19.9200 C   0  0  0  0  0  2  0  0  0  0  0  0
  -24.6490  -31.0310   21.9060 N   0  0  0  0  0  0  0  0  0  0  0  0
  -23.5790  -31.9160   23.7020 O   0  0  0  0  0  0  0  0  0  0  0  0
  -22.7670  -29.3530   22.2480 C   0  0  0  0  0  0  0  0  0  0  0  0
  -21.4450  -29.1380   22.1410 N   0  0  0  0  0  0  0  0  0  0  0  0
  -23.4910  -28.6800   22.9870 O   0  0  0  0  0  0  0  0  0  0  0  0
  -20.9160  -29.7330   21.5170 H   0  0  0  0  0  0  0  0  0  0  0  0
  -18.1330  -27.7620   22.5950 C   0  0  0  0  0  0  0  0  0  0  0  0
  -20.6840  -28.1040   22.8440 C   0  0  0  0  0  3  0  0  0  0  0  0
  -20.8320  -26.7330   22.1450 C   0  0  0  0  0  2  0  0  0  0  0  0
  -19.7230  -26.4530   21.1250 C   0  0  0  0  0  2  0  0  0  0  0  0
  -18.3500  -26.4850   21.8020 C   0  0  0  0  0  2  0  0  0  0  0  0
  -19.2280  -28.5310   23.0710 C   0  0  0  0  0  0  0  0  0  0  0  0
  -18.9700  -29.7280   23.7720 C   0  0  0  0  0  3  0  0  0  0  0  0
  -17.6500  -30.1570   24.0060 C   0  0  0  0  0  3  0  0  0  0  0  0
  -16.5690  -29.3830   23.5460 C   0  0  0  0  0  3  0  0  0  0  0  0
  -16.8120  -28.1880   22.8460 C   0  0  0  0  0  3  0  0  0  0  0  0
  -25.9420  -32.3020   23.7030 C   0  0  0  0  0  3  0  0  0  0  0  0
  -26.5170  -31.4240   24.8820 C   0  0  1  0  0  0  0  0  0  0  0  0
  -25.4760  -31.0940   25.9770 C   0  0  0  0  0  1  0  0  0  0  0  0
  -27.0790  -30.0870   24.3460 C   0  0  0  0  0  1  0  0  0  0  0  0
  -27.7000  -32.1620   25.5530 C   0  0  0  0  0  1  0  0  0  0  0  0
  -25.6380  -33.6610   24.1730 N   0  0  0  0  0  0  0  0  0  0  0  0
  -25.9610  -34.7840   23.5170 C   0  0  0  0  0  0  0  0  0  0  0  0
  -26.6160  -34.7820   22.4720 O   0  0  0  0  0  0  0  0  0  0  0  0
  -25.0550  -33.7350   24.9940 H   0  0  0  0  0  0  0  0  0  0  0  0
  -24.2310  -36.6060   23.3660 C   0  0  0  0  0  1  0  0  0  0  0  0
  -25.4830  -36.1200   24.1170 C   0  0  0  0  0  3  0  0  0  0  0  0
  -27.6290  -36.9170   25.0040 C   0  0  0  0  0  1  0  0  0  0  0  0
  -26.5170  -37.1790   24.0960 N   0  0  0  0  0  0  0  0  0  0  0  0
  -26.1140  -38.0810   24.3370 H   0  0  0  0  0  0  0  0  0  0  0  0
  1  3  1  0
  1  2  1  0
  2  9  1  0
  2  4  1  0
  3 56  1  0
  3  5  1  0
  4  6  1  0
  5  4  1  0
  5 55  1  0
  8 12  1  0
  9 10  2  0
 10  7  1  0
 10 13  1  0
 11  8  2  0
 11  9  1  0
 12 23  1  0
 12  7  2  0
 14 11  1  0
 15 23  1  0
 16 21  1  0
 17 18  1  0
 17 16  1  0
 19 18  1  0
 19 28  1  0
 19 20  1  0
 21 15  1  0
 21 20  1  0
 22 15  2  0
 23 24  1  0
 25 26  2  0
 26 45  1  0
 27 26  1  0
 27 30  1  0
 28 25  1  0
 28 29  1  0
 29 27  2  0
 30 31  1  0
 31 32  2  0
 33 36  1  0
 33 32  1  0
 34 33  2  0
 35 34  1  0
 35 30  2  0
 36 37  1  0
 37 38  1  0
 38 39  2  0
 40 39  1  0
 40 44  1  0
 41 40  2  0
 42 37  2  0
 42 41  1  0
 43 42  1  0
 45 46  1  0
 46 49  1  0
 46 48  1  0
 47 45  2  0
 50 51  1  0
 50 25  1  0
 52 50  1  0
 54 55  1  0
 55 53  1  0
 57 59  1  0
 57 56  1  0
 58 69  2  0
 59 64  1  0
 60 68  1  0
 60 70  1  0
 61 67  1  0
 61 63  1  0
 62 68  1  0
 63 62  1  0
 64 63  2  0
 65 66  1  0
 65 59  2  0
 66 61  2  0
 67 60  1  0
 68 58  1  0
 70 72  2  0
 71 70  1  0
 73 71  1  0
 74 83  2  0
 74 79  1  0
 75 71  1  0
 75 79  1  0
 76 75  1  0
 77 78  1  0
 77 76  1  0
 78 74  1  0
 79 80  2  0
 80 81  1  0
 82 81  2  0
 83 82  1  0
 84 58  1  0
 84 89  1  0
 84 85  1  0
 85 88  1  1
 85 86  1  0
 87 85  1  0
 89 92  1  0
 90 94  1  0
 90 89  1  0
 91 90  2  0
 94 93  1  0
 96 94  1  0
 96 97  1  0
 96 95  1  0
M  ISO  4  15 100  23 100  56 101  57 101
M  END
>  <TORSDO>  (75) 
F 19

>  <SCORE>  (75) 
-13.204

>  <name>  (75) 
75

>  <ligand_id>  (75) 
75

>  <original_smiles>  (75) 
[H]c1c([H])c([H])c2c(c1[H])C([H])([H])C([H])([H])C([H])([H])C2([H])N([H])C(=O)C1([H])N(C(=O)C([H])(N([H])C(=O)C([H])(N([H])C([H])([H])[H])C([H])([H])[H])C(C([H])([H])[H])(C([H])([H])[H])C([H])([H])[H])C([H])([H])c2c([H])c(OC([H])([H])C3([H])C([H])([H])C([H])(c4c(C([H])([H])[H])c([H])c(N([H])C(=O)N5C([H])([H])C([H])([H])C([H])([H])C([H])(n6nc(-c7c([H])c([H])c(Oc8c([H])c([H])c(F)c([H])c8F)c([H])c7[H])c(C(=O)N([H])[H])c6N([H])[H])C5([H])[H])c([H])c4C([H])([H])[H])C([H])(C([H])([H])[H])C3([H])C([H])(C([H])([H])[H])C([H])([H])[H])c([H])c([H])c2C1([H])[H]

>  <smiles>  (75) 
[H]c1c([H])c([H])c2c(c1[H])C([H])([H])C([H])([H])C([H])([H])C2([H])N([H])C(=O)C1([H])N(C(=O)C([H])(N([H])C(=O)C([H])(N([H])C([H])([H])[H])C([H])([H])[H])C(C([H])([H])[H])(C([H])([H])[H])C([H])([H])[H])C([H])([H])c2c([H])c(OC([H])([H])C3([H])C([H])([H])C([H])(c4c(C([H])([H])[H])c([H])c(N([H])C(=O)N5C([H])([H])C([H])([H])C([H])([H])C([H])(n6nc(-c7c([H])c([H])c(Oc8c([H])c([H])c(F)c([H])c8F)c([H])c7[H])c(C(=O)N([H])[H])c6N([H])[H])C5([H])[H])c([H])c4C([H])([H])[H])C([H])(C([H])([H])[H])C3([H])C([H])(C([H])([H])[H])C([H])([H])[H])c([H])c([H])c2C1([H])[H]

$$$$
76:0:0
     RDKit          3D

 96105  0  0  1  0  0  0  0  0999 V2000
  -29.4460  -22.2640   21.2250 C   0  0  0  0  0  2  0  0  0  0  0  0
  -30.1760  -24.5840   20.4250 C   0  0  0  0  0  2  0  0  0  0  0  0
  -28.1130  -24.4270   21.8230 C   0  0  0  0  0  2  0  0  0  0  0  0
  -30.3900  -26.0590   20.8310 C   0  0  0  0  0  2  0  0  0  0  0  0
  -28.2270  -25.9330   22.1720 C   0  0  0  0  0  2  0  0  0  0  0  0
  -29.4920  -23.7850   21.5510 C   0  0  0  0  0  3  0  0  0  0  0  0
  -29.0780  -26.7890   21.1870 C   0  0  0  0  0  3  0  0  0  0  0  0
  -28.4170  -27.1250   19.9610 O   0  0  0  0  0  0  0  0  0  0  0  0
  -24.6340  -32.1090   23.4300 C   0  0  0  0  0  0  0  0  0  0  0  0
  -27.2810  -27.8950   20.0640 C   0  0  0  0  0  0  0  0  0  0  0  0
  -23.4150  -30.7690   21.7470 C   0  0  0  0  0  3  0  0  0  0  0  0
  -24.8650  -29.3450   20.2020 C   0  0  0  0  0  0  0  0  0  0  0  0
  -25.9250  -31.1960   21.5050 C   0  0  0  0  0  2  0  0  0  0  0  0
  -26.0240  -29.8620   20.7950 C   0  0  0  0  0  0  0  0  0  0  0  0
  -27.2420  -29.1450   20.7260 C   0  0  0  0  0  3  0  0  0  0  0  0
  -26.1140  -27.4000   19.4550 C   0  0  0  0  0  3  0  0  0  0  0  0
  -24.9030  -28.1120   19.5280 C   0  0  0  0  0  3  0  0  0  0  0  0
  -23.6020  -30.1670   20.3280 C   0  0  0  0  0  2  0  0  0  0  0  0
  -24.6770  -31.3710   22.2830 N   0  0  0  0  0  0  0  0  0  0  0  0
  -23.5630  -32.3270   24.0130 O   0  0  0  0  0  0  0  0  0  0  0  0
  -22.8150  -29.6820   22.6680 C   0  0  0  0  0  0  0  0  0  0  0  0
  -21.5010  -29.4390   22.5300 N   0  0  0  0  0  0  0  0  0  0  0  0
  -23.5290  -29.0630   23.4610 O   0  0  0  0  0  0  0  0  0  0  0  0
  -20.9860  -29.9940   21.8620 H   0  0  0  0  0  0  0  0  0  0  0  0
  -18.2060  -28.0150   22.9210 C   0  0  0  0  0  0  0  0  0  0  0  0
  -20.7320  -28.4360   23.2650 C   0  0  0  0  0  3  0  0  0  0  0  0
  -20.9440  -27.0250   22.6690 C   0  0  0  0  0  2  0  0  0  0  0  0
  -19.8910  -26.6460   21.6220 C   0  0  0  0  0  2  0  0  0  0  0  0
  -18.4880  -26.6900   22.2310 C   0  0  0  0  0  2  0  0  0  0  0  0
  -19.2590  -28.8410   23.3930 C   0  0  0  0  0  0  0  0  0  0  0  0
  -18.9420  -30.0780   23.9940 C   0  0  0  0  0  3  0  0  0  0  0  0
  -17.6030  -30.4890   24.1350 C   0  0  0  0  0  3  0  0  0  0  0  0
  -16.5640  -29.6580   23.6820 C   0  0  0  0  0  3  0  0  0  0  0  0
  -16.8650  -28.4240   23.0790 C   0  0  0  0  0  3  0  0  0  0  0  0
  -25.9230  -32.7360   24.0470 C   0  0  0  0  0  3  0  0  0  0  0  0
  -25.6180  -34.1320   24.3900 N   0  0  0  0  0  0  0  0  0  0  0  0
  -25.9680  -35.1910   23.6460 C   0  0  0  0  0  0  0  0  0  0  0  0
  -26.6570  -35.0950   22.6270 O   0  0  0  0  0  0  0  0  0  0  0  0
  -25.0130  -34.2830   25.1850 H   0  0  0  0  0  0  0  0  0  0  0  0
  -24.2670  -37.0030   23.2630 C   0  0  0  0  0  1  0  0  0  0  0  0
  -25.4770  -36.5760   24.1100 C   0  0  0  0  0  3  0  0  0  0  0  0
  -27.5880  -37.4320   25.0280 C   0  0  0  0  0  1  0  0  0  0  0  0
  -26.5220  -37.6220   24.0470 N   0  0  0  0  0  0  0  0  0  0  0  0
  -26.1190  -38.5440   24.1920 H   0  0  0  0  0  0  0  0  0  0  0  0
  -26.4520  -31.9540   25.3130 C   0  0  1  0  0  0  0  0  0  0  0  0
  -25.3670  -31.7040   26.3860 C   0  0  0  0  0  1  0  0  0  0  0  0
  -27.0380  -30.5830   24.9030 C   0  0  0  0  0  1  0  0  0  0  0  0
  -27.6070  -32.7470   25.9720 C   0  0  0  0  0  1  0  0  0  0  0  0
  -29.3890  -21.3220   22.4550 C   0  0  0  0  0  2  0  0  0  0  0  0
  -30.0460  -20.0610   22.2280 O   0  0  0  0  0  0  0  0  0  0  0  0
  -28.7430  -19.6690   20.1820 C   0  0  0  0  0  3  0  0  0  0  0  0
  -28.5320  -18.8930   19.0310 C   0  0  0  0  0  3  0  0  0  0  0  0
  -30.4570  -18.0970   20.8980 C   0  0  0  0  0  3  0  0  0  0  0  0
  -30.2640  -17.3150   19.7290 C   0  0  0  0  0  0  0  0  0  0  0  0
  -29.7320  -19.2990   21.1190 C   0  0  0  0  0  0  0  0  0  0  0  0
  -29.3080  -17.7410   18.7700 C   0  0  0  0  0  0  0  0  0  0  0  0
  -31.5920  -15.2820   20.3020 C   0  0  0  0  0  0  0  0  0  0  0  0
  -31.2270  -13.0620   19.3950 C   0  0  0  0  0  2  0  0  0  0  0  0
  -30.3500  -13.2420   18.1360 C   0  0  0  0  0  2  0  0  0  0  0  0
  -28.8550  -13.2100   18.5070 C   0  0  0  0  0  2  0  0  0  0  0  0
  -28.4950  -14.1140   19.7170 C   0  0  0  0  0  3  0  0  0  0  0  0
  -29.5110  -13.9700   20.8720 C   0  0  0  0  0  2  0  0  0  0  0  0
  -30.8570  -14.1400   20.3140 N   0  0  0  0  0  0  0  0  0  0  0  0
  -32.8120  -15.2690   20.4760 O   0  0  0  0  0  0  0  0  0  0  0  0
  -31.9810  -16.4310   18.2300 C   0  0  0  0  0  1  0  0  0  0  0  0
  -31.1280  -16.2110   19.4180 N   0  0  0  0  0  0  0  0  0  0  0  0
  -26.1100  -14.8300   20.3360 C   0  0  0  0  0  0  0  0  0  0  0  0
  -24.9900  -14.1050   20.6450 C   0  0  0  0  0  0  0  0  0  0  0  0
  -25.3910  -12.7350   20.6430 C   0  0  0  0  0  0  0  0  0  0  0  0
  -27.1200  -13.9010   20.1520 N   0  0  0  0  0  0  0  0  0  0  0  0
  -26.6910  -12.6370   20.4020 N   0  0  0  0  0  0  0  0  0  0  0  0
  -24.6010  -11.5080   20.8020 C   0  0  0  0  0  0  0  0  0  0  0  0
  -24.9790  -10.5000   21.7170 C   0  0  0  0  0  3  0  0  0  0  0  0
  -24.1950   -9.3360   21.8650 C   0  0  0  0  0  3  0  0  0  0  0  0
  -23.0180   -9.1710   21.0960 C   0  0  0  0  0  0  0  0  0  0  0  0
  -22.6570  -10.1670   20.1700 C   0  0  0  0  0  3  0  0  0  0  0  0
  -23.4420  -11.3240   20.0200 C   0  0  0  0  0  3  0  0  0  0  0  0
  -22.2040   -8.0650   21.1610 O   0  0  0  0  0  0  0  0  0  0  0  0
  -22.1010   -7.3150   22.3050 C   0  0  0  0  0  0  0  0  0  0  0  0
  -21.6810   -7.8780   23.5300 C   0  0  0  0  0  3  0  0  0  0  0  0
  -21.5160   -7.0540   24.6600 C   0  0  0  0  0  3  0  0  0  0  0  0
  -21.7650   -5.6690   24.5670 C   0  0  0  0  0  0  0  0  0  0  0  0
  -22.1780   -5.1070   23.3470 C   0  0  0  0  0  3  0  0  0  0  0  0
  -22.3410   -5.9280   22.2170 C   0  0  0  0  0  0  0  0  0  0  0  0
  -22.7190   -5.3800   21.0350 F   0  0  0  0  0  0  0  0  0  0  0  0
  -21.5980   -4.8740   25.6490 F   0  0  0  0  0  0  0  0  0  0  0  0
  -23.6030  -14.6420   20.8360 C   0  0  0  0  0  0  0  0  0  0  0  0
  -22.8250  -14.0080   21.7070 N   0  0  0  0  0  0  0  0  0  0  0  0
  -23.2170  -15.6480   20.2450 O   0  0  0  0  0  0  0  0  0  0  0  0
  -23.1510  -13.1860   22.1920 H   0  0  0  0  0  0  0  0  0  0  0  0
  -21.8950  -14.3520   21.8910 H   0  0  0  0  0  0  0  0  0  0  0  0
  -26.3510  -16.1920   20.1820 N   0  0  0  0  0  0  0  0  0  0  0  0
  -25.6310  -16.8900   20.3240 H   0  0  0  0  0  0  0  0  0  0  0  0
  -27.2490  -16.5900   19.9370 H   0  0  0  0  0  0  0  0  0  0  0  0
  -28.9620  -17.7270   16.3980 C   0  0  0  0  0  1  0  0  0  0  0  0
  -29.1450  -17.0040   17.6120 O   0  0  0  0  0  0  0  0  0  0  0  0
  1 49  1  0
  2  4  1  0
  2  6  1  0
  3  5  1  0
  4  7  1  0
  6  1  1  0
  6  3  1  0
  7  8  1  0
  7  5  1  0
  8 10  1  0
  9 20  2  0
 10 15  1  0
 11 19  1  0
 11 21  1  0
 12 18  1  0
 12 14  1  0
 13 19  1  0
 14 13  1  0
 15 14  2  0
 16 17  1  0
 16 10  2  0
 17 12  2  0
 18 11  1  0
 19  9  1  0
 21 23  2  0
 22 21  1  0
 24 22  1  0
 25 34  2  0
 25 30  1  0
 26 22  1  0
 26 30  1  0
 27 26  1  0
 28 29  1  0
 28 27  1  0
 29 25  1  0
 30 31  2  0
 31 32  1  0
 33 32  2  0
 34 33  1  0
 35  9  1  0
 35 36  1  0
 35 45  1  0
 36 39  1  0
 37 41  1  0
 37 36  1  0
 38 37  2  0
 41 40  1  0
 43 41  1  0
 43 44  1  0
 43 42  1  0
 45 48  1  1
 45 46  1  0
 47 45  1  0
 50 49  1  0
 51 55  1  0
 52 51  2  0
 53 55  2  0
 54 53  1  0
 55 50  1  0
 56 52  1  0
 56 54  2  0
 57 63  1  0
 57 64  2  0
 58 63  1  0
 59 60  1  0
 59 58  1  0
 61 60  1  0
 61 70  1  0
 61 62  1  0
 63 62  1  0
 65 66  1  0
 66 54  1  0
 66 57  1  0
 67 68  2  0
 68 87  1  0
 69 68  1  0
 69 72  1  0
 70 67  1  0
 70 71  1  0
 71 69  2  0
 72 73  1  0
 73 74  2  0
 75 78  1  0
 75 74  1  0
 76 75  2  0
 77 76  1  0
 77 72  2  0
 78 79  1  0
 79 80  1  0
 80 81  2  0
 82 81  1  0
 82 86  1  0
 83 82  2  0
 84 79  2  0
 84 83  1  0
 85 84  1  0
 87 88  1  0
 88 91  1  0
 88 90  1  0
 89 87  2  0
 92 93  1  0
 92 67  1  0
 94 92  1  0
 95 96  1  0
 96 56  1  0
M  ISO  4   7 101   8 101  57 100  66 100
M  END
>  <TORSDO>  (76) 
F 21

>  <SCORE>  (76) 
-9.630

>  <name>  (76) 
76

>  <ligand_id>  (76) 
76

>  <original_smiles>  (76) 
[H]c1c([H])c([H])c2c(c1[H])C([H])([H])C([H])([H])C([H])([H])C2([H])N([H])C(=O)C1([H])N(C(=O)C([H])(N([H])C(=O)C([H])(N([H])C([H])([H])[H])C([H])([H])[H])C(C([H])([H])[H])(C([H])([H])[H])C([H])([H])[H])C([H])([H])c2c([H])c(OC3([H])C([H])([H])C([H])([H])C([H])(C([H])([H])C([H])([H])Oc4c([H])c([H])c(OC([H])([H])[H])c(N(C(=O)N5C([H])([H])C([H])([H])C([H])([H])C([H])(n6nc(-c7c([H])c([H])c(Oc8c([H])c([H])c(F)c([H])c8F)c([H])c7[H])c(C(=O)N([H])[H])c6N([H])[H])C5([H])[H])C([H])([H])[H])c4[H])C([H])([H])C3([H])[H])c([H])c([H])c2C1([H])[H]

>  <smiles>  (76) 
[H]c1c([H])c([H])c2c(c1[H])C([H])([H])C([H])([H])C([H])([H])C2([H])N([H])C(=O)C1([H])N(C(=O)C([H])(N([H])C(=O)C([H])(N([H])C([H])([H])[H])C([H])([H])[H])C(C([H])([H])[H])(C([H])([H])[H])C([H])([H])[H])C([H])([H])c2c([H])c(OC3([H])C([H])([H])C([H])([H])C([H])(C([H])([H])C([H])([H])Oc4c([H])c([H])c(OC([H])([H])[H])c(N(C(=O)N5C([H])([H])C([H])([H])C([H])([H])C([H])(n6nc(-c7c([H])c([H])c(Oc8c([H])c([H])c(F)c([H])c8F)c([H])c7[H])c(C(=O)N([H])[H])c6N([H])[H])C5([H])[H])C([H])([H])[H])c4[H])C([H])([H])C3([H])[H])c([H])c([H])c2C1([H])[H]

$$$$
77:0:0
     RDKit          3D

 98107  0  0  1  0  0  0  0  0999 V2000
  -29.6260  -20.2110   19.5630 C   0  0  0  0  0  3  0  0  0  0  0  0
  -29.9180  -18.7560   21.8350 C   0  0  0  0  0  3  0  0  0  0  0  0
  -29.8970  -18.7760   19.4840 C   0  0  0  0  0  0  0  0  0  0  0  0
  -30.0640  -17.9490   20.6600 C   0  0  0  0  0  0  0  0  0  0  0  0
  -29.4650  -20.9130   20.7940 C   0  0  0  0  0  0  0  0  0  0  0  0
  -29.6370  -20.1190   21.8970 N   0  0  0  0  0  0  0  0  0  0  0  0
  -29.0550  -22.3200   21.0330 N   0  0  0  0  0  0  0  0  0  0  0  0
  -28.8900  -22.4870   22.0210 H   0  0  0  0  0  0  0  0  0  0  0  0
  -30.9150  -15.3330   20.4040 C   0  0  0  0  0  0  0  0  0  0  0  0
  -30.8710  -13.0410   19.3240 C   0  0  0  0  0  2  0  0  0  0  0  0
  -29.9290  -13.0740   18.0970 C   0  0  0  0  0  2  0  0  0  0  0  0
  -28.4700  -12.8120   18.5160 C   0  0  0  0  0  2  0  0  0  0  0  0
  -28.0540  -13.6450   19.7560 C   0  0  0  0  0  3  0  0  0  0  0  0
  -29.1140  -13.5770   20.8770 C   0  0  0  0  0  2  0  0  0  0  0  0
  -30.3810  -14.0510   20.3010 N   0  0  0  0  0  0  0  0  0  0  0  0
  -32.0990  -15.4940   20.0930 O   0  0  0  0  0  0  0  0  0  0  0  0
  -30.0450  -16.4130   20.6980 N   0  0  0  0  0  0  0  0  0  0  0  0
  -29.1420  -16.0510   20.9700 H   0  0  0  0  0  0  0  0  0  0  0  0
  -25.6460  -14.1310   20.4820 C   0  0  0  0  0  0  0  0  0  0  0  0
  -24.6070  -13.3140   20.8300 C   0  0  0  0  0  0  0  0  0  0  0  0
  -25.1160  -11.9800   20.7760 C   0  0  0  0  0  0  0  0  0  0  0  0
  -26.7210  -13.2930   20.2340 N   0  0  0  0  0  0  0  0  0  0  0  0
  -26.4110  -11.9930   20.4760 N   0  0  0  0  0  0  0  0  0  0  0  0
  -24.4300  -10.6920   20.9370 C   0  0  0  0  0  0  0  0  0  0  0  0
  -24.8020   -9.7770   21.9480 C   0  0  0  0  0  3  0  0  0  0  0  0
  -24.1130   -8.5530   22.0930 C   0  0  0  0  0  3  0  0  0  0  0  0
  -23.0400   -8.2350   21.2260 C   0  0  0  0  0  0  0  0  0  0  0  0
  -22.6900   -9.1380   20.2090 C   0  0  0  0  0  3  0  0  0  0  0  0
  -23.3790  -10.3540   20.0620 C   0  0  0  0  0  3  0  0  0  0  0  0
  -22.3310   -7.0590   21.2770 O   0  0  0  0  0  0  0  0  0  0  0  0
  -22.0750   -6.4230   22.4670 C   0  0  0  0  0  0  0  0  0  0  0  0
  -21.3880   -7.0650   23.5200 C   0  0  0  0  0  3  0  0  0  0  0  0
  -21.0840   -6.3520   24.6990 C   0  0  0  0  0  3  0  0  0  0  0  0
  -21.4560   -5.0000   24.8210 C   0  0  0  0  0  0  0  0  0  0  0  0
  -22.1360   -4.3590   23.7700 C   0  0  0  0  0  3  0  0  0  0  0  0
  -22.4410   -5.0690   22.5940 C   0  0  0  0  0  0  0  0  0  0  0  0
  -23.0770   -4.4400   21.5780 F   0  0  0  0  0  0  0  0  0  0  0  0
  -21.1590   -4.3140   25.9480 F   0  0  0  0  0  0  0  0  0  0  0  0
  -23.1930  -13.7390   21.0980 C   0  0  0  0  0  0  0  0  0  0  0  0
  -22.4890  -13.0190   21.9650 N   0  0  0  0  0  0  0  0  0  0  0  0
  -22.7180  -14.7460   20.5740 O   0  0  0  0  0  0  0  0  0  0  0  0
  -22.8870  -12.2060   22.4100 H   0  0  0  0  0  0  0  0  0  0  0  0
  -21.5410  -13.2870   22.1870 H   0  0  0  0  0  0  0  0  0  0  0  0
  -25.7630  -15.5100   20.3350 N   0  0  0  0  0  0  0  0  0  0  0  0
  -24.9660  -16.1280   20.4450 H   0  0  0  0  0  0  0  0  0  0  0  0
  -26.5870  -15.9860   19.9950 H   0  0  0  0  0  0  0  0  0  0  0  0
  -28.6950  -18.5530   17.2390 C   0  0  0  0  0  2  0  0  0  0  0  0
  -30.6130  -18.5290   15.7840 C   0  0  0  0  0  2  0  0  0  0  0  0
  -29.8810  -18.1170   18.1050 C   0  0  0  0  0  3  0  0  0  0  0  0
  -31.1410  -18.3560   17.2320 C   0  0  0  0  0  3  0  0  0  0  0  0
  -29.1200  -18.1780   15.8200 C   0  0  0  0  0  3  0  0  0  0  0  0
  -28.2900  -18.8650   14.7260 C   0  0  0  0  0  1  0  0  0  0  0  0
  -32.1520  -17.2080   17.3770 C   0  0  0  0  0  0  0  0  0  0  0  0
  -31.9460  -16.1270   16.7880 O   0  0  0  0  0  0  0  0  0  0  0  0
  -33.1710  -17.4070   18.0690 O   0  0  0  0  0  1  0  0  0  0  0  0
  -29.1090  -23.6710   20.2580 C   0  0  0  0  0  3  0  0  0  0  0  0
  -28.3240  -25.0580   20.8280 C   0  0  0  0  0  3  0  0  0  0  0  0
  -28.5280  -26.5510   20.4350 O   0  0  0  0  0  0  0  0  0  0  0  0
  -24.7790  -32.1040   23.5410 C   0  0  0  0  0  0  0  0  0  0  0  0
  -27.4520  -27.5080   20.4350 C   0  0  0  0  0  0  0  0  0  0  0  0
  -23.6280  -30.7660   21.8210 C   0  0  0  0  0  3  0  0  0  0  0  0
  -25.1190  -29.2370   20.3900 C   0  0  0  0  0  0  0  0  0  0  0  0
  -26.1830  -31.0410   21.7370 C   0  0  0  0  0  2  0  0  0  0  0  0
  -26.2790  -29.6710   21.0440 C   0  0  0  0  0  0  0  0  0  0  0  0
  -27.4490  -28.8250   21.0460 C   0  0  0  0  0  3  0  0  0  0  0  0
  -26.2670  -27.1690   19.7490 C   0  0  0  0  0  3  0  0  0  0  0  0
  -25.1260  -28.0000   19.7260 C   0  0  0  0  0  3  0  0  0  0  0  0
  -23.8890  -30.1330   20.4280 C   0  0  0  0  0  2  0  0  0  0  0  0
  -24.8820  -31.3230   22.4230 N   0  0  0  0  0  0  0  0  0  0  0  0
  -23.6790  -32.3710   24.0480 O   0  0  0  0  0  0  0  0  0  0  0  0
  -22.9210  -29.7290   22.7270 C   0  0  0  0  0  0  0  0  0  0  0  0
  -21.6030  -29.5420   22.5360 N   0  0  0  0  0  0  0  0  0  0  0  0
  -23.5630  -29.0930   23.5680 O   0  0  0  0  0  0  0  0  0  0  0  0
  -21.1410  -30.1060   21.8360 H   0  0  0  0  0  0  0  0  0  0  0  0
  -18.2200  -28.2890   22.8600 C   0  0  0  0  0  0  0  0  0  0  0  0
  -20.7610  -28.5770   23.2470 C   0  0  0  0  0  3  0  0  0  0  0  0
  -20.9070  -27.1610   22.6440 C   0  0  0  0  0  2  0  0  0  0  0  0
  -19.8570  -26.8490   21.5740 C   0  0  0  0  0  2  0  0  0  0  0  0
  -18.4460  -26.9600   22.1570 C   0  0  0  0  0  2  0  0  0  0  0  0
  -19.3080  -29.0550   23.3570 C   0  0  0  0  0  0  0  0  0  0  0  0
  -19.0440  -30.2980   23.9710 C   0  0  0  0  0  3  0  0  0  0  0  0
  -17.7260  -30.7780   24.0920 C   0  0  0  0  0  3  0  0  0  0  0  0
  -16.6520  -30.0090   23.6090 C   0  0  0  0  0  3  0  0  0  0  0  0
  -16.9000  -28.7650   23.0010 C   0  0  0  0  0  3  0  0  0  0  0  0
  -26.0390  -32.7160   24.2270 C   0  0  0  0  0  3  0  0  0  0  0  0
  -26.5230  -31.8910   25.4840 C   0  0  1  0  0  0  0  0  0  0  0  0
  -25.3860  -31.5330   26.4690 C   0  0  0  0  0  1  0  0  0  0  0  0
  -27.1980  -30.5710   25.0470 C   0  0  0  0  0  1  0  0  0  0  0  0
  -27.5910  -32.6970   26.2590 C   0  0  0  0  0  1  0  0  0  0  0  0
  -25.7100  -34.0960   24.6170 N   0  0  0  0  0  0  0  0  0  0  0  0
  -26.0500  -35.1890   23.9210 C   0  0  0  0  0  0  0  0  0  0  0  0
  -26.7400  -35.1410   22.8980 O   0  0  0  0  0  0  0  0  0  0  0  0
  -25.1000  -34.2080   25.4140 H   0  0  0  0  0  0  0  0  0  0  0  0
  -24.3150  -36.9890   23.6310 C   0  0  0  0  0  1  0  0  0  0  0  0
  -25.5490  -36.5510   24.4380 C   0  0  0  0  0  3  0  0  0  0  0  0
  -27.6730  -37.4020   25.3290 C   0  0  0  0  0  1  0  0  0  0  0  0
  -26.5750  -37.6160   24.3900 N   0  0  0  0  0  0  0  0  0  0  0  0
  -26.1620  -38.5240   24.5860 H   0  0  0  0  0  0  0  0  0  0  0  0
  1  5  1  0
  2  6  1  0
  3  1  2  0
  3  4  1  0
  4 17  1  0
  4  2  2  0
  5  7  1  0
  5  6  2  0
  7  8  1  0
  9 17  1  0
 10 15  1  0
 11 12  1  0
 11 10  1  0
 13 12  1  0
 13 22  1  0
 13 14  1  0
 15  9  1  0
 15 14  1  0
 16  9  2  0
 17 18  1  0
 19 20  2  0
 20 39  1  0
 21 20  1  0
 21 24  1  0
 22 23  1  0
 22 19  1  0
 23 21  2  0
 24 25  1  0
 25 26  2  0
 27 30  1  0
 27 26  1  0
 28 27  2  0
 29 28  1  0
 29 24  2  0
 30 31  1  0
 31 36  2  0
 31 32  1  0
 32 33  2  0
 33 34  1  0
 34 38  1  0
 35 34  2  0
 36 35  1  0
 37 36  1  0
 39 40  1  0
 40 43  1  0
 40 42  1  0
 41 39  2  0
 44 45  1  0
 44 19  1  0
 46 44  1  0
 47 49  1  0
 48 51  1  0
 48 50  1  0
 49  3  1  0
 50 53  1  0
 50 49  1  0
 51 52  1  0
 51 47  1  0
 53 55  1  0
 54 53  2  0
 56 57  2  0
 56  7  1  0
 58 57  1  0
 59 70  2  0
 60 58  1  0
 60 65  1  0
 61 69  1  0
 61 71  1  0
 62 68  1  0
 62 64  1  0
 63 69  1  0
 64 65  2  0
 64 63  1  0
 66 60  2  0
 67 66  1  0
 67 62  2  0
 68 61  1  0
 69 59  1  0
 71 73  2  0
 72 71  1  0
 74 72  1  0
 75 84  2  0
 75 80  1  0
 76 72  1  0
 76 80  1  0
 77 76  1  0
 78 79  1  0
 78 77  1  0
 79 75  1  0
 80 81  2  0
 81 82  1  0
 83 82  2  0
 84 83  1  0
 85 59  1  0
 85 90  1  0
 85 86  1  0
 86 89  1  1
 86 87  1  0
 88 86  1  0
 90 93  1  0
 91 95  1  0
 91 90  1  0
 92 91  2  0
 95 94  1  0
 97 95  1  0
 97 98  1  0
 97 96  1  0
M  ISO  4   9 100  17 100  57 101  58 101
M  END
>  <TORSDO>  (77) 
F 20

>  <SCORE>  (77) 
-11.774

>  <name>  (77) 
77

>  <ligand_id>  (77) 
77

>  <original_smiles>  (77) 
[H]c1nc(N([H])C([H])([H])C([H])([H])Oc2c([H])c([H])c3c(c2[H])C([H])([H])N(C(=O)C([H])(N([H])C(=O)C([H])(N([H])C([H])([H])[H])C([H])([H])[H])C(C([H])([H])[H])(C([H])([H])[H])C([H])([H])[H])C([H])(C(=O)N([H])C2([H])c4c([H])c([H])c([H])c([H])c4C([H])([H])C([H])([H])C2([H])[H])C3([H])[H])c([H])c(C2([H])C([H])([H])C([H])(C([H])([H])[H])C([H])([H])C2([H])C(=O)[O-])c1N([H])C(=O)N1C([H])([H])C([H])([H])C([H])([H])C([H])(n2nc(-c3c([H])c([H])c(Oc4c([H])c([H])c(F)c([H])c4F)c([H])c3[H])c(C(=O)N([H])[H])c2N([H])[H])C1([H])[H]

>  <smiles>  (77) 
[H]c1nc(N([H])C([H])([H])C([H])([H])Oc2c([H])c([H])c3c(c2[H])C([H])([H])N(C(=O)C([H])(N([H])C(=O)C([H])(N([H])C([H])([H])[H])C([H])([H])[H])C(C([H])([H])[H])(C([H])([H])[H])C([H])([H])[H])C([H])(C(=O)N([H])C2([H])c4c([H])c([H])c([H])c([H])c4C([H])([H])C([H])([H])C2([H])[H])C3([H])[H])c([H])c(C2([H])C([H])([H])C([H])(C([H])([H])[H])C([H])([H])C2([H])C(=O)[O-])c1N([H])C(=O)N1C([H])([H])C([H])([H])C([H])([H])C([H])(n2nc(-c3c([H])c([H])c(Oc4c([H])c([H])c(F)c([H])c4F)c([H])c3[H])c(C(=O)N([H])[H])c2N([H])[H])C1([H])[H]

$$$$
78:0:0
     RDKit          3D

 95105  0  0  1  0  0  0  0  0999 V2000
  -28.3480  -22.2960   21.1350 C   0  0  0  0  0  3  0  0  0  0  0  0
  -28.0920  -23.7420   21.1750 C   0  0  0  0  0  3  0  0  0  0  0  0
  -28.8290  -21.5430   20.0010 C   0  0  0  0  0  0  0  0  0  0  0  0
  -28.7750  -23.9580   18.9380 C   0  0  0  0  0  0  0  0  0  0  0  0
  -28.9910  -22.4810   18.8880 C   0  0  0  0  0  0  0  0  0  0  0  0
  -28.2780  -24.6880   20.0960 C   0  0  0  0  0  0  0  0  0  0  0  0
  -30.5550  -15.1600   20.2330 C   0  0  0  0  0  0  0  0  0  0  0  0
  -30.3740  -12.7840   19.3220 C   0  0  0  0  0  2  0  0  0  0  0  0
  -29.4400  -12.6530   18.1000 C   0  0  0  0  0  2  0  0  0  0  0  0
  -27.9950  -12.4110   18.5650 C   0  0  0  0  0  2  0  0  0  0  0  0
  -27.5780  -13.3620   19.7160 C   0  0  0  0  0  3  0  0  0  0  0  0
  -28.6470  -13.4840   20.8220 C   0  0  0  0  0  2  0  0  0  0  0  0
  -29.8800  -13.9290   20.1600 N   0  0  0  0  0  0  0  0  0  0  0  0
  -31.7720  -15.0630   20.0260 O   0  0  0  0  0  0  0  0  0  0  0  0
  -30.4780  -19.2530   20.5830 C   0  0  0  0  0  2  0  0  0  0  0  0
  -28.2090  -18.6770   20.4140 C   0  0  0  0  0  2  0  0  0  0  0  0
  -30.9170  -17.7220   20.2270 C   0  0  0  0  0  2  0  0  0  0  0  0
  -28.5890  -17.0800   20.1570 C   0  0  0  0  0  2  0  0  0  0  0  0
  -29.1740  -19.8630   19.9360 C   0  0  0  0  0  3  0  0  0  0  0  0
  -29.9920  -16.5110   20.3310 N   0  0  0  0  0  0  0  0  0  0  0  0
  -25.2180  -13.9030   20.5190 C   0  0  0  0  0  0  0  0  0  0  0  0
  -24.1660  -13.1150   20.8950 C   0  0  0  0  0  0  0  0  0  0  0  0
  -24.6410  -11.7680   20.8380 C   0  0  0  0  0  0  0  0  0  0  0  0
  -26.2610  -13.0380   20.2470 N   0  0  0  0  0  0  0  0  0  0  0  0
  -25.9270  -11.7460   20.5070 N   0  0  0  0  0  0  0  0  0  0  0  0
  -23.9240  -10.4980   21.0200 C   0  0  0  0  0  0  0  0  0  0  0  0
  -24.3500   -9.5350   21.9600 C   0  0  0  0  0  3  0  0  0  0  0  0
  -23.6290   -8.3340   22.1310 C   0  0  0  0  0  3  0  0  0  0  0  0
  -22.4680   -8.0860   21.3600 C   0  0  0  0  0  0  0  0  0  0  0  0
  -22.0620   -9.0370   20.4080 C   0  0  0  0  0  3  0  0  0  0  0  0
  -22.7840  -10.2300   20.2360 C   0  0  0  0  0  3  0  0  0  0  0  0
  -21.7200   -6.9370   21.4400 O   0  0  0  0  0  0  0  0  0  0  0  0
  -21.6270   -6.2170   22.6050 C   0  0  0  0  0  0  0  0  0  0  0  0
  -21.1060   -6.7820   23.7890 C   0  0  0  0  0  3  0  0  0  0  0  0
  -20.9630   -5.9880   24.9440 C   0  0  0  0  0  3  0  0  0  0  0  0
  -21.3320   -4.6290   24.9150 C   0  0  0  0  0  0  0  0  0  0  0  0
  -21.8470   -4.0650   23.7350 C   0  0  0  0  0  3  0  0  0  0  0  0
  -21.9910   -4.8560   22.5830 C   0  0  0  0  0  0  0  0  0  0  0  0
  -22.4670   -4.3010   21.4420 F   0  0  0  0  0  0  0  0  0  0  0  0
  -21.1890   -3.8640   26.0230 F   0  0  0  0  0  0  0  0  0  0  0  0
  -22.7710  -13.5810   21.1890 C   0  0  0  0  0  0  0  0  0  0  0  0
  -22.0590  -12.8720   22.0570 N   0  0  0  0  0  0  0  0  0  0  0  0
  -22.3220  -14.6100   20.6860 O   0  0  0  0  0  0  0  0  0  0  0  0
  -22.4390  -12.0400   22.4860 H   0  0  0  0  0  0  0  0  0  0  0  0
  -21.1240  -13.1670   22.3000 H   0  0  0  0  0  0  0  0  0  0  0  0
  -25.3670  -15.2760   20.3560 N   0  0  0  0  0  0  0  0  0  0  0  0
  -24.5940  -15.9210   20.4890 H   0  0  0  0  0  0  0  0  0  0  0  0
  -26.2010  -15.7270   20.0050 H   0  0  0  0  0  0  0  0  0  0  0  0
  -30.1410  -26.2230   16.4690 C   0  0  0  0  0  2  0  0  0  0  0  0
  -29.1240  -26.3400   17.6010 C   0  0  0  0  0  2  0  0  0  0  0  0
  -30.5100  -24.8690   17.0730 C   0  0  0  0  0  2  0  0  0  0  0  0
  -29.0880  -24.7960   17.6760 C   0  0  0  0  0  3  0  0  0  0  0  0
  -30.8930  -21.4700   17.4770 C   0  0  0  0  0  1  0  0  0  0  0  0
  -29.4040  -21.8520   17.5510 C   0  0  0  0  0  2  0  0  0  0  0  0
  -28.2400  -26.1790   20.2300 O   0  0  0  0  0  0  0  0  0  0  0  0
  -24.6220  -31.9230   23.2340 C   0  0  0  0  0  0  0  0  0  0  0  0
  -27.1570  -27.1490   20.1950 C   0  0  0  0  0  0  0  0  0  0  0  0
  -23.4100  -30.5360   21.5950 C   0  0  0  0  0  3  0  0  0  0  0  0
  -24.8430  -28.9410   20.1630 C   0  0  0  0  0  0  0  0  0  0  0  0
  -25.9660  -30.7730   21.4260 C   0  0  0  0  0  2  0  0  0  0  0  0
  -26.0260  -29.3730   20.7740 C   0  0  0  0  0  0  0  0  0  0  0  0
  -27.1780  -28.4930   20.7710 C   0  0  0  0  0  3  0  0  0  0  0  0
  -25.9510  -26.8280   19.5400 C   0  0  0  0  0  3  0  0  0  0  0  0
  -24.8220  -27.6850   19.5290 C   0  0  0  0  0  3  0  0  0  0  0  0
  -23.6240  -29.8540   20.2150 C   0  0  0  0  0  2  0  0  0  0  0  0
  -24.6860  -31.1020   22.1390 N   0  0  0  0  0  0  0  0  0  0  0  0
  -23.5390  -32.2130   23.7660 O   0  0  0  0  0  0  0  0  0  0  0  0
  -22.7260  -29.5350   22.5610 C   0  0  0  0  0  0  0  0  0  0  0  0
  -21.3990  -29.3620   22.4290 N   0  0  0  0  0  0  0  0  0  0  0  0
  -23.3940  -28.9160   23.3920 O   0  0  0  0  0  0  0  0  0  0  0  0
  -20.9150  -29.9120   21.7340 H   0  0  0  0  0  0  0  0  0  0  0  0
  -18.0180  -28.1560   22.9310 C   0  0  0  0  0  0  0  0  0  0  0  0
  -20.5760  -28.4240   23.2000 C   0  0  0  0  0  3  0  0  0  0  0  0
  -20.6820  -26.9920   22.6280 C   0  0  0  0  0  2  0  0  0  0  0  0
  -19.5820  -26.6660   21.6110 C   0  0  0  0  0  2  0  0  0  0  0  0
  -18.1980  -26.8080   22.2530 C   0  0  0  0  0  2  0  0  0  0  0  0
  -19.1350  -28.9210   23.3610 C   0  0  0  0  0  0  0  0  0  0  0  0
  -18.9100  -30.1820   23.9560 C   0  0  0  0  0  3  0  0  0  0  0  0
  -17.6030  -30.6780   24.1240 C   0  0  0  0  0  3  0  0  0  0  0  0
  -16.5020  -29.9100   23.7080 C   0  0  0  0  0  3  0  0  0  0  0  0
  -16.7100  -28.6510   23.1160 C   0  0  0  0  0  3  0  0  0  0  0  0
  -25.9040  -32.5530   23.8600 C   0  0  0  0  0  3  0  0  0  0  0  0
  -25.5950  -33.9500   24.2070 N   0  0  0  0  0  0  0  0  0  0  0  0
  -25.8950  -35.0120   23.4480 C   0  0  0  0  0  0  0  0  0  0  0  0
  -26.5260  -34.9200   22.3920 O   0  0  0  0  0  0  0  0  0  0  0  0
  -25.0280  -34.0950   25.0300 H   0  0  0  0  0  0  0  0  0  0  0  0
  -24.1370  -36.7970   23.1940 C   0  0  0  0  0  1  0  0  0  0  0  0
  -25.4230  -36.3970   23.9360 C   0  0  0  0  0  3  0  0  0  0  0  0
  -27.5850  -37.3050   24.6630 C   0  0  0  0  0  1  0  0  0  0  0  0
  -26.4390  -37.4600   23.7710 N   0  0  0  0  0  0  0  0  0  0  0  0
  -26.0320  -38.3760   23.9330 H   0  0  0  0  0  0  0  0  0  0  0  0
  -26.4190  -31.7750   25.1350 C   0  0  1  0  0  0  0  0  0  0  0  0
  -25.3260  -31.5330   26.2020 C   0  0  0  0  0  1  0  0  0  0  0  0
  -27.0010  -30.3990   24.7410 C   0  0  0  0  0  1  0  0  0  0  0  0
  -27.5710  -32.5650   25.8010 C   0  0  0  0  0  1  0  0  0  0  0  0
  1  2  1  0
  3  1  2  0
  4  6  1  0
  5  4  2  0
  5  3  1  0
  6 55  1  0
  6  2  2  0
  7 20  1  0
  8 13  1  0
  9 10  1  0
  9  8  1  0
 11 10  1  0
 11 24  1  0
 11 12  1  0
 13  7  1  0
 13 12  1  0
 14  7  2  0
 17 20  1  0
 17 15  1  0
 18 20  1  0
 18 16  1  0
 19  3  1  0
 19 16  1  0
 19 15  1  0
 21 22  2  0
 22 41  1  0
 23 22  1  0
 23 26  1  0
 24 25  1  0
 24 21  1  0
 25 23  2  0
 26 27  1  0
 27 28  2  0
 29 32  1  0
 29 28  1  0
 30 29  2  0
 31 30  1  0
 31 26  2  0
 32 33  1  0
 33 34  1  0
 34 35  2  0
 36 35  1  0
 36 40  1  0
 37 36  2  0
 38 33  2  0
 38 37  1  0
 39 38  1  0
 41 42  1  0
 42 45  1  0
 42 44  1  0
 43 41  2  0
 46 47  1  0
 46 21  1  0
 48 46  1  0
 49 51  1  0
 49 50  1  0
 50 52  1  0
 51 52  1  0
 52  4  1  0
 53 54  1  0
 54  5  1  0
 56 67  2  0
 57 55  1  0
 57 62  1  0
 58 66  1  0
 58 68  1  0
 59 65  1  0
 59 61  1  0
 60 66  1  0
 61 60  1  0
 62 61  2  0
 63 57  2  0
 64 63  1  0
 64 59  2  0
 65 58  1  0
 66 56  1  0
 68 70  2  0
 69 68  1  0
 71 69  1  0
 72 81  2  0
 72 77  1  0
 73 69  1  0
 73 77  1  0
 74 73  1  0
 75 76  1  0
 75 74  1  0
 76 72  1  0
 77 78  2  0
 78 79  1  0
 80 79  2  0
 81 80  1  0
 82 56  1  0
 82 83  1  0
 82 92  1  0
 83 86  1  0
 84 88  1  0
 84 83  1  0
 85 84  2  0
 88 87  1  0
 90 91  1  0
 90 88  1  0
 90 89  1  0
 92 95  1  1
 92 93  1  0
 94 92  1  0
M  ISO  4   6 101   7 100  20 100  55 101
M  END
>  <TORSDO>  (78) 
F 18

>  <SCORE>  (78) 
-15.467

>  <name>  (78) 
78

>  <ligand_id>  (78) 
78

>  <original_smiles>  (78) 
[H]c1c([H])c([H])c2c(c1[H])C([H])([H])C([H])([H])C([H])([H])C2([H])N([H])C(=O)C1([H])N(C(=O)C([H])(N([H])C(=O)C([H])(N([H])C([H])([H])[H])C([H])([H])[H])C(C([H])([H])[H])(C([H])([H])[H])C([H])([H])[H])C([H])([H])c2c([H])c(Oc3c([H])c([H])c(C4([H])C([H])([H])C([H])([H])N(C(=O)N5C([H])([H])C([H])([H])C([H])([H])C([H])(n6nc(-c7c([H])c([H])c(Oc8c([H])c([H])c(F)c([H])c8F)c([H])c7[H])c(C(=O)N([H])[H])c6N([H])[H])C5([H])[H])C([H])([H])C4([H])[H])c(C([H])([H])C([H])([H])[H])c3C3([H])C([H])([H])C([H])([H])C3([H])[H])c([H])c([H])c2C1([H])[H]

>  <smiles>  (78) 
[H]c1c([H])c([H])c2c(c1[H])C([H])([H])C([H])([H])C([H])([H])C2([H])N([H])C(=O)C1([H])N(C(=O)C([H])(N([H])C(=O)C([H])(N([H])C([H])([H])[H])C([H])([H])[H])C(C([H])([H])[H])(C([H])([H])[H])C([H])([H])[H])C([H])([H])c2c([H])c(Oc3c([H])c([H])c(C4([H])C([H])([H])C([H])([H])N(C(=O)N5C([H])([H])C([H])([H])C([H])([H])C([H])(n6nc(-c7c([H])c([H])c(Oc8c([H])c([H])c(F)c([H])c8F)c([H])c7[H])c(C(=O)N([H])[H])c6N([H])[H])C5([H])[H])C([H])([H])C4([H])[H])c(C([H])([H])C([H])([H])[H])c3C3([H])C([H])([H])C([H])([H])C3([H])[H])c([H])c([H])c2C1([H])[H]

$$$$
79:0:0
     RDKit          3D

 93101  0  0  1  0  0  0  0  0999 V2000
  -30.3340  -21.6210   20.2680 C   0  0  0  0  0  2  0  0  0  0  0  0
  -29.7290  -19.2320   19.4420 C   0  0  0  0  0  3  0  0  0  0  0  0
  -30.1810  -20.0630   20.5020 C   0  0  0  0  0  0  0  0  0  0  0  0
  -29.7230  -17.8060   19.5150 C   0  0  0  0  0  0  0  0  0  0  0  0
  -30.6240  -19.3820   21.6770 C   0  0  0  0  0  0  0  0  0  0  0  0
  -30.6290  -17.9430   21.7520 C   0  0  0  0  0  0  0  0  0  0  0  0
  -30.2050  -17.1180   20.6660 C   0  0  0  0  0  0  0  0  0  0  0  0
  -29.1590  -17.0280   18.3390 C   0  0  0  0  0  1  0  0  0  0  0  0
  -31.1110  -20.1770   22.8860 C   0  0  0  0  0  1  0  0  0  0  0  0
  -31.1020  -17.2620   23.0350 C   0  0  0  0  0  1  0  0  0  0  0  0
  -30.0970  -15.7200   20.8340 O   0  0  0  0  0  0  0  0  0  0  0  0
  -30.9550  -14.7200   20.3190 C   0  0  0  0  0  0  0  0  0  0  0  0
  -30.6370  -12.5700   19.0700 C   0  0  0  0  0  2  0  0  0  0  0  0
  -29.6740  -12.8680   17.8990 C   0  0  0  0  0  2  0  0  0  0  0  0
  -28.2030  -12.7290   18.3440 C   0  0  0  0  0  2  0  0  0  0  0  0
  -27.9030  -13.4810   19.6690 C   0  0  0  0  0  3  0  0  0  0  0  0
  -28.9690  -13.1770   20.7400 C   0  0  0  0  0  2  0  0  0  0  0  0
  -30.2870  -13.4820   20.1700 N   0  0  0  0  0  0  0  0  0  0  0  0
  -32.0970  -14.9330   19.9050 O   0  0  0  0  0  0  0  0  0  0  0  0
  -25.5160  -14.0900   20.4000 C   0  0  0  0  0  0  0  0  0  0  0  0
  -24.4480  -13.3200   20.7730 C   0  0  0  0  0  0  0  0  0  0  0  0
  -24.9030  -11.9670   20.7360 C   0  0  0  0  0  0  0  0  0  0  0  0
  -26.5550  -13.2060   20.1560 N   0  0  0  0  0  0  0  0  0  0  0  0
  -26.1910  -11.9230   20.4180 N   0  0  0  0  0  0  0  0  0  0  0  0
  -24.1710  -10.7080   20.9280 C   0  0  0  0  0  0  0  0  0  0  0  0
  -24.5710   -9.7610   21.8970 C   0  0  0  0  0  3  0  0  0  0  0  0
  -23.8400   -8.5670   22.0750 C   0  0  0  0  0  3  0  0  0  0  0  0
  -22.6950   -8.3110   21.2840 C   0  0  0  0  0  0  0  0  0  0  0  0
  -22.3160   -9.2460   20.3040 C   0  0  0  0  0  3  0  0  0  0  0  0
  -23.0480  -10.4320   20.1250 C   0  0  0  0  0  3  0  0  0  0  0  0
  -21.9390   -7.1670   21.3690 O   0  0  0  0  0  0  0  0  0  0  0  0
  -21.7970   -6.4830   22.5490 C   0  0  0  0  0  0  0  0  0  0  0  0
  -21.2800   -7.1010   23.7100 C   0  0  0  0  0  3  0  0  0  0  0  0
  -21.0850   -6.3440   24.8830 C   0  0  0  0  0  3  0  0  0  0  0  0
  -21.3970   -4.9720   24.8950 C   0  0  0  0  0  0  0  0  0  0  0  0
  -21.9060   -4.3540   23.7390 C   0  0  0  0  0  3  0  0  0  0  0  0
  -22.1030   -5.1080   22.5690 C   0  0  0  0  0  0  0  0  0  0  0  0
  -22.5730   -4.5030   21.4520 F   0  0  0  0  0  0  0  0  0  0  0  0
  -21.2020   -4.2420   26.0180 F   0  0  0  0  0  0  0  0  0  0  0  0
  -23.0540  -13.8040   21.0570 C   0  0  0  0  0  0  0  0  0  0  0  0
  -22.3380  -13.1200   21.9430 N   0  0  0  0  0  0  0  0  0  0  0  0
  -22.6110  -14.8220   20.5290 O   0  0  0  0  0  0  0  0  0  0  0  0
  -22.7110  -12.2970   22.3910 H   0  0  0  0  0  0  0  0  0  0  0  0
  -21.4040  -13.4250   22.1760 H   0  0  0  0  0  0  0  0  0  0  0  0
  -25.6870  -15.4610   20.2290 N   0  0  0  0  0  0  0  0  0  0  0  0
  -24.9300  -16.1230   20.3570 H   0  0  0  0  0  0  0  0  0  0  0  0
  -26.5520  -15.8980   19.9370 H   0  0  0  0  0  0  0  0  0  0  0  0
  -29.1700  -22.5660   20.4780 N   0  0  0  0  0  4  0  0  0  0  0  0
  -28.7510  -22.3530   21.3690 H   0  0  0  0  0  0  0  0  0  0  0  0
  -28.4860  -22.3460   19.7720 H   0  0  0  0  0  0  0  0  0  0  0  0
  -29.4860  -24.0630   20.4280 C   0  0  0  0  0  3  0  0  0  0  0  0
  -28.2610  -25.0520   20.2120 C   0  0  0  0  0  3  0  0  0  0  0  0
  -28.4770  -26.5190   20.2570 O   0  0  0  0  0  0  0  0  0  0  0  0
  -24.6700  -31.8940   23.2020 C   0  0  0  0  0  0  0  0  0  0  0  0
  -27.3460  -27.3490   20.1910 C   0  0  0  0  0  0  0  0  0  0  0  0
  -23.4890  -30.4750   21.5640 C   0  0  0  0  0  3  0  0  0  0  0  0
  -24.9610  -28.9330   20.1580 C   0  0  0  0  0  0  0  0  0  0  0  0
  -26.0260  -30.8190   21.3930 C   0  0  0  0  0  2  0  0  0  0  0  0
  -26.1220  -29.4390   20.7560 C   0  0  0  0  0  0  0  0  0  0  0  0
  -27.3170  -28.6600   20.7600 C   0  0  0  0  0  3  0  0  0  0  0  0
  -26.1560  -26.8960   19.5710 C   0  0  0  0  0  3  0  0  0  0  0  0
  -24.9800  -27.6670   19.5590 C   0  0  0  0  0  3  0  0  0  0  0  0
  -23.7160  -29.7940   20.1900 C   0  0  0  0  0  2  0  0  0  0  0  0
  -24.7470  -31.0800   22.1100 N   0  0  0  0  0  0  0  0  0  0  0  0
  -23.5820  -32.1670   23.7280 O   0  0  0  0  0  0  0  0  0  0  0  0
  -22.8290  -29.4580   22.5260 C   0  0  0  0  0  0  0  0  0  0  0  0
  -21.5120  -29.2470   22.3720 N   0  0  0  0  0  0  0  0  0  0  0  0
  -23.5040  -28.8610   23.3690 O   0  0  0  0  0  0  0  0  0  0  0  0
  -21.0250  -29.7810   21.6650 H   0  0  0  0  0  0  0  0  0  0  0  0
  -18.1600  -27.9560   22.7890 C   0  0  0  0  0  0  0  0  0  0  0  0
  -20.6960  -28.3050   23.1410 C   0  0  0  0  0  3  0  0  0  0  0  0
  -20.8650  -26.8620   22.6110 C   0  0  0  0  0  2  0  0  0  0  0  0
  -19.8100  -26.4750   21.5690 C   0  0  0  0  0  2  0  0  0  0  0  0
  -18.4020  -26.5940   22.1590 C   0  0  0  0  0  2  0  0  0  0  0  0
  -19.2380  -28.7660   23.2360 C   0  0  0  0  0  0  0  0  0  0  0  0
  -18.9580  -30.0370   23.7830 C   0  0  0  0  0  3  0  0  0  0  0  0
  -17.6330  -30.5000   23.8890 C   0  0  0  0  0  3  0  0  0  0  0  0
  -16.5680  -29.6880   23.4590 C   0  0  0  0  0  3  0  0  0  0  0  0
  -16.8320  -28.4190   22.9150 C   0  0  0  0  0  3  0  0  0  0  0  0
  -25.9440  -32.5420   23.8290 C   0  0  0  0  0  3  0  0  0  0  0  0
  -25.6140  -33.9340   24.1650 N   0  0  0  0  0  0  0  0  0  0  0  0
  -25.9430  -34.9960   23.4180 C   0  0  0  0  0  0  0  0  0  0  0  0
  -26.6250  -34.9070   22.3930 O   0  0  0  0  0  0  0  0  0  0  0  0
  -25.0090  -34.0740   24.9600 H   0  0  0  0  0  0  0  0  0  0  0  0
  -24.2030  -36.7750   23.0550 C   0  0  0  0  0  1  0  0  0  0  0  0
  -25.4360  -36.3750   23.8810 C   0  0  0  0  0  3  0  0  0  0  0  0
  -27.5510  -37.2710   24.7500 C   0  0  0  0  0  1  0  0  0  0  0  0
  -26.4600  -37.4390   23.7940 N   0  0  0  0  0  0  0  0  0  0  0  0
  -26.0430  -38.3530   23.9450 H   0  0  0  0  0  0  0  0  0  0  0  0
  -26.4700  -31.7710   25.1010 C   0  0  1  0  0  0  0  0  0  0  0  0
  -25.3790  -31.5120   26.1660 C   0  0  0  0  0  1  0  0  0  0  0  0
  -27.0720  -30.4020   24.7020 C   0  0  0  0  0  1  0  0  0  0  0  0
  -27.6080  -32.5770   25.7690 C   0  0  0  0  0  1  0  0  0  0  0  0
  1 48  1  0
  1  3  1  0
  2  4  2  0
  2  3  1  0
  3  5  2  0
  4  7  1  0
  5  6  1  0
  5  9  1  0
  6 10  1  0
  7 11  1  0
  7  6  2  0
  8  4  1  0
 12 11  1  0
 13 18  1  0
 14 15  1  0
 14 13  1  0
 16 15  1  0
 16 23  1  0
 16 17  1  0
 18 12  1  0
 18 17  1  0
 19 12  2  0
 20 21  2  0
 21 40  1  0
 22 21  1  0
 22 25  1  0
 23 20  1  0
 23 24  1  0
 24 22  2  0
 25 26  1  0
 26 27  2  0
 28 31  1  0
 28 27  1  0
 29 28  2  0
 30 29  1  0
 30 25  2  0
 31 32  1  0
 32 37  2  0
 32 33  1  0
 33 34  2  0
 34 35  1  0
 35 39  1  0
 36 35  2  0
 37 36  1  0
 38 37  1  0
 40 41  1  0
 41 44  1  0
 41 43  1  0
 42 40  2  0
 45 46  1  0
 45 20  1  0
 47 45  1  0
 48 49  1  0
 50 48  1  0
 51 48  1  0
 52 53  1  0
 52 51  2  0
 54 65  2  0
 55 53  1  0
 55 60  1  0
 56 64  1  0
 56 66  1  0
 57 63  1  0
 57 59  1  0
 58 64  1  0
 59 60  2  0
 59 58  1  0
 61 55  2  0
 62 61  1  0
 62 57  2  0
 63 56  1  0
 64 54  1  0
 66 68  2  0
 67 66  1  0
 69 67  1  0
 70 79  2  0
 70 75  1  0
 71 67  1  0
 71 75  1  0
 72 71  1  0
 73 74  1  0
 73 72  1  0
 74 70  1  0
 75 76  2  0
 76 77  1  0
 78 77  2  0
 79 78  1  0
 80 54  1  0
 80 81  1  0
 80 90  1  0
 81 84  1  0
 82 86  1  0
 82 81  1  0
 83 82  2  0
 86 85  1  0
 88 86  1  0
 88 89  1  0
 88 87  1  0
 90 93  1  1
 90 91  1  0
 92 90  1  0
M  ISO  4  11 100  12 100  52 101  53 101
M  END
>  <TORSDO>  (79) 
F 21

>  <SCORE>  (79) 
-12.776

>  <name>  (79) 
79

>  <ligand_id>  (79) 
79

>  <original_smiles>  (79) 
[H]c1c([H])c([H])c2c(c1[H])C([H])([H])C([H])([H])C([H])([H])C2([H])N([H])C(=O)C1([H])N(C(=O)C([H])(N([H])C(=O)C([H])(N([H])C([H])([H])[H])C([H])([H])[H])C(C([H])([H])[H])(C([H])([H])[H])C([H])([H])[H])C([H])([H])c2c([H])c(OC([H])([H])C([H])([H])[N+]([H])([H])C([H])([H])c3c([H])c(C([H])([H])[H])c(OC(=O)N4C([H])([H])C([H])([H])C([H])([H])C([H])(n5nc(-c6c([H])c([H])c(Oc7c([H])c([H])c(F)c([H])c7F)c([H])c6[H])c(C(=O)N([H])[H])c5N([H])[H])C4([H])[H])c(C([H])([H])[H])c3C([H])([H])[H])c([H])c([H])c2C1([H])[H]

>  <smiles>  (79) 
[H]c1c([H])c([H])c2c(c1[H])C([H])([H])C([H])([H])C([H])([H])C2([H])N([H])C(=O)C1([H])N(C(=O)C([H])(N([H])C(=O)C([H])(N([H])C([H])([H])[H])C([H])([H])[H])C(C([H])([H])[H])(C([H])([H])[H])C([H])([H])[H])C([H])([H])c2c([H])c(OC([H])([H])C([H])([H])[N+]([H])([H])C([H])([H])c3c([H])c(C([H])([H])[H])c(OC(=O)N4C([H])([H])C([H])([H])C([H])([H])C([H])(n5nc(-c6c([H])c([H])c(Oc7c([H])c([H])c(F)c([H])c7F)c([H])c6[H])c(C(=O)N([H])[H])c5N([H])[H])C4([H])[H])c(C([H])([H])[H])c3C([H])([H])[H])c([H])c([H])c2C1([H])[H]

$$$$
80:0:0
     RDKit          3D

 94102  0  0  1  0  0  0  0  0999 V2000
  -29.9950  -23.6000   20.3540 C   0  0  0  0  0  3  0  0  0  0  0  0
  -27.7300  -22.8330   20.1780 C   0  0  0  0  0  3  0  0  0  0  0  0
  -28.6210  -23.9120   20.4120 C   0  0  0  0  0  0  0  0  0  0  0  0
  -30.4610  -22.2750   20.1020 C   0  0  0  0  0  0  0  0  0  0  0  0
  -28.1740  -21.5000   19.9150 C   0  0  0  0  0  0  0  0  0  0  0  0
  -29.5640  -21.1730   19.9010 C   0  0  0  0  0  0  0  0  0  0  0  0
  -31.9700  -22.0810   20.0460 C   0  0  0  0  0  1  0  0  0  0  0  0
  -27.1140  -20.4460   19.6410 C   0  0  0  0  0  1  0  0  0  0  0  0
  -28.0910  -25.2980   20.9120 C   0  0  0  0  0  2  0  0  0  0  0  0
  -28.3370  -26.5350   20.1560 O   0  0  0  0  0  0  0  0  0  0  0  0
  -24.6010  -31.8680   23.2350 C   0  0  0  0  0  0  0  0  0  0  0  0
  -27.2420  -27.3980   20.1250 C   0  0  0  0  0  0  0  0  0  0  0  0
  -23.4070  -30.4900   21.5700 C   0  0  0  0  0  3  0  0  0  0  0  0
  -24.8690  -28.9680   20.1270 C   0  0  0  0  0  0  0  0  0  0  0  0
  -25.9420  -30.8320   21.3960 C   0  0  0  0  0  2  0  0  0  0  0  0
  -26.0320  -29.4650   20.7320 C   0  0  0  0  0  0  0  0  0  0  0  0
  -27.2270  -28.6910   20.7220 C   0  0  0  0  0  3  0  0  0  0  0  0
  -26.0650  -26.9440   19.4970 C   0  0  0  0  0  3  0  0  0  0  0  0
  -24.8860  -27.7110   19.5020 C   0  0  0  0  0  3  0  0  0  0  0  0
  -23.6250  -29.8310   20.1820 C   0  0  0  0  0  2  0  0  0  0  0  0
  -24.6680  -31.0790   22.1250 N   0  0  0  0  0  0  0  0  0  0  0  0
  -23.5160  -32.1350   23.7710 O   0  0  0  0  0  0  0  0  0  0  0  0
  -22.7440  -29.4580   22.5140 C   0  0  0  0  0  0  0  0  0  0  0  0
  -21.4180  -29.2910   22.3880 N   0  0  0  0  0  0  0  0  0  0  0  0
  -23.4240  -28.8130   23.3170 O   0  0  0  0  0  0  0  0  0  0  0  0
  -20.9310  -29.8630   21.7120 H   0  0  0  0  0  0  0  0  0  0  0  0
  -18.0320  -28.1240   22.8920 C   0  0  0  0  0  0  0  0  0  0  0  0
  -20.5960  -28.3450   23.1430 C   0  0  0  0  0  3  0  0  0  0  0  0
  -20.6740  -26.9270   22.5310 C   0  0  0  0  0  2  0  0  0  0  0  0
  -19.5580  -26.6420   21.5220 C   0  0  0  0  0  2  0  0  0  0  0  0
  -18.1840  -26.7900   22.1830 C   0  0  0  0  0  2  0  0  0  0  0  0
  -19.1640  -28.8610   23.3290 C   0  0  0  0  0  0  0  0  0  0  0  0
  -18.9680  -30.1130   23.9540 C   0  0  0  0  0  3  0  0  0  0  0  0
  -17.6710  -30.6260   24.1470 C   0  0  0  0  0  3  0  0  0  0  0  0
  -16.5530  -29.8850   23.7260 C   0  0  0  0  0  3  0  0  0  0  0  0
  -16.7350  -28.6360   23.1050 C   0  0  0  0  0  3  0  0  0  0  0  0
  -25.8800  -32.4950   23.8710 C   0  0  0  0  0  3  0  0  0  0  0  0
  -25.5700  -33.8900   24.2100 N   0  0  0  0  0  0  0  0  0  0  0  0
  -25.9040  -34.9490   23.4600 C   0  0  0  0  0  0  0  0  0  0  0  0
  -26.5750  -34.8520   22.4290 O   0  0  0  0  0  0  0  0  0  0  0  0
  -24.9770  -34.0390   25.0140 H   0  0  0  0  0  0  0  0  0  0  0  0
  -24.1740  -36.7430   23.1150 C   0  0  0  0  0  1  0  0  0  0  0  0
  -25.4140  -36.3330   23.9260 C   0  0  0  0  0  3  0  0  0  0  0  0
  -27.5460  -37.2150   24.7670 C   0  0  0  0  0  1  0  0  0  0  0  0
  -26.4460  -37.3890   23.8220 N   0  0  0  0  0  0  0  0  0  0  0  0
  -26.0370  -38.3060   23.9770 H   0  0  0  0  0  0  0  0  0  0  0  0
  -26.3880  -31.7130   25.1450 C   0  0  1  0  0  0  0  0  0  0  0  0
  -25.2870  -31.4650   26.2030 C   0  0  0  0  0  1  0  0  0  0  0  0
  -26.9760  -30.3390   24.7460 C   0  0  0  0  0  1  0  0  0  0  0  0
  -27.5330  -32.5020   25.8220 C   0  0  0  0  0  1  0  0  0  0  0  0
  -30.1290  -19.7340   19.5580 C   0  0  0  0  0  3  0  0  0  0  0  0
  -30.1750  -19.5560   18.1550 O   0  0  0  0  0  0  0  0  0  0  0  0
  -29.2830  -19.6120   17.8310 H   0  0  0  0  0  0  0  0  0  0  0  0
  -29.5530  -18.3870   20.1860 C   0  0  0  0  0  2  0  0  0  0  0  0
  -31.5910  -17.4310   21.4210 C   0  0  0  0  0  1  0  0  0  0  0  0
  -30.5960  -17.1820   20.2690 C   0  0  0  0  0  3  0  0  0  0  0  0
  -30.7350  -14.6470   20.0010 C   0  0  0  0  0  0  0  0  0  0  0  0
  -30.3840  -12.4290   18.9570 C   0  0  0  0  0  2  0  0  0  0  0  0
  -29.3870  -12.5760   17.7900 C   0  0  0  0  0  2  0  0  0  0  0  0
  -27.9410  -12.4280   18.3020 C   0  0  0  0  0  2  0  0  0  0  0  0
  -27.6560  -13.2950   19.5580 C   0  0  0  0  0  3  0  0  0  0  0  0
  -28.7750  -13.1600   20.6150 C   0  0  0  0  0  2  0  0  0  0  0  0
  -30.0510  -13.4640   19.9550 N   0  0  0  0  0  0  0  0  0  0  0  0
  -31.8770  -14.7350   19.5440 O   0  0  0  0  0  0  0  0  0  0  0  0
  -30.0600  -15.7770   20.3760 N   0  0  0  0  0  0  0  0  0  0  0  0
  -29.1070  -15.6560   20.6860 H   0  0  0  0  0  0  0  0  0  0  0  0
  -25.3140  -13.8870   20.4280 C   0  0  0  0  0  0  0  0  0  0  0  0
  -24.2670  -13.1100   20.8460 C   0  0  0  0  0  0  0  0  0  0  0  0
  -24.7220  -11.7580   20.7680 C   0  0  0  0  0  0  0  0  0  0  0  0
  -26.3390  -13.0080   20.1200 N   0  0  0  0  0  0  0  0  0  0  0  0
  -25.9930  -11.7220   20.3850 N   0  0  0  0  0  0  0  0  0  0  0  0
  -24.0040  -10.4950   20.9790 C   0  0  0  0  0  0  0  0  0  0  0  0
  -24.4660   -9.5270   21.8990 C   0  0  0  0  0  3  0  0  0  0  0  0
  -23.7460   -8.3290   22.0990 C   0  0  0  0  0  3  0  0  0  0  0  0
  -22.5510   -8.0900   21.3790 C   0  0  0  0  0  0  0  0  0  0  0  0
  -22.1100   -9.0460   20.4470 C   0  0  0  0  0  3  0  0  0  0  0  0
  -22.8300  -10.2360   20.2460 C   0  0  0  0  0  3  0  0  0  0  0  0
  -21.8000   -6.9450   21.4880 O   0  0  0  0  0  0  0  0  0  0  0  0
  -21.7670   -6.2140   22.6490 C   0  0  0  0  0  0  0  0  0  0  0  0
  -21.3420   -6.7760   23.8720 C   0  0  0  0  0  3  0  0  0  0  0  0
  -21.2580   -5.9720   25.0260 C   0  0  0  0  0  3  0  0  0  0  0  0
  -21.5880   -4.6050   24.9570 C   0  0  0  0  0  0  0  0  0  0  0  0
  -22.0070   -4.0420   23.7390 C   0  0  0  0  0  3  0  0  0  0  0  0
  -22.0930   -4.8440   22.5880 C   0  0  0  0  0  0  0  0  0  0  0  0
  -22.4760   -4.2910   21.4120 F   0  0  0  0  0  0  0  0  0  0  0  0
  -21.5000   -3.8300   26.0630 F   0  0  0  0  0  0  0  0  0  0  0  0
  -22.8890  -13.5860   21.2040 C   0  0  0  0  0  0  0  0  0  0  0  0
  -22.2080  -12.8760   22.0960 N   0  0  0  0  0  0  0  0  0  0  0  0
  -22.4280  -14.6230   20.7290 O   0  0  0  0  0  0  0  0  0  0  0  0
  -22.5960  -12.0360   22.4990 H   0  0  0  0  0  0  0  0  0  0  0  0
  -21.2860  -13.1760   22.3800 H   0  0  0  0  0  0  0  0  0  0  0  0
  -25.4720  -15.2600   20.2610 N   0  0  0  0  0  0  0  0  0  0  0  0
  -24.7130  -15.9140   20.4240 H   0  0  0  0  0  0  0  0  0  0  0  0
  -26.2960  -15.7000   19.8740 H   0  0  0  0  0  0  0  0  0  0  0  0
  1  3  1  0
  2  3  2  0
  3  9  1  0
  4  1  2  0
  5  2  1  0
  6  5  2  0
  6  4  1  0
  7  4  1  0
  8  5  1  0
 10  9  1  0
 11 22  2  0
 12 10  1  0
 12 17  1  0
 13 21  1  0
 13 23  1  0
 14 20  1  0
 14 16  1  0
 15 21  1  0
 16 15  1  0
 17 16  2  0
 18 19  1  0
 18 12  2  0
 19 14  2  0
 20 13  1  0
 21 11  1  0
 23 25  2  0
 24 23  1  0
 26 24  1  0
 27 36  2  0
 27 32  1  0
 28 24  1  0
 28 32  1  0
 29 28  1  0
 30 31  1  0
 30 29  1  0
 31 27  1  0
 32 33  2  0
 33 34  1  0
 35 34  2  0
 36 35  1  0
 37 11  1  0
 37 38  1  0
 37 47  1  0
 38 41  1  0
 39 43  1  0
 39 38  1  0
 40 39  2  0
 43 42  1  0
 45 43  1  0
 45 46  1  0
 45 44  1  0
 47 50  1  1
 47 48  1  0
 49 47  1  0
 51  6  1  0
 51 54  1  0
 52 51  1  0
 53 52  1  0
 54 56  1  0
 56 65  1  0
 56 55  1  0
 57 65  1  0
 58 63  1  0
 59 60  1  0
 59 58  1  0
 61 60  1  0
 61 70  1  0
 61 62  1  0
 63 57  1  0
 63 62  1  0
 64 57  2  0
 65 66  1  0
 67 68  2  0
 68 87  1  0
 69 68  1  0
 69 72  1  0
 70 71  1  0
 70 67  1  0
 71 69  2  0
 72 73  1  0
 73 74  2  0
 75 78  1  0
 75 74  1  0
 76 75  2  0
 77 76  1  0
 77 72  2  0
 78 79  1  0
 79 80  1  0
 80 81  2  0
 82 81  1  0
 82 86  1  0
 83 82  2  0
 84 79  2  0
 84 83  1  0
 85 84  1  0
 87 88  1  0
 88 91  1  0
 88 90  1  0
 89 87  2  0
 92 93  1  0
 92 67  1  0
 94 92  1  0
M  ISO  4   9 101  10 101  57 100  65 100
M  END
>  <TORSDO>  (80) 
F 21

>  <SCORE>  (80) 
-13.368

>  <name>  (80) 
80

>  <ligand_id>  (80) 
80

>  <original_smiles>  (80) 
[H]OC([H])(c1c(C([H])([H])[H])c([H])c(C([H])([H])Oc2c([H])c([H])c3c(c2[H])C([H])([H])N(C(=O)C([H])(N([H])C(=O)C([H])(N([H])C([H])([H])[H])C([H])([H])[H])C(C([H])([H])[H])(C([H])([H])[H])C([H])([H])[H])C([H])(C(=O)N([H])C2([H])c4c([H])c([H])c([H])c([H])c4C([H])([H])C([H])([H])C2([H])[H])C3([H])[H])c([H])c1C([H])([H])[H])C([H])([H])C([H])(N([H])C(=O)N1C([H])([H])C([H])([H])C([H])([H])C([H])(n2nc(-c3c([H])c([H])c(Oc4c([H])c([H])c(F)c([H])c4F)c([H])c3[H])c(C(=O)N([H])[H])c2N([H])[H])C1([H])[H])C([H])([H])[H]

>  <smiles>  (80) 
[H]OC([H])(c1c(C([H])([H])[H])c([H])c(C([H])([H])Oc2c([H])c([H])c3c(c2[H])C([H])([H])N(C(=O)C([H])(N([H])C(=O)C([H])(N([H])C([H])([H])[H])C([H])([H])[H])C(C([H])([H])[H])(C([H])([H])[H])C([H])([H])[H])C([H])(C(=O)N([H])C2([H])c4c([H])c([H])c([H])c([H])c4C([H])([H])C([H])([H])C2([H])[H])C3([H])[H])c([H])c1C([H])([H])[H])C([H])([H])C([H])(N([H])C(=O)N1C([H])([H])C([H])([H])C([H])([H])C([H])(n2nc(-c3c([H])c([H])c(Oc4c([H])c([H])c(F)c([H])c4F)c([H])c3[H])c(C(=O)N([H])[H])c2N([H])[H])C1([H])[H])C([H])([H])[H]

$$$$
81:0:0
     RDKit          3D

 92101  0  0  1  0  0  0  0  0999 V2000
  -28.5180  -23.3900   21.0320 C   0  0  0  0  0  3  0  0  0  0  0  0
  -28.8260  -22.4310   18.8540 C   0  0  0  0  0  3  0  0  0  0  0  0
  -28.3320  -23.5680   19.6500 C   0  0  0  0  0  0  0  0  0  0  0  0
  -29.1470  -22.2320   21.5440 C   0  0  0  0  0  0  0  0  0  0  0  0
  -29.4570  -21.2540   19.4490 C   0  0  0  0  0  0  0  0  0  0  0  0
  -29.6030  -21.2170   20.7740 N   0  0  0  0  0  0  0  0  0  0  0  0
  -30.8020  -22.2350   23.5190 C   0  0  0  0  0  2  0  0  0  0  0  0
  -30.2190  -20.8460   23.5340 C   0  0  0  0  0  2  0  0  0  0  0  0
  -29.4030  -22.0190   23.0040 C   0  0  0  0  0  3  0  0  0  0  0  0
  -27.4470  -24.8080   19.1090 C   0  0  0  0  0  2  0  0  0  0  0  0
  -27.6250  -26.2780   19.5220 O   0  0  0  0  0  0  0  0  0  0  0  0
  -24.4960  -31.8990   23.1090 C   0  0  0  0  0  0  0  0  0  0  0  0
  -26.5680  -27.2480   19.6060 C   0  0  0  0  0  0  0  0  0  0  0  0
  -23.0920  -30.5980   21.5650 C   0  0  0  0  0  3  0  0  0  0  0  0
  -24.3120  -29.0390   19.9530 C   0  0  0  0  0  0  0  0  0  0  0  0
  -25.6290  -30.7730   21.1510 C   0  0  0  0  0  2  0  0  0  0  0  0
  -25.5690  -29.4090   20.4450 C   0  0  0  0  0  0  0  0  0  0  0  0
  -26.6910  -28.5190   20.2790 C   0  0  0  0  0  3  0  0  0  0  0  0
  -25.2870  -26.9830   19.0710 C   0  0  0  0  0  3  0  0  0  0  0  0
  -24.1800  -27.8310   19.2590 C   0  0  0  0  0  3  0  0  0  0  0  0
  -23.1420  -29.9750   20.1500 C   0  0  0  0  0  2  0  0  0  0  0  0
  -24.4340  -31.1100   21.9930 N   0  0  0  0  0  0  0  0  0  0  0  0
  -23.4780  -32.2000   23.7470 O   0  0  0  0  0  0  0  0  0  0  0  0
  -22.4770  -29.5760   22.5520 C   0  0  0  0  0  0  0  0  0  0  0  0
  -21.1560  -29.3530   22.4590 N   0  0  0  0  0  0  0  0  0  0  0  0
  -23.1920  -28.9870   23.3630 O   0  0  0  0  0  0  0  0  0  0  0  0
  -20.6330  -29.8870   21.7800 H   0  0  0  0  0  0  0  0  0  0  0  0
  -17.8660  -27.9100   22.9430 C   0  0  0  0  0  0  0  0  0  0  0  0
  -20.3860  -28.4030   23.2670 C   0  0  0  0  0  3  0  0  0  0  0  0
  -20.6220  -26.9510   22.7900 C   0  0  0  0  0  2  0  0  0  0  0  0
  -19.5810  -26.4720   21.7700 C   0  0  0  0  0  2  0  0  0  0  0  0
  -18.1740  -26.5410   22.3650 C   0  0  0  0  0  2  0  0  0  0  0  0
  -18.9030  -28.7900   23.3540 C   0  0  0  0  0  0  0  0  0  0  0  0
  -18.5580  -30.0650   23.8580 C   0  0  0  0  0  3  0  0  0  0  0  0
  -17.2110  -30.4630   23.9570 C   0  0  0  0  0  3  0  0  0  0  0  0
  -16.1890  -29.5820   23.5620 C   0  0  0  0  0  3  0  0  0  0  0  0
  -16.5170  -28.3080   23.0650 C   0  0  0  0  0  3  0  0  0  0  0  0
  -25.8460  -32.4710   23.6210 C   0  0  0  0  0  3  0  0  0  0  0  0
  -25.6100  -33.8570   24.0590 N   0  0  0  0  0  0  0  0  0  0  0  0
  -25.9410  -34.9480   23.3550 C   0  0  0  0  0  0  0  0  0  0  0  0
  -26.5470  -34.8900   22.2820 O   0  0  0  0  0  0  0  0  0  0  0  0
  -25.0720  -33.9750   24.9040 H   0  0  0  0  0  0  0  0  0  0  0  0
  -24.2820  -36.8360   23.2130 C   0  0  0  0  0  1  0  0  0  0  0  0
  -25.5370  -36.3210   23.9330 C   0  0  0  0  0  3  0  0  0  0  0  0
  -27.7470  -37.0540   24.7180 C   0  0  0  0  0  1  0  0  0  0  0  0
  -26.6110  -37.3330   23.8460 N   0  0  0  0  0  0  0  0  0  0  0  0
  -26.2580  -38.2590   24.0710 H   0  0  0  0  0  0  0  0  0  0  0  0
  -26.4750  -31.6260   24.7990 C   0  0  1  0  0  0  0  0  0  0  0  0
  -25.5010  -31.3470   25.9680 C   0  0  0  0  0  1  0  0  0  0  0  0
  -26.9790  -30.2590   24.2820 C   0  0  0  0  0  1  0  0  0  0  0  0
  -27.7110  -32.3640   25.3710 C   0  0  0  0  0  1  0  0  0  0  0  0
  -29.8770  -20.0600   18.7690 O   0  0  0  0  0  0  0  0  0  0  0  0
  -30.5540  -18.8410   19.3910 C   0  0  0  0  0  3  0  0  0  0  0  0
  -29.7960  -17.3820   19.4260 C   0  0  0  0  0  3  0  0  0  0  0  0
  -30.7910  -14.9940   19.8510 C   0  0  0  0  0  0  0  0  0  0  0  0
  -30.5880  -12.5830   19.1600 C   0  0  0  0  0  2  0  0  0  0  0  0
  -29.6060  -12.4390   17.9580 C   0  0  0  0  0  2  0  0  0  0  0  0
  -28.1460  -12.3110   18.4460 C   0  0  0  0  0  2  0  0  0  0  0  0
  -27.7960  -13.3340   19.5530 C   0  0  0  0  0  3  0  0  0  0  0  0
  -28.9020  -13.4440   20.6420 C   0  0  0  0  0  2  0  0  0  0  0  0
  -30.1840  -13.7500   19.9880 N   0  0  0  0  0  0  0  0  0  0  0  0
  -31.8370  -15.0910   19.2190 O   0  0  0  0  0  0  0  0  0  0  0  0
  -30.1490  -16.1420   20.2680 N   0  0  0  0  0  0  0  0  0  0  0  0
  -29.4520  -15.9450   20.9780 H   0  0  0  0  0  0  0  0  0  0  0  0
  -25.4560  -13.9300   20.4180 C   0  0  0  0  0  0  0  0  0  0  0  0
  -24.4040  -13.1570   20.8140 C   0  0  0  0  0  0  0  0  0  0  0  0
  -24.8460  -11.7990   20.7210 C   0  0  0  0  0  0  0  0  0  0  0  0
  -26.4690  -13.0470   20.1130 N   0  0  0  0  0  0  0  0  0  0  0  0
  -26.1120  -11.7610   20.3550 N   0  0  0  0  0  0  0  0  0  0  0  0
  -24.1120  -10.5390   20.9300 C   0  0  0  0  0  0  0  0  0  0  0  0
  -24.5380   -9.5860   21.8720 C   0  0  0  0  0  3  0  0  0  0  0  0
  -23.8210   -8.3880   22.0630 C   0  0  0  0  0  3  0  0  0  0  0  0
  -22.6490   -8.1370   21.3140 C   0  0  0  0  0  0  0  0  0  0  0  0
  -22.2210   -9.0940   20.3700 C   0  0  0  0  0  3  0  0  0  0  0  0
  -22.9450  -10.2860   20.1800 C   0  0  0  0  0  3  0  0  0  0  0  0
  -21.9060   -6.9870   21.4170 O   0  0  0  0  0  0  0  0  0  0  0  0
  -21.7950   -6.2880   22.5900 C   0  0  0  0  0  0  0  0  0  0  0  0
  -21.2890   -6.8880   23.7670 C   0  0  0  0  0  3  0  0  0  0  0  0
  -21.1200   -6.1100   24.9320 C   0  0  0  0  0  3  0  0  0  0  0  0
  -21.4520   -4.7450   24.9240 C   0  0  0  0  0  0  0  0  0  0  0  0
  -21.9610   -4.1450   23.7590 C   0  0  0  0  0  3  0  0  0  0  0  0
  -22.1060   -4.9120   22.5850 C   0  0  0  0  0  0  0  0  0  0  0  0
  -22.5670   -4.3280   21.4530 F   0  0  0  0  0  0  0  0  0  0  0  0
  -21.2980   -3.9990   26.0420 F   0  0  0  0  0  0  0  0  0  0  0  0
  -23.0180  -13.6410   21.1580 C   0  0  0  0  0  0  0  0  0  0  0  0
  -22.3400  -12.9490   22.0640 N   0  0  0  0  0  0  0  0  0  0  0  0
  -22.5640  -14.6800   20.6900 O   0  0  0  0  0  0  0  0  0  0  0  0
  -22.7180  -12.0960   22.4540 H   0  0  0  0  0  0  0  0  0  0  0  0
  -21.4270  -13.2690   22.3500 H   0  0  0  0  0  0  0  0  0  0  0  0
  -25.6310  -15.2960   20.2850 N   0  0  0  0  0  0  0  0  0  0  0  0
  -26.5230  -15.7150   20.0450 H   0  0  0  0  0  0  0  0  0  0  0  0
  -24.9310  -15.9720   20.5560 H   0  0  0  0  0  0  0  0  0  0  0  0
  1  4  2  0
  2  5  1  0
  2  3  2  0
  3  1  1  0
  4  9  1  0
  5  6  2  0
  6  4  1  0
  7  8  1  0
  9  7  1  0
  9  8  1  0
 10 11  1  0
 10  3  1  0
 11 13  1  0
 12 23  2  0
 13 18  1  0
 14 22  1  0
 14 24  1  0
 15 21  1  0
 15 17  1  0
 16 22  1  0
 17 16  1  0
 18 17  2  0
 19 20  1  0
 19 13  2  0
 20 15  2  0
 21 14  1  0
 22 12  1  0
 24 26  2  0
 25 24  1  0
 27 25  1  0
 28 37  2  0
 28 33  1  0
 29 25  1  0
 29 33  1  0
 30 29  1  0
 31 32  1  0
 31 30  1  0
 32 28  1  0
 33 34  2  0
 34 35  1  0
 36 35  2  0
 37 36  1  0
 38 12  1  0
 38 39  1  0
 38 48  1  0
 39 42  1  0
 40 44  1  0
 40 39  1  0
 41 40  2  0
 44 43  1  0
 46 44  1  0
 46 47  1  0
 46 45  1  0
 48 51  1  1
 48 49  1  0
 50 48  1  0
 52 53  1  0
 52  5  1  0
 53 54  2  0
 54 63  1  0
 55 61  1  0
 55 63  1  0
 56 61  1  0
 57 58  1  0
 57 56  1  0
 59 58  1  0
 59 68  1  0
 59 60  1  0
 61 60  1  0
 62 55  2  0
 63 64  1  0
 65 66  2  0
 66 85  1  0
 67 66  1  0
 67 70  1  0
 68 69  1  0
 68 65  1  0
 69 67  2  0
 70 71  1  0
 71 72  2  0
 73 76  1  0
 73 72  1  0
 74 73  2  0
 75 74  1  0
 75 70  2  0
 76 77  1  0
 77 78  1  0
 78 79  2  0
 80 79  1  0
 80 84  1  0
 81 80  2  0
 82 77  2  0
 82 81  1  0
 83 82  1  0
 85 86  1  0
 86 89  1  0
 86 88  1  0
 87 85  2  0
 90 65  1  0
 90 92  1  0
 91 90  1  0
M  ISO  4  10 101  11 101  55 100  63 100
M  END
>  <TORSDO>  (81) 
F 21

>  <SCORE>  (81) 
-12.994

>  <name>  (81) 
81

>  <ligand_id>  (81) 
81

>  <original_smiles>  (81) 
[H]c1c([H])c([H])c2c(c1[H])C([H])([H])C([H])([H])C([H])([H])C2([H])N([H])C(=O)C1([H])N(C(=O)C([H])(N([H])C(=O)C([H])(N([H])C([H])([H])[H])C([H])([H])[H])C(C([H])([H])[H])(C([H])([H])[H])C([H])([H])[H])C([H])([H])c2c([H])c(OC([H])([H])c3c([H])c(OC([H])([H])C([H])([H])N([H])C(=O)N4C([H])([H])C([H])([H])C([H])([H])C([H])(n5nc(-c6c([H])c([H])c(Oc7c([H])c([H])c(F)c([H])c7F)c([H])c6[H])c(C(=O)N([H])[H])c5N([H])[H])C4([H])[H])nc(C4([H])C([H])([H])C4([H])[H])c3[H])c([H])c([H])c2C1([H])[H]

>  <smiles>  (81) 
[H]c1c([H])c([H])c2c(c1[H])C([H])([H])C([H])([H])C([H])([H])C2([H])N([H])C(=O)C1([H])N(C(=O)C([H])(N([H])C(=O)C([H])(N([H])C([H])([H])[H])C([H])([H])[H])C(C([H])([H])[H])(C([H])([H])[H])C([H])([H])[H])C([H])([H])c2c([H])c(OC([H])([H])c3c([H])c(OC([H])([H])C([H])([H])N([H])C(=O)N4C([H])([H])C([H])([H])C([H])([H])C([H])(n5nc(-c6c([H])c([H])c(Oc7c([H])c([H])c(F)c([H])c7F)c([H])c6[H])c(C(=O)N([H])[H])c5N([H])[H])C4([H])[H])nc(C4([H])C([H])([H])C4([H])[H])c3[H])c([H])c([H])c2C1([H])[H]

$$$$
82:0:0
     RDKit          3D

 98108  0  0  1  0  0  0  0  0999 V2000
  -30.2080  -24.4210   21.6010 C   0  0  0  0  0  2  0  0  0  0  0  0
  -29.9720  -22.1480   22.1060 C   0  0  0  0  0  2  0  0  0  0  0  0
  -29.2580  -23.9150   20.5040 C   0  0  0  0  0  3  0  0  0  0  0  0
  -29.0200  -22.3480   20.8980 C   0  0  0  0  0  3  0  0  0  0  0  0
  -30.9510  -23.2420   22.0510 N   0  0  0  0  0  4  0  0  0  0  0  0
  -31.4040  -23.3970   22.9380 H   0  0  0  0  0  0  0  0  0  0  0  0
  -31.6620  -23.0200   21.3720 H   0  0  0  0  0  0  0  0  0  0  0  0
  -28.0370  -24.9440   20.3160 C   0  0  0  0  0  2  0  0  0  0  0  0
  -28.2830  -26.4190   20.2080 O   0  0  0  0  0  0  0  0  0  0  0  0
  -24.5880  -31.8750   23.2150 C   0  0  0  0  0  0  0  0  0  0  0  0
  -27.1690  -27.2860   20.1600 C   0  0  0  0  0  0  0  0  0  0  0  0
  -23.3720  -30.4760   21.5860 C   0  0  0  0  0  3  0  0  0  0  0  0
  -24.8110  -28.9210   20.1540 C   0  0  0  0  0  0  0  0  0  0  0  0
  -25.9130  -30.7850   21.3890 C   0  0  0  0  0  2  0  0  0  0  0  0
  -25.9870  -29.4060   20.7400 C   0  0  0  0  0  0  0  0  0  0  0  0
  -27.1710  -28.6030   20.7260 C   0  0  0  0  0  3  0  0  0  0  0  0
  -25.9680  -26.8620   19.5480 C   0  0  0  0  0  3  0  0  0  0  0  0
  -24.8050  -27.6580   19.5450 C   0  0  0  0  0  3  0  0  0  0  0  0
  -23.5780  -29.8000   20.2050 C   0  0  0  0  0  2  0  0  0  0  0  0
  -24.6440  -31.0620   22.1190 N   0  0  0  0  0  0  0  0  0  0  0  0
  -23.5090  -32.1550   23.7570 O   0  0  0  0  0  0  0  0  0  0  0  0
  -22.7130  -29.4610   22.5510 C   0  0  0  0  0  0  0  0  0  0  0  0
  -21.3840  -29.2900   22.4370 N   0  0  0  0  0  0  0  0  0  0  0  0
  -23.3960  -28.8350   23.3650 O   0  0  0  0  0  0  0  0  0  0  0  0
  -20.8920  -29.8460   21.7530 H   0  0  0  0  0  0  0  0  0  0  0  0
  -18.0090  -28.1000   22.9610 C   0  0  0  0  0  0  0  0  0  0  0  0
  -20.5690  -28.3570   23.2160 C   0  0  0  0  0  3  0  0  0  0  0  0
  -20.6660  -26.9220   22.6470 C   0  0  0  0  0  2  0  0  0  0  0  0
  -19.5570  -26.5970   21.6390 C   0  0  0  0  0  2  0  0  0  0  0  0
  -18.1800  -26.7470   22.2900 C   0  0  0  0  0  2  0  0  0  0  0  0
  -19.1310  -28.8610   23.3820 C   0  0  0  0  0  0  0  0  0  0  0  0
  -18.9170  -30.1270   23.9710 C   0  0  0  0  0  3  0  0  0  0  0  0
  -17.6140  -30.6300   24.1420 C   0  0  0  0  0  3  0  0  0  0  0  0
  -16.5050  -29.8650   23.7380 C   0  0  0  0  0  3  0  0  0  0  0  0
  -16.7050  -28.6010   23.1520 C   0  0  0  0  0  3  0  0  0  0  0  0
  -25.8760  -32.5090   23.8280 C   0  0  0  0  0  3  0  0  0  0  0  0
  -26.4080  -31.7290   25.0920 C   0  0  1  0  0  0  0  0  0  0  0  0
  -25.3300  -31.4880   26.1740 C   0  0  0  0  0  1  0  0  0  0  0  0
  -26.9840  -30.3520   24.6860 C   0  0  0  0  0  1  0  0  0  0  0  0
  -27.5670  -32.5210   25.7420 C   0  0  0  0  0  1  0  0  0  0  0  0
  -25.5630  -33.9020   24.1750 N   0  0  0  0  0  0  0  0  0  0  0  0
  -25.8770  -34.9640   23.4210 C   0  0  0  0  0  0  0  0  0  0  0  0
  -26.5280  -34.8730   22.3770 O   0  0  0  0  0  0  0  0  0  0  0  0
  -24.9830  -34.0470   24.9880 H   0  0  0  0  0  0  0  0  0  0  0  0
  -24.1300  -36.7480   23.1210 C   0  0  0  0  0  1  0  0  0  0  0  0
  -25.3920  -36.3440   23.9000 C   0  0  0  0  0  3  0  0  0  0  0  0
  -27.5400  -37.2350   24.6870 C   0  0  0  0  0  1  0  0  0  0  0  0
  -26.4140  -37.4060   23.7730 N   0  0  0  0  0  0  0  0  0  0  0  0
  -26.0060  -38.3220   23.9420 H   0  0  0  0  0  0  0  0  0  0  0  0
  -29.2210  -21.1500   19.8250 C   0  0  0  0  0  3  0  0  0  0  0  0
  -29.9760  -18.4930   20.6790 C   0  0  0  0  0  2  0  0  0  0  0  0
  -28.3520  -17.4240   19.3030 C   0  0  0  0  0  2  0  0  0  0  0  0
  -29.1550  -17.1450   20.5780 C   0  0  0  0  0  3  0  0  0  0  0  0
  -28.8910  -19.6120   20.2950 C   0  0  0  0  0  3  0  0  0  0  0  0
  -28.0430  -18.8780   19.3120 N   0  0  0  0  0  4  0  0  0  0  0  0
  -27.0710  -19.0230   19.5410 H   0  0  0  0  0  0  0  0  0  0  0  0
  -28.2010  -19.2580   18.3890 H   0  0  0  0  0  0  0  0  0  0  0  0
  -30.4660  -14.7220   20.3820 C   0  0  0  0  0  0  0  0  0  0  0  0
  -30.3650  -12.4570   19.3340 C   0  0  0  0  0  2  0  0  0  0  0  0
  -29.4100  -12.5470   18.1210 C   0  0  0  0  0  2  0  0  0  0  0  0
  -27.9430  -12.3560   18.5570 C   0  0  0  0  0  2  0  0  0  0  0  0
  -27.5690  -13.2320   19.7830 C   0  0  0  0  0  3  0  0  0  0  0  0
  -28.6240  -13.0710   20.9000 C   0  0  0  0  0  2  0  0  0  0  0  0
  -29.9290  -13.4560   20.3350 N   0  0  0  0  0  0  0  0  0  0  0  0
  -31.5860  -14.9590   19.9230 O   0  0  0  0  0  0  0  0  0  0  0  0
  -29.5850  -15.6930   20.8180 N   0  0  0  0  0  0  0  0  0  0  0  0
  -28.8220  -15.2070   21.2700 H   0  0  0  0  0  0  0  0  0  0  0  0
  -25.1780  -13.8460   20.5050 C   0  0  0  0  0  0  0  0  0  0  0  0
  -24.1100  -13.0800   20.8840 C   0  0  0  0  0  0  0  0  0  0  0  0
  -24.5680  -11.7290   20.8590 C   0  0  0  0  0  0  0  0  0  0  0  0
  -26.2180  -12.9610   20.2660 N   0  0  0  0  0  0  0  0  0  0  0  0
  -25.8570  -11.6810   20.5420 N   0  0  0  0  0  0  0  0  0  0  0  0
  -23.8390  -10.4710   21.0610 C   0  0  0  0  0  0  0  0  0  0  0  0
  -24.2900   -9.4960   21.9790 C   0  0  0  0  0  3  0  0  0  0  0  0
  -23.5610   -8.3020   22.1630 C   0  0  0  0  0  3  0  0  0  0  0  0
  -22.3730   -8.0740   21.4300 C   0  0  0  0  0  0  0  0  0  0  0  0
  -21.9420   -9.0390   20.5010 C   0  0  0  0  0  3  0  0  0  0  0  0
  -22.6700  -10.2250   20.3160 C   0  0  0  0  0  3  0  0  0  0  0  0
  -21.6160   -6.9330   21.5260 O   0  0  0  0  0  0  0  0  0  0  0  0
  -21.6040   -6.1700   22.6660 C   0  0  0  0  0  0  0  0  0  0  0  0
  -21.2370   -6.7090   23.9180 C   0  0  0  0  0  3  0  0  0  0  0  0
  -21.1690   -5.8760   25.0520 C   0  0  0  0  0  3  0  0  0  0  0  0
  -21.4580   -4.5020   24.9370 C   0  0  0  0  0  0  0  0  0  0  0  0
  -21.8160   -3.9610   23.6890 C   0  0  0  0  0  3  0  0  0  0  0  0
  -21.8840   -4.7930   22.5590 C   0  0  0  0  0  0  0  0  0  0  0  0
  -22.2110   -4.2640   21.3560 F   0  0  0  0  0  0  0  0  0  0  0  0
  -21.3840   -3.6980   26.0240 F   0  0  0  0  0  0  0  0  0  0  0  0
  -22.7170  -13.5690   21.1550 C   0  0  0  0  0  0  0  0  0  0  0  0
  -21.9850  -12.8880   22.0300 N   0  0  0  0  0  0  0  0  0  0  0  0
  -22.2860  -14.5950   20.6290 O   0  0  0  0  0  0  0  0  0  0  0  0
  -22.3430  -12.0620   22.4850 H   0  0  0  0  0  0  0  0  0  0  0  0
  -21.0500  -13.2070   22.2540 H   0  0  0  0  0  0  0  0  0  0  0  0
  -25.3370  -15.2170   20.3210 N   0  0  0  0  0  0  0  0  0  0  0  0
  -24.5440  -15.8440   20.4050 H   0  0  0  0  0  0  0  0  0  0  0  0
  -26.1360  -15.6370   19.8730 H   0  0  0  0  0  0  0  0  0  0  0  0
  -28.8400  -22.5270   17.5470 C   0  0  0  0  0  2  0  0  0  0  0  0
  -28.7680  -21.0670   17.1780 C   0  0  0  0  0  2  0  0  0  0  0  0
  -28.3880  -21.5150   18.5820 C   0  0  0  0  0  3  0  0  0  0  0  0
  1  5  1  0
  3  8  1  0
  3  4  1  0
  3  1  1  0
  4 50  1  0
  4  2  1  0
  5  2  1  0
  5  6  1  0
  7  5  1  0
  9  8  1  0
 10 21  2  0
 11  9  1  0
 11 16  1  0
 12 20  1  0
 12 22  1  0
 13 19  1  0
 13 15  1  0
 14 20  1  0
 15 14  1  0
 16 15  2  0
 17 11  2  0
 18 17  1  0
 18 13  2  0
 19 12  1  0
 20 10  1  0
 22 24  2  0
 23 22  1  0
 25 23  1  0
 26 35  2  0
 26 31  1  0
 27 23  1  0
 27 31  1  0
 28 27  1  0
 29 30  1  0
 29 28  1  0
 30 26  1  0
 31 32  2  0
 32 33  1  0
 34 33  2  0
 35 34  1  0
 36 10  1  0
 36 41  1  0
 36 37  1  0
 37 40  1  1
 37 38  1  0
 39 37  1  0
 41 44  1  0
 42 46  1  0
 42 41  1  0
 43 42  2  0
 46 45  1  0
 48 46  1  0
 48 49  1  0
 48 47  1  0
 50 98  1  0
 52 55  1  0
 52 53  1  0
 53 51  1  0
 53 66  1  0
 54 50  1  0
 54 51  1  0
 55 56  1  0
 55 54  1  0
 57 55  1  0
 58 66  1  0
 59 64  1  0
 60 61  1  0
 60 59  1  0
 62 61  1  0
 62 71  1  0
 62 63  1  0
 64 58  1  0
 64 63  1  0
 65 58  2  0
 66 67  1  0
 68 69  2  0
 69 88  1  0
 70 69  1  0
 70 73  1  0
 71 68  1  0
 71 72  1  0
 72 70  2  0
 73 74  1  0
 74 75  2  0
 76 79  1  0
 76 75  1  0
 77 76  2  0
 78 77  1  0
 78 73  2  0
 79 80  1  0
 80 81  1  0
 81 82  2  0
 83 82  1  0
 83 87  1  0
 84 83  2  0
 85 80  2  0
 85 84  1  0
 86 85  1  0
 88 89  1  0
 89 92  1  0
 89 91  1  0
 90 88  2  0
 93 94  1  0
 93 68  1  0
 95 93  1  0
 96 98  1  0
 97 96  1  0
 97 98  1  0
M  ISO  4   8 101   9 101  58 100  66 100
M  END
>  <TORSDO>  (82) 
F 20

>  <SCORE>  (82) 
-14.471

>  <name>  (82) 
82

>  <ligand_id>  (82) 
82

>  <original_smiles>  (82) 
[H]c1c([H])c([H])c2c(c1[H])C([H])([H])C([H])([H])C([H])([H])C2([H])N([H])C(=O)C1([H])N(C(=O)C([H])(N([H])C(=O)C([H])(N([H])C([H])([H])[H])C([H])([H])[H])C(C([H])([H])[H])(C([H])([H])[H])C([H])([H])[H])C([H])([H])c2c([H])c(OC([H])([H])C3([H])C([H])(C([H])(C4([H])C([H])([H])C4([H])[H])C4([H])C([H])([H])C([H])(N([H])C(=O)N5C([H])([H])C([H])([H])C([H])([H])C([H])(n6nc(-c7c([H])c([H])c(Oc8c([H])c([H])c(F)c([H])c8F)c([H])c7[H])c(C(=O)N([H])[H])c6N([H])[H])C5([H])[H])C([H])([H])[N+]4([H])[H])C([H])([H])[N+]([H])([H])C3([H])[H])c([H])c([H])c2C1([H])[H]

>  <smiles>  (82) 
[H]c1c([H])c([H])c2c(c1[H])C([H])([H])C([H])([H])C([H])([H])C2([H])N([H])C(=O)C1([H])N(C(=O)C([H])(N([H])C(=O)C([H])(N([H])C([H])([H])[H])C([H])([H])[H])C(C([H])([H])[H])(C([H])([H])[H])C([H])([H])[H])C([H])([H])c2c([H])c(OC([H])([H])C3([H])C([H])(C([H])(C4([H])C([H])([H])C4([H])[H])C4([H])C([H])([H])C([H])(N([H])C(=O)N5C([H])([H])C([H])([H])C([H])([H])C([H])(n6nc(-c7c([H])c([H])c(Oc8c([H])c([H])c(F)c([H])c8F)c([H])c7[H])c(C(=O)N([H])[H])c6N([H])[H])C5([H])[H])C([H])([H])[N+]4([H])[H])C([H])([H])[N+]([H])([H])C3([H])[H])c([H])c([H])c2C1([H])[H]

$$$$
83:0:0
     RDKit          3D

 89 98  0  0  1  0  0  0  0  0999 V2000
  -28.5370  -21.1620   20.1070 C   0  0  0  0  0  3  0  0  0  0  0  0
  -31.0380  -21.6410   20.8830 C   0  0  0  0  0  3  0  0  0  0  0  0
  -28.8530  -22.6700   20.2900 C   0  0  0  0  0  0  0  0  0  0  0  0
  -30.2150  -22.7560   20.5620 C   0  0  0  0  0  0  0  0  0  0  0  0
  -29.4520  -19.9360   20.3810 C   0  0  0  0  0  0  0  0  0  0  0  0
  -30.7220  -24.1180   20.1530 C   0  0  0  0  0  2  0  0  0  0  0  0
  -29.6340  -24.6450   19.1680 C   0  0  0  0  0  2  0  0  0  0  0  0
  -28.2640  -24.2670   19.7860 C   0  0  0  0  0  3  0  0  0  0  0  0
  -30.6720  -20.3210   20.8360 N   0  0  0  0  0  0  0  0  0  0  0  0
  -28.1400  -25.7950   20.4560 O   0  0  0  0  0  0  0  0  0  0  0  0
  -24.5980  -31.8680   23.2430 C   0  0  0  0  0  0  0  0  0  0  0  0
  -27.1700  -26.9320   20.2710 C   0  0  0  0  0  0  0  0  0  0  0  0
  -23.4200  -30.4690   21.5950 C   0  0  0  0  0  3  0  0  0  0  0  0
  -24.8820  -28.8500   20.1860 C   0  0  0  0  0  0  0  0  0  0  0  0
  -25.9890  -30.6570   21.4850 C   0  0  0  0  0  2  0  0  0  0  0  0
  -26.0600  -29.2410   20.8320 C   0  0  0  0  0  0  0  0  0  0  0  0
  -27.1900  -28.3000   20.8580 C   0  0  0  0  0  3  0  0  0  0  0  0
  -25.9690  -26.7100   19.5570 C   0  0  0  0  0  3  0  0  0  0  0  0
  -24.8650  -27.6070   19.5280 C   0  0  0  0  0  3  0  0  0  0  0  0
  -23.6640  -29.7770   20.2230 C   0  0  0  0  0  2  0  0  0  0  0  0
  -24.6910  -31.0270   22.1610 N   0  0  0  0  0  0  0  0  0  0  0  0
  -23.5040  -32.1660   23.7490 O   0  0  0  0  0  0  0  0  0  0  0  0
  -22.7070  -29.4840   22.5590 C   0  0  0  0  0  0  0  0  0  0  0  0
  -21.3740  -29.3380   22.4310 N   0  0  0  0  0  0  0  0  0  0  0  0
  -23.3610  -28.8510   23.3910 O   0  0  0  0  0  0  0  0  0  0  0  0
  -20.9000  -29.8990   21.7370 H   0  0  0  0  0  0  0  0  0  0  0  0
  -17.9750  -28.1730   22.9380 C   0  0  0  0  0  0  0  0  0  0  0  0
  -20.5380  -28.4090   23.2000 C   0  0  0  0  0  3  0  0  0  0  0  0
  -20.6220  -26.9770   22.6200 C   0  0  0  0  0  2  0  0  0  0  0  0
  -19.5150  -26.6720   21.6040 C   0  0  0  0  0  2  0  0  0  0  0  0
  -18.1350  -26.8270   22.2510 C   0  0  0  0  0  2  0  0  0  0  0  0
  -19.1030  -28.9230   23.3680 C   0  0  0  0  0  0  0  0  0  0  0  0
  -18.8950  -30.1800   23.9750 C   0  0  0  0  0  3  0  0  0  0  0  0
  -17.5950  -30.6900   24.1520 C   0  0  0  0  0  3  0  0  0  0  0  0
  -16.4820  -29.9390   23.7350 C   0  0  0  0  0  3  0  0  0  0  0  0
  -16.6740  -28.6820   23.1340 C   0  0  0  0  0  3  0  0  0  0  0  0
  -25.8630  -32.5110   23.8890 C   0  0  0  0  0  3  0  0  0  0  0  0
  -25.5500  -33.9170   24.2010 N   0  0  0  0  0  0  0  0  0  0  0  0
  -25.9040  -34.9690   23.4490 C   0  0  0  0  0  0  0  0  0  0  0  0
  -26.5890  -34.8580   22.4300 O   0  0  0  0  0  0  0  0  0  0  0  0
  -24.9430  -34.0780   24.9900 H   0  0  0  0  0  0  0  0  0  0  0  0
  -24.2010  -36.7860   23.0710 C   0  0  0  0  0  1  0  0  0  0  0  0
  -25.4260  -36.3670   23.8980 C   0  0  0  0  0  3  0  0  0  0  0  0
  -27.5550  -37.2380   24.7610 C   0  0  0  0  0  1  0  0  0  0  0  0
  -26.4710  -37.4090   23.7980 N   0  0  0  0  0  0  0  0  0  0  0  0
  -26.0710  -38.3350   23.9320 H   0  0  0  0  0  0  0  0  0  0  0  0
  -26.3400  -31.7620   25.1950 C   0  0  1  0  0  0  0  0  0  0  0  0
  -25.2180  -31.5570   26.2410 C   0  0  0  0  0  1  0  0  0  0  0  0
  -26.9180  -30.3690   24.8560 C   0  0  0  0  0  1  0  0  0  0  0  0
  -27.4820  -32.5580   25.8690 C   0  0  0  0  0  1  0  0  0  0  0  0
  -29.4560  -18.2380   19.8670 C   0  0  0  0  0  2  0  0  0  0  0  0
  -30.4020  -15.3990   20.2610 C   0  0  0  0  0  0  0  0  0  0  0  0
  -30.4200  -12.9240   19.4280 C   0  0  0  0  0  2  0  0  0  0  0  0
  -29.5140  -12.7000   18.1880 C   0  0  0  0  0  2  0  0  0  0  0  0
  -28.0670  -12.4090   18.6180 C   0  0  0  0  0  2  0  0  0  0  0  0
  -27.6000  -13.3680   19.7400 C   0  0  0  0  0  3  0  0  0  0  0  0
  -28.6380  -13.5390   20.8740 C   0  0  0  0  0  2  0  0  0  0  0  0
  -29.8680  -14.0680   20.2590 N   0  0  0  0  0  0  0  0  0  0  0  0
  -31.5930  -15.4120   19.9160 O   0  0  0  0  0  0  0  0  0  0  0  0
  -29.6350  -16.6670   20.4790 N   0  0  0  0  0  0  0  0  0  0  0  0
  -28.7780  -16.4260   20.9550 H   0  0  0  0  0  0  0  0  0  0  0  0
  -25.2220  -13.9050   20.4780 C   0  0  0  0  0  0  0  0  0  0  0  0
  -24.1650  -13.1210   20.8440 C   0  0  0  0  0  0  0  0  0  0  0  0
  -24.6420  -11.7740   20.8190 C   0  0  0  0  0  0  0  0  0  0  0  0
  -26.2730  -13.0390   20.2410 N   0  0  0  0  0  0  0  0  0  0  0  0
  -25.9370  -11.7500   20.5130 N   0  0  0  0  0  0  0  0  0  0  0  0
  -23.9230  -10.5070   21.0070 C   0  0  0  0  0  0  0  0  0  0  0  0
  -24.3470   -9.5490   21.9540 C   0  0  0  0  0  3  0  0  0  0  0  0
  -23.6240   -8.3490   22.1320 C   0  0  0  0  0  3  0  0  0  0  0  0
  -22.4620   -8.1000   21.3640 C   0  0  0  0  0  0  0  0  0  0  0  0
  -22.0570   -9.0470   20.4080 C   0  0  0  0  0  3  0  0  0  0  0  0
  -22.7810  -10.2360   20.2270 C   0  0  0  0  0  3  0  0  0  0  0  0
  -21.7110   -6.9520   21.4510 O   0  0  0  0  0  0  0  0  0  0  0  0
  -21.6390   -6.2250   22.6130 C   0  0  0  0  0  0  0  0  0  0  0  0
  -21.1640   -6.7890   23.8160 C   0  0  0  0  0  3  0  0  0  0  0  0
  -21.0410   -5.9880   24.9690 C   0  0  0  0  0  3  0  0  0  0  0  0
  -21.3810   -4.6240   24.9180 C   0  0  0  0  0  0  0  0  0  0  0  0
  -21.8500   -4.0580   23.7190 C   0  0  0  0  0  3  0  0  0  0  0  0
  -21.9740   -4.8570   22.5690 C   0  0  0  0  0  0  0  0  0  0  0  0
  -22.4050   -4.3020   21.4100 F   0  0  0  0  0  0  0  0  0  0  0  0
  -21.2560   -3.8520   26.0240 F   0  0  0  0  0  0  0  0  0  0  0  0
  -22.7630  -13.5890   21.1030 C   0  0  0  0  0  0  0  0  0  0  0  0
  -22.0320  -12.8880   21.9630 N   0  0  0  0  0  0  0  0  0  0  0  0
  -22.3260  -14.6130   20.5790 O   0  0  0  0  0  0  0  0  0  0  0  0
  -22.4000  -12.0620   22.4090 H   0  0  0  0  0  0  0  0  0  0  0  0
  -21.0910  -13.1850   22.1790 H   0  0  0  0  0  0  0  0  0  0  0  0
  -25.3740  -15.2770   20.2970 N   0  0  0  0  0  0  0  0  0  0  0  0
  -24.5960  -15.9210   20.3970 H   0  0  0  0  0  0  0  0  0  0  0  0
  -26.2090  -15.7180   19.9350 H   0  0  0  0  0  0  0  0  0  0  0  0
  1  3  2  0
  1  5  1  0
  3  4  1  0
  4  2  2  0
  5  9  2  0
  6  4  1  0
  7  8  1  0
  7  6  1  0
  8  3  1  0
  8 10  1  0
  9  2  1  0
 11 22  2  0
 12 10  1  0
 12 17  1  0
 13 21  1  0
 13 23  1  0
 14 20  1  0
 14 16  1  0
 15 21  1  0
 16 17  2  0
 16 15  1  0
 18 12  2  0
 19 18  1  0
 19 14  2  0
 20 13  1  0
 21 11  1  0
 23 25  2  0
 24 23  1  0
 26 24  1  0
 27 36  2  0
 27 32  1  0
 28 24  1  0
 28 32  1  0
 29 28  1  0
 30 31  1  0
 30 29  1  0
 31 27  1  0
 32 33  2  0
 33 34  1  0
 35 34  2  0
 36 35  1  0
 37 11  1  0
 37 38  1  0
 37 47  1  0
 38 41  1  0
 39 43  1  0
 39 38  1  0
 40 39  2  0
 43 42  1  0
 45 43  1  0
 45 46  1  0
 45 44  1  0
 47 50  1  1
 47 48  1  0
 49 47  1  0
 51  5  1  0
 51 60  1  0
 52 60  1  0
 53 58  1  0
 54 55  1  0
 54 53  1  0
 56 55  1  0
 56 65  1  0
 56 57  1  0
 58 52  1  0
 58 57  1  0
 59 52  2  0
 60 61  1  0
 62 63  2  0
 63 82  1  0
 64 63  1  0
 64 67  1  0
 65 62  1  0
 65 66  1  0
 66 64  2  0
 67 68  1  0
 68 69  2  0
 70 73  1  0
 70 69  1  0
 71 70  2  0
 72 71  1  0
 72 67  2  0
 73 74  1  0
 74 75  1  0
 75 76  2  0
 77 76  1  0
 77 81  1  0
 78 77  2  0
 79 74  2  0
 79 78  1  0
 80 79  1  0
 82 83  1  0
 83 86  1  0
 83 85  1  0
 84 82  2  0
 87 88  1  0
 87 62  1  0
 89 87  1  0
M  ISO  4   8 101  10 101  52 100  60 100
M  END
>  <TORSDO>  (83) 
F 17

>  <SCORE>  (83) 
-16.700

>  <name>  (83) 
83

>  <ligand_id>  (83) 
83

>  <original_smiles>  (83) 
[H]c1nc(C([H])([H])N([H])C(=O)N2C([H])([H])C([H])([H])C([H])([H])C([H])(n3nc(-c4c([H])c([H])c(Oc5c([H])c([H])c(F)c([H])c5F)c([H])c4[H])c(C(=O)N([H])[H])c3N([H])[H])C2([H])[H])c([H])c2c1C([H])([H])C([H])([H])C2([H])Oc1c([H])c([H])c2c(c1[H])C([H])([H])N(C(=O)C([H])(N([H])C(=O)C([H])(N([H])C([H])([H])[H])C([H])([H])[H])C(C([H])([H])[H])(C([H])([H])[H])C([H])([H])[H])C([H])(C(=O)N([H])C1([H])c3c([H])c([H])c([H])c([H])c3C([H])([H])C([H])([H])C1([H])[H])C2([H])[H]

>  <smiles>  (83) 
[H]c1nc(C([H])([H])N([H])C(=O)N2C([H])([H])C([H])([H])C([H])([H])C([H])(n3nc(-c4c([H])c([H])c(Oc5c([H])c([H])c(F)c([H])c5F)c([H])c4[H])c(C(=O)N([H])[H])c3N([H])[H])C2([H])[H])c([H])c2c1C([H])([H])C([H])([H])C2([H])Oc1c([H])c([H])c2c(c1[H])C([H])([H])N(C(=O)C([H])(N([H])C(=O)C([H])(N([H])C([H])([H])[H])C([H])([H])[H])C(C([H])([H])[H])(C([H])([H])[H])C([H])([H])[H])C([H])(C(=O)N([H])C1([H])c3c([H])c([H])c([H])c([H])c3C([H])([H])C([H])([H])C1([H])[H])C2([H])[H]

$$$$
84:0:0
     RDKit          3D

 97106  0  0  1  0  0  0  0  0999 V2000
  -29.5690  -21.9730   19.7340 C   0  0  0  0  0  3  0  0  0  0  0  0
  -30.7080  -22.2420   21.8520 C   0  0  0  0  0  3  0  0  0  0  0  0
  -29.4890  -20.5750   19.9370 C   0  0  0  0  0  0  0  0  0  0  0  0
  -30.6380  -20.8530   22.0840 C   0  0  0  0  0  0  0  0  0  0  0  0
  -30.0470  -20.0050   21.1140 C   0  0  0  0  0  0  0  0  0  0  0  0
  -30.1980  -22.8210   20.6770 C   0  0  0  0  0  0  0  0  0  0  0  0
  -27.5130  -20.1660   18.2410 C   0  0  0  0  0  2  0  0  0  0  0  0
  -27.5390  -18.9790   19.1740 C   0  0  0  0  0  2  0  0  0  0  0  0
  -28.8150  -19.7370   18.8830 C   0  0  0  0  0  3  0  0  0  0  0  0
  -30.0290  -18.6180   21.3360 N   0  0  0  0  0  0  0  0  0  0  0  0
  -30.0450  -18.3820   22.3220 H   0  0  0  0  0  0  0  0  0  0  0  0
  -31.0080  -17.8560   20.5660 C   0  0  0  0  0  2  0  0  0  0  0  0
  -31.5890  -16.6840   21.3820 C   0  0  0  0  0  2  0  0  0  0  0  0
  -31.4390  -14.5140   20.1700 C   0  0  0  0  0  0  0  0  0  0  0  0
  -30.9700  -12.4440   18.9150 C   0  0  0  0  0  2  0  0  0  0  0  0
  -30.0210  -12.7340   17.7360 C   0  0  0  0  0  2  0  0  0  0  0  0
  -28.5500  -12.6690   18.1880 C   0  0  0  0  0  2  0  0  0  0  0  0
  -28.2830  -13.4960   19.4730 C   0  0  0  0  0  3  0  0  0  0  0  0
  -29.3350  -13.1760   20.5590 C   0  0  0  0  0  2  0  0  0  0  0  0
  -30.6730  -13.4080   19.9840 N   0  0  0  0  0  0  0  0  0  0  0  0
  -32.4990  -14.7120   19.5690 O   0  0  0  0  0  0  0  0  0  0  0  0
  -30.9560  -15.4130   21.0390 N   0  0  0  0  0  0  0  0  0  0  0  0
  -30.0770  -15.1960   21.4830 H   0  0  0  0  0  0  0  0  0  0  0  0
  -25.9200  -14.2250   20.1910 C   0  0  0  0  0  0  0  0  0  0  0  0
  -24.8200  -13.5080   20.5780 C   0  0  0  0  0  0  0  0  0  0  0  0
  -25.2170  -12.1370   20.5590 C   0  0  0  0  0  0  0  0  0  0  0  0
  -26.9210  -13.2940   19.9630 N   0  0  0  0  0  0  0  0  0  0  0  0
  -26.5010  -12.0330   20.2400 N   0  0  0  0  0  0  0  0  0  0  0  0
  -24.4350  -10.9110   20.7720 C   0  0  0  0  0  0  0  0  0  0  0  0
  -24.8200   -9.9450   21.7280 C   0  0  0  0  0  3  0  0  0  0  0  0
  -24.0420   -8.7850   21.9260 C   0  0  0  0  0  3  0  0  0  0  0  0
  -22.8640   -8.5820   21.1680 C   0  0  0  0  0  0  0  0  0  0  0  0
  -22.4980   -9.5350   20.2030 C   0  0  0  0  0  3  0  0  0  0  0  0
  -23.2760  -10.6870   20.0020 C   0  0  0  0  0  3  0  0  0  0  0  0
  -22.0610   -7.4730   21.2750 O   0  0  0  0  0  0  0  0  0  0  0  0
  -21.9110   -6.8030   22.4630 C   0  0  0  0  0  0  0  0  0  0  0  0
  -21.4640   -7.4520   23.6340 C   0  0  0  0  0  3  0  0  0  0  0  0
  -21.2590   -6.7110   24.8150 C   0  0  0  0  0  3  0  0  0  0  0  0
  -21.4910   -5.3240   24.8260 C   0  0  0  0  0  0  0  0  0  0  0  0
  -21.9310   -4.6740   23.6590 C   0  0  0  0  0  3  0  0  0  0  0  0
  -22.1380   -5.4120   22.4800 C   0  0  0  0  0  0  0  0  0  0  0  0
  -22.5420   -4.7770   21.3530 F   0  0  0  0  0  0  0  0  0  0  0  0
  -21.2860   -4.6100   25.9580 F   0  0  0  0  0  0  0  0  0  0  0  0
  -23.4500  -14.0530   20.8590 C   0  0  0  0  0  0  0  0  0  0  0  0
  -22.7140  -13.4230   21.7700 N   0  0  0  0  0  0  0  0  0  0  0  0
  -23.0400  -15.0730   20.3070 O   0  0  0  0  0  0  0  0  0  0  0  0
  -23.0580  -12.5980   22.2390 H   0  0  0  0  0  0  0  0  0  0  0  0
  -21.7950  -13.7720   22.0020 H   0  0  0  0  0  0  0  0  0  0  0  0
  -26.1470  -15.5850   19.9970 N   0  0  0  0  0  0  0  0  0  0  0  0
  -25.4180  -16.2790   20.1130 H   0  0  0  0  0  0  0  0  0  0  0  0
  -27.0260  -15.9820   19.6860 H   0  0  0  0  0  0  0  0  0  0  0  0
  -30.1860  -20.2290   24.5070 C   0  0  0  0  0  1  0  0  0  0  0  0
  -31.2240  -20.3080   23.3810 C   0  0  0  0  0  2  0  0  0  0  0  0
  -30.3830  -24.1850   20.5410 O   0  0  0  0  0  0  0  0  0  0  0  0
  -30.0610  -24.8570   19.3180 C   0  0  0  0  0  2  0  0  0  0  0  0
  -28.6010  -25.3460   19.3320 C   0  0  0  0  0  2  0  0  0  0  0  0
  -28.5560  -26.6790   19.8490 O   0  0  0  0  0  0  0  0  0  0  0  0
  -24.7260  -31.6950   23.1040 C   0  0  0  0  0  0  0  0  0  0  0  0
  -27.3560  -27.3580   19.8620 C   0  0  0  0  0  0  0  0  0  0  0  0
  -23.5050  -30.3320   21.4400 C   0  0  0  0  0  3  0  0  0  0  0  0
  -24.9460  -28.8420   19.9560 C   0  0  0  0  0  0  0  0  0  0  0  0
  -26.0250  -30.7080   21.2210 C   0  0  0  0  0  2  0  0  0  0  0  0
  -26.1060  -29.3550   20.5440 C   0  0  0  0  0  0  0  0  0  0  0  0
  -27.3100  -28.6190   20.4990 C   0  0  0  0  0  3  0  0  0  0  0  0
  -26.1720  -26.8550   19.2690 C   0  0  0  0  0  3  0  0  0  0  0  0
  -24.9720  -27.5890   19.3190 C   0  0  0  0  0  3  0  0  0  0  0  0
  -23.6990  -29.6910   20.0400 C   0  0  0  0  0  2  0  0  0  0  0  0
  -24.7710  -30.9250   21.9810 N   0  0  0  0  0  0  0  0  0  0  0  0
  -23.6510  -31.9470   23.6660 O   0  0  0  0  0  0  0  0  0  0  0  0
  -22.8710  -29.2820   22.3800 C   0  0  0  0  0  0  0  0  0  0  0  0
  -21.5440  -29.1100   22.2770 N   0  0  0  0  0  0  0  0  0  0  0  0
  -23.5700  -28.6250   23.1570 O   0  0  0  0  0  0  0  0  0  0  0  0
  -21.0410  -29.6920   21.6220 H   0  0  0  0  0  0  0  0  0  0  0  0
  -18.1750  -27.9190   22.8110 C   0  0  0  0  0  0  0  0  0  0  0  0
  -20.7400  -28.1510   23.0340 C   0  0  0  0  0  3  0  0  0  0  0  0
  -20.8200  -26.7400   22.4070 C   0  0  0  0  0  2  0  0  0  0  0  0
  -19.6930  -26.4600   21.4070 C   0  0  0  0  0  2  0  0  0  0  0  0
  -18.3270  -26.5920   22.0870 C   0  0  0  0  0  2  0  0  0  0  0  0
  -19.3080  -28.6580   23.2420 C   0  0  0  0  0  0  0  0  0  0  0  0
  -19.1130  -29.9030   23.8790 C   0  0  0  0  0  3  0  0  0  0  0  0
  -17.8170  -30.4080   24.0900 C   0  0  0  0  0  3  0  0  0  0  0  0
  -16.6970  -29.6650   23.6750 C   0  0  0  0  0  3  0  0  0  0  0  0
  -16.8780  -28.4220   23.0430 C   0  0  0  0  0  3  0  0  0  0  0  0
  -26.0180  -32.3140   23.7240 C   0  0  0  0  0  3  0  0  0  0  0  0
  -25.7030  -33.6940   24.1160 N   0  0  0  0  0  0  0  0  0  0  0  0
  -26.0110  -34.7780   23.3930 C   0  0  0  0  0  0  0  0  0  0  0  0
  -26.6650  -34.7230   22.3470 O   0  0  0  0  0  0  0  0  0  0  0  0
  -25.1200  -33.8110   24.9320 H   0  0  0  0  0  0  0  0  0  0  0  0
  -24.2560  -36.5630   23.1400 C   0  0  0  0  0  1  0  0  0  0  0  0
  -25.5170  -36.1430   23.9120 C   0  0  0  0  0  3  0  0  0  0  0  0
  -27.6560  -37.0220   24.7370 C   0  0  0  0  0  1  0  0  0  0  0  0
  -26.5360  -37.2120   23.8190 N   0  0  0  0  0  0  0  0  0  0  0  0
  -26.1220  -38.1210   24.0090 H   0  0  0  0  0  0  0  0  0  0  0  0
  -26.5720  -31.4960   24.9550 C   0  0  1  0  0  0  0  0  0  0  0  0
  -25.5090  -31.2080   26.0410 C   0  0  0  0  0  1  0  0  0  0  0  0
  -27.1510  -30.1390   24.4920 C   0  0  0  0  0  1  0  0  0  0  0  0
  -27.7360  -32.2700   25.6180 C   0  0  0  0  0  1  0  0  0  0  0  0
  1  3  2  0
  1  6  1  0
  2  4  1  0
  3  5  1  0
  4 53  1  0
  5 10  1  0
  5  4  2  0
  6  2  2  0
  7  9  1  0
  7  8  1  0
  9  8  1  0
  9  3  1  0
 10 11  1  0
 12 10  1  0
 12 13  1  0
 14 22  1  0
 15 20  1  0
 16 17  1  0
 16 15  1  0
 18 17  1  0
 18 27  1  0
 18 19  1  0
 20 14  1  0
 20 19  1  0
 21 14  2  0
 22 13  1  0
 22 23  1  0
 24 25  2  0
 25 44  1  0
 26 25  1  0
 26 29  1  0
 27 24  1  0
 27 28  1  0
 28 26  2  0
 29 30  1  0
 30 31  2  0
 32 35  1  0
 32 31  1  0
 33 32  2  0
 34 33  1  0
 34 29  2  0
 35 36  1  0
 36 41  2  0
 36 37  1  0
 37 38  2  0
 38 39  1  0
 39 43  1  0
 40 39  2  0
 41 40  1  0
 42 41  1  0
 44 45  1  0
 45 48  1  0
 45 47  1  0
 46 44  2  0
 49 50  1  0
 49 24  1  0
 51 49  1  0
 53 52  1  0
 54  6  1  0
 55 56  1  0
 55 54  1  0
 56 57  1  0
 57 59  1  0
 58 69  2  0
 59 64  1  0
 60 68  1  0
 60 70  1  0
 61 67  1  0
 61 63  1  0
 62 68  1  0
 63 62  1  0
 64 63  2  0
 65 66  1  0
 65 59  2  0
 66 61  2  0
 67 60  1  0
 68 58  1  0
 70 72  2  0
 71 70  1  0
 73 71  1  0
 74 83  2  0
 74 79  1  0
 75 71  1  0
 75 79  1  0
 76 75  1  0
 77 78  1  0
 77 76  1  0
 78 74  1  0
 79 80  2  0
 80 81  1  0
 82 81  2  0
 83 82  1  0
 84 58  1  0
 84 85  1  0
 84 94  1  0
 85 88  1  0
 86 90  1  0
 86 85  1  0
 87 86  2  0
 90 89  1  0
 92 90  1  0
 92 93  1  0
 92 91  1  0
 94 97  1  1
 94 95  1  0
 96 94  1  0
M  ISO  4  14 100  22 100  56 101  57 101
M  END
>  <TORSDO>  (84) 
F 24

>  <SCORE>  (84) 
-11.861

>  <name>  (84) 
84

>  <ligand_id>  (84) 
84

>  <original_smiles>  (84) 
[H]c1c([H])c([H])c2c(c1[H])C([H])([H])C([H])([H])C([H])([H])C2([H])N([H])C(=O)C1([H])N(C(=O)C([H])(N([H])C(=O)C([H])(N([H])C([H])([H])[H])C([H])([H])[H])C(C([H])([H])[H])(C([H])([H])[H])C([H])([H])[H])C([H])([H])c2c([H])c(OC([H])([H])C([H])([H])Oc3c([H])c(C([H])([H])C([H])([H])[H])c(N([H])C([H])([H])C([H])([H])N([H])C(=O)N4C([H])([H])C([H])([H])C([H])([H])C([H])(n5nc(-c6c([H])c([H])c(Oc7c([H])c([H])c(F)c([H])c7F)c([H])c6[H])c(C(=O)N([H])[H])c5N([H])[H])C4([H])[H])c(C4([H])C([H])([H])C4([H])[H])c3[H])c([H])c([H])c2C1([H])[H]

>  <smiles>  (84) 
[H]c1c([H])c([H])c2c(c1[H])C([H])([H])C([H])([H])C([H])([H])C2([H])N([H])C(=O)C1([H])N(C(=O)C([H])(N([H])C(=O)C([H])(N([H])C([H])([H])[H])C([H])([H])[H])C(C([H])([H])[H])(C([H])([H])[H])C([H])([H])[H])C([H])([H])c2c([H])c(OC([H])([H])C([H])([H])Oc3c([H])c(C([H])([H])C([H])([H])[H])c(N([H])C([H])([H])C([H])([H])N([H])C(=O)N4C([H])([H])C([H])([H])C([H])([H])C([H])(n5nc(-c6c([H])c([H])c(Oc7c([H])c([H])c(F)c([H])c7F)c([H])c6[H])c(C(=O)N([H])[H])c5N([H])[H])C4([H])[H])c(C4([H])C([H])([H])C4([H])[H])c3[H])c([H])c([H])c2C1([H])[H]

$$$$
85:0:0
     RDKit          3D

 93102  0  0  1  0  0  0  0  0999 V2000
  -28.8440  -18.9390   19.2030 C   0  0  0  0  0  3  0  0  0  0  0  0
  -28.4070  -20.2900   19.0440 C   0  0  0  0  0  3  0  0  0  0  0  0
  -29.7220  -21.0110   20.9390 C   0  0  0  0  0  3  0  0  0  0  0  0
  -29.7370  -18.6140   20.2460 C   0  0  0  0  0  0  0  0  0  0  0  0
  -30.1350  -19.6510   21.1020 C   0  0  0  0  0  0  0  0  0  0  0  0
  -28.8400  -21.3640   19.8800 C   0  0  0  0  0  0  0  0  0  0  0  0
  -31.0830  -19.1280   22.1560 C   0  0  0  0  0  3  0  0  0  0  0  0
  -30.5070  -17.2910   20.5360 C   0  0  0  0  0  3  0  0  0  0  0  0
  -31.1210  -17.5810   21.9380 C   0  0  0  0  0  3  0  0  0  0  0  0
  -30.6830  -19.5300   23.5820 C   0  0  0  0  0  1  0  0  0  0  0  0
  -32.5250  -16.9880   22.1390 C   0  0  0  0  0  1  0  0  0  0  0  0
  -30.5570  -14.7790   20.0560 C   0  0  0  0  0  0  0  0  0  0  0  0
  -30.2340  -12.5440   19.0150 C   0  0  0  0  0  2  0  0  0  0  0  0
  -29.2370  -12.6610   17.8440 C   0  0  0  0  0  2  0  0  0  0  0  0
  -27.7920  -12.4940   18.3510 C   0  0  0  0  0  2  0  0  0  0  0  0
  -27.4910  -13.3680   19.5990 C   0  0  0  0  0  3  0  0  0  0  0  0
  -28.6090  -13.2620   20.6610 C   0  0  0  0  0  2  0  0  0  0  0  0
  -29.8790  -13.5880   20.0010 N   0  0  0  0  0  0  0  0  0  0  0  0
  -31.7050  -14.8580   19.6130 O   0  0  0  0  0  0  0  0  0  0  0  0
  -29.8910  -15.9160   20.4430 N   0  0  0  0  0  0  0  0  0  0  0  0
  -28.9310  -15.8170   20.7340 H   0  0  0  0  0  0  0  0  0  0  0  0
  -25.1480  -13.9470   20.4730 C   0  0  0  0  0  0  0  0  0  0  0  0
  -24.1030  -13.1660   20.8830 C   0  0  0  0  0  0  0  0  0  0  0  0
  -24.5590  -11.8150   20.7920 C   0  0  0  0  0  0  0  0  0  0  0  0
  -26.1750  -13.0730   20.1560 N   0  0  0  0  0  0  0  0  0  0  0  0
  -25.8300  -11.7830   20.4100 N   0  0  0  0  0  0  0  0  0  0  0  0
  -23.8400  -10.5500   20.9910 C   0  0  0  0  0  0  0  0  0  0  0  0
  -24.2980   -9.5750   21.9040 C   0  0  0  0  0  3  0  0  0  0  0  0
  -23.5790   -8.3750   22.0920 C   0  0  0  0  0  3  0  0  0  0  0  0
  -22.3860   -8.1410   21.3650 C   0  0  0  0  0  0  0  0  0  0  0  0
  -21.9470   -9.1050   20.4410 C   0  0  0  0  0  3  0  0  0  0  0  0
  -22.6670  -10.2960   20.2510 C   0  0  0  0  0  3  0  0  0  0  0  0
  -21.6360   -6.9940   21.4640 O   0  0  0  0  0  0  0  0  0  0  0  0
  -21.6050   -6.2510   22.6170 C   0  0  0  0  0  0  0  0  0  0  0  0
  -21.1580   -6.7930   23.8410 C   0  0  0  0  0  3  0  0  0  0  0  0
  -21.0760   -5.9750   24.9850 C   0  0  0  0  0  3  0  0  0  0  0  0
  -21.4300   -4.6160   24.9070 C   0  0  0  0  0  0  0  0  0  0  0  0
  -21.8700   -4.0720   23.6870 C   0  0  0  0  0  3  0  0  0  0  0  0
  -21.9540   -4.8870   22.5440 C   0  0  0  0  0  0  0  0  0  0  0  0
  -22.3580   -4.3540   21.3660 F   0  0  0  0  0  0  0  0  0  0  0  0
  -21.3450   -3.8270   26.0030 F   0  0  0  0  0  0  0  0  0  0  0  0
  -22.7250  -13.6390   21.2440 C   0  0  0  0  0  0  0  0  0  0  0  0
  -22.0410  -12.9180   22.1270 N   0  0  0  0  0  0  0  0  0  0  0  0
  -22.2640  -14.6810   20.7800 O   0  0  0  0  0  0  0  0  0  0  0  0
  -22.4280  -12.0750   22.5230 H   0  0  0  0  0  0  0  0  0  0  0  0
  -21.1190  -13.2150   22.4120 H   0  0  0  0  0  0  0  0  0  0  0  0
  -25.3050  -15.3220   20.3200 N   0  0  0  0  0  0  0  0  0  0  0  0
  -24.5470  -15.9730   20.4880 H   0  0  0  0  0  0  0  0  0  0  0  0
  -26.1320  -15.7680   19.9420 H   0  0  0  0  0  0  0  0  0  0  0  0
  -28.3450  -22.6540   19.5950 O   0  0  0  0  0  0  0  0  0  0  0  0
  -28.8200  -23.9120   20.1850 C   0  0  0  0  0  2  0  0  0  0  0  0
  -27.8590  -25.1200   19.7820 C   0  0  0  0  0  2  0  0  0  0  0  0
  -28.1320  -26.5560   20.0660 O   0  0  0  0  0  0  0  0  0  0  0  0
  -24.5280  -31.9230   23.2960 C   0  0  0  0  0  0  0  0  0  0  0  0
  -27.0310  -27.4370   20.0430 C   0  0  0  0  0  0  0  0  0  0  0  0
  -23.2740  -30.5730   21.6550 C   0  0  0  0  0  3  0  0  0  0  0  0
  -24.6780  -29.0670   20.1420 C   0  0  0  0  0  0  0  0  0  0  0  0
  -25.8100  -30.8870   21.4110 C   0  0  0  0  0  2  0  0  0  0  0  0
  -25.8660  -29.5280   20.7230 C   0  0  0  0  0  0  0  0  0  0  0  0
  -27.0460  -28.7240   20.6680 C   0  0  0  0  0  3  0  0  0  0  0  0
  -25.8200  -27.0480   19.4200 C   0  0  0  0  0  3  0  0  0  0  0  0
  -24.6580  -27.8320   19.4810 C   0  0  0  0  0  3  0  0  0  0  0  0
  -23.4460  -29.9410   20.2490 C   0  0  0  0  0  2  0  0  0  0  0  0
  -24.5580  -31.1430   22.1760 N   0  0  0  0  0  0  0  0  0  0  0  0
  -23.4610  -32.1890   23.8670 O   0  0  0  0  0  0  0  0  0  0  0  0
  -22.6370  -29.5290   22.6030 C   0  0  0  0  0  0  0  0  0  0  0  0
  -21.3150  -29.3230   22.4760 N   0  0  0  0  0  0  0  0  0  0  0  0
  -23.3310  -28.9090   23.4140 O   0  0  0  0  0  0  0  0  0  0  0  0
  -20.8130  -29.8770   21.7960 H   0  0  0  0  0  0  0  0  0  0  0  0
  -17.9690  -28.0340   22.9540 C   0  0  0  0  0  0  0  0  0  0  0  0
  -20.5170  -28.3620   23.2400 C   0  0  0  0  0  3  0  0  0  0  0  0
  -20.6620  -26.9340   22.6620 C   0  0  0  0  0  2  0  0  0  0  0  0
  -19.5750  -26.5860   21.6400 C   0  0  0  0  0  2  0  0  0  0  0  0
  -18.1860  -26.6920   22.2760 C   0  0  0  0  0  2  0  0  0  0  0  0
  -19.0630  -28.8250   23.3920 C   0  0  0  0  0  0  0  0  0  0  0  0
  -18.8070  -30.0800   23.9850 C   0  0  0  0  0  3  0  0  0  0  0  0
  -17.4880  -30.5450   24.1450 C   0  0  0  0  0  3  0  0  0  0  0  0
  -16.4080  -29.7510   23.7220 C   0  0  0  0  0  3  0  0  0  0  0  0
  -16.6490  -28.4980   23.1320 C   0  0  0  0  0  3  0  0  0  0  0  0
  -25.8290  -32.5360   23.8970 C   0  0  0  0  0  3  0  0  0  0  0  0
  -26.3740  -31.7360   25.1420 C   0  0  1  0  0  0  0  0  0  0  0  0
  -25.3030  -31.4650   26.2240 C   0  0  0  0  0  1  0  0  0  0  0  0
  -26.9570  -30.3710   24.7050 C   0  0  0  0  0  1  0  0  0  0  0  0
  -27.5330  -32.5190   25.8020 C   0  0  0  0  0  1  0  0  0  0  0  0
  -25.5350  -33.9280   24.2650 N   0  0  0  0  0  0  0  0  0  0  0  0
  -25.8450  -34.9960   23.5170 C   0  0  0  0  0  0  0  0  0  0  0  0
  -26.4800  -34.9120   22.4620 O   0  0  0  0  0  0  0  0  0  0  0  0
  -24.9670  -34.0680   25.0880 H   0  0  0  0  0  0  0  0  0  0  0  0
  -24.1140  -36.8020   23.2540 C   0  0  0  0  0  1  0  0  0  0  0  0
  -25.3780  -36.3760   24.0190 C   0  0  0  0  0  3  0  0  0  0  0  0
  -27.5340  -37.2400   24.8120 C   0  0  0  0  0  1  0  0  0  0  0  0
  -26.4110  -37.4270   23.8980 N   0  0  0  0  0  0  0  0  0  0  0  0
  -26.0120  -38.3470   24.0680 H   0  0  0  0  0  0  0  0  0  0  0  0
  1  4  1  0
  2  1  2  0
  2  6  1  0
  3  5  1  0
  4  8  1  0
  4  5  2  0
  5  7  1  0
  6  3  2  0
  7 10  1  0
  8 20  1  0
  8  9  1  0
  9 11  1  0
  9  7  1  0
 12 20  1  0
 13 18  1  0
 14 15  1  0
 14 13  1  0
 16 15  1  0
 16 25  1  0
 16 17  1  0
 18 12  1  0
 18 17  1  0
 19 12  2  0
 20 21  1  0
 22 23  2  0
 23 42  1  0
 24 23  1  0
 24 27  1  0
 25 26  1  0
 25 22  1  0
 26 24  2  0
 27 28  1  0
 28 29  2  0
 30 33  1  0
 30 29  1  0
 31 30  2  0
 32 31  1  0
 32 27  2  0
 33 34  1  0
 34 35  1  0
 35 36  2  0
 37 36  1  0
 37 41  1  0
 38 37  2  0
 39 34  2  0
 39 38  1  0
 40 39  1  0
 42 43  1  0
 43 46  1  0
 43 45  1  0
 44 42  2  0
 47 22  1  0
 47 48  1  0
 49 47  1  0
 50  6  1  0
 50 51  1  0
 52 53  1  0
 52 51  1  0
 54 65  2  0
 55 53  1  0
 55 60  1  0
 56 64  1  0
 56 66  1  0
 57 63  1  0
 57 59  1  0
 58 64  1  0
 59 58  1  0
 60 59  2  0
 61 62  1  0
 61 55  2  0
 62 57  2  0
 63 56  1  0
 64 54  1  0
 66 68  2  0
 67 66  1  0
 69 67  1  0
 70 79  2  0
 70 75  1  0
 71 67  1  0
 71 75  1  0
 72 71  1  0
 73 74  1  0
 73 72  1  0
 74 70  1  0
 75 76  2  0
 76 77  1  0
 78 77  2  0
 79 78  1  0
 80 54  1  0
 80 85  1  0
 80 81  1  0
 81 84  1  1
 81 82  1  0
 83 81  1  0
 85 88  1  0
 86 90  1  0
 86 85  1  0
 87 86  2  0
 90 89  1  0
 92 90  1  0
 92 93  1  0
 92 91  1  0
M  ISO  4  12 100  20 100  52 101  53 101
M  END
>  <TORSDO>  (85) 
F 19

>  <SCORE>  (85) 
-11.558

>  <name>  (85) 
85

>  <ligand_id>  (85) 
85

>  <original_smiles>  (85) 
[H]c1c([H])c([H])c2c(c1[H])C([H])([H])C([H])([H])C([H])([H])C2([H])N([H])C(=O)C1([H])N(C(=O)C([H])(N([H])C(=O)C([H])(N([H])C([H])([H])[H])C([H])([H])[H])C(C([H])([H])[H])(C([H])([H])[H])C([H])([H])[H])C([H])([H])c2c([H])c(OC([H])([H])C([H])([H])Oc3c([H])c([H])c4c(c3[H])C([H])(C([H])([H])[H])C([H])(C([H])([H])[H])C4([H])N([H])C(=O)N3C([H])([H])C([H])([H])C([H])([H])C([H])(n4nc(-c5c([H])c([H])c(Oc6c([H])c([H])c(F)c([H])c6F)c([H])c5[H])c(C(=O)N([H])[H])c4N([H])[H])C3([H])[H])c([H])c([H])c2C1([H])[H]

>  <smiles>  (85) 
[H]c1c([H])c([H])c2c(c1[H])C([H])([H])C([H])([H])C([H])([H])C2([H])N([H])C(=O)C1([H])N(C(=O)C([H])(N([H])C(=O)C([H])(N([H])C([H])([H])[H])C([H])([H])[H])C(C([H])([H])[H])(C([H])([H])[H])C([H])([H])[H])C([H])([H])c2c([H])c(OC([H])([H])C([H])([H])Oc3c([H])c([H])c4c(c3[H])C([H])(C([H])([H])[H])C([H])(C([H])([H])[H])C4([H])N([H])C(=O)N3C([H])([H])C([H])([H])C([H])([H])C([H])(n4nc(-c5c([H])c([H])c(Oc6c([H])c([H])c(F)c([H])c6F)c([H])c5[H])c(C(=O)N([H])[H])c4N([H])[H])C3([H])[H])c([H])c([H])c2C1([H])[H]

$$$$
86:0:0
     RDKit          3D

 99108  0  0  1  0  0  0  0  0999 V2000
  -31.2790  -23.6120   22.2820 C   0  0  0  0  0  3  0  0  0  0  0  0
  -31.3080  -24.9530   21.8710 C   0  0  0  0  0  3  0  0  0  0  0  0
  -28.8950  -23.8120   22.7250 C   0  0  0  0  0  3  0  0  0  0  0  0
  -30.0630  -23.0270   22.6850 C   0  0  0  0  0  0  0  0  0  0  0  0
  -28.9250  -25.1740   22.3530 C   0  0  0  0  0  0  0  0  0  0  0  0
  -30.1410  -25.7420   21.8730 C   0  0  0  0  0  0  0  0  0  0  0  0
  -27.6470  -25.9690   22.5610 C   0  0  0  0  0  1  0  0  0  0  0  0
  -30.0120  -21.5540   23.0400 C   0  0  0  0  0  2  0  0  0  0  0  0
  -30.2510  -20.7730   21.8160 N   0  0  0  0  0  4  0  0  0  0  0  0
  -29.7020  -21.2020   21.0880 H   0  0  0  0  0  0  0  0  0  0  0  0
  -31.2180  -20.8840   21.5600 H   0  0  0  0  0  0  0  0  0  0  0  0
  -29.6200  -17.2990   20.3380 C   0  0  0  0  0  2  0  0  0  0  0  0
  -30.6040  -16.9990   22.6410 C   0  0  0  0  0  2  0  0  0  0  0  0
  -29.8930  -18.8040   20.4010 C   0  0  0  0  0  2  0  0  0  0  0  0
  -30.8870  -18.5100   22.7260 C   0  0  0  0  0  2  0  0  0  0  0  0
  -30.6450  -16.5200   21.1800 C   0  0  0  0  0  3  0  0  0  0  0  0
  -29.9120  -19.3350   21.8510 C   0  0  0  0  0  3  0  0  0  0  0  0
  -30.8410  -14.2720   20.1550 C   0  0  0  0  0  0  0  0  0  0  0  0
  -30.4560  -12.1770   18.9200 C   0  0  0  0  0  2  0  0  0  0  0  0
  -29.4400  -12.4050   17.7840 C   0  0  0  0  0  2  0  0  0  0  0  0
  -27.9960  -12.2510   18.3010 C   0  0  0  0  0  2  0  0  0  0  0  0
  -27.7340  -13.0670   19.5930 C   0  0  0  0  0  3  0  0  0  0  0  0
  -28.8470  -12.8070   20.6320 C   0  0  0  0  0  2  0  0  0  0  0  0
  -30.1500  -13.1140   20.0080 N   0  0  0  0  0  0  0  0  0  0  0  0
  -31.8200  -14.5760   19.4640 O   0  0  0  0  0  0  0  0  0  0  0  0
  -30.3480  -15.0990   21.0840 N   0  0  0  0  0  0  0  0  0  0  0  0
  -29.5790  -14.7450   21.6330 H   0  0  0  0  0  0  0  0  0  0  0  0
  -25.3710  -13.6580   20.4350 C   0  0  0  0  0  0  0  0  0  0  0  0
  -24.3320  -12.8750   20.8630 C   0  0  0  0  0  0  0  0  0  0  0  0
  -24.8000  -11.5270   20.7970 C   0  0  0  0  0  0  0  0  0  0  0  0
  -26.4090  -12.7850   20.1420 N   0  0  0  0  0  0  0  0  0  0  0  0
  -26.0690  -11.4990   20.4110 N   0  0  0  0  0  0  0  0  0  0  0  0
  -24.0970  -10.2570   21.0230 C   0  0  0  0  0  0  0  0  0  0  0  0
  -24.5030   -9.3590   22.0340 C   0  0  0  0  0  3  0  0  0  0  0  0
  -23.8010   -8.1530   22.2430 C   0  0  0  0  0  3  0  0  0  0  0  0
  -22.6790   -7.8360   21.4400 C   0  0  0  0  0  0  0  0  0  0  0  0
  -22.2940   -8.7230   20.4200 C   0  0  0  0  0  3  0  0  0  0  0  0
  -22.9970   -9.9200   20.2090 C   0  0  0  0  0  3  0  0  0  0  0  0
  -21.9530   -6.6760   21.5540 O   0  0  0  0  0  0  0  0  0  0  0  0
  -21.7400   -6.0750   22.7700 C   0  0  0  0  0  0  0  0  0  0  0  0
  -21.0830   -6.7430   23.8250 C   0  0  0  0  0  3  0  0  0  0  0  0
  -20.8240   -6.0650   25.0340 C   0  0  0  0  0  3  0  0  0  0  0  0
  -21.2130   -4.7200   25.1860 C   0  0  0  0  0  0  0  0  0  0  0  0
  -21.8630   -4.0520   24.1330 C   0  0  0  0  0  3  0  0  0  0  0  0
  -22.1230   -4.7270   22.9270 C   0  0  0  0  0  0  0  0  0  0  0  0
  -22.7310   -4.0730   21.9080 F   0  0  0  0  0  0  0  0  0  0  0  0
  -20.9570   -4.0660   26.3420 F   0  0  0  0  0  0  0  0  0  0  0  0
  -22.9500  -13.3390   21.2240 C   0  0  0  0  0  0  0  0  0  0  0  0
  -22.2830  -12.6340   22.1310 N   0  0  0  0  0  0  0  0  0  0  0  0
  -22.4700  -14.3610   20.7340 O   0  0  0  0  0  0  0  0  0  0  0  0
  -22.6840  -11.8080   22.5500 H   0  0  0  0  0  0  0  0  0  0  0  0
  -21.3580  -12.9260   22.4130 H   0  0  0  0  0  0  0  0  0  0  0  0
  -25.5160  -15.0300   20.2570 N   0  0  0  0  0  0  0  0  0  0  0  0
  -24.7530  -15.6810   20.4130 H   0  0  0  0  0  0  0  0  0  0  0  0
  -26.3480  -15.4740   19.8890 H   0  0  0  0  0  0  0  0  0  0  0  0
  -30.3320  -27.0410   21.4640 O   0  0  0  0  0  0  0  0  0  0  0  0
  -29.3230  -27.7200   20.7260 C   0  0  0  0  0  2  0  0  0  0  0  0
  -28.9130  -27.0590   19.3790 C   0  0  0  0  0  2  0  0  0  0  0  0
  -27.6040  -26.4730   19.3140 O   0  0  0  0  0  0  0  0  0  0  0  0
  -24.3150  -31.6170   22.9580 C   0  0  0  0  0  0  0  0  0  0  0  0
  -26.5000  -27.2930   19.4480 C   0  0  0  0  0  0  0  0  0  0  0  0
  -22.9050  -30.3920   21.3290 C   0  0  0  0  0  3  0  0  0  0  0  0
  -24.1570  -28.8650   19.7170 C   0  0  0  0  0  0  0  0  0  0  0  0
  -25.4120  -30.6540   20.9440 C   0  0  0  0  0  2  0  0  0  0  0  0
  -25.3740  -29.3250   20.2230 C   0  0  0  0  0  0  0  0  0  0  0  0
  -26.5420  -28.5650   20.0630 C   0  0  0  0  0  3  0  0  0  0  0  0
  -25.2590  -26.8290   18.9550 C   0  0  0  0  0  3  0  0  0  0  0  0
  -24.0910  -27.6150   19.0700 C   0  0  0  0  0  3  0  0  0  0  0  0
  -22.9660  -29.7750   19.9030 C   0  0  0  0  0  2  0  0  0  0  0  0
  -24.2340  -30.8960   21.8040 N   0  0  0  0  0  0  0  0  0  0  0  0
  -23.2970  -31.9130   23.5990 O   0  0  0  0  0  0  0  0  0  0  0  0
  -22.2670  -29.3550   22.2800 C   0  0  0  0  0  0  0  0  0  0  0  0
  -20.9310  -29.2430   22.2230 N   0  0  0  0  0  0  0  0  0  0  0  0
  -22.9670  -28.6550   23.0150 O   0  0  0  0  0  0  0  0  0  0  0  0
  -20.4320  -29.8590   21.5970 H   0  0  0  0  0  0  0  0  0  0  0  0
  -17.5360  -28.1750   22.8300 C   0  0  0  0  0  0  0  0  0  0  0  0
  -20.1120  -28.3070   22.9900 C   0  0  0  0  0  3  0  0  0  0  0  0
  -20.1230  -26.9020   22.3440 C   0  0  0  0  0  2  0  0  0  0  0  0
  -18.9610  -26.6760   21.3710 C   0  0  0  0  0  2  0  0  0  0  0  0
  -17.6190  -26.8510   22.0880 C   0  0  0  0  0  2  0  0  0  0  0  0
  -18.7070  -28.8660   23.2390 C   0  0  0  0  0  0  0  0  0  0  0  0
  -18.5750  -30.1100   23.8930 C   0  0  0  0  0  3  0  0  0  0  0  0
  -17.3040  -30.6610   24.1420 C   0  0  0  0  0  3  0  0  0  0  0  0
  -16.1470  -29.9650   23.7500 C   0  0  0  0  0  3  0  0  0  0  0  0
  -16.2650  -28.7230   23.1000 C   0  0  0  0  0  3  0  0  0  0  0  0
  -25.6820  -32.1270   23.5150 C   0  0  0  0  0  3  0  0  0  0  0  0
  -25.4840  -33.5070   23.9760 N   0  0  0  0  0  0  0  0  0  0  0  0
  -25.8750  -34.5980   23.3000 C   0  0  0  0  0  0  0  0  0  0  0  0
  -26.5100  -34.5390   22.2430 O   0  0  0  0  0  0  0  0  0  0  0  0
  -24.9190  -33.6300   24.8030 H   0  0  0  0  0  0  0  0  0  0  0  0
  -24.2810  -36.5360   23.1400 C   0  0  0  0  0  1  0  0  0  0  0  0
  -25.4990  -35.9700   23.8880 C   0  0  0  0  0  3  0  0  0  0  0  0
  -27.7040  -36.6170   24.7540 C   0  0  0  0  0  1  0  0  0  0  0  0
  -26.6060  -36.9500   23.8500 N   0  0  0  0  0  0  0  0  0  0  0  0
  -26.2720  -37.8800   24.0850 H   0  0  0  0  0  0  0  0  0  0  0  0
  -26.2580  -31.2280   24.6760 C   0  0  1  0  0  0  0  0  0  0  0  0
  -25.2450  -30.9550   25.8120 C   0  0  0  0  0  1  0  0  0  0  0  0
  -26.7280  -29.8620   24.1200 C   0  0  0  0  0  1  0  0  0  0  0  0
  -27.5000  -31.9080   25.3000 C   0  0  0  0  0  1  0  0  0  0  0  0
  1  4  1  0
  2  6  1  0
  2  1  2  0
  4  3  2  0
  4  8  1  0
  5  7  1  0
  5  3  1  0
  6  5  2  0
  9  8  1  0
 10  9  1  0
 11  9  1  0
 12 14  1  0
 12 16  1  0
 13 15  1  0
 14 17  1  0
 16 26  1  0
 16 13  1  0
 17  9  1  0
 17 15  1  0
 18 26  1  0
 19 24  1  0
 20 21  1  0
 20 19  1  0
 22 21  1  0
 22 31  1  0
 22 23  1  0
 24 18  1  0
 24 23  1  0
 25 18  2  0
 26 27  1  0
 28 29  2  0
 29 48  1  0
 30 29  1  0
 30 33  1  0
 31 32  1  0
 31 28  1  0
 32 30  2  0
 33 34  1  0
 34 35  2  0
 36 39  1  0
 36 35  1  0
 37 36  2  0
 38 37  1  0
 38 33  2  0
 39 40  1  0
 40 45  2  0
 40 41  1  0
 41 42  2  0
 42 43  1  0
 43 47  1  0
 44 43  2  0
 45 44  1  0
 46 45  1  0
 48 49  1  0
 49 52  1  0
 49 51  1  0
 50 48  2  0
 53 54  1  0
 53 28  1  0
 55 53  1  0
 56  6  1  0
 57 56  1  0
 58 57  1  0
 59 58  1  0
 59 61  1  0
 60 71  2  0
 61 66  1  0
 62 70  1  0
 62 72  1  0
 63 69  1  0
 63 65  1  0
 64 70  1  0
 65 64  1  0
 66 65  2  0
 67 68  1  0
 67 61  2  0
 68 63  2  0
 69 62  1  0
 70 60  1  0
 72 74  2  0
 73 72  1  0
 75 73  1  0
 76 85  2  0
 76 81  1  0
 77 73  1  0
 77 81  1  0
 78 77  1  0
 79 80  1  0
 79 78  1  0
 80 76  1  0
 81 82  2  0
 82 83  1  0
 84 83  2  0
 85 84  1  0
 86 60  1  0
 86 87  1  0
 86 96  1  0
 87 90  1  0
 88 92  1  0
 88 87  1  0
 89 88  2  0
 92 91  1  0
 94 92  1  0
 94 95  1  0
 94 93  1  0
 96 99  1  1
 96 97  1  0
 98 96  1  0
M  ISO  4  18 100  26 100  58 101  59 101
M  END
>  <TORSDO>  (86) 
F 22

>  <SCORE>  (86) 
-9.739

>  <name>  (86) 
86

>  <ligand_id>  (86) 
86

>  <original_smiles>  (86) 
[H]c1c([H])c([H])c2c(c1[H])C([H])([H])C([H])([H])C([H])([H])C2([H])N([H])C(=O)C1([H])N(C(=O)C([H])(N([H])C(=O)C([H])(N([H])C([H])([H])[H])C([H])([H])[H])C(C([H])([H])[H])(C([H])([H])[H])C([H])([H])[H])C([H])([H])c2c([H])c(OC([H])([H])C([H])([H])Oc3c([H])c([H])c(C([H])([H])[N+]([H])([H])C4([H])C([H])([H])C([H])([H])C([H])(N([H])C(=O)N5C([H])([H])C([H])([H])C([H])([H])C([H])(n6nc(-c7c([H])c([H])c(Oc8c([H])c([H])c(F)c([H])c8F)c([H])c7[H])c(C(=O)N([H])[H])c6N([H])[H])C5([H])[H])C([H])([H])C4([H])[H])c([H])c3C([H])([H])[H])c([H])c([H])c2C1([H])[H]

>  <smiles>  (86) 
[H]c1c([H])c([H])c2c(c1[H])C([H])([H])C([H])([H])C([H])([H])C2([H])N([H])C(=O)C1([H])N(C(=O)C([H])(N([H])C(=O)C([H])(N([H])C([H])([H])[H])C([H])([H])[H])C(C([H])([H])[H])(C([H])([H])[H])C([H])([H])[H])C([H])([H])c2c([H])c(OC([H])([H])C([H])([H])Oc3c([H])c([H])c(C([H])([H])[N+]([H])([H])C4([H])C([H])([H])C([H])([H])C([H])(N([H])C(=O)N5C([H])([H])C([H])([H])C([H])([H])C([H])(n6nc(-c7c([H])c([H])c(Oc8c([H])c([H])c(F)c([H])c8F)c([H])c7[H])c(C(=O)N([H])[H])c6N([H])[H])C5([H])[H])C([H])([H])C4([H])[H])c([H])c3C([H])([H])[H])c([H])c([H])c2C1([H])[H]

$$$$
87:0:0
     RDKit          3D

 89 97  0  0  1  0  0  0  0  0999 V2000
  -30.7120  -22.1290   19.8670 C   0  0  0  0  0  2  0  0  0  0  0  0
  -30.3790  -23.6500   20.0260 C   0  0  0  0  0  2  0  0  0  0  0  0
  -28.4400  -22.3840   20.6080 C   0  0  0  0  0  2  0  0  0  0  0  0
  -29.4190  -21.2860   20.0380 C   0  0  0  0  0  3  0  0  0  0  0  0
  -28.8450  -23.8110   20.0620 C   0  0  0  0  0  3  0  0  0  0  0  0
  -28.6910  -25.3110   22.2280 C   0  0  0  0  0  1  0  0  0  0  0  0
  -28.2200  -25.1220   20.7760 C   0  0  0  0  0  3  0  0  0  0  0  0
  -28.3620  -26.4740   20.1700 O   0  0  0  0  0  0  0  0  0  0  0  0
  -24.6230  -31.8810   23.2290 C   0  0  0  0  0  0  0  0  0  0  0  0
  -27.2410  -27.3220   20.1790 C   0  0  0  0  0  0  0  0  0  0  0  0
  -23.4170  -30.4740   21.5970 C   0  0  0  0  0  3  0  0  0  0  0  0
  -24.8680  -28.9190   20.1760 C   0  0  0  0  0  0  0  0  0  0  0  0
  -25.9550  -30.7990   21.4040 C   0  0  0  0  0  2  0  0  0  0  0  0
  -26.0380  -29.4180   20.7610 C   0  0  0  0  0  0  0  0  0  0  0  0
  -27.2320  -28.6340   20.7470 C   0  0  0  0  0  3  0  0  0  0  0  0
  -26.0480  -26.8700   19.5780 C   0  0  0  0  0  3  0  0  0  0  0  0
  -24.8730  -27.6490   19.5770 C   0  0  0  0  0  3  0  0  0  0  0  0
  -23.6310  -29.7930   20.2200 C   0  0  0  0  0  2  0  0  0  0  0  0
  -24.6840  -31.0690   22.1340 N   0  0  0  0  0  0  0  0  0  0  0  0
  -23.5410  -32.1590   23.7670 O   0  0  0  0  0  0  0  0  0  0  0  0
  -22.7570  -29.4610   22.5620 C   0  0  0  0  0  0  0  0  0  0  0  0
  -21.4320  -29.2800   22.4370 N   0  0  0  0  0  0  0  0  0  0  0  0
  -23.4380  -28.8400   23.3830 O   0  0  0  0  0  0  0  0  0  0  0  0
  -20.9400  -29.8330   21.7490 H   0  0  0  0  0  0  0  0  0  0  0  0
  -18.0610  -28.0660   22.9350 C   0  0  0  0  0  0  0  0  0  0  0  0
  -20.6160  -28.3440   23.2150 C   0  0  0  0  0  3  0  0  0  0  0  0
  -20.7300  -26.9090   22.6530 C   0  0  0  0  0  2  0  0  0  0  0  0
  -19.6340  -26.5690   21.6370 C   0  0  0  0  0  2  0  0  0  0  0  0
  -18.2490  -26.7120   22.2730 C   0  0  0  0  0  2  0  0  0  0  0  0
  -19.1710  -28.8400   23.3640 C   0  0  0  0  0  0  0  0  0  0  0  0
  -18.9420  -30.1040   23.9450 C   0  0  0  0  0  3  0  0  0  0  0  0
  -17.6330  -30.5990   24.1010 C   0  0  0  0  0  3  0  0  0  0  0  0
  -16.5360  -29.8230   23.6870 C   0  0  0  0  0  3  0  0  0  0  0  0
  -16.7500  -28.5590   23.1110 C   0  0  0  0  0  3  0  0  0  0  0  0
  -25.9070  -32.5180   23.8460 C   0  0  0  0  0  3  0  0  0  0  0  0
  -26.4330  -31.7490   25.1190 C   0  0  1  0  0  0  0  0  0  0  0  0
  -25.3460  -31.5120   26.1940 C   0  0  0  0  0  1  0  0  0  0  0  0
  -27.0160  -30.3720   24.7260 C   0  0  0  0  0  1  0  0  0  0  0  0
  -27.5860  -32.5470   25.7720 C   0  0  0  0  0  1  0  0  0  0  0  0
  -25.5940  -33.9150   24.1790 N   0  0  0  0  0  0  0  0  0  0  0  0
  -25.9190  -34.9700   23.4210 C   0  0  0  0  0  0  0  0  0  0  0  0
  -26.5840  -34.8700   22.3850 O   0  0  0  0  0  0  0  0  0  0  0  0
  -25.0040  -34.0670   24.9840 H   0  0  0  0  0  0  0  0  0  0  0  0
  -24.1810  -36.7570   23.0830 C   0  0  0  0  0  1  0  0  0  0  0  0
  -25.4300  -36.3560   23.8850 C   0  0  0  0  0  3  0  0  0  0  0  0
  -27.5690  -37.2430   24.6990 C   0  0  0  0  0  1  0  0  0  0  0  0
  -26.4570  -37.4130   23.7680 N   0  0  0  0  0  0  0  0  0  0  0  0
  -26.0480  -38.3300   23.9280 H   0  0  0  0  0  0  0  0  0  0  0  0
  -29.6060  -19.9100   20.8600 C   0  0  0  0  0  3  0  0  0  0  0  0
  -29.6470  -18.4730   20.1420 C   0  0  0  0  0  3  0  0  0  0  0  0
  -30.2300  -17.2310   20.9800 C   0  0  0  0  0  2  0  0  0  0  0  0
  -30.6010  -14.6980   20.3710 C   0  0  0  0  0  0  0  0  0  0  0  0
  -30.3780  -12.4520   19.3110 C   0  0  0  0  0  2  0  0  0  0  0  0
  -29.4160  -12.5270   18.1040 C   0  0  0  0  0  2  0  0  0  0  0  0
  -27.9530  -12.3550   18.5610 C   0  0  0  0  0  2  0  0  0  0  0  0
  -27.5910  -13.2490   19.7770 C   0  0  0  0  0  3  0  0  0  0  0  0
  -28.6630  -13.1470   20.8840 C   0  0  0  0  0  2  0  0  0  0  0  0
  -29.9560  -13.4890   20.2760 N   0  0  0  0  0  0  0  0  0  0  0  0
  -31.7860  -14.8110   20.0590 O   0  0  0  0  0  0  0  0  0  0  0  0
  -29.8310  -15.8090   20.6360 N   0  0  0  0  0  0  0  0  0  0  0  0
  -28.8510  -15.6060   20.7580 H   0  0  0  0  0  0  0  0  0  0  0  0
  -25.2040  -13.8450   20.5200 C   0  0  0  0  0  0  0  0  0  0  0  0
  -24.1390  -13.0720   20.9000 C   0  0  0  0  0  0  0  0  0  0  0  0
  -24.6050  -11.7200   20.8720 C   0  0  0  0  0  0  0  0  0  0  0  0
  -26.2480  -12.9660   20.2810 N   0  0  0  0  0  0  0  0  0  0  0  0
  -25.8940  -11.6840   20.5560 N   0  0  0  0  0  0  0  0  0  0  0  0
  -23.8820  -10.4570   21.0690 C   0  0  0  0  0  0  0  0  0  0  0  0
  -24.3310   -9.4820   21.9880 C   0  0  0  0  0  3  0  0  0  0  0  0
  -23.6060   -8.2860   22.1720 C   0  0  0  0  0  3  0  0  0  0  0  0
  -22.4190   -8.0530   21.4360 C   0  0  0  0  0  0  0  0  0  0  0  0
  -21.9890   -9.0170   20.5080 C   0  0  0  0  0  3  0  0  0  0  0  0
  -22.7140  -10.2070   20.3210 C   0  0  0  0  0  3  0  0  0  0  0  0
  -21.6670   -6.9070   21.5280 O   0  0  0  0  0  0  0  0  0  0  0  0
  -21.6530   -6.1460   22.6690 C   0  0  0  0  0  0  0  0  0  0  0  0
  -21.2790   -6.6850   23.9180 C   0  0  0  0  0  3  0  0  0  0  0  0
  -21.2090   -5.8510   25.0520 C   0  0  0  0  0  3  0  0  0  0  0  0
  -21.5050   -4.4790   24.9380 C   0  0  0  0  0  0  0  0  0  0  0  0
  -21.8740   -3.9400   23.6930 C   0  0  0  0  0  3  0  0  0  0  0  0
  -21.9430   -4.7700   22.5610 C   0  0  0  0  0  0  0  0  0  0  0  0
  -22.2780   -4.2420   21.3590 F   0  0  0  0  0  0  0  0  0  0  0  0
  -21.4300   -3.6760   26.0240 F   0  0  0  0  0  0  0  0  0  0  0  0
  -22.7430  -13.5500   21.1700 C   0  0  0  0  0  0  0  0  0  0  0  0
  -22.0150  -12.8640   22.0430 N   0  0  0  0  0  0  0  0  0  0  0  0
  -22.3030  -14.5730   20.6440 O   0  0  0  0  0  0  0  0  0  0  0  0
  -22.3750  -12.0410   22.5000 H   0  0  0  0  0  0  0  0  0  0  0  0
  -21.0810  -13.1820   22.2630 H   0  0  0  0  0  0  0  0  0  0  0  0
  -25.3640  -15.2160   20.3350 N   0  0  0  0  0  0  0  0  0  0  0  0
  -24.5930  -15.8690   20.4460 H   0  0  0  0  0  0  0  0  0  0  0  0
  -26.2000  -15.6560   19.9740 H   0  0  0  0  0  0  0  0  0  0  0  0
  1  2  1  0
  1  4  1  0
  2  5  1  0
  4  3  1  0
  4 49  1  0
  5  3  1  0
  5  7  1  0
  7  6  1  0
  8 10  1  0
  8  7  1  0
  9 20  2  0
 10 15  1  0
 11 19  1  0
 11 21  1  0
 12 18  1  0
 12 14  1  0
 13 19  1  0
 14 13  1  0
 15 14  2  0
 16 10  2  0
 17 16  1  0
 17 12  2  0
 18 11  1  0
 19  9  1  0
 21 23  2  0
 22 21  1  0
 24 22  1  0
 25 34  2  0
 25 30  1  0
 26 22  1  0
 26 30  1  0
 27 26  1  0
 28 29  1  0
 28 27  1  0
 29 25  1  0
 30 31  2  0
 31 32  1  0
 33 32  2  0
 34 33  1  0
 35  9  1  0
 35 40  1  0
 35 36  1  0
 36 39  1  1
 36 37  1  0
 38 36  1  0
 40 43  1  0
 41 45  1  0
 41 40  1  0
 42 41  2  0
 45 44  1  0
 47 45  1  0
 47 48  1  0
 47 46  1  0
 50 49  2  0
 50 51  1  0
 52 60  1  0
 53 58  1  0
 54 55  1  0
 54 53  1  0
 56 55  1  0
 56 65  1  0
 56 57  1  0
 58 52  1  0
 58 57  1  0
 59 52  2  0
 60 61  1  0
 60 51  1  0
 62 63  2  0
 63 82  1  0
 64 63  1  0
 64 67  1  0
 65 62  1  0
 65 66  1  0
 66 64  2  0
 67 68  1  0
 68 69  2  0
 70 73  1  0
 70 69  1  0
 71 70  2  0
 72 71  1  0
 72 67  2  0
 73 74  1  0
 74 75  1  0
 75 76  2  0
 77 76  1  0
 77 81  1  0
 78 77  2  0
 79 74  2  0
 79 78  1  0
 80 79  1  0
 82 83  1  0
 83 86  1  0
 83 85  1  0
 84 82  2  0
 87 88  1  0
 87 62  1  0
 89 87  1  0
M  ISO  4   7 101   8 101  52 100  60 100
M  END
>  <TORSDO>  (87) 
F 20

>  <SCORE>  (87) 
-13.755

>  <name>  (87) 
87

>  <ligand_id>  (87) 
87

>  <original_smiles>  (87) 
[H]c1c([H])c([H])c2c(c1[H])C([H])([H])C([H])([H])C([H])([H])C2([H])N([H])C(=O)C1([H])N(C(=O)C([H])(N([H])C(=O)C([H])(N([H])C([H])([H])[H])C([H])([H])[H])C(C([H])([H])[H])(C([H])([H])[H])C([H])([H])[H])C([H])([H])c2c([H])c(OC([H])(C([H])([H])[H])C3([H])C([H])([H])C([H])([H])C([H])(C([H])([H])C([H])([H])C([H])([H])N([H])C(=O)N4C([H])([H])C([H])([H])C([H])([H])C([H])(n5nc(-c6c([H])c([H])c(Oc7c([H])c([H])c(F)c([H])c7F)c([H])c6[H])c(C(=O)N([H])[H])c5N([H])[H])C4([H])[H])C3([H])[H])c([H])c([H])c2C1([H])[H]

>  <smiles>  (87) 
[H]c1c([H])c([H])c2c(c1[H])C([H])([H])C([H])([H])C([H])([H])C2([H])N([H])C(=O)C1([H])N(C(=O)C([H])(N([H])C(=O)C([H])(N([H])C([H])([H])[H])C([H])([H])[H])C(C([H])([H])[H])(C([H])([H])[H])C([H])([H])[H])C([H])([H])c2c([H])c(OC([H])(C([H])([H])[H])C3([H])C([H])([H])C([H])([H])C([H])(C([H])([H])C([H])([H])C([H])([H])N([H])C(=O)N4C([H])([H])C([H])([H])C([H])([H])C([H])(n5nc(-c6c([H])c([H])c(Oc7c([H])c([H])c(F)c([H])c7F)c([H])c6[H])c(C(=O)N([H])[H])c5N([H])[H])C4([H])[H])C3([H])[H])c([H])c([H])c2C1([H])[H]

$$$$
88:0:0
     RDKit          3D

 99109  0  0  1  0  0  0  0  0999 V2000
  -25.8300  -22.3230   18.1650 C   0  0  0  0  0  3  0  0  0  0  0  0
  -26.8500  -22.0540   19.0890 C   0  0  0  0  0  3  0  0  0  0  0  0
  -26.4740  -24.2200   20.1190 C   0  0  0  0  0  3  0  0  0  0  0  0
  -25.1190  -23.5450   18.2010 C   0  0  0  0  0  0  0  0  0  0  0  0
  -25.4270  -24.5110   19.2080 C   0  0  0  0  0  0  0  0  0  0  0  0
  -27.2100  -23.0160   20.0580 C   0  0  0  0  0  0  0  0  0  0  0  0
  -25.5400  -27.0530   18.6840 C   0  0  0  0  0  2  0  0  0  0  0  0
  -24.6960  -25.8790   19.2010 C   0  0  0  0  0  3  0  0  0  0  0  0
  -24.2110  -26.8800   20.3200 C   0  0  0  0  0  3  0  0  0  0  0  0
  -25.1660  -29.1560   19.9790 C   0  0  0  0  0  1  0  0  0  0  0  0
  -25.3830  -27.6950   19.9850 N   0  0  2  0  0  4  0  0  0  0  0  0
  -26.1590  -27.4570   20.5870 H   0  0  0  0  0  0  0  0  0  0  0  0
  -24.1240  -26.7140   21.8680 C   0  0  0  0  0  2  0  0  0  0  0  0
  -22.7110  -26.4690   22.5010 C   0  0  0  0  0  2  0  0  0  0  0  0
  -20.2990  -27.1720   22.4140 C   0  0  0  0  0  0  0  0  0  0  0  0
  -17.9770  -26.4480   21.9980 C   0  0  0  0  0  2  0  0  0  0  0  0
  -18.0310  -24.9960   21.4740 C   0  0  0  0  0  2  0  0  0  0  0  0
  -18.2300  -24.9690   19.9450 C   0  0  0  0  0  2  0  0  0  0  0  0
  -19.3710  -25.9170   19.4740 C   0  0  0  0  0  3  0  0  0  0  0  0
  -19.2580  -27.3110   20.1280 C   0  0  0  0  0  2  0  0  0  0  0  0
  -19.2220  -27.1160   21.5830 N   0  0  0  0  0  0  0  0  0  0  0  0
  -20.1840  -27.1110   23.6420 O   0  0  0  0  0  0  0  0  0  0  0  0
  -21.5150  -27.0360   21.8260 N   0  0  0  0  0  0  0  0  0  0  0  0
  -21.5180  -27.0660   20.8160 H   0  0  0  0  0  0  0  0  0  0  0  0
  -20.4610  -26.5010   17.2180 C   0  0  0  0  0  0  0  0  0  0  0  0
  -20.0490  -26.3080   15.9290 C   0  0  0  0  0  0  0  0  0  0  0  0
  -18.7550  -25.7090   16.0120 C   0  0  0  0  0  0  0  0  0  0  0  0
  -19.4370  -26.0220   18.0200 N   0  0  0  0  0  0  0  0  0  0  0  0
  -18.3790  -25.6010   17.2800 N   0  0  0  0  0  0  0  0  0  0  0  0
  -17.8780  -25.1770   14.9600 C   0  0  0  0  0  0  0  0  0  0  0  0
  -16.6470  -25.7950   14.6450 C   0  0  0  0  0  3  0  0  0  0  0  0
  -15.8290  -25.2770   13.6190 C   0  0  0  0  0  3  0  0  0  0  0  0
  -16.2380  -24.1350   12.8900 C   0  0  0  0  0  0  0  0  0  0  0  0
  -17.4500  -23.5070   13.2260 C   0  0  0  0  0  3  0  0  0  0  0  0
  -18.2630  -24.0200   14.2510 C   0  0  0  0  0  3  0  0  0  0  0  0
  -15.5020  -23.5490   11.8890 O   0  0  0  0  0  0  0  0  0  0  0  0
  -14.9470  -24.2880   10.8780 C   0  0  0  0  0  0  0  0  0  0  0  0
  -15.7380  -24.8930    9.8790 C   0  0  0  0  0  3  0  0  0  0  0  0
  -15.1240  -25.5880    8.8180 C   0  0  0  0  0  3  0  0  0  0  0  0
  -13.7220  -25.6650    8.7440 C   0  0  0  0  0  0  0  0  0  0  0  0
  -12.9300  -25.0570    9.7360 C   0  0  0  0  0  3  0  0  0  0  0  0
  -13.5420  -24.3680   10.7970 C   0  0  0  0  0  0  0  0  0  0  0  0
  -12.7740  -23.7700   11.7400 F   0  0  0  0  0  0  0  0  0  0  0  0
  -13.1310  -26.3220    7.7170 F   0  0  0  0  0  0  0  0  0  0  0  0
  -20.8430  -26.5660   14.6810 C   0  0  0  0  0  0  0  0  0  0  0  0
  -20.2320  -27.1890   13.6780 N   0  0  0  0  0  0  0  0  0  0  0  0
  -22.0370  -26.2690   14.6120 O   0  0  0  0  0  0  0  0  0  0  0  0
  -19.2650  -27.4670   13.7420 H   0  0  0  0  0  0  0  0  0  0  0  0
  -20.7480  -27.4050   12.8370 H   0  0  0  0  0  0  0  0  0  0  0  0
  -21.6300  -27.0110   17.7820 N   0  0  0  0  0  0  0  0  0  0  0  0
  -22.4360  -27.1630   17.1840 H   0  0  0  0  0  0  0  0  0  0  0  0
  -21.8790  -26.7910   18.7380 H   0  0  0  0  0  0  0  0  0  0  0  0
  -22.6330  -23.4850   17.2910 C   0  0  0  0  0  2  0  0  0  0  0  0
  -23.4560  -22.7290   16.2710 C   0  0  0  0  0  2  0  0  0  0  0  0
  -24.1030  -23.8120   17.1170 C   0  0  0  0  0  3  0  0  0  0  0  0
  -28.2840  -22.8530   20.9150 O   0  0  0  0  0  0  0  0  0  0  0  0
  -29.2140  -21.7850   20.6700 C   0  0  0  0  0  2  0  0  0  0  0  0
  -30.1000  -22.0330   19.4320 C   0  0  0  0  0  2  0  0  0  0  0  0
  -30.9220  -20.9040   19.1210 O   0  0  0  0  0  0  0  0  0  0  0  0
  -33.9220  -17.9160   13.4080 C   0  0  0  0  0  0  0  0  0  0  0  0
  -30.7020  -20.2410   17.9330 C   0  0  0  0  0  0  0  0  0  0  0  0
  -31.4660  -18.1640   13.3230 C   0  0  0  0  0  3  0  0  0  0  0  0
  -30.3400  -18.8290   15.5120 C   0  0  0  0  0  0  0  0  0  0  0  0
  -32.6750  -17.9300   15.5690 C   0  0  0  0  0  2  0  0  0  0  0  0
  -31.5680  -18.7650   16.1810 C   0  0  0  0  0  0  0  0  0  0  0  0
  -31.7490  -19.4630   17.3940 C   0  0  0  0  0  3  0  0  0  0  0  0
  -29.4620  -20.2900   17.2490 C   0  0  0  0  0  3  0  0  0  0  0  0
  -29.2850  -19.5950   16.0370 C   0  0  0  0  0  3  0  0  0  0  0  0
  -30.2180  -18.0310   14.2310 C   0  0  0  0  0  2  0  0  0  0  0  0
  -32.7460  -18.0220   14.0880 N   0  0  0  0  0  0  0  0  0  0  0  0
  -33.9400  -17.8930   12.1700 O   0  0  0  0  0  0  0  0  0  0  0  0
  -31.3540  -19.4840   12.5280 C   0  0  0  0  0  0  0  0  0  0  0  0
  -30.6950  -19.4220   11.3610 N   0  0  0  0  0  0  0  0  0  0  0  0
  -31.8310  -20.5310   12.9690 O   0  0  0  0  0  0  0  0  0  0  0  0
  -30.3400  -18.5250   11.0610 H   0  0  0  0  0  0  0  0  0  0  0  0
  -29.4260  -20.2960    8.0900 C   0  0  0  0  0  0  0  0  0  0  0  0
  -30.4250  -20.5450   10.4630 C   0  0  0  0  0  3  0  0  0  0  0  0
  -29.1040  -21.2620   10.8300 C   0  0  0  0  0  2  0  0  0  0  0  0
  -27.8900  -20.7470   10.0470 C   0  0  0  0  0  2  0  0  0  0  0  0
  -28.1000  -20.8910    8.5400 C   0  0  0  0  0  2  0  0  0  0  0  0
  -30.5050  -20.1170    8.9950 C   0  0  0  0  0  0  0  0  0  0  0  0
  -31.6980  -19.5230    8.5310 C   0  0  0  0  0  3  0  0  0  0  0  0
  -31.8230  -19.1060    7.1960 C   0  0  0  0  0  3  0  0  0  0  0  0
  -30.7650  -19.3120    6.2950 C   0  0  0  0  0  3  0  0  0  0  0  0
  -29.5700  -19.9070    6.7420 C   0  0  0  0  0  3  0  0  0  0  0  0
  -35.2890  -17.8010   14.1470 C   0  0  0  0  0  3  0  0  0  0  0  0
  -36.0210  -16.6770   13.5480 N   0  0  0  0  0  0  0  0  0  0  0  0
  -36.0030  -15.4230   14.0210 C   0  0  0  0  0  0  0  0  0  0  0  0
  -35.4240  -15.1060   15.0640 O   0  0  0  0  0  0  0  0  0  0  0  0
  -36.4750  -16.8530   12.6630 H   0  0  0  0  0  0  0  0  0  0  0  0
  -35.7530  -13.4940   12.4270 C   0  0  0  0  0  1  0  0  0  0  0  0
  -36.7570  -14.3510   13.2120 C   0  0  0  0  0  3  0  0  0  0  0  0
  -38.8220  -14.1450   14.5280 C   0  0  0  0  0  1  0  0  0  0  0  0
  -37.6140  -13.4790   14.0450 N   0  0  0  0  0  0  0  0  0  0  0  0
  -37.8960  -12.6500   13.5260 H   0  0  0  0  0  0  0  0  0  0  0  0
  -36.1410  -19.1270   14.0790 C   0  0  1  0  0  0  0  0  0  0  0  0
  -36.5400  -19.5340   12.6410 C   0  0  0  0  0  1  0  0  0  0  0  0
  -35.3640  -20.3080   14.7130 C   0  0  0  0  0  1  0  0  0  0  0  0
  -37.4390  -18.9570   14.9030 C   0  0  0  0  0  1  0  0  0  0  0  0
  1  4  2  0
  1  2  1  0
  2  6  2  0
  4  5  1  0
  5  3  2  0
  6  3  1  0
  6 56  1  0
  7  8  1  0
  7 11  1  0
  8  5  1  0
  8  9  1  0
  9 13  1  0
 10 11  1  0
 11  9  1  0
 11 12  1  1
 13 14  1  0
 15 22  2  0
 17 16  1  0
 18 17  1  0
 19 28  1  0
 19 18  1  0
 19 20  1  0
 20 21  1  0
 21 16  1  0
 21 15  1  0
 23 15  1  0
 23 14  1  0
 24 23  1  0
 25 50  1  0
 25 28  1  0
 26 27  1  0
 26 25  2  0
 27 29  2  0
 29 28  1  0
 30 27  1  0
 31 30  1  0
 32 31  2  0
 33 34  2  0
 33 32  1  0
 34 35  1  0
 35 30  2  0
 36 33  1  0
 37 36  1  0
 38 37  2  0
 39 38  1  0
 40 39  2  0
 40 41  1  0
 41 42  2  0
 42 37  1  0
 42 43  1  0
 44 40  1  0
 45 26  1  0
 46 48  1  0
 46 45  1  0
 47 45  2  0
 49 46  1  0
 50 52  1  0
 51 50  1  0
 54 55  1  0
 54 53  1  0
 55 53  1  0
 55  4  1  0
 57 56  1  0
 58 57  1  0
 59 58  1  0
 60 70  1  0
 61 59  1  0
 62 72  1  0
 62 70  1  0
 62 69  1  0
 63 68  2  0
 63 65  1  0
 64 65  1  0
 65 66  2  0
 66 61  1  0
 67 61  2  0
 68 67  1  0
 69 63  1  0
 70 64  1  0
 71 60  2  0
 72 74  2  0
 73 72  1  0
 75 73  1  0
 76 80  1  0
 76 81  1  0
 77 78  1  0
 77 73  1  0
 79 78  1  0
 80 79  1  0
 81 77  1  0
 82 81  2  0
 83 82  1  0
 84 85  1  0
 84 83  2  0
 85 76  2  0
 86 60  1  0
 87 88  1  0
 87 86  1  0
 88 89  2  0
 90 87  1  0
 92 91  1  0
 92 88  1  0
 92 94  1  0
 94 93  1  0
 95 94  1  0
 96 86  1  0
 96 98  1  1
 96 99  1  0
 97 96  1  0
M  ISO  4  15 100  23 100  58 101  59 101
M  END
>  <TORSDO>  (88) 
F 23

>  <SCORE>  (88) 
-6.161

>  <name>  (88) 
88

>  <ligand_id>  (88) 
88

>  <original_smiles>  (88) 
[H]c1c([H])c([H])c2c(c1[H])C([H])([H])C([H])([H])C([H])([H])C2([H])N([H])C(=O)C1([H])N(C(=O)C([H])(N([H])C(=O)C([H])(N([H])C([H])([H])[H])C([H])([H])[H])C(C([H])([H])[H])(C([H])([H])[H])C([H])([H])[H])C([H])([H])c2c([H])c(OC([H])([H])C([H])([H])Oc3c([H])c([H])c(C4([H])C([H])([H])C4([H])[H])c(C4([H])C([H])([H])[N+]([H])(C([H])([H])[H])C4([H])C([H])([H])C([H])([H])N([H])C(=O)N4C([H])([H])C([H])([H])C([H])([H])C([H])(n5nc(-c6c([H])c([H])c(Oc7c([H])c([H])c(F)c([H])c7F)c([H])c6[H])c(C(=O)N([H])[H])c5N([H])[H])C4([H])[H])c3[H])c([H])c([H])c2C1([H])[H]

>  <smiles>  (88) 
[H]c1c([H])c([H])c2c(c1[H])C([H])([H])C([H])([H])C([H])([H])C2([H])N([H])C(=O)C1([H])N(C(=O)C([H])(N([H])C(=O)C([H])(N([H])C([H])([H])[H])C([H])([H])[H])C(C([H])([H])[H])(C([H])([H])[H])C([H])([H])[H])C([H])([H])c2c([H])c(OC([H])([H])C([H])([H])Oc3c([H])c([H])c(C4([H])C([H])([H])C4([H])[H])c(C4([H])C([H])([H])[N+]([H])(C([H])([H])[H])C4([H])C([H])([H])C([H])([H])N([H])C(=O)N4C([H])([H])C([H])([H])C([H])([H])C([H])(n5nc(-c6c([H])c([H])c(Oc7c([H])c([H])c(F)c([H])c7F)c([H])c6[H])c(C(=O)N([H])[H])c5N([H])[H])C4([H])[H])c3[H])c([H])c([H])c2C1([H])[H]

$$$$
89:0:0
     RDKit          3D

 91100  0  0  1  0  0  0  0  0999 V2000
  -30.0960  -23.6100   21.3300 C   0  0  0  0  0  2  0  0  0  0  0  0
  -28.4800  -23.0240   19.4520 C   0  0  0  0  0  2  0  0  0  0  0  0
  -29.4640  -25.0110   21.5130 C   0  0  0  0  0  2  0  0  0  0  0  0
  -28.6470  -24.5380   19.1610 C   0  0  0  0  0  2  0  0  0  0  0  0
  -29.1060  -22.5490   20.7950 C   0  0  0  0  0  3  0  0  0  0  0  0
  -28.4340  -25.3940   20.4250 C   0  0  0  0  0  3  0  0  0  0  0  0
  -28.5480  -26.8060   20.1650 O   0  0  0  0  0  0  0  0  0  0  0  0
  -24.7410  -31.9230   23.3250 C   0  0  0  0  0  0  0  0  0  0  0  0
  -27.3790  -27.5400   20.1630 C   0  0  0  0  0  0  0  0  0  0  0  0
  -23.5370  -30.5650   21.6450 C   0  0  0  0  0  3  0  0  0  0  0  0
  -24.9920  -29.0580   20.1920 C   0  0  0  0  0  0  0  0  0  0  0  0
  -26.0650  -30.9220   21.4650 C   0  0  0  0  0  2  0  0  0  0  0  0
  -26.1500  -29.5660   20.7920 C   0  0  0  0  0  0  0  0  0  0  0  0
  -27.3500  -28.8180   20.7680 C   0  0  0  0  0  3  0  0  0  0  0  0
  -26.2030  -27.0460   19.5590 C   0  0  0  0  0  3  0  0  0  0  0  0
  -25.0130  -27.7970   19.5700 C   0  0  0  0  0  3  0  0  0  0  0  0
  -23.7500  -29.9190   20.2510 C   0  0  0  0  0  2  0  0  0  0  0  0
  -24.8000  -31.1500   22.2040 N   0  0  0  0  0  0  0  0  0  0  0  0
  -23.6580  -32.1860   23.8680 O   0  0  0  0  0  0  0  0  0  0  0  0
  -22.8790  -29.5240   22.5780 C   0  0  0  0  0  0  0  0  0  0  0  0
  -21.5570  -29.3400   22.4310 N   0  0  0  0  0  0  0  0  0  0  0  0
  -23.5550  -28.8830   23.3880 O   0  0  0  0  0  0  0  0  0  0  0  0
  -21.0740  -29.9110   21.7510 H   0  0  0  0  0  0  0  0  0  0  0  0
  -18.1790  -28.1340   22.8650 C   0  0  0  0  0  0  0  0  0  0  0  0
  -20.7320  -28.3860   23.1730 C   0  0  0  0  0  3  0  0  0  0  0  0
  -20.8430  -26.9680   22.5660 C   0  0  0  0  0  2  0  0  0  0  0  0
  -19.7530  -26.6670   21.5340 C   0  0  0  0  0  2  0  0  0  0  0  0
  -18.3640  -26.7980   22.1650 C   0  0  0  0  0  2  0  0  0  0  0  0
  -19.2920  -28.8870   23.3240 C   0  0  0  0  0  0  0  0  0  0  0  0
  -19.0660  -30.1370   23.9380 C   0  0  0  0  0  3  0  0  0  0  0  0
  -17.7590  -30.6350   24.0980 C   0  0  0  0  0  3  0  0  0  0  0  0
  -16.6600  -29.8790   23.6560 C   0  0  0  0  0  3  0  0  0  0  0  0
  -16.8710  -28.6300   23.0460 C   0  0  0  0  0  3  0  0  0  0  0  0
  -26.0260  -32.5340   23.9670 C   0  0  0  0  0  3  0  0  0  0  0  0
  -25.7340  -33.9360   24.2920 N   0  0  0  0  0  0  0  0  0  0  0  0
  -26.0840  -34.9820   23.5320 C   0  0  0  0  0  0  0  0  0  0  0  0
  -26.7570  -34.8670   22.5040 O   0  0  0  0  0  0  0  0  0  0  0  0
  -25.1370  -34.1000   25.0900 H   0  0  0  0  0  0  0  0  0  0  0  0
  -24.3700  -36.7870   23.1730 C   0  0  0  0  0  1  0  0  0  0  0  0
  -25.6100  -36.3770   23.9830 C   0  0  0  0  0  3  0  0  0  0  0  0
  -27.7550  -37.2460   24.8020 C   0  0  0  0  0  1  0  0  0  0  0  0
  -26.6530  -37.4190   23.8610 N   0  0  0  0  0  0  0  0  0  0  0  0
  -26.2550  -38.3450   24.0040 H   0  0  0  0  0  0  0  0  0  0  0  0
  -26.5140  -31.7530   25.2480 C   0  0  1  0  0  0  0  0  0  0  0  0
  -25.4030  -31.5250   26.2990 C   0  0  0  0  0  1  0  0  0  0  0  0
  -27.0860  -30.3710   24.8560 C   0  0  0  0  0  1  0  0  0  0  0  0
  -27.6640  -32.5310   25.9300 C   0  0  0  0  0  1  0  0  0  0  0  0
  -29.7830  -21.1520   20.6890 C   0  0  0  0  0  2  0  0  0  0  0  0
  -28.8660  -19.9180   20.8930 C   0  0  0  0  0  2  0  0  0  0  0  0
  -30.9570  -14.5540   20.0260 C   0  0  0  0  0  0  0  0  0  0  0  0
  -30.6130  -12.3540   18.9790 C   0  0  0  0  0  2  0  0  0  0  0  0
  -29.5970  -12.4970   17.8270 C   0  0  0  0  0  2  0  0  0  0  0  0
  -28.1600  -12.3330   18.3560 C   0  0  0  0  0  2  0  0  0  0  0  0
  -27.8760  -13.2040   19.6100 C   0  0  0  0  0  3  0  0  0  0  0  0
  -29.0050  -13.0700   20.6530 C   0  0  0  0  0  2  0  0  0  0  0  0
  -30.2760  -13.3770   19.9820 N   0  0  0  0  0  0  0  0  0  0  0  0
  -32.0940  -14.6610   19.5510 O   0  0  0  0  0  0  0  0  0  0  0  0
  -29.4630  -17.9510   19.3470 C   0  0  0  0  0  2  0  0  0  0  0  0
  -29.2610  -17.4780   21.7520 C   0  0  0  0  0  2  0  0  0  0  0  0
  -30.3760  -16.7210   19.1850 C   0  0  0  0  0  2  0  0  0  0  0  0
  -30.1820  -16.2380   21.6020 C   0  0  0  0  0  2  0  0  0  0  0  0
  -29.6330  -18.5740   20.7370 C   0  0  0  0  0  3  0  0  0  0  0  0
  -30.2210  -15.6820   20.2330 N   0  0  0  0  0  0  0  0  0  0  0  0
  -25.5520  -13.7690   20.5550 C   0  0  0  0  0  0  0  0  0  0  0  0
  -24.5140  -12.9770   20.9650 C   0  0  0  0  0  0  0  0  0  0  0  0
  -24.9640  -11.6290   20.8190 C   0  0  0  0  0  0  0  0  0  0  0  0
  -26.5690  -12.9010   20.1880 N   0  0  0  0  0  0  0  0  0  0  0  0
  -26.2240  -11.6070   20.4040 N   0  0  0  0  0  0  0  0  0  0  0  0
  -24.2480  -10.3580   20.9950 C   0  0  0  0  0  0  0  0  0  0  0  0
  -24.7050   -9.3710   21.8960 C   0  0  0  0  0  3  0  0  0  0  0  0
  -23.9900   -8.1660   22.0610 C   0  0  0  0  0  3  0  0  0  0  0  0
  -22.8020   -7.9390   21.3260 C   0  0  0  0  0  0  0  0  0  0  0  0
  -22.3650   -8.9140   20.4120 C   0  0  0  0  0  3  0  0  0  0  0  0
  -23.0820  -10.1110   20.2450 C   0  0  0  0  0  3  0  0  0  0  0  0
  -22.0560   -6.7880   21.4010 O   0  0  0  0  0  0  0  0  0  0  0  0
  -21.9740   -6.0590   22.5600 C   0  0  0  0  0  0  0  0  0  0  0  0
  -21.5010   -6.6240   23.7650 C   0  0  0  0  0  3  0  0  0  0  0  0
  -21.3680   -5.8200   24.9150 C   0  0  0  0  0  3  0  0  0  0  0  0
  -21.6960   -4.4520   24.8610 C   0  0  0  0  0  0  0  0  0  0  0  0
  -22.1620   -3.8870   23.6610 C   0  0  0  0  0  3  0  0  0  0  0  0
  -22.2970   -4.6880   22.5130 C   0  0  0  0  0  0  0  0  0  0  0  0
  -22.7260   -4.1320   21.3540 F   0  0  0  0  0  0  0  0  0  0  0  0
  -21.5610   -3.6790   25.9630 F   0  0  0  0  0  0  0  0  0  0  0  0
  -23.1470  -13.4390   21.3790 C   0  0  0  0  0  0  0  0  0  0  0  0
  -22.4970  -12.7050   22.2760 N   0  0  0  0  0  0  0  0  0  0  0  0
  -22.6660  -14.4840   20.9430 O   0  0  0  0  0  0  0  0  0  0  0  0
  -22.9000  -11.8580   22.6490 H   0  0  0  0  0  0  0  0  0  0  0  0
  -21.5840  -12.9940   22.5950 H   0  0  0  0  0  0  0  0  0  0  0  0
  -25.7130  -15.1470   20.4450 N   0  0  0  0  0  0  0  0  0  0  0  0
  -24.9690  -15.8000   20.6630 H   0  0  0  0  0  0  0  0  0  0  0  0
  -26.5540  -15.5990   20.1080 H   0  0  0  0  0  0  0  0  0  0  0  0
  1  3  1  0
  2  5  1  0
  4  2  1  0
  4  6  1  0
  5 48  1  0
  5  1  1  0
  6  7  1  0
  6  3  1  0
  8 19  2  0
  9  7  1  0
  9 14  1  0
 10 18  1  0
 10 20  1  0
 11 17  1  0
 11 13  1  0
 12 18  1  0
 13 12  1  0
 14 13  2  0
 15 16  1  0
 15  9  2  0
 16 11  2  0
 17 10  1  0
 18  8  1  0
 20 22  2  0
 21 20  1  0
 23 21  1  0
 24 33  2  0
 24 29  1  0
 25 21  1  0
 25 29  1  0
 26 25  1  0
 27 28  1  0
 27 26  1  0
 28 24  1  0
 29 30  2  0
 30 31  1  0
 32 31  2  0
 33 32  1  0
 34  8  1  0
 34 35  1  0
 34 44  1  0
 35 38  1  0
 36 40  1  0
 36 35  1  0
 37 36  2  0
 40 39  1  0
 42 40  1  0
 42 43  1  0
 42 41  1  0
 44 47  1  1
 44 45  1  0
 46 44  1  0
 48 49  1  0
 50 63  1  0
 51 56  1  0
 52 53  1  0
 52 51  1  0
 54 53  1  0
 54 67  1  0
 54 55  1  0
 56 50  1  0
 56 55  1  0
 57 50  2  0
 58 62  1  0
 60 58  1  0
 60 63  1  0
 61 59  1  0
 62 49  1  0
 62 59  1  0
 63 61  1  0
 64 65  2  0
 65 84  1  0
 66 65  1  0
 66 69  1  0
 67 68  1  0
 67 64  1  0
 68 66  2  0
 69 70  1  0
 70 71  2  0
 72 75  1  0
 72 71  1  0
 73 72  2  0
 74 73  1  0
 74 69  2  0
 75 76  1  0
 76 77  1  0
 77 78  2  0
 79 78  1  0
 79 83  1  0
 80 79  2  0
 81 76  2  0
 81 80  1  0
 82 81  1  0
 84 85  1  0
 85 88  1  0
 85 87  1  0
 86 84  2  0
 89 64  1  0
 89 90  1  0
 91 89  1  0
M  ISO  4   6 101   7 101  50 100  63 100
M  END
>  <TORSDO>  (89) 
F 18

>  <SCORE>  (89) 
-13.480

>  <name>  (89) 
89

>  <ligand_id>  (89) 
89

>  <original_smiles>  (89) 
[H]c1c([H])c([H])c2c(c1[H])C([H])([H])C([H])([H])C([H])([H])C2([H])N([H])C(=O)C1([H])N(C(=O)C([H])(N([H])C(=O)C([H])(N([H])C([H])([H])[H])C([H])([H])[H])C(C([H])([H])[H])(C([H])([H])[H])C([H])([H])[H])C([H])([H])c2c([H])c(OC3([H])C([H])([H])C([H])([H])C([H])(C([H])([H])C([H])([H])C4([H])C([H])([H])C([H])([H])N(C(=O)N5C([H])([H])C([H])([H])C([H])([H])C([H])(n6nc(-c7c([H])c([H])c(Oc8c([H])c([H])c(F)c([H])c8F)c([H])c7[H])c(C(=O)N([H])[H])c6N([H])[H])C5([H])[H])C([H])([H])C4([H])[H])C([H])([H])C3([H])[H])c([H])c([H])c2C1([H])[H]

>  <smiles>  (89) 
[H]c1c([H])c([H])c2c(c1[H])C([H])([H])C([H])([H])C([H])([H])C2([H])N([H])C(=O)C1([H])N(C(=O)C([H])(N([H])C(=O)C([H])(N([H])C([H])([H])[H])C([H])([H])[H])C(C([H])([H])[H])(C([H])([H])[H])C([H])([H])[H])C([H])([H])c2c([H])c(OC3([H])C([H])([H])C([H])([H])C([H])(C([H])([H])C([H])([H])C4([H])C([H])([H])C([H])([H])N(C(=O)N5C([H])([H])C([H])([H])C([H])([H])C([H])(n6nc(-c7c([H])c([H])c(Oc8c([H])c([H])c(F)c([H])c8F)c([H])c7[H])c(C(=O)N([H])[H])c6N([H])[H])C5([H])[H])C([H])([H])C4([H])[H])C([H])([H])C3([H])[H])c([H])c([H])c2C1([H])[H]

$$$$
91:0:0
     RDKit          3D

 95105  0  0  1  0  0  0  0  0999 V2000
  -31.7880  -21.9740   19.4070 C   0  0  0  0  0  3  0  0  0  0  0  0
  -32.7480  -21.1240   18.9580 C   0  0  0  0  0  0  0  0  0  0  0  0
  -32.3140  -19.8050   19.2630 C   0  0  0  0  0  0  0  0  0  0  0  0
  -31.0910  -19.8840   19.9060 C   0  0  0  0  0  0  0  0  0  0  0  0
  -34.0350  -21.5150   18.2800 C   0  0  0  0  0  1  0  0  0  0  0  0
  -33.1460  -18.5850   18.9220 C   0  0  0  0  0  1  0  0  0  0  0  0
  -30.7350  -21.2610   19.9510 N   0  0  0  0  0  0  0  0  0  0  0  0
  -30.6740  -14.5790   20.4230 C   0  0  0  0  0  0  0  0  0  0  0  0
  -30.3870  -12.3820   19.3200 C   0  0  0  0  0  2  0  0  0  0  0  0
  -29.4400  -12.5430   18.1140 C   0  0  0  0  0  2  0  0  0  0  0  0
  -27.9700  -12.3830   18.5510 C   0  0  0  0  0  2  0  0  0  0  0  0
  -27.6200  -13.2320   19.8010 C   0  0  0  0  0  3  0  0  0  0  0  0
  -28.6880  -13.0850   20.9080 C   0  0  0  0  0  2  0  0  0  0  0  0
  -29.9980  -13.3960   20.3150 N   0  0  0  0  0  0  0  0  0  0  0  0
  -31.8480  -14.6950   20.0640 O   0  0  0  0  0  0  0  0  0  0  0  0
  -29.7440  -17.7700   19.3500 C   0  0  0  0  0  2  0  0  0  0  0  0
  -31.0460  -17.8540   21.5040 C   0  0  0  0  0  2  0  0  0  0  0  0
  -29.1190  -16.4350   19.8400 C   0  0  0  0  0  2  0  0  0  0  0  0
  -30.3350  -16.5390   21.9320 C   0  0  0  0  0  2  0  0  0  0  0  0
  -30.2660  -18.7120   20.4660 C   0  0  0  0  0  3  0  0  0  0  0  0
  -29.9550  -15.6800   20.7980 N   0  0  0  0  0  0  0  0  0  0  0  0
  -25.2310  -13.8430   20.5180 C   0  0  0  0  0  0  0  0  0  0  0  0
  -24.1640  -13.0720   20.8880 C   0  0  0  0  0  0  0  0  0  0  0  0
  -24.6270  -11.7210   20.8640 C   0  0  0  0  0  0  0  0  0  0  0  0
  -26.2750  -12.9590   20.2910 N   0  0  0  0  0  0  0  0  0  0  0  0
  -25.9170  -11.6790   20.5590 N   0  0  0  0  0  0  0  0  0  0  0  0
  -23.9030  -10.4600   21.0570 C   0  0  0  0  0  0  0  0  0  0  0  0
  -24.3430   -9.4930   21.9880 C   0  0  0  0  0  3  0  0  0  0  0  0
  -23.6210   -8.2950   22.1680 C   0  0  0  0  0  3  0  0  0  0  0  0
  -22.4450   -8.0540   21.4170 C   0  0  0  0  0  0  0  0  0  0  0  0
  -22.0250   -9.0100   20.4750 C   0  0  0  0  0  3  0  0  0  0  0  0
  -22.7480  -10.2010   20.2930 C   0  0  0  0  0  3  0  0  0  0  0  0
  -21.6940   -6.9090   21.5090 O   0  0  0  0  0  0  0  0  0  0  0  0
  -21.6590   -6.1600   22.6580 C   0  0  0  0  0  0  0  0  0  0  0  0
  -21.2470   -6.7080   23.8920 C   0  0  0  0  0  3  0  0  0  0  0  0
  -21.1600   -5.8870   25.0330 C   0  0  0  0  0  3  0  0  0  0  0  0
  -21.4740   -4.5170   24.9410 C   0  0  0  0  0  0  0  0  0  0  0  0
  -21.8790   -3.9690   23.7120 C   0  0  0  0  0  3  0  0  0  0  0  0
  -21.9690   -4.7880   22.5720 C   0  0  0  0  0  0  0  0  0  0  0  0
  -22.3400   -4.2500   21.3860 F   0  0  0  0  0  0  0  0  0  0  0  0
  -21.3830   -3.7260   26.0350 F   0  0  0  0  0  0  0  0  0  0  0  0
  -22.7670  -13.5500   21.1560 C   0  0  0  0  0  0  0  0  0  0  0  0
  -22.0380  -12.8540   22.0210 N   0  0  0  0  0  0  0  0  0  0  0  0
  -22.3300  -14.5740   20.6340 O   0  0  0  0  0  0  0  0  0  0  0  0
  -22.4040  -12.0250   22.4640 H   0  0  0  0  0  0  0  0  0  0  0  0
  -21.0990  -13.1570   22.2430 H   0  0  0  0  0  0  0  0  0  0  0  0
  -25.3950  -15.2140   20.3340 N   0  0  0  0  0  0  0  0  0  0  0  0
  -24.6290  -15.8690   20.4420 H   0  0  0  0  0  0  0  0  0  0  0  0
  -26.2490  -15.6510   20.0140 H   0  0  0  0  0  0  0  0  0  0  0  0
  -29.5500  -21.9430   20.5360 C   0  0  0  0  0  2  0  0  0  0  0  0
  -29.7830  -24.5900   19.7210 C   0  0  0  0  0  2  0  0  0  0  0  0
  -27.8730  -24.0940   20.3640 C   0  0  0  0  0  2  0  0  0  0  0  0
  -29.0310  -23.2290   19.7850 C   0  0  0  0  0  3  0  0  0  0  0  0
  -28.4250  -25.3160   19.5890 C   0  0  0  0  0  3  0  0  0  0  0  0
  -28.3780  -26.6330   20.2000 O   0  0  0  0  0  0  0  0  0  0  0  0
  -24.5730  -31.8760   23.2480 C   0  0  0  0  0  0  0  0  0  0  0  0
  -27.2030  -27.3810   20.1680 C   0  0  0  0  0  0  0  0  0  0  0  0
  -23.3640  -30.4780   21.6070 C   0  0  0  0  0  3  0  0  0  0  0  0
  -24.8130  -28.9310   20.1810 C   0  0  0  0  0  0  0  0  0  0  0  0
  -25.8970  -30.8150   21.4120 C   0  0  0  0  0  2  0  0  0  0  0  0
  -25.9760  -29.4390   20.7700 C   0  0  0  0  0  0  0  0  0  0  0  0
  -27.1690  -28.6720   20.7610 C   0  0  0  0  0  3  0  0  0  0  0  0
  -26.0130  -26.8980   19.5760 C   0  0  0  0  0  3  0  0  0  0  0  0
  -24.8300  -27.6590   19.5820 C   0  0  0  0  0  3  0  0  0  0  0  0
  -23.5730  -29.7980   20.2270 C   0  0  0  0  0  2  0  0  0  0  0  0
  -24.6300  -31.0730   22.1470 N   0  0  0  0  0  0  0  0  0  0  0  0
  -23.4920  -32.1500   23.7870 O   0  0  0  0  0  0  0  0  0  0  0  0
  -22.7090  -29.4580   22.5680 C   0  0  0  0  0  0  0  0  0  0  0  0
  -21.3830  -29.2790   22.4410 N   0  0  0  0  0  0  0  0  0  0  0  0
  -23.3890  -28.8320   23.3840 O   0  0  0  0  0  0  0  0  0  0  0  0
  -20.8940  -29.8380   21.7560 H   0  0  0  0  0  0  0  0  0  0  0  0
  -18.0070  -28.0880   22.9370 C   0  0  0  0  0  0  0  0  0  0  0  0
  -20.5650  -28.3420   23.2100 C   0  0  0  0  0  3  0  0  0  0  0  0
  -20.6650  -26.9100   22.6340 C   0  0  0  0  0  2  0  0  0  0  0  0
  -19.5630  -26.5890   21.6210 C   0  0  0  0  0  2  0  0  0  0  0  0
  -18.1810  -26.7370   22.2620 C   0  0  0  0  0  2  0  0  0  0  0  0
  -19.1260  -28.8480   23.3680 C   0  0  0  0  0  0  0  0  0  0  0  0
  -18.9090  -30.1130   23.9570 C   0  0  0  0  0  3  0  0  0  0  0  0
  -17.6060  -30.6160   24.1230 C   0  0  0  0  0  3  0  0  0  0  0  0
  -16.5000  -29.8520   23.7090 C   0  0  0  0  0  3  0  0  0  0  0  0
  -16.7020  -28.5910   23.1210 C   0  0  0  0  0  3  0  0  0  0  0  0
  -25.8600  -32.5050   23.8670 C   0  0  0  0  0  3  0  0  0  0  0  0
  -25.5560  -33.9050   24.1920 N   0  0  0  0  0  0  0  0  0  0  0  0
  -25.8930  -34.9540   23.4290 C   0  0  0  0  0  0  0  0  0  0  0  0
  -26.5650  -34.8450   22.4000 O   0  0  0  0  0  0  0  0  0  0  0  0
  -24.9640  -34.0650   24.9940 H   0  0  0  0  0  0  0  0  0  0  0  0
  -24.1750  -36.7530   23.0630 C   0  0  0  0  0  1  0  0  0  0  0  0
  -25.4100  -36.3460   23.8810 C   0  0  0  0  0  3  0  0  0  0  0  0
  -27.5450  -37.2230   24.7190 C   0  0  0  0  0  1  0  0  0  0  0  0
  -26.4480  -37.3940   23.7700 N   0  0  0  0  0  0  0  0  0  0  0  0
  -26.0440  -38.3160   23.9160 H   0  0  0  0  0  0  0  0  0  0  0  0
  -26.3750  -31.7360   25.1460 C   0  0  1  0  0  0  0  0  0  0  0  0
  -25.2810  -31.5050   26.2150 C   0  0  0  0  0  1  0  0  0  0  0  0
  -26.9540  -30.3560   24.7560 C   0  0  0  0  0  1  0  0  0  0  0  0
  -27.5280  -32.5290   25.8050 C   0  0  0  0  0  1  0  0  0  0  0  0
  1  7  1  0
  2  3  1  0
  2  1  2  0
  3  4  2  0
  4  7  1  0
  5  2  1  0
  6  3  1  0
  7 50  1  0
  8 21  1  0
  9 14  1  0
 10 11  1  0
 10  9  1  0
 12 11  1  0
 12 25  1  0
 12 13  1  0
 14  8  1  0
 14 13  1  0
 15  8  2  0
 16 18  1  0
 16 20  1  0
 17 19  1  0
 18 21  1  0
 20  4  1  0
 20 17  1  0
 21 19  1  0
 22 23  2  0
 23 42  1  0
 24 23  1  0
 24 27  1  0
 25 22  1  0
 25 26  1  0
 26 24  2  0
 27 28  1  0
 28 29  2  0
 30 33  1  0
 30 29  1  0
 31 30  2  0
 32 31  1  0
 32 27  2  0
 33 34  1  0
 34 35  1  0
 35 36  2  0
 37 36  1  0
 37 41  1  0
 38 37  2  0
 39 34  2  0
 39 38  1  0
 40 39  1  0
 42 43  1  0
 43 46  1  0
 43 45  1  0
 44 42  2  0
 47 48  1  0
 47 22  1  0
 49 47  1  0
 51 53  1  0
 53 52  1  0
 53 50  1  0
 54 51  1  0
 54 55  1  0
 54 52  1  0
 56 67  2  0
 57 55  1  0
 57 62  1  0
 58 66  1  0
 58 68  1  0
 59 65  1  0
 59 61  1  0
 60 66  1  0
 61 60  1  0
 62 61  2  0
 63 64  1  0
 63 57  2  0
 64 59  2  0
 65 58  1  0
 66 56  1  0
 68 70  2  0
 69 68  1  0
 71 69  1  0
 72 81  2  0
 72 77  1  0
 73 69  1  0
 73 77  1  0
 74 73  1  0
 75 76  1  0
 75 74  1  0
 76 72  1  0
 77 78  2  0
 78 79  1  0
 80 79  2  0
 81 80  1  0
 82 56  1  0
 82 83  1  0
 82 92  1  0
 83 86  1  0
 84 88  1  0
 84 83  1  0
 85 84  2  0
 88 87  1  0
 90 88  1  0
 90 91  1  0
 90 89  1  0
 92 95  1  1
 92 93  1  0
 94 92  1  0
M  ISO  4   8 100  21 100  54 101  55 101
M  END
>  <TORSDO>  (90) 
F 18

>  <SCORE>  (90) 
-15.013

>  <name>  (90) 
91

>  <ligand_id>  (90) 
91

>  <original_smiles>  (90) 
[H]c1c([H])c([H])c2c(c1[H])C([H])([H])C([H])([H])C([H])([H])C2([H])N([H])C(=O)C1([H])N(C(=O)C([H])(N([H])C(=O)C([H])(N([H])C([H])([H])[H])C([H])([H])[H])C(C([H])([H])[H])(C([H])([H])[H])C([H])([H])[H])C([H])([H])c2c([H])c(OC3([H])C([H])([H])C([H])(C([H])([H])n4c([H])c(C([H])([H])[H])c(C([H])([H])[H])c4C4([H])C([H])([H])C([H])([H])N(C(=O)N5C([H])([H])C([H])([H])C([H])([H])C([H])(n6nc(-c7c([H])c([H])c(Oc8c([H])c([H])c(F)c([H])c8F)c([H])c7[H])c(C(=O)N([H])[H])c6N([H])[H])C5([H])[H])C([H])([H])C4([H])[H])C3([H])[H])c([H])c([H])c2C1([H])[H]

>  <smiles>  (90) 
[H]c1c([H])c([H])c2c(c1[H])C([H])([H])C([H])([H])C([H])([H])C2([H])N([H])C(=O)C1([H])N(C(=O)C([H])(N([H])C(=O)C([H])(N([H])C([H])([H])[H])C([H])([H])[H])C(C([H])([H])[H])(C([H])([H])[H])C([H])([H])[H])C([H])([H])c2c([H])c(OC3([H])C([H])([H])C([H])(C([H])([H])n4c([H])c(C([H])([H])[H])c(C([H])([H])[H])c4C4([H])C([H])([H])C([H])([H])N(C(=O)N5C([H])([H])C([H])([H])C([H])([H])C([H])(n6nc(-c7c([H])c([H])c(Oc8c([H])c([H])c(F)c([H])c8F)c([H])c7[H])c(C(=O)N([H])[H])c6N([H])[H])C5([H])[H])C([H])([H])C4([H])[H])C3([H])[H])c([H])c([H])c2C1([H])[H]

$$$$
93:0:0
     RDKit          3D

102112  0  0  1  0  0  0  0  0999 V2000
  -30.3710  -14.2610   20.3940 C   0  0  0  0  0  0  0  0  0  0  0  0
  -30.2450  -11.9690   19.4740 C   0  0  0  0  0  2  0  0  0  0  0  0
  -29.3020  -11.9640   18.2520 C   0  0  0  0  0  2  0  0  0  0  0  0
  -27.8350  -11.7850   18.6840 C   0  0  0  0  0  2  0  0  0  0  0  0
  -27.4280  -12.7410   19.8370 C   0  0  0  0  0  3  0  0  0  0  0  0
  -28.4760  -12.6960   20.9700 C   0  0  0  0  0  2  0  0  0  0  0  0
  -29.7900  -13.0280   20.3890 N   0  0  0  0  0  0  0  0  0  0  0  0
  -31.4650  -14.4840   19.8620 O   0  0  0  0  0  0  0  0  0  0  0  0
  -30.3280  -18.7990   21.6990 C   0  0  0  0  0  0  0  0  0  0  0  0
  -29.7660  -19.4340   20.5980 C   0  0  0  0  0  0  0  0  0  0  0  0
  -30.3190  -17.3950   21.8430 C   0  0  0  0  0  0  0  0  0  0  0  0
  -29.1950  -18.5960   19.6010 C   0  0  0  0  0  0  0  0  0  0  0  0
  -29.7440  -16.6300   20.7990 C   0  0  0  0  0  0  0  0  0  0  0  0
  -30.9160  -19.7780   22.6610 C   0  0  0  0  0  2  0  0  0  0  0  0
  -28.5140  -21.6330   20.9290 C   0  0  0  0  0  2  0  0  0  0  0  0
  -30.4620  -21.5790   19.3730 C   0  0  0  0  0  2  0  0  0  0  0  0
  -28.4430  -23.1800   20.7820 C   0  0  0  0  0  2  0  0  0  0  0  0
  -30.4460  -23.1170   19.3010 C   0  0  0  0  0  2  0  0  0  0  0  0
  -30.9180  -21.1350   21.9180 C   0  0  0  0  0  3  0  0  0  0  0  0
  -29.9050  -20.9800   20.6910 C   0  0  2  0  0  0  0  0  0  0  0  0
  -30.9240  -16.7370   23.0780 C   0  0  0  0  0  1  0  0  0  0  0  0
  -28.5480  -19.0950   18.3200 C   0  0  0  0  0  1  0  0  0  0  0  0
  -29.1920  -17.2420   19.7210 N   0  0  0  0  0  0  0  0  0  0  0  0
  -29.6340  -15.2250   20.9740 N   0  0  0  0  0  0  0  0  0  0  0  0
  -29.1140  -23.7350   19.5680 N   0  0  2  0  0  4  0  0  0  0  0  0
  -28.7890  -14.9060   21.4180 H   0  0  0  0  0  0  0  0  0  0  0  0
  -28.5260  -23.5030   18.7780 H   0  0  0  0  0  0  0  0  0  0  0  0
  -25.0170  -13.3060   20.5480 C   0  0  0  0  0  0  0  0  0  0  0  0
  -23.9710  -12.5110   20.9370 C   0  0  0  0  0  0  0  0  0  0  0  0
  -24.4670  -11.1710   20.9300 C   0  0  0  0  0  0  0  0  0  0  0  0
  -26.0830  -12.4460   20.3280 N   0  0  0  0  0  0  0  0  0  0  0  0
  -25.7560  -11.1600   20.6160 N   0  0  0  0  0  0  0  0  0  0  0  0
  -23.7760   -9.8940   21.1510 C   0  0  0  0  0  0  0  0  0  0  0  0
  -24.2440   -8.9560   22.0970 C   0  0  0  0  0  3  0  0  0  0  0  0
  -23.5540   -7.7430   22.3050 C   0  0  0  0  0  3  0  0  0  0  0  0
  -22.3800   -7.4610   21.5670 C   0  0  0  0  0  0  0  0  0  0  0  0
  -21.9310   -8.3880   20.6100 C   0  0  0  0  0  3  0  0  0  0  0  0
  -22.6220   -9.5930   20.4010 C   0  0  0  0  0  3  0  0  0  0  0  0
  -21.6560   -6.2970   21.6820 O   0  0  0  0  0  0  0  0  0  0  0  0
  -21.6130   -5.5930   22.8590 C   0  0  0  0  0  0  0  0  0  0  0  0
  -21.1120   -6.1600   24.0490 C   0  0  0  0  0  3  0  0  0  0  0  0
  -21.0210   -5.3780   25.2180 C   0  0  0  0  0  3  0  0  0  0  0  0
  -21.4180   -4.0280   25.1950 C   0  0  0  0  0  0  0  0  0  0  0  0
  -21.9100   -3.4590   24.0080 C   0  0  0  0  0  3  0  0  0  0  0  0
  -22.0040   -4.2380   22.8420 C   0  0  0  0  0  0  0  0  0  0  0  0
  -22.4600   -3.6800   21.6950 F   0  0  0  0  0  0  0  0  0  0  0  0
  -21.3240   -3.2730   26.3150 F   0  0  0  0  0  0  0  0  0  0  0  0
  -22.5620  -12.9560   21.2080 C   0  0  0  0  0  0  0  0  0  0  0  0
  -21.8640  -12.2670   22.1070 N   0  0  0  0  0  0  0  0  0  0  0  0
  -22.0860  -13.9470   20.6580 O   0  0  0  0  0  0  0  0  0  0  0  0
  -22.2590  -11.4630   22.5700 H   0  0  0  0  0  0  0  0  0  0  0  0
  -20.9210  -12.5480   22.3300 H   0  0  0  0  0  0  0  0  0  0  0  0
  -25.1470  -14.6760   20.3460 N   0  0  0  0  0  0  0  0  0  0  0  0
  -24.3760  -15.3230   20.4700 H   0  0  0  0  0  0  0  0  0  0  0  0
  -25.9930  -15.1290   20.0260 H   0  0  0  0  0  0  0  0  0  0  0  0
  -31.7260  -22.1840   24.1660 C   0  0  0  0  0  1  0  0  0  0  0  0
  -30.7940  -22.3080   22.9470 C   0  0  0  0  0  3  0  0  0  0  0  0
  -31.1510  -23.5480   22.3670 O   0  0  0  0  0  0  0  0  0  0  0  0
  -32.0990  -23.5760   22.2800 H   0  0  0  0  0  0  0  0  0  0  0  0
  -29.2520  -25.2270   19.5910 C   0  0  0  0  0  2  0  0  0  0  0  0
  -28.0350  -26.0430   20.0930 C   0  0  0  0  0  2  0  0  0  0  0  0
  -27.1780  -26.3740   19.0020 O   0  0  0  0  0  0  0  0  0  0  0  0
  -24.4810  -31.5770   23.1060 C   0  0  0  0  0  0  0  0  0  0  0  0
  -26.1540  -27.2460   19.2920 C   0  0  0  0  0  0  0  0  0  0  0  0
  -22.9030  -30.4810   21.5420 C   0  0  0  0  0  3  0  0  0  0  0  0
  -23.9630  -28.9610   19.7900 C   0  0  0  0  0  0  0  0  0  0  0  0
  -25.4000  -30.6100   21.0030 C   0  0  0  0  0  2  0  0  0  0  0  0
  -25.2400  -29.3060   20.2500 C   0  0  0  0  0  0  0  0  0  0  0  0
  -26.3400  -28.4540   20.0060 C   0  0  0  0  0  3  0  0  0  0  0  0
  -24.8670  -26.9210   18.8200 C   0  0  0  0  0  3  0  0  0  0  0  0
  -23.7680  -27.7640   19.0760 C   0  0  0  0  0  3  0  0  0  0  0  0
  -22.8410  -29.9270   20.0930 C   0  0  0  0  0  2  0  0  0  0  0  0
  -24.2890  -30.8970   21.9400 N   0  0  0  0  0  0  0  0  0  0  0  0
  -23.5260  -31.8970   23.8260 O   0  0  0  0  0  0  0  0  0  0  0  0
  -22.2820  -29.4390   22.4970 C   0  0  0  0  0  0  0  0  0  0  0  0
  -20.9500  -29.2820   22.4240 N   0  0  0  0  0  0  0  0  0  0  0  0
  -22.9910  -28.7730   23.2570 O   0  0  0  0  0  0  0  0  0  0  0  0
  -20.4380  -29.8690   21.7810 H   0  0  0  0  0  0  0  0  0  0  0  0
  -17.6150  -27.9700   22.8750 C   0  0  0  0  0  0  0  0  0  0  0  0
  -20.1540  -28.3300   23.1990 C   0  0  0  0  0  3  0  0  0  0  0  0
  -20.3230  -26.8920   22.6550 C   0  0  0  0  0  2  0  0  0  0  0  0
  -19.2560  -26.5070   21.6240 C   0  0  0  0  0  2  0  0  0  0  0  0
  -17.8560  -26.6140   22.2350 C   0  0  0  0  0  2  0  0  0  0  0  0
  -18.6930  -28.7820   23.3140 C   0  0  0  0  0  0  0  0  0  0  0  0
  -18.4140  -30.0500   23.8710 C   0  0  0  0  0  3  0  0  0  0  0  0
  -17.0880  -30.5040   23.9960 C   0  0  0  0  0  3  0  0  0  0  0  0
  -16.0230  -29.6900   23.5740 C   0  0  0  0  0  3  0  0  0  0  0  0
  -16.2860  -28.4250   23.0200 C   0  0  0  0  0  3  0  0  0  0  0  0
  -25.9080  -32.0040   23.5790 C   0  0  0  0  0  3  0  0  0  0  0  0
  -26.5050  -31.0580   24.6920 C   0  0  1  0  0  0  0  0  0  0  0  0
  -25.5610  -30.8430   25.8980 C   0  0  0  0  0  1  0  0  0  0  0  0
  -26.8430  -29.6680   24.1030 C   0  0  0  0  0  1  0  0  0  0  0  0
  -27.8340  -31.6490   25.2240 C   0  0  0  0  0  1  0  0  0  0  0  0
  -25.8170  -33.3870   24.0640 N   0  0  0  0  0  0  0  0  0  0  0  0
  -26.2240  -34.4620   23.3770 C   0  0  0  0  0  0  0  0  0  0  0  0
  -26.7890  -34.3830   22.2820 O   0  0  0  0  0  0  0  0  0  0  0  0
  -25.3160  -33.5310   24.9290 H   0  0  0  0  0  0  0  0  0  0  0  0
  -24.7420  -36.4930   23.3300 C   0  0  0  0  0  1  0  0  0  0  0  0
  -25.9630  -35.8450   24.0020 C   0  0  0  0  0  3  0  0  0  0  0  0
  -28.2450  -36.3510   24.7550 C   0  0  0  0  0  1  0  0  0  0  0  0
  -27.1210  -36.7600   23.9160 N   0  0  0  0  0  0  0  0  0  0  0  0
  -26.8550  -37.7030   24.1840 H   0  0  0  0  0  0  0  0  0  0  0  0
  1 24  1  0
  2  7  1  0
  3  4  1  0
  3  2  1  0
  5  4  1  0
  5 31  1  0
  5  6  1  0
  7  1  1  0
  7  6  1  0
  8  1  2  0
  9 11  1  0
  9 14  1  0
 10 20  1  0
 10  9  2  0
 11 21  1  0
 12 23  2  0
 12 10  1  0
 13 24  1  0
 13 11  2  0
 17 15  1  0
 18 16  1  0
 18 25  1  0
 19 14  1  0
 19 57  1  0
 20 16  1  6
 20 15  1  0
 20 19  1  0
 22 12  1  0
 23 13  1  0
 24 26  1  0
 25 60  1  0
 25 17  1  0
 25 27  1  6
 28 29  2  0
 29 48  1  0
 30 29  1  0
 30 33  1  0
 31 28  1  0
 31 32  1  0
 32 30  2  0
 33 34  1  0
 34 35  2  0
 36 39  1  0
 36 35  1  0
 37 36  2  0
 38 37  1  0
 38 33  2  0
 39 40  1  0
 40 41  1  0
 41 42  2  0
 43 42  1  0
 43 47  1  0
 44 43  2  0
 45 40  2  0
 45 44  1  0
 46 45  1  0
 48 49  1  0
 49 52  1  0
 49 51  1  0
 50 48  2  0
 53 54  1  0
 53 28  1  0
 55 53  1  0
 57 56  1  0
 58 57  1  0
 59 58  1  0
 60 61  1  0
 62 64  1  0
 62 61  1  0
 63 74  2  0
 64 69  1  0
 65 73  1  0
 65 75  1  0
 66 72  1  0
 66 68  1  0
 67 73  1  0
 68 67  1  0
 69 68  2  0
 70 71  1  0
 70 64  2  0
 71 66  2  0
 72 65  1  0
 73 63  1  0
 75 77  2  0
 76 75  1  0
 78 76  1  0
 79 88  2  0
 79 84  1  0
 80 76  1  0
 80 84  1  0
 81 80  1  0
 82 83  1  0
 82 81  1  0
 83 79  1  0
 84 85  2  0
 85 86  1  0
 87 86  2  0
 88 87  1  0
 89 63  1  0
 89 94  1  0
 89 90  1  0
 90 93  1  1
 90 91  1  0
 92 90  1  0
 94 97  1  0
 95 99  1  0
 95 94  1  0
 96 95  2  0
 99 98  1  0
101 99  1  0
101102  1  0
101100  1  0
M  ISO  4   1 100  24 100  61 101  62 101
M  END
>  <TORSDO>  (91) 
F 19

>  <SCORE>  (91) 
-11.511

>  <name>  (91) 
93

>  <ligand_id>  (91) 
93

>  <original_smiles>  (91) 
[H]OC([H])(C([H])([H])[H])C1([H])C([H])([H])c2c(C([H])([H])[H])c(N([H])C(=O)N3C([H])([H])C([H])([H])C([H])([H])C([H])(n4nc(-c5c([H])c([H])c(Oc6c([H])c([H])c(F)c([H])c6F)c([H])c5[H])c(C(=O)N([H])[H])c4N([H])[H])C3([H])[H])nc(C([H])([H])[H])c2C12C([H])([H])C([H])([H])[N+]([H])(C([H])([H])C([H])([H])Oc1c([H])c([H])c3c(c1[H])C([H])([H])N(C(=O)C([H])(N([H])C(=O)C([H])(N([H])C([H])([H])[H])C([H])([H])[H])C(C([H])([H])[H])(C([H])([H])[H])C([H])([H])[H])C([H])(C(=O)N([H])C1([H])c4c([H])c([H])c([H])c([H])c4C([H])([H])C([H])([H])C1([H])[H])C3([H])[H])C([H])([H])C2([H])[H]

>  <smiles>  (91) 
[H]OC([H])(C([H])([H])[H])C1([H])C([H])([H])c2c(C([H])([H])[H])c(N([H])C(=O)N3C([H])([H])C([H])([H])C([H])([H])C([H])(n4nc(-c5c([H])c([H])c(Oc6c([H])c([H])c(F)c([H])c6F)c([H])c5[H])c(C(=O)N([H])[H])c4N([H])[H])C3([H])[H])nc(C([H])([H])[H])c2C12C([H])([H])C([H])([H])[N+]([H])(C([H])([H])C([H])([H])Oc1c([H])c([H])c3c(c1[H])C([H])([H])N(C(=O)C([H])(N([H])C(=O)C([H])(N([H])C([H])([H])[H])C([H])([H])[H])C(C([H])([H])[H])(C([H])([H])[H])C([H])([H])[H])C([H])(C(=O)N([H])C1([H])c4c([H])c([H])c([H])c([H])c4C([H])([H])C([H])([H])C1([H])[H])C3([H])[H])C([H])([H])C2([H])[H]

$$$$
94:0:0
     RDKit          3D

 94104  0  0  1  0  0  0  0  0999 V2000
  -27.9910  -18.1160   18.1170 C   0  0  0  0  0  3  0  0  0  0  0  0
  -27.9660  -18.3670   19.5130 C   0  0  0  0  0  3  0  0  0  0  0  0
  -29.2270  -18.7750   20.0170 C   0  0  0  0  0  3  0  0  0  0  0  0
  -29.2660  -17.9700   17.5060 C   0  0  0  0  0  0  0  0  0  0  0  0
  -30.1740  -17.6770   19.5820 C   0  0  0  0  0  3  0  0  0  0  0  0
  -29.4100  -17.8720   16.0030 C   0  0  0  0  0  1  0  0  0  0  0  0
  -30.3920  -17.7660   18.2470 N   0  0  0  0  0  2  0  0  0  0  0  0
  -30.8900  -15.0120   19.6310 C   0  0  0  0  0  0  0  0  0  0  0  0
  -30.6360  -12.6800   18.6360 C   0  0  0  0  0  2  0  0  0  0  0  0
  -29.6080  -12.7040   17.4780 C   0  0  0  0  0  2  0  0  0  0  0  0
  -28.1790  -12.5130   18.0170 C   0  0  0  0  0  2  0  0  0  0  0  0
  -27.9030  -13.3880   19.2650 C   0  0  0  0  0  3  0  0  0  0  0  0
  -29.0450  -13.3310   20.3020 C   0  0  0  0  0  2  0  0  0  0  0  0
  -30.2730  -13.7520   19.6170 N   0  0  0  0  0  0  0  0  0  0  0  0
  -32.0400  -15.0430   19.1720 O   0  0  0  0  0  0  0  0  0  0  0  0
  -30.2200  -16.2060   20.0730 N   0  0  0  0  0  0  0  0  0  0  0  0
  -29.4600  -15.9930   20.6970 H   0  0  0  0  0  0  0  0  0  0  0  0
  -25.5960  -13.9910   20.1730 C   0  0  0  0  0  0  0  0  0  0  0  0
  -24.5480  -13.2430   20.6290 C   0  0  0  0  0  0  0  0  0  0  0  0
  -24.9810  -11.8840   20.5510 C   0  0  0  0  0  0  0  0  0  0  0  0
  -26.6020  -13.1000   19.8560 N   0  0  0  0  0  0  0  0  0  0  0  0
  -26.2450  -11.8220   20.1440 N   0  0  0  0  0  0  0  0  0  0  0  0
  -24.2400  -10.6390   20.7800 C   0  0  0  0  0  0  0  0  0  0  0  0
  -24.6580   -9.7000   21.7490 C   0  0  0  0  0  3  0  0  0  0  0  0
  -23.9160   -8.5190   21.9660 C   0  0  0  0  0  3  0  0  0  0  0  0
  -22.7440   -8.2690   21.2140 C   0  0  0  0  0  0  0  0  0  0  0  0
  -22.3450   -9.1970   20.2360 C   0  0  0  0  0  3  0  0  0  0  0  0
  -23.0870  -10.3690   20.0180 C   0  0  0  0  0  3  0  0  0  0  0  0
  -21.9750   -7.1380   21.3390 O   0  0  0  0  0  0  0  0  0  0  0  0
  -21.8320   -6.4960   22.5430 C   0  0  0  0  0  0  0  0  0  0  0  0
  -21.2870   -7.1430   23.6740 C   0  0  0  0  0  3  0  0  0  0  0  0
  -21.0940   -6.4250   24.8710 C   0  0  0  0  0  3  0  0  0  0  0  0
  -21.4350   -5.0610   24.9370 C   0  0  0  0  0  0  0  0  0  0  0  0
  -21.9730   -4.4140   23.8110 C   0  0  0  0  0  3  0  0  0  0  0  0
  -22.1680   -5.1290   22.6160 C   0  0  0  0  0  0  0  0  0  0  0  0
  -22.6680   -4.4960   21.5280 F   0  0  0  0  0  0  0  0  0  0  0  0
  -21.2430   -4.3690   26.0850 F   0  0  0  0  0  0  0  0  0  0  0  0
  -23.1910  -13.7540   21.0110 C   0  0  0  0  0  0  0  0  0  0  0  0
  -22.5210  -13.0780   21.9390 N   0  0  0  0  0  0  0  0  0  0  0  0
  -22.7330  -14.7880   20.5250 O   0  0  0  0  0  0  0  0  0  0  0  0
  -22.9060  -12.2420   22.3540 H   0  0  0  0  0  0  0  0  0  0  0  0
  -21.6130  -13.4020   22.2410 H   0  0  0  0  0  0  0  0  0  0  0  0
  -25.7720  -15.3470   19.9670 N   0  0  0  0  0  4  0  0  0  0  0  0
  -25.0260  -16.0060   20.1540 H   0  0  0  0  0  0  0  0  0  0  0  0
  -26.5920  -15.7770   19.5610 H   0  0  0  0  0  0  0  0  0  0  0  0
  -25.8460  -16.9440   20.2400 C   0  0  0  0  0  3  0  0  0  0  0  0
  -25.3060  -18.3080   19.9570 C   0  0  0  0  0  2  0  0  0  0  0  0
  -26.7530  -18.1450   20.3950 C   0  0  0  0  0  3  0  0  0  0  0  0
  -29.4600  -20.2230   19.7290 O   0  0  0  0  0  0  0  0  0  0  0  0
  -27.3510  -21.3740   20.6520 C   0  0  0  0  0  1  0  0  0  0  0  0
  -28.8330  -21.5380   20.3650 C   0  0  0  0  0  3  0  0  0  0  0  0
  -29.0020  -23.1580   19.8360 C   0  0  0  0  0  3  0  0  0  0  0  0
  -28.1800  -24.5300   20.4530 C   0  0  0  0  0  3  0  0  0  0  0  0
  -28.4190  -26.0710   20.2680 O   0  0  0  0  0  0  0  0  0  0  0  0
  -24.6790  -31.6680   23.3670 C   0  0  0  0  0  0  0  0  0  0  0  0
  -27.3530  -27.0500   20.2620 C   0  0  0  0  0  0  0  0  0  0  0  0
  -23.5350  -30.3500   21.6250 C   0  0  0  0  0  3  0  0  0  0  0  0
  -25.0290  -28.8120   20.2040 C   0  0  0  0  0  0  0  0  0  0  0  0
  -26.0960  -30.5990   21.5710 C   0  0  0  0  0  2  0  0  0  0  0  0
  -26.1890  -29.2300   20.8700 C   0  0  0  0  0  0  0  0  0  0  0  0
  -27.3520  -28.3690   20.8750 C   0  0  0  0  0  3  0  0  0  0  0  0
  -26.1670  -26.7340   19.5630 C   0  0  0  0  0  3  0  0  0  0  0  0
  -25.0330  -27.5770   19.5340 C   0  0  0  0  0  3  0  0  0  0  0  0
  -23.8080  -29.7200   20.2340 C   0  0  0  0  0  2  0  0  0  0  0  0
  -24.7890  -30.8920   22.2440 N   0  0  0  0  0  0  0  0  0  0  0  0
  -23.5750  -31.9410   23.8630 O   0  0  0  0  0  0  0  0  0  0  0  0
  -22.8080  -29.3160   22.5210 C   0  0  0  0  0  0  0  0  0  0  0  0
  -21.4860  -29.1560   22.3270 N   0  0  0  0  0  0  0  0  0  0  0  0
  -23.4390  -28.6600   23.3540 O   0  0  0  0  0  0  0  0  0  0  0  0
  -21.0320  -29.7380   21.6370 H   0  0  0  0  0  0  0  0  0  0  0  0
  -18.0820  -27.9600   22.6450 C   0  0  0  0  0  0  0  0  0  0  0  0
  -20.6300  -28.1920   23.0240 C   0  0  0  0  0  3  0  0  0  0  0  0
  -20.7460  -26.7840   22.3940 C   0  0  0  0  0  2  0  0  0  0  0  0
  -19.6840  -26.5120   21.3250 C   0  0  0  0  0  2  0  0  0  0  0  0
  -18.2780  -26.6400   21.9190 C   0  0  0  0  0  2  0  0  0  0  0  0
  -19.1870  -28.6970   23.1510 C   0  0  0  0  0  0  0  0  0  0  0  0
  -18.9500  -29.9340   23.7870 C   0  0  0  0  0  3  0  0  0  0  0  0
  -17.6420  -30.4360   23.9230 C   0  0  0  0  0  3  0  0  0  0  0  0
  -16.5520  -29.6970   23.4330 C   0  0  0  0  0  3  0  0  0  0  0  0
  -16.7730  -28.4590   22.8010 C   0  0  0  0  0  3  0  0  0  0  0  0
  -25.9350  -32.2670   24.0710 C   0  0  0  0  0  3  0  0  0  0  0  0
  -25.6410  -33.6720   24.3960 N   0  0  0  0  0  0  0  0  0  0  0  0
  -26.0570  -34.7260   23.6830 C   0  0  0  0  0  0  0  0  0  0  0  0
  -26.7950  -34.6180   22.6990 O   0  0  0  0  0  0  0  0  0  0  0  0
  -24.9940  -33.8320   25.1550 H   0  0  0  0  0  0  0  0  0  0  0  0
  -24.4080  -36.5790   23.2470 C   0  0  0  0  0  1  0  0  0  0  0  0
  -25.5820  -36.1240   24.1290 C   0  0  0  0  0  3  0  0  0  0  0  0
  -27.6770  -36.9430   25.1170 C   0  0  0  0  0  1  0  0  0  0  0  0
  -26.6500  -37.1470   24.0980 N   0  0  0  0  0  0  0  0  0  0  0  0
  -26.2600  -38.0770   24.2210 H   0  0  0  0  0  0  0  0  0  0  0  0
  -26.3510  -31.4770   25.3730 C   0  0  1  0  0  0  0  0  0  0  0  0
  -25.1880  -31.2620   26.3700 C   0  0  0  0  0  1  0  0  0  0  0  0
  -26.9240  -30.0870   25.0160 C   0  0  0  0  0  1  0  0  0  0  0  0
  -27.4760  -32.2410   26.1120 C   0  0  0  0  0  1  0  0  0  0  0  0
  2  1  1  0
  2  3  1  0
  2 48  1  0
  3 49  1  0
  4  1  2  0
  4  7  1  0
  5  7  1  0
  5  3  1  0
  5 16  1  0
  6  4  1  0
  8 16  1  0
  9 14  1  0
 10 11  1  0
 10  9  1  0
 12 11  1  0
 12 21  1  0
 12 13  1  0
 14  8  1  0
 14 13  1  0
 15  8  2  0
 16 17  1  0
 18 19  2  0
 19 38  1  0
 20 19  1  0
 20 23  1  0
 21 22  1  0
 21 18  1  0
 22 20  2  0
 23 24  1  0
 24 25  2  0
 26 29  1  0
 26 25  1  0
 27 26  2  0
 28 27  1  0
 28 23  2  0
 29 30  1  0
 30 35  2  0
 30 31  1  0
 31 32  2  0
 32 33  1  0
 33 37  1  0
 34 33  2  0
 35 34  1  0
 36 35  1  0
 38 39  1  0
 39 42  1  0
 39 41  1  0
 40 38  2  0
 43 44  1  0
 43 18  1  0
 43 46  1  0
 45 43  1  0
 46 47  1  0
 46 48  1  0
 48 47  1  0
 49 51  1  0
 51 50  1  0
 52 51  1  0
 52 53  2  0
 54 53  1  0
 55 66  2  0
 56 54  1  0
 56 61  1  0
 57 65  1  0
 57 67  1  0
 58 64  1  0
 58 60  1  0
 59 65  1  0
 60 61  2  0
 60 59  1  0
 62 56  2  0
 63 62  1  0
 63 58  2  0
 64 57  1  0
 65 55  1  0
 67 69  2  0
 68 67  1  0
 70 68  1  0
 71 80  2  0
 71 76  1  0
 72 68  1  0
 72 76  1  0
 73 72  1  0
 74 75  1  0
 74 73  1  0
 75 71  1  0
 76 77  2  0
 77 78  1  0
 79 78  2  0
 80 79  1  0
 81 55  1  0
 81 82  1  0
 81 91  1  0
 82 85  1  0
 83 87  1  0
 83 82  1  0
 84 83  2  0
 87 86  1  0
 89 87  1  0
 89 90  1  0
 89 88  1  0
 91 94  1  1
 91 92  1  0
 93 91  1  0
M  ISO  4   8 100  16 100  53 101  54 101
M  END
>  <TORSDO>  (92) 
F 21

>  <SCORE>  (92) 
-11.445

>  <name>  (92) 
94

>  <ligand_id>  (92) 
94

>  <original_smiles>  (92) 
[H]c1c([H])c([H])c2c(c1[H])C([H])([H])C([H])([H])C([H])([H])C2([H])N([H])C(=O)C1([H])N(C(=O)C([H])(N([H])C(=O)C([H])(N([H])C([H])([H])[H])C([H])([H])[H])C(C([H])([H])[H])(C([H])([H])[H])C([H])([H])[H])C([H])([H])c2c([H])c(OC([H])([H])C([H])([H])C([H])(Oc3c(N([H])C(=O)N4C([H])([H])C([H])([H])C([H])([H])C([H])(n5nc(-c6c([H])c([H])c(Oc7c([H])c([H])c(F)c([H])c7F)c([H])c6[H])c(C(=O)N([H])[H])c5N([H])[H])C4([H])[H])nc(C([H])([H])[H])c([H])c3C3([H])C([H])([H])C3([H])[H])C([H])([H])[H])c([H])c([H])c2C1([H])[H]

>  <smiles>  (92) 
[H]c1c([H])c([H])c2c(c1[H])C([H])([H])C([H])([H])C([H])([H])C2([H])N([H])C(=O)C1([H])N(C(=O)C([H])(N([H])C(=O)C([H])(N([H])C([H])([H])[H])C([H])([H])[H])C(C([H])([H])[H])(C([H])([H])[H])C([H])([H])[H])C([H])([H])c2c([H])c(OC([H])([H])C([H])([H])C([H])(Oc3c(N([H])C(=O)N4C([H])([H])C([H])([H])C([H])([H])C([H])(n5nc(-c6c([H])c([H])c(Oc7c([H])c([H])c(F)c([H])c7F)c([H])c6[H])c(C(=O)N([H])[H])c5N([H])[H])C4([H])[H])nc(C([H])([H])[H])c([H])c3C3([H])C([H])([H])C3([H])[H])C([H])([H])[H])c([H])c([H])c2C1([H])[H]

$$$$
95:0:0
     RDKit          3D

 96105  0  0  1  0  0  0  0  0999 V2000
  -29.5740  -20.6670   22.3460 C   0  0  0  0  0  3  0  0  0  0  0  0
  -29.5380  -22.0720   22.2440 C   0  0  0  0  0  3  0  0  0  0  0  0
  -29.8410  -21.9040   19.8420 C   0  0  0  0  0  3  0  0  0  0  0  0
  -29.7500  -19.8630   21.2000 C   0  0  0  0  0  0  0  0  0  0  0  0
  -29.8990  -20.4920   19.9360 C   0  0  0  0  0  0  0  0  0  0  0  0
  -29.6480  -22.7080   20.9930 C   0  0  0  0  0  0  0  0  0  0  0  0
  -29.7870  -18.3440   21.3770 C   0  0  0  0  0  2  0  0  0  0  0  0
  -31.2170  -17.7880   21.5080 C   0  0  0  0  0  2  0  0  0  0  0  0
  -31.3170  -16.4220   22.2180 C   0  0  0  0  0  2  0  0  0  0  0  0
  -30.9780  -14.5830   20.5570 C   0  0  0  0  0  0  0  0  0  0  0  0
  -30.5940  -12.5040   19.2760 C   0  0  0  0  0  2  0  0  0  0  0  0
  -29.6560  -12.7310   18.0760 C   0  0  0  0  0  2  0  0  0  0  0  0
  -28.1820  -12.6010   18.5040 C   0  0  0  0  0  2  0  0  0  0  0  0
  -27.8550  -13.4430   19.7650 C   0  0  0  0  0  3  0  0  0  0  0  0
  -28.8950  -13.1910   20.8770 C   0  0  0  0  0  2  0  0  0  0  0  0
  -30.2380  -13.4660   20.3300 N   0  0  0  0  0  0  0  0  0  0  0  0
  -32.0050  -14.8560   19.9270 O   0  0  0  0  0  0  0  0  0  0  0  0
  -30.5580  -15.3470   21.5750 N   0  0  0  0  0  0  0  0  0  0  0  0
  -29.7110  -15.0450   22.0340 H   0  0  0  0  0  0  0  0  0  0  0  0
  -25.4690  -14.0930   20.4810 C   0  0  0  0  0  0  0  0  0  0  0  0
  -24.3810  -13.3370   20.8310 C   0  0  0  0  0  0  0  0  0  0  0  0
  -24.8100  -11.9760   20.7690 C   0  0  0  0  0  0  0  0  0  0  0  0
  -26.4930  -13.1920   20.2330 N   0  0  0  0  0  0  0  0  0  0  0  0
  -26.0990  -11.9120   20.4600 N   0  0  0  0  0  0  0  0  0  0  0  0
  -24.0530  -10.7270   20.9280 C   0  0  0  0  0  0  0  0  0  0  0  0
  -24.4620   -9.7260   21.8370 C   0  0  0  0  0  3  0  0  0  0  0  0
  -23.7080   -8.5430   21.9860 C   0  0  0  0  0  3  0  0  0  0  0  0
  -22.5310   -8.3510   21.2240 C   0  0  0  0  0  0  0  0  0  0  0  0
  -22.1410   -9.3400   20.3050 C   0  0  0  0  0  3  0  0  0  0  0  0
  -22.8960  -10.5160   20.1540 C   0  0  0  0  0  3  0  0  0  0  0  0
  -21.7500   -7.2220   21.2830 O   0  0  0  0  0  0  0  0  0  0  0  0
  -21.6780   -6.4550   22.4180 C   0  0  0  0  0  0  0  0  0  0  0  0
  -21.2870   -6.9970   23.6610 C   0  0  0  0  0  3  0  0  0  0  0  0
  -21.1600   -6.1580   24.7870 C   0  0  0  0  0  3  0  0  0  0  0  0
  -21.4140   -4.7790   24.6700 C   0  0  0  0  0  0  0  0  0  0  0  0
  -21.7990   -4.2360   23.4310 C   0  0  0  0  0  3  0  0  0  0  0  0
  -21.9280   -5.0710   22.3070 C   0  0  0  0  0  0  0  0  0  0  0  0
  -22.2780   -4.5400   21.1110 F   0  0  0  0  0  0  0  0  0  0  0  0
  -21.2850   -3.9710   25.7480 F   0  0  0  0  0  0  0  0  0  0  0  0
  -22.9960  -13.8410   21.1150 C   0  0  0  0  0  0  0  0  0  0  0  0
  -22.2560  -13.1500   21.9760 N   0  0  0  0  0  0  0  0  0  0  0  0
  -22.5770  -14.8810   20.6090 O   0  0  0  0  0  0  0  0  0  0  0  0
  -22.6070  -12.3060   22.4040 H   0  0  0  0  0  0  0  0  0  0  0  0
  -21.3260  -13.4680   22.2070 H   0  0  0  0  0  0  0  0  0  0  0  0
  -25.6680  -15.4620   20.3360 N   0  0  0  0  0  0  0  0  0  0  0  0
  -24.9170  -16.1330   20.4540 H   0  0  0  0  0  0  0  0  0  0  0  0
  -26.5300  -15.8840   20.0170 H   0  0  0  0  0  0  0  0  0  0  0  0
  -30.1580  -19.6830   18.6710 C   0  0  0  0  0  2  0  0  0  0  0  0
  -28.8900  -19.4120   17.8470 C   0  0  0  0  0  2  0  0  0  0  0  0
  -28.4260  -18.7310   15.3380 C   0  0  0  0  0  2  0  0  0  0  0  0
  -29.8770  -19.1500   15.4230 C   0  0  0  0  0  2  0  0  0  0  0  0
  -29.1900  -18.5600   16.6290 C   0  0  0  0  0  3  0  0  0  0  0  0
  -29.6310  -24.0880   20.9720 O   0  0  0  0  0  0  0  0  0  0  0  0
  -28.8610  -24.7360   19.9570 C   0  0  0  0  0  2  0  0  0  0  0  0
  -29.4360  -26.1380   19.6480 C   0  0  0  0  0  2  0  0  0  0  0  0
  -29.0840  -27.1500   20.6000 O   0  0  0  0  0  0  0  0  0  0  0  0
  -24.8190  -32.0990   23.4150 C   0  0  0  0  0  0  0  0  0  0  0  0
  -27.8520  -27.7690   20.5230 C   0  0  0  0  0  0  0  0  0  0  0  0
  -23.7740  -30.6170   21.7350 C   0  0  0  0  0  3  0  0  0  0  0  0
  -25.3740  -29.1380   20.4090 C   0  0  0  0  0  0  0  0  0  0  0  0
  -26.2830  -31.1030   21.6590 C   0  0  0  0  0  2  0  0  0  0  0  0
  -26.4690  -29.7290   21.0490 C   0  0  0  0  0  0  0  0  0  0  0  0
  -27.7050  -29.0470   21.1130 C   0  0  0  0  0  3  0  0  0  0  0  0
  -26.7300  -27.1850   19.8880 C   0  0  0  0  0  3  0  0  0  0  0  0
  -25.4970  -27.8630   19.8320 C   0  0  0  0  0  3  0  0  0  0  0  0
  -24.0870  -29.9310   20.3790 C   0  0  0  0  0  2  0  0  0  0  0  0
  -24.9730  -31.2900   22.3290 N   0  0  0  0  0  0  0  0  0  0  0  0
  -23.6990  -32.3240   23.8930 O   0  0  0  0  0  0  0  0  0  0  0  0
  -23.1260  -29.5750   22.6750 C   0  0  0  0  0  0  0  0  0  0  0  0
  -21.8270  -29.3080   22.4670 N   0  0  0  0  0  0  0  0  0  0  0  0
  -23.7920  -29.0090   23.5460 O   0  0  0  0  0  0  0  0  0  0  0  0
  -21.3480  -29.8210   21.7400 H   0  0  0  0  0  0  0  0  0  0  0  0
  -18.5070  -27.9130   22.7660 C   0  0  0  0  0  0  0  0  0  0  0  0
  -21.0200  -28.3350   23.2030 C   0  0  0  0  0  3  0  0  0  0  0  0
  -21.2490  -26.9020   22.6680 C   0  0  0  0  0  2  0  0  0  0  0  0
  -20.2400  -26.4920   21.5900 C   0  0  0  0  0  2  0  0  0  0  0  0
  -18.8120  -26.5630   22.1380 C   0  0  0  0  0  2  0  0  0  0  0  0
  -19.5450  -28.7510   23.2520 C   0  0  0  0  0  0  0  0  0  0  0  0
  -19.2110  -30.0120   23.7930 C   0  0  0  0  0  3  0  0  0  0  0  0
  -17.8700  -30.4340   23.8580 C   0  0  0  0  0  3  0  0  0  0  0  0
  -16.8450  -29.5930   23.3920 C   0  0  0  0  0  3  0  0  0  0  0  0
  -17.1640  -28.3340   22.8510 C   0  0  0  0  0  3  0  0  0  0  0  0
  -26.0380  -32.8020   24.0890 C   0  0  0  0  0  3  0  0  0  0  0  0
  -26.4910  -32.1090   25.4320 C   0  0  1  0  0  0  0  0  0  0  0  0
  -25.3310  -31.8500   26.4210 C   0  0  0  0  0  1  0  0  0  0  0  0
  -27.1740  -30.7530   25.1410 C   0  0  0  0  0  1  0  0  0  0  0  0
  -27.5450  -32.9880   26.1470 C   0  0  0  0  0  1  0  0  0  0  0  0
  -25.6640  -34.2030   24.3250 N   0  0  0  0  0  0  0  0  0  0  0  0
  -26.0150  -35.2280   23.5360 C   0  0  0  0  0  0  0  0  0  0  0  0
  -26.7570  -35.0960   22.5590 O   0  0  0  0  0  0  0  0  0  0  0  0
  -25.0060  -34.3760   25.0720 H   0  0  0  0  0  0  0  0  0  0  0  0
  -24.2550  -36.9370   22.9770 C   0  0  0  0  0  1  0  0  0  0  0  0
  -25.4520  -36.6190   23.8860 C   0  0  0  0  0  3  0  0  0  0  0  0
  -27.5070  -37.6120   24.7930 C   0  0  0  0  0  1  0  0  0  0  0  0
  -26.4550  -37.7010   23.7840 N   0  0  0  0  0  0  0  0  0  0  0  0
  -26.0120  -38.6120   23.8680 H   0  0  0  0  0  0  0  0  0  0  0  0
  2  1  1  0
  3  5  2  0
  3  6  1  0
  4  7  1  0
  4  1  2  0
  5  4  1  0
  6  2  2  0
  7  8  1  0
  8  9  1  0
 10 18  1  0
 11 16  1  0
 12 13  1  0
 12 11  1  0
 14 13  1  0
 14 23  1  0
 14 15  1  0
 16 10  1  0
 16 15  1  0
 17 10  2  0
 18 19  1  0
 18  9  1  0
 20 21  2  0
 21 40  1  0
 22 21  1  0
 22 25  1  0
 23 24  1  0
 23 20  1  0
 24 22  2  0
 25 26  1  0
 26 27  2  0
 28 31  1  0
 28 27  1  0
 29 28  2  0
 30 29  1  0
 30 25  2  0
 31 32  1  0
 32 33  1  0
 33 34  2  0
 35 34  1  0
 35 39  1  0
 36 35  2  0
 37 32  2  0
 37 36  1  0
 38 37  1  0
 40 41  1  0
 41 44  1  0
 41 43  1  0
 42 40  2  0
 45 46  1  0
 45 20  1  0
 47 45  1  0
 48  5  1  0
 49 48  1  0
 50 51  1  0
 50 52  1  0
 51 52  1  0
 52 49  1  0
 53  6  1  0
 54 53  1  0
 55 54  1  0
 55 56  1  0
 57 68  2  0
 58 56  1  0
 58 63  1  0
 59 67  1  0
 59 69  1  0
 60 62  1  0
 61 67  1  0
 62 63  2  0
 62 61  1  0
 64 58  2  0
 65 64  1  0
 65 60  2  0
 66 60  1  0
 66 59  1  0
 67 57  1  0
 69 71  2  0
 70 69  1  0
 72 70  1  0
 73 82  2  0
 73 78  1  0
 74 70  1  0
 74 78  1  0
 75 74  1  0
 76 77  1  0
 76 75  1  0
 77 73  1  0
 78 79  2  0
 79 80  1  0
 81 80  2  0
 82 81  1  0
 83 57  1  0
 83 88  1  0
 83 84  1  0
 84 87  1  1
 84 85  1  0
 86 84  1  0
 88 91  1  0
 89 93  1  0
 89 88  1  0
 90 89  2  0
 93 92  1  0
 95 96  1  0
 95 93  1  0
 95 94  1  0
M  ISO  4  10 100  18 100  55 101  56 101
M  END
>  <TORSDO>  (93) 
F 25

>  <SCORE>  (93) 
-11.207

>  <name>  (93) 
95

>  <ligand_id>  (93) 
95

>  <original_smiles>  (93) 
[H]c1c([H])c([H])c2c(c1[H])C([H])([H])C([H])([H])C([H])([H])C2([H])N([H])C(=O)C1([H])N(C(=O)C([H])(N([H])C(=O)C([H])(N([H])C([H])([H])[H])C([H])([H])[H])C(C([H])([H])[H])(C([H])([H])[H])C([H])([H])[H])C([H])([H])c2c([H])c(OC([H])([H])C([H])([H])Oc3c([H])c([H])c(C([H])([H])C([H])([H])C([H])([H])N([H])C(=O)N4C([H])([H])C([H])([H])C([H])([H])C([H])(n5nc(-c6c([H])c([H])c(Oc7c([H])c([H])c(F)c([H])c7F)c([H])c6[H])c(C(=O)N([H])[H])c5N([H])[H])C4([H])[H])c(C([H])([H])C([H])([H])C4([H])C([H])([H])C4([H])[H])c3[H])c([H])c([H])c2C1([H])[H]

>  <smiles>  (93) 
[H]c1c([H])c([H])c2c(c1[H])C([H])([H])C([H])([H])C([H])([H])C2([H])N([H])C(=O)C1([H])N(C(=O)C([H])(N([H])C(=O)C([H])(N([H])C([H])([H])[H])C([H])([H])[H])C(C([H])([H])[H])(C([H])([H])[H])C([H])([H])[H])C([H])([H])c2c([H])c(OC([H])([H])C([H])([H])Oc3c([H])c([H])c(C([H])([H])C([H])([H])C([H])([H])N([H])C(=O)N4C([H])([H])C([H])([H])C([H])([H])C([H])(n5nc(-c6c([H])c([H])c(Oc7c([H])c([H])c(F)c([H])c7F)c([H])c6[H])c(C(=O)N([H])[H])c5N([H])[H])C4([H])[H])c(C([H])([H])C([H])([H])C4([H])C([H])([H])C4([H])[H])c3[H])c([H])c([H])c2C1([H])[H]

$$$$
96:0:0
     RDKit          3D

 92101  0  0  1  0  0  0  0  0999 V2000
  -29.2710  -19.8040   19.8930 C   0  0  0  0  0  3  0  0  0  0  0  0
  -28.2700  -18.7890   19.3550 C   0  0  0  0  0  3  0  0  0  0  0  0
  -29.0370  -18.4690   20.5540 N   0  0  0  0  0  0  0  0  0  0  0  0
  -26.8570  -19.0440   19.7100 N   0  0  0  0  0  4  0  0  0  0  0  0
  -26.7810  -19.0370   20.7120 H   0  0  0  0  0  0  0  0  0  0  0  0
  -26.6170  -19.9670   19.3870 H   0  0  0  0  0  0  0  0  0  0  0  0
  -25.8190  -16.7450   19.8020 C   0  0  0  0  0  2  0  0  0  0  0  0
  -24.7210  -17.7640   20.0270 C   0  0  0  0  0  2  0  0  0  0  0  0
  -25.8890  -18.0950   19.1230 C   0  0  0  0  0  3  0  0  0  0  0  0
  -28.7730  -21.1910   20.5230 C   0  0  0  0  0  2  0  0  0  0  0  0
  -29.1240  -22.5310   19.7170 C   0  0  0  0  0  2  0  0  0  0  0  0
  -28.2250  -23.8710   19.6760 C   0  0  0  0  0  2  0  0  0  0  0  0
  -28.4020  -25.1080   20.6650 C   0  0  0  0  0  2  0  0  0  0  0  0
  -28.3850  -26.5110   20.1820 O   0  0  0  0  0  0  0  0  0  0  0  0
  -24.5700  -31.8820   23.1740 C   0  0  0  0  0  0  0  0  0  0  0  0
  -27.2270  -27.2960   20.2130 C   0  0  0  0  0  0  0  0  0  0  0  0
  -23.3810  -30.4570   21.5430 C   0  0  0  0  0  3  0  0  0  0  0  0
  -24.8470  -28.8800   20.1600 C   0  0  0  0  0  0  0  0  0  0  0  0
  -25.9160  -30.7850   21.3700 C   0  0  0  0  0  2  0  0  0  0  0  0
  -26.0070  -29.3950   20.7500 C   0  0  0  0  0  0  0  0  0  0  0  0
  -27.2020  -28.6170   20.7550 C   0  0  0  0  0  3  0  0  0  0  0  0
  -26.0430  -26.8150   19.6180 C   0  0  0  0  0  3  0  0  0  0  0  0
  -24.8660  -27.5950   19.5850 C   0  0  0  0  0  3  0  0  0  0  0  0
  -23.6080  -29.7530   20.1770 C   0  0  0  0  0  2  0  0  0  0  0  0
  -24.6400  -31.0600   22.0860 N   0  0  0  0  0  0  0  0  0  0  0  0
  -23.4830  -32.1650   23.6990 O   0  0  0  0  0  0  0  0  0  0  0  0
  -22.7120  -29.4570   22.5140 C   0  0  0  0  0  0  0  0  0  0  0  0
  -21.3880  -29.2780   22.3790 N   0  0  0  0  0  0  0  0  0  0  0  0
  -23.3850  -28.8420   23.3460 O   0  0  0  0  0  0  0  0  0  0  0  0
  -20.9070  -29.8260   21.6800 H   0  0  0  0  0  0  0  0  0  0  0  0
  -18.0020  -28.0990   22.8740 C   0  0  0  0  0  0  0  0  0  0  0  0
  -20.5600  -28.3510   23.1530 C   0  0  0  0  0  3  0  0  0  0  0  0
  -20.6600  -26.9140   22.5900 C   0  0  0  0  0  2  0  0  0  0  0  0
  -19.5620  -26.5870   21.5730 C   0  0  0  0  0  2  0  0  0  0  0  0
  -18.1770  -26.7430   22.2100 C   0  0  0  0  0  2  0  0  0  0  0  0
  -19.1230  -28.8600   23.3010 C   0  0  0  0  0  0  0  0  0  0  0  0
  -18.9080  -30.1280   23.8830 C   0  0  0  0  0  3  0  0  0  0  0  0
  -17.6070  -30.6380   24.0400 C   0  0  0  0  0  3  0  0  0  0  0  0
  -16.5000  -29.8740   23.6300 C   0  0  0  0  0  3  0  0  0  0  0  0
  -16.6980  -28.6070   23.0530 C   0  0  0  0  0  3  0  0  0  0  0  0
  -25.8490  -32.5230   23.7980 C   0  0  0  0  0  3  0  0  0  0  0  0
  -25.5240  -33.9120   24.1520 N   0  0  0  0  0  0  0  0  0  0  0  0
  -25.8300  -34.9810   23.4050 C   0  0  0  0  0  0  0  0  0  0  0  0
  -26.4860  -34.9030   22.3620 O   0  0  0  0  0  0  0  0  0  0  0  0
  -24.9360  -34.0440   24.9630 H   0  0  0  0  0  0  0  0  0  0  0  0
  -24.0660  -36.7490   23.0990 C   0  0  0  0  0  1  0  0  0  0  0  0
  -25.3260  -36.3550   23.8870 C   0  0  0  0  0  3  0  0  0  0  0  0
  -27.4600  -37.2620   24.6930 C   0  0  0  0  0  1  0  0  0  0  0  0
  -26.3390  -37.4270   23.7720 N   0  0  0  0  0  0  0  0  0  0  0  0
  -25.9210  -38.3380   23.9420 H   0  0  0  0  0  0  0  0  0  0  0  0
  -26.3810  -31.7420   25.0610 C   0  0  1  0  0  0  0  0  0  0  0  0
  -25.2950  -31.4680   26.1280 C   0  0  0  0  0  1  0  0  0  0  0  0
  -26.9890  -30.3830   24.6460 C   0  0  0  0  0  1  0  0  0  0  0  0
  -27.5180  -32.5460   25.7350 C   0  0  0  0  0  1  0  0  0  0  0  0
  -29.9890  -17.3300   20.2510 C   0  0  0  0  0  3  0  0  0  0  0  0
  -29.6110  -15.8530   20.7780 C   0  0  0  0  0  3  0  0  0  0  0  0
  -30.4360  -14.5740   20.2810 C   0  0  0  0  0  0  0  0  0  0  0  0
  -30.3470  -12.2580   19.3380 C   0  0  0  0  0  2  0  0  0  0  0  0
  -29.3660  -12.2380   18.1440 C   0  0  0  0  0  2  0  0  0  0  0  0
  -27.9180  -12.0160   18.6250 C   0  0  0  0  0  2  0  0  0  0  0  0
  -27.5410  -12.9370   19.8140 C   0  0  0  0  0  3  0  0  0  0  0  0
  -28.6310  -12.9190   20.9070 C   0  0  0  0  0  2  0  0  0  0  0  0
  -29.8980  -13.3090   20.2770 N   0  0  0  0  0  0  0  0  0  0  0  0
  -31.5640  -14.7540   19.8090 O   0  0  0  0  0  0  0  0  0  0  0  0
  -25.1750  -13.4660   20.6540 C   0  0  0  0  0  0  0  0  0  0  0  0
  -24.1420  -12.6690   21.0610 C   0  0  0  0  0  0  0  0  0  0  0  0
  -24.6240  -11.3280   20.9660 C   0  0  0  0  0  0  0  0  0  0  0  0
  -26.2230  -12.6150   20.3510 N   0  0  0  0  0  0  0  0  0  0  0  0
  -25.8990  -11.3190   20.5960 N   0  0  0  0  0  0  0  0  0  0  0  0
  -23.9270  -10.0490   21.1460 C   0  0  0  0  0  0  0  0  0  0  0  0
  -24.3910   -9.0780   22.0600 C   0  0  0  0  0  3  0  0  0  0  0  0
  -23.6930   -7.8630   22.2280 C   0  0  0  0  0  3  0  0  0  0  0  0
  -22.5170   -7.6110   21.4820 C   0  0  0  0  0  0  0  0  0  0  0  0
  -22.0720   -8.5710   20.5570 C   0  0  0  0  0  3  0  0  0  0  0  0
  -22.7710   -9.7790   20.3870 C   0  0  0  0  0  3  0  0  0  0  0  0
  -21.7880   -6.4500   21.5630 O   0  0  0  0  0  0  0  0  0  0  0  0
  -21.7310   -5.7140   22.7200 C   0  0  0  0  0  0  0  0  0  0  0  0
  -21.2670   -6.2690   23.9320 C   0  0  0  0  0  3  0  0  0  0  0  0
  -21.1590   -5.4590   25.0800 C   0  0  0  0  0  3  0  0  0  0  0  0
  -21.5070   -4.0950   25.0170 C   0  0  0  0  0  0  0  0  0  0  0  0
  -21.9640   -3.5420   23.8090 C   0  0  0  0  0  3  0  0  0  0  0  0
  -22.0730   -4.3480   22.6620 C   0  0  0  0  0  0  0  0  0  0  0  0
  -22.4940   -3.8040   21.4950 F   0  0  0  0  0  0  0  0  0  0  0  0
  -21.3960   -3.3150   26.1160 F   0  0  0  0  0  0  0  0  0  0  0  0
  -22.7550  -13.1160   21.4150 C   0  0  0  0  0  0  0  0  0  0  0  0
  -22.0780  -12.3810   22.2910 N   0  0  0  0  0  0  0  0  0  0  0  0
  -22.2790  -14.1510   20.9490 O   0  0  0  0  0  0  0  0  0  0  0  0
  -22.4770  -11.5430   22.6860 H   0  0  0  0  0  0  0  0  0  0  0  0
  -21.1490  -12.6630   22.5700 H   0  0  0  0  0  0  0  0  0  0  0  0
  -25.3020  -14.8370   20.4800 N   0  0  0  0  0  0  0  0  0  0  0  0
  -24.4690  -15.4140   20.4980 H   0  0  0  0  0  0  0  0  0  0  0  0
  -26.0470  -15.2290   19.9200 H   0  0  0  0  0  0  0  0  0  0  0  0
  1 10  1  0
  1  3  1  0
  2  4  1  0
  2  1  1  0
  2  3  1  0
  4  5  1  0
  6  4  1  0
  7  8  1  0
  9  4  1  0
  9  7  1  0
  9  8  1  0
 11 10  1  0
 12 11  1  0
 12 13  1  0
 14 16  1  0
 14 13  1  0
 15 26  2  0
 16 21  1  0
 17 25  1  0
 17 27  1  0
 18 24  1  0
 18 20  1  0
 19 25  1  0
 20 21  2  0
 20 19  1  0
 22 16  2  0
 23 22  1  0
 23 18  2  0
 24 17  1  0
 25 15  1  0
 27 29  2  0
 28 27  1  0
 30 28  1  0
 31 40  2  0
 31 36  1  0
 32 28  1  0
 32 36  1  0
 33 32  1  0
 34 35  1  0
 34 33  1  0
 35 31  1  0
 36 37  2  0
 37 38  1  0
 39 38  2  0
 40 39  1  0
 41 15  1  0
 41 42  1  0
 41 51  1  0
 42 45  1  0
 43 47  1  0
 43 42  1  0
 44 43  2  0
 47 46  1  0
 49 47  1  0
 49 50  1  0
 49 48  1  0
 51 54  1  1
 51 52  1  0
 53 51  1  0
 55  3  1  0
 55 56  2  0
 57 56  1  0
 58 63  1  0
 59 60  1  0
 59 58  1  0
 61 60  1  0
 61 68  1  0
 61 62  1  0
 63 57  1  0
 63 62  1  0
 64 57  2  0
 65 66  2  0
 66 85  1  0
 67 66  1  0
 67 70  1  0
 68 69  1  0
 68 65  1  0
 69 67  2  0
 70 71  1  0
 71 72  2  0
 73 76  1  0
 73 72  1  0
 74 73  2  0
 75 74  1  0
 75 70  2  0
 76 77  1  0
 77 78  1  0
 78 79  2  0
 80 79  1  0
 80 84  1  0
 81 80  2  0
 82 77  2  0
 82 81  1  0
 83 82  1  0
 85 86  1  0
 86 89  1  0
 86 88  1  0
 87 85  2  0
 90 91  1  0
 90 65  1  0
 92 90  1  0
M  ISO  4  13 101  14 101  56 100  57 100
M  END
>  <TORSDO>  (94) 
F 24

>  <SCORE>  (94) 
-11.223

>  <name>  (94) 
96

>  <ligand_id>  (94) 
96

>  <original_smiles>  (94) 
[H]c1c([H])c([H])c2c(c1[H])C([H])([H])C([H])([H])C([H])([H])C2([H])N([H])C(=O)C1([H])N(C(=O)C([H])(N([H])C(=O)C([H])(N([H])C([H])([H])[H])C([H])([H])[H])C(C([H])([H])[H])(C([H])([H])[H])C([H])([H])[H])C([H])([H])c2c([H])c(OC([H])([H])C([H])([H])C([H])([H])C([H])([H])C3([H])N(C([H])([H])C([H])([H])C(=O)N4C([H])([H])C([H])([H])C([H])([H])C([H])(n5nc(-c6c([H])c([H])c(Oc7c([H])c([H])c(F)c([H])c7F)c([H])c6[H])c(C(=O)N([H])[H])c5N([H])[H])C4([H])[H])C3([H])[N+]([H])([H])C3([H])C([H])([H])C3([H])[H])c([H])c([H])c2C1([H])[H]

>  <smiles>  (94) 
[H]c1c([H])c([H])c2c(c1[H])C([H])([H])C([H])([H])C([H])([H])C2([H])N([H])C(=O)C1([H])N(C(=O)C([H])(N([H])C(=O)C([H])(N([H])C([H])([H])[H])C([H])([H])[H])C(C([H])([H])[H])(C([H])([H])[H])C([H])([H])[H])C([H])([H])c2c([H])c(OC([H])([H])C([H])([H])C([H])([H])C([H])([H])C3([H])N(C([H])([H])C([H])([H])C(=O)N4C([H])([H])C([H])([H])C([H])([H])C([H])(n5nc(-c6c([H])c([H])c(Oc7c([H])c([H])c(F)c([H])c7F)c([H])c6[H])c(C(=O)N([H])[H])c5N([H])[H])C4([H])[H])C3([H])[N+]([H])([H])C3([H])C([H])([H])C3([H])[H])c([H])c([H])c2C1([H])[H]

$$$$
97:0:0
     RDKit          3D

 93102  0  0  1  0  0  0  0  0999 V2000
  -29.8760  -18.3770   21.3560 C   0  0  0  0  0  3  0  0  0  0  0  0
  -29.5920  -17.5590   19.2920 C   0  0  0  0  0  3  0  0  0  0  0  0
  -29.8880  -17.1660   20.5620 C   0  0  0  0  0  0  0  0  0  0  0  0
  -29.5780  -19.4920   20.5620 C   0  0  0  0  0  0  0  0  0  0  0  0
  -29.3920  -18.9480   19.2720 N   0  0  0  0  0  0  0  0  0  0  0  0
  -30.6920  -14.7130   20.4500 C   0  0  0  0  0  0  0  0  0  0  0  0
  -30.4550  -12.4780   19.3690 C   0  0  0  0  0  2  0  0  0  0  0  0
  -29.5240  -12.6530   18.1500 C   0  0  0  0  0  2  0  0  0  0  0  0
  -28.0470  -12.5070   18.5660 C   0  0  0  0  0  2  0  0  0  0  0  0
  -27.6980  -13.3250   19.8390 C   0  0  0  0  0  3  0  0  0  0  0  0
  -28.7580  -13.1430   20.9490 C   0  0  0  0  0  2  0  0  0  0  0  0
  -30.0680  -13.4890   20.3810 N   0  0  0  0  0  0  0  0  0  0  0  0
  -31.8180  -14.8730   19.9710 O   0  0  0  0  0  0  0  0  0  0  0  0
  -29.9930  -15.7640   21.0020 N   0  0  0  0  0  0  0  0  0  0  0  0
  -29.2380  -15.4630   21.6000 H   0  0  0  0  0  0  0  0  0  0  0  0
  -25.3050  -13.9130   20.5560 C   0  0  0  0  0  0  0  0  0  0  0  0
  -24.2390  -13.1380   20.9270 C   0  0  0  0  0  0  0  0  0  0  0  0
  -24.7020  -11.7870   20.8960 C   0  0  0  0  0  0  0  0  0  0  0  0
  -26.3490  -13.0350   20.3190 N   0  0  0  0  0  0  0  0  0  0  0  0
  -25.9920  -11.7510   20.5820 N   0  0  0  0  0  0  0  0  0  0  0  0
  -23.9730  -10.5250   21.0880 C   0  0  0  0  0  0  0  0  0  0  0  0
  -24.4130   -9.5530   22.0140 C   0  0  0  0  0  3  0  0  0  0  0  0
  -23.6830   -8.3580   22.1960 C   0  0  0  0  0  3  0  0  0  0  0  0
  -22.5000   -8.1260   21.4530 C   0  0  0  0  0  0  0  0  0  0  0  0
  -22.0810   -9.0890   20.5180 C   0  0  0  0  0  3  0  0  0  0  0  0
  -22.8100  -10.2750   20.3340 C   0  0  0  0  0  3  0  0  0  0  0  0
  -21.7430   -6.9850   21.5450 O   0  0  0  0  0  0  0  0  0  0  0  0
  -21.7110   -6.2300   22.6910 C   0  0  0  0  0  0  0  0  0  0  0  0
  -21.3010   -6.7730   23.9280 C   0  0  0  0  0  3  0  0  0  0  0  0
  -21.2180   -5.9460   25.0670 C   0  0  0  0  0  3  0  0  0  0  0  0
  -21.5330   -4.5780   24.9690 C   0  0  0  0  0  0  0  0  0  0  0  0
  -21.9340   -4.0340   23.7360 C   0  0  0  0  0  3  0  0  0  0  0  0
  -22.0200   -4.8580   22.6000 C   0  0  0  0  0  0  0  0  0  0  0  0
  -22.3870   -4.3250   21.4100 F   0  0  0  0  0  0  0  0  0  0  0  0
  -21.4440   -3.7820   26.0600 F   0  0  0  0  0  0  0  0  0  0  0  0
  -22.8420  -13.6160   21.2030 C   0  0  0  0  0  0  0  0  0  0  0  0
  -22.1170  -12.9240   22.0750 N   0  0  0  0  0  0  0  0  0  0  0  0
  -22.4030  -14.6400   20.6810 O   0  0  0  0  0  0  0  0  0  0  0  0
  -22.4850  -12.0950   22.5210 H   0  0  0  0  0  0  0  0  0  0  0  0
  -21.1800  -13.2270   22.3010 H   0  0  0  0  0  0  0  0  0  0  0  0
  -25.4680  -15.2840   20.3820 N   0  0  0  0  0  0  0  0  0  0  0  0
  -24.7060  -15.9390   20.5070 H   0  0  0  0  0  0  0  0  0  0  0  0
  -26.3280  -15.7320   20.0850 H   0  0  0  0  0  0  0  0  0  0  0  0
  -29.4950  -20.9830   20.9680 C   0  0  0  0  0  0  0  0  0  0  0  0
  -29.9380  -21.2720   22.0820 O   0  0  0  0  0  0  0  0  0  0  0  0
  -28.8770  -22.2120   20.1460 C   0  0  0  0  0  2  0  0  0  0  0  0
  -28.9720  -23.7200   20.7580 C   0  0  0  0  0  3  0  0  0  0  0  0
  -28.1400  -24.9350   20.0900 C   0  0  0  0  0  3  0  0  0  0  0  0
  -28.3340  -26.3820   20.4710 O   0  0  0  0  0  0  0  0  0  0  0  0
  -24.6320  -31.9480   23.3000 C   0  0  0  0  0  0  0  0  0  0  0  0
  -27.2600  -27.2980   20.3460 C   0  0  0  0  0  0  0  0  0  0  0  0
  -23.4530  -30.5440   21.6450 C   0  0  0  0  0  3  0  0  0  0  0  0
  -24.9250  -28.9750   20.2560 C   0  0  0  0  0  0  0  0  0  0  0  0
  -26.0030  -30.8270   21.5260 C   0  0  0  0  0  2  0  0  0  0  0  0
  -26.0850  -29.4400   20.8910 C   0  0  0  0  0  0  0  0  0  0  0  0
  -27.2520  -28.6120   20.9300 C   0  0  0  0  0  3  0  0  0  0  0  0
  -26.0880  -26.9230   19.6500 C   0  0  0  0  0  3  0  0  0  0  0  0
  -24.9340  -27.7270   19.6210 C   0  0  0  0  0  3  0  0  0  0  0  0
  -23.6960  -29.8620   20.2720 C   0  0  0  0  0  2  0  0  0  0  0  0
  -24.7130  -31.1260   22.2120 N   0  0  0  0  0  0  0  0  0  0  0  0
  -23.5380  -32.2400   23.8080 O   0  0  0  0  0  0  0  0  0  0  0  0
  -22.7630  -29.5390   22.6000 C   0  0  0  0  0  0  0  0  0  0  0  0
  -21.4350  -29.3790   22.4590 N   0  0  0  0  0  0  0  0  0  0  0  0
  -23.4230  -28.9080   23.4310 O   0  0  0  0  0  0  0  0  0  0  0  0
  -20.9600  -29.9390   21.7660 H   0  0  0  0  0  0  0  0  0  0  0  0
  -18.0330  -28.2480   22.9540 C   0  0  0  0  0  0  0  0  0  0  0  0
  -20.5960  -28.4560   23.2270 C   0  0  0  0  0  3  0  0  0  0  0  0
  -20.6710  -27.0240   22.6520 C   0  0  0  0  0  2  0  0  0  0  0  0
  -19.5660  -26.7240   21.6350 C   0  0  0  0  0  2  0  0  0  0  0  0
  -18.1840  -26.8970   22.2750 C   0  0  0  0  0  2  0  0  0  0  0  0
  -19.1660  -28.9870   23.3880 C   0  0  0  0  0  0  0  0  0  0  0  0
  -18.9710  -30.2520   23.9840 C   0  0  0  0  0  3  0  0  0  0  0  0
  -17.6760  -30.7800   24.1450 C   0  0  0  0  0  3  0  0  0  0  0  0
  -16.5580  -30.0400   23.7240 C   0  0  0  0  0  3  0  0  0  0  0  0
  -16.7380  -28.7740   23.1380 C   0  0  0  0  0  3  0  0  0  0  0  0
  -25.9060  -32.5810   23.9390 C   0  0  0  0  0  3  0  0  0  0  0  0
  -25.5990  -33.9860   24.2490 N   0  0  0  0  0  0  0  0  0  0  0  0
  -25.9400  -35.0280   23.4790 C   0  0  0  0  0  0  0  0  0  0  0  0
  -26.6190  -34.9090   22.4540 O   0  0  0  0  0  0  0  0  0  0  0  0
  -24.9970  -34.1520   25.0420 H   0  0  0  0  0  0  0  0  0  0  0  0
  -24.2200  -36.8210   23.0870 C   0  0  0  0  0  1  0  0  0  0  0  0
  -25.4560  -36.4250   23.9110 C   0  0  0  0  0  3  0  0  0  0  0  0
  -27.5870  -37.3170   24.7440 C   0  0  0  0  0  1  0  0  0  0  0  0
  -26.4920  -37.4730   23.7890 N   0  0  0  0  0  0  0  0  0  0  0  0
  -26.0870  -38.3960   23.9220 H   0  0  0  0  0  0  0  0  0  0  0  0
  -26.3920  -31.8220   25.2340 C   0  0  1  0  0  0  0  0  0  0  0  0
  -25.2730  -31.6000   26.2770 C   0  0  0  0  0  1  0  0  0  0  0  0
  -26.9790  -30.4360   24.8760 C   0  0  0  0  0  1  0  0  0  0  0  0
  -27.5300  -32.6180   25.9160 C   0  0  0  0  0  1  0  0  0  0  0  0
  -29.0320  -19.6140   18.0320 C   0  0  0  0  0  2  0  0  0  0  0  0
  -26.9040  -20.7320   16.9740 C   0  0  0  0  0  2  0  0  0  0  0  0
  -26.9280  -19.3090   16.4810 C   0  0  0  0  0  2  0  0  0  0  0  0
  -27.5270  -19.6540   17.8310 C   0  0  0  0  0  3  0  0  0  0  0  0
  2  3  2  0
  3 14  1  0
  3  1  1  0
  4 44  1  0
  4  1  2  0
  5  2  1  0
  5  4  1  0
  6 14  1  0
  7 12  1  0
  8  9  1  0
  8  7  1  0
 10  9  1  0
 10 19  1  0
 10 11  1  0
 12  6  1  0
 12 11  1  0
 13  6  2  0
 14 15  1  0
 16 17  2  0
 17 36  1  0
 18 17  1  0
 18 21  1  0
 19 16  1  0
 19 20  1  0
 20 18  2  0
 21 22  1  0
 22 23  2  0
 24 27  1  0
 24 23  1  0
 25 24  2  0
 26 25  1  0
 26 21  2  0
 27 28  1  0
 28 29  1  0
 29 30  2  0
 31 30  1  0
 31 35  1  0
 32 31  2  0
 33 28  2  0
 33 32  1  0
 34 33  1  0
 36 37  1  0
 37 40  1  0
 37 39  1  0
 38 36  2  0
 41 42  1  0
 41 16  1  0
 43 41  1  0
 44 45  2  0
 46 47  1  0
 46 44  1  0
 48 49  1  0
 48 47  2  0
 50 61  2  0
 51 49  1  0
 51 56  1  0
 52 60  1  0
 52 62  1  0
 53 59  1  0
 53 55  1  0
 54 60  1  0
 55 56  2  0
 55 54  1  0
 57 51  2  0
 58 57  1  0
 58 53  2  0
 59 52  1  0
 60 50  1  0
 62 64  2  0
 63 62  1  0
 65 63  1  0
 66 75  2  0
 66 71  1  0
 67 63  1  0
 67 71  1  0
 68 67  1  0
 69 70  1  0
 69 68  1  0
 70 66  1  0
 71 72  2  0
 72 73  1  0
 74 73  2  0
 75 74  1  0
 76 50  1  0
 76 77  1  0
 76 86  1  0
 77 80  1  0
 78 82  1  0
 78 77  1  0
 79 78  2  0
 82 81  1  0
 84 82  1  0
 84 85  1  0
 84 83  1  0
 86 89  1  1
 86 87  1  0
 88 86  1  0
 90  5  1  0
 91 93  1  0
 92 91  1  0
 92 93  1  0
 93 90  1  0
M  ISO  4   6 100  14 100  48 101  49 101
M  END
>  <TORSDO>  (95) 
F 22

>  <SCORE>  (95) 
-12.706

>  <name>  (95) 
97

>  <ligand_id>  (95) 
97

>  <original_smiles>  (95) 
[H]c1c([H])c([H])c2c(c1[H])C([H])([H])C([H])([H])C([H])([H])C2([H])N([H])C(=O)C1([H])N(C(=O)C([H])(N([H])C(=O)C([H])(N([H])C([H])([H])[H])C([H])([H])[H])C(C([H])([H])[H])(C([H])([H])[H])C([H])([H])[H])C([H])([H])c2c([H])c(OC([H])([H])C([H])([H])C([H])([H])C(=O)c3c([H])c(N([H])C(=O)N4C([H])([H])C([H])([H])C([H])([H])C([H])(n5nc(-c6c([H])c([H])c(Oc7c([H])c([H])c(F)c([H])c7F)c([H])c6[H])c(C(=O)N([H])[H])c5N([H])[H])C4([H])[H])c([H])n3C([H])([H])C3([H])C([H])([H])C3([H])[H])c([H])c([H])c2C1([H])[H]

>  <smiles>  (95) 
[H]c1c([H])c([H])c2c(c1[H])C([H])([H])C([H])([H])C([H])([H])C2([H])N([H])C(=O)C1([H])N(C(=O)C([H])(N([H])C(=O)C([H])(N([H])C([H])([H])[H])C([H])([H])[H])C(C([H])([H])[H])(C([H])([H])[H])C([H])([H])[H])C([H])([H])c2c([H])c(OC([H])([H])C([H])([H])C([H])([H])C(=O)c3c([H])c(N([H])C(=O)N4C([H])([H])C([H])([H])C([H])([H])C([H])(n5nc(-c6c([H])c([H])c(Oc7c([H])c([H])c(F)c([H])c7F)c([H])c6[H])c(C(=O)N([H])[H])c5N([H])[H])C4([H])[H])c([H])n3C([H])([H])C3([H])C([H])([H])C3([H])[H])c([H])c([H])c2C1([H])[H]

$$$$
