0:0:0
     RDKit          3D

 88 96  0  0  1  0  0  0  0  0999 V2000
  -28.9760  -21.6870   20.0790 C   0  0  0  0  0  2  0  0  0  0  0  0
  -31.1720  -18.8970   21.6480 C   0  0  0  0  0  3  0  0  0  0  0  0
  -30.5450  -20.9250   21.8460 C   0  0  0  0  0  3  0  0  0  0  0  0
  -30.3130  -19.1010   20.5890 C   0  0  0  0  0  0  0  0  0  0  0  0
  -31.3130  -20.0240   22.4330 N   0  0  0  0  0  0  0  0  0  0  0  0
  -29.8960  -20.5620   20.7230 N   0  0  0  0  0  0  0  0  0  0  0  0
  -30.1240  -17.8180   19.6030 C   0  0  0  0  0  2  0  0  0  0  0  0
  -30.8240  -15.1170   19.8840 C   0  0  0  0  0  0  0  0  0  0  0  0
  -30.6710  -12.7370   19.0100 C   0  0  0  0  0  2  0  0  0  0  0  0
  -29.7070  -12.6810   17.8000 C   0  0  0  0  0  2  0  0  0  0  0  0
  -28.2510  -12.4920   18.2660 C   0  0  0  0  0  2  0  0  0  0  0  0
  -27.8860  -13.4320   19.4460 C   0  0  0  0  0  3  0  0  0  0  0  0
  -28.9730  -13.4570   20.5440 C   0  0  0  0  0  2  0  0  0  0  0  0
  -30.2330  -13.8510   19.9010 N   0  0  0  0  0  0  0  0  0  0  0  0
  -31.9990  -15.1760   19.5010 O   0  0  0  0  0  0  0  0  0  0  0  0
  -30.0510  -16.2980   20.0900 N   0  0  0  0  0  0  0  0  0  0  0  0
  -29.1360  -16.0670   20.4490 H   0  0  0  0  0  0  0  0  0  0  0  0
  -25.5360  -14.0390   20.2560 C   0  0  0  0  0  0  0  0  0  0  0  0
  -24.4760  -13.2780   20.6640 C   0  0  0  0  0  0  0  0  0  0  0  0
  -24.9230  -11.9210   20.6210 C   0  0  0  0  0  0  0  0  0  0  0  0
  -26.5600  -13.1480   19.9850 N   0  0  0  0  0  0  0  0  0  0  0  0
  -26.2030  -11.8690   20.2700 N   0  0  0  0  0  0  0  0  0  0  0  0
  -24.1860  -10.6670   20.8350 C   0  0  0  0  0  0  0  0  0  0  0  0
  -24.6010   -9.7210   21.7980 C   0  0  0  0  0  3  0  0  0  0  0  0
  -23.8640   -8.5340   22.0010 C   0  0  0  0  0  3  0  0  0  0  0  0
  -22.6970   -8.2830   21.2410 C   0  0  0  0  0  0  0  0  0  0  0  0
  -22.3000   -9.2180   20.2670 C   0  0  0  0  0  3  0  0  0  0  0  0
  -23.0370  -10.3960   20.0620 C   0  0  0  0  0  3  0  0  0  0  0  0
  -21.9340   -7.1460   21.3510 O   0  0  0  0  0  0  0  0  0  0  0  0
  -21.8210   -6.4680   22.5380 C   0  0  0  0  0  0  0  0  0  0  0  0
  -21.3140   -7.0830   23.7030 C   0  0  0  0  0  3  0  0  0  0  0  0
  -21.1510   -6.3300   24.8830 C   0  0  0  0  0  3  0  0  0  0  0  0
  -21.4810   -4.9620   24.8970 C   0  0  0  0  0  0  0  0  0  0  0  0
  -21.9800   -4.3450   23.7370 C   0  0  0  0  0  3  0  0  0  0  0  0
  -22.1470   -5.0960   22.5590 C   0  0  0  0  0  0  0  0  0  0  0  0
  -22.6070   -4.4920   21.4370 F   0  0  0  0  0  0  0  0  0  0  0  0
  -21.3170   -4.2360   26.0270 F   0  0  0  0  0  0  0  0  0  0  0  0
  -23.0930  -13.7710   20.9750 C   0  0  0  0  0  0  0  0  0  0  0  0
  -22.3900  -13.0960   21.8780 N   0  0  0  0  0  0  0  0  0  0  0  0
  -22.6470  -14.7920   20.4530 O   0  0  0  0  0  0  0  0  0  0  0  0
  -22.7670  -12.2730   22.3240 H   0  0  0  0  0  0  0  0  0  0  0  0
  -21.4610  -13.4050   22.1240 H   0  0  0  0  0  0  0  0  0  0  0  0
  -25.7090  -15.4060   20.0650 N   0  0  0  0  0  0  0  0  0  0  0  0
  -24.9450  -16.0650   20.1730 H   0  0  0  0  0  0  0  0  0  0  0  0
  -26.5340  -15.8250   19.6570 H   0  0  0  0  0  0  0  0  0  0  0  0
  -29.0730  -23.3490   20.5080 C   0  0  0  0  0  3  0  0  0  0  0  0
  -28.0880  -24.6440   20.0230 C   0  0  0  0  0  3  0  0  0  0  0  0
  -28.2880  -26.1790   20.2830 O   0  0  0  0  0  0  0  0  0  0  0  0
  -24.6460  -31.9050   23.1790 C   0  0  0  0  0  0  0  0  0  0  0  0
  -27.2320  -27.1630   20.1860 C   0  0  0  0  0  0  0  0  0  0  0  0
  -23.4460  -30.4860   21.5590 C   0  0  0  0  0  3  0  0  0  0  0  0
  -24.8970  -28.9060   20.1400 C   0  0  0  0  0  0  0  0  0  0  0  0
  -25.9980  -30.7620   21.3800 C   0  0  0  0  0  2  0  0  0  0  0  0
  -26.0770  -29.3610   20.7450 C   0  0  0  0  0  0  0  0  0  0  0  0
  -27.2410  -28.5030   20.7540 C   0  0  0  0  0  3  0  0  0  0  0  0
  -26.0290  -26.8180   19.5290 C   0  0  0  0  0  3  0  0  0  0  0  0
  -24.8880  -27.6500   19.5160 C   0  0  0  0  0  3  0  0  0  0  0  0
  -23.6650  -29.7970   20.1850 C   0  0  0  0  0  2  0  0  0  0  0  0
  -24.7170  -31.0740   22.0950 N   0  0  0  0  0  0  0  0  0  0  0  0
  -23.5600  -32.1880   23.7090 O   0  0  0  0  0  0  0  0  0  0  0  0
  -22.7770  -29.4850   22.5350 C   0  0  0  0  0  0  0  0  0  0  0  0
  -21.4570  -29.2740   22.3890 N   0  0  0  0  0  0  0  0  0  0  0  0
  -23.4500  -28.9010   23.3880 O   0  0  0  0  0  0  0  0  0  0  0  0
  -20.9680  -29.7980   21.6770 H   0  0  0  0  0  0  0  0  0  0  0  0
  -18.1170  -27.9330   22.8020 C   0  0  0  0  0  0  0  0  0  0  0  0
  -20.6450  -28.3340   23.1680 C   0  0  0  0  0  3  0  0  0  0  0  0
  -20.8420  -26.8830   22.6690 C   0  0  0  0  0  2  0  0  0  0  0  0
  -19.8060  -26.4600   21.6250 C   0  0  0  0  0  2  0  0  0  0  0  0
  -18.3890  -26.5650   22.1990 C   0  0  0  0  0  2  0  0  0  0  0  0
  -19.1760  -28.7700   23.2420 C   0  0  0  0  0  0  0  0  0  0  0  0
  -18.8680  -30.0450   23.7630 C   0  0  0  0  0  3  0  0  0  0  0  0
  -17.5330  -30.4860   23.8480 C   0  0  0  0  0  3  0  0  0  0  0  0
  -16.4880  -29.6470   23.4220 C   0  0  0  0  0  3  0  0  0  0  0  0
  -16.7800  -28.3720   22.9060 C   0  0  0  0  0  3  0  0  0  0  0  0
  -25.9220  -32.5550   23.7950 C   0  0  0  0  0  3  0  0  0  0  0  0
  -26.4550  -31.7880   25.0690 C   0  0  1  0  0  0  0  0  0  0  0  0
  -25.3700  -31.5400   26.1440 C   0  0  0  0  0  1  0  0  0  0  0  0
  -27.0480  -30.4170   24.6730 C   0  0  0  0  0  1  0  0  0  0  0  0
  -27.6010  -32.5940   25.7240 C   0  0  0  0  0  1  0  0  0  0  0  0
  -25.5980  -33.9500   24.1360 N   0  0  0  0  0  0  0  0  0  0  0  0
  -25.9220  -35.0150   23.3900 C   0  0  0  0  0  0  0  0  0  0  0  0
  -26.5910  -34.9270   22.3580 O   0  0  0  0  0  0  0  0  0  0  0  0
  -25.0040  -34.0920   24.9390 H   0  0  0  0  0  0  0  0  0  0  0  0
  -24.1870  -36.8060   23.0560 C   0  0  0  0  0  1  0  0  0  0  0  0
  -25.4270  -36.3960   23.8650 C   0  0  0  0  0  3  0  0  0  0  0  0
  -27.5520  -37.2840   24.7170 C   0  0  0  0  0  1  0  0  0  0  0  0
  -26.4550  -37.4550   23.7690 N   0  0  0  0  0  0  0  0  0  0  0  0
  -26.0430  -38.3720   23.9230 H   0  0  0  0  0  0  0  0  0  0  0  0
  1 46  1  0
  1  6  1  0
  2  5  1  0
  3  5  2  0
  4  6  1  0
  4  2  2  0
  6  3  1  0
  7 16  1  0
  7  4  1  0
  8 14  1  0
  8 16  1  0
  9 14  1  0
 10 11  1  0
 10  9  1  0
 12 11  1  0
 12 21  1  0
 12 13  1  0
 14 13  1  0
 15  8  2  0
 16 17  1  0
 18 19  2  0
 19 38  1  0
 20 19  1  0
 20 23  1  0
 21 18  1  0
 21 22  1  0
 22 20  2  0
 23 24  1  0
 24 25  2  0
 26 29  1  0
 26 25  1  0
 27 26  2  0
 28 27  1  0
 28 23  2  0
 29 30  1  0
 30 35  2  0
 30 31  1  0
 31 32  2  0
 32 33  1  0
 33 37  1  0
 34 33  2  0
 35 34  1  0
 36 35  1  0
 38 39  1  0
 39 42  1  0
 39 41  1  0
 40 38  2  0
 43 44  1  0
 43 18  1  0
 45 43  1  0
 47 48  1  0
 47 46  2  0
 49 60  2  0
 50 48  1  0
 50 55  1  0
 51 59  1  0
 51 61  1  0
 52 58  1  0
 52 54  1  0
 53 59  1  0
 54 55  2  0
 54 53  1  0
 56 50  2  0
 57 56  1  0
 57 52  2  0
 58 51  1  0
 59 49  1  0
 61 63  2  0
 62 61  1  0
 64 62  1  0
 65 74  2  0
 65 70  1  0
 66 62  1  0
 66 70  1  0
 67 66  1  0
 68 69  1  0
 68 67  1  0
 69 65  1  0
 70 71  2  0
 71 72  1  0
 73 72  2  0
 74 73  1  0
 75 49  1  0
 75 80  1  0
 75 76  1  0
 76 79  1  1
 76 77  1  0
 78 76  1  0
 80 83  1  0
 81 85  1  0
 81 80  1  0
 82 81  2  0
 85 84  1  0
 87 85  1  0
 87 88  1  0
 87 86  1  0
M  ISO  4   8 100  16 100  47 101  48 101
M  END
>  <TORSDO>  (1) 
F 20

>  <SCORE>  (1) 
-14.782

>  <name>  (1) 
0

>  <ligand_id>  (1) 
0

>  <original_smiles>  (1) 
[H]c1nc([H])n(C([H])([H])C([H])([H])C([H])([H])Oc2c([H])c([H])c3c(c2[H])C([H])([H])N(C(=O)C([H])(N([H])C(=O)C([H])(N([H])C([H])([H])[H])C([H])([H])[H])C(C([H])([H])[H])(C([H])([H])[H])C([H])([H])[H])C([H])(C(=O)N([H])C2([H])c4c([H])c([H])c([H])c([H])c4C([H])([H])C([H])([H])C2([H])[H])C3([H])[H])c1C([H])([H])N([H])C(=O)N1C([H])([H])C([H])([H])C([H])([H])C([H])(n2nc(-c3c([H])c([H])c(Oc4c([H])c([H])c(F)c([H])c4F)c([H])c3[H])c(C(=O)N([H])[H])c2N([H])[H])C1([H])[H]

>  <smiles>  (1) 
[H]c1nc([H])n(C([H])([H])C([H])([H])C([H])([H])Oc2c([H])c([H])c3c(c2[H])C([H])([H])N(C(=O)C([H])(N([H])C(=O)C([H])(N([H])C([H])([H])[H])C([H])([H])[H])C(C([H])([H])[H])(C([H])([H])[H])C([H])([H])[H])C([H])(C(=O)N([H])C2([H])c4c([H])c([H])c([H])c([H])c4C([H])([H])C([H])([H])C2([H])[H])C3([H])[H])c1C([H])([H])N([H])C(=O)N1C([H])([H])C([H])([H])C([H])([H])C([H])(n2nc(-c3c([H])c([H])c(Oc4c([H])c([H])c(F)c([H])c4F)c([H])c3[H])c(C(=O)N([H])[H])c2N([H])[H])C1([H])[H]

$$$$
1:0:0
     RDKit          3D

 97106  0  0  1  0  0  0  0  0999 V2000
  -30.8200  -21.9840   19.0190 C   0  0  0  0  0  3  0  0  0  0  0  0
  -31.3510  -20.6870   19.1370 C   0  0  0  0  0  3  0  0  0  0  0  0
  -29.7130  -21.7330   21.1720 C   0  0  0  0  0  0  0  0  0  0  0  0
  -30.2790  -20.4270   21.3170 C   0  0  0  0  0  0  0  0  0  0  0  0
  -29.9900  -22.5250   20.0290 C   0  0  0  0  0  0  0  0  0  0  0  0
  -31.1000  -19.8940   20.2810 C   0  0  0  0  0  0  0  0  0  0  0  0
  -28.7910  -22.3080   22.2470 C   0  0  0  0  0  1  0  0  0  0  0  0
  -29.1700  -18.3330   22.2590 C   0  0  0  0  0  1  0  0  0  0  0  0
  -29.9960  -19.5860   22.5780 C   0  0  0  0  0  3  0  0  0  0  0  0
  -32.2160  -20.3400   23.7880 C   0  0  0  0  0  2  0  0  0  0  0  0
  -31.3860  -19.6200   24.8240 C   0  0  0  0  0  2  0  0  0  0  0  0
  -31.2590  -19.2500   23.3630 C   0  0  0  0  0  3  0  0  0  0  0  0
  -29.4170  -23.7850   19.9470 O   0  0  0  0  0  0  0  0  0  0  0  0
  -29.9660  -24.7490   19.0470 C   0  0  0  0  0  2  0  0  0  0  0  0
  -28.9700  -25.8950   18.7680 C   0  0  0  0  0  2  0  0  0  0  0  0
  -28.7350  -26.7250   19.9160 O   0  0  0  0  0  0  0  0  0  0  0  0
  -25.0140  -31.6510   23.4820 C   0  0  0  0  0  0  0  0  0  0  0  0
  -27.5570  -27.4430   19.9920 C   0  0  0  0  0  0  0  0  0  0  0  0
  -23.7680  -30.4090   21.7450 C   0  0  0  0  0  3  0  0  0  0  0  0
  -25.1790  -28.9720   20.1840 C   0  0  0  0  0  0  0  0  0  0  0  0
  -26.3000  -30.7390   21.5500 C   0  0  0  0  0  2  0  0  0  0  0  0
  -26.3540  -29.4250   20.7980 C   0  0  0  0  0  0  0  0  0  0  0  0
  -27.5410  -28.6620   20.7080 C   0  0  0  0  0  3  0  0  0  0  0  0
  -26.3500  -26.9840   19.4130 C   0  0  0  0  0  3  0  0  0  0  0  0
  -25.1700  -27.7460   19.4980 C   0  0  0  0  0  3  0  0  0  0  0  0
  -23.9530  -29.8450   20.3120 C   0  0  0  0  0  2  0  0  0  0  0  0
  -25.0470  -30.9420   22.3180 N   0  0  0  0  0  0  0  0  0  0  0  0
  -23.9430  -31.8940   24.0550 O   0  0  0  0  0  0  0  0  0  0  0  0
  -23.1130  -29.3200   22.6240 C   0  0  0  0  0  0  0  0  0  0  0  0
  -21.7870  -29.1530   22.4790 N   0  0  0  0  0  0  0  0  0  0  0  0
  -23.7910  -28.6330   23.3910 O   0  0  0  0  0  0  0  0  0  0  0  0
  -21.3010  -29.7610   21.8350 H   0  0  0  0  0  0  0  0  0  0  0  0
  -18.4070  -27.9440   22.8790 C   0  0  0  0  0  0  0  0  0  0  0  0
  -20.9650  -28.1650   23.1780 C   0  0  0  0  0  3  0  0  0  0  0  0
  -21.0600  -26.7800   22.4980 C   0  0  0  0  0  2  0  0  0  0  0  0
  -19.9620  -26.5410   21.4570 C   0  0  0  0  0  2  0  0  0  0  0  0
  -18.5770  -26.6480   22.1020 C   0  0  0  0  0  2  0  0  0  0  0  0
  -19.5280  -28.6640   23.3690 C   0  0  0  0  0  0  0  0  0  0  0  0
  -19.3150  -29.8810   24.0510 C   0  0  0  0  0  3  0  0  0  0  0  0
  -18.0130  -30.3770   24.2500 C   0  0  0  0  0  3  0  0  0  0  0  0
  -16.9050  -29.6520   23.7770 C   0  0  0  0  0  3  0  0  0  0  0  0
  -17.1030  -28.4370   23.0970 C   0  0  0  0  0  3  0  0  0  0  0  0
  -26.3180  -32.2090   24.1350 C   0  0  0  0  0  3  0  0  0  0  0  0
  -26.0160  -33.5560   24.6380 N   0  0  0  0  0  0  0  0  0  0  0  0
  -26.3460  -34.6940   24.0120 C   0  0  0  0  0  0  0  0  0  0  0  0
  -27.0070  -34.7170   22.9710 O   0  0  0  0  0  0  0  0  0  0  0  0
  -25.4290  -33.6110   25.4570 H   0  0  0  0  0  0  0  0  0  0  0  0
  -24.6250  -36.5240   23.8870 C   0  0  0  0  0  1  0  0  0  0  0  0
  -25.8650  -36.0150   24.6410 C   0  0  0  0  0  3  0  0  0  0  0  0
  -28.0010  -36.7780   25.5780 C   0  0  0  0  0  1  0  0  0  0  0  0
  -26.9010  -37.0690   24.6630 N   0  0  0  0  0  0  0  0  0  0  0  0
  -26.4980  -37.9640   24.9270 H   0  0  0  0  0  0  0  0  0  0  0  0
  -26.8740  -31.2940   25.2930 C   0  0  1  0  0  0  0  0  0  0  0  0
  -25.8070  -30.9000   26.3410 C   0  0  0  0  0  1  0  0  0  0  0  0
  -27.4740  -29.9890   24.7190 C   0  0  0  0  0  1  0  0  0  0  0  0
  -28.0240  -32.0220   26.0300 C   0  0  0  0  0  1  0  0  0  0  0  0
  -31.6090  -18.6120   20.4190 O   0  0  0  0  0  0  0  0  0  0  0  0
  -32.7830  -18.2390   19.6970 C   0  0  0  0  0  2  0  0  0  0  0  0
  -33.5270  -17.0910   20.4130 C   0  0  0  0  0  2  0  0  0  0  0  0
  -33.3100  -14.6380   19.9950 C   0  0  0  0  0  0  0  0  0  0  0  0
  -32.8950  -12.2190   19.7110 C   0  0  0  0  0  2  0  0  0  0  0  0
  -31.9980  -11.9580   18.4870 C   0  0  0  0  0  2  0  0  0  0  0  0
  -30.5090  -12.0570   18.8680 C   0  0  0  0  0  2  0  0  0  0  0  0
  -30.1830  -13.3430   19.6700 C   0  0  0  0  0  3  0  0  0  0  0  0
  -31.1890  -13.5430   20.8240 C   0  0  0  0  0  2  0  0  0  0  0  0
  -32.5480  -13.5420   20.2540 N   0  0  0  0  0  0  0  0  0  0  0  0
  -34.3940  -14.5850   19.4100 O   0  0  0  0  0  0  0  0  0  0  0  0
  -32.8130  -15.8090   20.4190 N   0  0  0  0  0  0  0  0  0  0  0  0
  -31.9070  -15.7880   20.8640 H   0  0  0  0  0  0  0  0  0  0  0  0
  -27.9710  -14.4060   20.4450 C   0  0  0  0  0  0  0  0  0  0  0  0
  -26.7640  -13.8590   20.7900 C   0  0  0  0  0  0  0  0  0  0  0  0
  -26.9250  -12.4460   20.6770 C   0  0  0  0  0  0  0  0  0  0  0  0
  -28.8030  -13.3370   20.1530 N   0  0  0  0  0  0  0  0  0  0  0  0
  -28.1760  -12.1490   20.3450 N   0  0  0  0  0  0  0  0  0  0  0  0
  -25.9450  -11.3580   20.8090 C   0  0  0  0  0  0  0  0  0  0  0  0
  -26.0680  -10.3720   21.8120 C   0  0  0  0  0  3  0  0  0  0  0  0
  -25.1040   -9.3480   21.9290 C   0  0  0  0  0  3  0  0  0  0  0  0
  -24.0040   -9.3040   21.0400 C   0  0  0  0  0  0  0  0  0  0  0  0
  -23.8990  -10.2750   20.0280 C   0  0  0  0  0  3  0  0  0  0  0  0
  -24.8630  -11.2910   19.9100 C   0  0  0  0  0  3  0  0  0  0  0  0
  -23.0320   -8.3320   21.0630 O   0  0  0  0  0  0  0  0  0  0  0  0
  -22.5150   -7.8590   22.2420 C   0  0  0  0  0  0  0  0  0  0  0  0
  -21.8700   -8.7090   23.1670 C   0  0  0  0  0  3  0  0  0  0  0  0
  -21.2910   -8.1710   24.3330 C   0  0  0  0  0  3  0  0  0  0  0  0
  -21.3480   -6.7840   24.5720 C   0  0  0  0  0  0  0  0  0  0  0  0
  -21.9840   -5.9360   23.6500 C   0  0  0  0  0  3  0  0  0  0  0  0
  -22.5630   -6.4720   22.4860 C   0  0  0  0  0  0  0  0  0  0  0  0
  -23.1570   -5.6470   21.5900 F   0  0  0  0  0  0  0  0  0  0  0  0
  -20.7840   -6.2650   25.6870 F   0  0  0  0  0  0  0  0  0  0  0  0
  -25.5030  -14.6080   21.1140 C   0  0  0  0  0  0  0  0  0  0  0  0
  -24.6690  -14.0540   21.9870 N   0  0  0  0  0  0  0  0  0  0  0  0
  -25.2740  -15.7150   20.6290 O   0  0  0  0  0  0  0  0  0  0  0  0
  -24.8670  -13.1540   22.3990 H   0  0  0  0  0  0  0  0  0  0  0  0
  -23.8200  -14.5350   22.2470 H   0  0  0  0  0  0  0  0  0  0  0  0
  -28.4230  -15.7150   20.3350 N   0  0  0  0  0  0  0  0  0  0  0  0
  -27.8180  -16.5130   20.4960 H   0  0  0  0  0  0  0  0  0  0  0  0
  -29.3530  -15.9760   20.0370 H   0  0  0  0  0  0  0  0  0  0  0  0
  1  2  2  0
  1  5  1  0
  2  6  1  0
  3  4  1  0
  3  7  1  0
  4  9  1  0
  5  3  2  0
  6 57  1  0
  6  4  2  0
  9  8  1  0
  9 12  1  0
 10 11  1  0
 12 10  1  0
 12 11  1  0
 13  5  1  0
 14 13  1  0
 15 14  1  0
 15 16  1  0
 16 18  1  0
 17 28  2  0
 18 23  1  0
 19 27  1  0
 19 29  1  0
 20 26  1  0
 20 22  1  0
 21 27  1  0
 22 21  1  0
 23 22  2  0
 24 25  1  0
 24 18  2  0
 25 20  2  0
 26 19  1  0
 27 17  1  0
 29 31  2  0
 30 29  1  0
 32 30  1  0
 33 42  2  0
 33 38  1  0
 34 30  1  0
 34 38  1  0
 35 34  1  0
 36 37  1  0
 36 35  1  0
 37 33  1  0
 38 39  2  0
 39 40  1  0
 41 40  2  0
 42 41  1  0
 43 17  1  0
 43 44  1  0
 43 53  1  0
 44 47  1  0
 45 44  1  0
 45 49  1  0
 46 45  2  0
 49 48  1  0
 49 51  1  0
 51 52  1  0
 51 50  1  0
 53 56  1  1
 53 54  1  0
 55 53  1  0
 58 59  1  0
 58 57  1  0
 59 68  1  0
 60 66  1  0
 60 68  1  0
 61 66  1  0
 62 63  1  0
 62 61  1  0
 64 63  1  0
 64 73  1  0
 64 65  1  0
 66 65  1  0
 67 60  2  0
 68 69  1  0
 70 71  2  0
 71 90  1  0
 72 71  1  0
 72 75  1  0
 73 74  1  0
 73 70  1  0
 74 72  2  0
 75 76  1  0
 76 77  2  0
 78 81  1  0
 78 77  1  0
 79 78  2  0
 80 79  1  0
 80 75  2  0
 81 82  1  0
 82 87  2  0
 82 83  1  0
 83 84  2  0
 84 85  1  0
 85 89  1  0
 86 85  2  0
 87 86  1  0
 88 87  1  0
 90 91  1  0
 91 94  1  0
 91 93  1  0
 92 90  2  0
 95 70  1  0
 95 96  1  0
 97 95  1  0
M  ISO  4  15 101  16 101  60 100  68 100
M  END
>  <TORSDO>  (2) 
F 24

>  <SCORE>  (2) 
-4.444

>  <name>  (2) 
1

>  <ligand_id>  (2) 
1

>  <original_smiles>  (2) 
[H]c1c([H])c([H])c2c(c1[H])C([H])([H])C([H])([H])C([H])([H])C2([H])N([H])C(=O)C1([H])N(C(=O)C([H])(N([H])C(=O)C([H])(N([H])C([H])([H])[H])C([H])([H])[H])C(C([H])([H])[H])(C([H])([H])[H])C([H])([H])[H])C([H])([H])c2c([H])c(OC([H])([H])C([H])([H])Oc3c([H])c([H])c(OC([H])([H])C([H])([H])N([H])C(=O)N4C([H])([H])C([H])([H])C([H])([H])C([H])(n5nc(-c6c([H])c([H])c(Oc7c([H])c([H])c(F)c([H])c7F)c([H])c6[H])c(C(=O)N([H])[H])c5N([H])[H])C4([H])[H])c(C([H])(C([H])([H])[H])C4([H])C([H])([H])C4([H])[H])c3C([H])([H])[H])c([H])c([H])c2C1([H])[H]

>  <smiles>  (2) 
[H]c1c([H])c([H])c2c(c1[H])C([H])([H])C([H])([H])C([H])([H])C2([H])N([H])C(=O)C1([H])N(C(=O)C([H])(N([H])C(=O)C([H])(N([H])C([H])([H])[H])C([H])([H])[H])C(C([H])([H])[H])(C([H])([H])[H])C([H])([H])[H])C([H])([H])c2c([H])c(OC([H])([H])C([H])([H])Oc3c([H])c([H])c(OC([H])([H])C([H])([H])N([H])C(=O)N4C([H])([H])C([H])([H])C([H])([H])C([H])(n5nc(-c6c([H])c([H])c(Oc7c([H])c([H])c(F)c([H])c7F)c([H])c6[H])c(C(=O)N([H])[H])c5N([H])[H])C4([H])[H])c(C([H])(C([H])([H])[H])C4([H])C([H])([H])C4([H])[H])c3C([H])([H])[H])c([H])c([H])c2C1([H])[H]

$$$$
2:0:0
     RDKit          3D

 94103  0  0  1  0  0  0  0  0999 V2000
  -30.6910  -21.6680   20.3880 C   0  0  0  0  0  3  0  0  0  0  0  0
  -31.1250  -20.3310   20.2600 C   0  0  0  0  0  3  0  0  0  0  0  0
  -28.4370  -20.9750   19.8220 C   0  0  0  0  0  3  0  0  0  0  0  0
  -28.8590  -19.6320   19.6950 C   0  0  0  0  0  0  0  0  0  0  0  0
  -29.3360  -22.0030   20.1700 C   0  0  0  0  0  0  0  0  0  0  0  0
  -30.2130  -19.2950   19.9320 C   0  0  0  0  0  0  0  0  0  0  0  0
  -26.5130  -18.4590   19.9640 C   0  0  0  0  0  2  0  0  0  0  0  0
  -27.5640  -17.4030   20.2030 C   0  0  0  0  0  2  0  0  0  0  0  0
  -27.8650  -18.5750   19.2990 C   0  0  0  0  0  3  0  0  0  0  0  0
  -28.8200  -23.2740   20.3210 O   0  0  0  0  0  0  0  0  0  0  0  0
  -29.5770  -24.4020   19.8600 C   0  0  0  0  0  2  0  0  0  0  0  0
  -28.5850  -25.4390   19.2840 C   0  0  0  0  0  2  0  0  0  0  0  0
  -28.5050  -26.6640   20.0350 O   0  0  0  0  0  0  0  0  0  0  0  0
  -24.6930  -31.7540   23.2230 C   0  0  0  0  0  0  0  0  0  0  0  0
  -27.3250  -27.3920   20.0070 C   0  0  0  0  0  0  0  0  0  0  0  0
  -23.4830  -30.4160   21.5310 C   0  0  0  0  0  3  0  0  0  0  0  0
  -24.9310  -28.9200   20.0610 C   0  0  0  0  0  0  0  0  0  0  0  0
  -26.0140  -30.7660   21.3540 C   0  0  0  0  0  2  0  0  0  0  0  0
  -26.0920  -29.4170   20.6670 C   0  0  0  0  0  0  0  0  0  0  0  0
  -27.2860  -28.6610   20.6390 C   0  0  0  0  0  3  0  0  0  0  0  0
  -26.1400  -26.9250   19.3860 C   0  0  0  0  0  3  0  0  0  0  0  0
  -24.9500  -27.6740   19.4190 C   0  0  0  0  0  3  0  0  0  0  0  0
  -23.6920  -29.7840   20.1310 C   0  0  0  0  0  2  0  0  0  0  0  0
  -24.7490  -30.9930   22.0940 N   0  0  0  0  0  0  0  0  0  0  0  0
  -23.6130  -32.0100   23.7710 O   0  0  0  0  0  0  0  0  0  0  0  0
  -22.8230  -29.3670   22.4560 C   0  0  0  0  0  0  0  0  0  0  0  0
  -21.4940  -29.2120   22.3350 N   0  0  0  0  0  0  0  0  0  0  0  0
  -23.5040  -28.6990   23.2380 O   0  0  0  0  0  0  0  0  0  0  0  0
  -21.0050  -29.8010   21.6760 H   0  0  0  0  0  0  0  0  0  0  0  0
  -18.1000  -28.0790   22.8390 C   0  0  0  0  0  0  0  0  0  0  0  0
  -20.6680  -28.2610   23.0780 C   0  0  0  0  0  3  0  0  0  0  0  0
  -20.7260  -26.8550   22.4360 C   0  0  0  0  0  2  0  0  0  0  0  0
  -19.6000  -26.6080   21.4270 C   0  0  0  0  0  2  0  0  0  0  0  0
  -18.2320  -26.7590   22.0980 C   0  0  0  0  0  2  0  0  0  0  0  0
  -19.2440  -28.7930   23.2830 C   0  0  0  0  0  0  0  0  0  0  0  0
  -19.0670  -30.0370   23.9290 C   0  0  0  0  0  3  0  0  0  0  0  0
  -17.7780  -30.5610   24.1420 C   0  0  0  0  0  3  0  0  0  0  0  0
  -16.6490  -29.8430   23.7140 C   0  0  0  0  0  3  0  0  0  0  0  0
  -16.8100  -28.6050   23.0650 C   0  0  0  0  0  3  0  0  0  0  0  0
  -25.9810  -32.3570   23.8660 C   0  0  0  0  0  3  0  0  0  0  0  0
  -25.6880  -33.7510   24.2230 N   0  0  0  0  0  0  0  0  0  0  0  0
  -26.0440  -34.8150   23.4900 C   0  0  0  0  0  0  0  0  0  0  0  0
  -26.7210  -34.7250   22.4620 O   0  0  0  0  0  0  0  0  0  0  0  0
  -25.0900  -33.8960   25.0240 H   0  0  0  0  0  0  0  0  0  0  0  0
  -24.3310  -36.6240   23.1590 C   0  0  0  0  0  1  0  0  0  0  0  0
  -25.5650  -36.1970   23.9700 C   0  0  0  0  0  3  0  0  0  0  0  0
  -27.7080  -37.0380   24.8240 C   0  0  0  0  0  1  0  0  0  0  0  0
  -26.6070  -37.2430   23.8850 N   0  0  0  0  0  0  0  0  0  0  0  0
  -26.2070  -38.1610   24.0600 H   0  0  0  0  0  0  0  0  0  0  0  0
  -26.4820  -31.5510   25.1270 C   0  0  1  0  0  0  0  0  0  0  0  0
  -25.3800  -31.2970   26.1810 C   0  0  0  0  0  1  0  0  0  0  0  0
  -27.0610  -30.1810   24.7050 C   0  0  0  0  0  1  0  0  0  0  0  0
  -27.6320  -32.3200   25.8170 C   0  0  0  0  0  1  0  0  0  0  0  0
  -30.5660  -17.9600   19.8280 O   0  0  0  0  0  0  0  0  0  0  0  0
  -31.9120  -17.5790   20.1110 C   0  0  0  0  0  2  0  0  0  0  0  0
  -31.9320  -16.4640   21.1740 C   0  0  0  0  0  2  0  0  0  0  0  0
  -31.4650  -14.3820   19.9230 C   0  0  0  0  0  0  0  0  0  0  0  0
  -31.0020  -12.1490   18.9830 C   0  0  0  0  0  2  0  0  0  0  0  0
  -30.0380  -12.2230   17.7870 C   0  0  0  0  0  2  0  0  0  0  0  0
  -28.5740  -12.1970   18.2650 C   0  0  0  0  0  2  0  0  0  0  0  0
  -28.2960  -13.2110   19.4040 C   0  0  0  0  0  3  0  0  0  0  0  0
  -29.3680  -13.1050   20.5120 C   0  0  0  0  0  2  0  0  0  0  0  0
  -30.6960  -13.2630   19.8930 N   0  0  0  0  0  0  0  0  0  0  0  0
  -32.4650  -14.5390   19.2180 O   0  0  0  0  0  0  0  0  0  0  0  0
  -31.1200  -15.2970   20.8280 N   0  0  0  0  0  0  0  0  0  0  0  0
  -30.2960  -15.1150   21.3820 H   0  0  0  0  0  0  0  0  0  0  0  0
  -25.9910  -14.0110   20.2330 C   0  0  0  0  0  0  0  0  0  0  0  0
  -24.8760  -13.3280   20.6400 C   0  0  0  0  0  0  0  0  0  0  0  0
  -25.2160  -11.9410   20.5680 C   0  0  0  0  0  0  0  0  0  0  0  0
  -26.9450  -13.0480   19.9420 N   0  0  0  0  0  0  0  0  0  0  0  0
  -26.4820  -11.7960   20.1980 N   0  0  0  0  0  0  0  0  0  0  0  0
  -24.3930  -10.7430   20.7750 C   0  0  0  0  0  0  0  0  0  0  0  0
  -24.7670   -9.7400   21.6980 C   0  0  0  0  0  3  0  0  0  0  0  0
  -23.9480   -8.6070   21.8930 C   0  0  0  0  0  3  0  0  0  0  0  0
  -22.7410   -8.4680   21.1660 C   0  0  0  0  0  0  0  0  0  0  0  0
  -22.3860   -9.4580   20.2320 C   0  0  0  0  0  3  0  0  0  0  0  0
  -23.2050  -10.5820   20.0340 C   0  0  0  0  0  3  0  0  0  0  0  0
  -21.8970   -7.3890   21.2700 O   0  0  0  0  0  0  0  0  0  0  0  0
  -21.7870   -6.6710   22.4340 C   0  0  0  0  0  0  0  0  0  0  0  0
  -21.4170   -7.2820   23.6530 C   0  0  0  0  0  3  0  0  0  0  0  0
  -21.2460   -6.4960   24.8110 C   0  0  0  0  0  3  0  0  0  0  0  0
  -21.4360   -5.1030   24.7500 C   0  0  0  0  0  0  0  0  0  0  0  0
  -21.7990   -4.4920   23.5360 C   0  0  0  0  0  3  0  0  0  0  0  0
  -21.9710   -5.2750   22.3810 C   0  0  0  0  0  0  0  0  0  0  0  0
  -22.2990   -4.6800   21.2100 F   0  0  0  0  0  0  0  0  0  0  0  0
  -21.2640   -4.3460   25.8590 F   0  0  0  0  0  0  0  0  0  0  0  0
  -23.5410  -13.9180   20.9860 C   0  0  0  0  0  0  0  0  0  0  0  0
  -22.8020  -13.2780   21.8870 N   0  0  0  0  0  0  0  0  0  0  0  0
  -23.1620  -14.9790   20.4920 O   0  0  0  0  0  0  0  0  0  0  0  0
  -23.1230  -12.4190   22.3060 H   0  0  0  0  0  0  0  0  0  0  0  0
  -21.9040  -13.6510   22.1570 H   0  0  0  0  0  0  0  0  0  0  0  0
  -26.2630  -15.3650   20.0670 N   0  0  0  0  0  0  0  0  0  0  0  0
  -25.5660  -16.0790   20.2410 H   0  0  0  0  0  0  0  0  0  0  0  0
  -27.1370  -15.7380   19.7180 H   0  0  0  0  0  0  0  0  0  0  0  0
  2  1  1  0
  3  5  1  0
  4  3  2  0
  4  6  1  0
  5 10  1  0
  5  1  2  0
  6  2  2  0
  7  8  1  0
  9  4  1  0
  9  7  1  0
  9  8  1  0
 11 10  1  0
 12 11  1  0
 12 13  1  0
 14 25  2  0
 15 13  1  0
 15 20  1  0
 16 24  1  0
 16 26  1  0
 17 23  1  0
 17 19  1  0
 18 24  1  0
 19 18  1  0
 20 19  2  0
 21 22  1  0
 21 15  2  0
 22 17  2  0
 23 16  1  0
 24 14  1  0
 26 28  2  0
 27 26  1  0
 29 27  1  0
 30 39  2  0
 30 35  1  0
 31 27  1  0
 31 35  1  0
 32 31  1  0
 33 34  1  0
 33 32  1  0
 34 30  1  0
 35 36  2  0
 36 37  1  0
 38 37  2  0
 39 38  1  0
 40 14  1  0
 40 41  1  0
 40 50  1  0
 41 44  1  0
 42 46  1  0
 42 41  1  0
 43 42  2  0
 46 45  1  0
 48 46  1  0
 48 49  1  0
 48 47  1  0
 50 53  1  1
 50 51  1  0
 52 50  1  0
 54  6  1  0
 54 55  1  0
 55 56  1  0
 57 65  1  0
 58 63  1  0
 59 60  1  0
 59 58  1  0
 61 60  1  0
 61 70  1  0
 61 62  1  0
 63 57  1  0
 63 62  1  0
 64 57  2  0
 65 56  1  0
 65 66  1  0
 67 68  2  0
 68 87  1  0
 69 68  1  0
 69 72  1  0
 70 71  1  0
 70 67  1  0
 71 69  2  0
 72 73  1  0
 73 74  2  0
 75 78  1  0
 75 74  1  0
 76 75  2  0
 77 76  1  0
 77 72  2  0
 78 79  1  0
 79 80  1  0
 80 81  2  0
 82 81  1  0
 82 86  1  0
 83 82  2  0
 84 79  2  0
 84 83  1  0
 85 84  1  0
 87 88  1  0
 88 91  1  0
 88 90  1  0
 89 87  2  0
 92 67  1  0
 92 93  1  0
 94 92  1  0
M  ISO  4  12 101  13 101  57 100  65 100
M  END
>  <TORSDO>  (3) 
F 23

>  <SCORE>  (3) 
-12.147

>  <name>  (3) 
2

>  <ligand_id>  (3) 
2

>  <original_smiles>  (3) 
[H]c1c([H])c([H])c2c(c1[H])C([H])([H])C([H])([H])C([H])([H])C2([H])N([H])C(=O)C1([H])N(C(=O)C([H])(N([H])C(=O)C([H])(N([H])C([H])([H])[H])C([H])([H])[H])C(C([H])([H])[H])(C([H])([H])[H])C([H])([H])[H])C([H])([H])c2c([H])c(OC([H])([H])C([H])([H])Oc3c([H])c([H])c(OC([H])([H])C([H])([H])N([H])C(=O)N4C([H])([H])C([H])([H])C([H])([H])C([H])(n5nc(-c6c([H])c([H])c(Oc7c([H])c([H])c(F)c([H])c7F)c([H])c6[H])c(C(=O)N([H])[H])c5N([H])[H])C4([H])[H])c(C4([H])C([H])([H])C4([H])[H])c3[H])c([H])c([H])c2C1([H])[H]

>  <smiles>  (3) 
[H]c1c([H])c([H])c2c(c1[H])C([H])([H])C([H])([H])C([H])([H])C2([H])N([H])C(=O)C1([H])N(C(=O)C([H])(N([H])C(=O)C([H])(N([H])C([H])([H])[H])C([H])([H])[H])C(C([H])([H])[H])(C([H])([H])[H])C([H])([H])[H])C([H])([H])c2c([H])c(OC([H])([H])C([H])([H])Oc3c([H])c([H])c(OC([H])([H])C([H])([H])N([H])C(=O)N4C([H])([H])C([H])([H])C([H])([H])C([H])(n5nc(-c6c([H])c([H])c(Oc7c([H])c([H])c(F)c([H])c7F)c([H])c6[H])c(C(=O)N([H])[H])c5N([H])[H])C4([H])[H])c(C4([H])C([H])([H])C4([H])[H])c3[H])c([H])c([H])c2C1([H])[H]

$$$$
3:0:0
     RDKit          3D

 98108  0  0  1  0  0  0  0  0999 V2000
  -31.6200  -22.3800   22.1660 C   0  0  0  0  0  3  0  0  0  0  0  0
  -30.5660  -22.5240   21.2550 C   0  0  0  0  0  3  0  0  0  0  0  0
  -31.2570  -19.9590   22.2260 C   0  0  0  0  0  0  0  0  0  0  0  0
  -30.3560  -20.0780   21.1100 C   0  0  0  0  0  0  0  0  0  0  0  0
  -31.9210  -21.1200   22.7030 C   0  0  0  0  0  0  0  0  0  0  0  0
  -29.8500  -21.4020   20.7790 C   0  0  0  0  0  0  0  0  0  0  0  0
  -30.9020  -15.0900   19.8810 C   0  0  0  0  0  0  0  0  0  0  0  0
  -30.5790  -12.8160   18.9210 C   0  0  0  0  0  2  0  0  0  0  0  0
  -29.5400  -12.8640   17.7860 C   0  0  0  0  0  2  0  0  0  0  0  0
  -28.1230  -12.6570   18.3580 C   0  0  0  0  0  2  0  0  0  0  0  0
  -27.8370  -13.5650   19.5810 C   0  0  0  0  0  3  0  0  0  0  0  0
  -29.0020  -13.5220   20.6000 C   0  0  0  0  0  2  0  0  0  0  0  0
  -30.2210  -13.8930   19.8710 N   0  0  0  0  0  0  0  0  0  0  0  0
  -32.0670  -15.1190   19.4780 O   0  0  0  0  0  0  0  0  0  0  0  0
  -28.6790  -18.1540   20.3800 C   0  0  0  0  0  2  0  0  0  0  0  0
  -28.8680  -16.6590   20.0600 C   0  0  0  0  0  2  0  0  0  0  0  0
  -31.0250  -17.5910   20.2440 C   0  0  0  0  0  2  0  0  0  0  0  0
  -30.0350  -18.8210   20.2210 C   0  0  0  0  0  3  0  0  0  0  0  0
  -30.2830  -16.2950   20.1890 N   0  0  0  0  0  0  0  0  0  0  0  0
  -25.5430  -14.1740   20.5560 C   0  0  0  0  0  0  0  0  0  0  0  0
  -24.4950  -13.4020   20.9840 C   0  0  0  0  0  0  0  0  0  0  0  0
  -24.9250  -12.0510   20.8410 C   0  0  0  0  0  0  0  0  0  0  0  0
  -26.5420  -13.2870   20.1880 N   0  0  0  0  0  0  0  0  0  0  0  0
  -26.1820  -12.0020   20.4200 N   0  0  0  0  0  0  0  0  0  0  0  0
  -24.1910  -10.7920   21.0250 C   0  0  0  0  0  0  0  0  0  0  0  0
  -24.6780   -9.7740   21.8740 C   0  0  0  0  0  3  0  0  0  0  0  0
  -23.9490   -8.5770   22.0480 C   0  0  0  0  0  3  0  0  0  0  0  0
  -22.7190   -8.3930   21.3760 C   0  0  0  0  0  0  0  0  0  0  0  0
  -22.2480   -9.4010   20.5160 C   0  0  0  0  0  3  0  0  0  0  0  0
  -22.9790  -10.5880   20.3380 C   0  0  0  0  0  3  0  0  0  0  0  0
  -21.9580   -7.2530   21.4650 O   0  0  0  0  0  0  0  0  0  0  0  0
  -21.9120   -6.5120   22.6170 C   0  0  0  0  0  0  0  0  0  0  0  0
  -21.5020   -7.0700   23.8480 C   0  0  0  0  0  3  0  0  0  0  0  0
  -21.4010   -6.2550   24.9910 C   0  0  0  0  0  3  0  0  0  0  0  0
  -21.7070   -4.8840   24.9090 C   0  0  0  0  0  0  0  0  0  0  0  0
  -22.1120   -4.3250   23.6840 C   0  0  0  0  0  3  0  0  0  0  0  0
  -22.2120   -5.1370   22.5400 C   0  0  0  0  0  0  0  0  0  0  0  0
  -22.5850   -4.5920   21.3590 F   0  0  0  0  0  0  0  0  0  0  0  0
  -21.6010   -4.0980   26.0060 F   0  0  0  0  0  0  0  0  0  0  0  0
  -23.1400  -13.8940   21.4070 C   0  0  0  0  0  0  0  0  0  0  0  0
  -22.4990  -13.1840   22.3290 N   0  0  0  0  0  0  0  0  0  0  0  0
  -22.6660  -14.9370   20.9630 O   0  0  0  0  0  0  0  0  0  0  0  0
  -22.9090  -12.3460   22.7120 H   0  0  0  0  0  0  0  0  0  0  0  0
  -21.5970  -13.4920   22.6640 H   0  0  0  0  0  0  0  0  0  0  0  0
  -25.7040  -15.5450   20.4290 N   0  0  0  0  0  0  0  0  0  0  0  0
  -24.9690  -16.1990   20.6750 H   0  0  0  0  0  0  0  0  0  0  0  0
  -26.5110  -15.9940   20.0150 H   0  0  0  0  0  0  0  0  0  0  0  0
  -30.5610  -17.7050   23.5400 C   0  0  0  0  0  2  0  0  0  0  0  0
  -31.4680  -18.4860   24.4400 C   0  0  0  0  0  2  0  0  0  0  0  0
  -31.5890  -18.6510   22.9330 C   0  0  0  0  0  3  0  0  0  0  0  0
  -32.8500  -21.0440   23.7090 O   0  0  0  0  0  0  0  0  0  0  0  0
  -35.1190  -20.6170   24.3480 C   0  0  0  0  0  1  0  0  0  0  0  0
  -34.1980  -21.2920   23.3200 C   0  0  0  0  0  2  0  0  0  0  0  0
  -28.6690  -21.6170   20.0540 O   0  0  0  0  0  0  0  0  0  0  0  0
  -28.3950  -22.8580   19.2960 C   0  0  0  0  0  3  0  0  0  0  0  0
  -27.9000  -24.2000   20.0000 C   0  0  0  0  0  3  0  0  0  0  0  0
  -27.7220  -25.4740   19.0630 C   0  0  0  0  0  2  0  0  0  0  0  0
  -27.7410  -26.8070   19.6840 O   0  0  0  0  0  0  0  0  0  0  0  0
  -24.7000  -32.1180   23.4470 C   0  0  0  0  0  0  0  0  0  0  0  0
  -26.6160  -27.6270   19.8310 C   0  0  0  0  0  0  0  0  0  0  0  0
  -23.2040  -30.8970   21.9080 C   0  0  0  0  0  3  0  0  0  0  0  0
  -24.3540  -29.3390   20.2310 C   0  0  0  0  0  0  0  0  0  0  0  0
  -25.7140  -31.0680   21.4180 C   0  0  0  0  0  2  0  0  0  0  0  0
  -25.6150  -29.7360   20.6880 C   0  0  0  0  0  0  0  0  0  0  0  0
  -26.7400  -28.8900   20.4800 C   0  0  0  0  0  3  0  0  0  0  0  0
  -25.3260  -27.2540   19.3940 C   0  0  0  0  0  3  0  0  0  0  0  0
  -24.2080  -28.0980   19.5850 C   0  0  0  0  0  3  0  0  0  0  0  0
  -23.1930  -30.2870   20.4810 C   0  0  0  0  0  2  0  0  0  0  0  0
  -24.5670  -31.3740   22.3120 N   0  0  0  0  0  0  0  0  0  0  0  0
  -23.7120  -32.4400   24.1230 O   0  0  0  0  0  0  0  0  0  0  0  0
  -22.5970  -29.8730   22.8910 C   0  0  0  0  0  0  0  0  0  0  0  0
  -21.2880  -29.6120   22.7510 N   0  0  0  0  0  0  0  0  0  0  0  0
  -23.3020  -29.3140   23.7360 O   0  0  0  0  0  0  0  0  0  0  0  0
  -20.7810  -30.1140   22.0340 H   0  0  0  0  0  0  0  0  0  0  0  0
  -18.0250  -28.0890   23.0860 C   0  0  0  0  0  0  0  0  0  0  0  0
  -20.5090  -28.6560   23.5350 C   0  0  0  0  0  3  0  0  0  0  0  0
  -20.8120  -27.2040   23.1020 C   0  0  0  0  0  2  0  0  0  0  0  0
  -19.8440  -26.6760   22.0380 C   0  0  0  0  0  2  0  0  0  0  0  0
  -18.4020  -26.7170   22.5530 C   0  0  0  0  0  2  0  0  0  0  0  0
  -19.0160  -29.0060   23.5300 C   0  0  0  0  0  0  0  0  0  0  0  0
  -18.6130  -30.2830   23.9780 C   0  0  0  0  0  3  0  0  0  0  0  0
  -17.2530  -30.6440   23.9970 C   0  0  0  0  0  3  0  0  0  0  0  0
  -16.2760  -29.7250   23.5740 C   0  0  0  0  0  3  0  0  0  0  0  0
  -16.6620  -28.4520   23.1210 C   0  0  0  0  0  3  0  0  0  0  0  0
  -26.0940  -32.6220   23.9360 C   0  0  0  0  0  3  0  0  0  0  0  0
  -25.9330  -34.0200   24.3600 N   0  0  0  0  0  0  0  0  0  0  0  0
  -26.2680  -35.0850   23.6210 C   0  0  0  0  0  0  0  0  0  0  0  0
  -26.8210  -34.9900   22.5220 O   0  0  0  0  0  0  0  0  0  0  0  0
  -25.4350  -34.1730   25.2250 H   0  0  0  0  0  0  0  0  0  0  0  0
  -24.6580  -37.0110   23.5340 C   0  0  0  0  0  1  0  0  0  0  0  0
  -25.9370  -36.4750   24.1950 C   0  0  0  0  0  3  0  0  0  0  0  0
  -28.2010  -37.1550   24.8500 C   0  0  0  0  0  1  0  0  0  0  0  0
  -27.0300  -37.4550   24.0280 N   0  0  0  0  0  0  0  0  0  0  0  0
  -26.7120  -38.3920   24.2600 H   0  0  0  0  0  0  0  0  0  0  0  0
  -26.6930  -31.7530   25.1110 C   0  0  1  0  0  0  0  0  0  0  0  0
  -25.7150  -31.5300   26.2870 C   0  0  0  0  0  1  0  0  0  0  0  0
  -27.1380  -30.3640   24.5930 C   0  0  0  0  0  1  0  0  0  0  0  0
  -27.9580  -32.4440   25.6770 C   0  0  0  0  0  1  0  0  0  0  0  0
  1  5  1  0
  2  1  2  0
  3  5  2  0
  3 50  1  0
  4  3  1  0
  5 51  1  0
  6  4  2  0
  6  2  1  0
  7 19  1  0
  8 13  1  0
  9 10  1  0
  9  8  1  0
 11 10  1  0
 11 23  1  0
 11 12  1  0
 13  7  1  0
 13 12  1  0
 14  7  2  0
 16 19  1  0
 16 15  1  0
 18 17  1  0
 18 15  1  0
 18  4  1  0
 19 17  1  0
 20 21  2  0
 21 40  1  0
 22 21  1  0
 22 25  1  0
 23 24  1  0
 23 20  1  0
 24 22  2  0
 25 26  1  0
 26 27  2  0
 28 31  1  0
 28 27  1  0
 29 28  2  0
 30 29  1  0
 30 25  2  0
 31 32  1  0
 32 33  1  0
 33 34  2  0
 35 34  1  0
 35 39  1  0
 36 35  2  0
 37 32  2  0
 37 36  1  0
 38 37  1  0
 40 41  1  0
 41 44  1  0
 41 43  1  0
 42 40  2  0
 45 20  1  0
 45 46  1  0
 47 45  1  0
 48 49  1  0
 50 48  1  0
 50 49  1  0
 53 51  1  0
 53 52  1  0
 54  6  1  0
 55 56  2  0
 55 54  1  0
 57 58  1  0
 57 56  1  0
 58 60  1  0
 59 70  2  0
 60 65  1  0
 61 69  1  0
 61 71  1  0
 62 68  1  0
 62 64  1  0
 63 69  1  0
 64 63  1  0
 65 64  2  0
 66 67  1  0
 66 60  2  0
 67 62  2  0
 68 61  1  0
 69 59  1  0
 71 73  2  0
 72 71  1  0
 74 72  1  0
 75 84  2  0
 75 80  1  0
 76 72  1  0
 77 76  1  0
 78 79  1  0
 78 77  1  0
 79 75  1  0
 80 76  1  0
 80 81  2  0
 81 82  1  0
 83 82  2  0
 84 83  1  0
 85 59  1  0
 85 86  1  0
 85 95  1  0
 86 89  1  0
 87 91  1  0
 87 86  1  0
 88 87  2  0
 91 90  1  0
 93 91  1  0
 93 94  1  0
 93 92  1  0
 95 98  1  1
 95 96  1  0
 97 95  1  0
M  ISO  4   7 100  19 100  57 101  58 101
M  END
>  <TORSDO>  (4) 
F 23

>  <SCORE>  (4) 
-7.890

>  <name>  (4) 
3

>  <ligand_id>  (4) 
3

>  <original_smiles>  (4) 
[H]c1c([H])c([H])c2c(c1[H])C([H])([H])C([H])([H])C([H])([H])C2([H])N([H])C(=O)C1([H])N(C(=O)C([H])(N([H])C(=O)C([H])(N([H])C([H])([H])[H])C([H])([H])[H])C(C([H])([H])[H])(C([H])([H])[H])C([H])([H])[H])C([H])([H])c2c([H])c(OC([H])([H])C([H])([H])C([H])([H])Oc3c([H])c([H])c(OC([H])([H])C([H])([H])[H])c(C4([H])C([H])([H])C4([H])[H])c3C3([H])C([H])([H])N(C(=O)N4C([H])([H])C([H])([H])C([H])([H])C([H])(n5nc(-c6c([H])c([H])c(Oc7c([H])c([H])c(F)c([H])c7F)c([H])c6[H])c(C(=O)N([H])[H])c5N([H])[H])C4([H])[H])C([H])([H])C3([H])[H])c([H])c([H])c2C1([H])[H]

>  <smiles>  (4) 
[H]c1c([H])c([H])c2c(c1[H])C([H])([H])C([H])([H])C([H])([H])C2([H])N([H])C(=O)C1([H])N(C(=O)C([H])(N([H])C(=O)C([H])(N([H])C([H])([H])[H])C([H])([H])[H])C(C([H])([H])[H])(C([H])([H])[H])C([H])([H])[H])C([H])([H])c2c([H])c(OC([H])([H])C([H])([H])C([H])([H])Oc3c([H])c([H])c(OC([H])([H])C([H])([H])[H])c(C4([H])C([H])([H])C4([H])[H])c3C3([H])C([H])([H])N(C(=O)N4C([H])([H])C([H])([H])C([H])([H])C([H])(n5nc(-c6c([H])c([H])c(Oc7c([H])c([H])c(F)c([H])c7F)c([H])c6[H])c(C(=O)N([H])[H])c5N([H])[H])C4([H])[H])C([H])([H])C3([H])[H])c([H])c([H])c2C1([H])[H]

$$$$
4:0:0
     RDKit          3D

 96105  0  0  1  0  0  0  0  0999 V2000
  -27.6290  -19.3850   19.9950 C   0  0  0  0  0  3  0  0  0  0  0  0
  -29.8140  -20.3530   20.2600 C   0  0  0  0  0  3  0  0  0  0  0  0
  -27.1230  -20.6980   19.9180 C   0  0  0  0  0  3  0  0  0  0  0  0
  -29.0050  -19.1740   20.2160 C   0  0  0  0  0  0  0  0  0  0  0  0
  -29.2170  -21.6490   20.1660 C   0  0  0  0  0  0  0  0  0  0  0  0
  -27.8870  -21.8070   20.0170 N   0  0  0  0  0  0  0  0  0  0  0  0
  -30.9360  -14.5270   18.8660 C   0  0  0  0  0  0  0  0  0  0  0  0
  -30.2820  -12.4380   17.6790 C   0  0  0  0  0  2  0  0  0  0  0  0
  -29.0150  -12.6950   16.8370 C   0  0  0  0  0  2  0  0  0  0  0  0
  -27.7440  -12.4750   17.6850 C   0  0  0  0  0  2  0  0  0  0  0  0
  -27.8180  -13.2160   19.0460 C   0  0  0  0  0  3  0  0  0  0  0  0
  -29.1600  -12.9600   19.7550 C   0  0  0  0  0  2  0  0  0  0  0  0
  -30.2460  -13.3480   18.8440 N   0  0  0  0  0  0  0  0  0  0  0  0
  -31.8070  -14.7820   18.0240 O   0  0  0  0  0  0  0  0  0  0  0  0
  -30.0410  -18.0280   22.9530 C   0  0  0  0  0  0  0  0  0  0  0  0
  -29.9370  -16.7610   19.3790 C   0  0  0  0  0  2  0  0  0  0  0  0
  -31.7140  -17.0620   21.3770 C   0  0  0  0  0  2  0  0  0  0  0  0
  -29.4970  -17.7270   20.5580 C   0  0  0  0  0  3  0  0  0  0  0  0
  -31.4770  -15.5880   20.9760 C   0  0  0  0  0  3  0  0  0  0  0  0
  -31.0420  -17.9390   24.1030 C   0  0  0  0  0  1  0  0  0  0  0  0
  -30.9570  -14.7410   22.1550 C   0  0  0  0  0  1  0  0  0  0  0  0
  -30.4280  -17.6870   21.6990 N   0  0  0  0  0  0  0  0  0  0  0  0
  -30.5760  -15.4630   19.8040 N   0  0  0  0  0  0  0  0  0  0  0  0
  -28.8990  -18.4130   23.2170 O   0  0  0  0  0  0  0  0  0  0  0  0
  -26.0090  -13.6950   20.8020 C   0  0  0  0  0  0  0  0  0  0  0  0
  -24.9990  -12.9230   21.3090 C   0  0  0  0  0  0  0  0  0  0  0  0
  -25.1280  -11.6450   20.6850 C   0  0  0  0  0  0  0  0  0  0  0  0
  -26.6940  -12.8840   19.9130 N   0  0  0  0  0  0  0  0  0  0  0  0
  -26.1920  -11.6220   19.8940 N   0  0  0  0  0  0  0  0  0  0  0  0
  -24.2640  -10.4590   20.7470 C   0  0  0  0  0  0  0  0  0  0  0  0
  -24.7370   -9.2280   21.2530 C   0  0  0  0  0  3  0  0  0  0  0  0
  -23.8820   -8.1070   21.3200 C   0  0  0  0  0  3  0  0  0  0  0  0
  -22.5400   -8.2110   20.8810 C   0  0  0  0  0  0  0  0  0  0  0  0
  -22.0820   -9.4330   20.3550 C   0  0  0  0  0  3  0  0  0  0  0  0
  -22.9370  -10.5450   20.2840 C   0  0  0  0  0  3  0  0  0  0  0  0
  -21.6420   -7.1710   20.8850 O   0  0  0  0  0  0  0  0  0  0  0  0
  -21.6730   -6.1980   21.8540 C   0  0  0  0  0  0  0  0  0  0  0  0
  -21.5500   -6.5070   23.2260 C   0  0  0  0  0  3  0  0  0  0  0  0
  -21.5180   -5.4710   24.1810 C   0  0  0  0  0  3  0  0  0  0  0  0
  -21.5990   -4.1270   23.7640 C   0  0  0  0  0  0  0  0  0  0  0  0
  -21.7140   -3.8190   22.3970 C   0  0  0  0  0  3  0  0  0  0  0  0
  -21.7510   -4.8530   21.4450 C   0  0  0  0  0  0  0  0  0  0  0  0
  -21.8410   -4.5500   20.1270 F   0  0  0  0  0  0  0  0  0  0  0  0
  -21.5610   -3.1300   24.6780 F   0  0  0  0  0  0  0  0  0  0  0  0
  -23.9120  -13.3720   22.2420 C   0  0  0  0  0  0  0  0  0  0  0  0
  -23.4120  -12.4680   23.0790 N   0  0  0  0  0  0  0  0  0  0  0  0
  -23.5350  -14.5420   22.2690 O   0  0  0  0  0  0  0  0  0  0  0  0
  -23.7400  -11.5140   23.0770 H   0  0  0  0  0  0  0  0  0  0  0  0
  -22.6880  -12.7360   23.7290 H   0  0  0  0  0  0  0  0  0  0  0  0
  -26.3840  -15.0230   21.0060 N   0  0  0  0  0  0  0  0  0  0  0  0
  -25.8400  -15.6470   21.5890 H   0  0  0  0  0  0  0  0  0  0  0  0
  -27.1280  -15.4910   20.5090 H   0  0  0  0  0  0  0  0  0  0  0  0
  -29.9820  -22.8130   20.1840 O   0  0  0  0  0  0  0  0  0  0  0  0
  -29.6240  -23.9650   21.0070 C   0  0  0  0  0  2  0  0  0  0  0  0
  -28.3300  -24.7980   20.6940 C   0  0  0  0  0  2  0  0  0  0  0  0
  -28.4560  -26.2620   20.8390 O   0  0  0  0  0  0  0  0  0  0  0  0
  -27.8040  -31.9120   25.2100 C   0  0  0  0  0  0  0  0  0  0  0  0
  -27.6400  -26.9520   21.7400 C   0  0  0  0  0  0  0  0  0  0  0  0
  -26.1940  -30.0730   25.5590 C   0  0  0  0  0  3  0  0  0  0  0  0
  -26.0810  -28.3280   23.6980 C   0  0  0  0  0  0  0  0  0  0  0  0
  -27.1840  -30.5160   23.2330 C   0  0  0  0  0  2  0  0  0  0  0  0
  -27.0250  -29.0320   22.9390 C   0  0  0  0  0  0  0  0  0  0  0  0
  -27.7970  -28.3550   21.9560 C   0  0  0  0  0  3  0  0  0  0  0  0
  -26.6290  -26.2960   22.4790 C   0  0  0  0  0  3  0  0  0  0  0  0
  -25.8760  -26.9630   23.4600 C   0  0  0  0  0  3  0  0  0  0  0  0
  -25.3050  -29.0890   24.7520 C   0  0  0  0  0  2  0  0  0  0  0  0
  -27.1120  -30.8630   24.6770 N   0  0  0  0  0  0  0  0  0  0  0  0
  -27.6600  -32.2380   26.3960 O   0  0  0  0  0  0  0  0  0  0  0  0
  -26.9360  -29.2790   26.6610 C   0  0  0  0  0  0  0  0  0  0  0  0
  -26.3390  -29.2160   27.8630 N   0  0  0  0  0  0  0  0  0  0  0  0
  -28.0080  -28.7210   26.4200 O   0  0  0  0  0  0  0  0  0  0  0  0
  -25.4640  -29.7080   27.9860 H   0  0  0  0  0  0  0  0  0  0  0  0
  -25.7930  -28.6500   31.3900 C   0  0  0  0  0  0  0  0  0  0  0  0
  -26.8410  -28.4920   29.0330 C   0  0  0  0  0  3  0  0  0  0  0  0
  -26.3630  -27.0210   29.0290 C   0  0  0  0  0  2  0  0  0  0  0  0
  -25.0640  -26.8090   29.8100 C   0  0  0  0  0  2  0  0  0  0  0  0
  -25.2390  -27.2400   31.2700 C   0  0  0  0  0  2  0  0  0  0  0  0
  -26.5320  -29.2440   30.3320 C   0  0  0  0  0  0  0  0  0  0  0  0
  -26.9950  -30.5700   30.4780 C   0  0  0  0  0  3  0  0  0  0  0  0
  -26.7320  -31.2980   31.6530 C   0  0  0  0  0  3  0  0  0  0  0  0
  -26.0140  -30.7000   32.7040 C   0  0  0  0  0  3  0  0  0  0  0  0
  -25.5530  -29.3770   32.5750 C   0  0  0  0  0  3  0  0  0  0  0  0
  -28.7880  -32.7620   24.3490 C   0  0  0  0  0  3  0  0  0  0  0  0
  -30.3040  -32.3850   24.5790 C   0  0  1  0  0  0  0  0  0  0  0  0
  -30.6960  -32.2910   26.0730 C   0  0  0  0  0  1  0  0  0  0  0  0
  -30.6370  -31.0280   23.9170 C   0  0  0  0  0  1  0  0  0  0  0  0
  -31.2130  -33.4420   23.9090 C   0  0  0  0  0  1  0  0  0  0  0  0
  -28.5500  -34.1750   24.6760 N   0  0  0  0  0  0  0  0  0  0  0  0
  -27.8230  -35.0180   23.9290 C   0  0  0  0  0  0  0  0  0  0  0  0
  -27.3340  -34.6980   22.8430 O   0  0  0  0  0  0  0  0  0  0  0  0
  -28.8670  -34.4910   25.5800 H   0  0  0  0  0  0  0  0  0  0  0  0
  -26.2140  -36.5370   25.1190 C   0  0  0  0  0  1  0  0  0  0  0  0
  -27.6050  -36.4430   24.4720 C   0  0  0  0  0  3  0  0  0  0  0  0
  -29.1200  -37.6460   22.9650 C   0  0  0  0  0  1  0  0  0  0  0  0
  -27.7490  -37.4940   23.4430 N   0  0  0  0  0  0  0  0  0  0  0  0
  -27.4380  -38.3930   23.8010 H   0  0  0  0  0  0  0  0  0  0  0  0
  1  4  1  0
  3  1  2  0
  3  6  1  0
  4  2  2  0
  5 53  1  0
  5  2  1  0
  6  5  2  0
  7 23  1  0
  8 13  1  0
  9  8  1  0
  9 10  1  0
 11 10  1  0
 11 12  1  0
 11 28  1  0
 13  7  1  0
 13 12  1  0
 14  7  2  0
 15 24  2  0
 15 20  1  0
 16 23  1  0
 16 18  1  0
 17 22  1  0
 18  4  1  0
 18 22  1  0
 19 17  1  0
 19 21  1  0
 22 15  1  0
 23 19  1  0
 25 50  1  0
 25 26  2  0
 26 45  1  0
 27 30  1  0
 27 26  1  0
 28 25  1  0
 29 28  1  0
 29 27  2  0
 30 31  1  0
 31 32  2  0
 33 36  1  0
 33 32  1  0
 34 33  2  0
 35 34  1  0
 35 30  2  0
 36 37  1  0
 37 38  1  0
 38 39  2  0
 40 39  1  0
 40 44  1  0
 41 40  2  0
 42 37  2  0
 42 41  1  0
 43 42  1  0
 45 47  2  0
 45 46  1  0
 46 49  1  0
 48 46  1  0
 50 51  1  0
 52 50  1  0
 53 54  1  0
 55 56  1  0
 55 54  1  0
 56 58  1  0
 57 68  2  0
 58 63  2  0
 58 64  1  0
 59 69  1  0
 60 66  1  0
 61 67  1  0
 62 61  1  0
 62 60  2  0
 63 62  1  0
 64 65  2  0
 65 60  1  0
 66 59  1  0
 67 57  1  0
 67 59  1  0
 69 70  1  0
 70 72  1  0
 71 69  2  0
 73 82  1  0
 74 70  1  0
 74 78  1  0
 75 74  1  0
 75 76  1  0
 76 77  1  0
 77 73  1  0
 78 79  1  0
 78 73  2  0
 79 80  2  0
 80 81  1  0
 82 81  2  0
 83 84  1  0
 83 88  1  0
 83 57  1  0
 84 85  1  1
 86 84  1  0
 87 84  1  0
 88 91  1  0
 89 93  1  0
 89 88  1  0
 90 89  2  0
 93 92  1  0
 94 95  1  0
 95 96  1  0
 95 93  1  0
M  ISO  4   7 100  23 100  55 101  56 101
M  END
>  <TORSDO>  (5) 
F 19

>  <SCORE>  (5) 
1.510

>  <name>  (5) 
4

>  <ligand_id>  (5) 
4

>  <original_smiles>  (5) 
[H]c1nc(OC([H])([H])C([H])([H])Oc2c([H])c([H])c3c(c2[H])C([H])([H])N(C(=O)C([H])(N([H])C(=O)C([H])(N([H])C([H])([H])[H])C([H])([H])[H])C(C([H])([H])[H])(C([H])([H])[H])C([H])([H])[H])C([H])(C(=O)N([H])C2([H])c4c([H])c([H])c([H])c([H])c4C([H])([H])C([H])([H])C2([H])[H])C3([H])[H])c([H])c(C2([H])N(C(=O)C([H])([H])[H])C([H])([H])C([H])(C([H])([H])[H])N(C(=O)N3C([H])([H])C([H])([H])C([H])([H])C([H])(n4nc(-c5c([H])c([H])c(Oc6c([H])c([H])c(F)c([H])c6F)c([H])c5[H])c(C(=O)N([H])[H])c4N([H])[H])C3([H])[H])C2([H])[H])c1[H]

>  <smiles>  (5) 
[H]c1nc(OC([H])([H])C([H])([H])Oc2c([H])c([H])c3c(c2[H])C([H])([H])N(C(=O)C([H])(N([H])C(=O)C([H])(N([H])C([H])([H])[H])C([H])([H])[H])C(C([H])([H])[H])(C([H])([H])[H])C([H])([H])[H])C([H])(C(=O)N([H])C2([H])c4c([H])c([H])c([H])c([H])c4C([H])([H])C([H])([H])C2([H])[H])C3([H])[H])c([H])c(C2([H])N(C(=O)C([H])([H])[H])C([H])([H])C([H])(C([H])([H])[H])N(C(=O)N3C([H])([H])C([H])([H])C([H])([H])C([H])(n4nc(-c5c([H])c([H])c(Oc6c([H])c([H])c(F)c([H])c6F)c([H])c5[H])c(C(=O)N([H])[H])c4N([H])[H])C3([H])[H])C2([H])[H])c1[H]

$$$$
5:0:0
     RDKit          3D

 93102  0  0  1  0  0  0  0  0999 V2000
  -28.3600  -18.7340   20.7600 C   0  0  0  0  0  3  0  0  0  0  0  0
  -28.2950  -20.1380   20.5990 C   0  0  0  0  0  3  0  0  0  0  0  0
  -30.7040  -20.2550   20.7730 C   0  0  0  0  0  3  0  0  0  0  0  0
  -29.5930  -18.0620   20.9400 C   0  0  0  0  0  0  0  0  0  0  0  0
  -30.7730  -18.8510   20.9790 C   0  0  0  0  0  0  0  0  0  0  0  0
  -29.4700  -20.9300   20.5960 C   0  0  0  0  0  0  0  0  0  0  0  0
  -32.1320  -18.2160   21.2560 C   0  0  0  0  0  1  0  0  0  0  0  0
  -29.6390  -16.5110   21.0070 C   0  0  0  0  0  2  0  0  0  0  0  0
  -31.0430  -14.7110   19.9800 C   0  0  0  0  0  0  0  0  0  0  0  0
  -30.7190  -12.4940   18.9650 C   0  0  0  0  0  2  0  0  0  0  0  0
  -29.7390  -12.6410   17.7780 C   0  0  0  0  0  2  0  0  0  0  0  0
  -28.2820  -12.5250   18.2630 C   0  0  0  0  0  2  0  0  0  0  0  0
  -27.9820  -13.4220   19.4960 C   0  0  0  0  0  3  0  0  0  0  0  0
  -29.0660  -13.2440   20.5820 C   0  0  0  0  0  2  0  0  0  0  0  0
  -30.3620  -13.5300   19.9520 N   0  0  0  0  0  0  0  0  0  0  0  0
  -32.2330  -14.7600   19.6560 O   0  0  0  0  0  0  0  0  0  0  0  0
  -30.2630  -15.8290   19.8360 N   0  0  0  0  0  0  0  0  0  0  0  0
  -25.6340  -14.1000   20.2950 C   0  0  0  0  0  0  0  0  0  0  0  0
  -24.5640  -13.3530   20.7120 C   0  0  0  0  0  0  0  0  0  0  0  0
  -24.9880  -11.9890   20.6590 C   0  0  0  0  0  0  0  0  0  0  0  0
  -26.6440  -13.1870   20.0250 N   0  0  0  0  0  0  0  0  0  0  0  0
  -26.2620  -11.9170   20.3020 N   0  0  0  0  0  0  0  0  0  0  0  0
  -24.2350  -10.7450   20.8670 C   0  0  0  0  0  0  0  0  0  0  0  0
  -24.6440   -9.7860   21.8210 C   0  0  0  0  0  3  0  0  0  0  0  0
  -23.8960   -8.6050   22.0160 C   0  0  0  0  0  3  0  0  0  0  0  0
  -22.7250   -8.3780   21.2560 C   0  0  0  0  0  0  0  0  0  0  0  0
  -22.3320   -9.3240   20.2930 C   0  0  0  0  0  3  0  0  0  0  0  0
  -23.0810  -10.4960   20.0970 C   0  0  0  0  0  3  0  0  0  0  0  0
  -21.9500   -7.2480   21.3570 O   0  0  0  0  0  0  0  0  0  0  0  0
  -21.8360   -6.5580   22.5370 C   0  0  0  0  0  0  0  0  0  0  0  0
  -21.3450   -7.1670   23.7110 C   0  0  0  0  0  3  0  0  0  0  0  0
  -21.1800   -6.4030   24.8850 C   0  0  0  0  0  3  0  0  0  0  0  0
  -21.4980   -5.0320   24.8810 C   0  0  0  0  0  0  0  0  0  0  0  0
  -21.9840   -4.4230   23.7130 C   0  0  0  0  0  3  0  0  0  0  0  0
  -22.1500   -5.1850   22.5410 C   0  0  0  0  0  0  0  0  0  0  0  0
  -22.5970   -4.5890   21.4100 F   0  0  0  0  0  0  0  0  0  0  0  0
  -21.3320   -4.2960   26.0060 F   0  0  0  0  0  0  0  0  0  0  0  0
  -23.1930  -13.8700   21.0290 C   0  0  0  0  0  0  0  0  0  0  0  0
  -22.4770  -13.1970   21.9270 N   0  0  0  0  0  0  0  0  0  0  0  0
  -22.7610  -14.9010   20.5190 O   0  0  0  0  0  0  0  0  0  0  0  0
  -22.8390  -12.3640   22.3640 H   0  0  0  0  0  0  0  0  0  0  0  0
  -21.5520  -13.5180   22.1730 H   0  0  0  0  0  0  0  0  0  0  0  0
  -25.8150  -15.4660   20.1000 N   0  0  0  0  0  0  0  0  0  0  0  0
  -25.0270  -16.1030   20.1710 H   0  0  0  0  0  0  0  0  0  0  0  0
  -26.6100  -15.8770   19.6240 H   0  0  0  0  0  0  0  0  0  0  0  0
  -31.5980  -17.3440   18.1970 C   0  0  0  0  0  2  0  0  0  0  0  0
  -30.9250  -16.3050   17.3360 C   0  0  0  0  0  2  0  0  0  0  0  0
  -30.2980  -16.6990   18.6620 C   0  0  0  0  0  3  0  0  0  0  0  0
  -29.4670  -22.3180   20.4270 O   0  0  0  0  0  0  0  0  0  0  0  0
  -28.2330  -23.0380   20.6480 C   0  0  0  0  0  2  0  0  0  0  0  0
  -28.3550  -24.5920   20.7470 C   0  0  0  0  0  2  0  0  0  0  0  0
  -28.2750  -25.3640   19.4000 C   0  0  0  0  0  2  0  0  0  0  0  0
  -28.2600  -26.8100   19.5470 O   0  0  0  0  0  0  0  0  0  0  0  0
  -24.4940  -31.7350   23.1050 C   0  0  0  0  0  0  0  0  0  0  0  0
  -27.0630  -27.5130   19.6280 C   0  0  0  0  0  0  0  0  0  0  0  0
  -23.2430  -30.4190   21.4300 C   0  0  0  0  0  3  0  0  0  0  0  0
  -24.6570  -29.0120   19.8420 C   0  0  0  0  0  0  0  0  0  0  0  0
  -25.7580  -30.8280   21.1540 C   0  0  0  0  0  2  0  0  0  0  0  0
  -25.8360  -29.5060   20.4100 C   0  0  0  0  0  0  0  0  0  0  0  0
  -27.0430  -28.7680   20.2910 C   0  0  0  0  0  3  0  0  0  0  0  0
  -25.8540  -27.0400   19.0660 C   0  0  0  0  0  3  0  0  0  0  0  0
  -24.6610  -27.7810   19.1680 C   0  0  0  0  0  3  0  0  0  0  0  0
  -23.4080  -29.8500   20.0010 C   0  0  0  0  0  2  0  0  0  0  0  0
  -24.5190  -31.0050   21.9530 N   0  0  0  0  0  0  0  0  0  0  0  0
  -23.4310  -31.9500   23.7040 O   0  0  0  0  0  0  0  0  0  0  0  0
  -22.6540  -29.3190   22.3410 C   0  0  0  0  0  0  0  0  0  0  0  0
  -21.3370  -29.0830   22.2260 N   0  0  0  0  0  0  0  0  0  0  0  0
  -23.3830  -28.6810   23.1050 O   0  0  0  0  0  0  0  0  0  0  0  0
  -20.8070  -29.6550   21.5850 H   0  0  0  0  0  0  0  0  0  0  0  0
  -18.0360  -27.6820   22.6830 C   0  0  0  0  0  0  0  0  0  0  0  0
  -20.5780  -28.0700   22.9580 C   0  0  0  0  0  3  0  0  0  0  0  0
  -20.7560  -26.6750   22.3200 C   0  0  0  0  0  2  0  0  0  0  0  0
  -19.6650  -26.3320   21.3020 C   0  0  0  0  0  2  0  0  0  0  0  0
  -18.2780  -26.3710   21.9560 C   0  0  0  0  0  2  0  0  0  0  0  0
  -19.1140  -28.4860   23.1410 C   0  0  0  0  0  0  0  0  0  0  0  0
  -18.8350  -29.7130   23.7810 C   0  0  0  0  0  3  0  0  0  0  0  0
  -17.5060  -30.1320   23.9770 C   0  0  0  0  0  3  0  0  0  0  0  0
  -16.4400  -29.3250   23.5390 C   0  0  0  0  0  3  0  0  0  0  0  0
  -16.7060  -28.1040   22.8950 C   0  0  0  0  0  3  0  0  0  0  0  0
  -25.7920  -32.3520   23.7080 C   0  0  0  0  0  3  0  0  0  0  0  0
  -25.4860  -33.7370   24.0910 N   0  0  0  0  0  0  0  0  0  0  0  0
  -25.8010  -34.8150   23.3600 C   0  0  0  0  0  0  0  0  0  0  0  0
  -26.4560  -34.7510   22.3170 O   0  0  0  0  0  0  0  0  0  0  0  0
  -24.9130  -33.8640   24.9110 H   0  0  0  0  0  0  0  0  0  0  0  0
  -24.0700  -36.6150   23.0800 C   0  0  0  0  0  1  0  0  0  0  0  0
  -25.3130  -36.1820   23.8730 C   0  0  0  0  0  3  0  0  0  0  0  0
  -27.4450  -37.0380   24.7390 C   0  0  0  0  0  1  0  0  0  0  0  0
  -26.3440  -37.2400   23.8020 N   0  0  0  0  0  0  0  0  0  0  0  0
  -25.9350  -38.1510   23.9870 H   0  0  0  0  0  0  0  0  0  0  0  0
  -26.3490  -31.5430   24.9430 C   0  0  1  0  0  0  0  0  0  0  0  0
  -25.2890  -31.2680   26.0330 C   0  0  0  0  0  1  0  0  0  0  0  0
  -26.9320  -30.1820   24.4920 C   0  0  0  0  0  1  0  0  0  0  0  0
  -27.5130  -32.3270   25.5950 C   0  0  0  0  0  1  0  0  0  0  0  0
  1  4  1  0
  2  1  2  0
  3  5  1  0
  4  5  2  0
  4  8  1  0
  5  7  1  0
  6  2  1  0
  6  3  2  0
 10 15  1  0
 11 12  1  0
 11 10  1  0
 13 12  1  0
 13 21  1  0
 13 14  1  0
 15  9  1  0
 15 14  1  0
 16  9  2  0
 17  9  1  0
 17  8  1  0
 18 19  2  0
 19 38  1  0
 20 19  1  0
 20 23  1  0
 21 18  1  0
 21 22  1  0
 22 20  2  0
 23 24  1  0
 24 25  2  0
 26 29  1  0
 26 25  1  0
 27 26  2  0
 28 27  1  0
 28 23  2  0
 29 30  1  0
 30 35  2  0
 30 31  1  0
 31 32  2  0
 33 32  1  0
 33 37  1  0
 34 33  2  0
 35 34  1  0
 36 35  1  0
 38 39  1  0
 39 42  1  0
 39 41  1  0
 40 38  2  0
 43 44  1  0
 43 18  1  0
 45 43  1  0
 46 48  1  0
 47 46  1  0
 47 48  1  0
 48 17  1  0
 49  6  1  0
 49 50  1  0
 50 51  1  0
 52 53  1  0
 52 51  1  0
 53 55  1  0
 54 65  2  0
 55 60  1  0
 56 64  1  0
 56 66  1  0
 57 63  1  0
 57 59  1  0
 58 64  1  0
 59 58  1  0
 60 59  2  0
 61 62  1  0
 61 55  2  0
 62 57  2  0
 63 56  1  0
 64 54  1  0
 66 68  2  0
 67 66  1  0
 69 67  1  0
 70 79  2  0
 70 75  1  0
 71 67  1  0
 71 75  1  0
 72 71  1  0
 73 74  1  0
 73 72  1  0
 74 70  1  0
 75 76  2  0
 76 77  1  0
 78 77  2  0
 79 78  1  0
 80 54  1  0
 80 81  1  0
 80 90  1  0
 81 84  1  0
 82 86  1  0
 82 81  1  0
 83 82  2  0
 86 85  1  0
 88 86  1  0
 88 89  1  0
 88 87  1  0
 90 93  1  1
 90 91  1  0
 92 90  1  0
M  ISO  4   9 100  17 100  52 101  53 101
M  END
>  <TORSDO>  (6) 
F 22

>  <SCORE>  (6) 
-11.956

>  <name>  (6) 
5

>  <ligand_id>  (6) 
5

>  <original_smiles>  (6) 
[H]c1c([H])c([H])c2c(c1[H])C([H])([H])C([H])([H])C([H])([H])C2([H])N([H])C(=O)C1([H])N(C(=O)C([H])(N([H])C(=O)C([H])(N([H])C([H])([H])[H])C([H])([H])[H])C(C([H])([H])[H])(C([H])([H])[H])C([H])([H])[H])C([H])([H])c2c([H])c(OC([H])([H])C([H])([H])C([H])([H])Oc3c([H])c([H])c(C([H])([H])N(C(=O)N4C([H])([H])C([H])([H])C([H])([H])C([H])(n5nc(-c6c([H])c([H])c(Oc7c([H])c([H])c(F)c([H])c7F)c([H])c6[H])c(C(=O)N([H])[H])c5N([H])[H])C4([H])[H])C4([H])C([H])([H])C4([H])[H])c(C([H])([H])[H])c3[H])c([H])c([H])c2C1([H])[H]

>  <smiles>  (6) 
[H]c1c([H])c([H])c2c(c1[H])C([H])([H])C([H])([H])C([H])([H])C2([H])N([H])C(=O)C1([H])N(C(=O)C([H])(N([H])C(=O)C([H])(N([H])C([H])([H])[H])C([H])([H])[H])C(C([H])([H])[H])(C([H])([H])[H])C([H])([H])[H])C([H])([H])c2c([H])c(OC([H])([H])C([H])([H])C([H])([H])Oc3c([H])c([H])c(C([H])([H])N(C(=O)N4C([H])([H])C([H])([H])C([H])([H])C([H])(n5nc(-c6c([H])c([H])c(Oc7c([H])c([H])c(F)c([H])c7F)c([H])c6[H])c(C(=O)N([H])[H])c5N([H])[H])C4([H])[H])C4([H])C([H])([H])C4([H])[H])c(C([H])([H])[H])c3[H])c([H])c([H])c2C1([H])[H]

$$$$
6:0:0
     RDKit          3D

 98107  0  0  1  0  0  0  0  0999 V2000
  -29.1940  -23.4010   18.5840 C   0  0  0  0  0  3  0  0  0  0  0  0
  -28.9250  -24.6920   21.0500 C   0  0  0  0  0  3  0  0  0  0  0  0
  -29.5920  -22.7200   19.7530 C   0  0  0  0  0  0  0  0  0  0  0  0
  -28.7440  -24.7390   18.6270 C   0  0  0  0  0  0  0  0  0  0  0  0
  -29.4020  -23.3530   21.0060 C   0  0  0  0  0  0  0  0  0  0  0  0
  -28.6580  -25.4170   19.8700 C   0  0  0  0  0  0  0  0  0  0  0  0
  -28.4300  -25.4310   17.3130 C   0  0  0  0  0  1  0  0  0  0  0  0
  -29.8380  -20.1860   18.9290 C   0  0  0  0  0  2  0  0  0  0  0  0
  -30.3640  -21.4220   19.6100 C   0  0  0  0  0  3  0  0  0  0  0  0
  -30.1030  -20.1500   20.4230 C   0  0  0  0  0  3  0  0  0  0  0  0
  -31.2510  -19.3400   21.0760 C   0  0  0  0  0  3  0  0  0  0  0  0
  -32.5680  -19.9910   20.8940 N   0  0  0  0  0  4  0  0  0  0  0  0
  -32.8580  -19.9730   19.9310 H   0  0  0  0  0  0  0  0  0  0  0  0
  -33.2750  -19.5310   21.4420 H   0  0  0  0  0  0  0  0  0  0  0  0
  -32.5400  -20.9460   21.2030 H   0  0  0  0  0  0  0  0  0  0  0  0
  -31.3360  -17.8080   20.7290 C   0  0  0  0  0  3  0  0  0  0  0  0
  -30.0680  -16.9620   21.0240 C   0  0  0  0  0  3  0  0  0  0  0  0
  -30.8800  -14.5620   20.4030 C   0  0  0  0  0  0  0  0  0  0  0  0
  -30.6080  -12.3990   19.2180 C   0  0  0  0  0  2  0  0  0  0  0  0
  -29.6690  -12.6270   18.0140 C   0  0  0  0  0  2  0  0  0  0  0  0
  -28.1870  -12.5250   18.4350 C   0  0  0  0  0  2  0  0  0  0  0  0
  -27.8620  -13.3310   19.7200 C   0  0  0  0  0  3  0  0  0  0  0  0
  -28.9100  -13.0410   20.8170 C   0  0  0  0  0  2  0  0  0  0  0  0
  -30.2440  -13.3620   20.2700 N   0  0  0  0  0  0  0  0  0  0  0  0
  -31.9500  -14.8200   19.8420 O   0  0  0  0  0  0  0  0  0  0  0  0
  -30.1760  -15.4820   21.0960 N   0  0  0  0  0  0  0  0  0  0  0  0
  -29.4050  -15.0510   21.5890 H   0  0  0  0  0  0  0  0  0  0  0  0
  -25.4530  -13.9640   20.3920 C   0  0  0  0  0  0  0  0  0  0  0  0
  -24.3770  -13.2040   20.7660 C   0  0  0  0  0  0  0  0  0  0  0  0
  -24.8290  -11.8500   20.7620 C   0  0  0  0  0  0  0  0  0  0  0  0
  -26.4970  -13.0730   20.1870 N   0  0  0  0  0  0  0  0  0  0  0  0
  -26.1220  -11.7970   20.4610 N   0  0  0  0  0  0  0  0  0  0  0  0
  -24.0950  -10.5950   20.9680 C   0  0  0  0  0  0  0  0  0  0  0  0
  -24.5070   -9.6450   21.9260 C   0  0  0  0  0  3  0  0  0  0  0  0
  -23.7710   -8.4550   22.1200 C   0  0  0  0  0  3  0  0  0  0  0  0
  -22.6100   -8.2070   21.3520 C   0  0  0  0  0  0  0  0  0  0  0  0
  -22.2180   -9.1450   20.3810 C   0  0  0  0  0  3  0  0  0  0  0  0
  -22.9550  -10.3250   20.1860 C   0  0  0  0  0  3  0  0  0  0  0  0
  -21.8480   -7.0670   21.4490 O   0  0  0  0  0  0  0  0  0  0  0  0
  -21.7600   -6.3620   22.6210 C   0  0  0  0  0  0  0  0  0  0  0  0
  -21.2890   -6.9530   23.8150 C   0  0  0  0  0  3  0  0  0  0  0  0
  -21.1510   -6.1740   24.9800 C   0  0  0  0  0  3  0  0  0  0  0  0
  -21.4720   -4.8030   24.9550 C   0  0  0  0  0  0  0  0  0  0  0  0
  -21.9350   -4.2100   23.7650 C   0  0  0  0  0  3  0  0  0  0  0  0
  -22.0770   -4.9880   22.6040 C   0  0  0  0  0  0  0  0  0  0  0  0
  -22.5050   -4.4070   21.4560 F   0  0  0  0  0  0  0  0  0  0  0  0
  -21.3300   -4.0530   26.0720 F   0  0  0  0  0  0  0  0  0  0  0  0
  -22.9800  -13.6960   21.0210 C   0  0  0  0  0  0  0  0  0  0  0  0
  -22.2420  -13.0230   21.8980 N   0  0  0  0  0  0  0  0  0  0  0  0
  -22.5530  -14.7140   20.4820 O   0  0  0  0  0  0  0  0  0  0  0  0
  -22.6000  -12.2020   22.3640 H   0  0  0  0  0  0  0  0  0  0  0  0
  -21.3080  -13.3400   22.1130 H   0  0  0  0  0  0  0  0  0  0  0  0
  -25.6230  -15.3300   20.1920 N   0  0  0  0  0  0  0  0  0  0  0  0
  -24.8510  -15.9820   20.2770 H   0  0  0  0  0  0  0  0  0  0  0  0
  -26.4720  -15.7610   19.8460 H   0  0  0  0  0  0  0  0  0  0  0  0
  -29.4710  -23.2120   23.4020 C   0  0  0  0  0  1  0  0  0  0  0  0
  -29.7690  -22.6460   22.1320 O   0  0  0  0  0  0  0  0  0  0  0  0
  -28.5320  -26.7930   19.9490 O   0  0  0  0  0  0  0  0  0  0  0  0
  -24.6630  -31.8600   23.1720 C   0  0  0  0  0  0  0  0  0  0  0  0
  -27.3210  -27.4460   20.0410 C   0  0  0  0  0  0  0  0  0  0  0  0
  -23.4570  -30.4590   21.5280 C   0  0  0  0  0  3  0  0  0  0  0  0
  -24.9130  -28.9310   20.0930 C   0  0  0  0  0  0  0  0  0  0  0  0
  -25.9760  -30.8340   21.3200 C   0  0  0  0  0  2  0  0  0  0  0  0
  -26.0680  -29.4620   20.6800 C   0  0  0  0  0  0  0  0  0  0  0  0
  -27.2720  -28.7200   20.6600 C   0  0  0  0  0  3  0  0  0  0  0  0
  -26.1460  -26.9270   19.4590 C   0  0  0  0  0  3  0  0  0  0  0  0
  -24.9440  -27.6630   19.4870 C   0  0  0  0  0  3  0  0  0  0  0  0
  -23.6680  -29.7870   20.1430 C   0  0  0  0  0  2  0  0  0  0  0  0
  -24.7160  -31.0660   22.0660 N   0  0  0  0  0  0  0  0  0  0  0  0
  -23.5850  -32.1170   23.7250 O   0  0  0  0  0  0  0  0  0  0  0  0
  -22.8200  -29.4240   22.4850 C   0  0  0  0  0  0  0  0  0  0  0  0
  -21.4990  -29.2210   22.3590 N   0  0  0  0  0  0  0  0  0  0  0  0
  -23.5140  -28.8070   23.2980 O   0  0  0  0  0  0  0  0  0  0  0  0
  -20.9950  -29.7720   21.6790 H   0  0  0  0  0  0  0  0  0  0  0  0
  -18.1510  -27.9560   22.8420 C   0  0  0  0  0  0  0  0  0  0  0  0
  -20.7000  -28.2710   23.1330 C   0  0  0  0  0  3  0  0  0  0  0  0
  -20.8380  -26.8380   22.5680 C   0  0  0  0  0  2  0  0  0  0  0  0
  -19.7520  -26.4860   21.5460 C   0  0  0  0  0  2  0  0  0  0  0  0
  -18.3630  -26.6060   22.1780 C   0  0  0  0  0  2  0  0  0  0  0  0
  -19.2500  -28.7430   23.2790 C   0  0  0  0  0  0  0  0  0  0  0  0
  -19.0000  -30.0060   23.8600 C   0  0  0  0  0  3  0  0  0  0  0  0
  -17.6840  -30.4830   24.0060 C   0  0  0  0  0  3  0  0  0  0  0  0
  -16.6000  -29.6930   23.5860 C   0  0  0  0  0  3  0  0  0  0  0  0
  -16.8330  -28.4320   23.0120 C   0  0  0  0  0  3  0  0  0  0  0  0
  -25.9500  -32.5010   23.7810 C   0  0  0  0  0  3  0  0  0  0  0  0
  -25.6220  -33.8840   24.1520 N   0  0  0  0  0  0  0  0  0  0  0  0
  -25.9070  -34.9580   23.4030 C   0  0  0  0  0  0  0  0  0  0  0  0
  -26.5440  -34.8910   22.3490 O   0  0  0  0  0  0  0  0  0  0  0  0
  -25.0530  -34.0070   24.9760 H   0  0  0  0  0  0  0  0  0  0  0  0
  -24.1280  -36.7160   23.1380 C   0  0  0  0  0  1  0  0  0  0  0  0
  -25.4030  -36.3250   23.9040 C   0  0  0  0  0  3  0  0  0  0  0  0
  -27.5390  -37.2470   24.6900 C   0  0  0  0  0  1  0  0  0  0  0  0
  -26.4060  -37.4050   23.7820 N   0  0  0  0  0  0  0  0  0  0  0  0
  -25.9820  -38.3100   23.9650 H   0  0  0  0  0  0  0  0  0  0  0  0
  -26.5100  -31.7080   25.0260 C   0  0  1  0  0  0  0  0  0  0  0  0
  -25.4430  -31.4260   26.1080 C   0  0  0  0  0  1  0  0  0  0  0  0
  -27.1090  -30.3500   24.5870 C   0  0  0  0  0  1  0  0  0  0  0  0
  -27.6600  -32.5040   25.6870 C   0  0  0  0  0  1  0  0  0  0  0  0
  1  4  2  0
  1  3  1  0
  3  5  2  0
  4  6  1  0
  5  2  1  0
  5 57  1  0
  6 58  1  0
  6  2  2  0
  7  4  1  0
  8  9  1  0
  8 10  1  0
  9  3  1  0
  9 10  1  0
 10 11  1  0
 11 16  1  0
 12 11  1  0
 12 15  1  0
 12 14  1  0
 13 12  1  0
 16 17  2  0
 17 26  1  0
 18 26  1  0
 19 24  1  0
 20 21  1  0
 20 19  1  0
 22 21  1  0
 22 31  1  0
 22 23  1  0
 24 18  1  0
 24 23  1  0
 25 18  2  0
 26 27  1  0
 28 29  2  0
 29 48  1  0
 30 29  1  0
 30 33  1  0
 31 28  1  0
 31 32  1  0
 32 30  2  0
 33 34  1  0
 34 35  2  0
 36 39  1  0
 36 35  1  0
 37 36  2  0
 38 37  1  0
 38 33  2  0
 39 40  1  0
 40 41  1  0
 41 42  2  0
 43 42  1  0
 43 47  1  0
 44 43  2  0
 45 40  2  0
 45 44  1  0
 46 45  1  0
 48 49  1  0
 49 52  1  0
 49 51  1  0
 50 48  2  0
 53 54  1  0
 53 28  1  0
 55 53  1  0
 57 56  1  0
 58 60  1  0
 59 70  2  0
 60 65  1  0
 61 69  1  0
 61 71  1  0
 62 68  1  0
 62 64  1  0
 63 69  1  0
 64 63  1  0
 65 64  2  0
 66 67  1  0
 66 60  2  0
 67 62  2  0
 68 61  1  0
 69 59  1  0
 71 73  2  0
 72 71  1  0
 74 72  1  0
 75 84  2  0
 75 80  1  0
 76 72  1  0
 76 80  1  0
 77 76  1  0
 78 79  1  0
 78 77  1  0
 79 75  1  0
 80 81  2  0
 81 82  1  0
 83 82  2  0
 84 83  1  0
 85 59  1  0
 85 86  1  0
 85 95  1  0
 86 89  1  0
 87 91  1  0
 87 86  1  0
 88 87  2  0
 91 90  1  0
 93 91  1  0
 93 94  1  0
 93 92  1  0
 95 98  1  1
 95 96  1  0
 97 95  1  0
M  ISO  4   6 101  18 100  26 100  58 101
M  END
>  <TORSDO>  (7) 
F 22

>  <SCORE>  (7) 
-13.319

>  <name>  (7) 
6

>  <ligand_id>  (7) 
6

>  <original_smiles>  (7) 
[H]c1c([H])c([H])c2c(c1[H])C([H])([H])C([H])([H])C([H])([H])C2([H])N([H])C(=O)C1([H])N(C(=O)C([H])(N([H])C(=O)C([H])(N([H])C([H])([H])[H])C([H])([H])[H])C(C([H])([H])[H])(C([H])([H])[H])C([H])([H])[H])C([H])([H])c2c([H])c(Oc3c([H])c(OC([H])([H])[H])c(C4([H])C([H])([H])C4([H])C([H])(C([H])([H])C([H])([H])N([H])C(=O)N4C([H])([H])C([H])([H])C([H])([H])C([H])(n5nc(-c6c([H])c([H])c(Oc7c([H])c([H])c(F)c([H])c7F)c([H])c6[H])c(C(=O)N([H])[H])c5N([H])[H])C4([H])[H])[N+]([H])([H])[H])c([H])c3C([H])([H])[H])c([H])c([H])c2C1([H])[H]

>  <smiles>  (7) 
[H]c1c([H])c([H])c2c(c1[H])C([H])([H])C([H])([H])C([H])([H])C2([H])N([H])C(=O)C1([H])N(C(=O)C([H])(N([H])C(=O)C([H])(N([H])C([H])([H])[H])C([H])([H])[H])C(C([H])([H])[H])(C([H])([H])[H])C([H])([H])[H])C([H])([H])c2c([H])c(Oc3c([H])c(OC([H])([H])[H])c(C4([H])C([H])([H])C4([H])C([H])(C([H])([H])C([H])([H])N([H])C(=O)N4C([H])([H])C([H])([H])C([H])([H])C([H])(n5nc(-c6c([H])c([H])c(Oc7c([H])c([H])c(F)c([H])c7F)c([H])c6[H])c(C(=O)N([H])[H])c5N([H])[H])C4([H])[H])[N+]([H])([H])[H])c([H])c3C([H])([H])[H])c([H])c([H])c2C1([H])[H]

$$$$
7:0:0
     RDKit          3D

101110  0  0  1  0  0  0  0  0999 V2000
  -31.2000  -21.3070   21.9260 C   0  0  0  0  0  2  0  0  0  0  0  0
  -31.5330  -19.8190   21.8840 C   0  0  0  0  0  2  0  0  0  0  0  0
  -29.7460  -20.8780   21.6630 C   0  0  0  0  0  3  0  0  0  0  0  0
  -30.3640  -19.6880   21.0080 N   0  0  0  0  0  0  0  0  0  0  0  0
  -28.2900  -18.3600   20.7100 C   0  0  0  0  0  1  0  0  0  0  0  0
  -29.7650  -18.3260   21.1510 C   0  0  0  0  0  3  0  0  0  0  0  0
  -30.7730  -14.7210   20.6070 C   0  0  0  0  0  0  0  0  0  0  0  0
  -30.5980  -12.3770   19.8410 C   0  0  0  0  0  2  0  0  0  0  0  0
  -29.7540  -12.2810   18.5530 C   0  0  0  0  0  2  0  0  0  0  0  0
  -28.2390  -12.2540   18.8680 C   0  0  0  0  0  2  0  0  0  0  0  0
  -27.7820  -13.2240   20.0000 C   0  0  0  0  0  3  0  0  0  0  0  0
  -28.7750  -13.2620   21.1800 C   0  0  0  0  0  2  0  0  0  0  0  0
  -30.1090  -13.5230   20.6260 N   0  0  0  0  0  0  0  0  0  0  0  0
  -32.0040  -14.7630   20.5710 O   0  0  0  0  0  0  0  0  0  0  0  0
  -30.5980  -16.5580   18.0270 C   0  0  0  0  0  2  0  0  0  0  0  0
  -29.5480  -15.8560   18.8690 C   0  0  0  0  0  2  0  0  0  0  0  0
  -30.9110  -17.7390   18.9150 C   0  0  0  0  0  3  0  0  0  0  0  0
  -30.6410  -17.2510   20.3740 C   0  0  0  0  0  3  0  0  0  0  0  0
  -30.0580  -15.8540   20.2560 N   0  0  0  0  0  0  0  0  0  0  0  0
  -25.3640  -13.8590   20.5760 C   0  0  0  0  0  0  0  0  0  0  0  0
  -24.2730  -13.1000   20.8920 C   0  0  0  0  0  0  0  0  0  0  0  0
  -24.7280  -11.7470   20.9230 C   0  0  0  0  0  0  0  0  0  0  0  0
  -26.4140  -12.9650   20.4270 N   0  0  0  0  0  0  0  0  0  0  0  0
  -26.0340  -11.6920   20.7000 N   0  0  0  0  0  0  0  0  0  0  0  0
  -23.9880  -10.4930   21.0900 C   0  0  0  0  0  0  0  0  0  0  0  0
  -24.3730   -9.5340   22.0540 C   0  0  0  0  0  3  0  0  0  0  0  0
  -23.6340   -8.3420   22.2100 C   0  0  0  0  0  3  0  0  0  0  0  0
  -22.4990   -8.1010   21.4010 C   0  0  0  0  0  0  0  0  0  0  0  0
  -22.1350   -9.0470   20.4250 C   0  0  0  0  0  3  0  0  0  0  0  0
  -22.8740  -10.2300   20.2680 C   0  0  0  0  0  3  0  0  0  0  0  0
  -21.7340   -6.9620   21.4650 O   0  0  0  0  0  0  0  0  0  0  0  0
  -21.6310   -6.2290   22.6220 C   0  0  0  0  0  0  0  0  0  0  0  0
  -21.1490   -6.7950   23.8220 C   0  0  0  0  0  3  0  0  0  0  0  0
  -20.9950   -5.9900   24.9680 C   0  0  0  0  0  3  0  0  0  0  0  0
  -21.3140   -4.6190   24.9120 C   0  0  0  0  0  0  0  0  0  0  0  0
  -21.7890   -4.0540   23.7170 C   0  0  0  0  0  3  0  0  0  0  0  0
  -21.9450   -4.8570   22.5730 C   0  0  0  0  0  0  0  0  0  0  0  0
  -22.3830   -4.3030   21.4180 F   0  0  0  0  0  0  0  0  0  0  0  0
  -21.1600   -3.8420   26.0100 F   0  0  0  0  0  0  0  0  0  0  0  0
  -22.8640  -13.5890   21.0630 C   0  0  0  0  0  0  0  0  0  0  0  0
  -22.0860  -12.9250   21.9080 N   0  0  0  0  0  0  0  0  0  0  0  0
  -22.4610  -14.5960   20.4800 O   0  0  0  0  0  0  0  0  0  0  0  0
  -22.4230  -12.1080   22.3950 H   0  0  0  0  0  0  0  0  0  0  0  0
  -21.1370  -13.2320   22.0690 H   0  0  0  0  0  0  0  0  0  0  0  0
  -25.5510  -15.2260   20.3780 N   0  0  0  0  0  0  0  0  0  0  0  0
  -24.7900  -15.8920   20.4300 H   0  0  0  0  0  0  0  0  0  0  0  0
  -26.4320  -15.6480   20.1130 H   0  0  0  0  0  0  0  0  0  0  0  0
  -32.2530  -18.3340   18.7270 N   0  0  0  0  0  4  0  0  0  0  0  0
  -32.9540  -17.6520   18.9690 H   0  0  0  0  0  0  0  0  0  0  0  0
  -32.3310  -19.1060   19.3730 H   0  0  0  0  0  0  0  0  0  0  0  0
  -32.5390  -18.8420   17.3660 C   0  0  0  0  0  2  0  0  0  0  0  0
  -34.2350  -20.6470   18.0450 C   0  0  0  0  0  1  0  0  0  0  0  0
  -35.0420  -18.2930   17.5110 C   0  0  0  0  0  1  0  0  0  0  0  0
  -33.9830  -19.3720   17.2240 C   0  0  0  0  0  3  0  0  0  0  0  0
  -28.7970  -21.7980   20.8200 C   0  0  0  0  0  2  0  0  0  0  0  0
  -29.2920  -23.1970   20.6000 N   0  0  0  0  0  4  0  0  0  0  0  0
  -29.8920  -23.1710   19.7910 H   0  0  0  0  0  0  0  0  0  0  0  0
  -29.8720  -23.4490   21.3850 H   0  0  0  0  0  0  0  0  0  0  0  0
  -28.2560  -24.2780   20.4300 C   0  0  0  0  0  2  0  0  0  0  0  0
  -28.7430  -25.5380   19.6340 C   0  0  0  0  0  2  0  0  0  0  0  0
  -28.5440  -26.8310   20.2580 O   0  0  0  0  0  0  0  0  0  0  0  0
  -24.6130  -31.9380   23.2710 C   0  0  0  0  0  0  0  0  0  0  0  0
  -27.3410  -27.5200   20.1980 C   0  0  0  0  0  0  0  0  0  0  0  0
  -23.4360  -30.5270   21.6140 C   0  0  0  0  0  3  0  0  0  0  0  0
  -24.9210  -29.0080   20.1920 C   0  0  0  0  0  0  0  0  0  0  0  0
  -25.9580  -30.9160   21.4330 C   0  0  0  0  0  2  0  0  0  0  0  0
  -26.0660  -29.5450   20.7900 C   0  0  0  0  0  0  0  0  0  0  0  0
  -27.2740  -28.8080   20.7880 C   0  0  0  0  0  3  0  0  0  0  0  0
  -26.1730  -27.0010   19.5920 C   0  0  0  0  0  3  0  0  0  0  0  0
  -24.9710  -27.7380   19.5900 C   0  0  0  0  0  3  0  0  0  0  0  0
  -23.6630  -29.8510   20.2350 C   0  0  0  0  0  2  0  0  0  0  0  0
  -24.6860  -31.1440   22.1650 N   0  0  0  0  0  0  0  0  0  0  0  0
  -23.5250  -32.1940   23.8060 O   0  0  0  0  0  0  0  0  0  0  0  0
  -22.7920  -29.4960   22.5700 C   0  0  0  0  0  0  0  0  0  0  0  0
  -21.4690  -29.3040   22.4410 N   0  0  0  0  0  0  0  0  0  0  0  0
  -23.4810  -28.8700   23.3810 O   0  0  0  0  0  0  0  0  0  0  0  0
  -20.9740  -29.8610   21.7580 H   0  0  0  0  0  0  0  0  0  0  0  0
  -18.1040  -28.0820   22.9350 C   0  0  0  0  0  0  0  0  0  0  0  0
  -20.6610  -28.3520   23.2020 C   0  0  0  0  0  3  0  0  0  0  0  0
  -20.7710  -26.9290   22.6080 C   0  0  0  0  0  2  0  0  0  0  0  0
  -19.6680  -26.6120   21.5930 C   0  0  0  0  0  2  0  0  0  0  0  0
  -18.2870  -26.7420   22.2420 C   0  0  0  0  0  2  0  0  0  0  0  0
  -19.2200  -28.8460   23.3700 C   0  0  0  0  0  0  0  0  0  0  0  0
  -18.9960  -30.1000   23.9780 C   0  0  0  0  0  3  0  0  0  0  0  0
  -17.6890  -30.5940   24.1530 C   0  0  0  0  0  3  0  0  0  0  0  0
  -16.5880  -29.8270   23.7340 C   0  0  0  0  0  3  0  0  0  0  0  0
  -16.7960  -28.5740   23.1300 C   0  0  0  0  0  3  0  0  0  0  0  0
  -25.8860  -32.5850   23.9010 C   0  0  0  0  0  3  0  0  0  0  0  0
  -25.5670  -33.9850   24.2090 N   0  0  0  0  0  0  0  0  0  0  0  0
  -25.9070  -35.0300   23.4420 C   0  0  0  0  0  0  0  0  0  0  0  0
  -26.5920  -34.9170   22.4230 O   0  0  0  0  0  0  0  0  0  0  0  0
  -24.9600  -34.1470   24.9990 H   0  0  0  0  0  0  0  0  0  0  0  0
  -24.1780  -36.8110   23.0340 C   0  0  0  0  0  1  0  0  0  0  0  0
  -25.4050  -36.4210   23.8740 C   0  0  0  0  0  3  0  0  0  0  0  0
  -27.5190  -37.3250   24.7370 C   0  0  0  0  0  1  0  0  0  0  0  0
  -26.4360  -37.4770   23.7700 N   0  0  0  0  0  0  0  0  0  0  0  0
  -26.0220  -38.3970   23.8990 H   0  0  0  0  0  0  0  0  0  0  0  0
  -26.3910  -31.8330   25.1930 C   0  0  1  0  0  0  0  0  0  0  0  0
  -25.2850  -31.6000   26.2490 C   0  0  0  0  0  1  0  0  0  0  0  0
  -26.9900  -30.4550   24.8240 C   0  0  0  0  0  1  0  0  0  0  0  0
  -27.5280  -32.6420   25.8630 C   0  0  0  0  0  1  0  0  0  0  0  0
  2  1  1  0
  3 55  1  0
  3  1  1  0
  4  6  1  0
  4  3  1  0
  4  2  1  0
  6  5  1  0
  7 13  1  0
  8 13  1  0
  9 10  1  0
  9  8  1  0
 11 10  1  0
 11 23  1  0
 11 12  1  0
 13 12  1  0
 14  7  2  0
 15 16  1  0
 15 17  1  0
 16 19  1  0
 17 48  1  0
 17 18  1  0
 18  6  1  0
 19 18  1  0
 19  7  1  0
 20 21  2  0
 21 22  1  0
 21 40  1  0
 22 25  1  0
 23 20  1  0
 23 24  1  0
 24 22  2  0
 25 26  1  0
 26 27  2  0
 28 31  1  0
 28 27  1  0
 29 28  2  0
 30 29  1  0
 30 25  2  0
 31 32  1  0
 32 33  1  0
 33 34  2  0
 35 34  1  0
 35 39  1  0
 36 35  2  0
 37 32  2  0
 37 36  1  0
 38 37  1  0
 40 41  1  0
 41 44  1  0
 41 43  1  0
 42 40  2  0
 45 46  1  0
 45 20  1  0
 47 45  1  0
 48 49  1  0
 48 50  1  0
 51 48  1  0
 54 51  1  0
 54 53  1  0
 54 52  1  0
 56 55  1  0
 56 58  1  0
 57 56  1  0
 59 56  1  0
 60 61  1  0
 60 59  1  0
 62 73  2  0
 63 61  1  0
 63 68  1  0
 64 72  1  0
 64 74  1  0
 65 71  1  0
 65 67  1  0
 66 72  1  0
 67 66  1  0
 68 67  2  0
 69 63  2  0
 70 69  1  0
 70 65  2  0
 71 64  1  0
 72 62  1  0
 74 76  2  0
 75 74  1  0
 77 75  1  0
 78 87  2  0
 78 83  1  0
 79 75  1  0
 79 83  1  0
 80 79  1  0
 81 82  1  0
 81 80  1  0
 82 78  1  0
 83 84  2  0
 84 85  1  0
 86 85  2  0
 87 86  1  0
 88 62  1  0
 88 89  1  0
 88 98  1  0
 89 92  1  0
 90 94  1  0
 90 89  1  0
 91 90  2  0
 94 93  1  0
 96 94  1  0
 96 97  1  0
 96 95  1  0
 98101  1  1
 98 99  1  0
100 98  1  0
M  ISO  4   7 100  19 100  60 101  61 101
M  END
>  <TORSDO>  (8) 
F 24

>  <SCORE>  (8) 
-11.983

>  <name>  (8) 
7

>  <ligand_id>  (8) 
7

>  <original_smiles>  (8) 
[H]c1c([H])c([H])c2c(c1[H])C([H])([H])C([H])([H])C([H])([H])C2([H])N([H])C(=O)C1([H])N(C(=O)C([H])(N([H])C(=O)C([H])(N([H])C([H])([H])[H])C([H])([H])[H])C(C([H])([H])[H])(C([H])([H])[H])C([H])([H])[H])C([H])([H])c2c([H])c(OC([H])([H])C([H])([H])[N+]([H])([H])C([H])([H])C3([H])N(C([H])(C([H])([H])[H])C4([H])N(C(=O)N5C([H])([H])C([H])([H])C([H])([H])C([H])(n6nc(-c7c([H])c([H])c(Oc8c([H])c([H])c(F)c([H])c8F)c([H])c7[H])c(C(=O)N([H])[H])c6N([H])[H])C5([H])[H])C([H])([H])C([H])([H])C4([H])[N+]([H])([H])C([H])([H])C([H])(C([H])([H])[H])C([H])([H])[H])C([H])([H])C3([H])[H])c([H])c([H])c2C1([H])[H]

>  <smiles>  (8) 
[H]c1c([H])c([H])c2c(c1[H])C([H])([H])C([H])([H])C([H])([H])C2([H])N([H])C(=O)C1([H])N(C(=O)C([H])(N([H])C(=O)C([H])(N([H])C([H])([H])[H])C([H])([H])[H])C(C([H])([H])[H])(C([H])([H])[H])C([H])([H])[H])C([H])([H])c2c([H])c(OC([H])([H])C([H])([H])[N+]([H])([H])C([H])([H])C3([H])N(C([H])(C([H])([H])[H])C4([H])N(C(=O)N5C([H])([H])C([H])([H])C([H])([H])C([H])(n6nc(-c7c([H])c([H])c(Oc8c([H])c([H])c(F)c([H])c8F)c([H])c7[H])c(C(=O)N([H])[H])c6N([H])[H])C5([H])[H])C([H])([H])C([H])([H])C4([H])[N+]([H])([H])C([H])([H])C([H])(C([H])([H])[H])C([H])([H])[H])C([H])([H])C3([H])[H])c([H])c([H])c2C1([H])[H]

$$$$
8:0:0
     RDKit          3D

 97106  0  0  1  0  0  0  0  0999 V2000
  -28.1680  -22.7050   20.7010 C   0  0  0  0  0  3  0  0  0  0  0  0
  -30.4340  -22.3940   21.4650 C   0  0  0  0  0  3  0  0  0  0  0  0
  -27.9400  -21.3460   20.9500 C   0  0  0  0  0  3  0  0  0  0  0  0
  -29.4490  -23.2460   20.9330 C   0  0  0  0  0  0  0  0  0  0  0  0
  -30.1160  -21.0390   21.6850 C   0  0  0  0  0  0  0  0  0  0  0  0
  -28.9040  -20.5160   21.3950 N   0  0  0  0  0  0  0  0  0  0  0  0
  -30.9620  -19.4640   23.5310 C   0  0  0  0  0  2  0  0  0  0  0  0
  -31.3850  -18.0020   23.4060 C   0  0  0  0  0  2  0  0  0  0  0  0
  -31.1650  -20.0300   22.1150 C   0  0  0  0  0  3  0  0  0  0  0  0
  -30.9950  -17.6310   21.9700 C   0  0  0  0  0  3  0  0  0  0  0  0
  -31.0720  -18.8880   21.2000 N   0  0  0  0  0  4  0  0  0  0  0  0
  -31.8430  -18.9180   20.5560 H   0  0  0  0  0  0  0  0  0  0  0  0
  -30.2050  -19.0460   20.7050 H   0  0  0  0  0  0  0  0  0  0  0  0
  -31.8770  -16.5150   21.3760 C   0  0  0  0  0  2  0  0  0  0  0  0
  -31.5050  -16.0820   19.9450 C   0  0  0  0  0  2  0  0  0  0  0  0
  -30.6940  -13.9990   18.9280 C   0  0  0  0  0  0  0  0  0  0  0  0
  -30.2140  -11.6710   18.2850 C   0  0  0  0  0  2  0  0  0  0  0  0
  -29.0740  -11.5670   17.2580 C   0  0  0  0  0  2  0  0  0  0  0  0
  -27.7080  -11.5120   17.9640 C   0  0  0  0  0  2  0  0  0  0  0  0
  -27.5390  -12.6280   19.0280 C   0  0  0  0  0  3  0  0  0  0  0  0
  -28.7740  -12.7140   19.9580 C   0  0  0  0  0  2  0  0  0  0  0  0
  -29.9850  -12.8560   19.1270 N   0  0  0  0  0  0  0  0  0  0  0  0
  -31.4930  -14.1420   18.0000 O   0  0  0  0  0  0  0  0  0  0  0  0
  -30.5920  -14.9350   19.8840 N   0  0  0  0  0  0  0  0  0  0  0  0
  -29.9600  -14.7600   20.6510 H   0  0  0  0  0  0  0  0  0  0  0  0
  -25.4400  -13.4050   20.3050 C   0  0  0  0  0  0  0  0  0  0  0  0
  -24.3940  -12.7140   20.8560 C   0  0  0  0  0  0  0  0  0  0  0  0
  -24.6700  -11.3310   20.6270 C   0  0  0  0  0  0  0  0  0  0  0  0
  -26.2960  -12.4480   19.7820 N   0  0  0  0  0  0  0  0  0  0  0  0
  -25.8450  -11.1890   20.0260 N   0  0  0  0  0  0  0  0  0  0  0  0
  -23.8550  -10.1380   20.8900 C   0  0  0  0  0  0  0  0  0  0  0  0
  -24.3050   -9.1060   21.7430 C   0  0  0  0  0  3  0  0  0  0  0  0
  -23.4940   -7.9790   21.9950 C   0  0  0  0  0  3  0  0  0  0  0  0
  -22.2160   -7.8760   21.3970 C   0  0  0  0  0  0  0  0  0  0  0  0
  -21.7810   -8.8950   20.5290 C   0  0  0  0  0  3  0  0  0  0  0  0
  -22.5920  -10.0140   20.2750 C   0  0  0  0  0  3  0  0  0  0  0  0
  -21.3700   -6.8060   21.5660 O   0  0  0  0  0  0  0  0  0  0  0  0
  -21.3160   -6.1100   22.7450 C   0  0  0  0  0  0  0  0  0  0  0  0
  -20.9870   -6.7380   23.9670 C   0  0  0  0  0  3  0  0  0  0  0  0
  -20.8750   -5.9720   25.1450 C   0  0  0  0  0  3  0  0  0  0  0  0
  -21.0810   -4.5810   25.1030 C   0  0  0  0  0  0  0  0  0  0  0  0
  -21.4050   -3.9530   23.8880 C   0  0  0  0  0  3  0  0  0  0  0  0
  -21.5170   -4.7160   22.7120 C   0  0  0  0  0  0  0  0  0  0  0  0
  -21.8080   -4.1020   21.5390 F   0  0  0  0  0  0  0  0  0  0  0  0
  -20.9670   -3.8440   26.2330 F   0  0  0  0  0  0  0  0  0  0  0  0
  -23.1610  -13.3040   21.4780 C   0  0  0  0  0  0  0  0  0  0  0  0
  -22.5840  -12.6250   22.4640 N   0  0  0  0  0  0  0  0  0  0  0  0
  -22.7280  -14.3990   21.1240 O   0  0  0  0  0  0  0  0  0  0  0  0
  -22.9470  -11.7360   22.7740 H   0  0  0  0  0  0  0  0  0  0  0  0
  -21.7620  -13.0030   22.9180 H   0  0  0  0  0  0  0  0  0  0  0  0
  -25.7280  -14.7620   20.1900 N   0  0  0  0  0  0  0  0  0  0  0  0
  -25.0990  -15.4830   20.5310 H   0  0  0  0  0  0  0  0  0  0  0  0
  -26.5340  -15.1380   19.7030 H   0  0  0  0  0  0  0  0  0  0  0  0
  -29.7820  -24.5590   20.6830 O   0  0  0  0  0  0  0  0  0  0  0  0
  -29.6940  -25.0010   19.3240 C   0  0  0  0  0  2  0  0  0  0  0  0
  -28.3600  -25.6990   19.0120 C   0  0  0  0  0  2  0  0  0  0  0  0
  -28.3160  -26.9960   19.5990 O   0  0  0  0  0  0  0  0  0  0  0  0
  -24.4850  -31.7890   23.1610 C   0  0  0  0  0  0  0  0  0  0  0  0
  -27.1010  -27.6410   19.6760 C   0  0  0  0  0  0  0  0  0  0  0  0
  -23.2400  -30.4540   21.4960 C   0  0  0  0  0  3  0  0  0  0  0  0
  -24.6590  -29.0600   19.9080 C   0  0  0  0  0  0  0  0  0  0  0  0
  -25.7420  -30.9060   21.1980 C   0  0  0  0  0  2  0  0  0  0  0  0
  -25.8310  -29.5800   20.4700 C   0  0  0  0  0  0  0  0  0  0  0  0
  -27.0450  -28.8710   20.3640 C   0  0  0  0  0  3  0  0  0  0  0  0
  -25.9070  -27.1400   19.0930 C   0  0  0  0  0  3  0  0  0  0  0  0
  -24.6930  -27.8360   19.2200 C   0  0  0  0  0  3  0  0  0  0  0  0
  -23.3930  -29.8710   20.0690 C   0  0  0  0  0  2  0  0  0  0  0  0
  -24.5110  -31.0580   22.0100 N   0  0  0  0  0  0  0  0  0  0  0  0
  -23.4250  -31.9920   23.7680 O   0  0  0  0  0  0  0  0  0  0  0  0
  -22.6730  -29.3490   22.4200 C   0  0  0  0  0  0  0  0  0  0  0  0
  -21.3700  -29.0610   22.2750 N   0  0  0  0  0  0  0  0  0  0  0  0
  -23.4030  -28.7530   23.2170 O   0  0  0  0  0  0  0  0  0  0  0  0
  -20.8350  -29.6090   21.6170 H   0  0  0  0  0  0  0  0  0  0  0  0
  -18.1260  -27.5130   22.6280 C   0  0  0  0  0  0  0  0  0  0  0  0
  -20.6270  -28.0350   23.0110 C   0  0  0  0  0  3  0  0  0  0  0  0
  -20.9040  -26.6270   22.4390 C   0  0  0  0  0  2  0  0  0  0  0  0
  -19.8850  -26.1950   21.3810 C   0  0  0  0  0  2  0  0  0  0  0  0
  -18.4700  -26.1920   21.9640 C   0  0  0  0  0  2  0  0  0  0  0  0
  -19.1390  -28.3870   23.1060 C   0  0  0  0  0  0  0  0  0  0  0  0
  -18.7650  -29.6200   23.6830 C   0  0  0  0  0  3  0  0  0  0  0  0
  -17.4100  -29.9790   23.7930 C   0  0  0  0  0  3  0  0  0  0  0  0
  -16.4100  -29.1020   23.3360 C   0  0  0  0  0  3  0  0  0  0  0  0
  -16.7700  -27.8730   22.7560 C   0  0  0  0  0  3  0  0  0  0  0  0
  -25.7810  -32.4250   23.7550 C   0  0  0  0  0  3  0  0  0  0  0  0
  -25.4670  -33.8130   24.1140 N   0  0  0  0  0  0  0  0  0  0  0  0
  -25.7720  -34.8810   23.3660 C   0  0  0  0  0  0  0  0  0  0  0  0
  -26.4220  -34.7980   22.3200 O   0  0  0  0  0  0  0  0  0  0  0  0
  -24.8910  -33.9480   24.9310 H   0  0  0  0  0  0  0  0  0  0  0  0
  -24.0180  -36.6620   23.0720 C   0  0  0  0  0  1  0  0  0  0  0  0
  -25.2780  -36.2580   23.8540 C   0  0  0  0  0  3  0  0  0  0  0  0
  -27.4170  -37.1540   24.6610 C   0  0  0  0  0  1  0  0  0  0  0  0
  -26.2970  -37.3220   23.7370 N   0  0  0  0  0  0  0  0  0  0  0  0
  -25.8840  -38.2340   23.9030 H   0  0  0  0  0  0  0  0  0  0  0  0
  -26.3450  -31.6370   25.0010 C   0  0  1  0  0  0  0  0  0  0  0  0
  -25.2830  -31.3610   26.0930 C   0  0  0  0  0  1  0  0  0  0  0  0
  -26.9400  -30.2780   24.5600 C   0  0  0  0  0  1  0  0  0  0  0  0
  -27.4970  -32.4390   25.6490 C   0  0  0  0  0  1  0  0  0  0  0  0
  1  4  2  0
  1  3  1  0
  2  5  2  0
  3  6  2  0
  4  2  1  0
  6  5  1  0
  8  7  1  0
  9  5  1  0
  9  7  1  0
 10 14  1  0
 10  8  1  0
 11 10  1  0
 11  9  1  0
 12 11  1  0
 13 11  1  0
 15 14  1  0
 16 22  1  0
 16 24  1  0
 17 22  1  0
 18 19  1  0
 18 17  1  0
 20 19  1  0
 20 29  1  0
 20 21  1  0
 22 21  1  0
 23 16  2  0
 24 15  1  0
 24 25  1  0
 26 27  2  0
 27 46  1  0
 28 27  1  0
 28 31  1  0
 29 30  1  0
 29 26  1  0
 30 28  2  0
 31 32  1  0
 32 33  2  0
 34 37  1  0
 34 33  1  0
 35 34  2  0
 36 35  1  0
 36 31  2  0
 37 38  1  0
 38 39  1  0
 39 40  2  0
 41 40  1  0
 41 45  1  0
 42 41  2  0
 43 38  2  0
 43 42  1  0
 44 43  1  0
 46 47  1  0
 47 49  1  0
 47 50  1  0
 48 46  2  0
 51 26  1  0
 51 52  1  0
 53 51  1  0
 54  4  1  0
 55 54  1  0
 56 55  1  0
 56 57  1  0
 57 59  1  0
 58 69  2  0
 59 64  1  0
 60 68  1  0
 60 70  1  0
 61 67  1  0
 61 63  1  0
 62 68  1  0
 63 62  1  0
 64 63  2  0
 65 66  1  0
 65 59  2  0
 66 61  2  0
 67 60  1  0
 68 58  1  0
 70 72  2  0
 71 70  1  0
 73 71  1  0
 74 83  2  0
 74 79  1  0
 75 71  1  0
 75 79  1  0
 76 75  1  0
 77 78  1  0
 77 76  1  0
 78 74  1  0
 79 80  2  0
 80 81  1  0
 82 81  2  0
 83 82  1  0
 84 58  1  0
 84 85  1  0
 84 94  1  0
 85 88  1  0
 86 90  1  0
 86 85  1  0
 87 86  2  0
 90 89  1  0
 92 90  1  0
 92 93  1  0
 92 91  1  0
 94 97  1  1
 94 95  1  0
 96 94  1  0
M  ISO  4  16 100  24 100  56 101  57 101
M  END
>  <TORSDO>  (9) 
F 22

>  <SCORE>  (9) 
-9.855

>  <name>  (9) 
8

>  <ligand_id>  (9) 
8

>  <original_smiles>  (9) 
[H]c1nc(C2([H])C([H])([H])C([H])([H])C([H])(C([H])([H])C([H])([H])N([H])C(=O)N3C([H])([H])C([H])([H])C([H])([H])C([H])(n4nc(-c5c([H])c([H])c(Oc6c([H])c([H])c(F)c([H])c6F)c([H])c5[H])c(C(=O)N([H])[H])c4N([H])[H])C3([H])[H])[N+]2([H])[H])c([H])c(OC([H])([H])C([H])([H])Oc2c([H])c([H])c3c(c2[H])C([H])([H])N(C(=O)C([H])(N([H])C(=O)C([H])(N([H])C([H])([H])[H])C([H])([H])[H])C(C([H])([H])[H])(C([H])([H])[H])C([H])([H])[H])C([H])(C(=O)N([H])C2([H])c4c([H])c([H])c([H])c([H])c4C([H])([H])C([H])([H])C2([H])[H])C3([H])[H])c1[H]

>  <smiles>  (9) 
[H]c1nc(C2([H])C([H])([H])C([H])([H])C([H])(C([H])([H])C([H])([H])N([H])C(=O)N3C([H])([H])C([H])([H])C([H])([H])C([H])(n4nc(-c5c([H])c([H])c(Oc6c([H])c([H])c(F)c([H])c6F)c([H])c5[H])c(C(=O)N([H])[H])c4N([H])[H])C3([H])[H])[N+]2([H])[H])c([H])c(OC([H])([H])C([H])([H])Oc2c([H])c([H])c3c(c2[H])C([H])([H])N(C(=O)C([H])(N([H])C(=O)C([H])(N([H])C([H])([H])[H])C([H])([H])[H])C(C([H])([H])[H])(C([H])([H])[H])C([H])([H])[H])C([H])(C(=O)N([H])C2([H])c4c([H])c([H])c([H])c([H])c4C([H])([H])C([H])([H])C2([H])[H])C3([H])[H])c1[H]

$$$$
9:0:0
     RDKit          3D

 92101  0  0  1  0  0  0  0  0999 V2000
  -29.9610  -23.5370   20.3340 C   0  0  0  0  0  3  0  0  0  0  0  0
  -27.9090  -22.9610   19.2300 C   0  0  0  0  0  3  0  0  0  0  0  0
  -28.7860  -23.9780   19.6790 C   0  0  0  0  0  0  0  0  0  0  0  0
  -30.3000  -22.1540   20.4350 C   0  0  0  0  0  0  0  0  0  0  0  0
  -28.2290  -21.5730   19.3220 C   0  0  0  0  0  0  0  0  0  0  0  0
  -29.4670  -21.1330   19.8790 C   0  0  0  0  0  0  0  0  0  0  0  0
  -31.6360  -21.8070   21.0650 C   0  0  0  0  0  1  0  0  0  0  0  0
  -27.2590  -20.5770   18.7110 C   0  0  0  0  0  1  0  0  0  0  0  0
  -30.0180  -19.6730   19.6330 C   0  0  0  0  0  2  0  0  0  0  0  0
  -30.3430  -17.9670   21.6720 C   0  0  0  0  0  2  0  0  0  0  0  0
  -29.5850  -18.4080   20.4470 C   0  0  0  0  0  3  0  0  0  0  0  0
  -30.4850  -17.1130   20.4290 C   0  0  0  0  0  3  0  0  0  0  0  0
  -30.7140  -14.6100   20.1120 C   0  0  0  0  0  0  0  0  0  0  0  0
  -30.3890  -12.4160   19.0010 C   0  0  0  0  0  2  0  0  0  0  0  0
  -29.4040  -12.5960   17.8270 C   0  0  0  0  0  2  0  0  0  0  0  0
  -27.9480  -12.4440   18.3110 C   0  0  0  0  0  2  0  0  0  0  0  0
  -27.6520  -13.2810   19.5850 C   0  0  0  0  0  3  0  0  0  0  0  0
  -28.7520  -13.0990   20.6530 C   0  0  0  0  0  2  0  0  0  0  0  0
  -30.0410  -13.4220   20.0260 N   0  0  0  0  0  0  0  0  0  0  0  0
  -31.8620  -14.7210   19.6720 O   0  0  0  0  0  0  0  0  0  0  0  0
  -30.0150  -15.7180   20.5150 N   0  0  0  0  0  0  0  0  0  0  0  0
  -29.0680  -15.5600   20.8230 H   0  0  0  0  0  0  0  0  0  0  0  0
  -25.2910  -13.8830   20.3990 C   0  0  0  0  0  0  0  0  0  0  0  0
  -24.2390  -13.1100   20.8070 C   0  0  0  0  0  0  0  0  0  0  0  0
  -24.6960  -11.7570   20.7490 C   0  0  0  0  0  0  0  0  0  0  0  0
  -26.3230  -13.0010   20.1190 N   0  0  0  0  0  0  0  0  0  0  0  0
  -25.9710  -11.7170   20.3900 N   0  0  0  0  0  0  0  0  0  0  0  0
  -23.9730  -10.4950   20.9590 C   0  0  0  0  0  0  0  0  0  0  0  0
  -24.4270   -9.5310   21.8860 C   0  0  0  0  0  3  0  0  0  0  0  0
  -23.7060   -8.3340   22.0840 C   0  0  0  0  0  3  0  0  0  0  0  0
  -22.5150   -8.0930   21.3590 C   0  0  0  0  0  0  0  0  0  0  0  0
  -22.0790   -9.0470   20.4200 C   0  0  0  0  0  3  0  0  0  0  0  0
  -22.8020  -10.2340   20.2200 C   0  0  0  0  0  3  0  0  0  0  0  0
  -21.7620   -6.9490   21.4670 O   0  0  0  0  0  0  0  0  0  0  0  0
  -21.7270   -6.2180   22.6270 C   0  0  0  0  0  0  0  0  0  0  0  0
  -21.3090   -6.7830   23.8520 C   0  0  0  0  0  3  0  0  0  0  0  0
  -21.2230   -5.9780   25.0060 C   0  0  0  0  0  3  0  0  0  0  0  0
  -21.5420   -4.6090   24.9340 C   0  0  0  0  0  0  0  0  0  0  0  0
  -21.9500   -4.0420   23.7140 C   0  0  0  0  0  3  0  0  0  0  0  0
  -22.0390   -4.8440   22.5630 C   0  0  0  0  0  0  0  0  0  0  0  0
  -22.4140   -4.2900   21.3840 F   0  0  0  0  0  0  0  0  0  0  0  0
  -21.4510   -3.8330   26.0400 F   0  0  0  0  0  0  0  0  0  0  0  0
  -22.8530  -13.5870   21.1360 C   0  0  0  0  0  0  0  0  0  0  0  0
  -22.1590  -12.8870   22.0260 N   0  0  0  0  0  0  0  0  0  0  0  0
  -22.3970  -14.6150   20.6370 O   0  0  0  0  0  0  0  0  0  0  0  0
  -22.5410  -12.0530   22.4490 H   0  0  0  0  0  0  0  0  0  0  0  0
  -21.2300  -13.1850   22.2860 H   0  0  0  0  0  0  0  0  0  0  0  0
  -25.4540  -15.2540   20.2230 N   0  0  0  0  0  0  0  0  0  0  0  0
  -24.6970  -15.9130   20.3680 H   0  0  0  0  0  0  0  0  0  0  0  0
  -26.2890  -15.6900   19.8520 H   0  0  0  0  0  0  0  0  0  0  0  0
  -28.6010  -25.4670   19.2220 C   0  0  0  0  0  2  0  0  0  0  0  0
  -28.3790  -26.5390   20.1950 O   0  0  0  0  0  0  0  0  0  0  0  0
  -24.6110  -31.8540   23.2300 C   0  0  0  0  0  0  0  0  0  0  0  0
  -27.2290  -27.3340   20.1440 C   0  0  0  0  0  0  0  0  0  0  0  0
  -23.4020  -30.4580   21.5920 C   0  0  0  0  0  3  0  0  0  0  0  0
  -24.8480  -28.9120   20.1590 C   0  0  0  0  0  0  0  0  0  0  0  0
  -25.9360  -30.7860   21.3970 C   0  0  0  0  0  2  0  0  0  0  0  0
  -26.0160  -29.4110   20.7510 C   0  0  0  0  0  0  0  0  0  0  0  0
  -27.2040  -28.6290   20.7410 C   0  0  0  0  0  3  0  0  0  0  0  0
  -26.0290  -26.8660   19.5610 C   0  0  0  0  0  3  0  0  0  0  0  0
  -24.8540  -27.6420   19.5620 C   0  0  0  0  0  3  0  0  0  0  0  0
  -23.6090  -29.7820   20.2110 C   0  0  0  0  0  2  0  0  0  0  0  0
  -24.6700  -31.0490   22.1300 N   0  0  0  0  0  0  0  0  0  0  0  0
  -23.5290  -32.1300   23.7700 O   0  0  0  0  0  0  0  0  0  0  0  0
  -22.7460  -29.4380   22.5510 C   0  0  0  0  0  0  0  0  0  0  0  0
  -21.4180  -29.2640   22.4320 N   0  0  0  0  0  0  0  0  0  0  0  0
  -23.4280  -28.8040   23.3620 O   0  0  0  0  0  0  0  0  0  0  0  0
  -20.9270  -29.8260   21.7490 H   0  0  0  0  0  0  0  0  0  0  0  0
  -18.0410  -28.0860   22.9510 C   0  0  0  0  0  0  0  0  0  0  0  0
  -20.6020  -28.3290   23.2050 C   0  0  0  0  0  3  0  0  0  0  0  0
  -20.6920  -26.9000   22.6230 C   0  0  0  0  0  2  0  0  0  0  0  0
  -19.5820  -26.5870   21.6150 C   0  0  0  0  0  2  0  0  0  0  0  0
  -18.2050  -26.7370   22.2690 C   0  0  0  0  0  2  0  0  0  0  0  0
  -19.1660  -28.8390   23.3760 C   0  0  0  0  0  0  0  0  0  0  0  0
  -18.9590  -30.1020   23.9730 C   0  0  0  0  0  3  0  0  0  0  0  0
  -17.6580  -30.6090   24.1500 C   0  0  0  0  0  3  0  0  0  0  0  0
  -16.5470  -29.8520   23.7420 C   0  0  0  0  0  3  0  0  0  0  0  0
  -16.7390  -28.5920   23.1470 C   0  0  0  0  0  3  0  0  0  0  0  0
  -25.8960  -32.4860   23.8490 C   0  0  0  0  0  3  0  0  0  0  0  0
  -26.4150  -31.7160   25.1250 C   0  0  1  0  0  0  0  0  0  0  0  0
  -25.3230  -31.4790   26.1940 C   0  0  0  0  0  1  0  0  0  0  0  0
  -26.9960  -30.3380   24.7330 C   0  0  0  0  0  1  0  0  0  0  0  0
  -27.5670  -32.5090   25.7840 C   0  0  0  0  0  1  0  0  0  0  0  0
  -25.5880  -33.8840   24.1790 N   0  0  0  0  0  0  0  0  0  0  0  0
  -25.9180  -34.9380   23.4190 C   0  0  0  0  0  0  0  0  0  0  0  0
  -26.5840  -34.8340   22.3850 O   0  0  0  0  0  0  0  0  0  0  0  0
  -24.9970  -34.0390   24.9820 H   0  0  0  0  0  0  0  0  0  0  0  0
  -24.1890  -36.7310   23.0680 C   0  0  0  0  0  1  0  0  0  0  0  0
  -25.4320  -36.3260   23.8780 C   0  0  0  0  0  3  0  0  0  0  0  0
  -27.5670  -37.2110   24.7050 C   0  0  0  0  0  1  0  0  0  0  0  0
  -26.4640  -37.3800   23.7620 N   0  0  0  0  0  0  0  0  0  0  0  0
  -26.0590  -38.3000   23.9110 H   0  0  0  0  0  0  0  0  0  0  0  0
  1  4  1  0
  2  5  2  0
  2  3  1  0
  3  1  2  0
  4  7  1  0
  5  6  1  0
  6  4  2  0
  8  5  1  0
  9  6  1  0
 11  9  1  0
 11 10  1  0
 12 11  1  0
 12 21  1  0
 12 10  1  0
 13 21  1  0
 14 19  1  0
 15 16  1  0
 15 14  1  0
 17 16  1  0
 17 26  1  0
 17 18  1  0
 19 13  1  0
 19 18  1  0
 20 13  2  0
 21 22  1  0
 23 24  2  0
 24 43  1  0
 25 24  1  0
 25 28  1  0
 26 27  1  0
 26 23  1  0
 27 25  2  0
 28 29  1  0
 29 30  2  0
 31 34  1  0
 31 30  1  0
 32 31  2  0
 33 32  1  0
 33 28  2  0
 34 35  1  0
 35 36  1  0
 36 37  2  0
 38 37  1  0
 38 42  1  0
 39 38  2  0
 40 35  2  0
 40 39  1  0
 41 40  1  0
 43 44  1  0
 44 47  1  0
 44 46  1  0
 45 43  2  0
 48 49  1  0
 48 23  1  0
 50 48  1  0
 51  3  1  0
 51 52  1  0
 53 64  2  0
 54 52  1  0
 54 59  1  0
 55 63  1  0
 55 65  1  0
 56 62  1  0
 56 58  1  0
 57 63  1  0
 58 57  1  0
 59 58  2  0
 60 61  1  0
 60 54  2  0
 61 56  2  0
 62 55  1  0
 63 53  1  0
 65 67  2  0
 66 65  1  0
 68 66  1  0
 69 78  2  0
 69 74  1  0
 70 66  1  0
 70 74  1  0
 71 70  1  0
 72 73  1  0
 72 71  1  0
 73 69  1  0
 74 75  2  0
 75 76  1  0
 77 76  2  0
 78 77  1  0
 79 53  1  0
 79 84  1  0
 79 80  1  0
 80 83  1  1
 80 81  1  0
 82 80  1  0
 84 87  1  0
 85 89  1  0
 85 84  1  0
 86 85  2  0
 89 88  1  0
 91 89  1  0
 91 92  1  0
 91 90  1  0
M  ISO  4  13 100  21 100  51 101  52 101
M  END
>  <TORSDO>  (10) 
F 19

>  <SCORE>  (10) 
-14.208

>  <name>  (10) 
9

>  <ligand_id>  (10) 
9

>  <original_smiles>  (10) 
[H]c1c([H])c([H])c2c(c1[H])C([H])([H])C([H])([H])C([H])([H])C2([H])N([H])C(=O)C1([H])N(C(=O)C([H])(N([H])C(=O)C([H])(N([H])C([H])([H])[H])C([H])([H])[H])C(C([H])([H])[H])(C([H])([H])[H])C([H])([H])[H])C([H])([H])c2c([H])c(OC([H])([H])c3c([H])c(C([H])([H])[H])c(C([H])([H])C4([H])C([H])([H])C4([H])N([H])C(=O)N4C([H])([H])C([H])([H])C([H])([H])C([H])(n5nc(-c6c([H])c([H])c(Oc7c([H])c([H])c(F)c([H])c7F)c([H])c6[H])c(C(=O)N([H])[H])c5N([H])[H])C4([H])[H])c(C([H])([H])[H])c3[H])c([H])c([H])c2C1([H])[H]

>  <smiles>  (10) 
[H]c1c([H])c([H])c2c(c1[H])C([H])([H])C([H])([H])C([H])([H])C2([H])N([H])C(=O)C1([H])N(C(=O)C([H])(N([H])C(=O)C([H])(N([H])C([H])([H])[H])C([H])([H])[H])C(C([H])([H])[H])(C([H])([H])[H])C([H])([H])[H])C([H])([H])c2c([H])c(OC([H])([H])c3c([H])c(C([H])([H])[H])c(C([H])([H])C4([H])C([H])([H])C4([H])N([H])C(=O)N4C([H])([H])C([H])([H])C([H])([H])C([H])(n5nc(-c6c([H])c([H])c(Oc7c([H])c([H])c(F)c([H])c7F)c([H])c6[H])c(C(=O)N([H])[H])c5N([H])[H])C4([H])[H])c(C([H])([H])[H])c3[H])c([H])c([H])c2C1([H])[H]

$$$$
10:0:0
     RDKit          3D

 97107  0  0  1  0  0  0  0  0999 V2000
  -29.1840  -20.5260   20.2420 C   0  0  0  0  0  2  0  0  0  0  0  0
  -30.7580  -17.9910   22.2690 C   0  0  0  0  0  2  0  0  0  0  0  0
  -29.5270  -17.9410   20.2240 C   0  0  0  0  0  3  0  0  0  0  0  0
  -30.5280  -17.1160   21.0430 C   0  0  0  0  0  3  0  0  0  0  0  0
  -30.1500  -19.3430   20.3850 C   0  0  0  0  0  3  0  0  0  0  0  0
  -30.8020  -19.3550   21.7190 N   0  0  0  0  0  4  0  0  0  0  0  0
  -31.7570  -19.6640   21.6220 H   0  0  0  0  0  0  0  0  0  0  0  0
  -30.3360  -19.9920   22.3470 H   0  0  0  0  0  0  0  0  0  0  0  0
  -30.9230  -14.6840   21.1750 C   0  0  0  0  0  0  0  0  0  0  0  0
  -30.7870  -12.4480   20.1950 C   0  0  0  0  0  2  0  0  0  0  0  0
  -30.0060  -12.5770   18.8720 C   0  0  0  0  0  2  0  0  0  0  0  0
  -28.4890  -12.4470   19.1230 C   0  0  0  0  0  2  0  0  0  0  0  0
  -27.9890  -13.3400   20.2910 C   0  0  0  0  0  3  0  0  0  0  0  0
  -28.9070  -13.2190   21.5280 C   0  0  0  0  0  2  0  0  0  0  0  0
  -30.2860  -13.4920   21.0960 N   0  0  0  0  0  0  0  0  0  0  0  0
  -32.1130  -14.8360   20.8820 O   0  0  0  0  0  0  0  0  0  0  0  0
  -30.1240  -15.7440   21.3600 N   0  0  0  0  0  0  0  0  0  0  0  0
  -29.1560  -15.5630   21.5780 H   0  0  0  0  0  0  0  0  0  0  0  0
  -25.5150  -13.9230   20.7000 C   0  0  0  0  0  0  0  0  0  0  0  0
  -24.4270  -13.1400   20.9770 C   0  0  0  0  0  0  0  0  0  0  0  0
  -24.9140  -11.7980   21.0500 C   0  0  0  0  0  0  0  0  0  0  0  0
  -26.5960  -13.0570   20.6230 N   0  0  0  0  0  0  0  0  0  0  0  0
  -26.2320  -11.7780   20.8890 N   0  0  0  0  0  0  0  0  0  0  0  0
  -24.1970  -10.5280   21.2070 C   0  0  0  0  0  0  0  0  0  0  0  0
  -24.5730   -9.5830   22.1880 C   0  0  0  0  0  3  0  0  0  0  0  0
  -23.8540   -8.3760   22.3300 C   0  0  0  0  0  3  0  0  0  0  0  0
  -22.7480   -8.1060   21.4890 C   0  0  0  0  0  0  0  0  0  0  0  0
  -22.3950   -9.0390   20.4980 C   0  0  0  0  0  3  0  0  0  0  0  0
  -23.1150  -10.2370   20.3540 C   0  0  0  0  0  3  0  0  0  0  0  0
  -22.0070   -6.9500   21.5390 O   0  0  0  0  0  0  0  0  0  0  0  0
  -21.9050   -6.2080   22.6880 C   0  0  0  0  0  0  0  0  0  0  0  0
  -21.3370   -6.7380   23.8690 C   0  0  0  0  0  3  0  0  0  0  0  0
  -21.1880   -5.9200   25.0050 C   0  0  0  0  0  3  0  0  0  0  0  0
  -21.5970   -4.5730   24.9630 C   0  0  0  0  0  0  0  0  0  0  0  0
  -22.1570   -4.0430   23.7880 C   0  0  0  0  0  3  0  0  0  0  0  0
  -22.3080   -4.8580   22.6530 C   0  0  0  0  0  0  0  0  0  0  0  0
  -22.8290   -4.3390   21.5150 F   0  0  0  0  0  0  0  0  0  0  0  0
  -21.4480   -3.7830   26.0520 F   0  0  0  0  0  0  0  0  0  0  0  0
  -23.0000  -13.5920   21.0750 C   0  0  0  0  0  0  0  0  0  0  0  0
  -22.1950  -12.9120   21.8830 N   0  0  0  0  0  0  0  0  0  0  0  0
  -22.6000  -14.5860   20.4700 O   0  0  0  0  0  0  0  0  0  0  0  0
  -22.5310  -12.1090   22.3940 H   0  0  0  0  0  0  0  0  0  0  0  0
  -21.2310  -13.1970   21.9920 H   0  0  0  0  0  0  0  0  0  0  0  0
  -25.6710  -15.2900   20.4950 N   0  0  0  0  0  0  0  0  0  0  0  0
  -24.8830  -15.9270   20.5020 H   0  0  0  0  0  0  0  0  0  0  0  0
  -26.5390  -15.7390   20.2400 H   0  0  0  0  0  0  0  0  0  0  0  0
  -28.2030  -16.7010   18.2960 C   0  0  0  0  0  2  0  0  0  0  0  0
  -28.4290  -18.1090   17.8000 C   0  0  0  0  0  2  0  0  0  0  0  0
  -29.4050  -17.4830   18.7740 C   0  0  0  0  0  3  0  0  0  0  0  0
  -29.9990  -21.6900   20.2350 O   0  0  0  0  0  0  0  0  0  0  0  0
  -29.6200  -25.2110   21.3140 C   0  0  0  0  0  2  0  0  0  0  0  0
  -28.8520  -25.0380   18.8890 C   0  0  0  0  0  2  0  0  0  0  0  0
  -29.6950  -23.6820   21.4890 C   0  0  0  0  0  2  0  0  0  0  0  0
  -29.6040  -23.6900   18.9420 C   0  0  0  0  0  2  0  0  0  0  0  0
  -28.5530  -25.6210   20.2890 C   0  0  0  0  0  3  0  0  0  0  0  0
  -29.2760  -22.9080   20.2250 C   0  0  0  0  0  3  0  0  0  0  0  0
  -28.5500  -27.0410   20.2380 O   0  0  0  0  0  0  0  0  0  0  0  0
  -24.7220  -32.0750   23.4220 C   0  0  0  0  0  0  0  0  0  0  0  0
  -27.3480  -27.7080   20.2470 C   0  0  0  0  0  0  0  0  0  0  0  0
  -23.5050  -30.7110   21.7520 C   0  0  0  0  0  3  0  0  0  0  0  0
  -24.9490  -29.1940   20.2990 C   0  0  0  0  0  0  0  0  0  0  0  0
  -26.0290  -31.0680   21.5580 C   0  0  0  0  0  2  0  0  0  0  0  0
  -26.1070  -29.7130   20.8880 C   0  0  0  0  0  0  0  0  0  0  0  0
  -27.3090  -28.9790   20.8550 C   0  0  0  0  0  3  0  0  0  0  0  0
  -26.1700  -27.1900   19.6610 C   0  0  0  0  0  3  0  0  0  0  0  0
  -24.9740  -27.9310   19.6840 C   0  0  0  0  0  3  0  0  0  0  0  0
  -23.7100  -30.0540   20.3610 C   0  0  0  0  0  2  0  0  0  0  0  0
  -24.7690  -31.2960   22.3040 N   0  0  0  0  0  0  0  0  0  0  0  0
  -23.6430  -32.3420   23.9700 O   0  0  0  0  0  0  0  0  0  0  0  0
  -22.8500  -29.6750   22.6930 C   0  0  0  0  0  0  0  0  0  0  0  0
  -21.5350  -29.4640   22.5260 N   0  0  0  0  0  0  0  0  0  0  0  0
  -23.5240  -29.0640   23.5280 O   0  0  0  0  0  0  0  0  0  0  0  0
  -21.0560  -30.0090   21.8250 H   0  0  0  0  0  0  0  0  0  0  0  0
  -18.1710  -28.2070   22.9290 C   0  0  0  0  0  0  0  0  0  0  0  0
  -20.7150  -28.5100   23.2720 C   0  0  0  0  0  3  0  0  0  0  0  0
  -20.8600  -27.0810   22.6960 C   0  0  0  0  0  2  0  0  0  0  0  0
  -19.7920  -26.7410   21.6530 C   0  0  0  0  0  2  0  0  0  0  0  0
  -18.3910  -26.8620   22.2580 C   0  0  0  0  0  2  0  0  0  0  0  0
  -19.2640  -28.9880   23.3900 C   0  0  0  0  0  0  0  0  0  0  0  0
  -19.0060  -30.2490   23.9720 C   0  0  0  0  0  3  0  0  0  0  0  0
  -17.6880  -30.7250   24.1020 C   0  0  0  0  0  3  0  0  0  0  0  0
  -16.6100  -29.9390   23.6590 C   0  0  0  0  0  3  0  0  0  0  0  0
  -16.8530  -28.6830   23.0760 C   0  0  0  0  0  3  0  0  0  0  0  0
  -26.0150  -32.6840   24.0510 C   0  0  0  0  0  3  0  0  0  0  0  0
  -26.5090  -31.9100   25.3340 C   0  0  1  0  0  0  0  0  0  0  0  0
  -25.3910  -31.6440   26.3700 C   0  0  0  0  0  1  0  0  0  0  0  0
  -27.1240  -30.5450   24.9480 C   0  0  0  0  0  1  0  0  0  0  0  0
  -27.6300  -32.7170   26.0340 C   0  0  0  0  0  1  0  0  0  0  0  0
  -25.7310  -34.0900   24.3670 N   0  0  0  0  0  0  0  0  0  0  0  0
  -26.0710  -35.1270   23.5890 C   0  0  0  0  0  0  0  0  0  0  0  0
  -26.7290  -35.0020   22.5520 O   0  0  0  0  0  0  0  0  0  0  0  0
  -25.1510  -34.2660   25.1740 H   0  0  0  0  0  0  0  0  0  0  0  0
  -24.3540  -36.9310   23.2390 C   0  0  0  0  0  1  0  0  0  0  0  0
  -25.6060  -36.5270   24.0350 C   0  0  0  0  0  3  0  0  0  0  0  0
  -27.7550  -37.4070   24.8270 C   0  0  0  0  0  1  0  0  0  0  0  0
  -26.6460  -37.5680   23.8910 N   0  0  0  0  0  0  0  0  0  0  0  0
  -26.2480  -38.4930   24.0290 H   0  0  0  0  0  0  0  0  0  0  0  0
  3 49  1  0
  3  5  1  0
  3  4  1  0
  4 17  1  0
  4  2  1  0
  5  1  1  0
  5  6  1  0
  6  2  1  0
  6  8  1  0
  7  6  1  0
  9 17  1  0
 10 15  1  0
 11 12  1  0
 11 10  1  0
 13 12  1  0
 13 22  1  0
 13 14  1  0
 15  9  1  0
 15 14  1  0
 16  9  2  0
 17 18  1  0
 19 20  2  0
 20 21  1  0
 20 39  1  0
 21 24  1  0
 22 19  1  0
 22 23  1  0
 23 21  2  0
 24 25  1  0
 25 26  2  0
 27 30  1  0
 27 26  1  0
 28 27  2  0
 29 28  1  0
 29 24  2  0
 30 31  1  0
 31 32  1  0
 32 33  2  0
 34 33  1  0
 34 38  1  0
 35 34  2  0
 36 31  2  0
 36 35  1  0
 37 36  1  0
 39 40  1  0
 40 43  1  0
 40 42  1  0
 41 39  2  0
 44 45  1  0
 44 19  1  0
 46 44  1  0
 47 49  1  0
 48 47  1  0
 48 49  1  0
 50  1  1  0
 51 53  1  0
 52 54  1  0
 52 55  1  0
 54 56  1  0
 55 57  1  0
 55 51  1  0
 56 50  1  0
 56 53  1  0
 57 59  1  0
 58 69  2  0
 59 64  1  0
 60 68  1  0
 60 70  1  0
 61 67  1  0
 61 63  1  0
 62 68  1  0
 63 62  1  0
 64 63  2  0
 65 66  1  0
 65 59  2  0
 66 61  2  0
 67 60  1  0
 68 58  1  0
 70 72  2  0
 71 70  1  0
 73 71  1  0
 74 83  2  0
 74 79  1  0
 75 71  1  0
 75 79  1  0
 76 75  1  0
 77 78  1  0
 77 76  1  0
 78 74  1  0
 79 80  2  0
 80 81  1  0
 82 81  2  0
 83 82  1  0
 84 58  1  0
 84 89  1  0
 84 85  1  0
 85 88  1  1
 85 86  1  0
 87 85  1  0
 89 92  1  0
 90 94  1  0
 90 89  1  0
 91 90  2  0
 94 93  1  0
 96 97  1  0
 96 94  1  0
 96 95  1  0
M  ISO  4   9 100  17 100  55 101  57 101
M  END
>  <TORSDO>  (11) 
F 20

>  <SCORE>  (11) 
-13.345

>  <name>  (11) 
10

>  <ligand_id>  (11) 
10

>  <original_smiles>  (11) 
[H]c1c([H])c([H])c2c(c1[H])C([H])([H])C([H])([H])C([H])([H])C2([H])N([H])C(=O)C1([H])N(C(=O)C([H])(N([H])C(=O)C([H])(N([H])C([H])([H])[H])C([H])([H])[H])C(C([H])([H])[H])(C([H])([H])[H])C([H])([H])[H])C([H])([H])c2c([H])c(OC3([H])C([H])([H])C([H])([H])C([H])(OC([H])([H])C4([H])C([H])(C5([H])C([H])([H])C5([H])[H])C([H])(N([H])C(=O)N5C([H])([H])C([H])([H])C([H])([H])C([H])(n6nc(-c7c([H])c([H])c(Oc8c([H])c([H])c(F)c([H])c8F)c([H])c7[H])c(C(=O)N([H])[H])c6N([H])[H])C5([H])[H])C([H])([H])[N+]4([H])[H])C([H])([H])C3([H])[H])c([H])c([H])c2C1([H])[H]

>  <smiles>  (11) 
[H]c1c([H])c([H])c2c(c1[H])C([H])([H])C([H])([H])C([H])([H])C2([H])N([H])C(=O)C1([H])N(C(=O)C([H])(N([H])C(=O)C([H])(N([H])C([H])([H])[H])C([H])([H])[H])C(C([H])([H])[H])(C([H])([H])[H])C([H])([H])[H])C([H])([H])c2c([H])c(OC3([H])C([H])([H])C([H])([H])C([H])(OC([H])([H])C4([H])C([H])(C5([H])C([H])([H])C5([H])[H])C([H])(N([H])C(=O)N5C([H])([H])C([H])([H])C([H])([H])C([H])(n6nc(-c7c([H])c([H])c(Oc8c([H])c([H])c(F)c([H])c8F)c([H])c7[H])c(C(=O)N([H])[H])c6N([H])[H])C5([H])[H])C([H])([H])[N+]4([H])[H])C([H])([H])C3([H])[H])c([H])c([H])c2C1([H])[H]

$$$$
11:0:0
     RDKit          3D

 96105  0  0  1  0  0  0  0  0999 V2000
  -29.9750  -23.0000   21.0270 C   0  0  0  0  0  3  0  0  0  0  0  0
  -30.3230  -21.6810   21.3760 C   0  0  0  0  0  3  0  0  0  0  0  0
  -31.0340  -21.2800   19.0930 C   0  0  0  0  0  3  0  0  0  0  0  0
  -30.1650  -23.4870   19.7160 C   0  0  0  0  0  0  0  0  0  0  0  0
  -30.7000  -22.6050   18.7390 C   0  0  0  0  0  0  0  0  0  0  0  0
  -30.8570  -20.8010   20.4060 C   0  0  0  0  0  0  0  0  0  0  0  0
  -30.9250  -23.0500   17.3020 C   0  0  0  0  0  1  0  0  0  0  0  0
  -28.7890  -25.2330   18.3340 C   0  0  0  0  0  2  0  0  0  0  0  0
  -28.4360  -25.4360   19.7790 C   0  0  0  0  0  3  0  0  0  0  0  0
  -29.8300  -24.9330   19.4150 C   0  0  1  0  0  0  0  0  0  0  0  0
  -31.1450  -27.0770   18.7360 C   0  0  0  0  0  1  0  0  0  0  0  0
  -31.3950  -26.1270   21.0720 C   0  0  0  0  0  1  0  0  0  0  0  0
  -31.0990  -25.8000   19.5950 C   0  0  0  0  0  3  0  0  0  0  0  0
  -28.3940  -26.8010   20.1800 O   0  0  0  0  0  0  0  0  0  0  0  0
  -24.5490  -31.8970   23.2260 C   0  0  0  0  0  0  0  0  0  0  0  0
  -27.1900  -27.4640   20.1560 C   0  0  0  0  0  0  0  0  0  0  0  0
  -23.3340  -30.4880   21.5940 C   0  0  0  0  0  3  0  0  0  0  0  0
  -24.7830  -28.9440   20.1720 C   0  0  0  0  0  0  0  0  0  0  0  0
  -25.8540  -30.8560   21.3780 C   0  0  0  0  0  2  0  0  0  0  0  0
  -25.9390  -29.4810   20.7500 C   0  0  0  0  0  0  0  0  0  0  0  0
  -27.1410  -28.7460   20.7400 C   0  0  0  0  0  3  0  0  0  0  0  0
  -26.0150  -26.9300   19.5760 C   0  0  0  0  0  3  0  0  0  0  0  0
  -24.8140  -27.6670   19.5850 C   0  0  0  0  0  3  0  0  0  0  0  0
  -23.5370  -29.7990   20.2180 C   0  0  0  0  0  2  0  0  0  0  0  0
  -24.5970  -31.0940   22.1250 N   0  0  0  0  0  0  0  0  0  0  0  0
  -23.4700  -32.1710   23.7710 O   0  0  0  0  0  0  0  0  0  0  0  0
  -22.6890  -29.4700   22.5630 C   0  0  0  0  0  0  0  0  0  0  0  0
  -21.3650  -29.2850   22.4420 N   0  0  0  0  0  0  0  0  0  0  0  0
  -23.3780  -28.8480   23.3760 O   0  0  0  0  0  0  0  0  0  0  0  0
  -20.8720  -29.8400   21.7550 H   0  0  0  0  0  0  0  0  0  0  0  0
  -17.9940  -28.0970   22.9530 C   0  0  0  0  0  0  0  0  0  0  0  0
  -20.5520  -28.3520   23.2190 C   0  0  0  0  0  3  0  0  0  0  0  0
  -20.6520  -26.9180   22.6480 C   0  0  0  0  0  2  0  0  0  0  0  0
  -19.5480  -26.5940   21.6370 C   0  0  0  0  0  2  0  0  0  0  0  0
  -18.1670  -26.7440   22.2840 C   0  0  0  0  0  2  0  0  0  0  0  0
  -19.1140  -28.8590   23.3780 C   0  0  0  0  0  0  0  0  0  0  0  0
  -18.9000  -30.1260   23.9620 C   0  0  0  0  0  3  0  0  0  0  0  0
  -17.5960  -30.6300   24.1280 C   0  0  0  0  0  3  0  0  0  0  0  0
  -16.4900  -29.8650   23.7200 C   0  0  0  0  0  3  0  0  0  0  0  0
  -16.6890  -28.6010   23.1390 C   0  0  0  0  0  3  0  0  0  0  0  0
  -25.8390  -32.5310   23.8370 C   0  0  0  0  0  3  0  0  0  0  0  0
  -25.5310  -33.9270   24.1700 N   0  0  0  0  0  0  0  0  0  0  0  0
  -25.8580  -34.9800   23.4080 C   0  0  0  0  0  0  0  0  0  0  0  0
  -26.5210  -34.8770   22.3720 O   0  0  0  0  0  0  0  0  0  0  0  0
  -24.9410  -34.0810   24.9740 H   0  0  0  0  0  0  0  0  0  0  0  0
  -24.1240  -36.7680   23.0610 C   0  0  0  0  0  1  0  0  0  0  0  0
  -25.3690  -36.3660   23.8680 C   0  0  0  0  0  3  0  0  0  0  0  0
  -27.5060  -37.2540   24.6880 C   0  0  0  0  0  1  0  0  0  0  0  0
  -26.3990  -37.4220   23.7510 N   0  0  0  0  0  0  0  0  0  0  0  0
  -25.9920  -38.3400   23.9030 H   0  0  0  0  0  0  0  0  0  0  0  0
  -26.3710  -31.7570   25.1050 C   0  0  1  0  0  0  0  0  0  0  0  0
  -25.2890  -31.5110   26.1820 C   0  0  0  0  0  1  0  0  0  0  0  0
  -26.9550  -30.3840   24.6980 C   0  0  0  0  0  1  0  0  0  0  0  0
  -27.5250  -32.5520   25.7590 C   0  0  0  0  0  1  0  0  0  0  0  0
  -31.2200  -19.4920   20.6520 O   0  0  0  0  0  0  0  0  0  0  0  0
  -31.0290  -18.9650   21.9630 C   0  0  0  0  0  2  0  0  0  0  0  0
  -31.1680  -17.4340   21.9330 C   0  0  0  0  0  2  0  0  0  0  0  0
  -30.1040  -16.7880   21.0290 C   0  0  0  0  0  2  0  0  0  0  0  0
  -30.6790  -14.4380   20.4160 C   0  0  0  0  0  0  0  0  0  0  0  0
  -30.3540  -12.3520   19.1510 C   0  0  0  0  0  2  0  0  0  0  0  0
  -29.3900  -12.6340   17.9800 C   0  0  0  0  0  2  0  0  0  0  0  0
  -27.9200  -12.5020   18.4250 C   0  0  0  0  0  2  0  0  0  0  0  0
  -27.6190  -13.2790   19.7360 C   0  0  0  0  0  3  0  0  0  0  0  0
  -28.6830  -12.9530   20.8090 C   0  0  0  0  0  2  0  0  0  0  0  0
  -30.0130  -13.2670   20.2490 N   0  0  0  0  0  0  0  0  0  0  0  0
  -31.7330  -14.7190   19.8380 O   0  0  0  0  0  0  0  0  0  0  0  0
  -30.0190  -15.3340   21.1590 N   0  0  0  0  0  0  0  0  0  0  0  0
  -29.1980  -14.9740   21.6260 H   0  0  0  0  0  0  0  0  0  0  0  0
  -25.2200  -13.8950   20.4510 C   0  0  0  0  0  0  0  0  0  0  0  0
  -24.1530  -13.1250   20.8320 C   0  0  0  0  0  0  0  0  0  0  0  0
  -24.6140  -11.7730   20.8010 C   0  0  0  0  0  0  0  0  0  0  0  0
  -26.2650  -13.0130   20.2190 N   0  0  0  0  0  0  0  0  0  0  0  0
  -25.9010  -11.7310   20.4810 N   0  0  0  0  0  0  0  0  0  0  0  0
  -23.8890  -10.5110   21.0020 C   0  0  0  0  0  0  0  0  0  0  0  0
  -24.3320   -9.5460   21.9330 C   0  0  0  0  0  3  0  0  0  0  0  0
  -23.6080   -8.3500   22.1230 C   0  0  0  0  0  3  0  0  0  0  0  0
  -22.4290   -8.1080   21.3780 C   0  0  0  0  0  0  0  0  0  0  0  0
  -22.0050   -9.0620   20.4360 C   0  0  0  0  0  3  0  0  0  0  0  0
  -22.7290  -10.2510   20.2450 C   0  0  0  0  0  3  0  0  0  0  0  0
  -21.6760   -6.9620   21.4770 O   0  0  0  0  0  0  0  0  0  0  0  0
  -21.6420   -6.2200   22.6290 C   0  0  0  0  0  0  0  0  0  0  0  0
  -21.2360   -6.7760   23.8620 C   0  0  0  0  0  3  0  0  0  0  0  0
  -21.1470   -5.9600   25.0070 C   0  0  0  0  0  3  0  0  0  0  0  0
  -21.4550   -4.5890   24.9220 C   0  0  0  0  0  0  0  0  0  0  0  0
  -21.8540   -4.0320   23.6940 C   0  0  0  0  0  3  0  0  0  0  0  0
  -21.9440   -4.8460   22.5510 C   0  0  0  0  0  0  0  0  0  0  0  0
  -22.3080   -4.2990   21.3660 F   0  0  0  0  0  0  0  0  0  0  0  0
  -21.3640   -3.8030   26.0200 F   0  0  0  0  0  0  0  0  0  0  0  0
  -22.7580  -13.6030   21.1170 C   0  0  0  0  0  0  0  0  0  0  0  0
  -22.0370  -12.9080   21.9900 N   0  0  0  0  0  0  0  0  0  0  0  0
  -22.3150  -14.6280   20.5990 O   0  0  0  0  0  0  0  0  0  0  0  0
  -22.4080  -12.0810   22.4340 H   0  0  0  0  0  0  0  0  0  0  0  0
  -21.1020  -13.2100   22.2190 H   0  0  0  0  0  0  0  0  0  0  0  0
  -25.3840  -15.2650   20.2710 N   0  0  0  0  0  0  0  0  0  0  0  0
  -24.6210  -15.9240   20.3860 H   0  0  0  0  0  0  0  0  0  0  0  0
  -26.2350  -15.7000   19.9330 H   0  0  0  0  0  0  0  0  0  0  0  0
  1  2  1  0
  3  6  1  0
  4  1  2  0
  5  3  2  0
  5  4  1  0
  6 55  1  0
  6  2  2  0
  7  5  1  0
  8 10  1  0
  8  9  1  0
  9 14  1  0
 10 13  1  6
 10  4  1  0
 10  9  1  0
 11 13  1  0
 13 12  1  0
 15 26  2  0
 16 14  1  0
 16 21  1  0
 17 25  1  0
 17 27  1  0
 18 24  1  0
 18 20  1  0
 19 25  1  0
 20 19  1  0
 21 20  2  0
 22 23  1  0
 22 16  2  0
 23 18  2  0
 24 17  1  0
 25 15  1  0
 27 29  2  0
 28 27  1  0
 30 28  1  0
 31 40  2  0
 31 36  1  0
 32 28  1  0
 32 36  1  0
 33 32  1  0
 34 35  1  0
 34 33  1  0
 35 31  1  0
 36 37  2  0
 37 38  1  0
 39 38  2  0
 40 39  1  0
 41 15  1  0
 41 42  1  0
 41 51  1  0
 42 45  1  0
 43 47  1  0
 43 42  1  0
 44 43  2  0
 47 46  1  0
 49 47  1  0
 49 50  1  0
 49 48  1  0
 51 54  1  1
 51 52  1  0
 53 51  1  0
 55 56  1  0
 57 56  1  0
 58 67  1  0
 58 57  1  0
 59 67  1  0
 60 65  1  0
 61 62  1  0
 61 60  1  0
 63 62  1  0
 63 72  1  0
 63 64  1  0
 65 59  1  0
 65 64  1  0
 66 59  2  0
 67 68  1  0
 69 70  2  0
 70 89  1  0
 71 70  1  0
 71 74  1  0
 72 69  1  0
 72 73  1  0
 73 71  2  0
 74 75  1  0
 75 76  2  0
 77 80  1  0
 77 76  1  0
 78 77  2  0
 79 78  1  0
 79 74  2  0
 80 81  1  0
 81 82  1  0
 82 83  2  0
 84 83  1  0
 84 88  1  0
 85 84  2  0
 86 81  2  0
 86 85  1  0
 87 86  1  0
 89 90  1  0
 90 93  1  0
 90 92  1  0
 91 89  2  0
 94 95  1  0
 94 69  1  0
 96 94  1  0
M  ISO  4   9 101  14 101  59 100  67 100
M  END
>  <TORSDO>  (12) 
F 22

>  <SCORE>  (12) 
-13.339

>  <name>  (12) 
11

>  <ligand_id>  (12) 
11

>  <original_smiles>  (12) 
[H]c1c([H])c([H])c2c(c1[H])C([H])([H])C([H])([H])C([H])([H])C2([H])N([H])C(=O)C1([H])N(C(=O)C([H])(N([H])C(=O)C([H])(N([H])C([H])([H])[H])C([H])([H])[H])C(C([H])([H])[H])(C([H])([H])[H])C([H])([H])[H])C([H])([H])c2c([H])c(OC3([H])C([H])([H])C3(c3c([H])c([H])c(OC([H])([H])C([H])([H])C([H])([H])N([H])C(=O)N4C([H])([H])C([H])([H])C([H])([H])C([H])(n5nc(-c6c([H])c([H])c(Oc7c([H])c([H])c(F)c([H])c7F)c([H])c6[H])c(C(=O)N([H])[H])c5N([H])[H])C4([H])[H])c([H])c3C([H])([H])[H])C([H])(C([H])([H])[H])C([H])([H])[H])c([H])c([H])c2C1([H])[H]

>  <smiles>  (12) 
[H]c1c([H])c([H])c2c(c1[H])C([H])([H])C([H])([H])C([H])([H])C2([H])N([H])C(=O)C1([H])N(C(=O)C([H])(N([H])C(=O)C([H])(N([H])C([H])([H])[H])C([H])([H])[H])C(C([H])([H])[H])(C([H])([H])[H])C([H])([H])[H])C([H])([H])c2c([H])c(OC3([H])C([H])([H])C3(c3c([H])c([H])c(OC([H])([H])C([H])([H])C([H])([H])N([H])C(=O)N4C([H])([H])C([H])([H])C([H])([H])C([H])(n5nc(-c6c([H])c([H])c(Oc7c([H])c([H])c(F)c([H])c7F)c([H])c6[H])c(C(=O)N([H])[H])c5N([H])[H])C4([H])[H])c([H])c3C([H])([H])[H])C([H])(C([H])([H])[H])C([H])([H])[H])c([H])c([H])c2C1([H])[H]

$$$$
12:0:0
     RDKit          3D

 96106  0  0  1  0  0  0  0  0999 V2000
  -28.5110  -20.9540   21.1170 C   0  0  0  0  0  2  0  0  0  0  0  0
  -29.5460  -23.3280   21.5090 C   0  0  0  0  0  2  0  0  0  0  0  0
  -28.0880  -22.9340   19.4800 C   0  0  0  0  0  2  0  0  0  0  0  0
  -29.3210  -24.8640   21.4580 C   0  0  0  0  0  2  0  0  0  0  0  0
  -28.2810  -24.4510   19.2040 C   0  0  0  0  0  2  0  0  0  0  0  0
  -28.3690  -22.5020   20.9420 C   0  0  0  0  0  3  0  0  0  0  0  0
  -28.2100  -25.3110   20.4840 C   0  0  0  0  0  3  0  0  0  0  0  0
  -28.3580  -26.7230   20.2340 O   0  0  0  0  0  0  0  0  0  0  0  0
  -24.5670  -31.9340   23.2630 C   0  0  0  0  0  0  0  0  0  0  0  0
  -27.1990  -27.4730   20.2050 C   0  0  0  0  0  0  0  0  0  0  0  0
  -23.3650  -30.5360   21.6200 C   0  0  0  0  0  3  0  0  0  0  0  0
  -24.8150  -28.9970   20.2030 C   0  0  0  0  0  0  0  0  0  0  0  0
  -25.8960  -30.8870   21.4300 C   0  0  0  0  0  2  0  0  0  0  0  0
  -25.9760  -29.5170   20.7880 C   0  0  0  0  0  0  0  0  0  0  0  0
  -27.1740  -28.7640   20.7800 C   0  0  0  0  0  3  0  0  0  0  0  0
  -26.0160  -26.9720   19.6180 C   0  0  0  0  0  3  0  0  0  0  0  0
  -24.8300  -27.7240   19.6140 C   0  0  0  0  0  3  0  0  0  0  0  0
  -23.5740  -29.8580   20.2430 C   0  0  0  0  0  2  0  0  0  0  0  0
  -24.6290  -31.1340   22.1620 N   0  0  0  0  0  0  0  0  0  0  0  0
  -23.4830  -32.2090   23.7970 O   0  0  0  0  0  0  0  0  0  0  0  0
  -22.7090  -29.5150   22.5790 C   0  0  0  0  0  0  0  0  0  0  0  0
  -21.3870  -29.3230   22.4330 N   0  0  0  0  0  0  0  0  0  0  0  0
  -23.3850  -28.8970   23.4050 O   0  0  0  0  0  0  0  0  0  0  0  0
  -20.9050  -29.8680   21.7320 H   0  0  0  0  0  0  0  0  0  0  0  0
  -18.0120  -28.1200   22.8900 C   0  0  0  0  0  0  0  0  0  0  0  0
  -20.5640  -28.3850   23.1940 C   0  0  0  0  0  3  0  0  0  0  0  0
  -20.6800  -26.9520   22.6240 C   0  0  0  0  0  2  0  0  0  0  0  0
  -19.5910  -26.6220   21.5990 C   0  0  0  0  0  2  0  0  0  0  0  0
  -18.2000  -26.7700   22.2220 C   0  0  0  0  0  2  0  0  0  0  0  0
  -19.1230  -28.8880   23.3310 C   0  0  0  0  0  0  0  0  0  0  0  0
  -18.8910  -30.1560   23.9070 C   0  0  0  0  0  3  0  0  0  0  0  0
  -17.5820  -30.6510   24.0560 C   0  0  0  0  0  3  0  0  0  0  0  0
  -16.4860  -29.8790   23.6350 C   0  0  0  0  0  3  0  0  0  0  0  0
  -16.7020  -28.6150   23.0560 C   0  0  0  0  0  3  0  0  0  0  0  0
  -25.8500  -32.5640   23.8880 C   0  0  0  0  0  3  0  0  0  0  0  0
  -26.3520  -31.8040   25.1770 C   0  0  1  0  0  0  0  0  0  0  0  0
  -25.2490  -31.5760   26.2370 C   0  0  0  0  0  1  0  0  0  0  0  0
  -26.9380  -30.4260   24.7980 C   0  0  0  0  0  1  0  0  0  0  0  0
  -27.5030  -32.5980   25.8380 C   0  0  0  0  0  1  0  0  0  0  0  0
  -25.5490  -33.9680   24.2000 N   0  0  0  0  0  0  0  0  0  0  0  0
  -25.8930  -35.0100   23.4320 C   0  0  0  0  0  0  0  0  0  0  0  0
  -26.5730  -34.8920   22.4100 O   0  0  0  0  0  0  0  0  0  0  0  0
  -24.9620  -34.1390   25.0030 H   0  0  0  0  0  0  0  0  0  0  0  0
  -24.1830  -36.8070   23.0290 C   0  0  0  0  0  1  0  0  0  0  0  0
  -25.4050  -36.4050   23.8690 C   0  0  0  0  0  3  0  0  0  0  0  0
  -27.5280  -37.2770   24.7370 C   0  0  0  0  0  1  0  0  0  0  0  0
  -26.4430  -37.4540   23.7760 N   0  0  0  0  0  0  0  0  0  0  0  0
  -26.0370  -38.3740   23.9270 H   0  0  0  0  0  0  0  0  0  0  0  0
  -29.3790  -20.3960   20.1260 O   0  0  0  0  0  0  0  0  0  0  0  0
  -30.7420  -14.5350   20.3550 C   0  0  0  0  0  0  0  0  0  0  0  0
  -30.3500  -12.3800   19.2130 C   0  0  0  0  0  2  0  0  0  0  0  0
  -29.4040  -12.6110   18.0180 C   0  0  0  0  0  2  0  0  0  0  0  0
  -27.9360  -12.4790   18.4620 C   0  0  0  0  0  2  0  0  0  0  0  0
  -27.6220  -13.2940   19.7450 C   0  0  0  0  0  3  0  0  0  0  0  0
  -28.7020  -13.0990   20.8360 C   0  0  0  0  0  2  0  0  0  0  0  0
  -30.0170  -13.3830   20.2410 N   0  0  0  0  0  0  0  0  0  0  0  0
  -31.8600  -14.6260   19.8400 O   0  0  0  0  0  0  0  0  0  0  0  0
  -29.7140  -18.0240   20.6640 C   0  0  0  0  0  3  0  0  0  0  0  0
  -32.4020  -18.4940   20.9260 C   0  0  0  0  0  3  0  0  0  0  0  0
  -31.5790  -19.5830   20.5890 C   0  0  0  0  0  0  0  0  0  0  0  0
  -30.1930  -19.3490   20.5000 C   0  0  0  0  0  0  0  0  0  0  0  0
  -30.6260  -16.9610   20.9020 C   0  0  0  0  0  0  0  0  0  0  0  0
  -31.9410  -17.2380   21.0880 N   0  0  0  0  0  0  0  0  0  0  0  0
  -30.1310  -15.6110   20.9050 N   0  0  0  0  0  0  0  0  0  0  0  0
  -29.1760  -15.4720   21.1960 H   0  0  0  0  0  0  0  0  0  0  0  0
  -25.2350  -13.8740   20.5020 C   0  0  0  0  0  0  0  0  0  0  0  0
  -24.1770  -13.0940   20.8850 C   0  0  0  0  0  0  0  0  0  0  0  0
  -24.6430  -11.7460   20.8360 C   0  0  0  0  0  0  0  0  0  0  0  0
  -26.2810  -13.0020   20.2500 N   0  0  0  0  0  0  0  0  0  0  0  0
  -25.9300  -11.7150   20.5070 N   0  0  0  0  0  0  0  0  0  0  0  0
  -23.9230  -10.4800   21.0320 C   0  0  0  0  0  0  0  0  0  0  0  0
  -24.3700   -9.5100   21.9570 C   0  0  0  0  0  3  0  0  0  0  0  0
  -23.6500   -8.3100   22.1380 C   0  0  0  0  0  3  0  0  0  0  0  0
  -22.4700   -8.0700   21.3950 C   0  0  0  0  0  0  0  0  0  0  0  0
  -22.0440   -9.0280   20.4580 C   0  0  0  0  0  3  0  0  0  0  0  0
  -22.7640  -10.2200   20.2740 C   0  0  0  0  0  3  0  0  0  0  0  0
  -21.7170   -6.9250   21.4900 O   0  0  0  0  0  0  0  0  0  0  0  0
  -21.6800   -6.1800   22.6420 C   0  0  0  0  0  0  0  0  0  0  0  0
  -21.2500   -6.7280   23.8710 C   0  0  0  0  0  3  0  0  0  0  0  0
  -21.1590   -5.9080   25.0120 C   0  0  0  0  0  3  0  0  0  0  0  0
  -21.4900   -4.5420   24.9300 C   0  0  0  0  0  0  0  0  0  0  0  0
  -21.9130   -3.9940   23.7050 C   0  0  0  0  0  3  0  0  0  0  0  0
  -22.0040   -4.8090   22.5630 C   0  0  0  0  0  0  0  0  0  0  0  0
  -22.3930   -4.2710   21.3830 F   0  0  0  0  0  0  0  0  0  0  0  0
  -21.3960   -3.7530   26.0250 F   0  0  0  0  0  0  0  0  0  0  0  0
  -22.7830  -13.5650   21.1840 C   0  0  0  0  0  0  0  0  0  0  0  0
  -22.0690  -12.8580   22.0530 N   0  0  0  0  0  0  0  0  0  0  0  0
  -22.3350  -14.5940   20.6820 O   0  0  0  0  0  0  0  0  0  0  0  0
  -22.4420  -12.0220   22.4760 H   0  0  0  0  0  0  0  0  0  0  0  0
  -21.1340  -13.1580   22.2940 H   0  0  0  0  0  0  0  0  0  0  0  0
  -25.3870  -15.2480   20.3320 N   0  0  0  0  0  0  0  0  0  0  0  0
  -24.6110  -15.8890   20.4470 H   0  0  0  0  0  0  0  0  0  0  0  0
  -26.2210  -15.6980   19.9730 H   0  0  0  0  0  0  0  0  0  0  0  0
  -31.9700  -21.6420   19.0110 C   0  0  0  0  0  2  0  0  0  0  0  0
  -33.3470  -21.1900   19.4290 C   0  0  0  0  0  2  0  0  0  0  0  0
  -32.1630  -20.9480   20.3470 C   0  0  0  0  0  3  0  0  0  0  0  0
  3  6  1  0
  4  2  1  0
  5  3  1  0
  5  7  1  0
  6  1  1  0
  6  2  1  0
  7  8  1  0
  7  4  1  0
  9 20  2  0
 10  8  1  0
 10 15  1  0
 11 19  1  0
 11 21  1  0
 12 18  1  0
 12 14  1  0
 13 19  1  0
 14 13  1  0
 15 14  2  0
 16 10  2  0
 17 16  1  0
 17 12  2  0
 18 11  1  0
 19  9  1  0
 21 23  2  0
 22 21  1  0
 24 22  1  0
 25 34  2  0
 25 30  1  0
 26 22  1  0
 26 30  1  0
 27 26  1  0
 28 29  1  0
 28 27  1  0
 29 25  1  0
 30 31  2  0
 31 32  1  0
 33 32  2  0
 34 33  1  0
 35  9  1  0
 35 40  1  0
 35 36  1  0
 36 39  1  1
 36 37  1  0
 38 36  1  0
 40 43  1  0
 41 45  1  0
 41 40  1  0
 42 41  2  0
 45 44  1  0
 47 45  1  0
 47 48  1  0
 47 46  1  0
 49 61  1  0
 49  1  1  0
 50 64  1  0
 51 56  1  0
 52 53  1  0
 52 51  1  0
 54 53  1  0
 54 69  1  0
 54 55  1  0
 56 50  1  0
 56 55  1  0
 57 50  2  0
 58 62  1  0
 59 63  1  0
 60 59  2  0
 61 60  1  0
 61 58  2  0
 62 64  1  0
 62 63  2  0
 64 65  1  0
 66 67  2  0
 67 86  1  0
 68 67  1  0
 68 71  1  0
 69 66  1  0
 69 70  1  0
 70 68  2  0
 71 72  1  0
 72 73  2  0
 74 77  1  0
 74 73  1  0
 75 74  2  0
 76 75  1  0
 76 71  2  0
 77 78  1  0
 78 79  1  0
 79 80  2  0
 81 80  1  0
 81 85  1  0
 82 81  2  0
 83 78  2  0
 83 82  1  0
 84 83  1  0
 86 87  1  0
 87 90  1  0
 87 89  1  0
 88 86  2  0
 91 92  1  0
 91 66  1  0
 93 91  1  0
 94 95  1  0
 94 96  1  0
 95 96  1  0
 96 60  1  0
M  ISO  4   7 101   8 101  50 100  64 100
M  END
>  <TORSDO>  (13) 
F 19

>  <SCORE>  (13) 
-14.819

>  <name>  (13) 
12

>  <ligand_id>  (13) 
12

>  <original_smiles>  (13) 
[H]c1nc(N([H])C(=O)N2C([H])([H])C([H])([H])C([H])([H])C([H])(n3nc(-c4c([H])c([H])c(Oc5c([H])c([H])c(F)c([H])c5F)c([H])c4[H])c(C(=O)N([H])[H])c3N([H])[H])C2([H])[H])c([H])c(OC([H])([H])C2([H])C([H])([H])C([H])([H])C([H])(Oc3c([H])c([H])c4c(c3[H])C([H])([H])N(C(=O)C([H])(N([H])C(=O)C([H])(N([H])C([H])([H])[H])C([H])([H])[H])C(C([H])([H])[H])(C([H])([H])[H])C([H])([H])[H])C([H])(C(=O)N([H])C3([H])c5c([H])c([H])c([H])c([H])c5C([H])([H])C([H])([H])C3([H])[H])C4([H])[H])C([H])([H])C2([H])[H])c1C1([H])C([H])([H])C1([H])[H]

>  <smiles>  (13) 
[H]c1nc(N([H])C(=O)N2C([H])([H])C([H])([H])C([H])([H])C([H])(n3nc(-c4c([H])c([H])c(Oc5c([H])c([H])c(F)c([H])c5F)c([H])c4[H])c(C(=O)N([H])[H])c3N([H])[H])C2([H])[H])c([H])c(OC([H])([H])C2([H])C([H])([H])C([H])([H])C([H])(Oc3c([H])c([H])c4c(c3[H])C([H])([H])N(C(=O)C([H])(N([H])C(=O)C([H])(N([H])C([H])([H])[H])C([H])([H])[H])C(C([H])([H])[H])(C([H])([H])[H])C([H])([H])[H])C([H])(C(=O)N([H])C3([H])c5c([H])c([H])c([H])c([H])c5C([H])([H])C([H])([H])C3([H])[H])C4([H])[H])C([H])([H])C2([H])[H])c1C1([H])C([H])([H])C1([H])[H]

$$$$
13:0:0
     RDKit          3D

 96 95  0  0  1  0  0  0  0  0999 V2000
  -30.0930  -19.4660   17.5440 C   0  0  0  0  0  3  0  0  0  0  0  0
  -29.2270  -20.0640   19.6260 C   0  0  0  0  0  3  0  0  0  0  0  0
  -29.4110  -20.4980   18.2740 C   0  0  0  0  0  0  0  0  0  0  0  0
  -30.5380  -18.1770   18.0700 C   0  0  0  0  0  0  0  0  0  0  0  0
  -29.6760  -18.7830   20.1720 C   0  0  0  0  0  0  0  0  0  0  0  0
  -30.3460  -17.7260   19.4290 C   0  0  0  0  0  0  0  0  0  0  0  0
  -31.2620  -17.2770   17.1020 C   0  0  0  0  0  1  0  0  0  0  0  0
  -29.4480  -18.5810   21.6630 C   0  0  0  0  0  1  0  0  0  0  0  0
  -28.7660  -21.8450   17.5330 C   0  0  0  0  0  3  0  0  0  0  0  0
  -29.0100  -23.4840   17.8160 C   0  0  0  0  0  3  0  0  0  0  0  0
  -28.7380  -24.7210   16.8920 O   0  0  0  0  0  0  0  0  0  0  0  0
  -26.5380  -29.1580   22.2320 C   0  0  0  0  0  0  0  0  0  0  0  0
  -27.9010  -25.7690   17.3440 C   0  0  0  0  0  0  0  0  0  0  0  0
  -24.8990  -28.3950   20.5650 C   0  0  0  0  0  3  0  0  0  0  0  0
  -25.8430  -27.4610   18.3800 C   0  0  0  0  0  0  0  0  0  0  0  0
  -27.3550  -28.7460   19.8840 C   0  0  0  0  0  2  0  0  0  0  0  0
  -27.1630  -27.6680   18.8070 C   0  0  0  0  0  0  0  0  0  0  0  0
  -28.2100  -26.8430   18.2650 C   0  0  0  0  0  3  0  0  0  0  0  0
  -26.5850  -25.6980   16.8750 C   0  0  0  0  0  3  0  0  0  0  0  0
  -25.5660  -26.5080   17.3930 C   0  0  0  0  0  3  0  0  0  0  0  0
  -24.7370  -28.2670   19.0290 C   0  0  0  0  0  2  0  0  0  0  0  0
  -26.2980  -28.7670   20.9450 N   0  0  0  0  0  0  0  0  0  0  0  0
  -25.6260  -29.2220   23.0700 O   0  0  0  0  0  0  0  0  0  0  0  0
  -24.4080  -27.0930   21.2470 C   0  0  0  0  0  0  0  0  0  0  0  0
  -23.0930  -26.8240   21.1750 N   0  0  0  0  0  0  0  0  0  0  0  0
  -25.2070  -26.3410   21.8130 O   0  0  0  0  0  0  0  0  0  0  0  0
  -22.4980  -27.4930   20.7060 H   0  0  0  0  0  0  0  0  0  0  0  0
  -19.9030  -25.1320   21.4530 C   0  0  0  0  0  0  0  0  0  0  0  0
  -22.4270  -25.6380   21.7190 C   0  0  0  0  0  3  0  0  0  0  0  0
  -22.6620  -24.4040   20.8180 C   0  0  0  0  0  2  0  0  0  0  0  0
  -21.5540  -24.1930   19.7800 C   0  0  0  0  0  2  0  0  0  0  0  0
  -20.2000  -24.0110   20.4710 C   0  0  0  0  0  2  0  0  0  0  0  0
  -20.9480  -25.9050   22.0280 C   0  0  0  0  0  0  0  0  0  0  0  0
  -20.6150  -26.9560   22.9100 C   0  0  0  0  0  3  0  0  0  0  0  0
  -19.2700  -27.2370   23.2210 C   0  0  0  0  0  3  0  0  0  0  0  0
  -18.2430  -26.4590   22.6600 C   0  0  0  0  0  3  0  0  0  0  0  0
  -18.5600  -25.4070   21.7830 C   0  0  0  0  0  3  0  0  0  0  0  0
  -27.9660  -29.5660   22.7060 C   0  0  0  0  0  3  0  0  0  0  0  0
  -28.8330  -28.3390   23.1890 C   0  0  1  0  0  0  0  0  0  0  0  0
  -28.1140  -27.4370   24.2190 C   0  0  0  0  0  1  0  0  0  0  0  0
  -29.2430  -27.4490   21.9930 C   0  0  0  0  0  1  0  0  0  0  0  0
  -30.1430  -28.8460   23.8360 C   0  0  0  0  0  1  0  0  0  0  0  0
  -27.8100  -30.5430   23.7940 N   0  0  0  0  0  0  0  0  0  0  0  0
  -28.0990  -31.8470   23.7000 C   0  0  0  0  0  0  0  0  0  0  0  0
  -28.5970  -32.3490   22.6880 O   0  0  0  0  0  0  0  0  0  0  0  0
  -27.3510  -30.2160   24.6320 H   0  0  0  0  0  0  0  0  0  0  0  0
  -26.5220  -33.5650   24.6500 C   0  0  0  0  0  1  0  0  0  0  0  0
  -27.7890  -32.7370   24.9190 C   0  0  0  0  0  3  0  0  0  0  0  0
  -30.0420  -32.9440   25.8740 C   0  0  0  0  0  1  0  0  0  0  0  0
  -28.9000  -33.6410   25.2880 N   0  0  0  0  0  0  0  0  0  0  0  0
  -28.5860  -34.3460   25.9480 H   0  0  0  0  0  0  0  0  0  0  0  0
  -30.9710  -16.3600   20.1980 C   0  0  0  0  0  2  0  0  0  0  0  0
  -35.5140  -12.5580   21.3830 C   0  0  0  0  0  0  0  0  0  0  0  0
  -36.3700  -11.1630   21.2670 C   0  0  0  0  0  1  0  0  0  0  0  0
  -36.6240  -11.5520   19.5090 C   0  0  0  0  0  1  0  0  0  0  0  0
  -35.8360  -12.9520   18.8710 C   0  0  0  0  0  2  0  0  0  0  0  0
  -34.6970  -13.9600   19.8280 C   0  0  0  0  0  2  0  0  0  0  0  0
  -34.8110  -13.6860   21.8870 C   0  0  0  0  0  1  0  0  0  0  0  0
  -35.5810  -12.2220   22.3360 N   0  0  0  0  0  1  0  0  0  0  0  0
  -36.7870  -13.3460   21.2100 O   0  0  0  0  0  1  0  0  0  0  0  0
  -32.2560  -12.2710   16.8970 C   0  0  0  0  0 15  0  0  0  0  0  0
  -33.8330  -11.1940   18.5530 C   0  0  0  0  0 15  0  0  0  0  0  0
  -30.8680  -14.2840   17.7890 C   0  0  0  0  0 15  0  0  0  0  0  0
  -32.3830  -13.6890   21.2030 C   0  0  0  0  0  1  0  0  0  0  0  0
  -31.4430  -13.2280   22.3400 C   0  0  0  0  0  1  0  0  0  0  0  0
  -33.9730  -11.9570   20.7190 N   0  0  0  0  0 15  0  0  0  0  0  0
  -31.3010  -14.8580   19.7790 N   0  0  0  0  0  2  0  0  0  0  0  0
  -32.2140  -15.0530   19.3710 H   0  0  0  0  0  0  0  0  0  0  0  0
  -31.9960  -13.1480   18.9280 C   0  0  0  0  0  2  0  0  0  0  0  0
  -30.5310  -12.9030   19.1570 C   0  0  0  0  0  2  0  0  0  0  0  0
  -30.6700  -12.2580   20.3860 C   0  0  0  0  0  3  0  0  0  0  0  0
  -33.2470  -13.3390   19.1000 N   0  0  0  0  0  0  0  0  0  0  0  0
  -31.5800  -12.9110   19.5330 N   0  0  0  0  0  0  0  0  0  0  0  0
  -29.6000  -11.1120   20.5480 C   0  0  0  0  0  0  0  0  0  0  0  0
  -28.5630  -11.3440   21.4920 C   0  0  0  0  0  3  0  0  0  0  0  0
  -27.4870  -10.4450   21.7350 C   0  0  0  0  0  3  0  0  0  0  0  0
  -27.3660   -9.2330   21.0230 C   0  0  0  0  0  0  0  0  0  0  0  0
  -28.3910   -8.9450   20.0920 C   0  0  0  0  0  3  0  0  0  0  0  0
  -29.4830   -9.8430   19.8760 C   0  0  0  0  0  3  0  0  0  0  0  0
  -26.3460   -8.3090   21.2300 O   0  0  0  0  0  0  0  0  0  0  0  0
  -25.0130   -8.6730   21.3190 C   0  0  0  0  0  0  0  0  0  0  0  0
  -24.3660   -9.3680   20.2730 C   0  0  0  0  0  3  0  0  0  0  0  0
  -22.9920   -9.6810   20.3610 C   0  0  0  0  0  3  0  0  0  0  0  0
  -22.2470   -9.2930   21.4910 C   0  0  0  0  0  0  0  0  0  0  0  0
  -22.8770   -8.5860   22.5290 C   0  0  0  0  0  3  0  0  0  0  0  0
  -24.2480   -8.2720   22.4420 C   0  0  0  0  0  0  0  0  0  0  0  0
  -24.8290   -7.5690   23.4460 F   0  0  0  0  0  0  0  0  0  0  0  0
  -20.9300   -9.5960   21.5770 F   0  0  0  0  0  0  0  0  0  0  0  0
  -29.2840  -12.8720   18.1740 C   0  0  0  0  0  2  0  0  0  0  0  0
  -28.0930  -13.1710   18.6430 N   0  0  0  0  0  0  0  0  0  0  0  0
  -29.3040  -12.5850   16.9800 O   0  0  0  0  0  1  0  0  0  0  0  0
  -27.9730  -13.4160   19.6130 H   0  0  0  0  0  0  0  0  0  0  0  0
  -27.2910  -13.1600   18.0290 H   0  0  0  0  0  0  0  0  0  0  0  0
  -33.4150  -13.4050   18.0760 N   0  0  0  0  0  0  0  0  0  0  0  0
  -33.3240  -12.8920   17.2070 H   0  0  0  0  0  0  0  0  0  0  0  0
  -34.2000  -12.9760   18.5600 H   0  0  0  0  0  0  0  0  0  0  0  0
  1  4  2  0
  1  3  1  0
  2  5  1  0
  3  2  2  0
  4  6  1  0
  5  8  1  0
  6  5  2  0
  6 52  1  0
  7  4  1  0
  9 10  2  0
  9  3  1  0
 11 13  1  0
 11 10  1  0
 12 23  2  0
 13 18  1  0
 14 22  1  0
 14 24  1  0
 15 17  1  0
 15 21  1  0
 16 22  1  0
 17 16  1  0
 18 17  2  0
 19 13  2  0
 19 20  1  0
 20 15  2  0
 21 14  1  0
 22 12  1  0
 24 26  2  0
 25 24  1  0
 27 25  1  0
 28 37  2  0
 28 33  1  0
 29 25  1  0
 29 33  1  0
 30 29  1  0
 31 32  1  0
 31 30  1  0
 32 28  1  0
 33 34  2  0
 34 35  1  0
 36 35  2  0
 37 36  1  0
 38 12  1  0
 38 39  1  0
 38 43  1  0
 39 42  1  1
 39 40  1  0
 41 39  1  0
 43 46  1  0
 44 43  1  0
 44 48  1  0
 45 44  2  0
 48 47  1  0
 48 50  1  0
 50 49  1  0
 50 51  1  0
 53 58  1  0
 53 59  1  0
 54 53  1  0
 56 55  1  0
 56 57  1  0
 60 53  1  0
 64 65  1  0
 67 52  1  0
 68 67  1  0
 69 72  1  0
 69 73  1  0
 70 73  1  0
 70 71  1  0
 71 74  1  0
 72 57  1  0
 73 71  1  0
 74 75  1  0
 75 76  2  0
 77 80  1  0
 77 76  1  0
 78 77  2  0
 79 78  1  0
 79 74  2  0
 80 81  1  0
 81 86  1  0
 82 83  1  0
 82 81  2  0
 83 84  2  0
 84 88  1  0
 84 85  1  0
 86 85  2  0
 86 87  1  0
 89 90  1  0
 90 92  1  0
 91 89  1  0
 93 90  1  0
 94 96  1  0
 94 72  1  0
 95 94  1  0
M  ISO  4  10 101  11 101  53 100  66 100
M  END
>  <TORSDO>  (14) 
F 19

>  <SCORE>  (14) 
-1.787

>  <name>  (14) 
13

>  <ligand_id>  (14) 
13

>  <original_smiles>  (14) 
[H]c1c([H])c([H])c2c(c1[H])C([H])([H])C([H])([H])C([H])([H])C2([H])N([H])C(=O)C1([H])N(C(=O)C([H])(N([H])C(=O)C([H])(N([H])C([H])([H])[H])C([H])([H])[H])C(C([H])([H])[H])(C([H])([H])[H])C([H])([H])[H])C([H])([H])c2c([H])c(OC([H])([H])C([H])([H])c3c([H])c(C([H])([H])[H])c(C([H])([H])[N+]4([H])C([H])([H])C([H])([H])C([H])([H])N(C(=O)N5C([H])([H])C([H])([H])C([H])([H])C([H])(n6nc(-c7c([H])c([H])c(Oc8c([H])c([H])c(F)c([H])c8F)c([H])c7[H])c(C(=O)N([H])[H])c6N([H])[H])C5([H])[H])C4([H])C([H])([H])[H])c(C([H])([H])[H])c3[H])c([H])c([H])c2C1([H])[H]

>  <smiles>  (14) 
[H]c1c([H])c([H])c2c(c1[H])C([H])([H])C([H])([H])C([H])([H])C2([H])N([H])C(=O)C1([H])N(C(=O)C([H])(N([H])C(=O)C([H])(N([H])C([H])([H])[H])C([H])([H])[H])C(C([H])([H])[H])(C([H])([H])[H])C([H])([H])[H])C([H])([H])c2c([H])c(OC([H])([H])C([H])([H])c3c([H])c(C([H])([H])[H])c(C([H])([H])[N+]4([H])C([H])([H])C([H])([H])C([H])([H])N(C(=O)N5C([H])([H])C([H])([H])C([H])([H])C([H])(n6nc(-c7c([H])c([H])c(Oc8c([H])c([H])c(F)c([H])c8F)c([H])c7[H])c(C(=O)N([H])[H])c6N([H])[H])C5([H])[H])C4([H])C([H])([H])[H])c(C([H])([H])[H])c3[H])c([H])c([H])c2C1([H])[H]

$$$$
14:0:0
     RDKit          3D

 96105  0  0  1  0  0  0  0  0999 V2000
  -25.8650  -20.0080   18.7030 C   0  0  0  0  0  3  0  0  0  0  0  0
  -27.1310  -21.7610   19.7300 C   0  0  0  0  0  3  0  0  0  0  0  0
  -28.1100  -19.4840   19.6600 C   0  0  0  0  0  0  0  0  0  0  0  0
  -25.9370  -21.3210   19.1580 C   0  0  0  0  0  0  0  0  0  0  0  0
  -26.9260  -19.1130   18.9220 C   0  0  0  0  0  0  0  0  0  0  0  0
  -28.2670  -20.9240   19.8910 C   0  0  0  0  0  0  0  0  0  0  0  0
  -24.7690  -22.2660   18.9550 C   0  0  0  0  0  1  0  0  0  0  0  0
  -26.7110  -17.7530   18.2410 C   0  0  0  0  0  1  0  0  0  0  0  0
  -28.9170  -18.1870   20.0540 C   0  0  0  0  0  3  0  0  0  0  0  0
  -30.1010  -17.6520   20.9200 C   0  0  0  0  0  3  0  0  0  0  0  0
  -30.2740  -17.9170   19.4330 C   0  0  2  0  0  0  0  0  0  0  0  0
  -31.1280  -19.0880   18.9820 C   0  0  0  0  0  1  0  0  0  0  0  0
  -30.4020  -16.7790   18.4310 C   0  0  0  0  0  1  0  0  0  0  0  0
  -30.8620  -15.1890   21.3170 C   0  0  0  0  0  0  0  0  0  0  0  0
  -30.8770  -12.8770   20.4030 C   0  0  0  0  0  2  0  0  0  0  0  0
  -30.1310  -12.8890   19.0490 C   0  0  0  0  0  2  0  0  0  0  0  0
  -28.6110  -12.7230   19.2500 C   0  0  0  0  0  2  0  0  0  0  0  0
  -28.0430  -13.6430   20.3640 C   0  0  0  0  0  3  0  0  0  0  0  0
  -28.9200  -13.5950   21.6370 C   0  0  0  0  0  2  0  0  0  0  0  0
  -30.2960  -13.9420   21.2460 N   0  0  0  0  0  0  0  0  0  0  0  0
  -32.0670  -15.3620   21.1120 O   0  0  0  0  0  0  0  0  0  0  0  0
  -29.9780  -16.2350   21.3580 N   0  0  0  0  0  0  0  0  0  0  0  0
  -29.0380  -15.9480   21.5820 H   0  0  0  0  0  0  0  0  0  0  0  0
  -25.5660  -14.2150   20.7370 C   0  0  0  0  0  0  0  0  0  0  0  0
  -24.4650  -13.4300   20.9440 C   0  0  0  0  0  0  0  0  0  0  0  0
  -24.9410  -12.0830   20.9740 C   0  0  0  0  0  0  0  0  0  0  0  0
  -26.6420  -13.3450   20.6500 N   0  0  0  0  0  0  0  0  0  0  0  0
  -26.2620  -12.0580   20.8530 N   0  0  0  0  0  0  0  0  0  0  0  0
  -24.2070  -10.8140   21.0520 C   0  0  0  0  0  0  0  0  0  0  0  0
  -24.5320   -9.8310   22.0120 C   0  0  0  0  0  3  0  0  0  0  0  0
  -23.8020   -8.6240   22.0790 C   0  0  0  0  0  3  0  0  0  0  0  0
  -22.7290   -8.3960   21.1830 C   0  0  0  0  0  0  0  0  0  0  0  0
  -22.4240   -9.3700   20.2160 C   0  0  0  0  0  3  0  0  0  0  0  0
  -23.1560  -10.5660   20.1470 C   0  0  0  0  0  3  0  0  0  0  0  0
  -21.9800   -7.2440   21.1590 O   0  0  0  0  0  0  0  0  0  0  0  0
  -21.7960   -6.4800   22.2830 C   0  0  0  0  0  0  0  0  0  0  0  0
  -21.2120   -7.0080   23.4570 C   0  0  0  0  0  3  0  0  0  0  0  0
  -20.9790   -6.1700   24.5650 C   0  0  0  0  0  3  0  0  0  0  0  0
  -21.3180   -4.8050   24.5010 C   0  0  0  0  0  0  0  0  0  0  0  0
  -21.8920   -4.2760   23.3320 C   0  0  0  0  0  3  0  0  0  0  0  0
  -22.1280   -5.1110   22.2260 C   0  0  0  0  0  0  0  0  0  0  0  0
  -22.6620   -4.5910   21.0940 F   0  0  0  0  0  0  0  0  0  0  0  0
  -21.0860   -3.9990   25.5630 F   0  0  0  0  0  0  0  0  0  0  0  0
  -23.0380  -13.8940   21.0140 C   0  0  0  0  0  0  0  0  0  0  0  0
  -22.2030  -13.1970   21.7780 N   0  0  0  0  0  0  0  0  0  0  0  0
  -22.6670  -14.9110   20.4290 O   0  0  0  0  0  0  0  0  0  0  0  0
  -22.5120  -12.3770   22.2800 H   0  0  0  0  0  0  0  0  0  0  0  0
  -21.2390  -13.4870   21.8620 H   0  0  0  0  0  0  0  0  0  0  0  0
  -25.7370  -15.5870   20.5960 N   0  0  0  0  0  0  0  0  0  0  0  0
  -24.9500  -16.2280   20.6070 H   0  0  0  0  0  0  0  0  0  0  0  0
  -26.6140  -16.0440   20.3910 H   0  0  0  0  0  0  0  0  0  0  0  0
  -29.4290  -21.6370   20.2000 O   0  0  0  0  0  0  0  0  0  0  0  0
  -29.5910  -22.9470   19.5130 C   0  0  0  0  0  2  0  0  0  0  0  0
  -29.3760  -24.3610   20.2380 C   0  0  0  0  0  3  0  0  0  0  0  0
  -28.5630  -25.4780   19.4420 C   0  0  0  0  0  3  0  0  0  0  0  0
  -28.6030  -26.9060   19.8650 O   0  0  0  0  0  0  0  0  0  0  0  0
  -24.7230  -31.9100   23.3310 C   0  0  0  0  0  0  0  0  0  0  0  0
  -27.4410  -27.7030   19.8740 C   0  0  0  0  0  0  0  0  0  0  0  0
  -23.5350  -30.5870   21.6190 C   0  0  0  0  0  3  0  0  0  0  0  0
  -25.0090  -29.2150   20.0450 C   0  0  0  0  0  0  0  0  0  0  0  0
  -26.0530  -31.0220   21.4060 C   0  0  0  0  0  2  0  0  0  0  0  0
  -26.1710  -29.7010   20.6560 C   0  0  0  0  0  0  0  0  0  0  0  0
  -27.3850  -28.9530   20.5700 C   0  0  0  0  0  3  0  0  0  0  0  0
  -26.2530  -27.2920   19.2210 C   0  0  0  0  0  3  0  0  0  0  0  0
  -25.0530  -28.0170   19.3200 C   0  0  0  0  0  3  0  0  0  0  0  0
  -23.7400  -30.0290   20.1870 C   0  0  0  0  0  2  0  0  0  0  0  0
  -24.7900  -31.1860   22.1760 N   0  0  0  0  0  0  0  0  0  0  0  0
  -23.6430  -32.1010   23.9100 O   0  0  0  0  0  0  0  0  0  0  0  0
  -22.9410  -29.4730   22.5150 C   0  0  0  0  0  0  0  0  0  0  0  0
  -21.6380  -29.1930   22.3500 N   0  0  0  0  0  0  0  0  0  0  0  0
  -23.6540  -28.8660   23.3200 O   0  0  0  0  0  0  0  0  0  0  0  0
  -21.1180  -29.7420   21.6780 H   0  0  0  0  0  0  0  0  0  0  0  0
  -18.3810  -27.6480   22.6540 C   0  0  0  0  0  0  0  0  0  0  0  0
  -20.8840  -28.1570   23.0580 C   0  0  0  0  0  3  0  0  0  0  0  0
  -21.1580  -26.7590   22.4560 C   0  0  0  0  0  2  0  0  0  0  0  0
  -20.1450  -26.3550   21.3820 C   0  0  0  0  0  2  0  0  0  0  0  0
  -18.7280  -26.3420   21.9580 C   0  0  0  0  0  2  0  0  0  0  0  0
  -19.3950  -28.5070   23.1560 C   0  0  0  0  0  0  0  0  0  0  0  0
  -19.0190  -29.7260   23.7630 C   0  0  0  0  0  3  0  0  0  0  0  0
  -17.6630  -30.0880   23.8760 C   0  0  0  0  0  3  0  0  0  0  0  0
  -16.6650  -29.2260   23.3900 C   0  0  0  0  0  3  0  0  0  0  0  0
  -17.0240  -28.0080   22.7850 C   0  0  0  0  0  3  0  0  0  0  0  0
  -25.9960  -32.5500   23.9690 C   0  0  0  0  0  3  0  0  0  0  0  0
  -25.6560  -33.9270   24.3520 N   0  0  0  0  0  0  0  0  0  0  0  0
  -25.9800  -35.0170   23.6430 C   0  0  0  0  0  0  0  0  0  0  0  0
  -26.6670  -34.9700   22.6190 O   0  0  0  0  0  0  0  0  0  0  0  0
  -25.0480  -34.0360   25.1500 H   0  0  0  0  0  0  0  0  0  0  0  0
  -24.2320  -36.7990   23.3310 C   0  0  0  0  0  1  0  0  0  0  0  0
  -25.4600  -36.3760   24.1510 C   0  0  0  0  0  3  0  0  0  0  0  0
  -27.5620  -37.2520   25.0720 C   0  0  0  0  0  1  0  0  0  0  0  0
  -26.4790  -37.4480   24.1110 N   0  0  0  0  0  0  0  0  0  0  0  0
  -26.0540  -38.3540   24.2920 H   0  0  0  0  0  0  0  0  0  0  0  0
  -26.5380  -31.7450   25.2130 C   0  0  1  0  0  0  0  0  0  0  0  0
  -25.4540  -31.4310   26.2700 C   0  0  0  0  0  1  0  0  0  0  0  0
  -27.1670  -30.4040   24.7700 C   0  0  0  0  0  1  0  0  0  0  0  0
  -27.6620  -32.5500   25.9080 C   0  0  0  0  0  1  0  0  0  0  0  0
  1  5  2  0
  1  4  1  0
  2  6  1  0
  3  6  2  0
  4  2  2  0
  5  3  1  0
  6 52  1  0
  7  4  1  0
  8  5  1  0
  9  3  1  0
  9 10  1  0
 10 22  1  0
 11  9  1  0
 11 10  1  0
 11 12  1  1
 13 11  1  0
 14 22  1  0
 15 20  1  0
 16 17  1  0
 16 15  1  0
 18 17  1  0
 18 27  1  0
 18 19  1  0
 20 14  1  0
 20 19  1  0
 21 14  2  0
 22 23  1  0
 24 25  2  0
 25 26  1  0
 25 44  1  0
 26 29  1  0
 27 24  1  0
 27 28  1  0
 28 26  2  0
 29 30  1  0
 30 31  2  0
 32 31  1  0
 33 32  2  0
 34 33  1  0
 34 29  2  0
 35 32  1  0
 35 36  1  0
 36 37  1  0
 37 38  2  0
 39 38  1  0
 39 43  1  0
 40 39  2  0
 41 36  2  0
 41 40  1  0
 42 41  1  0
 44 45  1  0
 45 48  1  0
 45 47  1  0
 46 44  2  0
 49 50  1  0
 49 24  1  0
 51 49  1  0
 53 52  1  0
 53 54  1  0
 55 56  1  0
 55 54  2  0
 56 58  1  0
 57 68  2  0
 58 63  1  0
 59 67  1  0
 59 69  1  0
 60 66  1  0
 60 62  1  0
 61 67  1  0
 62 61  1  0
 63 62  2  0
 64 65  1  0
 64 58  2  0
 65 60  2  0
 66 59  1  0
 67 57  1  0
 69 71  2  0
 70 69  1  0
 72 70  1  0
 73 82  2  0
 73 78  1  0
 74 70  1  0
 74 78  1  0
 75 74  1  0
 76 77  1  0
 76 75  1  0
 77 73  1  0
 78 79  2  0
 79 80  1  0
 81 80  2  0
 82 81  1  0
 83 57  1  0
 83 84  1  0
 83 93  1  0
 84 87  1  0
 85 89  1  0
 85 84  1  0
 86 85  2  0
 89 88  1  0
 91 89  1  0
 91 92  1  0
 91 90  1  0
 93 96  1  1
 93 94  1  0
 95 93  1  0
M  ISO  4  14 100  22 100  55 101  56 101
M  END
>  <TORSDO>  (15) 
F 21

>  <SCORE>  (15) 
-10.895

>  <name>  (15) 
14

>  <ligand_id>  (15) 
14

>  <original_smiles>  (15) 
[H]c1c([H])c([H])c2c(c1[H])C([H])([H])C([H])([H])C([H])([H])C2([H])N([H])C(=O)C1([H])N(C(=O)C([H])(N([H])C(=O)C([H])(N([H])C([H])([H])[H])C([H])([H])[H])C(C([H])([H])[H])(C([H])([H])[H])C([H])([H])[H])C([H])([H])c2c([H])c(OC([H])([H])C([H])([H])C([H])([H])Oc3c([H])c(C([H])([H])[H])c([H])c(C([H])([H])[H])c3C3([H])C([H])(N([H])C(=O)N4C([H])([H])C([H])([H])C([H])([H])C([H])(n5nc(-c6c([H])c([H])c(Oc7c([H])c([H])c(F)c([H])c7F)c([H])c6[H])c(C(=O)N([H])[H])c5N([H])[H])C4([H])[H])C3(C([H])([H])[H])C([H])([H])[H])c([H])c([H])c2C1([H])[H]

>  <smiles>  (15) 
[H]c1c([H])c([H])c2c(c1[H])C([H])([H])C([H])([H])C([H])([H])C2([H])N([H])C(=O)C1([H])N(C(=O)C([H])(N([H])C(=O)C([H])(N([H])C([H])([H])[H])C([H])([H])[H])C(C([H])([H])[H])(C([H])([H])[H])C([H])([H])[H])C([H])([H])c2c([H])c(OC([H])([H])C([H])([H])C([H])([H])Oc3c([H])c(C([H])([H])[H])c([H])c(C([H])([H])[H])c3C3([H])C([H])(N([H])C(=O)N4C([H])([H])C([H])([H])C([H])([H])C([H])(n5nc(-c6c([H])c([H])c(Oc7c([H])c([H])c(F)c([H])c7F)c([H])c6[H])c(C(=O)N([H])[H])c5N([H])[H])C4([H])[H])C3(C([H])([H])[H])C([H])([H])[H])c([H])c([H])c2C1([H])[H]

$$$$
15:0:0
     RDKit          3D

 93101  0  0  1  0  0  0  0  0999 V2000
  -28.8590  -22.2710   20.3930 N   0  0  0  0  0  4  0  0  0  0  0  0
  -28.9050  -22.1000   21.3830 H   0  0  0  0  0  0  0  0  0  0  0  0
  -27.8940  -22.1350   20.1280 H   0  0  0  0  0  0  0  0  0  0  0  0
  -30.5730  -24.1080   20.7860 C   0  0  0  0  0  1  0  0  0  0  0  0
  -29.2340  -23.7530   20.1070 C   0  0  0  0  0  3  0  0  0  0  0  0
  -28.1200  -24.8940   20.4410 C   0  0  0  0  0  2  0  0  0  0  0  0
  -28.3820  -26.3800   20.2820 O   0  0  0  0  0  0  0  0  0  0  0  0
  -24.6150  -31.9040   23.1850 C   0  0  0  0  0  0  0  0  0  0  0  0
  -27.2820  -27.2750   20.2210 C   0  0  0  0  0  0  0  0  0  0  0  0
  -23.4540  -30.4930   21.5320 C   0  0  0  0  0  3  0  0  0  0  0  0
  -24.9330  -28.9360   20.1460 C   0  0  0  0  0  0  0  0  0  0  0  0
  -26.0030  -30.7980   21.4080 C   0  0  0  0  0  2  0  0  0  0  0  0
  -26.0930  -29.4120   20.7680 C   0  0  0  0  0  0  0  0  0  0  0  0
  -27.2730  -28.5940   20.7920 C   0  0  0  0  0  3  0  0  0  0  0  0
  -26.0950  -26.8760   19.5650 C   0  0  0  0  0  3  0  0  0  0  0  0
  -24.9390  -27.6760   19.5340 C   0  0  0  0  0  3  0  0  0  0  0  0
  -23.6970  -29.8140   20.1610 C   0  0  0  0  0  2  0  0  0  0  0  0
  -24.7090  -31.0840   22.0970 N   0  0  0  0  0  0  0  0  0  0  0  0
  -23.5170  -32.1810   23.6900 O   0  0  0  0  0  0  0  0  0  0  0  0
  -22.7710  -29.4800   22.4830 C   0  0  0  0  0  0  0  0  0  0  0  0
  -21.4490  -29.2950   22.3250 N   0  0  0  0  0  0  0  0  0  0  0  0
  -23.4310  -28.8630   23.3230 O   0  0  0  0  0  0  0  0  0  0  0  0
  -20.9730  -29.8430   21.6230 H   0  0  0  0  0  0  0  0  0  0  0  0
  -18.0720  -28.0600   22.7350 C   0  0  0  0  0  0  0  0  0  0  0  0
  -20.6150  -28.3600   23.0870 C   0  0  0  0  0  3  0  0  0  0  0  0
  -20.7560  -26.9200   22.5390 C   0  0  0  0  0  2  0  0  0  0  0  0
  -19.6930  -26.5640   21.4950 C   0  0  0  0  0  2  0  0  0  0  0  0
  -18.2890  -26.7030   22.0890 C   0  0  0  0  0  2  0  0  0  0  0  0
  -19.1640  -28.8450   23.1910 C   0  0  0  0  0  0  0  0  0  0  0  0
  -18.9070  -30.1150   23.7540 C   0  0  0  0  0  3  0  0  0  0  0  0
  -17.5890  -30.5980   23.8660 C   0  0  0  0  0  3  0  0  0  0  0  0
  -16.5100  -29.8090   23.4290 C   0  0  0  0  0  3  0  0  0  0  0  0
  -16.7530  -28.5420   22.8690 C   0  0  0  0  0  3  0  0  0  0  0  0
  -25.8790  -32.5450   23.8340 C   0  0  0  0  0  3  0  0  0  0  0  0
  -26.3750  -31.7790   25.1220 C   0  0  1  0  0  0  0  0  0  0  0  0
  -25.2620  -31.5380   26.1690 C   0  0  0  0  0  1  0  0  0  0  0  0
  -26.9690  -30.4030   24.7460 C   0  0  0  0  0  1  0  0  0  0  0  0
  -27.5110  -32.5820   25.8010 C   0  0  0  0  0  1  0  0  0  0  0  0
  -25.5470  -33.9390   24.1620 N   0  0  0  0  0  0  0  0  0  0  0  0
  -25.8920  -35.0000   23.4220 C   0  0  0  0  0  0  0  0  0  0  0  0
  -26.5880  -34.9100   22.4070 O   0  0  0  0  0  0  0  0  0  0  0  0
  -24.9210  -34.0830   24.9400 H   0  0  0  0  0  0  0  0  0  0  0  0
  -24.1620  -36.7890   23.0460 C   0  0  0  0  0  1  0  0  0  0  0  0
  -25.3860  -36.3820   23.8800 C   0  0  0  0  0  3  0  0  0  0  0  0
  -27.5000  -37.2720   24.7610 C   0  0  0  0  0  1  0  0  0  0  0  0
  -26.4130  -37.4430   23.8010 N   0  0  0  0  0  0  0  0  0  0  0  0
  -25.9980  -38.3590   23.9510 H   0  0  0  0  0  0  0  0  0  0  0  0
  -29.6080  -21.1080   19.7130 C   0  0  0  0  0  2  0  0  0  0  0  0
  -30.3910  -19.8450   21.8160 C   0  0  0  0  0  3  0  0  0  0  0  0
  -30.7110  -17.4360   21.8590 C   0  0  0  0  0  3  0  0  0  0  0  0
  -30.8040  -18.6870   22.5080 C   0  0  0  0  0  0  0  0  0  0  0  0
  -29.8770  -19.7490   20.5090 C   0  0  0  0  0  0  0  0  0  0  0  0
  -30.1930  -17.3180   20.5470 C   0  0  0  0  0  0  0  0  0  0  0  0
  -31.3410  -18.7910   23.9360 C   0  0  0  0  0  1  0  0  0  0  0  0
  -29.7690  -18.4900   19.9110 N   0  0  0  0  0  0  0  0  0  0  0  0
  -30.7570  -14.8120   19.9520 C   0  0  0  0  0  0  0  0  0  0  0  0
  -30.4940  -12.5330   18.9320 C   0  0  0  0  0  2  0  0  0  0  0  0
  -29.4810  -12.5750   17.7660 C   0  0  0  0  0  2  0  0  0  0  0  0
  -28.0420  -12.3970   18.2980 C   0  0  0  0  0  2  0  0  0  0  0  0
  -27.7300  -13.3220   19.5020 C   0  0  0  0  0  3  0  0  0  0  0  0
  -28.8530  -13.2580   20.5600 C   0  0  0  0  0  2  0  0  0  0  0  0
  -30.1120  -13.5980   19.8870 N   0  0  0  0  0  0  0  0  0  0  0  0
  -31.9460  -14.8930   19.6300 O   0  0  0  0  0  0  0  0  0  0  0  0
  -29.9530  -15.9420   20.0610 N   0  0  0  0  0  0  0  0  0  0  0  0
  -28.9780  -15.7350   19.9310 H   0  0  0  0  0  0  0  0  0  0  0  0
  -25.4140  -13.9510   20.4150 C   0  0  0  0  0  0  0  0  0  0  0  0
  -24.3580  -13.1920   20.8390 C   0  0  0  0  0  0  0  0  0  0  0  0
  -24.7870  -11.8310   20.7470 C   0  0  0  0  0  0  0  0  0  0  0  0
  -26.4160  -13.0520   20.0810 N   0  0  0  0  0  0  0  0  0  0  0  0
  -26.0490  -11.7720   20.3450 N   0  0  0  0  0  0  0  0  0  0  0  0
  -24.0470  -10.5800   20.9560 C   0  0  0  0  0  0  0  0  0  0  0  0
  -24.5030   -9.5950   21.8600 C   0  0  0  0  0  3  0  0  0  0  0  0
  -23.7660   -8.4100   22.0580 C   0  0  0  0  0  3  0  0  0  0  0  0
  -22.5590   -8.1980   21.3510 C   0  0  0  0  0  0  0  0  0  0  0  0
  -22.1190   -9.1710   20.4350 C   0  0  0  0  0  3  0  0  0  0  0  0
  -22.8570  -10.3500   20.2350 C   0  0  0  0  0  3  0  0  0  0  0  0
  -21.7950   -7.0620   21.4510 O   0  0  0  0  0  0  0  0  0  0  0  0
  -21.7580   -6.3200   22.6080 C   0  0  0  0  0  0  0  0  0  0  0  0
  -21.3670   -6.8840   23.8410 C   0  0  0  0  0  3  0  0  0  0  0  0
  -21.2800   -6.0700   24.9900 C   0  0  0  0  0  3  0  0  0  0  0  0
  -21.5720   -4.6970   24.9060 C   0  0  0  0  0  0  0  0  0  0  0  0
  -21.9580   -4.1330   23.6780 C   0  0  0  0  0  3  0  0  0  0  0  0
  -22.0490   -4.9420   22.5300 C   0  0  0  0  0  0  0  0  0  0  0  0
  -22.4010   -4.3900   21.3450 F   0  0  0  0  0  0  0  0  0  0  0  0
  -21.4770   -3.9150   26.0070 F   0  0  0  0  0  0  0  0  0  0  0  0
  -22.9910  -13.6940   21.2120 C   0  0  0  0  0  0  0  0  0  0  0  0
  -22.3010  -13.0020   22.1120 N   0  0  0  0  0  0  0  0  0  0  0  0
  -22.5430  -14.7380   20.7390 O   0  0  0  0  0  0  0  0  0  0  0  0
  -22.6700  -12.1610   22.5290 H   0  0  0  0  0  0  0  0  0  0  0  0
  -21.3900  -13.3320   22.3990 H   0  0  0  0  0  0  0  0  0  0  0  0
  -25.5930  -15.3240   20.2610 N   0  0  0  0  0  0  0  0  0  0  0  0
  -24.8340  -15.9780   20.4200 H   0  0  0  0  0  0  0  0  0  0  0  0
  -26.3980  -15.7580   19.8320 H   0  0  0  0  0  0  0  0  0  0  0  0
  1  2  1  0
  3  1  1  0
  5  1  1  0
  5  6  1  0
  5  4  1  0
  7  6  1  0
  8 19  2  0
  9  7  1  0
  9 14  1  0
 10 18  1  0
 10 20  1  0
 11 17  1  0
 11 13  1  0
 12 18  1  0
 13 14  2  0
 13 12  1  0
 15  9  2  0
 16 15  1  0
 16 11  2  0
 17 10  1  0
 18  8  1  0
 20 22  2  0
 21 20  1  0
 23 21  1  0
 24 33  2  0
 24 29  1  0
 25 21  1  0
 25 29  1  0
 26 25  1  0
 27 28  1  0
 27 26  1  0
 28 24  1  0
 29 30  2  0
 30 31  1  0
 32 31  2  0
 33 32  1  0
 34  8  1  0
 34 39  1  0
 34 35  1  0
 35 38  1  1
 35 36  1  0
 37 35  1  0
 39 42  1  0
 40 44  1  0
 40 39  1  0
 41 40  2  0
 44 43  1  0
 46 44  1  0
 46 47  1  0
 46 45  1  0
 48  1  1  0
 48 52  1  0
 49 51  1  0
 50 51  2  0
 51 54  1  0
 52 49  2  0
 53 50  1  0
 55 52  1  0
 55 53  2  0
 56 64  1  0
 57 62  1  0
 58 59  1  0
 58 57  1  0
 60 59  1  0
 60 69  1  0
 60 61  1  0
 62 56  1  0
 62 61  1  0
 63 56  2  0
 64 53  1  0
 65 64  1  0
 66 67  2  0
 67 86  1  0
 68 67  1  0
 68 71  1  0
 69 70  1  0
 69 66  1  0
 70 68  2  0
 71 72  1  0
 72 73  2  0
 74 77  1  0
 74 73  1  0
 75 74  2  0
 76 75  1  0
 76 71  2  0
 77 78  1  0
 78 79  1  0
 79 80  2  0
 81 80  1  0
 81 85  1  0
 82 81  2  0
 83 78  2  0
 83 82  1  0
 84 83  1  0
 86 87  1  0
 87 90  1  0
 87 89  1  0
 88 86  2  0
 91 66  1  0
 91 92  1  0
 93 91  1  0
M  ISO  4   6 101   7 101  56 100  64 100
M  END
>  <TORSDO>  (16) 
F 20

>  <SCORE>  (16) 
-12.897

>  <name>  (16) 
15

>  <ligand_id>  (16) 
15

>  <original_smiles>  (16) 
[H]c1c([H])c([H])c2c(c1[H])C([H])([H])C([H])([H])C([H])([H])C2([H])N([H])C(=O)C1([H])N(C(=O)C([H])(N([H])C(=O)C([H])(N([H])C([H])([H])[H])C([H])([H])[H])C(C([H])([H])[H])(C([H])([H])[H])C([H])([H])[H])C([H])([H])c2c([H])c(OC([H])([H])C([H])(C([H])([H])[H])[N+]([H])([H])C([H])([H])c3nc(N([H])C(=O)N4C([H])([H])C([H])([H])C([H])([H])C([H])(n5nc(-c6c([H])c([H])c(Oc7c([H])c([H])c(F)c([H])c7F)c([H])c6[H])c(C(=O)N([H])[H])c5N([H])[H])C4([H])[H])c([H])c(C([H])([H])[H])c3[H])c([H])c([H])c2C1([H])[H]

>  <smiles>  (16) 
[H]c1c([H])c([H])c2c(c1[H])C([H])([H])C([H])([H])C([H])([H])C2([H])N([H])C(=O)C1([H])N(C(=O)C([H])(N([H])C(=O)C([H])(N([H])C([H])([H])[H])C([H])([H])[H])C(C([H])([H])[H])(C([H])([H])[H])C([H])([H])[H])C([H])([H])c2c([H])c(OC([H])([H])C([H])(C([H])([H])[H])[N+]([H])([H])C([H])([H])c3nc(N([H])C(=O)N4C([H])([H])C([H])([H])C([H])([H])C([H])(n5nc(-c6c([H])c([H])c(Oc7c([H])c([H])c(F)c([H])c7F)c([H])c6[H])c(C(=O)N([H])[H])c5N([H])[H])C4([H])[H])c([H])c(C([H])([H])[H])c3[H])c([H])c([H])c2C1([H])[H]

$$$$
16:0:0
     RDKit          3D

 93103  0  0  1  0  0  0  0  0999 V2000
  -27.8930  -22.8680   19.7520 C   0  0  0  0  0  3  0  0  0  0  0  0
  -29.1030  -23.5790   20.0000 C   0  0  0  0  0  0  0  0  0  0  0  0
  -28.1040  -21.5050   19.6260 C   0  0  0  0  0  0  0  0  0  0  0  0
  -30.0340  -22.5010   20.0230 C   0  0  0  0  0  0  0  0  0  0  0  0
  -31.5190  -22.6020   20.1690 C   0  0  0  0  0  1  0  0  0  0  0  0
  -29.4500  -21.1780   19.8510 N   0  0  0  0  0  0  0  0  0  0  0  0
  -31.0370  -15.0530   20.0040 C   0  0  0  0  0  0  0  0  0  0  0  0
  -30.7570  -12.7070   19.1140 C   0  0  0  0  0  2  0  0  0  0  0  0
  -29.8070  -12.6750   17.9000 C   0  0  0  0  0  2  0  0  0  0  0  0
  -28.3460  -12.5240   18.3600 C   0  0  0  0  0  2  0  0  0  0  0  0
  -27.9870  -13.4750   19.5350 C   0  0  0  0  0  3  0  0  0  0  0  0
  -29.0710  -13.5110   20.6330 C   0  0  0  0  0  2  0  0  0  0  0  0
  -30.3380  -13.8520   19.9740 N   0  0  0  0  0  0  0  0  0  0  0  0
  -32.2450  -14.9950   19.7510 O   0  0  0  0  0  0  0  0  0  0  0  0
  -29.9680  -18.7250   18.6800 C   0  0  0  0  0  2  0  0  0  0  0  0
  -29.7460  -18.7110   21.0630 C   0  0  0  0  0  2  0  0  0  0  0  0
  -30.6870  -17.2740   18.8050 C   0  0  0  0  0  2  0  0  0  0  0  0
  -30.4620  -17.2680   21.1420 C   0  0  0  0  0  2  0  0  0  0  0  0
  -30.1150  -19.7220   19.8940 C   0  0  0  0  0  3  0  0  0  0  0  0
  -30.3950  -16.3330   19.9620 N   0  0  0  0  0  0  0  0  0  0  0  0
  -25.6500  -14.1040   20.3530 C   0  0  0  0  0  0  0  0  0  0  0  0
  -24.5670  -13.3540   20.7220 C   0  0  0  0  0  0  0  0  0  0  0  0
  -24.9860  -11.9900   20.6510 C   0  0  0  0  0  0  0  0  0  0  0  0
  -26.6570  -13.2010   20.0700 N   0  0  0  0  0  0  0  0  0  0  0  0
  -26.2690  -11.9210   20.3160 N   0  0  0  0  0  0  0  0  0  0  0  0
  -24.2200  -10.7490   20.8280 C   0  0  0  0  0  0  0  0  0  0  0  0
  -24.6100   -9.7620   21.7600 C   0  0  0  0  0  3  0  0  0  0  0  0
  -23.8440   -8.5870   21.9230 C   0  0  0  0  0  3  0  0  0  0  0  0
  -22.6720   -8.3910   21.1570 C   0  0  0  0  0  0  0  0  0  0  0  0
  -22.2990   -9.3660   20.2140 C   0  0  0  0  0  3  0  0  0  0  0  0
  -23.0650  -10.5310   20.0490 C   0  0  0  0  0  3  0  0  0  0  0  0
  -21.8790   -7.2720   21.2310 O   0  0  0  0  0  0  0  0  0  0  0  0
  -21.7470   -6.5600   22.3960 C   0  0  0  0  0  0  0  0  0  0  0  0
  -21.2490   -7.1500   23.5770 C   0  0  0  0  0  3  0  0  0  0  0  0
  -21.0650   -6.3640   24.7330 C   0  0  0  0  0  3  0  0  0  0  0  0
  -21.3670   -4.9900   24.7070 C   0  0  0  0  0  0  0  0  0  0  0  0
  -21.8560   -4.4000   23.5280 C   0  0  0  0  0  3  0  0  0  0  0  0
  -22.0440   -5.1820   22.3750 C   0  0  0  0  0  0  0  0  0  0  0  0
  -22.4970   -4.6040   21.2370 F   0  0  0  0  0  0  0  0  0  0  0  0
  -21.1810   -4.2340   25.8150 F   0  0  0  0  0  0  0  0  0  0  0  0
  -23.1910  -13.8710   21.0290 C   0  0  0  0  0  0  0  0  0  0  0  0
  -22.4720  -13.2010   21.9230 N   0  0  0  0  0  0  0  0  0  0  0  0
  -22.7680  -14.9060   20.5170 O   0  0  0  0  0  0  0  0  0  0  0  0
  -22.8300  -12.3630   22.3580 H   0  0  0  0  0  0  0  0  0  0  0  0
  -21.5510  -13.5310   22.1750 H   0  0  0  0  0  0  0  0  0  0  0  0
  -25.8540  -15.4730   20.2100 N   0  0  0  0  0  0  0  0  0  0  0  0
  -25.1120  -16.1480   20.3630 H   0  0  0  0  0  0  0  0  0  0  0  0
  -26.7210  -15.8980   19.9010 H   0  0  0  0  0  0  0  0  0  0  0  0
  -27.3070  -19.4210   18.2520 C   0  0  0  0  0  2  0  0  0  0  0  0
  -26.2940  -20.5170   18.0140 C   0  0  0  0  0  2  0  0  0  0  0  0
  -27.0710  -20.4740   19.3100 C   0  0  0  0  0  3  0  0  0  0  0  0
  -29.2830  -25.2220   20.0000 C   0  0  0  0  0  2  0  0  0  0  0  0
  -28.7130  -26.2520   20.9880 O   0  0  0  0  0  0  0  0  0  0  0  0
  -24.7030  -31.9190   23.3550 C   0  0  0  0  0  0  0  0  0  0  0  0
  -27.6290  -27.1640   20.7490 C   0  0  0  0  0  0  0  0  0  0  0  0
  -23.6760  -30.4350   21.6740 C   0  0  0  0  0  3  0  0  0  0  0  0
  -25.2700  -28.8300   20.4520 C   0  0  0  0  0  0  0  0  0  0  0  0
  -26.2270  -30.7440   21.7280 C   0  0  0  0  0  2  0  0  0  0  0  0
  -26.3780  -29.3300   21.1460 C   0  0  0  0  0  0  0  0  0  0  0  0
  -27.5530  -28.5070   21.2880 C   0  0  0  0  0  3  0  0  0  0  0  0
  -26.4890  -26.7430   20.0320 C   0  0  0  0  0  3  0  0  0  0  0  0
  -25.3350  -27.5460   19.8870 C   0  0  0  0  0  3  0  0  0  0  0  0
  -24.0290  -29.7050   20.3500 C   0  0  0  0  0  2  0  0  0  0  0  0
  -24.8830  -31.0570   22.3090 N   0  0  0  0  0  0  0  0  0  0  0  0
  -23.5700  -32.2110   23.7690 O   0  0  0  0  0  0  0  0  0  0  0  0
  -22.9260  -29.4560   22.6130 C   0  0  0  0  0  0  0  0  0  0  0  0
  -21.6010  -29.3240   22.4270 N   0  0  0  0  0  0  0  0  0  0  0  0
  -23.5390  -28.8250   23.4760 O   0  0  0  0  0  0  0  0  0  0  0  0
  -21.1660  -29.8900   21.7130 H   0  0  0  0  0  0  0  0  0  0  0  0
  -18.1490  -28.3310   22.8880 C   0  0  0  0  0  0  0  0  0  0  0  0
  -20.7180  -28.4190   23.1670 C   0  0  0  0  0  3  0  0  0  0  0  0
  -20.7290  -27.0000   22.5530 C   0  0  0  0  0  2  0  0  0  0  0  0
  -19.6130  -26.7790   21.5270 C   0  0  0  0  0  2  0  0  0  0  0  0
  -18.2400  -26.9950   22.1680 C   0  0  0  0  0  2  0  0  0  0  0  0
  -19.3120  -29.0070   23.3410 C   0  0  0  0  0  0  0  0  0  0  0  0
  -19.1720  -30.2620   23.9730 C   0  0  0  0  0  3  0  0  0  0  0  0
  -17.9020  -30.8410   24.1490 C   0  0  0  0  0  3  0  0  0  0  0  0
  -16.7530  -30.1610   23.7090 C   0  0  0  0  0  3  0  0  0  0  0  0
  -16.8760  -28.9070   23.0870 C   0  0  0  0  0  3  0  0  0  0  0  0
  -25.9090  -32.6010   24.0710 C   0  0  0  0  0  3  0  0  0  0  0  0
  -25.5470  -34.0050   24.3250 N   0  0  0  0  0  0  0  0  0  0  0  0
  -25.8950  -35.0380   23.5450 C   0  0  0  0  0  0  0  0  0  0  0  0
  -26.6240  -34.9130   22.5580 O   0  0  0  0  0  0  0  0  0  0  0  0
  -24.9170  -34.1760   25.0950 H   0  0  0  0  0  0  0  0  0  0  0  0
  -24.1320  -36.7620   23.0430 C   0  0  0  0  0  1  0  0  0  0  0  0
  -25.3490  -36.4300   23.9200 C   0  0  0  0  0  3  0  0  0  0  0  0
  -27.4180  -37.4200   24.7950 C   0  0  0  0  0  1  0  0  0  0  0  0
  -26.3520  -37.5080   23.8020 N   0  0  0  0  0  0  0  0  0  0  0  0
  -25.9120  -38.4200   23.8890 H   0  0  0  0  0  0  0  0  0  0  0  0
  -26.3160  -31.8880   25.4200 C   0  0  1  0  0  0  0  0  0  0  0  0
  -25.1230  -31.6150   26.3660 C   0  0  0  0  0  1  0  0  0  0  0  0
  -27.0110  -30.5370   25.1370 C   0  0  0  0  0  1  0  0  0  0  0  0
  -27.3440  -32.7600   26.1820 C   0  0  0  0  0  1  0  0  0  0  0  0
  1  2  1  0
  2 52  1  0
  2  4  2  0
  3  1  2  0
  3  6  1  0
  4  5  1  0
  6 19  1  0
  6  4  1  0
  8 13  1  0
  9 10  1  0
  9  8  1  0
 11 10  1  0
 11 24  1  0
 11 12  1  0
 13  7  1  0
 13 12  1  0
 14  7  2  0
 15 17  1  0
 16 18  1  0
 17 20  1  0
 19 15  1  0
 19 16  1  0
 20  7  1  0
 20 18  1  0
 21 22  2  0
 22 41  1  0
 23 22  1  0
 23 26  1  0
 24 25  1  0
 24 21  1  0
 25 23  2  0
 26 27  1  0
 27 28  2  0
 29 32  1  0
 29 28  1  0
 30 29  2  0
 31 30  1  0
 31 26  2  0
 32 33  1  0
 33 34  1  0
 34 35  2  0
 36 35  1  0
 36 40  1  0
 37 36  2  0
 38 33  2  0
 38 37  1  0
 39 38  1  0
 41 42  1  0
 42 45  1  0
 42 44  1  0
 43 41  2  0
 46 21  1  0
 46 47  1  0
 48 46  1  0
 49 51  1  0
 50 49  1  0
 50 51  1  0
 51  3  1  0
 52 53  1  0
 54 65  2  0
 55 53  1  0
 55 60  1  0
 56 64  1  0
 56 66  1  0
 57 59  1  0
 58 64  1  0
 59 60  2  0
 59 58  1  0
 61 55  2  0
 62 61  1  0
 62 57  2  0
 63 57  1  0
 63 56  1  0
 64 54  1  0
 66 68  2  0
 67 66  1  0
 69 67  1  0
 70 79  2  0
 70 75  1  0
 71 67  1  0
 71 75  1  0
 72 71  1  0
 73 74  1  0
 73 72  1  0
 74 70  1  0
 75 76  2  0
 76 77  1  0
 78 77  2  0
 79 78  1  0
 80 54  1  0
 80 81  1  0
 80 90  1  0
 81 84  1  0
 82 86  1  0
 82 81  1  0
 83 82  2  0
 86 85  1  0
 88 89  1  0
 88 86  1  0
 88 87  1  0
 90 93  1  1
 90 91  1  0
 92 90  1  0
M  ISO  4   7 100  20 100  52 101  53 101
M  END
>  <TORSDO>  (17) 
F 18

>  <SCORE>  (17) 
-14.333

>  <name>  (17) 
16

>  <ligand_id>  (17) 
16

>  <original_smiles>  (17) 
[H]c1c([H])c([H])c2c(c1[H])C([H])([H])C([H])([H])C([H])([H])C2([H])N([H])C(=O)C1([H])N(C(=O)C([H])(N([H])C(=O)C([H])(N([H])C([H])([H])[H])C([H])([H])[H])C(C([H])([H])[H])(C([H])([H])[H])C([H])([H])[H])C([H])([H])c2c([H])c(OC([H])([H])c3c([H])c(C4([H])C([H])([H])C4([H])[H])n(C4([H])C([H])([H])C([H])([H])N(C(=O)N5C([H])([H])C([H])([H])C([H])([H])C([H])(n6nc(-c7c([H])c([H])c(Oc8c([H])c([H])c(F)c([H])c8F)c([H])c7[H])c(C(=O)N([H])[H])c6N([H])[H])C5([H])[H])C([H])([H])C4([H])[H])c3C([H])([H])[H])c([H])c([H])c2C1([H])[H]

>  <smiles>  (17) 
[H]c1c([H])c([H])c2c(c1[H])C([H])([H])C([H])([H])C([H])([H])C2([H])N([H])C(=O)C1([H])N(C(=O)C([H])(N([H])C(=O)C([H])(N([H])C([H])([H])[H])C([H])([H])[H])C(C([H])([H])[H])(C([H])([H])[H])C([H])([H])[H])C([H])([H])c2c([H])c(OC([H])([H])c3c([H])c(C4([H])C([H])([H])C4([H])[H])n(C4([H])C([H])([H])C([H])([H])N(C(=O)N5C([H])([H])C([H])([H])C([H])([H])C([H])(n6nc(-c7c([H])c([H])c(Oc8c([H])c([H])c(F)c([H])c8F)c([H])c7[H])c(C(=O)N([H])[H])c6N([H])[H])C5([H])[H])C([H])([H])C4([H])[H])c3C([H])([H])[H])c([H])c([H])c2C1([H])[H]

$$$$
17:0:0
     RDKit          3D

100110  0  0  1  0  0  0  0  0999 V2000
  -30.5930  -21.1830   22.1010 C   0  0  0  0  0  3  0  0  0  0  0  0
  -29.9900  -22.4510   22.1610 C   0  0  0  0  0  3  0  0  0  0  0  0
  -31.7930  -21.0430   21.3760 C   0  0  0  0  0  0  0  0  0  0  0  0
  -32.3540  -22.1890   20.7750 C   0  0  0  0  0  0  0  0  0  0  0  0
  -30.5980  -23.5290   21.4950 C   0  0  0  0  0  0  0  0  0  0  0  0
  -33.6420  -22.1170   19.9740 C   0  0  0  0  0  1  0  0  0  0  0  0
  -31.7720  -23.4000   20.8390 N   0  0  0  0  0  0  0  0  0  0  0  0
  -31.2070  -14.5040   21.5530 C   0  0  0  0  0  0  0  0  0  0  0  0
  -31.1790  -12.2020   20.7290 C   0  0  0  0  0  2  0  0  0  0  0  0
  -30.4820  -12.2030   19.3520 C   0  0  0  0  0  2  0  0  0  0  0  0
  -28.9510  -12.0900   19.5030 C   0  0  0  0  0  2  0  0  0  0  0  0
  -28.3570  -13.0620   20.5600 C   0  0  0  0  0  3  0  0  0  0  0  0
  -29.1900  -13.0350   21.8630 C   0  0  0  0  0  2  0  0  0  0  0  0
  -30.5960  -13.2970   21.5150 N   0  0  0  0  0  0  0  0  0  0  0  0
  -32.4260  -14.6480   21.4300 O   0  0  0  0  0  0  0  0  0  0  0  0
  -30.5510  -16.7440   19.3170 C   0  0  0  0  0  3  0  0  0  0  0  0
  -30.7070  -16.7120   20.7150 C   0  0  0  0  0  3  0  0  0  0  0  0
  -31.2210  -17.8180   18.6170 C   0  0  0  0  0  0  0  0  0  0  0  0
  -31.7900  -18.7520   20.5440 C   0  0  0  0  0  0  0  0  0  0  0  0
  -31.0600  -15.8380   18.2320 C   0  0  0  0  0  3  0  0  0  0  0  0
  -29.9890  -15.2920   17.2920 C   0  0  0  0  0  1  0  0  0  0  0  0
  -31.2120  -17.8240   21.3110 N   0  0  0  0  0  0  0  0  0  0  0  0
  -31.9380  -18.7640   19.2280 N   0  0  0  0  0  0  0  0  0  0  0  0
  -32.3830  -19.7930   21.1890 N   0  0  0  0  0  0  0  0  0  0  0  0
  -30.3710  -15.5470   21.4420 N   0  0  0  0  0  0  0  0  0  0  0  0
  -31.7350  -17.0110   17.6240 O   0  0  0  0  0  0  0  0  0  0  0  0
  -33.2630  -19.9700   20.7250 H   0  0  0  0  0  0  0  0  0  0  0  0
  -29.3930  -15.3200   21.5060 H   0  0  0  0  0  0  0  0  0  0  0  0
  -25.8610  -13.6460   20.8130 C   0  0  0  0  0  0  0  0  0  0  0  0
  -24.7590  -12.8650   21.0300 C   0  0  0  0  0  0  0  0  0  0  0  0
  -25.2420  -11.5260   21.1410 C   0  0  0  0  0  0  0  0  0  0  0  0
  -26.9470  -12.7810   20.8090 N   0  0  0  0  0  0  0  0  0  0  0  0
  -26.5660  -11.5040   21.0660 N   0  0  0  0  0  0  0  0  0  0  0  0
  -24.5180  -10.2550   21.2600 C   0  0  0  0  0  0  0  0  0  0  0  0
  -24.8050   -9.3350   22.2930 C   0  0  0  0  0  3  0  0  0  0  0  0
  -24.0850   -8.1250   22.3960 C   0  0  0  0  0  3  0  0  0  0  0  0
  -23.0620   -7.8280   21.4650 C   0  0  0  0  0  0  0  0  0  0  0  0
  -22.7970   -8.7360   20.4240 C   0  0  0  0  0  3  0  0  0  0  0  0
  -23.5180   -9.9360   20.3190 C   0  0  0  0  0  3  0  0  0  0  0  0
  -22.3250   -6.6680   21.4730 O   0  0  0  0  0  0  0  0  0  0  0  0
  -22.0820   -5.9790   22.6340 C   0  0  0  0  0  0  0  0  0  0  0  0
  -21.4360   -6.5810   23.7360 C   0  0  0  0  0  3  0  0  0  0  0  0
  -21.1430   -5.8150   24.8840 C   0  0  0  0  0  3  0  0  0  0  0  0
  -21.4850   -4.4500   24.9270 C   0  0  0  0  0  0  0  0  0  0  0  0
  -22.1220   -3.8480   23.8280 C   0  0  0  0  0  3  0  0  0  0  0  0
  -22.4180   -4.6110   22.6840 C   0  0  0  0  0  0  0  0  0  0  0  0
  -23.0120   -4.0200   21.6190 F   0  0  0  0  0  0  0  0  0  0  0  0
  -21.1970   -3.7140   26.0260 F   0  0  0  0  0  0  0  0  0  0  0  0
  -23.3260  -13.3150   21.0320 C   0  0  0  0  0  0  0  0  0  0  0  0
  -22.4740  -12.6440   21.7990 N   0  0  0  0  0  0  0  0  0  0  0  0
  -22.9660  -14.3000   20.3890 O   0  0  0  0  0  0  0  0  0  0  0  0
  -22.7760  -11.8500   22.3430 H   0  0  0  0  0  0  0  0  0  0  0  0
  -21.5070  -12.9270   21.8420 H   0  0  0  0  0  0  0  0  0  0  0  0
  -26.0290  -15.0120   20.5980 N   0  0  0  0  0  0  0  0  0  0  0  0
  -25.2330  -15.6380   20.5450 H   0  0  0  0  0  0  0  0  0  0  0  0
  -26.8990  -15.4600   20.3440 H   0  0  0  0  0  0  0  0  0  0  0  0
  -29.9630  -24.7530   21.4790 O   0  0  0  0  0  0  0  0  0  0  0  0
  -30.5130  -25.7940   20.6700 C   0  0  0  0  0  2  0  0  0  0  0  0
  -29.5560  -26.9930   20.6200 C   0  0  0  0  0  2  0  0  0  0  0  0
  -28.4820  -26.6850   19.7340 O   0  0  0  0  0  0  0  0  0  0  0  0
  -24.6120  -31.7090   23.0320 C   0  0  0  0  0  0  0  0  0  0  0  0
  -27.3360  -27.4420   19.8140 C   0  0  0  0  0  0  0  0  0  0  0  0
  -23.4150  -30.3270   21.3580 C   0  0  0  0  0  3  0  0  0  0  0  0
  -24.8930  -28.8660   19.8760 C   0  0  0  0  0  0  0  0  0  0  0  0
  -25.9250  -30.7610   21.1430 C   0  0  0  0  0  2  0  0  0  0  0  0
  -26.0370  -29.4080   20.4740 C   0  0  0  0  0  0  0  0  0  0  0  0
  -27.2580  -28.7030   20.4520 C   0  0  0  0  0  3  0  0  0  0  0  0
  -26.1780  -26.9130   19.2070 C   0  0  0  0  0  3  0  0  0  0  0  0
  -24.9560  -27.6140   19.2380 C   0  0  0  0  0  3  0  0  0  0  0  0
  -23.6250  -29.6880   19.9580 C   0  0  0  0  0  2  0  0  0  0  0  0
  -24.6690  -30.9440   21.9050 N   0  0  0  0  0  0  0  0  0  0  0  0
  -23.5320  -31.9420   23.5920 O   0  0  0  0  0  0  0  0  0  0  0  0
  -22.7990  -29.2660   22.2980 C   0  0  0  0  0  0  0  0  0  0  0  0
  -21.4760  -29.0700   22.1880 N   0  0  0  0  0  0  0  0  0  0  0  0
  -23.5060  -28.6230   23.0790 O   0  0  0  0  0  0  0  0  0  0  0  0
  -20.9650  -29.6440   21.5310 H   0  0  0  0  0  0  0  0  0  0  0  0
  -18.1250  -27.8210   22.7020 C   0  0  0  0  0  0  0  0  0  0  0  0
  -20.6830  -28.0960   22.9380 C   0  0  0  0  0  3  0  0  0  0  0  0
  -20.7900  -26.6880   22.3070 C   0  0  0  0  0  2  0  0  0  0  0  0
  -19.6730  -26.3900   21.3010 C   0  0  0  0  0  2  0  0  0  0  0  0
  -18.3020  -26.4970   21.9740 C   0  0  0  0  0  2  0  0  0  0  0  0
  -19.2430  -28.5780   23.1390 C   0  0  0  0  0  0  0  0  0  0  0  0
  -19.0230  -29.8170   23.7760 C   0  0  0  0  0  3  0  0  0  0  0  0
  -17.7160  -30.3000   23.9810 C   0  0  0  0  0  3  0  0  0  0  0  0
  -16.6120  -29.5390   23.5620 C   0  0  0  0  0  3  0  0  0  0  0  0
  -16.8170  -28.3010   22.9280 C   0  0  0  0  0  3  0  0  0  0  0  0
  -25.8950  -32.3450   23.6560 C   0  0  0  0  0  3  0  0  0  0  0  0
  -26.4600  -31.5280   24.8830 C   0  0  1  0  0  0  0  0  0  0  0  0
  -25.3980  -31.2170   25.9640 C   0  0  0  0  0  1  0  0  0  0  0  0
  -27.0640  -30.1840   24.4120 C   0  0  0  0  0  1  0  0  0  0  0  0
  -27.6080  -32.3190   25.5550 C   0  0  0  0  0  1  0  0  0  0  0  0
  -25.5590  -33.7180   24.0520 N   0  0  0  0  0  0  0  0  0  0  0  0
  -25.8630  -34.8110   23.3380 C   0  0  0  0  0  0  0  0  0  0  0  0
  -26.5270  -34.7690   22.2980 O   0  0  0  0  0  0  0  0  0  0  0  0
  -24.9660  -33.8240   24.8620 H   0  0  0  0  0  0  0  0  0  0  0  0
  -24.0890  -36.5730   23.0720 C   0  0  0  0  0  1  0  0  0  0  0  0
  -25.3450  -36.1640   23.8580 C   0  0  0  0  0  3  0  0  0  0  0  0
  -27.4650  -37.0580   24.7160 C   0  0  0  0  0  1  0  0  0  0  0  0
  -26.3500  -37.2460   23.7890 N   0  0  0  0  0  0  0  0  0  0  0  0
  -25.9240  -38.1480   23.9850 H   0  0  0  0  0  0  0  0  0  0  0  0
  1  2  2  0
  3  1  1  0
  4  7  1  0
  4  3  2  0
  5  2  1  0
  6  4  1  0
  7  5  2  0
  9 14  1  0
 10 11  1  0
 10  9  1  0
 12 11  1  0
 12 32  1  0
 12 13  1  0
 14  8  1  0
 14 13  1  0
 15  8  2  0
 16 18  1  0
 16 17  1  0
 17 22  1  0
 17 25  1  0
 18 23  2  0
 19 24  1  0
 19 22  2  0
 20 21  1  0
 20 16  1  0
 23 19  1  0
 24  3  1  0
 25 28  1  0
 25  8  1  0
 26 20  1  0
 26 18  1  0
 27 24  1  0
 29 30  2  0
 30 49  1  0
 30 31  1  0
 31 34  1  0
 32 29  1  0
 32 33  1  0
 33 31  2  0
 34 35  1  0
 35 36  2  0
 37 40  1  0
 37 36  1  0
 38 37  2  0
 39 38  1  0
 39 34  2  0
 40 41  1  0
 41 46  2  0
 41 42  1  0
 42 43  2  0
 43 44  1  0
 44 48  1  0
 45 44  2  0
 46 45  1  0
 47 46  1  0
 49 50  1  0
 50 53  1  0
 50 52  1  0
 51 49  2  0
 54 29  1  0
 55 54  1  0
 56 54  1  0
 57  5  1  0
 58 57  1  0
 59 58  1  0
 60 62  1  0
 60 59  1  0
 61 72  2  0
 62 67  1  0
 63 71  1  0
 63 73  1  0
 64 70  1  0
 64 66  1  0
 65 71  1  0
 66 65  1  0
 67 66  2  0
 68 69  1  0
 68 62  2  0
 69 64  2  0
 70 63  1  0
 71 61  1  0
 73 75  2  0
 74 73  1  0
 76 74  1  0
 77 86  2  0
 77 82  1  0
 78 74  1  0
 78 82  1  0
 79 78  1  0
 80 81  1  0
 80 79  1  0
 81 77  1  0
 82 83  2  0
 83 84  1  0
 85 84  2  0
 86 85  1  0
 87 61  1  0
 87 92  1  0
 87 88  1  0
 88 91  1  1
 88 89  1  0
 90 88  1  0
 92 95  1  0
 93 97  1  0
 93 92  1  0
 94 93  2  0
 97 96  1  0
 99 97  1  0
 99100  1  0
 99 98  1  0
M  ISO  4   8 100  25 100  59 101  60 101
M  END
>  <TORSDO>  (18) 
F 19

>  <SCORE>  (18) 
-9.958

>  <name>  (18) 
17

>  <ligand_id>  (18) 
17

>  <original_smiles>  (18) 
[H]c1c(OC([H])([H])C([H])([H])Oc2c([H])c([H])c3c(c2[H])C([H])([H])N(C(=O)C([H])(N([H])C(=O)C([H])(N([H])C([H])([H])[H])C([H])([H])[H])C(C([H])([H])[H])(C([H])([H])[H])C([H])([H])[H])C([H])(C(=O)N([H])C2([H])c4c([H])c([H])c([H])c([H])c4C([H])([H])C([H])([H])C2([H])[H])C3([H])[H])nc(C([H])([H])[H])c(N([H])c2nc3c(c(N([H])C(=O)N4C([H])([H])C([H])([H])C([H])([H])C([H])(n5nc(-c6c([H])c([H])c(Oc7c([H])c([H])c(F)c([H])c7F)c([H])c6[H])c(C(=O)N([H])[H])c5N([H])[H])C4([H])[H])n2)C([H])(C([H])([H])[H])O3)c1[H]

>  <smiles>  (18) 
[H]c1c(OC([H])([H])C([H])([H])Oc2c([H])c([H])c3c(c2[H])C([H])([H])N(C(=O)C([H])(N([H])C(=O)C([H])(N([H])C([H])([H])[H])C([H])([H])[H])C(C([H])([H])[H])(C([H])([H])[H])C([H])([H])[H])C([H])(C(=O)N([H])C2([H])c4c([H])c([H])c([H])c([H])c4C([H])([H])C([H])([H])C2([H])[H])C3([H])[H])nc(C([H])([H])[H])c(N([H])c2nc3c(c(N([H])C(=O)N4C([H])([H])C([H])([H])C([H])([H])C([H])(n5nc(-c6c([H])c([H])c(Oc7c([H])c([H])c(F)c([H])c7F)c([H])c6[H])c(C(=O)N([H])[H])c5N([H])[H])C4([H])[H])n2)C([H])(C([H])([H])[H])O3)c1[H]

$$$$
18:0:0
     RDKit          3D

 91100  0  0  1  0  0  0  0  0999 V2000
  -30.7960  -19.2650   19.0750 C   0  0  0  0  0  3  0  0  0  0  0  0
  -28.6220  -19.0910   19.8120 C   0  0  0  0  0  3  0  0  0  0  0  0
  -29.3490  -21.4920   19.0450 C   0  0  0  0  0  0  0  0  0  0  0  0
  -30.5700  -20.7120   18.8170 C   0  0  0  0  0  0  0  0  0  0  0  0
  -29.8360  -18.3140   19.5970 C   0  0  0  0  0  0  0  0  0  0  0  0
  -28.3830  -20.5520   19.5990 C   0  0  0  0  0  0  0  0  0  0  0  0
  -31.7620  -21.4790   18.2680 C   0  0  0  0  0  1  0  0  0  0  0  0
  -30.7890  -15.5520   19.7110 C   0  0  0  0  0  0  0  0  0  0  0  0
  -30.8240  -13.0500   19.0740 C   0  0  0  0  0  2  0  0  0  0  0  0
  -29.8730  -12.7360   17.8910 C   0  0  0  0  0  2  0  0  0  0  0  0
  -28.4360  -12.4910   18.3890 C   0  0  0  0  0  2  0  0  0  0  0  0
  -27.9950  -13.5450   19.4370 C   0  0  0  0  0  3  0  0  0  0  0  0
  -29.0670  -13.7820   20.5220 C   0  0  0  0  0  2  0  0  0  0  0  0
  -30.2850  -14.2340   19.8300 N   0  0  0  0  0  0  0  0  0  0  0  0
  -31.9810  -15.6140   19.3820 O   0  0  0  0  0  0  0  0  0  0  0  0
  -29.9250  -16.7290   19.8320 N   0  0  0  0  0  0  0  0  0  0  0  0
  -29.0490  -16.3900   20.1970 H   0  0  0  0  0  0  0  0  0  0  0  0
  -25.6720  -14.1450   20.3120 C   0  0  0  0  0  0  0  0  0  0  0  0
  -24.6120  -13.3830   20.7160 C   0  0  0  0  0  0  0  0  0  0  0  0
  -25.0470  -12.0250   20.6380 C   0  0  0  0  0  0  0  0  0  0  0  0
  -26.6820  -13.2510   19.9990 N   0  0  0  0  0  0  0  0  0  0  0  0
  -26.3210  -11.9680   20.2630 N   0  0  0  0  0  0  0  0  0  0  0  0
  -24.3030  -10.7740   20.8390 C   0  0  0  0  0  0  0  0  0  0  0  0
  -24.7340   -9.7970   21.7640 C   0  0  0  0  0  3  0  0  0  0  0  0
  -23.9870   -8.6140   21.9560 C   0  0  0  0  0  3  0  0  0  0  0  0
  -22.7960   -8.4000   21.2230 C   0  0  0  0  0  0  0  0  0  0  0  0
  -22.3830   -9.3640   20.2870 C   0  0  0  0  0  3  0  0  0  0  0  0
  -23.1310  -10.5370   20.0930 C   0  0  0  0  0  3  0  0  0  0  0  0
  -22.0220   -7.2680   21.3240 O   0  0  0  0  0  0  0  0  0  0  0  0
  -21.9500   -6.5460   22.4880 C   0  0  0  0  0  0  0  0  0  0  0  0
  -21.4870   -7.1200   23.6930 C   0  0  0  0  0  3  0  0  0  0  0  0
  -21.3620   -6.3240   24.8480 C   0  0  0  0  0  3  0  0  0  0  0  0
  -21.6900   -4.9570   24.8020 C   0  0  0  0  0  0  0  0  0  0  0  0
  -22.1460   -4.3810   23.6030 C   0  0  0  0  0  3  0  0  0  0  0  0
  -22.2710   -5.1740   22.4480 C   0  0  0  0  0  0  0  0  0  0  0  0
  -22.6900   -4.6100   21.2900 F   0  0  0  0  0  0  0  0  0  0  0  0
  -21.5650   -4.1900   25.9110 F   0  0  0  0  0  0  0  0  0  0  0  0
  -23.2400  -13.8830   21.0610 C   0  0  0  0  0  0  0  0  0  0  0  0
  -22.5440  -13.1940   21.9580 N   0  0  0  0  0  0  0  0  0  0  0  0
  -22.7970  -14.9210   20.5700 O   0  0  0  0  0  0  0  0  0  0  0  0
  -22.9150  -12.3530   22.3730 H   0  0  0  0  0  0  0  0  0  0  0  0
  -21.6240  -13.5110   22.2310 H   0  0  0  0  0  0  0  0  0  0  0  0
  -25.8560  -15.5170   20.1550 N   0  0  0  0  0  0  0  0  0  0  0  0
  -25.1110  -16.1820   20.3340 H   0  0  0  0  0  0  0  0  0  0  0  0
  -26.6930  -15.9490   19.7860 H   0  0  0  0  0  0  0  0  0  0  0  0
  -28.5960  -23.7750   17.5530 C   0  0  0  0  0  2  0  0  0  0  0  0
  -29.2410  -23.2220   18.8200 C   0  0  0  0  0  3  0  0  0  0  0  0
  -28.1500  -24.5880   18.7420 C   0  0  0  0  0  3  0  0  0  0  0  0
  -28.3460  -26.1880   18.5260 O   0  0  0  0  0  0  0  0  0  0  0  0
  -25.2000  -31.2620   23.0560 C   0  0  0  0  0  0  0  0  0  0  0  0
  -27.3560  -27.2490   18.7950 C   0  0  0  0  0  0  0  0  0  0  0  0
  -23.8450  -30.3480   21.2120 C   0  0  0  0  0  3  0  0  0  0  0  0
  -25.1290  -29.1060   19.3470 C   0  0  0  0  0  0  0  0  0  0  0  0
  -26.3970  -30.5380   20.9390 C   0  0  0  0  0  2  0  0  0  0  0  0
  -26.3670  -29.3320   19.9620 C   0  0  0  0  0  0  0  0  0  0  0  0
  -27.4770  -28.4320   19.6660 C   0  0  0  0  0  3  0  0  0  0  0  0
  -26.0910  -27.1590   18.1760 C   0  0  0  0  0  3  0  0  0  0  0  0
  -25.0120  -28.0390   18.4400 C   0  0  0  0  0  3  0  0  0  0  0  0
  -23.9550  -30.0150   19.6980 C   0  0  0  0  0  2  0  0  0  0  0  0
  -25.1730  -30.7260   21.7940 N   0  0  0  0  0  0  0  0  0  0  0  0
  -24.1590  -31.4430   23.7090 O   0  0  0  0  0  0  0  0  0  0  0  0
  -23.1690  -29.1640   21.9530 C   0  0  0  0  0  0  0  0  0  0  0  0
  -21.8290  -29.0630   21.8680 N   0  0  0  0  0  0  0  0  0  0  0  0
  -23.8540  -28.3440   22.5670 O   0  0  0  0  0  0  0  0  0  0  0  0
  -21.3300  -29.7810   21.3620 H   0  0  0  0  0  0  0  0  0  0  0  0
  -18.4300  -27.8820   22.3200 C   0  0  0  0  0  0  0  0  0  0  0  0
  -21.0130  -27.9880   22.4420 C   0  0  0  0  0  3  0  0  0  0  0  0
  -21.0010  -26.7460   21.5200 C   0  0  0  0  0  2  0  0  0  0  0  0
  -19.8180  -26.7270   20.5460 C   0  0  0  0  0  2  0  0  0  0  0  0
  -18.4910  -26.7490   21.3090 C   0  0  0  0  0  2  0  0  0  0  0  0
  -19.6120  -28.4760   22.8380 C   0  0  0  0  0  0  0  0  0  0  0  0
  -19.4960  -29.5480   23.7480 C   0  0  0  0  0  3  0  0  0  0  0  0
  -18.2310  -30.0290   24.1380 C   0  0  0  0  0  3  0  0  0  0  0  0
  -17.0650  -29.4300   23.6330 C   0  0  0  0  0  3  0  0  0  0  0  0
  -17.1660  -28.3550   22.7310 C   0  0  0  0  0  3  0  0  0  0  0  0
  -26.5370  -31.6860   23.7350 C   0  0  0  0  0  3  0  0  0  0  0  0
  -26.2940  -32.9350   24.4790 N   0  0  0  0  0  0  0  0  0  0  0  0
  -26.6080  -34.1610   24.0450 C   0  0  0  0  0  0  0  0  0  0  0  0
  -27.1980  -34.3600   22.9810 O   0  0  0  0  0  0  0  0  0  0  0  0
  -25.7700  -32.8530   25.3380 H   0  0  0  0  0  0  0  0  0  0  0  0
  -24.9170  -35.9970   24.3720 C   0  0  0  0  0  1  0  0  0  0  0  0
  -26.2010  -35.3580   24.9290 C   0  0  0  0  0  3  0  0  0  0  0  0
  -28.4130  -35.9370   25.8220 C   0  0  0  0  0  1  0  0  0  0  0  0
  -27.2550  -36.3880   25.0540 N   0  0  0  0  0  0  0  0  0  0  0  0
  -26.8890  -37.2260   25.4990 H   0  0  0  0  0  0  0  0  0  0  0  0
  -27.1200  -30.5840   24.7020 C   0  0  1  0  0  0  0  0  0  0  0  0
  -26.1040  -30.0790   25.7550 C   0  0  0  0  0  1  0  0  0  0  0  0
  -27.6170  -29.3600   23.9020 C   0  0  0  0  0  1  0  0  0  0  0  0
  -28.3490  -31.1430   25.4570 C   0  0  0  0  0  1  0  0  0  0  0  0
  -26.0870  -20.3430   20.3760 C   0  0  0  0  0  1  0  0  0  0  0  0
  -27.1870  -21.1510   19.9550 O   0  0  0  0  0  0  0  0  0  0  0  0
  1  5  1  0
  3  6  2  0
  4  3  1  0
  4  1  2  0
  5  2  2  0
  5 16  1  0
  6  2  1  0
  6 91  1  0
  7  4  1  0
  8 14  1  0
  8 16  1  0
  9 14  1  0
 10 11  1  0
 10  9  1  0
 12 11  1  0
 12 21  1  0
 12 13  1  0
 14 13  1  0
 15  8  2  0
 16 17  1  0
 18 19  2  0
 19 38  1  0
 20 19  1  0
 20 23  1  0
 21 22  1  0
 21 18  1  0
 22 20  2  0
 23 24  1  0
 24 25  2  0
 26 29  1  0
 26 25  1  0
 27 26  2  0
 28 27  1  0
 28 23  2  0
 29 30  1  0
 30 31  1  0
 31 32  2  0
 33 32  1  0
 33 37  1  0
 34 33  2  0
 35 30  2  0
 35 34  1  0
 36 35  1  0
 38 39  1  0
 39 42  1  0
 39 41  1  0
 40 38  2  0
 43 18  1  0
 43 44  1  0
 45 43  1  0
 46 48  1  0
 46 47  1  0
 47  3  1  0
 48 49  1  0
 48 47  1  0
 49 51  1  0
 50 61  2  0
 51 56  1  0
 52 60  1  0
 52 62  1  0
 53 59  1  0
 53 55  1  0
 54 60  1  0
 55 54  1  0
 56 55  2  0
 57 58  1  0
 57 51  2  0
 58 53  2  0
 59 52  1  0
 60 50  1  0
 62 64  2  0
 63 62  1  0
 65 63  1  0
 66 75  2  0
 66 71  1  0
 67 63  1  0
 67 71  1  0
 68 67  1  0
 69 70  1  0
 69 68  1  0
 70 66  1  0
 71 72  2  0
 72 73  1  0
 74 73  2  0
 75 74  1  0
 76 50  1  0
 76 77  1  0
 76 86  1  0
 77 80  1  0
 78 77  1  0
 78 82  1  0
 79 78  2  0
 82 81  1  0
 82 84  1  0
 84 85  1  0
 84 83  1  0
 86 89  1  1
 86 87  1  0
 88 86  1  0
 91 90  1  0
M  ISO  4   8 100  16 100  48 101  49 101
M  END
>  <TORSDO>  (19) 
F 18

>  <SCORE>  (19) 
-9.071

>  <name>  (19) 
18

>  <ligand_id>  (19) 
18

>  <original_smiles>  (19) 
[H]c1c([H])c([H])c2c(c1[H])C([H])([H])C([H])([H])C([H])([H])C2([H])N([H])C(=O)C1([H])N(C(=O)C([H])(N([H])C(=O)C([H])(N([H])C([H])([H])[H])C([H])([H])[H])C(C([H])([H])[H])(C([H])([H])[H])C([H])([H])[H])C([H])([H])c2c([H])c(OC3([H])C([H])([H])C3([H])c3c(OC([H])([H])[H])c([H])c(N([H])C(=O)N4C([H])([H])C([H])([H])C([H])([H])C([H])(n5nc(-c6c([H])c([H])c(Oc7c([H])c([H])c(F)c([H])c7F)c([H])c6[H])c(C(=O)N([H])[H])c5N([H])[H])C4([H])[H])c([H])c3C([H])([H])[H])c([H])c([H])c2C1([H])[H]

>  <smiles>  (19) 
[H]c1c([H])c([H])c2c(c1[H])C([H])([H])C([H])([H])C([H])([H])C2([H])N([H])C(=O)C1([H])N(C(=O)C([H])(N([H])C(=O)C([H])(N([H])C([H])([H])[H])C([H])([H])[H])C(C([H])([H])[H])(C([H])([H])[H])C([H])([H])[H])C([H])([H])c2c([H])c(OC3([H])C([H])([H])C3([H])c3c(OC([H])([H])[H])c([H])c(N([H])C(=O)N4C([H])([H])C([H])([H])C([H])([H])C([H])(n5nc(-c6c([H])c([H])c(Oc7c([H])c([H])c(F)c([H])c7F)c([H])c6[H])c(C(=O)N([H])[H])c5N([H])[H])C4([H])[H])c([H])c3C([H])([H])[H])c([H])c([H])c2C1([H])[H]

$$$$
19:0:0
     RDKit          3D

102111  0  0  1  0  0  0  0  0999 V2000
  -28.9840  -18.2420   19.5620 C   0  0  0  0  0  3  0  0  0  0  0  0
  -29.2060  -19.6010   20.1430 C   0  0  0  0  0  0  0  0  0  0  0  0
  -29.5590  -16.9600   20.0680 C   0  0  0  0  0  0  0  0  0  0  0  0
  -30.3810  -17.1820   21.2090 C   0  0  0  0  0  0  0  0  0  0  0  0
  -30.0210  -19.5370   21.2950 C   0  0  0  0  0  0  0  0  0  0  0  0
  -30.5760  -18.4010   21.7690 N   0  0  0  0  0  0  0  0  0  0  0  0
  -30.2540  -20.7030   22.0240 N   0  0  0  0  0  0  0  0  0  0  0  0
  -29.8340  -21.5530   21.6690 H   0  0  0  0  0  0  0  0  0  0  0  0
  -29.9560  -14.3610   19.2280 C   0  0  0  0  0  0  0  0  0  0  0  0
  -29.5880  -12.1260   18.0720 C   0  0  0  0  0  2  0  0  0  0  0  0
  -28.4000  -12.1920   17.0840 C   0  0  0  0  0  2  0  0  0  0  0  0
  -27.0680  -11.9220   17.8110 C   0  0  0  0  0  2  0  0  0  0  0  0
  -26.9480  -12.7170   19.1370 C   0  0  0  0  0  3  0  0  0  0  0  0
  -28.2290  -12.6260   19.9920 C   0  0  0  0  0  2  0  0  0  0  0  0
  -29.3310  -13.1170   19.1540 N   0  0  0  0  0  0  0  0  0  0  0  0
  -31.0710  -14.4570   18.7060 O   0  0  0  0  0  0  0  0  0  0  0  0
  -29.2230  -15.5210   19.6170 N   0  0  0  0  0  0  0  0  0  0  0  0
  -28.2390  -15.3130   19.6950 H   0  0  0  0  0  0  0  0  0  0  0  0
  -24.7720  -13.1910   20.3980 C   0  0  0  0  0  0  0  0  0  0  0  0
  -23.8210  -12.3680   20.9380 C   0  0  0  0  0  0  0  0  0  0  0  0
  -24.2910  -11.0350   20.7330 C   0  0  0  0  0  0  0  0  0  0  0  0
  -25.7520  -12.3560   19.8920 N   0  0  0  0  0  0  0  0  0  0  0  0
  -25.4860  -11.0500   20.1540 N   0  0  0  0  0  0  0  0  0  0  0  0
  -23.6400   -9.7450   20.9970 C   0  0  0  0  0  0  0  0  0  0  0  0
  -24.2010   -8.8010   21.8850 C   0  0  0  0  0  3  0  0  0  0  0  0
  -23.5450   -7.5770   22.1380 C   0  0  0  0  0  3  0  0  0  0  0  0
  -22.3120   -7.2890   21.5040 C   0  0  0  0  0  0  0  0  0  0  0  0
  -21.7700   -8.2210   20.6030 C   0  0  0  0  0  3  0  0  0  0  0  0
  -22.4280   -9.4350   20.3480 C   0  0  0  0  0  3  0  0  0  0  0  0
  -21.6190   -6.1140   21.6680 O   0  0  0  0  0  0  0  0  0  0  0  0
  -21.6350   -5.4290   22.8560 C   0  0  0  0  0  0  0  0  0  0  0  0
  -21.1970   -6.0170   24.0620 C   0  0  0  0  0  3  0  0  0  0  0  0
  -21.1640   -5.2550   25.2470 C   0  0  0  0  0  3  0  0  0  0  0  0
  -21.5600   -3.9040   25.2270 C   0  0  0  0  0  0  0  0  0  0  0  0
  -21.9930   -3.3140   24.0260 C   0  0  0  0  0  3  0  0  0  0  0  0
  -22.0260   -4.0750   22.8430 C   0  0  0  0  0  0  0  0  0  0  0  0
  -22.4240   -3.4960   21.6850 F   0  0  0  0  0  0  0  0  0  0  0  0
  -21.5210   -3.1680   26.3620 F   0  0  0  0  0  0  0  0  0  0  0  0
  -22.5060  -12.7930   21.5220 C   0  0  0  0  0  0  0  0  0  0  0  0
  -21.9960  -12.0450   22.4950 N   0  0  0  0  0  0  0  0  0  0  0  0
  -21.9460  -13.8230   21.1520 O   0  0  0  0  0  0  0  0  0  0  0  0
  -22.4690  -11.2140   22.8160 H   0  0  0  0  0  0  0  0  0  0  0  0
  -21.1230  -12.3120   22.9260 H   0  0  0  0  0  0  0  0  0  0  0  0
  -24.8700  -14.5740   20.2740 N   0  0  0  0  0  0  0  0  0  0  0  0
  -24.1290  -15.1910   20.5860 H   0  0  0  0  0  0  0  0  0  0  0  0
  -25.6030  -15.0610   19.7780 H   0  0  0  0  0  0  0  0  0  0  0  0
  -32.4400  -20.8820   23.1180 C   0  0  0  0  0  2  0  0  0  0  0  0
  -30.3810  -21.9810   24.1170 C   0  0  0  0  0  2  0  0  0  0  0  0
  -33.1860  -21.0970   24.4450 C   0  0  0  0  0  2  0  0  0  0  0  0
  -31.1380  -22.1820   25.4410 C   0  0  0  0  0  2  0  0  0  0  0  0
  -30.9160  -20.7720   23.3200 C   0  0  0  0  0  3  0  0  0  0  0  0
  -32.6530  -22.3340   25.1940 C   0  0  0  0  0  3  0  0  0  0  0  0
  -33.3900  -22.5660   26.4490 N   0  0  0  0  0  4  0  0  0  0  0  0
  -33.2920  -21.7940   27.0830 H   0  0  0  0  0  0  0  0  0  0  0  0
  -33.0560  -23.3960   26.9060 H   0  0  0  0  0  0  0  0  0  0  0  0
  -34.3680  -22.6960   26.2590 H   0  0  0  0  0  0  0  0  0  0  0  0
  -30.0180  -15.2790   22.8740 C   0  0  0  0  0  1  0  0  0  0  0  0
  -31.0270  -16.0630   22.0230 C   0  0  0  0  0  2  0  0  0  0  0  0
  -28.5630  -21.0610   19.6290 C   0  0  0  0  0  2  0  0  0  0  0  0
  -28.8020  -22.6400   20.2480 C   0  0  0  0  0  3  0  0  0  0  0  0
  -27.9990  -24.0650   19.7950 C   0  0  0  0  0  3  0  0  0  0  0  0
  -28.1940  -25.5270   20.3270 O   0  0  0  0  0  0  0  0  0  0  0  0
  -24.6280  -31.2790   23.2650 C   0  0  0  0  0  0  0  0  0  0  0  0
  -27.1820  -26.5540   20.2220 C   0  0  0  0  0  0  0  0  0  0  0  0
  -23.4550  -29.9600   21.5460 C   0  0  0  0  0  3  0  0  0  0  0  0
  -24.9120  -28.3800   20.1340 C   0  0  0  0  0  0  0  0  0  0  0  0
  -26.0190  -30.1500   21.4880 C   0  0  0  0  0  2  0  0  0  0  0  0
  -26.0780  -28.7720   20.8040 C   0  0  0  0  0  0  0  0  0  0  0  0
  -27.2120  -27.8760   20.8330 C   0  0  0  0  0  3  0  0  0  0  0  0
  -25.9980  -26.2730   19.5050 C   0  0  0  0  0  3  0  0  0  0  0  0
  -24.8870  -27.1440   19.4690 C   0  0  0  0  0  3  0  0  0  0  0  0
  -23.7090  -29.3120   20.1580 C   0  0  0  0  0  2  0  0  0  0  0  0
  -24.7200  -30.4830   22.1550 N   0  0  0  0  0  0  0  0  0  0  0  0
  -23.5310  -31.5820   23.7580 O   0  0  0  0  0  0  0  0  0  0  0  0
  -22.7090  -28.9510   22.4560 C   0  0  0  0  0  0  0  0  0  0  0  0
  -21.3930  -28.7840   22.2370 N   0  0  0  0  0  0  0  0  0  0  0  0
  -23.3200  -28.3220   23.3230 O   0  0  0  0  0  0  0  0  0  0  0  0
  -20.9560  -29.3420   21.5160 H   0  0  0  0  0  0  0  0  0  0  0  0
  -17.9710  -27.6320   22.5460 C   0  0  0  0  0  0  0  0  0  0  0  0
  -20.5180  -27.8460   22.9460 C   0  0  0  0  0  3  0  0  0  0  0  0
  -20.6250  -26.4250   22.3480 C   0  0  0  0  0  2  0  0  0  0  0  0
  -19.5710  -26.1400   21.2740 C   0  0  0  0  0  2  0  0  0  0  0  0
  -18.1610  -26.2950   21.8510 C   0  0  0  0  0  2  0  0  0  0  0  0
  -19.0790  -28.3680   23.0470 C   0  0  0  0  0  0  0  0  0  0  0  0
  -18.8490  -29.6200   23.6580 C   0  0  0  0  0  3  0  0  0  0  0  0
  -17.5440  -30.1370   23.7720 C   0  0  0  0  0  3  0  0  0  0  0  0
  -16.4510  -29.3980   23.2870 C   0  0  0  0  0  3  0  0  0  0  0  0
  -16.6650  -28.1480   22.6810 C   0  0  0  0  0  3  0  0  0  0  0  0
  -25.8970  -31.8620   23.9580 C   0  0  0  0  0  3  0  0  0  0  0  0
  -25.6590  -33.2950   24.1960 N   0  0  0  0  0  0  0  0  0  0  0  0
  -26.0960  -34.2850   23.4060 C   0  0  0  0  0  0  0  0  0  0  0  0
  -26.8090  -34.0850   22.4190 O   0  0  0  0  0  0  0  0  0  0  0  0
  -25.0320  -33.5270   24.9520 H   0  0  0  0  0  0  0  0  0  0  0  0
  -24.5150  -36.1680   22.8710 C   0  0  0  0  0  1  0  0  0  0  0  0
  -25.6820  -35.7250   23.7680 C   0  0  0  0  0  3  0  0  0  0  0  0
  -27.8290  -36.5100   24.6660 C   0  0  0  0  0  1  0  0  0  0  0  0
  -26.7880  -36.7020   23.6600 N   0  0  0  0  0  0  0  0  0  0  0  0
  -26.4370  -37.6520   23.7430 H   0  0  0  0  0  0  0  0  0  0  0  0
  -26.2540  -31.1340   25.3120 C   0  0  1  0  0  0  0  0  0  0  0  0
  -25.0540  -30.9930   26.2790 C   0  0  0  0  0  1  0  0  0  0  0  0
  -26.8090  -29.7150   25.0460 C   0  0  0  0  0  1  0  0  0  0  0  0
  -27.3700  -31.9120   26.0460 C   0  0  0  0  0  1  0  0  0  0  0  0
  1  3  2  0
  1  2  1  0
  2  5  2  0
  3  4  1  0
  4  6  2  0
  4 58  1  0
  5  6  1  0
  5  7  1  0
  8  7  1  0
  9 17  1  0
 10 15  1  0
 11 12  1  0
 11 10  1  0
 13 12  1  0
 13 22  1  0
 13 14  1  0
 15  9  1  0
 15 14  1  0
 16  9  2  0
 17 18  1  0
 17  3  1  0
 19 20  2  0
 20 39  1  0
 21 20  1  0
 21 24  1  0
 22 23  1  0
 22 19  1  0
 23 21  2  0
 24 25  1  0
 25 26  2  0
 27 30  1  0
 27 26  1  0
 28 27  2  0
 29 28  1  0
 29 24  2  0
 30 31  1  0
 31 32  1  0
 32 33  2  0
 34 33  1  0
 34 38  1  0
 35 34  2  0
 36 31  2  0
 36 35  1  0
 37 36  1  0
 39 40  1  0
 40 42  1  0
 40 43  1  0
 41 39  2  0
 44 19  1  0
 44 45  1  0
 46 44  1  0
 47 51  1  0
 47 49  1  0
 48 50  1  0
 49 52  1  0
 51  7  1  0
 51 48  1  0
 52 50  1  0
 52 53  1  0
 53 55  1  0
 53 54  1  0
 56 53  1  0
 58 57  1  0
 59  2  1  0
 59 60  1  0
 61 60  2  0
 61 62  1  0
 63 74  2  0
 64 62  1  0
 64 69  1  0
 65 73  1  0
 65 75  1  0
 66 72  1  0
 66 68  1  0
 67 73  1  0
 68 69  2  0
 68 67  1  0
 70 64  2  0
 71 70  1  0
 71 66  2  0
 72 65  1  0
 73 63  1  0
 75 77  2  0
 76 75  1  0
 78 76  1  0
 79 88  2  0
 79 84  1  0
 80 76  1  0
 80 84  1  0
 81 80  1  0
 82 83  1  0
 82 81  1  0
 83 79  1  0
 84 85  2  0
 85 86  1  0
 87 86  2  0
 88 87  1  0
 89 63  1  0
 89 90  1  0
 89 99  1  0
 90 93  1  0
 91 95  1  0
 91 90  1  0
 92 91  2  0
 95 94  1  0
 97 98  1  0
 97 95  1  0
 97 96  1  0
 99102  1  1
 99100  1  0
101 99  1  0
M  ISO  4   9 100  17 100  61 101  62 101
M  END
>  <TORSDO>  (20) 
F 22

>  <SCORE>  (20) 
-1.291

>  <name>  (20) 
19

>  <ligand_id>  (20) 
19

>  <original_smiles>  (20) 
[H]c1c([H])c([H])c2c(c1[H])C([H])([H])C([H])([H])C([H])([H])C2([H])N([H])C(=O)C1([H])N(C(=O)C([H])(N([H])C(=O)C([H])(N([H])C([H])([H])[H])C([H])([H])[H])C(C([H])([H])[H])(C([H])([H])[H])C([H])([H])[H])C([H])([H])c2c([H])c(OC([H])([H])C([H])([H])C([H])([H])c3c(N([H])C4([H])C([H])([H])C([H])([H])C([H])([N+]([H])([H])[H])C([H])([H])C4([H])[H])nc(C([H])([H])C([H])([H])[H])c(N([H])C(=O)N4C([H])([H])C([H])([H])C([H])([H])C([H])(n5nc(-c6c([H])c([H])c(Oc7c([H])c([H])c(F)c([H])c7F)c([H])c6[H])c(C(=O)N([H])[H])c5N([H])[H])C4([H])[H])c3[H])c([H])c([H])c2C1([H])[H]

>  <smiles>  (20) 
[H]c1c([H])c([H])c2c(c1[H])C([H])([H])C([H])([H])C([H])([H])C2([H])N([H])C(=O)C1([H])N(C(=O)C([H])(N([H])C(=O)C([H])(N([H])C([H])([H])[H])C([H])([H])[H])C(C([H])([H])[H])(C([H])([H])[H])C([H])([H])[H])C([H])([H])c2c([H])c(OC([H])([H])C([H])([H])C([H])([H])c3c(N([H])C4([H])C([H])([H])C([H])([H])C([H])([N+]([H])([H])[H])C([H])([H])C4([H])[H])nc(C([H])([H])C([H])([H])[H])c(N([H])C(=O)N4C([H])([H])C([H])([H])C([H])([H])C([H])(n5nc(-c6c([H])c([H])c(Oc7c([H])c([H])c(F)c([H])c7F)c([H])c6[H])c(C(=O)N([H])[H])c5N([H])[H])C4([H])[H])c3[H])c([H])c([H])c2C1([H])[H]

$$$$
20:0:0
     RDKit          3D

 99108  0  0  1  0  0  0  0  0999 V2000
  -30.7300  -22.9240   22.1380 C   0  0  0  0  0  3  0  0  0  0  0  0
  -28.8780  -21.2830   20.9730 C   0  0  0  0  0  3  0  0  0  0  0  0
  -31.1940  -21.8320   21.3730 C   0  0  0  0  0  0  0  0  0  0  0  0
  -30.2410  -20.9900   20.7420 C   0  0  0  0  0  0  0  0  0  0  0  0
  -29.3520  -23.1590   22.2430 C   0  0  0  0  0  0  0  0  0  0  0  0
  -32.6930  -21.6500   21.1950 C   0  0  0  0  0  1  0  0  0  0  0  0
  -28.4390  -22.3360   21.6930 N   0  0  0  0  0  0  0  0  0  0  0  0
  -28.8800  -24.3000   22.8950 N   0  0  0  0  0  0  0  0  0  0  0  0
  -29.5940  -24.7840   23.4280 H   0  0  0  0  0  0  0  0  0  0  0  0
  -28.1100  -25.2140   22.0470 C   0  0  0  0  0  2  0  0  0  0  0  0
  -28.9800  -26.3490   21.4670 C   0  0  0  0  0  2  0  0  0  0  0  0
  -28.4620  -26.8090   20.2210 O   0  0  0  0  0  0  0  0  0  0  0  0
  -24.5570  -31.9410   23.2800 C   0  0  0  0  0  0  0  0  0  0  0  0
  -27.2950  -27.5320   20.2740 C   0  0  0  0  0  0  0  0  0  0  0  0
  -23.3850  -30.5140   21.6320 C   0  0  0  0  0  3  0  0  0  0  0  0
  -24.8780  -28.9830   20.2420 C   0  0  0  0  0  0  0  0  0  0  0  0
  -25.9050  -30.9080   21.4620 C   0  0  0  0  0  2  0  0  0  0  0  0
  -26.0170  -29.5300   20.8460 C   0  0  0  0  0  0  0  0  0  0  0  0
  -27.2290  -28.8080   20.8720 C   0  0  0  0  0  3  0  0  0  0  0  0
  -26.1490  -26.9920   19.6610 C   0  0  0  0  0  3  0  0  0  0  0  0
  -24.9340  -27.7050   19.6550 C   0  0  0  0  0  3  0  0  0  0  0  0
  -23.6220  -29.8240   20.2600 C   0  0  0  0  0  2  0  0  0  0  0  0
  -24.6330  -31.1370   22.1830 N   0  0  0  0  0  0  0  0  0  0  0  0
  -23.4670  -32.2050   23.8060 O   0  0  0  0  0  0  0  0  0  0  0  0
  -22.7380  -29.4930   22.5920 C   0  0  0  0  0  0  0  0  0  0  0  0
  -21.4200  -29.2860   22.4420 N   0  0  0  0  0  0  0  0  0  0  0  0
  -23.4190  -28.8860   23.4240 O   0  0  0  0  0  0  0  0  0  0  0  0
  -20.9350  -29.8230   21.7360 H   0  0  0  0  0  0  0  0  0  0  0  0
  -18.0540  -28.0520   22.9000 C   0  0  0  0  0  0  0  0  0  0  0  0
  -20.6040  -28.3450   23.2070 C   0  0  0  0  0  3  0  0  0  0  0  0
  -20.7350  -26.9120   22.6420 C   0  0  0  0  0  2  0  0  0  0  0  0
  -19.6530  -26.5670   21.6150 C   0  0  0  0  0  2  0  0  0  0  0  0
  -18.2580  -26.6990   22.2360 C   0  0  0  0  0  2  0  0  0  0  0  0
  -19.1570  -28.8300   23.3410 C   0  0  0  0  0  0  0  0  0  0  0  0
  -18.9150  -30.0960   23.9190 C   0  0  0  0  0  3  0  0  0  0  0  0
  -17.6020  -30.5850   24.0580 C   0  0  0  0  0  3  0  0  0  0  0  0
  -16.5130  -29.8030   23.6350 C   0  0  0  0  0  3  0  0  0  0  0  0
  -16.7390  -28.5380   23.0630 C   0  0  0  0  0  3  0  0  0  0  0  0
  -25.8310  -32.5890   23.9090 C   0  0  0  0  0  3  0  0  0  0  0  0
  -26.3440  -31.8340   25.1960 C   0  0  1  0  0  0  0  0  0  0  0  0
  -25.2410  -31.5850   26.2490 C   0  0  0  0  0  1  0  0  0  0  0  0
  -26.9540  -30.4610   24.8190 C   0  0  0  0  0  1  0  0  0  0  0  0
  -27.4760  -32.6480   25.8660 C   0  0  0  0  0  1  0  0  0  0  0  0
  -25.5080  -33.9870   24.2190 N   0  0  0  0  0  0  0  0  0  0  0  0
  -25.8440  -35.0330   23.4520 C   0  0  0  0  0  0  0  0  0  0  0  0
  -26.5340  -34.9230   22.4340 O   0  0  0  0  0  0  0  0  0  0  0  0
  -24.9020  -34.1460   25.0100 H   0  0  0  0  0  0  0  0  0  0  0  0
  -24.1120  -36.8080   23.0370 C   0  0  0  0  0  1  0  0  0  0  0  0
  -25.3370  -36.4210   23.8820 C   0  0  0  0  0  3  0  0  0  0  0  0
  -27.4430  -37.3290   24.7580 C   0  0  0  0  0  1  0  0  0  0  0  0
  -26.3640  -37.4800   23.7840 N   0  0  0  0  0  0  0  0  0  0  0  0
  -25.9490  -38.3980   23.9140 H   0  0  0  0  0  0  0  0  0  0  0  0
  -30.6540  -19.9120   19.7150 C   0  0  0  0  0  3  0  0  0  0  0  0
  -30.5010  -14.6120   20.0510 C   0  0  0  0  0  0  0  0  0  0  0  0
  -30.2070  -12.4490   18.9190 C   0  0  0  0  0  2  0  0  0  0  0  0
  -29.1960  -12.6450   17.7700 C   0  0  0  0  0  2  0  0  0  0  0  0
  -27.7470  -12.4920   18.2780 C   0  0  0  0  0  2  0  0  0  0  0  0
  -27.4650  -13.2970   19.5750 C   0  0  0  0  0  3  0  0  0  0  0  0
  -28.5870  -13.0900   20.6200 C   0  0  0  0  0  2  0  0  0  0  0  0
  -29.8670  -13.4140   19.9740 N   0  0  0  0  0  0  0  0  0  0  0  0
  -31.6420  -14.7990   19.6210 O   0  0  0  0  0  0  0  0  0  0  0  0
  -29.2510  -16.3820   18.9510 C   0  0  0  0  0  2  0  0  0  0  0  0
  -29.5380  -16.5180   21.3520 C   0  0  0  0  0  2  0  0  0  0  0  0
  -30.0870  -17.6500   18.7420 C   0  0  0  0  0  2  0  0  0  0  0  0
  -30.3130  -17.8660   21.2090 C   0  0  0  0  0  3  0  0  0  0  0  0
  -31.8240  -17.6480   21.4520 C   0  0  0  0  0  1  0  0  0  0  0  0
  -29.6530  -15.6630   20.1630 N   0  0  0  0  0  0  0  0  0  0  0  0
  -29.9950  -18.5680   19.9140 N   0  0  1  0  0  4  0  0  0  0  0  0
  -29.0060  -18.7650   19.9690 H   0  0  0  0  0  0  0  0  0  0  0  0
  -25.0990  -13.8570   20.4140 C   0  0  0  0  0  0  0  0  0  0  0  0
  -24.0680  -13.0620   20.8330 C   0  0  0  0  0  0  0  0  0  0  0  0
  -24.5540  -11.7190   20.7710 C   0  0  0  0  0  0  0  0  0  0  0  0
  -26.1470  -12.9970   20.1230 N   0  0  0  0  0  0  0  0  0  0  0  0
  -25.8260  -11.7070   20.3980 N   0  0  0  0  0  0  0  0  0  0  0  0
  -23.8670  -10.4420   20.9910 C   0  0  0  0  0  0  0  0  0  0  0  0
  -24.3380   -9.5030   21.9340 C   0  0  0  0  0  3  0  0  0  0  0  0
  -23.6500   -8.2890   22.1410 C   0  0  0  0  0  3  0  0  0  0  0  0
  -22.4760   -8.0040   21.4030 C   0  0  0  0  0  0  0  0  0  0  0  0
  -22.0240   -8.9320   20.4480 C   0  0  0  0  0  3  0  0  0  0  0  0
  -22.7130  -10.1380   20.2390 C   0  0  0  0  0  3  0  0  0  0  0  0
  -21.7580   -6.8390   21.5180 O   0  0  0  0  0  0  0  0  0  0  0  0
  -21.7110   -6.1350   22.6940 C   0  0  0  0  0  0  0  0  0  0  0  0
  -21.2360   -6.7140   23.8910 C   0  0  0  0  0  3  0  0  0  0  0  0
  -21.1410   -5.9330   25.0610 C   0  0  0  0  0  3  0  0  0  0  0  0
  -21.5100   -4.5760   25.0340 C   0  0  0  0  0  0  0  0  0  0  0  0
  -21.9780   -3.9960   23.8420 C   0  0  0  0  0  3  0  0  0  0  0  0
  -22.0750   -4.7730   22.6750 C   0  0  0  0  0  0  0  0  0  0  0  0
  -22.5080   -4.2050   21.5230 F   0  0  0  0  0  0  0  0  0  0  0  0
  -21.4110   -3.8240   26.1560 F   0  0  0  0  0  0  0  0  0  0  0  0
  -22.6770  -13.5080   21.1800 C   0  0  0  0  0  0  0  0  0  0  0  0
  -22.0070  -12.7880   22.0730 N   0  0  0  0  0  0  0  0  0  0  0  0
  -22.1930  -14.5300   20.6960 O   0  0  0  0  0  0  0  0  0  0  0  0
  -22.4170  -11.9610   22.4850 H   0  0  0  0  0  0  0  0  0  0  0  0
  -21.0760  -13.0660   22.3480 H   0  0  0  0  0  0  0  0  0  0  0  0
  -25.2270  -15.2320   20.2410 N   0  0  0  0  0  0  0  0  0  0  0  0
  -24.4530  -15.8690   20.3960 H   0  0  0  0  0  0  0  0  0  0  0  0
  -26.0540  -15.6900   19.8790 H   0  0  0  0  0  0  0  0  0  0  0  0
  -29.1460  -20.9920   17.8580 C   0  0  0  0  0  1  0  0  0  0  0  0
  -30.5460  -20.5080   18.2810 C   0  0  0  0  0  2  0  0  0  0  0  0
  1  5  1  0
  2  7  1  0
  3  1  2  0
  4  2  2  0
  4  3  1  0
  5  8  1  0
  6  3  1  0
  7  5  2  0
  8  9  1  0
 10  8  1  0
 11 10  1  0
 12 14  1  0
 12 11  1  0
 13 24  2  0
 14 19  1  0
 15 23  1  0
 15 25  1  0
 16 22  1  0
 16 18  1  0
 17 23  1  0
 18 19  2  0
 18 17  1  0
 20 14  2  0
 21 20  1  0
 21 16  2  0
 22 15  1  0
 23 13  1  0
 25 27  2  0
 26 25  1  0
 28 26  1  0
 29 38  2  0
 29 34  1  0
 30 26  1  0
 30 34  1  0
 31 30  1  0
 32 33  1  0
 32 31  1  0
 33 29  1  0
 34 35  2  0
 35 36  1  0
 37 36  2  0
 38 37  1  0
 39 13  1  0
 39 44  1  0
 39 40  1  0
 40 43  1  1
 40 41  1  0
 42 40  1  0
 44 47  1  0
 45 49  1  0
 45 44  1  0
 46 45  2  0
 49 48  1  0
 51 49  1  0
 51 52  1  0
 51 50  1  0
 53 99  1  0
 53 68  1  0
 53  4  1  0
 54 67  1  0
 55 60  1  0
 56 57  1  0
 56 55  1  0
 58 57  1  0
 58 73  1  0
 58 59  1  0
 60 54  1  0
 60 59  1  0
 61 54  2  0
 62 67  1  0
 64 62  1  0
 64 68  1  0
 65 63  1  0
 65 66  1  0
 67 63  1  0
 68 69  1  1
 68 65  1  0
 70 71  2  0
 71 90  1  0
 72 71  1  0
 72 75  1  0
 73 74  1  0
 73 70  1  0
 74 72  2  0
 75 76  1  0
 76 77  2  0
 78 81  1  0
 78 77  1  0
 79 78  2  0
 80 79  1  0
 80 75  2  0
 81 82  1  0
 82 83  1  0
 83 84  2  0
 85 84  1  0
 85 89  1  0
 86 85  2  0
 87 82  2  0
 87 86  1  0
 88 87  1  0
 90 91  1  0
 91 94  1  0
 91 93  1  0
 92 90  2  0
 95 96  1  0
 95 70  1  0
 97 95  1  0
 98 99  1  0
M  ISO  4  11 101  12 101  54 100  67 100
M  END
>  <TORSDO>  (21) 
F 20

>  <SCORE>  (21) 
-14.164

>  <name>  (21) 
20

>  <ligand_id>  (21) 
20

>  <original_smiles>  (21) 
[H]c1nc(N([H])C([H])([H])C([H])([H])Oc2c([H])c([H])c3c(c2[H])C([H])([H])N(C(=O)C([H])(N([H])C(=O)C([H])(N([H])C([H])([H])[H])C([H])([H])[H])C(C([H])([H])[H])(C([H])([H])[H])C([H])([H])[H])C([H])(C(=O)N([H])C2([H])c4c([H])c([H])c([H])c([H])c4C([H])([H])C([H])([H])C2([H])[H])C3([H])[H])c([H])c(C([H])([H])[H])c1C([H])(C([H])([H])C([H])([H])[H])[N+]1([H])C([H])([H])C([H])([H])N(C(=O)N2C([H])([H])C([H])([H])C([H])([H])C([H])(n3nc(-c4c([H])c([H])c(Oc5c([H])c([H])c(F)c([H])c5F)c([H])c4[H])c(C(=O)N([H])[H])c3N([H])[H])C2([H])[H])C([H])([H])C1([H])C([H])([H])[H]

>  <smiles>  (21) 
[H]c1nc(N([H])C([H])([H])C([H])([H])Oc2c([H])c([H])c3c(c2[H])C([H])([H])N(C(=O)C([H])(N([H])C(=O)C([H])(N([H])C([H])([H])[H])C([H])([H])[H])C(C([H])([H])[H])(C([H])([H])[H])C([H])([H])[H])C([H])(C(=O)N([H])C2([H])c4c([H])c([H])c([H])c([H])c4C([H])([H])C([H])([H])C2([H])[H])C3([H])[H])c([H])c(C([H])([H])[H])c1C([H])(C([H])([H])C([H])([H])[H])[N+]1([H])C([H])([H])C([H])([H])N(C(=O)N2C([H])([H])C([H])([H])C([H])([H])C([H])(n3nc(-c4c([H])c([H])c(Oc5c([H])c([H])c(F)c([H])c5F)c([H])c4[H])c(C(=O)N([H])[H])c3N([H])[H])C2([H])[H])C([H])([H])C1([H])C([H])([H])[H]

$$$$
21:0:0
     RDKit          3D

 92101  0  0  1  0  0  0  0  0999 V2000
  -29.6880  -22.5670   19.8780 C   0  0  0  0  0  3  0  0  0  0  0  0
  -29.9480  -21.1790   19.8950 C   0  0  0  0  0  3  0  0  0  0  0  0
  -27.6430  -20.7800   20.4920 C   0  0  0  0  0  3  0  0  0  0  0  0
  -28.4260  -23.1010   20.2390 C   0  0  0  0  0  0  0  0  0  0  0  0
  -27.3790  -22.1730   20.4900 C   0  0  0  0  0  0  0  0  0  0  0  0
  -28.9360  -20.2580   20.2570 C   0  0  0  0  0  0  0  0  0  0  0  0
  -25.9590  -22.6500   20.7780 C   0  0  0  0  0  1  0  0  0  0  0  0
  -29.4820  -25.3860   20.8450 C   0  0  0  0  0  2  0  0  0  0  0  0
  -28.2560  -24.6110   20.4460 C   0  0  0  0  0  3  0  0  0  0  0  0
  -28.7900  -25.7250   19.5350 C   0  0  0  0  0  3  0  0  0  0  0  0
  -28.6290  -27.1330   19.7700 O   0  0  0  0  0  0  0  0  0  0  0  0
  -24.6950  -31.9210   23.2400 C   0  0  0  0  0  0  0  0  0  0  0  0
  -27.3970  -27.7440   19.8510 C   0  0  0  0  0  0  0  0  0  0  0  0
  -23.4890  -30.5920   21.5370 C   0  0  0  0  0  3  0  0  0  0  0  0
  -24.9520  -29.1610   20.0060 C   0  0  0  0  0  0  0  0  0  0  0  0
  -25.9980  -31.0210   21.3150 C   0  0  0  0  0  2  0  0  0  0  0  0
  -26.1030  -29.6920   20.5970 C   0  0  0  0  0  0  0  0  0  0  0  0
  -27.3260  -28.9920   20.5150 C   0  0  0  0  0  3  0  0  0  0  0  0
  -26.2290  -27.2140   19.2650 C   0  0  0  0  0  3  0  0  0  0  0  0
  -25.0070  -27.9190   19.3430 C   0  0  0  0  0  3  0  0  0  0  0  0
  -23.6890  -29.9890   20.1190 C   0  0  0  0  0  2  0  0  0  0  0  0
  -24.7470  -31.1910   22.0890 N   0  0  0  0  0  0  0  0  0  0  0  0
  -23.6180  -32.1380   23.8120 O   0  0  0  0  0  0  0  0  0  0  0  0
  -22.8790  -29.5050   22.4490 C   0  0  0  0  0  0  0  0  0  0  0  0
  -21.5580  -29.2910   22.3250 N   0  0  0  0  0  0  0  0  0  0  0  0
  -23.5910  -28.8540   23.2200 O   0  0  0  0  0  0  0  0  0  0  0  0
  -21.0470  -29.8760   21.6790 H   0  0  0  0  0  0  0  0  0  0  0  0
  -18.2240  -27.9960   22.8120 C   0  0  0  0  0  0  0  0  0  0  0  0
  -20.7800  -28.2890   23.0500 C   0  0  0  0  0  3  0  0  0  0  0  0
  -20.9000  -26.9030   22.3800 C   0  0  0  0  0  2  0  0  0  0  0  0
  -19.7830  -26.6220   21.3670 C   0  0  0  0  0  2  0  0  0  0  0  0
  -18.4130  -26.6960   22.0480 C   0  0  0  0  0  2  0  0  0  0  0  0
  -19.3350  -28.7510   23.2690 C   0  0  0  0  0  0  0  0  0  0  0  0
  -19.1060  -29.9700   23.9460 C   0  0  0  0  0  3  0  0  0  0  0  0
  -17.7970  -30.4340   24.1670 C   0  0  0  0  0  3  0  0  0  0  0  0
  -16.6990  -29.6750   23.7240 C   0  0  0  0  0  3  0  0  0  0  0  0
  -16.9140  -28.4560   23.0560 C   0  0  0  0  0  3  0  0  0  0  0  0
  -25.9770  -32.5440   23.8780 C   0  0  0  0  0  3  0  0  0  0  0  0
  -26.4970  -31.7480   25.1390 C   0  0  1  0  0  0  0  0  0  0  0  0
  -25.4050  -31.4800   26.2000 C   0  0  0  0  0  1  0  0  0  0  0  0
  -27.0880  -30.3830   24.7150 C   0  0  0  0  0  1  0  0  0  0  0  0
  -27.6420  -32.5360   25.8200 C   0  0  0  0  0  1  0  0  0  0  0  0
  -25.6630  -33.9350   24.2360 N   0  0  0  0  0  0  0  0  0  0  0  0
  -25.9660  -35.0000   23.4810 C   0  0  0  0  0  0  0  0  0  0  0  0
  -26.6100  -34.9160   22.4310 O   0  0  0  0  0  0  0  0  0  0  0  0
  -25.0850  -34.0710   25.0520 H   0  0  0  0  0  0  0  0  0  0  0  0
  -24.2010  -36.7730   23.1960 C   0  0  0  0  0  1  0  0  0  0  0  0
  -25.4720  -36.3780   23.9650 C   0  0  0  0  0  3  0  0  0  0  0  0
  -27.6160  -37.2920   24.7460 C   0  0  0  0  0  1  0  0  0  0  0  0
  -26.4890  -37.4470   23.8300 N   0  0  0  0  0  0  0  0  0  0  0  0
  -26.0720  -38.3620   23.9860 H   0  0  0  0  0  0  0  0  0  0  0  0
  -29.1140  -18.8840   20.3920 O   0  0  0  0  0  0  0  0  0  0  0  0
  -30.4380  -18.3240   20.3580 C   0  0  0  0  0  2  0  0  0  0  0  0
  -30.6340  -17.2000   21.4130 C   0  0  0  0  0  2  0  0  0  0  0  0
  -30.8620  -14.8640   20.4920 C   0  0  0  0  0  0  0  0  0  0  0  0
  -30.6310  -12.6650   19.3810 C   0  0  0  0  0  2  0  0  0  0  0  0
  -29.6850  -12.8040   18.1690 C   0  0  0  0  0  2  0  0  0  0  0  0
  -28.2140  -12.6430   18.6030 C   0  0  0  0  0  2  0  0  0  0  0  0
  -27.8540  -13.5130   19.8370 C   0  0  0  0  0  3  0  0  0  0  0  0
  -28.9080  -13.3400   20.9530 C   0  0  0  0  0  2  0  0  0  0  0  0
  -30.2220  -13.6680   20.3770 N   0  0  0  0  0  0  0  0  0  0  0  0
  -31.9870  -15.0690   20.0300 O   0  0  0  0  0  0  0  0  0  0  0  0
  -30.1440  -15.8600   21.0450 N   0  0  0  0  0  0  0  0  0  0  0  0
  -29.2030  -15.6280   21.3260 H   0  0  0  0  0  0  0  0  0  0  0  0
  -25.4620  -14.1020   20.5750 C   0  0  0  0  0  0  0  0  0  0  0  0
  -24.3970  -13.3230   20.9320 C   0  0  0  0  0  0  0  0  0  0  0  0
  -24.8580  -11.9710   20.8700 C   0  0  0  0  0  0  0  0  0  0  0  0
  -26.5060  -13.2270   20.3190 N   0  0  0  0  0  0  0  0  0  0  0  0
  -26.1470  -11.9390   20.5560 N   0  0  0  0  0  0  0  0  0  0  0  0
  -24.1340  -10.7040   21.0380 C   0  0  0  0  0  0  0  0  0  0  0  0
  -24.5320   -9.7500   22.0000 C   0  0  0  0  0  3  0  0  0  0  0  0
  -23.8100   -8.5470   22.1530 C   0  0  0  0  0  3  0  0  0  0  0  0
  -22.6780   -8.2900   21.3450 C   0  0  0  0  0  0  0  0  0  0  0  0
  -22.3000   -9.2340   20.3730 C   0  0  0  0  0  3  0  0  0  0  0  0
  -23.0210  -10.4290   20.2170 C   0  0  0  0  0  3  0  0  0  0  0  0
  -21.9300   -7.1390   21.4070 O   0  0  0  0  0  0  0  0  0  0  0  0
  -21.7910   -6.4350   22.5750 C   0  0  0  0  0  0  0  0  0  0  0  0
  -21.2050   -7.0090   23.7250 C   0  0  0  0  0  3  0  0  0  0  0  0
  -21.0160   -6.2290   24.8840 C   0  0  0  0  0  3  0  0  0  0  0  0
  -21.4000   -4.8740   24.8910 C   0  0  0  0  0  0  0  0  0  0  0  0
  -21.9790   -4.2990   23.7450 C   0  0  0  0  0  3  0  0  0  0  0  0
  -22.1690   -5.0760   22.5900 C   0  0  0  0  0  0  0  0  0  0  0  0
  -22.7070   -4.5140   21.4810 F   0  0  0  0  0  0  0  0  0  0  0  0
  -21.2120   -4.1220   26.0000 F   0  0  0  0  0  0  0  0  0  0  0  0
  -22.9990  -13.7900   21.2210 C   0  0  0  0  0  0  0  0  0  0  0  0
  -22.2790  -13.0760   22.0780 N   0  0  0  0  0  0  0  0  0  0  0  0
  -22.5570  -14.8260   20.7260 O   0  0  0  0  0  0  0  0  0  0  0  0
  -22.6500  -12.2370   22.4990 H   0  0  0  0  0  0  0  0  0  0  0  0
  -21.3420  -13.3700   22.3160 H   0  0  0  0  0  0  0  0  0  0  0  0
  -25.6260  -15.4770   20.4260 N   0  0  0  0  0  0  0  0  0  0  0  0
  -24.8610  -16.1300   20.5590 H   0  0  0  0  0  0  0  0  0  0  0  0
  -26.4780  -15.9220   20.1100 H   0  0  0  0  0  0  0  0  0  0  0  0
  1  2  2  0
  1  4  1  0
  2  6  1  0
  4  5  2  0
  5  3  1  0
  5  7  1  0
  6 52  1  0
  6  3  2  0
  9  4  1  0
  9  8  1  0
 10 11  1  0
 10  9  1  0
 10  8  1  0
 11 13  1  0
 12 23  2  0
 13 18  1  0
 14 22  1  0
 14 24  1  0
 15 21  1  0
 15 17  1  0
 16 22  1  0
 17 16  1  0
 18 17  2  0
 19 20  1  0
 19 13  2  0
 20 15  2  0
 21 14  1  0
 22 12  1  0
 24 26  2  0
 25 24  1  0
 27 25  1  0
 28 37  2  0
 28 33  1  0
 29 25  1  0
 29 33  1  0
 30 29  1  0
 31 32  1  0
 31 30  1  0
 32 28  1  0
 33 34  2  0
 34 35  1  0
 36 35  2  0
 37 36  1  0
 38 12  1  0
 38 43  1  0
 38 39  1  0
 39 42  1  1
 39 40  1  0
 41 39  1  0
 43 46  1  0
 44 48  1  0
 44 43  1  0
 45 44  2  0
 48 47  1  0
 50 48  1  0
 50 51  1  0
 50 49  1  0
 53 52  1  0
 53 54  1  0
 55 63  1  0
 56 61  1  0
 57 58  1  0
 57 56  1  0
 59 58  1  0
 59 68  1  0
 59 60  1  0
 61 55  1  0
 61 60  1  0
 62 55  2  0
 63 64  1  0
 63 54  1  0
 65 66  2  0
 66 85  1  0
 67 66  1  0
 67 70  1  0
 68 69  1  0
 68 65  1  0
 69 67  2  0
 70 71  1  0
 71 72  2  0
 73 76  1  0
 73 72  1  0
 74 73  2  0
 75 74  1  0
 75 70  2  0
 76 77  1  0
 77 82  2  0
 77 78  1  0
 78 79  2  0
 79 80  1  0
 80 84  1  0
 81 80  2  0
 82 81  1  0
 83 82  1  0
 85 86  1  0
 86 89  1  0
 86 88  1  0
 87 85  2  0
 90 91  1  0
 90 65  1  0
 92 90  1  0
M  ISO  4  10 101  11 101  55 100  63 100
M  END
>  <TORSDO>  (22) 
F 20

>  <SCORE>  (22) 
-12.951

>  <name>  (22) 
21

>  <ligand_id>  (22) 
21

>  <original_smiles>  (22) 
[H]c1c([H])c([H])c2c(c1[H])C([H])([H])C([H])([H])C([H])([H])C2([H])N([H])C(=O)C1([H])N(C(=O)C([H])(N([H])C(=O)C([H])(N([H])C([H])([H])[H])C([H])([H])[H])C(C([H])([H])[H])(C([H])([H])[H])C([H])([H])[H])C([H])([H])c2c([H])c(OC3([H])C([H])([H])C3([H])c3c([H])c([H])c(OC([H])([H])C([H])([H])N([H])C(=O)N4C([H])([H])C([H])([H])C([H])([H])C([H])(n5nc(-c6c([H])c([H])c(Oc7c([H])c([H])c(F)c([H])c7F)c([H])c6[H])c(C(=O)N([H])[H])c5N([H])[H])C4([H])[H])c([H])c3C([H])([H])[H])c([H])c([H])c2C1([H])[H]

>  <smiles>  (22) 
[H]c1c([H])c([H])c2c(c1[H])C([H])([H])C([H])([H])C([H])([H])C2([H])N([H])C(=O)C1([H])N(C(=O)C([H])(N([H])C(=O)C([H])(N([H])C([H])([H])[H])C([H])([H])[H])C(C([H])([H])[H])(C([H])([H])[H])C([H])([H])[H])C([H])([H])c2c([H])c(OC3([H])C([H])([H])C3([H])c3c([H])c([H])c(OC([H])([H])C([H])([H])N([H])C(=O)N4C([H])([H])C([H])([H])C([H])([H])C([H])(n5nc(-c6c([H])c([H])c(Oc7c([H])c([H])c(F)c([H])c7F)c([H])c6[H])c(C(=O)N([H])[H])c5N([H])[H])C4([H])[H])c([H])c3C([H])([H])[H])c([H])c([H])c2C1([H])[H]

$$$$
22:0:0
     RDKit          3D

 95104  0  0  1  0  0  0  0  0999 V2000
  -25.4910  -19.6540   19.5410 C   0  0  0  0  0  3  0  0  0  0  0  0
  -26.5670  -20.5650   19.4640 C   0  0  0  0  0  3  0  0  0  0  0  0
  -27.0300  -17.8450   19.1320 C   0  0  0  0  0  3  0  0  0  0  0  0
  -28.1600  -18.7070   19.1910 C   0  0  0  0  0  0  0  0  0  0  0  0
  -25.7020  -18.2810   19.3270 C   0  0  0  0  0  0  0  0  0  0  0  0
  -27.9060  -20.1500   19.2410 C   0  0  0  0  0  0  0  0  0  0  0  0
  -23.3350  -17.6690   19.6620 C   0  0  0  0  0  1  0  0  0  0  0  0
  -24.6980  -17.3250   19.3610 O   0  0  0  0  0  0  0  0  0  0  0  0
  -29.5560  -17.9730   19.2320 C   0  0  0  0  0  2  0  0  0  0  0  0
  -31.2600  -14.6820   19.7650 C   0  0  0  0  0  0  0  0  0  0  0  0
  -30.7300  -12.3790   18.9240 C   0  0  0  0  0  2  0  0  0  0  0  0
  -29.7080  -12.4100   17.7680 C   0  0  0  0  0  2  0  0  0  0  0  0
  -28.2910  -12.2650   18.3460 C   0  0  0  0  0  2  0  0  0  0  0  0
  -28.0400  -13.2050   19.5640 C   0  0  0  0  0  3  0  0  0  0  0  0
  -29.2290  -13.2690   20.5620 C   0  0  0  0  0  2  0  0  0  0  0  0
  -30.4630  -13.5450   19.8070 N   0  0  0  0  0  0  0  0  0  0  0  0
  -32.3700  -14.5860   19.2420 O   0  0  0  0  0  0  0  0  0  0  0  0
  -31.2600  -17.7600   21.8590 C   0  0  0  0  0  2  0  0  0  0  0  0
  -29.7890  -17.3210   21.7280 C   0  0  0  0  0  2  0  0  0  0  0  0
  -32.0000  -16.8140   20.8850 C   0  0  0  0  0  2  0  0  0  0  0  0
  -29.6990  -16.7640   20.2960 C   0  0  0  0  0  3  0  0  0  0  0  0
  -30.9510  -15.9330   20.2760 N   0  0  0  0  0  0  0  0  0  0  0  0
  -25.7640  -13.7540   20.6370 C   0  0  0  0  0  0  0  0  0  0  0  0
  -24.7170  -12.9790   21.0420 C   0  0  0  0  0  0  0  0  0  0  0  0
  -25.1390  -11.6260   20.8570 C   0  0  0  0  0  0  0  0  0  0  0  0
  -26.7580  -12.8850   20.2080 N   0  0  0  0  0  0  0  0  0  0  0  0
  -26.3920  -11.5910   20.4090 N   0  0  0  0  0  0  0  0  0  0  0  0
  -24.3940  -10.3690   21.0310 C   0  0  0  0  0  0  0  0  0  0  0  0
  -24.8210   -9.3750   21.9410 C   0  0  0  0  0  3  0  0  0  0  0  0
  -24.0790   -8.1860   22.1070 C   0  0  0  0  0  3  0  0  0  0  0  0
  -22.8970   -7.9770   21.3580 C   0  0  0  0  0  0  0  0  0  0  0  0
  -22.4830   -8.9560   20.4370 C   0  0  0  0  0  3  0  0  0  0  0  0
  -23.2250  -10.1370   20.2710 C   0  0  0  0  0  3  0  0  0  0  0  0
  -22.1220   -6.8450   21.4370 O   0  0  0  0  0  0  0  0  0  0  0  0
  -21.9850   -6.1400   22.6080 C   0  0  0  0  0  0  0  0  0  0  0  0
  -21.4680   -6.7380   23.7770 C   0  0  0  0  0  3  0  0  0  0  0  0
  -21.2770   -5.9640   24.9380 C   0  0  0  0  0  3  0  0  0  0  0  0
  -21.5920   -4.5920   24.9350 C   0  0  0  0  0  0  0  0  0  0  0  0
  -22.1110   -3.9950   23.7740 C   0  0  0  0  0  3  0  0  0  0  0  0
  -22.3010   -4.7670   22.6130 C   0  0  0  0  0  0  0  0  0  0  0  0
  -22.7750   -4.1800   21.4890 F   0  0  0  0  0  0  0  0  0  0  0  0
  -21.4120   -3.8500   26.0520 F   0  0  0  0  0  0  0  0  0  0  0  0
  -23.3690  -13.4670   21.4930 C   0  0  0  0  0  0  0  0  0  0  0  0
  -22.7230  -12.7460   22.3970 N   0  0  0  0  0  0  0  0  0  0  0  0
  -22.9030  -14.5270   21.0720 O   0  0  0  0  0  0  0  0  0  0  0  0
  -23.1160  -11.8980   22.7830 H   0  0  0  0  0  0  0  0  0  0  0  0
  -21.8220  -13.0580   22.7260 H   0  0  0  0  0  0  0  0  0  0  0  0
  -25.9470  -15.1260   20.5710 N   0  0  0  0  0  0  0  0  0  0  0  0
  -25.1810  -15.7820   20.6670 H   0  0  0  0  0  0  0  0  0  0  0  0
  -26.7700  -15.5670   20.1820 H   0  0  0  0  0  0  0  0  0  0  0  0
  -28.8850  -21.1400   19.0370 O   0  0  0  0  0  0  0  0  0  0  0  0
  -28.8420  -22.4490   19.7310 C   0  0  0  0  0  2  0  0  0  0  0  0
  -28.2460  -23.7840   19.0950 C   0  0  0  0  0  2  0  0  0  0  0  0
  -28.5700  -25.1240   19.9110 C   0  0  0  0  0  2  0  0  0  0  0  0
  -28.5750  -26.4690   19.3040 O   0  0  0  0  0  0  0  0  0  0  0  0
  -24.5800  -31.3300   22.8520 C   0  0  0  0  0  0  0  0  0  0  0  0
  -27.4260  -27.2420   19.4020 C   0  0  0  0  0  0  0  0  0  0  0  0
  -23.4620  -30.0090   21.0900 C   0  0  0  0  0  3  0  0  0  0  0  0
  -24.9900  -28.6880   19.5440 C   0  0  0  0  0  0  0  0  0  0  0  0
  -25.9710  -30.5120   20.9450 C   0  0  0  0  0  2  0  0  0  0  0  0
  -26.1330  -29.2090   20.1690 C   0  0  0  0  0  0  0  0  0  0  0  0
  -27.3620  -28.4900   20.0980 C   0  0  0  0  0  3  0  0  0  0  0  0
  -26.2690  -26.7750   18.7510 C   0  0  0  0  0  3  0  0  0  0  0  0
  -25.0540  -27.4780   18.8400 C   0  0  0  0  0  3  0  0  0  0  0  0
  -23.7140  -29.4890   19.6520 C   0  0  0  0  0  2  0  0  0  0  0  0
  -24.6890  -30.6280   21.6900 N   0  0  0  0  0  0  0  0  0  0  0  0
  -23.4820  -31.4820   23.4050 O   0  0  0  0  0  0  0  0  0  0  0  0
  -22.8690  -28.8650   21.9500 C   0  0  0  0  0  0  0  0  0  0  0  0
  -21.5530  -28.6240   21.8180 N   0  0  0  0  0  0  0  0  0  0  0  0
  -23.5930  -28.1990   22.6950 O   0  0  0  0  0  0  0  0  0  0  0  0
  -21.0170  -29.2280   21.2060 H   0  0  0  0  0  0  0  0  0  0  0  0
  -18.2520  -27.2020   22.2180 C   0  0  0  0  0  0  0  0  0  0  0  0
  -20.7950  -27.5760   22.5040 C   0  0  0  0  0  3  0  0  0  0  0  0
  -20.9740  -26.2080   21.8050 C   0  0  0  0  0  2  0  0  0  0  0  0
  -19.8850  -25.9140   20.7700 C   0  0  0  0  0  2  0  0  0  0  0  0
  -18.5020  -25.9270   21.4270 C   0  0  0  0  0  2  0  0  0  0  0  0
  -19.3290  -27.9860   22.7100 C   0  0  0  0  0  0  0  0  0  0  0  0
  -19.0410  -29.1800   23.4080 C   0  0  0  0  0  3  0  0  0  0  0  0
  -17.7120  -29.5890   23.6180 C   0  0  0  0  0  3  0  0  0  0  0  0
  -16.6520  -28.8020   23.1440 C   0  0  0  0  0  3  0  0  0  0  0  0
  -16.9220  -27.6090   22.4510 C   0  0  0  0  0  3  0  0  0  0  0  0
  -25.8230  -31.9860   23.5290 C   0  0  0  0  0  3  0  0  0  0  0  0
  -25.4290  -33.3330   23.9710 N   0  0  0  0  0  0  0  0  0  0  0  0
  -25.7050  -34.4630   23.3070 C   0  0  0  0  0  0  0  0  0  0  0  0
  -26.3730  -34.4860   22.2710 O   0  0  0  0  0  0  0  0  0  0  0  0
  -24.8470  -33.3920   24.7930 H   0  0  0  0  0  0  0  0  0  0  0  0
  -23.8730  -36.1770   23.0930 C   0  0  0  0  0  1  0  0  0  0  0  0
  -25.1330  -35.7770   23.8760 C   0  0  0  0  0  3  0  0  0  0  0  0
  -27.2070  -36.7100   24.8010 C   0  0  0  0  0  1  0  0  0  0  0  0
  -26.1010  -36.8930   23.8670 N   0  0  0  0  0  0  0  0  0  0  0  0
  -25.6390  -37.7670   24.0980 H   0  0  0  0  0  0  0  0  0  0  0  0
  -26.3930  -31.1480   24.7360 C   0  0  1  0  0  0  0  0  0  0  0  0
  -25.3320  -30.7740   25.7950 C   0  0  0  0  0  1  0  0  0  0  0  0
  -27.0490  -29.8410   24.2350 C   0  0  0  0  0  1  0  0  0  0  0  0
  -27.5030  -31.9510   25.4600 C   0  0  0  0  0  1  0  0  0  0  0  0
  2  1  1  0
  3  4  2  0
  3  5  1  0
  4  9  1  0
  4  6  1  0
  5  8  1  0
  5  1  2  0
  6  2  2  0
  8  7  1  0
 10 16  1  0
 10 22  1  0
 11 16  1  0
 12 13  1  0
 12 11  1  0
 14 13  1  0
 14 26  1  0
 14 15  1  0
 16 15  1  0
 17 10  2  0
 19 18  1  0
 20 18  1  0
 21  9  1  0
 21 19  1  0
 22 21  1  0
 22 20  1  0
 23 24  2  0
 24 43  1  0
 25 28  1  0
 25 24  1  0
 26 27  1  0
 26 23  1  0
 27 25  2  0
 28 29  1  0
 29 30  2  0
 31 34  1  0
 31 30  1  0
 32 31  2  0
 33 32  1  0
 33 28  2  0
 34 35  1  0
 35 40  2  0
 35 36  1  0
 36 37  2  0
 38 37  1  0
 38 42  1  0
 39 38  2  0
 40 39  1  0
 41 40  1  0
 43 44  1  0
 44 47  1  0
 44 46  1  0
 45 43  2  0
 48 23  1  0
 48 49  1  0
 50 48  1  0
 51  6  1  0
 51 52  1  0
 53 52  1  0
 53 54  1  0
 55 57  1  0
 55 54  1  0
 56 67  2  0
 57 62  1  0
 58 66  1  0
 58 68  1  0
 59 65  1  0
 59 61  1  0
 60 66  1  0
 61 60  1  0
 62 61  2  0
 63 64  1  0
 63 57  2  0
 64 59  2  0
 65 58  1  0
 66 56  1  0
 68 70  2  0
 69 68  1  0
 71 69  1  0
 72 81  2  0
 72 77  1  0
 73 69  1  0
 73 77  1  0
 74 73  1  0
 75 76  1  0
 75 74  1  0
 76 72  1  0
 77 78  2  0
 78 79  1  0
 80 79  2  0
 81 80  1  0
 82 56  1  0
 82 83  1  0
 82 92  1  0
 83 86  1  0
 84 88  1  0
 84 83  1  0
 85 84  2  0
 88 87  1  0
 90 88  1  0
 90 91  1  0
 90 89  1  0
 92 95  1  1
 92 93  1  0
 94 92  1  0
M  ISO  4  10 100  22 100  54 101  55 101
M  END
>  <TORSDO>  (23) 
F 22

>  <SCORE>  (23) 
-6.652

>  <name>  (23) 
22

>  <ligand_id>  (23) 
22

>  <original_smiles>  (23) 
[H]c1c([H])c([H])c2c(c1[H])C([H])([H])C([H])([H])C([H])([H])C2([H])N([H])C(=O)C1([H])N(C(=O)C([H])(N([H])C(=O)C([H])(N([H])C([H])([H])[H])C([H])([H])[H])C(C([H])([H])[H])(C([H])([H])[H])C([H])([H])[H])C([H])([H])c2c([H])c(OC([H])([H])C([H])([H])C([H])([H])Oc3c([H])c([H])c(OC([H])([H])[H])c([H])c3C([H])([H])C3([H])N(C(=O)N4C([H])([H])C([H])([H])C([H])([H])C([H])(n5nc(-c6c([H])c([H])c(Oc7c([H])c([H])c(F)c([H])c7F)c([H])c6[H])c(C(=O)N([H])[H])c5N([H])[H])C4([H])[H])C([H])([H])C([H])([H])C3([H])[H])c([H])c([H])c2C1([H])[H]

>  <smiles>  (23) 
[H]c1c([H])c([H])c2c(c1[H])C([H])([H])C([H])([H])C([H])([H])C2([H])N([H])C(=O)C1([H])N(C(=O)C([H])(N([H])C(=O)C([H])(N([H])C([H])([H])[H])C([H])([H])[H])C(C([H])([H])[H])(C([H])([H])[H])C([H])([H])[H])C([H])([H])c2c([H])c(OC([H])([H])C([H])([H])C([H])([H])Oc3c([H])c([H])c(OC([H])([H])[H])c([H])c3C([H])([H])C3([H])N(C(=O)N4C([H])([H])C([H])([H])C([H])([H])C([H])(n5nc(-c6c([H])c([H])c(Oc7c([H])c([H])c(F)c([H])c7F)c([H])c6[H])c(C(=O)N([H])[H])c5N([H])[H])C4([H])[H])C([H])([H])C([H])([H])C3([H])[H])c([H])c([H])c2C1([H])[H]

$$$$
23:0:0
     RDKit          3D

 93102  0  0  1  0  0  0  0  0999 V2000
  -27.3940  -21.2940   20.2740 C   0  0  0  0  0  3  0  0  0  0  0  0
  -29.2760  -22.8400   20.2790 C   0  0  0  0  0  3  0  0  0  0  0  0
  -26.5510  -22.4200   20.2490 C   0  0  0  0  0  0  0  0  0  0  0  0
  -27.0350  -23.7350   20.2380 C   0  0  0  0  0  0  0  0  0  0  0  0
  -28.4290  -24.0430   20.3090 C   0  0  0  0  0  0  0  0  0  0  0  0
  -28.7980  -21.4580   20.2690 C   0  0  0  0  0  3  0  0  0  0  0  0
  -25.0440  -22.3530   20.3530 C   0  0  0  0  0  3  0  0  0  0  0  0
  -25.8600  -24.6940   20.2590 C   0  0  0  0  0  3  0  0  0  0  0  0
  -24.5840  -23.8200   20.2990 C   0  0  0  0  0  3  0  0  0  0  0  0
  -30.4130  -25.4640   21.1660 C   0  0  0  0  0  1  0  0  0  0  0  0
  -28.9270  -25.5150   20.7910 C   0  0  0  0  0  3  0  0  0  0  0  0
  -28.8400  -26.8320   20.0480 O   0  0  0  0  0  0  0  0  0  0  0  0
  -24.8130  -31.9780   23.3680 C   0  0  0  0  0  0  0  0  0  0  0  0
  -27.7350  -27.7060   20.1260 C   0  0  0  0  0  0  0  0  0  0  0  0
  -23.7600  -30.6680   21.5590 C   0  0  0  0  0  3  0  0  0  0  0  0
  -25.3440  -29.2900   20.1000 C   0  0  0  0  0  0  0  0  0  0  0  0
  -26.2940  -31.0820   21.5440 C   0  0  0  0  0  2  0  0  0  0  0  0
  -26.4640  -29.7510   20.8080 C   0  0  0  0  0  0  0  0  0  0  0  0
  -27.6660  -28.9670   20.8170 C   0  0  0  0  0  3  0  0  0  0  0  0
  -26.6140  -27.3440   19.3680 C   0  0  0  0  0  3  0  0  0  0  0  0
  -25.4220  -28.0910   19.3790 C   0  0  0  0  0  3  0  0  0  0  0  0
  -24.0740  -30.1170   20.1460 C   0  0  0  0  0  2  0  0  0  0  0  0
  -24.9720  -31.2580   22.2160 N   0  0  0  0  0  0  0  0  0  0  0  0
  -23.6900  -32.1640   23.8620 O   0  0  0  0  0  0  0  0  0  0  0  0
  -23.0940  -29.5510   22.3970 C   0  0  0  0  0  0  0  0  0  0  0  0
  -21.7710  -29.3700   22.2300 N   0  0  0  0  0  0  0  0  0  0  0  0
  -23.7650  -28.8530   23.1600 O   0  0  0  0  0  0  0  0  0  0  0  0
  -21.2890  -29.9860   21.5910 H   0  0  0  0  0  0  0  0  0  0  0  0
  -18.3890  -28.1470   22.6270 C   0  0  0  0  0  0  0  0  0  0  0  0
  -20.9550  -28.3480   22.8850 C   0  0  0  0  0  3  0  0  0  0  0  0
  -21.0310  -27.0020   22.1280 C   0  0  0  0  0  2  0  0  0  0  0  0
  -19.9100  -26.8240   21.0980 C   0  0  0  0  0  2  0  0  0  0  0  0
  -18.5400  -26.8950   21.7790 C   0  0  0  0  0  2  0  0  0  0  0  0
  -19.5220  -28.8380   23.1320 C   0  0  0  0  0  0  0  0  0  0  0  0
  -19.3230  -30.0160   23.8840 C   0  0  0  0  0  3  0  0  0  0  0  0
  -18.0260  -30.5000   24.1390 C   0  0  0  0  0  3  0  0  0  0  0  0
  -16.9090  -29.8000   23.6520 C   0  0  0  0  0  3  0  0  0  0  0  0
  -17.0900  -28.6280   22.8980 C   0  0  0  0  0  3  0  0  0  0  0  0
  -26.0300  -32.6120   24.1100 C   0  0  0  0  0  3  0  0  0  0  0  0
  -26.4160  -31.8500   25.4390 C   0  0  1  0  0  0  0  0  0  0  0  0
  -25.2210  -31.6030   26.3890 C   0  0  0  0  0  1  0  0  0  0  0  0
  -27.0550  -30.4780   25.1210 C   0  0  0  0  0  1  0  0  0  0  0  0
  -27.4750  -32.6600   26.2230 C   0  0  0  0  0  1  0  0  0  0  0  0
  -25.6880  -34.0120   24.4000 N   0  0  0  0  0  0  0  0  0  0  0  0
  -26.0480  -35.0600   23.6450 C   0  0  0  0  0  0  0  0  0  0  0  0
  -26.7700  -34.9490   22.6510 O   0  0  0  0  0  0  0  0  0  0  0  0
  -25.0480  -34.1700   25.1640 H   0  0  0  0  0  0  0  0  0  0  0  0
  -24.3110  -36.8300   23.1950 C   0  0  0  0  0  1  0  0  0  0  0  0
  -25.5240  -36.4490   24.0580 C   0  0  0  0  0  3  0  0  0  0  0  0
  -27.6130  -37.3840   24.9510 C   0  0  0  0  0  1  0  0  0  0  0  0
  -26.5450  -37.5150   23.9650 N   0  0  0  0  0  0  0  0  0  0  0  0
  -26.1180  -38.4310   24.0810 H   0  0  0  0  0  0  0  0  0  0  0  0
  -29.6690  -20.3220   20.2670 O   0  0  0  0  0  0  0  0  0  0  0  0
  -29.2440  -18.9150   20.5860 C   0  0  0  0  0  3  0  0  0  0  0  0
  -30.2340  -17.6940   20.1770 C   0  0  0  0  0  3  0  0  0  0  0  0
  -30.8560  -15.1930   20.6880 C   0  0  0  0  0  0  0  0  0  0  0  0
  -30.8370  -12.8390   19.8630 C   0  0  0  0  0  2  0  0  0  0  0  0
  -30.0130  -12.7930   18.5590 C   0  0  0  0  0  2  0  0  0  0  0  0
  -28.5040  -12.6540   18.8480 C   0  0  0  0  0  2  0  0  0  0  0  0
  -28.0120  -13.6060   19.9730 C   0  0  0  0  0  3  0  0  0  0  0  0
  -28.9600  -13.5960   21.1910 C   0  0  0  0  0  2  0  0  0  0  0  0
  -30.2980  -13.9410   20.6980 N   0  0  0  0  0  0  0  0  0  0  0  0
  -32.0570  -15.3320   20.4210 O   0  0  0  0  0  0  0  0  0  0  0  0
  -30.0010  -16.2810   20.7140 N   0  0  0  0  0  0  0  0  0  0  0  0
  -29.0390  -16.0560   20.9240 H   0  0  0  0  0  0  0  0  0  0  0  0
  -25.5820  -14.2200   20.5010 C   0  0  0  0  0  0  0  0  0  0  0  0
  -24.4850  -13.4560   20.8050 C   0  0  0  0  0  0  0  0  0  0  0  0
  -24.9430  -12.1050   20.8320 C   0  0  0  0  0  0  0  0  0  0  0  0
  -26.6340  -13.3280   20.3610 N   0  0  0  0  0  0  0  0  0  0  0  0
  -26.2520  -12.0510   20.6180 N   0  0  0  0  0  0  0  0  0  0  0  0
  -24.1950  -10.8520   20.9970 C   0  0  0  0  0  0  0  0  0  0  0  0
  -24.5670   -9.8890   21.9610 C   0  0  0  0  0  3  0  0  0  0  0  0
  -23.8260   -8.6980   22.1100 C   0  0  0  0  0  3  0  0  0  0  0  0
  -22.6900   -8.4660   21.2950 C   0  0  0  0  0  0  0  0  0  0  0  0
  -22.3400   -9.4120   20.3160 C   0  0  0  0  0  3  0  0  0  0  0  0
  -23.0860  -10.5950   20.1680 C   0  0  0  0  0  3  0  0  0  0  0  0
  -21.9200   -7.3290   21.3520 O   0  0  0  0  0  0  0  0  0  0  0  0
  -21.8310   -6.5750   22.4950 C   0  0  0  0  0  0  0  0  0  0  0  0
  -21.3660   -7.1230   23.7100 C   0  0  0  0  0  3  0  0  0  0  0  0
  -21.2280   -6.2970   24.8440 C   0  0  0  0  0  3  0  0  0  0  0  0
  -21.5340   -4.9240   24.7560 C   0  0  0  0  0  0  0  0  0  0  0  0
  -21.9950   -4.3790   23.5450 C   0  0  0  0  0  3  0  0  0  0  0  0
  -22.1350   -5.2030   22.4160 C   0  0  0  0  0  0  0  0  0  0  0  0
  -22.5580   -4.6700   21.2440 F   0  0  0  0  0  0  0  0  0  0  0  0
  -21.3950   -4.1310   25.8440 F   0  0  0  0  0  0  0  0  0  0  0  0
  -23.0750  -13.9400   20.9710 C   0  0  0  0  0  0  0  0  0  0  0  0
  -22.2960  -13.2600   21.8010 N   0  0  0  0  0  0  0  0  0  0  0  0
  -22.6770  -14.9510   20.3970 O   0  0  0  0  0  0  0  0  0  0  0  0
  -22.6430  -12.4420   22.2800 H   0  0  0  0  0  0  0  0  0  0  0  0
  -21.3440  -13.5510   21.9670 H   0  0  0  0  0  0  0  0  0  0  0  0
  -25.7590  -15.5890   20.3120 N   0  0  0  0  0  0  0  0  0  0  0  0
  -24.9760  -16.2310   20.3370 H   0  0  0  0  0  0  0  0  0  0  0  0
  -26.6110  -16.0260   19.9880 H   0  0  0  0  0  0  0  0  0  0  0  0
  2  5  2  0
  3  1  2  0
  3  7  1  0
  4  3  1  0
  4  8  2  0
  4  5  1  0
  5 11  1  0
  6 53  1  0
  6  1  1  0
  6  2  1  0
  8  9  1  0
  9  7  2  0
 11 10  1  0
 12 14  1  0
 12 11  1  0
 13 24  2  0
 14 19  1  0
 15 23  1  0
 15 25  1  0
 16 22  1  0
 16 18  1  0
 17 23  1  0
 18 19  2  0
 18 17  1  0
 20 21  1  0
 20 14  2  0
 21 16  2  0
 22 15  1  0
 23 13  1  0
 25 27  2  0
 26 25  1  0
 28 26  1  0
 29 38  2  0
 29 34  1  0
 30 26  1  0
 30 34  1  0
 31 30  1  0
 32 33  1  0
 32 31  1  0
 33 29  1  0
 34 35  2  0
 35 36  1  0
 37 36  2  0
 38 37  1  0
 39 13  1  0
 39 44  1  0
 39 40  1  0
 40 43  1  1
 40 41  1  0
 42 40  1  0
 44 47  1  0
 45 49  1  0
 45 44  1  0
 46 45  2  0
 49 48  1  0
 51 49  1  0
 51 52  1  0
 51 50  1  0
 53 54  1  0
 55 54  2  0
 55 64  1  0
 56 62  1  0
 56 64  1  0
 57 62  1  0
 58 59  1  0
 58 57  1  0
 60 59  1  0
 60 69  1  0
 60 61  1  0
 62 61  1  0
 63 56  2  0
 64 65  1  0
 66 67  2  0
 67 68  1  0
 67 86  1  0
 68 71  1  0
 69 66  1  0
 69 70  1  0
 70 68  2  0
 71 72  1  0
 72 73  2  0
 74 77  1  0
 74 73  1  0
 75 74  2  0
 76 75  1  0
 76 71  2  0
 77 78  1  0
 78 79  1  0
 79 80  2  0
 81 80  1  0
 81 85  1  0
 82 81  2  0
 83 78  2  0
 83 82  1  0
 84 83  1  0
 86 87  1  0
 87 90  1  0
 87 89  1  0
 88 86  2  0
 91 92  1  0
 91 66  1  0
 93 91  1  0
M  ISO  4  11 101  12 101  56 100  64 100
M  END
>  <TORSDO>  (24) 
F 20

>  <SCORE>  (24) 
-12.101

>  <name>  (24) 
23

>  <ligand_id>  (24) 
23

>  <original_smiles>  (24) 
[H]c1c([H])c([H])c2c(c1[H])C([H])([H])C([H])([H])C([H])([H])C2([H])N([H])C(=O)C1([H])N(C(=O)C([H])(N([H])C(=O)C([H])(N([H])C([H])([H])[H])C([H])([H])[H])C(C([H])([H])[H])(C([H])([H])[H])C([H])([H])[H])C([H])([H])c2c([H])c(OC([H])(c3c([H])c(OC([H])([H])C([H])([H])N([H])C(=O)N4C([H])([H])C([H])([H])C([H])([H])C([H])(n5nc(-c6c([H])c([H])c(Oc7c([H])c([H])c(F)c([H])c7F)c([H])c6[H])c(C(=O)N([H])[H])c5N([H])[H])C4([H])[H])c([H])c4c3C([H])([H])C([H])([H])C4([H])[H])C([H])([H])[H])c([H])c([H])c2C1([H])[H]

>  <smiles>  (24) 
[H]c1c([H])c([H])c2c(c1[H])C([H])([H])C([H])([H])C([H])([H])C2([H])N([H])C(=O)C1([H])N(C(=O)C([H])(N([H])C(=O)C([H])(N([H])C([H])([H])[H])C([H])([H])[H])C(C([H])([H])[H])(C([H])([H])[H])C([H])([H])[H])C([H])([H])c2c([H])c(OC([H])(c3c([H])c(OC([H])([H])C([H])([H])N([H])C(=O)N4C([H])([H])C([H])([H])C([H])([H])C([H])(n5nc(-c6c([H])c([H])c(Oc7c([H])c([H])c(F)c([H])c7F)c([H])c6[H])c(C(=O)N([H])[H])c5N([H])[H])C4([H])[H])c([H])c4c3C([H])([H])C([H])([H])C4([H])[H])C([H])([H])[H])c([H])c([H])c2C1([H])[H]

$$$$
24:0:0
     RDKit          3D

 94103  0  0  1  0  0  0  0  0999 V2000
  -29.3310  -21.1100   22.0080 C   0  0  0  0  0  3  0  0  0  0  0  0
  -29.2490  -22.5040   21.7960 C   0  0  0  0  0  0  0  0  0  0  0  0
  -29.5970  -23.0400   20.5280 C   0  0  0  0  0  0  0  0  0  0  0  0
  -29.7490  -20.2530   20.9730 C   0  0  0  0  0  0  0  0  0  0  0  0
  -29.9720  -22.0930   19.5270 C   0  0  0  0  0  0  0  0  0  0  0  0
  -28.8240  -23.3900   22.9550 C   0  0  0  0  0  1  0  0  0  0  0  0
  -30.0380  -20.7500   19.7480 N   0  0  0  0  0  0  0  0  0  0  0  0
  -30.8160  -14.7070   20.0570 C   0  0  0  0  0  0  0  0  0  0  0  0
  -30.4210  -12.5180   18.9420 C   0  0  0  0  0  2  0  0  0  0  0  0
  -29.4110  -12.6440   17.7830 C   0  0  0  0  0  2  0  0  0  0  0  0
  -27.9750  -12.4450   18.3050 C   0  0  0  0  0  2  0  0  0  0  0  0
  -27.6850  -13.3280   19.5410 C   0  0  0  0  0  3  0  0  0  0  0  0
  -28.8100  -13.2080   20.6030 C   0  0  0  0  0  2  0  0  0  0  0  0
  -30.0870  -13.5440   19.9570 N   0  0  0  0  0  0  0  0  0  0  0  0
  -31.9100  -14.7930   19.4900 O   0  0  0  0  0  0  0  0  0  0  0  0
  -28.9400  -17.8300   20.4230 C   0  0  0  0  0  2  0  0  0  0  0  0
  -31.3040  -18.1380   21.0940 C   0  0  0  0  0  2  0  0  0  0  0  0
  -29.0240  -16.3480   20.8850 C   0  0  0  0  0  2  0  0  0  0  0  0
  -31.3570  -16.6410   21.5320 C   0  0  0  0  0  2  0  0  0  0  0  0
  -29.8870  -18.7280   21.2300 C   0  0  0  0  0  3  0  0  0  0  0  0
  -30.3850  -15.7600   20.8360 N   0  0  0  0  0  0  0  0  0  0  0  0
  -25.3710  -13.9640   20.4610 C   0  0  0  0  0  0  0  0  0  0  0  0
  -24.3150  -13.2000   20.8800 C   0  0  0  0  0  0  0  0  0  0  0  0
  -24.7460  -11.8420   20.7680 C   0  0  0  0  0  0  0  0  0  0  0  0
  -26.3720  -13.0690   20.1160 N   0  0  0  0  0  0  0  0  0  0  0  0
  -26.0070  -11.7880   20.3650 N   0  0  0  0  0  0  0  0  0  0  0  0
  -24.0110  -10.5880   20.9580 C   0  0  0  0  0  0  0  0  0  0  0  0
  -24.4440   -9.6130   21.8830 C   0  0  0  0  0  3  0  0  0  0  0  0
  -23.7110   -8.4200   22.0590 C   0  0  0  0  0  3  0  0  0  0  0  0
  -22.5330   -8.1950   21.3100 C   0  0  0  0  0  0  0  0  0  0  0  0
  -22.1200   -9.1580   20.3710 C   0  0  0  0  0  3  0  0  0  0  0  0
  -22.8540  -10.3420   20.1940 C   0  0  0  0  0  3  0  0  0  0  0  0
  -21.7700   -7.0550   21.3970 O   0  0  0  0  0  0  0  0  0  0  0  0
  -21.6630   -6.3500   22.5690 C   0  0  0  0  0  0  0  0  0  0  0  0
  -21.1540   -6.9370   23.7480 C   0  0  0  0  0  3  0  0  0  0  0  0
  -20.9980   -6.1580   24.9110 C   0  0  0  0  0  3  0  0  0  0  0  0
  -21.3370   -4.7910   24.8940 C   0  0  0  0  0  0  0  0  0  0  0  0
  -21.8370   -4.2040   23.7190 C   0  0  0  0  0  3  0  0  0  0  0  0
  -21.9970   -4.9820   22.5590 C   0  0  0  0  0  0  0  0  0  0  0  0
  -22.4600   -4.4060   21.4230 F   0  0  0  0  0  0  0  0  0  0  0  0
  -21.1780   -4.0390   26.0080 F   0  0  0  0  0  0  0  0  0  0  0  0
  -22.9510  -13.6920   21.2670 C   0  0  0  0  0  0  0  0  0  0  0  0
  -22.2670  -12.9710   22.1490 N   0  0  0  0  0  0  0  0  0  0  0  0
  -22.5020  -14.7480   20.8220 O   0  0  0  0  0  0  0  0  0  0  0  0
  -22.6430  -12.1160   22.5290 H   0  0  0  0  0  0  0  0  0  0  0  0
  -21.3540  -13.2820   22.4500 H   0  0  0  0  0  0  0  0  0  0  0  0
  -25.5500  -15.3370   20.3200 N   0  0  0  0  0  0  0  0  0  0  0  0
  -24.8040  -15.9980   20.5060 H   0  0  0  0  0  0  0  0  0  0  0  0
  -26.3730  -15.7710   19.9240 H   0  0  0  0  0  0  0  0  0  0  0  0
  -29.1070  -22.4220   17.1620 C   0  0  0  0  0  1  0  0  0  0  0  0
  -30.3200  -22.4960   18.0990 C   0  0  0  0  0  2  0  0  0  0  0  0
  -29.6620  -24.5840   20.3170 C   0  0  0  0  0  2  0  0  0  0  0  0
  -28.3840  -25.3110   19.8010 C   0  0  0  0  0  2  0  0  0  0  0  0
  -28.4840  -26.7560   19.9210 O   0  0  0  0  0  0  0  0  0  0  0  0
  -24.5570  -31.7900   23.1250 C   0  0  0  0  0  0  0  0  0  0  0  0
  -27.3080  -27.4950   19.8980 C   0  0  0  0  0  0  0  0  0  0  0  0
  -23.3920  -30.4350   21.4170 C   0  0  0  0  0  3  0  0  0  0  0  0
  -24.8870  -28.9870   19.9390 C   0  0  0  0  0  0  0  0  0  0  0  0
  -25.9160  -30.8430   21.2580 C   0  0  0  0  0  2  0  0  0  0  0  0
  -26.0330  -29.5010   20.5580 C   0  0  0  0  0  0  0  0  0  0  0  0
  -27.2460  -28.7660   20.5270 C   0  0  0  0  0  3  0  0  0  0  0  0
  -26.1400  -27.0100   19.2660 C   0  0  0  0  0  3  0  0  0  0  0  0
  -24.9390  -27.7430   19.2850 C   0  0  0  0  0  3  0  0  0  0  0  0
  -23.6260  -29.8200   20.0110 C   0  0  0  0  0  2  0  0  0  0  0  0
  -24.6390  -31.0360   21.9920 N   0  0  0  0  0  0  0  0  0  0  0  0
  -23.4650  -32.0190   23.6660 O   0  0  0  0  0  0  0  0  0  0  0  0
  -22.7520  -29.3630   22.3290 C   0  0  0  0  0  0  0  0  0  0  0  0
  -21.4290  -29.1720   22.1940 N   0  0  0  0  0  0  0  0  0  0  0  0
  -23.4430  -28.7080   23.1130 O   0  0  0  0  0  0  0  0  0  0  0  0
  -20.9340  -29.7550   21.5340 H   0  0  0  0  0  0  0  0  0  0  0  0
  -18.0620  -27.9400   22.6600 C   0  0  0  0  0  0  0  0  0  0  0  0
  -20.6230  -28.1900   22.9190 C   0  0  0  0  0  3  0  0  0  0  0  0
  -20.7220  -26.7940   22.2620 C   0  0  0  0  0  2  0  0  0  0  0  0
  -19.6100  -26.5260   21.2430 C   0  0  0  0  0  2  0  0  0  0  0  0
  -18.2350  -26.6310   21.9090 C   0  0  0  0  0  2  0  0  0  0  0  0
  -19.1840  -28.6790   23.1210 C   0  0  0  0  0  0  0  0  0  0  0  0
  -18.9680  -29.9070   23.7840 C   0  0  0  0  0  3  0  0  0  0  0  0
  -17.6640  -30.3950   23.9910 C   0  0  0  0  0  3  0  0  0  0  0  0
  -16.5570  -29.6500   23.5470 C   0  0  0  0  0  3  0  0  0  0  0  0
  -16.7580  -28.4240   22.8880 C   0  0  0  0  0  3  0  0  0  0  0  0
  -25.8240  -32.4210   23.7820 C   0  0  0  0  0  3  0  0  0  0  0  0
  -26.3340  -31.6210   25.0440 C   0  0  1  0  0  0  0  0  0  0  0  0
  -25.2280  -31.3300   26.0850 C   0  0  0  0  0  1  0  0  0  0  0  0
  -26.9480  -30.2660   24.6180 C   0  0  0  0  0  1  0  0  0  0  0  0
  -27.4590  -32.4140   25.7480 C   0  0  0  0  0  1  0  0  0  0  0  0
  -25.4930  -33.8050   24.1450 N   0  0  0  0  0  0  0  0  0  0  0  0
  -25.8010  -34.8800   23.4080 C   0  0  0  0  0  0  0  0  0  0  0  0
  -26.4660  -34.8110   22.3700 O   0  0  0  0  0  0  0  0  0  0  0  0
  -24.9010  -33.9310   24.9540 H   0  0  0  0  0  0  0  0  0  0  0  0
  -24.0300  -36.6410   23.1120 C   0  0  0  0  0  1  0  0  0  0  0  0
  -25.2910  -36.2480   23.8990 C   0  0  0  0  0  3  0  0  0  0  0  0
  -27.4130  -37.1670   24.7240 C   0  0  0  0  0  1  0  0  0  0  0  0
  -26.3000  -37.3250   23.7920 N   0  0  0  0  0  0  0  0  0  0  0  0
  -25.8750  -38.2340   23.9550 H   0  0  0  0  0  0  0  0  0  0  0  0
  2  1  1  0
  2  6  1  0
  3  2  2  0
  4  1  2  0
  5  7  2  0
  5  3  1  0
  7  4  1  0
  8 21  1  0
  9 14  1  0
 10 11  1  0
 10  9  1  0
 12 11  1  0
 12 25  1  0
 12 13  1  0
 14  8  1  0
 14 13  1  0
 15  8  2  0
 16 18  1  0
 16 20  1  0
 17 20  1  0
 17 19  1  0
 20  4  1  0
 21 18  1  0
 21 19  1  0
 22 23  2  0
 23 42  1  0
 24 23  1  0
 24 27  1  0
 25 26  1  0
 25 22  1  0
 26 24  2  0
 27 28  1  0
 28 29  2  0
 30 33  1  0
 30 29  1  0
 31 30  2  0
 32 31  1  0
 32 27  2  0
 33 34  1  0
 34 35  1  0
 35 36  2  0
 37 36  1  0
 37 41  1  0
 38 37  2  0
 39 34  2  0
 39 38  1  0
 40 39  1  0
 42 43  1  0
 43 46  1  0
 43 45  1  0
 44 42  2  0
 47 22  1  0
 47 48  1  0
 49 47  1  0
 50 51  1  0
 51  5  1  0
 52  3  1  0
 53 54  1  0
 53 52  1  0
 55 66  2  0
 56 54  1  0
 56 61  1  0
 57 65  1  0
 57 67  1  0
 58 64  1  0
 58 60  1  0
 59 65  1  0
 60 59  1  0
 61 60  2  0
 62 63  1  0
 62 56  2  0
 63 58  2  0
 64 57  1  0
 65 55  1  0
 67 69  2  0
 68 67  1  0
 70 68  1  0
 71 80  2  0
 71 76  1  0
 72 68  1  0
 72 76  1  0
 73 72  1  0
 74 75  1  0
 74 73  1  0
 75 71  1  0
 76 77  2  0
 77 78  1  0
 79 78  2  0
 80 79  1  0
 81 55  1  0
 81 86  1  0
 81 82  1  0
 82 85  1  1
 82 83  1  0
 84 82  1  0
 86 89  1  0
 87 91  1  0
 87 86  1  0
 88 87  2  0
 91 90  1  0
 93 91  1  0
 93 94  1  0
 93 92  1  0
M  ISO  4   8 100  21 100  53 101  54 101
M  END
>  <TORSDO>  (25) 
F 19

>  <SCORE>  (25) 
-13.716

>  <name>  (25) 
24

>  <ligand_id>  (25) 
24

>  <original_smiles>  (25) 
[H]c1c([H])c([H])c2c(c1[H])C([H])([H])C([H])([H])C([H])([H])C2([H])N([H])C(=O)C1([H])N(C(=O)C([H])(N([H])C(=O)C([H])(N([H])C([H])([H])[H])C([H])([H])[H])C(C([H])([H])[H])(C([H])([H])[H])C([H])([H])[H])C([H])([H])c2c([H])c(OC([H])([H])C([H])([H])c3c(C([H])([H])C([H])([H])[H])nc(C4([H])C([H])([H])C([H])([H])N(C(=O)N5C([H])([H])C([H])([H])C([H])([H])C([H])(n6nc(-c7c([H])c([H])c(Oc8c([H])c([H])c(F)c([H])c8F)c([H])c7[H])c(C(=O)N([H])[H])c6N([H])[H])C5([H])[H])C([H])([H])C4([H])[H])c([H])c3C([H])([H])[H])c([H])c([H])c2C1([H])[H]

>  <smiles>  (25) 
[H]c1c([H])c([H])c2c(c1[H])C([H])([H])C([H])([H])C([H])([H])C2([H])N([H])C(=O)C1([H])N(C(=O)C([H])(N([H])C(=O)C([H])(N([H])C([H])([H])[H])C([H])([H])[H])C(C([H])([H])[H])(C([H])([H])[H])C([H])([H])[H])C([H])([H])c2c([H])c(OC([H])([H])C([H])([H])c3c(C([H])([H])C([H])([H])[H])nc(C4([H])C([H])([H])C([H])([H])N(C(=O)N5C([H])([H])C([H])([H])C([H])([H])C([H])(n6nc(-c7c([H])c([H])c(Oc8c([H])c([H])c(F)c([H])c8F)c([H])c7[H])c(C(=O)N([H])[H])c6N([H])[H])C5([H])[H])C([H])([H])C4([H])[H])c([H])c3C([H])([H])[H])c([H])c([H])c2C1([H])[H]

$$$$
25:0:0
     RDKit          3D

 93102  0  0  1  0  0  0  0  0999 V2000
  -27.4930  -20.2130   20.6440 C   0  0  0  0  0  3  0  0  0  0  0  0
  -28.4850  -19.2300   20.6410 C   0  0  0  0  0  3  0  0  0  0  0  0
  -27.7880  -21.5020   20.1580 C   0  0  0  0  0  0  0  0  0  0  0  0
  -29.7480  -19.5420   20.1310 C   0  0  0  0  0  0  0  0  0  0  0  0
  -29.0860  -21.7570   19.6480 C   0  0  0  0  0  0  0  0  0  0  0  0
  -30.0410  -20.7790   19.6190 N   0  0  0  0  0  0  0  0  0  0  0  0
  -26.8360  -23.9420   20.6110 C   0  0  0  0  0  2  0  0  0  0  0  0
  -26.1980  -22.9560   21.5490 C   0  0  0  0  0  2  0  0  0  0  0  0
  -26.6740  -22.4990   20.1850 C   0  0  0  0  0  3  0  0  0  0  0  0
  -30.8350  -18.4580   20.2100 C   0  0  0  0  0  2  0  0  0  0  0  0
  -30.6150  -17.1700   19.3540 C   0  0  0  0  0  2  0  0  0  0  0  0
  -30.9050  -14.7450   19.9670 C   0  0  0  0  0  0  0  0  0  0  0  0
  -30.4530  -12.5470   18.9730 C   0  0  0  0  0  2  0  0  0  0  0  0
  -29.4840  -12.7450   17.7890 C   0  0  0  0  0  2  0  0  0  0  0  0
  -28.0240  -12.6720   18.2720 C   0  0  0  0  0  2  0  0  0  0  0  0
  -27.7530  -13.5540   19.5230 C   0  0  0  0  0  3  0  0  0  0  0  0
  -28.8540  -13.3880   20.5960 C   0  0  0  0  0  2  0  0  0  0  0  0
  -30.1600  -13.6030   19.9550 N   0  0  0  0  0  0  0  0  0  0  0  0
  -32.0760  -14.7650   19.5930 O   0  0  0  0  0  0  0  0  0  0  0  0
  -30.2250  -15.9130   20.0690 N   0  0  0  0  0  0  0  0  0  0  0  0
  -29.2690  -15.8440   20.3840 H   0  0  0  0  0  0  0  0  0  0  0  0
  -25.4160  -14.2350   20.3500 C   0  0  0  0  0  0  0  0  0  0  0  0
  -24.3360  -13.5010   20.7510 C   0  0  0  0  0  0  0  0  0  0  0  0
  -24.7380  -12.1320   20.6790 C   0  0  0  0  0  0  0  0  0  0  0  0
  -26.4160  -13.3190   20.0640 N   0  0  0  0  0  0  0  0  0  0  0  0
  -26.0150  -12.0480   20.3240 N   0  0  0  0  0  0  0  0  0  0  0  0
  -23.9660  -10.8980   20.8740 C   0  0  0  0  0  0  0  0  0  0  0  0
  -24.3720   -9.9110   21.8000 C   0  0  0  0  0  3  0  0  0  0  0  0
  -23.6020   -8.7430   21.9850 C   0  0  0  0  0  3  0  0  0  0  0  0
  -22.4100   -8.5530   21.2450 C   0  0  0  0  0  0  0  0  0  0  0  0
  -22.0240   -9.5270   20.3070 C   0  0  0  0  0  3  0  0  0  0  0  0
  -22.7950  -10.6860   20.1200 C   0  0  0  0  0  3  0  0  0  0  0  0
  -21.6130   -7.4380   21.3410 O   0  0  0  0  0  0  0  0  0  0  0  0
  -21.5370   -6.7040   22.4980 C   0  0  0  0  0  0  0  0  0  0  0  0
  -21.0970   -7.2740   23.7130 C   0  0  0  0  0  3  0  0  0  0  0  0
  -20.9630   -6.4690   24.8610 C   0  0  0  0  0  3  0  0  0  0  0  0
  -21.2640   -5.0950   24.7980 C   0  0  0  0  0  0  0  0  0  0  0  0
  -21.6980   -4.5250   23.5880 C   0  0  0  0  0  3  0  0  0  0  0  0
  -21.8300   -5.3270   22.4410 C   0  0  0  0  0  0  0  0  0  0  0  0
  -22.2290   -4.7680   21.2740 F   0  0  0  0  0  0  0  0  0  0  0  0
  -21.1280   -4.3210   25.9000 F   0  0  0  0  0  0  0  0  0  0  0  0
  -22.9700  -14.0290   21.0880 C   0  0  0  0  0  0  0  0  0  0  0  0
  -22.2530  -13.3570   21.9810 N   0  0  0  0  0  0  0  0  0  0  0  0
  -22.5520  -15.0750   20.5910 O   0  0  0  0  0  0  0  0  0  0  0  0
  -22.6010  -12.5050   22.3970 H   0  0  0  0  0  0  0  0  0  0  0  0
  -21.3370  -13.6900   22.2420 H   0  0  0  0  0  0  0  0  0  0  0  0
  -25.6290  -15.6010   20.1760 N   0  0  0  0  0  0  0  0  0  0  0  0
  -24.8910  -16.2830   20.3030 H   0  0  0  0  0  0  0  0  0  0  0  0
  -26.4640  -15.9960   19.7630 H   0  0  0  0  0  0  0  0  0  0  0  0
  -29.3840  -22.9400   18.9740 O   0  0  0  0  0  0  0  0  0  0  0  0
  -29.6840  -24.1680   19.6980 C   0  0  0  0  0  2  0  0  0  0  0  0
  -28.7030  -25.3250   19.2610 C   0  0  0  0  0  2  0  0  0  0  0  0
  -28.8640  -26.7480   19.6610 O   0  0  0  0  0  0  0  0  0  0  0  0
  -24.5100  -31.3860   23.0690 C   0  0  0  0  0  0  0  0  0  0  0  0
  -27.6920  -27.5220   19.6310 C   0  0  0  0  0  0  0  0  0  0  0  0
  -23.5200  -30.0380   21.2580 C   0  0  0  0  0  3  0  0  0  0  0  0
  -25.1680  -28.8540   19.7190 C   0  0  0  0  0  0  0  0  0  0  0  0
  -26.0060  -30.6810   21.1850 C   0  0  0  0  0  2  0  0  0  0  0  0
  -26.2630  -29.4010   20.4010 C   0  0  0  0  0  0  0  0  0  0  0  0
  -27.5310  -28.7460   20.3540 C   0  0  0  0  0  3  0  0  0  0  0  0
  -26.5720  -27.0610   18.8970 C   0  0  0  0  0  3  0  0  0  0  0  0
  -25.3240  -27.6950   18.9560 C   0  0  0  0  0  3  0  0  0  0  0  0
  -23.8340  -29.5600   19.8210 C   0  0  0  0  0  2  0  0  0  0  0  0
  -24.6960  -30.7160   21.8950 N   0  0  0  0  0  0  0  0  0  0  0  0
  -23.3910  -31.4670   23.5980 O   0  0  0  0  0  0  0  0  0  0  0  0
  -22.9780  -28.8420   22.0790 C   0  0  0  0  0  0  0  0  0  0  0  0
  -21.6850  -28.5180   21.8970 N   0  0  0  0  0  0  0  0  0  0  0  0
  -23.7160  -28.2160   22.8430 O   0  0  0  0  0  0  0  0  0  0  0  0
  -21.1410  -29.0860   21.2620 H   0  0  0  0  0  0  0  0  0  0  0  0
  -18.4760  -26.8750   22.1670 C   0  0  0  0  0  0  0  0  0  0  0  0
  -20.9780  -27.4120   22.5420 C   0  0  0  0  0  3  0  0  0  0  0  0
  -21.2650  -26.0700   21.8300 C   0  0  0  0  0  2  0  0  0  0  0  0
  -20.2310  -25.7230   20.7540 C   0  0  0  0  0  2  0  0  0  0  0  0
  -18.8300  -25.6330   21.3660 C   0  0  0  0  0  2  0  0  0  0  0  0
  -19.4840  -27.7170   22.7080 C   0  0  0  0  0  0  0  0  0  0  0  0
  -19.0990  -28.8760   23.4170 C   0  0  0  0  0  3  0  0  0  0  0  0
  -17.7410  -29.1950   23.5920 C   0  0  0  0  0  3  0  0  0  0  0  0
  -16.7480  -28.3490   23.0690 C   0  0  0  0  0  3  0  0  0  0  0  0
  -17.1160  -27.1910   22.3600 C   0  0  0  0  0  3  0  0  0  0  0  0
  -25.6920  -32.1010   23.7920 C   0  0  0  0  0  3  0  0  0  0  0  0
  -25.2620  -33.4760   24.0850 N   0  0  0  0  0  0  0  0  0  0  0  0
  -25.6000  -34.5490   23.3570 C   0  0  0  0  0  0  0  0  0  0  0  0
  -26.3760  -34.4880   22.3990 O   0  0  0  0  0  0  0  0  0  0  0  0
  -24.5800  -33.5940   24.8190 H   0  0  0  0  0  0  0  0  0  0  0  0
  -23.8160  -36.2390   22.8120 C   0  0  0  0  0  1  0  0  0  0  0  0
  -24.9840  -35.9030   23.7540 C   0  0  0  0  0  3  0  0  0  0  0  0
  -26.9580  -36.9080   24.8110 C   0  0  0  0  0  1  0  0  0  0  0  0
  -25.9580  -37.0170   23.7530 N   0  0  0  0  0  0  0  0  0  0  0  0
  -25.4830  -37.9100   23.8560 H   0  0  0  0  0  0  0  0  0  0  0  0
  -26.1470  -31.3660   25.1110 C   0  0  1  0  0  0  0  0  0  0  0  0
  -24.9870  -31.0680   26.0900 C   0  0  0  0  0  1  0  0  0  0  0  0
  -26.8390  -30.0230   24.7830 C   0  0  0  0  0  1  0  0  0  0  0  0
  -27.1930  -32.2290   25.8550 C   0  0  0  0  0  1  0  0  0  0  0  0
  2  1  1  0
  3  9  1  0
  3  1  2  0
  4 10  1  0
  4  2  2  0
  5  3  1  0
  6  5  2  0
  6  4  1  0
  7  8  1  0
  9  7  1  0
  9  8  1  0
 11 20  1  0
 11 10  1  0
 12 20  1  0
 13 18  1  0
 14 15  1  0
 14 13  1  0
 16 15  1  0
 16 25  1  0
 16 17  1  0
 18 12  1  0
 18 17  1  0
 19 12  2  0
 20 21  1  0
 22 23  2  0
 23 42  1  0
 24 23  1  0
 24 27  1  0
 25 26  1  0
 25 22  1  0
 26 24  2  0
 27 28  1  0
 28 29  2  0
 30 33  1  0
 30 29  1  0
 31 30  2  0
 32 31  1  0
 32 27  2  0
 33 34  1  0
 34 35  1  0
 35 36  2  0
 37 36  1  0
 37 41  1  0
 38 37  2  0
 39 34  2  0
 39 38  1  0
 40 39  1  0
 42 43  1  0
 43 46  1  0
 43 45  1  0
 44 42  2  0
 47 48  1  0
 47 22  1  0
 49 47  1  0
 50  5  1  0
 50 51  1  0
 52 53  1  0
 52 51  1  0
 54 65  2  0
 55 53  1  0
 55 60  1  0
 56 64  1  0
 56 66  1  0
 57 63  1  0
 57 59  1  0
 58 64  1  0
 59 58  1  0
 60 59  2  0
 61 62  1  0
 61 55  2  0
 62 57  2  0
 63 56  1  0
 64 54  1  0
 66 68  2  0
 67 66  1  0
 69 67  1  0
 70 79  2  0
 70 75  1  0
 71 67  1  0
 71 75  1  0
 72 71  1  0
 73 74  1  0
 73 72  1  0
 74 70  1  0
 75 76  2  0
 76 77  1  0
 78 77  2  0
 79 78  1  0
 80 54  1  0
 80 81  1  0
 80 90  1  0
 81 84  1  0
 82 86  1  0
 82 81  1  0
 83 82  2  0
 86 85  1  0
 88 86  1  0
 88 89  1  0
 88 87  1  0
 90 93  1  1
 90 91  1  0
 92 90  1  0
M  ISO  4  12 100  20 100  52 101  53 101
M  END
>  <TORSDO>  (26) 
F 22

>  <SCORE>  (26) 
-10.609

>  <name>  (26) 
25

>  <ligand_id>  (26) 
25

>  <original_smiles>  (26) 
[H]c1c(C([H])([H])C([H])([H])N([H])C(=O)N2C([H])([H])C([H])([H])C([H])([H])C([H])(n3nc(-c4c([H])c([H])c(Oc5c([H])c([H])c(F)c([H])c5F)c([H])c4[H])c(C(=O)N([H])[H])c3N([H])[H])C2([H])[H])nc(OC([H])([H])C([H])([H])Oc2c([H])c([H])c3c(c2[H])C([H])([H])N(C(=O)C([H])(N([H])C(=O)C([H])(N([H])C([H])([H])[H])C([H])([H])[H])C(C([H])([H])[H])(C([H])([H])[H])C([H])([H])[H])C([H])(C(=O)N([H])C2([H])c4c([H])c([H])c([H])c([H])c4C([H])([H])C([H])([H])C2([H])[H])C3([H])[H])c(C2([H])C([H])([H])C2([H])[H])c1[H]

>  <smiles>  (26) 
[H]c1c(C([H])([H])C([H])([H])N([H])C(=O)N2C([H])([H])C([H])([H])C([H])([H])C([H])(n3nc(-c4c([H])c([H])c(Oc5c([H])c([H])c(F)c([H])c5F)c([H])c4[H])c(C(=O)N([H])[H])c3N([H])[H])C2([H])[H])nc(OC([H])([H])C([H])([H])Oc2c([H])c([H])c3c(c2[H])C([H])([H])N(C(=O)C([H])(N([H])C(=O)C([H])(N([H])C([H])([H])[H])C([H])([H])[H])C(C([H])([H])[H])(C([H])([H])[H])C([H])([H])[H])C([H])(C(=O)N([H])C2([H])c4c([H])c([H])c([H])c([H])c4C([H])([H])C([H])([H])C2([H])[H])C3([H])[H])c(C2([H])C([H])([H])C2([H])[H])c1[H]

$$$$
26:0:0
     RDKit          3D

 94103  0  0  1  0  0  0  0  0999 V2000
  -30.2960  -23.4260   19.8280 C   0  0  0  0  0  3  0  0  0  0  0  0
  -28.1240  -22.7050   19.4980 C   0  0  0  0  0  0  0  0  0  0  0  0
  -27.7180  -24.0870   19.4220 C   0  0  0  0  0  0  0  0  0  0  0  0
  -29.4650  -22.2520   19.7160 C   0  0  0  0  0  0  0  0  0  0  0  0
  -28.6350  -25.2000   19.5460 C   0  0  0  0  0  0  0  0  0  0  0  0
  -26.9560  -21.7770   19.3510 C   0  0  0  0  0  2  0  0  0  0  0  0
  -26.2190  -24.1590   19.2380 C   0  0  0  0  0  2  0  0  0  0  0  0
  -25.7160  -22.6840   19.1420 C   0  0  2  0  0  0  0  0  0  0  0  0
  -24.6550  -22.4180   20.2210 C   0  0  0  0  0  1  0  0  0  0  0  0
  -25.1070  -22.3880   17.7540 C   0  0  0  0  0  1  0  0  0  0  0  0
  -29.9230  -24.7660   19.7530 N   0  0  0  0  0  0  0  0  0  0  0  0
  -30.0170  -20.8690   19.8490 N   0  0  0  0  0  0  0  0  0  0  0  0
  -31.0360  -20.8750   19.8720 H   0  0  0  0  0  0  0  0  0  0  0  0
  -29.4710  -19.4120   19.8900 C   0  0  0  0  0  3  0  0  0  0  0  0
  -30.5120  -18.1130   20.1540 C   0  0  0  0  0  3  0  0  0  0  0  0
  -30.8570  -15.4080   20.1950 C   0  0  0  0  0  0  0  0  0  0  0  0
  -30.7410  -13.0260   19.3520 C   0  0  0  0  0  2  0  0  0  0  0  0
  -29.8270  -12.9260   18.1090 C   0  0  0  0  0  2  0  0  0  0  0  0
  -28.3630  -12.7210   18.5390 C   0  0  0  0  0  2  0  0  0  0  0  0
  -27.9290  -13.7060   19.6560 C   0  0  0  0  0  3  0  0  0  0  0  0
  -28.9650  -13.7780   20.7980 C   0  0  0  0  0  2  0  0  0  0  0  0
  -30.2480  -14.1560   20.1920 N   0  0  0  0  0  0  0  0  0  0  0  0
  -32.0570  -15.4600   19.9140 O   0  0  0  0  0  0  0  0  0  0  0  0
  -30.0970  -16.6010   20.3050 N   0  0  0  0  0  0  0  0  0  0  0  0
  -29.1240  -16.4480   20.5230 H   0  0  0  0  0  0  0  0  0  0  0  0
  -25.5550  -14.3140   20.4020 C   0  0  0  0  0  0  0  0  0  0  0  0
  -24.4760  -13.5510   20.7520 C   0  0  0  0  0  0  0  0  0  0  0  0
  -24.9160  -12.1920   20.6890 C   0  0  0  0  0  0  0  0  0  0  0  0
  -26.5840  -13.4230   20.1450 N   0  0  0  0  0  0  0  0  0  0  0  0
  -26.2070  -12.1400   20.3840 N   0  0  0  0  0  0  0  0  0  0  0  0
  -24.1660  -10.9400   20.8470 C   0  0  0  0  0  0  0  0  0  0  0  0
  -24.5400   -9.9710   21.8060 C   0  0  0  0  0  3  0  0  0  0  0  0
  -23.7920   -8.7820   21.9520 C   0  0  0  0  0  3  0  0  0  0  0  0
  -22.6580   -8.5540   21.1380 C   0  0  0  0  0  0  0  0  0  0  0  0
  -22.3020   -9.5100   20.1710 C   0  0  0  0  0  3  0  0  0  0  0  0
  -23.0500  -10.6900   20.0220 C   0  0  0  0  0  3  0  0  0  0  0  0
  -21.8870   -7.4170   21.1920 O   0  0  0  0  0  0  0  0  0  0  0  0
  -21.7290   -6.7070   22.3560 C   0  0  0  0  0  0  0  0  0  0  0  0
  -21.1960   -7.3000   23.5220 C   0  0  0  0  0  3  0  0  0  0  0  0
  -20.9840   -6.5180   24.6750 C   0  0  0  0  0  3  0  0  0  0  0  0
  -21.3000   -5.1460   24.6650 C   0  0  0  0  0  0  0  0  0  0  0  0
  -21.8280   -4.5540   23.5040 C   0  0  0  0  0  3  0  0  0  0  0  0
  -22.0410   -5.3320   22.3530 C   0  0  0  0  0  0  0  0  0  0  0  0
  -22.5270   -4.7520   21.2290 F   0  0  0  0  0  0  0  0  0  0  0  0
  -21.0920   -4.3940   25.7700 F   0  0  0  0  0  0  0  0  0  0  0  0
  -23.0870  -14.0460   21.0310 C   0  0  0  0  0  0  0  0  0  0  0  0
  -22.3450  -13.3440   21.8810 N   0  0  0  0  0  0  0  0  0  0  0  0
  -22.6680  -15.0900   20.5310 O   0  0  0  0  0  0  0  0  0  0  0  0
  -22.6980  -12.5000   22.3070 H   0  0  0  0  0  0  0  0  0  0  0  0
  -21.4120  -13.6570   22.1100 H   0  0  0  0  0  0  0  0  0  0  0  0
  -25.7440  -15.6850   20.2530 N   0  0  0  0  0  0  0  0  0  0  0  0
  -24.9840  -16.3490   20.3510 H   0  0  0  0  0  0  0  0  0  0  0  0
  -26.5900  -16.1090   19.8960 H   0  0  0  0  0  0  0  0  0  0  0  0
  -28.4780  -26.6690   19.5780 O   0  0  0  0  0  0  0  0  0  0  0  0
  -24.6750  -31.8490   23.2170 C   0  0  0  0  0  0  0  0  0  0  0  0
  -27.3370  -27.5430   19.6810 C   0  0  0  0  0  0  0  0  0  0  0  0
  -23.4870  -30.5950   21.4530 C   0  0  0  0  0  3  0  0  0  0  0  0
  -24.9580  -29.2060   19.8610 C   0  0  0  0  0  0  0  0  0  0  0  0
  -26.0260  -30.9400   21.2920 C   0  0  0  0  0  2  0  0  0  0  0  0
  -26.1270  -29.6160   20.5130 C   0  0  0  0  0  0  0  0  0  0  0  0
  -27.3090  -28.7940   20.4210 C   0  0  0  0  0  3  0  0  0  0  0  0
  -26.1620  -27.2690   18.9540 C   0  0  0  0  0  3  0  0  0  0  0  0
  -24.9840  -28.0420   19.0740 C   0  0  0  0  0  3  0  0  0  0  0  0
  -23.7090  -30.0620   20.0110 C   0  0  0  0  0  2  0  0  0  0  0  0
  -24.7500  -31.1450   22.0450 N   0  0  0  0  0  0  0  0  0  0  0  0
  -23.5900  -32.0490   23.7840 O   0  0  0  0  0  0  0  0  0  0  0  0
  -22.8480  -29.4790   22.3140 C   0  0  0  0  0  0  0  0  0  0  0  0
  -21.5260  -29.2780   22.1720 N   0  0  0  0  0  0  0  0  0  0  0  0
  -23.5450  -28.7980   23.0720 O   0  0  0  0  0  0  0  0  0  0  0  0
  -21.0170  -29.8830   21.5410 H   0  0  0  0  0  0  0  0  0  0  0  0
  -18.1780  -27.9850   22.6330 C   0  0  0  0  0  0  0  0  0  0  0  0
  -20.7410  -28.2440   22.8490 C   0  0  0  0  0  3  0  0  0  0  0  0
  -20.8340  -26.8960   22.0980 C   0  0  0  0  0  2  0  0  0  0  0  0
  -19.7030  -26.6880   21.0870 C   0  0  0  0  0  2  0  0  0  0  0  0
  -18.3440  -26.7350   21.7880 C   0  0  0  0  0  2  0  0  0  0  0  0
  -19.3030  -28.7040   23.1180 C   0  0  0  0  0  0  0  0  0  0  0  0
  -19.0930  -29.8790   23.8700 C   0  0  0  0  0  3  0  0  0  0  0  0
  -17.7900  -30.3380   24.1410 C   0  0  0  0  0  3  0  0  0  0  0  0
  -16.6800  -29.6140   23.6700 C   0  0  0  0  0  3  0  0  0  0  0  0
  -16.8740  -28.4380   22.9240 C   0  0  0  0  0  3  0  0  0  0  0  0
  -25.9460  -32.4480   23.8930 C   0  0  0  0  0  3  0  0  0  0  0  0
  -26.4330  -31.6170   25.1450 C   0  0  1  0  0  0  0  0  0  0  0  0
  -25.3190  -31.3460   26.1810 C   0  0  0  0  0  1  0  0  0  0  0  0
  -27.0130  -30.2520   24.7050 C   0  0  0  0  0  1  0  0  0  0  0  0
  -27.5780  -32.3690   25.8650 C   0  0  0  0  0  1  0  0  0  0  0  0
  -25.6390  -33.8320   24.2890 N   0  0  0  0  0  0  0  0  0  0  0  0
  -25.9520  -34.9160   23.5710 C   0  0  0  0  0  0  0  0  0  0  0  0
  -26.5970  -34.8560   22.5210 O   0  0  0  0  0  0  0  0  0  0  0  0
  -25.0770  -33.9520   25.1190 H   0  0  0  0  0  0  0  0  0  0  0  0
  -24.1940  -36.7000   23.3460 C   0  0  0  0  0  1  0  0  0  0  0  0
  -25.4710  -36.2830   24.0950 C   0  0  0  0  0  3  0  0  0  0  0  0
  -27.6230  -37.1660   24.8830 C   0  0  0  0  0  1  0  0  0  0  0  0
  -26.4900  -37.3510   23.9810 N   0  0  0  0  0  0  0  0  0  0  0  0
  -26.0790  -38.2620   24.1740 H   0  0  0  0  0  0  0  0  0  0  0  0
  2  4  1  0
  3  2  2  0
  3  5  1  0
  4  1  2  0
  4 12  1  0
  5 54  1  0
  5 11  2  0
  6  2  1  0
  7  3  1  0
  8  7  1  0
  8  6  1  0
  8  9  1  1
 10  8  1  0
 11  1  1  0
 12 13  1  0
 12 14  1  0
 14 15  2  0
 15 24  1  0
 16 24  1  0
 17 22  1  0
 18 19  1  0
 18 17  1  0
 20 19  1  0
 20 29  1  0
 20 21  1  0
 22 16  1  0
 22 21  1  0
 23 16  2  0
 24 25  1  0
 26 27  2  0
 27 46  1  0
 28 27  1  0
 28 31  1  0
 29 30  1  0
 29 26  1  0
 30 28  2  0
 31 32  1  0
 32 33  2  0
 34 37  1  0
 34 33  1  0
 35 34  2  0
 36 35  1  0
 36 31  2  0
 37 38  1  0
 38 39  1  0
 39 40  2  0
 41 40  1  0
 41 45  1  0
 42 41  2  0
 43 38  2  0
 43 42  1  0
 44 43  1  0
 46 47  1  0
 47 50  1  0
 47 49  1  0
 48 46  2  0
 51 52  1  0
 51 26  1  0
 53 51  1  0
 54 56  1  0
 55 66  2  0
 56 61  1  0
 57 65  1  0
 57 67  1  0
 58 64  1  0
 58 60  1  0
 59 65  1  0
 60 59  1  0
 61 60  2  0
 62 63  1  0
 62 56  2  0
 63 58  2  0
 64 57  1  0
 65 55  1  0
 67 69  2  0
 68 67  1  0
 70 68  1  0
 71 80  2  0
 71 76  1  0
 72 68  1  0
 72 76  1  0
 73 72  1  0
 74 75  1  0
 74 73  1  0
 75 71  1  0
 76 77  2  0
 77 78  1  0
 79 78  2  0
 80 79  1  0
 81 55  1  0
 81 86  1  0
 81 82  1  0
 82 85  1  1
 82 83  1  0
 84 82  1  0
 86 89  1  0
 87 91  1  0
 87 86  1  0
 88 87  2  0
 91 90  1  0
 93 91  1  0
 93 94  1  0
 93 92  1  0
M  ISO  4   5 101  16 100  24 100  54 101
M  END
>  <TORSDO>  (27) 
F 19

>  <SCORE>  (27) 
-12.870

>  <name>  (27) 
26

>  <ligand_id>  (27) 
26

>  <original_smiles>  (27) 
[H]c1nc(Oc2c([H])c([H])c3c(c2[H])C([H])([H])N(C(=O)C([H])(N([H])C(=O)C([H])(N([H])C([H])([H])[H])C([H])([H])[H])C(C([H])([H])[H])(C([H])([H])[H])C([H])([H])[H])C([H])(C(=O)N([H])C2([H])c4c([H])c([H])c([H])c([H])c4C([H])([H])C([H])([H])C2([H])[H])C3([H])[H])c2c(c1N([H])C([H])([H])C([H])([H])N([H])C(=O)N1C([H])([H])C([H])([H])C([H])([H])C([H])(n3nc(-c4c([H])c([H])c(Oc5c([H])c([H])c(F)c([H])c5F)c([H])c4[H])c(C(=O)N([H])[H])c3N([H])[H])C1([H])[H])C([H])([H])C(C([H])([H])[H])(C([H])([H])[H])C2([H])[H]

>  <smiles>  (27) 
[H]c1nc(Oc2c([H])c([H])c3c(c2[H])C([H])([H])N(C(=O)C([H])(N([H])C(=O)C([H])(N([H])C([H])([H])[H])C([H])([H])[H])C(C([H])([H])[H])(C([H])([H])[H])C([H])([H])[H])C([H])(C(=O)N([H])C2([H])c4c([H])c([H])c([H])c([H])c4C([H])([H])C([H])([H])C2([H])[H])C3([H])[H])c2c(c1N([H])C([H])([H])C([H])([H])N([H])C(=O)N1C([H])([H])C([H])([H])C([H])([H])C([H])(n3nc(-c4c([H])c([H])c(Oc5c([H])c([H])c(F)c([H])c5F)c([H])c4[H])c(C(=O)N([H])[H])c3N([H])[H])C1([H])[H])C([H])([H])C(C([H])([H])[H])(C([H])([H])[H])C2([H])[H]

$$$$
27:0:0
     RDKit          3D

 99108  0  0  1  0  0  0  0  0999 V2000
  -28.8170  -20.0740   20.0580 C   0  0  0  0  0  3  0  0  0  0  0  0
  -28.5480  -19.9270   18.6700 O   0  0  0  0  0  0  0  0  0  0  0  0
  -28.1150  -19.0890   18.5380 H   0  0  0  0  0  0  0  0  0  0  0  0
  -29.3350  -21.5920   20.2700 C   0  0  0  0  0  2  0  0  0  0  0  0
  -27.6200  -24.8670   21.1130 C   0  0  0  0  0  2  0  0  0  0  0  0
  -27.7550  -23.3290   21.3000 C   0  0  0  0  0  2  0  0  0  0  0  0
  -27.6750  -25.1170   19.6060 C   0  0  0  0  0  3  0  0  0  0  0  0
  -28.6870  -23.9600   19.2020 C   0  0  0  0  0  3  0  0  0  0  0  0
  -28.6200  -23.6580   17.6920 C   0  0  0  0  0  1  0  0  0  0  0  0
  -28.3320  -22.7430   20.0500 N   0  0  1  0  0  4  0  0  0  0  0  0
  -27.5490  -22.3060   19.5830 H   0  0  0  0  0  0  0  0  0  0  0  0
  -27.8950  -26.5660   19.2620 O   0  0  0  0  0  0  0  0  0  0  0  0
  -24.5110  -31.7370   23.0420 C   0  0  0  0  0  0  0  0  0  0  0  0
  -26.8050  -27.4530   19.3780 C   0  0  0  0  0  0  0  0  0  0  0  0
  -23.1570  -30.4750   21.4050 C   0  0  0  0  0  3  0  0  0  0  0  0
  -24.4640  -29.0730   19.7130 C   0  0  0  0  0  0  0  0  0  0  0  0
  -25.6690  -30.8190   21.0170 C   0  0  0  0  0  2  0  0  0  0  0  0
  -25.6840  -29.4990   20.2510 C   0  0  0  0  0  0  0  0  0  0  0  0
  -26.8570  -28.7000   20.0800 C   0  0  0  0  0  3  0  0  0  0  0  0
  -25.5700  -27.1210   18.7730 C   0  0  0  0  0  3  0  0  0  0  0  0
  -24.4110  -27.8960   18.9560 C   0  0  0  0  0  3  0  0  0  0  0  0
  -23.2390  -29.9270   19.9560 C   0  0  0  0  0  2  0  0  0  0  0  0
  -24.4700  -31.0250   21.8770 N   0  0  0  0  0  0  0  0  0  0  0  0
  -23.4830  -31.9570   23.6990 O   0  0  0  0  0  0  0  0  0  0  0  0
  -22.5910  -29.3700   22.3340 C   0  0  0  0  0  0  0  0  0  0  0  0
  -21.2720  -29.1300   22.2520 N   0  0  0  0  0  0  0  0  0  0  0  0
  -23.3370  -28.7400   23.0870 O   0  0  0  0  0  0  0  0  0  0  0  0
  -20.7290  -29.6960   21.6150 H   0  0  0  0  0  0  0  0  0  0  0  0
  -18.0140  -27.6260   22.7080 C   0  0  0  0  0  0  0  0  0  0  0  0
  -20.5350  -28.1090   23.0020 C   0  0  0  0  0  3  0  0  0  0  0  0
  -20.7690  -26.7030   22.4010 C   0  0  0  0  0  2  0  0  0  0  0  0
  -19.7070  -26.3020   21.3740 C   0  0  0  0  0  2  0  0  0  0  0  0
  -18.3160  -26.3120   22.0110 C   0  0  0  0  0  2  0  0  0  0  0  0
  -19.0560  -28.4790   23.1590 C   0  0  0  0  0  0  0  0  0  0  0  0
  -18.7200  -29.7070   23.7710 C   0  0  0  0  0  3  0  0  0  0  0  0
  -17.3740  -30.0830   23.9390 C   0  0  0  0  0  3  0  0  0  0  0  0
  -16.3470  -29.2280   23.5050 C   0  0  0  0  0  3  0  0  0  0  0  0
  -16.6670  -28.0020   22.8950 C   0  0  0  0  0  3  0  0  0  0  0  0
  -25.8460  -32.3260   23.5910 C   0  0  0  0  0  3  0  0  0  0  0  0
  -25.5800  -33.7010   24.0320 N   0  0  0  0  0  0  0  0  0  0  0  0
  -25.9030  -34.8010   23.3400 C   0  0  0  0  0  0  0  0  0  0  0  0
  -26.5310  -34.7630   22.2770 O   0  0  0  0  0  0  0  0  0  0  0  0
  -25.0220  -33.8050   24.8670 H   0  0  0  0  0  0  0  0  0  0  0  0
  -24.2080  -36.6550   23.1740 C   0  0  0  0  0  1  0  0  0  0  0  0
  -25.4590  -36.1600   23.9160 C   0  0  0  0  0  3  0  0  0  0  0  0
  -27.6370  -36.9320   24.7520 C   0  0  0  0  0  1  0  0  0  0  0  0
  -26.5120  -37.1980   23.8580 N   0  0  0  0  0  0  0  0  0  0  0  0
  -26.1300  -38.1100   24.0940 H   0  0  0  0  0  0  0  0  0  0  0  0
  -26.4630  -31.4750   24.7690 C   0  0  1  0  0  0  0  0  0  0  0  0
  -25.4640  -31.1800   25.9120 C   0  0  0  0  0  1  0  0  0  0  0  0
  -26.9870  -30.1190   24.2460 C   0  0  0  0  0  1  0  0  0  0  0  0
  -27.6800  -32.2140   25.3690 C   0  0  0  0  0  1  0  0  0  0  0  0
  -29.6600  -18.7800   20.5930 C   0  0  0  0  0  3  0  0  0  0  0  0
  -33.4920  -19.1970   20.5230 C   0  0  0  0  0  3  0  0  0  0  0  0
  -32.1790  -18.8610   20.1350 C   0  0  0  0  0  3  0  0  0  0  0  0
  -33.7220  -19.8210   21.7640 C   0  0  0  0  0  3  0  0  0  0  0  0
  -31.3350  -19.7550   22.2410 C   0  0  0  0  0  3  0  0  0  0  0  0
  -31.0900  -19.1360   20.9950 C   0  0  0  0  0  0  0  0  0  0  0  0
  -32.6470  -20.1100   22.6220 C   0  0  0  0  0  0  0  0  0  0  0  0
  -32.8710  -20.7220   23.8080 F   0  0  0  0  0  0  0  0  0  0  0  0
  -29.5820  -17.3720   19.7980 C   0  0  0  0  0  2  0  0  0  0  0  0
  -30.5690  -15.0010   20.3020 C   0  0  0  0  0  0  0  0  0  0  0  0
  -30.5280  -12.6470   19.4850 C   0  0  0  0  0  2  0  0  0  0  0  0
  -29.6090  -12.6060   18.2390 C   0  0  0  0  0  2  0  0  0  0  0  0
  -28.1380  -12.3990   18.6480 C   0  0  0  0  0  2  0  0  0  0  0  0
  -27.7060  -13.3580   19.7880 C   0  0  0  0  0  3  0  0  0  0  0  0
  -28.7420  -13.3780   20.9380 C   0  0  0  0  0  2  0  0  0  0  0  0
  -30.0450  -13.7340   20.3630 N   0  0  0  0  0  0  0  0  0  0  0  0
  -31.7060  -15.1900   19.8590 O   0  0  0  0  0  0  0  0  0  0  0  0
  -29.6940  -16.0410   20.5280 N   0  0  0  0  0  0  0  0  0  0  0  0
  -28.8450  -15.7410   20.9820 H   0  0  0  0  0  0  0  0  0  0  0  0
  -25.3110  -13.9110   20.5170 C   0  0  0  0  0  0  0  0  0  0  0  0
  -24.2540  -13.1180   20.8720 C   0  0  0  0  0  0  0  0  0  0  0  0
  -24.7360  -11.7770   20.8250 C   0  0  0  0  0  0  0  0  0  0  0  0
  -26.3670  -13.0500   20.2700 N   0  0  0  0  0  0  0  0  0  0  0  0
  -26.0240  -11.7590   20.5150 N   0  0  0  0  0  0  0  0  0  0  0  0
  -24.0270  -10.5020   21.0110 C   0  0  0  0  0  0  0  0  0  0  0  0
  -24.4590   -9.5490   21.9580 C   0  0  0  0  0  3  0  0  0  0  0  0
  -23.7560   -8.3370   22.1300 C   0  0  0  0  0  3  0  0  0  0  0  0
  -22.6030   -8.0710   21.3550 C   0  0  0  0  0  0  0  0  0  0  0  0
  -22.1850   -9.0140   20.3960 C   0  0  0  0  0  3  0  0  0  0  0  0
  -22.8930  -10.2160   20.2220 C   0  0  0  0  0  3  0  0  0  0  0  0
  -21.8690   -6.9120   21.4390 O   0  0  0  0  0  0  0  0  0  0  0  0
  -21.7900   -6.1910   22.6050 C   0  0  0  0  0  0  0  0  0  0  0  0
  -21.2840   -6.7540   23.7970 C   0  0  0  0  0  3  0  0  0  0  0  0
  -21.1510   -5.9560   24.9500 C   0  0  0  0  0  3  0  0  0  0  0  0
  -21.5200   -4.5970   24.9160 C   0  0  0  0  0  0  0  0  0  0  0  0
  -22.0200   -4.0340   23.7260 C   0  0  0  0  0  3  0  0  0  0  0  0
  -22.1520   -4.8290   22.5740 C   0  0  0  0  0  0  0  0  0  0  0  0
  -22.6110   -4.2750   21.4270 F   0  0  0  0  0  0  0  0  0  0  0  0
  -21.3860   -3.8280   26.0190 F   0  0  0  0  0  0  0  0  0  0  0  0
  -22.8500  -13.5690   21.1500 C   0  0  0  0  0  0  0  0  0  0  0  0
  -22.1370  -12.8620   22.0210 N   0  0  0  0  0  0  0  0  0  0  0  0
  -22.3950  -14.5860   20.6290 O   0  0  0  0  0  0  0  0  0  0  0  0
  -22.5160  -12.0360   22.4600 H   0  0  0  0  0  0  0  0  0  0  0  0
  -21.1980  -13.1520   22.2550 H   0  0  0  0  0  0  0  0  0  0  0  0
  -25.4660  -15.2860   20.3730 N   0  0  0  0  0  0  0  0  0  0  0  0
  -24.6980  -15.9300   20.5110 H   0  0  0  0  0  0  0  0  0  0  0  0
  -26.3420  -15.7450   20.1510 H   0  0  0  0  0  0  0  0  0  0  0  0
  1  4  1  0
  1 53  1  0
  2  1  1  0
  3  2  1  0
  5  6  1  0
  7 12  1  0
  7  5  1  0
  8  9  1  0
  8  7  1  0
  8 10  1  0
 10  4  1  0
 10  6  1  0
 10 11  1  6
 12 14  1  0
 13 24  2  0
 14 19  1  0
 15 23  1  0
 15 25  1  0
 16 22  1  0
 16 18  1  0
 17 23  1  0
 18 17  1  0
 19 18  2  0
 20 21  1  0
 20 14  2  0
 21 16  2  0
 22 15  1  0
 23 13  1  0
 25 27  2  0
 26 25  1  0
 28 26  1  0
 29 38  2  0
 29 34  1  0
 30 26  1  0
 30 34  1  0
 31 30  1  0
 32 33  1  0
 32 31  1  0
 33 29  1  0
 34 35  2  0
 35 36  1  0
 37 36  2  0
 38 37  1  0
 39 13  1  0
 39 40  1  0
 39 49  1  0
 40 43  1  0
 41 45  1  0
 41 40  1  0
 42 41  2  0
 45 44  1  0
 47 45  1  0
 47 48  1  0
 47 46  1  0
 49 52  1  1
 49 50  1  0
 51 49  1  0
 53 61  1  0
 53 58  1  0
 54 56  1  0
 55 54  2  0
 55 58  1  0
 56 59  2  0
 57 59  1  0
 58 57  2  0
 59 60  1  0
 61 70  1  0
 62 68  1  0
 62 70  1  0
 63 68  1  0
 64 65  1  0
 64 63  1  0
 66 65  1  0
 66 75  1  0
 66 67  1  0
 68 67  1  0
 69 62  2  0
 70 71  1  0
 72 73  2  0
 73 92  1  0
 74 73  1  0
 74 77  1  0
 75 76  1  0
 75 72  1  0
 76 74  2  0
 77 78  1  0
 78 79  2  0
 80 83  1  0
 80 79  1  0
 81 80  2  0
 82 81  1  0
 82 77  2  0
 83 84  1  0
 84 85  1  0
 85 86  2  0
 87 86  1  0
 87 91  1  0
 88 87  2  0
 89 84  2  0
 89 88  1  0
 90 89  1  0
 92 93  1  0
 93 96  1  0
 93 95  1  0
 94 92  2  0
 97 98  1  0
 97 72  1  0
 99 97  1  0
M  ISO  4   7 101  12 101  62 100  70 100
M  END
>  <TORSDO>  (28) 
F 22

>  <SCORE>  (28) 
-13.559

>  <name>  (28) 
27

>  <ligand_id>  (28) 
27

>  <original_smiles>  (28) 
[H]OC([H])(C([H])(c1c([H])c([H])c([H])c(F)c1[H])C([H])([H])N([H])C(=O)N1C([H])([H])C([H])([H])C([H])([H])C([H])(n2nc(-c3c([H])c([H])c(Oc4c([H])c([H])c(F)c([H])c4F)c([H])c3[H])c(C(=O)N([H])[H])c2N([H])[H])C1([H])[H])C([H])([H])[N+]1([H])C([H])([H])C([H])([H])C([H])(Oc2c([H])c([H])c3c(c2[H])C([H])([H])N(C(=O)C([H])(N([H])C(=O)C([H])(N([H])C([H])([H])[H])C([H])([H])[H])C(C([H])([H])[H])(C([H])([H])[H])C([H])([H])[H])C([H])(C(=O)N([H])C2([H])c4c([H])c([H])c([H])c([H])c4C([H])([H])C([H])([H])C2([H])[H])C3([H])[H])C1([H])C([H])([H])[H]

>  <smiles>  (28) 
[H]OC([H])(C([H])(c1c([H])c([H])c([H])c(F)c1[H])C([H])([H])N([H])C(=O)N1C([H])([H])C([H])([H])C([H])([H])C([H])(n2nc(-c3c([H])c([H])c(Oc4c([H])c([H])c(F)c([H])c4F)c([H])c3[H])c(C(=O)N([H])[H])c2N([H])[H])C1([H])[H])C([H])([H])[N+]1([H])C([H])([H])C([H])([H])C([H])(Oc2c([H])c([H])c3c(c2[H])C([H])([H])N(C(=O)C([H])(N([H])C(=O)C([H])(N([H])C([H])([H])[H])C([H])([H])[H])C(C([H])([H])[H])(C([H])([H])[H])C([H])([H])[H])C([H])(C(=O)N([H])C2([H])c4c([H])c([H])c([H])c([H])c4C([H])([H])C([H])([H])C2([H])[H])C3([H])[H])C1([H])C([H])([H])[H]

$$$$
28:0:0
     RDKit          3D

 97107  0  0  1  0  0  0  0  0999 V2000
  -30.8760  -14.8260   20.6810 C   0  0  0  0  0  0  0  0  0  0  0  0
  -30.4710  -12.9460   19.0830 C   0  0  0  0  0  2  0  0  0  0  0  0
  -29.5040  -13.4500   17.9880 C   0  0  0  0  0  2  0  0  0  0  0  0
  -28.0390  -13.2560   18.4250 C   0  0  0  0  0  2  0  0  0  0  0  0
  -27.7820  -13.7640   19.8690 C   0  0  0  0  0  3  0  0  0  0  0  0
  -28.8660  -13.2720   20.8550 C   0  0  0  0  0  2  0  0  0  0  0  0
  -30.1730  -13.6920   20.3310 N   0  0  0  0  0  0  0  0  0  0  0  0
  -32.0180  -14.9930   20.2360 O   0  0  0  0  0  0  0  0  0  0  0  0
  -29.5190  -17.5010   19.8890 C   0  0  0  0  0  3  0  0  0  0  0  0
  -29.2530  -19.8490   20.4240 C   0  0  0  0  0  3  0  0  0  0  0  0
  -29.1030  -18.7920   19.4960 C   0  0  0  0  0  0  0  0  0  0  0  0
  -30.0510  -17.2420   21.1630 C   0  0  0  0  0  0  0  0  0  0  0  0
  -29.8060  -19.6210   21.7000 C   0  0  0  0  0  0  0  0  0  0  0  0
  -30.1730  -18.3190   22.0520 N   0  0  0  0  0  0  0  0  0  0  0  0
  -30.2510  -15.8020   21.4490 N   0  0  0  0  0  0  0  0  0  0  0  0
  -29.5110  -15.4230   22.0170 H   0  0  0  0  0  0  0  0  0  0  0  0
  -25.3690  -14.2890   20.5600 C   0  0  0  0  0  0  0  0  0  0  0  0
  -24.3160  -13.4850   20.9060 C   0  0  0  0  0  0  0  0  0  0  0  0
  -24.8100  -12.1460   20.8650 C   0  0  0  0  0  0  0  0  0  0  0  0
  -26.4360  -13.4360   20.3300 N   0  0  0  0  0  0  0  0  0  0  0  0
  -26.1070  -12.1410   20.5760 N   0  0  0  0  0  0  0  0  0  0  0  0
  -24.1100  -10.8650   21.0280 C   0  0  0  0  0  0  0  0  0  0  0  0
  -24.5140   -9.9210   21.9980 C   0  0  0  0  0  3  0  0  0  0  0  0
  -23.8130   -8.7040   22.1500 C   0  0  0  0  0  3  0  0  0  0  0  0
  -22.6950   -8.4230   21.3280 C   0  0  0  0  0  0  0  0  0  0  0  0
  -22.3110   -9.3560   20.3510 C   0  0  0  0  0  3  0  0  0  0  0  0
  -23.0120  -10.5650   20.1980 C   0  0  0  0  0  3  0  0  0  0  0  0
  -21.9700   -7.2570   21.3870 O   0  0  0  0  0  0  0  0  0  0  0  0
  -21.8130   -6.5640   22.5600 C   0  0  0  0  0  0  0  0  0  0  0  0
  -21.2540   -7.1630   23.7110 C   0  0  0  0  0  3  0  0  0  0  0  0
  -21.0460   -6.3960   24.8740 C   0  0  0  0  0  3  0  0  0  0  0  0
  -21.3840   -5.0290   24.8870 C   0  0  0  0  0  0  0  0  0  0  0  0
  -21.9360   -4.4300   23.7410 C   0  0  0  0  0  3  0  0  0  0  0  0
  -22.1450   -5.1940   22.5800 C   0  0  0  0  0  0  0  0  0  0  0  0
  -22.6550   -4.6060   21.4710 F   0  0  0  0  0  0  0  0  0  0  0  0
  -21.1780   -4.2900   26.0010 F   0  0  0  0  0  0  0  0  0  0  0  0
  -22.9040  -13.9280   21.1610 C   0  0  0  0  0  0  0  0  0  0  0  0
  -22.1920  -13.2290   22.0380 N   0  0  0  0  0  0  0  0  0  0  0  0
  -22.4400  -14.9280   20.6190 O   0  0  0  0  0  0  0  0  0  0  0  0
  -22.5780  -12.4210   22.5020 H   0  0  0  0  0  0  0  0  0  0  0  0
  -21.2450  -13.5100   22.2500 H   0  0  0  0  0  0  0  0  0  0  0  0
  -25.5050  -15.6650   20.4000 N   0  0  0  0  0  0  0  0  0  0  0  0
  -24.7170  -16.2980   20.4890 H   0  0  0  0  0  0  0  0  0  0  0  0
  -26.3410  -16.1240   20.0610 H   0  0  0  0  0  0  0  0  0  0  0  0
  -28.0000  -17.7050   17.4590 C   0  0  0  0  0  1  0  0  0  0  0  0
  -28.4980  -19.0310   18.0860 C   0  0  1  0  0  0  0  0  0  0  0  0
  -27.2260  -21.4190   18.0190 C   0  0  0  0  0  2  0  0  0  0  0  0
  -26.5550  -20.5210   17.0070 C   0  0  0  0  0  2  0  0  0  0  0  0
  -27.2470  -19.9170   18.2150 C   0  0  0  0  0  3  0  0  0  0  0  0
  -30.6480  -20.5780   17.4940 C   0  0  0  0  0  2  0  0  0  0  0  0
  -30.9890  -19.1570   17.1150 C   0  0  0  0  0  2  0  0  0  0  0  0
  -29.5420  -19.6140   17.1130 C   0  0  0  0  0  3  0  0  0  0  0  0
  -30.0110  -20.6900   22.6380 O   0  0  0  0  0  0  0  0  0  0  0  0
  -29.3140  -22.0230   22.5320 C   0  0  0  0  0  3  0  0  0  0  0  0
  -29.8600  -23.3770   23.2750 C   0  0  0  0  0  3  0  0  0  0  0  0
  -28.8930  -24.6840   23.4270 C   0  0  0  0  0  2  0  0  0  0  0  0
  -29.3580  -26.1200   23.6070 O   0  0  0  0  0  0  0  0  0  0  0  0
  -28.5080  -32.3060   27.3600 C   0  0  0  0  0  0  0  0  0  0  0  0
  -28.4790  -27.0780   24.1840 C   0  0  0  0  0  0  0  0  0  0  0  0
  -26.6220  -30.7160   27.3670 C   0  0  0  0  0  3  0  0  0  0  0  0
  -26.7140  -28.8560   25.6070 C   0  0  0  0  0  0  0  0  0  0  0  0
  -28.2100  -30.8300   25.3490 C   0  0  0  0  0  2  0  0  0  0  0  0
  -27.9140  -29.3530   25.0830 C   0  0  0  0  0  0  0  0  0  0  0  0
  -28.7910  -28.4740   24.3620 C   0  0  0  0  0  3  0  0  0  0  0  0
  -27.2200  -26.6620   24.6760 C   0  0  0  0  0  3  0  0  0  0  0  0
  -26.3620  -27.5190   25.3890 C   0  0  0  0  0  3  0  0  0  0  0  0
  -25.8290  -29.8010   26.3980 C   0  0  0  0  0  2  0  0  0  0  0  0
  -27.8320  -31.3120   26.7110 N   0  0  0  0  0  0  0  0  0  0  0  0
  -28.1260  -32.7360   28.4590 O   0  0  0  0  0  0  0  0  0  0  0  0
  -26.9530  -29.9220   28.6540 C   0  0  0  0  0  0  0  0  0  0  0  0
  -26.0230  -29.9230   29.6250 N   0  0  0  0  0  0  0  0  0  0  0  0
  -28.0170  -29.3060   28.7560 O   0  0  0  0  0  0  0  0  0  0  0  0
  -25.1810  -30.4600   29.4720 H   0  0  0  0  0  0  0  0  0  0  0  0
  -24.4140  -29.4610   32.8340 C   0  0  0  0  0  0  0  0  0  0  0  0
  -26.1120  -29.2080   30.8990 C   0  0  0  0  0  3  0  0  0  0  0  0
  -25.5830  -27.7610   30.7650 C   0  0  0  0  0  2  0  0  0  0  0  0
  -24.1010  -27.6230   31.1230 C   0  0  0  0  0  2  0  0  0  0  0  0
  -23.8510  -28.0760   32.5650 C   0  0  0  0  0  2  0  0  0  0  0  0
  -25.4640  -29.9990   32.0420 C   0  0  0  0  0  0  0  0  0  0  0  0
  -25.9260  -31.3050   32.3150 C   0  0  0  0  0  3  0  0  0  0  0  0
  -25.3630  -32.0650   33.3570 C   0  0  0  0  0  3  0  0  0  0  0  0
  -24.3340  -31.5230   34.1460 C   0  0  0  0  0  3  0  0  0  0  0  0
  -23.8650  -30.2230   33.8860 C   0  0  0  0  0  3  0  0  0  0  0  0
  -29.7770  -32.9670   26.7410 C   0  0  0  0  0  3  0  0  0  0  0  0
  -29.7390  -34.4010   27.0690 N   0  0  0  0  0  0  0  0  0  0  0  0
  -29.3670  -35.3670   26.2200 C   0  0  0  0  0  0  0  0  0  0  0  0
  -29.0800  -35.1460   25.0410 O   0  0  0  0  0  0  0  0  0  0  0  0
  -29.9100  -34.6470   28.0330 H   0  0  0  0  0  0  0  0  0  0  0  0
  -27.8450  -37.1760   27.0830 C   0  0  0  0  0  1  0  0  0  0  0  0
  -29.3030  -36.8090   26.7640 C   0  0  0  0  0  3  0  0  0  0  0  0
  -31.3270  -37.6940   25.6900 C   0  0  0  0  0  1  0  0  0  0  0  0
  -29.8790  -37.8120   25.8420 N   0  0  0  0  0  0  0  0  0  0  0  0
  -29.6700  -38.7560   26.1590 H   0  0  0  0  0  0  0  0  0  0  0  0
  -31.1240  -32.3190   27.2500 C   0  0  1  0  0  0  0  0  0  0  0  0
  -31.2170  -32.2070   28.7900 C   0  0  0  0  0  1  0  0  0  0  0  0
  -31.3050  -30.8980   26.6660 C   0  0  0  0  0  1  0  0  0  0  0  0
  -32.3270  -33.1550   26.7540 C   0  0  0  0  0  1  0  0  0  0  0  0
  1 15  1  0
  2  7  1  0
  3  4  1  0
  3  2  1  0
  5  4  1  0
  5 20  1  0
  5  6  1  0
  7  1  1  0
  7  6  1  0
  8  1  2  0
  9 12  2  0
 10 13  1  0
 11  9  1  0
 11 10  2  0
 12 15  1  0
 12 14  1  0
 13 14  2  0
 13 53  1  0
 15 16  1  0
 17 18  2  0
 18 37  1  0
 19 18  1  0
 19 22  1  0
 20 17  1  0
 20 21  1  0
 21 19  2  0
 22 23  1  0
 23 24  2  0
 25 28  1  0
 25 24  1  0
 26 25  2  0
 27 26  1  0
 27 22  2  0
 28 29  1  0
 29 34  2  0
 29 30  1  0
 30 31  2  0
 31 32  1  0
 32 36  1  0
 33 32  2  0
 34 33  1  0
 35 34  1  0
 37 38  1  0
 38 41  1  0
 38 40  1  0
 39 37  2  0
 42 43  1  0
 42 17  1  0
 44 42  1  0
 46 45  1  6
 46 49  1  0
 46 11  1  0
 47 49  1  0
 48 47  1  0
 48 49  1  0
 51 50  1  0
 52 51  1  0
 52 50  1  0
 52 46  1  0
 54 53  1  0
 54 55  2  0
 55 56  1  0
 56 57  1  0
 57 59  1  0
 58 69  2  0
 59 64  2  0
 59 65  1  0
 60 70  1  0
 61 67  1  0
 62 68  1  0
 63 62  1  0
 63 61  2  0
 64 63  1  0
 65 66  2  0
 66 61  1  0
 67 60  1  0
 68 58  1  0
 68 60  1  0
 70 72  2  0
 70 71  1  0
 73 71  1  0
 74 83  1  0
 75 71  1  0
 75 79  1  0
 76 75  1  0
 76 77  1  0
 77 78  1  0
 78 74  1  0
 79 80  1  0
 79 74  2  0
 80 81  2  0
 81 82  1  0
 83 82  2  0
 84 85  1  0
 84 94  1  0
 84 58  1  0
 85 88  1  0
 86 90  1  0
 86 85  1  0
 87 86  2  0
 90 89  1  0
 91 92  1  0
 92 93  1  0
 92 90  1  0
 94 95  1  1
 96 94  1  0
 97 94  1  0
M  ISO  4   1 100  15 100  56 101  57 101
M  END
>  <TORSDO>  (29) 
F 22

>  <SCORE>  (29) 
-8.087

>  <name>  (29) 
28

>  <ligand_id>  (29) 
28

>  <original_smiles>  (29) 
[H]c1c([H])c([H])c2c(c1[H])C([H])([H])C([H])([H])C([H])([H])C2([H])N([H])C(=O)C1([H])N(C(=O)C([H])(N([H])C(=O)C([H])(N([H])C([H])([H])[H])C([H])([H])[H])C(C([H])([H])[H])(C([H])([H])[H])C([H])([H])[H])C([H])([H])c2c([H])c(OC([H])([H])C([H])([H])C([H])([H])Oc3nc(N([H])C(=O)N4C([H])([H])C([H])([H])C([H])([H])C([H])(n5nc(-c6c([H])c([H])c(Oc7c([H])c([H])c(F)c([H])c7F)c([H])c6[H])c(C(=O)N([H])[H])c5N([H])[H])C4([H])[H])c([H])c(C(C([H])([H])[H])(C4([H])C([H])([H])C4([H])[H])C4([H])C([H])([H])C4([H])[H])c3[H])c([H])c([H])c2C1([H])[H]

>  <smiles>  (29) 
[H]c1c([H])c([H])c2c(c1[H])C([H])([H])C([H])([H])C([H])([H])C2([H])N([H])C(=O)C1([H])N(C(=O)C([H])(N([H])C(=O)C([H])(N([H])C([H])([H])[H])C([H])([H])[H])C(C([H])([H])[H])(C([H])([H])[H])C([H])([H])[H])C([H])([H])c2c([H])c(OC([H])([H])C([H])([H])C([H])([H])Oc3nc(N([H])C(=O)N4C([H])([H])C([H])([H])C([H])([H])C([H])(n5nc(-c6c([H])c([H])c(Oc7c([H])c([H])c(F)c([H])c7F)c([H])c6[H])c(C(=O)N([H])[H])c5N([H])[H])C4([H])[H])c([H])c(C(C([H])([H])[H])(C4([H])C([H])([H])C4([H])[H])C4([H])C([H])([H])C4([H])[H])c3[H])c([H])c([H])c2C1([H])[H]

$$$$
29:0:0
     RDKit          3D

 93102  0  0  1  0  0  0  0  0999 V2000
  -29.0350  -23.8100   20.5920 C   0  0  0  0  0  3  0  0  0  0  0  0
  -28.9010  -22.2800   21.2150 C   0  0  0  0  0  3  0  0  0  0  0  0
  -29.7010  -24.1400   21.9290 C   0  0  0  0  0  3  0  0  0  0  0  0
  -30.9530  -25.0160   21.9940 C   0  0  0  0  0  1  0  0  0  0  0  0
  -29.9780  -22.7290   22.1130 N   0  0  0  0  0  4  0  0  0  0  0  0
  -30.8820  -22.4900   21.7390 H   0  0  0  0  0  0  0  0  0  0  0  0
  -29.8860  -22.4200   23.0670 H   0  0  0  0  0  0  0  0  0  0  0  0
  -28.2920  -19.7350   20.1840 C   0  0  0  0  0  2  0  0  0  0  0  0
  -30.1740  -19.8870   21.7280 C   0  0  0  0  0  2  0  0  0  0  0  0
  -28.8870  -18.4000   19.5300 C   0  0  0  0  0  2  0  0  0  0  0  0
  -30.0960  -18.2920   21.7050 C   0  0  0  0  0  2  0  0  0  0  0  0
  -29.3650  -20.7730   20.6800 C   0  0  0  0  0  3  0  0  0  0  0  0
  -29.9840  -17.5650   20.3230 C   0  0  0  0  0  3  0  0  0  0  0  0
  -30.5770  -14.9430   19.9960 C   0  0  0  0  0  0  0  0  0  0  0  0
  -30.3960  -12.6700   18.9350 C   0  0  0  0  0  2  0  0  0  0  0  0
  -29.3600  -12.7050   17.7870 C   0  0  0  0  0  2  0  0  0  0  0  0
  -27.9350  -12.4740   18.3260 C   0  0  0  0  0  2  0  0  0  0  0  0
  -27.6300  -13.3560   19.5660 C   0  0  0  0  0  3  0  0  0  0  0  0
  -28.7630  -13.2690   20.6090 C   0  0  0  0  0  2  0  0  0  0  0  0
  -30.0000  -13.6900   19.9410 N   0  0  0  0  0  0  0  0  0  0  0  0
  -31.7140  -15.1020   19.5410 O   0  0  0  0  0  0  0  0  0  0  0  0
  -29.7850  -16.0290   20.3880 N   0  0  0  0  0  0  0  0  0  0  0  0
  -28.8800  -15.7480   20.7320 H   0  0  0  0  0  0  0  0  0  0  0  0
  -25.3140  -13.9200   20.5130 C   0  0  0  0  0  0  0  0  0  0  0  0
  -24.2770  -13.1340   20.9290 C   0  0  0  0  0  0  0  0  0  0  0  0
  -24.7240  -11.7820   20.7920 C   0  0  0  0  0  0  0  0  0  0  0  0
  -26.3270  -13.0480   20.1460 N   0  0  0  0  0  0  0  0  0  0  0  0
  -25.9850  -11.7550   20.3780 N   0  0  0  0  0  0  0  0  0  0  0  0
  -24.0060  -10.5150   20.9780 C   0  0  0  0  0  0  0  0  0  0  0  0
  -24.4540   -9.5380   21.8950 C   0  0  0  0  0  3  0  0  0  0  0  0
  -23.7350   -8.3370   22.0680 C   0  0  0  0  0  3  0  0  0  0  0  0
  -22.5540   -8.1030   21.3220 C   0  0  0  0  0  0  0  0  0  0  0  0
  -22.1270   -9.0680   20.3940 C   0  0  0  0  0  3  0  0  0  0  0  0
  -22.8460  -10.2620   20.2190 C   0  0  0  0  0  3  0  0  0  0  0  0
  -21.8030   -6.9550   21.4070 O   0  0  0  0  0  0  0  0  0  0  0  0
  -21.6890   -6.2540   22.5810 C   0  0  0  0  0  0  0  0  0  0  0  0
  -21.1420   -6.8360   23.7460 C   0  0  0  0  0  3  0  0  0  0  0  0
  -20.9790   -6.0610   24.9100 C   0  0  0  0  0  3  0  0  0  0  0  0
  -21.3520   -4.7040   24.9110 C   0  0  0  0  0  0  0  0  0  0  0  0
  -21.8900   -4.1210   23.7510 C   0  0  0  0  0  3  0  0  0  0  0  0
  -22.0550   -4.8940   22.5880 C   0  0  0  0  0  0  0  0  0  0  0  0
  -22.5560   -4.3210   21.4650 F   0  0  0  0  0  0  0  0  0  0  0  0
  -21.1870   -3.9540   26.0270 F   0  0  0  0  0  0  0  0  0  0  0  0
  -22.9100  -13.6020   21.3380 C   0  0  0  0  0  0  0  0  0  0  0  0
  -22.2510  -12.8680   22.2260 N   0  0  0  0  0  0  0  0  0  0  0  0
  -22.4360  -14.6510   20.9010 O   0  0  0  0  0  0  0  0  0  0  0  0
  -22.6460  -12.0180   22.5970 H   0  0  0  0  0  0  0  0  0  0  0  0
  -21.3350  -13.1580   22.5380 H   0  0  0  0  0  0  0  0  0  0  0  0
  -25.4750  -15.2980   20.3910 N   0  0  0  0  0  0  0  0  0  0  0  0
  -24.7190  -15.9450   20.5840 H   0  0  0  0  0  0  0  0  0  0  0  0
  -26.2900  -15.7500   19.9950 H   0  0  0  0  0  0  0  0  0  0  0  0
  -27.9030  -24.9190   20.2140 C   0  0  0  0  0  2  0  0  0  0  0  0
  -28.1860  -26.4150   20.2230 O   0  0  0  0  0  0  0  0  0  0  0  0
  -24.5770  -31.9550   23.2260 C   0  0  0  0  0  0  0  0  0  0  0  0
  -27.1060  -27.3350   20.1450 C   0  0  0  0  0  0  0  0  0  0  0  0
  -23.3370  -30.5510   21.6210 C   0  0  0  0  0  3  0  0  0  0  0  0
  -24.7530  -29.0000   20.1560 C   0  0  0  0  0  0  0  0  0  0  0  0
  -25.8740  -30.8630   21.3720 C   0  0  0  0  0  2  0  0  0  0  0  0
  -25.9400  -29.4780   20.7270 C   0  0  0  0  0  0  0  0  0  0  0  0
  -27.1190  -28.6620   20.7020 C   0  0  0  0  0  3  0  0  0  0  0  0
  -25.8980  -26.9370   19.5270 C   0  0  0  0  0  3  0  0  0  0  0  0
  -24.7410  -27.7400   19.5380 C   0  0  0  0  0  3  0  0  0  0  0  0
  -23.5160  -29.8750   20.2360 C   0  0  0  0  0  2  0  0  0  0  0  0
  -24.6170  -31.1440   22.1280 N   0  0  0  0  0  0  0  0  0  0  0  0
  -23.5040  -32.2290   23.7850 O   0  0  0  0  0  0  0  0  0  0  0  0
  -22.7010  -29.5370   22.6020 C   0  0  0  0  0  0  0  0  0  0  0  0
  -21.3780  -29.3250   22.4860 N   0  0  0  0  0  0  0  0  0  0  0  0
  -23.3960  -28.9420   23.4290 O   0  0  0  0  0  0  0  0  0  0  0  0
  -20.8750  -29.8580   21.7910 H   0  0  0  0  0  0  0  0  0  0  0  0
  -18.0410  -28.0140   22.9980 C   0  0  0  0  0  0  0  0  0  0  0  0
  -20.5870  -28.3790   23.2760 C   0  0  0  0  0  3  0  0  0  0  0  0
  -20.7450  -26.9360   22.7440 C   0  0  0  0  0  2  0  0  0  0  0  0
  -19.6660  -26.5410   21.7330 C   0  0  0  0  0  2  0  0  0  0  0  0
  -18.2730  -26.6540   22.3590 C   0  0  0  0  0  2  0  0  0  0  0  0
  -19.1260  -28.8290   23.4130 C   0  0  0  0  0  0  0  0  0  0  0  0
  -18.8560  -30.0980   23.9690 C   0  0  0  0  0  3  0  0  0  0  0  0
  -17.5330  -30.5540   24.1140 C   0  0  0  0  0  3  0  0  0  0  0  0
  -16.4620  -29.7370   23.7130 C   0  0  0  0  0  3  0  0  0  0  0  0
  -16.7150  -28.4680   23.1610 C   0  0  0  0  0  3  0  0  0  0  0  0
  -25.8690  -32.5970   23.8160 C   0  0  0  0  0  3  0  0  0  0  0  0
  -25.5600  -33.9960   24.1490 N   0  0  0  0  0  0  0  0  0  0  0  0
  -25.8520  -35.0470   23.3720 C   0  0  0  0  0  0  0  0  0  0  0  0
  -26.4800  -34.9450   22.3150 O   0  0  0  0  0  0  0  0  0  0  0  0
  -25.0020  -34.1510   24.9760 H   0  0  0  0  0  0  0  0  0  0  0  0
  -24.0950  -36.8230   23.0850 C   0  0  0  0  0  1  0  0  0  0  0  0
  -25.3730  -36.4340   23.8450 C   0  0  0  0  0  3  0  0  0  0  0  0
  -27.5290  -37.3400   24.5890 C   0  0  0  0  0  1  0  0  0  0  0  0
  -26.3910  -37.4960   23.6870 N   0  0  0  0  0  0  0  0  0  0  0  0
  -25.9840  -38.4130   23.8460 H   0  0  0  0  0  0  0  0  0  0  0  0
  -26.4190  -31.8380   25.0860 C   0  0  1  0  0  0  0  0  0  0  0  0
  -25.3490  -31.5920   26.1770 C   0  0  0  0  0  1  0  0  0  0  0  0
  -27.0140  -30.4680   24.6880 C   0  0  0  0  0  1  0  0  0  0  0  0
  -27.5760  -32.6470   25.7190 C   0  0  0  0  0  1  0  0  0  0  0  0
  1 52  1  0
  1  2  1  0
  1  3  1  0
  2 12  1  0
  2  5  1  0
  3  4  1  0
  3  5  1  0
  5  7  1  0
  6  5  1  0
 10  8  1  0
 10 13  1  0
 11  9  1  0
 12  8  1  0
 12  9  1  0
 13 22  1  0
 13 11  1  0
 14 22  1  0
 15 20  1  0
 16 17  1  0
 16 15  1  0
 18 17  1  0
 18 27  1  0
 18 19  1  0
 20 14  1  0
 20 19  1  0
 21 14  2  0
 22 23  1  0
 24 25  2  0
 25 44  1  0
 26 25  1  0
 26 29  1  0
 27 28  1  0
 27 24  1  0
 28 26  2  0
 29 30  1  0
 30 31  2  0
 32 35  1  0
 32 31  1  0
 33 32  2  0
 34 33  1  0
 34 29  2  0
 35 36  1  0
 36 41  2  0
 36 37  1  0
 37 38  2  0
 38 39  1  0
 39 43  1  0
 40 39  2  0
 41 40  1  0
 42 41  1  0
 44 45  1  0
 45 48  1  0
 45 47  1  0
 46 44  2  0
 49 24  1  0
 49 50  1  0
 51 49  1  0
 52 53  1  0
 54 65  2  0
 55 53  1  0
 55 60  1  0
 56 64  1  0
 56 66  1  0
 57 63  1  0
 57 59  1  0
 58 64  1  0
 59 58  1  0
 60 59  2  0
 61 62  1  0
 61 55  2  0
 62 57  2  0
 63 56  1  0
 64 54  1  0
 66 68  2  0
 67 66  1  0
 69 67  1  0
 70 79  2  0
 70 75  1  0
 71 67  1  0
 71 75  1  0
 72 71  1  0
 73 74  1  0
 73 72  1  0
 74 70  1  0
 75 76  2  0
 76 77  1  0
 78 77  2  0
 79 78  1  0
 80 54  1  0
 80 81  1  0
 80 90  1  0
 81 84  1  0
 82 86  1  0
 82 81  1  0
 83 82  2  0
 86 85  1  0
 88 86  1  0
 88 89  1  0
 88 87  1  0
 90 93  1  1
 90 91  1  0
 92 90  1  0
M  ISO  4  14 100  22 100  52 101  53 101
M  END
>  <TORSDO>  (30) 
F 18

>  <SCORE>  (30) 
-13.727

>  <name>  (30) 
29

>  <ligand_id>  (30) 
29

>  <original_smiles>  (30) 
[H]c1c([H])c([H])c2c(c1[H])C([H])([H])C([H])([H])C([H])([H])C2([H])N([H])C(=O)C1([H])N(C(=O)C([H])(N([H])C(=O)C([H])(N([H])C([H])([H])[H])C([H])([H])[H])C(C([H])([H])[H])(C([H])([H])[H])C([H])([H])[H])C([H])([H])c2c([H])c(OC([H])([H])C3([H])C([H])(C([H])([H])[H])[N+]([H])([H])C3([H])C3([H])C([H])([H])C([H])([H])C([H])(N([H])C(=O)N4C([H])([H])C([H])([H])C([H])([H])C([H])(n5nc(-c6c([H])c([H])c(Oc7c([H])c([H])c(F)c([H])c7F)c([H])c6[H])c(C(=O)N([H])[H])c5N([H])[H])C4([H])[H])C([H])([H])C3([H])[H])c([H])c([H])c2C1([H])[H]

>  <smiles>  (30) 
[H]c1c([H])c([H])c2c(c1[H])C([H])([H])C([H])([H])C([H])([H])C2([H])N([H])C(=O)C1([H])N(C(=O)C([H])(N([H])C(=O)C([H])(N([H])C([H])([H])[H])C([H])([H])[H])C(C([H])([H])[H])(C([H])([H])[H])C([H])([H])[H])C([H])([H])c2c([H])c(OC([H])([H])C3([H])C([H])(C([H])([H])[H])[N+]([H])([H])C3([H])C3([H])C([H])([H])C([H])([H])C([H])(N([H])C(=O)N4C([H])([H])C([H])([H])C([H])([H])C([H])(n5nc(-c6c([H])c([H])c(Oc7c([H])c([H])c(F)c([H])c7F)c([H])c6[H])c(C(=O)N([H])[H])c5N([H])[H])C4([H])[H])C([H])([H])C3([H])[H])c([H])c([H])c2C1([H])[H]

$$$$
30:0:0
     RDKit          3D

 96107  0  0  1  0  0  0  0  0999 V2000
  -30.7010  -21.1850   19.2080 C   0  0  0  0  0  2  0  0  0  0  0  0
  -30.8340  -19.7060   19.5290 C   0  0  0  0  0  2  0  0  0  0  0  0
  -29.4160  -20.6840   21.2030 C   0  0  0  0  0  2  0  0  0  0  0  0
  -30.2280  -21.8170   20.5260 C   0  0  0  0  0  3  0  0  0  0  0  0
  -29.7620  -19.4220   20.5100 N   0  0  2  0  0  4  0  0  0  0  0  0
  -28.9460  -19.2340   19.9480 H   0  0  0  0  0  0  0  0  0  0  0  0
  -28.2310  -25.0190   21.1950 C   0  0  0  0  0  2  0  0  0  0  0  0
  -29.6410  -25.2150   19.0960 C   0  0  0  0  0  2  0  0  0  0  0  0
  -28.6900  -23.5490   21.3630 C   0  0  0  0  0  2  0  0  0  0  0  0
  -30.4180  -24.0930   19.7990 C   0  0  0  0  0  2  0  0  0  0  0  0
  -28.2760  -25.5130   19.7390 C   0  0  0  0  0  3  0  0  0  0  0  0
  -29.4810  -23.0480   20.2230 N   0  0  0  0  0  0  0  0  0  0  0  0
  -28.1580  -26.9300   19.7280 O   0  0  0  0  0  0  0  0  0  0  0  0
  -24.4250  -31.8840   23.1220 C   0  0  0  0  0  0  0  0  0  0  0  0
  -26.9370  -27.5480   19.8240 C   0  0  0  0  0  0  0  0  0  0  0  0
  -23.1510  -30.5460   21.4740 C   0  0  0  0  0  3  0  0  0  0  0  0
  -24.5430  -29.0390   19.9650 C   0  0  0  0  0  0  0  0  0  0  0  0
  -25.6670  -30.8970   21.2060 C   0  0  0  0  0  2  0  0  0  0  0  0
  -25.7190  -29.5470   20.5280 C   0  0  0  0  0  0  0  0  0  0  0  0
  -26.9140  -28.8090   20.4530 C   0  0  0  0  0  3  0  0  0  0  0  0
  -25.7430  -27.0380   19.2630 C   0  0  0  0  0  3  0  0  0  0  0  0
  -24.5490  -27.7820   19.3320 C   0  0  0  0  0  3  0  0  0  0  0  0
  -23.3100  -29.9050   20.0700 C   0  0  0  0  0  2  0  0  0  0  0  0
  -24.4340  -31.1220   21.9930 N   0  0  0  0  0  0  0  0  0  0  0  0
  -23.3640  -32.1510   23.7050 O   0  0  0  0  0  0  0  0  0  0  0  0
  -22.5230  -29.5010   22.4210 C   0  0  0  0  0  0  0  0  0  0  0  0
  -21.1960  -29.3270   22.3200 N   0  0  0  0  0  0  0  0  0  0  0  0
  -23.2240  -28.8490   23.2000 O   0  0  0  0  0  0  0  0  0  0  0  0
  -20.6940  -29.9030   21.6610 H   0  0  0  0  0  0  0  0  0  0  0  0
  -17.8260  -28.1600   22.8840 C   0  0  0  0  0  0  0  0  0  0  0  0
  -20.3940  -28.3730   23.0830 C   0  0  0  0  0  3  0  0  0  0  0  0
  -20.4570  -26.9630   22.4520 C   0  0  0  0  0  2  0  0  0  0  0  0
  -19.3190  -26.6920   21.4630 C   0  0  0  0  0  2  0  0  0  0  0  0
  -17.9610  -26.8340   22.1570 C   0  0  0  0  0  2  0  0  0  0  0  0
  -18.9680  -28.8900   23.3040 C   0  0  0  0  0  0  0  0  0  0  0  0
  -18.7880  -30.1370   23.9440 C   0  0  0  0  0  3  0  0  0  0  0  0
  -17.4960  -30.6490   24.1700 C   0  0  0  0  0  3  0  0  0  0  0  0
  -16.3680  -29.9150   23.7660 C   0  0  0  0  0  3  0  0  0  0  0  0
  -16.5350  -28.6730   23.1270 C   0  0  0  0  0  3  0  0  0  0  0  0
  -25.7390  -32.4780   23.7210 C   0  0  0  0  0  3  0  0  0  0  0  0
  -26.2870  -31.6630   24.9570 C   0  0  1  0  0  0  0  0  0  0  0  0
  -25.2270  -31.4070   26.0520 C   0  0  0  0  0  1  0  0  0  0  0  0
  -26.8390  -30.2910   24.5050 C   0  0  0  0  0  1  0  0  0  0  0  0
  -27.4680  -32.4240   25.6060 C   0  0  0  0  0  1  0  0  0  0  0  0
  -25.4620  -33.8710   24.0960 N   0  0  0  0  0  0  0  0  0  0  0  0
  -25.7740  -34.9360   23.3440 C   0  0  0  0  0  0  0  0  0  0  0  0
  -26.3990  -34.8490   22.2840 O   0  0  0  0  0  0  0  0  0  0  0  0
  -24.9050  -34.0140   24.9250 H   0  0  0  0  0  0  0  0  0  0  0  0
  -24.0390  -36.7430   23.1150 C   0  0  0  0  0  1  0  0  0  0  0  0
  -25.3190  -36.3170   23.8520 C   0  0  0  0  0  3  0  0  0  0  0  0
  -27.4990  -37.1740   24.5870 C   0  0  0  0  0  1  0  0  0  0  0  0
  -26.3500  -37.3680   23.7070 N   0  0  0  0  0  0  0  0  0  0  0  0
  -25.9580  -38.2860   23.8970 H   0  0  0  0  0  0  0  0  0  0  0  0
  -29.9310  -18.2120   21.3660 C   0  0  0  0  0  3  0  0  0  0  0  0
  -31.1640  -18.8480   23.6300 C   0  0  0  0  0  2  0  0  0  0  0  0
  -31.3220  -17.3600   23.4510 C   0  0  0  0  0  2  0  0  0  0  0  0
  -31.1870  -18.2520   22.2380 C   0  0  0  0  0  3  0  0  0  0  0  0
  -28.5840  -16.3990   20.0780 C   0  0  0  0  0  2  0  0  0  0  0  0
  -29.5290  -15.5810   20.9410 C   0  0  0  0  0  3  0  0  0  0  0  0
  -29.9080  -16.9830   20.4760 C   0  0  0  0  0  3  0  0  0  0  0  0
  -30.2270  -14.4510   20.2530 C   0  0  0  0  0  0  0  0  0  0  0  0
  -29.9620  -12.2590   19.1670 C   0  0  0  0  0  2  0  0  0  0  0  0
  -28.9710  -12.3910   17.9950 C   0  0  0  0  0  2  0  0  0  0  0  0
  -27.5270  -12.1740   18.4860 C   0  0  0  0  0  2  0  0  0  0  0  0
  -27.1870  -13.0380   19.7290 C   0  0  0  0  0  3  0  0  0  0  0  0
  -28.2950  -12.9350   20.8050 C   0  0  0  0  0  2  0  0  0  0  0  0
  -29.5880  -13.2550   20.1800 N   0  0  0  0  0  0  0  0  0  0  0  0
  -31.3020  -14.6610   19.6850 O   0  0  0  0  0  0  0  0  0  0  0  0
  -24.7950  -13.5450   20.5330 C   0  0  0  0  0  0  0  0  0  0  0  0
  -23.7830  -12.7270   20.9590 C   0  0  0  0  0  0  0  0  0  0  0  0
  -24.3100  -11.3990   20.9250 C   0  0  0  0  0  0  0  0  0  0  0  0
  -25.8720  -12.7110   20.2700 N   0  0  0  0  0  0  0  0  0  0  0  0
  -25.5860  -11.4170   20.5630 N   0  0  0  0  0  0  0  0  0  0  0  0
  -23.6580  -10.1060   21.1620 C   0  0  0  0  0  0  0  0  0  0  0  0
  -24.1670   -9.1840   22.1050 C   0  0  0  0  0  3  0  0  0  0  0  0
  -23.5120   -7.9530   22.3260 C   0  0  0  0  0  3  0  0  0  0  0  0
  -22.3360   -7.6360   21.6060 C   0  0  0  0  0  0  0  0  0  0  0  0
  -21.8500   -8.5470   20.6520 C   0  0  0  0  0  3  0  0  0  0  0  0
  -22.5050   -9.7690   20.4290 C   0  0  0  0  0  3  0  0  0  0  0  0
  -21.6480   -6.4540   21.7370 O   0  0  0  0  0  0  0  0  0  0  0  0
  -21.6520   -5.7460   22.9120 C   0  0  0  0  0  0  0  0  0  0  0  0
  -21.2170   -6.3170   24.1280 C   0  0  0  0  0  3  0  0  0  0  0  0
  -21.1720   -5.5320   25.2970 C   0  0  0  0  0  3  0  0  0  0  0  0
  -21.5530   -4.1780   25.2530 C   0  0  0  0  0  0  0  0  0  0  0  0
  -21.9820   -3.6060   24.0420 C   0  0  0  0  0  3  0  0  0  0  0  0
  -22.0290   -4.3870   22.8740 C   0  0  0  0  0  0  0  0  0  0  0  0
  -22.4220   -3.8270   21.7060 F   0  0  0  0  0  0  0  0  0  0  0  0
  -21.5030   -3.4220   26.3750 F   0  0  0  0  0  0  0  0  0  0  0  0
  -22.3760  -13.1390   21.2850 C   0  0  0  0  0  0  0  0  0  0  0  0
  -21.7230  -12.4210   22.1930 N   0  0  0  0  0  0  0  0  0  0  0  0
  -21.8650  -14.1320   20.7700 O   0  0  0  0  0  0  0  0  0  0  0  0
  -22.1490  -11.6170   22.6300 H   0  0  0  0  0  0  0  0  0  0  0  0
  -20.7830  -12.6820   22.4550 H   0  0  0  0  0  0  0  0  0  0  0  0
  -24.8830  -14.9190   20.3300 N   0  0  0  0  0  0  0  0  0  0  0  0
  -24.0920  -15.5400   20.4650 H   0  0  0  0  0  0  0  0  0  0  0  0
  -25.6990  -15.3920   19.9630 H   0  0  0  0  0  0  0  0  0  0  0  0
  1  2  1  0
  2  5  1  0
  4  1  1  0
  4  3  1  0
  5  3  1  0
  5 54  1  0
  5  6  1  6
  7  9  1  0
  8 11  1  0
  8 10  1  0
 11 13  1  0
 11  7  1  0
 12 10  1  0
 12  4  1  0
 12  9  1  0
 13 15  1  0
 14 25  2  0
 15 20  1  0
 16 24  1  0
 16 26  1  0
 17 23  1  0
 17 19  1  0
 18 24  1  0
 19 18  1  0
 20 19  2  0
 21 22  1  0
 21 15  2  0
 22 17  2  0
 23 16  1  0
 24 14  1  0
 26 28  2  0
 27 26  1  0
 29 27  1  0
 30 39  2  0
 30 35  1  0
 31 27  1  0
 31 35  1  0
 32 31  1  0
 33 34  1  0
 33 32  1  0
 34 30  1  0
 35 36  2  0
 36 37  1  0
 38 37  2  0
 39 38  1  0
 40 14  1  0
 40 45  1  0
 40 41  1  0
 41 44  1  1
 41 42  1  0
 43 41  1  0
 45 48  1  0
 46 50  1  0
 46 45  1  0
 47 46  2  0
 50 49  1  0
 52 50  1  0
 52 53  1  0
 52 51  1  0
 54 57  1  0
 56 55  1  0
 57 56  1  0
 57 55  1  0
 58 60  1  0
 58 59  1  0
 59 61  1  0
 60 59  1  0
 60 54  1  0
 62 67  1  0
 63 64  1  0
 63 62  1  0
 65 64  1  0
 65 72  1  0
 65 66  1  0
 67 61  1  0
 67 66  1  0
 68 61  2  0
 69 70  2  0
 70 89  1  0
 71 70  1  0
 71 74  1  0
 72 69  1  0
 72 73  1  0
 73 71  2  0
 74 75  1  0
 75 76  2  0
 77 80  1  0
 77 76  1  0
 78 77  2  0
 79 78  1  0
 79 74  2  0
 80 81  1  0
 81 82  1  0
 82 83  2  0
 84 83  1  0
 84 88  1  0
 85 84  2  0
 86 81  2  0
 86 85  1  0
 87 86  1  0
 89 90  1  0
 90 93  1  0
 90 92  1  0
 91 89  2  0
 94 95  1  0
 94 69  1  0
 96 94  1  0
M  ISO  4  11 101  13 101  59 100  61 100
M  END
>  <TORSDO>  (31) 
F 20

>  <SCORE>  (31) 
-12.026

>  <name>  (31) 
30

>  <ligand_id>  (31) 
30

>  <original_smiles>  (31) 
[H]c1c([H])c([H])c2c(c1[H])C([H])([H])C([H])([H])C([H])([H])C2([H])N([H])C(=O)C1([H])N(C(=O)C([H])(N([H])C(=O)C([H])(N([H])C([H])([H])[H])C([H])([H])[H])C(C([H])([H])[H])(C([H])([H])[H])C([H])([H])[H])C([H])([H])c2c([H])c(OC3([H])C([H])([H])C([H])([H])N(C4([H])C([H])([H])C([H])([H])[N+]([H])(C([H])(C5([H])C([H])([H])C5([H])[H])C5([H])C([H])([H])C5([H])C(=O)N5C([H])([H])C([H])([H])C([H])([H])C([H])(n6nc(-c7c([H])c([H])c(Oc8c([H])c([H])c(F)c([H])c8F)c([H])c7[H])c(C(=O)N([H])[H])c6N([H])[H])C5([H])[H])C4([H])[H])C([H])([H])C3([H])[H])c([H])c([H])c2C1([H])[H]

>  <smiles>  (31) 
[H]c1c([H])c([H])c2c(c1[H])C([H])([H])C([H])([H])C([H])([H])C2([H])N([H])C(=O)C1([H])N(C(=O)C([H])(N([H])C(=O)C([H])(N([H])C([H])([H])[H])C([H])([H])[H])C(C([H])([H])[H])(C([H])([H])[H])C([H])([H])[H])C([H])([H])c2c([H])c(OC3([H])C([H])([H])C([H])([H])N(C4([H])C([H])([H])C([H])([H])[N+]([H])(C([H])(C5([H])C([H])([H])C5([H])[H])C5([H])C([H])([H])C5([H])C(=O)N5C([H])([H])C([H])([H])C([H])([H])C([H])(n6nc(-c7c([H])c([H])c(Oc8c([H])c([H])c(F)c([H])c8F)c([H])c7[H])c(C(=O)N([H])[H])c6N([H])[H])C5([H])[H])C4([H])[H])C([H])([H])C3([H])[H])c([H])c([H])c2C1([H])[H]

$$$$
31:0:0
     RDKit          3D

 95105  0  0  1  0  0  0  0  0999 V2000
  -29.7030  -21.7580   17.0890 C   0  0  0  0  0  3  0  0  0  0  0  0
  -29.2440  -22.7210   17.9050 C   0  0  0  0  0  3  0  0  0  0  0  0
  -29.8260  -20.5790   17.8470 C   0  0  0  0  0  0  0  0  0  0  0  0
  -29.4450  -20.7900   19.1750 C   0  0  0  0  0  0  0  0  0  0  0  0
  -29.1150  -22.2630   19.2170 N   0  0  0  0  0  0  0  0  0  0  0  0
  -30.6450  -14.9680   20.4220 C   0  0  0  0  0  0  0  0  0  0  0  0
  -30.4140  -12.6510   19.4420 C   0  0  0  0  0  2  0  0  0  0  0  0
  -29.5060  -12.6060   18.1960 C   0  0  0  0  0  2  0  0  0  0  0  0
  -28.0440  -12.3810   18.6160 C   0  0  0  0  0  2  0  0  0  0  0  0
  -27.6160  -13.3160   19.7730 C   0  0  0  0  0  3  0  0  0  0  0  0
  -28.6580  -13.3890   20.9140 C   0  0  0  0  0  2  0  0  0  0  0  0
  -29.9390  -13.7720   20.3070 N   0  0  0  0  0  0  0  0  0  0  0  0
  -31.8580  -14.9020   20.1980 O   0  0  0  0  0  0  0  0  0  0  0  0
  -28.5210  -18.3060   19.8760 C   0  0  0  0  0  2  0  0  0  0  0  0
  -30.8240  -18.8130   20.4700 C   0  0  0  0  0  2  0  0  0  0  0  0
  -28.7060  -16.8300   20.5100 C   0  0  0  0  0  2  0  0  0  0  0  0
  -30.8680  -17.4100   21.2270 C   0  0  0  0  0  2  0  0  0  0  0  0
  -29.4450  -19.5540   20.2390 C   0  0  0  0  0  3  0  0  0  0  0  0
  -30.0810  -16.2580   20.6630 N   0  0  0  0  0  0  0  0  0  0  0  0
  -25.2240  -13.8980   20.4730 C   0  0  0  0  0  0  0  0  0  0  0  0
  -24.1590  -13.1200   20.8330 C   0  0  0  0  0  0  0  0  0  0  0  0
  -24.6350  -11.7730   20.8300 C   0  0  0  0  0  0  0  0  0  0  0  0
  -26.2760  -13.0230   20.2630 N   0  0  0  0  0  0  0  0  0  0  0  0
  -25.9310  -11.7420   20.5440 N   0  0  0  0  0  0  0  0  0  0  0  0
  -23.9150  -10.5070   21.0170 C   0  0  0  0  0  0  0  0  0  0  0  0
  -24.3320   -9.5560   21.9730 C   0  0  0  0  0  3  0  0  0  0  0  0
  -23.6110   -8.3560   22.1500 C   0  0  0  0  0  3  0  0  0  0  0  0
  -22.4600   -8.0990   21.3690 C   0  0  0  0  0  0  0  0  0  0  0  0
  -22.0620   -9.0380   20.4010 C   0  0  0  0  0  3  0  0  0  0  0  0
  -22.7850  -10.2300   20.2220 C   0  0  0  0  0  3  0  0  0  0  0  0
  -21.7140   -6.9480   21.4530 O   0  0  0  0  0  0  0  0  0  0  0  0
  -21.6370   -6.2230   22.6150 C   0  0  0  0  0  0  0  0  0  0  0  0
  -21.1600   -6.7900   23.8160 C   0  0  0  0  0  3  0  0  0  0  0  0
  -21.0320   -5.9900   24.9700 C   0  0  0  0  0  3  0  0  0  0  0  0
  -21.3710   -4.6250   24.9220 C   0  0  0  0  0  0  0  0  0  0  0  0
  -21.8410   -4.0580   23.7240 C   0  0  0  0  0  3  0  0  0  0  0  0
  -21.9710   -4.8550   22.5730 C   0  0  0  0  0  0  0  0  0  0  0  0
  -22.4040   -4.2980   21.4160 F   0  0  0  0  0  0  0  0  0  0  0  0
  -21.2420   -3.8540   26.0270 F   0  0  0  0  0  0  0  0  0  0  0  0
  -22.7540  -13.5910   21.0660 C   0  0  0  0  0  0  0  0  0  0  0  0
  -22.0110  -12.8970   21.9220 N   0  0  0  0  0  0  0  0  0  0  0  0
  -22.3220  -14.6090   20.5270 O   0  0  0  0  0  0  0  0  0  0  0  0
  -22.3720  -12.0740   22.3810 H   0  0  0  0  0  0  0  0  0  0  0  0
  -21.0650  -13.1930   22.1200 H   0  0  0  0  0  0  0  0  0  0  0  0
  -25.3780  -15.2660   20.2790 N   0  0  0  0  0  0  0  0  0  0  0  0
  -24.6010  -15.9110   20.3590 H   0  0  0  0  0  0  0  0  0  0  0  0
  -26.2240  -15.7110   19.9460 H   0  0  0  0  0  0  0  0  0  0  0  0
  -30.1200  -19.1930   15.6120 C   0  0  0  0  0  2  0  0  0  0  0  0
  -29.5180  -18.2020   16.5590 C   0  0  0  0  0  2  0  0  0  0  0  0
  -30.3490  -19.3430   17.1110 C   0  0  2  0  0  0  0  0  0  0  0  0
  -31.7320  -19.1010   17.2680 O   0  0  0  0  0  0  0  0  0  0  0  0
  -31.8930  -18.2100   16.9820 H   0  0  0  0  0  0  0  0  0  0  0  0
  -28.7030  -23.3940   20.2260 C   0  0  0  0  0  3  0  0  0  0  0  0
  -28.4200  -24.9530   19.6320 C   0  0  0  0  0  3  0  0  0  0  0  0
  -28.3080  -26.3310   20.3060 O   0  0  0  0  0  0  0  0  0  0  0  0
  -24.6240  -31.9080   23.2550 C   0  0  0  0  0  0  0  0  0  0  0  0
  -27.2210  -27.2570   20.1870 C   0  0  0  0  0  0  0  0  0  0  0  0
  -23.4230  -30.5150   21.6100 C   0  0  0  0  0  3  0  0  0  0  0  0
  -24.8740  -28.9610   20.1710 C   0  0  0  0  0  0  0  0  0  0  0  0
  -25.9730  -30.8030   21.4400 C   0  0  0  0  0  2  0  0  0  0  0  0
  -26.0490  -29.4190   20.7790 C   0  0  0  0  0  0  0  0  0  0  0  0
  -27.2190  -28.5800   20.7730 C   0  0  0  0  0  3  0  0  0  0  0  0
  -26.0150  -26.8870   19.5490 C   0  0  0  0  0  3  0  0  0  0  0  0
  -24.8690  -27.7070   19.5430 C   0  0  0  0  0  3  0  0  0  0  0  0
  -23.6410  -29.8460   20.2260 C   0  0  0  0  0  2  0  0  0  0  0  0
  -24.6930  -31.0960   22.1580 N   0  0  0  0  0  0  0  0  0  0  0  0
  -23.5380  -32.1880   23.7860 O   0  0  0  0  0  0  0  0  0  0  0  0
  -22.7500  -29.5000   22.5660 C   0  0  0  0  0  0  0  0  0  0  0  0
  -21.4250  -29.3160   22.4300 N   0  0  0  0  0  0  0  0  0  0  0  0
  -23.4220  -28.8850   23.3980 O   0  0  0  0  0  0  0  0  0  0  0  0
  -20.9370  -29.8700   21.7400 H   0  0  0  0  0  0  0  0  0  0  0  0
  -18.0600  -28.0630   22.8930 C   0  0  0  0  0  0  0  0  0  0  0  0
  -20.6080  -28.3710   23.1970 C   0  0  0  0  0  3  0  0  0  0  0  0
  -20.7410  -26.9350   22.6370 C   0  0  0  0  0  2  0  0  0  0  0  0
  -19.6620  -26.5860   21.6070 C   0  0  0  0  0  2  0  0  0  0  0  0
  -18.2680  -26.7130   22.2280 C   0  0  0  0  0  2  0  0  0  0  0  0
  -19.1580  -28.8490   23.3320 C   0  0  0  0  0  0  0  0  0  0  0  0
  -18.9060  -30.1110   23.9130 C   0  0  0  0  0  3  0  0  0  0  0  0
  -17.5910  -30.5910   24.0550 C   0  0  0  0  0  3  0  0  0  0  0  0
  -16.5070  -29.8050   23.6270 C   0  0  0  0  0  3  0  0  0  0  0  0
  -16.7420  -28.5430   23.0550 C   0  0  0  0  0  3  0  0  0  0  0  0
  -25.9010  -32.5420   23.8840 C   0  0  0  0  0  3  0  0  0  0  0  0
  -26.3980  -31.7820   25.1750 C   0  0  1  0  0  0  0  0  0  0  0  0
  -25.2940  -31.5690   26.2370 C   0  0  0  0  0  1  0  0  0  0  0  0
  -26.9730  -30.3950   24.8130 C   0  0  0  0  0  1  0  0  0  0  0  0
  -27.5500  -32.5780   25.8380 C   0  0  0  0  0  1  0  0  0  0  0  0
  -25.5960  -33.9460   24.2000 N   0  0  0  0  0  0  0  0  0  0  0  0
  -25.9410  -34.9940   23.4390 C   0  0  0  0  0  0  0  0  0  0  0  0
  -26.6160  -34.8800   22.4130 O   0  0  0  0  0  0  0  0  0  0  0  0
  -24.9980  -34.1100   24.9980 H   0  0  0  0  0  0  0  0  0  0  0  0
  -24.2320  -36.8020   23.0590 C   0  0  0  0  0  1  0  0  0  0  0  0
  -25.4610  -36.3890   23.8850 C   0  0  0  0  0  3  0  0  0  0  0  0
  -27.5940  -37.2610   24.7340 C   0  0  0  0  0  1  0  0  0  0  0  0
  -26.5050  -37.4330   23.7780 N   0  0  0  0  0  0  0  0  0  0  0  0
  -26.1060  -38.3590   23.9120 H   0  0  0  0  0  0  0  0  0  0  0  0
  1  3  1  0
  1  2  2  0
  2  5  1  0
  3  4  2  0
  4  5  1  0
  5 53  1  0
  6 19  1  0
  7 12  1  0
  8  9  1  0
  8  7  1  0
 10  9  1  0
 10 23  1  0
 10 11  1  0
 12  6  1  0
 12 11  1  0
 13  6  2  0
 14 18  1  0
 14 16  1  0
 15 17  1  0
 16 19  1  0
 18  4  1  0
 18 15  1  0
 19 17  1  0
 20 21  2  0
 21 40  1  0
 22 21  1  0
 22 25  1  0
 23 20  1  0
 23 24  1  0
 24 22  2  0
 25 26  1  0
 26 27  2  0
 28 31  1  0
 28 27  1  0
 29 28  2  0
 30 29  1  0
 30 25  2  0
 31 32  1  0
 32 33  1  0
 33 34  2  0
 35 34  1  0
 35 39  1  0
 36 35  2  0
 37 32  2  0
 37 36  1  0
 38 37  1  0
 40 41  1  0
 41 44  1  0
 41 43  1  0
 42 40  2  0
 45 46  1  0
 45 20  1  0
 47 45  1  0
 48 49  1  0
 48 50  1  0
 49 50  1  0
 50 51  1  6
 50  3  1  0
 52 51  1  0
 54 53  2  0
 54 55  1  0
 56 67  2  0
 57 55  1  0
 57 62  1  0
 58 66  1  0
 58 68  1  0
 59 65  1  0
 59 61  1  0
 60 66  1  0
 61 60  1  0
 62 61  2  0
 63 57  2  0
 64 63  1  0
 64 59  2  0
 65 58  1  0
 66 56  1  0
 68 70  2  0
 69 68  1  0
 71 69  1  0
 72 81  2  0
 72 77  1  0
 73 69  1  0
 73 77  1  0
 74 73  1  0
 75 76  1  0
 75 74  1  0
 76 72  1  0
 77 78  2  0
 78 79  1  0
 80 79  2  0
 81 80  1  0
 82 56  1  0
 82 87  1  0
 82 83  1  0
 83 86  1  1
 83 84  1  0
 85 83  1  0
 87 90  1  0
 88 92  1  0
 88 87  1  0
 89 88  2  0
 92 91  1  0
 94 92  1  0
 94 95  1  0
 94 93  1  0
M  ISO  4   6 100  19 100  54 101  55 101
M  END
>  <TORSDO>  (32) 
F 20

>  <SCORE>  (32) 
-14.120

>  <name>  (32) 
31

>  <ligand_id>  (32) 
31

>  <original_smiles>  (32) 
[H]OC1(c2c([H])c([H])n(C([H])([H])C([H])([H])Oc3c([H])c([H])c4c(c3[H])C([H])([H])N(C(=O)C([H])(N([H])C(=O)C([H])(N([H])C([H])([H])[H])C([H])([H])[H])C(C([H])([H])[H])(C([H])([H])[H])C([H])([H])[H])C([H])(C(=O)N([H])C3([H])c5c([H])c([H])c([H])c([H])c5C([H])([H])C([H])([H])C3([H])[H])C4([H])[H])c2C2([H])C([H])([H])C([H])([H])N(C(=O)N3C([H])([H])C([H])([H])C([H])([H])C([H])(n4nc(-c5c([H])c([H])c(Oc6c([H])c([H])c(F)c([H])c6F)c([H])c5[H])c(C(=O)N([H])[H])c4N([H])[H])C3([H])[H])C([H])([H])C2([H])[H])C([H])([H])C1([H])[H]

>  <smiles>  (32) 
[H]OC1(c2c([H])c([H])n(C([H])([H])C([H])([H])Oc3c([H])c([H])c4c(c3[H])C([H])([H])N(C(=O)C([H])(N([H])C(=O)C([H])(N([H])C([H])([H])[H])C([H])([H])[H])C(C([H])([H])[H])(C([H])([H])[H])C([H])([H])[H])C([H])(C(=O)N([H])C3([H])c5c([H])c([H])c([H])c([H])c5C([H])([H])C([H])([H])C3([H])[H])C4([H])[H])c2C2([H])C([H])([H])C([H])([H])N(C(=O)N3C([H])([H])C([H])([H])C([H])([H])C([H])(n4nc(-c5c([H])c([H])c(Oc6c([H])c([H])c(F)c([H])c6F)c([H])c5[H])c(C(=O)N([H])[H])c4N([H])[H])C3([H])[H])C([H])([H])C2([H])[H])C([H])([H])C1([H])[H]

$$$$
32:0:0
     RDKit          3D

 94103  0  0  1  0  0  0  0  0999 V2000
  -31.7590  -18.7870   21.2110 C   0  0  0  0  0  0  0  0  0  0  0  0
  -31.6970  -22.4770   21.1560 C   0  0  0  0  0  2  0  0  0  0  0  0
  -32.4520  -21.1510   21.0140 C   0  0  0  0  0  2  0  0  0  0  0  0
  -30.0990  -20.6960   21.0880 C   0  0  0  0  0  2  0  0  0  0  0  0
  -30.3280  -22.1320   20.5800 C   0  0  0  0  0  3  0  0  0  0  0  0
  -31.4380  -20.0970   21.1030 N   0  0  0  0  0  0  0  0  0  0  0  0
  -32.9380  -18.4180   21.2070 O   0  0  0  0  0  0  0  0  0  0  0  0
  -30.2720  -17.3030   22.7210 C   0  0  0  0  0  2  0  0  0  0  0  0
  -30.6340  -17.7990   21.3370 C   0  0  0  0  0  3  0  0  0  0  0  0
  -31.0080  -16.3850   21.7780 C   0  0  0  0  0  3  0  0  0  0  0  0
  -30.8060  -14.4210   20.3240 C   0  0  0  0  0  0  0  0  0  0  0  0
  -30.3910  -12.3910   18.9850 C   0  0  0  0  0  2  0  0  0  0  0  0
  -29.4050  -12.6960   17.8420 C   0  0  0  0  0  2  0  0  0  0  0  0
  -27.9480  -12.5520   18.3210 C   0  0  0  0  0  2  0  0  0  0  0  0
  -27.6780  -13.3060   19.6520 C   0  0  0  0  0  3  0  0  0  0  0  0
  -28.7690  -12.9800   20.6950 C   0  0  0  0  0  2  0  0  0  0  0  0
  -30.0800  -13.2950   20.1020 N   0  0  0  0  0  0  0  0  0  0  0  0
  -31.8450  -14.6910   19.7130 O   0  0  0  0  0  0  0  0  0  0  0  0
  -30.3110  -15.2500   21.2510 N   0  0  0  0  0  0  0  0  0  0  0  0
  -29.4560  -14.9630   21.7030 H   0  0  0  0  0  0  0  0  0  0  0  0
  -25.2940  -13.8940   20.4290 C   0  0  0  0  0  0  0  0  0  0  0  0
  -24.2420  -13.1120   20.8230 C   0  0  0  0  0  0  0  0  0  0  0  0
  -24.7100  -11.7640   20.7690 C   0  0  0  0  0  0  0  0  0  0  0  0
  -26.3390  -13.0210   20.1640 N   0  0  0  0  0  0  0  0  0  0  0  0
  -25.9910  -11.7350   20.4230 N   0  0  0  0  0  0  0  0  0  0  0  0
  -23.9990  -10.4940   20.9730 C   0  0  0  0  0  0  0  0  0  0  0  0
  -24.4530   -9.5360   21.9050 C   0  0  0  0  0  3  0  0  0  0  0  0
  -23.7430   -8.3310   22.0970 C   0  0  0  0  0  3  0  0  0  0  0  0
  -22.5650   -8.0760   21.3550 C   0  0  0  0  0  0  0  0  0  0  0  0
  -22.1300   -9.0230   20.4100 C   0  0  0  0  0  3  0  0  0  0  0  0
  -22.8410  -10.2190   20.2180 C   0  0  0  0  0  3  0  0  0  0  0  0
  -21.8250   -6.9220   21.4550 O   0  0  0  0  0  0  0  0  0  0  0  0
  -21.7750   -6.1960   22.6170 C   0  0  0  0  0  0  0  0  0  0  0  0
  -21.3180   -6.7600   23.8280 C   0  0  0  0  0  3  0  0  0  0  0  0
  -21.2190   -5.9600   24.9840 C   0  0  0  0  0  3  0  0  0  0  0  0
  -21.5660   -4.5960   24.9290 C   0  0  0  0  0  0  0  0  0  0  0  0
  -22.0170   -4.0310   23.7230 C   0  0  0  0  0  3  0  0  0  0  0  0
  -22.1170   -4.8300   22.5690 C   0  0  0  0  0  0  0  0  0  0  0  0
  -22.5310   -4.2770   21.4040 F   0  0  0  0  0  0  0  0  0  0  0  0
  -21.4640   -3.8250   26.0360 F   0  0  0  0  0  0  0  0  0  0  0  0
  -22.8500  -13.5770   21.1410 C   0  0  0  0  0  0  0  0  0  0  0  0
  -22.1540  -12.8670   22.0240 N   0  0  0  0  0  0  0  0  0  0  0  0
  -22.3890  -14.6020   20.6410 O   0  0  0  0  0  0  0  0  0  0  0  0
  -22.5430  -12.0390   22.4490 H   0  0  0  0  0  0  0  0  0  0  0  0
  -21.2190  -13.1550   22.2760 H   0  0  0  0  0  0  0  0  0  0  0  0
  -25.4470  -15.2660   20.2570 N   0  0  0  0  0  0  0  0  0  0  0  0
  -24.6820  -15.9210   20.3930 H   0  0  0  0  0  0  0  0  0  0  0  0
  -26.2940  -15.7080   19.9230 H   0  0  0  0  0  0  0  0  0  0  0  0
  -29.2410  -23.0850   20.9060 N   0  0  0  0  0  4  0  0  0  0  0  0
  -29.0840  -23.0840   21.9040 H   0  0  0  0  0  0  0  0  0  0  0  0
  -28.3980  -22.7350   20.4760 H   0  0  0  0  0  0  0  0  0  0  0  0
  -29.4610  -24.4830   20.4400 C   0  0  0  0  0  2  0  0  0  0  0  0
  -28.2020  -25.3480   20.6240 C   0  0  0  0  0  2  0  0  0  0  0  0
  -28.3890  -26.6940   20.1560 O   0  0  0  0  0  0  0  0  0  0  0  0
  -24.5920  -31.8690   23.2350 C   0  0  0  0  0  0  0  0  0  0  0  0
  -27.2350  -27.4460   20.1360 C   0  0  0  0  0  0  0  0  0  0  0  0
  -23.3890  -30.4760   21.5840 C   0  0  0  0  0  3  0  0  0  0  0  0
  -24.8440  -28.9530   20.1490 C   0  0  0  0  0  0  0  0  0  0  0  0
  -25.9150  -30.8390   21.3920 C   0  0  0  0  0  2  0  0  0  0  0  0
  -26.0020  -29.4730   20.7430 C   0  0  0  0  0  0  0  0  0  0  0  0
  -27.2020  -28.7270   20.7330 C   0  0  0  0  0  3  0  0  0  0  0  0
  -26.0650  -26.9530   19.5140 C   0  0  0  0  0  3  0  0  0  0  0  0
  -24.8710  -27.6930   19.5290 C   0  0  0  0  0  3  0  0  0  0  0  0
  -23.5990  -29.8070   20.2000 C   0  0  0  0  0  2  0  0  0  0  0  0
  -24.6510  -31.0760   22.1290 N   0  0  0  0  0  0  0  0  0  0  0  0
  -23.5110  -32.1370   23.7750 O   0  0  0  0  0  0  0  0  0  0  0  0
  -22.7390  -29.4470   22.5370 C   0  0  0  0  0  0  0  0  0  0  0  0
  -21.4120  -29.2790   22.4210 N   0  0  0  0  0  0  0  0  0  0  0  0
  -23.4250  -28.8030   23.3350 O   0  0  0  0  0  0  0  0  0  0  0  0
  -20.9180  -29.8490   21.7500 H   0  0  0  0  0  0  0  0  0  0  0  0
  -18.0280  -28.1280   22.9520 C   0  0  0  0  0  0  0  0  0  0  0  0
  -20.5930  -28.3390   23.1890 C   0  0  0  0  0  3  0  0  0  0  0  0
  -20.6650  -26.9180   22.5860 C   0  0  0  0  0  2  0  0  0  0  0  0
  -19.5420  -26.6310   21.5840 C   0  0  0  0  0  2  0  0  0  0  0  0
  -18.1730  -26.7880   22.2520 C   0  0  0  0  0  2  0  0  0  0  0  0
  -19.1660  -28.8640   23.3790 C   0  0  0  0  0  0  0  0  0  0  0  0
  -18.9770  -30.1210   23.9930 C   0  0  0  0  0  3  0  0  0  0  0  0
  -17.6820  -30.6400   24.1850 C   0  0  0  0  0  3  0  0  0  0  0  0
  -16.5600  -29.9010   23.7760 C   0  0  0  0  0  3  0  0  0  0  0  0
  -16.7340  -28.6460   23.1650 C   0  0  0  0  0  3  0  0  0  0  0  0
  -25.8780  -32.4960   23.8590 C   0  0  0  0  0  3  0  0  0  0  0  0
  -26.3900  -31.7240   25.1350 C   0  0  1  0  0  0  0  0  0  0  0  0
  -25.2940  -31.4840   26.2000 C   0  0  0  0  0  1  0  0  0  0  0  0
  -26.9730  -30.3470   24.7400 C   0  0  0  0  0  1  0  0  0  0  0  0
  -27.5400  -32.5170   25.8000 C   0  0  0  0  0  1  0  0  0  0  0  0
  -25.5750  -33.8960   24.1840 N   0  0  0  0  0  0  0  0  0  0  0  0
  -25.9200  -34.9440   23.4250 C   0  0  0  0  0  0  0  0  0  0  0  0
  -26.6000  -34.8350   22.4010 O   0  0  0  0  0  0  0  0  0  0  0  0
  -24.9760  -34.0560   24.9810 H   0  0  0  0  0  0  0  0  0  0  0  0
  -24.2170  -36.7490   23.0320 C   0  0  0  0  0  1  0  0  0  0  0  0
  -25.4350  -36.3360   23.8730 C   0  0  0  0  0  3  0  0  0  0  0  0
  -27.5570  -37.2000   24.7550 C   0  0  0  0  0  1  0  0  0  0  0  0
  -26.4790  -37.3790   23.7860 N   0  0  0  0  0  0  0  0  0  0  0  0
  -26.0780  -38.3030   23.9250 H   0  0  0  0  0  0  0  0  0  0  0  0
  3  6  1  0
  3  2  1  0
  4  6  1  0
  5 49  1  0
  5  4  1  0
  5  2  1  0
  6  1  1  0
  7  1  2  0
  9  1  1  0
  9 10  1  0
  9  8  1  0
 10 19  1  0
 10  8  1  0
 11 19  1  0
 12 17  1  0
 13 14  1  0
 13 12  1  0
 15 14  1  0
 15 24  1  0
 15 16  1  0
 17 11  1  0
 17 16  1  0
 18 11  2  0
 19 20  1  0
 21 22  2  0
 22 41  1  0
 23 22  1  0
 23 26  1  0
 24 25  1  0
 24 21  1  0
 25 23  2  0
 26 27  1  0
 27 28  2  0
 29 32  1  0
 29 28  1  0
 30 29  2  0
 31 30  1  0
 31 26  2  0
 32 33  1  0
 33 34  1  0
 34 35  2  0
 36 35  1  0
 36 40  1  0
 37 36  2  0
 38 33  2  0
 38 37  1  0
 39 38  1  0
 41 42  1  0
 42 45  1  0
 42 44  1  0
 43 41  2  0
 46 47  1  0
 46 21  1  0
 48 46  1  0
 49 50  1  0
 51 49  1  0
 52 53  1  0
 52 49  1  0
 54 53  1  0
 55 66  2  0
 56 54  1  0
 56 61  1  0
 57 65  1  0
 57 67  1  0
 58 64  1  0
 58 60  1  0
 59 65  1  0
 60 59  1  0
 61 60  2  0
 62 63  1  0
 62 56  2  0
 63 58  2  0
 64 57  1  0
 65 55  1  0
 67 69  2  0
 68 67  1  0
 70 68  1  0
 71 80  2  0
 71 76  1  0
 72 68  1  0
 72 76  1  0
 73 72  1  0
 74 75  1  0
 74 73  1  0
 75 71  1  0
 76 77  2  0
 77 78  1  0
 79 78  2  0
 80 79  1  0
 81 55  1  0
 81 86  1  0
 81 82  1  0
 82 85  1  1
 82 83  1  0
 84 82  1  0
 86 89  1  0
 87 91  1  0
 87 86  1  0
 88 87  2  0
 91 90  1  0
 93 91  1  0
 93 94  1  0
 93 92  1  0
M  ISO  4  11 100  19 100  53 101  54 101
M  END
>  <TORSDO>  (33) 
F 20

>  <SCORE>  (33) 
-13.744

>  <name>  (33) 
32

>  <ligand_id>  (33) 
32

>  <original_smiles>  (33) 
[H]c1c([H])c([H])c2c(c1[H])C([H])([H])C([H])([H])C([H])([H])C2([H])N([H])C(=O)C1([H])N(C(=O)C([H])(N([H])C(=O)C([H])(N([H])C([H])([H])[H])C([H])([H])[H])C(C([H])([H])[H])(C([H])([H])[H])C([H])([H])[H])C([H])([H])c2c([H])c(OC([H])([H])C([H])([H])[N+]([H])([H])C3([H])C([H])([H])N(C(=O)C4([H])C([H])([H])C4([H])N([H])C(=O)N4C([H])([H])C([H])([H])C([H])([H])C([H])(n5nc(-c6c([H])c([H])c(Oc7c([H])c([H])c(F)c([H])c7F)c([H])c6[H])c(C(=O)N([H])[H])c5N([H])[H])C4([H])[H])C([H])([H])C3([H])[H])c([H])c([H])c2C1([H])[H]

>  <smiles>  (33) 
[H]c1c([H])c([H])c2c(c1[H])C([H])([H])C([H])([H])C([H])([H])C2([H])N([H])C(=O)C1([H])N(C(=O)C([H])(N([H])C(=O)C([H])(N([H])C([H])([H])[H])C([H])([H])[H])C(C([H])([H])[H])(C([H])([H])[H])C([H])([H])[H])C([H])([H])c2c([H])c(OC([H])([H])C([H])([H])[N+]([H])([H])C3([H])C([H])([H])N(C(=O)C4([H])C([H])([H])C4([H])N([H])C(=O)N4C([H])([H])C([H])([H])C([H])([H])C([H])(n5nc(-c6c([H])c([H])c(Oc7c([H])c([H])c(F)c([H])c7F)c([H])c6[H])c(C(=O)N([H])[H])c5N([H])[H])C4([H])[H])C([H])([H])C3([H])[H])c([H])c([H])c2C1([H])[H]

$$$$
33:0:0
     RDKit          3D

105114  0  0  1  0  0  0  0  0999 V2000
  -30.5340  -19.9320   20.7510 C   0  0  0  0  0  3  0  0  0  0  0  0
  -29.2130  -21.4920   19.4410 C   0  0  0  0  0  3  0  0  0  0  0  0
  -30.1370  -19.4790   18.3860 C   0  0  0  0  0  0  0  0  0  0  0  0
  -30.6840  -19.0490   19.6460 C   0  0  0  0  0  0  0  0  0  0  0  0
  -29.8310  -21.1560   20.6490 C   0  0  0  0  0  0  0  0  0  0  0  0
  -29.3920  -20.6790   18.3090 C   0  0  0  0  0  0  0  0  0  0  0  0
  -30.3430  -18.7710   17.0550 C   0  0  0  0  0  1  0  0  0  0  0  0
  -32.8580  -18.0470   19.9420 C   0  0  0  0  0  2  0  0  0  0  0  0
  -33.4280  -18.0280   18.5220 C   0  0  0  0  0  2  0  0  0  0  0  0
  -32.0140  -15.9080   18.2600 C   0  0  0  0  0  2  0  0  0  0  0  0
  -31.0350  -16.5200   19.3540 C   0  0  0  0  0  3  0  0  0  0  0  0
  -33.3620  -16.8330   16.3660 C   0  0  0  0  0  1  0  0  0  0  0  0
  -31.4170  -17.8480   19.8730 N   0  0  0  0  0  0  0  0  0  0  0  0
  -33.1950  -16.7310   17.8360 N   0  0  1  0  0  4  0  0  0  0  0  0
  -33.9750  -16.1720   18.1490 H   0  0  0  0  0  0  0  0  0  0  0  0
  -31.2890  -14.5420   20.8950 C   0  0  0  0  0  0  0  0  0  0  0  0
  -30.9640  -12.3290   19.9460 C   0  0  0  0  0  2  0  0  0  0  0  0
  -30.1480  -12.5250   18.6500 C   0  0  0  0  0  2  0  0  0  0  0  0
  -28.6330  -12.5070   18.9280 C   0  0  0  0  0  2  0  0  0  0  0  0
  -28.2220  -13.3890   20.1370 C   0  0  0  0  0  3  0  0  0  0  0  0
  -29.1850  -13.2240   21.3460 C   0  0  0  0  0  2  0  0  0  0  0  0
  -30.5630  -13.3980   20.8700 N   0  0  0  0  0  0  0  0  0  0  0  0
  -32.5170  -14.5710   20.8360 O   0  0  0  0  0  0  0  0  0  0  0  0
  -30.6020  -15.5980   20.4280 N   0  0  0  0  0  0  0  0  0  0  0  0
  -29.6000  -15.5140   20.5380 H   0  0  0  0  0  0  0  0  0  0  0  0
  -25.7970  -14.0950   20.6270 C   0  0  0  0  0  0  0  0  0  0  0  0
  -24.6760  -13.3690   20.9170 C   0  0  0  0  0  0  0  0  0  0  0  0
  -25.0900  -12.0010   20.9600 C   0  0  0  0  0  0  0  0  0  0  0  0
  -26.8280  -13.1740   20.5140 N   0  0  0  0  0  0  0  0  0  0  0  0
  -26.4010  -11.9100   20.7720 N   0  0  0  0  0  0  0  0  0  0  0  0
  -24.3080  -10.7680   21.1220 C   0  0  0  0  0  0  0  0  0  0  0  0
  -24.6170   -9.8190   22.1230 C   0  0  0  0  0  3  0  0  0  0  0  0
  -23.8350   -8.6530   22.2640 C   0  0  0  0  0  3  0  0  0  0  0  0
  -22.7350   -8.4260   21.4020 C   0  0  0  0  0  0  0  0  0  0  0  0
  -22.4480   -9.3670   20.3960 C   0  0  0  0  0  3  0  0  0  0  0  0
  -23.2260  -10.5250   20.2560 C   0  0  0  0  0  3  0  0  0  0  0  0
  -21.9410   -7.3050   21.4490 O   0  0  0  0  0  0  0  0  0  0  0  0
  -21.7740   -6.5840   22.6050 C   0  0  0  0  0  0  0  0  0  0  0  0
  -21.2550   -7.1730   23.7780 C   0  0  0  0  0  3  0  0  0  0  0  0
  -21.0340   -6.3860   24.9250 C   0  0  0  0  0  3  0  0  0  0  0  0
  -21.3170   -5.0060   24.8970 C   0  0  0  0  0  0  0  0  0  0  0  0
  -21.8260   -4.4150   23.7240 C   0  0  0  0  0  3  0  0  0  0  0  0
  -22.0480   -5.2020   22.5820 C   0  0  0  0  0  0  0  0  0  0  0  0
  -22.5170   -4.6260   21.4490 F   0  0  0  0  0  0  0  0  0  0  0  0
  -21.1010   -4.2450   25.9950 F   0  0  0  0  0  0  0  0  0  0  0  0
  -23.2740  -13.8970   21.0500 C   0  0  0  0  0  0  0  0  0  0  0  0
  -22.4550  -13.2550   21.8740 N   0  0  0  0  0  0  0  0  0  0  0  0
  -22.9140  -14.9150   20.4620 O   0  0  0  0  0  0  0  0  0  0  0  0
  -22.7530  -12.4340   22.3800 H   0  0  0  0  0  0  0  0  0  0  0  0
  -21.5110  -13.5900   22.0040 H   0  0  0  0  0  0  0  0  0  0  0  0
  -26.0210  -15.4560   20.4250 N   0  0  0  0  0  0  0  0  0  0  0  0
  -25.2680  -16.1350   20.4780 H   0  0  0  0  0  0  0  0  0  0  0  0
  -26.9110  -15.8700   20.1810 H   0  0  0  0  0  0  0  0  0  0  0  0
  -29.7110  -22.0440   21.6880 O   0  0  0  0  0  0  0  0  0  0  0  0
  -30.9250  -22.6600   22.1260 C   0  0  0  0  0  2  0  0  0  0  0  0
  -31.5250  -23.6220   21.0700 C   0  0  0  0  0  2  0  0  0  0  0  0
  -30.7100  -24.8390   20.7970 N   0  0  0  0  0  4  0  0  0  0  0  0
  -31.0660  -25.2730   19.9590 H   0  0  0  0  0  0  0  0  0  0  0  0
  -29.7520  -24.5790   20.6080 H   0  0  0  0  0  0  0  0  0  0  0  0
  -30.7060  -25.8660   21.8700 C   0  0  0  0  0  2  0  0  0  0  0  0
  -29.7840  -27.0650   21.5610 C   0  0  0  0  0  2  0  0  0  0  0  0
  -28.6330  -26.5950   20.8640 O   0  0  0  0  0  0  0  0  0  0  0  0
  -24.6410  -31.9530   23.4300 C   0  0  0  0  0  0  0  0  0  0  0  0
  -27.5120  -27.3900   20.7890 C   0  0  0  0  0  0  0  0  0  0  0  0
  -23.5470  -30.4550   21.7910 C   0  0  0  0  0  3  0  0  0  0  0  0
  -25.0990  -28.8510   20.5550 C   0  0  0  0  0  0  0  0  0  0  0  0
  -26.0750  -30.8310   21.7320 C   0  0  0  0  0  2  0  0  0  0  0  0
  -26.2090  -29.4260   21.1860 C   0  0  0  0  0  0  0  0  0  0  0  0
  -27.4180  -28.7090   21.3010 C   0  0  0  0  0  3  0  0  0  0  0  0
  -26.3820  -26.8250   20.1600 C   0  0  0  0  0  3  0  0  0  0  0  0
  -25.1800  -27.5470   20.0370 C   0  0  0  0  0  3  0  0  0  0  0  0
  -23.8480  -29.6960   20.4700 C   0  0  0  0  0  2  0  0  0  0  0  0
  -24.7680  -31.0970   22.3790 N   0  0  0  0  0  0  0  0  0  0  0  0
  -23.5260  -32.2460   23.8850 O   0  0  0  0  0  0  0  0  0  0  0  0
  -22.8380  -29.4850   22.7630 C   0  0  0  0  0  0  0  0  0  0  0  0
  -21.5220  -29.3040   22.5650 N   0  0  0  0  0  0  0  0  0  0  0  0
  -23.4690  -28.9000   23.6470 O   0  0  0  0  0  0  0  0  0  0  0  0
  -21.0780  -29.8240   21.8190 H   0  0  0  0  0  0  0  0  0  0  0  0
  -18.1050  -28.1970   22.9500 C   0  0  0  0  0  0  0  0  0  0  0  0
  -20.6530  -28.4070   23.3280 C   0  0  0  0  0  3  0  0  0  0  0  0
  -20.7500  -26.9560   22.8010 C   0  0  0  0  0  2  0  0  0  0  0  0
  -19.6860  -26.6240   21.7500 C   0  0  0  0  0  2  0  0  0  0  0  0
  -18.2810  -26.8220   22.3280 C   0  0  0  0  0  2  0  0  0  0  0  0
  -19.2210  -28.9470   23.4060 C   0  0  0  0  0  0  0  0  0  0  0  0
  -19.0070  -30.2360   23.9410 C   0  0  0  0  0  3  0  0  0  0  0  0
  -17.7090  -30.7720   24.0320 C   0  0  0  0  0  3  0  0  0  0  0  0
  -16.6060  -30.0150   23.6010 C   0  0  0  0  0  3  0  0  0  0  0  0
  -16.8040  -28.7320   23.0620 C   0  0  0  0  0  3  0  0  0  0  0  0
  -25.8830  -32.6210   24.1010 C   0  0  0  0  0  3  0  0  0  0  0  0
  -26.3170  -31.9200   25.4470 C   0  0  1  0  0  0  0  0  0  0  0  0
  -25.1540  -31.7150   26.4450 C   0  0  0  0  0  1  0  0  0  0  0  0
  -26.9460  -30.5370   25.1600 C   0  0  0  0  0  1  0  0  0  0  0  0
  -27.4080  -32.7630   26.1480 C   0  0  0  0  0  1  0  0  0  0  0  0
  -25.5560  -34.0330   24.3310 N   0  0  0  0  0  0  0  0  0  0  0  0
  -25.9420  -35.0420   23.5380 C   0  0  0  0  0  0  0  0  0  0  0  0
  -26.6800  -34.8810   22.5640 O   0  0  0  0  0  0  0  0  0  0  0  0
  -24.9120  -34.2320   25.0830 H   0  0  0  0  0  0  0  0  0  0  0  0
  -24.2400  -36.8000   22.9650 C   0  0  0  0  0  1  0  0  0  0  0  0
  -25.4250  -36.4510   23.8800 C   0  0  0  0  0  3  0  0  0  0  0  0
  -27.4960  -37.3950   24.8000 C   0  0  0  0  0  1  0  0  0  0  0  0
  -26.4620  -37.5000   23.7740 N   0  0  0  0  0  0  0  0  0  0  0  0
  -26.0470  -38.4260   23.8360 H   0  0  0  0  0  0  0  0  0  0  0  0
  -28.8460  -21.0590   17.1110 O   0  0  0  0  0  0  0  0  0  0  0  0
  -29.4620  -22.1840   15.1090 C   0  0  0  0  0  1  0  0  0  0  0  0
  -29.2960  -22.3150   16.6240 C   0  0  0  0  0  2  0  0  0  0  0  0
  2  5  2  0
  3  4  1  0
  4 13  1  0
  4  1  2  0
  5  1  1  0
  5 54  1  0
  6  3  2  0
  6  2  1  0
  7  3  1  0
  9  8  1  0
 10 11  1  0
 11 13  1  0
 11 24  1  0
 12 14  1  0
 13  8  1  0
 14 15  1  1
 14 10  1  0
 14  9  1  0
 17 22  1  0
 18 19  1  0
 18 17  1  0
 20 19  1  0
 20 29  1  0
 20 21  1  0
 22 16  1  0
 22 21  1  0
 23 16  2  0
 24 25  1  0
 24 16  1  0
 26 27  2  0
 27 28  1  0
 27 46  1  0
 28 31  1  0
 29 26  1  0
 29 30  1  0
 30 28  2  0
 31 32  1  0
 32 33  2  0
 34 37  1  0
 34 33  1  0
 35 34  2  0
 36 35  1  0
 36 31  2  0
 37 38  1  0
 38 39  1  0
 39 40  2  0
 41 40  1  0
 41 45  1  0
 42 41  2  0
 43 38  2  0
 43 42  1  0
 44 43  1  0
 46 47  1  0
 47 50  1  0
 47 49  1  0
 48 46  2  0
 51 52  1  0
 51 26  1  0
 53 51  1  0
 54 55  1  0
 56 55  1  0
 57 56  1  0
 57 60  1  0
 58 57  1  0
 59 57  1  0
 61 60  1  0
 62 61  1  0
 63 74  2  0
 64 62  1  0
 64 69  1  0
 65 73  1  0
 65 75  1  0
 66 68  1  0
 67 73  1  0
 68 69  2  0
 68 67  1  0
 70 64  2  0
 71 70  1  0
 71 66  2  0
 72 66  1  0
 72 65  1  0
 73 63  1  0
 75 77  2  0
 76 75  1  0
 78 76  1  0
 79 88  2  0
 79 84  1  0
 80 76  1  0
 80 84  1  0
 81 80  1  0
 82 83  1  0
 82 81  1  0
 83 79  1  0
 84 85  2  0
 85 86  1  0
 87 86  2  0
 88 87  1  0
 89 63  1  0
 89 94  1  0
 89 90  1  0
 90 93  1  1
 90 91  1  0
 92 90  1  0
 94 97  1  0
 95 99  1  0
 95 94  1  0
 96 95  2  0
 99 98  1  0
101102  1  0
101 99  1  0
101100  1  0
103  6  1  0
104105  1  0
105103  1  0
M  ISO  4  16 100  24 100  61 101  62 101
M  END
>  <TORSDO>  (34) 
F 25

>  <SCORE>  (34) 
-11.262

>  <name>  (34) 
33

>  <ligand_id>  (34) 
33

>  <original_smiles>  (34) 
[H]c1c([H])c([H])c2c(c1[H])C([H])([H])C([H])([H])C([H])([H])C2([H])N([H])C(=O)C1([H])N(C(=O)C([H])(N([H])C(=O)C([H])(N([H])C([H])([H])[H])C([H])([H])[H])C(C([H])([H])[H])(C([H])([H])[H])C([H])([H])[H])C([H])([H])c2c([H])c(OC([H])([H])C([H])([H])[N+]([H])([H])C([H])([H])C([H])([H])Oc3c([H])c(OC([H])([H])C([H])([H])[H])c(C([H])([H])[H])c(N4C([H])([H])C([H])([H])[N+]([H])(C([H])([H])[H])C([H])([H])C4([H])N([H])C(=O)N4C([H])([H])C([H])([H])C([H])([H])C([H])(n5nc(-c6c([H])c([H])c(Oc7c([H])c([H])c(F)c([H])c7F)c([H])c6[H])c(C(=O)N([H])[H])c5N([H])[H])C4([H])[H])c3[H])c([H])c([H])c2C1([H])[H]

>  <smiles>  (34) 
[H]c1c([H])c([H])c2c(c1[H])C([H])([H])C([H])([H])C([H])([H])C2([H])N([H])C(=O)C1([H])N(C(=O)C([H])(N([H])C(=O)C([H])(N([H])C([H])([H])[H])C([H])([H])[H])C(C([H])([H])[H])(C([H])([H])[H])C([H])([H])[H])C([H])([H])c2c([H])c(OC([H])([H])C([H])([H])[N+]([H])([H])C([H])([H])C([H])([H])Oc3c([H])c(OC([H])([H])C([H])([H])[H])c(C([H])([H])[H])c(N4C([H])([H])C([H])([H])[N+]([H])(C([H])([H])[H])C([H])([H])C4([H])N([H])C(=O)N4C([H])([H])C([H])([H])C([H])([H])C([H])(n5nc(-c6c([H])c([H])c(Oc7c([H])c([H])c(F)c([H])c7F)c([H])c6[H])c(C(=O)N([H])[H])c5N([H])[H])C4([H])[H])c3[H])c([H])c([H])c2C1([H])[H]

$$$$
34:0:0
     RDKit          3D

 95 99  0  0  1  0  0  0  0  0999 V2000
  -27.4230  -14.2860   22.0380 C   0  0  0  0  0  3  0  0  0  0  0  0
  -27.3160  -12.3950   21.7820 C   0  0  0  0  0  3  0  0  0  0  0  0
  -27.7120  -14.8480   19.1370 C   0  0  0  0  0  3  0  0  0  0  0  0
  -27.7350  -13.1570   18.6760 C   0  0  0  0  0  0  0  0  0  0  0  0
  -27.6730  -15.5260   20.7050 C   0  0  0  0  0  0  0  0  0  0  0  0
  -27.4630  -11.7700   19.9710 C   0  0  0  0  0  0  0  0  0  0  0  0
  -29.0530  -13.3750   17.7450 C   0  0  0  0  0  2  0  0  0  0  0  0
  -30.4090  -14.2940   18.2710 C   0  0  0  0  0  2  0  0  0  0  0  0
  -31.6750  -14.0430   20.8680 C   0  0  0  0  0  0  0  0  0  0  0  0
  -31.6130  -11.6920   21.1040 C   0  0  0  0  0  2  0  0  0  0  0  0
  -31.1620  -11.4660   19.6950 C   0  0  0  0  0  2  0  0  0  0  0  0
  -29.7870  -11.8570   19.8030 C   0  0  0  0  0  2  0  0  0  0  0  0
  -28.9550  -13.3110   20.5680 C   0  0  0  0  0  2  0  0  0  0  0  0
  -29.7610  -13.0520   21.9330 C   0  0  0  0  0  2  0  0  0  0  0  0
  -31.1110  -13.0010   21.4980 N   0  0  0  0  0  0  0  0  0  0  0  0
  -32.6340  -14.5340   21.4210 O   0  0  0  0  0  0  0  0  0  0  0  0
  -31.4680  -14.2580   19.4720 N   0  0  0  0  0  0  0  0  0  0  0  0
  -32.2670  -14.7990   19.1740 H   0  0  0  0  0  0  0  0  0  0  0  0
  -25.0890  -14.1960   20.7700 C   0  0  0  0  0  3  0  0  0  0  0  0
  -24.1320  -13.2850   21.1710 C   0  0  0  0  0  3  0  0  0  0  0  0
  -24.5730  -11.9510   21.0890 C   0  0  0  0  0  3  0  0  0  0  0  0
  -26.1280  -13.5180   20.2790 N   0  0  0  0  0  2  0  0  0  0  0  0
  -25.2140  -12.3520   20.0530 N   0  0  0  0  0  2  0  0  0  0  0  0
  -23.9400  -10.5720   21.1570 C   0  0  0  0  0  0  0  0  0  0  0  0
  -24.3300   -9.5410   22.0640 C   0  0  0  0  0  3  0  0  0  0  0  0
  -23.5850   -8.3330   22.1940 C   0  0  0  0  0  3  0  0  0  0  0  0
  -22.4130   -8.1350   21.4270 C   0  0  0  0  0  0  0  0  0  0  0  0
  -22.0660   -9.1180   20.4840 C   0  0  0  0  0  3  0  0  0  0  0  0
  -22.8210  -10.3000   20.3410 C   0  0  0  0  0  3  0  0  0  0  0  0
  -21.5890   -7.0280   21.4960 O   0  0  0  0  0  0  0  0  0  0  0  0
  -21.5880   -6.1600   22.5640 C   0  0  0  0  0  0  0  0  0  0  0  0
  -21.3670   -6.5940   23.8900 C   0  0  0  0  0  3  0  0  0  0  0  0
  -21.3160   -5.6550   24.9420 C   0  0  0  0  0  3  0  0  0  0  0  0
  -21.4690   -4.2820   24.6730 C   0  0  0  0  0  0  0  0  0  0  0  0
  -21.6700   -3.8450   23.3520 C   0  0  0  0  0  3  0  0  0  0  0  0
  -21.7230   -4.7790   22.3020 C   0  0  0  0  0  0  0  0  0  0  0  0
  -21.8910   -4.3460   21.0300 F   0  0  0  0  0  0  0  0  0  0  0  0
  -21.4240   -3.3790   25.6820 F   0  0  0  0  0  0  0  0  0  0  0  0
  -22.7340  -13.6430   21.0410 C   0  0  0  0  0  0  0  0  0  0  0  0
  -21.8870  -12.9640   21.7880 N   0  0  0  0  0  0  0  0  0  0  0  0
  -22.4120  -14.5260   20.2510 O   0  0  0  0  0  0  0  0  0  0  0  0
  -22.2100  -12.2400   22.4130 H   0  0  0  0  0  0  0  0  0  0  0  0
  -20.8990  -13.1660   21.7430 H   0  0  0  0  0  0  0  0  0  0  0  0
  -25.0870  -15.5550   20.6270 N   0  0  0  0  0  0  0  0  0  0  0  0
  -24.2650  -16.1230   20.7870 H   0  0  0  0  0  0  0  0  0  0  0  0
  -25.8600  -16.0670   20.2170 H   0  0  0  0  0  0  0  0  0  0  0  0
  -27.8850  -17.1960   20.8590 O   0  0  0  0  0  0  0  0  0  0  0  0
  -27.8610  -18.8770   20.0580 C   0  0  0  0  0  1  0  0  0  0  0  0
  -28.2490  -20.9020   20.2800 C   0  0  0  0  0 15  0  0  0  0  0  0
  -27.8910  -22.8460   19.6540 C   0  0  0  0  0 15  0  0  0  0  0  0
  -28.2970  -24.6680   19.7820 O   0  0  0  0  0  1  0  0  0  0  0  0
  -24.8000  -31.1450   22.6100 C   0  0  0  0  0  0  0  0  0  0  0  0
  -27.5230  -26.0560   19.6540 C   0  0  0  0  0  0  0  0  0  0  0  0
  -23.7890  -29.7560   20.8680 C   0  0  0  0  0  3  0  0  0  0  0  0
  -25.3660  -28.2160   19.4730 C   0  0  0  0  0  0  0  0  0  0  0  0
  -26.3680  -29.9390   20.9370 C   0  0  0  0  0  2  0  0  0  0  0  0
  -26.5010  -28.5140   20.2310 C   0  0  0  0  0  0  0  0  0  0  0  0
  -27.5790  -27.4600   20.2890 C   0  0  0  0  0  3  0  0  0  0  0  0
  -26.4130  -26.0560   18.7880 C   0  0  0  0  0  3  0  0  0  0  0  0
  -25.3810  -27.0350   18.7180 C   0  0  0  0  0  3  0  0  0  0  0  0
  -24.1430  -29.1450   19.4830 C   0  0  0  0  0  2  0  0  0  0  0  0
  -25.0100  -30.3200   21.5240 N   0  0  0  0  0  0  0  0  0  0  0  0
  -23.6610  -31.3800   23.0500 O   0  0  0  0  0  0  0  0  0  0  0  0
  -23.0690  -28.7030   21.7530 C   0  0  0  0  0  0  0  0  0  0  0  0
  -21.7280  -28.6100   21.6660 N   0  0  0  0  0  0  0  0  0  0  0  0
  -23.7270  -27.9740   22.4990 O   0  0  0  0  0  0  0  0  0  0  0  0
  -21.2440  -29.2480   21.0510 H   0  0  0  0  0  0  0  0  0  0  0  0
  -18.3110  -27.5420   22.2890 C   0  0  0  0  0  0  0  0  0  0  0  0
  -20.8960  -27.6260   22.3710 C   0  0  0  0  0  3  0  0  0  0  0  0
  -20.8560  -26.2830   21.6030 C   0  0  0  0  0  2  0  0  0  0  0  0
  -19.6630  -26.1700   20.6490 C   0  0  0  0  0  2  0  0  0  0  0  0
  -18.3460  -26.2970   21.4170 C   0  0  0  0  0  2  0  0  0  0  0  0
  -19.5060  -28.1740   22.7230 C   0  0  0  0  0  0  0  0  0  0  0  0
  -19.4130  -29.3440   23.5080 C   0  0  0  0  0  3  0  0  0  0  0  0
  -18.1580  -29.8800   23.8570 C   0  0  0  0  0  3  0  0  0  0  0  0
  -16.9780  -29.2420   23.4320 C   0  0  0  0  0  3  0  0  0  0  0  0
  -17.0570  -28.0730   22.6550 C   0  0  0  0  0  3  0  0  0  0  0  0
  -25.9760  -31.8480   23.3520 C   0  0  0  0  0  3  0  0  0  0  0  0
  -25.5090  -33.1750   23.8110 N   0  0  0  0  0  0  0  0  0  0  0  0
  -25.8210  -34.3470   23.2420 C   0  0  0  0  0  0  0  0  0  0  0  0
  -26.5860  -34.4310   22.2790 O   0  0  0  0  0  0  0  0  0  0  0  0
  -24.8280  -33.1760   24.5560 H   0  0  0  0  0  0  0  0  0  0  0  0
  -23.9900  -36.0610   22.9720 C   0  0  0  0  0  1  0  0  0  0  0  0
  -25.1890  -35.6280   23.8300 C   0  0  0  0  0  3  0  0  0  0  0  0
  -27.1640  -36.5500   24.9680 C   0  0  0  0  0  1  0  0  0  0  0  0
  -26.1390  -36.7580   23.9480 N   0  0  0  0  0  0  0  0  0  0  0  0
  -25.6470  -37.6200   24.1650 H   0  0  0  0  0  0  0  0  0  0  0  0
  -26.5040  -31.0200   24.5890 C   0  0  1  0  0  0  0  0  0  0  0  0
  -25.3960  -30.6080   25.5870 C   0  0  0  0  0  1  0  0  0  0  0  0
  -27.2160  -29.7270   24.1340 C   0  0  0  0  0  1  0  0  0  0  0  0
  -27.5600  -31.8490   25.3600 C   0  0  0  0  0  1  0  0  0  0  0  0
  -27.4060  -10.4720   19.4730 O   0  0  0  0  0  0  0  0  0  0  0  0
  -28.4640   -8.3730   19.5670 C   0  0  0  0  0  1  0  0  0  0  0  0
  -27.6650   -9.3040   21.7490 C   0  0  0  0  0  1  0  0  0  0  0  0
  -27.4110   -9.2640   20.2400 C   0  0  0  0  0  3  0  0  0  0  0  0
  2  1  1  0
  3  5  1  0
  4  3  2  0
  4  6  1  0
  5 47  1  0
  5  1  2  0
  6  2  2  0
  7  8  1  0
  7  4  1  0
  8 17  1  0
  9 16  2  0
  9 15  1  0
 10 15  1  0
 11 12  1  0
 11 10  1  0
 12 13  1  0
 13 14  1  0
 15 14  1  0
 17  9  1  0
 18 17  1  0
 19 44  1  0
 19 20  1  0
 20 39  1  0
 21 24  1  0
 21 20  1  0
 22 19  1  0
 23 22  1  0
 23 21  1  0
 24 25  1  0
 25 26  2  0
 27 30  1  0
 27 26  1  0
 28 27  2  0
 29 28  1  0
 29 24  2  0
 30 31  1  0
 31 32  1  0
 32 33  2  0
 34 33  1  0
 34 38  1  0
 35 34  2  0
 36 31  2  0
 36 35  1  0
 37 36  1  0
 39 40  1  0
 40 42  1  0
 41 39  2  0
 43 40  1  0
 44 45  1  0
 46 44  1  0
 48 47  1  0
 52 63  2  0
 53 51  1  0
 53 58  1  0
 54 62  1  0
 54 64  1  0
 55 61  1  0
 55 57  1  0
 56 62  1  0
 57 58  2  0
 57 56  1  0
 59 53  2  0
 60 59  1  0
 60 55  2  0
 61 54  1  0
 62 52  1  0
 64 66  2  0
 65 64  1  0
 67 65  1  0
 68 77  2  0
 68 73  1  0
 69 65  1  0
 69 73  1  0
 70 69  1  0
 71 72  1  0
 71 70  1  0
 72 68  1  0
 73 74  2  0
 74 75  1  0
 76 75  2  0
 77 76  1  0
 78 52  1  0
 78 79  1  0
 78 88  1  0
 79 82  1  0
 80 79  1  0
 80 84  1  0
 81 80  2  0
 84 83  1  0
 84 86  1  0
 86 87  1  0
 86 85  1  0
 88 91  1  1
 88 89  1  0
 90 88  1  0
 92  6  1  0
 92 95  1  0
 93 95  1  0
 95 94  1  0
M  ISO  4   9 100  17 100  50 101  51 101
M  END
>  <TORSDO>  (35) 
F 24

>  <SCORE>  (35) 
-10.717

>  <name>  (35) 
34

>  <ligand_id>  (35) 
34

>  <original_smiles>  (35) 
[H]c1c([H])c([H])c2c(c1[H])C([H])([H])C([H])([H])C([H])([H])C2([H])N([H])C(=O)C1([H])N(C(=O)C([H])(N([H])C(=O)C([H])(N([H])C([H])([H])[H])C([H])([H])[H])C(C([H])([H])[H])(C([H])([H])[H])C([H])([H])[H])C([H])([H])c2c([H])c(OC([H])([H])C([H])([H])C([H])([H])Oc3c([H])c([H])c(OC([H])(C([H])([H])[H])C([H])([H])[H])c(C([H])([H])C([H])([H])N([H])C(=O)N4C([H])([H])C([H])([H])C([H])([H])C([H])(n5nc(-c6c([H])c([H])c(Oc7c([H])c([H])c(F)c([H])c7F)c([H])c6[H])c(C(=O)N([H])[H])c5N([H])[H])C4([H])[H])c3[H])c([H])c([H])c2C1([H])[H]

>  <smiles>  (35) 
[H]c1c([H])c([H])c2c(c1[H])C([H])([H])C([H])([H])C([H])([H])C2([H])N([H])C(=O)C1([H])N(C(=O)C([H])(N([H])C(=O)C([H])(N([H])C([H])([H])[H])C([H])([H])[H])C(C([H])([H])[H])(C([H])([H])[H])C([H])([H])[H])C([H])([H])c2c([H])c(OC([H])([H])C([H])([H])C([H])([H])Oc3c([H])c([H])c(OC([H])(C([H])([H])[H])C([H])([H])[H])c(C([H])([H])C([H])([H])N([H])C(=O)N4C([H])([H])C([H])([H])C([H])([H])C([H])(n5nc(-c6c([H])c([H])c(Oc7c([H])c([H])c(F)c([H])c7F)c([H])c6[H])c(C(=O)N([H])[H])c5N([H])[H])C4([H])[H])c3[H])c([H])c([H])c2C1([H])[H]

$$$$
35:0:0
     RDKit          3D

100110  0  0  1  0  0  0  0  0999 V2000
  -30.1140  -21.6630   19.8390 C   0  0  0  0  0  3  0  0  0  0  0  0
  -26.5830  -20.5170   19.6250 C   0  0  0  0  0  3  0  0  0  0  0  0
  -27.6100  -21.4810   19.5870 C   0  0  0  0  0  3  0  0  0  0  0  0
  -27.1660  -19.2900   19.7460 C   0  0  0  0  0  0  0  0  0  0  0  0
  -28.8210  -20.8530   19.6950 C   0  0  0  0  0  0  0  0  0  0  0  0
  -28.5700  -19.4410   19.7460 N   0  0  0  0  0  0  0  0  0  0  0  0
  -31.9610  -14.7530   20.1320 C   0  0  0  0  0  0  0  0  0  0  0  0
  -31.7590  -12.3050   19.8250 C   0  0  0  0  0  2  0  0  0  0  0  0
  -30.8480  -12.0230   18.6110 C   0  0  0  0  0  2  0  0  0  0  0  0
  -29.3740  -11.9670   19.0580 C   0  0  0  0  0  2  0  0  0  0  0  0
  -28.9710  -13.1810   19.9350 C   0  0  0  0  0  3  0  0  0  0  0  0
  -30.0040  -13.4400   21.0540 C   0  0  0  0  0  2  0  0  0  0  0  0
  -31.3180  -13.5810   20.4170 N   0  0  0  0  0  0  0  0  0  0  0  0
  -33.1200  -14.7510   19.6940 O   0  0  0  0  0  0  0  0  0  0  0  0
  -30.0030  -17.8240   21.1840 C   0  0  0  0  0  2  0  0  0  0  0  0
  -30.5980  -18.0750   18.7610 C   0  0  0  0  0  2  0  0  0  0  0  0
  -31.2190  -16.8450   21.1730 C   0  0  0  0  0  2  0  0  0  0  0  0
  -31.1340  -16.5990   18.7350 C   0  0  0  0  0  2  0  0  0  0  0  0
  -29.4600  -18.2230   19.7790 C   0  0  0  0  0  3  0  0  0  0  0  0
  -31.2000  -15.8900   20.0470 N   0  0  0  0  0  0  0  0  0  0  0  0
  -26.7260  -14.0050   20.8800 C   0  0  0  0  0  0  0  0  0  0  0  0
  -25.5820  -13.3460   21.2400 C   0  0  0  0  0  0  0  0  0  0  0  0
  -25.8310  -11.9640   20.9880 C   0  0  0  0  0  0  0  0  0  0  0  0
  -27.6180  -13.0290   20.4660 N   0  0  0  0  0  0  0  0  0  0  0  0
  -27.0810  -11.7860   20.5780 N   0  0  0  0  0  0  0  0  0  0  0  0
  -24.9320  -10.8050   21.0460 C   0  0  0  0  0  0  0  0  0  0  0  0
  -25.1930   -9.7090   21.8990 C   0  0  0  0  0  3  0  0  0  0  0  0
  -24.2970   -8.6170   21.9470 C   0  0  0  0  0  3  0  0  0  0  0  0
  -23.1320   -8.6130   21.1420 C   0  0  0  0  0  0  0  0  0  0  0  0
  -22.8950   -9.6970   20.2790 C   0  0  0  0  0  3  0  0  0  0  0  0
  -23.7850  -10.7820   20.2270 C   0  0  0  0  0  3  0  0  0  0  0  0
  -22.2230   -7.5840   21.1060 O   0  0  0  0  0  0  0  0  0  0  0  0
  -21.8550   -6.9060   22.2410 C   0  0  0  0  0  0  0  0  0  0  0  0
  -21.3420   -7.5750   23.3740 C   0  0  0  0  0  3  0  0  0  0  0  0
  -20.9150   -6.8360   24.4950 C   0  0  0  0  0  3  0  0  0  0  0  0
  -20.9920   -5.4300   24.4820 C   0  0  0  0  0  0  0  0  0  0  0  0
  -21.4940   -4.7620   23.3520 C   0  0  0  0  0  3  0  0  0  0  0  0
  -21.9200   -5.4990   22.2320 C   0  0  0  0  0  0  0  0  0  0  0  0
  -22.3870   -4.8510   21.1360 F   0  0  0  0  0  0  0  0  0  0  0  0
  -20.5810   -4.7150   25.5570 F   0  0  0  0  0  0  0  0  0  0  0  0
  -24.2910  -13.9740   21.6880 C   0  0  0  0  0  0  0  0  0  0  0  0
  -23.5220  -13.2750   22.5180 N   0  0  0  0  0  0  0  0  0  0  0  0
  -23.9750  -15.1080   21.3350 O   0  0  0  0  0  0  0  0  0  0  0  0
  -23.7890  -12.3530   22.8260 H   0  0  0  0  0  0  0  0  0  0  0  0
  -22.6560  -13.6730   22.8570 H   0  0  0  0  0  0  0  0  0  0  0  0
  -27.0830  -15.3470   20.8420 N   0  0  0  0  0  0  0  0  0  0  0  0
  -26.4360  -16.0930   21.0700 H   0  0  0  0  0  0  0  0  0  0  0  0
  -27.9470  -15.6840   20.4370 H   0  0  0  0  0  0  0  0  0  0  0  0
  -25.0210  -17.9290   19.3520 C   0  0  0  0  0  1  0  0  0  0  0  0
  -26.4530  -17.9720   19.9060 C   0  0  0  0  0  2  0  0  0  0  0  0
  -29.9390  -22.9730   19.1080 N   0  0  0  0  0  4  0  0  0  0  0  0
  -30.3290  -22.8310   18.1890 H   0  0  0  0  0  0  0  0  0  0  0  0
  -28.9460  -23.0560   18.9660 H   0  0  0  0  0  0  0  0  0  0  0  0
  -30.4500  -24.3000   19.6310 C   0  0  0  0  0  2  0  0  0  0  0  0
  -29.3200  -25.2540   20.1640 C   0  0  0  0  0  2  0  0  0  0  0  0
  -29.4500  -26.7090   19.9700 O   0  0  0  0  0  0  0  0  0  0  0  0
  -24.9080  -31.1930   23.2810 C   0  0  0  0  0  0  0  0  0  0  0  0
  -28.2460  -27.4070   19.9360 C   0  0  0  0  0  0  0  0  0  0  0  0
  -23.9850  -29.8340   21.4400 C   0  0  0  0  0  3  0  0  0  0  0  0
  -25.6930  -28.6630   19.9500 C   0  0  0  0  0  0  0  0  0  0  0  0
  -26.4590  -30.5060   21.4420 C   0  0  0  0  0  2  0  0  0  0  0  0
  -26.7520  -29.2330   20.6680 C   0  0  0  0  0  0  0  0  0  0  0  0
  -28.0320  -28.6140   20.6630 C   0  0  0  0  0  3  0  0  0  0  0  0
  -27.1720  -26.9040   19.1680 C   0  0  0  0  0  3  0  0  0  0  0  0
  -25.9020  -27.5000   19.1940 C   0  0  0  0  0  3  0  0  0  0  0  0
  -24.3490  -29.3510   20.0130 C   0  0  0  0  0  2  0  0  0  0  0  0
  -25.1310  -30.5250   22.1120 N   0  0  0  0  0  0  0  0  0  0  0  0
  -23.7760  -31.2640   23.7750 O   0  0  0  0  0  0  0  0  0  0  0  0
  -23.4240  -28.6380   22.2510 C   0  0  0  0  0  0  0  0  0  0  0  0
  -22.1910  -28.2130   21.9230 N   0  0  0  0  0  0  0  0  0  0  0  0
  -24.1050  -28.0960   23.1260 O   0  0  0  0  0  0  0  0  0  0  0  0
  -21.6910  -28.7200   21.2070 H   0  0  0  0  0  0  0  0  0  0  0  0
  -19.1250  -26.2970   21.8190 C   0  0  0  0  0  0  0  0  0  0  0  0
  -21.4850  -27.0810   22.5260 C   0  0  0  0  0  3  0  0  0  0  0  0
  -21.9900  -25.7360   21.9540 C   0  0  0  0  0  2  0  0  0  0  0  0
  -21.1670  -25.2410   20.7590 C   0  0  0  0  0  2  0  0  0  0  0  0
  -19.7030  -25.0530   21.1630 C   0  0  0  0  0  2  0  0  0  0  0  0
  -19.9650  -27.2560   22.4460 C   0  0  0  0  0  0  0  0  0  0  0  0
  -19.3800  -28.4100   23.0110 C   0  0  0  0  0  3  0  0  0  0  0  0
  -17.9900  -28.6120   22.9590 C   0  0  0  0  0  3  0  0  0  0  0  0
  -17.1630  -27.6530   22.3510 C   0  0  0  0  0  3  0  0  0  0  0  0
  -17.7300  -26.4960   21.7860 C   0  0  0  0  0  3  0  0  0  0  0  0
  -26.0650  -31.9150   24.0420 C   0  0  0  0  0  3  0  0  0  0  0  0
  -25.6310  -33.2980   24.2900 N   0  0  0  0  0  0  0  0  0  0  0  0
  -26.0200  -34.3590   23.5660 C   0  0  0  0  0  0  0  0  0  0  0  0
  -26.8420  -34.2770   22.6520 O   0  0  0  0  0  0  0  0  0  0  0  0
  -24.9150  -33.4300   24.9880 H   0  0  0  0  0  0  0  0  0  0  0  0
  -24.2780  -36.0490   22.9100 C   0  0  0  0  0  1  0  0  0  0  0  0
  -25.3920  -35.7220   23.9160 C   0  0  0  0  0  3  0  0  0  0  0  0
  -27.3160  -36.7330   25.0600 C   0  0  0  0  0  1  0  0  0  0  0  0
  -26.3730  -36.8280   23.9490 N   0  0  0  0  0  0  0  0  0  0  0  0
  -25.9030  -37.7270   24.0040 H   0  0  0  0  0  0  0  0  0  0  0  0
  -26.4580  -31.2030   25.3950 C   0  0  1  0  0  0  0  0  0  0  0  0
  -25.2560  -30.9200   26.3240 C   0  0  0  0  0  1  0  0  0  0  0  0
  -27.1650  -29.8570   25.1150 C   0  0  0  0  0  1  0  0  0  0  0  0
  -27.4720  -32.0760   26.1690 C   0  0  0  0  0  1  0  0  0  0  0  0
  -30.4560  -21.8670   21.3450 C   0  0  0  0  0  2  0  0  0  0  0  0
  -31.8280  -20.7420   23.3510 C   0  0  0  0  0  2  0  0  0  0  0  0
  -30.5350  -19.9800   23.1720 C   0  0  0  0  0  2  0  0  0  0  0  0
  -31.1710  -20.6810   21.9890 C   0  0  0  0  0  3  0  0  0  0  0  0
  1 97  1  0
  2  4  2  0
  3  2  1  0
  3  5  2  0
  4  6  1  0
  4 50  1  0
  5  6  1  0
  5  1  1  0
  6 19  1  0
  7 13  1  0
  8 13  1  0
  9 10  1  0
  9  8  1  0
 11 10  1  0
 11 24  1  0
 11 12  1  0
 13 12  1  0
 14  7  2  0
 17 15  1  0
 18 16  1  0
 18 20  1  0
 19 16  1  0
 19 15  1  0
 20  7  1  0
 20 17  1  0
 21 22  2  0
 22 41  1  0
 23 26  1  0
 23 22  1  0
 24 25  1  0
 24 21  1  0
 25 23  2  0
 26 27  1  0
 27 28  2  0
 29 28  1  0
 30 29  2  0
 31 30  1  0
 31 26  2  0
 32 29  1  0
 32 33  1  0
 33 34  1  0
 34 35  2  0
 36 35  1  0
 36 40  1  0
 37 36  2  0
 38 33  2  0
 38 37  1  0
 39 38  1  0
 41 42  1  0
 42 44  1  0
 42 45  1  0
 43 41  2  0
 46 21  1  0
 46 47  1  0
 48 46  1  0
 49 50  1  0
 51 54  1  0
 51  1  1  0
 52 51  1  0
 53 51  1  0
 54 55  1  0
 56 55  1  0
 57 68  2  0
 58 56  1  0
 58 63  1  0
 59 67  1  0
 59 69  1  0
 60 66  1  0
 60 62  1  0
 61 67  1  0
 62 61  1  0
 63 62  2  0
 64 65  1  0
 64 58  2  0
 65 60  2  0
 66 59  1  0
 67 57  1  0
 69 71  2  0
 70 69  1  0
 72 70  1  0
 73 78  1  0
 74 70  1  0
 75 74  1  0
 76 77  1  0
 76 75  1  0
 77 73  1  0
 78 74  1  0
 78 79  2  0
 80 79  1  0
 81 80  2  0
 82 73  2  0
 82 81  1  0
 83 57  1  0
 83 84  1  0
 83 93  1  0
 84 87  1  0
 85 89  1  0
 85 84  1  0
 86 85  2  0
 89 88  1  0
 89 91  1  0
 91 92  1  0
 91 90  1  0
 93 96  1  1
 93 94  1  0
 95 93  1  0
 97100  1  0
 99 98  1  0
100 99  1  0
100 98  1  0
M  ISO  4   7 100  20 100  55 101  56 101
M  END
>  <TORSDO>  (36) 
F 23

>  <SCORE>  (36) 
-8.465

>  <name>  (36) 
35

>  <ligand_id>  (36) 
35

>  <original_smiles>  (36) 
[H]c1c([H])c([H])c2c(c1[H])C([H])([H])C([H])([H])C([H])([H])C2([H])N([H])C(=O)C1([H])N(C(=O)C([H])(N([H])C(=O)C([H])(N([H])C([H])([H])[H])C([H])([H])[H])C(C([H])([H])[H])(C([H])([H])[H])C([H])([H])[H])C([H])([H])c2c([H])c(OC([H])([H])C([H])([H])[N+]([H])([H])C([H])(c3c([H])c([H])c(C([H])([H])C([H])([H])[H])n3C3([H])C([H])([H])C([H])([H])N(C(=O)N4C([H])([H])C([H])([H])C([H])([H])C([H])(n5nc(-c6c([H])c([H])c(Oc7c([H])c([H])c(F)c([H])c7F)c([H])c6[H])c(C(=O)N([H])[H])c5N([H])[H])C4([H])[H])C([H])([H])C3([H])[H])C([H])([H])C3([H])C([H])([H])C3([H])[H])c([H])c([H])c2C1([H])[H]

>  <smiles>  (36) 
[H]c1c([H])c([H])c2c(c1[H])C([H])([H])C([H])([H])C([H])([H])C2([H])N([H])C(=O)C1([H])N(C(=O)C([H])(N([H])C(=O)C([H])(N([H])C([H])([H])[H])C([H])([H])[H])C(C([H])([H])[H])(C([H])([H])[H])C([H])([H])[H])C([H])([H])c2c([H])c(OC([H])([H])C([H])([H])[N+]([H])([H])C([H])(c3c([H])c([H])c(C([H])([H])C([H])([H])[H])n3C3([H])C([H])([H])C([H])([H])N(C(=O)N4C([H])([H])C([H])([H])C([H])([H])C([H])(n5nc(-c6c([H])c([H])c(Oc7c([H])c([H])c(F)c([H])c7F)c([H])c6[H])c(C(=O)N([H])[H])c5N([H])[H])C4([H])[H])C([H])([H])C3([H])[H])C([H])([H])C3([H])C([H])([H])C3([H])[H])c([H])c([H])c2C1([H])[H]

$$$$
36:0:0
     RDKit          3D

101111  0  0  1  0  0  0  0  0999 V2000
  -28.3110  -24.1770   20.6650 C   0  0  0  0  0  2  0  0  0  0  0  0
  -28.7270  -25.4050   20.0410 C   0  0  0  0  0  0  0  0  0  0  0  0
  -29.4610  -25.0400   18.9360 C   0  0  0  0  0  0  0  0  0  0  0  0
  -28.7720  -23.1300   19.9030 C   0  0  0  0  0  3  0  0  0  0  0  0
  -29.3210  -23.6560   18.7330 N   0  0  0  0  0  0  0  0  0  0  0  0
  -31.8010  -25.9790   18.3300 C   0  0  0  0  0  2  0  0  0  0  0  0
  -30.9470  -27.2010   18.5330 C   0  0  0  0  0  2  0  0  0  0  0  0
  -30.3150  -25.9060   18.0560 C   0  0  0  0  0  3  0  0  0  0  0  0
  -31.1590  -22.7150   17.2720 C   0  0  0  0  0  1  0  0  0  0  0  0
  -28.9390  -23.4460   16.2670 C   0  0  0  0  0  1  0  0  0  0  0  0
  -29.6540  -22.8980   17.5140 C   0  0  0  0  0  3  0  0  0  0  0  0
  -28.6500  -21.7510   20.2350 N   0  0  0  0  0  0  0  0  0  0  0  0
  -27.7520  -21.3660   19.9360 H   0  0  0  0  0  0  0  0  0  0  0  0
  -29.7820  -20.8130   20.0120 C   0  0  0  0  0  2  0  0  0  0  0  0
  -30.1470  -18.1880   20.1750 C   0  0  0  0  0  2  0  0  0  0  0  0
  -30.9040  -19.7060   22.0520 C   0  0  0  0  0  2  0  0  0  0  0  0
  -31.2650  -17.2230   22.2370 C   0  0  0  0  0  2  0  0  0  0  0  0
  -29.8390  -19.5330   20.9310 C   0  0  0  0  0  3  0  0  0  0  0  0
  -30.1700  -17.0000   21.1850 C   0  0  0  0  0  3  0  0  0  0  0  0
  -31.0270  -18.5140   22.9350 N   0  0  0  0  0  4  0  0  0  0  0  0
  -30.1880  -18.4340   23.4850 H   0  0  0  0  0  0  0  0  0  0  0  0
  -31.7830  -18.6620   23.5840 H   0  0  0  0  0  0  0  0  0  0  0  0
  -30.9060  -14.6450   20.2050 C   0  0  0  0  0  0  0  0  0  0  0  0
  -30.6740  -12.4530   19.0530 C   0  0  0  0  0  2  0  0  0  0  0  0
  -29.6790  -12.5960   17.8800 C   0  0  0  0  0  2  0  0  0  0  0  0
  -28.2110  -12.4630   18.3470 C   0  0  0  0  0  2  0  0  0  0  0  0
  -27.9030  -13.3230   19.6030 C   0  0  0  0  0  3  0  0  0  0  0  0
  -28.9870  -13.0900   20.6810 C   0  0  0  0  0  2  0  0  0  0  0  0
  -30.2890  -13.4330   20.0810 N   0  0  0  0  0  0  0  0  0  0  0  0
  -32.0460  -14.8690   19.7980 O   0  0  0  0  0  0  0  0  0  0  0  0
  -30.0690  -15.6070   20.6780 N   0  0  0  0  0  0  0  0  0  0  0  0
  -29.1520  -15.2200   20.8420 H   0  0  0  0  0  0  0  0  0  0  0  0
  -25.5470  -13.9790   20.4060 C   0  0  0  0  0  0  0  0  0  0  0  0
  -24.4710  -13.2290   20.7970 C   0  0  0  0  0  0  0  0  0  0  0  0
  -24.8950  -11.8670   20.7270 C   0  0  0  0  0  0  0  0  0  0  0  0
  -26.5600  -13.0760   20.1230 N   0  0  0  0  0  0  0  0  0  0  0  0
  -26.1720  -11.8040   20.3760 N   0  0  0  0  0  0  0  0  0  0  0  0
  -24.1470  -10.6190   20.9230 C   0  0  0  0  0  0  0  0  0  0  0  0
  -24.5380   -9.6690   21.8910 C   0  0  0  0  0  3  0  0  0  0  0  0
  -23.7940   -8.4820   22.0720 C   0  0  0  0  0  3  0  0  0  0  0  0
  -22.6460   -8.2350   21.2820 C   0  0  0  0  0  0  0  0  0  0  0  0
  -22.2680   -9.1800   20.3120 C   0  0  0  0  0  3  0  0  0  0  0  0
  -23.0110  -10.3590   20.1310 C   0  0  0  0  0  3  0  0  0  0  0  0
  -21.8790   -7.1000   21.3690 O   0  0  0  0  0  0  0  0  0  0  0  0
  -21.7230   -6.4270   22.5540 C   0  0  0  0  0  0  0  0  0  0  0  0
  -21.1680   -7.0440   23.6960 C   0  0  0  0  0  3  0  0  0  0  0  0
  -20.9660   -6.2940   24.8710 C   0  0  0  0  0  3  0  0  0  0  0  0
  -21.3060   -4.9280   24.9030 C   0  0  0  0  0  0  0  0  0  0  0  0
  -21.8560   -4.3130   23.7660 C   0  0  0  0  0  3  0  0  0  0  0  0
  -22.0630   -5.0600   22.5940 C   0  0  0  0  0  0  0  0  0  0  0  0
  -22.5740   -4.4580   21.4910 F   0  0  0  0  0  0  0  0  0  0  0  0
  -21.1080   -4.2030   26.0300 F   0  0  0  0  0  0  0  0  0  0  0  0
  -23.0950  -13.7360   21.1200 C   0  0  0  0  0  0  0  0  0  0  0  0
  -22.3720  -13.0560   22.0030 N   0  0  0  0  0  0  0  0  0  0  0  0
  -22.6690  -14.7780   20.6220 O   0  0  0  0  0  0  0  0  0  0  0  0
  -22.7120  -12.2090   22.4350 H   0  0  0  0  0  0  0  0  0  0  0  0
  -21.4550  -13.4010   22.2520 H   0  0  0  0  0  0  0  0  0  0  0  0
  -25.7360  -15.3480   20.2470 N   0  0  0  0  0  0  0  0  0  0  0  0
  -24.9800  -16.0000   20.4130 H   0  0  0  0  0  0  0  0  0  0  0  0
  -26.5640  -15.7950   19.8750 H   0  0  0  0  0  0  0  0  0  0  0  0
  -28.5840  -26.7140   20.5010 O   0  0  0  0  0  0  0  0  0  0  0  0
  -24.6000  -31.9210   23.3230 C   0  0  0  0  0  0  0  0  0  0  0  0
  -27.4050  -27.4430   20.4000 C   0  0  0  0  0  0  0  0  0  0  0  0
  -23.4710  -30.4940   21.6480 C   0  0  0  0  0  3  0  0  0  0  0  0
  -24.9980  -28.9580   20.2860 C   0  0  0  0  0  0  0  0  0  0  0  0
  -26.0010  -30.8710   21.5480 C   0  0  0  0  0  2  0  0  0  0  0  0
  -26.1270  -29.4900   20.9220 C   0  0  0  0  0  0  0  0  0  0  0  0
  -27.3260  -28.7400   20.9750 C   0  0  0  0  0  3  0  0  0  0  0  0
  -26.2630  -26.9420   19.7360 C   0  0  0  0  0  3  0  0  0  0  0  0
  -25.0690  -27.6920   19.6810 C   0  0  0  0  0  3  0  0  0  0  0  0
  -23.7440  -29.8080   20.2820 C   0  0  0  0  0  2  0  0  0  0  0  0
  -24.7060  -31.1110   22.2320 N   0  0  0  0  0  0  0  0  0  0  0  0
  -23.4970  -32.1880   23.8210 O   0  0  0  0  0  0  0  0  0  0  0  0
  -22.7940  -29.4720   22.5910 C   0  0  0  0  0  0  0  0  0  0  0  0
  -21.4740  -29.2890   22.4270 N   0  0  0  0  0  0  0  0  0  0  0  0
  -23.4520  -28.8530   23.4310 O   0  0  0  0  0  0  0  0  0  0  0  0
  -21.0030  -29.8410   21.7240 H   0  0  0  0  0  0  0  0  0  0  0  0
  -18.0860  -28.0960   22.8370 C   0  0  0  0  0  0  0  0  0  0  0  0
  -20.6370  -28.3510   23.1760 C   0  0  0  0  0  3  0  0  0  0  0  0
  -20.7520  -26.9200   22.6030 C   0  0  0  0  0  2  0  0  0  0  0  0
  -19.6780  -26.6010   21.5590 C   0  0  0  0  0  2  0  0  0  0  0  0
  -18.2790  -26.7450   22.1670 C   0  0  0  0  0  2  0  0  0  0  0  0
  -19.1950  -28.8550   23.2980 C   0  0  0  0  0  0  0  0  0  0  0  0
  -18.9600  -30.1200   23.8830 C   0  0  0  0  0  3  0  0  0  0  0  0
  -17.6530  -30.6250   24.0110 C   0  0  0  0  0  3  0  0  0  0  0  0
  -16.5580  -29.8620   23.5710 C   0  0  0  0  0  3  0  0  0  0  0  0
  -16.7760  -28.5990   22.9890 C   0  0  0  0  0  3  0  0  0  0  0  0
  -25.8560  -32.5700   23.9860 C   0  0  0  0  0  3  0  0  0  0  0  0
  -25.5260  -33.9710   24.2870 N   0  0  0  0  0  0  0  0  0  0  0  0
  -25.8930  -35.0150   23.5330 C   0  0  0  0  0  0  0  0  0  0  0  0
  -26.6140  -34.9030   22.5380 O   0  0  0  0  0  0  0  0  0  0  0  0
  -24.8880  -34.1300   25.0540 H   0  0  0  0  0  0  0  0  0  0  0  0
  -24.1870  -36.8010   23.0610 C   0  0  0  0  0  1  0  0  0  0  0  0
  -25.3770  -36.4080   23.9490 C   0  0  0  0  0  3  0  0  0  0  0  0
  -27.4550  -37.3010   24.9040 C   0  0  0  0  0  1  0  0  0  0  0  0
  -26.4150  -37.4600   23.8920 N   0  0  0  0  0  0  0  0  0  0  0  0
  -25.9980  -38.3810   24.0080 H   0  0  0  0  0  0  0  0  0  0  0  0
  -26.3360  -31.8160   25.2860 C   0  0  1  0  0  0  0  0  0  0  0  0
  -25.2080  -31.5640   26.3140 C   0  0  0  0  0  1  0  0  0  0  0  0
  -26.9550  -30.4430   24.9250 C   0  0  0  0  0  1  0  0  0  0  0  0
  -27.4520  -32.6300   25.9860 C   0  0  0  0  0  1  0  0  0  0  0  0
  2 61  1  0
  2  1  1  0
  3  2  2  0
  4 12  1  0
  4  1  1  0
  5  3  1  0
  5  4  1  0
  6  7  1  0
  8  6  1  0
  8  7  1  0
  8  3  1  0
  9 11  1  0
 10 11  1  0
 11  5  1  0
 13 12  1  0
 14 12  1  0
 15 18  1  0
 15 19  1  0
 16 20  1  0
 17 20  1  0
 18 14  1  0
 18 16  1  0
 19 31  1  0
 19 17  1  0
 20 21  1  0
 20 22  1  0
 23 31  1  0
 24 29  1  0
 25 26  1  0
 25 24  1  0
 27 26  1  0
 27 36  1  0
 27 28  1  0
 29 23  1  0
 29 28  1  0
 30 23  2  0
 31 32  1  0
 33 34  2  0
 34 53  1  0
 35 34  1  0
 35 38  1  0
 36 37  1  0
 36 33  1  0
 37 35  2  0
 38 39  1  0
 39 40  2  0
 41 44  1  0
 41 40  1  0
 42 41  2  0
 43 42  1  0
 43 38  2  0
 44 45  1  0
 45 50  2  0
 45 46  1  0
 46 47  2  0
 47 48  1  0
 48 52  1  0
 49 48  2  0
 50 49  1  0
 51 50  1  0
 53 54  1  0
 54 57  1  0
 54 56  1  0
 55 53  2  0
 58 33  1  0
 58 59  1  0
 60 58  1  0
 62 73  2  0
 63 61  1  0
 63 68  1  0
 64 72  1  0
 64 74  1  0
 65 67  1  0
 66 72  1  0
 67 68  2  0
 67 66  1  0
 69 63  2  0
 70 69  1  0
 70 65  2  0
 71 65  1  0
 71 64  1  0
 72 62  1  0
 74 76  2  0
 75 74  1  0
 77 75  1  0
 78 87  2  0
 78 83  1  0
 79 75  1  0
 79 83  1  0
 80 79  1  0
 81 82  1  0
 81 80  1  0
 82 78  1  0
 83 84  2  0
 84 85  1  0
 86 85  2  0
 87 86  1  0
 88 62  1  0
 88 89  1  0
 88 98  1  0
 89 92  1  0
 90 94  1  0
 90 89  1  0
 91 90  2  0
 94 93  1  0
 96 94  1  0
 96 97  1  0
 96 95  1  0
 98101  1  1
 98 99  1  0
100 98  1  0
M  ISO  4   2 101  23 100  31 100  61 101
M  END
>  <TORSDO>  (37) 
F 21

>  <SCORE>  (37) 
-13.151

>  <name>  (37) 
36

>  <ligand_id>  (37) 
36

>  <original_smiles>  (37) 
[H]c1c([H])c([H])c2c(c1[H])C([H])([H])C([H])([H])C([H])([H])C2([H])N([H])C(=O)C1([H])N(C(=O)C([H])(N([H])C(=O)C([H])(N([H])C([H])([H])[H])C([H])([H])[H])C(C([H])([H])[H])(C([H])([H])[H])C([H])([H])[H])C([H])([H])c2c([H])c(Oc3c([H])c(N([H])C([H])([H])C4([H])C([H])([H])C([H])(N([H])C(=O)N5C([H])([H])C([H])([H])C([H])([H])C([H])(n6nc(-c7c([H])c([H])c(Oc8c([H])c([H])c(F)c([H])c8F)c([H])c7[H])c(C(=O)N([H])[H])c6N([H])[H])C5([H])[H])C([H])([H])[N+]([H])([H])C4([H])[H])n(C([H])(C([H])([H])[H])C([H])([H])[H])c3C3([H])C([H])([H])C3([H])[H])c([H])c([H])c2C1([H])[H]

>  <smiles>  (37) 
[H]c1c([H])c([H])c2c(c1[H])C([H])([H])C([H])([H])C([H])([H])C2([H])N([H])C(=O)C1([H])N(C(=O)C([H])(N([H])C(=O)C([H])(N([H])C([H])([H])[H])C([H])([H])[H])C(C([H])([H])[H])(C([H])([H])[H])C([H])([H])[H])C([H])([H])c2c([H])c(Oc3c([H])c(N([H])C([H])([H])C4([H])C([H])([H])C([H])(N([H])C(=O)N5C([H])([H])C([H])([H])C([H])([H])C([H])(n6nc(-c7c([H])c([H])c(Oc8c([H])c([H])c(F)c([H])c8F)c([H])c7[H])c(C(=O)N([H])[H])c6N([H])[H])C5([H])[H])C([H])([H])[N+]([H])([H])C4([H])[H])n(C([H])(C([H])([H])[H])C([H])([H])[H])c3C3([H])C([H])([H])C3([H])[H])c([H])c([H])c2C1([H])[H]

$$$$
37:0:0
     RDKit          3D

 95103  0  0  1  0  0  0  0  0999 V2000
  -29.5430  -20.5290   20.7580 C   0  0  0  0  0  3  0  0  0  0  0  0
  -27.9770  -21.7830   19.3950 C   0  0  0  0  0  3  0  0  0  0  0  0
  -28.9460  -19.2910   20.3620 C   0  0  0  0  0  0  0  0  0  0  0  0
  -27.7800  -19.3530   19.5400 C   0  0  0  0  0  0  0  0  0  0  0  0
  -29.0290  -21.7880   20.3250 C   0  0  0  0  0  0  0  0  0  0  0  0
  -27.3360  -20.5880   19.0070 C   0  0  0  0  0  0  0  0  0  0  0  0
  -25.8160  -17.8770   20.2130 C   0  0  0  0  0  1  0  0  0  0  0  0
  -26.9690  -18.1030   19.2200 C   0  0  0  0  0  2  0  0  0  0  0  0
  -29.4580  -17.9260   20.9250 C   0  0  0  0  0  3  0  0  0  0  0  0
  -30.0050  -16.8480   19.9220 C   0  0  0  0  0  3  0  0  0  0  0  0
  -30.8410  -14.4320   19.9950 C   0  0  0  0  0  0  0  0  0  0  0  0
  -30.5310  -12.2010   18.9600 C   0  0  0  0  0  2  0  0  0  0  0  0
  -29.5170  -12.3650   17.8060 C   0  0  0  0  0  2  0  0  0  0  0  0
  -28.0730  -12.2330   18.3240 C   0  0  0  0  0  2  0  0  0  0  0  0
  -27.8160  -13.1190   19.5700 C   0  0  0  0  0  3  0  0  0  0  0  0
  -28.9270  -12.9300   20.6300 C   0  0  0  0  0  2  0  0  0  0  0  0
  -30.2160  -13.2190   19.9810 N   0  0  0  0  0  0  0  0  0  0  0  0
  -31.9280  -14.6210   19.4390 O   0  0  0  0  0  0  0  0  0  0  0  0
  -30.0800  -15.4580   20.4540 N   0  0  0  0  0  0  0  0  0  0  0  0
  -29.2600  -15.1560   20.9600 H   0  0  0  0  0  0  0  0  0  0  0  0
  -25.5000  -13.8010   20.4470 C   0  0  0  0  0  0  0  0  0  0  0  0
  -24.4310  -13.0690   20.8700 C   0  0  0  0  0  0  0  0  0  0  0  0
  -24.8330  -11.7000   20.7760 C   0  0  0  0  0  0  0  0  0  0  0  0
  -26.4910  -12.8870   20.1280 N   0  0  0  0  0  0  0  0  0  0  0  0
  -26.0950  -11.6140   20.3800 N   0  0  0  0  0  0  0  0  0  0  0  0
  -24.0690  -10.4650   20.9780 C   0  0  0  0  0  0  0  0  0  0  0  0
  -24.5170   -9.4570   21.8600 C   0  0  0  0  0  3  0  0  0  0  0  0
  -23.7570   -8.2850   22.0530 C   0  0  0  0  0  3  0  0  0  0  0  0
  -22.5330   -8.1130   21.3580 C   0  0  0  0  0  0  0  0  0  0  0  0
  -22.1030   -9.1090   20.4640 C   0  0  0  0  0  3  0  0  0  0  0  0
  -22.8670  -10.2730   20.2720 C   0  0  0  0  0  3  0  0  0  0  0  0
  -21.7400   -6.9960   21.4620 O   0  0  0  0  0  0  0  0  0  0  0  0
  -21.7160   -6.2350   22.6040 C   0  0  0  0  0  0  0  0  0  0  0  0
  -21.3750   -6.7850   23.8590 C   0  0  0  0  0  3  0  0  0  0  0  0
  -21.2920   -5.9500   24.9910 C   0  0  0  0  0  3  0  0  0  0  0  0
  -21.5450   -4.5710   24.8710 C   0  0  0  0  0  0  0  0  0  0  0  0
  -21.8800   -4.0230   23.6210 C   0  0  0  0  0  3  0  0  0  0  0  0
  -21.9640   -4.8530   22.4900 C   0  0  0  0  0  0  0  0  0  0  0  0
  -22.2670   -4.3160   21.2830 F   0  0  0  0  0  0  0  0  0  0  0  0
  -21.4580   -3.7680   25.9570 F   0  0  0  0  0  0  0  0  0  0  0  0
  -23.0770  -13.5970   21.2500 C   0  0  0  0  0  0  0  0  0  0  0  0
  -22.3860  -12.9110   22.1490 N   0  0  0  0  0  0  0  0  0  0  0  0
  -22.6420  -14.6480   20.7790 O   0  0  0  0  0  0  0  0  0  0  0  0
  -22.7570  -12.0590   22.5440 H   0  0  0  0  0  0  0  0  0  0  0  0
  -21.4820  -13.2430   22.4530 H   0  0  0  0  0  0  0  0  0  0  0  0
  -25.6990  -15.1660   20.2830 N   0  0  0  0  0  0  0  0  0  0  0  0
  -24.9460  -15.8260   20.4420 H   0  0  0  0  0  0  0  0  0  0  0  0
  -26.5110  -15.5750   19.8420 H   0  0  0  0  0  0  0  0  0  0  0  0
  -29.5620  -22.9910   20.7880 O   0  0  0  0  0  0  0  0  0  0  0  0
  -28.6880  -24.1470   20.9800 C   0  0  0  0  0  2  0  0  0  0  0  0
  -28.7270  -25.2310   19.8520 C   0  0  0  0  0  2  0  0  0  0  0  0
  -28.5880  -26.6040   20.3340 O   0  0  0  0  0  0  0  0  0  0  0  0
  -24.6520  -31.8450   23.2190 C   0  0  0  0  0  0  0  0  0  0  0  0
  -27.3910  -27.3190   20.2740 C   0  0  0  0  0  0  0  0  0  0  0  0
  -23.5030  -30.4190   21.5610 C   0  0  0  0  0  3  0  0  0  0  0  0
  -25.0010  -28.8700   20.1970 C   0  0  0  0  0  0  0  0  0  0  0  0
  -26.0370  -30.7720   21.4370 C   0  0  0  0  0  2  0  0  0  0  0  0
  -26.1450  -29.3910   20.8100 C   0  0  0  0  0  0  0  0  0  0  0  0
  -27.3400  -28.6240   20.8380 C   0  0  0  0  0  3  0  0  0  0  0  0
  -26.2130  -26.8240   19.6630 C   0  0  0  0  0  3  0  0  0  0  0  0
  -25.0340  -27.5930   19.6180 C   0  0  0  0  0  3  0  0  0  0  0  0
  -23.7590  -29.7340   20.1950 C   0  0  0  0  0  2  0  0  0  0  0  0
  -24.7470  -31.0280   22.1300 N   0  0  0  0  0  0  0  0  0  0  0  0
  -23.5500  -32.1200   23.7170 O   0  0  0  0  0  0  0  0  0  0  0  0
  -22.8220  -29.4050   22.5140 C   0  0  0  0  0  0  0  0  0  0  0  0
  -21.4930  -29.2580   22.3820 N   0  0  0  0  0  0  0  0  0  0  0  0
  -23.4860  -28.7620   23.3300 O   0  0  0  0  0  0  0  0  0  0  0  0
  -21.0140  -29.8350   21.7060 H   0  0  0  0  0  0  0  0  0  0  0  0
  -18.0830  -28.1740   22.8960 C   0  0  0  0  0  0  0  0  0  0  0  0
  -20.6510  -28.3320   23.1420 C   0  0  0  0  0  3  0  0  0  0  0  0
  -20.6920  -26.9110   22.5300 C   0  0  0  0  0  2  0  0  0  0  0  0
  -19.5690  -26.6550   21.5210 C   0  0  0  0  0  2  0  0  0  0  0  0
  -18.2030  -26.8350   22.1880 C   0  0  0  0  0  2  0  0  0  0  0  0
  -19.2340  -28.8840   23.3300 C   0  0  0  0  0  0  0  0  0  0  0  0
  -19.0680  -30.1410   23.9530 C   0  0  0  0  0  3  0  0  0  0  0  0
  -17.7820  -30.6840   24.1460 C   0  0  0  0  0  3  0  0  0  0  0  0
  -16.6470  -29.9670   23.7330 C   0  0  0  0  0  3  0  0  0  0  0  0
  -16.7980  -28.7150   23.1120 C   0  0  0  0  0  3  0  0  0  0  0  0
  -25.9110  -32.4900   23.8730 C   0  0  0  0  0  3  0  0  0  0  0  0
  -25.5810  -33.8870   24.1930 N   0  0  0  0  0  0  0  0  0  0  0  0
  -25.9180  -34.9410   23.4380 C   0  0  0  0  0  0  0  0  0  0  0  0
  -26.6090  -34.8430   22.4210 O   0  0  0  0  0  0  0  0  0  0  0  0
  -24.9700  -34.0380   24.9820 H   0  0  0  0  0  0  0  0  0  0  0  0
  -24.1760  -36.7120   23.0470 C   0  0  0  0  0  1  0  0  0  0  0  0
  -25.4070  -36.3260   23.8820 C   0  0  0  0  0  3  0  0  0  0  0  0
  -27.5180  -37.2350   24.7450 C   0  0  0  0  0  1  0  0  0  0  0  0
  -26.4290  -37.3900   23.7840 N   0  0  0  0  0  0  0  0  0  0  0  0
  -26.0110  -38.3050   23.9220 H   0  0  0  0  0  0  0  0  0  0  0  0
  -26.4050  -31.7250   25.1620 C   0  0  1  0  0  0  0  0  0  0  0  0
  -25.2890  -31.4770   26.2040 C   0  0  0  0  0  1  0  0  0  0  0  0
  -27.0120  -30.3540   24.7840 C   0  0  0  0  0  1  0  0  0  0  0  0
  -27.5280  -32.5340   25.8520 C   0  0  0  0  0  1  0  0  0  0  0  0
  -26.2660  -20.5890   18.1330 O   0  0  0  0  0  0  0  0  0  0  0  0
  -25.3050  -22.7870   17.5820 C   0  0  0  0  0  1  0  0  0  0  0  0
  -26.2190  -21.6260   17.1550 C   0  0  0  0  0  2  0  0  0  0  0  0
  2  5  1  0
  3  1  1  0
  3  9  1  0
  4  3  2  0
  5  1  2  0
  5 49  1  0
  6  2  2  0
  6  4  1  0
  8  4  1  0
  8  7  1  0
 10 19  1  0
 10  9  2  0
 11 19  1  0
 12 17  1  0
 13 14  1  0
 13 12  1  0
 15 14  1  0
 15 24  1  0
 15 16  1  0
 17 11  1  0
 17 16  1  0
 18 11  2  0
 19 20  1  0
 21 22  2  0
 22 41  1  0
 23 22  1  0
 23 26  1  0
 24 25  1  0
 24 21  1  0
 25 23  2  0
 26 27  1  0
 27 28  2  0
 29 32  1  0
 29 28  1  0
 30 29  2  0
 31 30  1  0
 31 26  2  0
 32 33  1  0
 33 34  1  0
 34 35  2  0
 36 35  1  0
 36 40  1  0
 37 36  2  0
 38 33  2  0
 38 37  1  0
 39 38  1  0
 41 42  1  0
 42 45  1  0
 42 44  1  0
 43 41  2  0
 46 47  1  0
 46 21  1  0
 48 46  1  0
 49 50  1  0
 51 52  1  0
 51 50  1  0
 53 64  2  0
 54 52  1  0
 54 59  1  0
 55 63  1  0
 55 65  1  0
 56 58  1  0
 57 63  1  0
 58 59  2  0
 58 57  1  0
 60 54  2  0
 61 60  1  0
 61 56  2  0
 62 56  1  0
 62 55  1  0
 63 53  1  0
 65 67  2  0
 66 65  1  0
 68 66  1  0
 69 78  2  0
 69 74  1  0
 70 66  1  0
 70 74  1  0
 71 70  1  0
 72 73  1  0
 72 71  1  0
 73 69  1  0
 74 75  2  0
 75 76  1  0
 77 76  2  0
 78 77  1  0
 79 53  1  0
 79 80  1  0
 79 89  1  0
 80 83  1  0
 81 85  1  0
 81 80  1  0
 82 81  2  0
 85 84  1  0
 87 85  1  0
 87 88  1  0
 87 86  1  0
 89 92  1  1
 89 90  1  0
 91 89  1  0
 93  6  1  0
 95 94  1  0
 95 93  1  0
M  ISO  4  11 100  19 100  51 101  52 101
M  END
>  <TORSDO>  (38) 
F 24

>  <SCORE>  (38) 
-11.949

>  <name>  (38) 
37

>  <ligand_id>  (38) 
37

>  <original_smiles>  (38) 
[H]c1c([H])c([H])c2c(c1[H])C([H])([H])C([H])([H])C([H])([H])C2([H])N([H])C(=O)C1([H])N(C(=O)C([H])(N([H])C(=O)C([H])(N([H])C([H])([H])[H])C([H])([H])[H])C(C([H])([H])[H])(C([H])([H])[H])C([H])([H])[H])C([H])([H])c2c([H])c(OC([H])([H])C([H])([H])Oc3c([H])c(OC([H])([H])C([H])([H])[H])c(C([H])([H])C([H])([H])[H])c(C([H])([H])C([H])([H])N([H])C(=O)N4C([H])([H])C([H])([H])C([H])([H])C([H])(n5nc(-c6c([H])c([H])c(Oc7c([H])c([H])c(F)c([H])c7F)c([H])c6[H])c(C(=O)N([H])[H])c5N([H])[H])C4([H])[H])c3[H])c([H])c([H])c2C1([H])[H]

>  <smiles>  (38) 
[H]c1c([H])c([H])c2c(c1[H])C([H])([H])C([H])([H])C([H])([H])C2([H])N([H])C(=O)C1([H])N(C(=O)C([H])(N([H])C(=O)C([H])(N([H])C([H])([H])[H])C([H])([H])[H])C(C([H])([H])[H])(C([H])([H])[H])C([H])([H])[H])C([H])([H])c2c([H])c(OC([H])([H])C([H])([H])Oc3c([H])c(OC([H])([H])C([H])([H])[H])c(C([H])([H])C([H])([H])[H])c(C([H])([H])C([H])([H])N([H])C(=O)N4C([H])([H])C([H])([H])C([H])([H])C([H])(n5nc(-c6c([H])c([H])c(Oc7c([H])c([H])c(F)c([H])c7F)c([H])c6[H])c(C(=O)N([H])[H])c5N([H])[H])C4([H])[H])c3[H])c([H])c([H])c2C1([H])[H]

$$$$
38:0:0
     RDKit          3D

 89 98  0  0  1  0  0  0  0  0999 V2000
  -30.4170  -15.2700   20.3510 C   0  0  0  0  0  0  0  0  0  0  0  0
  -30.4110  -12.8260   19.4800 C   0  0  0  0  0  2  0  0  0  0  0  0
  -29.5000  -12.6250   18.2420 C   0  0  0  0  0  2  0  0  0  0  0  0
  -28.0410  -12.3720   18.6630 C   0  0  0  0  0  2  0  0  0  0  0  0
  -27.5790  -13.3450   19.7750 C   0  0  0  0  0  3  0  0  0  0  0  0
  -28.6130  -13.4850   20.9100 C   0  0  0  0  0  2  0  0  0  0  0  0
  -29.8610  -13.9650   20.2930 N   0  0  0  0  0  0  0  0  0  0  0  0
  -31.6500  -15.2830   20.2010 O   0  0  0  0  0  0  0  0  0  0  0  0
  -28.4230  -18.8190   19.7140 C   0  0  0  0  0  3  0  0  0  0  0  0
  -30.2240  -20.4940   20.8070 C   0  0  0  0  0  3  0  0  0  0  0  0
  -28.2450  -20.2860   19.6830 C   0  0  0  0  0  0  0  0  0  0  0  0
  -29.1030  -21.2500   20.2600 C   0  0  0  0  0  0  0  0  0  0  0  0
  -29.5490  -18.0970   20.3010 C   0  0  0  0  0  0  0  0  0  0  0  0
  -27.1770  -21.0500   18.9310 C   0  0  0  0  0  2  0  0  0  0  0  0
  -27.6850  -22.5300   18.7640 C   0  0  0  0  0  2  0  0  0  0  0  0
  -28.7870  -22.8820   19.8150 C   0  0  0  0  0  3  0  0  0  0  0  0
  -30.4150  -19.0690   20.8310 N   0  0  0  0  0  0  0  0  0  0  0  0
  -29.5750  -16.4840   20.3230 N   0  0  0  0  0  0  0  0  0  0  0  0
  -28.6300  -16.1500   20.2300 H   0  0  0  0  0  0  0  0  0  0  0  0
  -25.1960  -13.9210   20.4830 C   0  0  0  0  0  0  0  0  0  0  0  0
  -24.1260  -13.1490   20.8440 C   0  0  0  0  0  0  0  0  0  0  0  0
  -24.5930  -11.7990   20.8370 C   0  0  0  0  0  0  0  0  0  0  0  0
  -26.2420  -13.0410   20.2690 N   0  0  0  0  0  0  0  0  0  0  0  0
  -25.8900  -11.7600   20.5520 N   0  0  0  0  0  0  0  0  0  0  0  0
  -23.8600  -10.5390   21.0270 C   0  0  0  0  0  0  0  0  0  0  0  0
  -24.2770   -9.5750   21.9700 C   0  0  0  0  0  3  0  0  0  0  0  0
  -23.5410   -8.3830   22.1470 C   0  0  0  0  0  3  0  0  0  0  0  0
  -22.3740   -8.1480   21.3820 C   0  0  0  0  0  0  0  0  0  0  0  0
  -21.9770   -9.1010   20.4280 C   0  0  0  0  0  3  0  0  0  0  0  0
  -22.7130  -10.2850   20.2480 C   0  0  0  0  0  3  0  0  0  0  0  0
  -21.6120   -7.0090   21.4690 O   0  0  0  0  0  0  0  0  0  0  0  0
  -21.5540   -6.2680   22.6220 C   0  0  0  0  0  0  0  0  0  0  0  0
  -21.1350   -6.8300   23.8480 C   0  0  0  0  0  3  0  0  0  0  0  0
  -21.0220   -6.0150   24.9930 C   0  0  0  0  0  3  0  0  0  0  0  0
  -21.3180   -4.6410   24.9120 C   0  0  0  0  0  0  0  0  0  0  0  0
  -21.7310   -4.0800   23.6910 C   0  0  0  0  0  3  0  0  0  0  0  0
  -21.8460   -4.8910   22.5490 C   0  0  0  0  0  0  0  0  0  0  0  0
  -22.2230   -4.3410   21.3710 F   0  0  0  0  0  0  0  0  0  0  0  0
  -21.2020   -3.8570   26.0100 F   0  0  0  0  0  0  0  0  0  0  0  0
  -22.7250  -13.6310   21.0750 C   0  0  0  0  0  0  0  0  0  0  0  0
  -21.9780  -12.9530   21.9380 N   0  0  0  0  0  0  0  0  0  0  0  0
  -22.3010  -14.6480   20.5260 O   0  0  0  0  0  0  0  0  0  0  0  0
  -22.3360  -12.1340   22.4050 H   0  0  0  0  0  0  0  0  0  0  0  0
  -21.0360  -13.2590   22.1340 H   0  0  0  0  0  0  0  0  0  0  0  0
  -25.3520  -15.2890   20.2870 N   0  0  0  0  0  0  0  0  0  0  0  0
  -24.5500  -15.9090   20.3220 H   0  0  0  0  0  0  0  0  0  0  0  0
  -26.1760  -15.7320   19.9090 H   0  0  0  0  0  0  0  0  0  0  0  0
  -28.2680  -24.3950   20.6080 C   0  0  0  0  0  2  0  0  0  0  0  0
  -28.3550  -25.9860   20.2290 O   0  0  0  0  0  0  0  0  0  0  0  0
  -24.6770  -31.8770   23.1880 C   0  0  0  0  0  0  0  0  0  0  0  0
  -27.2930  -27.0190   20.2400 C   0  0  0  0  0  0  0  0  0  0  0  0
  -23.4970  -30.4550   21.5550 C   0  0  0  0  0  3  0  0  0  0  0  0
  -24.9670  -28.8460   20.1640 C   0  0  0  0  0  0  0  0  0  0  0  0
  -26.0620  -30.6930   21.4180 C   0  0  0  0  0  2  0  0  0  0  0  0
  -26.1490  -29.2800   20.7780 C   0  0  0  0  0  0  0  0  0  0  0  0
  -27.3100  -28.3920   20.7840 C   0  0  0  0  0  3  0  0  0  0  0  0
  -26.0790  -26.7170   19.5880 C   0  0  0  0  0  3  0  0  0  0  0  0
  -24.9540  -27.5820   19.5490 C   0  0  0  0  0  3  0  0  0  0  0  0
  -23.7400  -29.7600   20.1870 C   0  0  0  0  0  2  0  0  0  0  0  0
  -24.7640  -31.0360   22.1060 N   0  0  0  0  0  0  0  0  0  0  0  0
  -23.5840  -32.1640   23.7000 O   0  0  0  0  0  0  0  0  0  0  0  0
  -22.8100  -29.4600   22.5260 C   0  0  0  0  0  0  0  0  0  0  0  0
  -21.4790  -29.2930   22.4080 N   0  0  0  0  0  0  0  0  0  0  0  0
  -23.4790  -28.8370   23.3540 O   0  0  0  0  0  0  0  0  0  0  0  0
  -20.9900  -29.8530   21.7230 H   0  0  0  0  0  0  0  0  0  0  0  0
  -18.0960  -28.0910   22.9370 C   0  0  0  0  0  0  0  0  0  0  0  0
  -20.6580  -28.3570   23.1840 C   0  0  0  0  0  3  0  0  0  0  0  0
  -20.7530  -26.9210   22.6160 C   0  0  0  0  0  2  0  0  0  0  0  0
  -19.6460  -26.5960   21.6070 C   0  0  0  0  0  2  0  0  0  0  0  0
  -18.2680  -26.7410   22.2580 C   0  0  0  0  0  2  0  0  0  0  0  0
  -19.2190  -28.8550   23.3560 C   0  0  0  0  0  0  0  0  0  0  0  0
  -19.0030  -30.1150   23.9520 C   0  0  0  0  0  3  0  0  0  0  0  0
  -17.7000  -30.6160   24.1280 C   0  0  0  0  0  3  0  0  0  0  0  0
  -16.5930  -29.8490   23.7250 C   0  0  0  0  0  3  0  0  0  0  0  0
  -16.7910  -28.5880   23.1350 C   0  0  0  0  0  3  0  0  0  0  0  0
  -25.9410  -32.5330   23.8210 C   0  0  0  0  0  3  0  0  0  0  0  0
  -25.6050  -33.9260   24.1580 N   0  0  0  0  0  0  0  0  0  0  0  0
  -25.9180  -34.9940   23.4110 C   0  0  0  0  0  0  0  0  0  0  0  0
  -26.5820  -34.9100   22.3750 O   0  0  0  0  0  0  0  0  0  0  0  0
  -25.0160  -34.0630   24.9650 H   0  0  0  0  0  0  0  0  0  0  0  0
  -24.1590  -36.7670   23.0910 C   0  0  0  0  0  1  0  0  0  0  0  0
  -25.4140  -36.3730   23.8860 C   0  0  0  0  0  3  0  0  0  0  0  0
  -27.5480  -37.2820   24.6960 C   0  0  0  0  0  1  0  0  0  0  0  0
  -26.4290  -37.4440   23.7710 N   0  0  0  0  0  0  0  0  0  0  0  0
  -26.0110  -38.3560   23.9360 H   0  0  0  0  0  0  0  0  0  0  0  0
  -26.4580  -31.7730   25.1050 C   0  0  1  0  0  0  0  0  0  0  0  0
  -25.3610  -31.5330   26.1700 C   0  0  0  0  0  1  0  0  0  0  0  0
  -27.0620  -30.3980   24.7360 C   0  0  0  0  0  1  0  0  0  0  0  0
  -27.5960  -32.5840   25.7680 C   0  0  0  0  0  1  0  0  0  0  0  0
  2  7  1  0
  3  4  1  0
  3  2  1  0
  5  4  1  0
  5 23  1  0
  5  6  1  0
  7  1  1  0
  7  6  1  0
  8  1  2  0
  9 13  1  0
 10 17  1  0
 11  9  2  0
 11 12  1  0
 12 10  2  0
 13 18  1  0
 13 17  2  0
 14 11  1  0
 15 14  1  0
 15 16  1  0
 16 12  1  0
 16 48  1  0
 18  1  1  0
 19 18  1  0
 20 21  2  0
 21 40  1  0
 22 21  1  0
 22 25  1  0
 23 20  1  0
 23 24  1  0
 24 22  2  0
 25 26  1  0
 26 27  2  0
 28 31  1  0
 28 27  1  0
 29 28  2  0
 30 29  1  0
 30 25  2  0
 31 32  1  0
 32 33  1  0
 33 34  2  0
 35 34  1  0
 35 39  1  0
 36 35  2  0
 37 32  2  0
 37 36  1  0
 38 37  1  0
 40 41  1  0
 41 44  1  0
 41 43  1  0
 42 40  2  0
 45 46  1  0
 45 20  1  0
 47 45  1  0
 49 51  1  0
 49 48  1  0
 50 61  2  0
 51 56  1  0
 52 60  1  0
 52 62  1  0
 53 59  1  0
 53 55  1  0
 54 60  1  0
 55 56  2  0
 55 54  1  0
 57 51  2  0
 58 57  1  0
 58 53  2  0
 59 52  1  0
 60 50  1  0
 62 64  2  0
 63 62  1  0
 65 63  1  0
 66 75  2  0
 66 71  1  0
 67 63  1  0
 67 71  1  0
 68 67  1  0
 69 70  1  0
 69 68  1  0
 70 66  1  0
 71 72  2  0
 72 73  1  0
 74 73  2  0
 75 74  1  0
 76 50  1  0
 76 77  1  0
 76 86  1  0
 77 80  1  0
 78 82  1  0
 78 77  1  0
 79 78  2  0
 82 81  1  0
 84 82  1  0
 84 85  1  0
 84 83  1  0
 86 89  1  1
 86 87  1  0
 88 86  1  0
M  ISO  4   1 100  18 100  48 101  49 101
M  END
>  <TORSDO>  (39) 
F 16

>  <SCORE>  (39) 
-16.300

>  <name>  (39) 
38

>  <ligand_id>  (39) 
38

>  <original_smiles>  (39) 
[H]c1nc(N([H])C(=O)N2C([H])([H])C([H])([H])C([H])([H])C([H])(n3nc(-c4c([H])c([H])c(Oc5c([H])c([H])c(F)c([H])c5F)c([H])c4[H])c(C(=O)N([H])[H])c3N([H])[H])C2([H])[H])c([H])c2c1C([H])(C([H])([H])Oc1c([H])c([H])c3c(c1[H])C([H])([H])N(C(=O)C([H])(N([H])C(=O)C([H])(N([H])C([H])([H])[H])C([H])([H])[H])C(C([H])([H])[H])(C([H])([H])[H])C([H])([H])[H])C([H])(C(=O)N([H])C1([H])c4c([H])c([H])c([H])c([H])c4C([H])([H])C([H])([H])C1([H])[H])C3([H])[H])C([H])([H])C2([H])[H]

>  <smiles>  (39) 
[H]c1nc(N([H])C(=O)N2C([H])([H])C([H])([H])C([H])([H])C([H])(n3nc(-c4c([H])c([H])c(Oc5c([H])c([H])c(F)c([H])c5F)c([H])c4[H])c(C(=O)N([H])[H])c3N([H])[H])C2([H])[H])c([H])c2c1C([H])(C([H])([H])Oc1c([H])c([H])c3c(c1[H])C([H])([H])N(C(=O)C([H])(N([H])C(=O)C([H])(N([H])C([H])([H])[H])C([H])([H])[H])C(C([H])([H])[H])(C([H])([H])[H])C([H])([H])[H])C([H])(C(=O)N([H])C1([H])c4c([H])c([H])c([H])c([H])c4C([H])([H])C([H])([H])C1([H])[H])C3([H])[H])C([H])([H])C2([H])[H]

$$$$
39:0:0
     RDKit          3D

 94103  0  0  1  0  0  0  0  0999 V2000
  -29.8340  -19.7540   20.2570 C   0  0  0  0  0  3  0  0  0  0  0  0
  -30.7670  -21.1390   21.9850 C   0  0  0  0  0  3  0  0  0  0  0  0
  -29.5350  -20.9300   19.5370 C   0  0  0  0  0  0  0  0  0  0  0  0
  -30.4580  -19.8440   21.5200 C   0  0  0  0  0  0  0  0  0  0  0  0
  -29.8850  -22.1720   20.1050 C   0  0  0  0  0  0  0  0  0  0  0  0
  -30.4880  -22.2730   21.3080 N   0  0  0  0  0  0  0  0  0  0  0  0
  -27.4180  -21.1900   18.0120 C   0  0  0  0  0  2  0  0  0  0  0  0
  -27.8890  -19.7660   17.8390 C   0  0  0  0  0  2  0  0  0  0  0  0
  -28.8810  -20.8530   18.1880 C   0  0  0  0  0  3  0  0  0  0  0  0
  -30.7870  -18.7680   22.3240 O   0  0  0  0  0  0  0  0  0  0  0  0
  -30.2480  -17.4760   22.0390 C   0  0  0  0  0  2  0  0  0  0  0  0
  -31.2650  -16.5770   21.3110 C   0  0  0  0  0  2  0  0  0  0  0  0
  -31.2070  -14.3540   20.1860 C   0  0  0  0  0  0  0  0  0  0  0  0
  -30.7480  -12.2810   18.9290 C   0  0  0  0  0  2  0  0  0  0  0  0
  -29.7880  -12.5590   17.7540 C   0  0  0  0  0  2  0  0  0  0  0  0
  -28.3190  -12.4970   18.2140 C   0  0  0  0  0  2  0  0  0  0  0  0
  -28.0560  -13.3190   19.5030 C   0  0  0  0  0  3  0  0  0  0  0  0
  -29.1150  -12.9980   20.5810 C   0  0  0  0  0  2  0  0  0  0  0  0
  -30.4500  -13.2410   20.0010 N   0  0  0  0  0  0  0  0  0  0  0  0
  -32.2660  -14.5650   19.5910 O   0  0  0  0  0  0  0  0  0  0  0  0
  -30.7010  -15.2540   21.0370 N   0  0  0  0  0  0  0  0  0  0  0  0
  -29.8380  -15.0050   21.4990 H   0  0  0  0  0  0  0  0  0  0  0  0
  -25.6920  -14.0390   20.2320 C   0  0  0  0  0  0  0  0  0  0  0  0
  -24.5980  -13.3170   20.6280 C   0  0  0  0  0  0  0  0  0  0  0  0
  -25.0020  -11.9480   20.6110 C   0  0  0  0  0  0  0  0  0  0  0  0
  -26.6970  -13.1120   20.0020 N   0  0  0  0  0  0  0  0  0  0  0  0
  -26.2850  -11.8500   20.2850 N   0  0  0  0  0  0  0  0  0  0  0  0
  -24.2270  -10.7200   20.8320 C   0  0  0  0  0  0  0  0  0  0  0  0
  -24.6120   -9.7670   21.8010 C   0  0  0  0  0  3  0  0  0  0  0  0
  -23.8400   -8.6040   22.0080 C   0  0  0  0  0  3  0  0  0  0  0  0
  -22.6690   -8.3840   21.2430 C   0  0  0  0  0  0  0  0  0  0  0  0
  -22.3030   -9.3230   20.2640 C   0  0  0  0  0  3  0  0  0  0  0  0
  -23.0750  -10.4790   20.0560 C   0  0  0  0  0  3  0  0  0  0  0  0
  -21.8730   -7.2690   21.3550 O   0  0  0  0  0  0  0  0  0  0  0  0
  -21.7510   -6.5890   22.5410 C   0  0  0  0  0  0  0  0  0  0  0  0
  -21.2850   -7.2170   23.7160 C   0  0  0  0  0  3  0  0  0  0  0  0
  -21.1060   -6.4650   24.8940 C   0  0  0  0  0  3  0  0  0  0  0  0
  -21.3840   -5.0850   24.8970 C   0  0  0  0  0  0  0  0  0  0  0  0
  -21.8430   -4.4560   23.7260 C   0  0  0  0  0  3  0  0  0  0  0  0
  -22.0230   -5.2050   22.5510 C   0  0  0  0  0  0  0  0  0  0  0  0
  -22.4430   -4.5900   21.4200 F   0  0  0  0  0  0  0  0  0  0  0  0
  -21.2080   -4.3600   26.0260 F   0  0  0  0  0  0  0  0  0  0  0  0
  -23.2260  -13.8570   20.9140 C   0  0  0  0  0  0  0  0  0  0  0  0
  -22.4860  -13.2090   21.8070 N   0  0  0  0  0  0  0  0  0  0  0  0
  -22.8190  -14.8860   20.3780 O   0  0  0  0  0  0  0  0  0  0  0  0
  -22.8280  -12.3760   22.2620 H   0  0  0  0  0  0  0  0  0  0  0  0
  -21.5630  -13.5490   22.0350 H   0  0  0  0  0  0  0  0  0  0  0  0
  -25.9120  -15.3990   20.0300 N   0  0  0  0  0  0  0  0  0  0  0  0
  -25.1750  -16.0880   20.1400 H   0  0  0  0  0  0  0  0  0  0  0  0
  -26.7740  -15.7940   19.6750 H   0  0  0  0  0  0  0  0  0  0  0  0
  -29.6240  -23.3270   19.3900 O   0  0  0  0  0  0  0  0  0  0  0  0
  -29.6860  -24.6270   19.9990 C   0  0  0  0  0  2  0  0  0  0  0  0
  -28.3060  -25.3000   19.8840 C   0  0  0  0  0  2  0  0  0  0  0  0
  -28.3580  -26.6940   20.2180 O   0  0  0  0  0  0  0  0  0  0  0  0
  -24.5810  -31.8990   23.2630 C   0  0  0  0  0  0  0  0  0  0  0  0
  -27.1730  -27.4060   20.2050 C   0  0  0  0  0  0  0  0  0  0  0  0
  -23.3540  -30.4980   21.6360 C   0  0  0  0  0  3  0  0  0  0  0  0
  -24.7840  -28.9360   20.2180 C   0  0  0  0  0  0  0  0  0  0  0  0
  -25.8840  -30.8270   21.4250 C   0  0  0  0  0  2  0  0  0  0  0  0
  -25.9510  -29.4510   20.7960 C   0  0  0  0  0  0  0  0  0  0  0  0
  -27.1450  -28.6950   20.7860 C   0  0  0  0  0  3  0  0  0  0  0  0
  -25.9790  -26.9010   19.6300 C   0  0  0  0  0  3  0  0  0  0  0  0
  -24.7930  -27.6590   19.6340 C   0  0  0  0  0  3  0  0  0  0  0  0
  -23.5480  -29.8080   20.2610 C   0  0  0  0  0  2  0  0  0  0  0  0
  -24.6250  -31.0890   22.1670 N   0  0  0  0  0  0  0  0  0  0  0  0
  -23.5060  -32.1850   23.8080 O   0  0  0  0  0  0  0  0  0  0  0  0
  -22.6950  -29.4920   22.6080 C   0  0  0  0  0  0  0  0  0  0  0  0
  -21.3800  -29.2720   22.4440 N   0  0  0  0  0  0  0  0  0  0  0  0
  -23.3660  -28.9080   23.4630 O   0  0  0  0  0  0  0  0  0  0  0  0
  -20.8990  -29.7920   21.7230 H   0  0  0  0  0  0  0  0  0  0  0  0
  -18.0370  -27.9600   22.8240 C   0  0  0  0  0  0  0  0  0  0  0  0
  -20.5620  -28.3390   23.2190 C   0  0  0  0  0  3  0  0  0  0  0  0
  -20.7560  -26.8860   22.7260 C   0  0  0  0  0  2  0  0  0  0  0  0
  -19.7270  -26.4690   21.6710 C   0  0  0  0  0  2  0  0  0  0  0  0
  -18.3050  -26.5870   22.2290 C   0  0  0  0  0  2  0  0  0  0  0  0
  -19.0980  -28.7880   23.2740 C   0  0  0  0  0  0  0  0  0  0  0  0
  -18.7960  -30.0710   23.7820 C   0  0  0  0  0  3  0  0  0  0  0  0
  -17.4650  -30.5250   23.8500 C   0  0  0  0  0  3  0  0  0  0  0  0
  -16.4170  -29.6940   23.4180 C   0  0  0  0  0  3  0  0  0  0  0  0
  -16.7040  -28.4130   22.9100 C   0  0  0  0  0  3  0  0  0  0  0  0
  -25.8780  -32.5200   23.8710 C   0  0  0  0  0  3  0  0  0  0  0  0
  -25.5860  -33.9230   24.1940 N   0  0  0  0  0  0  0  0  0  0  0  0
  -25.9170  -34.9660   23.4200 C   0  0  0  0  0  0  0  0  0  0  0  0
  -26.5720  -34.8480   22.3810 O   0  0  0  0  0  0  0  0  0  0  0  0
  -25.0070  -34.0900   25.0040 H   0  0  0  0  0  0  0  0  0  0  0  0
  -24.1930  -36.7630   23.0740 C   0  0  0  0  0  1  0  0  0  0  0  0
  -25.4450  -36.3620   23.8700 C   0  0  0  0  0  3  0  0  0  0  0  0
  -27.5990  -37.2400   24.6570 C   0  0  0  0  0  1  0  0  0  0  0  0
  -26.4830  -37.4060   23.7300 N   0  0  0  0  0  0  0  0  0  0  0  0
  -26.0850  -38.3310   23.8750 H   0  0  0  0  0  0  0  0  0  0  0  0
  -26.3970  -31.7510   25.1470 C   0  0  1  0  0  0  0  0  0  0  0  0
  -25.3090  -31.5230   26.2210 C   0  0  0  0  0  1  0  0  0  0  0  0
  -26.9690  -30.3690   24.7540 C   0  0  0  0  0  1  0  0  0  0  0  0
  -27.5570  -32.5400   25.7980 C   0  0  0  0  0  1  0  0  0  0  0  0
  1  4  1  0
  3  5  1  0
  3  1  2  0
  4  2  2  0
  4 10  1  0
  5  6  2  0
  6  2  1  0
  7  9  1  0
  8  7  1  0
  8  9  1  0
  9  3  1  0
 11 10  1  0
 12 11  1  0
 13 21  1  0
 14 19  1  0
 15 16  1  0
 15 14  1  0
 17 16  1  0
 17 26  1  0
 17 18  1  0
 19 13  1  0
 19 18  1  0
 20 13  2  0
 21 12  1  0
 21 22  1  0
 23 24  2  0
 24 43  1  0
 25 24  1  0
 25 28  1  0
 26 23  1  0
 26 27  1  0
 27 25  2  0
 28 29  1  0
 29 30  2  0
 31 34  1  0
 31 30  1  0
 32 31  2  0
 33 32  1  0
 33 28  2  0
 34 35  1  0
 35 40  2  0
 35 36  1  0
 36 37  2  0
 37 38  1  0
 38 42  1  0
 39 38  2  0
 40 39  1  0
 41 40  1  0
 43 44  1  0
 44 47  1  0
 44 46  1  0
 45 43  2  0
 48 49  1  0
 48 23  1  0
 50 48  1  0
 51 52  1  0
 51  5  1  0
 53 52  1  0
 53 54  1  0
 55 66  2  0
 56 54  1  0
 56 61  1  0
 57 65  1  0
 57 67  1  0
 58 64  1  0
 58 60  1  0
 59 65  1  0
 60 59  1  0
 61 60  2  0
 62 63  1  0
 62 56  2  0
 63 58  2  0
 64 57  1  0
 65 55  1  0
 67 69  2  0
 68 67  1  0
 70 68  1  0
 71 80  2  0
 71 76  1  0
 72 68  1  0
 72 76  1  0
 73 72  1  0
 74 75  1  0
 74 73  1  0
 75 71  1  0
 76 77  2  0
 77 78  1  0
 79 78  2  0
 80 79  1  0
 81 55  1  0
 81 82  1  0
 81 91  1  0
 82 85  1  0
 83 87  1  0
 83 82  1  0
 84 83  2  0
 87 86  1  0
 89 87  1  0
 89 90  1  0
 89 88  1  0
 91 94  1  1
 91 92  1  0
 93 91  1  0
M  ISO  4  13 100  21 100  53 101  54 101
M  END
>  <TORSDO>  (40) 
F 23

>  <SCORE>  (40) 
-12.699

>  <name>  (40) 
39

>  <ligand_id>  (40) 
39

>  <original_smiles>  (40) 
[H]c1nc(OC([H])([H])C([H])([H])Oc2c([H])c([H])c3c(c2[H])C([H])([H])N(C(=O)C([H])(N([H])C(=O)C([H])(N([H])C([H])([H])[H])C([H])([H])[H])C(C([H])([H])[H])(C([H])([H])[H])C([H])([H])[H])C([H])(C(=O)N([H])C2([H])c4c([H])c([H])c([H])c([H])c4C([H])([H])C([H])([H])C2([H])[H])C3([H])[H])c(C2([H])C([H])([H])C2([H])[H])c([H])c1OC([H])([H])C([H])([H])N([H])C(=O)N1C([H])([H])C([H])([H])C([H])([H])C([H])(n2nc(-c3c([H])c([H])c(Oc4c([H])c([H])c(F)c([H])c4F)c([H])c3[H])c(C(=O)N([H])[H])c2N([H])[H])C1([H])[H]

>  <smiles>  (40) 
[H]c1nc(OC([H])([H])C([H])([H])Oc2c([H])c([H])c3c(c2[H])C([H])([H])N(C(=O)C([H])(N([H])C(=O)C([H])(N([H])C([H])([H])[H])C([H])([H])[H])C(C([H])([H])[H])(C([H])([H])[H])C([H])([H])[H])C([H])(C(=O)N([H])C2([H])c4c([H])c([H])c([H])c([H])c4C([H])([H])C([H])([H])C2([H])[H])C3([H])[H])c(C2([H])C([H])([H])C2([H])[H])c([H])c1OC([H])([H])C([H])([H])N([H])C(=O)N1C([H])([H])C([H])([H])C([H])([H])C([H])(n2nc(-c3c([H])c([H])c(Oc4c([H])c([H])c(F)c([H])c4F)c([H])c3[H])c(C(=O)N([H])[H])c2N([H])[H])C1([H])[H]

$$$$
40:0:0
     RDKit          3D

100109  0  0  1  0  0  0  0  0999 V2000
  -27.8720  -24.2500   21.4520 C   0  0  0  0  0  3  0  0  0  0  0  0
  -30.0720  -23.9660   20.4480 C   0  0  0  0  0  3  0  0  0  0  0  0
  -29.1780  -24.7230   21.2200 C   0  0  0  0  0  0  0  0  0  0  0  0
  -27.4450  -23.0330   20.8800 C   0  0  0  0  0  0  0  0  0  0  0  0
  -29.6570  -22.7580   19.8650 C   0  0  0  0  0  0  0  0  0  0  0  0
  -28.3460  -22.2780   20.0830 C   0  0  0  0  0  0  0  0  0  0  0  0
  -25.9980  -22.6140   21.0730 C   0  0  0  0  0  1  0  0  0  0  0  0
  -30.6320  -22.0040   18.9830 C   0  0  0  0  0  1  0  0  0  0  0  0
  -29.6240  -26.0840   21.7080 C   0  0  0  0  0  2  0  0  0  0  0  0
  -29.4770  -27.0500   20.6730 O   0  0  0  0  0  0  0  0  0  0  0  0
  -24.9450  -31.6550   23.5930 C   0  0  0  0  0  0  0  0  0  0  0  0
  -28.2370  -27.6270   20.6270 C   0  0  0  0  0  0  0  0  0  0  0  0
  -24.0040  -30.2070   21.8140 C   0  0  0  0  0  3  0  0  0  0  0  0
  -25.7050  -28.8570   20.4780 C   0  0  0  0  0  0  0  0  0  0  0  0
  -26.4850  -30.8130   21.8300 C   0  0  0  0  0  2  0  0  0  0  0  0
  -26.7500  -29.4800   21.1720 C   0  0  0  0  0  0  0  0  0  0  0  0
  -28.0170  -28.8700   21.2510 C   0  0  0  0  0  3  0  0  0  0  0  0
  -27.1830  -27.0000   19.9310 C   0  0  0  0  0  3  0  0  0  0  0  0
  -25.9150  -27.6100   19.8570 C   0  0  0  0  0  3  0  0  0  0  0  0
  -24.3860  -29.5920   20.4390 C   0  0  0  0  0  2  0  0  0  0  0  0
  -25.1550  -30.9050   22.4740 N   0  0  0  0  0  0  0  0  0  0  0  0
  -23.8050  -31.8110   24.0510 O   0  0  0  0  0  0  0  0  0  0  0  0
  -23.3750  -29.1020   22.6920 C   0  0  0  0  0  0  0  0  0  0  0  0
  -22.1400  -28.7010   22.3490 N   0  0  0  0  0  0  0  0  0  0  0  0
  -24.0020  -28.6050   23.6310 O   0  0  0  0  0  0  0  0  0  0  0  0
  -21.6850  -29.1680   21.5770 H   0  0  0  0  0  0  0  0  0  0  0  0
  -18.9610  -26.9870   22.3250 C   0  0  0  0  0  0  0  0  0  0  0  0
  -21.3670  -27.6460   23.0040 C   0  0  0  0  0  3  0  0  0  0  0  0
  -21.7870  -26.2470   22.4930 C   0  0  0  0  0  2  0  0  0  0  0  0
  -20.9320  -25.7540   21.3220 C   0  0  0  0  0  2  0  0  0  0  0  0
  -19.4560  -25.6810   21.7270 C   0  0  0  0  0  2  0  0  0  0  0  0
  -19.8610  -27.9170   22.9100 C   0  0  0  0  0  0  0  0  0  0  0  0
  -19.3560  -29.1330   23.4180 C   0  0  0  0  0  3  0  0  0  0  0  0
  -17.9800  -29.4230   23.3550 C   0  0  0  0  0  3  0  0  0  0  0  0
  -17.0930  -28.4910   22.7880 C   0  0  0  0  0  3  0  0  0  0  0  0
  -17.5820  -27.2760   22.2790 C   0  0  0  0  0  3  0  0  0  0  0  0
  -26.1180  -32.3680   24.3350 C   0  0  0  0  0  3  0  0  0  0  0  0
  -25.7290  -33.7720   24.5280 N   0  0  0  0  0  0  0  0  0  0  0  0
  -26.1270  -34.7850   23.7460 C   0  0  0  0  0  0  0  0  0  0  0  0
  -26.9300  -34.6420   22.8190 O   0  0  0  0  0  0  0  0  0  0  0  0
  -25.0380  -33.9550   25.2400 H   0  0  0  0  0  0  0  0  0  0  0  0
  -24.3910  -36.4710   23.0630 C   0  0  0  0  0  1  0  0  0  0  0  0
  -25.5410  -36.1790   24.0400 C   0  0  0  0  0  3  0  0  0  0  0  0
  -27.5690  -37.1730   25.0060 C   0  0  0  0  0  1  0  0  0  0  0  0
  -26.5420  -37.2650   23.9710 N   0  0  0  0  0  0  0  0  0  0  0  0
  -26.0930  -38.1730   24.0540 H   0  0  0  0  0  0  0  0  0  0  0  0
  -26.4900  -31.6930   25.7140 C   0  0  1  0  0  0  0  0  0  0  0  0
  -25.2610  -31.2900   26.5600 C   0  0  0  0  0  1  0  0  0  0  0  0
  -27.3400  -30.4220   25.4830 C   0  0  0  0  0  1  0  0  0  0  0  0
  -27.3520  -32.6610   26.5560 C   0  0  0  0  0  1  0  0  0  0  0  0
  -27.9710  -21.1430   19.4130 O   0  0  0  0  0  0  0  0  0  0  0  0
  -27.9670  -19.9150   20.1350 C   0  0  0  0  0  2  0  0  0  0  0  0
  -28.4160  -18.6360   16.6560 C   0  0  0  0  0  2  0  0  0  0  0  0
  -27.4910  -19.2060   17.7220 C   0  0  0  0  0  2  0  0  0  0  0  0
  -29.7800  -18.4750   17.3420 C   0  0  0  0  0  2  0  0  0  0  0  0
  -28.1290  -18.8130   19.0710 C   0  0  0  0  0  3  0  0  0  0  0  0
  -29.5670  -18.5380   18.8140 N   0  0  1  0  0  4  0  0  0  0  0  0
  -30.0380  -19.3800   19.1110 H   0  0  0  0  0  0  0  0  0  0  0  0
  -30.1310  -17.4060   19.6170 C   0  0  0  0  0  2  0  0  0  0  0  0
  -31.4710  -16.8550   19.0730 C   0  0  0  0  0  2  0  0  0  0  0  0
  -33.8430  -16.2040   19.5830 C   0  0  0  0  0  1  0  0  0  0  0  0
  -32.3880  -16.1400   20.1060 C   0  0  0  0  0  3  0  0  0  0  0  0
  -32.4630  -13.5640   20.2440 C   0  0  0  0  0  0  0  0  0  0  0  0
  -31.7340  -11.4110   19.3250 C   0  0  0  0  0  2  0  0  0  0  0  0
  -30.8560  -11.7230   18.0970 C   0  0  0  0  0  2  0  0  0  0  0  0
  -29.3870  -11.9320   18.5180 C   0  0  0  0  0  2  0  0  0  0  0  0
  -29.2350  -12.9110   19.7120 C   0  0  0  0  0  3  0  0  0  0  0  0
  -30.2300  -12.5700   20.8440 C   0  0  0  0  0  2  0  0  0  0  0  0
  -31.5800  -12.5330   20.2610 N   0  0  0  0  0  0  0  0  0  0  0  0
  -33.6290  -13.4270   19.8770 O   0  0  0  0  0  0  0  0  0  0  0  0
  -31.8930  -14.7780   20.4150 N   0  0  0  0  0  0  0  0  0  0  0  0
  -30.9360  -14.7250   20.7260 H   0  0  0  0  0  0  0  0  0  0  0  0
  -27.0720  -14.0560   20.4960 C   0  0  0  0  0  0  0  0  0  0  0  0
  -25.8450  -13.5670   20.8460 C   0  0  0  0  0  0  0  0  0  0  0  0
  -25.9520  -12.1470   20.7350 C   0  0  0  0  0  0  0  0  0  0  0  0
  -27.8590  -12.9580   20.1990 N   0  0  0  0  0  0  0  0  0  0  0  0
  -27.1890  -11.7980   20.4030 N   0  0  0  0  0  0  0  0  0  0  0  0
  -24.9320  -11.1030   20.8680 C   0  0  0  0  0  0  0  0  0  0  0  0
  -25.1890   -9.9160   21.5890 C   0  0  0  0  0  3  0  0  0  0  0  0
  -24.1870   -8.9310   21.7180 C   0  0  0  0  0  3  0  0  0  0  0  0
  -22.9150   -9.1310   21.1300 C   0  0  0  0  0  0  0  0  0  0  0  0
  -22.6750  -10.3040   20.3950 C   0  0  0  0  0  3  0  0  0  0  0  0
  -23.6740  -11.2810   20.2610 C   0  0  0  0  0  3  0  0  0  0  0  0
  -21.8900   -8.2180   21.1840 O   0  0  0  0  0  0  0  0  0  0  0  0
  -21.7460   -7.3630   22.2470 C   0  0  0  0  0  0  0  0  0  0  0  0
  -21.6740   -7.8330   23.5760 C   0  0  0  0  0  3  0  0  0  0  0  0
  -21.4520   -6.9260   24.6310 C   0  0  0  0  0  3  0  0  0  0  0  0
  -21.2940   -5.5530   24.3590 C   0  0  0  0  0  0  0  0  0  0  0  0
  -21.3630   -5.0850   23.0350 C   0  0  0  0  0  3  0  0  0  0  0  0
  -21.5840   -5.9890   21.9810 C   0  0  0  0  0  0  0  0  0  0  0  0
  -21.6260   -5.5350   20.7050 F   0  0  0  0  0  0  0  0  0  0  0  0
  -21.0740   -4.6820   25.3710 F   0  0  0  0  0  0  0  0  0  0  0  0
  -24.6170  -14.3710   21.1630 C   0  0  0  0  0  0  0  0  0  0  0  0
  -23.7510  -13.8510   22.0240 N   0  0  0  0  0  0  0  0  0  0  0  0
  -24.4460  -15.4910   20.6810 O   0  0  0  0  0  0  0  0  0  0  0  0
  -23.9020  -12.9430   22.4370 H   0  0  0  0  0  0  0  0  0  0  0  0
  -22.9230  -14.3740   22.2800 H   0  0  0  0  0  0  0  0  0  0  0  0
  -27.5780  -15.3380   20.3680 N   0  0  0  0  0  0  0  0  0  0  0  0
  -26.8870  -16.0780   20.3420 H   0  0  0  0  0  0  0  0  0  0  0  0
  -28.3080  -15.4480   19.6790 H   0  0  0  0  0  0  0  0  0  0  0  0
  2  3  2  0
  3  1  1  0
  3  9  1  0
  4  7  1  0
  4  1  2  0
  5  6  2  0
  5  2  1  0
  6  4  1  0
  8  5  1  0
 10  9  1  0
 11 22  2  0
 12 10  1  0
 12 17  1  0
 13 21  1  0
 13 23  1  0
 14 16  1  0
 15 21  1  0
 16 17  2  0
 16 15  1  0
 18 12  2  0
 19 18  1  0
 19 14  2  0
 20 14  1  0
 20 13  1  0
 21 11  1  0
 23 25  2  0
 24 23  1  0
 26 24  1  0
 27 32  1  0
 28 24  1  0
 29 28  1  0
 30 31  1  0
 30 29  1  0
 31 27  1  0
 32 28  1  0
 32 33  2  0
 34 33  1  0
 35 34  2  0
 36 27  2  0
 36 35  1  0
 37 11  1  0
 37 38  1  0
 37 47  1  0
 38 41  1  0
 39 43  1  0
 39 38  1  0
 40 39  2  0
 43 42  1  0
 45 43  1  0
 45 46  1  0
 45 44  1  0
 47 50  1  1
 47 48  1  0
 49 47  1  0
 51  6  1  0
 51 52  1  0
 53 55  1  0
 53 54  1  0
 54 56  1  0
 55 57  1  0
 56 52  1  0
 57 56  1  0
 57 58  1  1
 57 59  1  0
 60 59  1  0
 60 62  1  0
 62 61  1  0
 62 71  1  0
 63 69  1  0
 63 71  1  0
 64 69  1  0
 65 66  1  0
 65 64  1  0
 67 66  1  0
 67 76  1  0
 67 68  1  0
 69 68  1  0
 70 63  2  0
 71 72  1  0
 73 74  2  0
 74 93  1  0
 75 74  1  0
 75 78  1  0
 76 77  1  0
 76 73  1  0
 77 75  2  0
 78 79  1  0
 79 80  2  0
 81 84  1  0
 81 80  1  0
 82 81  2  0
 83 82  1  0
 83 78  2  0
 84 85  1  0
 85 86  1  0
 86 87  2  0
 88 87  1  0
 88 92  1  0
 89 88  2  0
 90 85  2  0
 90 89  1  0
 91 90  1  0
 93 94  1  0
 94 97  1  0
 94 96  1  0
 95 93  2  0
 98 73  1  0
 99 98  1  0
100 98  1  0
M  ISO  4   9 101  10 101  63 100  71 100
M  END
>  <TORSDO>  (41) 
F 23

>  <SCORE>  (41) 
-10.691

>  <name>  (41) 
40

>  <ligand_id>  (41) 
40

>  <original_smiles>  (41) 
[H]c1c([H])c([H])c2c(c1[H])C([H])([H])C([H])([H])C([H])([H])C2([H])N([H])C(=O)C1([H])N(C(=O)C([H])(N([H])C(=O)C([H])(N([H])C([H])([H])[H])C([H])([H])[H])C(C([H])([H])[H])(C([H])([H])[H])C([H])([H])[H])C([H])([H])c2c([H])c(OC([H])([H])c3c([H])c(C([H])([H])[H])c(OC([H])([H])C4([H])C([H])([H])C([H])([H])C([H])([H])[N+]4([H])C([H])([H])C([H])([H])C([H])(N([H])C(=O)N4C([H])([H])C([H])([H])C([H])([H])C([H])(n5nc(-c6c([H])c([H])c(Oc7c([H])c([H])c(F)c([H])c7F)c([H])c6[H])c(C(=O)N([H])[H])c5N([H])[H])C4([H])[H])C([H])([H])[H])c(C([H])([H])[H])c3[H])c([H])c([H])c2C1([H])[H]

>  <smiles>  (41) 
[H]c1c([H])c([H])c2c(c1[H])C([H])([H])C([H])([H])C([H])([H])C2([H])N([H])C(=O)C1([H])N(C(=O)C([H])(N([H])C(=O)C([H])(N([H])C([H])([H])[H])C([H])([H])[H])C(C([H])([H])[H])(C([H])([H])[H])C([H])([H])[H])C([H])([H])c2c([H])c(OC([H])([H])c3c([H])c(C([H])([H])[H])c(OC([H])([H])C4([H])C([H])([H])C([H])([H])C([H])([H])[N+]4([H])C([H])([H])C([H])([H])C([H])(N([H])C(=O)N4C([H])([H])C([H])([H])C([H])([H])C([H])(n5nc(-c6c([H])c([H])c(Oc7c([H])c([H])c(F)c([H])c7F)c([H])c6[H])c(C(=O)N([H])[H])c5N([H])[H])C4([H])[H])C([H])([H])[H])c(C([H])([H])[H])c3[H])c([H])c([H])c2C1([H])[H]

$$$$
41:0:0
     RDKit          3D

 93102  0  0  1  0  0  0  0  0999 V2000
  -28.9970  -19.5680   21.6390 C   0  0  0  0  0  2  0  0  0  0  0  0
  -29.1710  -19.8430   19.2110 C   0  0  0  0  0  2  0  0  0  0  0  0
  -29.1400  -21.0950   21.8340 C   0  0  0  0  0  2  0  0  0  0  0  0
  -29.2560  -21.3970   19.3800 C   0  0  0  0  0  2  0  0  0  0  0  0
  -29.7750  -19.0800   20.4090 C   0  0  0  0  0  3  0  0  0  0  0  0
  -28.6920  -21.9160   20.6680 N   0  0  2  0  0  4  0  0  0  0  0  0
  -27.6870  -21.8200   20.6210 H   0  0  0  0  0  0  0  0  0  0  0  0
  -28.9950  -23.3700   20.9280 C   0  0  0  0  0  2  0  0  0  0  0  0
  -28.2810  -24.4520   20.0560 C   0  0  0  0  0  2  0  0  0  0  0  0
  -28.7510  -25.8900   20.4420 C   0  0  0  0  0  2  0  0  0  0  0  0
  -28.4610  -26.9340   19.4970 O   0  0  0  0  0  0  0  0  0  0  0  0
  -24.5230  -31.7110   23.0850 C   0  0  0  0  0  0  0  0  0  0  0  0
  -27.2630  -27.5940   19.6570 C   0  0  0  0  0  0  0  0  0  0  0  0
  -23.3210  -30.3230   21.4280 C   0  0  0  0  0  3  0  0  0  0  0  0
  -24.7910  -28.9480   19.8600 C   0  0  0  0  0  0  0  0  0  0  0  0
  -25.8090  -30.8450   21.1320 C   0  0  0  0  0  2  0  0  0  0  0  0
  -25.9440  -29.5140   20.4220 C   0  0  0  0  0  0  0  0  0  0  0  0
  -27.1860  -28.8440   20.3160 C   0  0  0  0  0  3  0  0  0  0  0  0
  -26.0970  -27.0410   19.0940 C   0  0  0  0  0  3  0  0  0  0  0  0
  -24.8610  -27.7100   19.1970 C   0  0  0  0  0  3  0  0  0  0  0  0
  -23.5030  -29.7280   20.0060 C   0  0  0  0  0  2  0  0  0  0  0  0
  -24.5710  -30.9750   21.9390 N   0  0  0  0  0  0  0  0  0  0  0  0
  -23.4560  -31.8870   23.6900 O   0  0  0  0  0  0  0  0  0  0  0  0
  -22.7830  -29.2150   22.3620 C   0  0  0  0  0  0  0  0  0  0  0  0
  -21.4820  -28.9060   22.2380 N   0  0  0  0  0  0  0  0  0  0  0  0
  -23.5330  -28.6370   23.1530 O   0  0  0  0  0  0  0  0  0  0  0  0
  -20.9320  -29.4330   21.5720 H   0  0  0  0  0  0  0  0  0  0  0  0
  -18.2600  -27.3320   22.6780 C   0  0  0  0  0  0  0  0  0  0  0  0
  -20.7700  -27.8680   22.9810 C   0  0  0  0  0  3  0  0  0  0  0  0
  -21.0370  -26.4680   22.3820 C   0  0  0  0  0  2  0  0  0  0  0  0
  -19.9880  -26.0440   21.3500 C   0  0  0  0  0  2  0  0  0  0  0  0
  -18.5920  -26.0240   21.9810 C   0  0  0  0  0  2  0  0  0  0  0  0
  -19.2820  -28.2050   23.1340 C   0  0  0  0  0  0  0  0  0  0  0  0
  -18.9200  -29.4250   23.7430 C   0  0  0  0  0  3  0  0  0  0  0  0
  -17.5660  -29.7770   23.9010 C   0  0  0  0  0  3  0  0  0  0  0  0
  -16.5580  -28.9010   23.4640 C   0  0  0  0  0  3  0  0  0  0  0  0
  -16.9050  -27.6810   22.8570 C   0  0  0  0  0  3  0  0  0  0  0  0
  -25.7980  -32.3900   23.6760 C   0  0  0  0  0  3  0  0  0  0  0  0
  -26.4070  -31.6070   24.9030 C   0  0  1  0  0  0  0  0  0  0  0  0
  -25.3640  -31.2360   25.9840 C   0  0  0  0  0  1  0  0  0  0  0  0
  -27.0850  -30.2980   24.4330 C   0  0  0  0  0  1  0  0  0  0  0  0
  -27.5080  -32.4590   25.5760 C   0  0  0  0  0  1  0  0  0  0  0  0
  -25.4310  -33.7580   24.0640 N   0  0  0  0  0  0  0  0  0  0  0  0
  -25.6900  -34.8510   23.3340 C   0  0  0  0  0  0  0  0  0  0  0  0
  -26.3360  -34.8160   22.2830 O   0  0  0  0  0  0  0  0  0  0  0  0
  -24.8530  -33.8570   24.8860 H   0  0  0  0  0  0  0  0  0  0  0  0
  -23.8680  -36.5670   23.0870 C   0  0  0  0  0  1  0  0  0  0  0  0
  -25.1480  -36.1970   23.8540 C   0  0  0  0  0  3  0  0  0  0  0  0
  -27.2600  -37.1550   24.6600 C   0  0  0  0  0  1  0  0  0  0  0  0
  -26.1250  -37.3030   23.7530 N   0  0  0  0  0  0  0  0  0  0  0  0
  -25.6780  -38.1960   23.9480 H   0  0  0  0  0  0  0  0  0  0  0  0
  -29.6650  -17.6340   20.3200 O   0  0  0  0  0  0  0  0  0  0  0  0
  -30.7760  -14.6700   19.3970 C   0  0  0  0  0  0  0  0  0  0  0  0
  -30.2050  -12.5920   18.1620 C   0  0  0  0  0  2  0  0  0  0  0  0
  -29.0980  -12.8170   17.1120 C   0  0  0  0  0  2  0  0  0  0  0  0
  -27.7090  -12.6490   17.7510 C   0  0  0  0  0  2  0  0  0  0  0  0
  -27.5600  -13.4810   19.0490 C   0  0  0  0  0  3  0  0  0  0  0  0
  -28.7550  -13.2600   19.9960 C   0  0  0  0  0  2  0  0  0  0  0  0
  -30.0110  -13.5420   19.2750 N   0  0  0  0  0  0  0  0  0  0  0  0
  -31.6130  -14.9780   18.5410 O   0  0  0  0  0  0  0  0  0  0  0  0
  -30.9810  -16.0220   22.7900 C   0  0  0  0  0  2  0  0  0  0  0  0
  -31.4840  -17.1540   21.9080 C   0  0  0  0  0  2  0  0  0  0  0  0
  -30.9120  -14.8460   21.8270 C   0  0  0  0  0  2  0  0  0  0  0  0
  -30.8580  -16.8850   20.5190 C   0  0  0  0  0  3  0  0  0  0  0  0
  -30.5940  -15.4310   20.5130 N   0  0  0  0  0  0  0  0  0  0  0  0
  -25.3100  -14.0930   20.1380 C   0  0  0  0  0  0  0  0  0  0  0  0
  -24.3030  -13.3220   20.6530 C   0  0  0  0  0  0  0  0  0  0  0  0
  -24.7380  -11.9680   20.5230 C   0  0  0  0  0  0  0  0  0  0  0  0
  -26.2950  -13.2080   19.7270 N   0  0  0  0  0  0  0  0  0  0  0  0
  -25.9650  -11.9240   20.0190 N   0  0  0  0  0  0  0  0  0  0  0  0
  -24.0350  -10.7080   20.7990 C   0  0  0  0  0  0  0  0  0  0  0  0
  -24.5150   -9.7910   21.7590 C   0  0  0  0  0  3  0  0  0  0  0  0
  -23.8140   -8.5940   22.0190 C   0  0  0  0  0  3  0  0  0  0  0  0
  -22.6180   -8.3070   21.3200 C   0  0  0  0  0  0  0  0  0  0  0  0
  -22.1560   -9.2140   20.3490 C   0  0  0  0  0  3  0  0  0  0  0  0
  -22.8570  -10.4010   20.0870 C   0  0  0  0  0  3  0  0  0  0  0  0
  -21.8820   -7.1590   21.4860 O   0  0  0  0  0  0  0  0  0  0  0  0
  -21.7930   -6.5310   22.7040 C   0  0  0  0  0  0  0  0  0  0  0  0
  -21.3150   -7.1980   23.8540 C   0  0  0  0  0  3  0  0  0  0  0  0
  -21.1740   -6.4960   25.0670 C   0  0  0  0  0  3  0  0  0  0  0  0
  -21.5020   -5.1290   25.1320 C   0  0  0  0  0  0  0  0  0  0  0  0
  -21.9720   -4.4620   23.9870 C   0  0  0  0  0  3  0  0  0  0  0  0
  -22.1150   -5.1610   22.7750 C   0  0  0  0  0  0  0  0  0  0  0  0
  -22.5490   -4.5100   21.6710 F   0  0  0  0  0  0  0  0  0  0  0  0
  -21.3620   -4.4510   26.2950 F   0  0  0  0  0  0  0  0  0  0  0  0
  -22.9700  -13.8050   21.1490 C   0  0  0  0  0  0  0  0  0  0  0  0
  -22.3980  -13.1220   22.1350 N   0  0  0  0  0  0  0  0  0  0  0  0
  -22.4490  -14.8230   20.6940 O   0  0  0  0  0  0  0  0  0  0  0  0
  -22.8330  -12.2980   22.5240 H   0  0  0  0  0  0  0  0  0  0  0  0
  -21.5100  -13.4260   22.5070 H   0  0  0  0  0  0  0  0  0  0  0  0
  -25.4640  -15.4670   19.9650 N   0  0  0  0  0  0  0  0  0  0  0  0
  -24.7420  -16.1330   20.2180 H   0  0  0  0  0  0  0  0  0  0  0  0
  -26.2830  -15.9030   19.5640 H   0  0  0  0  0  0  0  0  0  0  0  0
  1  3  1  0
  2  4  1  0
  2  5  1  0
  4  6  1  0
  5 52  1  0
  5  1  1  0
  6  8  1  0
  6  3  1  0
  6  7  1  6
  9 10  1  0
  9  8  1  0
 11 13  1  0
 11 10  1  0
 12 23  2  0
 13 18  1  0
 14 22  1  0
 14 24  1  0
 15 21  1  0
 15 17  1  0
 16 22  1  0
 17 16  1  0
 18 17  2  0
 19 20  1  0
 19 13  2  0
 20 15  2  0
 21 14  1  0
 22 12  1  0
 24 26  2  0
 25 24  1  0
 27 25  1  0
 28 37  2  0
 28 33  1  0
 29 25  1  0
 29 33  1  0
 30 29  1  0
 31 32  1  0
 31 30  1  0
 32 28  1  0
 33 34  2  0
 34 35  1  0
 36 35  2  0
 37 36  1  0
 38 12  1  0
 38 43  1  0
 38 39  1  0
 39 42  1  1
 39 40  1  0
 41 39  1  0
 43 46  1  0
 44 48  1  0
 44 43  1  0
 45 44  2  0
 48 47  1  0
 50 48  1  0
 50 51  1  0
 50 49  1  0
 53 65  1  0
 54 59  1  0
 55 56  1  0
 55 54  1  0
 57 56  1  0
 57 69  1  0
 57 58  1  0
 59 53  1  0
 59 58  1  0
 60 53  2  0
 62 61  1  0
 63 61  1  0
 64 52  1  0
 64 62  1  0
 65 64  1  0
 65 63  1  0
 66 67  2  0
 67 86  1  0
 68 67  1  0
 68 71  1  0
 69 70  1  0
 69 66  1  0
 70 68  2  0
 71 72  1  0
 72 73  2  0
 74 77  1  0
 74 73  1  0
 75 74  2  0
 76 75  1  0
 76 71  2  0
 77 78  1  0
 78 83  2  0
 78 79  1  0
 79 80  2  0
 80 81  1  0
 81 85  1  0
 82 81  2  0
 83 82  1  0
 84 83  1  0
 86 87  1  0
 87 90  1  0
 87 89  1  0
 88 86  2  0
 91 66  1  0
 91 92  1  0
 93 91  1  0
M  ISO  4  10 101  11 101  53 100  65 100
M  END
>  <TORSDO>  (42) 
F 20

>  <SCORE>  (42) 
-9.284

>  <name>  (42) 
41

>  <ligand_id>  (42) 
41

>  <original_smiles>  (42) 
[H]c1c([H])c([H])c2c(c1[H])C([H])([H])C([H])([H])C([H])([H])C2([H])N([H])C(=O)C1([H])N(C(=O)C([H])(N([H])C(=O)C([H])(N([H])C([H])([H])[H])C([H])([H])[H])C(C([H])([H])[H])(C([H])([H])[H])C([H])([H])[H])C([H])([H])c2c([H])c(OC([H])([H])C([H])([H])C([H])([H])[N+]3([H])C([H])([H])C([H])([H])C([H])(OC4([H])N(C(=O)N5C([H])([H])C([H])([H])C([H])([H])C([H])(n6nc(-c7c([H])c([H])c(Oc8c([H])c([H])c(F)c([H])c8F)c([H])c7[H])c(C(=O)N([H])[H])c6N([H])[H])C5([H])[H])C([H])([H])C([H])([H])C4([H])[H])C([H])([H])C3([H])[H])c([H])c([H])c2C1([H])[H]

>  <smiles>  (42) 
[H]c1c([H])c([H])c2c(c1[H])C([H])([H])C([H])([H])C([H])([H])C2([H])N([H])C(=O)C1([H])N(C(=O)C([H])(N([H])C(=O)C([H])(N([H])C([H])([H])[H])C([H])([H])[H])C(C([H])([H])[H])(C([H])([H])[H])C([H])([H])[H])C([H])([H])c2c([H])c(OC([H])([H])C([H])([H])C([H])([H])[N+]3([H])C([H])([H])C([H])([H])C([H])(OC4([H])N(C(=O)N5C([H])([H])C([H])([H])C([H])([H])C([H])(n6nc(-c7c([H])c([H])c(Oc8c([H])c([H])c(F)c([H])c8F)c([H])c7[H])c(C(=O)N([H])[H])c6N([H])[H])C5([H])[H])C([H])([H])C([H])([H])C4([H])[H])C([H])([H])C3([H])[H])c([H])c([H])c2C1([H])[H]

$$$$
42:0:0
     RDKit          3D

 99109  0  0  1  0  0  0  0  0999 V2000
  -26.5010  -18.2360   20.2250 C   0  0  0  0  0  2  0  0  0  0  0  0
  -27.0050  -16.2310   19.4510 C   0  0  0  0  0  0  0  0  0  0  0  0
  -25.9130  -17.1170   19.7270 C   0  0  0  0  0  0  0  0  0  0  0  0
  -28.1910  -16.8010   19.8900 C   0  0  0  0  0  3  0  0  0  0  0  0
  -27.8830  -18.1620   20.0870 N   0  0  0  0  0  0  0  0  0  0  0  0
  -25.6640  -14.4520   17.9390 C   0  0  0  0  0  2  0  0  0  0  0  0
  -26.1640  -13.6750   19.1270 C   0  0  0  0  0  2  0  0  0  0  0  0
  -26.9170  -14.9100   18.6830 C   0  0  0  0  0  3  0  0  0  0  0  0
  -23.9790  -17.8800   18.3470 C   0  0  0  0  0  1  0  0  0  0  0  0
  -23.5950  -17.3440   20.7680 C   0  0  0  0  0  1  0  0  0  0  0  0
  -24.4100  -16.9750   19.5150 C   0  0  0  0  0  3  0  0  0  0  0  0
  -29.5990  -16.1930   19.9960 C   0  0  0  0  0  2  0  0  0  0  0  0
  -30.8130  -14.5940   21.5010 C   0  0  0  0  0  0  0  0  0  0  0  0
  -30.7360  -12.2950   20.6770 C   0  0  0  0  0  2  0  0  0  0  0  0
  -29.9420  -12.3390   19.3540 C   0  0  0  0  0  2  0  0  0  0  0  0
  -28.4140  -12.4440   19.5530 C   0  0  0  0  0  2  0  0  0  0  0  0
  -27.9670  -12.5870   21.0180 C   0  0  0  0  0  3  0  0  0  0  0  0
  -28.8820  -13.1740   22.0800 C   0  0  0  0  0  2  0  0  0  0  0  0
  -30.2140  -13.3850   21.5160 N   0  0  0  0  0  0  0  0  0  0  0  0
  -32.0300  -14.7240   21.4100 O   0  0  0  0  0  0  0  0  0  0  0  0
  -29.9830  -15.6650   21.3290 N   0  0  0  0  0  0  0  0  0  0  0  0
  -30.3310  -16.4480   21.8630 H   0  0  0  0  0  0  0  0  0  0  0  0
  -25.5160  -13.4640   21.5200 C   0  0  0  0  0  0  0  0  0  0  0  0
  -24.3700  -12.7170   21.7000 C   0  0  0  0  0  0  0  0  0  0  0  0
  -24.7830  -11.3680   21.5560 C   0  0  0  0  0  0  0  0  0  0  0  0
  -26.5360  -12.5450   21.2860 N   0  0  0  0  0  0  0  0  0  0  0  0
  -26.0650  -11.2870   21.3300 N   0  0  0  0  0  0  0  0  0  0  0  0
  -24.0770  -10.1000   21.5620 C   0  0  0  0  0  0  0  0  0  0  0  0
  -24.4750   -9.0620   22.4380 C   0  0  0  0  0  3  0  0  0  0  0  0
  -23.7870   -7.8350   22.4270 C   0  0  0  0  0  3  0  0  0  0  0  0
  -22.6910   -7.6570   21.5510 C   0  0  0  0  0  0  0  0  0  0  0  0
  -22.3170   -8.6890   20.6780 C   0  0  0  0  0  3  0  0  0  0  0  0
  -23.0170   -9.9000   20.6640 C   0  0  0  0  0  3  0  0  0  0  0  0
  -21.9570   -6.5070   21.4590 O   0  0  0  0  0  0  0  0  0  0  0  0
  -21.7930   -5.6760   22.5350 C   0  0  0  0  0  0  0  0  0  0  0  0
  -21.2240   -6.1320   23.7430 C   0  0  0  0  0  3  0  0  0  0  0  0
  -21.0040   -5.2250   24.7970 C   0  0  0  0  0  3  0  0  0  0  0  0
  -21.3440   -3.8670   24.6370 C   0  0  0  0  0  0  0  0  0  0  0  0
  -21.9210   -3.4220   23.4340 C   0  0  0  0  0  3  0  0  0  0  0  0
  -22.1340   -4.3230   22.3810 C   0  0  0  0  0  0  0  0  0  0  0  0
  -22.6670   -3.8850   21.2140 F   0  0  0  0  0  0  0  0  0  0  0  0
  -21.1190   -2.9950   25.6480 F   0  0  0  0  0  0  0  0  0  0  0  0
  -22.9550  -13.1970   21.8900 C   0  0  0  0  0  0  0  0  0  0  0  0
  -22.1250  -12.4510   22.6150 N   0  0  0  0  0  0  0  0  0  0  0  0
  -22.5810  -14.2630   21.4190 O   0  0  0  0  0  0  0  0  0  0  0  0
  -22.4170  -11.5860   23.0370 H   0  0  0  0  0  0  0  0  0  0  0  0
  -21.2080  -12.8300   22.8380 H   0  0  0  0  0  0  0  0  0  0  0  0
  -25.7510  -14.8110   21.5650 N   0  0  0  0  0  0  0  0  0  0  0  0
  -24.9670  -15.4440   21.6140 H   0  0  0  0  0  0  0  0  0  0  0  0
  -26.5480  -15.2490   21.1100 H   0  0  0  0  0  0  0  0  0  0  0  0
  -28.7500  -19.3760   20.1330 C   0  0  0  0  0  2  0  0  0  0  0  0
  -27.8910  -20.6920   20.2370 C   0  0  0  0  0  2  0  0  0  0  0  0
  -26.9360  -22.9400   19.9360 C   0  0  0  0  0  2  0  0  0  0  0  0
  -29.3780  -22.9650   20.3540 C   0  0  0  0  0  2  0  0  0  0  0  0
  -26.9720  -24.3870   19.4580 C   0  0  0  0  0  2  0  0  0  0  0  0
  -29.4290  -24.4440   19.8130 C   0  0  0  0  0  2  0  0  0  0  0  0
  -28.2330  -22.1320   19.7090 C   0  0  0  0  0  3  0  0  0  0  0  0
  -28.1240  -25.2610   20.0190 C   0  0  0  0  0  3  0  0  0  0  0  0
  -28.2450  -26.6260   19.4680 O   0  0  0  0  0  0  0  0  0  0  0  0
  -24.5890  -31.6950   23.0250 C   0  0  0  0  0  0  0  0  0  0  0  0
  -27.1270  -27.4590   19.5350 C   0  0  0  0  0  0  0  0  0  0  0  0
  -23.3340  -30.3670   21.3740 C   0  0  0  0  0  3  0  0  0  0  0  0
  -24.7350  -28.9800   19.7730 C   0  0  0  0  0  0  0  0  0  0  0  0
  -25.8490  -30.7640   21.0940 C   0  0  0  0  0  2  0  0  0  0  0  0
  -25.9200  -29.4370   20.3680 C   0  0  0  0  0  0  0  0  0  0  0  0
  -27.1160  -28.6720   20.2750 C   0  0  0  0  0  3  0  0  0  0  0  0
  -25.9540  -27.1380   18.8220 C   0  0  0  0  0  3  0  0  0  0  0  0
  -24.7510  -27.8210   18.9950 C   0  0  0  0  0  3  0  0  0  0  0  0
  -23.4860  -29.8070   19.9420 C   0  0  0  0  0  2  0  0  0  0  0  0
  -24.6100  -30.9540   21.8840 N   0  0  0  0  0  0  0  0  0  0  0  0
  -23.5310  -31.9070   23.6340 O   0  0  0  0  0  0  0  0  0  0  0  0
  -22.7660  -29.2550   22.2870 C   0  0  0  0  0  0  0  0  0  0  0  0
  -21.4480  -29.0100   22.1840 N   0  0  0  0  0  0  0  0  0  0  0  0
  -23.5040  -28.6260   23.0480 O   0  0  0  0  0  0  0  0  0  0  0  0
  -20.9100  -29.5750   21.5440 H   0  0  0  0  0  0  0  0  0  0  0  0
  -18.1620  -27.6030   22.6880 C   0  0  0  0  0  0  0  0  0  0  0  0
  -20.7020  -28.0000   22.9350 C   0  0  0  0  0  3  0  0  0  0  0  0
  -20.8820  -26.5990   22.3090 C   0  0  0  0  0  2  0  0  0  0  0  0
  -19.7870  -26.2420   21.3000 C   0  0  0  0  0  2  0  0  0  0  0  0
  -18.4070  -26.2870   21.9660 C   0  0  0  0  0  2  0  0  0  0  0  0
  -19.2400  -28.4140   23.1290 C   0  0  0  0  0  0  0  0  0  0  0  0
  -18.9590  -29.6430   23.7640 C   0  0  0  0  0  3  0  0  0  0  0  0
  -17.6310  -30.0640   23.9620 C   0  0  0  0  0  3  0  0  0  0  0  0
  -16.5660  -29.2480   23.5390 C   0  0  0  0  0  3  0  0  0  0  0  0
  -16.8330  -28.0200   22.9090 C   0  0  0  0  0  3  0  0  0  0  0  0
  -25.8900  -32.3260   23.6070 C   0  0  0  0  0  3  0  0  0  0  0  0
  -25.5580  -33.6850   24.0550 N   0  0  0  0  0  0  0  0  0  0  0  0
  -25.8080  -34.8010   23.3540 C   0  0  0  0  0  0  0  0  0  0  0  0
  -26.4220  -34.7960   22.2850 O   0  0  0  0  0  0  0  0  0  0  0  0
  -25.0070  -33.7610   24.8980 H   0  0  0  0  0  0  0  0  0  0  0  0
  -24.0010  -36.5460   23.2320 C   0  0  0  0  0  1  0  0  0  0  0  0
  -25.3000  -36.1320   23.9410 C   0  0  0  0  0  3  0  0  0  0  0  0
  -27.4440  -37.0380   24.7180 C   0  0  0  0  0  1  0  0  0  0  0  0
  -26.2850  -37.2290   23.8490 N   0  0  0  0  0  0  0  0  0  0  0  0
  -25.8570  -38.1200   24.0850 H   0  0  0  0  0  0  0  0  0  0  0  0
  -26.5180  -31.4860   24.7880 C   0  0  1  0  0  0  0  0  0  0  0  0
  -25.5070  -31.1350   25.9030 C   0  0  0  0  0  1  0  0  0  0  0  0
  -27.1160  -30.1600   24.2600 C   0  0  0  0  0  1  0  0  0  0  0  0
  -27.6790  -32.2740   25.4370 C   0  0  0  0  0  1  0  0  0  0  0  0
  2  3  2  0
  2  4  1  0
  3  1  1  0
  4 12  1  0
  4  5  1  0
  5 51  1  0
  5  1  1  0
  6  8  1  0
  6  7  1  0
  8  7  1  0
  8  2  1  0
  9 11  1  0
 11  3  1  0
 11 10  1  0
 12 21  1  0
 13 19  1  0
 14 19  1  0
 15 16  1  0
 15 14  1  0
 17 16  1  0
 17 26  1  0
 17 18  1  0
 19 18  1  0
 20 13  2  0
 21 13  1  0
 21 22  1  0
 23 48  1  0
 23 24  2  0
 24 43  1  0
 25 28  1  0
 25 24  1  0
 26 27  1  0
 26 23  1  0
 27 25  2  0
 28 29  1  0
 30 29  2  0
 31 30  1  0
 32 31  2  0
 33 32  1  0
 33 28  2  0
 34 31  1  0
 34 35  1  0
 35 36  1  0
 36 37  2  0
 38 37  1  0
 38 42  1  0
 39 38  2  0
 40 35  2  0
 40 39  1  0
 41 40  1  0
 43 44  1  0
 44 47  1  0
 44 46  1  0
 45 43  2  0
 48 49  1  0
 50 48  1  0
 51 52  1  0
 55 53  1  0
 55 58  1  0
 56 58  1  0
 56 54  1  0
 57 53  1  0
 57 52  1  0
 57 54  1  0
 58 59  1  0
 59 61  1  0
 60 71  2  0
 61 66  1  0
 62 70  1  0
 62 72  1  0
 63 69  1  0
 63 65  1  0
 64 70  1  0
 65 64  1  0
 66 65  2  0
 67 68  1  0
 67 61  2  0
 68 63  2  0
 69 62  1  0
 70 60  1  0
 72 74  2  0
 73 72  1  0
 75 73  1  0
 76 85  2  0
 76 81  1  0
 77 73  1  0
 77 81  1  0
 78 77  1  0
 79 80  1  0
 79 78  1  0
 80 76  1  0
 81 82  2  0
 82 83  1  0
 84 83  2  0
 85 84  1  0
 86 60  1  0
 86 87  1  0
 86 96  1  0
 87 90  1  0
 88 92  1  0
 88 87  1  0
 89 88  2  0
 92 91  1  0
 94 92  1  0
 94 95  1  0
 94 93  1  0
 96 99  1  1
 96 97  1  0
 98 96  1  0
M  ISO  4  13 100  21 100  58 101  59 101
M  END
>  <TORSDO>  (43) 
F 22

>  <SCORE>  (43) 
0.007

>  <name>  (43) 
42

>  <ligand_id>  (43) 
42

>  <original_smiles>  (43) 
[H]c1c([H])c([H])c2c(c1[H])C([H])([H])C([H])([H])C([H])([H])C2([H])N([H])C(=O)C1([H])N(C(=O)C([H])(N([H])C(=O)C([H])(N([H])C([H])([H])[H])C([H])([H])[H])C(C([H])([H])[H])(C([H])([H])[H])C([H])([H])[H])C([H])([H])c2c([H])c(OC3([H])C([H])([H])C([H])([H])C([H])(C([H])([H])C([H])([H])n4c([H])c(C([H])(C([H])([H])[H])C([H])([H])[H])c(C5([H])C([H])([H])C5([H])[H])c4C([H])([H])N([H])C(=O)N4C([H])([H])C([H])([H])C([H])([H])C([H])(n5nc(-c6c([H])c([H])c(Oc7c([H])c([H])c(F)c([H])c7F)c([H])c6[H])c(C(=O)N([H])[H])c5N([H])[H])C4([H])[H])C([H])([H])C3([H])[H])c([H])c([H])c2C1([H])[H]

>  <smiles>  (43) 
[H]c1c([H])c([H])c2c(c1[H])C([H])([H])C([H])([H])C([H])([H])C2([H])N([H])C(=O)C1([H])N(C(=O)C([H])(N([H])C(=O)C([H])(N([H])C([H])([H])[H])C([H])([H])[H])C(C([H])([H])[H])(C([H])([H])[H])C([H])([H])[H])C([H])([H])c2c([H])c(OC3([H])C([H])([H])C([H])([H])C([H])(C([H])([H])C([H])([H])n4c([H])c(C([H])(C([H])([H])[H])C([H])([H])[H])c(C5([H])C([H])([H])C5([H])[H])c4C([H])([H])N([H])C(=O)N4C([H])([H])C([H])([H])C([H])([H])C([H])(n5nc(-c6c([H])c([H])c(Oc7c([H])c([H])c(F)c([H])c7F)c([H])c6[H])c(C(=O)N([H])[H])c5N([H])[H])C4([H])[H])C([H])([H])C3([H])[H])c([H])c([H])c2C1([H])[H]

$$$$
43:0:0
     RDKit          3D

100109  0  0  1  0  0  0  0  0999 V2000
  -30.9640  -14.3650   20.4980 C   0  0  0  0  0  0  0  0  0  0  0  0
  -30.6420  -11.9300   20.2230 C   0  0  0  0  0  2  0  0  0  0  0  0
  -29.8980  -11.6440   18.9040 C   0  0  0  0  0  2  0  0  0  0  0  0
  -28.3790  -11.6230   19.1460 C   0  0  0  0  0  2  0  0  0  0  0  0
  -27.9010  -12.8650   19.9470 C   0  0  0  0  0  3  0  0  0  0  0  0
  -28.8020  -13.1460   21.1800 C   0  0  0  0  0  2  0  0  0  0  0  0
  -30.1980  -13.2470   20.7250 N   0  0  0  0  0  0  0  0  0  0  0  0
  -32.0840  -14.2400   19.9910 O   0  0  0  0  0  0  0  0  0  0  0  0
  -29.5450  -19.8850   18.4110 C   0  0  0  0  0  3  0  0  0  0  0  0
  -29.3210  -17.5860   19.9110 C   0  0  0  0  0  0  0  0  0  0  0  0
  -28.2500  -19.4490   18.7520 C   0  0  0  0  0  0  0  0  0  0  0  0
  -28.1360  -18.2750   19.5380 C   0  0  0  0  0  0  0  0  0  0  0  0
  -30.5580  -18.1770   19.5810 C   0  0  0  0  0  0  0  0  0  0  0  0
  -29.2810  -16.2370   20.6560 C   0  0  0  0  0  2  0  0  0  0  0  0
  -31.8700  -17.5940   20.0650 C   0  0  0  0  0  3  0  0  0  0  0  0
  -31.6430  -16.6040   21.2460 C   0  0  0  0  0  3  0  0  0  0  0  0
  -26.7620  -17.7910   19.9710 C   0  0  0  0  0  1  0  0  0  0  0  0
  -32.6660  -17.0330   18.8700 C   0  0  0  0  0  1  0  0  0  0  0  0
  -30.6690  -19.2970   18.8450 N   0  0  0  0  0  0  0  0  0  0  0  0
  -30.5840  -15.5990   20.9440 N   0  0  0  0  0  0  0  0  0  0  0  0
  -25.5160  -13.7360   20.3550 C   0  0  0  0  0  0  0  0  0  0  0  0
  -24.3540  -13.1010   20.6940 C   0  0  0  0  0  0  0  0  0  0  0  0
  -24.6890  -11.7190   20.8310 C   0  0  0  0  0  0  0  0  0  0  0  0
  -26.4940  -12.7540   20.3140 N   0  0  0  0  0  0  0  0  0  0  0  0
  -25.9920  -11.5380   20.6500 N   0  0  0  0  0  0  0  0  0  0  0  0
  -23.8340  -10.5520   21.0620 C   0  0  0  0  0  0  0  0  0  0  0  0
  -24.1750   -9.5680   22.0150 C   0  0  0  0  0  3  0  0  0  0  0  0
  -23.3250   -8.4650   22.2360 C   0  0  0  0  0  3  0  0  0  0  0  0
  -22.1190   -8.3420   21.5050 C   0  0  0  0  0  0  0  0  0  0  0  0
  -21.8000   -9.3090   20.5380 C   0  0  0  0  0  3  0  0  0  0  0  0
  -22.6490  -10.4050   20.3160 C   0  0  0  0  0  3  0  0  0  0  0  0
  -21.2440   -7.2900   21.6300 O   0  0  0  0  0  0  0  0  0  0  0  0
  -21.2420   -6.4880   22.7420 C   0  0  0  0  0  0  0  0  0  0  0  0
  -21.0640   -7.0110   24.0420 C   0  0  0  0  0  3  0  0  0  0  0  0
  -21.0030   -6.1400   25.1480 C   0  0  0  0  0  3  0  0  0  0  0  0
  -21.1050   -4.7500   24.9550 C   0  0  0  0  0  0  0  0  0  0  0  0
  -21.2740   -4.2280   23.6610 C   0  0  0  0  0  3  0  0  0  0  0  0
  -21.3400   -5.0950   22.5570 C   0  0  0  0  0  0  0  0  0  0  0  0
  -21.4820   -4.5850   21.3100 F   0  0  0  0  0  0  0  0  0  0  0  0
  -21.0380   -3.9120   26.0150 F   0  0  0  0  0  0  0  0  0  0  0  0
  -22.9930  -13.7270   20.7930 C   0  0  0  0  0  0  0  0  0  0  0  0
  -22.1350  -13.1900   21.6530 N   0  0  0  0  0  0  0  0  0  0  0  0
  -22.6980  -14.7290   20.1410 O   0  0  0  0  0  0  0  0  0  0  0  0
  -22.3820  -12.3820   22.2060 H   0  0  0  0  0  0  0  0  0  0  0  0
  -21.2180  -13.6010   21.7650 H   0  0  0  0  0  0  0  0  0  0  0  0
  -25.8090  -15.0560   20.0470 N   0  0  0  0  0  0  0  0  0  0  0  0
  -25.0670  -15.7440   19.9880 H   0  0  0  0  0  0  0  0  0  0  0  0
  -26.7000  -15.4010   19.7200 H   0  0  0  0  0  0  0  0  0  0  0  0
  -26.9980  -20.1960   18.2650 C   0  0  0  0  0  2  0  0  0  0  0  0
  -27.2350  -21.3600   17.2810 C   0  0  0  0  0  2  0  0  0  0  0  0
  -27.9950  -22.5650   17.8970 C   0  0  0  0  0  2  0  0  0  0  0  0
  -29.1280  -23.0460   17.0690 N   0  0  0  0  0  4  0  0  0  0  0  0
  -29.8910  -22.3950   17.1530 H   0  0  0  0  0  0  0  0  0  0  0  0
  -29.4570  -23.9170   17.4590 H   0  0  0  0  0  0  0  0  0  0  0  0
  -28.8240  -23.2400   15.6320 C   0  0  0  0  0  2  0  0  0  0  0  0
  -30.0810  -23.5230   14.7880 C   0  0  0  0  0  2  0  0  0  0  0  0
  -29.9410  -22.8980   13.5170 O   0  0  0  0  0  0  0  0  0  0  0  0
  -27.7040  -28.7240   10.1150 C   0  0  0  0  0  0  0  0  0  0  0  0
  -29.0120  -23.4810   12.7020 C   0  0  0  0  0  0  0  0  0  0  0  0
  -26.1340  -26.8070   10.1300 C   0  0  0  0  0  3  0  0  0  0  0  0
  -27.0890  -24.6070   10.9840 C   0  0  0  0  0  0  0  0  0  0  0  0
  -28.6550  -26.4320   10.2870 C   0  0  0  0  0  2  0  0  0  0  0  0
  -28.3540  -25.1980   11.1100 C   0  0  0  0  0  0  0  0  0  0  0  0
  -29.3190  -24.6450   11.9700 C   0  0  0  0  0  3  0  0  0  0  0  0
  -27.7420  -22.8840   12.5680 C   0  0  0  0  0  3  0  0  0  0  0  0
  -26.7710  -23.4510   11.7200 C   0  0  0  0  0  3  0  0  0  0  0  0
  -26.1280  -25.2600   10.0190 C   0  0  0  0  0  2  0  0  0  0  0  0
  -27.5190  -27.3750   10.2010 N   0  0  0  0  0  0  0  0  0  0  0  0
  -26.7490  -29.4880    9.9320 O   0  0  0  0  0  0  0  0  0  0  0  0
  -25.2410  -27.2180   11.3210 C   0  0  0  0  0  0  0  0  0  0  0  0
  -23.9230  -27.2880   11.0840 N   0  0  0  0  0  0  0  0  0  0  0  0
  -25.7320  -27.4340   12.4330 O   0  0  0  0  0  0  0  0  0  0  0  0
  -23.5990  -27.1150   10.1420 H   0  0  0  0  0  0  0  0  0  0  0  0
  -20.3770  -27.8060   11.5040 C   0  0  0  0  0  0  0  0  0  0  0  0
  -22.8910  -27.6170   12.0670 C   0  0  0  0  0  3  0  0  0  0  0  0
  -22.5080  -26.3740   12.9050 C   0  0  0  0  0  2  0  0  0  0  0  0
  -21.3150  -25.6050   12.3250 C   0  0  0  0  0  2  0  0  0  0  0  0
  -20.0820  -26.5090   12.2380 C   0  0  0  0  0  2  0  0  0  0  0  0
  -21.6980  -28.3170   11.4100 C   0  0  0  0  0  0  0  0  0  0  0  0
  -21.9230  -29.5070   10.6840 C   0  0  0  0  0  3  0  0  0  0  0  0
  -20.8550  -30.1850   10.0660 C   0  0  0  0  0  3  0  0  0  0  0  0
  -19.5460  -29.6830   10.1730 C   0  0  0  0  0  3  0  0  0  0  0  0
  -19.3110  -28.4990   10.8920 C   0  0  0  0  0  3  0  0  0  0  0  0
  -29.1210  -29.3670   10.2170 C   0  0  0  0  0  3  0  0  0  0  0  0
  -29.4260  -29.9750   11.6410 C   0  0  1  0  0  0  0  0  0  0  0  0
  -28.3330  -30.9390   12.1540 C   0  0  0  0  0  1  0  0  0  0  0  0
  -29.5910  -28.8500   12.6870 C   0  0  0  0  0  1  0  0  0  0  0  0
  -30.7660  -30.7440   11.6050 C   0  0  0  0  0  1  0  0  0  0  0  0
  -29.2160  -30.4010    9.1770 N   0  0  0  0  0  0  0  0  0  0  0  0
  -29.8390  -30.2420    8.0010 C   0  0  0  0  0  0  0  0  0  0  0  0
  -30.4650  -29.2210    7.7080 O   0  0  0  0  0  0  0  0  0  0  0  0
  -28.6850  -31.2460    9.3290 H   0  0  0  0  0  0  0  0  0  0  0  0
  -28.6890  -31.0730    5.9250 C   0  0  0  0  0  1  0  0  0  0  0  0
  -29.7540  -31.3990    6.9860 C   0  0  0  0  0  3  0  0  0  0  0  0
  -32.0340  -32.2690    7.2400 C   0  0  0  0  0  1  0  0  0  0  0  0
  -31.0450  -31.7030    6.3280 N   0  0  0  0  0  0  0  0  0  0  0  0
  -30.9130  -32.3510    5.5560 H   0  0  0  0  0  0  0  0  0  0  0  0
  -31.3560  -17.3480   22.5690 C   0  0  0  0  0  2  0  0  0  0  0  0
  -31.1530  -17.1170   24.9040 C   0  0  0  0  0  1  0  0  0  0  0  0
  -31.2750  -16.4380   23.6580 O   0  0  0  0  0  0  0  0  0  0  0  0
  1  7  1  0
  1 20  1  0
  2  7  1  0
  3  4  1  0
  3  2  1  0
  5  4  1  0
  5 24  1  0
  5  6  1  0
  7  6  1  0
  8  1  2  0
  9 11  2  0
  9 19  1  0
 10 14  1  0
 11 12  1  0
 12 10  2  0
 12 17  1  0
 13 10  1  0
 13 15  1  0
 14 20  1  0
 15 18  1  0
 15 16  1  0
 16 98  1  0
 19 13  2  0
 20 16  1  0
 21 22  2  0
 22 41  1  0
 22 23  1  0
 23 26  1  0
 24 21  1  0
 24 25  1  0
 25 23  2  0
 26 27  1  0
 27 28  2  0
 29 32  1  0
 29 28  1  0
 30 29  2  0
 31 30  1  0
 31 26  2  0
 32 33  1  0
 33 34  1  0
 34 35  2  0
 36 35  1  0
 36 40  1  0
 37 36  2  0
 38 33  2  0
 38 37  1  0
 39 38  1  0
 41 42  1  0
 42 45  1  0
 42 44  1  0
 43 41  2  0
 46 21  1  0
 47 46  1  0
 48 46  1  0
 49 11  1  0
 50 51  1  0
 50 49  1  0
 52 53  1  0
 52 54  1  0
 52 51  1  0
 55 52  1  0
 56 55  1  0
 57 56  1  0
 58 68  1  0
 59 57  1  0
 60 68  1  0
 60 70  1  0
 61 63  2  0
 61 66  1  0
 62 63  1  0
 63 64  1  0
 64 59  2  0
 65 59  1  0
 66 65  2  0
 67 60  1  0
 67 61  1  0
 68 62  1  0
 69 58  2  0
 70 72  2  0
 71 70  1  0
 73 71  1  0
 74 78  1  0
 75 71  1  0
 75 76  1  0
 77 76  1  0
 78 77  1  0
 79 74  1  0
 79 75  1  0
 80 79  2  0
 81 82  2  0
 81 80  1  0
 82 83  1  0
 83 74  2  0
 84 58  1  0
 84 85  1  0
 85 86  1  1
 85 87  1  0
 88 85  1  0
 89 92  1  0
 89 84  1  0
 90 89  1  0
 91 90  2  0
 94 93  1  0
 94 90  1  0
 96 94  1  0
 96 95  1  0
 97 96  1  0
 98100  1  0
100 99  1  0
M  ISO  4   1 100  20 100  56 101  57 101
M  END
>  <TORSDO>  (44) 
F 23

>  <SCORE>  (44) 
-1.021

>  <name>  (44) 
43

>  <ligand_id>  (44) 
43

>  <original_smiles>  (44) 
[H]c1nc2c(c(C([H])([H])[H])c1C([H])([H])C([H])([H])C([H])([H])[N+]([H])([H])C([H])([H])C([H])([H])Oc1c([H])c([H])c3c(c1[H])C([H])([H])N(C(=O)C([H])(N([H])C(=O)C([H])(N([H])C([H])([H])[H])C([H])([H])[H])C(C([H])([H])[H])(C([H])([H])[H])C([H])([H])[H])C([H])(C(=O)N([H])C1([H])c4c([H])c([H])c([H])c([H])c4C([H])([H])C([H])([H])C1([H])[H])C3([H])[H])C([H])([H])N(C(=O)N1C([H])([H])C([H])([H])C([H])([H])C([H])(n3nc(-c4c([H])c([H])c(Oc5c([H])c([H])c(F)c([H])c5F)c([H])c4[H])c(C(=O)N([H])[H])c3N([H])[H])C1([H])[H])C([H])(C([H])([H])OC([H])([H])[H])C2([H])C([H])([H])[H]

>  <smiles>  (44) 
[H]c1nc2c(c(C([H])([H])[H])c1C([H])([H])C([H])([H])C([H])([H])[N+]([H])([H])C([H])([H])C([H])([H])Oc1c([H])c([H])c3c(c1[H])C([H])([H])N(C(=O)C([H])(N([H])C(=O)C([H])(N([H])C([H])([H])[H])C([H])([H])[H])C(C([H])([H])[H])(C([H])([H])[H])C([H])([H])[H])C([H])(C(=O)N([H])C1([H])c4c([H])c([H])c([H])c([H])c4C([H])([H])C([H])([H])C1([H])[H])C3([H])[H])C([H])([H])N(C(=O)N1C([H])([H])C([H])([H])C([H])([H])C([H])(n3nc(-c4c([H])c([H])c(Oc5c([H])c([H])c(F)c([H])c5F)c([H])c4[H])c(C(=O)N([H])[H])c3N([H])[H])C1([H])[H])C([H])(C([H])([H])OC([H])([H])[H])C2([H])C([H])([H])[H]

$$$$
44:0:0
     RDKit          3D

 95106  0  0  1  0  0  0  0  0999 V2000
  -26.1940  -20.1640   20.1030 C   0  0  0  0  0  3  0  0  0  0  0  0
  -25.0850  -19.4000   19.7730 C   0  0  0  0  0  3  0  0  0  0  0  0
  -27.5420  -18.1170   20.1250 C   0  0  0  0  0  0  0  0  0  0  0  0
  -27.4590  -19.5630   20.3450 C   0  0  0  0  0  0  0  0  0  0  0  0
  -26.2810  -17.4270   19.9780 C   0  0  0  0  0  0  0  0  0  0  0  0
  -25.1210  -18.0700   19.7520 N   0  0  0  0  0  0  0  0  0  0  0  0
  -24.6140  -15.4060   20.4200 C   0  0  0  0  0  3  0  0  0  0  0  0
  -25.7300  -15.2290   21.4030 C   0  0  0  0  0  2  0  0  0  0  0  0
  -26.0040  -15.9310   20.0750 C   0  0  2  0  0  0  0  0  0  0  0  0
  -29.5990  -16.7670   21.2120 C   0  0  0  0  0  2  0  0  0  0  0  0
  -28.8930  -17.3390   20.0040 C   0  0  0  0  0  3  0  0  0  0  0  0
  -29.0910  -15.7830   20.1780 C   0  0  0  0  0  3  0  0  0  0  0  0
  -30.8040  -13.8970   19.9580 C   0  0  0  0  0  0  0  0  0  0  0  0
  -30.6460  -11.4810   19.4760 C   0  0  0  0  0  2  0  0  0  0  0  0
  -29.7600  -11.2690   18.2280 C   0  0  0  0  0  2  0  0  0  0  0  0
  -28.2830  -11.1410   18.6340 C   0  0  0  0  0  2  0  0  0  0  0  0
  -27.8310  -12.2550   19.6110 C   0  0  0  0  0  3  0  0  0  0  0  0
  -28.8470  -12.4560   20.7570 C   0  0  0  0  0  2  0  0  0  0  0  0
  -30.1530  -12.7070   20.1350 N   0  0  0  0  0  0  0  0  0  0  0  0
  -32.0000  -13.9240   19.6850 O   0  0  0  0  0  0  0  0  0  0  0  0
  -30.1110  -14.9920   19.5260 N   0  0  0  0  0  0  0  0  0  0  0  0
  -30.6880  -15.5450   18.9070 H   0  0  0  0  0  0  0  0  0  0  0  0
  -25.4120  -12.8720   20.1950 C   0  0  0  0  0  0  0  0  0  0  0  0
  -24.3600  -12.1340   20.6660 C   0  0  0  0  0  0  0  0  0  0  0  0
  -24.8500  -10.7990   20.8070 C   0  0  0  0  0  0  0  0  0  0  0  0
  -26.4820  -11.9990   20.1070 N   0  0  0  0  0  0  0  0  0  0  0  0
  -26.1470  -10.7500   20.5250 N   0  0  0  0  0  0  0  0  0  0  0  0
  -24.1440   -9.5510   21.1260 C   0  0  0  0  0  0  0  0  0  0  0  0
  -24.5370   -8.7340   22.2090 C   0  0  0  0  0  3  0  0  0  0  0  0
  -23.8220   -7.5530   22.5100 C   0  0  0  0  0  3  0  0  0  0  0  0
  -22.7040   -7.1800   21.7260 C   0  0  0  0  0  0  0  0  0  0  0  0
  -22.3330   -7.9890   20.6370 C   0  0  0  0  0  3  0  0  0  0  0  0
  -23.0460   -9.1590   20.3330 C   0  0  0  0  0  3  0  0  0  0  0  0
  -21.9700   -6.0350   21.9280 O   0  0  0  0  0  0  0  0  0  0  0  0
  -21.8260   -5.4850   23.1790 C   0  0  0  0  0  0  0  0  0  0  0  0
  -21.2420   -6.2030   24.2460 C   0  0  0  0  0  3  0  0  0  0  0  0
  -21.0490   -5.5800   25.4950 C   0  0  0  0  0  3  0  0  0  0  0  0
  -21.4270   -4.2350   25.6770 C   0  0  0  0  0  0  0  0  0  0  0  0
  -22.0030   -3.5170   24.6170 C   0  0  0  0  0  3  0  0  0  0  0  0
  -22.2030   -4.1400   23.3690 C   0  0  0  0  0  0  0  0  0  0  0  0
  -22.7350   -3.4330   22.3430 F   0  0  0  0  0  0  0  0  0  0  0  0
  -21.2390   -3.6340   26.8760 F   0  0  0  0  0  0  0  0  0  0  0  0
  -22.9500  -12.6140   20.8540 C   0  0  0  0  0  0  0  0  0  0  0  0
  -22.2230  -12.0210   21.7970 N   0  0  0  0  0  0  0  0  0  0  0  0
  -22.4990  -13.5540   20.2060 O   0  0  0  0  0  0  0  0  0  0  0  0
  -22.6040  -11.2630   22.3450 H   0  0  0  0  0  0  0  0  0  0  0  0
  -21.2830  -12.3420   21.9770 H   0  0  0  0  0  0  0  0  0  0  0  0
  -25.5400  -14.1970   19.7980 N   0  0  0  0  0  0  0  0  0  0  0  0
  -24.7440  -14.8250   19.7740 H   0  0  0  0  0  0  0  0  0  0  0  0
  -26.3620  -14.5800   19.3480 H   0  0  0  0  0  0  0  0  0  0  0  0
  -28.5130  -20.4020   20.7800 O   0  0  0  0  0  0  0  0  0  0  0  0
  -28.1750  -21.8250   21.0400 C   0  0  0  0  0  2  0  0  0  0  0  0
  -29.2330  -22.9930   21.2360 C   0  0  0  0  0  2  0  0  0  0  0  0
  -28.5880  -24.3590   21.7440 C   0  0  0  0  0  2  0  0  0  0  0  0
  -28.9970  -25.6840   21.2210 O   0  0  0  0  0  0  0  0  0  0  0  0
  -24.9430  -31.2610   23.3210 C   0  0  0  0  0  0  0  0  0  0  0  0
  -27.9380  -26.5540   20.9500 C   0  0  0  0  0  0  0  0  0  0  0  0
  -23.9760  -29.7490   21.6260 C   0  0  0  0  0  3  0  0  0  0  0  0
  -25.6080  -28.1300   20.5080 C   0  0  0  0  0  0  0  0  0  0  0  0
  -26.5170  -30.0850   21.7650 C   0  0  0  0  0  2  0  0  0  0  0  0
  -26.6840  -28.6690   21.2250 C   0  0  0  0  0  0  0  0  0  0  0  0
  -27.8590  -27.8890   21.4410 C   0  0  0  0  0  3  0  0  0  0  0  0
  -26.8580  -26.0700   20.1810 C   0  0  0  0  0  3  0  0  0  0  0  0
  -25.6940  -26.8330   19.9800 C   0  0  0  0  0  3  0  0  0  0  0  0
  -24.3750  -28.9910   20.3330 C   0  0  0  0  0  2  0  0  0  0  0  0
  -25.1580  -30.3860   22.2940 N   0  0  0  0  0  0  0  0  0  0  0  0
  -23.7990  -31.5570   23.6880 O   0  0  0  0  0  0  0  0  0  0  0  0
  -23.1930  -28.7870   22.5500 C   0  0  0  0  0  0  0  0  0  0  0  0
  -21.8920  -28.6020   22.2710 N   0  0  0  0  0  0  0  0  0  0  0  0
  -23.7650  -28.2030   23.4780 O   0  0  0  0  0  0  0  0  0  0  0  0
  -21.4950  -29.1240   21.5020 H   0  0  0  0  0  0  0  0  0  0  0  0
  -18.4430  -27.5310   22.4920 C   0  0  0  0  0  0  0  0  0  0  0  0
  -20.9760  -27.7100   22.9850 C   0  0  0  0  0  3  0  0  0  0  0  0
  -21.0750  -26.2620   22.4520 C   0  0  0  0  0  2  0  0  0  0  0  0
  -20.0560  -25.9540   21.3500 C   0  0  0  0  0  2  0  0  0  0  0  0
  -18.6290  -26.1610   21.8650 C   0  0  0  0  0  2  0  0  0  0  0  0
  -19.5460  -28.2660   23.0050 C   0  0  0  0  0  0  0  0  0  0  0  0
  -19.3200  -29.5500   23.5450 C   0  0  0  0  0  3  0  0  0  0  0  0
  -18.0230  -30.0980   23.5810 C   0  0  0  0  0  3  0  0  0  0  0  0
  -16.9340  -29.3610   23.0860 C   0  0  0  0  0  3  0  0  0  0  0  0
  -17.1460  -28.0810   22.5450 C   0  0  0  0  0  3  0  0  0  0  0  0
  -26.1310  -31.9450   24.0660 C   0  0  0  0  0  3  0  0  0  0  0  0
  -25.7810  -33.3610   24.2500 N   0  0  0  0  0  0  0  0  0  0  0  0
  -26.2220  -34.3590   23.4750 C   0  0  0  0  0  0  0  0  0  0  0  0
  -27.0300  -34.1880   22.5580 O   0  0  0  0  0  0  0  0  0  0  0  0
  -25.0770  -33.5660   24.9420 H   0  0  0  0  0  0  0  0  0  0  0  0
  -24.5720  -36.1170   22.7570 C   0  0  0  0  0  1  0  0  0  0  0  0
  -25.6830  -35.7740   23.7600 C   0  0  0  0  0  3  0  0  0  0  0  0
  -27.6840  -36.7270   24.8200 C   0  0  0  0  0  1  0  0  0  0  0  0
  -26.7270  -36.8210   23.7210 N   0  0  0  0  0  0  0  0  0  0  0  0
  -26.3120  -37.7470   23.7400 H   0  0  0  0  0  0  0  0  0  0  0  0
  -26.4610  -31.2690   25.4540 C   0  0  1  0  0  0  0  0  0  0  0  0
  -25.2290  -31.0790   26.3690 C   0  0  0  0  0  1  0  0  0  0  0  0
  -27.1100  -29.8820   25.2460 C   0  0  0  0  0  1  0  0  0  0  0  0
  -27.4980  -32.1270   26.2170 C   0  0  0  0  0  1  0  0  0  0  0  0
  1  4  1  0
  2  1  2  0
  3  4  2  0
  4 51  1  0
  5  9  1  0
  5  3  1  0
  6  2  1  0
  6  5  2  0
  7  8  1  0
  9  7  1  0
  9  8  1  1
 11  3  1  0
 11 12  1  0
 11 10  1  0
 12 10  1  0
 13 19  1  0
 14 19  1  0
 15 16  1  0
 15 14  1  0
 17 16  1  0
 17 26  1  0
 17 18  1  0
 19 18  1  0
 20 13  2  0
 21 13  1  0
 21 12  1  0
 22 21  1  0
 23 24  2  0
 24 25  1  0
 24 43  1  0
 25 28  1  0
 26 23  1  0
 26 27  1  0
 27 25  2  0
 28 29  1  0
 29 30  2  0
 31 34  1  0
 31 30  1  0
 32 31  2  0
 33 32  1  0
 33 28  2  0
 34 35  1  0
 35 40  2  0
 35 36  1  0
 36 37  2  0
 37 38  1  0
 38 42  1  0
 39 38  2  0
 40 39  1  0
 41 40  1  0
 43 44  1  0
 44 47  1  0
 44 46  1  0
 45 43  2  0
 48  9  1  0
 48 23  1  0
 49  7  1  0
 50 48  1  0
 51 52  1  0
 52 53  1  0
 53 54  1  0
 55 54  1  0
 56 67  2  0
 57 55  1  0
 57 62  1  0
 58 66  1  0
 58 68  1  0
 59 61  1  0
 60 66  1  0
 61 62  2  0
 61 60  1  0
 63 57  2  0
 64 63  1  0
 64 59  2  0
 65 59  1  0
 65 58  1  0
 66 56  1  0
 68 70  2  0
 69 68  1  0
 71 69  1  0
 72 81  2  0
 72 77  1  0
 73 69  1  0
 73 77  1  0
 74 73  1  0
 75 76  1  0
 75 74  1  0
 76 72  1  0
 77 78  2  0
 78 79  1  0
 80 79  2  0
 81 80  1  0
 82 56  1  0
 82 83  1  0
 82 92  1  0
 83 86  1  0
 84 88  1  0
 84 83  1  0
 85 84  2  0
 88 87  1  0
 90 91  1  0
 90 88  1  0
 90 89  1  0
 92 95  1  1
 92 93  1  0
 94 92  1  0
M  ISO  4  13 100  21 100  54 101  55 101
M  END
>  <TORSDO>  (45) 
F 22

>  <SCORE>  (45) 
-5.387

>  <name>  (45) 
44

>  <ligand_id>  (45) 
44

>  <original_smiles>  (45) 
[H]c1nc(C2([H])C([H])([H])C2([H])[H])c(C2([H])C([H])([H])C2([H])N([H])C(=O)N2C([H])([H])C([H])([H])C([H])([H])C([H])(n3nc(-c4c([H])c([H])c(Oc5c([H])c([H])c(F)c([H])c5F)c([H])c4[H])c(C(=O)N([H])[H])c3N([H])[H])C2([H])[H])c(OC([H])([H])C([H])([H])C([H])([H])Oc2c([H])c([H])c3c(c2[H])C([H])([H])N(C(=O)C([H])(N([H])C(=O)C([H])(N([H])C([H])([H])[H])C([H])([H])[H])C(C([H])([H])[H])(C([H])([H])[H])C([H])([H])[H])C([H])(C(=O)N([H])C2([H])c4c([H])c([H])c([H])c([H])c4C([H])([H])C([H])([H])C2([H])[H])C3([H])[H])c1[H]

>  <smiles>  (45) 
[H]c1nc(C2([H])C([H])([H])C2([H])[H])c(C2([H])C([H])([H])C2([H])N([H])C(=O)N2C([H])([H])C([H])([H])C([H])([H])C([H])(n3nc(-c4c([H])c([H])c(Oc5c([H])c([H])c(F)c([H])c5F)c([H])c4[H])c(C(=O)N([H])[H])c3N([H])[H])C2([H])[H])c(OC([H])([H])C([H])([H])C([H])([H])Oc2c([H])c([H])c3c(c2[H])C([H])([H])N(C(=O)C([H])(N([H])C(=O)C([H])(N([H])C([H])([H])[H])C([H])([H])[H])C(C([H])([H])[H])(C([H])([H])[H])C([H])([H])[H])C([H])(C(=O)N([H])C2([H])c4c([H])c([H])c([H])c([H])c4C([H])([H])C([H])([H])C2([H])[H])C3([H])[H])c1[H]

$$$$
45:0:0
     RDKit          3D

 93101  0  0  1  0  0  0  0  0999 V2000
  -30.7490  -19.5540   22.1920 C   0  0  0  0  0  3  0  0  0  0  0  0
  -30.2020  -20.7740   21.7600 C   0  0  0  0  0  3  0  0  0  0  0  0
  -30.4490  -18.3590   21.4980 C   0  0  0  0  0  0  0  0  0  0  0  0
  -29.5410  -18.4340   20.4130 C   0  0  0  0  0  0  0  0  0  0  0  0
  -29.3780  -20.7930   20.6230 C   0  0  0  0  0  0  0  0  0  0  0  0
  -29.0610  -19.6390   19.9750 N   0  0  0  0  0  0  0  0  0  0  0  0
  -27.7450  -17.2680   18.9760 C   0  0  0  0  0  1  0  0  0  0  0  0
  -29.1750  -17.1820   19.5610 C   0  0  0  0  0  3  0  0  0  0  0  0
  -30.1410  -14.8610   19.8890 C   0  0  0  0  0  0  0  0  0  0  0  0
  -29.9300  -12.6700   18.7960 C   0  0  0  0  0  2  0  0  0  0  0  0
  -28.8480  -12.8300   17.7030 C   0  0  0  0  0  2  0  0  0  0  0  0
  -27.4430  -12.5720   18.2800 C   0  0  0  0  0  2  0  0  0  0  0  0
  -27.1880  -13.3370   19.6100 C   0  0  0  0  0  3  0  0  0  0  0  0
  -28.3800  -13.1930   20.5870 C   0  0  0  0  0  2  0  0  0  0  0  0
  -29.6020  -13.6100   19.8800 N   0  0  0  0  0  0  0  0  0  0  0  0
  -31.2310  -15.1120   19.3680 O   0  0  0  0  0  0  0  0  0  0  0  0
  -29.2770  -15.8500   20.2180 N   0  0  0  0  0  0  0  0  0  0  0  0
  -28.4610  -15.5610   20.7320 H   0  0  0  0  0  0  0  0  0  0  0  0
  -24.8560  -13.7330   20.6170 C   0  0  0  0  0  0  0  0  0  0  0  0
  -23.8920  -12.8700   21.0640 C   0  0  0  0  0  0  0  0  0  0  0  0
  -24.4360  -11.5570   20.9080 C   0  0  0  0  0  0  0  0  0  0  0  0
  -25.9240  -12.9410   20.2230 N   0  0  0  0  0  0  0  0  0  0  0  0
  -25.6820  -11.6260   20.4550 N   0  0  0  0  0  0  0  0  0  0  0  0
  -23.8220  -10.2390   21.1090 C   0  0  0  0  0  0  0  0  0  0  0  0
  -24.3280   -9.3240   22.0580 C   0  0  0  0  0  3  0  0  0  0  0  0
  -23.7070   -8.0700   22.2450 C   0  0  0  0  0  3  0  0  0  0  0  0
  -22.5670   -7.7220   21.4820 C   0  0  0  0  0  0  0  0  0  0  0  0
  -22.0810   -8.6290   20.5240 C   0  0  0  0  0  3  0  0  0  0  0  0
  -22.7040   -9.8740   20.3360 C   0  0  0  0  0  3  0  0  0  0  0  0
  -21.9140   -6.5170   21.5800 O   0  0  0  0  0  0  0  0  0  0  0  0
  -21.8090   -5.8500   22.7740 C   0  0  0  0  0  0  0  0  0  0  0  0
  -21.1640   -6.4200   23.8930 C   0  0  0  0  0  3  0  0  0  0  0  0
  -21.0140   -5.6700   25.0770 C   0  0  0  0  0  3  0  0  0  0  0  0
  -21.5050   -4.3520   25.1450 C   0  0  0  0  0  0  0  0  0  0  0  0
  -22.1440   -3.7810   24.0300 C   0  0  0  0  0  3  0  0  0  0  0  0
  -22.2930   -4.5280   22.8470 C   0  0  0  0  0  0  0  0  0  0  0  0
  -22.8910   -3.9650   21.7700 F   0  0  0  0  0  0  0  0  0  0  0  0
  -21.3550   -3.6280   26.2800 F   0  0  0  0  0  0  0  0  0  0  0  0
  -22.5070  -13.2340   21.5140 C   0  0  0  0  0  0  0  0  0  0  0  0
  -21.9250  -12.4480   22.4130 N   0  0  0  0  0  0  0  0  0  0  0  0
  -21.9500  -14.2530   21.1060 O   0  0  0  0  0  0  0  0  0  0  0  0
  -22.3920  -11.6280   22.7710 H   0  0  0  0  0  0  0  0  0  0  0  0
  -21.0000  -12.6730   22.7510 H   0  0  0  0  0  0  0  0  0  0  0  0
  -24.9050  -15.1170   20.4920 N   0  0  0  0  0  0  0  0  0  0  0  0
  -24.1070  -15.7060   20.7090 H   0  0  0  0  0  0  0  0  0  0  0  0
  -25.6600  -15.6240   20.0510 H   0  0  0  0  0  0  0  0  0  0  0  0
  -32.4020  -17.1480   22.1640 C   0  0  0  0  0  1  0  0  0  0  0  0
  -31.0210  -17.1500   21.8270 O   0  0  0  0  0  0  0  0  0  0  0  0
  -28.8560  -21.9550   20.0490 O   0  0  0  0  0  0  0  0  0  0  0  0
  -29.1090  -23.2280   20.6880 C   0  0  0  0  0  2  0  0  0  0  0  0
  -28.6630  -24.4800   19.8630 C   0  0  0  0  0  2  0  0  0  0  0  0
  -28.5850  -25.7980   20.6970 C   0  0  0  0  0  2  0  0  0  0  0  0
  -28.5040  -27.0150   19.9210 O   0  0  0  0  0  0  0  0  0  0  0  0
  -24.6700  -31.9770   23.3600 C   0  0  0  0  0  0  0  0  0  0  0  0
  -27.3260  -27.7340   20.0140 C   0  0  0  0  0  0  0  0  0  0  0  0
  -23.4520  -30.6350   21.6790 C   0  0  0  0  0  3  0  0  0  0  0  0
  -24.9040  -29.1950   20.1490 C   0  0  0  0  0  0  0  0  0  0  0  0
  -25.9650  -31.0560   21.4360 C   0  0  0  0  0  2  0  0  0  0  0  0
  -26.0650  -29.7160   20.7320 C   0  0  0  0  0  0  0  0  0  0  0  0
  -27.2830  -28.9960   20.6550 C   0  0  0  0  0  3  0  0  0  0  0  0
  -26.1480  -27.2260   19.4320 C   0  0  0  0  0  3  0  0  0  0  0  0
  -24.9410  -27.9540   19.4890 C   0  0  0  0  0  3  0  0  0  0  0  0
  -23.6440  -30.0250   20.2650 C   0  0  0  0  0  2  0  0  0  0  0  0
  -24.7160  -31.2360   22.2170 N   0  0  0  0  0  0  0  0  0  0  0  0
  -23.5970  -32.1980   23.9390 O   0  0  0  0  0  0  0  0  0  0  0  0
  -22.8460  -29.5540   22.6050 C   0  0  0  0  0  0  0  0  0  0  0  0
  -21.5370  -29.2950   22.4440 N   0  0  0  0  0  0  0  0  0  0  0  0
  -23.5490  -28.9530   23.4220 O   0  0  0  0  0  0  0  0  0  0  0  0
  -21.0270  -29.8360   21.7600 H   0  0  0  0  0  0  0  0  0  0  0  0
  -18.2490  -27.8310   22.7790 C   0  0  0  0  0  0  0  0  0  0  0  0
  -20.7630  -28.2920   23.1750 C   0  0  0  0  0  3  0  0  0  0  0  0
  -21.0050  -26.8770   22.6010 C   0  0  0  0  0  2  0  0  0  0  0  0
  -19.9810  -26.4720   21.5360 C   0  0  0  0  0  2  0  0  0  0  0  0
  -18.5640  -26.5040   22.1140 C   0  0  0  0  0  2  0  0  0  0  0  0
  -19.2810  -28.6780   23.2630 C   0  0  0  0  0  0  0  0  0  0  0  0
  -18.9350  -29.9180   23.8440 C   0  0  0  0  0  3  0  0  0  0  0  0
  -17.5870  -30.3120   23.9500 C   0  0  0  0  0  3  0  0  0  0  0  0
  -16.5690  -29.4630   23.4800 C   0  0  0  0  0  3  0  0  0  0  0  0
  -16.9010  -28.2250   22.9020 C   0  0  0  0  0  3  0  0  0  0  0  0
  -25.9560  -32.6030   23.9840 C   0  0  0  0  0  3  0  0  0  0  0  0
  -25.6620  -34.0100   24.2890 N   0  0  0  0  0  0  0  0  0  0  0  0
  -26.0140  -35.0450   23.5160 C   0  0  0  0  0  0  0  0  0  0  0  0
  -26.6910  -34.9160   22.4930 O   0  0  0  0  0  0  0  0  0  0  0  0
  -25.0550  -34.1820   25.0770 H   0  0  0  0  0  0  0  0  0  0  0  0
  -24.3040  -36.8500   23.1320 C   0  0  0  0  0  1  0  0  0  0  0  0
  -25.5410  -36.4470   23.9490 C   0  0  0  0  0  3  0  0  0  0  0  0
  -27.6810  -37.3330   24.7690 C   0  0  0  0  0  1  0  0  0  0  0  0
  -26.5840  -37.4870   23.8180 N   0  0  0  0  0  0  0  0  0  0  0  0
  -26.1860  -38.4140   23.9370 H   0  0  0  0  0  0  0  0  0  0  0  0
  -26.4580  -31.8430   25.2720 C   0  0  1  0  0  0  0  0  0  0  0  0
  -25.3450  -31.5910   26.3150 C   0  0  0  0  0  1  0  0  0  0  0  0
  -27.0700  -30.4740   24.8920 C   0  0  0  0  0  1  0  0  0  0  0  0
  -27.5830  -32.6580   25.9540 C   0  0  0  0  0  1  0  0  0  0  0  0
  2  1  2  0
  3 48  1  0
  3  1  1  0
  4  3  2  0
  5  2  1  0
  6  4  1  0
  6  5  2  0
  8  7  1  0
  8 17  1  0
  8  4  1  0
  9 17  1  0
 10 15  1  0
 11 12  1  0
 11 10  1  0
 13 12  1  0
 13 22  1  0
 13 14  1  0
 15  9  1  0
 15 14  1  0
 16  9  2  0
 17 18  1  0
 19 20  2  0
 20 39  1  0
 21 20  1  0
 21 24  1  0
 22 23  1  0
 22 19  1  0
 23 21  2  0
 24 25  1  0
 25 26  2  0
 27 30  1  0
 27 26  1  0
 28 27  2  0
 29 28  1  0
 29 24  2  0
 30 31  1  0
 31 36  2  0
 31 32  1  0
 32 33  2  0
 33 34  1  0
 34 38  1  0
 35 34  2  0
 36 35  1  0
 37 36  1  0
 39 40  1  0
 40 43  1  0
 40 42  1  0
 41 39  2  0
 44 19  1  0
 44 45  1  0
 46 44  1  0
 48 47  1  0
 49  5  1  0
 49 50  1  0
 51 50  1  0
 51 52  1  0
 53 55  1  0
 53 52  1  0
 54 65  2  0
 55 60  1  0
 56 64  1  0
 56 66  1  0
 57 63  1  0
 57 59  1  0
 58 64  1  0
 59 58  1  0
 60 59  2  0
 61 62  1  0
 61 55  2  0
 62 57  2  0
 63 56  1  0
 64 54  1  0
 66 68  2  0
 67 66  1  0
 69 67  1  0
 70 79  2  0
 70 75  1  0
 71 67  1  0
 71 75  1  0
 72 71  1  0
 73 74  1  0
 73 72  1  0
 74 70  1  0
 75 76  2  0
 76 77  1  0
 78 77  2  0
 79 78  1  0
 80 54  1  0
 80 81  1  0
 80 90  1  0
 81 84  1  0
 82 86  1  0
 82 81  1  0
 83 82  2  0
 86 85  1  0
 88 89  1  0
 88 86  1  0
 88 87  1  0
 90 93  1  1
 90 91  1  0
 92 90  1  0
M  ISO  4   9 100  17 100  52 101  53 101
M  END
>  <TORSDO>  (46) 
F 22

>  <SCORE>  (46) 
-10.813

>  <name>  (46) 
45

>  <ligand_id>  (46) 
45

>  <original_smiles>  (46) 
[H]c1c(OC([H])([H])C([H])([H])C([H])([H])Oc2c([H])c([H])c3c(c2[H])C([H])([H])N(C(=O)C([H])(N([H])C(=O)C([H])(N([H])C([H])([H])[H])C([H])([H])[H])C(C([H])([H])[H])(C([H])([H])[H])C([H])([H])[H])C([H])(C(=O)N([H])C2([H])c4c([H])c([H])c([H])c([H])c4C([H])([H])C([H])([H])C2([H])[H])C3([H])[H])nc(C([H])(N([H])C(=O)N2C([H])([H])C([H])([H])C([H])([H])C([H])(n3nc(-c4c([H])c([H])c(Oc5c([H])c([H])c(F)c([H])c5F)c([H])c4[H])c(C(=O)N([H])[H])c3N([H])[H])C2([H])[H])C([H])([H])[H])c(OC([H])([H])[H])c1[H]

>  <smiles>  (46) 
[H]c1c(OC([H])([H])C([H])([H])C([H])([H])Oc2c([H])c([H])c3c(c2[H])C([H])([H])N(C(=O)C([H])(N([H])C(=O)C([H])(N([H])C([H])([H])[H])C([H])([H])[H])C(C([H])([H])[H])(C([H])([H])[H])C([H])([H])[H])C([H])(C(=O)N([H])C2([H])c4c([H])c([H])c([H])c([H])c4C([H])([H])C([H])([H])C2([H])[H])C3([H])[H])nc(C([H])(N([H])C(=O)N2C([H])([H])C([H])([H])C([H])([H])C([H])(n3nc(-c4c([H])c([H])c(Oc5c([H])c([H])c(F)c([H])c5F)c([H])c4[H])c(C(=O)N([H])[H])c3N([H])[H])C2([H])[H])C([H])([H])[H])c(OC([H])([H])[H])c1[H]

$$$$
46:0:0
     RDKit          3D

 97106  0  0  1  0  0  0  0  0999 V2000
  -30.2360  -22.4330   20.5890 N   0  0  0  0  0  0  0  0  0  0  0  0
  -31.1880  -22.4160   20.9380 H   0  0  0  0  0  0  0  0  0  0  0  0
  -30.7080  -24.8080   20.1400 C   0  0  0  0  0  2  0  0  0  0  0  0
  -28.5710  -23.7910   19.2510 C   0  0  0  0  0  2  0  0  0  0  0  0
  -30.5020  -26.0270   19.2100 C   0  0  0  0  0  2  0  0  0  0  0  0
  -28.4370  -24.9900   18.2980 C   0  0  0  0  0  2  0  0  0  0  0  0
  -30.0480  -23.5110   19.6110 C   0  0  0  0  0  3  0  0  0  0  0  0
  -29.0140  -26.2870   18.9030 C   0  0  0  0  0  3  0  0  0  0  0  0
  -28.4150  -26.7260   20.1300 O   0  0  0  0  0  0  0  0  0  0  0  0
  -24.6220  -31.8910   23.2240 C   0  0  0  0  0  0  0  0  0  0  0  0
  -27.2460  -27.4560   20.1000 C   0  0  0  0  0  0  0  0  0  0  0  0
  -23.4000  -30.4850   21.5970 C   0  0  0  0  0  3  0  0  0  0  0  0
  -24.8400  -28.9480   20.1620 C   0  0  0  0  0  0  0  0  0  0  0  0
  -25.9250  -30.8450   21.3760 C   0  0  0  0  0  2  0  0  0  0  0  0
  -26.0040  -29.4760   20.7330 C   0  0  0  0  0  0  0  0  0  0  0  0
  -27.2070  -28.7330   20.7070 C   0  0  0  0  0  3  0  0  0  0  0  0
  -26.0520  -26.9270   19.5630 C   0  0  0  0  0  3  0  0  0  0  0  0
  -24.8560  -27.6690   19.5810 C   0  0  0  0  0  3  0  0  0  0  0  0
  -23.5960  -29.8040   20.2170 C   0  0  0  0  0  2  0  0  0  0  0  0
  -24.6670  -31.0890   22.1220 N   0  0  0  0  0  0  0  0  0  0  0  0
  -23.5460  -32.1640   23.7730 O   0  0  0  0  0  0  0  0  0  0  0  0
  -22.7590  -29.4660   22.5670 C   0  0  0  0  0  0  0  0  0  0  0  0
  -21.4340  -29.2830   22.4520 N   0  0  0  0  0  0  0  0  0  0  0  0
  -23.4510  -28.8440   23.3790 O   0  0  0  0  0  0  0  0  0  0  0  0
  -20.9380  -29.8370   21.7680 H   0  0  0  0  0  0  0  0  0  0  0  0
  -18.0640  -28.0810   22.9720 C   0  0  0  0  0  0  0  0  0  0  0  0
  -20.6230  -28.3470   23.2310 C   0  0  0  0  0  3  0  0  0  0  0  0
  -20.7280  -26.9130   22.6630 C   0  0  0  0  0  2  0  0  0  0  0  0
  -19.6220  -26.5810   21.6550 C   0  0  0  0  0  2  0  0  0  0  0  0
  -18.2420  -26.7280   22.3040 C   0  0  0  0  0  2  0  0  0  0  0  0
  -19.1840  -28.8480   23.3930 C   0  0  0  0  0  0  0  0  0  0  0  0
  -18.9650  -30.1160   23.9760 C   0  0  0  0  0  3  0  0  0  0  0  0
  -17.6600  -30.6160   24.1430 C   0  0  0  0  0  3  0  0  0  0  0  0
  -16.5560  -29.8450   23.7390 C   0  0  0  0  0  3  0  0  0  0  0  0
  -16.7590  -28.5810   23.1590 C   0  0  0  0  0  3  0  0  0  0  0  0
  -25.9140  -32.5230   23.8320 C   0  0  0  0  0  3  0  0  0  0  0  0
  -25.6040  -33.9150   24.1790 N   0  0  0  0  0  0  0  0  0  0  0  0
  -25.9210  -34.9750   23.4220 C   0  0  0  0  0  0  0  0  0  0  0  0
  -26.5790  -34.8830   22.3820 O   0  0  0  0  0  0  0  0  0  0  0  0
  -25.0180  -34.0610   24.9870 H   0  0  0  0  0  0  0  0  0  0  0  0
  -24.1760  -36.7570   23.1070 C   0  0  0  0  0  1  0  0  0  0  0  0
  -25.4320  -36.3570   23.8970 C   0  0  0  0  0  3  0  0  0  0  0  0
  -27.5790  -37.2430   24.6930 C   0  0  0  0  0  1  0  0  0  0  0  0
  -26.4540  -37.4180   23.7790 N   0  0  0  0  0  0  0  0  0  0  0  0
  -26.0450  -38.3330   23.9520 H   0  0  0  0  0  0  0  0  0  0  0  0
  -26.4560  -31.7400   25.0900 C   0  0  1  0  0  0  0  0  0  0  0  0
  -25.3830  -31.4860   26.1740 C   0  0  0  0  0  1  0  0  0  0  0  0
  -27.0370  -30.3690   24.6720 C   0  0  0  0  0  1  0  0  0  0  0  0
  -27.6150  -32.5320   25.7410 C   0  0  0  0  0  1  0  0  0  0  0  0
  -28.4170  -20.7570   20.2100 C   0  0  0  0  0  3  0  0  0  0  0  0
  -28.3970  -19.4090   20.0100 C   0  0  0  0  0  3  0  0  0  0  0  0
  -29.7810  -21.1360   20.3050 C   0  0  0  0  0  0  0  0  0  0  0  0
  -30.5750  -20.0180   20.2050 C   0  0  0  0  0  0  0  0  0  0  0  0
  -29.7020  -18.9390   20.0120 N   0  0  0  0  0  0  0  0  0  0  0  0
  -32.5800  -20.0560   21.7340 C   0  0  0  0  0  1  0  0  0  0  0  0
  -32.8450  -20.7010   19.3000 C   0  0  0  0  0  1  0  0  0  0  0  0
  -32.0710  -19.8330   20.3040 C   0  0  0  0  0  3  0  0  0  0  0  0
  -30.0320  -17.5230   19.8480 C   0  0  0  0  0  2  0  0  0  0  0  0
  -30.2990  -16.8150   21.1970 C   0  0  0  0  0  2  0  0  0  0  0  0
  -30.6660  -14.4320   20.5200 C   0  0  0  0  0  0  0  0  0  0  0  0
  -30.3550  -12.3060   19.3150 C   0  0  0  0  0  2  0  0  0  0  0  0
  -29.3960  -12.5410   18.1290 C   0  0  0  0  0  2  0  0  0  0  0  0
  -27.9220  -12.4240   18.5670 C   0  0  0  0  0  2  0  0  0  0  0  0
  -27.6100  -13.2310   19.8550 C   0  0  0  0  0  3  0  0  0  0  0  0
  -28.6710  -12.9500   20.9420 C   0  0  0  0  0  2  0  0  0  0  0  0
  -29.9980  -13.2580   20.3740 N   0  0  0  0  0  0  0  0  0  0  0  0
  -31.7630  -14.6640   20.0040 O   0  0  0  0  0  0  0  0  0  0  0  0
  -29.9740  -15.3890   21.1480 N   0  0  0  0  0  0  0  0  0  0  0  0
  -29.0790  -15.1130   21.5260 H   0  0  0  0  0  0  0  0  0  0  0  0
  -25.2130  -13.8540   20.5680 C   0  0  0  0  0  0  0  0  0  0  0  0
  -24.1430  -13.0860   20.9400 C   0  0  0  0  0  0  0  0  0  0  0  0
  -24.5980  -11.7310   20.9070 C   0  0  0  0  0  0  0  0  0  0  0  0
  -26.2560  -12.9670   20.3350 N   0  0  0  0  0  0  0  0  0  0  0  0
  -25.8880  -11.6860   20.5940 N   0  0  0  0  0  0  0  0  0  0  0  0
  -23.8670  -10.4720   21.1000 C   0  0  0  0  0  0  0  0  0  0  0  0
  -24.3210   -9.4880   22.0050 C   0  0  0  0  0  3  0  0  0  0  0  0
  -23.5920   -8.2930   22.1890 C   0  0  0  0  0  3  0  0  0  0  0  0
  -22.3970   -8.0740   21.4640 C   0  0  0  0  0  0  0  0  0  0  0  0
  -21.9630   -9.0460   20.5460 C   0  0  0  0  0  3  0  0  0  0  0  0
  -22.6910  -10.2340   20.3610 C   0  0  0  0  0  3  0  0  0  0  0  0
  -21.6360   -6.9340   21.5570 O   0  0  0  0  0  0  0  0  0  0  0  0
  -21.6360   -6.1590   22.6890 C   0  0  0  0  0  0  0  0  0  0  0  0
  -21.2970   -6.6880   23.9530 C   0  0  0  0  0  3  0  0  0  0  0  0
  -21.2430   -5.8420   25.0790 C   0  0  0  0  0  3  0  0  0  0  0  0
  -21.5160   -4.4670   24.9410 C   0  0  0  0  0  0  0  0  0  0  0  0
  -21.8470   -3.9380   23.6810 C   0  0  0  0  0  3  0  0  0  0  0  0
  -21.9040   -4.7810   22.5590 C   0  0  0  0  0  0  0  0  0  0  0  0
  -22.2030   -4.2610   21.3440 F   0  0  0  0  0  0  0  0  0  0  0  0
  -21.4550   -3.6530   26.0200 F   0  0  0  0  0  0  0  0  0  0  0  0
  -22.7480  -13.5660   21.2190 C   0  0  0  0  0  0  0  0  0  0  0  0
  -22.0260  -12.8740   22.0920 N   0  0  0  0  0  0  0  0  0  0  0  0
  -22.3080  -14.5910   20.6990 O   0  0  0  0  0  0  0  0  0  0  0  0
  -22.3970  -12.0450   22.5320 H   0  0  0  0  0  0  0  0  0  0  0  0
  -21.0890  -13.1740   22.3230 H   0  0  0  0  0  0  0  0  0  0  0  0
  -25.3840  -15.2240   20.3880 N   0  0  0  0  0  0  0  0  0  0  0  0
  -24.6230  -15.8850   20.4960 H   0  0  0  0  0  0  0  0  0  0  0  0
  -26.2360  -15.6530   20.0510 H   0  0  0  0  0  0  0  0  0  0  0  0
  1  2  1  0
  4  7  1  0
  5  3  1  0
  6  8  1  0
  6  4  1  0
  7  3  1  0
  7  1  1  0
  8  5  1  0
  8  9  1  0
 10 21  2  0
 11  9  1  0
 11 16  1  0
 12 20  1  0
 12 22  1  0
 13 19  1  0
 13 15  1  0
 14 20  1  0
 15 14  1  0
 16 15  2  0
 17 18  1  0
 17 11  2  0
 18 13  2  0
 19 12  1  0
 20 10  1  0
 22 24  2  0
 23 22  1  0
 25 23  1  0
 26 35  2  0
 26 31  1  0
 27 23  1  0
 27 31  1  0
 28 27  1  0
 29 30  1  0
 29 28  1  0
 30 26  1  0
 31 32  2  0
 32 33  1  0
 34 33  2  0
 35 34  1  0
 36 10  1  0
 36 37  1  0
 36 46  1  0
 37 40  1  0
 38 42  1  0
 38 37  1  0
 39 38  2  0
 42 41  1  0
 44 42  1  0
 44 45  1  0
 44 43  1  0
 46 49  1  1
 46 47  1  0
 48 46  1  0
 50 52  1  0
 51 54  1  0
 51 50  2  0
 52  1  1  0
 53 57  1  0
 53 52  2  0
 54 53  1  0
 56 57  1  0
 57 55  1  0
 58 54  1  0
 58 59  1  0
 60 68  1  0
 61 66  1  0
 62 63  1  0
 62 61  1  0
 64 63  1  0
 64 73  1  0
 64 65  1  0
 66 60  1  0
 66 65  1  0
 67 60  2  0
 68 59  1  0
 68 69  1  0
 70 71  2  0
 71 90  1  0
 72 71  1  0
 72 75  1  0
 73 70  1  0
 73 74  1  0
 74 72  2  0
 75 76  1  0
 76 77  2  0
 78 81  1  0
 78 77  1  0
 79 78  2  0
 80 79  1  0
 80 75  2  0
 81 82  1  0
 82 83  1  0
 83 84  2  0
 85 84  1  0
 85 89  1  0
 86 85  2  0
 87 82  2  0
 87 86  1  0
 88 87  1  0
 90 91  1  0
 91 94  1  0
 91 93  1  0
 92 90  2  0
 95 96  1  0
 95 70  1  0
 97 95  1  0
M  ISO  4   8 101   9 101  60 100  68 100
M  END
>  <TORSDO>  (47) 
F 21

>  <SCORE>  (47) 
-13.875

>  <name>  (47) 
46

>  <ligand_id>  (47) 
46

>  <original_smiles>  (47) 
[H]c1c([H])c([H])c2c(c1[H])C([H])([H])C([H])([H])C([H])([H])C2([H])N([H])C(=O)C1([H])N(C(=O)C([H])(N([H])C(=O)C([H])(N([H])C([H])([H])[H])C([H])([H])[H])C(C([H])([H])[H])(C([H])([H])[H])C([H])([H])[H])C([H])([H])c2c([H])c(OC3([H])C([H])([H])C([H])([H])C([H])(N([H])c4c([H])c([H])n(C([H])([H])C([H])([H])N([H])C(=O)N5C([H])([H])C([H])([H])C([H])([H])C([H])(n6nc(-c7c([H])c([H])c(Oc8c([H])c([H])c(F)c([H])c8F)c([H])c7[H])c(C(=O)N([H])[H])c6N([H])[H])C5([H])[H])c4C([H])(C([H])([H])[H])C([H])([H])[H])C([H])([H])C3([H])[H])c([H])c([H])c2C1([H])[H]

>  <smiles>  (47) 
[H]c1c([H])c([H])c2c(c1[H])C([H])([H])C([H])([H])C([H])([H])C2([H])N([H])C(=O)C1([H])N(C(=O)C([H])(N([H])C(=O)C([H])(N([H])C([H])([H])[H])C([H])([H])[H])C(C([H])([H])[H])(C([H])([H])[H])C([H])([H])[H])C([H])([H])c2c([H])c(OC3([H])C([H])([H])C([H])([H])C([H])(N([H])c4c([H])c([H])n(C([H])([H])C([H])([H])N([H])C(=O)N5C([H])([H])C([H])([H])C([H])([H])C([H])(n6nc(-c7c([H])c([H])c(Oc8c([H])c([H])c(F)c([H])c8F)c([H])c7[H])c(C(=O)N([H])[H])c6N([H])[H])C5([H])[H])c4C([H])(C([H])([H])[H])C([H])([H])[H])C([H])([H])C3([H])[H])c([H])c([H])c2C1([H])[H]

$$$$
47:0:0
     RDKit          3D

101111  0  0  1  0  0  0  0  0999 V2000
  -30.3250  -20.7370   22.5350 C   0  0  0  0  0  3  0  0  0  0  0  0
  -30.2800  -19.8450   21.4370 C   0  0  0  0  0  0  0  0  0  0  0  0
  -30.8350  -18.5290   21.6370 C   0  0  0  0  0  0  0  0  0  0  0  0
  -31.4910  -18.2970   22.8940 C   0  0  0  0  0  0  0  0  0  0  0  0
  -31.4610  -19.2990   23.8850 C   0  0  0  0  0  0  0  0  0  0  0  0
  -30.8770  -20.4800   23.7260 N   0  0  0  0  0  0  0  0  0  0  0  0
  -32.0700  -19.1490   25.1200 N   0  0  0  0  0  0  0  0  0  0  0  0
  -32.3300  -18.2210   25.4280 H   0  0  0  0  0  0  0  0  0  0  0  0
  -31.8300  -19.7910   25.8670 H   0  0  0  0  0  0  0  0  0  0  0  0
  -30.6200  -14.7170   18.9330 C   0  0  0  0  0  0  0  0  0  0  0  0
  -30.2180  -12.4760   17.9510 C   0  0  0  0  0  2  0  0  0  0  0  0
  -29.0010  -12.5420   17.0050 C   0  0  0  0  0  2  0  0  0  0  0  0
  -27.6830  -12.3480   17.7830 C   0  0  0  0  0  2  0  0  0  0  0  0
  -27.6020  -13.2410   19.0500 C   0  0  0  0  0  3  0  0  0  0  0  0
  -28.8990  -13.1260   19.8780 C   0  0  0  0  0  2  0  0  0  0  0  0
  -30.0260  -13.4910   19.0000 N   0  0  0  0  0  0  0  0  0  0  0  0
  -31.5420  -14.9670   18.1500 O   0  0  0  0  0  0  0  0  0  0  0  0
  -30.2150  -15.9970   21.0250 C   0  0  0  0  0  2  0  0  0  0  0  0
  -29.9630  -17.1650   19.3480 C   0  0  0  0  0  2  0  0  0  0  0  0
  -30.8110  -17.3570   20.6130 C   0  0  0  0  0  3  0  0  0  0  0  0
  -29.9810  -15.7080   19.6110 N   0  0  0  0  0  0  0  0  0  0  0  0
  -25.5100  -13.7980   20.4420 C   0  0  0  0  0  0  0  0  0  0  0  0
  -24.5550  -13.0020   21.0160 C   0  0  0  0  0  0  0  0  0  0  0  0
  -24.9410  -11.6550   20.7320 C   0  0  0  0  0  0  0  0  0  0  0  0
  -26.4190  -12.9330   19.8520 N   0  0  0  0  0  0  0  0  0  0  0  0
  -26.0940  -11.6360   20.0760 N   0  0  0  0  0  0  0  0  0  0  0  0
  -24.2480  -10.3870   20.9940 C   0  0  0  0  0  0  0  0  0  0  0  0
  -24.7380   -9.4620   21.9420 C   0  0  0  0  0  3  0  0  0  0  0  0
  -24.0450   -8.2580   22.1900 C   0  0  0  0  0  3  0  0  0  0  0  0
  -22.8490   -7.9690   21.4900 C   0  0  0  0  0  0  0  0  0  0  0  0
  -22.3790   -8.8830   20.5310 C   0  0  0  0  0  3  0  0  0  0  0  0
  -23.0730  -10.0790   20.2810 C   0  0  0  0  0  3  0  0  0  0  0  0
  -22.1220   -6.8130   21.6470 O   0  0  0  0  0  0  0  0  0  0  0  0
  -21.8700   -6.2850   22.8870 C   0  0  0  0  0  0  0  0  0  0  0  0
  -21.2330   -7.0350   23.9010 C   0  0  0  0  0  3  0  0  0  0  0  0
  -20.9300   -6.4300   25.1370 C   0  0  0  0  0  3  0  0  0  0  0  0
  -21.2520   -5.0780   25.3590 C   0  0  0  0  0  0  0  0  0  0  0  0
  -21.8820   -4.3290   24.3490 C   0  0  0  0  0  3  0  0  0  0  0  0
  -22.1860   -4.9310   23.1150 C   0  0  0  0  0  0  0  0  0  0  0  0
  -22.7730   -4.1990   22.1370 F   0  0  0  0  0  0  0  0  0  0  0  0
  -20.9550   -4.4940   26.5430 F   0  0  0  0  0  0  0  0  0  0  0  0
  -23.3030  -13.4610   21.7070 C   0  0  0  0  0  0  0  0  0  0  0  0
  -22.8620  -12.7330   22.7260 N   0  0  0  0  0  0  0  0  0  0  0  0
  -22.7340  -14.5000   21.3750 O   0  0  0  0  0  0  0  0  0  0  0  0
  -23.3410  -11.8920   23.0140 H   0  0  0  0  0  0  0  0  0  0  0  0
  -22.0330  -13.0200   23.2270 H   0  0  0  0  0  0  0  0  0  0  0  0
  -25.6720  -15.1770   20.3580 N   0  0  0  0  0  0  0  0  0  0  0  0
  -24.9970  -15.8280   20.7440 H   0  0  0  0  0  0  0  0  0  0  0  0
  -26.4310  -15.6350   19.8710 H   0  0  0  0  0  0  0  0  0  0  0  0
  -28.3140  -21.1380   20.3670 C   0  0  0  0  0  2  0  0  0  0  0  0
  -30.7160  -21.4860   19.5410 C   0  0  0  0  0  2  0  0  0  0  0  0
  -27.8790  -22.1840   19.3040 C   0  0  0  0  0  2  0  0  0  0  0  0
  -30.1380  -22.4750   18.5030 C   0  0  0  0  0  2  0  0  0  0  0  0
  -29.7040  -20.4580   20.1310 C   0  0  0  0  0  3  0  0  0  0  0  0
  -28.9480  -23.1860   19.0440 N   0  0  1  0  0  4  0  0  0  0  0  0
  -29.2340  -23.5640   19.9350 H   0  0  0  0  0  0  0  0  0  0  0  0
  -28.5230  -24.3710   18.2200 C   0  0  0  0  0  2  0  0  0  0  0  0
  -27.8900  -25.5230   19.0510 C   0  0  0  0  0  2  0  0  0  0  0  0
  -27.7430  -26.7470   18.2940 O   0  0  0  0  0  0  0  0  0  0  0  0
  -25.1420  -31.3320   23.1160 C   0  0  0  0  0  0  0  0  0  0  0  0
  -26.7050  -27.5710   18.6800 C   0  0  0  0  0  0  0  0  0  0  0  0
  -23.5360  -30.4920   21.4340 C   0  0  0  0  0  3  0  0  0  0  0  0
  -24.5530  -29.2400   19.4570 C   0  0  0  0  0  0  0  0  0  0  0  0
  -26.0280  -30.6700   20.8790 C   0  0  0  0  0  2  0  0  0  0  0  0
  -25.8440  -29.4980   19.9340 C   0  0  0  0  0  0  0  0  0  0  0  0
  -26.9270  -28.6750   19.5390 C   0  0  0  0  0  3  0  0  0  0  0  0
  -25.4000  -27.3380   18.1960 C   0  0  0  0  0  3  0  0  0  0  0  0
  -24.3260  -28.1620   18.5840 C   0  0  0  0  0  3  0  0  0  0  0  0
  -23.4470  -30.1640   19.9200 C   0  0  0  0  0  2  0  0  0  0  0  0
  -24.9310  -30.8300   21.8650 N   0  0  0  0  0  0  0  0  0  0  0  0
  -24.1980  -31.5540   23.8860 O   0  0  0  0  0  0  0  0  0  0  0  0
  -22.9140  -29.3250   22.2320 C   0  0  0  0  0  0  0  0  0  0  0  0
  -21.5800  -29.1900   22.1540 N   0  0  0  0  0  0  0  0  0  0  0  0
  -23.6250  -28.5500   22.8770 O   0  0  0  0  0  0  0  0  0  0  0  0
  -21.0660  -29.8690   21.6100 H   0  0  0  0  0  0  0  0  0  0  0  0
  -18.2250  -27.8920   22.5080 C   0  0  0  0  0  0  0  0  0  0  0  0
  -20.7830  -28.1410   22.7910 C   0  0  0  0  0  3  0  0  0  0  0  0
  -20.8980  -26.8090   22.0160 C   0  0  0  0  0  2  0  0  0  0  0  0
  -19.7880  -26.6200   20.9760 C   0  0  0  0  0  2  0  0  0  0  0  0
  -18.4110  -26.6550   21.6460 C   0  0  0  0  0  2  0  0  0  0  0  0
  -19.3400  -28.5990   23.0330 C   0  0  0  0  0  0  0  0  0  0  0  0
  -19.1130  -29.7620   23.7990 C   0  0  0  0  0  3  0  0  0  0  0  0
  -17.8050  -30.2180   24.0460 C   0  0  0  0  0  3  0  0  0  0  0  0
  -16.7050  -29.5050   23.5380 C   0  0  0  0  0  3  0  0  0  0  0  0
  -16.9170  -28.3430   22.7750 C   0  0  0  0  0  3  0  0  0  0  0  0
  -26.5760  -31.6780   23.6260 C   0  0  0  0  0  3  0  0  0  0  0  0
  -27.1430  -30.6190   24.6500 C   0  0  1  0  0  0  0  0  0  0  0  0
  -26.1340  -30.2210   25.7520 C   0  0  0  0  0  1  0  0  0  0  0  0
  -27.5760  -29.3290   23.9170 C   0  0  0  0  0  1  0  0  0  0  0  0
  -28.4070  -31.1830   25.3400 C   0  0  0  0  0  1  0  0  0  0  0  0
  -26.5210  -33.0130   24.2370 N   0  0  0  0  0  0  0  0  0  0  0  0
  -26.9570  -34.1350   23.6500 C   0  0  0  0  0  0  0  0  0  0  0  0
  -27.5220  -34.1410   22.5520 O   0  0  0  0  0  0  0  0  0  0  0  0
  -26.0200  -33.0910   25.1100 H   0  0  0  0  0  0  0  0  0  0  0  0
  -25.5350  -36.2050   23.7860 C   0  0  0  0  0  1  0  0  0  0  0  0
  -26.7310  -35.4610   24.4000 C   0  0  0  0  0  3  0  0  0  0  0  0
  -29.0280  -35.8170   25.1940 C   0  0  0  0  0  1  0  0  0  0  0  0
  -27.9180  -36.3450   24.4040 N   0  0  0  0  0  0  0  0  0  0  0  0
  -27.6820  -37.2650   24.7640 H   0  0  0  0  0  0  0  0  0  0  0  0
  -31.4450  -15.9100   23.8470 C   0  0  0  0  0  1  0  0  0  0  0  0
  -32.2890  -17.0210   23.1980 C   0  0  0  0  0  2  0  0  0  0  0  0
  1  6  1  0
  2  3  1  0
  2  1  2  0
  3  4  2  0
  4101  1  0
  4  5  1  0
  5  7  1  0
  6  5  2  0
  7  8  1  0
  7  9  1  0
 10 16  1  0
 10 21  1  0
 11 16  1  0
 12 13  1  0
 12 11  1  0
 14 13  1  0
 14 25  1  0
 14 15  1  0
 16 15  1  0
 17 10  2  0
 19 21  1  0
 19 20  1  0
 20 18  1  0
 20  3  1  0
 21 18  1  0
 22 23  2  0
 23 42  1  0
 24 27  1  0
 24 23  1  0
 25 26  1  0
 25 22  1  0
 26 24  2  0
 27 28  1  0
 28 29  2  0
 30 33  1  0
 30 29  1  0
 31 30  2  0
 32 31  1  0
 32 27  2  0
 33 34  1  0
 34 39  2  0
 34 35  1  0
 35 36  2  0
 36 37  1  0
 37 41  1  0
 38 37  2  0
 39 38  1  0
 40 39  1  0
 42 43  1  0
 43 45  1  0
 43 46  1  0
 44 42  2  0
 47 22  1  0
 47 48  1  0
 49 47  1  0
 51 54  1  0
 52 50  1  0
 53 55  1  0
 53 51  1  0
 54 50  1  0
 54  2  1  0
 55 52  1  0
 55 56  1  1
 57 55  1  0
 57 58  1  0
 59 61  1  0
 59 58  1  0
 60 71  2  0
 61 66  1  0
 62 70  1  0
 62 72  1  0
 63 69  1  0
 63 65  1  0
 64 70  1  0
 65 64  1  0
 66 65  2  0
 67 68  1  0
 67 61  2  0
 68 63  2  0
 69 62  1  0
 70 60  1  0
 72 74  2  0
 73 72  1  0
 75 73  1  0
 76 85  2  0
 76 81  1  0
 77 73  1  0
 77 81  1  0
 78 77  1  0
 79 80  1  0
 79 78  1  0
 80 76  1  0
 81 82  2  0
 82 83  1  0
 84 83  2  0
 85 84  1  0
 86 60  1  0
 86 91  1  0
 86 87  1  0
 87 90  1  1
 87 88  1  0
 89 87  1  0
 91 94  1  0
 92 91  1  0
 92 96  1  0
 93 92  2  0
 96 95  1  0
 96 98  1  0
 98 99  1  0
 98 97  1  0
101100  1  0
M  ISO  4  10 100  21 100  58 101  59 101
M  END
>  <TORSDO>  (48) 
F 20

>  <SCORE>  (48) 
1.642

>  <name>  (48) 
47

>  <ligand_id>  (48) 
47

>  <original_smiles>  (48) 
[H]c1nc(N([H])[H])c(C([H])([H])C([H])([H])[H])c(C2([H])C([H])([H])N(C(=O)N3C([H])([H])C([H])([H])C([H])([H])C([H])(n4nc(-c5c([H])c([H])c(Oc6c([H])c([H])c(F)c([H])c6F)c([H])c5[H])c(C(=O)N([H])[H])c4N([H])[H])C3([H])[H])C2([H])[H])c1C1([H])C([H])([H])C([H])([H])[N+]([H])(C([H])([H])C([H])([H])Oc2c([H])c([H])c3c(c2[H])C([H])([H])N(C(=O)C([H])(N([H])C(=O)C([H])(N([H])C([H])([H])[H])C([H])([H])[H])C(C([H])([H])[H])(C([H])([H])[H])C([H])([H])[H])C([H])(C(=O)N([H])C2([H])c4c([H])c([H])c([H])c([H])c4C([H])([H])C([H])([H])C2([H])[H])C3([H])[H])C([H])([H])C1([H])[H]

>  <smiles>  (48) 
[H]c1nc(N([H])[H])c(C([H])([H])C([H])([H])[H])c(C2([H])C([H])([H])N(C(=O)N3C([H])([H])C([H])([H])C([H])([H])C([H])(n4nc(-c5c([H])c([H])c(Oc6c([H])c([H])c(F)c([H])c6F)c([H])c5[H])c(C(=O)N([H])[H])c4N([H])[H])C3([H])[H])C2([H])[H])c1C1([H])C([H])([H])C([H])([H])[N+]([H])(C([H])([H])C([H])([H])Oc2c([H])c([H])c3c(c2[H])C([H])([H])N(C(=O)C([H])(N([H])C(=O)C([H])(N([H])C([H])([H])[H])C([H])([H])[H])C(C([H])([H])[H])(C([H])([H])[H])C([H])([H])[H])C([H])(C(=O)N([H])C2([H])c4c([H])c([H])c([H])c([H])c4C([H])([H])C([H])([H])C2([H])[H])C3([H])[H])C([H])([H])C1([H])[H]

$$$$
48:0:0
     RDKit          3D

100110  0  0  1  0  0  0  0  0999 V2000
  -28.9600  -23.1650   22.1790 C   0  0  0  0  0  3  0  0  0  0  0  0
  -29.2220  -23.8910   19.8810 C   0  0  0  0  0  3  0  0  0  0  0  0
  -28.7210  -24.4910   22.5790 C   0  0  0  0  0  0  0  0  0  0  0  0
  -28.7080  -25.5310   21.6260 C   0  0  0  0  0  0  0  0  0  0  0  0
  -29.0440  -25.2530   20.2710 C   0  0  0  0  0  0  0  0  0  0  0  0
  -29.1580  -22.8230   20.8250 C   0  0  0  0  0  0  0  0  0  0  0  0
  -28.5400  -24.7610   24.0700 C   0  0  0  0  0  2  0  0  0  0  0  0
  -28.3370  -26.9240   22.1080 C   0  0  0  0  0  2  0  0  0  0  0  0
  -27.2980  -26.8570   23.2400 C   0  0  0  0  0  2  0  0  0  0  0  0
  -27.7850  -26.0540   24.4740 C   0  0  0  0  0  3  0  0  0  0  0  0
  -27.1730  -25.2940   26.8810 C   0  0  0  0  0  1  0  0  0  0  0  0
  -25.7230  -26.9450   25.7450 C   0  0  0  0  0  1  0  0  0  0  0  0
  -26.6510  -25.7470   25.5000 C   0  0  0  0  0  3  0  0  0  0  0  0
  -29.3370  -21.4680   20.4400 N   0  0  0  0  0  0  0  0  0  0  0  0
  -29.0970  -21.2640   19.4720 H   0  0  0  0  0  0  0  0  0  0  0  0
  -29.0770  -20.3530   21.3840 C   0  0  0  0  0  2  0  0  0  0  0  0
  -31.4270  -15.0380   20.4760 C   0  0  0  0  0  0  0  0  0  0  0  0
  -31.0740  -12.9640   19.1990 C   0  0  0  0  0  2  0  0  0  0  0  0
  -30.1210  -13.2630   18.0250 C   0  0  0  0  0  2  0  0  0  0  0  0
  -28.6510  -13.1310   18.4660 C   0  0  0  0  0  2  0  0  0  0  0  0
  -28.3450  -13.8730   19.7970 C   0  0  0  0  0  3  0  0  0  0  0  0
  -29.4130  -13.5730   20.8680 C   0  0  0  0  0  2  0  0  0  0  0  0
  -30.7230  -13.8890   20.2880 N   0  0  0  0  0  0  0  0  0  0  0  0
  -32.6030  -15.1470   20.1100 O   0  0  0  0  0  0  0  0  0  0  0  0
  -29.9030  -18.4510   19.8030 C   0  0  0  0  0  2  0  0  0  0  0  0
  -29.6080  -17.9220   22.1670 C   0  0  0  0  0  2  0  0  0  0  0  0
  -30.8670  -17.2430   19.6650 C   0  0  0  0  0  2  0  0  0  0  0  0
  -30.5900  -16.7210   22.0470 C   0  0  0  0  0  2  0  0  0  0  0  0
  -29.9770  -19.0780   21.2080 C   0  0  0  0  0  3  0  0  0  0  0  0
  -30.6870  -16.1710   20.6780 N   0  0  0  0  0  0  0  0  0  0  0  0
  -25.9650  -14.4560   20.5710 C   0  0  0  0  0  0  0  0  0  0  0  0
  -24.8920  -13.6720   20.9040 C   0  0  0  0  0  0  0  0  0  0  0  0
  -25.3410  -12.3200   20.7900 C   0  0  0  0  0  0  0  0  0  0  0  0
  -26.9970  -13.5790   20.2760 N   0  0  0  0  0  0  0  0  0  0  0  0
  -26.6280  -12.2870   20.4670 N   0  0  0  0  0  0  0  0  0  0  0  0
  -24.6030  -11.0560   20.9120 C   0  0  0  0  0  0  0  0  0  0  0  0
  -24.9330  -10.0990   21.8980 C   0  0  0  0  0  3  0  0  0  0  0  0
  -24.1960   -8.9000   22.0060 C   0  0  0  0  0  3  0  0  0  0  0  0
  -23.1160   -8.6490   21.1280 C   0  0  0  0  0  0  0  0  0  0  0  0
  -22.8080   -9.5920   20.1330 C   0  0  0  0  0  3  0  0  0  0  0  0
  -23.5460  -10.7830   20.0210 C   0  0  0  0  0  3  0  0  0  0  0  0
  -22.3610   -7.5020   21.1430 O   0  0  0  0  0  0  0  0  0  0  0  0
  -22.0230   -6.8770   22.3170 C   0  0  0  0  0  0  0  0  0  0  0  0
  -21.2980   -7.5400   23.3320 C   0  0  0  0  0  3  0  0  0  0  0  0
  -20.9100   -6.8410   24.4910 C   0  0  0  0  0  3  0  0  0  0  0  0
  -21.2370   -5.4800   24.6360 C   0  0  0  0  0  0  0  0  0  0  0  0
  -21.9520   -4.8160   23.6230 C   0  0  0  0  0  3  0  0  0  0  0  0
  -22.3400   -5.5120   22.4660 C   0  0  0  0  0  0  0  0  0  0  0  0
  -23.0110   -4.8630   21.4840 F   0  0  0  0  0  0  0  0  0  0  0  0
  -20.8580   -4.8040   25.7460 F   0  0  0  0  0  0  0  0  0  0  0  0
  -23.5030  -14.1450   21.2190 C   0  0  0  0  0  0  0  0  0  0  0  0
  -22.7930  -13.4260   22.0810 N   0  0  0  0  0  0  0  0  0  0  0  0
  -23.0560  -15.1840   20.7360 O   0  0  0  0  0  0  0  0  0  0  0  0
  -23.1670  -12.5830   22.4890 H   0  0  0  0  0  0  0  0  0  0  0  0
  -21.8620  -13.7230   22.3380 H   0  0  0  0  0  0  0  0  0  0  0  0
  -26.1440  -15.8320   20.4740 N   0  0  0  0  0  0  0  0  0  0  0  0
  -25.3940  -16.4950   20.6400 H   0  0  0  0  0  0  0  0  0  0  0  0
  -27.0120  -16.2740   20.1960 H   0  0  0  0  0  0  0  0  0  0  0  0
  -29.3750  -26.3980   19.2860 C   0  0  0  0  0  2  0  0  0  0  0  0
  -28.3880  -26.6870   18.2970 O   0  0  0  0  0  0  0  0  0  0  0  0
  -24.8890  -31.3070   22.5700 C   0  0  0  0  0  0  0  0  0  0  0  0
  -27.2560  -27.3750   18.6660 C   0  0  0  0  0  0  0  0  0  0  0  0
  -23.5300  -30.0550   20.9250 C   0  0  0  0  0  3  0  0  0  0  0  0
  -24.8430  -28.7640   19.1640 C   0  0  0  0  0  0  0  0  0  0  0  0
  -26.0030  -30.5430   20.4770 C   0  0  0  0  0  2  0  0  0  0  0  0
  -26.0520  -29.2580   19.6740 C   0  0  0  0  0  0  0  0  0  0  0  0
  -27.2640  -28.5650   19.4380 C   0  0  0  0  0  3  0  0  0  0  0  0
  -26.0380  -26.9070   18.1450 C   0  0  0  0  0  3  0  0  0  0  0  0
  -24.8310  -27.5840   18.4020 C   0  0  0  0  0  3  0  0  0  0  0  0
  -23.5880  -29.5520   19.4590 C   0  0  0  0  0  2  0  0  0  0  0  0
  -24.8300  -30.6480   21.3770 N   0  0  0  0  0  0  0  0  0  0  0  0
  -23.8760  -31.4640   23.2660 O   0  0  0  0  0  0  0  0  0  0  0  0
  -23.0430  -28.8960   21.8230 C   0  0  0  0  0  0  0  0  0  0  0  0
  -21.7190  -28.6640   21.8340 N   0  0  0  0  0  0  0  0  0  0  0  0
  -23.8420  -28.2130   22.4670 O   0  0  0  0  0  0  0  0  0  0  0  0
  -21.1310  -29.2750   21.2850 H   0  0  0  0  0  0  0  0  0  0  0  0
  -18.4760  -27.2480   22.5660 C   0  0  0  0  0  0  0  0  0  0  0  0
  -21.0380  -27.6040   22.5730 C   0  0  0  0  0  3  0  0  0  0  0  0
  -21.1250  -26.2540   21.8230 C   0  0  0  0  0  2  0  0  0  0  0  0
  -19.9230  -25.9940   20.9100 C   0  0  0  0  0  2  0  0  0  0  0  0
  -18.6210  -25.9950   21.7180 C   0  0  0  0  0  2  0  0  0  0  0  0
  -19.6090  -28.0100   22.9540 C   0  0  0  0  0  0  0  0  0  0  0  0
  -19.4150  -29.1850   23.7110 C   0  0  0  0  0  3  0  0  0  0  0  0
  -18.1210  -29.5960   24.0820 C   0  0  0  0  0  3  0  0  0  0  0  0
  -17.0040  -28.8270   23.7110 C   0  0  0  0  0  3  0  0  0  0  0  0
  -17.1850  -27.6540   22.9570 C   0  0  0  0  0  3  0  0  0  0  0  0
  -26.2220  -31.9160   23.1000 C   0  0  0  0  0  3  0  0  0  0  0  0
  -26.9650  -30.9840   24.1340 C   0  0  1  0  0  0  0  0  0  0  0  0
  -26.0540  -30.4880   25.2830 C   0  0  0  0  0  1  0  0  0  0  0  0
  -27.5500  -29.7380   23.4280 C   0  0  0  0  0  1  0  0  0  0  0  0
  -28.1650  -31.7390   24.7480 C   0  0  0  0  0  1  0  0  0  0  0  0
  -25.9030  -33.2170   23.7070 N   0  0  0  0  0  0  0  0  0  0  0  0
  -26.1390  -34.4020   23.1280 C   0  0  0  0  0  0  0  0  0  0  0  0
  -26.7180  -34.5160   22.0440 O   0  0  0  0  0  0  0  0  0  0  0  0
  -25.3700  -33.1950   24.5620 H   0  0  0  0  0  0  0  0  0  0  0  0
  -24.3410  -36.1580   23.2380 C   0  0  0  0  0  1  0  0  0  0  0  0
  -25.6520  -35.6640   23.8710 C   0  0  0  0  0  3  0  0  0  0  0  0
  -27.8180  -36.4680   24.6990 C   0  0  0  0  0  1  0  0  0  0  0  0
  -26.6460  -36.7620   23.8780 N   0  0  0  0  0  0  0  0  0  0  0  0
  -26.2300  -37.6260   24.2130 H   0  0  0  0  0  0  0  0  0  0  0  0
  1  3  1  0
  2  5  2  0
  2  6  1  0
  3  7  1  0
  4  8  1  0
  4  3  2  0
  5  4  1  0
  6  1  2  0
  7 10  1  0
  8  9  1  0
  9 10  1  0
 10 13  1  0
 13 12  1  0
 13 11  1  0
 14  6  1  0
 14 16  1  0
 15 14  1  0
 17 30  1  0
 18 23  1  0
 19 20  1  0
 19 18  1  0
 21 20  1  0
 21 34  1  0
 21 22  1  0
 23 17  1  0
 23 22  1  0
 24 17  2  0
 25 29  1  0
 27 25  1  0
 27 30  1  0
 28 26  1  0
 29 16  1  0
 29 26  1  0
 30 28  1  0
 31 32  2  0
 32 51  1  0
 33 32  1  0
 33 36  1  0
 34 35  1  0
 34 31  1  0
 35 33  2  0
 36 37  1  0
 37 38  2  0
 39 42  1  0
 39 38  1  0
 40 39  2  0
 41 40  1  0
 41 36  2  0
 42 43  1  0
 43 48  2  0
 43 44  1  0
 44 45  2  0
 45 46  1  0
 46 50  1  0
 47 46  2  0
 48 47  1  0
 49 48  1  0
 51 52  1  0
 52 55  1  0
 52 54  1  0
 53 51  2  0
 56 31  1  0
 56 57  1  0
 58 56  1  0
 59  5  1  0
 60 62  1  0
 60 59  1  0
 61 72  2  0
 62 67  1  0
 63 71  1  0
 63 73  1  0
 64 70  1  0
 64 66  1  0
 65 71  1  0
 66 65  1  0
 67 66  2  0
 68 69  1  0
 68 62  2  0
 69 64  2  0
 70 63  1  0
 71 61  1  0
 73 74  1  0
 73 75  2  0
 76 74  1  0
 77 82  2  0
 77 86  1  0
 78 74  1  0
 78 82  1  0
 79 78  1  0
 80 81  1  0
 80 79  1  0
 81 77  1  0
 82 83  1  0
 83 84  2  0
 85 84  1  0
 86 85  2  0
 87 61  1  0
 87 92  1  0
 87 88  1  0
 88 91  1  1
 88 89  1  0
 90 88  1  0
 92 95  1  0
 93 92  1  0
 93 97  1  0
 94 93  2  0
 97 96  1  0
 97 99  1  0
 99100  1  0
 99 98  1  0
M  ISO  4  17 100  30 100  59 101  60 101
M  END
>  <TORSDO>  (49) 
F 20

>  <SCORE>  (49) 
-7.891

>  <name>  (49) 
48

>  <ligand_id>  (49) 
48

>  <original_smiles>  (49) 
[H]c1c([H])c([H])c2c(c1[H])C([H])([H])C([H])([H])C([H])([H])C2([H])N([H])C(=O)C1([H])N(C(=O)C([H])(N([H])C(=O)C([H])(N([H])C([H])([H])[H])C([H])([H])[H])C(C([H])([H])[H])(C([H])([H])[H])C([H])([H])[H])C([H])([H])c2c([H])c(OC([H])([H])c3c([H])c(N([H])C([H])([H])C4([H])C([H])([H])C([H])([H])N(C(=O)N5C([H])([H])C([H])([H])C([H])([H])C([H])(n6nc(-c7c([H])c([H])c(Oc8c([H])c([H])c(F)c([H])c8F)c([H])c7[H])c(C(=O)N([H])[H])c6N([H])[H])C5([H])[H])C([H])([H])C4([H])[H])c([H])c4c3C([H])([H])C([H])([H])C([H])(C([H])(C([H])([H])[H])C([H])([H])[H])C4([H])[H])c([H])c([H])c2C1([H])[H]

>  <smiles>  (49) 
[H]c1c([H])c([H])c2c(c1[H])C([H])([H])C([H])([H])C([H])([H])C2([H])N([H])C(=O)C1([H])N(C(=O)C([H])(N([H])C(=O)C([H])(N([H])C([H])([H])[H])C([H])([H])[H])C(C([H])([H])[H])(C([H])([H])[H])C([H])([H])[H])C([H])([H])c2c([H])c(OC([H])([H])c3c([H])c(N([H])C([H])([H])C4([H])C([H])([H])C([H])([H])N(C(=O)N5C([H])([H])C([H])([H])C([H])([H])C([H])(n6nc(-c7c([H])c([H])c(Oc8c([H])c([H])c(F)c([H])c8F)c([H])c7[H])c(C(=O)N([H])[H])c6N([H])[H])C5([H])[H])C([H])([H])C4([H])[H])c([H])c4c3C([H])([H])C([H])([H])C([H])(C([H])(C([H])([H])[H])C([H])([H])[H])C4([H])[H])c([H])c([H])c2C1([H])[H]

$$$$
49:0:0
     RDKit          3D

 96105  0  0  1  0  0  0  0  0999 V2000
  -30.2520  -21.5810   21.0670 C   0  0  0  0  0  3  0  0  0  0  0  0
  -29.7780  -22.9550   21.1320 C   0  0  0  0  0  3  0  0  0  0  0  0
  -28.3210  -22.4910   19.3460 C   0  0  0  0  0  3  0  0  0  0  0  0
  -29.7890  -20.5670   20.1460 C   0  0  0  0  0  0  0  0  0  0  0  0
  -28.7750  -23.4990   20.2680 C   0  0  0  0  0  0  0  0  0  0  0  0
  -28.7850  -21.1100   19.2790 C   0  0  0  0  0  0  0  0  0  0  0  0
  -30.8230  -15.1510   19.9600 C   0  0  0  0  0  0  0  0  0  0  0  0
  -30.5850  -12.8440   18.9450 C   0  0  0  0  0  2  0  0  0  0  0  0
  -29.5740  -12.8460   17.7740 C   0  0  0  0  0  2  0  0  0  0  0  0
  -28.1490  -12.6080   18.2980 C   0  0  0  0  0  2  0  0  0  0  0  0
  -27.8170  -13.5050   19.5170 C   0  0  0  0  0  3  0  0  0  0  0  0
  -28.9420  -13.5060   20.5770 C   0  0  0  0  0  2  0  0  0  0  0  0
  -30.1880  -13.9120   19.9100 N   0  0  0  0  0  0  0  0  0  0  0  0
  -31.9460  -15.2390   19.4560 O   0  0  0  0  0  0  0  0  0  0  0  0
  -32.8360  -19.3160   20.6350 C   0  0  0  0  0  0  0  0  0  0  0  0
  -31.3960  -17.8580   22.0660 C   0  0  0  0  0  2  0  0  0  0  0  0
  -30.3860  -16.6860   21.8570 C   0  0  0  0  0  2  0  0  0  0  0  0
  -29.6670  -17.6180   19.7860 C   0  0  0  0  0  2  0  0  0  0  0  0
  -30.4450  -19.0480   20.0360 C   0  0  0  0  0  3  0  0  0  0  0  0
  -33.9850  -19.1930   21.6400 C   0  0  0  0  0  1  0  0  0  0  0  0
  -31.6110  -18.7850   20.9210 N   0  0  0  0  0  0  0  0  0  0  0  0
  -30.1700  -16.3110   20.4550 N   0  0  0  0  0  0  0  0  0  0  0  0
  -33.0730  -19.9490   19.6010 O   0  0  0  0  0  0  0  0  0  0  0  0
  -25.4920  -14.0300   20.4450 C   0  0  0  0  0  0  0  0  0  0  0  0
  -24.4560  -13.2330   20.8470 C   0  0  0  0  0  0  0  0  0  0  0  0
  -24.9220  -11.8880   20.7230 C   0  0  0  0  0  0  0  0  0  0  0  0
  -26.5190  -13.1710   20.0940 N   0  0  0  0  0  0  0  0  0  0  0  0
  -26.1890  -11.8750   20.3270 N   0  0  0  0  0  0  0  0  0  0  0  0
  -24.2150  -10.6130   20.9020 C   0  0  0  0  0  0  0  0  0  0  0  0
  -24.6220   -9.6720   21.8750 C   0  0  0  0  0  3  0  0  0  0  0  0
  -23.9110   -8.4630   22.0410 C   0  0  0  0  0  3  0  0  0  0  0  0
  -22.7820   -8.1880   21.2340 C   0  0  0  0  0  0  0  0  0  0  0  0
  -22.3950   -9.1180   20.2530 C   0  0  0  0  0  3  0  0  0  0  0  0
  -23.1050  -10.3180   20.0850 C   0  0  0  0  0  3  0  0  0  0  0  0
  -22.0460   -7.0300   21.3110 O   0  0  0  0  0  0  0  0  0  0  0  0
  -21.8200   -6.3960   22.5090 C   0  0  0  0  0  0  0  0  0  0  0  0
  -21.1580   -7.0370   23.5790 C   0  0  0  0  0  3  0  0  0  0  0  0
  -20.8870   -6.3260   24.7650 C   0  0  0  0  0  3  0  0  0  0  0  0
  -21.2650   -4.9760   24.8790 C   0  0  0  0  0  0  0  0  0  0  0  0
  -21.9170   -4.3330   23.8110 C   0  0  0  0  0  3  0  0  0  0  0  0
  -22.1900   -5.0420   22.6280 C   0  0  0  0  0  0  0  0  0  0  0  0
  -22.8000   -4.4120   21.5930 F   0  0  0  0  0  0  0  0  0  0  0  0
  -20.9980   -4.2900   26.0140 F   0  0  0  0  0  0  0  0  0  0  0  0
  -23.0790  -13.6900   21.2320 C   0  0  0  0  0  0  0  0  0  0  0  0
  -22.4160  -12.9540   22.1210 N   0  0  0  0  0  0  0  0  0  0  0  0
  -22.5970  -14.7290   20.7830 O   0  0  0  0  0  0  0  0  0  0  0  0
  -22.8160  -12.1090   22.5010 H   0  0  0  0  0  0  0  0  0  0  0  0
  -21.4940  -13.2360   22.4200 H   0  0  0  0  0  0  0  0  0  0  0  0
  -25.6430  -15.4080   20.3140 N   0  0  0  0  0  0  0  0  0  0  0  0
  -24.8890  -16.0620   20.4900 H   0  0  0  0  0  0  0  0  0  0  0  0
  -26.4850  -15.8560   19.9810 H   0  0  0  0  0  0  0  0  0  0  0  0
  -27.9570  -24.9170   20.4680 C   0  0  0  0  0  2  0  0  0  0  0  0
  -28.3470  -26.3970   20.2190 O   0  0  0  0  0  0  0  0  0  0  0  0
  -24.6270  -32.0020   23.2580 C   0  0  0  0  0  0  0  0  0  0  0  0
  -27.2860  -27.3780   20.1770 C   0  0  0  0  0  0  0  0  0  0  0  0
  -23.4520  -30.6080   21.6000 C   0  0  0  0  0  3  0  0  0  0  0  0
  -24.9290  -29.0870   20.1530 C   0  0  0  0  0  0  0  0  0  0  0  0
  -26.0030  -30.9200   21.4410 C   0  0  0  0  0  2  0  0  0  0  0  0
  -26.0990  -29.5380   20.7780 C   0  0  0  0  0  0  0  0  0  0  0  0
  -27.2770  -28.7010   20.7770 C   0  0  0  0  0  3  0  0  0  0  0  0
  -26.0930  -27.0440   19.4900 C   0  0  0  0  0  3  0  0  0  0  0  0
  -24.9390  -27.8540   19.4920 C   0  0  0  0  0  3  0  0  0  0  0  0
  -23.6840  -29.9580   20.2110 C   0  0  0  0  0  2  0  0  0  0  0  0
  -24.7140  -31.1970   22.1560 N   0  0  0  0  0  0  0  0  0  0  0  0
  -23.5370  -32.2630   23.7890 O   0  0  0  0  0  0  0  0  0  0  0  0
  -22.7890  -29.5760   22.5470 C   0  0  0  0  0  0  0  0  0  0  0  0
  -21.4700  -29.3670   22.3940 N   0  0  0  0  0  0  0  0  0  0  0  0
  -23.4630  -28.9660   23.3800 O   0  0  0  0  0  0  0  0  0  0  0  0
  -20.9880  -29.9030   21.6860 H   0  0  0  0  0  0  0  0  0  0  0  0
  -18.1140  -28.0830   22.8400 C   0  0  0  0  0  0  0  0  0  0  0  0
  -20.6590  -28.4080   23.1470 C   0  0  0  0  0  3  0  0  0  0  0  0
  -20.8090  -26.9820   22.5690 C   0  0  0  0  0  2  0  0  0  0  0  0
  -19.7320  -26.6370   21.5350 C   0  0  0  0  0  2  0  0  0  0  0  0
  -18.3350  -26.7450   22.1570 C   0  0  0  0  0  2  0  0  0  0  0  0
  -19.2050  -28.8720   23.2910 C   0  0  0  0  0  0  0  0  0  0  0  0
  -18.9470  -30.1230   23.8910 C   0  0  0  0  0  3  0  0  0  0  0  0
  -17.6270  -30.5880   24.0410 C   0  0  0  0  0  3  0  0  0  0  0  0
  -16.5500  -29.7970   23.6090 C   0  0  0  0  0  3  0  0  0  0  0  0
  -16.7920  -28.5460   23.0150 C   0  0  0  0  0  3  0  0  0  0  0  0
  -25.8970  -32.6460   23.8950 C   0  0  0  0  0  3  0  0  0  0  0  0
  -26.3980  -31.8930   25.1890 C   0  0  1  0  0  0  0  0  0  0  0  0
  -25.2750  -31.6210   26.2210 C   0  0  0  0  0  1  0  0  0  0  0  0
  -27.0300  -30.5310   24.8180 C   0  0  0  0  0  1  0  0  0  0  0  0
  -27.5160  -32.7100   25.8760 C   0  0  0  0  0  1  0  0  0  0  0  0
  -25.5710  -34.0460   24.2090 N   0  0  0  0  0  0  0  0  0  0  0  0
  -25.8980  -35.0960   23.4420 C   0  0  0  0  0  0  0  0  0  0  0  0
  -26.5660  -34.9860   22.4100 O   0  0  0  0  0  0  0  0  0  0  0  0
  -24.9770  -34.2060   25.0080 H   0  0  0  0  0  0  0  0  0  0  0  0
  -24.1450  -36.8700   23.0920 C   0  0  0  0  0  1  0  0  0  0  0  0
  -25.4000  -36.4840   23.8930 C   0  0  0  0  0  3  0  0  0  0  0  0
  -27.5300  -37.4020   24.6980 C   0  0  0  0  0  1  0  0  0  0  0  0
  -26.4190  -37.5480   23.7610 N   0  0  0  0  0  0  0  0  0  0  0  0
  -26.0030  -38.4640   23.9010 H   0  0  0  0  0  0  0  0  0  0  0  0
  -28.2760  -20.2620   18.3270 O   0  0  0  0  0  0  0  0  0  0  0  0
  -26.4770  -19.1050   17.2580 C   0  0  0  0  0  1  0  0  0  0  0  0
  -26.8640  -20.1190   18.3390 C   0  0  0  0  0  2  0  0  0  0  0  0
  1  2  1  0
  3  5  1  0
  4  1  2  0
  5 52  1  0
  5  2  2  0
  6  3  2  0
  6  4  1  0
  7 22  1  0
  8 13  1  0
  9 10  1  0
  9  8  1  0
 11 10  1  0
 11 27  1  0
 11 12  1  0
 13  7  1  0
 13 12  1  0
 14  7  2  0
 15 21  1  0
 15 20  1  0
 17 16  1  0
 18 19  1  0
 18 22  1  0
 19  4  1  0
 19 21  1  0
 21 16  1  0
 22 17  1  0
 23 15  2  0
 24 25  2  0
 25 44  1  0
 26 25  1  0
 26 29  1  0
 27 28  1  0
 27 24  1  0
 28 26  2  0
 29 30  1  0
 30 31  2  0
 32 35  1  0
 32 31  1  0
 33 32  2  0
 34 33  1  0
 34 29  2  0
 35 36  1  0
 36 41  2  0
 36 37  1  0
 37 38  2  0
 38 39  1  0
 39 43  1  0
 40 39  2  0
 41 40  1  0
 42 41  1  0
 44 45  1  0
 45 48  1  0
 45 47  1  0
 46 44  2  0
 49 24  1  0
 49 50  1  0
 51 49  1  0
 53 52  1  0
 54 65  2  0
 55 53  1  0
 55 60  1  0
 56 64  1  0
 56 66  1  0
 57 63  1  0
 57 59  1  0
 58 64  1  0
 59 58  1  0
 60 59  2  0
 61 62  1  0
 61 55  2  0
 62 57  2  0
 63 56  1  0
 64 54  1  0
 66 68  2  0
 67 66  1  0
 69 67  1  0
 70 79  2  0
 70 75  1  0
 71 67  1  0
 71 75  1  0
 72 71  1  0
 73 74  1  0
 73 72  1  0
 74 70  1  0
 75 76  2  0
 76 77  1  0
 78 77  2  0
 79 78  1  0
 80 54  1  0
 80 85  1  0
 80 81  1  0
 81 84  1  1
 81 82  1  0
 83 81  1  0
 85 88  1  0
 86 90  1  0
 86 85  1  0
 87 86  2  0
 90 89  1  0
 92 90  1  0
 92 93  1  0
 92 91  1  0
 94 96  1  0
 94  6  1  0
 95 96  1  0
M  ISO  4   7 100  22 100  52 101  53 101
M  END
>  <TORSDO>  (50) 
F 19

>  <SCORE>  (50) 
-13.349

>  <name>  (50) 
49

>  <ligand_id>  (50) 
49

>  <original_smiles>  (50) 
[H]c1c([H])c([H])c2c(c1[H])C([H])([H])C([H])([H])C([H])([H])C2([H])N([H])C(=O)C1([H])N(C(=O)C([H])(N([H])C(=O)C([H])(N([H])C([H])([H])[H])C([H])([H])[H])C(C([H])([H])[H])(C([H])([H])[H])C([H])([H])[H])C([H])([H])c2c([H])c(OC([H])([H])c3c([H])c([H])c(C4([H])N(C(=O)C([H])([H])[H])C([H])([H])C([H])([H])N(C(=O)N5C([H])([H])C([H])([H])C([H])([H])C([H])(n6nc(-c7c([H])c([H])c(Oc8c([H])c([H])c(F)c([H])c8F)c([H])c7[H])c(C(=O)N([H])[H])c6N([H])[H])C5([H])[H])C4([H])[H])c(OC([H])([H])C([H])([H])[H])c3[H])c([H])c([H])c2C1([H])[H]

>  <smiles>  (50) 
[H]c1c([H])c([H])c2c(c1[H])C([H])([H])C([H])([H])C([H])([H])C2([H])N([H])C(=O)C1([H])N(C(=O)C([H])(N([H])C(=O)C([H])(N([H])C([H])([H])[H])C([H])([H])[H])C(C([H])([H])[H])(C([H])([H])[H])C([H])([H])[H])C([H])([H])c2c([H])c(OC([H])([H])c3c([H])c([H])c(C4([H])N(C(=O)C([H])([H])[H])C([H])([H])C([H])([H])N(C(=O)N5C([H])([H])C([H])([H])C([H])([H])C([H])(n6nc(-c7c([H])c([H])c(Oc8c([H])c([H])c(F)c([H])c8F)c([H])c7[H])c(C(=O)N([H])[H])c6N([H])[H])C5([H])[H])C4([H])[H])c(OC([H])([H])C([H])([H])[H])c3[H])c([H])c([H])c2C1([H])[H]

$$$$
50:0:0
     RDKit          3D

 97 97  0  0  1  0  0  0  0  0999 V2000
  -24.1100  -17.8990   18.5360 C   0  0  0  0  0  2  0  0  0  0  0  0
  -25.2410  -17.9600   17.5730 C   0  0  0  0  0  2  0  0  0  0  0  0
  -25.5710  -17.7970   19.0560 C   0  0  0  0  0  2  0  0  0  0  0  0
  -23.8080  -14.0080   19.4040 C   0  0  0  0  0  1  0  0  0  0  0  0
  -27.1580  -15.2580   20.6210 C   0  0  0  0  0 15  0  0  0  0  0  0
  -23.3930  -12.3560   21.2630 C   0  0  0  0  0  1  0  0  0  0  0  0
  -27.0400  -13.7880   22.0820 C   0  0  0  0  0 15  0  0  0  0  0  0
  -25.5530  -15.6010   19.3240 C   0  0  0  0  0 15  0  0  0  0  0  0
  -25.5080  -12.4300   22.4810 C   0  0  0  0  0  1  0  0  0  0  0  0
  -26.4000  -11.5010   23.1740 O   0  0  0  0  0  0  0  0  0  0  0  0
  -27.9370  -11.7940   23.5380 C   0  0  0  0  0  2  0  0  0  0  0  0
  -29.4940  -11.8880   22.7150 C   0  0  0  0  0  2  0  0  0  0  0  0
  -30.5940  -13.2840   20.5460 C   0  0  0  0  0  0  0  0  0  0  0  0
  -30.4980  -11.8300   18.4910 C   0  0  0  0  0  2  0  0  0  0  0  0
  -29.4320  -11.9800   17.3640 C   0  0  0  0  0  2  0  0  0  0  0  0
  -27.9210  -11.8350   17.7650 C   0  0  0  0  0  2  0  0  0  0  0  0
  -27.6370  -12.7070   19.0290 C   0  0  0  0  0  3  0  0  0  0  0  0
  -28.6760  -11.9970   19.9660 C   0  0  0  0  0  2  0  0  0  0  0  0
  -30.0140  -12.3950   19.7470 N   0  0  0  0  0  0  0  0  0  0  0  0
  -31.4500  -14.0690   20.0470 O   0  0  0  0  0  0  0  0  0  0  0  0
  -30.1710  -13.1040   21.9000 N   0  0  0  0  0  0  0  0  0  0  0  0
  -30.6160  -13.7940   22.4970 H   0  0  0  0  0  0  0  0  0  0  0  0
  -25.1120  -14.1990   20.8780 C   0  0  0  0  0  2  0  0  0  0  0  0
  -24.4950  -13.7670   21.1340 C   0  0  1  0  0  0  0  0  0  0  0  0
  -25.3210  -11.9050   20.0210 C   0  0  0  0  0  3  0  0  0  0  0  0
  -26.1400  -12.8640   19.7240 N   0  0  0  0  0  0  0  0  0  0  0  0
  -26.2520  -11.6080   19.6570 N   0  0  0  0  0  2  0  0  0  0  0  0
  -24.6900  -10.1370   20.1820 C   0  0  0  0  0  0  0  0  0  0  0  0
  -24.9150   -9.1700   21.2830 C   0  0  0  0  0  3  0  0  0  0  0  0
  -24.1030   -8.0110   21.6700 C   0  0  0  0  0  3  0  0  0  0  0  0
  -22.8440   -7.6920   21.0860 C   0  0  0  0  0  0  0  0  0  0  0  0
  -22.4880   -8.6350   20.0920 C   0  0  0  0  0  3  0  0  0  0  0  0
  -23.3730   -9.7010   19.6530 C   0  0  0  0  0  3  0  0  0  0  0  0
  -21.9770   -6.6060   21.3670 O   0  0  0  0  0  0  0  0  0  0  0  0
  -22.0210   -5.7500   22.4790 C   0  0  0  0  0  0  0  0  0  0  0  0
  -21.8140   -6.2360   23.7890 C   0  0  0  0  0  3  0  0  0  0  0  0
  -21.7720   -5.3570   24.9050 C   0  0  0  0  0  3  0  0  0  0  0  0
  -21.9510   -3.9730   24.7180 C   0  0  0  0  0  0  0  0  0  0  0  0
  -22.1170   -3.4600   23.4220 C   0  0  0  0  0  3  0  0  0  0  0  0
  -22.1310   -4.3410   22.3080 C   0  0  0  0  0  0  0  0  0  0  0  0
  -22.2460   -3.8050   21.0720 F   0  0  0  0  0  0  0  0  0  0  0  0
  -21.9540   -3.1240   25.7830 F   0  0  0  0  0  0  0  0  0  0  0  0
  -22.8960  -14.3190   21.4420 C   0  0  0  0  0  0  0  0  0  0  0  0
  -22.0300  -13.6650   22.2900 N   0  0  0  0  0  0  0  0  0  0  0  0
  -22.3240  -14.9730   20.5780 O   0  0  0  0  0  0  0  0  0  0  0  0
  -21.0040  -13.8210   22.2400 H   0  0  0  0  0  0  0  0  0  0  0  0
  -22.3540  -13.1340   23.0870 H   0  0  0  0  0  0  0  0  0  0  0  0
  -25.1350  -15.5970   21.3290 N   0  0  0  0  0  0  0  0  0  0  0  0
  -24.3850  -16.1090   21.7640 H   0  0  0  0  0  0  0  0  0  0  0  0
  -25.8490  -16.1540   20.8650 H   0  0  0  0  0  0  0  0  0  0  0  0
  -26.1870  -19.9080   19.7510 C   0  0  0  0  0  1  0  0  0  0  0  0
  -24.6120  -20.0880   21.6860 C   0  0  0  0  0  1  0  0  0  0  0  0
  -24.8190  -20.1270   20.2320 N   0  0  0  0  0  4  0  0  0  0  0  0
  -24.5100  -21.0130   19.8790 H   0  0  0  0  0  0  0  0  0  0  0  0
  -24.2470  -19.4060   19.8140 H   0  0  0  0  0  0  0  0  0  0  0  0
  -26.5810  -22.2250   19.5820 C   0  0  0  0  0 15  0  0  0  0  0  0
  -27.2110  -24.1620   20.1230 O   0  0  0  0  0  1  0  0  0  0  0  0
  -25.1010  -31.6130   23.2500 C   0  0  0  0  0  0  0  0  0  0  0  0
  -26.8300  -25.8410   20.1450 C   0  0  0  0  0  0  0  0  0  0  0  0
  -23.8870  -30.3130   21.6020 C   0  0  0  0  0  3  0  0  0  0  0  0
  -25.1780  -28.5540   20.1380 C   0  0  0  0  0  0  0  0  0  0  0  0
  -26.4670  -30.0480   21.5810 C   0  0  0  0  0  2  0  0  0  0  0  0
  -26.3540  -28.5730   20.8810 C   0  0  0  0  0  0  0  0  0  0  0  0
  -27.1700  -27.2400   20.8600 C   0  0  0  0  0  3  0  0  0  0  0  0
  -25.7630  -26.2380   19.3140 C   0  0  0  0  0  3  0  0  0  0  0  0
  -24.9830  -27.4430   19.3130 C   0  0  0  0  0  3  0  0  0  0  0  0
  -24.1140  -29.6790   20.2010 C   0  0  0  0  0  2  0  0  0  0  0  0
  -25.2010  -30.7150   22.1920 N   0  0  0  0  0  0  0  0  0  0  0  0
  -24.0030  -31.9680   23.7250 O   0  0  0  0  0  0  0  0  0  0  0  0
  -23.1080  -29.3410   22.5230 C   0  0  0  0  0  0  0  0  0  0  0  0
  -21.7690  -29.2740   22.4010 N   0  0  0  0  0  0  0  0  0  0  0  0
  -23.7160  -28.6610   23.3510 O   0  0  0  0  0  0  0  0  0  0  0  0
  -21.3230  -29.8670   21.7160 H   0  0  0  0  0  0  0  0  0  0  0  0
  -18.3210  -28.1980   22.8510 C   0  0  0  0  0  0  0  0  0  0  0  0
  -20.8910  -28.3640   23.1500 C   0  0  0  0  0  3  0  0  0  0  0  0
  -20.9400  -26.9330   22.5560 C   0  0  0  0  0  2  0  0  0  0  0  0
  -19.8400  -26.6760   21.5210 C   0  0  0  0  0  2  0  0  0  0  0  0
  -18.4550  -26.8600   22.1490 C   0  0  0  0  0  2  0  0  0  0  0  0
  -19.4620  -28.9120   23.3090 C   0  0  0  0  0  0  0  0  0  0  0  0
  -19.2730  -30.1680   23.9250 C   0  0  0  0  0  3  0  0  0  0  0  0
  -17.9810  -30.7040   24.0900 C   0  0  0  0  0  3  0  0  0  0  0  0
  -16.8570  -29.9820   23.6480 C   0  0  0  0  0  3  0  0  0  0  0  0
  -17.0290  -28.7310   23.0330 C   0  0  0  0  0  3  0  0  0  0  0  0
  -26.3440  -32.2530   23.9430 C   0  0  0  0  0  3  0  0  0  0  0  0
  -26.0230  -33.6420   24.3510 N   0  0  0  0  0  0  0  0  0  0  0  0
  -26.3690  -34.7550   23.6860 C   0  0  0  0  0  0  0  0  0  0  0  0
  -27.0410  -34.7180   22.6530 O   0  0  0  0  0  0  0  0  0  0  0  0
  -25.4490  -33.7410   25.1770 H   0  0  0  0  0  0  0  0  0  0  0  0
  -24.6510  -36.5970   23.4760 C   0  0  0  0  0  1  0  0  0  0  0  0
  -25.8950  -36.1200   24.2450 C   0  0  0  0  0  3  0  0  0  0  0  0
  -28.0500  -36.9450   25.1030 C   0  0  0  0  0  1  0  0  0  0  0  0
  -26.9320  -37.1790   24.1940 N   0  0  0  0  0  0  0  0  0  0  0  0
  -26.5270  -38.0840   24.4210 H   0  0  0  0  0  0  0  0  0  0  0  0
  -26.8060  -31.4510   25.2240 C   0  0  1  0  0  0  0  0  0  0  0  0
  -25.6900  -31.2140   26.2720 C   0  0  0  0  0  1  0  0  0  0  0  0
  -27.3540  -30.0740   24.8120 C   0  0  0  0  0  1  0  0  0  0  0  0
  -27.9560  -32.1950   25.9460 C   0  0  0  0  0  1  0  0  0  0  0  0
  1  3  1  0
  2  1  1  0
  2  3  1  0
 24  4  1  6
  9 10  1  0
 10 11  1  0
 12 11  1  0
 13 21  1  0
 14 19  1  0
 15 16  1  0
 15 14  1  0
 17 16  1  0
 17 26  1  0
 17 18  1  0
 19 18  1  0
 19 13  1  0
 20 13  2  0
 21 22  1  0
 21 12  1  0
 23 24  1  0
 23 48  1  0
 24  6  1  0
 24 43  1  0
 25 28  1  0
 26 27  1  0
 26 25  1  0
 27 25  1  0
 28 29  1  0
 29 30  2  0
 31 34  1  0
 31 30  1  0
 32 31  2  0
 33 32  1  0
 33 28  2  0
 34 35  1  0
 35 36  1  0
 36 37  2  0
 38 37  1  0
 38 42  1  0
 39 38  2  0
 40 35  2  0
 40 39  1  0
 41 40  1  0
 43 44  1  0
 44 47  1  0
 45 43  2  0
 46 44  1  0
 48 49  1  0
 50 48  1  0
 51 53  1  0
 53 52  1  0
 54 53  1  0
 55 53  1  0
 57 59  1  0
 58 69  2  0
 59 64  1  0
 60 68  1  0
 60 70  1  0
 61 67  1  0
 61 63  1  0
 62 68  1  0
 63 62  1  0
 64 63  2  0
 65 59  2  0
 66 65  1  0
 66 61  2  0
 67 60  1  0
 68 58  1  0
 70 72  2  0
 71 70  1  0
 73 71  1  0
 74 83  2  0
 74 79  1  0
 75 71  1  0
 75 79  1  0
 76 75  1  0
 77 78  1  0
 77 76  1  0
 78 74  1  0
 79 80  2  0
 80 81  1  0
 82 81  2  0
 83 82  1  0
 84 58  1  0
 84 85  1  0
 84 94  1  0
 85 88  1  0
 86 90  1  0
 86 85  1  0
 87 86  2  0
 90 89  1  0
 92 90  1  0
 92 93  1  0
 92 91  1  0
 94 97  1  1
 94 95  1  0
 96 94  1  0
M  ISO  4  13 100  21 100  56 101  57 101
M  END
>  <TORSDO>  (51) 
F 23

>  <SCORE>  (51) 
25.550

>  <name>  (51) 
50

>  <ligand_id>  (51) 
50

>  <original_smiles>  (51) 
[H]c1c([H])c([H])c2c(c1[H])C([H])([H])C([H])([H])C([H])([H])C2([H])N([H])C(=O)C1([H])N(C(=O)C([H])(N([H])C(=O)C([H])(N([H])C([H])([H])[H])C([H])([H])[H])C(C([H])([H])[H])(C([H])([H])[H])C([H])([H])[H])C([H])([H])c2c([H])c(OC([H])([H])C([H])(C3(c4c([H])c([H])c(OC([H])([H])C([H])([H])N([H])C(=O)N5C([H])([H])C([H])([H])C([H])([H])C([H])(n6nc(-c7c([H])c([H])c(Oc8c([H])c([H])c(F)c([H])c8F)c([H])c7[H])c(C(=O)N([H])[H])c6N([H])[H])C5([H])[H])c([H])c4[H])C([H])([H])C3([H])[H])[N+]([H])([H])C([H])([H])[H])c([H])c([H])c2C1([H])[H]

>  <smiles>  (51) 
[H]c1c([H])c([H])c2c(c1[H])C([H])([H])C([H])([H])C([H])([H])C2([H])N([H])C(=O)C1([H])N(C(=O)C([H])(N([H])C(=O)C([H])(N([H])C([H])([H])[H])C([H])([H])[H])C(C([H])([H])[H])(C([H])([H])[H])C([H])([H])[H])C([H])([H])c2c([H])c(OC([H])([H])C([H])(C3(c4c([H])c([H])c(OC([H])([H])C([H])([H])N([H])C(=O)N5C([H])([H])C([H])([H])C([H])([H])C([H])(n6nc(-c7c([H])c([H])c(Oc8c([H])c([H])c(F)c([H])c8F)c([H])c7[H])c(C(=O)N([H])[H])c6N([H])[H])C5([H])[H])c([H])c4[H])C([H])([H])C3([H])[H])[N+]([H])([H])C([H])([H])[H])c([H])c([H])c2C1([H])[H]

$$$$
51:0:0
     RDKit          3D

 96105  0  0  1  0  0  0  0  0999 V2000
  -30.8270  -22.2650   21.5060 C   0  0  0  0  0  2  0  0  0  0  0  0
  -31.1590  -23.6030   20.8050 C   0  0  0  0  0  2  0  0  0  0  0  0
  -30.1900  -24.6840   21.1120 N   0  0  0  0  0  4  0  0  0  0  0  0
  -30.0840  -24.7530   22.1120 H   0  0  0  0  0  0  0  0  0  0  0  0
  -29.2890  -24.4390   20.7280 H   0  0  0  0  0  0  0  0  0  0  0  0
  -30.5800  -26.0150   20.5780 C   0  0  0  0  0  2  0  0  0  0  0  0
  -29.5260  -27.1040   20.8640 C   0  0  0  0  0  2  0  0  0  0  0  0
  -28.3490  -26.7480   20.1510 O   0  0  0  0  0  0  0  0  0  0  0  0
  -24.5430  -31.9640   23.2960 C   0  0  0  0  0  0  0  0  0  0  0  0
  -27.2280  -27.5430   20.2310 C   0  0  0  0  0  0  0  0  0  0  0  0
  -23.3460  -30.5540   21.6520 C   0  0  0  0  0  3  0  0  0  0  0  0
  -24.8130  -29.0180   20.2410 C   0  0  0  0  0  0  0  0  0  0  0  0
  -25.8670  -30.9270   21.4600 C   0  0  0  0  0  2  0  0  0  0  0  0
  -25.9640  -29.5520   20.8330 C   0  0  0  0  0  0  0  0  0  0  0  0
  -27.1750  -28.8230   20.8370 C   0  0  0  0  0  3  0  0  0  0  0  0
  -26.0580  -27.0200   19.6430 C   0  0  0  0  0  3  0  0  0  0  0  0
  -24.8520  -27.7440   19.6490 C   0  0  0  0  0  3  0  0  0  0  0  0
  -23.5630  -29.8690   20.2760 C   0  0  0  0  0  2  0  0  0  0  0  0
  -24.6030  -31.1630   22.1950 N   0  0  0  0  0  0  0  0  0  0  0  0
  -23.4610  -32.2340   23.8330 O   0  0  0  0  0  0  0  0  0  0  0  0
  -22.6940  -29.5340   22.6130 C   0  0  0  0  0  0  0  0  0  0  0  0
  -21.3750  -29.3330   22.4680 N   0  0  0  0  0  0  0  0  0  0  0  0
  -23.3750  -28.9250   23.4430 O   0  0  0  0  0  0  0  0  0  0  0  0
  -20.8880  -29.8780   21.7700 H   0  0  0  0  0  0  0  0  0  0  0  0
  -18.0110  -28.0970   22.9190 C   0  0  0  0  0  0  0  0  0  0  0  0
  -20.5590  -28.3940   23.2350 C   0  0  0  0  0  3  0  0  0  0  0  0
  -20.6920  -26.9570   22.6790 C   0  0  0  0  0  2  0  0  0  0  0  0
  -19.6130  -26.6080   21.6480 C   0  0  0  0  0  2  0  0  0  0  0  0
  -18.2180  -26.7420   22.2650 C   0  0  0  0  0  2  0  0  0  0  0  0
  -19.1110  -28.8790   23.3610 C   0  0  0  0  0  0  0  0  0  0  0  0
  -18.8650  -30.1480   23.9310 C   0  0  0  0  0  3  0  0  0  0  0  0
  -17.5500  -30.6340   24.0660 C   0  0  0  0  0  3  0  0  0  0  0  0
  -16.4640  -29.8490   23.6410 C   0  0  0  0  0  3  0  0  0  0  0  0
  -16.6950  -28.5830   23.0730 C   0  0  0  0  0  3  0  0  0  0  0  0
  -25.8280  -32.5970   23.9170 C   0  0  0  0  0  3  0  0  0  0  0  0
  -25.5250  -34.0020   24.2210 N   0  0  0  0  0  0  0  0  0  0  0  0
  -25.8760  -35.0390   23.4490 C   0  0  0  0  0  0  0  0  0  0  0  0
  -26.5610  -34.9140   22.4300 O   0  0  0  0  0  0  0  0  0  0  0  0
  -24.9190  -34.1740   25.0100 H   0  0  0  0  0  0  0  0  0  0  0  0
  -24.1730  -36.8390   23.0260 C   0  0  0  0  0  1  0  0  0  0  0  0
  -25.3890  -36.4360   23.8750 C   0  0  0  0  0  3  0  0  0  0  0  0
  -27.5100  -37.3120   24.7480 C   0  0  0  0  0  1  0  0  0  0  0  0
  -26.4330  -37.4800   23.7760 N   0  0  0  0  0  0  0  0  0  0  0  0
  -26.0310  -38.4040   23.9040 H   0  0  0  0  0  0  0  0  0  0  0  0
  -26.3340  -31.8410   25.2060 C   0  0  1  0  0  0  0  0  0  0  0  0
  -25.2320  -31.6190   26.2680 C   0  0  0  0  0  1  0  0  0  0  0  0
  -26.9170  -30.4570   24.8340 C   0  0  0  0  0  1  0  0  0  0  0  0
  -27.4820  -32.6410   25.8660 C   0  0  0  0  0  1  0  0  0  0  0  0
  -31.8990  -21.1820   21.2530 C   0  0  0  0  0  2  0  0  0  0  0  0
  -31.7110  -20.0360   22.0880 O   0  0  0  0  0  0  0  0  0  0  0  0
  -31.0830  -17.6380   21.9160 C   0  0  0  0  0  3  0  0  0  0  0  0
  -29.7940  -19.1240   20.8190 C   0  0  0  0  0  3  0  0  0  0  0  0
  -30.9080  -19.0220   21.6160 C   0  0  0  0  0  0  0  0  0  0  0  0
  -30.0840  -16.9640   21.2720 C   0  0  0  0  0  0  0  0  0  0  0  0
  -29.2760  -17.8590   20.5880 N   0  0  0  0  0  0  0  0  0  0  0  0
  -30.5650  -14.7030   20.6500 C   0  0  0  0  0  0  0  0  0  0  0  0
  -30.3030  -12.6260   19.3510 C   0  0  0  0  0  2  0  0  0  0  0  0
  -29.3590  -12.8950   18.1620 C   0  0  0  0  0  2  0  0  0  0  0  0
  -27.8850  -12.7160   18.5770 C   0  0  0  0  0  2  0  0  0  0  0  0
  -27.5340  -13.4590   19.8950 C   0  0  0  0  0  3  0  0  0  0  0  0
  -28.5900  -13.1700   20.9860 C   0  0  0  0  0  2  0  0  0  0  0  0
  -29.9130  -13.5270   20.4450 N   0  0  0  0  0  0  0  0  0  0  0  0
  -31.6720  -14.9540   20.1640 O   0  0  0  0  0  0  0  0  0  0  0  0
  -29.8700  -15.6240   21.3370 N   0  0  0  0  0  0  0  0  0  0  0  0
  -28.9660  -15.3230   21.6660 H   0  0  0  0  0  0  0  0  0  0  0  0
  -25.1020  -13.9710   20.5680 C   0  0  0  0  0  0  0  0  0  0  0  0
  -24.0590  -13.1560   20.9180 C   0  0  0  0  0  0  0  0  0  0  0  0
  -24.5710  -11.8240   20.8890 C   0  0  0  0  0  0  0  0  0  0  0  0
  -26.1850  -13.1320   20.3500 N   0  0  0  0  0  0  0  0  0  0  0  0
  -25.8670  -11.8350   20.5980 N   0  0  0  0  0  0  0  0  0  0  0  0
  -23.8910  -10.5340   21.0620 C   0  0  0  0  0  0  0  0  0  0  0  0
  -24.3250   -9.5930   22.0220 C   0  0  0  0  0  3  0  0  0  0  0  0
  -23.6430   -8.3690   22.1830 C   0  0  0  0  0  3  0  0  0  0  0  0
  -22.5140   -8.0740   21.3830 C   0  0  0  0  0  0  0  0  0  0  0  0
  -22.1000   -9.0040   20.4140 C   0  0  0  0  0  3  0  0  0  0  0  0
  -22.7820  -10.2210   20.2510 C   0  0  0  0  0  3  0  0  0  0  0  0
  -21.8070   -6.8980   21.4510 O   0  0  0  0  0  0  0  0  0  0  0  0
  -21.7270   -6.1720   22.6130 C   0  0  0  0  0  0  0  0  0  0  0  0
  -21.1840   -6.7200   23.7960 C   0  0  0  0  0  3  0  0  0  0  0  0
  -21.0570   -5.9180   24.9480 C   0  0  0  0  0  3  0  0  0  0  0  0
  -21.4640   -4.5700   24.9170 C   0  0  0  0  0  0  0  0  0  0  0  0
  -21.9990   -4.0240   23.7390 C   0  0  0  0  0  3  0  0  0  0  0  0
  -22.1280   -4.8220   22.5880 C   0  0  0  0  0  0  0  0  0  0  0  0
  -22.6260   -4.2850   21.4490 F   0  0  0  0  0  0  0  0  0  0  0  0
  -21.3330   -3.7970   26.0210 F   0  0  0  0  0  0  0  0  0  0  0  0
  -22.6420  -13.5800   21.1760 C   0  0  0  0  0  0  0  0  0  0  0  0
  -21.9270  -12.8510   22.0270 N   0  0  0  0  0  0  0  0  0  0  0  0
  -22.1730  -14.5940   20.6590 O   0  0  0  0  0  0  0  0  0  0  0  0
  -22.3130  -12.0310   22.4700 H   0  0  0  0  0  0  0  0  0  0  0  0
  -20.9780  -13.1240   22.2410 H   0  0  0  0  0  0  0  0  0  0  0  0
  -25.2150  -15.3470   20.3980 N   0  0  0  0  0  0  0  0  0  0  0  0
  -24.4150  -15.9650   20.4730 H   0  0  0  0  0  0  0  0  0  0  0  0
  -26.0520  -15.8190   20.0860 H   0  0  0  0  0  0  0  0  0  0  0  0
  -28.2600  -16.8740   18.5180 C   0  0  0  0  0  2  0  0  0  0  0  0
  -27.9120  -18.3450   18.5510 C   0  0  0  0  0  2  0  0  0  0  0  0
  -28.0590  -17.5710   19.8440 C   0  0  0  0  0  3  0  0  0  0  0  0
  2  3  1  0
  2  1  1  0
  3  4  1  0
  5  3  1  0
  6  7  1  0
  6  3  1  0
  8 10  1  0
  8  7  1  0
  9 20  2  0
 10 15  1  0
 11 19  1  0
 11 21  1  0
 12 18  1  0
 12 14  1  0
 13 19  1  0
 14 15  2  0
 14 13  1  0
 16 17  1  0
 16 10  2  0
 17 12  2  0
 18 11  1  0
 19  9  1  0
 21 23  2  0
 22 21  1  0
 24 22  1  0
 25 34  2  0
 25 30  1  0
 26 22  1  0
 26 30  1  0
 27 26  1  0
 28 29  1  0
 28 27  1  0
 29 25  1  0
 30 31  2  0
 31 32  1  0
 33 32  2  0
 34 33  1  0
 35  9  1  0
 35 36  1  0
 35 45  1  0
 36 39  1  0
 37 41  1  0
 37 36  1  0
 38 37  2  0
 41 40  1  0
 43 41  1  0
 43 44  1  0
 43 42  1  0
 45 48  1  1
 45 46  1  0
 47 45  1  0
 49  1  1  0
 49 50  1  0
 52 53  2  0
 53 51  1  0
 53 50  1  0
 54 64  1  0
 54 51  2  0
 55 52  1  0
 55 54  1  0
 56 64  1  0
 57 62  1  0
 58 59  1  0
 58 57  1  0
 60 59  1  0
 60 69  1  0
 60 61  1  0
 62 56  1  0
 62 61  1  0
 63 56  2  0
 64 65  1  0
 66 67  2  0
 67 86  1  0
 68 67  1  0
 68 71  1  0
 69 66  1  0
 69 70  1  0
 70 68  2  0
 71 72  1  0
 72 73  2  0
 74 77  1  0
 74 73  1  0
 75 74  2  0
 76 75  1  0
 76 71  2  0
 77 78  1  0
 78 79  1  0
 79 80  2  0
 81 80  1  0
 81 85  1  0
 82 81  2  0
 83 78  2  0
 83 82  1  0
 84 83  1  0
 86 87  1  0
 87 90  1  0
 87 89  1  0
 88 86  2  0
 91 92  1  0
 91 66  1  0
 93 91  1  0
 94 95  1  0
 94 96  1  0
 95 96  1  0
 96 55  1  0
M  ISO  4   7 101   8 101  56 100  64 100
M  END
>  <TORSDO>  (52) 
F 24

>  <SCORE>  (52) 
-13.002

>  <name>  (52) 
51

>  <ligand_id>  (52) 
51

>  <original_smiles>  (52) 
[H]c1c([H])c([H])c2c(c1[H])C([H])([H])C([H])([H])C([H])([H])C2([H])N([H])C(=O)C1([H])N(C(=O)C([H])(N([H])C(=O)C([H])(N([H])C([H])([H])[H])C([H])([H])[H])C(C([H])([H])[H])(C([H])([H])[H])C([H])([H])[H])C([H])([H])c2c([H])c(OC([H])([H])C([H])([H])[N+]([H])([H])C([H])([H])C([H])([H])C([H])([H])Oc3c([H])c(N([H])C(=O)N4C([H])([H])C([H])([H])C([H])([H])C([H])(n5nc(-c6c([H])c([H])c(Oc7c([H])c([H])c(F)c([H])c7F)c([H])c6[H])c(C(=O)N([H])[H])c5N([H])[H])C4([H])[H])n(C4([H])C([H])([H])C4([H])[H])c3[H])c([H])c([H])c2C1([H])[H]

>  <smiles>  (52) 
[H]c1c([H])c([H])c2c(c1[H])C([H])([H])C([H])([H])C([H])([H])C2([H])N([H])C(=O)C1([H])N(C(=O)C([H])(N([H])C(=O)C([H])(N([H])C([H])([H])[H])C([H])([H])[H])C(C([H])([H])[H])(C([H])([H])[H])C([H])([H])[H])C([H])([H])c2c([H])c(OC([H])([H])C([H])([H])[N+]([H])([H])C([H])([H])C([H])([H])C([H])([H])Oc3c([H])c(N([H])C(=O)N4C([H])([H])C([H])([H])C([H])([H])C([H])(n5nc(-c6c([H])c([H])c(Oc7c([H])c([H])c(F)c([H])c7F)c([H])c6[H])c(C(=O)N([H])[H])c5N([H])[H])C4([H])[H])n(C4([H])C([H])([H])C4([H])[H])c3[H])c([H])c([H])c2C1([H])[H]

$$$$
52:0:0
     RDKit          3D

 92101  0  0  1  0  0  0  0  0999 V2000
  -30.4260  -20.1450   20.1830 C   0  0  0  0  0  3  0  0  0  0  0  0
  -30.1670  -21.5380   20.0620 C   0  0  0  0  0  3  0  0  0  0  0  0
  -28.3520  -19.6870   19.0550 C   0  0  0  0  0  3  0  0  0  0  0  0
  -29.5200  -19.1930   19.6660 C   0  0  0  0  0  0  0  0  0  0  0  0
  -28.1050  -21.0740   18.9230 C   0  0  0  0  0  0  0  0  0  0  0  0
  -29.0080  -22.0580   19.4220 C   0  0  0  0  0  0  0  0  0  0  0  0
  -26.8480  -21.4820   18.1680 C   0  0  0  0  0  1  0  0  0  0  0  0
  -29.6690  -24.5400   19.5110 C   0  0  0  0  0  2  0  0  0  0  0  0
  -27.6850  -24.1400   19.9030 C   0  0  0  0  0  2  0  0  0  0  0  0
  -28.3970  -25.4250   19.4070 C   0  0  0  0  0  3  0  0  0  0  0  0
  -28.7470  -23.4520   19.1740 N   0  0  0  0  0  0  0  0  0  0  0  0
  -28.3350  -26.6330   20.2070 O   0  0  0  0  0  0  0  0  0  0  0  0
  -24.5790  -31.9050   23.2660 C   0  0  0  0  0  0  0  0  0  0  0  0
  -27.1710  -27.3940   20.1830 C   0  0  0  0  0  0  0  0  0  0  0  0
  -23.3570  -30.5120   21.6290 C   0  0  0  0  0  3  0  0  0  0  0  0
  -24.7930  -28.9570   20.2040 C   0  0  0  0  0  0  0  0  0  0  0  0
  -25.8910  -30.8300   21.4350 C   0  0  0  0  0  2  0  0  0  0  0  0
  -25.9590  -29.4540   20.7970 C   0  0  0  0  0  0  0  0  0  0  0  0
  -27.1470  -28.6780   20.7910 C   0  0  0  0  0  3  0  0  0  0  0  0
  -25.9780  -26.9290   19.5790 C   0  0  0  0  0  3  0  0  0  0  0  0
  -24.7980  -27.6930   19.5940 C   0  0  0  0  0  3  0  0  0  0  0  0
  -23.5580  -29.8310   20.2510 C   0  0  0  0  0  2  0  0  0  0  0  0
  -24.6270  -31.0990   22.1680 N   0  0  0  0  0  0  0  0  0  0  0  0
  -23.5000  -32.1920   23.8050 O   0  0  0  0  0  0  0  0  0  0  0  0
  -22.6950  -29.5000   22.5930 C   0  0  0  0  0  0  0  0  0  0  0  0
  -21.3700  -29.3290   22.4640 N   0  0  0  0  0  0  0  0  0  0  0  0
  -23.3730  -28.8720   23.4120 O   0  0  0  0  0  0  0  0  0  0  0  0
  -20.8870  -29.8870   21.7740 H   0  0  0  0  0  0  0  0  0  0  0  0
  -17.9840  -28.1640   22.9600 C   0  0  0  0  0  0  0  0  0  0  0  0
  -20.5420  -28.4020   23.2370 C   0  0  0  0  0  3  0  0  0  0  0  0
  -20.6340  -26.9680   22.6670 C   0  0  0  0  0  2  0  0  0  0  0  0
  -19.5330  -26.6500   21.6510 C   0  0  0  0  0  2  0  0  0  0  0  0
  -18.1510  -26.8110   22.2900 C   0  0  0  0  0  2  0  0  0  0  0  0
  -19.1080  -28.9190   23.3890 C   0  0  0  0  0  0  0  0  0  0  0  0
  -18.8990  -30.1880   23.9710 C   0  0  0  0  0  3  0  0  0  0  0  0
  -17.5990  -30.7000   24.1330 C   0  0  0  0  0  3  0  0  0  0  0  0
  -16.4890  -29.9420   23.7220 C   0  0  0  0  0  3  0  0  0  0  0  0
  -16.6820  -28.6780   23.1400 C   0  0  0  0  0  3  0  0  0  0  0  0
  -25.8720  -32.5250   23.8810 C   0  0  0  0  0  3  0  0  0  0  0  0
  -26.3860  -31.7510   25.1570 C   0  0  1  0  0  0  0  0  0  0  0  0
  -25.2950  -31.5240   26.2290 C   0  0  0  0  0  1  0  0  0  0  0  0
  -26.9570  -30.3670   24.7670 C   0  0  0  0  0  1  0  0  0  0  0  0
  -27.5450  -32.5360   25.8150 C   0  0  0  0  0  1  0  0  0  0  0  0
  -25.5790  -33.9270   24.2070 N   0  0  0  0  0  0  0  0  0  0  0  0
  -25.9140  -34.9730   23.4420 C   0  0  0  0  0  0  0  0  0  0  0  0
  -26.5750  -34.8620   22.4050 O   0  0  0  0  0  0  0  0  0  0  0  0
  -24.9960  -34.0890   25.0150 H   0  0  0  0  0  0  0  0  0  0  0  0
  -24.1930  -36.7770   23.0950 C   0  0  0  0  0  1  0  0  0  0  0  0
  -25.4390  -36.3670   23.8960 C   0  0  0  0  0  3  0  0  0  0  0  0
  -27.5860  -37.2400   24.7070 C   0  0  0  0  0  1  0  0  0  0  0  0
  -26.4760  -37.4120   23.7730 N   0  0  0  0  0  0  0  0  0  0  0  0
  -26.0750  -38.3350   23.9200 H   0  0  0  0  0  0  0  0  0  0  0  0
  -29.7870  -17.6700   19.6500 C   0  0  0  0  0  2  0  0  0  0  0  0
  -30.1660  -16.9730   20.9870 C   0  0  0  0  0  2  0  0  0  0  0  0
  -30.6370  -14.5040   20.5160 C   0  0  0  0  0  0  0  0  0  0  0  0
  -30.3740  -12.3290   19.3760 C   0  0  0  0  0  2  0  0  0  0  0  0
  -29.4520  -12.5370   18.1550 C   0  0  0  0  0  2  0  0  0  0  0  0
  -27.9680  -12.4020   18.5580 C   0  0  0  0  0  2  0  0  0  0  0  0
  -27.6130  -13.2390   19.8160 C   0  0  0  0  0  3  0  0  0  0  0  0
  -28.6500  -13.0090   20.9400 C   0  0  0  0  0  2  0  0  0  0  0  0
  -29.9840  -13.3150   20.3940 N   0  0  0  0  0  0  0  0  0  0  0  0
  -31.7760  -14.6960   20.0830 O   0  0  0  0  0  0  0  0  0  0  0  0
  -29.8820  -15.5210   20.9820 N   0  0  0  0  0  0  0  0  0  0  0  0
  -28.9630  -15.2490   21.3000 H   0  0  0  0  0  0  0  0  0  0  0  0
  -25.2020  -13.8610   20.4630 C   0  0  0  0  0  0  0  0  0  0  0  0
  -24.1240  -13.0970   20.8220 C   0  0  0  0  0  0  0  0  0  0  0  0
  -24.5840  -11.7440   20.8230 C   0  0  0  0  0  0  0  0  0  0  0  0
  -26.2490  -12.9750   20.2690 N   0  0  0  0  0  0  0  0  0  0  0  0
  -25.8800  -11.6970   20.5430 N   0  0  0  0  0  0  0  0  0  0  0  0
  -23.8510  -10.4870   21.0160 C   0  0  0  0  0  0  0  0  0  0  0  0
  -24.2690   -9.5260   21.9630 C   0  0  0  0  0  3  0  0  0  0  0  0
  -23.5370   -8.3330   22.1450 C   0  0  0  0  0  3  0  0  0  0  0  0
  -22.3730   -8.0910   21.3780 C   0  0  0  0  0  0  0  0  0  0  0  0
  -21.9740   -9.0390   20.4190 C   0  0  0  0  0  3  0  0  0  0  0  0
  -22.7070  -10.2240   20.2360 C   0  0  0  0  0  3  0  0  0  0  0  0
  -21.6140   -6.9490   21.4670 O   0  0  0  0  0  0  0  0  0  0  0  0
  -21.5550   -6.2130   22.6240 C   0  0  0  0  0  0  0  0  0  0  0  0
  -21.1280   -6.7770   23.8460 C   0  0  0  0  0  3  0  0  0  0  0  0
  -21.0160   -5.9690   24.9940 C   0  0  0  0  0  3  0  0  0  0  0  0
  -21.3220   -4.5950   24.9210 C   0  0  0  0  0  0  0  0  0  0  0  0
  -21.7420   -4.0310   23.7040 C   0  0  0  0  0  3  0  0  0  0  0  0
  -21.8560   -4.8380   22.5580 C   0  0  0  0  0  0  0  0  0  0  0  0
  -22.2410   -4.2840   21.3820 F   0  0  0  0  0  0  0  0  0  0  0  0
  -21.2060   -3.8160   26.0200 F   0  0  0  0  0  0  0  0  0  0  0  0
  -22.7220  -13.5800   21.0560 C   0  0  0  0  0  0  0  0  0  0  0  0
  -21.9750  -12.8980   21.9160 N   0  0  0  0  0  0  0  0  0  0  0  0
  -22.2970  -14.5980   20.5120 O   0  0  0  0  0  0  0  0  0  0  0  0
  -22.3290  -12.0720   22.3760 H   0  0  0  0  0  0  0  0  0  0  0  0
  -21.0340  -13.2070   22.1170 H   0  0  0  0  0  0  0  0  0  0  0  0
  -25.3730  -15.2290   20.2660 N   0  0  0  0  0  0  0  0  0  0  0  0
  -24.6070  -15.8880   20.3490 H   0  0  0  0  0  0  0  0  0  0  0  0
  -26.2300  -15.6600   19.9430 H   0  0  0  0  0  0  0  0  0  0  0  0
  2  1  1  0
  3  4  1  0
  4  1  2  0
  5  3  2  0
  5  6  1  0
  6  2  2  0
  7  5  1  0
 10  8  1  0
 10  9  1  0
 10 12  1  0
 11  6  1  0
 11  8  1  0
 11  9  1  0
 13 24  2  0
 14 12  1  0
 14 19  1  0
 15 23  1  0
 15 25  1  0
 16 22  1  0
 16 18  1  0
 17 23  1  0
 18 17  1  0
 19 18  2  0
 20 21  1  0
 20 14  2  0
 21 16  2  0
 22 15  1  0
 23 13  1  0
 25 27  2  0
 26 25  1  0
 28 26  1  0
 29 38  2  0
 29 34  1  0
 30 26  1  0
 30 34  1  0
 31 30  1  0
 32 33  1  0
 32 31  1  0
 33 29  1  0
 34 35  2  0
 35 36  1  0
 37 36  2  0
 38 37  1  0
 39 13  1  0
 39 44  1  0
 39 40  1  0
 40 43  1  1
 40 41  1  0
 42 40  1  0
 44 47  1  0
 45 49  1  0
 45 44  1  0
 46 45  2  0
 49 48  1  0
 51 49  1  0
 51 52  1  0
 51 50  1  0
 53  4  1  0
 53 54  1  0
 55 63  1  0
 56 61  1  0
 57 58  1  0
 57 56  1  0
 59 58  1  0
 59 68  1  0
 59 60  1  0
 61 55  1  0
 61 60  1  0
 62 55  2  0
 63 54  1  0
 63 64  1  0
 65 66  2  0
 66 67  1  0
 66 85  1  0
 67 70  1  0
 68 65  1  0
 68 69  1  0
 69 67  2  0
 70 71  1  0
 71 72  2  0
 73 76  1  0
 73 72  1  0
 74 73  2  0
 75 74  1  0
 75 70  2  0
 76 77  1  0
 77 78  1  0
 78 79  2  0
 80 79  1  0
 80 84  1  0
 81 80  2  0
 82 77  2  0
 82 81  1  0
 83 82  1  0
 85 86  1  0
 86 89  1  0
 86 88  1  0
 87 85  2  0
 90 91  1  0
 90 65  1  0
 92 90  1  0
M  ISO  4  10 101  12 101  55 100  63 100
M  END
>  <TORSDO>  (53) 
F 19

>  <SCORE>  (53) 
-14.328

>  <name>  (53) 
52

>  <ligand_id>  (53) 
52

>  <original_smiles>  (53) 
[H]c1c([H])c([H])c2c(c1[H])C([H])([H])C([H])([H])C([H])([H])C2([H])N([H])C(=O)C1([H])N(C(=O)C([H])(N([H])C(=O)C([H])(N([H])C([H])([H])[H])C([H])([H])[H])C(C([H])([H])[H])(C([H])([H])[H])C([H])([H])[H])C([H])([H])c2c([H])c(OC3([H])C([H])([H])N(c4c([H])c([H])c(C([H])([H])C([H])([H])N([H])C(=O)N5C([H])([H])C([H])([H])C([H])([H])C([H])(n6nc(-c7c([H])c([H])c(Oc8c([H])c([H])c(F)c([H])c8F)c([H])c7[H])c(C(=O)N([H])[H])c6N([H])[H])C5([H])[H])c([H])c4C([H])([H])[H])C3([H])[H])c([H])c([H])c2C1([H])[H]

>  <smiles>  (53) 
[H]c1c([H])c([H])c2c(c1[H])C([H])([H])C([H])([H])C([H])([H])C2([H])N([H])C(=O)C1([H])N(C(=O)C([H])(N([H])C(=O)C([H])(N([H])C([H])([H])[H])C([H])([H])[H])C(C([H])([H])[H])(C([H])([H])[H])C([H])([H])[H])C([H])([H])c2c([H])c(OC3([H])C([H])([H])N(c4c([H])c([H])c(C([H])([H])C([H])([H])N([H])C(=O)N5C([H])([H])C([H])([H])C([H])([H])C([H])(n6nc(-c7c([H])c([H])c(Oc8c([H])c([H])c(F)c([H])c8F)c([H])c7[H])c(C(=O)N([H])[H])c6N([H])[H])C5([H])[H])c([H])c4C([H])([H])[H])C3([H])[H])c([H])c([H])c2C1([H])[H]

$$$$
53:0:0
     RDKit          3D

101112  0  0  1  0  0  0  0  0999 V2000
  -31.6330  -19.6120   20.6510 C   0  0  0  0  0  3  0  0  0  0  0  0
  -30.8380  -21.4780   22.5850 C   0  0  0  0  0  3  0  0  0  0  0  0
  -31.2800  -19.1700   21.9410 C   0  0  0  0  0  0  0  0  0  0  0  0
  -31.0610  -21.9020   21.2550 C   0  0  0  0  0  0  0  0  0  0  0  0
  -31.5240  -20.9650   20.2960 C   0  0  0  0  0  0  0  0  0  0  0  0
  -30.9420  -20.1120   22.9390 C   0  0  0  0  0  0  0  0  0  0  0  0
  -31.8280  -21.3460   18.8530 C   0  0  0  0  0  1  0  0  0  0  0  0
  -30.8980  -14.3500   19.9290 C   0  0  0  0  0  0  0  0  0  0  0  0
  -30.3440  -12.3680   18.5530 C   0  0  0  0  0  2  0  0  0  0  0  0
  -29.2570  -12.6770   17.5060 C   0  0  0  0  0  2  0  0  0  0  0  0
  -27.8510  -12.5040   18.1120 C   0  0  0  0  0  2  0  0  0  0  0  0
  -27.6940  -13.2460   19.4650 C   0  0  0  0  0  3  0  0  0  0  0  0
  -28.8740  -12.8790   20.3980 C   0  0  0  0  0  2  0  0  0  0  0  0
  -30.1330  -13.2400   19.7210 N   0  0  0  0  0  0  0  0  0  0  0  0
  -31.8100  -14.6710   19.1550 O   0  0  0  0  0  0  0  0  0  0  0  0
  -29.8520  -17.2030   21.3950 C   0  0  0  0  0  2  0  0  0  0  0  0
  -32.3140  -16.8190   21.7860 C   0  0  0  0  0  2  0  0  0  0  0  0
  -29.6110  -15.7010   21.5540 C   0  0  0  0  0  2  0  0  0  0  0  0
  -32.0020  -15.3120   21.9160 C   0  0  0  0  0  2  0  0  0  0  0  0
  -31.0940  -17.6740   22.1730 C   0  0  0  0  0  3  0  0  0  0  0  0
  -30.7990  -14.9300   21.1500 N   0  0  0  0  0  0  0  0  0  0  0  0
  -25.4080  -13.8340   20.5050 C   0  0  0  0  0  0  0  0  0  0  0  0
  -24.3790  -13.0510   20.9510 C   0  0  0  0  0  0  0  0  0  0  0  0
  -24.8030  -11.7000   20.7660 C   0  0  0  0  0  0  0  0  0  0  0  0
  -26.3990  -12.9610   20.0840 N   0  0  0  0  0  0  0  0  0  0  0  0
  -26.0410  -11.6670   20.2920 N   0  0  0  0  0  0  0  0  0  0  0  0
  -24.0790  -10.4340   20.9580 C   0  0  0  0  0  0  0  0  0  0  0  0
  -24.5100   -9.4740   21.8990 C   0  0  0  0  0  3  0  0  0  0  0  0
  -23.7890   -8.2740   22.0770 C   0  0  0  0  0  3  0  0  0  0  0  0
  -22.6210   -8.0280   21.3170 C   0  0  0  0  0  0  0  0  0  0  0  0
  -22.2070   -8.9790   20.3690 C   0  0  0  0  0  3  0  0  0  0  0  0
  -22.9320  -10.1690   20.1860 C   0  0  0  0  0  3  0  0  0  0  0  0
  -21.8730   -6.8790   21.4060 O   0  0  0  0  0  0  0  0  0  0  0  0
  -21.7310   -6.2020   22.5920 C   0  0  0  0  0  0  0  0  0  0  0  0
  -21.1510   -6.8040   23.7290 C   0  0  0  0  0  3  0  0  0  0  0  0
  -20.9590   -6.0500   24.9040 C   0  0  0  0  0  3  0  0  0  0  0  0
  -21.3430   -4.6950   24.9430 C   0  0  0  0  0  0  0  0  0  0  0  0
  -21.9170   -4.0940   23.8110 C   0  0  0  0  0  3  0  0  0  0  0  0
  -22.1070   -4.8450   22.6370 C   0  0  0  0  0  0  0  0  0  0  0  0
  -22.6400   -4.2540   21.5410 F   0  0  0  0  0  0  0  0  0  0  0  0
  -21.1520   -3.9680   26.0700 F   0  0  0  0  0  0  0  0  0  0  0  0
  -23.0360  -13.5250   21.4290 C   0  0  0  0  0  0  0  0  0  0  0  0
  -22.4260  -12.8050   22.3620 N   0  0  0  0  0  0  0  0  0  0  0  0
  -22.5400  -14.5680   21.0060 O   0  0  0  0  0  0  0  0  0  0  0  0
  -22.8420  -11.9620   22.7320 H   0  0  0  0  0  0  0  0  0  0  0  0
  -21.5250  -13.1020   22.7100 H   0  0  0  0  0  0  0  0  0  0  0  0
  -25.5690  -15.2140   20.4040 N   0  0  0  0  0  0  0  0  0  0  0  0
  -24.8310  -15.8510   20.6830 H   0  0  0  0  0  0  0  0  0  0  0  0
  -26.3540  -15.6830   19.9700 H   0  0  0  0  0  0  0  0  0  0  0  0
  -30.5550  -24.3860   21.8930 C   0  0  0  0  0  2  0  0  0  0  0  0
  -29.2220  -23.1420   20.1600 C   0  0  0  0  0  2  0  0  0  0  0  0
  -30.1080  -25.7220   21.2660 C   0  0  0  0  0  2  0  0  0  0  0  0
  -28.7740  -24.4450   19.5080 C   0  0  0  0  0  2  0  0  0  0  0  0
  -30.6090  -23.2890   20.8100 C   0  0  0  0  0  3  0  0  0  0  0  0
  -28.7640  -25.5990   20.5190 C   0  0  0  0  0  3  0  0  0  0  0  0
  -28.5940  -26.7960   19.7840 O   0  0  0  0  0  0  0  0  0  0  0  0
  -24.6340  -31.6940   23.0270 C   0  0  0  0  0  0  0  0  0  0  0  0
  -27.3690  -27.3990   19.8790 C   0  0  0  0  0  0  0  0  0  0  0  0
  -23.4400  -30.2650   21.3970 C   0  0  0  0  0  3  0  0  0  0  0  0
  -24.9140  -28.7760   19.9470 C   0  0  0  0  0  0  0  0  0  0  0  0
  -25.9420  -30.7160   21.1540 C   0  0  0  0  0  2  0  0  0  0  0  0
  -26.0590  -29.3510   20.5120 C   0  0  0  0  0  0  0  0  0  0  0  0
  -27.2880  -28.6690   20.4790 C   0  0  0  0  0  3  0  0  0  0  0  0
  -26.2130  -26.8140   19.3210 C   0  0  0  0  0  3  0  0  0  0  0  0
  -24.9830  -27.5020   19.3530 C   0  0  0  0  0  3  0  0  0  0  0  0
  -23.6420  -29.5890   20.0130 C   0  0  0  0  0  2  0  0  0  0  0  0
  -24.6890  -30.9060   21.9180 N   0  0  0  0  0  0  0  0  0  0  0  0
  -23.5560  -31.9320   23.5880 O   0  0  0  0  0  0  0  0  0  0  0  0
  -22.8360  -29.2220   22.3630 C   0  0  0  0  0  0  0  0  0  0  0  0
  -21.5220  -28.9850   22.2380 N   0  0  0  0  0  0  0  0  0  0  0  0
  -23.5470  -28.6270   23.1760 O   0  0  0  0  0  0  0  0  0  0  0  0
  -21.0060  -29.5170   21.5500 H   0  0  0  0  0  0  0  0  0  0  0  0
  -18.1970  -27.6750   22.7510 C   0  0  0  0  0  0  0  0  0  0  0  0
  -20.7450  -28.0180   23.0110 C   0  0  0  0  0  3  0  0  0  0  0  0
  -20.8940  -26.5920   22.4310 C   0  0  0  0  0  2  0  0  0  0  0  0
  -19.7980  -26.2350   21.4220 C   0  0  0  0  0  2  0  0  0  0  0  0
  -18.4140  -26.3330   22.0720 C   0  0  0  0  0  2  0  0  0  0  0  0
  -19.2910  -28.4750   23.1750 C   0  0  0  0  0  0  0  0  0  0  0  0
  -19.0320  -29.7320   23.7630 C   0  0  0  0  0  3  0  0  0  0  0  0
  -17.7120  -30.1880   23.9370 C   0  0  0  0  0  3  0  0  0  0  0  0
  -16.6320  -29.3840   23.5300 C   0  0  0  0  0  3  0  0  0  0  0  0
  -16.8760  -28.1290   22.9430 C   0  0  0  0  0  3  0  0  0  0  0  0
  -25.9140  -32.3550   23.6300 C   0  0  0  0  0  3  0  0  0  0  0  0
  -26.5340  -31.5350   24.8260 C   0  0  1  0  0  0  0  0  0  0  0  0
  -25.5060  -31.1420   25.9130 C   0  0  0  0  0  1  0  0  0  0  0  0
  -27.1910  -30.2340   24.3100 C   0  0  0  0  0  1  0  0  0  0  0  0
  -27.6550  -32.3600   25.5020 C   0  0  0  0  0  1  0  0  0  0  0  0
  -25.5520  -33.7110   24.0590 N   0  0  0  0  0  0  0  0  0  0  0  0
  -25.8030  -34.8240   23.3550 C   0  0  0  0  0  0  0  0  0  0  0  0
  -26.4400  -34.8170   22.2980 O   0  0  0  0  0  0  0  0  0  0  0  0
  -24.9860  -33.7870   24.8920 H   0  0  0  0  0  0  0  0  0  0  0  0
  -23.9950  -36.5530   23.1370 C   0  0  0  0  0  1  0  0  0  0  0  0
  -25.2610  -36.1530   23.9110 C   0  0  0  0  0  3  0  0  0  0  0  0
  -27.3630  -37.0690   24.7900 C   0  0  0  0  0  1  0  0  0  0  0  0
  -26.2440  -37.2570   23.8690 N   0  0  0  0  0  0  0  0  0  0  0  0
  -25.7980  -38.1430   24.0920 H   0  0  0  0  0  0  0  0  0  0  0  0
  -30.6930  -19.6410   24.2070 O   0  0  0  0  0  0  0  0  0  0  0  0
  -30.1230  -20.5170   25.1690 C   0  0  0  0  0  2  0  0  0  0  0  0
  -28.5430  -18.4000   25.5180 C   0  0  0  0  0  2  0  0  0  0  0  0
  -29.3360  -18.5920   26.7840 C   0  0  0  0  0  2  0  0  0  0  0  0
  -29.0140  -19.7900   25.9160 C   0  0  0  0  0  3  0  0  0  0  0  0
  1  3  1  0
  2  6  1  0
  3  6  2  0
  4  2  2  0
  5  1  2  0
  5  4  1  0
  6 97  1  0
  7  5  1  0
  8 21  1  0
  9 14  1  0
 10 11  1  0
 10  9  1  0
 12 11  1  0
 12 25  1  0
 12 13  1  0
 14  8  1  0
 14 13  1  0
 15  8  2  0
 16 18  1  0
 16 20  1  0
 17 19  1  0
 17 20  1  0
 20  3  1  0
 21 18  1  0
 21 19  1  0
 22 23  2  0
 23 42  1  0
 24 23  1  0
 24 27  1  0
 25 26  1  0
 25 22  1  0
 26 24  2  0
 27 28  1  0
 28 29  2  0
 30 33  1  0
 30 29  1  0
 31 30  2  0
 32 31  1  0
 32 27  2  0
 33 34  1  0
 34 39  2  0
 34 35  1  0
 35 36  2  0
 36 37  1  0
 37 41  1  0
 38 37  2  0
 39 38  1  0
 40 39  1  0
 42 43  1  0
 43 46  1  0
 43 45  1  0
 44 42  2  0
 47 22  1  0
 47 48  1  0
 49 47  1  0
 51 54  1  0
 52 50  1  0
 53 51  1  0
 53 55  1  0
 54  4  1  0
 54 50  1  0
 55 56  1  0
 55 52  1  0
 56 58  1  0
 57 68  2  0
 58 63  1  0
 59 67  1  0
 59 69  1  0
 60 66  1  0
 60 62  1  0
 61 67  1  0
 62 61  1  0
 63 62  2  0
 64 65  1  0
 64 58  2  0
 65 60  2  0
 66 59  1  0
 67 57  1  0
 69 71  2  0
 70 69  1  0
 72 70  1  0
 73 82  2  0
 73 78  1  0
 74 70  1  0
 74 78  1  0
 75 74  1  0
 76 77  1  0
 76 75  1  0
 77 73  1  0
 78 79  2  0
 79 80  1  0
 81 80  2  0
 82 81  1  0
 83 57  1  0
 83 88  1  0
 83 84  1  0
 84 87  1  1
 84 85  1  0
 86 84  1  0
 88 91  1  0
 89 93  1  0
 89 88  1  0
 90 89  2  0
 93 92  1  0
 95 93  1  0
 95 96  1  0
 95 94  1  0
 97 98  1  0
 98101  1  0
 99101  1  0
 99100  1  0
101100  1  0
M  ISO  4   8 100  21 100  55 101  56 101
M  END
>  <TORSDO>  (54) 
F 20

>  <SCORE>  (54) 
-1.760

>  <name>  (54) 
53

>  <ligand_id>  (54) 
53

>  <original_smiles>  (54) 
[H]c1c([H])c([H])c2c(c1[H])C([H])([H])C([H])([H])C([H])([H])C2([H])N([H])C(=O)C1([H])N(C(=O)C([H])(N([H])C(=O)C([H])(N([H])C([H])([H])[H])C([H])([H])[H])C(C([H])([H])[H])(C([H])([H])[H])C([H])([H])[H])C([H])([H])c2c([H])c(OC3([H])C([H])([H])C([H])([H])C([H])(c4c([H])c(OC([H])([H])C5([H])C([H])([H])C5([H])[H])c(C5([H])C([H])([H])C([H])([H])N(C(=O)N6C([H])([H])C([H])([H])C([H])([H])C([H])(n7nc(-c8c([H])c([H])c(Oc9c([H])c([H])c(F)c([H])c9F)c([H])c8[H])c(C(=O)N([H])[H])c7N([H])[H])C6([H])[H])C([H])([H])C5([H])[H])c([H])c4C([H])([H])[H])C([H])([H])C3([H])[H])c([H])c([H])c2C1([H])[H]

>  <smiles>  (54) 
[H]c1c([H])c([H])c2c(c1[H])C([H])([H])C([H])([H])C([H])([H])C2([H])N([H])C(=O)C1([H])N(C(=O)C([H])(N([H])C(=O)C([H])(N([H])C([H])([H])[H])C([H])([H])[H])C(C([H])([H])[H])(C([H])([H])[H])C([H])([H])[H])C([H])([H])c2c([H])c(OC3([H])C([H])([H])C([H])([H])C([H])(c4c([H])c(OC([H])([H])C5([H])C([H])([H])C5([H])[H])c(C5([H])C([H])([H])C([H])([H])N(C(=O)N6C([H])([H])C([H])([H])C([H])([H])C([H])(n7nc(-c8c([H])c([H])c(Oc9c([H])c([H])c(F)c([H])c9F)c([H])c8[H])c(C(=O)N([H])[H])c7N([H])[H])C6([H])[H])C([H])([H])C5([H])[H])c([H])c4C([H])([H])[H])C([H])([H])C3([H])[H])c([H])c([H])c2C1([H])[H]

$$$$
54:0:0
     RDKit          3D

 96105  0  0  1  0  0  0  0  0999 V2000
  -29.8780  -21.9650   21.7200 C   0  0  0  0  0  3  0  0  0  0  0  0
  -29.0580  -23.4820   19.5110 C   0  0  0  0  0  3  0  0  0  0  0  0
  -30.0100  -21.3890   20.4350 C   0  0  0  0  0  0  0  0  0  0  0  0
  -28.9710  -24.0680   20.7950 C   0  0  0  0  0  0  0  0  0  0  0  0
  -29.5710  -22.1570   19.3190 C   0  0  0  0  0  0  0  0  0  0  0  0
  -29.3590  -23.2790   21.9120 C   0  0  0  0  0  0  0  0  0  0  0  0
  -29.3160  -22.3280   16.9320 C   0  0  0  0  0  1  0  0  0  0  0  0
  -29.6970  -21.5730   18.0770 O   0  0  0  0  0  0  0  0  0  0  0  0
  -29.8300  -23.2230   24.2800 C   0  0  0  0  0  1  0  0  0  0  0  0
  -29.2160  -23.8510   23.1610 O   0  0  0  0  0  0  0  0  0  0  0  0
  -30.8030  -20.0560   20.2600 C   0  0  0  0  0  2  0  0  0  0  0  0
  -30.7950  -14.5870   20.0600 C   0  0  0  0  0  0  0  0  0  0  0  0
  -30.4830  -12.3890   18.9680 C   0  0  0  0  0  2  0  0  0  0  0  0
  -29.4800  -12.5590   17.8070 C   0  0  0  0  0  2  0  0  0  0  0  0
  -28.0320  -12.4010   18.3130 C   0  0  0  0  0  2  0  0  0  0  0  0
  -27.7430  -13.2420   19.5840 C   0  0  0  0  0  3  0  0  0  0  0  0
  -28.8580  -13.0730   20.6410 C   0  0  0  0  0  2  0  0  0  0  0  0
  -30.1380  -13.3910   19.9930 N   0  0  0  0  0  0  0  0  0  0  0  0
  -31.9460  -14.7220   19.6380 O   0  0  0  0  0  0  0  0  0  0  0  0
  -29.7830  -16.4340   21.4380 C   0  0  0  0  0  2  0  0  0  0  0  0
  -29.6760  -16.5310   19.0070 C   0  0  0  0  0  2  0  0  0  0  0  0
  -30.4020  -17.8740   21.4570 C   0  0  0  0  0  2  0  0  0  0  0  0
  -30.3410  -17.9380   19.0210 C   0  0  0  0  0  2  0  0  0  0  0  0
  -29.9970  -15.6950   20.1810 N   0  0  0  0  0  0  0  0  0  0  0  0
  -30.0820  -18.7230   20.2650 N   0  0  2  0  0  4  0  0  0  0  0  0
  -29.0950  -18.9300   20.2880 H   0  0  0  0  0  0  0  0  0  0  0  0
  -25.3930  -13.8310   20.4400 C   0  0  0  0  0  0  0  0  0  0  0  0
  -24.3440  -13.0510   20.8470 C   0  0  0  0  0  0  0  0  0  0  0  0
  -24.8020  -11.7000   20.7640 C   0  0  0  0  0  0  0  0  0  0  0  0
  -26.4210  -12.9540   20.1340 N   0  0  0  0  0  0  0  0  0  0  0  0
  -26.0730  -11.6670   20.3880 N   0  0  0  0  0  0  0  0  0  0  0  0
  -24.0830  -10.4340   20.9620 C   0  0  0  0  0  0  0  0  0  0  0  0
  -24.5210   -9.4770   21.9040 C   0  0  0  0  0  3  0  0  0  0  0  0
  -23.8040   -8.2770   22.0910 C   0  0  0  0  0  3  0  0  0  0  0  0
  -22.6340   -8.0240   21.3360 C   0  0  0  0  0  0  0  0  0  0  0  0
  -22.2150   -8.9690   20.3830 C   0  0  0  0  0  3  0  0  0  0  0  0
  -22.9340  -10.1610   20.1930 C   0  0  0  0  0  3  0  0  0  0  0  0
  -21.8860   -6.8750   21.4320 O   0  0  0  0  0  0  0  0  0  0  0  0
  -21.8000   -6.1680   22.6040 C   0  0  0  0  0  0  0  0  0  0  0  0
  -21.2890   -6.7460   23.7870 C   0  0  0  0  0  3  0  0  0  0  0  0
  -21.1540   -5.9650   24.9510 C   0  0  0  0  0  3  0  0  0  0  0  0
  -21.5180   -4.6040   24.9330 C   0  0  0  0  0  0  0  0  0  0  0  0
  -22.0210   -4.0250   23.7540 C   0  0  0  0  0  3  0  0  0  0  0  0
  -22.1580   -4.8050   22.5930 C   0  0  0  0  0  0  0  0  0  0  0  0
  -22.6240   -4.2370   21.4550 F   0  0  0  0  0  0  0  0  0  0  0  0
  -21.3810   -3.8510   26.0490 F   0  0  0  0  0  0  0  0  0  0  0  0
  -22.9630  -13.5230   21.2010 C   0  0  0  0  0  0  0  0  0  0  0  0
  -22.2780  -12.8040   22.0820 N   0  0  0  0  0  0  0  0  0  0  0  0
  -22.5040  -14.5640   20.7330 O   0  0  0  0  0  0  0  0  0  0  0  0
  -22.6630  -11.9610   22.4830 H   0  0  0  0  0  0  0  0  0  0  0  0
  -21.3520  -13.0990   22.3610 H   0  0  0  0  0  0  0  0  0  0  0  0
  -25.5530  -15.2050   20.2850 N   0  0  0  0  0  0  0  0  0  0  0  0
  -24.7970  -15.8610   20.4440 H   0  0  0  0  0  0  0  0  0  0  0  0
  -26.3930  -15.6430   19.9290 H   0  0  0  0  0  0  0  0  0  0  0  0
  -28.3850  -25.4920   21.0410 C   0  0  0  0  0  2  0  0  0  0  0  0
  -28.5030  -26.5280   20.0220 O   0  0  0  0  0  0  0  0  0  0  0  0
  -24.6910  -31.7280   23.1660 C   0  0  0  0  0  0  0  0  0  0  0  0
  -27.3920  -27.3590   19.9920 C   0  0  0  0  0  0  0  0  0  0  0  0
  -23.5050  -30.3380   21.5000 C   0  0  0  0  0  3  0  0  0  0  0  0
  -24.9840  -28.8610   20.0280 C   0  0  0  0  0  0  0  0  0  0  0  0
  -26.0280  -30.7390   21.3000 C   0  0  0  0  0  2  0  0  0  0  0  0
  -26.1390  -29.3820   20.6270 C   0  0  0  0  0  0  0  0  0  0  0  0
  -27.3510  -28.6390   20.6040 C   0  0  0  0  0  3  0  0  0  0  0  0
  -26.2230  -26.8720   19.3720 C   0  0  0  0  0  3  0  0  0  0  0  0
  -25.0240  -27.6090   19.3920 C   0  0  0  0  0  3  0  0  0  0  0  0
  -23.7230  -29.6950   20.1040 C   0  0  0  0  0  2  0  0  0  0  0  0
  -24.7600  -30.9500   22.0470 N   0  0  0  0  0  0  0  0  0  0  0  0
  -23.6070  -31.9670   23.7160 O   0  0  0  0  0  0  0  0  0  0  0  0
  -22.8770  -29.2840   22.4420 C   0  0  0  0  0  0  0  0  0  0  0  0
  -21.5600  -29.0600   22.3000 N   0  0  0  0  0  0  0  0  0  0  0  0
  -23.5720  -28.6730   23.2570 O   0  0  0  0  0  0  0  0  0  0  0  0
  -21.0580  -29.6090   21.6160 H   0  0  0  0  0  0  0  0  0  0  0  0
  -18.2280  -27.7210   22.7240 C   0  0  0  0  0  0  0  0  0  0  0  0
  -20.7670  -28.0850   23.0500 C   0  0  0  0  0  3  0  0  0  0  0  0
  -20.9420  -26.6620   22.4710 C   0  0  0  0  0  2  0  0  0  0  0  0
  -19.8760  -26.2980   21.4330 C   0  0  0  0  0  2  0  0  0  0  0  0
  -18.4750  -26.3830   22.0480 C   0  0  0  0  0  2  0  0  0  0  0  0
  -19.3040  -28.5270   23.1800 C   0  0  0  0  0  0  0  0  0  0  0  0
  -19.0200  -29.7770   23.7710 C   0  0  0  0  0  3  0  0  0  0  0  0
  -17.6930  -30.2230   23.9090 C   0  0  0  0  0  3  0  0  0  0  0  0
  -16.6300  -29.4140   23.4710 C   0  0  0  0  0  3  0  0  0  0  0  0
  -16.8990  -28.1640   22.8850 C   0  0  0  0  0  3  0  0  0  0  0  0
  -25.9660  -32.3710   23.7940 C   0  0  0  0  0  3  0  0  0  0  0  0
  -26.4990  -31.5910   25.0570 C   0  0  1  0  0  0  0  0  0  0  0  0
  -25.4120  -31.3190   26.1230 C   0  0  0  0  0  1  0  0  0  0  0  0
  -27.1050  -30.2300   24.6420 C   0  0  0  0  0  1  0  0  0  0  0  0
  -27.6380  -32.3950   25.7290 C   0  0  0  0  0  1  0  0  0  0  0  0
  -25.6360  -33.7610   24.1420 N   0  0  0  0  0  0  0  0  0  0  0  0
  -25.9560  -34.8280   23.3990 C   0  0  0  0  0  0  0  0  0  0  0  0
  -26.6310  -34.7490   22.3680 O   0  0  0  0  0  0  0  0  0  0  0  0
  -25.0380  -33.8950   24.9440 H   0  0  0  0  0  0  0  0  0  0  0  0
  -24.2010  -36.5970   23.0660 C   0  0  0  0  0  1  0  0  0  0  0  0
  -25.4470  -36.2020   23.8740 C   0  0  0  0  0  3  0  0  0  0  0  0
  -27.5650  -37.1110   24.7220 C   0  0  0  0  0  1  0  0  0  0  0  0
  -26.4630  -37.2740   23.7770 N   0  0  0  0  0  0  0  0  0  0  0  0
  -26.0410  -38.1850   23.9350 H   0  0  0  0  0  0  0  0  0  0  0  0
  1  6  1  0
  2  4  1  0
  3  1  2  0
  4 55  1  0
  4  6  2  0
  5  2  2  0
  5  3  1  0
  6 10  1  0
  7  8  1  0
  8  5  1  0
 10  9  1  0
 11 25  1  0
 11  3  1  0
 12 24  1  0
 13 18  1  0
 14 15  1  0
 14 13  1  0
 16 15  1  0
 16 30  1  0
 16 17  1  0
 18 12  1  0
 18 17  1  0
 19 12  2  0
 20 22  1  0
 21 23  1  0
 21 24  1  0
 23 25  1  0
 24 20  1  0
 25 26  1  1
 25 22  1  0
 27 28  2  0
 28 47  1  0
 29 28  1  0
 29 32  1  0
 30 31  1  0
 30 27  1  0
 31 29  2  0
 32 33  1  0
 33 34  2  0
 35 38  1  0
 35 34  1  0
 36 35  2  0
 37 36  1  0
 37 32  2  0
 38 39  1  0
 39 40  1  0
 40 41  2  0
 42 41  1  0
 42 46  1  0
 43 42  2  0
 44 39  2  0
 44 43  1  0
 45 44  1  0
 47 48  1  0
 48 51  1  0
 48 50  1  0
 49 47  2  0
 52 27  1  0
 52 53  1  0
 54 52  1  0
 56 55  1  0
 57 68  2  0
 58 56  1  0
 58 63  1  0
 59 67  1  0
 59 69  1  0
 60 66  1  0
 60 62  1  0
 61 67  1  0
 62 61  1  0
 63 62  2  0
 64 65  1  0
 64 58  2  0
 65 60  2  0
 66 59  1  0
 67 57  1  0
 69 71  2  0
 70 69  1  0
 72 70  1  0
 73 82  2  0
 73 78  1  0
 74 70  1  0
 74 78  1  0
 75 74  1  0
 76 77  1  0
 76 75  1  0
 77 73  1  0
 78 79  2  0
 79 80  1  0
 81 80  2  0
 82 81  1  0
 83 57  1  0
 83 88  1  0
 83 84  1  0
 84 87  1  1
 84 85  1  0
 86 84  1  0
 88 91  1  0
 89 93  1  0
 89 88  1  0
 90 89  2  0
 93 92  1  0
 95 93  1  0
 95 96  1  0
 95 94  1  0
M  ISO  4  12 100  24 100  55 101  56 101
M  END
>  <TORSDO>  (55) 
F 20

>  <SCORE>  (55) 
-13.315

>  <name>  (55) 
54

>  <ligand_id>  (55) 
54

>  <original_smiles>  (55) 
[H]c1c([H])c([H])c2c(c1[H])C([H])([H])C([H])([H])C([H])([H])C2([H])N([H])C(=O)C1([H])N(C(=O)C([H])(N([H])C(=O)C([H])(N([H])C([H])([H])[H])C([H])([H])[H])C(C([H])([H])[H])(C([H])([H])[H])C([H])([H])[H])C([H])([H])c2c([H])c(OC([H])([H])c3c([H])c(OC([H])([H])[H])c(C([H])([H])[N+]4([H])C([H])([H])C([H])([H])N(C(=O)N5C([H])([H])C([H])([H])C([H])([H])C([H])(n6nc(-c7c([H])c([H])c(Oc8c([H])c([H])c(F)c([H])c8F)c([H])c7[H])c(C(=O)N([H])[H])c6N([H])[H])C5([H])[H])C([H])([H])C4([H])[H])c([H])c3OC([H])([H])[H])c([H])c([H])c2C1([H])[H]

>  <smiles>  (55) 
[H]c1c([H])c([H])c2c(c1[H])C([H])([H])C([H])([H])C([H])([H])C2([H])N([H])C(=O)C1([H])N(C(=O)C([H])(N([H])C(=O)C([H])(N([H])C([H])([H])[H])C([H])([H])[H])C(C([H])([H])[H])(C([H])([H])[H])C([H])([H])[H])C([H])([H])c2c([H])c(OC([H])([H])c3c([H])c(OC([H])([H])[H])c(C([H])([H])[N+]4([H])C([H])([H])C([H])([H])N(C(=O)N5C([H])([H])C([H])([H])C([H])([H])C([H])(n6nc(-c7c([H])c([H])c(Oc8c([H])c([H])c(F)c([H])c8F)c([H])c7[H])c(C(=O)N([H])[H])c6N([H])[H])C5([H])[H])C([H])([H])C4([H])[H])c([H])c3OC([H])([H])[H])c([H])c([H])c2C1([H])[H]

$$$$
55:0:0
     RDKit          3D

 97106  0  0  1  0  0  0  0  0999 V2000
  -30.3080  -22.6230   21.0720 C   0  0  0  0  0  3  0  0  0  0  0  0
  -29.0730  -23.2980   20.9590 C   0  0  0  0  0  0  0  0  0  0  0  0
  -30.3680  -21.2170   21.2250 C   0  0  0  0  0  0  0  0  0  0  0  0
  -27.9050  -22.4770   20.9490 C   0  0  0  0  0  0  0  0  0  0  0  0
  -29.1570  -20.4870   21.2260 C   0  0  0  0  0  0  0  0  0  0  0  0
  -31.7310  -20.5870   21.4610 C   0  0  0  0  0  1  0  0  0  0  0  0
  -27.9820  -21.1260   21.0790 N   0  0  0  0  0  0  0  0  0  0  0  0
  -26.0390  -22.9620   19.2780 C   0  0  0  0  0  1  0  0  0  0  0  0
  -26.0040  -24.2100   21.5120 C   0  0  0  0  0  1  0  0  0  0  0  0
  -26.4460  -22.9420   20.7620 C   0  0  0  0  0  3  0  0  0  0  0  0
  -29.0010  -19.1040   21.4600 N   0  0  0  0  0  0  0  0  0  0  0  0
  -28.0400  -18.8310   21.6370 H   0  0  0  0  0  0  0  0  0  0  0  0
  -29.8480  -18.0290   20.9160 C   0  0  0  0  0  2  0  0  0  0  0  0
  -30.6490  -14.8290   20.0400 C   0  0  0  0  0  0  0  0  0  0  0  0
  -30.4180  -12.5350   19.1620 C   0  0  0  0  0  2  0  0  0  0  0  0
  -29.4470  -12.5640   17.9610 C   0  0  0  0  0  2  0  0  0  0  0  0
  -27.9940  -12.3980   18.4410 C   0  0  0  0  0  2  0  0  0  0  0  0
  -27.6350  -13.3420   19.6210 C   0  0  0  0  0  3  0  0  0  0  0  0
  -28.7280  -13.3310   20.7150 C   0  0  0  0  0  2  0  0  0  0  0  0
  -30.0120  -13.6230   20.0660 N   0  0  0  0  0  0  0  0  0  0  0  0
  -31.8550  -14.9040   19.7870 O   0  0  0  0  0  0  0  0  0  0  0  0
  -29.0060  -17.4900   18.0210 C   0  0  0  0  0  2  0  0  0  0  0  0
  -28.0930  -17.3480   19.2290 C   0  0  0  0  0  2  0  0  0  0  0  0
  -30.0500  -16.3890   18.2290 C   0  0  0  0  0  2  0  0  0  0  0  0
  -29.0290  -16.8300   20.3320 C   0  0  0  0  0  3  0  0  0  0  0  0
  -29.8710  -15.8610   19.5930 N   0  0  0  0  0  0  0  0  0  0  0  0
  -25.2790  -13.9220   20.4730 C   0  0  0  0  0  0  0  0  0  0  0  0
  -24.2280  -13.1380   20.8580 C   0  0  0  0  0  0  0  0  0  0  0  0
  -24.6880  -11.7890   20.7620 C   0  0  0  0  0  0  0  0  0  0  0  0
  -26.3130  -13.0510   20.1630 N   0  0  0  0  0  0  0  0  0  0  0  0
  -25.9640  -11.7610   20.4000 N   0  0  0  0  0  0  0  0  0  0  0  0
  -23.9730  -10.5210   20.9390 C   0  0  0  0  0  0  0  0  0  0  0  0
  -24.4310   -9.5350   21.8400 C   0  0  0  0  0  3  0  0  0  0  0  0
  -23.7150   -8.3300   22.0050 C   0  0  0  0  0  3  0  0  0  0  0  0
  -22.5280   -8.1050   21.2700 C   0  0  0  0  0  0  0  0  0  0  0  0
  -22.0880   -9.0800   20.3580 C   0  0  0  0  0  3  0  0  0  0  0  0
  -22.8040  -10.2770   20.1920 C   0  0  0  0  0  3  0  0  0  0  0  0
  -21.7810   -6.9550   21.3450 O   0  0  0  0  0  0  0  0  0  0  0  0
  -21.7370   -6.1990   22.4890 C   0  0  0  0  0  0  0  0  0  0  0  0
  -21.3130   -6.7400   23.7230 C   0  0  0  0  0  3  0  0  0  0  0  0
  -21.2200   -5.9110   24.8590 C   0  0  0  0  0  3  0  0  0  0  0  0
  -21.5400   -4.5430   24.7610 C   0  0  0  0  0  0  0  0  0  0  0  0
  -21.9570   -4.0030   23.5320 C   0  0  0  0  0  3  0  0  0  0  0  0
  -22.0530   -4.8290   22.3990 C   0  0  0  0  0  0  0  0  0  0  0  0
  -22.4360   -4.2990   21.2120 F   0  0  0  0  0  0  0  0  0  0  0  0
  -21.4420   -3.7440   25.8490 F   0  0  0  0  0  0  0  0  0  0  0  0
  -22.8450  -13.6050   21.2060 C   0  0  0  0  0  0  0  0  0  0  0  0
  -22.1600  -12.8820   22.0830 N   0  0  0  0  0  0  0  0  0  0  0  0
  -22.3810  -14.6440   20.7340 O   0  0  0  0  0  0  0  0  0  0  0  0
  -22.5460  -12.0350   22.4760 H   0  0  0  0  0  0  0  0  0  0  0  0
  -21.2360  -13.1770   22.3670 H   0  0  0  0  0  0  0  0  0  0  0  0
  -25.4340  -15.2980   20.3450 N   0  0  0  0  0  0  0  0  0  0  0  0
  -24.6730  -15.9480   20.5070 H   0  0  0  0  0  0  0  0  0  0  0  0
  -26.2830  -15.7480   20.0290 H   0  0  0  0  0  0  0  0  0  0  0  0
  -29.1100  -24.8480   20.9550 C   0  0  0  0  0  2  0  0  0  0  0  0
  -28.7320  -25.5630   19.6330 C   0  0  0  0  0  2  0  0  0  0  0  0
  -28.7030  -27.0120   19.7700 O   0  0  0  0  0  0  0  0  0  0  0  0
  -24.5500  -31.7790   23.0660 C   0  0  0  0  0  0  0  0  0  0  0  0
  -27.4870  -27.6810   19.7590 C   0  0  0  0  0  0  0  0  0  0  0  0
  -23.4480  -30.3970   21.3400 C   0  0  0  0  0  3  0  0  0  0  0  0
  -25.0020  -29.0570   19.8300 C   0  0  0  0  0  0  0  0  0  0  0  0
  -25.9450  -30.9350   21.1780 C   0  0  0  0  0  2  0  0  0  0  0  0
  -26.1240  -29.6120   20.4550 C   0  0  0  0  0  0  0  0  0  0  0  0
  -27.3700  -28.9360   20.4130 C   0  0  0  0  0  3  0  0  0  0  0  0
  -26.3460  -27.1660   19.0990 C   0  0  0  0  0  3  0  0  0  0  0  0
  -25.1120  -27.8380   19.1430 C   0  0  0  0  0  3  0  0  0  0  0  0
  -23.7020  -29.8260   19.9210 C   0  0  0  0  0  2  0  0  0  0  0  0
  -24.6650  -31.0510   21.9190 N   0  0  0  0  0  0  0  0  0  0  0  0
  -23.4530  -31.9420   23.6160 O   0  0  0  0  0  0  0  0  0  0  0  0
  -22.8700  -29.2750   22.2340 C   0  0  0  0  0  0  0  0  0  0  0  0
  -21.5530  -29.0300   22.1170 N   0  0  0  0  0  0  0  0  0  0  0  0
  -23.6020  -28.6320   22.9910 O   0  0  0  0  0  0  0  0  0  0  0  0
  -21.0240  -29.6010   21.4730 H   0  0  0  0  0  0  0  0  0  0  0  0
  -18.2470  -27.6540   22.6160 C   0  0  0  0  0  0  0  0  0  0  0  0
  -20.8000  -28.0010   22.8310 C   0  0  0  0  0  3  0  0  0  0  0  0
  -20.9410  -26.6260   22.1350 C   0  0  0  0  0  2  0  0  0  0  0  0
  -19.8180  -26.3280   21.1380 C   0  0  0  0  0  2  0  0  0  0  0  0
  -18.4540  -26.3660   21.8350 C   0  0  0  0  0  2  0  0  0  0  0  0
  -19.3460  -28.4280   23.0720 C   0  0  0  0  0  0  0  0  0  0  0  0
  -19.0930  -29.6320   23.7680 C   0  0  0  0  0  3  0  0  0  0  0  0
  -17.7750  -30.0580   24.0110 C   0  0  0  0  0  3  0  0  0  0  0  0
  -16.6910  -29.2800   23.5710 C   0  0  0  0  0  3  0  0  0  0  0  0
  -16.9280  -28.0810   22.8770 C   0  0  0  0  0  3  0  0  0  0  0  0
  -25.7890  -32.4620   23.7240 C   0  0  0  0  0  3  0  0  0  0  0  0
  -25.3960  -33.8280   24.0920 N   0  0  0  0  0  0  0  0  0  0  0  0
  -25.6760  -34.9210   23.3710 C   0  0  0  0  0  0  0  0  0  0  0  0
  -26.3680  -34.8880   22.3490 O   0  0  0  0  0  0  0  0  0  0  0  0
  -24.7780  -33.9230   24.8860 H   0  0  0  0  0  0  0  0  0  0  0  0
  -23.8460  -36.6140   23.0460 C   0  0  0  0  0  1  0  0  0  0  0  0
  -25.1010  -36.2640   23.8610 C   0  0  0  0  0  3  0  0  0  0  0  0
  -27.1710  -37.2490   24.7420 C   0  0  0  0  0  1  0  0  0  0  0  0
  -26.0690  -37.3800   23.7920 N   0  0  0  0  0  0  0  0  0  0  0  0
  -25.6060  -38.2690   23.9630 H   0  0  0  0  0  0  0  0  0  0  0  0
  -26.3330  -31.6790   24.9820 C   0  0  1  0  0  0  0  0  0  0  0  0
  -25.2430  -31.3460   26.0270 C   0  0  0  0  0  1  0  0  0  0  0  0
  -26.9940  -30.3480   24.5550 C   0  0  0  0  0  1  0  0  0  0  0  0
  -27.4310  -32.5140   25.6800 C   0  0  0  0  0  1  0  0  0  0  0  0
  1  3  1  0
  2  1  2  0
  3  5  2  0
  3  6  1  0
  4  2  1  0
  4  7  2  0
  5 11  1  0
  7  5  1  0
  8 10  1  0
 10  4  1  0
 10  9  1  0
 11 12  1  0
 13 11  1  0
 14 20  1  0
 15 20  1  0
 16 17  1  0
 16 15  1  0
 18 17  1  0
 18 30  1  0
 18 19  1  0
 20 19  1  0
 21 14  2  0
 22 24  1  0
 22 23  1  0
 23 25  1  0
 24 26  1  0
 25 13  1  0
 26 14  1  0
 26 25  1  0
 27 28  2  0
 28 47  1  0
 29 28  1  0
 29 32  1  0
 30 31  1  0
 30 27  1  0
 31 29  2  0
 32 33  1  0
 33 34  2  0
 35 38  1  0
 35 34  1  0
 36 35  2  0
 37 36  1  0
 37 32  2  0
 38 39  1  0
 39 40  1  0
 40 41  2  0
 42 41  1  0
 42 46  1  0
 43 42  2  0
 44 39  2  0
 44 43  1  0
 45 44  1  0
 47 48  1  0
 48 51  1  0
 48 50  1  0
 49 47  2  0
 52 27  1  0
 52 53  1  0
 54 52  1  0
 55  2  1  0
 56 57  1  0
 56 55  1  0
 58 69  2  0
 59 57  1  0
 59 64  1  0
 60 68  1  0
 60 70  1  0
 61 67  1  0
 61 63  1  0
 62 68  1  0
 63 62  1  0
 64 63  2  0
 65 66  1  0
 65 59  2  0
 66 61  2  0
 67 60  1  0
 68 58  1  0
 70 72  2  0
 71 70  1  0
 73 71  1  0
 74 83  2  0
 74 79  1  0
 75 71  1  0
 75 79  1  0
 76 75  1  0
 77 78  1  0
 77 76  1  0
 78 74  1  0
 79 80  2  0
 80 81  1  0
 82 81  2  0
 83 82  1  0
 84 58  1  0
 84 85  1  0
 84 94  1  0
 85 88  1  0
 86 90  1  0
 86 85  1  0
 87 86  2  0
 90 89  1  0
 92 90  1  0
 92 93  1  0
 92 91  1  0
 94 97  1  1
 94 95  1  0
 96 94  1  0
M  ISO  4  14 100  26 100  56 101  57 101
M  END
>  <TORSDO>  (56) 
F 21

>  <SCORE>  (56) 
-12.543

>  <name>  (56) 
55

>  <ligand_id>  (56) 
55

>  <original_smiles>  (56) 
[H]c1c([H])c([H])c2c(c1[H])C([H])([H])C([H])([H])C([H])([H])C2([H])N([H])C(=O)C1([H])N(C(=O)C([H])(N([H])C(=O)C([H])(N([H])C([H])([H])[H])C([H])([H])[H])C(C([H])([H])[H])(C([H])([H])[H])C([H])([H])[H])C([H])([H])c2c([H])c(OC([H])([H])C([H])([H])c3c(C([H])(C([H])([H])[H])C([H])([H])[H])nc(N([H])C([H])([H])C4([H])N(C(=O)N5C([H])([H])C([H])([H])C([H])([H])C([H])(n6nc(-c7c([H])c([H])c(Oc8c([H])c([H])c(F)c([H])c8F)c([H])c7[H])c(C(=O)N([H])[H])c6N([H])[H])C5([H])[H])C([H])([H])C([H])([H])C4([H])[H])c(C([H])([H])[H])c3[H])c([H])c([H])c2C1([H])[H]

>  <smiles>  (56) 
[H]c1c([H])c([H])c2c(c1[H])C([H])([H])C([H])([H])C([H])([H])C2([H])N([H])C(=O)C1([H])N(C(=O)C([H])(N([H])C(=O)C([H])(N([H])C([H])([H])[H])C([H])([H])[H])C(C([H])([H])[H])(C([H])([H])[H])C([H])([H])[H])C([H])([H])c2c([H])c(OC([H])([H])C([H])([H])c3c(C([H])(C([H])([H])[H])C([H])([H])[H])nc(N([H])C([H])([H])C4([H])N(C(=O)N5C([H])([H])C([H])([H])C([H])([H])C([H])(n6nc(-c7c([H])c([H])c(Oc8c([H])c([H])c(F)c([H])c8F)c([H])c7[H])c(C(=O)N([H])[H])c6N([H])[H])C5([H])[H])C([H])([H])C([H])([H])C4([H])[H])c(C([H])([H])[H])c3[H])c([H])c([H])c2C1([H])[H]

$$$$
56:0:0
     RDKit          3D

 97106  0  0  1  0  0  0  0  0999 V2000
  -29.6060  -24.8180   19.7380 C   0  0  0  0  0  3  0  0  0  0  0  0
  -28.1840  -27.2300   19.9040 C   0  0  0  0  0  3  0  0  0  0  0  0
  -28.3290  -24.9090   19.1280 C   0  0  0  0  0  0  0  0  0  0  0  0
  -27.6350  -26.1440   19.1950 C   0  0  0  0  0  0  0  0  0  0  0  0
  -29.4210  -27.1120   20.5600 C   0  0  0  0  0  0  0  0  0  0  0  0
  -30.1580  -25.9100   20.4560 C   0  0  0  0  0  0  0  0  0  0  0  0
  -26.2710  -26.3160   18.5430 C   0  0  0  0  0  1  0  0  0  0  0  0
  -29.9160  -28.2900   21.3810 C   0  0  0  0  0  1  0  0  0  0  0  0
  -26.7600  -22.9030   19.4190 C   0  0  0  0  0  2  0  0  0  0  0  0
  -27.6390  -23.7180   18.4940 C   0  0  0  0  0  3  0  0  0  0  0  0
  -27.9280  -22.2430   18.7330 C   0  0  0  0  0  3  0  0  0  0  0  0
  -26.2740  -20.4490   18.1490 C   0  0  0  0  0  1  0  0  0  0  0  0
  -27.5950  -21.1230   17.7430 C   0  0  0  0  0  3  0  0  0  0  0  0
  -28.7210  -20.0790   17.5850 C   0  0  0  0  0  2  0  0  0  0  0  0
  -28.3000  -18.6270   17.8920 C   0  0  0  0  0  2  0  0  0  0  0  0
  -29.2110  -18.5440   20.2190 C   0  0  0  0  0  0  0  0  0  0  0  0
  -30.9750  -18.9910   21.8770 C   0  0  0  0  0  2  0  0  0  0  0  0
  -32.1350  -19.7200   21.1670 C   0  0  0  0  0  2  0  0  0  0  0  0
  -33.1130  -18.7110   20.5340 C   0  0  0  0  0  2  0  0  0  0  0  0
  -32.3920  -17.6250   19.6900 C   0  0  0  0  0  3  0  0  0  0  0  0
  -31.2030  -17.0200   20.4720 C   0  0  0  0  0  2  0  0  0  0  0  0
  -30.3200  -18.1250   20.8850 N   0  0  0  0  0  0  0  0  0  0  0  0
  -28.4970  -19.4700   20.6110 O   0  0  0  0  0  0  0  0  0  0  0  0
  -29.0550  -18.0140   18.9950 N   0  0  0  0  0  0  0  0  0  0  0  0
  -29.6900  -17.2680   18.7540 H   0  0  0  0  0  0  0  0  0  0  0  0
  -34.3780  -16.6940   18.3400 C   0  0  0  0  0  0  0  0  0  0  0  0
  -34.9710  -15.4600   18.3200 C   0  0  0  0  0  0  0  0  0  0  0  0
  -34.2300  -14.6520   19.2370 C   0  0  0  0  0  0  0  0  0  0  0  0
  -33.3230  -16.5940   19.2350 N   0  0  0  0  0  0  0  0  0  0  0  0
  -33.2100  -15.3380   19.7340 N   0  0  0  0  0  0  0  0  0  0  0  0
  -34.4680  -13.2830   19.7130 C   0  0  0  0  0  0  0  0  0  0  0  0
  -34.0080  -12.1600   18.9910 C   0  0  0  0  0  3  0  0  0  0  0  0
  -34.2650  -10.8540   19.4590 C   0  0  0  0  0  3  0  0  0  0  0  0
  -34.9900  -10.6600   20.6590 C   0  0  0  0  0  0  0  0  0  0  0  0
  -35.4260  -11.7810   21.3850 C   0  0  0  0  0  3  0  0  0  0  0  0
  -35.1660  -13.0820   20.9200 C   0  0  0  0  0  3  0  0  0  0  0  0
  -35.2650   -9.4280   21.2040 O   0  0  0  0  0  0  0  0  0  0  0  0
  -35.6410   -8.3640   20.4230 C   0  0  0  0  0  0  0  0  0  0  0  0
  -34.7300   -7.3510   20.0560 C   0  0  0  0  0  3  0  0  0  0  0  0
  -35.1400   -6.3130   19.1960 C   0  0  0  0  0  3  0  0  0  0  0  0
  -36.4550   -6.2910   18.6940 C   0  0  0  0  0  0  0  0  0  0  0  0
  -37.3620   -7.3030   19.0540 C   0  0  0  0  0  3  0  0  0  0  0  0
  -36.9560   -8.3390   19.9140 C   0  0  0  0  0  0  0  0  0  0  0  0
  -37.8270   -9.3230   20.2400 F   0  0  0  0  0  0  0  0  0  0  0  0
  -36.8480   -5.2990   17.8610 F   0  0  0  0  0  0  0  0  0  0  0  0
  -36.2130  -15.0760   17.5690 C   0  0  0  0  0  0  0  0  0  0  0  0
  -36.1090  -14.9140   16.2540 N   0  0  0  0  0  0  0  0  0  0  0  0
  -37.2960  -14.9630   18.1410 O   0  0  0  0  0  0  0  0  0  0  0  0
  -35.2240  -15.0260   15.7820 H   0  0  0  0  0  0  0  0  0  0  0  0
  -36.9270  -14.6750   15.7120 H   0  0  0  0  0  0  0  0  0  0  0  0
  -34.6570  -17.8930   17.6900 N   0  0  0  0  0  0  0  0  0  0  0  0
  -35.4620  -18.0010   17.0830 H   0  0  0  0  0  0  0  0  0  0  0  0
  -34.1660  -18.7620   17.8530 H   0  0  0  0  0  0  0  0  0  0  0  0
  -31.3510  -25.7830   21.1320 O   0  0  0  0  0  0  0  0  0  0  0  0
  -32.5320  -26.1430   20.4110 C   0  0  0  0  0  2  0  0  0  0  0  0
  -33.6250  -26.7010   21.3470 C   0  0  0  0  0  2  0  0  0  0  0  0
  -34.7880  -27.1070   20.6050 O   0  0  0  0  0  0  0  0  0  0  0  0
  -38.7590  -21.2410   20.0340 C   0  0  0  0  0  0  0  0  0  0  0  0
  -35.3910  -26.2260   19.7270 C   0  0  0  0  0  0  0  0  0  0  0  0
  -38.4530  -22.5340   17.9490 C   0  0  0  0  0  3  0  0  0  0  0  0
  -36.6750  -24.3570   18.0260 C   0  0  0  0  0  0  0  0  0  0  0  0
  -36.6790  -22.5920   19.7950 C   0  0  0  0  0  2  0  0  0  0  0  0
  -36.3330  -23.9930   19.3340 C   0  0  0  0  0  0  0  0  0  0  0  0
  -35.6930  -24.9220   20.1840 C   0  0  0  0  0  3  0  0  0  0  0  0
  -35.7170  -26.5600   18.3900 C   0  0  0  0  0  3  0  0  0  0  0  0
  -36.3710  -25.6420   17.5500 C   0  0  0  0  0  3  0  0  0  0  0  0
  -37.3620  -23.3150   17.1740 C   0  0  0  0  0  2  0  0  0  0  0  0
  -37.9940  -22.1070   19.3110 N   0  0  0  0  0  0  0  0  0  0  0  0
  -39.8060  -20.7690   19.5710 O   0  0  0  0  0  0  0  0  0  0  0  0
  -39.7430  -23.3840   17.9780 C   0  0  0  0  0  0  0  0  0  0  0  0
  -39.7360  -24.5050   17.2390 N   0  0  0  0  0  0  0  0  0  0  0  0
  -40.7070  -23.0470   18.6690 O   0  0  0  0  0  0  0  0  0  0  0  0
  -38.9090  -24.7080   16.6960 H   0  0  0  0  0  0  0  0  0  0  0  0
  -40.9080  -27.3840   15.3980 C   0  0  0  0  0  0  0  0  0  0  0  0
  -40.8240  -25.4780   17.1420 C   0  0  0  0  0  3  0  0  0  0  0  0
  -40.6700  -26.5920   18.2030 C   0  0  0  0  0  2  0  0  0  0  0  0
  -39.9140  -27.8190   17.6850 C   0  0  0  0  0  2  0  0  0  0  0  0
  -40.6320  -28.4210   16.4720 C   0  0  0  0  0  2  0  0  0  0  0  0
  -40.9810  -26.0000   15.7100 C   0  0  0  0  0  0  0  0  0  0  0  0
  -41.2050  -25.0730   14.6690 C   0  0  0  0  0  3  0  0  0  0  0  0
  -41.3570  -25.5070   13.3380 C   0  0  0  0  0  3  0  0  0  0  0  0
  -41.3010  -26.8790   13.0370 C   0  0  0  0  0  3  0  0  0  0  0  0
  -41.0810  -27.8130   14.0660 C   0  0  0  0  0  3  0  0  0  0  0  0
  -38.3410  -20.7840   21.4660 C   0  0  0  0  0  3  0  0  0  0  0  0
  -38.9090  -19.4460   21.6860 N   0  0  0  0  0  0  0  0  0  0  0  0
  -38.1910  -18.3510   21.9650 C   0  0  0  0  0  0  0  0  0  0  0  0
  -36.9690  -18.3780   22.1360 O   0  0  0  0  0  0  0  0  0  0  0  0
  -39.8970  -19.3390   21.5050 H   0  0  0  0  0  0  0  0  0  0  0  0
  -38.0890  -15.8880   21.4680 C   0  0  0  0  0  1  0  0  0  0  0  0
  -38.9470  -17.0130   22.0700 C   0  0  0  0  0  3  0  0  0  0  0  0
  -40.6840  -17.0890   23.8020 C   0  0  0  0  0  1  0  0  0  0  0  0
  -39.3320  -16.6600   23.4530 N   0  0  0  0  0  0  0  0  0  0  0  0
  -39.2690  -15.6560   23.6020 H   0  0  0  0  0  0  0  0  0  0  0  0
  -38.8050  -21.7810   22.5980 C   0  0  1  0  0  0  0  0  0  0  0  0
  -39.8590  -21.1850   23.5600 C   0  0  0  0  0  1  0  0  0  0  0  0
  -39.4050  -23.0660   21.9800 C   0  0  0  0  0  1  0  0  0  0  0  0
  -37.5840  -22.2240   23.4380 C   0  0  0  0  0  1  0  0  0  0  0  0
  1  6  1  0
  2  5  1  0
  3  4  1  0
  3  1  2  0
  4  2  2  0
  5  8  1  0
  6  5  2  0
  6 54  1  0
  7  4  1  0
 10 11  1  0
 10  3  1  0
 10  9  1  0
 11 13  1  0
 11  9  1  0
 13 12  1  0
 14 13  1  0
 14 15  1  0
 15 24  1  0
 16 23  2  0
 16 22  1  0
 18 17  1  0
 19 18  1  0
 20 29  1  0
 20 21  1  0
 20 19  1  0
 21 22  1  0
 22 17  1  0
 24 16  1  0
 25 24  1  0
 26 29  1  0
 27 26  2  0
 27 28  1  0
 28 31  1  0
 28 30  2  0
 29 30  1  0
 31 36  1  0
 32 33  1  0
 32 31  2  0
 33 34  2  0
 34 37  1  0
 34 35  1  0
 36 35  2  0
 38 37  1  0
 39 38  1  0
 40 39  2  0
 41 42  2  0
 41 40  1  0
 42 43  1  0
 43 44  1  0
 43 38  2  0
 45 41  1  0
 46 48  2  0
 46 27  1  0
 47 46  1  0
 49 47  1  0
 50 47  1  0
 51 53  1  0
 51 26  1  0
 52 51  1  0
 55 54  1  0
 55 56  1  0
 57 56  1  0
 59 64  1  0
 59 57  1  0
 60 70  1  0
 60 68  1  0
 61 63  1  0
 63 62  1  0
 63 64  2  0
 65 59  2  0
 66 61  2  0
 66 65  1  0
 67 60  1  0
 67 61  1  0
 68 62  1  0
 68 58  1  0
 69 58  2  0
 70 72  2  0
 71 70  1  0
 73 71  1  0
 74 79  1  0
 74 78  1  0
 75 71  1  0
 75 76  1  0
 77 76  1  0
 78 77  1  0
 79 75  1  0
 80 79  2  0
 81 80  1  0
 82 81  2  0
 82 83  1  0
 83 74  2  0
 84 58  1  0
 84 85  1  0
 84 94  1  0
 85 86  1  0
 86 90  1  0
 86 87  2  0
 88 85  1  0
 90 89  1  0
 90 92  1  0
 92 93  1  0
 92 91  1  0
 94 97  1  1
 94 95  1  0
 96 94  1  0
M  ISO  4  16 100  24 100  56 101  57 101
M  END
>  <TORSDO>  (57) 
F 23

>  <SCORE>  (57) 
-4.251

>  <name>  (57) 
56

>  <ligand_id>  (57) 
56

>  <original_smiles>  (57) 
[H]c1c([H])c([H])c2c(c1[H])C([H])([H])C([H])([H])C([H])([H])C2([H])N([H])C(=O)C1([H])N(C(=O)C([H])(N([H])C(=O)C([H])(N([H])C([H])([H])[H])C([H])([H])[H])C(C([H])([H])[H])(C([H])([H])[H])C([H])([H])[H])C([H])([H])c2c([H])c(OC([H])([H])C([H])([H])Oc3c([H])c(C4([H])C([H])([H])C4([H])C([H])(C([H])([H])[H])C([H])([H])C([H])([H])N([H])C(=O)N4C([H])([H])C([H])([H])C([H])([H])C([H])(n5nc(-c6c([H])c([H])c(Oc7c([H])c([H])c(F)c([H])c7F)c([H])c6[H])c(C(=O)N([H])[H])c5N([H])[H])C4([H])[H])c(C([H])([H])[H])c([H])c3C([H])([H])[H])c([H])c([H])c2C1([H])[H]

>  <smiles>  (57) 
[H]c1c([H])c([H])c2c(c1[H])C([H])([H])C([H])([H])C([H])([H])C2([H])N([H])C(=O)C1([H])N(C(=O)C([H])(N([H])C(=O)C([H])(N([H])C([H])([H])[H])C([H])([H])[H])C(C([H])([H])[H])(C([H])([H])[H])C([H])([H])[H])C([H])([H])c2c([H])c(OC([H])([H])C([H])([H])Oc3c([H])c(C4([H])C([H])([H])C4([H])C([H])(C([H])([H])[H])C([H])([H])C([H])([H])N([H])C(=O)N4C([H])([H])C([H])([H])C([H])([H])C([H])(n5nc(-c6c([H])c([H])c(Oc7c([H])c([H])c(F)c([H])c7F)c([H])c6[H])c(C(=O)N([H])[H])c5N([H])[H])C4([H])[H])c(C([H])([H])[H])c([H])c3C([H])([H])[H])c([H])c([H])c2C1([H])[H]

$$$$
57:0:0
     RDKit          3D

 93102  0  0  1  0  0  0  0  0999 V2000
  -29.7990  -24.1860   20.4150 C   0  0  0  0  0  3  0  0  0  0  0  0
  -27.5920  -23.5520   20.0280 C   0  0  0  0  0  3  0  0  0  0  0  0
  -30.1850  -22.7930   20.3730 C   0  0  0  0  0  0  0  0  0  0  0  0
  -28.4800  -24.6840   20.2260 C   0  0  0  0  0  0  0  0  0  0  0  0
  -29.2310  -21.7420   20.1860 C   0  0  0  0  0  0  0  0  0  0  0  0
  -27.9320  -22.1770   20.0190 N   0  0  0  0  0  0  0  0  0  0  0  0
  -32.6140  -23.5480   20.0200 C   0  0  0  0  0  1  0  0  0  0  0  0
  -31.6680  -22.4370   20.5100 C   0  0  0  0  0  3  0  0  0  0  0  0
  -31.7000  -20.6430   22.4470 C   0  0  0  0  0  2  0  0  0  0  0  0
  -33.1300  -21.0590   22.2050 C   0  0  0  0  0  2  0  0  0  0  0  0
  -32.0040  -22.0330   21.9360 C   0  0  0  0  0  3  0  0  0  0  0  0
  -28.3140  -26.1530   20.2060 O   0  0  0  0  0  0  0  0  0  0  0  0
  -24.5890  -31.7530   23.2140 C   0  0  0  0  0  0  0  0  0  0  0  0
  -27.1810  -27.0360   20.2100 C   0  0  0  0  0  0  0  0  0  0  0  0
  -23.3980  -30.3670   21.5560 C   0  0  0  0  0  3  0  0  0  0  0  0
  -24.8510  -28.7750   20.1510 C   0  0  0  0  0  0  0  0  0  0  0  0
  -25.9500  -30.6200   21.4190 C   0  0  0  0  0  2  0  0  0  0  0  0
  -26.0200  -29.2230   20.7770 C   0  0  0  0  0  0  0  0  0  0  0  0
  -27.1810  -28.3680   20.7900 C   0  0  0  0  0  3  0  0  0  0  0  0
  -25.9910  -26.6810   19.5430 C   0  0  0  0  0  3  0  0  0  0  0  0
  -24.8470  -27.5150   19.5240 C   0  0  0  0  0  3  0  0  0  0  0  0
  -23.6290  -29.6810   20.1810 C   0  0  0  0  0  2  0  0  0  0  0  0
  -24.6650  -30.9360   22.1180 N   0  0  0  0  0  0  0  0  0  0  0  0
  -23.5000  -32.0430   23.7330 O   0  0  0  0  0  0  0  0  0  0  0  0
  -22.7050  -29.3650   22.5120 C   0  0  0  0  0  0  0  0  0  0  0  0
  -21.3800  -29.1910   22.3600 N   0  0  0  0  0  0  0  0  0  0  0  0
  -23.3620  -28.7440   23.3510 O   0  0  0  0  0  0  0  0  0  0  0  0
  -20.9060  -29.7420   21.6590 H   0  0  0  0  0  0  0  0  0  0  0  0
  -17.9990  -27.9670   22.7840 C   0  0  0  0  0  0  0  0  0  0  0  0
  -20.5470  -28.2550   23.1190 C   0  0  0  0  0  3  0  0  0  0  0  0
  -20.6770  -26.8170   22.5630 C   0  0  0  0  0  2  0  0  0  0  0  0
  -19.6070  -26.4750   21.5220 C   0  0  0  0  0  2  0  0  0  0  0  0
  -18.2060  -26.6140   22.1260 C   0  0  0  0  0  2  0  0  0  0  0  0
  -19.0980  -28.7450   23.2370 C   0  0  0  0  0  0  0  0  0  0  0  0
  -18.8510  -30.0100   23.8110 C   0  0  0  0  0  3  0  0  0  0  0  0
  -17.5370  -30.4990   23.9370 C   0  0  0  0  0  3  0  0  0  0  0  0
  -16.4520  -29.7200   23.5010 C   0  0  0  0  0  3  0  0  0  0  0  0
  -16.6830  -28.4560   22.9300 C   0  0  0  0  0  3  0  0  0  0  0  0
  -25.8650  -32.3800   23.8570 C   0  0  0  0  0  3  0  0  0  0  0  0
  -25.5590  -33.7810   24.1880 N   0  0  0  0  0  0  0  0  0  0  0  0
  -25.8920  -34.8360   23.4330 C   0  0  0  0  0  0  0  0  0  0  0  0
  -26.5550  -34.7310   22.3980 O   0  0  0  0  0  0  0  0  0  0  0  0
  -24.9690  -33.9340   24.9940 H   0  0  0  0  0  0  0  0  0  0  0  0
  -24.1580  -36.6320   23.1100 C   0  0  0  0  0  1  0  0  0  0  0  0
  -25.4140  -36.2260   23.8980 C   0  0  0  0  0  3  0  0  0  0  0  0
  -27.5630  -37.1140   24.6910 C   0  0  0  0  0  1  0  0  0  0  0  0
  -26.4450  -37.2790   23.7650 N   0  0  0  0  0  0  0  0  0  0  0  0
  -26.0410  -38.1990   23.9160 H   0  0  0  0  0  0  0  0  0  0  0  0
  -26.3560  -31.6050   25.1420 C   0  0  1  0  0  0  0  0  0  0  0  0
  -25.2470  -31.3780   26.1940 C   0  0  0  0  0  1  0  0  0  0  0  0
  -26.9320  -30.2220   24.7610 C   0  0  0  0  0  1  0  0  0  0  0  0
  -27.5050  -32.3880   25.8190 C   0  0  0  0  0  1  0  0  0  0  0  0
  -29.7070  -20.3460   20.1660 O   0  0  0  0  0  0  0  0  0  0  0  0
  -29.0880  -18.9390   20.0800 C   0  0  0  0  0  3  0  0  0  0  0  0
  -30.0960  -17.5700   20.0930 C   0  0  0  0  0  3  0  0  0  0  0  0
  -30.4430  -14.8460   19.9310 C   0  0  0  0  0  0  0  0  0  0  0  0
  -30.2630  -12.5050   18.9720 C   0  0  0  0  0  2  0  0  0  0  0  0
  -29.2540  -12.4680   17.8010 C   0  0  0  0  0  2  0  0  0  0  0  0
  -27.8220  -12.2500   18.3280 C   0  0  0  0  0  2  0  0  0  0  0  0
  -27.4900  -13.1660   19.5340 C   0  0  0  0  0  3  0  0  0  0  0  0
  -28.6130  -13.1720   20.5910 C   0  0  0  0  0  2  0  0  0  0  0  0
  -29.8400  -13.5910   19.9020 N   0  0  0  0  0  0  0  0  0  0  0  0
  -31.6270  -14.9090   19.5880 O   0  0  0  0  0  0  0  0  0  0  0  0
  -29.6880  -16.0380   20.1320 N   0  0  0  0  0  0  0  0  0  0  0  0
  -28.7170  -15.8690   20.3480 H   0  0  0  0  0  0  0  0  0  0  0  0
  -25.1660  -13.7340   20.4410 C   0  0  0  0  0  0  0  0  0  0  0  0
  -24.1260  -12.9540   20.8660 C   0  0  0  0  0  0  0  0  0  0  0  0
  -24.5850  -11.6030   20.7780 C   0  0  0  0  0  0  0  0  0  0  0  0
  -26.1880  -12.8600   20.1150 N   0  0  0  0  0  0  0  0  0  0  0  0
  -25.8530  -11.5710   20.3840 N   0  0  0  0  0  0  0  0  0  0  0  0
  -23.8700  -10.3380   20.9890 C   0  0  0  0  0  0  0  0  0  0  0  0
  -24.3410   -9.3630   21.8950 C   0  0  0  0  0  3  0  0  0  0  0  0
  -23.6240   -8.1640   22.0960 C   0  0  0  0  0  3  0  0  0  0  0  0
  -22.4190   -7.9330   21.3910 C   0  0  0  0  0  0  0  0  0  0  0  0
  -21.9650   -8.8960   20.4730 C   0  0  0  0  0  3  0  0  0  0  0  0
  -22.6840  -10.0860   20.2710 C   0  0  0  0  0  3  0  0  0  0  0  0
  -21.6680   -6.7870   21.5030 O   0  0  0  0  0  0  0  0  0  0  0  0
  -21.6600   -6.0420   22.6540 C   0  0  0  0  0  0  0  0  0  0  0  0
  -21.2740   -6.5920   23.8960 C   0  0  0  0  0  3  0  0  0  0  0  0
  -21.2140   -5.7720   25.0410 C   0  0  0  0  0  3  0  0  0  0  0  0
  -21.5280   -4.4040   24.9450 C   0  0  0  0  0  0  0  0  0  0  0  0
  -21.9070   -3.8530   23.7080 C   0  0  0  0  0  3  0  0  0  0  0  0
  -21.9700   -4.6690   22.5660 C   0  0  0  0  0  0  0  0  0  0  0  0
  -22.3160   -4.1290   21.3720 F   0  0  0  0  0  0  0  0  0  0  0  0
  -21.4640   -3.6140   26.0430 F   0  0  0  0  0  0  0  0  0  0  0  0
  -22.7500  -13.4280   21.2320 C   0  0  0  0  0  0  0  0  0  0  0  0
  -22.0760  -12.7170   22.1290 N   0  0  0  0  0  0  0  0  0  0  0  0
  -22.2850  -14.4630   20.7590 O   0  0  0  0  0  0  0  0  0  0  0  0
  -22.4680  -11.8780   22.5330 H   0  0  0  0  0  0  0  0  0  0  0  0
  -21.1560  -13.0160   22.4160 H   0  0  0  0  0  0  0  0  0  0  0  0
  -25.3190  -15.1080   20.2780 N   0  0  0  0  0  0  0  0  0  0  0  0
  -24.5580  -15.7580   20.4500 H   0  0  0  0  0  0  0  0  0  0  0  0
  -26.1290  -15.5520   19.8670 H   0  0  0  0  0  0  0  0  0  0  0  0
  2  4  2  0
  3  1  2  0
  3  8  1  0
  4  1  1  0
  5  3  1  0
  6  2  1  0
  6  5  2  0
  8  7  1  0
  8 11  1  0
 10  9  1  0
 11 10  1  0
 11  9  1  0
 12 14  1  0
 12  4  1  0
 13 24  2  0
 14 19  1  0
 15 23  1  0
 15 25  1  0
 16 22  1  0
 16 18  1  0
 17 23  1  0
 18 19  2  0
 18 17  1  0
 20 14  2  0
 21 20  1  0
 21 16  2  0
 22 15  1  0
 23 13  1  0
 25 27  2  0
 26 25  1  0
 28 26  1  0
 29 38  2  0
 29 34  1  0
 30 26  1  0
 30 34  1  0
 31 30  1  0
 32 33  1  0
 32 31  1  0
 33 29  1  0
 34 35  2  0
 35 36  1  0
 37 36  2  0
 38 37  1  0
 39 13  1  0
 39 40  1  0
 39 49  1  0
 40 43  1  0
 41 45  1  0
 41 40  1  0
 42 41  2  0
 45 44  1  0
 47 45  1  0
 47 48  1  0
 47 46  1  0
 49 52  1  1
 49 50  1  0
 51 49  1  0
 53  5  1  0
 54 55  2  0
 54 53  1  0
 55 64  1  0
 56 64  1  0
 57 62  1  0
 58 59  1  0
 58 57  1  0
 60 59  1  0
 60 69  1  0
 60 61  1  0
 62 56  1  0
 62 61  1  0
 63 56  2  0
 64 65  1  0
 66 67  2  0
 67 86  1  0
 68 67  1  0
 68 71  1  0
 69 70  1  0
 69 66  1  0
 70 68  2  0
 71 72  1  0
 72 73  2  0
 74 77  1  0
 74 73  1  0
 75 74  2  0
 76 75  1  0
 76 71  2  0
 77 78  1  0
 78 79  1  0
 79 80  2  0
 81 80  1  0
 81 85  1  0
 82 81  2  0
 83 78  2  0
 83 82  1  0
 84 83  1  0
 86 87  1  0
 87 90  1  0
 87 89  1  0
 88 86  2  0
 91 66  1  0
 91 92  1  0
 93 91  1  0
M  ISO  4   4 101  12 101  56 100  64 100
M  END
>  <TORSDO>  (58) 
F 21

>  <SCORE>  (58) 
-13.607

>  <name>  (58) 
57

>  <ligand_id>  (58) 
57

>  <original_smiles>  (58) 
[H]c1nc(OC([H])([H])C([H])([H])N([H])C(=O)N2C([H])([H])C([H])([H])C([H])([H])C([H])(n3nc(-c4c([H])c([H])c(Oc5c([H])c([H])c(F)c([H])c5F)c([H])c4[H])c(C(=O)N([H])[H])c3N([H])[H])C2([H])[H])c(C([H])(C([H])([H])[H])C2([H])C([H])([H])C2([H])[H])c([H])c1Oc1c([H])c([H])c2c(c1[H])C([H])([H])N(C(=O)C([H])(N([H])C(=O)C([H])(N([H])C([H])([H])[H])C([H])([H])[H])C(C([H])([H])[H])(C([H])([H])[H])C([H])([H])[H])C([H])(C(=O)N([H])C1([H])c3c([H])c([H])c([H])c([H])c3C([H])([H])C([H])([H])C1([H])[H])C2([H])[H]

>  <smiles>  (58) 
[H]c1nc(OC([H])([H])C([H])([H])N([H])C(=O)N2C([H])([H])C([H])([H])C([H])([H])C([H])(n3nc(-c4c([H])c([H])c(Oc5c([H])c([H])c(F)c([H])c5F)c([H])c4[H])c(C(=O)N([H])[H])c3N([H])[H])C2([H])[H])c(C([H])(C([H])([H])[H])C2([H])C([H])([H])C2([H])[H])c([H])c1Oc1c([H])c([H])c2c(c1[H])C([H])([H])N(C(=O)C([H])(N([H])C(=O)C([H])(N([H])C([H])([H])[H])C([H])([H])[H])C(C([H])([H])[H])(C([H])([H])[H])C([H])([H])[H])C([H])(C(=O)N([H])C1([H])c3c([H])c([H])c([H])c([H])c3C([H])([H])C([H])([H])C1([H])[H])C2([H])[H]

$$$$
58:0:0
     RDKit          3D

 97107  0  0  1  0  0  0  0  0999 V2000
  -29.9090  -21.7540   19.4000 C   0  0  0  0  0  3  0  0  0  0  0  0
  -30.1510  -20.3690   19.5790 C   0  0  0  0  0  0  0  0  0  0  0  0
  -30.1930  -19.8720   20.9190 C   0  0  0  0  0  0  0  0  0  0  0  0
  -29.9890  -20.8120   21.9710 C   0  0  0  0  0  0  0  0  0  0  0  0
  -29.7090  -22.5880   20.5120 C   0  0  0  0  0  0  0  0  0  0  0  0
  -30.0020  -20.4350   23.4450 C   0  0  0  0  0  1  0  0  0  0  0  0
  -29.7500  -22.1230   21.7630 N   0  0  0  0  0  0  0  0  0  0  0  0
  -29.3920  -23.9440   20.4230 N   0  0  0  0  0  0  0  0  0  0  0  0
  -29.2240  -24.3980   21.3140 H   0  0  0  0  0  0  0  0  0  0  0  0
  -31.0540  -14.6020   19.9030 C   0  0  0  0  0  0  0  0  0  0  0  0
  -30.5730  -12.5500   18.5990 C   0  0  0  0  0  2  0  0  0  0  0  0
  -29.5120  -12.8200   17.5100 C   0  0  0  0  0  2  0  0  0  0  0  0
  -28.0870  -12.6680   18.0760 C   0  0  0  0  0  2  0  0  0  0  0  0
  -27.9030  -13.4400   19.4060 C   0  0  0  0  0  3  0  0  0  0  0  0
  -29.0520  -13.0840   20.3840 C   0  0  0  0  0  2  0  0  0  0  0  0
  -30.3160  -13.4600   19.7350 N   0  0  0  0  0  0  0  0  0  0  0  0
  -32.0710  -14.7950   19.2240 O   0  0  0  0  0  0  0  0  0  0  0  0
  -29.2570  -17.4680   20.7580 C   0  0  0  0  0  2  0  0  0  0  0  0
  -31.7710  -17.7530   20.9900 C   0  0  0  0  0  2  0  0  0  0  0  0
  -29.4310  -16.0310   21.2800 C   0  0  0  0  0  2  0  0  0  0  0  0
  -31.8190  -16.2990   21.5200 C   0  0  0  0  0  2  0  0  0  0  0  0
  -30.3880  -18.3760   21.2700 C   0  0  0  0  0  3  0  0  0  0  0  0
  -30.7540  -15.4650   20.9230 N   0  0  0  0  0  0  0  0  0  0  0  0
  -25.5940  -14.0950   20.3460 C   0  0  0  0  0  0  0  0  0  0  0  0
  -24.5410  -13.3360   20.7820 C   0  0  0  0  0  0  0  0  0  0  0  0
  -24.9580  -11.9750   20.6530 C   0  0  0  0  0  0  0  0  0  0  0  0
  -26.5890  -13.1950   19.9930 N   0  0  0  0  0  0  0  0  0  0  0  0
  -26.2110  -11.9140   20.2280 N   0  0  0  0  0  0  0  0  0  0  0  0
  -24.2170  -10.7240   20.8520 C   0  0  0  0  0  0  0  0  0  0  0  0
  -24.6450   -9.7550   21.7860 C   0  0  0  0  0  3  0  0  0  0  0  0
  -23.9060   -8.5670   21.9730 C   0  0  0  0  0  3  0  0  0  0  0  0
  -22.7250   -8.3420   21.2260 C   0  0  0  0  0  0  0  0  0  0  0  0
  -22.3170   -9.3000   20.2820 C   0  0  0  0  0  3  0  0  0  0  0  0
  -23.0560  -10.4800   20.0930 C   0  0  0  0  0  3  0  0  0  0  0  0
  -21.9570   -7.2060   21.3250 O   0  0  0  0  0  0  0  0  0  0  0  0
  -21.8160   -6.5330   22.5120 C   0  0  0  0  0  0  0  0  0  0  0  0
  -21.3050   -7.1600   23.6700 C   0  0  0  0  0  3  0  0  0  0  0  0
  -21.1130   -6.4120   24.8480 C   0  0  0  0  0  3  0  0  0  0  0  0
  -21.4230   -5.0390   24.8700 C   0  0  0  0  0  0  0  0  0  0  0  0
  -21.9260   -4.4110   23.7170 C   0  0  0  0  0  3  0  0  0  0  0  0
  -22.1200   -5.1560   22.5410 C   0  0  0  0  0  0  0  0  0  0  0  0
  -22.5860   -4.5430   21.4260 F   0  0  0  0  0  0  0  0  0  0  0  0
  -21.2320   -4.3190   26.0000 F   0  0  0  0  0  0  0  0  0  0  0  0
  -23.1880  -13.8340   21.2030 C   0  0  0  0  0  0  0  0  0  0  0  0
  -22.5360  -13.1290   22.1210 N   0  0  0  0  0  0  0  0  0  0  0  0
  -22.7220  -14.8800   20.7510 O   0  0  0  0  0  0  0  0  0  0  0  0
  -22.9260  -12.2810   22.5030 H   0  0  0  0  0  0  0  0  0  0  0  0
  -21.6330  -13.4430   22.4470 H   0  0  0  0  0  0  0  0  0  0  0  0
  -25.7800  -15.4670   20.2010 N   0  0  0  0  0  0  0  0  0  0  0  0
  -25.0360  -16.1340   20.3690 H   0  0  0  0  0  0  0  0  0  0  0  0
  -26.6060  -15.8940   19.8030 H   0  0  0  0  0  0  0  0  0  0  0  0
  -31.5890  -19.6030   17.5180 C   0  0  0  0  0  2  0  0  0  0  0  0
  -30.2500  -19.9550   16.9170 C   0  0  0  0  0  2  0  0  0  0  0  0
  -30.3390  -19.4870   18.3600 C   0  0  0  0  0  3  0  0  0  0  0  0
  -30.0300  -24.7960   19.4240 C   0  0  0  0  0  2  0  0  0  0  0  0
  -29.0570  -25.8650   18.8990 C   0  0  0  0  0  2  0  0  0  0  0  0
  -28.7400  -26.8010   19.9380 O   0  0  0  0  0  0  0  0  0  0  0  0
  -24.7510  -31.6900   23.2130 C   0  0  0  0  0  0  0  0  0  0  0  0
  -27.5290  -27.4640   19.9370 C   0  0  0  0  0  0  0  0  0  0  0  0
  -23.5860  -30.3270   21.5090 C   0  0  0  0  0  3  0  0  0  0  0  0
  -25.0830  -28.8930   20.0250 C   0  0  0  0  0  0  0  0  0  0  0  0
  -26.1010  -30.7610   21.3370 C   0  0  0  0  0  2  0  0  0  0  0  0
  -26.2240  -29.4220   20.6390 C   0  0  0  0  0  0  0  0  0  0  0  0
  -27.4430  -28.7090   20.6030 C   0  0  0  0  0  3  0  0  0  0  0  0
  -26.3570  -26.9370   19.3440 C   0  0  0  0  0  3  0  0  0  0  0  0
  -25.1430  -27.6450   19.3820 C   0  0  0  0  0  3  0  0  0  0  0  0
  -23.8150  -29.7120   20.1030 C   0  0  0  0  0  2  0  0  0  0  0  0
  -24.8310  -30.9390   22.0780 N   0  0  0  0  0  0  0  0  0  0  0  0
  -23.6630  -31.9120   23.7600 O   0  0  0  0  0  0  0  0  0  0  0  0
  -22.9610  -29.2500   22.4240 C   0  0  0  0  0  0  0  0  0  0  0  0
  -21.6480  -29.0200   22.2670 N   0  0  0  0  0  0  0  0  0  0  0  0
  -23.6580  -28.6240   23.2290 O   0  0  0  0  0  0  0  0  0  0  0  0
  -21.1460  -29.5810   21.5910 H   0  0  0  0  0  0  0  0  0  0  0  0
  -18.3200  -27.6630   22.6420 C   0  0  0  0  0  0  0  0  0  0  0  0
  -20.8560  -28.0260   22.9910 C   0  0  0  0  0  3  0  0  0  0  0  0
  -21.0390  -26.6170   22.3810 C   0  0  0  0  0  2  0  0  0  0  0  0
  -19.9800  -26.2720   21.3300 C   0  0  0  0  0  2  0  0  0  0  0  0
  -18.5770  -26.3400   21.9380 C   0  0  0  0  0  2  0  0  0  0  0  0
  -19.3920  -28.4610   23.1220 C   0  0  0  0  0  0  0  0  0  0  0  0
  -19.1020  -29.6990   23.7350 C   0  0  0  0  0  3  0  0  0  0  0  0
  -17.7730  -30.1390   23.8760 C   0  0  0  0  0  3  0  0  0  0  0  0
  -16.7140  -29.3370   23.4120 C   0  0  0  0  0  3  0  0  0  0  0  0
  -16.9900  -28.1010   22.8020 C   0  0  0  0  0  3  0  0  0  0  0  0
  -26.0210  -32.3270   23.8610 C   0  0  0  0  0  3  0  0  0  0  0  0
  -26.5650  -31.5100   25.0950 C   0  0  1  0  0  0  0  0  0  0  0  0
  -25.4830  -31.1860   26.1510 C   0  0  0  0  0  1  0  0  0  0  0  0
  -27.1890  -30.1710   24.6340 C   0  0  0  0  0  1  0  0  0  0  0  0
  -27.6920  -32.3050   25.7950 C   0  0  0  0  0  1  0  0  0  0  0  0
  -25.6730  -33.6980   24.2560 N   0  0  0  0  0  0  0  0  0  0  0  0
  -25.9680  -34.7940   23.5420 C   0  0  0  0  0  0  0  0  0  0  0  0
  -26.6350  -34.7580   22.5050 O   0  0  0  0  0  0  0  0  0  0  0  0
  -25.0780  -33.7990   25.0650 H   0  0  0  0  0  0  0  0  0  0  0  0
  -24.1780  -36.5400   23.2800 C   0  0  0  0  0  1  0  0  0  0  0  0
  -25.4390  -36.1440   24.0630 C   0  0  0  0  0  3  0  0  0  0  0  0
  -27.5520  -37.0600   24.9160 C   0  0  0  0  0  1  0  0  0  0  0  0
  -26.4350  -37.2340   23.9910 N   0  0  0  0  0  0  0  0  0  0  0  0
  -25.9990  -38.1310   24.1900 H   0  0  0  0  0  0  0  0  0  0  0  0
  1  2  2  0
  1  5  1  0
  2  3  1  0
  3  4  2  0
  4  6  1  0
  5  7  2  0
  7  4  1  0
  8  5  1  0
  8  9  1  0
 10 23  1  0
 11 16  1  0
 12 13  1  0
 12 11  1  0
 14 13  1  0
 14 27  1  0
 14 15  1  0
 16 10  1  0
 16 15  1  0
 17 10  2  0
 18 22  1  0
 18 20  1  0
 19 22  1  0
 19 21  1  0
 22  3  1  0
 23 20  1  0
 23 21  1  0
 24 25  2  0
 25 44  1  0
 26 25  1  0
 26 29  1  0
 27 28  1  0
 27 24  1  0
 28 26  2  0
 29 30  1  0
 30 31  2  0
 32 35  1  0
 32 31  1  0
 33 32  2  0
 34 33  1  0
 34 29  2  0
 35 36  1  0
 36 41  2  0
 36 37  1  0
 37 38  2  0
 38 39  1  0
 39 43  1  0
 40 39  2  0
 41 40  1  0
 42 41  1  0
 44 45  1  0
 45 48  1  0
 45 47  1  0
 46 44  2  0
 49 24  1  0
 49 50  1  0
 51 49  1  0
 52 54  1  0
 53 52  1  0
 53 54  1  0
 54  2  1  0
 55  8  1  0
 56 55  1  0
 56 57  1  0
 58 69  2  0
 59 57  1  0
 59 64  1  0
 60 68  1  0
 60 70  1  0
 61 67  1  0
 61 63  1  0
 62 68  1  0
 63 62  1  0
 64 63  2  0
 65 66  1  0
 65 59  2  0
 66 61  2  0
 67 60  1  0
 68 58  1  0
 70 72  2  0
 71 70  1  0
 73 71  1  0
 74 83  2  0
 74 79  1  0
 75 71  1  0
 75 79  1  0
 76 75  1  0
 77 78  1  0
 77 76  1  0
 78 74  1  0
 79 80  2  0
 80 81  1  0
 82 81  2  0
 83 82  1  0
 84 58  1  0
 84 89  1  0
 84 85  1  0
 85 88  1  1
 85 86  1  0
 87 85  1  0
 89 92  1  0
 90 94  1  0
 90 89  1  0
 91 90  2  0
 94 93  1  0
 96 94  1  0
 96 97  1  0
 96 95  1  0
M  ISO  4  10 100  23 100  56 101  57 101
M  END
>  <TORSDO>  (59) 
F 19

>  <SCORE>  (59) 
-12.453

>  <name>  (59) 
58

>  <ligand_id>  (59) 
58

>  <original_smiles>  (59) 
[H]c1c([H])c([H])c2c(c1[H])C([H])([H])C([H])([H])C([H])([H])C2([H])N([H])C(=O)C1([H])N(C(=O)C([H])(N([H])C(=O)C([H])(N([H])C([H])([H])[H])C([H])([H])[H])C(C([H])([H])[H])(C([H])([H])[H])C([H])([H])[H])C([H])([H])c2c([H])c(OC([H])([H])C([H])([H])N([H])c3nc(C([H])([H])[H])c(C4([H])C([H])([H])C([H])([H])N(C(=O)N5C([H])([H])C([H])([H])C([H])([H])C([H])(n6nc(-c7c([H])c([H])c(Oc8c([H])c([H])c(F)c([H])c8F)c([H])c7[H])c(C(=O)N([H])[H])c6N([H])[H])C5([H])[H])C([H])([H])C4([H])[H])c(C4([H])C([H])([H])C4([H])[H])c3[H])c([H])c([H])c2C1([H])[H]

>  <smiles>  (59) 
[H]c1c([H])c([H])c2c(c1[H])C([H])([H])C([H])([H])C([H])([H])C2([H])N([H])C(=O)C1([H])N(C(=O)C([H])(N([H])C(=O)C([H])(N([H])C([H])([H])[H])C([H])([H])[H])C(C([H])([H])[H])(C([H])([H])[H])C([H])([H])[H])C([H])([H])c2c([H])c(OC([H])([H])C([H])([H])N([H])c3nc(C([H])([H])[H])c(C4([H])C([H])([H])C([H])([H])N(C(=O)N5C([H])([H])C([H])([H])C([H])([H])C([H])(n6nc(-c7c([H])c([H])c(Oc8c([H])c([H])c(F)c([H])c8F)c([H])c7[H])c(C(=O)N([H])[H])c6N([H])[H])C5([H])[H])C([H])([H])C4([H])[H])c(C4([H])C([H])([H])C4([H])[H])c3[H])c([H])c([H])c2C1([H])[H]

$$$$
59:0:0
     RDKit          3D

 95104  0  0  1  0  0  0  0  0999 V2000
  -29.5430  -23.3950   21.8780 C   0  0  0  0  0  3  0  0  0  0  0  0
  -28.2750  -22.9880   19.8870 C   0  0  0  0  0  3  0  0  0  0  0  0
  -29.9770  -22.0370   21.9040 C   0  0  0  0  0  0  0  0  0  0  0  0
  -28.6690  -23.9100   20.8910 C   0  0  0  0  0  0  0  0  0  0  0  0
  -28.7260  -21.6260   19.8710 C   0  0  0  0  0  0  0  0  0  0  0  0
  -29.5840  -21.1100   20.8900 C   0  0  0  0  0  0  0  0  0  0  0  0
  -28.2830  -20.7430   18.7190 C   0  0  0  0  0  1  0  0  0  0  0  0
  -30.3190  -20.6520   24.1130 C   0  0  0  0  0  2  0  0  0  0  0  0
  -30.5720  -22.0950   24.4660 C   0  0  0  0  0  2  0  0  0  0  0  0
  -30.8410  -21.6020   23.0580 C   0  0  0  0  0  3  0  0  0  0  0  0
  -30.1550  -19.7880   20.9050 N   0  0  0  0  0  0  0  0  0  0  0  0
  -30.9140  -19.7140   21.5740 H   0  0  0  0  0  0  0  0  0  0  0  0
  -29.4740  -18.4670   20.7400 C   0  0  0  0  0  2  0  0  0  0  0  0
  -30.9310  -17.2800   22.5100 C   0  0  0  0  0  1  0  0  0  0  0  0
  -30.4220  -17.2160   21.0560 C   0  0  0  0  0  3  0  0  0  0  0  0
  -30.5840  -14.7190   20.4270 C   0  0  0  0  0  0  0  0  0  0  0  0
  -30.3150  -12.5150   19.3020 C   0  0  0  0  0  2  0  0  0  0  0  0
  -29.3520  -12.6510   18.1050 C   0  0  0  0  0  2  0  0  0  0  0  0
  -27.8940  -12.4630   18.5640 C   0  0  0  0  0  2  0  0  0  0  0  0
  -27.5460  -13.3110   19.8190 C   0  0  0  0  0  3  0  0  0  0  0  0
  -28.6280  -13.1770   20.9140 C   0  0  0  0  0  2  0  0  0  0  0  0
  -29.9190  -13.5250   20.3070 N   0  0  0  0  0  0  0  0  0  0  0  0
  -31.7490  -14.8310   20.0410 O   0  0  0  0  0  0  0  0  0  0  0  0
  -29.8790  -15.8270   20.8250 N   0  0  0  0  0  0  0  0  0  0  0  0
  -28.9070  -15.6750   21.0520 H   0  0  0  0  0  0  0  0  0  0  0  0
  -25.1560  -13.8550   20.5840 C   0  0  0  0  0  0  0  0  0  0  0  0
  -24.1080  -13.0580   20.9580 C   0  0  0  0  0  0  0  0  0  0  0  0
  -24.5950  -11.7170   20.9060 C   0  0  0  0  0  0  0  0  0  0  0  0
  -26.2130  -12.9980   20.3250 N   0  0  0  0  0  0  0  0  0  0  0  0
  -25.8820  -11.7060   20.5810 N   0  0  0  0  0  0  0  0  0  0  0  0
  -23.8920  -10.4390   21.0890 C   0  0  0  0  0  0  0  0  0  0  0  0
  -24.3460   -9.4710   22.0120 C   0  0  0  0  0  3  0  0  0  0  0  0
  -23.6410   -8.2600   22.1850 C   0  0  0  0  0  3  0  0  0  0  0  0
  -22.4700   -8.0070   21.4320 C   0  0  0  0  0  0  0  0  0  0  0  0
  -22.0360   -8.9640   20.4960 C   0  0  0  0  0  3  0  0  0  0  0  0
  -22.7420  -10.1660   20.3240 C   0  0  0  0  0  3  0  0  0  0  0  0
  -21.7370   -6.8480   21.5120 O   0  0  0  0  0  0  0  0  0  0  0  0
  -21.6980   -6.0990   22.6610 C   0  0  0  0  0  0  0  0  0  0  0  0
  -21.2360   -6.6340   23.8840 C   0  0  0  0  0  3  0  0  0  0  0  0
  -21.1470   -5.8100   25.0240 C   0  0  0  0  0  3  0  0  0  0  0  0
  -21.5110   -4.4530   24.9410 C   0  0  0  0  0  0  0  0  0  0  0  0
  -21.9650   -3.9170   23.7240 C   0  0  0  0  0  3  0  0  0  0  0  0
  -22.0550   -4.7380   22.5860 C   0  0  0  0  0  0  0  0  0  0  0  0
  -22.4740   -4.2120   21.4100 F   0  0  0  0  0  0  0  0  0  0  0  0
  -21.4180   -3.6590   26.0340 F   0  0  0  0  0  0  0  0  0  0  0  0
  -22.7060  -13.5090   21.2540 C   0  0  0  0  0  0  0  0  0  0  0  0
  -22.0000  -12.7880   22.1180 N   0  0  0  0  0  0  0  0  0  0  0  0
  -22.2480  -14.5360   20.7550 O   0  0  0  0  0  0  0  0  0  0  0  0
  -22.3810  -11.9540   22.5390 H   0  0  0  0  0  0  0  0  0  0  0  0
  -21.0630  -13.0770   22.3630 H   0  0  0  0  0  0  0  0  0  0  0  0
  -25.2910  -15.2300   20.4180 N   0  0  0  0  0  0  0  0  0  0  0  0
  -24.5030  -15.8600   20.5270 H   0  0  0  0  0  0  0  0  0  0  0  0
  -26.1170  -15.6930   20.0620 H   0  0  0  0  0  0  0  0  0  0  0  0
  -27.9730  -25.3030   21.1100 C   0  0  0  0  0  2  0  0  0  0  0  0
  -28.2860  -26.5080   20.3170 O   0  0  0  0  0  0  0  0  0  0  0  0
  -24.6000  -31.9620   23.2640 C   0  0  0  0  0  0  0  0  0  0  0  0
  -27.2070  -27.3980   20.2470 C   0  0  0  0  0  0  0  0  0  0  0  0
  -23.3890  -30.5380   21.6490 C   0  0  0  0  0  3  0  0  0  0  0  0
  -24.8370  -28.9870   20.2260 C   0  0  0  0  0  0  0  0  0  0  0  0
  -25.9260  -30.8690   21.4500 C   0  0  0  0  0  2  0  0  0  0  0  0
  -26.0070  -29.4890   20.8110 C   0  0  0  0  0  0  0  0  0  0  0  0
  -27.2000  -28.7060   20.8130 C   0  0  0  0  0  3  0  0  0  0  0  0
  -26.0240  -26.9490   19.6210 C   0  0  0  0  0  3  0  0  0  0  0  0
  -24.8470  -27.7210   19.6210 C   0  0  0  0  0  3  0  0  0  0  0  0
  -23.5950  -29.8510   20.2750 C   0  0  0  0  0  2  0  0  0  0  0  0
  -24.6550  -31.1420   22.1760 N   0  0  0  0  0  0  0  0  0  0  0  0
  -23.5190  -32.2430   23.8050 O   0  0  0  0  0  0  0  0  0  0  0  0
  -22.7420  -29.5300   22.6280 C   0  0  0  0  0  0  0  0  0  0  0  0
  -21.4180  -29.3340   22.5050 N   0  0  0  0  0  0  0  0  0  0  0  0
  -23.4280  -28.9260   23.4570 O   0  0  0  0  0  0  0  0  0  0  0  0
  -20.9240  -29.8700   21.8060 H   0  0  0  0  0  0  0  0  0  0  0  0
  -18.0590  -28.0920   23.0110 C   0  0  0  0  0  0  0  0  0  0  0  0
  -20.6110  -28.4020   23.2950 C   0  0  0  0  0  3  0  0  0  0  0  0
  -20.7430  -26.9600   22.7540 C   0  0  0  0  0  2  0  0  0  0  0  0
  -19.6540  -26.5920   21.7410 C   0  0  0  0  0  2  0  0  0  0  0  0
  -18.2640  -26.7310   22.3700 C   0  0  0  0  0  2  0  0  0  0  0  0
  -19.1610  -28.8840   23.4300 C   0  0  0  0  0  0  0  0  0  0  0  0
  -18.9180  -30.1570   23.9890 C   0  0  0  0  0  3  0  0  0  0  0  0
  -17.6040  -30.6390   24.1370 C   0  0  0  0  0  3  0  0  0  0  0  0
  -16.5150  -29.8450   23.7350 C   0  0  0  0  0  3  0  0  0  0  0  0
  -16.7440  -28.5750   23.1770 C   0  0  0  0  0  3  0  0  0  0  0  0
  -25.8850  -32.6080   23.8670 C   0  0  0  0  0  3  0  0  0  0  0  0
  -25.5730  -34.0090   24.1790 N   0  0  0  0  0  0  0  0  0  0  0  0
  -25.9100  -35.0540   23.4130 C   0  0  0  0  0  0  0  0  0  0  0  0
  -26.5840  -34.9410   22.3850 O   0  0  0  0  0  0  0  0  0  0  0  0
  -24.9760  -34.1720   24.9760 H   0  0  0  0  0  0  0  0  0  0  0  0
  -24.1920  -36.8510   23.0230 C   0  0  0  0  0  1  0  0  0  0  0  0
  -25.4200  -36.4460   23.8560 C   0  0  0  0  0  3  0  0  0  0  0  0
  -27.5410  -37.3300   24.7210 C   0  0  0  0  0  1  0  0  0  0  0  0
  -26.4570  -37.4940   23.7550 N   0  0  0  0  0  0  0  0  0  0  0  0
  -26.0500  -38.4160   23.8900 H   0  0  0  0  0  0  0  0  0  0  0  0
  -26.4160  -31.8580   25.1500 C   0  0  1  0  0  0  0  0  0  0  0  0
  -25.3310  -31.6270   26.2260 C   0  0  0  0  0  1  0  0  0  0  0  0
  -27.0110  -30.4790   24.7760 C   0  0  0  0  0  1  0  0  0  0  0  0
  -27.5620  -32.6740   25.7930 C   0  0  0  0  0  1  0  0  0  0  0  0
  1  3  1  0
  2  4  1  0
  3 10  1  0
  4 54  1  0
  4  1  2  0
  5  2  2  0
  5  6  1  0
  6 11  1  0
  6  3  2  0
  7  5  1  0
  8  9  1  0
 10  8  1  0
 10  9  1  0
 11 12  1  0
 13 11  1  0
 13 15  1  0
 15 14  1  0
 16 24  1  0
 17 22  1  0
 18 19  1  0
 18 17  1  0
 20 19  1  0
 20 29  1  0
 20 21  1  0
 22 16  1  0
 22 21  1  0
 23 16  2  0
 24 25  1  0
 24 15  1  0
 26 27  2  0
 27 46  1  0
 28 27  1  0
 28 31  1  0
 29 30  1  0
 29 26  1  0
 30 28  2  0
 31 32  1  0
 32 33  2  0
 34 37  1  0
 34 33  1  0
 35 34  2  0
 36 35  1  0
 36 31  2  0
 37 38  1  0
 38 39  1  0
 39 40  2  0
 41 40  1  0
 41 45  1  0
 42 41  2  0
 43 38  2  0
 43 42  1  0
 44 43  1  0
 46 47  1  0
 47 50  1  0
 47 49  1  0
 48 46  2  0
 51 52  1  0
 51 26  1  0
 53 51  1  0
 55 54  1  0
 56 67  2  0
 57 55  1  0
 57 62  1  0
 58 66  1  0
 58 68  1  0
 59 65  1  0
 59 61  1  0
 60 66  1  0
 61 62  2  0
 61 60  1  0
 63 57  2  0
 64 63  1  0
 64 59  2  0
 65 58  1  0
 66 56  1  0
 68 70  2  0
 69 68  1  0
 71 69  1  0
 72 81  2  0
 72 77  1  0
 73 69  1  0
 73 77  1  0
 74 73  1  0
 75 76  1  0
 75 74  1  0
 76 72  1  0
 77 78  2  0
 78 79  1  0
 80 79  2  0
 81 80  1  0
 82 56  1  0
 82 83  1  0
 82 92  1  0
 83 86  1  0
 84 88  1  0
 84 83  1  0
 85 84  2  0
 88 87  1  0
 90 88  1  0
 90 91  1  0
 90 89  1  0
 92 95  1  1
 92 93  1  0
 94 92  1  0
M  ISO  4  16 100  24 100  54 101  55 101
M  END
>  <TORSDO>  (60) 
F 21

>  <SCORE>  (60) 
-14.016

>  <name>  (60) 
59

>  <ligand_id>  (60) 
59

>  <original_smiles>  (60) 
[H]c1c([H])c([H])c2c(c1[H])C([H])([H])C([H])([H])C([H])([H])C2([H])N([H])C(=O)C1([H])N(C(=O)C([H])(N([H])C(=O)C([H])(N([H])C([H])([H])[H])C([H])([H])[H])C(C([H])([H])[H])(C([H])([H])[H])C([H])([H])[H])C([H])([H])c2c([H])c(OC([H])([H])c3c([H])c(C([H])([H])[H])c(N([H])C([H])([H])C([H])(N([H])C(=O)N4C([H])([H])C([H])([H])C([H])([H])C([H])(n5nc(-c6c([H])c([H])c(Oc7c([H])c([H])c(F)c([H])c7F)c([H])c6[H])c(C(=O)N([H])[H])c5N([H])[H])C4([H])[H])C([H])([H])[H])c(C4([H])C([H])([H])C4([H])[H])c3[H])c([H])c([H])c2C1([H])[H]

>  <smiles>  (60) 
[H]c1c([H])c([H])c2c(c1[H])C([H])([H])C([H])([H])C([H])([H])C2([H])N([H])C(=O)C1([H])N(C(=O)C([H])(N([H])C(=O)C([H])(N([H])C([H])([H])[H])C([H])([H])[H])C(C([H])([H])[H])(C([H])([H])[H])C([H])([H])[H])C([H])([H])c2c([H])c(OC([H])([H])c3c([H])c(C([H])([H])[H])c(N([H])C([H])([H])C([H])(N([H])C(=O)N4C([H])([H])C([H])([H])C([H])([H])C([H])(n5nc(-c6c([H])c([H])c(Oc7c([H])c([H])c(F)c([H])c7F)c([H])c6[H])c(C(=O)N([H])[H])c5N([H])[H])C4([H])[H])C([H])([H])[H])c(C4([H])C([H])([H])C4([H])[H])c3[H])c([H])c([H])c2C1([H])[H]

$$$$
60:0:0
     RDKit          3D

 96105  0  0  1  0  0  0  0  0999 V2000
  -29.4640  -22.1250   20.6390 C   0  0  0  0  0  3  0  0  0  0  0  0
  -28.7840  -23.4070   19.8590 C   0  0  0  0  0  3  0  0  0  0  0  0
  -30.2610  -23.1000   19.7900 C   0  0  0  0  0  3  0  0  0  0  0  0
  -30.8230  -18.2990   21.0120 C   0  0  0  0  0  3  0  0  0  0  0  0
  -28.7780  -18.2020   19.8320 C   0  0  0  0  0  3  0  0  0  0  0  0
  -29.6390  -20.5060   20.4430 C   0  0  0  0  0  0  0  0  0  0  0  0
  -30.7190  -19.7460   21.0410 C   0  0  0  0  0  0  0  0  0  0  0  0
  -29.8440  -17.4460   20.4250 C   0  0  0  0  0  0  0  0  0  0  0  0
  -28.6700  -19.6550   19.8260 C   0  0  0  0  0  0  0  0  0  0  0  0
  -31.8060  -20.4800   21.8100 C   0  0  0  0  0  1  0  0  0  0  0  0
  -30.6370  -14.8410   20.1760 C   0  0  0  0  0  0  0  0  0  0  0  0
  -30.4420  -12.5660   19.1060 C   0  0  0  0  0  2  0  0  0  0  0  0
  -29.4570  -12.6540   17.9150 C   0  0  0  0  0  2  0  0  0  0  0  0
  -28.0000  -12.4780   18.3880 C   0  0  0  0  0  2  0  0  0  0  0  0
  -27.6740  -13.3350   19.6380 C   0  0  0  0  0  3  0  0  0  0  0  0
  -28.7680  -13.2010   20.7200 C   0  0  0  0  0  2  0  0  0  0  0  0
  -30.0420  -13.5920   20.1000 N   0  0  0  0  0  0  0  0  0  0  0  0
  -31.8180  -14.9640   19.8320 O   0  0  0  0  0  0  0  0  0  0  0  0
  -29.7940  -15.9310   20.4420 N   0  0  0  0  0  0  0  0  0  0  0  0
  -28.8670  -15.5840   20.6360 H   0  0  0  0  0  0  0  0  0  0  0  0
  -25.3190  -13.9510   20.4420 C   0  0  0  0  0  0  0  0  0  0  0  0
  -24.2530  -13.1880   20.8370 C   0  0  0  0  0  0  0  0  0  0  0  0
  -24.6950  -11.8310   20.7760 C   0  0  0  0  0  0  0  0  0  0  0  0
  -26.3420  -13.0590   20.1640 N   0  0  0  0  0  0  0  0  0  0  0  0
  -25.9760  -11.7770   20.4290 N   0  0  0  0  0  0  0  0  0  0  0  0
  -23.9560  -10.5780   20.9710 C   0  0  0  0  0  0  0  0  0  0  0  0
  -24.3840   -9.6040   21.9000 C   0  0  0  0  0  3  0  0  0  0  0  0
  -23.6440   -8.4160   22.0840 C   0  0  0  0  0  3  0  0  0  0  0  0
  -22.4620   -8.1930   21.3380 C   0  0  0  0  0  0  0  0  0  0  0  0
  -22.0530   -9.1560   20.3980 C   0  0  0  0  0  3  0  0  0  0  0  0
  -22.7930  -10.3350   20.2130 C   0  0  0  0  0  3  0  0  0  0  0  0
  -21.6940   -7.0580   21.4310 O   0  0  0  0  0  0  0  0  0  0  0  0
  -21.6150   -6.3350   22.5950 C   0  0  0  0  0  0  0  0  0  0  0  0
  -21.1560   -6.9120   23.7990 C   0  0  0  0  0  3  0  0  0  0  0  0
  -21.0230   -6.1170   24.9550 C   0  0  0  0  0  3  0  0  0  0  0  0
  -21.3400   -4.7460   24.9070 C   0  0  0  0  0  0  0  0  0  0  0  0
  -21.7940   -4.1690   23.7070 C   0  0  0  0  0  3  0  0  0  0  0  0
  -21.9270   -4.9620   22.5540 C   0  0  0  0  0  0  0  0  0  0  0  0
  -22.3440   -4.3970   21.3960 F   0  0  0  0  0  0  0  0  0  0  0  0
  -21.2070   -3.9800   26.0150 F   0  0  0  0  0  0  0  0  0  0  0  0
  -22.8710  -13.6830   21.1500 C   0  0  0  0  0  0  0  0  0  0  0  0
  -22.1650  -13.0030   22.0450 N   0  0  0  0  0  0  0  0  0  0  0  0
  -22.4280  -14.7090   20.6340 O   0  0  0  0  0  0  0  0  0  0  0  0
  -22.5370  -12.1740   22.4840 H   0  0  0  0  0  0  0  0  0  0  0  0
  -21.2380  -13.3180   22.2980 H   0  0  0  0  0  0  0  0  0  0  0  0
  -25.4940  -15.3200   20.2680 N   0  0  0  0  0  0  0  0  0  0  0  0
  -24.7170  -15.9640   20.3710 H   0  0  0  0  0  0  0  0  0  0  0  0
  -26.2890  -15.7310   19.8000 H   0  0  0  0  0  0  0  0  0  0  0  0
  -26.6910  -19.5900   18.4490 C   0  0  0  0  0  1  0  0  0  0  0  0
  -27.6040  -20.3220   19.2580 O   0  0  0  0  0  0  0  0  0  0  0  0
  -30.6620  -22.5900   18.4620 N   0  0  0  0  0  4  0  0  0  0  0  0
  -29.9880  -21.9390   18.1010 H   0  0  0  0  0  0  0  0  0  0  0  0
  -31.5490  -22.1220   18.5100 H   0  0  0  0  0  0  0  0  0  0  0  0
  -30.7550  -23.3440   17.8060 H   0  0  0  0  0  0  0  0  0  0  0  0
  -28.2450  -24.8240   20.4900 C   0  0  0  0  0  2  0  0  0  0  0  0
  -28.3790  -26.2480   19.9400 O   0  0  0  0  0  0  0  0  0  0  0  0
  -24.5940  -31.6890   23.0920 C   0  0  0  0  0  0  0  0  0  0  0  0
  -27.2760  -27.1530   19.9610 C   0  0  0  0  0  0  0  0  0  0  0  0
  -23.4240  -30.3160   21.4090 C   0  0  0  0  0  3  0  0  0  0  0  0
  -24.9050  -28.8030   19.9590 C   0  0  0  0  0  0  0  0  0  0  0  0
  -25.9680  -30.6470   21.2570 C   0  0  0  0  0  2  0  0  0  0  0  0
  -26.0710  -29.2760   20.5770 C   0  0  0  0  0  0  0  0  0  0  0  0
  -27.2610  -28.4680   20.5580 C   0  0  0  0  0  3  0  0  0  0  0  0
  -26.0860  -26.7560   19.3200 C   0  0  0  0  0  3  0  0  0  0  0  0
  -24.9210  -27.5550   19.3160 C   0  0  0  0  0  3  0  0  0  0  0  0
  -23.6610  -29.6730   20.0160 C   0  0  0  0  0  2  0  0  0  0  0  0
  -24.6820  -30.9030   21.9760 N   0  0  0  0  0  0  0  0  0  0  0  0
  -23.5030  -31.9400   23.6230 O   0  0  0  0  0  0  0  0  0  0  0  0
  -22.7600  -29.2720   22.3420 C   0  0  0  0  0  0  0  0  0  0  0  0
  -21.4360  -29.0860   22.2050 N   0  0  0  0  0  0  0  0  0  0  0  0
  -23.4390  -28.6330   23.1490 O   0  0  0  0  0  0  0  0  0  0  0  0
  -20.9450  -29.6540   21.5290 H   0  0  0  0  0  0  0  0  0  0  0  0
  -18.0650  -27.8550   22.6850 C   0  0  0  0  0  0  0  0  0  0  0  0
  -20.6240  -28.1190   22.9470 C   0  0  0  0  0  3  0  0  0  0  0  0
  -20.7280  -26.7080   22.3230 C   0  0  0  0  0  2  0  0  0  0  0  0
  -19.6220  -26.4160   21.3040 C   0  0  0  0  0  2  0  0  0  0  0  0
  -18.2440  -26.5310   21.9610 C   0  0  0  0  0  2  0  0  0  0  0  0
  -19.1820  -28.6080   23.1340 C   0  0  0  0  0  0  0  0  0  0  0  0
  -18.9600  -29.8470   23.7730 C   0  0  0  0  0  3  0  0  0  0  0  0
  -17.6540  -30.3350   23.9650 C   0  0  0  0  0  3  0  0  0  0  0  0
  -16.5510  -29.5790   23.5310 C   0  0  0  0  0  3  0  0  0  0  0  0
  -16.7580  -28.3410   22.8960 C   0  0  0  0  0  3  0  0  0  0  0  0
  -25.8610  -32.3260   23.7410 C   0  0  0  0  0  3  0  0  0  0  0  0
  -26.3680  -31.5400   25.0120 C   0  0  1  0  0  0  0  0  0  0  0  0
  -25.2640  -31.2770   26.0640 C   0  0  0  0  0  1  0  0  0  0  0  0
  -26.9670  -30.1720   24.6100 C   0  0  0  0  0  1  0  0  0  0  0  0
  -27.5040  -32.3330   25.7000 C   0  0  0  0  0  1  0  0  0  0  0  0
  -25.5310  -33.7150   24.0930 N   0  0  0  0  0  0  0  0  0  0  0  0
  -25.8730  -34.7890   23.3690 C   0  0  0  0  0  0  0  0  0  0  0  0
  -26.5660  -34.7140   22.3500 O   0  0  0  0  0  0  0  0  0  0  0  0
  -24.9170  -33.8460   24.8840 H   0  0  0  0  0  0  0  0  0  0  0  0
  -24.1430  -36.5830   23.0180 C   0  0  0  0  0  1  0  0  0  0  0  0
  -25.3670  -36.1640   23.8480 C   0  0  0  0  0  3  0  0  0  0  0  0
  -27.4730  -37.0450   24.7550 C   0  0  0  0  0  1  0  0  0  0  0  0
  -26.3960  -37.2240   23.7850 N   0  0  0  0  0  0  0  0  0  0  0  0
  -25.9800  -38.1390   23.9380 H   0  0  0  0  0  0  0  0  0  0  0  0
  1  6  1  0
  2 55  1  0
  2  1  1  0
  3 51  1  0
  3  2  1  0
  3  1  1  0
  4  7  1  0
  5  8  1  0
  6  7  2  0
  7 10  1  0
  8 19  1  0
  8  4  2  0
  9  5  2  0
  9  6  1  0
 11 19  1  0
 12 17  1  0
 13 14  1  0
 13 12  1  0
 15 14  1  0
 15 24  1  0
 15 16  1  0
 17 11  1  0
 17 16  1  0
 18 11  2  0
 19 20  1  0
 21 22  2  0
 22 41  1  0
 23 22  1  0
 23 26  1  0
 24 25  1  0
 24 21  1  0
 25 23  2  0
 26 27  1  0
 27 28  2  0
 29 32  1  0
 29 28  1  0
 30 29  2  0
 31 30  1  0
 31 26  2  0
 32 33  1  0
 33 34  1  0
 34 35  2  0
 36 35  1  0
 36 40  1  0
 37 36  2  0
 38 33  2  0
 38 37  1  0
 39 38  1  0
 41 42  1  0
 42 45  1  0
 42 44  1  0
 43 41  2  0
 46 47  1  0
 46 21  1  0
 48 46  1  0
 49 50  1  0
 50  9  1  0
 51 53  1  0
 52 51  1  0
 54 51  1  0
 56 58  1  0
 56 55  1  0
 57 68  2  0
 58 63  1  0
 59 67  1  0
 59 69  1  0
 60 66  1  0
 60 62  1  0
 61 67  1  0
 62 61  1  0
 63 62  2  0
 64 58  2  0
 65 64  1  0
 65 60  2  0
 66 59  1  0
 67 57  1  0
 69 71  2  0
 70 69  1  0
 72 70  1  0
 73 82  2  0
 73 78  1  0
 74 70  1  0
 74 78  1  0
 75 74  1  0
 76 77  1  0
 76 75  1  0
 77 73  1  0
 78 79  2  0
 79 80  1  0
 81 80  2  0
 82 81  1  0
 83 57  1  0
 83 88  1  0
 83 84  1  0
 84 87  1  1
 84 85  1  0
 86 84  1  0
 88 91  1  0
 89 93  1  0
 89 88  1  0
 90 89  2  0
 93 92  1  0
 95 93  1  0
 95 96  1  0
 95 94  1  0
M  ISO  4  11 100  19 100  55 101  56 101
M  END
>  <TORSDO>  (61) 
F 20

>  <SCORE>  (61) 
-14.104

>  <name>  (61) 
60

>  <ligand_id>  (61) 
60

>  <original_smiles>  (61) 
[H]c1c([H])c([H])c2c(c1[H])C([H])([H])C([H])([H])C([H])([H])C2([H])N([H])C(=O)C1([H])N(C(=O)C([H])(N([H])C(=O)C([H])(N([H])C([H])([H])[H])C([H])([H])[H])C(C([H])([H])[H])(C([H])([H])[H])C([H])([H])[H])C([H])([H])c2c([H])c(OC([H])([H])C3([H])C([H])(c4c(OC([H])([H])[H])c([H])c(N([H])C(=O)N5C([H])([H])C([H])([H])C([H])([H])C([H])(n6nc(-c7c([H])c([H])c(Oc8c([H])c([H])c(F)c([H])c8F)c([H])c7[H])c(C(=O)N([H])[H])c6N([H])[H])C5([H])[H])c([H])c4C([H])([H])[H])C3([H])[N+]([H])([H])[H])c([H])c([H])c2C1([H])[H]

>  <smiles>  (61) 
[H]c1c([H])c([H])c2c(c1[H])C([H])([H])C([H])([H])C([H])([H])C2([H])N([H])C(=O)C1([H])N(C(=O)C([H])(N([H])C(=O)C([H])(N([H])C([H])([H])[H])C([H])([H])[H])C(C([H])([H])[H])(C([H])([H])[H])C([H])([H])[H])C([H])([H])c2c([H])c(OC([H])([H])C3([H])C([H])(c4c(OC([H])([H])[H])c([H])c(N([H])C(=O)N5C([H])([H])C([H])([H])C([H])([H])C([H])(n6nc(-c7c([H])c([H])c(Oc8c([H])c([H])c(F)c([H])c8F)c([H])c7[H])c(C(=O)N([H])[H])c6N([H])[H])C5([H])[H])c([H])c4C([H])([H])[H])C3([H])[N+]([H])([H])[H])c([H])c([H])c2C1([H])[H]

$$$$
61:0:0
     RDKit          3D

 92101  0  0  1  0  0  0  0  0999 V2000
  -31.1820  -19.5480   21.7660 C   0  0  0  0  0  3  0  0  0  0  0  0
  -31.0120  -18.1950   21.3510 C   0  0  0  0  0  3  0  0  0  0  0  0
  -28.9970  -18.8930   20.2240 C   0  0  0  0  0  3  0  0  0  0  0  0
  -30.2700  -20.5910   21.4420 C   0  0  0  0  0  0  0  0  0  0  0  0
  -29.1880  -20.3270   20.5940 C   0  0  0  0  0  0  0  0  0  0  0  0
  -29.8880  -17.7580   20.6090 C   0  0  0  0  0  0  0  0  0  0  0  0
  -28.2710  -21.6470   20.3010 C   0  0  0  0  0  2  0  0  0  0  0  0
  -30.3250  -21.9540   22.1640 C   0  0  0  0  0  2  0  0  0  0  0  0
  -28.8840  -23.2090   20.4020 C   0  0  0  0  0  3  0  0  0  0  0  0
  -30.0360  -24.3880   22.3150 C   0  0  0  0  0  1  0  0  0  0  0  0
  -30.0190  -23.2170   21.4020 N   0  0  1  0  0  4  0  0  0  0  0  0
  -30.8420  -23.3400   20.8290 H   0  0  0  0  0  0  0  0  0  0  0  0
  -30.4880  -15.0650   20.3320 C   0  0  0  0  0  0  0  0  0  0  0  0
  -30.4010  -12.7110   19.3590 C   0  0  0  0  0  2  0  0  0  0  0  0
  -29.4510  -12.6520   18.1400 C   0  0  0  0  0  2  0  0  0  0  0  0
  -27.9950  -12.4180   18.5890 C   0  0  0  0  0  2  0  0  0  0  0  0
  -27.5920  -13.3240   19.7810 C   0  0  0  0  0  3  0  0  0  0  0  0
  -28.6650  -13.3420   20.8910 C   0  0  0  0  0  2  0  0  0  0  0  0
  -29.9110  -13.7930   20.2600 N   0  0  0  0  0  0  0  0  0  0  0  0
  -31.6990  -15.1360   20.0910 O   0  0  0  0  0  0  0  0  0  0  0  0
  -29.6670  -16.2400   20.3990 N   0  0  0  0  0  0  0  0  0  0  0  0
  -28.6920  -15.9910   20.3370 H   0  0  0  0  0  0  0  0  0  0  0  0
  -25.2140  -13.8720   20.5520 C   0  0  0  0  0  0  0  0  0  0  0  0
  -24.1610  -13.0840   20.9270 C   0  0  0  0  0  0  0  0  0  0  0  0
  -24.6380  -11.7370   20.8800 C   0  0  0  0  0  0  0  0  0  0  0  0
  -26.2640  -13.0060   20.2940 N   0  0  0  0  0  0  0  0  0  0  0  0
  -25.9290  -11.7150   20.5580 N   0  0  0  0  0  0  0  0  0  0  0  0
  -23.9250  -10.4680   21.0660 C   0  0  0  0  0  0  0  0  0  0  0  0
  -24.3730   -9.4970   21.9890 C   0  0  0  0  0  3  0  0  0  0  0  0
  -23.6570   -8.2940   22.1650 C   0  0  0  0  0  3  0  0  0  0  0  0
  -22.4790   -8.0520   21.4190 C   0  0  0  0  0  0  0  0  0  0  0  0
  -22.0510   -9.0120   20.4840 C   0  0  0  0  0  3  0  0  0  0  0  0
  -22.7670  -10.2070   20.3060 C   0  0  0  0  0  3  0  0  0  0  0  0
  -21.7340   -6.9010   21.5040 O   0  0  0  0  0  0  0  0  0  0  0  0
  -21.6960   -6.1520   22.6530 C   0  0  0  0  0  0  0  0  0  0  0  0
  -21.2600   -6.6930   23.8820 C   0  0  0  0  0  3  0  0  0  0  0  0
  -21.1720   -5.8690   25.0220 C   0  0  0  0  0  3  0  0  0  0  0  0
  -21.5090   -4.5050   24.9340 C   0  0  0  0  0  0  0  0  0  0  0  0
  -21.9370   -3.9630   23.7100 C   0  0  0  0  0  3  0  0  0  0  0  0
  -22.0280   -4.7840   22.5710 C   0  0  0  0  0  0  0  0  0  0  0  0
  -22.4220   -4.2510   21.3890 F   0  0  0  0  0  0  0  0  0  0  0  0
  -21.4170   -3.7120   26.0270 F   0  0  0  0  0  0  0  0  0  0  0  0
  -22.7630  -13.5470   21.2120 C   0  0  0  0  0  0  0  0  0  0  0  0
  -22.0460  -12.8390   22.0770 N   0  0  0  0  0  0  0  0  0  0  0  0
  -22.3130  -14.5740   20.7040 O   0  0  0  0  0  0  0  0  0  0  0  0
  -22.4210  -12.0050   22.5060 H   0  0  0  0  0  0  0  0  0  0  0  0
  -21.1100  -13.1340   22.3140 H   0  0  0  0  0  0  0  0  0  0  0  0
  -25.3580  -15.2460   20.3850 N   0  0  0  0  0  0  0  0  0  0  0  0
  -24.5780  -15.8820   20.5140 H   0  0  0  0  0  0  0  0  0  0  0  0
  -26.1820  -15.7060   20.0220 H   0  0  0  0  0  0  0  0  0  0  0  0
  -27.8850  -24.6090   20.3990 C   0  0  0  0  0  2  0  0  0  0  0  0
  -28.2120  -26.1520   20.3220 O   0  0  0  0  0  0  0  0  0  0  0  0
  -24.6300  -31.9380   23.2420 C   0  0  0  0  0  0  0  0  0  0  0  0
  -27.1750  -27.1640   20.2530 C   0  0  0  0  0  0  0  0  0  0  0  0
  -23.4260  -30.5400   21.6100 C   0  0  0  0  0  3  0  0  0  0  0  0
  -24.8680  -28.9510   20.1960 C   0  0  0  0  0  0  0  0  0  0  0  0
  -25.9850  -30.7850   21.4480 C   0  0  0  0  0  2  0  0  0  0  0  0
  -26.0510  -29.3860   20.8040 C   0  0  0  0  0  0  0  0  0  0  0  0
  -27.2070  -28.5120   20.8080 C   0  0  0  0  0  3  0  0  0  0  0  0
  -25.9650  -26.8460   19.5940 C   0  0  0  0  0  3  0  0  0  0  0  0
  -24.8410  -27.6980   19.5710 C   0  0  0  0  0  3  0  0  0  0  0  0
  -23.6470  -29.8570   20.2350 C   0  0  0  0  0  2  0  0  0  0  0  0
  -24.7010  -31.1090   22.1550 N   0  0  0  0  0  0  0  0  0  0  0  0
  -23.5440  -32.2310   23.7650 O   0  0  0  0  0  0  0  0  0  0  0  0
  -22.7410  -29.5420   22.5770 C   0  0  0  0  0  0  0  0  0  0  0  0
  -21.4120  -29.3750   22.4520 N   0  0  0  0  0  0  0  0  0  0  0  0
  -23.4080  -28.9180   23.4060 O   0  0  0  0  0  0  0  0  0  0  0  0
  -20.9290  -29.9260   21.7560 H   0  0  0  0  0  0  0  0  0  0  0  0
  -18.0230  -28.1940   22.9650 C   0  0  0  0  0  0  0  0  0  0  0  0
  -20.5860  -28.4470   23.2300 C   0  0  0  0  0  3  0  0  0  0  0  0
  -20.6800  -27.0110   22.6660 C   0  0  0  0  0  2  0  0  0  0  0  0
  -19.5760  -26.6860   21.6550 C   0  0  0  0  0  2  0  0  0  0  0  0
  -18.1950  -26.8410   22.2960 C   0  0  0  0  0  2  0  0  0  0  0  0
  -19.1460  -28.9550   23.3890 C   0  0  0  0  0  0  0  0  0  0  0  0
  -18.9310  -30.2210   23.9760 C   0  0  0  0  0  3  0  0  0  0  0  0
  -17.6280  -30.7260   24.1410 C   0  0  0  0  0  3  0  0  0  0  0  0
  -16.5210  -29.9630   23.7310 C   0  0  0  0  0  3  0  0  0  0  0  0
  -16.7200  -28.6990   23.1480 C   0  0  0  0  0  3  0  0  0  0  0  0
  -25.9100  -32.5730   23.8650 C   0  0  0  0  0  3  0  0  0  0  0  0
  -25.6010  -33.9740   24.1940 N   0  0  0  0  0  0  0  0  0  0  0  0
  -25.9210  -35.0290   23.4320 C   0  0  0  0  0  0  0  0  0  0  0  0
  -26.5720  -34.9240   22.3900 O   0  0  0  0  0  0  0  0  0  0  0  0
  -25.0220  -34.1280   25.0070 H   0  0  0  0  0  0  0  0  0  0  0  0
  -24.1870  -36.8220   23.1140 C   0  0  0  0  0  1  0  0  0  0  0  0
  -25.4450  -36.4190   23.9000 C   0  0  0  0  0  3  0  0  0  0  0  0
  -27.5940  -37.3100   24.6850 C   0  0  0  0  0  1  0  0  0  0  0  0
  -26.4750  -37.4710   23.7610 N   0  0  0  0  0  0  0  0  0  0  0  0
  -26.0710  -38.3910   23.9110 H   0  0  0  0  0  0  0  0  0  0  0  0
  -26.4190  -31.8070   25.1470 C   0  0  1  0  0  0  0  0  0  0  0  0
  -25.3180  -31.5800   26.2110 C   0  0  0  0  0  1  0  0  0  0  0  0
  -26.9990  -30.4260   24.7670 C   0  0  0  0  0  1  0  0  0  0  0  0
  -27.5710  -32.6000   25.8060 C   0  0  0  0  0  1  0  0  0  0  0  0
  2  1  2  0
  3  5  1  0
  3  6  2  0
  4  1  1  0
  4  8  1  0
  5  4  2  0
  6  2  1  0
  7  9  1  0
  7  5  1  0
  9 51  1  0
  9 11  1  0
 11  8  1  0
 11 10  1  0
 11 12  1  6
 13 21  1  0
 14 19  1  0
 15 16  1  0
 15 14  1  0
 17 16  1  0
 17 26  1  0
 17 18  1  0
 19 13  1  0
 19 18  1  0
 20 13  2  0
 21  6  1  0
 22 21  1  0
 23 24  2  0
 24 43  1  0
 25 24  1  0
 25 28  1  0
 26 23  1  0
 26 27  1  0
 27 25  2  0
 28 29  1  0
 29 30  2  0
 31 34  1  0
 31 30  1  0
 32 31  2  0
 33 32  1  0
 33 28  2  0
 34 35  1  0
 35 36  1  0
 36 37  2  0
 38 37  1  0
 38 42  1  0
 39 38  2  0
 40 35  2  0
 40 39  1  0
 41 40  1  0
 43 44  1  0
 44 47  1  0
 44 46  1  0
 45 43  2  0
 48 49  1  0
 48 23  1  0
 50 48  1  0
 52 51  1  0
 53 64  2  0
 54 52  1  0
 54 59  1  0
 55 63  1  0
 55 65  1  0
 56 62  1  0
 56 58  1  0
 57 63  1  0
 58 59  2  0
 58 57  1  0
 60 54  2  0
 61 60  1  0
 61 56  2  0
 62 55  1  0
 63 53  1  0
 65 67  2  0
 66 65  1  0
 68 66  1  0
 69 78  2  0
 69 74  1  0
 70 66  1  0
 70 74  1  0
 71 70  1  0
 72 73  1  0
 72 71  1  0
 73 69  1  0
 74 75  2  0
 75 76  1  0
 77 76  2  0
 78 77  1  0
 79 53  1  0
 79 80  1  0
 79 89  1  0
 80 83  1  0
 81 85  1  0
 81 80  1  0
 82 81  2  0
 85 84  1  0
 87 85  1  0
 87 88  1  0
 87 86  1  0
 89 92  1  1
 89 90  1  0
 91 89  1  0
M  ISO  4  13 100  21 100  51 101  52 101
M  END
>  <TORSDO>  (62) 
F 17

>  <SCORE>  (62) 
-16.202

>  <name>  (62) 
61

>  <ligand_id>  (62) 
61

>  <original_smiles>  (62) 
[H]c1c([H])c([H])c2c(c1[H])C([H])([H])C([H])([H])C([H])([H])C2([H])N([H])C(=O)C1([H])N(C(=O)C([H])(N([H])C(=O)C([H])(N([H])C([H])([H])[H])C([H])([H])[H])C(C([H])([H])[H])(C([H])([H])[H])C([H])([H])[H])C([H])([H])c2c([H])c(OC([H])([H])C3([H])C([H])([H])c4c([H])c(N([H])C(=O)N5C([H])([H])C([H])([H])C([H])([H])C([H])(n6nc(-c7c([H])c([H])c(Oc8c([H])c([H])c(F)c([H])c8F)c([H])c7[H])c(C(=O)N([H])[H])c6N([H])[H])C5([H])[H])c([H])c([H])c4C([H])([H])[N+]3([H])C([H])([H])[H])c([H])c([H])c2C1([H])[H]

>  <smiles>  (62) 
[H]c1c([H])c([H])c2c(c1[H])C([H])([H])C([H])([H])C([H])([H])C2([H])N([H])C(=O)C1([H])N(C(=O)C([H])(N([H])C(=O)C([H])(N([H])C([H])([H])[H])C([H])([H])[H])C(C([H])([H])[H])(C([H])([H])[H])C([H])([H])[H])C([H])([H])c2c([H])c(OC([H])([H])C3([H])C([H])([H])c4c([H])c(N([H])C(=O)N5C([H])([H])C([H])([H])C([H])([H])C([H])(n6nc(-c7c([H])c([H])c(Oc8c([H])c([H])c(F)c([H])c8F)c([H])c7[H])c(C(=O)N([H])[H])c6N([H])[H])C5([H])[H])c([H])c([H])c4C([H])([H])[N+]3([H])C([H])([H])[H])c([H])c([H])c2C1([H])[H]

$$$$
62:0:0
     RDKit          3D

 91100  0  0  1  0  0  0  0  0999 V2000
  -29.1870  -22.9200   18.8010 C   0  0  0  0  0  3  0  0  0  0  0  0
  -29.2120  -22.9010   21.1600 C   0  0  0  0  0  3  0  0  0  0  0  0
  -29.6670  -20.6970   19.9560 C   0  0  0  0  0  0  0  0  0  0  0  0
  -28.9750  -23.6830   19.9860 C   0  0  0  0  0  0  0  0  0  0  0  0
  -29.4970  -21.5090   18.7750 C   0  0  0  0  0  0  0  0  0  0  0  0
  -29.5460  -21.4870   21.1520 C   0  0  0  0  0  0  0  0  0  0  0  0
  -29.5380  -20.8630   17.3990 C   0  0  0  0  0  1  0  0  0  0  0  0
  -29.6750  -20.7790   22.4880 C   0  0  0  0  0  1  0  0  0  0  0  0
  -30.8530  -18.4010   19.1640 C   0  0  0  0  0  2  0  0  0  0  0  0
  -29.7120  -19.0630   19.9150 C   0  0  0  0  0  3  0  0  0  0  0  0
  -30.6130  -17.8390   20.5320 C   0  0  0  0  0  3  0  0  0  0  0  0
  -31.0570  -15.2070   20.5700 C   0  0  0  0  0  0  0  0  0  0  0  0
  -30.9760  -12.8380   19.7300 C   0  0  0  0  0  2  0  0  0  0  0  0
  -30.1140  -12.7630   18.4510 C   0  0  0  0  0  2  0  0  0  0  0  0
  -28.6250  -12.5790   18.8040 C   0  0  0  0  0  2  0  0  0  0  0  0
  -28.1530  -13.5550   19.9150 C   0  0  0  0  0  3  0  0  0  0  0  0
  -29.1410  -13.6030   21.0990 C   0  0  0  0  0  2  0  0  0  0  0  0
  -30.4560  -13.9600   20.5520 N   0  0  0  0  0  0  0  0  0  0  0  0
  -32.2700  -15.2880   20.3620 O   0  0  0  0  0  0  0  0  0  0  0  0
  -30.2550  -16.3560   20.5930 N   0  0  0  0  0  0  0  0  0  0  0  0
  -29.2710  -16.1630   20.7050 H   0  0  0  0  0  0  0  0  0  0  0  0
  -25.7410  -14.1580   20.5380 C   0  0  0  0  0  0  0  0  0  0  0  0
  -24.6530  -13.3910   20.8550 C   0  0  0  0  0  0  0  0  0  0  0  0
  -25.1070  -12.0360   20.8410 C   0  0  0  0  0  0  0  0  0  0  0  0
  -26.7880  -13.2720   20.3450 N   0  0  0  0  0  0  0  0  0  0  0  0
  -26.4110  -11.9900   20.5930 N   0  0  0  0  0  0  0  0  0  0  0  0
  -24.3610  -10.7790   20.9910 C   0  0  0  0  0  0  0  0  0  0  0  0
  -24.7310   -9.8110   21.9500 C   0  0  0  0  0  3  0  0  0  0  0  0
  -23.9870   -8.6190   22.0880 C   0  0  0  0  0  3  0  0  0  0  0  0
  -22.8580   -8.3880   21.2660 C   0  0  0  0  0  0  0  0  0  0  0  0
  -22.5080   -9.3460   20.2970 C   0  0  0  0  0  3  0  0  0  0  0  0
  -23.2530  -10.5290   20.1570 C   0  0  0  0  0  3  0  0  0  0  0  0
  -22.0900   -7.2490   21.3110 O   0  0  0  0  0  0  0  0  0  0  0  0
  -21.9170   -6.5450   22.4760 C   0  0  0  0  0  0  0  0  0  0  0  0
  -21.3110   -7.1220   23.6130 C   0  0  0  0  0  3  0  0  0  0  0  0
  -21.0890   -6.3420   24.7660 C   0  0  0  0  0  3  0  0  0  0  0  0
  -21.4620   -4.9850   24.7800 C   0  0  0  0  0  0  0  0  0  0  0  0
  -22.0610   -4.4070   23.6470 C   0  0  0  0  0  3  0  0  0  0  0  0
  -22.2840   -5.1840   22.4960 C   0  0  0  0  0  0  0  0  0  0  0  0
  -22.8420   -4.6170   21.4000 F   0  0  0  0  0  0  0  0  0  0  0  0
  -21.2430   -4.2330   25.8840 F   0  0  0  0  0  0  0  0  0  0  0  0
  -23.2480  -13.8790   21.0580 C   0  0  0  0  0  0  0  0  0  0  0  0
  -22.4790  -13.1990   21.9010 N   0  0  0  0  0  0  0  0  0  0  0  0
  -22.8390  -14.8990   20.5060 O   0  0  0  0  0  0  0  0  0  0  0  0
  -22.8210  -12.3730   22.3710 H   0  0  0  0  0  0  0  0  0  0  0  0
  -21.5340  -13.5080   22.0800 H   0  0  0  0  0  0  0  0  0  0  0  0
  -25.9210  -15.5280   20.3710 N   0  0  0  0  0  0  0  0  0  0  0  0
  -25.1490  -16.1810   20.4420 H   0  0  0  0  0  0  0  0  0  0  0  0
  -26.7740  -15.9600   20.0420 H   0  0  0  0  0  0  0  0  0  0  0  0
  -28.1140  -25.0610   19.9620 C   0  0  0  0  0  2  0  0  0  0  0  0
  -28.5150  -26.5190   20.2090 O   0  0  0  0  0  0  0  0  0  0  0  0
  -24.7230  -31.9570   23.3650 C   0  0  0  0  0  0  0  0  0  0  0  0
  -27.4590  -27.4930   20.1530 C   0  0  0  0  0  0  0  0  0  0  0  0
  -23.5930  -30.6420   21.6180 C   0  0  0  0  0  3  0  0  0  0  0  0
  -25.1050  -29.1860   20.1530 C   0  0  0  0  0  0  0  0  0  0  0  0
  -26.1460  -30.9580   21.5460 C   0  0  0  0  0  2  0  0  0  0  0  0
  -26.2590  -29.6120   20.8220 C   0  0  0  0  0  0  0  0  0  0  0  0
  -27.4380  -28.7820   20.8120 C   0  0  0  0  0  3  0  0  0  0  0  0
  -26.2740  -27.1740   19.4420 C   0  0  0  0  0  3  0  0  0  0  0  0
  -25.1220  -27.9770   19.4510 C   0  0  0  0  0  3  0  0  0  0  0  0
  -23.8620  -30.0550   20.2100 C   0  0  0  0  0  2  0  0  0  0  0  0
  -24.8390  -31.2020   22.2340 N   0  0  0  0  0  0  0  0  0  0  0  0
  -23.6180  -32.2000   23.8730 O   0  0  0  0  0  0  0  0  0  0  0  0
  -22.9040  -29.5680   22.4970 C   0  0  0  0  0  0  0  0  0  0  0  0
  -21.5850  -29.3800   22.3110 N   0  0  0  0  0  0  0  0  0  0  0  0
  -23.5570  -28.9100   23.3100 O   0  0  0  0  0  0  0  0  0  0  0  0
  -21.1140  -29.9650   21.6350 H   0  0  0  0  0  0  0  0  0  0  0  0
  -18.2080  -28.1100   22.6270 C   0  0  0  0  0  0  0  0  0  0  0  0
  -20.7510  -28.3940   23.0030 C   0  0  0  0  0  3  0  0  0  0  0  0
  -20.8960  -26.9940   22.3620 C   0  0  0  0  0  2  0  0  0  0  0  0
  -19.8370  -26.7060   21.2930 C   0  0  0  0  0  2  0  0  0  0  0  0
  -18.4320  -26.7990   21.8910 C   0  0  0  0  0  2  0  0  0  0  0  0
  -19.2980  -28.8660   23.1340 C   0  0  0  0  0  0  0  0  0  0  0  0
  -19.0360  -30.0930   23.7820 C   0  0  0  0  0  3  0  0  0  0  0  0
  -17.7170  -30.5650   23.9250 C   0  0  0  0  0  3  0  0  0  0  0  0
  -16.6410  -29.8050   23.4340 C   0  0  0  0  0  3  0  0  0  0  0  0
  -16.8880  -28.5800   22.7890 C   0  0  0  0  0  3  0  0  0  0  0  0
  -25.9740  -32.5720   24.0640 C   0  0  0  0  0  3  0  0  0  0  0  0
  -25.6520  -33.9640   24.4120 N   0  0  0  0  0  0  0  0  0  0  0  0
  -25.9680  -35.0310   23.6670 C   0  0  0  0  0  0  0  0  0  0  0  0
  -26.6310  -34.9470   22.6300 O   0  0  0  0  0  0  0  0  0  0  0  0
  -25.0620  -34.1020   25.2200 H   0  0  0  0  0  0  0  0  0  0  0  0
  -24.2000  -36.7980   23.3770 C   0  0  0  0  0  1  0  0  0  0  0  0
  -25.4720  -36.4090   24.1470 C   0  0  0  0  0  3  0  0  0  0  0  0
  -27.6060  -37.3350   24.9330 C   0  0  0  0  0  1  0  0  0  0  0  0
  -26.4830  -37.4800   24.0110 N   0  0  0  0  0  0  0  0  0  0  0  0
  -26.0630  -38.3930   24.1640 H   0  0  0  0  0  0  0  0  0  0  0  0
  -26.4220  -31.7700   25.3470 C   0  0  1  0  0  0  0  0  0  0  0  0
  -25.2750  -31.5100   26.3500 C   0  0  0  0  0  1  0  0  0  0  0  0
  -27.0250  -30.4000   24.9580 C   0  0  0  0  0  1  0  0  0  0  0  0
  -27.5370  -32.5470   26.0850 C   0  0  0  0  0  1  0  0  0  0  0  0
  1  4  1  0
  3  6  2  0
  4  2  2  0
  5  1  2  0
  5  3  1  0
  6  2  1  0
  6  8  1  0
  7  5  1  0
  9 10  1  0
  9 11  1  0
 10  3  1  0
 10 11  1  0
 11 20  1  0
 12 20  1  0
 13 18  1  0
 14 15  1  0
 14 13  1  0
 16 15  1  0
 16 25  1  0
 16 17  1  0
 18 12  1  0
 18 17  1  0
 19 12  2  0
 20 21  1  0
 22 23  2  0
 23 42  1  0
 24 23  1  0
 24 27  1  0
 25 22  1  0
 25 26  1  0
 26 24  2  0
 27 28  1  0
 28 29  2  0
 30 33  1  0
 30 29  1  0
 31 30  2  0
 32 31  1  0
 32 27  2  0
 33 34  1  0
 34 39  2  0
 34 35  1  0
 35 36  2  0
 36 37  1  0
 37 41  1  0
 38 37  2  0
 39 38  1  0
 40 39  1  0
 42 43  1  0
 43 46  1  0
 43 45  1  0
 44 42  2  0
 47 48  1  0
 47 22  1  0
 49 47  1  0
 50  4  1  0
 50 51  1  0
 52 63  2  0
 53 51  1  0
 53 58  1  0
 54 62  1  0
 54 64  1  0
 55 61  1  0
 55 57  1  0
 56 62  1  0
 57 56  1  0
 58 57  2  0
 59 60  1  0
 59 53  2  0
 60 55  2  0
 61 54  1  0
 62 52  1  0
 64 66  2  0
 65 64  1  0
 67 65  1  0
 68 77  2  0
 68 73  1  0
 69 65  1  0
 69 73  1  0
 70 69  1  0
 71 72  1  0
 71 70  1  0
 72 68  1  0
 73 74  2  0
 74 75  1  0
 76 75  2  0
 77 76  1  0
 78 52  1  0
 78 79  1  0
 78 88  1  0
 79 82  1  0
 80 84  1  0
 80 79  1  0
 81 80  2  0
 84 83  1  0
 86 84  1  0
 86 87  1  0
 86 85  1  0
 88 91  1  1
 88 89  1  0
 90 88  1  0
M  ISO  4  12 100  20 100  50 101  51 101
M  END
>  <TORSDO>  (63) 
F 18

>  <SCORE>  (63) 
-13.725

>  <name>  (63) 
62

>  <ligand_id>  (63) 
62

>  <original_smiles>  (63) 
[H]c1c([H])c([H])c2c(c1[H])C([H])([H])C([H])([H])C([H])([H])C2([H])N([H])C(=O)C1([H])N(C(=O)C([H])(N([H])C(=O)C([H])(N([H])C([H])([H])[H])C([H])([H])[H])C(C([H])([H])[H])(C([H])([H])[H])C([H])([H])[H])C([H])([H])c2c([H])c(OC([H])([H])c3c([H])c(C([H])([H])[H])c(C4([H])C([H])([H])C4([H])N([H])C(=O)N4C([H])([H])C([H])([H])C([H])([H])C([H])(n5nc(-c6c([H])c([H])c(Oc7c([H])c([H])c(F)c([H])c7F)c([H])c6[H])c(C(=O)N([H])[H])c5N([H])[H])C4([H])[H])c(C([H])([H])[H])c3[H])c([H])c([H])c2C1([H])[H]

>  <smiles>  (63) 
[H]c1c([H])c([H])c2c(c1[H])C([H])([H])C([H])([H])C([H])([H])C2([H])N([H])C(=O)C1([H])N(C(=O)C([H])(N([H])C(=O)C([H])(N([H])C([H])([H])[H])C([H])([H])[H])C(C([H])([H])[H])(C([H])([H])[H])C([H])([H])[H])C([H])([H])c2c([H])c(OC([H])([H])c3c([H])c(C([H])([H])[H])c(C4([H])C([H])([H])C4([H])N([H])C(=O)N4C([H])([H])C([H])([H])C([H])([H])C([H])(n5nc(-c6c([H])c([H])c(Oc7c([H])c([H])c(F)c([H])c7F)c([H])c6[H])c(C(=O)N([H])[H])c5N([H])[H])C4([H])[H])c(C([H])([H])[H])c3[H])c([H])c([H])c2C1([H])[H]

$$$$
63:0:0
     RDKit          3D

 95104  0  0  1  0  0  0  0  0999 V2000
  -27.5820  -19.6300   19.6180 C   0  0  0  0  0  3  0  0  0  0  0  0
  -26.4520  -20.0730   18.9130 C   0  0  0  0  0  3  0  0  0  0  0  0
  -27.3100  -22.3420   19.0030 C   0  0  0  0  0  3  0  0  0  0  0  0
  -28.6110  -20.5180   20.0110 C   0  0  0  0  0  0  0  0  0  0  0  0
  -26.3190  -21.4310   18.5940 C   0  0  0  0  0  0  0  0  0  0  0  0
  -28.4670  -21.9300   19.7170 C   0  0  0  0  0  0  0  0  0  0  0  0
  -25.1100  -21.9060   17.8130 C   0  0  0  0  0  1  0  0  0  0  0  0
  -31.1940  -20.1590   20.0590 C   0  0  0  0  0  2  0  0  0  0  0  0
  -29.8350  -19.8500   20.6910 C   0  0  0  0  0  3  0  0  0  0  0  0
  -31.6820  -18.7520   20.4120 C   0  0  0  0  0  3  0  0  0  0  0  0
  -30.2130  -18.3040   20.5520 C   0  0  0  0  0  3  0  0  0  0  0  0
  -32.6030  -18.0180   19.4480 C   0  0  0  0  0  1  0  0  0  0  0  0
  -29.9240  -17.2360   21.6670 C   0  0  0  0  0  2  0  0  0  0  0  0
  -30.4750  -14.8360   20.8300 C   0  0  0  0  0  0  0  0  0  0  0  0
  -30.3330  -12.6840   19.6020 C   0  0  0  0  0  2  0  0  0  0  0  0
  -29.4070  -12.8740   18.3830 C   0  0  0  0  0  2  0  0  0  0  0  0
  -27.9280  -12.6610   18.7720 C   0  0  0  0  0  2  0  0  0  0  0  0
  -27.5300  -13.4320   20.0590 C   0  0  0  0  0  3  0  0  0  0  0  0
  -28.5720  -13.2180   21.1790 C   0  0  0  0  0  2  0  0  0  0  0  0
  -29.8820  -13.6200   20.6450 N   0  0  0  0  0  0  0  0  0  0  0  0
  -31.6450  -15.0530   20.5010 O   0  0  0  0  0  0  0  0  0  0  0  0
  -29.6460  -15.8320   21.2420 N   0  0  0  0  0  0  0  0  0  0  0  0
  -28.6990  -15.5230   21.4080 H   0  0  0  0  0  0  0  0  0  0  0  0
  -25.1100  -13.9370   20.7640 C   0  0  0  0  0  0  0  0  0  0  0  0
  -24.0550  -13.1200   21.0660 C   0  0  0  0  0  0  0  0  0  0  0  0
  -24.5480  -11.7820   20.9590 C   0  0  0  0  0  0  0  0  0  0  0  0
  -26.1780  -13.0950   20.4990 N   0  0  0  0  0  0  0  0  0  0  0  0
  -25.8440  -11.7910   20.6750 N   0  0  0  0  0  0  0  0  0  0  0  0
  -23.8480  -10.4960   21.0560 C   0  0  0  0  0  0  0  0  0  0  0  0
  -24.2950   -9.4760   21.9250 C   0  0  0  0  0  3  0  0  0  0  0  0
  -23.5940   -8.2540   22.0140 C   0  0  0  0  0  3  0  0  0  0  0  0
  -22.4330   -8.0430   21.2340 C   0  0  0  0  0  0  0  0  0  0  0  0
  -22.0060   -9.0520   20.3530 C   0  0  0  0  0  3  0  0  0  0  0  0
  -22.7070  -10.2650   20.2610 C   0  0  0  0  0  3  0  0  0  0  0  0
  -21.7030   -6.8780   21.2350 O   0  0  0  0  0  0  0  0  0  0  0  0
  -21.6770   -6.0480   22.3270 C   0  0  0  0  0  0  0  0  0  0  0  0
  -21.2060   -6.4830   23.5850 C   0  0  0  0  0  3  0  0  0  0  0  0
  -21.1290   -5.5770   24.6620 C   0  0  0  0  0  3  0  0  0  0  0  0
  -21.5130   -4.2350   24.4810 C   0  0  0  0  0  0  0  0  0  0  0  0
  -21.9780   -3.7970   23.2280 C   0  0  0  0  0  3  0  0  0  0  0  0
  -22.0560   -4.7000   22.1540 C   0  0  0  0  0  0  0  0  0  0  0  0
  -22.4830   -4.2680   20.9420 F   0  0  0  0  0  0  0  0  0  0  0  0
  -21.4340   -3.3630   25.5120 F   0  0  0  0  0  0  0  0  0  0  0  0
  -22.6410  -13.5480   21.3380 C   0  0  0  0  0  0  0  0  0  0  0  0
  -21.9170  -12.7880   22.1540 N   0  0  0  0  0  0  0  0  0  0  0  0
  -22.1860  -14.5880   20.8660 O   0  0  0  0  0  0  0  0  0  0  0  0
  -22.2950  -11.9450   22.5580 H   0  0  0  0  0  0  0  0  0  0  0  0
  -20.9690  -13.0570   22.3770 H   0  0  0  0  0  0  0  0  0  0  0  0
  -25.2460  -15.3190   20.6730 N   0  0  0  0  0  0  0  0  0  0  0  0
  -24.4590  -15.9450   20.8060 H   0  0  0  0  0  0  0  0  0  0  0  0
  -26.0800  -15.7970   20.3580 H   0  0  0  0  0  0  0  0  0  0  0  0
  -29.3970  -22.8950   20.1140 O   0  0  0  0  0  0  0  0  0  0  0  0
  -29.2790  -24.2830   19.6510 C   0  0  0  0  0  3  0  0  0  0  0  0
  -28.5310  -25.3320   20.5600 C   0  0  0  0  0  3  0  0  0  0  0  0
  -28.6080  -26.7340   20.1370 O   0  0  0  0  0  0  0  0  0  0  0  0
  -24.5460  -31.8140   23.1790 C   0  0  0  0  0  0  0  0  0  0  0  0
  -27.4280  -27.4710   20.1170 C   0  0  0  0  0  0  0  0  0  0  0  0
  -23.4370  -30.3950   21.4870 C   0  0  0  0  0  3  0  0  0  0  0  0
  -24.9850  -28.9280   20.0770 C   0  0  0  0  0  0  0  0  0  0  0  0
  -25.9570  -30.8410   21.3580 C   0  0  0  0  0  2  0  0  0  0  0  0
  -26.1120  -29.4780   20.7010 C   0  0  0  0  0  0  0  0  0  0  0  0
  -27.3390  -28.7620   20.7080 C   0  0  0  0  0  3  0  0  0  0  0  0
  -26.2810  -26.9520   19.4780 C   0  0  0  0  0  3  0  0  0  0  0  0
  -25.0680  -27.6690   19.4580 C   0  0  0  0  0  3  0  0  0  0  0  0
  -23.7090  -29.7440   20.1050 C   0  0  0  0  0  2  0  0  0  0  0  0
  -24.6640  -31.0320   22.0680 N   0  0  0  0  0  0  0  0  0  0  0  0
  -23.4420  -32.0360   23.6950 O   0  0  0  0  0  0  0  0  0  0  0  0
  -22.7980  -29.3370   22.4170 C   0  0  0  0  0  0  0  0  0  0  0  0
  -21.4790  -29.1300   22.2740 N   0  0  0  0  0  0  0  0  0  0  0  0
  -23.4870  -28.7060   23.2220 O   0  0  0  0  0  0  0  0  0  0  0  0
  -20.9820  -29.6920   21.5970 H   0  0  0  0  0  0  0  0  0  0  0  0
  -18.1150  -27.8980   22.7660 C   0  0  0  0  0  0  0  0  0  0  0  0
  -20.6770  -28.1540   23.0110 C   0  0  0  0  0  3  0  0  0  0  0  0
  -20.7740  -26.7520   22.3650 C   0  0  0  0  0  2  0  0  0  0  0  0
  -19.6580  -26.4740   21.3540 C   0  0  0  0  0  2  0  0  0  0  0  0
  -18.2860  -26.5830   22.0240 C   0  0  0  0  0  2  0  0  0  0  0  0
  -19.2380  -28.6420   23.2160 C   0  0  0  0  0  0  0  0  0  0  0  0
  -19.0250  -29.8760   23.8700 C   0  0  0  0  0  3  0  0  0  0  0  0
  -17.7200  -30.3630   24.0780 C   0  0  0  0  0  3  0  0  0  0  0  0
  -16.6130  -29.6150   23.6460 C   0  0  0  0  0  3  0  0  0  0  0  0
  -16.8110  -28.3840   22.9960 C   0  0  0  0  0  3  0  0  0  0  0  0
  -25.7890  -32.4850   23.8440 C   0  0  0  0  0  3  0  0  0  0  0  0
  -25.4370  -33.8830   24.1310 N   0  0  0  0  0  0  0  0  0  0  0  0
  -25.7830  -34.9270   23.3650 C   0  0  0  0  0  0  0  0  0  0  0  0
  -26.4990  -34.8150   22.3660 O   0  0  0  0  0  0  0  0  0  0  0  0
  -24.8060  -34.0420   24.9030 H   0  0  0  0  0  0  0  0  0  0  0  0
  -24.0380  -36.6770   22.8950 C   0  0  0  0  0  1  0  0  0  0  0  0
  -25.2490  -36.3140   23.7700 C   0  0  0  0  0  3  0  0  0  0  0  0
  -27.3210  -37.2640   24.6830 C   0  0  0  0  0  1  0  0  0  0  0  0
  -26.2650  -37.3850   23.6810 N   0  0  0  0  0  0  0  0  0  0  0  0
  -25.8350  -38.3000   23.7830 H   0  0  0  0  0  0  0  0  0  0  0  0
  -26.2630  -31.7490   25.1570 C   0  0  1  0  0  0  0  0  0  0  0  0
  -25.1290  -31.5030   26.1780 C   0  0  0  0  0  1  0  0  0  0  0  0
  -26.8950  -30.3790   24.8150 C   0  0  0  0  0  1  0  0  0  0  0  0
  -27.3640  -32.5820   25.8550 C   0  0  0  0  0  1  0  0  0  0  0  0
  1  4  1  0
  2  1  2  0
  3  6  1  0
  5  2  1  0
  5  3  2  0
  6  4  2  0
  6 52  1  0
  7  5  1  0
  8 10  1  0
  8  9  1  0
  9  4  1  0
 10 12  1  0
 10 11  1  0
 11  9  1  0
 11 13  1  0
 14 22  1  0
 15 20  1  0
 16 17  1  0
 16 15  1  0
 18 17  1  0
 18 27  1  0
 18 19  1  0
 20 14  1  0
 20 19  1  0
 21 14  2  0
 22 23  1  0
 22 13  1  0
 24 25  2  0
 25 44  1  0
 26 29  1  0
 26 25  1  0
 27 28  1  0
 27 24  1  0
 28 26  2  0
 29 30  1  0
 30 31  2  0
 32 35  1  0
 32 31  1  0
 33 32  2  0
 34 33  1  0
 34 29  2  0
 35 36  1  0
 36 37  1  0
 37 38  2  0
 39 38  1  0
 39 43  1  0
 40 39  2  0
 41 36  2  0
 41 40  1  0
 42 41  1  0
 44 45  1  0
 45 48  1  0
 45 47  1  0
 46 44  2  0
 49 24  1  0
 49 50  1  0
 51 49  1  0
 53 52  1  0
 53 54  2  0
 55 54  1  0
 56 67  2  0
 57 55  1  0
 57 62  1  0
 58 66  1  0
 58 68  1  0
 59 65  1  0
 59 61  1  0
 60 66  1  0
 61 62  2  0
 61 60  1  0
 63 57  2  0
 64 63  1  0
 64 59  2  0
 65 58  1  0
 66 56  1  0
 68 70  2  0
 69 68  1  0
 71 69  1  0
 72 81  2  0
 72 77  1  0
 73 69  1  0
 73 77  1  0
 74 73  1  0
 75 76  1  0
 75 74  1  0
 76 72  1  0
 77 78  2  0
 78 79  1  0
 80 79  2  0
 81 80  1  0
 82 56  1  0
 82 83  1  0
 82 92  1  0
 83 86  1  0
 84 88  1  0
 84 83  1  0
 85 84  2  0
 88 87  1  0
 90 88  1  0
 90 91  1  0
 90 89  1  0
 92 95  1  1
 92 93  1  0
 94 92  1  0
M  ISO  4  14 100  22 100  54 101  55 101
M  END
>  <TORSDO>  (64) 
F 21

>  <SCORE>  (64) 
-13.409

>  <name>  (64) 
63

>  <ligand_id>  (64) 
63

>  <original_smiles>  (64) 
[H]c1c([H])c([H])c2c(c1[H])C([H])([H])C([H])([H])C([H])([H])C2([H])N([H])C(=O)C1([H])N(C(=O)C([H])(N([H])C(=O)C([H])(N([H])C([H])([H])[H])C([H])([H])[H])C(C([H])([H])[H])(C([H])([H])[H])C([H])([H])[H])C([H])([H])c2c([H])c(OC([H])([H])C([H])([H])Oc3c([H])c(C([H])([H])[H])c([H])c([H])c3C3([H])C([H])([H])C([H])(C([H])([H])[H])C3([H])C([H])([H])N([H])C(=O)N3C([H])([H])C([H])([H])C([H])([H])C([H])(n4nc(-c5c([H])c([H])c(Oc6c([H])c([H])c(F)c([H])c6F)c([H])c5[H])c(C(=O)N([H])[H])c4N([H])[H])C3([H])[H])c([H])c([H])c2C1([H])[H]

>  <smiles>  (64) 
[H]c1c([H])c([H])c2c(c1[H])C([H])([H])C([H])([H])C([H])([H])C2([H])N([H])C(=O)C1([H])N(C(=O)C([H])(N([H])C(=O)C([H])(N([H])C([H])([H])[H])C([H])([H])[H])C(C([H])([H])[H])(C([H])([H])[H])C([H])([H])[H])C([H])([H])c2c([H])c(OC([H])([H])C([H])([H])Oc3c([H])c(C([H])([H])[H])c([H])c([H])c3C3([H])C([H])([H])C([H])(C([H])([H])[H])C3([H])C([H])([H])N([H])C(=O)N3C([H])([H])C([H])([H])C([H])([H])C([H])(n4nc(-c5c([H])c([H])c(Oc6c([H])c([H])c(F)c([H])c6F)c([H])c5[H])c(C(=O)N([H])[H])c4N([H])[H])C3([H])[H])c([H])c([H])c2C1([H])[H]

$$$$
64:0:0
     RDKit          3D

 98107  0  0  1  0  0  0  0  0999 V2000
  -30.8540  -22.6820   17.3260 C   0  0  0  0  0  3  0  0  0  0  0  0
  -30.5530  -22.9670   18.6660 C   0  0  0  0  0  3  0  0  0  0  0  0
  -30.8670  -20.3170   17.8570 C   0  0  0  0  0  3  0  0  0  0  0  0
  -31.0170  -21.3530   16.9170 C   0  0  0  0  0  0  0  0  0  0  0  0
  -30.3950  -21.9370   19.6320 C   0  0  0  0  0  0  0  0  0  0  0  0
  -30.5480  -20.5750   19.2200 C   0  0  0  0  0  0  0  0  0  0  0  0
  -31.3440  -21.0340   15.4720 C   0  0  0  0  0  1  0  0  0  0  0  0
  -31.2060  -21.8190   22.0500 C   0  0  0  0  0  1  0  0  0  0  0  0
  -30.0970  -22.3140   21.1020 C   0  0  0  0  0  3  0  0  0  0  0  0
  -29.9440  -23.7800   21.3270 N   0  0  0  0  0  4  0  0  0  0  0  0
  -30.1860  -23.9470   22.2910 H   0  0  0  0  0  0  0  0  0  0  0  0
  -30.6360  -24.2500   20.7630 H   0  0  0  0  0  0  0  0  0  0  0  0
  -28.5970  -24.3690   21.0900 C   0  0  0  0  0  2  0  0  0  0  0  0
  -28.5540  -25.8970   21.3680 C   0  0  0  0  0  2  0  0  0  0  0  0
  -28.3740  -26.6670   20.1700 O   0  0  0  0  0  0  0  0  0  0  0  0
  -24.6050  -31.8680   23.2410 C   0  0  0  0  0  0  0  0  0  0  0  0
  -27.2300  -27.4270   20.1680 C   0  0  0  0  0  0  0  0  0  0  0  0
  -23.3870  -30.4600   21.6090 C   0  0  0  0  0  3  0  0  0  0  0  0
  -24.8360  -28.9210   20.1750 C   0  0  0  0  0  0  0  0  0  0  0  0
  -25.9080  -30.8220   21.3960 C   0  0  0  0  0  2  0  0  0  0  0  0
  -25.9910  -29.4490   20.7650 C   0  0  0  0  0  0  0  0  0  0  0  0
  -27.1920  -28.7050   20.7680 C   0  0  0  0  0  3  0  0  0  0  0  0
  -26.0670  -26.9100   19.5650 C   0  0  0  0  0  3  0  0  0  0  0  0
  -24.8680  -27.6510   19.5710 C   0  0  0  0  0  3  0  0  0  0  0  0
  -23.5880  -29.7740   20.2290 C   0  0  0  0  0  2  0  0  0  0  0  0
  -24.6520  -31.0650   22.1410 N   0  0  0  0  0  0  0  0  0  0  0  0
  -23.5280  -32.1420   23.7880 O   0  0  0  0  0  0  0  0  0  0  0  0
  -22.7440  -29.4450   22.5790 C   0  0  0  0  0  0  0  0  0  0  0  0
  -21.4180  -29.2640   22.4630 N   0  0  0  0  0  0  0  0  0  0  0  0
  -23.4340  -28.8190   23.3900 O   0  0  0  0  0  0  0  0  0  0  0  0
  -20.9250  -29.8150   21.7740 H   0  0  0  0  0  0  0  0  0  0  0  0
  -18.0450  -28.0720   22.9730 C   0  0  0  0  0  0  0  0  0  0  0  0
  -20.6030  -28.3300   23.2400 C   0  0  0  0  0  3  0  0  0  0  0  0
  -20.7060  -26.8970   22.6690 C   0  0  0  0  0  2  0  0  0  0  0  0
  -19.6010  -26.5700   21.6600 C   0  0  0  0  0  2  0  0  0  0  0  0
  -18.2200  -26.7200   22.3030 C   0  0  0  0  0  2  0  0  0  0  0  0
  -19.1650  -28.8350   23.3980 C   0  0  0  0  0  0  0  0  0  0  0  0
  -18.9480  -30.1020   23.9820 C   0  0  0  0  0  3  0  0  0  0  0  0
  -17.6440  -30.6060   24.1460 C   0  0  0  0  0  3  0  0  0  0  0  0
  -16.5380  -29.8380   23.7400 C   0  0  0  0  0  3  0  0  0  0  0  0
  -16.7400  -28.5740   23.1590 C   0  0  0  0  0  3  0  0  0  0  0  0
  -25.8960  -32.5010   23.8520 C   0  0  0  0  0  3  0  0  0  0  0  0
  -25.5870  -33.8960   24.1930 N   0  0  0  0  0  0  0  0  0  0  0  0
  -25.9060  -34.9530   23.4340 C   0  0  0  0  0  0  0  0  0  0  0  0
  -26.5660  -34.8570   22.3950 O   0  0  0  0  0  0  0  0  0  0  0  0
  -25.0020  -34.0450   25.0020 H   0  0  0  0  0  0  0  0  0  0  0  0
  -24.1680  -36.7380   23.1070 C   0  0  0  0  0  1  0  0  0  0  0  0
  -25.4190  -36.3360   23.9020 C   0  0  0  0  0  3  0  0  0  0  0  0
  -27.5610  -37.2190   24.7130 C   0  0  0  0  0  1  0  0  0  0  0  0
  -26.4460  -37.3930   23.7860 N   0  0  0  0  0  0  0  0  0  0  0  0
  -26.0390  -38.3100   23.9510 H   0  0  0  0  0  0  0  0  0  0  0  0
  -26.4290  -31.7210   25.1150 C   0  0  1  0  0  0  0  0  0  0  0  0
  -25.3510  -31.4800   26.1960 C   0  0  0  0  0  1  0  0  0  0  0  0
  -27.0080  -30.3480   24.7040 C   0  0  0  0  0  1  0  0  0  0  0  0
  -27.5900  -32.5130   25.7670 C   0  0  0  0  0  1  0  0  0  0  0  0
  -30.3850  -19.5370   20.1370 O   0  0  0  0  0  0  0  0  0  0  0  0
  -30.6910  -14.4990   20.4610 C   0  0  0  0  0  0  0  0  0  0  0  0
  -30.3510  -12.3250   19.3510 C   0  0  0  0  0  2  0  0  0  0  0  0
  -29.4160  -12.5100   18.1400 C   0  0  0  0  0  2  0  0  0  0  0  0
  -27.9440  -12.3500   18.5700 C   0  0  0  0  0  2  0  0  0  0  0  0
  -27.5910  -13.2060   19.8150 C   0  0  0  0  0  3  0  0  0  0  0  0
  -28.6560  -13.0640   20.9290 C   0  0  0  0  0  2  0  0  0  0  0  0
  -29.9770  -13.3430   20.3450 N   0  0  0  0  0  0  0  0  0  0  0  0
  -31.8630  -14.5890   20.0870 O   0  0  0  0  0  0  0  0  0  0  0  0
  -31.5340  -17.6000   21.2080 C   0  0  0  0  0  2  0  0  0  0  0  0
  -30.2580  -17.3180   19.0130 C   0  0  0  0  0  2  0  0  0  0  0  0
  -30.5380  -16.5730   21.8190 C   0  0  0  0  0  2  0  0  0  0  0  0
  -29.3050  -16.3960   19.7930 C   0  0  0  0  0  2  0  0  0  0  0  0
  -31.0730  -18.2920   19.8970 C   0  0  0  0  0  3  0  0  0  0  0  0
  -30.0130  -15.6190   20.8240 N   0  0  0  0  0  0  0  0  0  0  0  0
  -25.2030  -13.8300   20.5210 C   0  0  0  0  0  0  0  0  0  0  0  0
  -24.1310  -13.0620   20.8870 C   0  0  0  0  0  0  0  0  0  0  0  0
  -24.5900  -11.7100   20.8650 C   0  0  0  0  0  0  0  0  0  0  0  0
  -26.2440  -12.9400   20.3010 N   0  0  0  0  0  0  0  0  0  0  0  0
  -25.8800  -11.6630   20.5660 N   0  0  0  0  0  0  0  0  0  0  0  0
  -23.8620  -10.4490   21.0560 C   0  0  0  0  0  0  0  0  0  0  0  0
  -24.3020   -9.4790   21.9820 C   0  0  0  0  0  3  0  0  0  0  0  0
  -23.5750   -8.2820   22.1610 C   0  0  0  0  0  3  0  0  0  0  0  0
  -22.3960   -8.0490   21.4130 C   0  0  0  0  0  0  0  0  0  0  0  0
  -21.9770   -9.0100   20.4750 C   0  0  0  0  0  3  0  0  0  0  0  0
  -22.7050  -10.1970   20.2950 C   0  0  0  0  0  3  0  0  0  0  0  0
  -21.6400   -6.9060   21.5020 O   0  0  0  0  0  0  0  0  0  0  0  0
  -21.6100   -6.1510   22.6480 C   0  0  0  0  0  0  0  0  0  0  0  0
  -21.2160   -6.6950   23.8900 C   0  0  0  0  0  3  0  0  0  0  0  0
  -21.1330   -5.8670   25.0260 C   0  0  0  0  0  3  0  0  0  0  0  0
  -21.4360   -4.4960   24.9230 C   0  0  0  0  0  0  0  0  0  0  0  0
  -21.8240   -3.9520   23.6860 C   0  0  0  0  0  3  0  0  0  0  0  0
  -21.9080   -4.7770   22.5520 C   0  0  0  0  0  0  0  0  0  0  0  0
  -22.2620   -4.2440   21.3580 F   0  0  0  0  0  0  0  0  0  0  0  0
  -21.3500   -3.6980   26.0130 F   0  0  0  0  0  0  0  0  0  0  0  0
  -22.7340  -13.5450   21.1510 C   0  0  0  0  0  0  0  0  0  0  0  0
  -22.0010  -12.8520   22.0170 N   0  0  0  0  0  0  0  0  0  0  0  0
  -22.3020  -14.5690   20.6260 O   0  0  0  0  0  0  0  0  0  0  0  0
  -22.3640  -12.0220   22.4630 H   0  0  0  0  0  0  0  0  0  0  0  0
  -21.0630  -13.1550   22.2360 H   0  0  0  0  0  0  0  0  0  0  0  0
  -25.3770  -15.1980   20.3380 N   0  0  0  0  0  0  0  0  0  0  0  0
  -24.6190  -15.8630   20.4460 H   0  0  0  0  0  0  0  0  0  0  0  0
  -26.2440  -15.6290   20.0430 H   0  0  0  0  0  0  0  0  0  0  0  0
  1  2  1  0
  2  5  2  0
  3  6  2  0
  4  1  2  0
  4  3  1  0
  5  9  1  0
  6  5  1  0
  6 56  1  0
  7  4  1  0
  9 10  1  0
  9  8  1  0
 10 11  1  0
 12 10  1  0
 13 10  1  0
 13 14  1  0
 15 14  1  0
 16 27  2  0
 17 15  1  0
 17 22  1  0
 18 26  1  0
 18 28  1  0
 19 25  1  0
 19 21  1  0
 20 26  1  0
 21 22  2  0
 21 20  1  0
 23 24  1  0
 23 17  2  0
 24 19  2  0
 25 18  1  0
 26 16  1  0
 28 30  2  0
 29 28  1  0
 31 29  1  0
 32 41  2  0
 32 37  1  0
 33 29  1  0
 33 37  1  0
 34 33  1  0
 35 36  1  0
 35 34  1  0
 36 32  1  0
 37 38  2  0
 38 39  1  0
 40 39  2  0
 41 40  1  0
 42 16  1  0
 42 43  1  0
 42 52  1  0
 43 46  1  0
 44 48  1  0
 44 43  1  0
 45 44  2  0
 48 47  1  0
 50 48  1  0
 50 51  1  0
 50 49  1  0
 52 55  1  1
 52 53  1  0
 54 52  1  0
 57 70  1  0
 58 63  1  0
 59 60  1  0
 59 58  1  0
 61 60  1  0
 61 74  1  0
 61 62  1  0
 63 57  1  0
 63 62  1  0
 64 57  2  0
 65 67  1  0
 66 68  1  0
 66 69  1  0
 68 70  1  0
 69 56  1  0
 69 65  1  0
 70 67  1  0
 71 72  2  0
 72 91  1  0
 73 72  1  0
 73 76  1  0
 74 71  1  0
 74 75  1  0
 75 73  2  0
 76 77  1  0
 77 78  2  0
 79 82  1  0
 79 78  1  0
 80 79  2  0
 81 80  1  0
 81 76  2  0
 82 83  1  0
 83 84  1  0
 84 85  2  0
 86 85  1  0
 86 90  1  0
 87 86  2  0
 88 83  2  0
 88 87  1  0
 89 88  1  0
 91 92  1  0
 92 95  1  0
 92 94  1  0
 93 91  2  0
 96 97  1  0
 96 71  1  0
 98 96  1  0
M  ISO  4  14 101  15 101  57 100  70 100
M  END
>  <TORSDO>  (65) 
F 21

>  <SCORE>  (65) 
-13.884

>  <name>  (65) 
64

>  <ligand_id>  (65) 
64

>  <original_smiles>  (65) 
[H]c1c([H])c([H])c2c(c1[H])C([H])([H])C([H])([H])C([H])([H])C2([H])N([H])C(=O)C1([H])N(C(=O)C([H])(N([H])C(=O)C([H])(N([H])C([H])([H])[H])C([H])([H])[H])C(C([H])([H])[H])(C([H])([H])[H])C([H])([H])[H])C([H])([H])c2c([H])c(OC([H])([H])C([H])([H])[N+]([H])([H])C([H])(c3c([H])c([H])c(C([H])([H])[H])c([H])c3OC3([H])C([H])([H])C([H])([H])N(C(=O)N4C([H])([H])C([H])([H])C([H])([H])C([H])(n5nc(-c6c([H])c([H])c(Oc7c([H])c([H])c(F)c([H])c7F)c([H])c6[H])c(C(=O)N([H])[H])c5N([H])[H])C4([H])[H])C([H])([H])C3([H])[H])C([H])([H])[H])c([H])c([H])c2C1([H])[H]

>  <smiles>  (65) 
[H]c1c([H])c([H])c2c(c1[H])C([H])([H])C([H])([H])C([H])([H])C2([H])N([H])C(=O)C1([H])N(C(=O)C([H])(N([H])C(=O)C([H])(N([H])C([H])([H])[H])C([H])([H])[H])C(C([H])([H])[H])(C([H])([H])[H])C([H])([H])[H])C([H])([H])c2c([H])c(OC([H])([H])C([H])([H])[N+]([H])([H])C([H])(c3c([H])c([H])c(C([H])([H])[H])c([H])c3OC3([H])C([H])([H])C([H])([H])N(C(=O)N4C([H])([H])C([H])([H])C([H])([H])C([H])(n5nc(-c6c([H])c([H])c(Oc7c([H])c([H])c(F)c([H])c7F)c([H])c6[H])c(C(=O)N([H])[H])c5N([H])[H])C4([H])[H])C([H])([H])C3([H])[H])C([H])([H])[H])c([H])c([H])c2C1([H])[H]

$$$$
65:0:0
     RDKit          3D

 92101  0  0  1  0  0  0  0  0999 V2000
  -28.8170  -20.1140   18.6070 C   0  0  0  0  0  3  0  0  0  0  0  0
  -29.2690  -20.2870   19.9270 C   0  0  0  0  0  0  0  0  0  0  0  0
  -29.7260  -18.9880   20.5160 C   0  0  0  0  0  0  0  0  0  0  0  0
  -28.8160  -18.8560   17.9670 C   0  0  0  0  0  0  0  0  0  0  0  0
  -29.6950  -17.6650   19.8190 C   0  0  0  0  0  0  0  0  0  0  0  0
  -30.3020  -19.0260   21.9220 C   0  0  0  0  0  1  0  0  0  0  0  0
  -28.2320  -18.7280   16.5660 C   0  0  0  0  0  1  0  0  0  0  0  0
  -29.2360  -17.7020   18.5470 N   0  0  0  0  0  0  0  0  0  0  0  0
  -30.6520  -15.1100   20.0290 C   0  0  0  0  0  0  0  0  0  0  0  0
  -30.5210  -12.7470   19.1290 C   0  0  0  0  0  2  0  0  0  0  0  0
  -29.5610  -12.7360   17.9170 C   0  0  0  0  0  2  0  0  0  0  0  0
  -28.1080  -12.5050   18.3860 C   0  0  0  0  0  2  0  0  0  0  0  0
  -27.7390  -13.3990   19.6030 C   0  0  0  0  0  3  0  0  0  0  0  0
  -28.8330  -13.4020   20.6930 C   0  0  0  0  0  2  0  0  0  0  0  0
  -30.0840  -13.8320   20.0550 N   0  0  0  0  0  0  0  0  0  0  0  0
  -31.8090  -15.1870   19.5960 O   0  0  0  0  0  0  0  0  0  0  0  0
  -29.9350  -16.2760   20.4310 N   0  0  0  0  0  0  0  0  0  0  0  0
  -29.2160  -16.0400   21.0940 H   0  0  0  0  0  0  0  0  0  0  0  0
  -25.3970  -13.9490   20.4700 C   0  0  0  0  0  0  0  0  0  0  0  0
  -24.3490  -13.1640   20.8690 C   0  0  0  0  0  0  0  0  0  0  0  0
  -24.8070  -11.8150   20.7690 C   0  0  0  0  0  0  0  0  0  0  0  0
  -26.4240  -13.0790   20.1490 N   0  0  0  0  0  0  0  0  0  0  0  0
  -26.0820  -11.7860   20.3930 N   0  0  0  0  0  0  0  0  0  0  0  0
  -24.0870  -10.5480   20.9510 C   0  0  0  0  0  0  0  0  0  0  0  0
  -24.5190   -9.5800   21.8860 C   0  0  0  0  0  3  0  0  0  0  0  0
  -23.7990   -8.3790   22.0630 C   0  0  0  0  0  3  0  0  0  0  0  0
  -22.6300   -8.1380   21.3030 C   0  0  0  0  0  0  0  0  0  0  0  0
  -22.2160   -9.0920   20.3590 C   0  0  0  0  0  3  0  0  0  0  0  0
  -22.9360  -10.2840   20.1810 C   0  0  0  0  0  3  0  0  0  0  0  0
  -21.8790   -6.9900   21.3890 O   0  0  0  0  0  0  0  0  0  0  0  0
  -21.7720   -6.2830   22.5590 C   0  0  0  0  0  0  0  0  0  0  0  0
  -21.2020   -6.8490   23.7210 C   0  0  0  0  0  3  0  0  0  0  0  0
  -21.0460   -6.0650   24.8820 C   0  0  0  0  0  3  0  0  0  0  0  0
  -21.4510   -4.7160   24.8820 C   0  0  0  0  0  0  0  0  0  0  0  0
  -22.0100   -4.1500   23.7230 C   0  0  0  0  0  3  0  0  0  0  0  0
  -22.1690   -4.9310   22.5650 C   0  0  0  0  0  0  0  0  0  0  0  0
  -22.6880   -4.3710   21.4450 F   0  0  0  0  0  0  0  0  0  0  0  0
  -21.2920   -3.9620   25.9940 F   0  0  0  0  0  0  0  0  0  0  0  0
  -22.9690  -13.6350   21.2240 C   0  0  0  0  0  0  0  0  0  0  0  0
  -22.2770  -12.9160   22.0990 N   0  0  0  0  0  0  0  0  0  0  0  0
  -22.5100  -14.6770   20.7550 O   0  0  0  0  0  0  0  0  0  0  0  0
  -22.6620  -12.0740   22.5080 H   0  0  0  0  0  0  0  0  0  0  0  0
  -21.3500  -13.2110   22.3730 H   0  0  0  0  0  0  0  0  0  0  0  0
  -25.5570  -15.3250   20.3280 N   0  0  0  0  0  0  0  0  0  0  0  0
  -24.8070  -15.9800   20.5130 H   0  0  0  0  0  0  0  0  0  0  0  0
  -26.3900  -15.7690   19.9590 H   0  0  0  0  0  0  0  0  0  0  0  0
  -29.9110  -22.6700   19.6070 C   0  0  0  0  0  2  0  0  0  0  0  0
  -29.1140  -21.8040   20.6070 C   0  0  0  0  0  3  0  0  0  0  0  0
  -29.2400  -23.5240   20.5660 C   0  0  1  0  0  0  0  0  0  0  0  0
  -30.0580  -24.1090   21.7130 C   0  0  0  0  0  1  0  0  0  0  0  0
  -28.2010  -24.7600   20.1500 C   0  0  0  0  0  2  0  0  0  0  0  0
  -28.4080  -26.2890   20.3940 O   0  0  0  0  0  0  0  0  0  0  0  0
  -24.6570  -31.9030   23.3190 C   0  0  0  0  0  0  0  0  0  0  0  0
  -27.3380  -27.2530   20.2970 C   0  0  0  0  0  0  0  0  0  0  0  0
  -23.5010  -30.5160   21.6410 C   0  0  0  0  0  3  0  0  0  0  0  0
  -24.9900  -28.9710   20.2280 C   0  0  0  0  0  0  0  0  0  0  0  0
  -26.0530  -30.8120   21.5240 C   0  0  0  0  0  2  0  0  0  0  0  0
  -26.1560  -29.4290   20.8560 C   0  0  0  0  0  0  0  0  0  0  0  0
  -27.3300  -28.5880   20.8730 C   0  0  0  0  0  3  0  0  0  0  0  0
  -26.1460  -26.8920   19.6340 C   0  0  0  0  0  3  0  0  0  0  0  0
  -24.9980  -27.7150   19.6030 C   0  0  0  0  0  3  0  0  0  0  0  0
  -23.7520  -29.8530   20.2610 C   0  0  0  0  0  2  0  0  0  0  0  0
  -24.7580  -31.0970   22.2180 N   0  0  0  0  0  0  0  0  0  0  0  0
  -23.5590  -32.1740   23.8270 O   0  0  0  0  0  0  0  0  0  0  0  0
  -22.8120  -29.4960   22.5770 C   0  0  0  0  0  0  0  0  0  0  0  0
  -21.4880  -29.3150   22.4200 N   0  0  0  0  0  0  0  0  0  0  0  0
  -23.4710  -28.8640   23.4080 O   0  0  0  0  0  0  0  0  0  0  0  0
  -21.0140  -29.8710   21.7240 H   0  0  0  0  0  0  0  0  0  0  0  0
  -18.0980  -28.1260   22.8740 C   0  0  0  0  0  0  0  0  0  0  0  0
  -20.6580  -28.3630   23.1610 C   0  0  0  0  0  3  0  0  0  0  0  0
  -20.7550  -26.9470   22.5490 C   0  0  0  0  0  2  0  0  0  0  0  0
  -19.6550  -26.6580   21.5220 C   0  0  0  0  0  2  0  0  0  0  0  0
  -18.2710  -26.7950   22.1620 C   0  0  0  0  0  2  0  0  0  0  0  0
  -19.2200  -28.8700   23.3290 C   0  0  0  0  0  0  0  0  0  0  0  0
  -19.0050  -30.1170   23.9540 C   0  0  0  0  0  3  0  0  0  0  0  0
  -17.7020  -30.6200   24.1320 C   0  0  0  0  0  3  0  0  0  0  0  0
  -16.5940  -29.8710   23.6940 C   0  0  0  0  0  3  0  0  0  0  0  0
  -16.7950  -28.6280   23.0700 C   0  0  0  0  0  3  0  0  0  0  0  0
  -25.9190  -32.5390   23.9820 C   0  0  0  0  0  3  0  0  0  0  0  0
  -25.6050  -33.9460   24.2780 N   0  0  0  0  0  0  0  0  0  0  0  0
  -25.9370  -34.9850   23.4990 C   0  0  0  0  0  0  0  0  0  0  0  0
  -26.6050  -34.8590   22.4690 O   0  0  0  0  0  0  0  0  0  0  0  0
  -25.0060  -34.1180   25.0720 H   0  0  0  0  0  0  0  0  0  0  0  0
  -24.1900  -36.7600   23.1410 C   0  0  0  0  0  1  0  0  0  0  0  0
  -25.4530  -36.3820   23.9310 C   0  0  0  0  0  3  0  0  0  0  0  0
  -27.5920  -37.3130   24.6960 C   0  0  0  0  0  1  0  0  0  0  0  0
  -26.4740  -37.4380   23.7640 N   0  0  0  0  0  0  0  0  0  0  0  0
  -26.0630  -38.3590   23.8870 H   0  0  0  0  0  0  0  0  0  0  0  0
  -26.3730  -31.7900   25.2960 C   0  0  1  0  0  0  0  0  0  0  0  0
  -25.2320  -31.5790   26.3190 C   0  0  0  0  0  1  0  0  0  0  0  0
  -26.9680  -30.4020   24.9600 C   0  0  0  0  0  1  0  0  0  0  0  0
  -27.4940  -32.5940   25.9950 C   0  0  0  0  0  1  0  0  0  0  0  0
  1  2  1  0
  2  3  2  0
  3  6  1  0
  4  8  1  0
  4  1  2  0
  5 17  1  0
  5  3  1  0
  7  4  1  0
  8  5  2  0
  9 15  1  0
  9 17  1  0
 10 15  1  0
 11 12  1  0
 11 10  1  0
 13 12  1  0
 13 22  1  0
 13 14  1  0
 15 14  1  0
 16  9  2  0
 17 18  1  0
 19 20  2  0
 20 39  1  0
 21 20  1  0
 21 24  1  0
 22 23  1  0
 22 19  1  0
 23 21  2  0
 24 25  1  0
 25 26  2  0
 27 30  1  0
 27 26  1  0
 28 27  2  0
 29 28  1  0
 29 24  2  0
 30 31  1  0
 31 36  2  0
 31 32  1  0
 32 33  2  0
 33 34  1  0
 34 38  1  0
 35 34  2  0
 36 35  1  0
 37 36  1  0
 39 40  1  0
 40 43  1  0
 40 42  1  0
 41 39  2  0
 44 19  1  0
 44 45  1  0
 46 44  1  0
 47 49  1  0
 47 48  1  0
 48  2  1  0
 49 48  1  0
 49 50  1  1
 51 52  1  0
 51 49  1  0
 53 64  2  0
 54 52  1  0
 54 59  1  0
 55 63  1  0
 55 65  1  0
 56 62  1  0
 56 58  1  0
 57 63  1  0
 58 59  2  0
 58 57  1  0
 60 54  2  0
 61 60  1  0
 61 56  2  0
 62 55  1  0
 63 53  1  0
 65 67  2  0
 66 65  1  0
 68 66  1  0
 69 78  2  0
 69 74  1  0
 70 66  1  0
 70 74  1  0
 71 70  1  0
 72 73  1  0
 72 71  1  0
 73 69  1  0
 74 75  2  0
 75 76  1  0
 77 76  2  0
 78 77  1  0
 79 53  1  0
 79 80  1  0
 79 89  1  0
 80 83  1  0
 81 85  1  0
 81 80  1  0
 82 81  2  0
 85 84  1  0
 87 88  1  0
 87 85  1  0
 87 86  1  0
 89 92  1  1
 89 90  1  0
 91 89  1  0
M  ISO  4   9 100  17 100  51 101  52 101
M  END
>  <TORSDO>  (66) 
F 18

>  <SCORE>  (66) 
-14.605

>  <name>  (66) 
65

>  <ligand_id>  (66) 
65

>  <original_smiles>  (66) 
[H]c1c([H])c([H])c2c(c1[H])C([H])([H])C([H])([H])C([H])([H])C2([H])N([H])C(=O)C1([H])N(C(=O)C([H])(N([H])C(=O)C([H])(N([H])C([H])([H])[H])C([H])([H])[H])C(C([H])([H])[H])(C([H])([H])[H])C([H])([H])[H])C([H])([H])c2c([H])c(OC([H])([H])C3(C([H])([H])[H])C([H])([H])C3([H])c3c([H])c(C([H])([H])[H])nc(N([H])C(=O)N4C([H])([H])C([H])([H])C([H])([H])C([H])(n5nc(-c6c([H])c([H])c(Oc7c([H])c([H])c(F)c([H])c7F)c([H])c6[H])c(C(=O)N([H])[H])c5N([H])[H])C4([H])[H])c3C([H])([H])[H])c([H])c([H])c2C1([H])[H]

>  <smiles>  (66) 
[H]c1c([H])c([H])c2c(c1[H])C([H])([H])C([H])([H])C([H])([H])C2([H])N([H])C(=O)C1([H])N(C(=O)C([H])(N([H])C(=O)C([H])(N([H])C([H])([H])[H])C([H])([H])[H])C(C([H])([H])[H])(C([H])([H])[H])C([H])([H])[H])C([H])([H])c2c([H])c(OC([H])([H])C3(C([H])([H])[H])C([H])([H])C3([H])c3c([H])c(C([H])([H])[H])nc(N([H])C(=O)N4C([H])([H])C([H])([H])C([H])([H])C([H])(n5nc(-c6c([H])c([H])c(Oc7c([H])c([H])c(F)c([H])c7F)c([H])c6[H])c(C(=O)N([H])[H])c5N([H])[H])C4([H])[H])c3C([H])([H])[H])c([H])c([H])c2C1([H])[H]

$$$$
66:0:0
     RDKit          3D

101110  0  0  1  0  0  0  0  0999 V2000
  -29.2390  -22.3770   17.8850 C   0  0  0  0  0  0  0  0  0  0  0  0
  -28.7100  -23.5350   18.5060 C   0  0  0  0  0  0  0  0  0  0  0  0
  -29.4930  -21.2040   18.6290 C   0  0  0  0  0  0  0  0  0  0  0  0
  -28.6380  -23.5890   19.9290 C   0  0  0  0  0  0  0  0  0  0  0  0
  -29.2570  -21.2070   20.0220 C   0  0  0  0  0  0  0  0  0  0  0  0
  -29.5340  -22.4120   16.3940 C   0  0  0  0  0  2  0  0  0  0  0  0
  -29.9010  -23.8290   15.9610 C   0  0  0  0  0  2  0  0  0  0  0  0
  -28.0820  -24.6150   17.6110 C   0  0  0  0  0  3  0  0  0  0  0  0
  -28.7210  -24.7910   16.1900 C   0  0  0  0  0  3  0  0  0  0  0  0
  -26.5860  -24.2670   17.4470 C   0  0  0  0  0  1  0  0  0  0  0  0
  -28.8990  -22.4050   20.6390 N   0  0  0  0  0  0  0  0  0  0  0  0
  -29.4710  -19.9960   20.7940 N   0  0  0  0  0  0  0  0  0  0  0  0
  -29.4370  -20.1470   21.7940 H   0  0  0  0  0  0  0  0  0  0  0  0
  -29.7920  -26.4090   14.4940 C   0  0  0  0  0  1  0  0  0  0  0  0
  -27.8200  -27.1670   15.8200 C   0  0  0  0  0  1  0  0  0  0  0  0
  -29.0710  -26.2680   15.8490 C   0  0  0  0  0  3  0  0  0  0  0  0
  -29.9790  -20.0940   17.9900 O   0  0  0  0  0  0  0  0  0  0  0  0
  -30.0800  -20.2250   17.0540 H   0  0  0  0  0  0  0  0  0  0  0  0
  -28.0540  -24.8820   20.7100 C   0  0  0  0  0  2  0  0  0  0  0  0
  -28.3770  -26.3380   20.3860 O   0  0  0  0  0  0  0  0  0  0  0  0
  -24.6030  -31.9220   23.2590 C   0  0  0  0  0  0  0  0  0  0  0  0
  -27.3090  -27.2750   20.3380 C   0  0  0  0  0  0  0  0  0  0  0  0
  -23.4660  -30.5120   21.5880 C   0  0  0  0  0  3  0  0  0  0  0  0
  -24.9690  -28.9510   20.2300 C   0  0  0  0  0  0  0  0  0  0  0  0
  -26.0180  -30.8100   21.5080 C   0  0  0  0  0  2  0  0  0  0  0  0
  -26.1230  -29.4220   20.8690 C   0  0  0  0  0  0  0  0  0  0  0  0
  -27.3020  -28.6000   20.9070 C   0  0  0  0  0  3  0  0  0  0  0  0
  -26.1290  -26.8890   19.6730 C   0  0  0  0  0  3  0  0  0  0  0  0
  -24.9780  -27.6900   19.6220 C   0  0  0  0  0  3  0  0  0  0  0  0
  -23.7360  -29.8340   20.2220 C   0  0  0  0  0  2  0  0  0  0  0  0
  -24.7120  -31.1020   22.1730 N   0  0  0  0  0  0  0  0  0  0  0  0
  -23.4980  -32.2050   23.7460 O   0  0  0  0  0  0  0  0  0  0  0  0
  -22.7660  -29.5000   22.5290 C   0  0  0  0  0  0  0  0  0  0  0  0
  -21.4400  -29.3370   22.3740 N   0  0  0  0  0  0  0  0  0  0  0  0
  -23.4160  -28.8650   23.3630 O   0  0  0  0  0  0  0  0  0  0  0  0
  -20.9720  -29.9000   21.6760 H   0  0  0  0  0  0  0  0  0  0  0  0
  -18.0290  -28.2210   22.8500 C   0  0  0  0  0  0  0  0  0  0  0  0
  -20.5940  -28.4080   23.1260 C   0  0  0  0  0  3  0  0  0  0  0  0
  -20.6580  -26.9840   22.5240 C   0  0  0  0  0  2  0  0  0  0  0  0
  -19.5490  -26.7110   21.5040 C   0  0  0  0  0  2  0  0  0  0  0  0
  -18.1710  -26.8810   22.1470 C   0  0  0  0  0  2  0  0  0  0  0  0
  -19.1690  -28.9450   23.2950 C   0  0  0  0  0  0  0  0  0  0  0  0
  -18.9830  -30.2010   23.9120 C   0  0  0  0  0  3  0  0  0  0  0  0
  -17.6910  -30.7330   24.0880 C   0  0  0  0  0  3  0  0  0  0  0  0
  -16.5680  -30.0070   23.6570 C   0  0  0  0  0  3  0  0  0  0  0  0
  -16.7380  -28.7520   23.0450 C   0  0  0  0  0  3  0  0  0  0  0  0
  -25.8580  -32.5670   23.9220 C   0  0  0  0  0  3  0  0  0  0  0  0
  -25.5330  -33.9700   24.2210 N   0  0  0  0  0  0  0  0  0  0  0  0
  -25.8830  -35.0130   23.4570 C   0  0  0  0  0  0  0  0  0  0  0  0
  -26.5820  -34.8950   22.4470 O   0  0  0  0  0  0  0  0  0  0  0  0
  -24.9140  -34.1350   25.0010 H   0  0  0  0  0  0  0  0  0  0  0  0
  -24.1670  -36.8020   23.0250 C   0  0  0  0  0  1  0  0  0  0  0  0
  -25.3800  -36.4070   23.8820 C   0  0  0  0  0  3  0  0  0  0  0  0
  -27.4780  -37.3130   24.7810 C   0  0  0  0  0  1  0  0  0  0  0  0
  -26.4160  -37.4600   23.7900 N   0  0  0  0  0  0  0  0  0  0  0  0
  -26.0020  -38.3810   23.9020 H   0  0  0  0  0  0  0  0  0  0  0  0
  -26.3210  -31.8150   25.2300 C   0  0  1  0  0  0  0  0  0  0  0  0
  -25.1810  -31.5860   26.2510 C   0  0  0  0  0  1  0  0  0  0  0  0
  -26.9260  -30.4340   24.8870 C   0  0  0  0  0  1  0  0  0  0  0  0
  -27.4370  -32.6240   25.9300 C   0  0  0  0  0  1  0  0  0  0  0  0
  -29.1540  -18.5540   20.3950 C   0  0  0  0  0  2  0  0  0  0  0  0
  -31.0040  -17.5760   21.9200 C   0  0  0  0  0  1  0  0  0  0  0  0
  -30.2720  -17.3820   20.5790 C   0  0  0  0  0  3  0  0  0  0  0  0
  -30.5740  -14.7810   20.1360 C   0  0  0  0  0  0  0  0  0  0  0  0
  -30.3180  -12.5410   19.0450 C   0  0  0  0  0  2  0  0  0  0  0  0
  -29.3290  -12.6580   17.8660 C   0  0  0  0  0  2  0  0  0  0  0  0
  -27.8800  -12.4660   18.3540 C   0  0  0  0  0  2  0  0  0  0  0  0
  -27.5600  -13.3120   19.6160 C   0  0  0  0  0  3  0  0  0  0  0  0
  -28.6660  -13.1840   20.6850 C   0  0  0  0  0  2  0  0  0  0  0  0
  -29.9340  -13.5640   20.0470 N   0  0  0  0  0  0  0  0  0  0  0  0
  -31.7380  -14.8880   19.7400 O   0  0  0  0  0  0  0  0  0  0  0  0
  -29.8400  -15.9080   20.4920 N   0  0  0  0  0  0  0  0  0  0  0  0
  -28.8830  -15.7200   20.7500 H   0  0  0  0  0  0  0  0  0  0  0  0
  -25.2030  -13.8780   20.4520 C   0  0  0  0  0  0  0  0  0  0  0  0
  -24.1570  -13.0920   20.8520 C   0  0  0  0  0  0  0  0  0  0  0  0
  -24.6230  -11.7430   20.7770 C   0  0  0  0  0  0  0  0  0  0  0  0
  -26.2390  -13.0080   20.1550 N   0  0  0  0  0  0  0  0  0  0  0  0
  -25.9020  -11.7190   20.4160 N   0  0  0  0  0  0  0  0  0  0  0  0
  -23.9100  -10.4760   20.9730 C   0  0  0  0  0  0  0  0  0  0  0  0
  -24.3500   -9.5180   21.9140 C   0  0  0  0  0  3  0  0  0  0  0  0
  -23.6370   -8.3140   22.0980 C   0  0  0  0  0  3  0  0  0  0  0  0
  -22.4680   -8.0590   21.3420 C   0  0  0  0  0  0  0  0  0  0  0  0
  -22.0470   -9.0030   20.3900 C   0  0  0  0  0  3  0  0  0  0  0  0
  -22.7610  -10.1980   20.2030 C   0  0  0  0  0  3  0  0  0  0  0  0
  -21.7260   -6.9050   21.4360 O   0  0  0  0  0  0  0  0  0  0  0  0
  -21.6560   -6.1870   22.6030 C   0  0  0  0  0  0  0  0  0  0  0  0
  -21.1390   -6.7450   23.7920 C   0  0  0  0  0  3  0  0  0  0  0  0
  -21.0220   -5.9510   24.9500 C   0  0  0  0  0  3  0  0  0  0  0  0
  -21.4100   -4.5980   24.9190 C   0  0  0  0  0  0  0  0  0  0  0  0
  -21.9200   -4.0390   23.7340 C   0  0  0  0  0  3  0  0  0  0  0  0
  -22.0410   -4.8320   22.5790 C   0  0  0  0  0  0  0  0  0  0  0  0
  -22.5120   -4.2820   21.4350 F   0  0  0  0  0  0  0  0  0  0  0  0
  -21.2890   -3.8330   26.0280 F   0  0  0  0  0  0  0  0  0  0  0  0
  -22.7690  -13.5580   21.1850 C   0  0  0  0  0  0  0  0  0  0  0  0
  -22.0770  -12.8430   22.0640 N   0  0  0  0  0  0  0  0  0  0  0  0
  -22.3080  -14.5910   20.6990 O   0  0  0  0  0  0  0  0  0  0  0  0
  -22.4680  -12.0120   22.4830 H   0  0  0  0  0  0  0  0  0  0  0  0
  -21.1420  -13.1280   22.3200 H   0  0  0  0  0  0  0  0  0  0  0  0
  -25.3550  -15.2520   20.2890 N   0  0  0  0  0  0  0  0  0  0  0  0
  -24.5870  -15.8980   20.4340 H   0  0  0  0  0  0  0  0  0  0  0  0
  -26.1710  -15.6940   19.8860 H   0  0  0  0  0  0  0  0  0  0  0  0
  1  2  2  0
  1  3  1  0
  2  4  1  0
  3  5  2  0
  4 11  2  0
  4 19  1  0
  5 11  1  0
  5 12  1  0
  6  1  1  0
  7  9  1  0
  7  6  1  0
  8 10  1  0
  8  2  1  0
  9 16  1  0
  9  8  1  0
 12 13  1  0
 14 16  1  0
 15 16  1  0
 17  3  1  0
 18 17  1  0
 20 19  1  0
 21 32  2  0
 22 20  1  0
 22 27  1  0
 23 31  1  0
 23 33  1  0
 24 26  1  0
 25 31  1  0
 26 27  2  0
 26 25  1  0
 28 22  2  0
 29 28  1  0
 29 24  2  0
 30 24  1  0
 30 23  1  0
 31 21  1  0
 33 35  2  0
 34 33  1  0
 36 34  1  0
 37 46  2  0
 37 42  1  0
 38 34  1  0
 38 42  1  0
 39 38  1  0
 40 41  1  0
 40 39  1  0
 41 37  1  0
 42 43  2  0
 43 44  1  0
 45 44  2  0
 46 45  1  0
 47 21  1  0
 47 48  1  0
 47 57  1  0
 48 51  1  0
 49 53  1  0
 49 48  1  0
 50 49  2  0
 53 52  1  0
 55 53  1  0
 55 56  1  0
 55 54  1  0
 57 60  1  1
 57 58  1  0
 59 57  1  0
 61 63  1  0
 61 12  1  0
 63 62  1  0
 64 72  1  0
 65 70  1  0
 66 67  1  0
 66 65  1  0
 68 67  1  0
 68 77  1  0
 68 69  1  0
 70 64  1  0
 70 69  1  0
 71 64  2  0
 72 63  1  0
 72 73  1  0
 74 75  2  0
 75 94  1  0
 76 75  1  0
 76 79  1  0
 77 78  1  0
 77 74  1  0
 78 76  2  0
 79 80  1  0
 80 81  2  0
 82 85  1  0
 82 81  1  0
 83 82  2  0
 84 83  1  0
 84 79  2  0
 85 86  1  0
 86 87  1  0
 87 88  2  0
 89 88  1  0
 89 93  1  0
 90 89  2  0
 91 86  2  0
 91 90  1  0
 92 91  1  0
 94 95  1  0
 95 98  1  0
 95 97  1  0
 96 94  2  0
 99100  1  0
 99 74  1  0
101 99  1  0
M  ISO  4  19 101  20 101  64 100  72 100
M  END
>  <TORSDO>  (67) 
F 21

>  <SCORE>  (67) 
-13.969

>  <name>  (67) 
66

>  <ligand_id>  (67) 
66

>  <original_smiles>  (67) 
[H]Oc1c(N([H])C([H])([H])C([H])(N([H])C(=O)N2C([H])([H])C([H])([H])C([H])([H])C([H])(n3nc(-c4c([H])c([H])c(Oc5c([H])c([H])c(F)c([H])c5F)c([H])c4[H])c(C(=O)N([H])[H])c3N([H])[H])C2([H])[H])C([H])([H])[H])nc(C([H])([H])Oc2c([H])c([H])c3c(c2[H])C([H])([H])N(C(=O)C([H])(N([H])C(=O)C([H])(N([H])C([H])([H])[H])C([H])([H])[H])C(C([H])([H])[H])(C([H])([H])[H])C([H])([H])[H])C([H])(C(=O)N([H])C2([H])c4c([H])c([H])c([H])c([H])c4C([H])([H])C([H])([H])C2([H])[H])C3([H])[H])c2c1C([H])([H])C([H])([H])C([H])(C([H])(C([H])([H])[H])C([H])([H])[H])C2([H])C([H])([H])[H]

>  <smiles>  (67) 
[H]Oc1c(N([H])C([H])([H])C([H])(N([H])C(=O)N2C([H])([H])C([H])([H])C([H])([H])C([H])(n3nc(-c4c([H])c([H])c(Oc5c([H])c([H])c(F)c([H])c5F)c([H])c4[H])c(C(=O)N([H])[H])c3N([H])[H])C2([H])[H])C([H])([H])[H])nc(C([H])([H])Oc2c([H])c([H])c3c(c2[H])C([H])([H])N(C(=O)C([H])(N([H])C(=O)C([H])(N([H])C([H])([H])[H])C([H])([H])[H])C(C([H])([H])[H])(C([H])([H])[H])C([H])([H])[H])C([H])(C(=O)N([H])C2([H])c4c([H])c([H])c([H])c([H])c4C([H])([H])C([H])([H])C2([H])[H])C3([H])[H])c2c1C([H])([H])C([H])([H])C([H])(C([H])(C([H])([H])[H])C([H])([H])[H])C2([H])C([H])([H])[H]

$$$$
67:0:0
     RDKit          3D

 94104  0  0  1  0  0  0  0  0999 V2000
  -28.9910  -21.5040   19.2450 C   0  0  0  0  0  3  0  0  0  0  0  0
  -29.8660  -19.3720   20.2880 C   0  0  0  0  0  0  0  0  0  0  0  0
  -29.2200  -20.0810   19.2080 C   0  0  0  0  0  0  0  0  0  0  0  0
  -30.2090  -20.2660   21.3550 C   0  0  0  0  0  0  0  0  0  0  0  0
  -29.3940  -22.3130   20.3320 C   0  0  0  0  0  0  0  0  0  0  0  0
  -29.9760  -21.6340   21.3710 N   0  0  0  0  0  0  0  0  0  0  0  0
  -32.0770  -20.5380   23.1790 C   0  0  0  0  0  2  0  0  0  0  0  0
  -32.3330  -19.2190   22.5020 C   0  0  0  0  0  2  0  0  0  0  0  0
  -30.9200  -19.7650   22.5800 C   0  0  0  0  0  3  0  0  0  0  0  0
  -29.2030  -16.7940   19.9590 C   0  0  0  0  0  2  0  0  0  0  0  0
  -30.3000  -17.8060   20.1850 C   0  0  0  0  0  3  0  0  0  0  0  0
  -30.1500  -16.4370   21.0740 C   0  0  0  0  0  3  0  0  0  0  0  0
  -30.9710  -15.0860   20.8350 C   0  0  0  0  0  0  0  0  0  0  0  0
  -30.8890  -12.7500   19.9140 C   0  0  0  0  0  2  0  0  0  0  0  0
  -30.0660  -12.7560   18.6050 C   0  0  0  0  0  2  0  0  0  0  0  0
  -28.5670  -12.5710   18.9050 C   0  0  0  0  0  2  0  0  0  0  0  0
  -28.0730  -13.5000   20.0450 C   0  0  0  0  0  3  0  0  0  0  0  0
  -29.0270  -13.4920   21.2590 C   0  0  0  0  0  2  0  0  0  0  0  0
  -30.3710  -13.8390   20.7810 N   0  0  0  0  0  0  0  0  0  0  0  0
  -32.1780  -15.1520   20.5780 O   0  0  0  0  0  0  0  0  0  0  0  0
  -25.6460  -14.1010   20.6070 C   0  0  0  0  0  0  0  0  0  0  0  0
  -24.5470  -13.3330   20.8760 C   0  0  0  0  0  0  0  0  0  0  0  0
  -24.9980  -11.9770   20.8510 C   0  0  0  0  0  0  0  0  0  0  0  0
  -26.6950  -13.2140   20.4300 N   0  0  0  0  0  0  0  0  0  0  0  0
  -26.3080  -11.9300   20.6420 N   0  0  0  0  0  0  0  0  0  0  0  0
  -24.2460  -10.7200   20.9570 C   0  0  0  0  0  0  0  0  0  0  0  0
  -24.5960   -9.7250   21.8960 C   0  0  0  0  0  3  0  0  0  0  0  0
  -23.8440   -8.5340   21.9900 C   0  0  0  0  0  3  0  0  0  0  0  0
  -22.7290   -8.3290   21.1440 C   0  0  0  0  0  0  0  0  0  0  0  0
  -22.3990   -9.3130   20.1950 C   0  0  0  0  0  3  0  0  0  0  0  0
  -23.1500  -10.4950   20.0990 C   0  0  0  0  0  3  0  0  0  0  0  0
  -21.9570   -7.1920   21.1470 O   0  0  0  0  0  0  0  0  0  0  0  0
  -21.8020   -6.4300   22.2770 C   0  0  0  0  0  0  0  0  0  0  0  0
  -21.2120   -6.9500   23.4500 C   0  0  0  0  0  3  0  0  0  0  0  0
  -21.0090   -6.1120   24.5660 C   0  0  0  0  0  3  0  0  0  0  0  0
  -21.3870   -4.7570   24.5080 C   0  0  0  0  0  0  0  0  0  0  0  0
  -21.9690   -4.2370   23.3390 C   0  0  0  0  0  3  0  0  0  0  0  0
  -22.1740   -5.0720   22.2250 C   0  0  0  0  0  0  0  0  0  0  0  0
  -22.7160   -4.5620   21.0940 F   0  0  0  0  0  0  0  0  0  0  0  0
  -21.1840   -3.9510   25.5760 F   0  0  0  0  0  0  0  0  0  0  0  0
  -23.1380  -13.8210   21.0480 C   0  0  0  0  0  0  0  0  0  0  0  0
  -22.3440  -13.1290   21.8560 N   0  0  0  0  0  0  0  0  0  0  0  0
  -22.7480  -14.8520   20.5010 O   0  0  0  0  0  0  0  0  0  0  0  0
  -22.6700  -12.2950   22.3220 H   0  0  0  0  0  0  0  0  0  0  0  0
  -21.3950  -13.4390   22.0150 H   0  0  0  0  0  0  0  0  0  0  0  0
  -25.8380  -15.4720   20.4760 N   0  0  0  0  0  0  0  0  0  0  0  0
  -25.0740  -16.1360   20.5510 H   0  0  0  0  0  0  0  0  0  0  0  0
  -26.7200  -15.9060   20.2410 H   0  0  0  0  0  0  0  0  0  0  0  0
  -28.7970  -19.3590   17.9280 C   0  0  0  0  0  2  0  0  0  0  0  0
  -29.2990  -20.4130   15.6270 C   0  0  0  0  0  1  0  0  0  0  0  0
  -29.7970  -19.5060   16.7620 C   0  0  0  0  0  2  0  0  0  0  0  0
  -29.4470  -23.9350   20.3340 C   0  0  0  0  0  3  0  0  0  0  0  0
  -28.2520  -24.9750   19.9210 C   0  0  0  0  0  3  0  0  0  0  0  0
  -28.4340  -26.4880   20.0010 O   0  0  0  0  0  0  0  0  0  0  0  0
  -24.5910  -31.8410   23.1280 C   0  0  0  0  0  0  0  0  0  0  0  0
  -27.3140  -27.3680   19.9590 C   0  0  0  0  0  0  0  0  0  0  0  0
  -23.4240  -30.4500   21.4560 C   0  0  0  0  0  3  0  0  0  0  0  0
  -24.9150  -28.9720   19.9830 C   0  0  0  0  0  0  0  0  0  0  0  0
  -25.9590  -30.8280   21.2770 C   0  0  0  0  0  2  0  0  0  0  0  0
  -26.0770  -29.4630   20.5910 C   0  0  0  0  0  0  0  0  0  0  0  0
  -27.2780  -28.6760   20.5620 C   0  0  0  0  0  3  0  0  0  0  0  0
  -26.1250  -26.9530   19.3200 C   0  0  0  0  0  3  0  0  0  0  0  0
  -24.9470  -27.7290   19.3330 C   0  0  0  0  0  3  0  0  0  0  0  0
  -23.6550  -29.8150   20.0580 C   0  0  0  0  0  2  0  0  0  0  0  0
  -24.6780  -31.0580   22.0110 N   0  0  0  0  0  0  0  0  0  0  0  0
  -23.4990  -32.0740   23.6700 O   0  0  0  0  0  0  0  0  0  0  0  0
  -22.7900  -29.3930   22.3940 C   0  0  0  0  0  0  0  0  0  0  0  0
  -21.4690  -29.1830   22.2700 N   0  0  0  0  0  0  0  0  0  0  0  0
  -23.4890  -28.7660   23.1940 O   0  0  0  0  0  0  0  0  0  0  0  0
  -20.9610  -29.7420   21.5990 H   0  0  0  0  0  0  0  0  0  0  0  0
  -18.1290  -27.8750   22.7550 C   0  0  0  0  0  0  0  0  0  0  0  0
  -20.6790  -28.2030   23.0200 C   0  0  0  0  0  3  0  0  0  0  0  0
  -20.8200  -26.7900   22.4070 C   0  0  0  0  0  2  0  0  0  0  0  0
  -19.7230  -26.4620   21.3890 C   0  0  0  0  0  2  0  0  0  0  0  0
  -18.3410  -26.5500   22.0430 C   0  0  0  0  0  2  0  0  0  0  0  0
  -19.2260  -28.6580   23.2000 C   0  0  0  0  0  0  0  0  0  0  0  0
  -18.9740  -29.8970   23.8270 C   0  0  0  0  0  3  0  0  0  0  0  0
  -17.6550  -30.3540   24.0130 C   0  0  0  0  0  3  0  0  0  0  0  0
  -16.5710  -29.5680   23.5850 C   0  0  0  0  0  3  0  0  0  0  0  0
  -16.8090  -28.3310   22.9610 C   0  0  0  0  0  3  0  0  0  0  0  0
  -25.8530  -32.4980   23.7640 C   0  0  0  0  0  3  0  0  0  0  0  0
  -25.5100  -33.8860   24.1060 N   0  0  0  0  0  0  0  0  0  0  0  0
  -25.8570  -34.9580   23.3820 C   0  0  0  0  0  0  0  0  0  0  0  0
  -26.5670  -34.8840   22.3760 O   0  0  0  0  0  0  0  0  0  0  0  0
  -24.8820  -34.0170   24.8850 H   0  0  0  0  0  0  0  0  0  0  0  0
  -24.1580  -36.7660   22.9570 C   0  0  0  0  0  1  0  0  0  0  0  0
  -25.3350  -36.3320   23.8460 C   0  0  0  0  0  3  0  0  0  0  0  0
  -27.3870  -37.2000   24.8790 C   0  0  0  0  0  1  0  0  0  0  0  0
  -26.3700  -37.3880   23.8470 N   0  0  0  0  0  0  0  0  0  0  0  0
  -25.9520  -38.3040   23.9770 H   0  0  0  0  0  0  0  0  0  0  0  0
  -26.3760  -31.7290   25.0400 C   0  0  1  0  0  0  0  0  0  0  0  0
  -25.2800  -31.4580   26.0970 C   0  0  0  0  0  1  0  0  0  0  0  0
  -26.9940  -30.3680   24.6440 C   0  0  0  0  0  1  0  0  0  0  0  0
  -27.5010  -32.5450   25.7190 C   0  0  0  0  0  1  0  0  0  0  0  0
  1  5  1  0
  2  4  2  0
  3  1  2  0
  3  2  1  0
  4  6  1  0
  4  9  1  0
  5 52  1  0
  5  6  2  0
  8  9  1  0
  8  7  1  0
  9  7  1  0
 10 11  1  0
 10 12  1  0
 11  2  1  0
 11 12  1  0
 12 13  1  0
 14 19  1  0
 15 16  1  0
 15 14  1  0
 17 16  1  0
 17 24  1  0
 17 18  1  0
 19 13  1  0
 19 18  1  0
 20 13  2  0
 21 22  2  0
 22 41  1  0
 23 22  1  0
 23 26  1  0
 24 21  1  0
 24 25  1  0
 25 23  2  0
 26 27  1  0
 27 28  2  0
 29 32  1  0
 29 28  1  0
 30 29  2  0
 31 30  1  0
 31 26  2  0
 32 33  1  0
 33 34  1  0
 34 35  2  0
 36 35  1  0
 36 40  1  0
 37 36  2  0
 38 33  2  0
 38 37  1  0
 39 38  1  0
 41 42  1  0
 42 45  1  0
 42 44  1  0
 43 41  2  0
 46 47  1  0
 46 21  1  0
 48 46  1  0
 49  3  1  0
 50 51  1  0
 51 49  1  0
 53 54  1  0
 53 52  2  0
 55 66  2  0
 56 54  1  0
 56 61  1  0
 57 65  1  0
 57 67  1  0
 58 64  1  0
 58 60  1  0
 59 65  1  0
 60 59  1  0
 61 60  2  0
 62 63  1  0
 62 56  2  0
 63 58  2  0
 64 57  1  0
 65 55  1  0
 67 69  2  0
 68 67  1  0
 70 68  1  0
 71 80  2  0
 71 76  1  0
 72 68  1  0
 72 76  1  0
 73 72  1  0
 74 75  1  0
 74 73  1  0
 75 71  1  0
 76 77  2  0
 77 78  1  0
 79 78  2  0
 80 79  1  0
 81 55  1  0
 81 82  1  0
 81 91  1  0
 82 85  1  0
 83 87  1  0
 83 82  1  0
 84 83  2  0
 87 86  1  0
 87 89  1  0
 89 90  1  0
 89 88  1  0
 91 94  1  1
 91 92  1  0
 93 91  1  0
M  ISO  4  12 100  13 100  53 101  54 101
M  END
>  <TORSDO>  (68) 
F 22

>  <SCORE>  (68) 
-12.753

>  <name>  (68) 
67

>  <ligand_id>  (68) 
67

>  <original_smiles>  (68) 
[H]c1c([H])c([H])c2c(c1[H])C([H])([H])C([H])([H])C([H])([H])C2([H])N([H])C(=O)C1([H])N(C(=O)C([H])(N([H])C(=O)C([H])(N([H])C([H])([H])[H])C([H])([H])[H])C(C([H])([H])[H])(C([H])([H])[H])C([H])([H])[H])C([H])([H])c2c([H])c(OC([H])([H])C([H])([H])c3nc(C4([H])C([H])([H])C4([H])[H])c(C4([H])C([H])([H])C4([H])C(=O)N4C([H])([H])C([H])([H])C([H])([H])C([H])(n5nc(-c6c([H])c([H])c(Oc7c([H])c([H])c(F)c([H])c7F)c([H])c6[H])c(C(=O)N([H])[H])c5N([H])[H])C4([H])[H])c(C([H])([H])C([H])([H])C([H])([H])[H])c3[H])c([H])c([H])c2C1([H])[H]

>  <smiles>  (68) 
[H]c1c([H])c([H])c2c(c1[H])C([H])([H])C([H])([H])C([H])([H])C2([H])N([H])C(=O)C1([H])N(C(=O)C([H])(N([H])C(=O)C([H])(N([H])C([H])([H])[H])C([H])([H])[H])C(C([H])([H])[H])(C([H])([H])[H])C([H])([H])[H])C([H])([H])c2c([H])c(OC([H])([H])C([H])([H])c3nc(C4([H])C([H])([H])C4([H])[H])c(C4([H])C([H])([H])C4([H])C(=O)N4C([H])([H])C([H])([H])C([H])([H])C([H])(n5nc(-c6c([H])c([H])c(Oc7c([H])c([H])c(F)c([H])c7F)c([H])c6[H])c(C(=O)N([H])[H])c5N([H])[H])C4([H])[H])c(C([H])([H])C([H])([H])C([H])([H])[H])c3[H])c([H])c([H])c2C1([H])[H]

$$$$
68:0:0
     RDKit          3D

 92101  0  0  1  0  0  0  0  0999 V2000
  -30.6650  -14.8280   20.4890 C   0  0  0  0  0  0  0  0  0  0  0  0
  -30.4850  -12.5220   19.5500 C   0  0  0  0  0  2  0  0  0  0  0  0
  -29.5640  -12.4320   18.3090 C   0  0  0  0  0  2  0  0  0  0  0  0
  -28.0640  -12.4450   18.6790 C   0  0  0  0  0  2  0  0  0  0  0  0
  -27.6760  -13.3420   19.8890 C   0  0  0  0  0  3  0  0  0  0  0  0
  -28.7190  -13.2820   21.0210 C   0  0  0  0  0  2  0  0  0  0  0  0
  -30.0140  -13.6170   20.4220 N   0  0  0  0  0  0  0  0  0  0  0  0
  -31.8980  -14.8590   20.4410 O   0  0  0  0  0  0  0  0  0  0  0  0
  -30.7960  -17.9000   21.4980 C   0  0  0  0  0  3  0  0  0  0  0  0
  -30.7760  -19.3060   21.7670 C   0  0  0  0  0  3  0  0  0  0  0  0
  -28.8670  -19.5950   20.3480 C   0  0  0  0  0  3  0  0  0  0  0  0
  -28.8910  -18.2010   20.0620 C   0  0  0  0  0  0  0  0  0  0  0  0
  -29.8690  -17.3080   20.5980 C   0  0  0  0  0  0  0  0  0  0  0  0
  -29.8340  -20.2000   21.1800 C   0  0  0  0  0  0  0  0  0  0  0  0
  -27.8580  -17.6600   19.0990 C   0  0  0  0  0  2  0  0  0  0  0  0
  -28.4490  -16.6460   18.1150 C   0  0  0  0  0  2  0  0  0  0  0  0
  -29.8000  -16.0270   18.5540 C   0  0  0  0  0  3  0  0  0  0  0  0
  -30.9840  -16.7680   17.8860 C   0  0  0  0  0  1  0  0  0  0  0  0
  -29.9560  -15.9450   20.0330 N   0  0  0  0  0  0  0  0  0  0  0  0
  -25.2640  -13.9270   20.5540 C   0  0  0  0  0  0  0  0  0  0  0  0
  -24.1890  -13.1490   20.8880 C   0  0  0  0  0  0  0  0  0  0  0  0
  -24.6640  -11.8030   20.8830 C   0  0  0  0  0  0  0  0  0  0  0  0
  -26.3220  -13.0560   20.3570 N   0  0  0  0  0  0  0  0  0  0  0  0
  -25.9640  -11.7730   20.6250 N   0  0  0  0  0  0  0  0  0  0  0  0
  -23.9410  -10.5360   21.0510 C   0  0  0  0  0  0  0  0  0  0  0  0
  -24.3400   -9.5820   22.0120 C   0  0  0  0  0  3  0  0  0  0  0  0
  -23.6180   -8.3810   22.1690 C   0  0  0  0  0  3  0  0  0  0  0  0
  -22.4810   -8.1250   21.3670 C   0  0  0  0  0  0  0  0  0  0  0  0
  -22.1020   -9.0680   20.3940 C   0  0  0  0  0  3  0  0  0  0  0  0
  -22.8260  -10.2610   20.2350 C   0  0  0  0  0  3  0  0  0  0  0  0
  -21.7320   -6.9750   21.4330 O   0  0  0  0  0  0  0  0  0  0  0  0
  -21.6230   -6.2540   22.5950 C   0  0  0  0  0  0  0  0  0  0  0  0
  -21.1240   -6.8290   23.7840 C   0  0  0  0  0  3  0  0  0  0  0  0
  -20.9650   -6.0330   24.9360 C   0  0  0  0  0  3  0  0  0  0  0  0
  -21.2940   -4.6650   24.9000 C   0  0  0  0  0  0  0  0  0  0  0  0
  -21.7840   -4.0900   23.7130 C   0  0  0  0  0  3  0  0  0  0  0  0
  -21.9460   -4.8820   22.5640 C   0  0  0  0  0  0  0  0  0  0  0  0
  -22.4000   -4.3190   21.4190 F   0  0  0  0  0  0  0  0  0  0  0  0
  -21.1320   -3.8980   26.0040 F   0  0  0  0  0  0  0  0  0  0  0  0
  -22.7800  -13.6180   21.1040 C   0  0  0  0  0  0  0  0  0  0  0  0
  -22.0290  -12.9230   21.9510 N   0  0  0  0  0  0  0  0  0  0  0  0
  -22.3520  -14.6350   20.5590 O   0  0  0  0  0  0  0  0  0  0  0  0
  -22.3870  -12.1020   22.4150 H   0  0  0  0  0  0  0  0  0  0  0  0
  -21.0810  -13.2190   22.1400 H   0  0  0  0  0  0  0  0  0  0  0  0
  -25.4200  -15.2970   20.3840 N   0  0  0  0  0  0  0  0  0  0  0  0
  -24.6520  -15.9500   20.4900 H   0  0  0  0  0  0  0  0  0  0  0  0
  -26.2980  -15.7400   20.1550 H   0  0  0  0  0  0  0  0  0  0  0  0
  -29.9140  -21.5860   21.4330 O   0  0  0  0  0  0  0  0  0  0  0  0
  -29.0150  -22.5490   20.7880 C   0  0  0  0  0  3  0  0  0  0  0  0
  -29.2820  -24.0900   21.1010 C   0  0  0  0  0  3  0  0  0  0  0  0
  -28.2780  -25.1430   20.4660 C   0  0  0  0  0  2  0  0  0  0  0  0
  -28.4660  -26.5890   20.7120 O   0  0  0  0  0  0  0  0  0  0  0  0
  -24.6530  -32.0230   23.4750 C   0  0  0  0  0  0  0  0  0  0  0  0
  -27.3540  -27.4340   20.5750 C   0  0  0  0  0  0  0  0  0  0  0  0
  -23.5050  -30.6260   21.7940 C   0  0  0  0  0  3  0  0  0  0  0  0
  -25.0010  -29.0560   20.4410 C   0  0  0  0  0  0  0  0  0  0  0  0
  -26.0500  -30.9250   21.7150 C   0  0  0  0  0  2  0  0  0  0  0  0
  -26.1450  -29.5420   21.0860 C   0  0  0  0  0  0  0  0  0  0  0  0
  -27.3220  -28.7420   21.1460 C   0  0  0  0  0  3  0  0  0  0  0  0
  -26.1920  -27.0030   19.8920 C   0  0  0  0  0  3  0  0  0  0  0  0
  -25.0260  -27.7900   19.8350 C   0  0  0  0  0  3  0  0  0  0  0  0
  -23.7700  -29.9380   20.4290 C   0  0  0  0  0  2  0  0  0  0  0  0
  -24.7520  -31.2090   22.3860 N   0  0  0  0  0  0  0  0  0  0  0  0
  -23.5510  -32.3150   23.9620 O   0  0  0  0  0  0  0  0  0  0  0  0
  -22.7920  -29.6240   22.7320 C   0  0  0  0  0  0  0  0  0  0  0  0
  -21.4730  -29.4560   22.5460 N   0  0  0  0  0  0  0  0  0  0  0  0
  -23.4290  -28.9990   23.5840 O   0  0  0  0  0  0  0  0  0  0  0  0
  -21.0200  -30.0100   21.8320 H   0  0  0  0  0  0  0  0  0  0  0  0
  -18.0640  -28.3050   22.9110 C   0  0  0  0  0  0  0  0  0  0  0  0
  -20.6120  -28.5310   23.2860 C   0  0  0  0  0  3  0  0  0  0  0  0
  -20.7190  -27.0970   22.7180 C   0  0  0  0  0  2  0  0  0  0  0  0
  -19.6560  -26.7840   21.6610 C   0  0  0  0  0  2  0  0  0  0  0  0
  -18.2510  -26.9510   22.2460 C   0  0  0  0  0  2  0  0  0  0  0  0
  -19.1750  -29.0530   23.3830 C   0  0  0  0  0  0  0  0  0  0  0  0
  -18.9510  -30.3210   23.9620 C   0  0  0  0  0  3  0  0  0  0  0  0
  -17.6480  -30.8410   24.0730 C   0  0  0  0  0  3  0  0  0  0  0  0
  -16.5500  -30.0900   23.6160 C   0  0  0  0  0  3  0  0  0  0  0  0
  -16.7590  -28.8240   23.0410 C   0  0  0  0  0  3  0  0  0  0  0  0
  -25.9160  -32.6460   24.1470 C   0  0  0  0  0  3  0  0  0  0  0  0
  -26.3570  -31.8890   25.4600 C   0  0  1  0  0  0  0  0  0  0  0  0
  -25.2070  -31.6750   26.4710 C   0  0  0  0  0  1  0  0  0  0  0  0
  -26.9510  -30.5030   25.1190 C   0  0  0  0  0  1  0  0  0  0  0  0
  -27.4770  -32.6850   26.1720 C   0  0  0  0  0  1  0  0  0  0  0  0
  -25.6140  -34.0550   24.4380 N   0  0  0  0  0  0  0  0  0  0  0  0
  -25.9750  -35.0870   23.6650 C   0  0  0  0  0  0  0  0  0  0  0  0
  -26.6670  -34.9530   22.6510 O   0  0  0  0  0  0  0  0  0  0  0  0
  -25.0030  -34.2320   25.2220 H   0  0  0  0  0  0  0  0  0  0  0  0
  -24.2600  -36.8790   23.2480 C   0  0  0  0  0  1  0  0  0  0  0  0
  -25.4930  -36.4900   24.0790 C   0  0  0  0  0  3  0  0  0  0  0  0
  -27.6260  -37.3880   24.9010 C   0  0  0  0  0  1  0  0  0  0  0  0
  -26.5320  -37.5340   23.9440 N   0  0  0  0  0  0  0  0  0  0  0  0
  -26.1300  -38.4600   24.0600 H   0  0  0  0  0  0  0  0  0  0  0  0
  2  7  1  0
  3  4  1  0
  3  2  1  0
  5  4  1  0
  5 23  1  0
  5  6  1  0
  7  1  1  0
  7  6  1  0
  8  1  2  0
  9 10  1  0
 11 14  1  0
 12 11  2  0
 12 13  1  0
 13  9  2  0
 14 48  1  0
 14 10  2  0
 15 12  1  0
 16 17  1  0
 16 15  1  0
 17 18  1  0
 17 19  1  0
 19  1  1  0
 19 13  1  0
 20 21  2  0
 21 40  1  0
 22 21  1  0
 22 25  1  0
 23 20  1  0
 23 24  1  0
 24 22  2  0
 25 26  1  0
 26 27  2  0
 28 31  1  0
 28 27  1  0
 29 28  2  0
 30 29  1  0
 30 25  2  0
 31 32  1  0
 32 33  1  0
 33 34  2  0
 35 34  1  0
 35 39  1  0
 36 35  2  0
 37 32  2  0
 37 36  1  0
 38 37  1  0
 40 41  1  0
 41 44  1  0
 41 43  1  0
 42 40  2  0
 45 46  1  0
 45 20  1  0
 47 45  1  0
 49 50  2  0
 49 48  1  0
 51 52  1  0
 51 50  1  0
 53 64  2  0
 54 52  1  0
 54 59  1  0
 55 63  1  0
 55 65  1  0
 56 58  1  0
 57 63  1  0
 58 59  2  0
 58 57  1  0
 60 54  2  0
 61 60  1  0
 61 56  2  0
 62 56  1  0
 62 55  1  0
 63 53  1  0
 65 67  2  0
 66 65  1  0
 68 66  1  0
 69 78  2  0
 69 74  1  0
 70 66  1  0
 70 74  1  0
 71 70  1  0
 72 73  1  0
 72 71  1  0
 73 69  1  0
 74 75  2  0
 75 76  1  0
 77 76  2  0
 78 77  1  0
 79 53  1  0
 79 84  1  0
 79 80  1  0
 80 83  1  1
 80 81  1  0
 82 80  1  0
 84 87  1  0
 85 89  1  0
 85 84  1  0
 86 85  2  0
 89 88  1  0
 91 92  1  0
 91 89  1  0
 91 90  1  0
M  ISO  4   1 100  19 100  51 101  52 101
M  END
>  <TORSDO>  (69) 
F 19

>  <SCORE>  (69) 
-13.161

>  <name>  (69) 
68

>  <ligand_id>  (69) 
68

>  <original_smiles>  (69) 
[H]c1c([H])c([H])c2c(c1[H])C([H])([H])C([H])([H])C([H])([H])C2([H])N([H])C(=O)C1([H])N(C(=O)C([H])(N([H])C(=O)C([H])(N([H])C([H])([H])[H])C([H])([H])[H])C(C([H])([H])[H])(C([H])([H])[H])C([H])([H])[H])C([H])([H])c2c([H])c(OC([H])([H])C([H])([H])C([H])([H])Oc3c([H])c([H])c4c(c3[H])C([H])([H])C([H])([H])C([H])(C([H])([H])[H])N4C(=O)N3C([H])([H])C([H])([H])C([H])([H])C([H])(n4nc(-c5c([H])c([H])c(Oc6c([H])c([H])c(F)c([H])c6F)c([H])c5[H])c(C(=O)N([H])[H])c4N([H])[H])C3([H])[H])c([H])c([H])c2C1([H])[H]

>  <smiles>  (69) 
[H]c1c([H])c([H])c2c(c1[H])C([H])([H])C([H])([H])C([H])([H])C2([H])N([H])C(=O)C1([H])N(C(=O)C([H])(N([H])C(=O)C([H])(N([H])C([H])([H])[H])C([H])([H])[H])C(C([H])([H])[H])(C([H])([H])[H])C([H])([H])[H])C([H])([H])c2c([H])c(OC([H])([H])C([H])([H])C([H])([H])Oc3c([H])c([H])c4c(c3[H])C([H])([H])C([H])([H])C([H])(C([H])([H])[H])N4C(=O)N3C([H])([H])C([H])([H])C([H])([H])C([H])(n4nc(-c5c([H])c([H])c(Oc6c([H])c([H])c(F)c([H])c6F)c([H])c5[H])c(C(=O)N([H])[H])c4N([H])[H])C3([H])[H])c([H])c([H])c2C1([H])[H]

$$$$
69:0:0
     RDKit          3D

 95104  0  0  1  0  0  0  0  0999 V2000
  -27.8260  -23.4470   20.1550 C   0  0  0  0  0  3  0  0  0  0  0  0
  -30.1210  -23.5430   20.8920 C   0  0  0  0  0  3  0  0  0  0  0  0
  -29.1430  -21.3520   20.3080 C   0  0  0  0  0  0  0  0  0  0  0  0
  -28.9060  -24.2130   20.6320 C   0  0  0  0  0  0  0  0  0  0  0  0
  -27.9330  -22.0420   19.9860 C   0  0  0  0  0  0  0  0  0  0  0  0
  -30.2560  -22.1330   20.7360 C   0  0  0  0  0  0  0  0  0  0  0  0
  -26.7010  -21.3080   19.4770 C   0  0  0  0  0  1  0  0  0  0  0  0
  -29.7230  -19.1190   21.5450 C   0  0  0  0  0  2  0  0  0  0  0  0
  -30.0240  -19.2110   19.0550 C   0  0  0  0  0  2  0  0  0  0  0  0
  -29.6190  -17.5740   21.4880 C   0  0  0  0  0  2  0  0  0  0  0  0
  -29.9080  -17.6610   18.9760 C   0  0  0  0  0  2  0  0  0  0  0  0
  -29.2230  -19.7910   20.2440 C   0  0  0  0  0  3  0  0  0  0  0  0
  -30.3470  -16.9360   20.2770 C   0  0  0  0  0  3  0  0  0  0  0  0
  -30.7480  -14.4750   19.6850 C   0  0  0  0  0  0  0  0  0  0  0  0
  -30.3670  -12.2890   18.5930 C   0  0  0  0  0  2  0  0  0  0  0  0
  -29.3010  -12.4720   17.4920 C   0  0  0  0  0  2  0  0  0  0  0  0
  -27.8780  -12.3380   18.0730 C   0  0  0  0  0  2  0  0  0  0  0  0
  -27.6730  -13.1870   19.3560 C   0  0  0  0  0  3  0  0  0  0  0  0
  -28.8360  -12.9710   20.3490 C   0  0  0  0  0  2  0  0  0  0  0  0
  -30.0920  -13.2810   19.6450 N   0  0  0  0  0  0  0  0  0  0  0  0
  -31.8270  -14.6660   19.1190 O   0  0  0  0  0  0  0  0  0  0  0  0
  -30.0510  -15.4870   20.2460 N   0  0  0  0  0  0  0  0  0  0  0  0
  -29.1780  -15.2070   20.6680 H   0  0  0  0  0  0  0  0  0  0  0  0
  -25.3810  -13.8190   20.3420 C   0  0  0  0  0  0  0  0  0  0  0  0
  -24.3420  -13.0560   20.8050 C   0  0  0  0  0  0  0  0  0  0  0  0
  -24.7660  -11.6970   20.6850 C   0  0  0  0  0  0  0  0  0  0  0  0
  -26.3740  -12.9240   19.9720 N   0  0  0  0  0  0  0  0  0  0  0  0
  -26.0130  -11.6420   20.2330 N   0  0  0  0  0  0  0  0  0  0  0  0
  -24.0360  -10.4430   20.9170 C   0  0  0  0  0  0  0  0  0  0  0  0
  -24.5020   -9.4790   21.8370 C   0  0  0  0  0  3  0  0  0  0  0  0
  -23.7740   -8.2900   22.0570 C   0  0  0  0  0  3  0  0  0  0  0  0
  -22.5660   -8.0580   21.3570 C   0  0  0  0  0  0  0  0  0  0  0  0
  -22.1190   -9.0120   20.4260 C   0  0  0  0  0  3  0  0  0  0  0  0
  -22.8480  -10.1920   20.2040 C   0  0  0  0  0  3  0  0  0  0  0  0
  -21.8060   -6.9220   21.4880 O   0  0  0  0  0  0  0  0  0  0  0  0
  -21.7420   -6.2290   22.6710 C   0  0  0  0  0  0  0  0  0  0  0  0
  -21.3010   -6.8380   23.8660 C   0  0  0  0  0  3  0  0  0  0  0  0
  -21.1850   -6.0720   25.0450 C   0  0  0  0  0  3  0  0  0  0  0  0
  -21.4990   -4.7000   25.0270 C   0  0  0  0  0  0  0  0  0  0  0  0
  -21.9330   -4.0910   23.8360 C   0  0  0  0  0  3  0  0  0  0  0  0
  -22.0510   -4.8540   22.6600 C   0  0  0  0  0  0  0  0  0  0  0  0
  -22.4490   -4.2590   21.5100 F   0  0  0  0  0  0  0  0  0  0  0  0
  -21.3800   -3.9630   26.1550 F   0  0  0  0  0  0  0  0  0  0  0  0
  -22.9950  -13.5520   21.2450 C   0  0  0  0  0  0  0  0  0  0  0  0
  -22.3590  -12.8530   22.1780 N   0  0  0  0  0  0  0  0  0  0  0  0
  -22.5190  -14.5940   20.7960 O   0  0  0  0  0  0  0  0  0  0  0  0
  -22.7580  -12.0080   22.5620 H   0  0  0  0  0  0  0  0  0  0  0  0
  -21.4600  -13.1670   22.5140 H   0  0  0  0  0  0  0  0  0  0  0  0
  -25.5570  -15.1900   20.1870 N   0  0  0  0  0  0  0  0  0  0  0  0
  -24.8180  -15.8530   20.3950 H   0  0  0  0  0  0  0  0  0  0  0  0
  -26.3720  -15.6250   19.7710 H   0  0  0  0  0  0  0  0  0  0  0  0
  -32.5320  -22.2010   21.5330 C   0  0  0  0  0  1  0  0  0  0  0  0
  -31.4350  -21.4680   21.0020 O   0  0  0  0  0  0  0  0  0  0  0  0
  -28.7320  -25.7030   20.9980 C   0  0  0  0  0  2  0  0  0  0  0  0
  -28.5860  -26.6280   19.9030 O   0  0  0  0  0  0  0  0  0  0  0  0
  -24.5790  -31.6460   23.0850 C   0  0  0  0  0  0  0  0  0  0  0  0
  -27.4200  -27.3680   19.9320 C   0  0  0  0  0  0  0  0  0  0  0  0
  -23.4440  -30.2310   21.4040 C   0  0  0  0  0  3  0  0  0  0  0  0
  -24.9710  -28.7850   19.9560 C   0  0  0  0  0  0  0  0  0  0  0  0
  -25.9550  -30.6940   21.2340 C   0  0  0  0  0  2  0  0  0  0  0  0
  -26.1030  -29.3390   20.5670 C   0  0  0  0  0  0  0  0  0  0  0  0
  -27.3340  -28.6380   20.5550 C   0  0  0  0  0  3  0  0  0  0  0  0
  -26.2750  -26.8340   19.3110 C   0  0  0  0  0  3  0  0  0  0  0  0
  -25.0510  -27.5310   19.3250 C   0  0  0  0  0  3  0  0  0  0  0  0
  -23.6920  -29.5910   20.0120 C   0  0  0  0  0  2  0  0  0  0  0  0
  -24.6760  -30.8720   21.9660 N   0  0  0  0  0  0  0  0  0  0  0  0
  -23.4840  -31.8610   23.6230 O   0  0  0  0  0  0  0  0  0  0  0  0
  -22.8270  -29.1640   22.3380 C   0  0  0  0  0  0  0  0  0  0  0  0
  -21.5100  -28.9400   22.2070 N   0  0  0  0  0  0  0  0  0  0  0  0
  -23.5330  -28.5420   23.1360 O   0  0  0  0  0  0  0  0  0  0  0  0
  -21.0000  -29.4980   21.5350 H   0  0  0  0  0  0  0  0  0  0  0  0
  -18.1790  -27.6150   22.6710 C   0  0  0  0  0  0  0  0  0  0  0  0
  -20.7260  -27.9550   22.9520 C   0  0  0  0  0  3  0  0  0  0  0  0
  -20.8790  -26.5430   22.3390 C   0  0  0  0  0  2  0  0  0  0  0  0
  -19.7900  -26.2100   21.3150 C   0  0  0  0  0  2  0  0  0  0  0  0
  -18.4030  -26.2900   21.9610 C   0  0  0  0  0  2  0  0  0  0  0  0
  -19.2710  -28.4030   23.1220 C   0  0  0  0  0  0  0  0  0  0  0  0
  -19.0080  -29.6430   23.7450 C   0  0  0  0  0  3  0  0  0  0  0  0
  -17.6870  -30.0950   23.9210 C   0  0  0  0  0  3  0  0  0  0  0  0
  -16.6100  -29.3030   23.4870 C   0  0  0  0  0  3  0  0  0  0  0  0
  -16.8570  -28.0640   22.8680 C   0  0  0  0  0  3  0  0  0  0  0  0
  -25.8340  -32.3160   23.7280 C   0  0  0  0  0  3  0  0  0  0  0  0
  -26.3790  -31.5370   24.9870 C   0  0  1  0  0  0  0  0  0  0  0  0
  -25.2940  -31.2290   26.0450 C   0  0  0  0  0  1  0  0  0  0  0  0
  -27.0190  -30.1940   24.5630 C   0  0  0  0  0  1  0  0  0  0  0  0
  -27.4940  -32.3610   25.6720 C   0  0  0  0  0  1  0  0  0  0  0  0
  -25.4660  -33.6920   24.0880 N   0  0  0  0  0  0  0  0  0  0  0  0
  -25.7430  -34.7730   23.3450 C   0  0  0  0  0  0  0  0  0  0  0  0
  -26.4080  -34.7180   22.3060 O   0  0  0  0  0  0  0  0  0  0  0  0
  -24.8740  -33.8050   24.8980 H   0  0  0  0  0  0  0  0  0  0  0  0
  -23.9280  -36.4850   23.0410 C   0  0  0  0  0  1  0  0  0  0  0  0
  -25.1970  -36.1290   23.8310 C   0  0  0  0  0  3  0  0  0  0  0  0
  -27.2980  -37.1010   24.6510 C   0  0  0  0  0  1  0  0  0  0  0  0
  -26.1780  -37.2310   23.7210 N   0  0  0  0  0  0  0  0  0  0  0  0
  -25.7320  -38.1290   23.8860 H   0  0  0  0  0  0  0  0  0  0  0  0
  1  4  1  0
  3  6  2  0
  4  2  2  0
  4 54  1  0
  5  1  2  0
  5  3  1  0
  6  2  1  0
  6 53  1  0
  7  5  1  0
  9 12  1  0
 10  8  1  0
 11  9  1  0
 11 13  1  0
 12  3  1  0
 12  8  1  0
 13 22  1  0
 13 10  1  0
 14 22  1  0
 15 20  1  0
 16 17  1  0
 16 15  1  0
 18 17  1  0
 18 27  1  0
 18 19  1  0
 20 14  1  0
 20 19  1  0
 21 14  2  0
 22 23  1  0
 24 25  2  0
 25 44  1  0
 26 25  1  0
 26 29  1  0
 27 28  1  0
 27 24  1  0
 28 26  2  0
 29 30  1  0
 30 31  2  0
 32 35  1  0
 32 31  1  0
 33 32  2  0
 34 33  1  0
 34 29  2  0
 35 36  1  0
 36 37  1  0
 37 38  2  0
 39 38  1  0
 39 43  1  0
 40 39  2  0
 41 36  2  0
 41 40  1  0
 42 41  1  0
 44 45  1  0
 45 48  1  0
 45 47  1  0
 46 44  2  0
 49 24  1  0
 49 50  1  0
 51 49  1  0
 53 52  1  0
 55 57  1  0
 55 54  1  0
 56 67  2  0
 57 62  1  0
 58 66  1  0
 58 68  1  0
 59 65  1  0
 59 61  1  0
 60 66  1  0
 61 60  1  0
 62 61  2  0
 63 64  1  0
 63 57  2  0
 64 59  2  0
 65 58  1  0
 66 56  1  0
 68 70  2  0
 69 68  1  0
 71 69  1  0
 72 81  2  0
 72 77  1  0
 73 69  1  0
 73 77  1  0
 74 73  1  0
 75 76  1  0
 75 74  1  0
 76 72  1  0
 77 78  2  0
 78 79  1  0
 80 79  2  0
 81 80  1  0
 82 56  1  0
 82 87  1  0
 82 83  1  0
 83 86  1  1
 83 84  1  0
 85 83  1  0
 87 90  1  0
 88 92  1  0
 88 87  1  0
 89 88  2  0
 92 91  1  0
 94 92  1  0
 94 95  1  0
 94 93  1  0
M  ISO  4  14 100  22 100  54 101  55 101
M  END
>  <TORSDO>  (70) 
F 19

>  <SCORE>  (70) 
-12.324

>  <name>  (70) 
69

>  <ligand_id>  (70) 
69

>  <original_smiles>  (70) 
[H]c1c([H])c([H])c2c(c1[H])C([H])([H])C([H])([H])C([H])([H])C2([H])N([H])C(=O)C1([H])N(C(=O)C([H])(N([H])C(=O)C([H])(N([H])C([H])([H])[H])C([H])([H])[H])C(C([H])([H])[H])(C([H])([H])[H])C([H])([H])[H])C([H])([H])c2c([H])c(OC([H])([H])c3c([H])c(OC([H])([H])[H])c(C4([H])C([H])([H])C([H])([H])C([H])(N([H])C(=O)N5C([H])([H])C([H])([H])C([H])([H])C([H])(n6nc(-c7c([H])c([H])c(Oc8c([H])c([H])c(F)c([H])c8F)c([H])c7[H])c(C(=O)N([H])[H])c6N([H])[H])C5([H])[H])C([H])([H])C4([H])[H])c(C([H])([H])[H])c3[H])c([H])c([H])c2C1([H])[H]

>  <smiles>  (70) 
[H]c1c([H])c([H])c2c(c1[H])C([H])([H])C([H])([H])C([H])([H])C2([H])N([H])C(=O)C1([H])N(C(=O)C([H])(N([H])C(=O)C([H])(N([H])C([H])([H])[H])C([H])([H])[H])C(C([H])([H])[H])(C([H])([H])[H])C([H])([H])[H])C([H])([H])c2c([H])c(OC([H])([H])c3c([H])c(OC([H])([H])[H])c(C4([H])C([H])([H])C([H])([H])C([H])(N([H])C(=O)N5C([H])([H])C([H])([H])C([H])([H])C([H])(n6nc(-c7c([H])c([H])c(Oc8c([H])c([H])c(F)c([H])c8F)c([H])c7[H])c(C(=O)N([H])[H])c6N([H])[H])C5([H])[H])C([H])([H])C4([H])[H])c(C([H])([H])[H])c3[H])c([H])c([H])c2C1([H])[H]

$$$$
70:0:0
     RDKit          3D

 89 98  0  0  1  0  0  0  0  0999 V2000
  -30.4990  -19.0400   19.7920 C   0  0  0  0  0  3  0  0  0  0  0  0
  -28.3340  -18.8530   20.5030 C   0  0  0  0  0  3  0  0  0  0  0  0
  -30.3090  -20.5160   19.7890 C   0  0  0  0  0  0  0  0  0  0  0  0
  -29.5090  -18.0550   20.1790 C   0  0  0  0  0  0  0  0  0  0  0  0
  -29.0820  -21.2200   20.1590 C   0  0  0  0  0  0  0  0  0  0  0  0
  -31.5160  -21.3540   19.3960 C   0  0  0  0  0  1  0  0  0  0  0  0
  -28.1410  -20.2580   20.5040 N   0  0  0  0  0  0  0  0  0  0  0  0
  -30.3600  -15.2600   20.0210 C   0  0  0  0  0  0  0  0  0  0  0  0
  -30.2940  -12.8390   19.1180 C   0  0  0  0  0  2  0  0  0  0  0  0
  -29.3160  -12.7110   17.9270 C   0  0  0  0  0  2  0  0  0  0  0  0
  -27.8710  -12.4820   18.4140 C   0  0  0  0  0  2  0  0  0  0  0  0
  -27.4970  -13.3980   19.6090 C   0  0  0  0  0  3  0  0  0  0  0  0
  -28.6030  -13.4610   20.6810 C   0  0  0  0  0  2  0  0  0  0  0  0
  -29.8180  -13.9500   20.0120 N   0  0  0  0  0  0  0  0  0  0  0  0
  -31.5540  -15.3220   19.6900 O   0  0  0  0  0  0  0  0  0  0  0  0
  -29.5320  -16.4480   20.2310 N   0  0  0  0  0  0  0  0  0  0  0  0
  -28.6220  -16.1080   20.5100 H   0  0  0  0  0  0  0  0  0  0  0  0
  -25.1680  -13.9620   20.4880 C   0  0  0  0  0  0  0  0  0  0  0  0
  -24.1190  -13.1880   20.8960 C   0  0  0  0  0  0  0  0  0  0  0  0
  -24.5670  -11.8350   20.8060 C   0  0  0  0  0  0  0  0  0  0  0  0
  -26.1890  -13.0840   20.1720 N   0  0  0  0  0  0  0  0  0  0  0  0
  -25.8420  -11.7950   20.4290 N   0  0  0  0  0  0  0  0  0  0  0  0
  -23.8350  -10.5760   21.0000 C   0  0  0  0  0  0  0  0  0  0  0  0
  -24.2820   -9.5950   21.9120 C   0  0  0  0  0  3  0  0  0  0  0  0
  -23.5480   -8.4030   22.0950 C   0  0  0  0  0  3  0  0  0  0  0  0
  -22.3550   -8.1820   21.3670 C   0  0  0  0  0  0  0  0  0  0  0  0
  -21.9280   -9.1520   20.4430 C   0  0  0  0  0  3  0  0  0  0  0  0
  -22.6610  -10.3360   20.2560 C   0  0  0  0  0  3  0  0  0  0  0  0
  -21.5920   -7.0420   21.4600 O   0  0  0  0  0  0  0  0  0  0  0  0
  -21.5370   -6.3050   22.6170 C   0  0  0  0  0  0  0  0  0  0  0  0
  -21.0810   -6.8600   23.8320 C   0  0  0  0  0  3  0  0  0  0  0  0
  -20.9750   -6.0480   24.9790 C   0  0  0  0  0  3  0  0  0  0  0  0
  -21.3140   -4.6830   24.9110 C   0  0  0  0  0  0  0  0  0  0  0  0
  -21.7640   -4.1280   23.7000 C   0  0  0  0  0  3  0  0  0  0  0  0
  -21.8720   -4.9380   22.5560 C   0  0  0  0  0  0  0  0  0  0  0  0
  -22.2860   -4.3940   21.3860 F   0  0  0  0  0  0  0  0  0  0  0  0
  -21.2070   -3.9010   26.0110 F   0  0  0  0  0  0  0  0  0  0  0  0
  -22.7420  -13.6740   21.2450 C   0  0  0  0  0  0  0  0  0  0  0  0
  -22.0420  -12.9630   22.1220 N   0  0  0  0  0  0  0  0  0  0  0  0
  -22.2970  -14.7180   20.7720 O   0  0  0  0  0  0  0  0  0  0  0  0
  -22.4150  -12.1190   22.5310 H   0  0  0  0  0  0  0  0  0  0  0  0
  -21.1180  -13.2710   22.3900 H   0  0  0  0  0  0  0  0  0  0  0  0
  -25.3300  -15.3350   20.3310 N   0  0  0  0  0  0  0  0  0  0  0  0
  -24.5560  -15.9750   20.4670 H   0  0  0  0  0  0  0  0  0  0  0  0
  -26.1090  -15.7650   19.8490 H   0  0  0  0  0  0  0  0  0  0  0  0
  -29.5550  -24.0560   19.9520 C   0  0  0  0  0  2  0  0  0  0  0  0
  -28.8040  -22.9140   20.4970 C   0  0  0  0  0  3  0  0  0  0  0  0
  -28.0550  -24.4190   19.9180 C   0  0  0  0  0  3  0  0  0  0  0  0
  -28.2120  -26.0310   20.1030 O   0  0  0  0  0  0  0  0  0  0  0  0
  -24.5720  -31.8200   23.1770 C   0  0  0  0  0  0  0  0  0  0  0  0
  -27.1620  -27.0690   20.0590 C   0  0  0  0  0  0  0  0  0  0  0  0
  -23.3790  -30.4410   21.5220 C   0  0  0  0  0  3  0  0  0  0  0  0
  -24.8310  -28.8790   20.0630 C   0  0  0  0  0  0  0  0  0  0  0  0
  -25.9370  -30.6940   21.3590 C   0  0  0  0  0  2  0  0  0  0  0  0
  -26.0160  -29.3020   20.6770 C   0  0  0  0  0  0  0  0  0  0  0  0
  -27.1770  -28.4180   20.6480 C   0  0  0  0  0  3  0  0  0  0  0  0
  -25.9470  -26.7810   19.4010 C   0  0  0  0  0  3  0  0  0  0  0  0
  -24.8170  -27.6380   19.4040 C   0  0  0  0  0  3  0  0  0  0  0  0
  -23.6000  -29.7770   20.1350 C   0  0  0  0  0  2  0  0  0  0  0  0
  -24.6500  -31.0100   22.0740 N   0  0  0  0  0  0  0  0  0  0  0  0
  -23.4840  -32.0910   23.7100 O   0  0  0  0  0  0  0  0  0  0  0  0
  -22.7010  -29.4250   22.4750 C   0  0  0  0  0  0  0  0  0  0  0  0
  -21.3710  -29.2480   22.3500 N   0  0  0  0  0  0  0  0  0  0  0  0
  -23.3760  -28.7930   23.2930 O   0  0  0  0  0  0  0  0  0  0  0  0
  -20.8820  -29.8030   21.6620 H   0  0  0  0  0  0  0  0  0  0  0  0
  -18.0020  -28.0090   22.8540 C   0  0  0  0  0  0  0  0  0  0  0  0
  -20.5600  -28.2910   23.1090 C   0  0  0  0  0  3  0  0  0  0  0  0
  -20.6710  -26.8690   22.5120 C   0  0  0  0  0  2  0  0  0  0  0  0
  -19.5670  -26.5540   21.4970 C   0  0  0  0  0  2  0  0  0  0  0  0
  -18.1870  -26.6740   22.1510 C   0  0  0  0  0  2  0  0  0  0  0  0
  -19.1150  -28.7760   23.2900 C   0  0  0  0  0  0  0  0  0  0  0  0
  -18.8870  -30.0230   23.9110 C   0  0  0  0  0  3  0  0  0  0  0  0
  -17.5770  -30.5050   24.0960 C   0  0  0  0  0  3  0  0  0  0  0  0
  -16.4780  -29.7360   23.6750 C   0  0  0  0  0  3  0  0  0  0  0  0
  -16.6900  -28.4880   23.0610 C   0  0  0  0  0  3  0  0  0  0  0  0
  -25.8430  -32.4580   23.8140 C   0  0  0  0  0  3  0  0  0  0  0  0
  -25.5260  -33.8560   24.1540 N   0  0  0  0  0  0  0  0  0  0  0  0
  -25.8540  -34.9200   23.4060 C   0  0  0  0  0  0  0  0  0  0  0  0
  -26.5150  -34.8260   22.3690 O   0  0  0  0  0  0  0  0  0  0  0  0
  -24.9330  -34.0010   24.9570 H   0  0  0  0  0  0  0  0  0  0  0  0
  -24.1210  -36.7200   23.0860 C   0  0  0  0  0  1  0  0  0  0  0  0
  -25.3710  -36.3070   23.8810 C   0  0  0  0  0  3  0  0  0  0  0  0
  -27.5070  -37.1920   24.7090 C   0  0  0  0  0  1  0  0  0  0  0  0
  -26.4040  -37.3620   23.7670 N   0  0  0  0  0  0  0  0  0  0  0  0
  -25.9980  -38.2810   23.9160 H   0  0  0  0  0  0  0  0  0  0  0  0
  -26.3470  -31.6890   25.0990 C   0  0  1  0  0  0  0  0  0  0  0  0
  -25.2430  -31.4530   26.1560 C   0  0  0  0  0  1  0  0  0  0  0  0
  -26.9280  -30.3070   24.7210 C   0  0  0  0  0  1  0  0  0  0  0  0
  -27.4940  -32.4800   25.7700 C   0  0  0  0  0  1  0  0  0  0  0  0
  1  4  1  0
  2  7  1  0
  3  1  2  0
  3  5  1  0
  4 16  1  0
  4  2  2  0
  5  7  2  0
  6  3  1  0
  8 16  1  0
  9 14  1  0
 10 11  1  0
 10  9  1  0
 12 11  1  0
 12 21  1  0
 12 13  1  0
 14  8  1  0
 14 13  1  0
 15  8  2  0
 16 17  1  0
 18 19  2  0
 19 38  1  0
 20 19  1  0
 20 23  1  0
 21 22  1  0
 21 18  1  0
 22 20  2  0
 23 24  1  0
 24 25  2  0
 26 29  1  0
 26 25  1  0
 27 26  2  0
 28 27  1  0
 28 23  2  0
 29 30  1  0
 30 31  1  0
 31 32  2  0
 33 32  1  0
 33 37  1  0
 34 33  2  0
 35 30  2  0
 35 34  1  0
 36 35  1  0
 38 39  1  0
 39 42  1  0
 39 41  1  0
 40 38  2  0
 43 44  1  0
 43 18  1  0
 45 43  1  0
 46 47  1  0
 47  5  1  0
 48 46  1  0
 48 49  1  0
 48 47  1  0
 50 61  2  0
 51 49  1  0
 51 56  1  0
 52 60  1  0
 52 62  1  0
 53 59  1  0
 53 55  1  0
 54 60  1  0
 55 54  1  0
 56 55  2  0
 57 58  1  0
 57 51  2  0
 58 53  2  0
 59 52  1  0
 60 50  1  0
 62 64  2  0
 63 62  1  0
 65 63  1  0
 66 75  2  0
 66 71  1  0
 67 63  1  0
 67 71  1  0
 68 67  1  0
 69 70  1  0
 69 68  1  0
 70 66  1  0
 71 72  2  0
 72 73  1  0
 74 73  2  0
 75 74  1  0
 76 50  1  0
 76 77  1  0
 76 86  1  0
 77 80  1  0
 78 82  1  0
 78 77  1  0
 79 78  2  0
 82 81  1  0
 84 82  1  0
 84 85  1  0
 84 83  1  0
 86 89  1  1
 86 87  1  0
 88 86  1  0
M  ISO  4   8 100  16 100  48 101  49 101
M  END
>  <TORSDO>  (71) 
F 17

>  <SCORE>  (71) 
-15.376

>  <name>  (71) 
70

>  <ligand_id>  (71) 
70

>  <original_smiles>  (71) 
[H]c1nc(C2([H])C([H])([H])C2([H])Oc2c([H])c([H])c3c(c2[H])C([H])([H])N(C(=O)C([H])(N([H])C(=O)C([H])(N([H])C([H])([H])[H])C([H])([H])[H])C(C([H])([H])[H])(C([H])([H])[H])C([H])([H])[H])C([H])(C(=O)N([H])C2([H])c4c([H])c([H])c([H])c([H])c4C([H])([H])C([H])([H])C2([H])[H])C3([H])[H])c(C([H])([H])[H])c([H])c1N([H])C(=O)N1C([H])([H])C([H])([H])C([H])([H])C([H])(n2nc(-c3c([H])c([H])c(Oc4c([H])c([H])c(F)c([H])c4F)c([H])c3[H])c(C(=O)N([H])[H])c2N([H])[H])C1([H])[H]

>  <smiles>  (71) 
[H]c1nc(C2([H])C([H])([H])C2([H])Oc2c([H])c([H])c3c(c2[H])C([H])([H])N(C(=O)C([H])(N([H])C(=O)C([H])(N([H])C([H])([H])[H])C([H])([H])[H])C(C([H])([H])[H])(C([H])([H])[H])C([H])([H])[H])C([H])(C(=O)N([H])C2([H])c4c([H])c([H])c([H])c([H])c4C([H])([H])C([H])([H])C2([H])[H])C3([H])[H])c(C([H])([H])[H])c([H])c1N([H])C(=O)N1C([H])([H])C([H])([H])C([H])([H])C([H])(n2nc(-c3c([H])c([H])c(Oc4c([H])c([H])c(F)c([H])c4F)c([H])c3[H])c(C(=O)N([H])[H])c2N([H])[H])C1([H])[H]

$$$$
71:0:0
     RDKit          3D

 96105  0  0  1  0  0  0  0  0999 V2000
  -30.6460  -20.9600   19.9090 C   0  0  0  0  0  0  0  0  0  0  0  0
  -30.1600  -19.6810   19.9020 N   0  0  0  0  0  0  0  0  0  0  0  0
  -31.8530  -21.1680   20.0490 O   0  0  0  0  0  0  0  0  0  0  0  0
  -29.1650  -19.5940   19.7590 H   0  0  0  0  0  0  0  0  0  0  0  0
  -30.9900  -14.6480   19.4950 C   0  0  0  0  0  0  0  0  0  0  0  0
  -30.5560  -12.4750   18.3460 C   0  0  0  0  0  2  0  0  0  0  0  0
  -29.4190  -12.6680   17.3160 C   0  0  0  0  0  2  0  0  0  0  0  0
  -28.0320  -12.5040   17.9770 C   0  0  0  0  0  2  0  0  0  0  0  0
  -27.9140  -13.2850   19.3150 C   0  0  0  0  0  3  0  0  0  0  0  0
  -29.1430  -12.9840   20.2010 C   0  0  0  0  0  2  0  0  0  0  0  0
  -30.3290  -13.4340   19.4520 N   0  0  0  0  0  0  0  0  0  0  0  0
  -32.0310  -14.7880   18.8450 O   0  0  0  0  0  0  0  0  0  0  0  0
  -29.5560  -17.1990   21.9470 C   0  0  0  0  0  2  0  0  0  0  0  0
  -29.6620  -15.8100   21.2940 C   0  0  0  0  0  2  0  0  0  0  0  0
  -30.4090  -17.1430   19.3330 C   0  0  0  0  0  2  0  0  0  0  0  0
  -30.8340  -18.0230   21.7290 C   0  0  0  0  0  3  0  0  0  0  0  0
  -30.8890  -18.3880   20.2120 C   0  0  0  0  0  3  0  0  0  0  0  0
  -30.3390  -15.7780   19.9820 N   0  0  0  0  0  0  0  0  0  0  0  0
  -25.7360  -13.8960   20.5380 C   0  0  0  0  0  0  0  0  0  0  0  0
  -24.7050  -13.1300   21.0090 C   0  0  0  0  0  0  0  0  0  0  0  0
  -25.0540  -11.7760   20.7190 C   0  0  0  0  0  0  0  0  0  0  0  0
  -26.6580  -13.0070   20.0030 N   0  0  0  0  0  0  0  0  0  0  0  0
  -26.2540  -11.7210   20.1580 N   0  0  0  0  0  0  0  0  0  0  0  0
  -24.2890  -10.5350   20.8910 C   0  0  0  0  0  0  0  0  0  0  0  0
  -24.6980   -9.5350   21.7990 C   0  0  0  0  0  3  0  0  0  0  0  0
  -23.9380   -8.3590   21.9610 C   0  0  0  0  0  3  0  0  0  0  0  0
  -22.7510   -8.1720   21.2130 C   0  0  0  0  0  0  0  0  0  0  0  0
  -22.3620   -9.1590   20.2930 C   0  0  0  0  0  3  0  0  0  0  0  0
  -23.1240  -10.3290   20.1290 C   0  0  0  0  0  3  0  0  0  0  0  0
  -21.9650   -7.0470   21.2800 O   0  0  0  0  0  0  0  0  0  0  0  0
  -21.6970   -6.4270   22.4740 C   0  0  0  0  0  0  0  0  0  0  0  0
  -21.0700   -7.1050   23.5410 C   0  0  0  0  0  3  0  0  0  0  0  0
  -20.7500   -6.4100   24.7240 C   0  0  0  0  0  3  0  0  0  0  0  0
  -21.0440   -5.0390   24.8410 C   0  0  0  0  0  0  0  0  0  0  0  0
  -21.6640   -4.3620   23.7770 C   0  0  0  0  0  3  0  0  0  0  0  0
  -21.9880   -5.0530   22.5950 C   0  0  0  0  0  0  0  0  0  0  0  0
  -22.5670   -4.3900   21.5670 F   0  0  0  0  0  0  0  0  0  0  0  0
  -20.7260   -4.3720   25.9750 F   0  0  0  0  0  0  0  0  0  0  0  0
  -23.4240  -13.6330   21.6080 C   0  0  0  0  0  0  0  0  0  0  0  0
  -22.8390  -12.8750   22.5280 N   0  0  0  0  0  0  0  0  0  0  0  0
  -22.9610  -14.7290   21.2980 O   0  0  0  0  0  0  0  0  0  0  0  0
  -23.2370  -11.9910   22.8060 H   0  0  0  0  0  0  0  0  0  0  0  0
  -21.9850  -13.1920   22.9630 H   0  0  0  0  0  0  0  0  0  0  0  0
  -25.9590  -15.2670   20.5050 N   0  0  0  0  0  0  0  0  0  0  0  0
  -25.2510  -15.9300   20.8030 H   0  0  0  0  0  0  0  0  0  0  0  0
  -26.7730  -15.7100   20.0970 H   0  0  0  0  0  0  0  0  0  0  0  0
  -30.9050  -18.7570   24.2280 C   0  0  0  0  0  1  0  0  0  0  0  0
  -32.3930  -19.8790   22.5720 C   0  0  0  0  0  1  0  0  0  0  0  0
  -31.0240  -19.1940   22.7470 C   0  0  0  0  0  3  0  0  0  0  0  0
  -30.3690  -23.4040   18.9640 C   0  0  0  0  0  2  0  0  0  0  0  0
  -29.1360  -22.7720   21.0770 C   0  0  0  0  0  2  0  0  0  0  0  0
  -29.5170  -24.7120   18.7840 C   0  0  0  0  0  2  0  0  0  0  0  0
  -29.0470  -24.3310   21.2390 C   0  0  0  0  0  2  0  0  0  0  0  0
  -29.6910  -22.2140   19.7250 C   0  0  0  0  0  3  0  0  0  0  0  0
  -28.5980  -25.1050   19.9820 C   0  0  0  0  0  3  0  0  0  0  0  0
  -28.5790  -26.5600   20.2430 O   0  0  0  0  0  0  0  0  0  0  0  0
  -24.6170  -31.8160   23.2060 C   0  0  0  0  0  0  0  0  0  0  0  0
  -27.3960  -27.3060   20.2290 C   0  0  0  0  0  0  0  0  0  0  0  0
  -23.4780  -30.3790   21.5540 C   0  0  0  0  0  3  0  0  0  0  0  0
  -24.9880  -28.8440   20.1860 C   0  0  0  0  0  0  0  0  0  0  0  0
  -26.0140  -30.7500   21.4250 C   0  0  0  0  0  2  0  0  0  0  0  0
  -26.1330  -29.3710   20.7930 C   0  0  0  0  0  0  0  0  0  0  0  0
  -27.3400  -28.6140   20.8020 C   0  0  0  0  0  3  0  0  0  0  0  0
  -26.2150  -26.8190   19.6160 C   0  0  0  0  0  3  0  0  0  0  0  0
  -25.0270  -27.5720   19.6000 C   0  0  0  0  0  3  0  0  0  0  0  0
  -23.7400  -29.6990   20.1860 C   0  0  0  0  0  2  0  0  0  0  0  0
  -24.7200  -30.9980   22.1200 N   0  0  0  0  0  0  0  0  0  0  0  0
  -23.5150  -32.0800   23.7110 O   0  0  0  0  0  0  0  0  0  0  0  0
  -22.8130  -29.3570   22.5060 C   0  0  0  0  0  0  0  0  0  0  0  0
  -21.4970  -29.1380   22.3370 N   0  0  0  0  0  0  0  0  0  0  0  0
  -23.4810  -28.7640   23.3570 O   0  0  0  0  0  0  0  0  0  0  0  0
  -21.0190  -29.6690   21.6240 H   0  0  0  0  0  0  0  0  0  0  0  0
  -18.1380  -27.8650   22.7410 C   0  0  0  0  0  0  0  0  0  0  0  0
  -20.6780  -28.1930   23.0970 C   0  0  0  0  0  3  0  0  0  0  0  0
  -20.8360  -26.7560   22.5500 C   0  0  0  0  0  2  0  0  0  0  0  0
  -19.7780  -26.3880   21.5040 C   0  0  0  0  0  2  0  0  0  0  0  0
  -18.3710  -26.5100   22.0970 C   0  0  0  0  0  2  0  0  0  0  0  0
  -19.2210  -28.6620   23.1980 C   0  0  0  0  0  0  0  0  0  0  0  0
  -18.9490  -29.9290   23.7600 C   0  0  0  0  0  3  0  0  0  0  0  0
  -17.6280  -30.3990   23.8700 C   0  0  0  0  0  3  0  0  0  0  0  0
  -16.5580  -29.6010   23.4310 C   0  0  0  0  0  3  0  0  0  0  0  0
  -16.8130  -28.3350   22.8710 C   0  0  0  0  0  3  0  0  0  0  0  0
  -25.8730  -32.4780   23.8500 C   0  0  0  0  0  3  0  0  0  0  0  0
  -25.5150  -33.8580   24.2090 N   0  0  0  0  0  0  0  0  0  0  0  0
  -25.7750  -34.9320   23.4520 C   0  0  0  0  0  0  0  0  0  0  0  0
  -26.4120  -34.8680   22.3970 O   0  0  0  0  0  0  0  0  0  0  0  0
  -24.9390  -33.9780   25.0300 H   0  0  0  0  0  0  0  0  0  0  0  0
  -23.9430  -36.6340   23.1890 C   0  0  0  0  0  1  0  0  0  0  0  0
  -25.2410  -36.2920   23.9390 C   0  0  0  0  0  3  0  0  0  0  0  0
  -27.3630  -37.2800   24.6780 C   0  0  0  0  0  1  0  0  0  0  0  0
  -26.2140  -37.3970   23.7850 N   0  0  0  0  0  0  0  0  0  0  0  0
  -25.7700  -38.2940   23.9560 H   0  0  0  0  0  0  0  0  0  0  0  0
  -26.4060  -31.6960   25.1130 C   0  0  1  0  0  0  0  0  0  0  0  0
  -25.3040  -31.3540   26.1430 C   0  0  0  0  0  1  0  0  0  0  0  0
  -27.0820  -30.3700   24.6920 C   0  0  0  0  0  1  0  0  0  0  0  0
  -27.4940  -32.5330   25.8260 C   0  0  0  0  0  1  0  0  0  0  0  0
  1  3  2  0
  2  1  1  0
  4  2  1  0
  5 18  1  0
  6 11  1  0
  7  8  1  0
  7  6  1  0
  9  8  1  0
  9 22  1  0
  9 10  1  0
 11  5  1  0
 11 10  1  0
 12  5  2  0
 14 13  1  0
 15 18  1  0
 15 17  1  0
 16 13  1  0
 16 49  1  0
 17  2  1  0
 17 16  1  0
 18 14  1  0
 19 20  2  0
 20 39  1  0
 21 24  1  0
 21 20  1  0
 22 23  1  0
 22 19  1  0
 23 21  2  0
 24 25  1  0
 25 26  2  0
 27 30  1  0
 27 26  1  0
 28 27  2  0
 29 28  1  0
 29 24  2  0
 30 31  1  0
 31 36  2  0
 31 32  1  0
 32 33  2  0
 33 34  1  0
 34 38  1  0
 35 34  2  0
 36 35  1  0
 37 36  1  0
 39 40  1  0
 40 42  1  0
 40 43  1  0
 41 39  2  0
 44 19  1  0
 44 45  1  0
 46 44  1  0
 48 49  1  0
 49 47  1  0
 50 54  1  0
 51 53  1  0
 52 50  1  0
 52 55  1  0
 54  1  1  0
 54 51  1  0
 55 56  1  0
 55 53  1  0
 57 68  2  0
 58 56  1  0
 58 63  1  0
 59 67  1  0
 59 69  1  0
 60 66  1  0
 60 62  1  0
 61 67  1  0
 62 63  2  0
 62 61  1  0
 64 58  2  0
 65 64  1  0
 65 60  2  0
 66 59  1  0
 67 57  1  0
 69 71  2  0
 70 69  1  0
 72 70  1  0
 73 82  2  0
 73 78  1  0
 74 70  1  0
 74 78  1  0
 75 74  1  0
 76 77  1  0
 76 75  1  0
 77 73  1  0
 78 79  2  0
 79 80  1  0
 81 80  2  0
 82 81  1  0
 83 57  1  0
 83 84  1  0
 83 93  1  0
 84 87  1  0
 85 89  1  0
 85 84  1  0
 86 85  2  0
 89 88  1  0
 91 89  1  0
 91 92  1  0
 91 90  1  0
 93 96  1  1
 93 94  1  0
 95 93  1  0
M  ISO  4   5 100  18 100  55 101  56 101
M  END
>  <TORSDO>  (72) 
F 18

>  <SCORE>  (72) 
-11.929

>  <name>  (72) 
71

>  <ligand_id>  (72) 
71

>  <original_smiles>  (72) 
[H]c1c([H])c([H])c2c(c1[H])C([H])([H])C([H])([H])C([H])([H])C2([H])N([H])C(=O)C1([H])N(C(=O)C([H])(N([H])C(=O)C([H])(N([H])C([H])([H])[H])C([H])([H])[H])C(C([H])([H])[H])(C([H])([H])[H])C([H])([H])[H])C([H])([H])c2c([H])c(OC3([H])C([H])([H])C([H])([H])C([H])(C(=O)N([H])C4([H])C([H])([H])N(C(=O)N5C([H])([H])C([H])([H])C([H])([H])C([H])(n6nc(-c7c([H])c([H])c(Oc8c([H])c([H])c(F)c([H])c8F)c([H])c7[H])c(C(=O)N([H])[H])c6N([H])[H])C5([H])[H])C([H])([H])C([H])([H])C4([H])C([H])(C([H])([H])[H])C([H])([H])[H])C([H])([H])C3([H])[H])c([H])c([H])c2C1([H])[H]

>  <smiles>  (72) 
[H]c1c([H])c([H])c2c(c1[H])C([H])([H])C([H])([H])C([H])([H])C2([H])N([H])C(=O)C1([H])N(C(=O)C([H])(N([H])C(=O)C([H])(N([H])C([H])([H])[H])C([H])([H])[H])C(C([H])([H])[H])(C([H])([H])[H])C([H])([H])[H])C([H])([H])c2c([H])c(OC3([H])C([H])([H])C([H])([H])C([H])(C(=O)N([H])C4([H])C([H])([H])N(C(=O)N5C([H])([H])C([H])([H])C([H])([H])C([H])(n6nc(-c7c([H])c([H])c(Oc8c([H])c([H])c(F)c([H])c8F)c([H])c7[H])c(C(=O)N([H])[H])c6N([H])[H])C5([H])[H])C([H])([H])C([H])([H])C4([H])C([H])(C([H])([H])[H])C([H])([H])[H])C([H])([H])C3([H])[H])c([H])c([H])c2C1([H])[H]

$$$$
72:0:0
     RDKit          3D

101110  0  0  1  0  0  0  0  0999 V2000
  -28.1400  -24.0720   19.4460 C   0  0  0  0  0  3  0  0  0  0  0  0
  -25.4240  -24.6860   22.1380 C   0  0  0  0  0  3  0  0  0  0  0  0
  -26.1860  -25.3210   23.1370 C   0  0  0  0  0  3  0  0  0  0  0  0
  -28.1720  -25.1250   21.7430 C   0  0  0  0  0  3  0  0  0  0  0  0
  -26.0310  -24.2630   20.9340 C   0  0  0  0  0  0  0  0  0  0  0  0
  -27.4220  -24.4800   20.7330 C   0  0  0  0  0  0  0  0  0  0  0  0
  -27.5600  -25.5430   22.9380 C   0  0  0  0  0  0  0  0  0  0  0  0
  -25.1620  -23.5820   19.8900 C   0  0  0  0  0  1  0  0  0  0  0  0
  -28.4920  -26.3330   24.1570 Cl  0  0  0  0  0  0  0  0  0  0  0  0
  -29.2650  -22.8650   19.6740 C   0  0  0  0  0  2  0  0  0  0  0  0
  -29.4800  -19.0960   21.2580 C   0  0  0  0  0  2  0  0  0  0  0  0
  -29.6800  -20.5130   18.8300 C   0  0  0  0  0  2  0  0  0  0  0  0
  -30.1680  -18.2130   20.1470 C   0  0  0  0  0  3  0  0  0  0  0  0
  -29.5550  -18.9080   18.8760 C   0  0  0  0  0  3  0  0  0  0  0  0
  -29.5950  -20.7000   21.1380 C   0  0  0  0  0  3  0  0  0  0  0  0
  -28.9330  -21.3260   22.3720 C   0  0  0  0  0  1  0  0  0  0  0  0
  -29.0300  -21.3390   19.9000 N   0  0  0  0  0  0  0  0  0  0  0  0
  -30.8640  -15.5610   20.2170 C   0  0  0  0  0  0  0  0  0  0  0  0
  -30.8300  -13.1830   19.4080 C   0  0  0  0  0  2  0  0  0  0  0  0
  -29.9190  -13.0970   18.1610 C   0  0  0  0  0  2  0  0  0  0  0  0
  -28.4480  -12.8890   18.5720 C   0  0  0  0  0  2  0  0  0  0  0  0
  -28.0030  -13.8540   19.7050 C   0  0  0  0  0  3  0  0  0  0  0  0
  -29.0350  -13.9080   20.8500 C   0  0  0  0  0  2  0  0  0  0  0  0
  -30.3210  -14.2910   20.2540 N   0  0  0  0  0  0  0  0  0  0  0  0
  -32.0530  -15.7020   19.9120 O   0  0  0  0  0  0  0  0  0  0  0  0
  -30.0010  -16.6650   20.2920 N   0  0  0  0  0  0  0  0  0  0  0  0
  -29.0590  -16.3810   20.5150 H   0  0  0  0  0  0  0  0  0  0  0  0
  -25.6270  -14.4330   20.4710 C   0  0  0  0  0  0  0  0  0  0  0  0
  -24.5550  -13.6550   20.8120 C   0  0  0  0  0  0  0  0  0  0  0  0
  -25.0040  -12.3020   20.7180 C   0  0  0  0  0  0  0  0  0  0  0  0
  -26.6600  -13.5550   20.1880 N   0  0  0  0  0  0  0  0  0  0  0  0
  -26.2930  -12.2640   20.4000 N   0  0  0  0  0  0  0  0  0  0  0  0
  -24.2640  -11.0410   20.8540 C   0  0  0  0  0  0  0  0  0  0  0  0
  -24.6440  -10.0610   21.7970 C   0  0  0  0  0  3  0  0  0  0  0  0
  -23.9050   -8.8640   21.9220 C   0  0  0  0  0  3  0  0  0  0  0  0
  -22.7740   -8.6400   21.1030 C   0  0  0  0  0  0  0  0  0  0  0  0
  -22.4120   -9.6100   20.1520 C   0  0  0  0  0  3  0  0  0  0  0  0
  -23.1510  -10.7980   20.0240 C   0  0  0  0  0  3  0  0  0  0  0  0
  -22.0080   -7.4980   21.1370 O   0  0  0  0  0  0  0  0  0  0  0  0
  -21.7880   -6.8150   22.3050 C   0  0  0  0  0  0  0  0  0  0  0  0
  -21.1750   -7.4250   23.4220 C   0  0  0  0  0  3  0  0  0  0  0  0
  -20.9050   -6.6680   24.5780 C   0  0  0  0  0  3  0  0  0  0  0  0
  -21.2360   -5.3010   24.6190 C   0  0  0  0  0  0  0  0  0  0  0  0
  -21.8410   -4.6890   23.5070 C   0  0  0  0  0  3  0  0  0  0  0  0
  -22.1130   -5.4440   22.3520 C   0  0  0  0  0  0  0  0  0  0  0  0
  -22.6770   -4.8460   21.2750 F   0  0  0  0  0  0  0  0  0  0  0  0
  -20.9690   -4.5700   25.7270 F   0  0  0  0  0  0  0  0  0  0  0  0
  -23.1650  -14.1370   21.1110 C   0  0  0  0  0  0  0  0  0  0  0  0
  -22.4320  -13.4160   21.9520 N   0  0  0  0  0  0  0  0  0  0  0  0
  -22.7380  -15.1870   20.6340 O   0  0  0  0  0  0  0  0  0  0  0  0
  -22.7910  -12.5670   22.3630 H   0  0  0  0  0  0  0  0  0  0  0  0
  -21.4980  -13.7190   22.1890 H   0  0  0  0  0  0  0  0  0  0  0  0
  -25.8030  -15.8080   20.3520 N   0  0  0  0  0  0  0  0  0  0  0  0
  -25.0360  -16.4570   20.4940 H   0  0  0  0  0  0  0  0  0  0  0  0
  -26.6320  -16.2540   19.9830 H   0  0  0  0  0  0  0  0  0  0  0  0
  -30.1070  -18.3060   17.6530 N   0  0  0  0  0  4  0  0  0  0  0  0
  -31.0940  -18.4810   17.5810 H   0  0  0  0  0  0  0  0  0  0  0  0
  -29.6530  -18.6850   16.8410 H   0  0  0  0  0  0  0  0  0  0  0  0
  -29.9610  -17.3160   17.6580 H   0  0  0  0  0  0  0  0  0  0  0  0
  -28.5030  -25.4250   18.5630 C   0  0  0  0  0  2  0  0  0  0  0  0
  -28.3810  -26.8960   18.9470 O   0  0  0  0  0  0  0  0  0  0  0  0
  -24.4020  -31.5050   22.9250 C   0  0  0  0  0  0  0  0  0  0  0  0
  -27.1880  -27.6600   19.0500 C   0  0  0  0  0  0  0  0  0  0  0  0
  -23.2200  -30.2460   21.1620 C   0  0  0  0  0  3  0  0  0  0  0  0
  -24.7000  -29.0660   19.4260 C   0  0  0  0  0  0  0  0  0  0  0  0
  -25.7080  -30.8170   20.8900 C   0  0  0  0  0  2  0  0  0  0  0  0
  -25.8620  -29.5620   20.0270 C   0  0  0  0  0  0  0  0  0  0  0  0
  -27.1020  -28.8690   19.8310 C   0  0  0  0  0  3  0  0  0  0  0  0
  -25.9930  -27.2330   18.4350 C   0  0  0  0  0  3  0  0  0  0  0  0
  -24.7700  -27.9150   18.6220 C   0  0  0  0  0  3  0  0  0  0  0  0
  -23.3970  -29.8030   19.6840 C   0  0  0  0  0  2  0  0  0  0  0  0
  -24.4640  -30.8710   21.7150 N   0  0  0  0  0  0  0  0  0  0  0  0
  -23.3350  -31.5950   23.5530 O   0  0  0  0  0  0  0  0  0  0  0  0
  -22.7150  -29.0430   21.9940 C   0  0  0  0  0  0  0  0  0  0  0  0
  -21.4010  -28.7690   21.9330 N   0  0  0  0  0  0  0  0  0  0  0  0
  -23.5030  -28.3640   22.6570 O   0  0  0  0  0  0  0  0  0  0  0  0
  -20.8150  -29.3740   21.3740 H   0  0  0  0  0  0  0  0  0  0  0  0
  -18.1850  -27.1850   22.4460 C   0  0  0  0  0  0  0  0  0  0  0  0
  -20.7240  -27.6530   22.5980 C   0  0  0  0  0  3  0  0  0  0  0  0
  -20.9100  -26.3390   21.8050 C   0  0  0  0  0  2  0  0  0  0  0  0
  -19.7700  -26.0620   20.8220 C   0  0  0  0  0  2  0  0  0  0  0  0
  -18.4310  -25.9750   21.5600 C   0  0  0  0  0  2  0  0  0  0  0  0
  -19.2610  -27.9830   22.9190 C   0  0  0  0  0  0  0  0  0  0  0  0
  -18.9750  -29.1180   23.7100 C   0  0  0  0  0  3  0  0  0  0  0  0
  -17.6480  -29.4540   24.0330 C   0  0  0  0  0  3  0  0  0  0  0  0
  -16.5890  -28.6510   23.5790 C   0  0  0  0  0  3  0  0  0  0  0  0
  -16.8580  -27.5180   22.7890 C   0  0  0  0  0  3  0  0  0  0  0  0
  -25.6590  -32.1680   23.5670 C   0  0  0  0  0  3  0  0  0  0  0  0
  -25.2880  -33.5310   23.9780 N   0  0  0  0  0  0  0  0  0  0  0  0
  -25.5880  -34.6430   23.2920 C   0  0  0  0  0  0  0  0  0  0  0  0
  -26.2790  -34.6310   22.2710 O   0  0  0  0  0  0  0  0  0  0  0  0
  -24.6900  -33.6140   24.7870 H   0  0  0  0  0  0  0  0  0  0  0  0
  -23.8060  -36.3930   23.0060 C   0  0  0  0  0  1  0  0  0  0  0  0
  -25.0380  -35.9810   23.8280 C   0  0  0  0  0  3  0  0  0  0  0  0
  -27.1120  -36.8820   24.7860 C   0  0  0  0  0  1  0  0  0  0  0  0
  -26.0330  -37.0750   23.8190 N   0  0  0  0  0  0  0  0  0  0  0  0
  -25.5890  -37.9670   24.0160 H   0  0  0  0  0  0  0  0  0  0  0  0
  -26.2290  -31.3600   24.7980 C   0  0  1  0  0  0  0  0  0  0  0  0
  -25.1650  -31.0210   25.8680 C   0  0  0  0  0  1  0  0  0  0  0  0
  -26.8700  -30.0310   24.3340 C   0  0  0  0  0  1  0  0  0  0  0  0
  -27.3540  -32.1730   25.4820 C   0  0  0  0  0  1  0  0  0  0  0  0
  1 60  1  0
  1 10  1  0
  1  6  1  0
  2  3  1  0
  4  7  1  0
  5  2  2  0
  6  5  1  0
  6  4  2  0
  7  3  2  0
  7  9  1  0
  8  5  1  0
 10 17  1  0
 12 14  1  0
 12 17  1  0
 13 26  1  0
 13 11  1  0
 14 56  1  0
 14 13  1  0
 15 11  1  0
 15 16  1  0
 17 15  1  0
 18 24  1  0
 18 26  1  0
 19 24  1  0
 20 21  1  0
 20 19  1  0
 22 21  1  0
 22 31  1  0
 22 23  1  0
 24 23  1  0
 25 18  2  0
 26 27  1  0
 28 29  2  0
 29 48  1  0
 30 29  1  0
 30 33  1  0
 31 32  1  0
 31 28  1  0
 32 30  2  0
 33 34  1  0
 34 35  2  0
 36 39  1  0
 36 35  1  0
 37 36  2  0
 38 37  1  0
 38 33  2  0
 39 40  1  0
 40 45  2  0
 40 41  1  0
 41 42  2  0
 42 43  1  0
 43 47  1  0
 44 43  2  0
 45 44  1  0
 46 45  1  0
 48 49  1  0
 49 52  1  0
 49 51  1  0
 50 48  2  0
 53 28  1  0
 53 54  1  0
 55 53  1  0
 56 59  1  0
 57 56  1  0
 58 56  1  0
 60 61  1  0
 61 63  1  0
 62 73  2  0
 63 68  1  0
 64 72  1  0
 64 74  1  0
 65 71  1  0
 65 67  1  0
 66 72  1  0
 67 66  1  0
 68 67  2  0
 69 70  1  0
 69 63  2  0
 70 65  2  0
 71 64  1  0
 72 62  1  0
 74 76  2  0
 75 74  1  0
 77 75  1  0
 78 87  2  0
 78 83  1  0
 79 75  1  0
 79 83  1  0
 80 79  1  0
 81 82  1  0
 81 80  1  0
 82 78  1  0
 83 84  2  0
 84 85  1  0
 86 85  2  0
 87 86  1  0
 88 62  1  0
 88 89  1  0
 88 98  1  0
 89 92  1  0
 90 94  1  0
 90 89  1  0
 91 90  2  0
 94 93  1  0
 96 94  1  0
 96 97  1  0
 96 95  1  0
 98101  1  1
 98 99  1  0
100 98  1  0
M  ISO  4  18 100  26 100  60 101  61 101
M  END
>  <TORSDO>  (73) 
F 21

>  <SCORE>  (73) 
-11.359

>  <name>  (73) 
72

>  <ligand_id>  (73) 
72

>  <original_smiles>  (73) 
[H]c1c([H])c([H])c2c(c1[H])C([H])([H])C([H])([H])C([H])([H])C2([H])N([H])C(=O)C1([H])N(C(=O)C([H])(N([H])C(=O)C([H])(N([H])C([H])([H])[H])C([H])([H])[H])C(C([H])([H])[H])(C([H])([H])[H])C([H])([H])[H])C([H])([H])c2c([H])c(OC([H])([H])C([H])(c3c([H])c(Cl)c([H])c([H])c3C([H])([H])[H])C([H])([H])N3C([H])([H])C([H])([N+]([H])([H])[H])C([H])(N([H])C(=O)N4C([H])([H])C([H])([H])C([H])([H])C([H])(n5nc(-c6c([H])c([H])c(Oc7c([H])c([H])c(F)c([H])c7F)c([H])c6[H])c(C(=O)N([H])[H])c5N([H])[H])C4([H])[H])C([H])([H])C3([H])C([H])([H])[H])c([H])c([H])c2C1([H])[H]

>  <smiles>  (73) 
[H]c1c([H])c([H])c2c(c1[H])C([H])([H])C([H])([H])C([H])([H])C2([H])N([H])C(=O)C1([H])N(C(=O)C([H])(N([H])C(=O)C([H])(N([H])C([H])([H])[H])C([H])([H])[H])C(C([H])([H])[H])(C([H])([H])[H])C([H])([H])[H])C([H])([H])c2c([H])c(OC([H])([H])C([H])(c3c([H])c(Cl)c([H])c([H])c3C([H])([H])[H])C([H])([H])N3C([H])([H])C([H])([N+]([H])([H])[H])C([H])(N([H])C(=O)N4C([H])([H])C([H])([H])C([H])([H])C([H])(n5nc(-c6c([H])c([H])c(Oc7c([H])c([H])c(F)c([H])c7F)c([H])c6[H])c(C(=O)N([H])[H])c5N([H])[H])C4([H])[H])C([H])([H])C3([H])C([H])([H])[H])c([H])c([H])c2C1([H])[H]

$$$$
73:0:0
     RDKit          3D

 94103  0  0  1  0  0  0  0  0999 V2000
  -29.9340  -23.6220   20.4820 N   0  0  0  0  0  4  0  0  0  0  0  0
  -30.8700  -23.6490   20.8520 H   0  0  0  0  0  0  0  0  0  0  0  0
  -29.3220  -23.8220   21.2590 H   0  0  0  0  0  0  0  0  0  0  0  0
  -30.6940  -21.8140   18.9600 C   0  0  0  0  0  2  0  0  0  0  0  0
  -30.7310  -21.1730   20.3330 C   0  0  0  0  0  3  0  0  0  0  0  0
  -29.6750  -22.2330   19.9940 C   0  0  0  0  0  3  0  0  0  0  0  0
  -30.0150  -19.0780   21.6100 C   0  0  0  0  0  3  0  0  0  0  0  0
  -30.8340  -18.8180   19.3500 C   0  0  0  0  0  3  0  0  0  0  0  0
  -29.8790  -17.6720   21.7170 C   0  0  0  0  0  3  0  0  0  0  0  0
  -30.6810  -17.4200   19.4490 C   0  0  0  0  0  3  0  0  0  0  0  0
  -30.5000  -19.6750   20.4240 C   0  0  0  0  0  0  0  0  0  0  0  0
  -30.2170  -16.8160   20.6450 C   0  0  0  0  0  0  0  0  0  0  0  0
  -30.0410  -15.4460   20.8080 O   0  0  0  0  0  0  0  0  0  0  0  0
  -30.7970  -14.4910   20.1660 C   0  0  0  0  0  0  0  0  0  0  0  0
  -30.3960  -12.3750   18.9250 C   0  0  0  0  0  2  0  0  0  0  0  0
  -29.4010  -12.6790   17.7870 C   0  0  0  0  0  2  0  0  0  0  0  0
  -27.9470  -12.5420   18.2800 C   0  0  0  0  0  2  0  0  0  0  0  0
  -27.6860  -13.3110   19.6030 C   0  0  0  0  0  3  0  0  0  0  0  0
  -28.7830  -13.0130   20.6470 C   0  0  0  0  0  2  0  0  0  0  0  0
  -30.0880  -13.2870   20.0320 N   0  0  0  0  0  0  0  0  0  0  0  0
  -31.9000  -14.7100   19.6580 O   0  0  0  0  0  0  0  0  0  0  0  0
  -25.3200  -13.9080   20.4220 C   0  0  0  0  0  0  0  0  0  0  0  0
  -24.2670  -13.1300   20.8250 C   0  0  0  0  0  0  0  0  0  0  0  0
  -24.7250  -11.7790   20.7530 C   0  0  0  0  0  0  0  0  0  0  0  0
  -26.3540  -13.0300   20.1330 N   0  0  0  0  0  0  0  0  0  0  0  0
  -26.0000  -11.7440   20.3870 N   0  0  0  0  0  0  0  0  0  0  0  0
  -24.0080  -10.5140   20.9550 C   0  0  0  0  0  0  0  0  0  0  0  0
  -24.4610   -9.5480   21.8800 C   0  0  0  0  0  3  0  0  0  0  0  0
  -23.7440   -8.3470   22.0700 C   0  0  0  0  0  3  0  0  0  0  0  0
  -22.5600   -8.1040   21.3350 C   0  0  0  0  0  0  0  0  0  0  0  0
  -22.1250   -9.0580   20.3980 C   0  0  0  0  0  3  0  0  0  0  0  0
  -22.8430  -10.2510   20.2070 C   0  0  0  0  0  3  0  0  0  0  0  0
  -21.8120   -6.9540   21.4330 O   0  0  0  0  0  0  0  0  0  0  0  0
  -21.7530   -6.2310   22.5980 C   0  0  0  0  0  0  0  0  0  0  0  0
  -21.3110   -6.8060   23.8100 C   0  0  0  0  0  3  0  0  0  0  0  0
  -21.2000   -6.0100   24.9670 C   0  0  0  0  0  3  0  0  0  0  0  0
  -21.5200   -4.6390   24.9130 C   0  0  0  0  0  0  0  0  0  0  0  0
  -21.9540   -4.0640   23.7050 C   0  0  0  0  0  3  0  0  0  0  0  0
  -22.0680   -4.8580   22.5510 C   0  0  0  0  0  0  0  0  0  0  0  0
  -22.4660   -4.2950   21.3850 F   0  0  0  0  0  0  0  0  0  0  0  0
  -21.4060   -3.8720   26.0210 F   0  0  0  0  0  0  0  0  0  0  0  0
  -22.8840  -13.6030   21.1660 C   0  0  0  0  0  0  0  0  0  0  0  0
  -22.1980  -12.8950   22.0550 N   0  0  0  0  0  0  0  0  0  0  0  0
  -22.4220  -14.6330   20.6780 O   0  0  0  0  0  0  0  0  0  0  0  0
  -22.5870  -12.0620   22.4720 H   0  0  0  0  0  0  0  0  0  0  0  0
  -21.2700  -13.1900   22.3260 H   0  0  0  0  0  0  0  0  0  0  0  0
  -25.4810  -15.2810   20.2620 N   0  0  0  0  0  0  0  0  0  0  0  0
  -24.7270  -15.9410   20.4210 H   0  0  0  0  0  0  0  0  0  0  0  0
  -26.3320  -15.7220   19.9360 H   0  0  0  0  0  0  0  0  0  0  0  0
  -29.8130  -24.7030   19.4530 C   0  0  0  0  0  3  0  0  0  0  0  0
  -31.1300  -26.5910   18.2860 C   0  0  0  0  0  1  0  0  0  0  0  0
  -31.0080  -25.6840   19.5220 C   0  0  0  0  0  2  0  0  0  0  0  0
  -28.4270  -25.4060   19.4660 C   0  0  0  0  0  2  0  0  0  0  0  0
  -28.4170  -26.6880   20.1250 O   0  0  0  0  0  0  0  0  0  0  0  0
  -24.6230  -31.8680   23.2320 C   0  0  0  0  0  0  0  0  0  0  0  0
  -27.2370  -27.4140   20.1170 C   0  0  0  0  0  0  0  0  0  0  0  0
  -23.4060  -30.4800   21.5890 C   0  0  0  0  0  3  0  0  0  0  0  0
  -24.8480  -28.9450   20.1530 C   0  0  0  0  0  0  0  0  0  0  0  0
  -25.9350  -30.8230   21.3870 C   0  0  0  0  0  2  0  0  0  0  0  0
  -26.0120  -29.4540   20.7400 C   0  0  0  0  0  0  0  0  0  0  0  0
  -27.2070  -28.6960   20.7220 C   0  0  0  0  0  3  0  0  0  0  0  0
  -26.0430  -26.9240   19.5320 C   0  0  0  0  0  3  0  0  0  0  0  0
  -24.8580  -27.6790   19.5500 C   0  0  0  0  0  3  0  0  0  0  0  0
  -23.6090  -29.8100   20.2050 C   0  0  0  0  0  2  0  0  0  0  0  0
  -24.6740  -31.0710   22.1270 N   0  0  0  0  0  0  0  0  0  0  0  0
  -23.5440  -32.1430   23.7750 O   0  0  0  0  0  0  0  0  0  0  0  0
  -22.7550  -29.4550   22.5450 C   0  0  0  0  0  0  0  0  0  0  0  0
  -21.4310  -29.2750   22.4190 N   0  0  0  0  0  0  0  0  0  0  0  0
  -23.4380  -28.8240   23.3570 O   0  0  0  0  0  0  0  0  0  0  0  0
  -20.9400  -29.8360   21.7360 H   0  0  0  0  0  0  0  0  0  0  0  0
  -18.0540  -28.0850   22.9120 C   0  0  0  0  0  0  0  0  0  0  0  0
  -20.6120  -28.3360   23.1870 C   0  0  0  0  0  3  0  0  0  0  0  0
  -20.7120  -26.9070   22.6060 C   0  0  0  0  0  2  0  0  0  0  0  0
  -19.6100  -26.5890   21.5910 C   0  0  0  0  0  2  0  0  0  0  0  0
  -18.2280  -26.7370   22.2340 C   0  0  0  0  0  2  0  0  0  0  0  0
  -19.1740  -28.8440   23.3450 C   0  0  0  0  0  0  0  0  0  0  0  0
  -18.9580  -30.1060   23.9360 C   0  0  0  0  0  3  0  0  0  0  0  0
  -17.6550  -30.6110   24.1010 C   0  0  0  0  0  3  0  0  0  0  0  0
  -16.5490  -29.8490   23.6850 C   0  0  0  0  0  3  0  0  0  0  0  0
  -16.7500  -28.5880   23.0960 C   0  0  0  0  0  3  0  0  0  0  0  0
  -25.9140  -32.4920   23.8500 C   0  0  0  0  0  3  0  0  0  0  0  0
  -25.6110  -33.8870   24.1900 N   0  0  0  0  0  0  0  0  0  0  0  0
  -25.9400  -34.9430   23.4320 C   0  0  0  0  0  0  0  0  0  0  0  0
  -26.6040  -34.8430   22.3960 O   0  0  0  0  0  0  0  0  0  0  0  0
  -25.0210  -34.0390   24.9940 H   0  0  0  0  0  0  0  0  0  0  0  0
  -24.2120  -36.7400   23.0970 C   0  0  0  0  0  1  0  0  0  0  0  0
  -25.4570  -36.3300   23.8990 C   0  0  0  0  0  3  0  0  0  0  0  0
  -27.5970  -37.2060   24.7230 C   0  0  0  0  0  1  0  0  0  0  0  0
  -26.4910  -37.3810   23.7870 N   0  0  0  0  0  0  0  0  0  0  0  0
  -26.0860  -38.3010   23.9420 H   0  0  0  0  0  0  0  0  0  0  0  0
  -26.4380  -31.7080   25.1160 C   0  0  1  0  0  0  0  0  0  0  0  0
  -25.3500  -31.4650   26.1890 C   0  0  0  0  0  1  0  0  0  0  0  0
  -27.0150  -30.3330   24.7080 C   0  0  0  0  0  1  0  0  0  0  0  0
  -27.5930  -32.4960   25.7790 C   0  0  0  0  0  1  0  0  0  0  0  0
  1  2  1  0
  1  3  1  0
  4  6  1  0
  4  5  1  0
  5 11  1  0
  6  5  1  0
  6  1  1  0
  7  9  1  0
  8 10  2  0
  8 11  1  0
 10 12  1  0
 11  7  2  0
 12 13  1  0
 12  9  2  0
 14 13  1  0
 15 20  1  0
 16 17  1  0
 16 15  1  0
 18 17  1  0
 18 25  1  0
 18 19  1  0
 20 14  1  0
 20 19  1  0
 21 14  2  0
 22 23  2  0
 23 42  1  0
 24 23  1  0
 24 27  1  0
 25 26  1  0
 25 22  1  0
 26 24  2  0
 27 28  1  0
 28 29  2  0
 30 33  1  0
 30 29  1  0
 31 30  2  0
 32 31  1  0
 32 27  2  0
 33 34  1  0
 34 35  1  0
 35 36  2  0
 37 36  1  0
 37 41  1  0
 38 37  2  0
 39 34  2  0
 39 38  1  0
 40 39  1  0
 42 43  1  0
 43 46  1  0
 43 45  1  0
 44 42  2  0
 47 48  1  0
 47 22  1  0
 49 47  1  0
 50 53  1  0
 50 52  1  0
 50  1  1  0
 51 52  1  0
 53 54  1  0
 55 66  2  0
 56 54  1  0
 56 61  1  0
 57 65  1  0
 57 67  1  0
 58 64  1  0
 58 60  1  0
 59 65  1  0
 60 59  1  0
 61 60  2  0
 62 63  1  0
 62 56  2  0
 63 58  2  0
 64 57  1  0
 65 55  1  0
 67 69  2  0
 68 67  1  0
 70 68  1  0
 71 80  2  0
 71 76  1  0
 72 68  1  0
 72 76  1  0
 73 72  1  0
 74 75  1  0
 74 73  1  0
 75 71  1  0
 76 77  2  0
 77 78  1  0
 79 78  2  0
 80 79  1  0
 81 55  1  0
 81 82  1  0
 81 91  1  0
 82 85  1  0
 83 87  1  0
 83 82  1  0
 84 83  2  0
 87 86  1  0
 89 87  1  0
 89 90  1  0
 89 88  1  0
 91 94  1  1
 91 92  1  0
 93 91  1  0
M  ISO  4  13 100  14 100  53 101  54 101
M  END
>  <TORSDO>  (74) 
F 22

>  <SCORE>  (74) 
-12.716

>  <name>  (74) 
73

>  <ligand_id>  (74) 
73

>  <original_smiles>  (74) 
[H]c1c([H])c([H])c2c(c1[H])C([H])([H])C([H])([H])C([H])([H])C2([H])N([H])C(=O)C1([H])N(C(=O)C([H])(N([H])C(=O)C([H])(N([H])C([H])([H])[H])C([H])([H])[H])C(C([H])([H])[H])(C([H])([H])[H])C([H])([H])[H])C([H])([H])c2c([H])c(OC([H])([H])C([H])(C([H])([H])C([H])([H])[H])[N+]([H])([H])C3([H])C([H])([H])C3([H])c3c([H])c([H])c(OC(=O)N4C([H])([H])C([H])([H])C([H])([H])C([H])(n5nc(-c6c([H])c([H])c(Oc7c([H])c([H])c(F)c([H])c7F)c([H])c6[H])c(C(=O)N([H])[H])c5N([H])[H])C4([H])[H])c([H])c3[H])c([H])c([H])c2C1([H])[H]

>  <smiles>  (74) 
[H]c1c([H])c([H])c2c(c1[H])C([H])([H])C([H])([H])C([H])([H])C2([H])N([H])C(=O)C1([H])N(C(=O)C([H])(N([H])C(=O)C([H])(N([H])C([H])([H])[H])C([H])([H])[H])C(C([H])([H])[H])(C([H])([H])[H])C([H])([H])[H])C([H])([H])c2c([H])c(OC([H])([H])C([H])(C([H])([H])C([H])([H])[H])[N+]([H])([H])C3([H])C([H])([H])C3([H])c3c([H])c([H])c(OC(=O)N4C([H])([H])C([H])([H])C([H])([H])C([H])(n5nc(-c6c([H])c([H])c(Oc7c([H])c([H])c(F)c([H])c7F)c([H])c6[H])c(C(=O)N([H])[H])c5N([H])[H])C4([H])[H])c([H])c3[H])c([H])c([H])c2C1([H])[H]

$$$$
74:0:0
     RDKit          3D

 95105  0  0  1  0  0  0  0  0999 V2000
  -29.8330  -21.4820   17.3450 C   0  0  0  0  0  3  0  0  0  0  0  0
  -29.4240  -20.8300   20.0220 C   0  0  0  0  0  3  0  0  0  0  0  0
  -29.6710  -20.1320   17.7030 C   0  0  0  0  0  0  0  0  0  0  0  0
  -29.5610  -19.7600   19.0760 C   0  0  0  0  0  0  0  0  0  0  0  0
  -29.7860  -22.5150   18.2930 C   0  0  0  0  0  0  0  0  0  0  0  0
  -29.4690  -22.2150   19.6420 C   0  0  0  0  0  0  0  0  0  0  0  0
  -30.1430  -23.9120   17.8060 C   0  0  0  0  0  1  0  0  0  0  0  0
  -29.0100  -19.4970   15.2390 C   0  0  0  0  0  2  0  0  0  0  0  0
  -28.3600  -18.4680   16.1270 C   0  0  0  0  0  2  0  0  0  0  0  0
  -29.6410  -19.1400   16.5670 C   0  0  0  0  0  3  0  0  0  0  0  0
  -30.7480  -17.5100   18.9160 C   0  0  0  0  0  2  0  0  0  0  0  0
  -29.5180  -18.2460   19.4170 C   0  0  0  0  0  3  0  0  0  0  0  0
  -30.3780  -17.3190   20.3460 C   0  0  0  0  0  3  0  0  0  0  0  0
  -30.8110  -14.8430   20.4960 C   0  0  0  0  0  0  0  0  0  0  0  0
  -30.5830  -12.6480   19.4000 C   0  0  0  0  0  2  0  0  0  0  0  0
  -29.6630  -12.8260   18.1730 C   0  0  0  0  0  2  0  0  0  0  0  0
  -28.1850  -12.6630   18.5750 C   0  0  0  0  0  2  0  0  0  0  0  0
  -27.8070  -13.4980   19.8280 C   0  0  0  0  0  3  0  0  0  0  0  0
  -28.8490  -13.3250   20.9580 C   0  0  0  0  0  2  0  0  0  0  0  0
  -30.1710  -13.6450   20.4010 N   0  0  0  0  0  0  0  0  0  0  0  0
  -31.9960  -14.9780   20.1780 O   0  0  0  0  0  0  0  0  0  0  0  0
  -30.0170  -15.9360   20.6620 N   0  0  0  0  0  0  0  0  0  0  0  0
  -29.0540  -15.7580   20.9040 H   0  0  0  0  0  0  0  0  0  0  0  0
  -25.3930  -14.0670   20.5020 C   0  0  0  0  0  0  0  0  0  0  0  0
  -24.3310  -13.2790   20.8530 C   0  0  0  0  0  0  0  0  0  0  0  0
  -24.8120  -11.9340   20.8320 C   0  0  0  0  0  0  0  0  0  0  0  0
  -26.4540  -13.2010   20.2880 N   0  0  0  0  0  0  0  0  0  0  0  0
  -26.1070  -11.9130   20.5470 N   0  0  0  0  0  0  0  0  0  0  0  0
  -24.1000  -10.6620   21.0080 C   0  0  0  0  0  0  0  0  0  0  0  0
  -24.4980   -9.7220   21.9840 C   0  0  0  0  0  3  0  0  0  0  0  0
  -23.7870   -8.5140   22.1470 C   0  0  0  0  0  3  0  0  0  0  0  0
  -22.6620   -8.2380   21.3330 C   0  0  0  0  0  0  0  0  0  0  0  0
  -22.2840   -9.1660   20.3470 C   0  0  0  0  0  3  0  0  0  0  0  0
  -22.9960  -10.3660   20.1830 C   0  0  0  0  0  3  0  0  0  0  0  0
  -21.9250   -7.0800   21.4030 O   0  0  0  0  0  0  0  0  0  0  0  0
  -21.7930   -6.3810   22.5760 C   0  0  0  0  0  0  0  0  0  0  0  0
  -21.1930   -6.9510   23.7200 C   0  0  0  0  0  3  0  0  0  0  0  0
  -21.0140   -6.1740   24.8830 C   0  0  0  0  0  3  0  0  0  0  0  0
  -21.4250   -4.8270   24.9010 C   0  0  0  0  0  0  0  0  0  0  0  0
  -22.0170   -4.2570   23.7600 C   0  0  0  0  0  3  0  0  0  0  0  0
  -22.1980   -5.0300   22.6000 C   0  0  0  0  0  0  0  0  0  0  0  0
  -22.7490   -4.4700   21.4970 F   0  0  0  0  0  0  0  0  0  0  0  0
  -21.2470   -4.0790   26.0140 F   0  0  0  0  0  0  0  0  0  0  0  0
  -22.9220  -13.7370   21.0990 C   0  0  0  0  0  0  0  0  0  0  0  0
  -22.1850  -13.0240   21.9420 N   0  0  0  0  0  0  0  0  0  0  0  0
  -22.4820  -14.7610   20.5770 O   0  0  0  0  0  0  0  0  0  0  0  0
  -22.5520  -12.1940   22.3850 H   0  0  0  0  0  0  0  0  0  0  0  0
  -21.2380  -13.3110   22.1500 H   0  0  0  0  0  0  0  0  0  0  0  0
  -25.5400  -15.4390   20.3250 N   0  0  0  0  0  0  0  0  0  0  0  0
  -24.7590  -16.0790   20.4150 H   0  0  0  0  0  0  0  0  0  0  0  0
  -26.3790  -15.8900   19.9820 H   0  0  0  0  0  0  0  0  0  0  0  0
  -29.2980  -23.2210   20.5950 O   0  0  0  0  0  0  0  0  0  0  0  0
  -28.3200  -24.2820   20.3670 C   0  0  0  0  0  2  0  0  0  0  0  0
  -28.6330  -25.6100   21.1400 C   0  0  0  0  0  2  0  0  0  0  0  0
  -28.6250  -26.8660   20.4070 O   0  0  0  0  0  0  0  0  0  0  0  0
  -24.5820  -31.9940   23.3650 C   0  0  0  0  0  0  0  0  0  0  0  0
  -27.4450  -27.5890   20.3970 C   0  0  0  0  0  0  0  0  0  0  0  0
  -23.4720  -30.5550   21.6890 C   0  0  0  0  0  3  0  0  0  0  0  0
  -25.0150  -29.0510   20.3180 C   0  0  0  0  0  0  0  0  0  0  0  0
  -25.9940  -30.9800   21.5720 C   0  0  0  0  0  2  0  0  0  0  0  0
  -26.1410  -29.6070   20.9390 C   0  0  0  0  0  0  0  0  0  0  0  0
  -27.3630  -28.8860   20.9660 C   0  0  0  0  0  3  0  0  0  0  0  0
  -26.3010  -27.0530   19.7730 C   0  0  0  0  0  3  0  0  0  0  0  0
  -25.0920  -27.7760   19.7290 C   0  0  0  0  0  3  0  0  0  0  0  0
  -23.7470  -29.8770   20.3190 C   0  0  0  0  0  2  0  0  0  0  0  0
  -24.6980  -31.1940   22.2670 N   0  0  0  0  0  0  0  0  0  0  0  0
  -23.4760  -32.2340   23.8700 O   0  0  0  0  0  0  0  0  0  0  0  0
  -22.8180  -29.5190   22.6330 C   0  0  0  0  0  0  0  0  0  0  0  0
  -21.5110  -29.2750   22.4420 N   0  0  0  0  0  0  0  0  0  0  0  0
  -23.4860  -28.9360   23.4900 O   0  0  0  0  0  0  0  0  0  0  0  0
  -21.0320  -29.7990   21.7220 H   0  0  0  0  0  0  0  0  0  0  0  0
  -18.1770  -27.9190   22.7760 C   0  0  0  0  0  0  0  0  0  0  0  0
  -20.6990  -28.3090   23.1840 C   0  0  0  0  0  3  0  0  0  0  0  0
  -20.9050  -26.8770   22.6400 C   0  0  0  0  0  2  0  0  0  0  0  0
  -19.8790  -26.4840   21.5730 C   0  0  0  0  0  2  0  0  0  0  0  0
  -18.4570  -26.5700   22.1360 C   0  0  0  0  0  2  0  0  0  0  0  0
  -19.2310  -28.7420   23.2530 C   0  0  0  0  0  0  0  0  0  0  0  0
  -18.9170  -30.0020   23.8080 C   0  0  0  0  0  3  0  0  0  0  0  0
  -17.5820  -30.4400   23.8930 C   0  0  0  0  0  3  0  0  0  0  0  0
  -16.5420  -29.6140   23.4330 C   0  0  0  0  0  3  0  0  0  0  0  0
  -16.8390  -28.3550   22.8810 C   0  0  0  0  0  3  0  0  0  0  0  0
  -25.8280  -32.6650   24.0260 C   0  0  0  0  0  3  0  0  0  0  0  0
  -25.4910  -34.0720   24.2820 N   0  0  0  0  0  0  0  0  0  0  0  0
  -25.8540  -35.0970   23.5000 C   0  0  0  0  0  0  0  0  0  0  0  0
  -26.5790  -34.9580   22.5100 O   0  0  0  0  0  0  0  0  0  0  0  0
  -24.8530  -34.2520   25.0440 H   0  0  0  0  0  0  0  0  0  0  0  0
  -24.1440  -36.8630   22.9680 C   0  0  0  0  0  1  0  0  0  0  0  0
  -25.3310  -36.4970   23.8730 C   0  0  0  0  0  3  0  0  0  0  0  0
  -27.3930  -37.4360   24.8200 C   0  0  0  0  0  1  0  0  0  0  0  0
  -26.3650  -37.5520   23.7900 N   0  0  0  0  0  0  0  0  0  0  0  0
  -25.9440  -38.4750   23.8640 H   0  0  0  0  0  0  0  0  0  0  0  0
  -26.2860  -31.9500   25.3560 C   0  0  1  0  0  0  0  0  0  0  0  0
  -25.1390  -31.7250   26.3690 C   0  0  0  0  0  1  0  0  0  0  0  0
  -26.9180  -30.5740   25.0460 C   0  0  0  0  0  1  0  0  0  0  0  0
  -27.3820  -32.7920   26.0530 C   0  0  0  0  0  1  0  0  0  0  0  0
  1  3  2  0
  1  5  1  0
  3  4  1  0
  4  2  2  0
  5  6  2  0
  6  2  1  0
  6 52  1  0
  7  5  1  0
  8  9  1  0
  8 10  1  0
  9 10  1  0
 10  3  1  0
 11 12  1  0
 11 13  1  0
 12  4  1  0
 12 13  1  0
 13 22  1  0
 14 22  1  0
 15 20  1  0
 16 17  1  0
 16 15  1  0
 18 17  1  0
 18 27  1  0
 18 19  1  0
 20 14  1  0
 20 19  1  0
 21 14  2  0
 22 23  1  0
 24 25  2  0
 25 44  1  0
 26 25  1  0
 26 29  1  0
 27 24  1  0
 27 28  1  0
 28 26  2  0
 29 30  1  0
 30 31  2  0
 32 35  1  0
 32 31  1  0
 33 32  2  0
 34 33  1  0
 34 29  2  0
 35 36  1  0
 36 41  2  0
 36 37  1  0
 37 38  2  0
 38 39  1  0
 39 43  1  0
 40 39  2  0
 41 40  1  0
 42 41  1  0
 44 45  1  0
 45 48  1  0
 45 47  1  0
 46 44  2  0
 49 50  1  0
 49 24  1  0
 51 49  1  0
 53 52  1  0
 53 54  1  0
 55 54  1  0
 56 67  2  0
 57 55  1  0
 57 62  1  0
 58 66  1  0
 58 68  1  0
 59 65  1  0
 59 61  1  0
 60 66  1  0
 61 62  2  0
 61 60  1  0
 63 57  2  0
 64 63  1  0
 64 59  2  0
 65 58  1  0
 66 56  1  0
 68 70  2  0
 69 68  1  0
 71 69  1  0
 72 81  2  0
 72 77  1  0
 73 69  1  0
 73 77  1  0
 74 73  1  0
 75 76  1  0
 75 74  1  0
 76 72  1  0
 77 78  2  0
 78 79  1  0
 80 79  2  0
 81 80  1  0
 82 56  1  0
 82 83  1  0
 82 92  1  0
 83 86  1  0
 84 88  1  0
 84 83  1  0
 85 84  2  0
 88 87  1  0
 90 91  1  0
 90 88  1  0
 90 89  1  0
 92 95  1  1
 92 93  1  0
 94 92  1  0
M  ISO  4  14 100  22 100  54 101  55 101
M  END
>  <TORSDO>  (75) 
F 21

>  <SCORE>  (75) 
-13.316

>  <name>  (75) 
74

>  <ligand_id>  (75) 
74

>  <original_smiles>  (75) 
[H]c1c([H])c([H])c2c(c1[H])C([H])([H])C([H])([H])C([H])([H])C2([H])N([H])C(=O)C1([H])N(C(=O)C([H])(N([H])C(=O)C([H])(N([H])C([H])([H])[H])C([H])([H])[H])C(C([H])([H])[H])(C([H])([H])[H])C([H])([H])[H])C([H])([H])c2c([H])c(OC([H])([H])C([H])([H])Oc3c([H])c(C4([H])C([H])([H])C4([H])N([H])C(=O)N4C([H])([H])C([H])([H])C([H])([H])C([H])(n5nc(-c6c([H])c([H])c(Oc7c([H])c([H])c(F)c([H])c7F)c([H])c6[H])c(C(=O)N([H])[H])c5N([H])[H])C4([H])[H])c(C4([H])C([H])([H])C4([H])[H])c([H])c3C([H])([H])[H])c([H])c([H])c2C1([H])[H]

>  <smiles>  (75) 
[H]c1c([H])c([H])c2c(c1[H])C([H])([H])C([H])([H])C([H])([H])C2([H])N([H])C(=O)C1([H])N(C(=O)C([H])(N([H])C(=O)C([H])(N([H])C([H])([H])[H])C([H])([H])[H])C(C([H])([H])[H])(C([H])([H])[H])C([H])([H])[H])C([H])([H])c2c([H])c(OC([H])([H])C([H])([H])Oc3c([H])c(C4([H])C([H])([H])C4([H])N([H])C(=O)N4C([H])([H])C([H])([H])C([H])([H])C([H])(n5nc(-c6c([H])c([H])c(Oc7c([H])c([H])c(F)c([H])c7F)c([H])c6[H])c(C(=O)N([H])[H])c5N([H])[H])C4([H])[H])c(C4([H])C([H])([H])C4([H])[H])c([H])c3C([H])([H])[H])c([H])c([H])c2C1([H])[H]

$$$$
75:0:0
     RDKit          3D

 98107  0  0  1  0  0  0  0  0999 V2000
  -27.7680  -17.4990   19.8070 C   0  0  0  0  0  3  0  0  0  0  0  0
  -28.8360  -18.3400   19.4180 C   0  0  0  0  0  0  0  0  0  0  0  0
  -28.5150  -19.5760   18.7170 C   0  0  0  0  0  0  0  0  0  0  0  0
  -27.1480  -19.7990   18.3330 C   0  0  0  0  0  0  0  0  0  0  0  0
  -26.1080  -18.9600   18.8140 C   0  0  0  0  0  0  0  0  0  0  0  0
  -26.4300  -17.8340   19.5890 C   0  0  0  0  0  0  0  0  0  0  0  0
  -26.7600  -20.9180   17.3620 C   0  0  0  0  0  1  0  0  0  0  0  0
  -24.6340  -19.2300   18.5210 C   0  0  0  0  0  1  0  0  0  0  0  0
  -31.3890  -14.3990   21.0010 C   0  0  0  0  0  0  0  0  0  0  0  0
  -31.3950  -11.9240   20.8900 C   0  0  0  0  0  2  0  0  0  0  0  0
  -30.8270  -11.4910   19.5220 C   0  0  0  0  0  2  0  0  0  0  0  0
  -29.2910  -11.3660   19.5920 C   0  0  0  0  0  2  0  0  0  0  0  0
  -28.6190  -12.6020   20.2460 C   0  0  0  0  0  3  0  0  0  0  0  0
  -29.3340  -13.0290   21.5480 C   0  0  0  0  0  2  0  0  0  0  0  0
  -30.7570  -13.2080   21.2360 N   0  0  0  0  0  0  0  0  0  0  0  0
  -32.6210  -14.4710   20.9760 O   0  0  0  0  0  0  0  0  0  0  0  0
  -30.8050  -16.9570   18.5800 C   0  0  0  0  0  2  0  0  0  0  0  0
  -30.5450  -15.5050   19.0040 C   0  0  0  0  0  2  0  0  0  0  0  0
  -30.2780  -17.8130   19.7230 C   0  0  0  0  0  3  0  0  0  0  0  0
  -30.5080  -16.8360   20.9660 C   0  0  0  0  0  3  0  0  0  0  0  0
  -30.6290  -15.4190   20.4720 N   0  0  0  0  0  0  0  0  0  0  0  0
  -26.1510  -13.3030   20.2790 C   0  0  0  0  0  0  0  0  0  0  0  0
  -25.0000  -12.5990   20.5120 C   0  0  0  0  0  0  0  0  0  0  0  0
  -25.4100  -11.2640   20.8110 C   0  0  0  0  0  0  0  0  0  0  0  0
  -27.1890  -12.4000   20.4450 N   0  0  0  0  0  0  0  0  0  0  0  0
  -26.7350  -11.1800   20.8270 N   0  0  0  0  0  0  0  0  0  0  0  0
  -24.6180  -10.0480   21.0320 C   0  0  0  0  0  0  0  0  0  0  0  0
  -24.8650   -9.1970   22.1310 C   0  0  0  0  0  3  0  0  0  0  0  0
  -24.0780   -8.0430   22.3330 C   0  0  0  0  0  3  0  0  0  0  0  0
  -23.0320   -7.7300   21.4350 C   0  0  0  0  0  0  0  0  0  0  0  0
  -22.8050   -8.5680   20.3290 C   0  0  0  0  0  3  0  0  0  0  0  0
  -23.5910   -9.7140   20.1260 C   0  0  0  0  0  3  0  0  0  0  0  0
  -22.2330   -6.6170   21.5380 O   0  0  0  0  0  0  0  0  0  0  0  0
  -21.9650   -6.0320   22.7490 C   0  0  0  0  0  0  0  0  0  0  0  0
  -21.4000   -6.7600   23.8180 C   0  0  0  0  0  3  0  0  0  0  0  0
  -21.0760   -6.1050   25.0230 C   0  0  0  0  0  3  0  0  0  0  0  0
  -21.3070   -4.7230   25.1600 C   0  0  0  0  0  0  0  0  0  0  0  0
  -21.8610   -3.9940   24.0930 C   0  0  0  0  0  3  0  0  0  0  0  0
  -22.1870   -4.6470   22.8910 C   0  0  0  0  0  0  0  0  0  0  0  0
  -22.7050   -3.9360   21.8620 F   0  0  0  0  0  0  0  0  0  0  0  0
  -20.9900   -4.0920   26.3150 F   0  0  0  0  0  0  0  0  0  0  0  0
  -23.5950  -13.1070   20.3660 C   0  0  0  0  0  0  0  0  0  0  0  0
  -22.6680  -12.5880   21.1650 N   0  0  0  0  0  0  0  0  0  0  0  0
  -23.3190  -14.0030   19.5720 O   0  0  0  0  0  0  0  0  0  0  0  0
  -22.8970  -11.8650   21.8290 H   0  0  0  0  0  0  0  0  0  0  0  0
  -21.7160  -12.9200   21.1060 H   0  0  0  0  0  0  0  0  0  0  0  0
  -26.3980  -14.6220   19.9210 N   0  0  0  0  0  0  0  0  0  0  0  0
  -25.6570  -15.3120   19.8550 H   0  0  0  0  0  0  0  0  0  0  0  0
  -27.3190  -15.0250   19.8150 H   0  0  0  0  0  0  0  0  0  0  0  0
  -31.4420  -18.6770   22.5020 C   0  0  0  0  0  1  0  0  0  0  0  0
  -31.6940  -17.3110   21.8440 C   0  0  0  0  0  2  0  0  0  0  0  0
  -25.0770  -17.3620   21.4370 C   0  0  0  0  0  1  0  0  0  0  0  0
  -25.4620  -17.0160   20.1110 O   0  0  0  0  0  0  0  0  0  0  0  0
  -29.5760  -20.6390   18.2850 C   0  0  0  0  0  2  0  0  0  0  0  0
  -29.7040  -21.9570   19.1650 C   0  0  0  0  0  2  0  0  0  0  0  0
  -29.6250  -23.3510   18.4220 C   0  0  0  0  0  3  0  0  0  0  0  0
  -29.4870  -24.6260   19.3330 C   0  0  0  0  0  3  0  0  0  0  0  0
  -29.5000  -25.9200   18.6580 O   0  0  0  0  0  0  0  0  0  0  0  0
  -26.5400  -30.2720   23.5090 C   0  0  0  0  0  0  0  0  0  0  0  0
  -28.4690  -26.7870   18.9840 C   0  0  0  0  0  0  0  0  0  0  0  0
  -25.1010  -29.6180   21.6090 C   0  0  0  0  0  3  0  0  0  0  0  0
  -26.2940  -28.4840   19.6510 C   0  0  0  0  0  0  0  0  0  0  0  0
  -27.6420  -29.7560   21.3270 C   0  0  0  0  0  2  0  0  0  0  0  0
  -27.5340  -28.6620   20.2790 C   0  0  0  0  0  0  0  0  0  0  0  0
  -28.6310  -27.8270   19.9350 C   0  0  0  0  0  3  0  0  0  0  0  0
  -27.2170  -26.6410   18.3520 C   0  0  0  0  0  3  0  0  0  0  0  0
  -26.1330  -27.4780   18.6810 C   0  0  0  0  0  3  0  0  0  0  0  0
  -25.1670  -29.4050   20.0700 C   0  0  0  0  0  2  0  0  0  0  0  0
  -26.4510  -29.8760   22.2060 N   0  0  0  0  0  0  0  0  0  0  0  0
  -25.5240  -30.4620   24.1940 O   0  0  0  0  0  0  0  0  0  0  0  0
  -24.3690  -28.4120   22.2430 C   0  0  0  0  0  0  0  0  0  0  0  0
  -23.0380  -28.3630   22.0830 N   0  0  0  0  0  0  0  0  0  0  0  0
  -25.0010  -27.5350   22.8390 O   0  0  0  0  0  0  0  0  0  0  0  0
  -22.5930  -29.1280   21.5960 H   0  0  0  0  0  0  0  0  0  0  0  0
  -19.6000  -27.2480   22.1530 C   0  0  0  0  0  0  0  0  0  0  0  0
  -22.1520  -27.3000   22.5560 C   0  0  0  0  0  3  0  0  0  0  0  0
  -22.2210  -26.0620   21.6320 C   0  0  0  0  0  2  0  0  0  0  0  0
  -21.1510  -26.0700   20.5360 C   0  0  0  0  0  2  0  0  0  0  0  0
  -19.7510  -26.1110   21.1550 C   0  0  0  0  0  2  0  0  0  0  0  0
  -20.7290  -27.8160   22.7980 C   0  0  0  0  0  0  0  0  0  0  0  0
  -20.5390  -28.8930   23.6900 C   0  0  0  0  0  3  0  0  0  0  0  0
  -19.2490  -29.4010   23.9390 C   0  0  0  0  0  3  0  0  0  0  0  0
  -18.1330  -28.8260   23.3090 C   0  0  0  0  0  3  0  0  0  0  0  0
  -18.3080  -27.7470   22.4220 C   0  0  0  0  0  3  0  0  0  0  0  0
  -27.9180  -30.5310   24.1930 C   0  0  0  0  0  3  0  0  0  0  0  0
  -27.7980  -31.7690   24.9760 N   0  0  0  0  0  0  0  0  0  0  0  0
  -28.3230  -32.9480   24.6180 C   0  0  0  0  0  0  0  0  0  0  0  0
  -29.0280  -33.0920   23.6150 O   0  0  0  0  0  0  0  0  0  0  0  0
  -27.1910  -31.7370   25.7820 H   0  0  0  0  0  0  0  0  0  0  0  0
  -26.9340  -35.0300   24.8580 C   0  0  0  0  0  1  0  0  0  0  0  0
  -28.0200  -34.1640   25.5150 C   0  0  0  0  0  3  0  0  0  0  0  0
  -30.1840  -34.3240   26.6640 C   0  0  0  0  0  1  0  0  0  0  0  0
  -29.2100  -34.9940   25.8050 N   0  0  0  0  0  0  0  0  0  0  0  0
  -28.9410  -35.8650   26.2510 H   0  0  0  0  0  0  0  0  0  0  0  0
  -28.3920  -29.3380   25.1100 C   0  0  1  0  0  0  0  0  0  0  0  0
  -27.3290  -28.8870   26.1400 C   0  0  0  0  0  1  0  0  0  0  0  0
  -28.7700  -28.1100   24.2500 C   0  0  0  0  0  1  0  0  0  0  0  0
  -29.6670  -29.7440   25.8840 C   0  0  0  0  0  1  0  0  0  0  0  0
  2  1  2  0
  3  2  1  0
  4  3  2  0
  4  5  1  0
  5  6  2  0
  6  1  1  0
  6 53  1  0
  7  4  1  0
  8  5  1  0
  9 15  1  0
 10 15  1  0
 11 12  1  0
 11 10  1  0
 13 12  1  0
 13 25  1  0
 13 14  1  0
 15 14  1  0
 16  9  2  0
 17 18  1  0
 17 19  1  0
 18 21  1  0
 19  2  1  0
 19 20  1  0
 20 51  1  0
 21 20  1  0
 21  9  1  0
 22 25  1  0
 22 23  2  0
 23 24  1  0
 24 26  2  0
 24 27  1  0
 25 26  1  0
 27 28  1  0
 28 29  2  0
 30 33  1  0
 30 29  1  0
 31 30  2  0
 32 31  1  0
 32 27  2  0
 33 34  1  0
 34 39  2  0
 34 35  1  0
 35 36  2  0
 36 37  1  0
 37 41  1  0
 38 37  2  0
 39 38  1  0
 40 39  1  0
 42 23  1  0
 42 43  1  0
 43 45  1  0
 44 42  2  0
 46 43  1  0
 47 22  1  0
 48 47  1  0
 49 47  1  0
 51 50  1  0
 53 52  1  0
 54  3  1  0
 54 55  1  0
 56 55  1  0
 56 57  2  0
 58 60  1  0
 58 57  1  0
 59 70  2  0
 60 65  1  0
 61 69  1  0
 61 71  1  0
 62 68  1  0
 62 64  1  0
 63 69  1  0
 64 63  1  0
 65 64  2  0
 66 67  1  0
 66 60  2  0
 67 62  2  0
 68 61  1  0
 69 59  1  0
 71 73  2  0
 72 71  1  0
 74 72  1  0
 75 84  2  0
 75 80  1  0
 76 72  1  0
 76 80  1  0
 77 76  1  0
 78 79  1  0
 78 77  1  0
 79 75  1  0
 80 81  2  0
 81 82  1  0
 83 82  2  0
 84 83  1  0
 85 59  1  0
 85 86  1  0
 85 95  1  0
 86 89  1  0
 87 86  1  0
 87 91  1  0
 88 87  2  0
 91 90  1  0
 91 93  1  0
 93 94  1  0
 93 92  1  0
 95 98  1  1
 95 96  1  0
 97 95  1  0
M  ISO  4   9 100  21 100  57 101  58 101
M  END
>  <TORSDO>  (76) 
F 22

>  <SCORE>  (76) 
-4.118

>  <name>  (76) 
75

>  <ligand_id>  (76) 
75

>  <original_smiles>  (76) 
[H]c1c([H])c([H])c2c(c1[H])C([H])([H])C([H])([H])C([H])([H])C2([H])N([H])C(=O)C1([H])N(C(=O)C([H])(N([H])C(=O)C([H])(N([H])C([H])([H])[H])C([H])([H])[H])C(C([H])([H])[H])(C([H])([H])[H])C([H])([H])[H])C([H])([H])c2c([H])c(OC([H])([H])C([H])([H])C([H])([H])C([H])([H])c3c(C([H])([H])[H])c(C([H])([H])[H])c(OC([H])([H])[H])c([H])c3C3([H])C([H])([H])C([H])([H])N(C(=O)N4C([H])([H])C([H])([H])C([H])([H])C([H])(n5nc(-c6c([H])c([H])c(Oc7c([H])c([H])c(F)c([H])c7F)c([H])c6[H])c(C(=O)N([H])[H])c5N([H])[H])C4([H])[H])C3([H])C([H])([H])C([H])([H])[H])c([H])c([H])c2C1([H])[H]

>  <smiles>  (76) 
[H]c1c([H])c([H])c2c(c1[H])C([H])([H])C([H])([H])C([H])([H])C2([H])N([H])C(=O)C1([H])N(C(=O)C([H])(N([H])C(=O)C([H])(N([H])C([H])([H])[H])C([H])([H])[H])C(C([H])([H])[H])(C([H])([H])[H])C([H])([H])[H])C([H])([H])c2c([H])c(OC([H])([H])C([H])([H])C([H])([H])C([H])([H])c3c(C([H])([H])[H])c(C([H])([H])[H])c(OC([H])([H])[H])c([H])c3C3([H])C([H])([H])C([H])([H])N(C(=O)N4C([H])([H])C([H])([H])C([H])([H])C([H])(n5nc(-c6c([H])c([H])c(Oc7c([H])c([H])c(F)c([H])c7F)c([H])c6[H])c(C(=O)N([H])[H])c5N([H])[H])C4([H])[H])C3([H])C([H])([H])C([H])([H])[H])c([H])c([H])c2C1([H])[H]

$$$$
76:0:0
     RDKit          3D

 99109  0  0  1  0  0  0  0  0999 V2000
  -31.8050  -21.2260   20.8860 C   0  0  0  0  0  3  0  0  0  0  0  0
  -31.0700  -18.9220   20.7160 C   0  0  0  0  0  0  0  0  0  0  0  0
  -32.1140  -19.8500   20.9320 C   0  0  0  0  0  0  0  0  0  0  0  0
  -30.4870  -21.6190   20.6110 C   0  0  0  0  0  0  0  0  0  0  0  0
  -29.7760  -19.4170   20.4520 C   0  0  0  0  0  0  0  0  0  0  0  0
  -29.4910  -20.7350   20.4100 N   0  0  0  0  0  0  0  0  0  0  0  0
  -29.2350  -23.5690   21.6760 C   0  0  0  0  0  2  0  0  0  0  0  0
  -29.4770  -23.4370   19.1510 C   0  0  0  0  0  2  0  0  0  0  0  0
  -28.9640  -25.0800   21.5720 C   0  0  0  0  0  2  0  0  0  0  0  0
  -29.1950  -24.9430   19.0350 C   0  0  0  0  0  2  0  0  0  0  0  0
  -30.1210  -23.0930   20.5080 C   0  0  0  0  0  3  0  0  0  0  0  0
  -28.3510  -25.4570   20.2120 C   0  0  0  0  0  3  0  0  0  0  0  0
  -28.3510  -26.8790   20.1330 O   0  0  0  0  0  0  0  0  0  0  0  0
  -24.5650  -31.9340   23.3370 C   0  0  0  0  0  0  0  0  0  0  0  0
  -27.1510  -27.5460   20.1670 C   0  0  0  0  0  0  0  0  0  0  0  0
  -23.3330  -30.5700   21.6800 C   0  0  0  0  0  3  0  0  0  0  0  0
  -24.7610  -29.0440   20.2210 C   0  0  0  0  0  0  0  0  0  0  0  0
  -25.8560  -30.9200   21.4640 C   0  0  0  0  0  2  0  0  0  0  0  0
  -25.9230  -29.5590   20.8060 C   0  0  0  0  0  0  0  0  0  0  0  0
  -27.1200  -28.8160   20.7770 C   0  0  0  0  0  3  0  0  0  0  0  0
  -25.9730  -27.0400   19.5710 C   0  0  0  0  0  3  0  0  0  0  0  0
  -24.7780  -27.7820   19.6020 C   0  0  0  0  0  3  0  0  0  0  0  0
  -23.5230  -29.9090   20.2880 C   0  0  0  0  0  2  0  0  0  0  0  0
  -24.6040  -31.1550   22.2190 N   0  0  0  0  0  0  0  0  0  0  0  0
  -23.4910  -32.2050   23.8900 O   0  0  0  0  0  0  0  0  0  0  0  0
  -22.6830  -29.5380   22.6270 C   0  0  0  0  0  0  0  0  0  0  0  0
  -21.3620  -29.3510   22.4870 N   0  0  0  0  0  0  0  0  0  0  0  0
  -23.3650  -28.9070   23.4390 O   0  0  0  0  0  0  0  0  0  0  0  0
  -20.8730  -29.9140   21.8050 H   0  0  0  0  0  0  0  0  0  0  0  0
  -17.9890  -28.1390   22.9400 C   0  0  0  0  0  0  0  0  0  0  0  0
  -20.5430  -28.4020   23.2420 C   0  0  0  0  0  3  0  0  0  0  0  0
  -20.6570  -26.9760   22.6550 C   0  0  0  0  0  2  0  0  0  0  0  0
  -19.5660  -26.6570   21.6270 C   0  0  0  0  0  2  0  0  0  0  0  0
  -18.1770  -26.7940   22.2580 C   0  0  0  0  0  2  0  0  0  0  0  0
  -19.1000  -28.9010   23.3880 C   0  0  0  0  0  0  0  0  0  0  0  0
  -18.8710  -30.1600   23.9830 C   0  0  0  0  0  3  0  0  0  0  0  0
  -17.5640  -30.6580   24.1360 C   0  0  0  0  0  3  0  0  0  0  0  0
  -16.4670  -29.8910   23.7070 C   0  0  0  0  0  3  0  0  0  0  0  0
  -16.6800  -28.6340   23.1150 C   0  0  0  0  0  3  0  0  0  0  0  0
  -25.8620  -32.5420   23.9570 C   0  0  0  0  0  3  0  0  0  0  0  0
  -25.5810  -33.9450   24.2830 N   0  0  0  0  0  0  0  0  0  0  0  0
  -25.9100  -34.9860   23.5040 C   0  0  0  0  0  0  0  0  0  0  0  0
  -26.5560  -34.8630   22.4590 O   0  0  0  0  0  0  0  0  0  0  0  0
  -25.0060  -34.1160   25.0940 H   0  0  0  0  0  0  0  0  0  0  0  0
  -24.1820  -36.7830   23.1860 C   0  0  0  0  0  1  0  0  0  0  0  0
  -25.4500  -36.3840   23.9580 C   0  0  0  0  0  3  0  0  0  0  0  0
  -27.6170  -37.2680   24.7020 C   0  0  0  0  0  1  0  0  0  0  0  0
  -26.4850  -37.4280   23.7910 N   0  0  0  0  0  0  0  0  0  0  0  0
  -26.0900  -38.3520   23.9380 H   0  0  0  0  0  0  0  0  0  0  0  0
  -26.3660  -31.7620   25.2340 C   0  0  1  0  0  0  0  0  0  0  0  0
  -25.2670  -31.5330   26.2970 C   0  0  0  0  0  1  0  0  0  0  0  0
  -26.9310  -30.3790   24.8350 C   0  0  0  0  0  1  0  0  0  0  0  0
  -27.5230  -32.5390   25.9040 C   0  0  0  0  0  1  0  0  0  0  0  0
  -32.1360  -16.7660   21.7940 C   0  0  0  0  0  2  0  0  0  0  0  0
  -31.3480  -17.4480   20.6960 C   0  0  0  0  0  3  0  0  0  0  0  0
  -30.6540  -16.4820   21.6480 C   0  0  0  0  0  3  0  0  0  0  0  0
  -30.6260  -14.4030   20.2150 C   0  0  0  0  0  0  0  0  0  0  0  0
  -30.1750  -12.3720   18.8890 C   0  0  0  0  0  2  0  0  0  0  0  0
  -29.1650  -12.6670   17.7650 C   0  0  0  0  0  2  0  0  0  0  0  0
  -27.7190  -12.5120   18.2750 C   0  0  0  0  0  2  0  0  0  0  0  0
  -27.4740  -13.2830   19.5990 C   0  0  0  0  0  3  0  0  0  0  0  0
  -28.5850  -12.9730   20.6270 C   0  0  0  0  0  2  0  0  0  0  0  0
  -29.8900  -13.2790   20.0120 N   0  0  0  0  0  0  0  0  0  0  0  0
  -31.6170  -14.6820   19.5340 O   0  0  0  0  0  0  0  0  0  0  0  0
  -30.1920  -15.1890   21.2130 N   0  0  0  0  0  0  0  0  0  0  0  0
  -29.3850  -14.8320   21.7040 H   0  0  0  0  0  0  0  0  0  0  0  0
  -25.1140  -13.8750   20.4450 C   0  0  0  0  0  0  0  0  0  0  0  0
  -24.0650  -13.0930   20.8530 C   0  0  0  0  0  0  0  0  0  0  0  0
  -24.5240  -11.7420   20.7670 C   0  0  0  0  0  0  0  0  0  0  0  0
  -26.1450  -12.9980   20.1390 N   0  0  0  0  0  0  0  0  0  0  0  0
  -25.7950  -11.7100   20.3860 N   0  0  0  0  0  0  0  0  0  0  0  0
  -23.8090  -10.4760   20.9680 C   0  0  0  0  0  0  0  0  0  0  0  0
  -24.2600   -9.5100   21.8950 C   0  0  0  0  0  3  0  0  0  0  0  0
  -23.5430   -8.3070   22.0800 C   0  0  0  0  0  3  0  0  0  0  0  0
  -22.3640   -8.0620   21.3380 C   0  0  0  0  0  0  0  0  0  0  0  0
  -21.9340   -9.0160   20.3990 C   0  0  0  0  0  3  0  0  0  0  0  0
  -22.6510  -10.2090   20.2110 C   0  0  0  0  0  3  0  0  0  0  0  0
  -21.6170   -6.9120   21.4330 O   0  0  0  0  0  0  0  0  0  0  0  0
  -21.5520   -6.1920   22.6000 C   0  0  0  0  0  0  0  0  0  0  0  0
  -21.0940   -6.7670   23.8050 C   0  0  0  0  0  3  0  0  0  0  0  0
  -20.9780   -5.9720   24.9630 C   0  0  0  0  0  3  0  0  0  0  0  0
  -21.3070   -4.6040   24.9160 C   0  0  0  0  0  0  0  0  0  0  0  0
  -21.7560   -4.0290   23.7150 C   0  0  0  0  0  3  0  0  0  0  0  0
  -21.8760   -4.8200   22.5590 C   0  0  0  0  0  0  0  0  0  0  0  0
  -22.2890   -4.2570   21.3990 F   0  0  0  0  0  0  0  0  0  0  0  0
  -21.1880   -3.8390   26.0260 F   0  0  0  0  0  0  0  0  0  0  0  0
  -22.6860  -13.5640   21.2150 C   0  0  0  0  0  0  0  0  0  0  0  0
  -22.0060  -12.8450   22.1020 N   0  0  0  0  0  0  0  0  0  0  0  0
  -22.2210  -14.6030   20.7490 O   0  0  0  0  0  0  0  0  0  0  0  0
  -22.3920  -12.0000   22.4970 H   0  0  0  0  0  0  0  0  0  0  0  0
  -21.0830  -13.1390   22.3860 H   0  0  0  0  0  0  0  0  0  0  0  0
  -25.2750  -15.2480   20.2900 N   0  0  0  0  0  0  0  0  0  0  0  0
  -24.5210  -15.9060   20.4480 H   0  0  0  0  0  0  0  0  0  0  0  0
  -26.1170  -15.6840   19.9370 H   0  0  0  0  0  0  0  0  0  0  0  0
  -27.4900  -19.0500   19.7920 C   0  0  0  0  0  1  0  0  0  0  0  0
  -28.7510  -18.5290   20.2020 O   0  0  0  0  0  0  0  0  0  0  0  0
  -33.3840  -19.3590   21.1580 O   0  0  0  0  0  0  0  0  0  0  0  0
  -35.7500  -19.5140   21.5250 C   0  0  0  0  0  1  0  0  0  0  0  0
  -34.4410  -20.2890   21.3540 C   0  0  0  0  0  2  0  0  0  0  0  0
  1  3  1  0
  2  3  2  0
  3 97  1  0
  4  1  2  0
  5  2  1  0
  6  5  2  0
  6  4  1  0
  8 11  1  0
  9  7  1  0
 10  8  1  0
 10 12  1  0
 11  4  1  0
 11  7  1  0
 12 13  1  0
 12  9  1  0
 13 15  1  0
 14 25  2  0
 15 20  1  0
 16 24  1  0
 16 26  1  0
 17 23  1  0
 17 19  1  0
 18 24  1  0
 19 18  1  0
 20 19  2  0
 21 22  1  0
 21 15  2  0
 22 17  2  0
 23 16  1  0
 24 14  1  0
 26 28  2  0
 27 26  1  0
 29 27  1  0
 30 39  2  0
 30 35  1  0
 31 27  1  0
 31 35  1  0
 32 31  1  0
 33 34  1  0
 33 32  1  0
 34 30  1  0
 35 36  2  0
 36 37  1  0
 38 37  2  0
 39 38  1  0
 40 14  1  0
 40 41  1  0
 40 50  1  0
 41 44  1  0
 42 46  1  0
 42 41  1  0
 43 42  2  0
 46 45  1  0
 48 49  1  0
 48 46  1  0
 48 47  1  0
 50 53  1  1
 50 51  1  0
 52 50  1  0
 55  2  1  0
 55 56  1  0
 55 54  1  0
 56 65  1  0
 56 54  1  0
 57 65  1  0
 58 63  1  0
 59 60  1  0
 59 58  1  0
 61 60  1  0
 61 70  1  0
 61 62  1  0
 63 57  1  0
 63 62  1  0
 64 57  2  0
 65 66  1  0
 67 68  2  0
 68 87  1  0
 69 68  1  0
 69 72  1  0
 70 71  1  0
 70 67  1  0
 71 69  2  0
 72 73  1  0
 73 74  2  0
 75 78  1  0
 75 74  1  0
 76 75  2  0
 77 76  1  0
 77 72  2  0
 78 79  1  0
 79 80  1  0
 80 81  2  0
 82 81  1  0
 82 86  1  0
 83 82  2  0
 84 79  2  0
 84 83  1  0
 85 84  1  0
 87 88  1  0
 88 91  1  0
 88 90  1  0
 89 87  2  0
 92 67  1  0
 92 93  1  0
 94 92  1  0
 95 96  1  0
 96  5  1  0
 97 99  1  0
 99 98  1  0
M  ISO  4  12 101  13 101  57 100  65 100
M  END
>  <TORSDO>  (77) 
F 21

>  <SCORE>  (77) 
-12.968

>  <name>  (77) 
76

>  <ligand_id>  (77) 
76

>  <original_smiles>  (77) 
[H]c1c([H])c([H])c2c(c1[H])C([H])([H])C([H])([H])C([H])([H])C2([H])N([H])C(=O)C1([H])N(C(=O)C([H])(N([H])C(=O)C([H])(N([H])C([H])([H])[H])C([H])([H])[H])C(C([H])([H])[H])(C([H])([H])[H])C([H])([H])[H])C([H])([H])c2c([H])c(OC3([H])C([H])([H])C([H])([H])C([H])(c4nc(OC([H])([H])[H])c(C5([H])C([H])([H])C5([H])N([H])C(=O)N5C([H])([H])C([H])([H])C([H])([H])C([H])(n6nc(-c7c([H])c([H])c(Oc8c([H])c([H])c(F)c([H])c8F)c([H])c7[H])c(C(=O)N([H])[H])c6N([H])[H])C5([H])[H])c(OC([H])([H])C([H])([H])[H])c4[H])C([H])([H])C3([H])[H])c([H])c([H])c2C1([H])[H]

>  <smiles>  (77) 
[H]c1c([H])c([H])c2c(c1[H])C([H])([H])C([H])([H])C([H])([H])C2([H])N([H])C(=O)C1([H])N(C(=O)C([H])(N([H])C(=O)C([H])(N([H])C([H])([H])[H])C([H])([H])[H])C(C([H])([H])[H])(C([H])([H])[H])C([H])([H])[H])C([H])([H])c2c([H])c(OC3([H])C([H])([H])C([H])([H])C([H])(c4nc(OC([H])([H])[H])c(C5([H])C([H])([H])C5([H])N([H])C(=O)N5C([H])([H])C([H])([H])C([H])([H])C([H])(n6nc(-c7c([H])c([H])c(Oc8c([H])c([H])c(F)c([H])c8F)c([H])c7[H])c(C(=O)N([H])[H])c6N([H])[H])C5([H])[H])c(OC([H])([H])C([H])([H])[H])c4[H])C([H])([H])C3([H])[H])c([H])c([H])c2C1([H])[H]

$$$$
77:0:0
     RDKit          3D

 94102  0  0  1  0  0  0  0  0999 V2000
  -30.0570  -21.4410   20.6090 C   0  0  0  0  0  2  0  0  0  0  0  0
  -31.1730  -20.3710   20.6140 C   0  0  0  0  0  2  0  0  0  0  0  0
  -30.2220  -17.9370   18.0100 C   0  0  0  0  0  3  0  0  0  0  0  0
  -29.9100  -16.7680   18.7870 C   0  0  0  0  0  3  0  0  0  0  0  0
  -30.6360  -19.0300   18.6600 C   0  0  0  0  0  3  0  0  0  0  0  0
  -30.0610  -16.7610   20.1330 C   0  0  0  0  0  0  0  0  0  0  0  0
  -30.4490  -17.9890   20.8540 C   0  0  0  0  0  0  0  0  0  0  0  0
  -30.7210  -19.0820   20.0650 N   0  0  0  0  0  0  0  0  0  0  0  0
  -30.5280  -18.0350   22.0880 O   0  0  0  0  0  0  0  0  0  0  0  0
  -30.7110  -14.4880   20.4980 C   0  0  0  0  0  0  0  0  0  0  0  0
  -30.4150  -12.3720   19.3100 C   0  0  0  0  0  2  0  0  0  0  0  0
  -29.4740  -12.6370   18.1170 C   0  0  0  0  0  2  0  0  0  0  0  0
  -28.0090  -12.4420   18.5440 C   0  0  0  0  0  2  0  0  0  0  0  0
  -27.6650  -13.2570   19.8180 C   0  0  0  0  0  3  0  0  0  0  0  0
  -28.7120  -13.0210   20.9330 C   0  0  0  0  0  2  0  0  0  0  0  0
  -30.0480  -13.3110   20.3840 N   0  0  0  0  0  0  0  0  0  0  0  0
  -31.8530  -14.6630   20.0530 O   0  0  0  0  0  0  0  0  0  0  0  0
  -29.9500  -15.5450   20.8330 N   0  0  0  0  0  0  0  0  0  0  0  0
  -29.1270  -15.4050   21.3980 H   0  0  0  0  0  0  0  0  0  0  0  0
  -25.2570  -13.8590   20.4940 C   0  0  0  0  0  0  0  0  0  0  0  0
  -24.1880  -13.0830   20.8620 C   0  0  0  0  0  0  0  0  0  0  0  0
  -24.6570  -11.7350   20.8430 C   0  0  0  0  0  0  0  0  0  0  0  0
  -26.3060  -12.9780   20.2810 N   0  0  0  0  0  0  0  0  0  0  0  0
  -25.9500  -11.6980   20.5440 N   0  0  0  0  0  0  0  0  0  0  0  0
  -23.9370  -10.4700   21.0370 C   0  0  0  0  0  0  0  0  0  0  0  0
  -24.3730   -9.5050   21.9730 C   0  0  0  0  0  3  0  0  0  0  0  0
  -23.6530   -8.3050   22.1560 C   0  0  0  0  0  3  0  0  0  0  0  0
  -22.4800   -8.0580   21.4020 C   0  0  0  0  0  0  0  0  0  0  0  0
  -22.0630   -9.0100   20.4540 C   0  0  0  0  0  3  0  0  0  0  0  0
  -22.7860  -10.2020   20.2690 C   0  0  0  0  0  3  0  0  0  0  0  0
  -21.7350   -6.9080   21.4890 O   0  0  0  0  0  0  0  0  0  0  0  0
  -21.6920   -6.1660   22.6410 C   0  0  0  0  0  0  0  0  0  0  0  0
  -21.2630   -6.7170   23.8690 C   0  0  0  0  0  3  0  0  0  0  0  0
  -21.1670   -5.8990   25.0130 C   0  0  0  0  0  3  0  0  0  0  0  0
  -21.4900   -4.5310   24.9310 C   0  0  0  0  0  0  0  0  0  0  0  0
  -21.9140   -3.9800   23.7080 C   0  0  0  0  0  3  0  0  0  0  0  0
  -22.0110   -4.7950   22.5670 C   0  0  0  0  0  0  0  0  0  0  0  0
  -22.3960   -4.2550   21.3870 F   0  0  0  0  0  0  0  0  0  0  0  0
  -21.3930   -3.7420   26.0270 F   0  0  0  0  0  0  0  0  0  0  0  0
  -22.7850  -13.5520   21.1210 C   0  0  0  0  0  0  0  0  0  0  0  0
  -22.0550  -12.8570   21.9860 N   0  0  0  0  0  0  0  0  0  0  0  0
  -22.3440  -14.5720   20.5900 O   0  0  0  0  0  0  0  0  0  0  0  0
  -22.4200  -12.0300   22.4370 H   0  0  0  0  0  0  0  0  0  0  0  0
  -21.1140  -13.1540   22.2020 H   0  0  0  0  0  0  0  0  0  0  0  0
  -25.4240  -15.2290   20.3080 N   0  0  0  0  0  0  0  0  0  0  0  0
  -24.6690  -15.8950   20.4140 H   0  0  0  0  0  0  0  0  0  0  0  0
  -26.2750  -15.6540   19.9620 H   0  0  0  0  0  0  0  0  0  0  0  0
  -30.5970  -22.8630   20.8570 C   0  0  0  0  0  2  0  0  0  0  0  0
  -29.5240  -23.8850   20.8190 N   0  0  0  0  0  4  0  0  0  0  0  0
  -28.7670  -23.5640   21.4010 H   0  0  0  0  0  0  0  0  0  0  0  0
  -29.1730  -23.9590   19.8750 H   0  0  0  0  0  0  0  0  0  0  0  0
  -29.9380  -25.2290   21.3020 C   0  0  0  0  0  2  0  0  0  0  0  0
  -28.7430  -26.1920   21.4410 C   0  0  0  0  0  2  0  0  0  0  0  0
  -28.4170  -26.7390   20.1650 O   0  0  0  0  0  0  0  0  0  0  0  0
  -24.5950  -31.9010   23.2460 C   0  0  0  0  0  0  0  0  0  0  0  0
  -27.2700  -27.4860   20.1810 C   0  0  0  0  0  0  0  0  0  0  0  0
  -23.4000  -30.4880   21.6030 C   0  0  0  0  0  3  0  0  0  0  0  0
  -24.8650  -28.9540   20.1850 C   0  0  0  0  0  0  0  0  0  0  0  0
  -25.9200  -30.8640   21.4100 C   0  0  0  0  0  2  0  0  0  0  0  0
  -26.0150  -29.4900   20.7810 C   0  0  0  0  0  0  0  0  0  0  0  0
  -27.2200  -28.7600   20.7870 C   0  0  0  0  0  3  0  0  0  0  0  0
  -26.1160  -26.9620   19.5690 C   0  0  0  0  0  3  0  0  0  0  0  0
  -24.9090  -27.6850   19.5820 C   0  0  0  0  0  3  0  0  0  0  0  0
  -23.6180  -29.8100   20.2230 C   0  0  0  0  0  2  0  0  0  0  0  0
  -24.6570  -31.0980   22.1450 N   0  0  0  0  0  0  0  0  0  0  0  0
  -23.5130  -32.1680   23.7840 O   0  0  0  0  0  0  0  0  0  0  0  0
  -22.7520  -29.4640   22.5630 C   0  0  0  0  0  0  0  0  0  0  0  0
  -21.4270  -29.2810   22.4370 N   0  0  0  0  0  0  0  0  0  0  0  0
  -23.4390  -28.8380   23.3740 O   0  0  0  0  0  0  0  0  0  0  0  0
  -20.9310  -29.8410   21.7570 H   0  0  0  0  0  0  0  0  0  0  0  0
  -18.0530  -28.1010   22.9420 C   0  0  0  0  0  0  0  0  0  0  0  0
  -20.6130  -28.3420   23.2060 C   0  0  0  0  0  3  0  0  0  0  0  0
  -20.7040  -26.9130   22.6220 C   0  0  0  0  0  2  0  0  0  0  0  0
  -19.5970  -26.6050   21.6100 C   0  0  0  0  0  2  0  0  0  0  0  0
  -18.2190  -26.7530   22.2590 C   0  0  0  0  0  2  0  0  0  0  0  0
  -19.1770  -28.8530   23.3720 C   0  0  0  0  0  0  0  0  0  0  0  0
  -18.9670  -30.1170   23.9660 C   0  0  0  0  0  3  0  0  0  0  0  0
  -17.6660  -30.6240   24.1390 C   0  0  0  0  0  3  0  0  0  0  0  0
  -16.5560  -29.8660   23.7270 C   0  0  0  0  0  3  0  0  0  0  0  0
  -16.7510  -28.6070   23.1330 C   0  0  0  0  0  3  0  0  0  0  0  0
  -25.8800  -32.5340   23.8660 C   0  0  0  0  0  3  0  0  0  0  0  0
  -25.5720  -33.9320   24.1850 N   0  0  0  0  0  0  0  0  0  0  0  0
  -25.9070  -34.9790   23.4190 C   0  0  0  0  0  0  0  0  0  0  0  0
  -26.5830  -34.8670   22.3920 O   0  0  0  0  0  0  0  0  0  0  0  0
  -24.9790  -34.0940   24.9870 H   0  0  0  0  0  0  0  0  0  0  0  0
  -24.1830  -36.7640   23.0310 C   0  0  0  0  0  1  0  0  0  0  0  0
  -25.4130  -36.3680   23.8620 C   0  0  0  0  0  3  0  0  0  0  0  0
  -27.5420  -37.2520   24.7090 C   0  0  0  0  0  1  0  0  0  0  0  0
  -26.4440  -37.4230   23.7610 N   0  0  0  0  0  0  0  0  0  0  0  0
  -26.0340  -38.3410   23.9150 H   0  0  0  0  0  0  0  0  0  0  0  0
  -26.3970  -31.7690   25.1450 C   0  0  1  0  0  0  0  0  0  0  0  0
  -25.3040  -31.5350   26.2150 C   0  0  0  0  0  1  0  0  0  0  0  0
  -26.9810  -30.3900   24.7550 C   0  0  0  0  0  1  0  0  0  0  0  0
  -27.5460  -32.5660   25.8050 C   0  0  0  0  0  1  0  0  0  0  0  0
  1  2  1  0
  1 48  1  0
  3  5  2  0
  3  4  1  0
  4  6  2  0
  5  8  1  0
  6 18  1  0
  6  7  1  0
  7  9  2  0
  8  2  1  0
  8  7  1  0
 10 18  1  0
 11 16  1  0
 12 13  1  0
 12 11  1  0
 14 13  1  0
 14 23  1  0
 14 15  1  0
 16 10  1  0
 16 15  1  0
 17 10  2  0
 18 19  1  0
 20 21  2  0
 21 40  1  0
 22 21  1  0
 22 25  1  0
 23 20  1  0
 23 24  1  0
 24 22  2  0
 25 26  1  0
 26 27  2  0
 28 31  1  0
 28 27  1  0
 29 28  2  0
 30 29  1  0
 30 25  2  0
 31 32  1  0
 32 33  1  0
 33 34  2  0
 35 34  1  0
 35 39  1  0
 36 35  2  0
 37 32  2  0
 37 36  1  0
 38 37  1  0
 40 41  1  0
 41 44  1  0
 41 43  1  0
 42 40  2  0
 45 46  1  0
 45 20  1  0
 47 45  1  0
 49 48  1  0
 49 52  1  0
 49 50  1  0
 51 49  1  0
 52 53  1  0
 54 56  1  0
 54 53  1  0
 55 66  2  0
 56 61  1  0
 57 65  1  0
 57 67  1  0
 58 64  1  0
 58 60  1  0
 59 65  1  0
 60 61  2  0
 60 59  1  0
 62 63  1  0
 62 56  2  0
 63 58  2  0
 64 57  1  0
 65 55  1  0
 67 69  2  0
 68 67  1  0
 70 68  1  0
 71 80  2  0
 71 76  1  0
 72 68  1  0
 72 76  1  0
 73 72  1  0
 74 75  1  0
 74 73  1  0
 75 71  1  0
 76 77  2  0
 77 78  1  0
 79 78  2  0
 80 79  1  0
 81 55  1  0
 81 82  1  0
 81 91  1  0
 82 85  1  0
 83 87  1  0
 83 82  1  0
 84 83  2  0
 87 86  1  0
 89 87  1  0
 89 90  1  0
 89 88  1  0
 91 94  1  1
 91 92  1  0
 93 91  1  0
M  ISO  4  10 100  18 100  53 101  54 101
M  END
>  <TORSDO>  (78) 
F 22

>  <SCORE>  (78) 
-13.130

>  <name>  (78) 
77

>  <ligand_id>  (78) 
77

>  <original_smiles>  (78) 
[H]c1c([H])c([H])c2c(c1[H])C([H])([H])C([H])([H])C([H])([H])C2([H])N([H])C(=O)C1([H])N(C(=O)C([H])(N([H])C(=O)C([H])(N([H])C([H])([H])[H])C([H])([H])[H])C(C([H])([H])[H])(C([H])([H])[H])C([H])([H])[H])C([H])([H])c2c([H])c(OC([H])([H])C([H])([H])[N+]([H])([H])C([H])([H])C([H])([H])C([H])([H])n3c([H])c([H])c([H])c(N([H])C(=O)N4C([H])([H])C([H])([H])C([H])([H])C([H])(n5nc(-c6c([H])c([H])c(Oc7c([H])c([H])c(F)c([H])c7F)c([H])c6[H])c(C(=O)N([H])[H])c5N([H])[H])C4([H])[H])c3=O)c([H])c([H])c2C1([H])[H]

>  <smiles>  (78) 
[H]c1c([H])c([H])c2c(c1[H])C([H])([H])C([H])([H])C([H])([H])C2([H])N([H])C(=O)C1([H])N(C(=O)C([H])(N([H])C(=O)C([H])(N([H])C([H])([H])[H])C([H])([H])[H])C(C([H])([H])[H])(C([H])([H])[H])C([H])([H])[H])C([H])([H])c2c([H])c(OC([H])([H])C([H])([H])[N+]([H])([H])C([H])([H])C([H])([H])C([H])([H])n3c([H])c([H])c([H])c(N([H])C(=O)N4C([H])([H])C([H])([H])C([H])([H])C([H])(n5nc(-c6c([H])c([H])c(Oc7c([H])c([H])c(F)c([H])c7F)c([H])c6[H])c(C(=O)N([H])[H])c5N([H])[H])C4([H])[H])c3=O)c([H])c([H])c2C1([H])[H]

$$$$
78:0:0
     RDKit          3D

 99108  0  0  1  0  0  0  0  0999 V2000
  -31.1610  -21.5640   20.9500 C   0  0  0  0  0  2  0  0  0  0  0  0
  -29.2000  -21.7500   18.8470 C   0  0  0  0  0  2  0  0  0  0  0  0
  -29.2330  -20.4840   19.7730 C   0  0  0  0  0  3  0  0  0  0  0  0
  -31.0540  -22.7910   19.9890 C   0  0  0  0  0  3  0  0  0  0  0  0
  -27.9720  -20.4890   20.6630 C   0  0  0  0  0  1  0  0  0  0  0  0
  -31.6580  -24.0180   20.7040 C   0  0  0  0  0  1  0  0  0  0  0  0
  -30.5230  -20.3080   20.4940 N   0  0  0  0  0  0  0  0  0  0  0  0
  -29.6400  -22.9960   19.5420 N   0  0  1  0  0  4  0  0  0  0  0  0
  -29.0930  -23.0370   20.3880 H   0  0  0  0  0  0  0  0  0  0  0  0
  -31.0380  -17.5370   23.7170 C   0  0  0  0  0  3  0  0  0  0  0  0
  -30.6950  -19.7640   22.8580 C   0  0  0  0  0  3  0  0  0  0  0  0
  -30.8760  -18.9030   23.9500 C   0  0  0  0  0  0  0  0  0  0  0  0
  -30.9690  -17.0220   22.4100 C   0  0  0  0  0  0  0  0  0  0  0  0
  -30.6640  -17.8680   21.2920 C   0  0  0  0  0  0  0  0  0  0  0  0
  -30.5950  -19.3010   21.5150 C   0  0  0  0  0  0  0  0  0  0  0  0
  -30.9350  -19.4480   25.3670 C   0  0  0  0  0  1  0  0  0  0  0  0
  -31.3050  -15.5420   22.2820 C   0  0  0  0  0  1  0  0  0  0  0  0
  -30.4850  -17.2130   19.8950 C   0  0  0  0  0  2  0  0  0  0  0  0
  -30.7570  -14.7260   19.3210 C   0  0  0  0  0  0  0  0  0  0  0  0
  -30.4260  -12.4590   18.3830 C   0  0  0  0  0  2  0  0  0  0  0  0
  -29.3140  -12.5110   17.3140 C   0  0  0  0  0  2  0  0  0  0  0  0
  -27.9250  -12.3400   17.9600 C   0  0  0  0  0  2  0  0  0  0  0  0
  -27.7220  -13.2580   19.1950 C   0  0  0  0  0  3  0  0  0  0  0  0
  -28.9330  -13.1830   20.1520 C   0  0  0  0  0  2  0  0  0  0  0  0
  -30.1390  -13.5090   19.3760 N   0  0  0  0  0  0  0  0  0  0  0  0
  -31.8060  -14.8980   18.6960 O   0  0  0  0  0  0  0  0  0  0  0  0
  -30.0910  -15.7700   19.8770 N   0  0  0  0  0  0  0  0  0  0  0  0
  -29.2270  -15.5470   20.3430 H   0  0  0  0  0  0  0  0  0  0  0  0
  -25.5280  -13.8500   20.3960 C   0  0  0  0  0  0  0  0  0  0  0  0
  -24.5020  -13.0750   20.8670 C   0  0  0  0  0  0  0  0  0  0  0  0
  -24.8770  -11.7220   20.6010 C   0  0  0  0  0  0  0  0  0  0  0  0
  -26.4650  -12.9690   19.8810 N   0  0  0  0  0  0  0  0  0  0  0  0
  -26.0880  -11.6760   20.0590 N   0  0  0  0  0  0  0  0  0  0  0  0
  -24.1280  -10.4720   20.7780 C   0  0  0  0  0  0  0  0  0  0  0  0
  -24.5510   -9.4810   21.6930 C   0  0  0  0  0  3  0  0  0  0  0  0
  -23.8030   -8.2960   21.8600 C   0  0  0  0  0  3  0  0  0  0  0  0
  -22.6200   -8.0910   21.1110 C   0  0  0  0  0  0  0  0  0  0  0  0
  -22.2170   -9.0690   20.1850 C   0  0  0  0  0  3  0  0  0  0  0  0
  -22.9650  -10.2470   20.0160 C   0  0  0  0  0  3  0  0  0  0  0  0
  -21.8450   -6.9590   21.1860 O   0  0  0  0  0  0  0  0  0  0  0  0
  -21.6000   -6.3340   22.3820 C   0  0  0  0  0  0  0  0  0  0  0  0
  -20.9860   -7.0050   23.4620 C   0  0  0  0  0  3  0  0  0  0  0  0
  -20.6860   -6.3060   24.6480 C   0  0  0  0  0  3  0  0  0  0  0  0
  -20.9940   -4.9360   24.7550 C   0  0  0  0  0  0  0  0  0  0  0  0
  -21.6010   -4.2650   23.6780 C   0  0  0  0  0  3  0  0  0  0  0  0
  -21.9000   -4.9620   22.4960 C   0  0  0  0  0  0  0  0  0  0  0  0
  -22.4650   -4.3050   21.4530 F   0  0  0  0  0  0  0  0  0  0  0  0
  -20.7010   -4.2610   25.8920 F   0  0  0  0  0  0  0  0  0  0  0  0
  -23.2040  -13.5640   21.4420 C   0  0  0  0  0  0  0  0  0  0  0  0
  -22.6300  -12.8160   22.3780 N   0  0  0  0  0  0  0  0  0  0  0  0
  -22.7150  -14.6380   21.0980 O   0  0  0  0  0  0  0  0  0  0  0  0
  -23.0440  -11.9450   22.6770 H   0  0  0  0  0  0  0  0  0  0  0  0
  -21.7650  -13.1200   22.8030 H   0  0  0  0  0  0  0  0  0  0  0  0
  -25.7330  -15.2260   20.3460 N   0  0  0  0  0  0  0  0  0  0  0  0
  -25.0310  -15.8860   20.6630 H   0  0  0  0  0  0  0  0  0  0  0  0
  -26.5320  -15.6740   19.9180 H   0  0  0  0  0  0  0  0  0  0  0  0
  -29.3380  -24.2750   18.7780 C   0  0  0  0  0  2  0  0  0  0  0  0
  -28.3840  -25.2810   19.5180 C   0  0  0  0  0  2  0  0  0  0  0  0
  -28.3980  -26.6440   18.9990 O   0  0  0  0  0  0  0  0  0  0  0  0
  -24.7040  -31.4930   22.7790 C   0  0  0  0  0  0  0  0  0  0  0  0
  -27.2350  -27.3900   19.1440 C   0  0  0  0  0  0  0  0  0  0  0  0
  -23.4350  -30.2540   21.0530 C   0  0  0  0  0  3  0  0  0  0  0  0
  -24.8350  -28.8850   19.4130 C   0  0  0  0  0  0  0  0  0  0  0  0
  -25.9480  -30.6570   20.7780 C   0  0  0  0  0  2  0  0  0  0  0  0
  -26.0180  -29.3560   19.9960 C   0  0  0  0  0  0  0  0  0  0  0  0
  -27.2250  -28.6230   19.8460 C   0  0  0  0  0  3  0  0  0  0  0  0
  -26.0340  -26.9460   18.5500 C   0  0  0  0  0  3  0  0  0  0  0  0
  -24.8400  -27.6830   18.6830 C   0  0  0  0  0  3  0  0  0  0  0  0
  -23.5880  -29.7230   19.6030 C   0  0  0  0  0  2  0  0  0  0  0  0
  -24.7170  -30.8110   21.5960 N   0  0  0  0  0  0  0  0  0  0  0  0
  -23.6460  -31.6910   23.3920 O   0  0  0  0  0  0  0  0  0  0  0  0
  -22.8330  -29.1320   21.9340 C   0  0  0  0  0  0  0  0  0  0  0  0
  -21.4970  -28.9950   21.9030 N   0  0  0  0  0  0  0  0  0  0  0  0
  -23.5640  -28.3930   22.5970 O   0  0  0  0  0  0  0  0  0  0  0  0
  -20.9680  -29.6520   21.3470 H   0  0  0  0  0  0  0  0  0  0  0  0
  -18.1370  -27.8580   22.6030 C   0  0  0  0  0  0  0  0  0  0  0  0
  -20.7180  -27.9820   22.6160 C   0  0  0  0  0  3  0  0  0  0  0  0
  -20.6830  -26.6500   21.8310 C   0  0  0  0  0  2  0  0  0  0  0  0
  -19.4630  -26.5210   20.9120 C   0  0  0  0  0  2  0  0  0  0  0  0
  -18.1680  -26.6190   21.7230 C   0  0  0  0  0  2  0  0  0  0  0  0
  -19.3330  -28.5070   23.0090 C   0  0  0  0  0  0  0  0  0  0  0  0
  -19.2440  -29.6760   23.7960 C   0  0  0  0  0  3  0  0  0  0  0  0
  -17.9930  -30.1920   24.1810 C   0  0  0  0  0  3  0  0  0  0  0  0
  -16.8120  -29.5370   23.7880 C   0  0  0  0  0  3  0  0  0  0  0  0
  -16.8850  -28.3700   23.0050 C   0  0  0  0  0  3  0  0  0  0  0  0
  -26.0090  -32.0740   23.4020 C   0  0  0  0  0  3  0  0  0  0  0  0
  -26.6260  -31.1520   24.5240 C   0  0  1  0  0  0  0  0  0  0  0  0
  -25.6110  -30.7310   25.6140 C   0  0  0  0  0  1  0  0  0  0  0  0
  -27.2170  -29.8650   23.9020 C   0  0  0  0  0  1  0  0  0  0  0  0
  -27.7970  -31.8840   25.2200 C   0  0  0  0  0  1  0  0  0  0  0  0
  -25.6910  -33.4030   23.9410 N   0  0  0  0  0  0  0  0  0  0  0  0
  -25.9720  -34.5600   23.3280 C   0  0  0  0  0  0  0  0  0  0  0  0
  -26.5960  -34.6210   22.2650 O   0  0  0  0  0  0  0  0  0  0  0  0
  -25.1380  -33.4270   24.7850 H   0  0  0  0  0  0  0  0  0  0  0  0
  -24.2000  -36.3450   23.3050 C   0  0  0  0  0  1  0  0  0  0  0  0
  -25.4820  -35.8580   24.0010 C   0  0  0  0  0  3  0  0  0  0  0  0
  -27.6350  -36.6670   24.8640 C   0  0  0  0  0  1  0  0  0  0  0  0
  -26.4910  -36.9400   23.9970 N   0  0  0  0  0  0  0  0  0  0  0  0
  -26.0760  -37.8200   24.2900 H   0  0  0  0  0  0  0  0  0  0  0  0
  2  8  1  0
  2  3  1  0
  3  7  1  0
  3  5  1  0
  4  6  1  0
  4  1  1  0
  7  1  1  0
  7 15  1  0
  8  4  1  0
  8  9  1  1
 10 12  1  0
 11 12  2  0
 12 16  1  0
 13 10  2  0
 14 15  2  0
 14 13  1  0
 15 11  1  0
 17 13  1  0
 18 14  1  0
 19 25  1  0
 19 27  1  0
 20 25  1  0
 21 22  1  0
 21 20  1  0
 23 22  1  0
 23 32  1  0
 23 24  1  0
 25 24  1  0
 26 19  2  0
 27 18  1  0
 27 28  1  0
 29 30  2  0
 30 49  1  0
 31 34  1  0
 31 30  1  0
 32 33  1  0
 32 29  1  0
 33 31  2  0
 34 35  1  0
 35 36  2  0
 37 40  1  0
 37 36  1  0
 38 37  2  0
 39 38  1  0
 39 34  2  0
 40 41  1  0
 41 46  2  0
 41 42  1  0
 42 43  2  0
 43 44  1  0
 44 48  1  0
 45 44  2  0
 46 45  1  0
 47 46  1  0
 49 50  1  0
 50 52  1  0
 50 53  1  0
 51 49  2  0
 54 29  1  0
 54 55  1  0
 56 54  1  0
 57 58  1  0
 57  8  1  0
 59 61  1  0
 59 58  1  0
 60 71  2  0
 61 66  1  0
 62 70  1  0
 62 72  1  0
 63 69  1  0
 63 65  1  0
 64 70  1  0
 65 64  1  0
 66 65  2  0
 67 68  1  0
 67 61  2  0
 68 63  2  0
 69 62  1  0
 70 60  1  0
 72 74  2  0
 73 72  1  0
 75 73  1  0
 76 85  2  0
 76 81  1  0
 77 73  1  0
 77 81  1  0
 78 77  1  0
 79 80  1  0
 79 78  1  0
 80 76  1  0
 81 82  2  0
 82 83  1  0
 84 83  2  0
 85 84  1  0
 86 60  1  0
 86 91  1  0
 86 87  1  0
 87 90  1  1
 87 88  1  0
 89 87  1  0
 91 94  1  0
 92 91  1  0
 92 96  1  0
 93 92  2  0
 96 95  1  0
 98 96  1  0
 98 99  1  0
 98 97  1  0
M  ISO  4  19 100  27 100  58 101  59 101
M  END
>  <TORSDO>  (79) 
F 20

>  <SCORE>  (79) 
-7.263

>  <name>  (79) 
78

>  <ligand_id>  (79) 
78

>  <original_smiles>  (79) 
[H]c1c([H])c([H])c2c(c1[H])C([H])([H])C([H])([H])C([H])([H])C2([H])N([H])C(=O)C1([H])N(C(=O)C([H])(N([H])C(=O)C([H])(N([H])C([H])([H])[H])C([H])([H])[H])C(C([H])([H])[H])(C([H])([H])[H])C([H])([H])[H])C([H])([H])c2c([H])c(OC([H])([H])C([H])([H])[N+]3([H])C([H])([H])C([H])(C([H])([H])[H])N(c4c([H])c(C([H])([H])[H])c([H])c(C([H])([H])[H])c4C([H])([H])N([H])C(=O)N4C([H])([H])C([H])([H])C([H])([H])C([H])(n5nc(-c6c([H])c([H])c(Oc7c([H])c([H])c(F)c([H])c7F)c([H])c6[H])c(C(=O)N([H])[H])c5N([H])[H])C4([H])[H])C([H])([H])C3([H])C([H])([H])[H])c([H])c([H])c2C1([H])[H]

>  <smiles>  (79) 
[H]c1c([H])c([H])c2c(c1[H])C([H])([H])C([H])([H])C([H])([H])C2([H])N([H])C(=O)C1([H])N(C(=O)C([H])(N([H])C(=O)C([H])(N([H])C([H])([H])[H])C([H])([H])[H])C(C([H])([H])[H])(C([H])([H])[H])C([H])([H])[H])C([H])([H])c2c([H])c(OC([H])([H])C([H])([H])[N+]3([H])C([H])([H])C([H])(C([H])([H])[H])N(c4c([H])c(C([H])([H])[H])c([H])c(C([H])([H])[H])c4C([H])([H])N([H])C(=O)N4C([H])([H])C([H])([H])C([H])([H])C([H])(n5nc(-c6c([H])c([H])c(Oc7c([H])c([H])c(F)c([H])c7F)c([H])c6[H])c(C(=O)N([H])[H])c5N([H])[H])C4([H])[H])C([H])([H])C3([H])C([H])([H])[H])c([H])c([H])c2C1([H])[H]

$$$$
80:0:0
     RDKit          3D

 96 98  0  0  1  0  0  0  0  0999 V2000
  -22.4550  -23.6410   19.2060 C   0  0  0  0  0  2  0  0  0  0  0  0
  -22.3020  -22.7780   18.0790 C   0  0  0  0  0  2  0  0  0  0  0  0
  -23.2370  -24.7950   19.0130 C   0  0  0  0  0  1  0  0  0  0  0  0
  -24.7980  -23.0570   18.9740 C   0  0  0  0  0  1  0  0  0  0  0  0
  -23.4760  -22.4500   17.3750 C   0  0  0  0  0  3  0  0  0  0  0  0
  -24.2840  -22.0300   18.2870 N   0  0  0  0  0  2  0  0  0  0  0  0
  -29.6070  -17.3390   18.7650 C   0  0  0  0  0  2  0  0  0  0  0  0
  -31.1990  -14.5500   18.1220 C   0  0  0  0  0  2  0  0  0  0  0  0
  -30.9260  -13.0400   17.4820 C   0  0  0  0  0  2  0  0  0  0  0  0
  -29.9160  -12.2130   18.2680 C   0  0  0  0  0  2  0  0  0  0  0  0
  -29.1130  -13.3160   18.9310 C   0  0  0  0  0  3  0  0  0  0  0  0
  -29.8390  -14.4470   19.7390 C   0  0  0  0  0  2  0  0  0  0  0  0
  -30.0160  -15.6340   18.7800 N   0  0  0  0  0  0  0  0  0  0  0  0
  -30.9250  -17.3100   18.4820 O   0  0  0  0  0  1  0  0  0  0  0  0
  -26.8220  -20.9590   18.8290 C   0  0  0  0  0  1  0  0  0  0  0  0
  -28.1480  -20.2780   19.5120 C   0  0  0  0  0  3  0  0  0  0  0  0
  -28.0980  -18.8480   18.8920 N   0  0  0  0  0  1  0  0  0  0  0  0
  -27.1420  -13.9490   20.1560 C   0  0  0  0  0  0  0  0  0  0  0  0
  -26.1600  -13.2540   20.7610 C   0  0  0  0  0  0  0  0  0  0  0  0
  -26.4460  -11.8710   20.5320 C   0  0  0  0  0  0  0  0  0  0  0  0
  -27.9540  -12.9840   19.6230 N   0  0  0  0  0  0  0  0  0  0  0  0
  -27.5940  -11.7140   19.8860 N   0  0  0  0  0  0  0  0  0  0  0  0
  -25.6420  -10.6960   20.8270 C   0  0  0  0  0  0  0  0  0  0  0  0
  -25.9440   -9.8420   21.9080 C   0  0  0  0  0  3  0  0  0  0  0  0
  -25.1190   -8.7320   22.1800 C   0  0  0  0  0  3  0  0  0  0  0  0
  -23.9870   -8.4770   21.3690 C   0  0  0  0  0  0  0  0  0  0  0  0
  -23.7130   -9.3180   20.2760 C   0  0  0  0  0  3  0  0  0  0  0  0
  -24.5380  -10.4180   20.0030 C   0  0  0  0  0  3  0  0  0  0  0  0
  -23.1380   -7.4150   21.5440 O   0  0  0  0  0  0  0  0  0  0  0  0
  -22.4970   -7.2040   22.7360 C   0  0  0  0  0  0  0  0  0  0  0  0
  -21.6340   -8.1680   23.3010 C   0  0  0  0  0  3  0  0  0  0  0  0
  -20.9410   -7.8780   24.4920 C   0  0  0  0  0  3  0  0  0  0  0  0
  -21.1030   -6.6250   25.1140 C   0  0  0  0  0  0  0  0  0  0  0  0
  -21.9600   -5.6640   24.5500 C   0  0  0  0  0  3  0  0  0  0  0  0
  -22.6530   -5.9520   23.3630 C   0  0  0  0  0  0  0  0  0  0  0  0
  -23.4620   -5.0160   22.8100 F   0  0  0  0  0  0  0  0  0  0  0  0
  -20.4300   -6.3420   26.2540 F   0  0  0  0  0  0  0  0  0  0  0  0
  -24.9740  -13.8780   21.4080 C   0  0  0  0  0  0  0  0  0  0  0  0
  -24.2980  -13.1380   22.2740 N   0  0  0  0  0  0  0  0  0  0  0  0
  -24.6840  -15.0550   21.1920 O   0  0  0  0  0  0  0  0  0  0  0  0
  -24.5650  -12.1830   22.4640 H   0  0  0  0  0  0  0  0  0  0  0  0
  -23.5040  -13.5320   22.7590 H   0  0  0  0  0  0  0  0  0  0  0  0
  -27.4010  -15.3110   19.9980 N   0  0  0  0  0  0  0  0  0  0  0  0
  -26.7250  -16.0110   20.2840 H   0  0  0  0  0  0  0  0  0  0  0  0
  -28.0670  -15.6450   19.3160 H   0  0  0  0  0  0  0  0  0  0  0  0
  -28.0740  -20.1190   21.0360 C   0  0  0  0  0  0  0  0  0  0  0  0
  -27.9490  -18.9790   21.5390 O   0  0  0  0  0  0  0  0  0  0  0  0
  -28.2100  -21.1380   21.7410 O   0  0  0  0  0  1  0  0  0  0  0  0
  -18.8650  -26.4840   19.7090 C   0  0  0  0  0  3  0  0  0  0  0  0
  -18.6170  -27.2660   19.3580 C   0  0  0  0  0  3  0  0  0  0  0  0
  -21.1780  -27.4490   18.5550 C   0  0  0  0  0 15  0  0  0  0  0  0
  -24.1700  -23.2220   16.4160 O   0  0  0  0  0  0  0  0  0  0  0  0
  -25.5490  -22.8080   16.0130 C   0  0  0  0  0  2  0  0  0  0  0  0
  -26.7160  -23.5640   16.6750 C   0  0  0  0  0  3  0  0  0  0  0  0
  -28.2010  -22.9720   17.0260 C   0  0  0  0  0  3  0  0  0  0  0  0
  -29.3960  -23.8230   17.4320 O   0  0  0  0  0  0  0  0  0  0  0  0
  -25.0080  -29.0580   19.6210 C   0  0  0  0  0  0  0  0  0  0  0  0
  -29.1050  -25.1640   17.4900 C   0  0  0  0  0  0  0  0  0  0  0  0
  -25.7270  -28.8860   17.2910 C   0  0  0  0  0  3  0  0  0  0  0  0
  -27.8340  -27.5560   16.8310 C   0  0  0  0  0  0  0  0  0  0  0  0
  -27.2470  -28.0720   19.1830 C   0  0  0  0  0  2  0  0  0  0  0  0
  -27.8580  -27.1330   18.1690 C   0  0  0  0  0  0  0  0  0  0  0  0
  -28.4270  -25.8740   18.5120 C   0  0  0  0  0  3  0  0  0  0  0  0
  -29.4430  -25.8770   16.3510 C   0  0  0  0  0  3  0  0  0  0  0  0
  -28.6400  -26.9180   15.8980 C   0  0  0  0  0  3  0  0  0  0  0  0
  -27.0350  -28.7830   16.4700 C   0  0  0  0  0  2  0  0  0  0  0  0
  -25.9860  -28.7130   18.7450 N   0  0  0  0  0  0  0  0  0  0  0  0
  -23.9660  -29.6090   19.2360 O   0  0  0  0  0  0  0  0  0  0  0  0
  -24.7520  -27.7800   16.8530 C   0  0  0  0  0  0  0  0  0  0  0  0
  -24.7270  -27.4040   15.6090 N   0  0  0  0  0  0  0  0  0  0  0  0
  -24.0420  -27.1690   17.6340 O   0  0  0  0  0  0  0  0  0  0  0  0
  -25.2700  -27.9210   14.9370 H   0  0  0  0  0  0  0  0  0  0  0  0
  -23.3440  -25.1810   11.9740 C   0  0  0  0  0  2  0  0  0  0  0  0
  -24.2360  -26.0260   15.1940 C   0  0  0  0  0  3  0  0  0  0  0  0
  -25.8610  -25.7120   14.5290 C   0  0  0  0  0  2  0  0  0  0  0  0
  -26.2200  -25.2440   12.8300 C   0  0  0  0  0  3  0  0  0  0  0  0
  -24.9830  -24.8410   11.6290 C   0  0  0  0  0  3  0  0  0  0  0  0
  -22.8210  -25.8950   14.1100 C   0  0  0  0  0  2  0  0  0  0  0  0
  -22.8240  -27.8550   14.1750 C   0  0  0  0  0  2  0  0  0  0  0  0
  -23.4960  -28.9470   12.9030 C   0  0  0  0  0  3  0  0  0  0  0  0
  -23.9480  -28.3840   11.3060 C   0  0  0  0  0  3  0  0  0  0  0  0
  -23.7740  -26.6650   10.7880 C   0  0  0  0  0  2  0  0  0  0  0  0
  -25.1640  -28.7700   21.1380 C   0  0  0  0  0  3  0  0  0  0  0  0
  -24.7530  -29.9910   21.8350 N   0  0  0  0  0  0  0  0  0  0  0  0
  -25.5690  -30.7390   22.5870 C   0  0  0  0  0  0  0  0  0  0  0  0
  -26.7350  -30.4190   22.8350 O   0  0  0  0  0  0  0  0  0  0  0  0
  -23.8280  -30.3400   21.6320 H   0  0  0  0  0  0  0  0  0  0  0  0
  -25.5000  -33.2380   22.3260 C   0  0  0  0  0  1  0  0  0  0  0  0
  -24.9960  -32.0470   23.1580 C   0  0  0  0  0  3  0  0  0  0  0  0
  -24.7070  -31.2710   25.4690 C   0  0  0  0  0  1  0  0  0  0  0  0
  -25.3280  -32.2560   24.5840 N   0  0  0  0  0  0  0  0  0  0  0  0
  -25.0430  -33.1820   24.8910 H   0  0  0  0  0  0  0  0  0  0  0  0
  -24.3280  -27.5250   21.6300 C   0  0  1  0  0  0  0  0  0  0  0  0
  -22.8330  -27.5870   21.2440 C   0  0  0  0  0  1  0  0  0  0  0  0
  -24.9020  -26.2030   21.0680 C   0  0  0  0  0  1  0  0  0  0  0  0
  -24.4290  -27.4200   23.1670 C   0  0  0  0  0  1  0  0  0  0  0  0
  2  1  1  0
  3  1  1  0
  5  2  1  0
  5  6  1  0
  6  4  1  0
  7 13  1  0
  8 13  1  0
  9  8  1  0
  9 10  1  0
 11 10  1  0
 11 21  1  0
 11 12  1  0
 13 12  1  0
 14  7  1  0
 16 15  1  0
 16 46  1  0
 17 16  1  0
 18 19  2  0
 19 38  1  0
 20 19  1  0
 20 23  1  0
 21 22  1  0
 21 18  1  0
 22 20  2  0
 23 24  1  0
 24 25  2  0
 26 29  1  0
 26 25  1  0
 27 26  2  0
 28 27  1  0
 28 23  2  0
 29 30  1  0
 30 31  2  0
 30 35  1  0
 31 32  1  0
 32 33  2  0
 33 37  1  0
 34 33  1  0
 35 34  2  0
 36 35  1  0
 38 39  1  0
 39 41  1  0
 39 42  1  0
 40 38  2  0
 43 18  1  0
 43 44  1  0
 45 43  1  0
 46 47  2  0
 46 48  1  0
 50 49  3  0
 52  5  1  0
 53 52  1  0
 53 54  1  0
 54 55  2  0
 55 56  1  0
 56 58  1  0
 58 63  1  0
 59 69  1  0
 59 67  1  0
 60 62  1  0
 62 63  2  0
 62 61  1  0
 64 58  2  0
 65 64  1  0
 65 60  2  0
 66 60  1  0
 66 59  1  0
 67 61  1  0
 67 57  1  0
 68 57  2  0
 69 71  2  0
 70 69  1  0
 72 70  1  0
 74 70  1  0
 75 74  1  0
 76 75  1  0
 77 73  1  0
 77 76  2  0
 78 79  1  0
 78 74  1  0
 80 79  1  0
 81 80  2  0
 82 81  1  0
 82 73  1  0
 83 57  1  0
 83 93  1  0
 83 84  1  0
 84 85  1  0
 85 86  2  0
 85 89  1  0
 87 84  1  0
 89 88  1  0
 89 91  1  0
 91 92  1  0
 91 90  1  0
 93 96  1  1
 94 93  1  0
 95 93  1  0
M  ISO  4   7 100  17 100  55 101  56 101
M  END
>  <TORSDO>  (80) 
F 22

>  <SCORE>  (80) 
-1.831

>  <name>  (80) 
80

>  <ligand_id>  (80) 
80

>  <original_smiles>  (80) 
[H]c1c(OC([H])([H])C([H])([H])C([H])([H])Oc2c([H])c([H])c3c(c2[H])C([H])([H])N(C(=O)C([H])(N([H])C(=O)C([H])(N([H])C([H])([H])[H])C([H])([H])[H])C(C([H])([H])[H])(C([H])([H])[H])C([H])([H])[H])C([H])(C(=O)N([H])C2([H])c4c([H])c([H])c([H])c([H])c4C([H])([H])C([H])([H])C2([H])[H])C3([H])[H])nc(C2([H])N(C(=O)N3C([H])([H])C([H])([H])C([H])([H])C([H])(n4nc(-c5c([H])c([H])c(Oc6c([H])c([H])c(F)c([H])c6F)c([H])c5[H])c(C(=O)N([H])[H])c4N([H])[H])C3([H])[H])C2([H])C(=O)[O-])c(C2([H])C([H])([H])C2([H])[H])c1[H]

>  <smiles>  (80) 
[H]c1c(OC([H])([H])C([H])([H])C([H])([H])Oc2c([H])c([H])c3c(c2[H])C([H])([H])N(C(=O)C([H])(N([H])C(=O)C([H])(N([H])C([H])([H])[H])C([H])([H])[H])C(C([H])([H])[H])(C([H])([H])[H])C([H])([H])[H])C([H])(C(=O)N([H])C2([H])c4c([H])c([H])c([H])c([H])c4C([H])([H])C([H])([H])C2([H])[H])C3([H])[H])nc(C2([H])N(C(=O)N3C([H])([H])C([H])([H])C([H])([H])C([H])(n4nc(-c5c([H])c([H])c(Oc6c([H])c([H])c(F)c([H])c6F)c([H])c5[H])c(C(=O)N([H])[H])c4N([H])[H])C3([H])[H])C2([H])C(=O)[O-])c(C2([H])C([H])([H])C2([H])[H])c1[H]

$$$$
81:0:0
     RDKit          3D

 94103  0  0  1  0  0  0  0  0999 V2000
  -32.2900  -21.2980   19.1040 C   0  0  0  0  0  3  0  0  0  0  0  0
  -31.3480  -22.2460   19.5240 C   0  0  0  0  0  3  0  0  0  0  0  0
  -29.9470  -20.4400   20.3600 C   0  0  0  0  0  3  0  0  0  0  0  0
  -30.9060  -19.4530   19.9500 C   0  0  0  0  0  0  0  0  0  0  0  0
  -32.0850  -19.9170   19.2920 C   0  0  0  0  0  0  0  0  0  0  0  0
  -30.1430  -21.8480   20.1440 C   0  0  0  0  0  0  0  0  0  0  0  0
  -31.6420  -17.4360   21.2940 C   0  0  0  0  0  2  0  0  0  0  0  0
  -30.7790  -17.9250   20.1420 C   0  0  0  0  0  3  0  0  0  0  0  0
  -30.2060  -16.9960   21.2450 C   0  0  0  0  0  3  0  0  0  0  0  0
  -30.6360  -14.5470   20.4870 C   0  0  0  0  0  0  0  0  0  0  0  0
  -30.3730  -12.3640   19.3440 C   0  0  0  0  0  2  0  0  0  0  0  0
  -29.4330  -12.5520   18.1330 C   0  0  0  0  0  2  0  0  0  0  0  0
  -27.9560  -12.4060   18.5560 C   0  0  0  0  0  2  0  0  0  0  0  0
  -27.6120  -13.2380   19.8200 C   0  0  0  0  0  3  0  0  0  0  0  0
  -28.6660  -13.0250   20.9310 C   0  0  0  0  0  2  0  0  0  0  0  0
  -29.9830  -13.3540   20.3650 N   0  0  0  0  0  0  0  0  0  0  0  0
  -31.7640  -14.7090   20.0170 O   0  0  0  0  0  0  0  0  0  0  0  0
  -29.9120  -15.5670   21.0290 N   0  0  0  0  0  0  0  0  0  0  0  0
  -28.9930  -15.2820   21.3360 H   0  0  0  0  0  0  0  0  0  0  0  0
  -25.2110  -13.8380   20.5200 C   0  0  0  0  0  0  0  0  0  0  0  0
  -24.1430  -13.0650   20.8890 C   0  0  0  0  0  0  0  0  0  0  0  0
  -24.6090  -11.7130   20.8650 C   0  0  0  0  0  0  0  0  0  0  0  0
  -26.2590  -12.9590   20.2950 N   0  0  0  0  0  0  0  0  0  0  0  0
  -25.9000  -11.6770   20.5610 N   0  0  0  0  0  0  0  0  0  0  0  0
  -23.8850  -10.4500   21.0590 C   0  0  0  0  0  0  0  0  0  0  0  0
  -24.3270   -9.4810   21.9860 C   0  0  0  0  0  3  0  0  0  0  0  0
  -23.6040   -8.2820   22.1670 C   0  0  0  0  0  3  0  0  0  0  0  0
  -22.4250   -8.0450   21.4210 C   0  0  0  0  0  0  0  0  0  0  0  0
  -22.0030   -9.0030   20.4830 C   0  0  0  0  0  3  0  0  0  0  0  0
  -22.7260  -10.1930   20.2990 C   0  0  0  0  0  3  0  0  0  0  0  0
  -21.6740   -6.8980   21.5110 O   0  0  0  0  0  0  0  0  0  0  0  0
  -21.6460   -6.1440   22.6570 C   0  0  0  0  0  0  0  0  0  0  0  0
  -21.2460   -6.6870   23.8970 C   0  0  0  0  0  3  0  0  0  0  0  0
  -21.1640   -5.8610   25.0350 C   0  0  0  0  0  3  0  0  0  0  0  0
  -21.4740   -4.4910   24.9340 C   0  0  0  0  0  0  0  0  0  0  0  0
  -21.8670   -3.9470   23.6990 C   0  0  0  0  0  3  0  0  0  0  0  0
  -21.9510   -4.7720   22.5630 C   0  0  0  0  0  0  0  0  0  0  0  0
  -22.3110   -4.2390   21.3710 F   0  0  0  0  0  0  0  0  0  0  0  0
  -21.3890   -3.6950   26.0250 F   0  0  0  0  0  0  0  0  0  0  0  0
  -22.7430  -13.5400   21.1550 C   0  0  0  0  0  0  0  0  0  0  0  0
  -22.0130  -12.8470   22.0220 N   0  0  0  0  0  0  0  0  0  0  0  0
  -22.3050  -14.5610   20.6280 O   0  0  0  0  0  0  0  0  0  0  0  0
  -22.3810  -12.0220   22.4710 H   0  0  0  0  0  0  0  0  0  0  0  0
  -21.0730  -13.1470   22.2390 H   0  0  0  0  0  0  0  0  0  0  0  0
  -25.3740  -15.2080   20.3360 N   0  0  0  0  0  0  0  0  0  0  0  0
  -24.6050  -15.8620   20.4400 H   0  0  0  0  0  0  0  0  0  0  0  0
  -26.2200  -15.6460   19.9940 H   0  0  0  0  0  0  0  0  0  0  0  0
  -34.5160  -19.1690   19.4540 C   0  0  0  0  0  1  0  0  0  0  0  0
  -33.2970  -19.0920   17.2200 C   0  0  0  0  0  1  0  0  0  0  0  0
  -33.1670  -18.9680   18.7450 C   0  0  0  0  0  3  0  0  0  0  0  0
  -29.1790  -22.7930   20.5230 O   0  0  0  0  0  0  0  0  0  0  0  0
  -29.4070  -24.2130   20.2540 C   0  0  0  0  0  2  0  0  0  0  0  0
  -28.1690  -25.1380   20.4980 C   0  0  0  0  0  2  0  0  0  0  0  0
  -28.3530  -26.5670   20.2240 O   0  0  0  0  0  0  0  0  0  0  0  0
  -24.5800  -31.8850   23.2370 C   0  0  0  0  0  0  0  0  0  0  0  0
  -27.2090  -27.3630   20.1980 C   0  0  0  0  0  0  0  0  0  0  0  0
  -23.3770  -30.4780   21.6030 C   0  0  0  0  0  3  0  0  0  0  0  0
  -24.8300  -28.9320   20.1860 C   0  0  0  0  0  0  0  0  0  0  0  0
  -25.9120  -30.8150   21.4150 C   0  0  0  0  0  2  0  0  0  0  0  0
  -25.9940  -29.4380   20.7770 C   0  0  0  0  0  0  0  0  0  0  0  0
  -27.1880  -28.6630   20.7750 C   0  0  0  0  0  3  0  0  0  0  0  0
  -26.0230  -26.9030   19.5780 C   0  0  0  0  0  3  0  0  0  0  0  0
  -24.8440  -27.6670   19.5800 C   0  0  0  0  0  3  0  0  0  0  0  0
  -23.5910  -29.7980   20.2260 C   0  0  0  0  0  2  0  0  0  0  0  0
  -24.6410  -31.0760   22.1420 N   0  0  0  0  0  0  0  0  0  0  0  0
  -23.4970  -32.1630   23.7730 O   0  0  0  0  0  0  0  0  0  0  0  0
  -22.7210  -29.4610   22.5660 C   0  0  0  0  0  0  0  0  0  0  0  0
  -21.3970  -29.2750   22.4350 N   0  0  0  0  0  0  0  0  0  0  0  0
  -23.4010  -28.8430   23.3910 O   0  0  0  0  0  0  0  0  0  0  0  0
  -20.9070  -29.8240   21.7430 H   0  0  0  0  0  0  0  0  0  0  0  0
  -18.0220  -28.0710   22.9280 C   0  0  0  0  0  0  0  0  0  0  0  0
  -20.5790  -28.3400   23.2090 C   0  0  0  0  0  3  0  0  0  0  0  0
  -20.6870  -26.9040   22.6450 C   0  0  0  0  0  2  0  0  0  0  0  0
  -19.5900  -26.5710   21.6290 C   0  0  0  0  0  2  0  0  0  0  0  0
  -18.2050  -26.7170   22.2650 C   0  0  0  0  0  2  0  0  0  0  0  0
  -19.1370  -28.8400   23.3570 C   0  0  0  0  0  0  0  0  0  0  0  0
  -18.9120  -30.1070   23.9380 C   0  0  0  0  0  3  0  0  0  0  0  0
  -17.6050  -30.6070   24.0930 C   0  0  0  0  0  3  0  0  0  0  0  0
  -16.5050  -29.8350   23.6810 C   0  0  0  0  0  3  0  0  0  0  0  0
  -16.7140  -28.5700   23.1040 C   0  0  0  0  0  3  0  0  0  0  0  0
  -25.8640  -32.5210   23.8560 C   0  0  0  0  0  3  0  0  0  0  0  0
  -25.5490  -33.9170   24.1900 N   0  0  0  0  0  0  0  0  0  0  0  0
  -25.8660  -34.9710   23.4260 C   0  0  0  0  0  0  0  0  0  0  0  0
  -26.5250  -34.8730   22.3870 O   0  0  0  0  0  0  0  0  0  0  0  0
  -24.9630  -34.0680   24.9970 H   0  0  0  0  0  0  0  0  0  0  0  0
  -24.1200  -36.7510   23.0940 C   0  0  0  0  0  1  0  0  0  0  0  0
  -25.3740  -36.3560   23.8900 C   0  0  0  0  0  3  0  0  0  0  0  0
  -27.5140  -37.2560   24.6890 C   0  0  0  0  0  1  0  0  0  0  0  0
  -26.3970  -37.4170   23.7610 N   0  0  0  0  0  0  0  0  0  0  0  0
  -25.9860  -38.3340   23.9150 H   0  0  0  0  0  0  0  0  0  0  0  0
  -26.3890  -31.7490   25.1280 C   0  0  1  0  0  0  0  0  0  0  0  0
  -25.3020  -31.5050   26.2000 C   0  0  0  0  0  1  0  0  0  0  0  0
  -26.9780  -30.3750   24.7310 C   0  0  0  0  0  1  0  0  0  0  0  0
  -27.5400  -32.5470   25.7860 C   0  0  0  0  0  1  0  0  0  0  0  0
  1  5  2  0
  1  2  1  0
  2  6  2  0
  4  3  2  0
  5  4  1  0
  6  3  1  0
  6 51  1  0
  8  4  1  0
  8  9  1  0
  8  7  1  0
  9 18  1  0
  9  7  1  0
 10 18  1  0
 11 16  1  0
 12 13  1  0
 12 11  1  0
 14 13  1  0
 14 23  1  0
 14 15  1  0
 16 10  1  0
 16 15  1  0
 17 10  2  0
 18 19  1  0
 20 21  2  0
 21 40  1  0
 22 21  1  0
 22 25  1  0
 23 20  1  0
 23 24  1  0
 24 22  2  0
 25 26  1  0
 26 27  2  0
 28 31  1  0
 28 27  1  0
 29 28  2  0
 30 29  1  0
 30 25  2  0
 31 32  1  0
 32 33  1  0
 33 34  2  0
 35 34  1  0
 35 39  1  0
 36 35  2  0
 37 32  2  0
 37 36  1  0
 38 37  1  0
 40 41  1  0
 41 44  1  0
 41 43  1  0
 42 40  2  0
 45 46  1  0
 45 20  1  0
 47 45  1  0
 49 50  1  0
 50  5  1  0
 50 48  1  0
 52 53  1  0
 52 51  1  0
 54 53  1  0
 55 66  2  0
 56 54  1  0
 56 61  1  0
 57 65  1  0
 57 67  1  0
 58 64  1  0
 58 60  1  0
 59 65  1  0
 60 59  1  0
 61 60  2  0
 62 63  1  0
 62 56  2  0
 63 58  2  0
 64 57  1  0
 65 55  1  0
 67 69  2  0
 68 67  1  0
 70 68  1  0
 71 80  2  0
 71 76  1  0
 72 68  1  0
 72 76  1  0
 73 72  1  0
 74 75  1  0
 74 73  1  0
 75 71  1  0
 76 77  2  0
 77 78  1  0
 79 78  2  0
 80 79  1  0
 81 55  1  0
 81 82  1  0
 81 91  1  0
 82 85  1  0
 83 87  1  0
 83 82  1  0
 84 83  2  0
 87 86  1  0
 89 87  1  0
 89 90  1  0
 89 88  1  0
 91 94  1  1
 91 92  1  0
 93 91  1  0
M  ISO  4  10 100  18 100  53 101  54 101
M  END
>  <TORSDO>  (81) 
F 21

>  <SCORE>  (81) 
-13.620

>  <name>  (81) 
81

>  <ligand_id>  (81) 
81

>  <original_smiles>  (81) 
[H]c1c([H])c([H])c2c(c1[H])C([H])([H])C([H])([H])C([H])([H])C2([H])N([H])C(=O)C1([H])N(C(=O)C([H])(N([H])C(=O)C([H])(N([H])C([H])([H])[H])C([H])([H])[H])C(C([H])([H])[H])(C([H])([H])[H])C([H])([H])[H])C([H])([H])c2c([H])c(OC([H])([H])C([H])([H])Oc3c([H])c([H])c(C([H])(C([H])([H])[H])C([H])([H])[H])c(C4([H])C([H])([H])C4([H])N([H])C(=O)N4C([H])([H])C([H])([H])C([H])([H])C([H])(n5nc(-c6c([H])c([H])c(Oc7c([H])c([H])c(F)c([H])c7F)c([H])c6[H])c(C(=O)N([H])[H])c5N([H])[H])C4([H])[H])c3[H])c([H])c([H])c2C1([H])[H]

>  <smiles>  (81) 
[H]c1c([H])c([H])c2c(c1[H])C([H])([H])C([H])([H])C([H])([H])C2([H])N([H])C(=O)C1([H])N(C(=O)C([H])(N([H])C(=O)C([H])(N([H])C([H])([H])[H])C([H])([H])[H])C(C([H])([H])[H])(C([H])([H])[H])C([H])([H])[H])C([H])([H])c2c([H])c(OC([H])([H])C([H])([H])Oc3c([H])c([H])c(C([H])(C([H])([H])[H])C([H])([H])[H])c(C4([H])C([H])([H])C4([H])N([H])C(=O)N4C([H])([H])C([H])([H])C([H])([H])C([H])(n5nc(-c6c([H])c([H])c(Oc7c([H])c([H])c(F)c([H])c7F)c([H])c6[H])c(C(=O)N([H])[H])c5N([H])[H])C4([H])[H])c3[H])c([H])c([H])c2C1([H])[H]

$$$$
82:0:0
     RDKit          3D

 89 98  0  0  1  0  0  0  0  0999 V2000
  -27.1730  -21.5990   19.4760 C   0  0  0  0  0  1  0  0  0  0  0  0
  -28.6610  -21.8370   19.7830 C   0  0  0  0  0  3  0  0  0  0  0  0
  -30.6620  -19.9430   20.0910 C   0  0  0  0  0  3  0  0  0  0  0  0
  -30.9280  -18.4900   20.1600 C   0  0  0  0  0  3  0  0  0  0  0  0
  -29.3400  -20.3750   20.1500 C   0  0  0  0  0  0  0  0  0  0  0  0
  -29.8460  -17.6290   20.2980 C   0  0  0  0  0  0  0  0  0  0  0  0
  -28.4450  -18.7980   20.3820 S   0  0  0  0  0  0  0  0  0  0  0  0
  -30.5550  -15.0580   20.1190 C   0  0  0  0  0  0  0  0  0  0  0  0
  -30.4190  -12.7230   19.1250 C   0  0  0  0  0  2  0  0  0  0  0  0
  -29.4290  -12.7090   17.9350 C   0  0  0  0  0  2  0  0  0  0  0  0
  -27.9870  -12.4810   18.4290 C   0  0  0  0  0  2  0  0  0  0  0  0
  -27.6290  -13.3750   19.6460 C   0  0  0  0  0  3  0  0  0  0  0  0
  -28.7360  -13.3530   20.7240 C   0  0  0  0  0  2  0  0  0  0  0  0
  -29.9800  -13.7870   20.0750 N   0  0  0  0  0  0  0  0  0  0  0  0
  -31.7340  -15.1630   19.7660 O   0  0  0  0  0  0  0  0  0  0  0  0
  -29.7350  -16.1900   20.3760 N   0  0  0  0  0  0  0  0  0  0  0  0
  -28.8040  -15.8890   20.6230 H   0  0  0  0  0  0  0  0  0  0  0  0
  -25.2810  -13.9280   20.5020 C   0  0  0  0  0  0  0  0  0  0  0  0
  -24.2360  -13.1410   20.9010 C   0  0  0  0  0  0  0  0  0  0  0  0
  -24.7010  -11.7940   20.8150 C   0  0  0  0  0  0  0  0  0  0  0  0
  -26.3150  -13.0600   20.1930 N   0  0  0  0  0  0  0  0  0  0  0  0
  -25.9780  -11.7690   20.4480 N   0  0  0  0  0  0  0  0  0  0  0  0
  -23.9880  -10.5240   21.0050 C   0  0  0  0  0  0  0  0  0  0  0  0
  -24.4360   -9.5530   21.9280 C   0  0  0  0  0  3  0  0  0  0  0  0
  -23.7200   -8.3490   22.1070 C   0  0  0  0  0  3  0  0  0  0  0  0
  -22.5400   -8.1090   21.3640 C   0  0  0  0  0  0  0  0  0  0  0  0
  -22.1100   -9.0690   20.4300 C   0  0  0  0  0  3  0  0  0  0  0  0
  -22.8270  -10.2630   20.2480 C   0  0  0  0  0  3  0  0  0  0  0  0
  -21.7910   -6.9600   21.4550 O   0  0  0  0  0  0  0  0  0  0  0  0
  -21.7280   -6.2310   22.6160 C   0  0  0  0  0  0  0  0  0  0  0  0
  -21.2160   -6.7810   23.8110 C   0  0  0  0  0  3  0  0  0  0  0  0
  -21.1030   -5.9760   24.9630 C   0  0  0  0  0  3  0  0  0  0  0  0
  -21.4890   -4.6240   24.9190 C   0  0  0  0  0  0  0  0  0  0  0  0
  -21.9930   -4.0740   23.7280 C   0  0  0  0  0  3  0  0  0  0  0  0
  -22.1090   -4.8750   22.5780 C   0  0  0  0  0  0  0  0  0  0  0  0
  -22.5750   -4.3350   21.4260 F   0  0  0  0  0  0  0  0  0  0  0  0
  -21.3730   -3.8480   26.0230 F   0  0  0  0  0  0  0  0  0  0  0  0
  -22.8500  -13.6070   21.2420 C   0  0  0  0  0  0  0  0  0  0  0  0
  -22.1610  -12.8890   22.1220 N   0  0  0  0  0  0  0  0  0  0  0  0
  -22.3890  -14.6430   20.7660 O   0  0  0  0  0  0  0  0  0  0  0  0
  -22.5480  -12.0510   22.5270 H   0  0  0  0  0  0  0  0  0  0  0  0
  -21.2330  -13.1860   22.3930 H   0  0  0  0  0  0  0  0  0  0  0  0
  -25.4300  -15.3050   20.3480 N   0  0  0  0  0  0  0  0  0  0  0  0
  -24.6550  -15.9450   20.4830 H   0  0  0  0  0  0  0  0  0  0  0  0
  -26.2380  -15.7500   19.9330 H   0  0  0  0  0  0  0  0  0  0  0  0
  -27.7260  -24.0420   21.2380 C   0  0  0  0  0  2  0  0  0  0  0  0
  -28.8390  -23.3610   20.4510 C   0  0  0  0  0  3  0  0  0  0  0  0
  -28.0830  -24.7720   19.9640 C   0  0  0  0  0  3  0  0  0  0  0  0
  -28.2810  -26.2860   20.2610 O   0  0  0  0  0  0  0  0  0  0  0  0
  -24.6330  -31.9300   23.2530 C   0  0  0  0  0  0  0  0  0  0  0  0
  -27.2070  -27.2470   20.1890 C   0  0  0  0  0  0  0  0  0  0  0  0
  -23.4250  -30.5480   21.6070 C   0  0  0  0  0  3  0  0  0  0  0  0
  -24.8710  -28.9850   20.1660 C   0  0  0  0  0  0  0  0  0  0  0  0
  -25.9760  -30.8190   21.4310 C   0  0  0  0  0  2  0  0  0  0  0  0
  -26.0500  -29.4320   20.7750 C   0  0  0  0  0  0  0  0  0  0  0  0
  -27.2160  -28.5810   20.7680 C   0  0  0  0  0  3  0  0  0  0  0  0
  -25.9980  -26.9010   19.5440 C   0  0  0  0  0  3  0  0  0  0  0  0
  -24.8580  -27.7330   19.5350 C   0  0  0  0  0  3  0  0  0  0  0  0
  -23.6420  -29.8800   20.2230 C   0  0  0  0  0  2  0  0  0  0  0  0
  -24.6980  -31.1190   22.1530 N   0  0  0  0  0  0  0  0  0  0  0  0
  -23.5480  -32.2120   23.7850 O   0  0  0  0  0  0  0  0  0  0  0  0
  -22.7500  -29.5330   22.5610 C   0  0  0  0  0  0  0  0  0  0  0  0
  -21.4260  -29.3480   22.4210 N   0  0  0  0  0  0  0  0  0  0  0  0
  -23.4190  -28.9160   23.3950 O   0  0  0  0  0  0  0  0  0  0  0  0
  -20.9440  -29.8980   21.7250 H   0  0  0  0  0  0  0  0  0  0  0  0
  -18.0540  -28.1080   22.8810 C   0  0  0  0  0  0  0  0  0  0  0  0
  -20.6060  -28.4010   23.1810 C   0  0  0  0  0  3  0  0  0  0  0  0
  -20.7320  -26.9690   22.6120 C   0  0  0  0  0  2  0  0  0  0  0  0
  -19.6470  -26.6300   21.5860 C   0  0  0  0  0  2  0  0  0  0  0  0
  -18.2550  -26.7590   22.2110 C   0  0  0  0  0  2  0  0  0  0  0  0
  -19.1570  -28.8850   23.3230 C   0  0  0  0  0  0  0  0  0  0  0  0
  -18.9150  -30.1440   23.9130 C   0  0  0  0  0  3  0  0  0  0  0  0
  -17.6010  -30.6280   24.0650 C   0  0  0  0  0  3  0  0  0  0  0  0
  -16.5120  -29.8500   23.6380 C   0  0  0  0  0  3  0  0  0  0  0  0
  -16.7390  -28.5910   23.0530 C   0  0  0  0  0  3  0  0  0  0  0  0
  -25.9150  -32.5580   23.8800 C   0  0  0  0  0  3  0  0  0  0  0  0
  -25.6110  -33.9580   24.2140 N   0  0  0  0  0  0  0  0  0  0  0  0
  -25.9260  -35.0110   23.4490 C   0  0  0  0  0  0  0  0  0  0  0  0
  -26.5680  -34.9070   22.4010 O   0  0  0  0  0  0  0  0  0  0  0  0
  -25.0370  -34.1130   25.0300 H   0  0  0  0  0  0  0  0  0  0  0  0
  -24.1870  -36.8060   23.1450 C   0  0  0  0  0  1  0  0  0  0  0  0
  -25.4520  -36.4020   23.9170 C   0  0  0  0  0  3  0  0  0  0  0  0
  -27.6020  -37.3000   24.6910 C   0  0  0  0  0  1  0  0  0  0  0  0
  -26.4800  -37.4550   23.7710 N   0  0  0  0  0  0  0  0  0  0  0  0
  -26.0750  -38.3750   23.9180 H   0  0  0  0  0  0  0  0  0  0  0  0
  -26.4200  -31.7860   25.1620 C   0  0  1  0  0  0  0  0  0  0  0  0
  -25.3190  -31.5520   26.2220 C   0  0  0  0  0  1  0  0  0  0  0  0
  -27.0000  -30.4050   24.7770 C   0  0  0  0  0  1  0  0  0  0  0  0
  -27.5680  -32.5760   25.8330 C   0  0  0  0  0  1  0  0  0  0  0  0
  2  1  1  0
  2  5  1  0
  3  5  2  0
  3  4  1  0
  4  6  2  0
  5  7  1  0
  6 16  1  0
  6  7  1  0
  8 16  1  0
  9 14  1  0
 10 11  1  0
 10  9  1  0
 12 11  1  0
 12 21  1  0
 12 13  1  0
 14  8  1  0
 14 13  1  0
 15  8  2  0
 16 17  1  0
 18 19  2  0
 19 38  1  0
 20 19  1  0
 20 23  1  0
 21 22  1  0
 21 18  1  0
 22 20  2  0
 23 24  1  0
 24 25  2  0
 26 29  1  0
 26 25  1  0
 27 26  2  0
 28 27  1  0
 28 23  2  0
 29 30  1  0
 30 31  1  0
 31 32  2  0
 33 32  1  0
 33 37  1  0
 34 33  2  0
 35 30  2  0
 35 34  1  0
 36 35  1  0
 38 39  1  0
 39 42  1  0
 39 41  1  0
 40 38  2  0
 43 44  1  0
 43 18  1  0
 45 43  1  0
 47  2  1  0
 47 46  1  0
 48 49  1  0
 48 47  1  0
 48 46  1  0
 50 61  2  0
 51 49  1  0
 51 56  1  0
 52 60  1  0
 52 62  1  0
 53 59  1  0
 53 55  1  0
 54 60  1  0
 55 54  1  0
 56 55  2  0
 57 51  2  0
 58 57  1  0
 58 53  2  0
 59 52  1  0
 60 50  1  0
 62 64  2  0
 63 62  1  0
 65 63  1  0
 66 75  2  0
 66 71  1  0
 67 63  1  0
 67 71  1  0
 68 67  1  0
 69 70  1  0
 69 68  1  0
 70 66  1  0
 71 72  2  0
 72 73  1  0
 74 73  2  0
 75 74  1  0
 76 50  1  0
 76 77  1  0
 76 86  1  0
 77 80  1  0
 78 82  1  0
 78 77  1  0
 79 78  2  0
 82 81  1  0
 84 82  1  0
 84 85  1  0
 84 83  1  0
 86 89  1  1
 86 87  1  0
 88 86  1  0
M  ISO  4   8 100  16 100  48 101  49 101
M  END
>  <TORSDO>  (82) 
F 18

>  <SCORE>  (82) 
-14.546

>  <name>  (82) 
82

>  <ligand_id>  (82) 
82

>  <original_smiles>  (82) 
[H]c1c(N([H])C(=O)N2C([H])([H])C([H])([H])C([H])([H])C([H])(n3nc(-c4c([H])c([H])c(Oc5c([H])c([H])c(F)c([H])c5F)c([H])c4[H])c(C(=O)N([H])[H])c3N([H])[H])C2([H])[H])sc(C([H])(C([H])([H])[H])C2([H])C([H])([H])C2([H])Oc2c([H])c([H])c3c(c2[H])C([H])([H])N(C(=O)C([H])(N([H])C(=O)C([H])(N([H])C([H])([H])[H])C([H])([H])[H])C(C([H])([H])[H])(C([H])([H])[H])C([H])([H])[H])C([H])(C(=O)N([H])C2([H])c4c([H])c([H])c([H])c([H])c4C([H])([H])C([H])([H])C2([H])[H])C3([H])[H])c1[H]

>  <smiles>  (82) 
[H]c1c(N([H])C(=O)N2C([H])([H])C([H])([H])C([H])([H])C([H])(n3nc(-c4c([H])c([H])c(Oc5c([H])c([H])c(F)c([H])c5F)c([H])c4[H])c(C(=O)N([H])[H])c3N([H])[H])C2([H])[H])sc(C([H])(C([H])([H])[H])C2([H])C([H])([H])C2([H])Oc2c([H])c([H])c3c(c2[H])C([H])([H])N(C(=O)C([H])(N([H])C(=O)C([H])(N([H])C([H])([H])[H])C([H])([H])[H])C(C([H])([H])[H])(C([H])([H])[H])C([H])([H])[H])C([H])(C(=O)N([H])C2([H])c4c([H])c([H])c([H])c([H])c4C([H])([H])C([H])([H])C2([H])[H])C3([H])[H])c1[H]

$$$$
83:0:0
     RDKit          3D

 95103  0  0  1  0  0  0  0  0999 V2000
  -27.4280  -19.7320   17.6320 C   0  0  0  0  0  3  0  0  0  0  0  0
  -28.2140  -19.4280   18.7510 C   0  0  0  0  0  3  0  0  0  0  0  0
  -27.0930  -21.0690   17.3930 C   0  0  0  0  0  3  0  0  0  0  0  0
  -28.6460  -20.4660   19.6100 C   0  0  0  0  0  0  0  0  0  0  0  0
  -28.2430  -21.8000   19.2870 C   0  0  0  0  0  0  0  0  0  0  0  0
  -27.4900  -22.0750   18.1940 N   0  0  0  0  0  0  0  0  0  0  0  0
  -29.4470  -20.1800   20.7370 N   0  0  0  0  0  0  0  0  0  0  0  0
  -29.7400  -20.9660   21.3150 H   0  0  0  0  0  0  0  0  0  0  0  0
  -29.5090  -18.8320   21.3420 C   0  0  0  0  0  2  0  0  0  0  0  0
  -30.6800  -17.9250   20.8420 C   0  0  0  0  0  3  0  0  0  0  0  0
  -32.5410  -19.0710   19.8860 C   0  0  0  0  0  1  0  0  0  0  0  0
  -31.8780  -18.6620   21.0740 O   0  0  0  0  0  0  0  0  0  0  0  0
  -30.8530  -16.6010   21.6510 C   0  0  0  0  0  2  0  0  0  0  0  0
  -30.8410  -14.4620   20.3220 C   0  0  0  0  0  0  0  0  0  0  0  0
  -30.4820  -12.3580   19.0690 C   0  0  0  0  0  2  0  0  0  0  0  0
  -29.5090  -12.6030   17.8980 C   0  0  0  0  0  2  0  0  0  0  0  0
  -28.0420  -12.4830   18.3600 C   0  0  0  0  0  2  0  0  0  0  0  0
  -27.7550  -13.2830   19.6600 C   0  0  0  0  0  3  0  0  0  0  0  0
  -28.8300  -12.9950   20.7290 C   0  0  0  0  0  2  0  0  0  0  0  0
  -30.1410  -13.3090   20.1380 N   0  0  0  0  0  0  0  0  0  0  0  0
  -31.9320  -14.6800   19.7900 O   0  0  0  0  0  0  0  0  0  0  0  0
  -30.2350  -15.3880   21.0850 N   0  0  0  0  0  0  0  0  0  0  0  0
  -29.3180  -15.1440   21.4290 H   0  0  0  0  0  0  0  0  0  0  0  0
  -25.3770  -13.9200   20.4100 C   0  0  0  0  0  0  0  0  0  0  0  0
  -24.3070  -13.1610   20.8030 C   0  0  0  0  0  0  0  0  0  0  0  0
  -24.7520  -11.8040   20.7660 C   0  0  0  0  0  0  0  0  0  0  0  0
  -26.4080  -13.0250   20.1610 N   0  0  0  0  0  0  0  0  0  0  0  0
  -26.0360  -11.7490   20.4330 N   0  0  0  0  0  0  0  0  0  0  0  0
  -24.0150  -10.5500   20.9730 C   0  0  0  0  0  0  0  0  0  0  0  0
  -24.4580   -9.5780   21.8990 C   0  0  0  0  0  3  0  0  0  0  0  0
  -23.7230   -8.3900   22.0940 C   0  0  0  0  0  3  0  0  0  0  0  0
  -22.5320   -8.1630   21.3630 C   0  0  0  0  0  0  0  0  0  0  0  0
  -22.1080   -9.1230   20.4270 C   0  0  0  0  0  3  0  0  0  0  0  0
  -22.8430  -10.3040   20.2310 C   0  0  0  0  0  3  0  0  0  0  0  0
  -21.7670   -7.0260   21.4680 O   0  0  0  0  0  0  0  0  0  0  0  0
  -21.7340   -6.2850   22.6210 C   0  0  0  0  0  0  0  0  0  0  0  0
  -21.3450   -6.8470   23.8560 C   0  0  0  0  0  3  0  0  0  0  0  0
  -21.2570   -6.0320   25.0040 C   0  0  0  0  0  3  0  0  0  0  0  0
  -21.5480   -4.6590   24.9160 C   0  0  0  0  0  0  0  0  0  0  0  0
  -21.9300   -4.0970   23.6860 C   0  0  0  0  0  3  0  0  0  0  0  0
  -22.0200   -4.9070   22.5410 C   0  0  0  0  0  0  0  0  0  0  0  0
  -22.3680   -4.3570   21.3530 F   0  0  0  0  0  0  0  0  0  0  0  0
  -21.4560   -3.8740   26.0160 F   0  0  0  0  0  0  0  0  0  0  0  0
  -22.9220  -13.6540   21.1000 C   0  0  0  0  0  0  0  0  0  0  0  0
  -22.2020  -12.9690   21.9840 N   0  0  0  0  0  0  0  0  0  0  0  0
  -22.4830  -14.6810   20.5840 O   0  0  0  0  0  0  0  0  0  0  0  0
  -22.5680  -12.1370   22.4230 H   0  0  0  0  0  0  0  0  0  0  0  0
  -21.2730  -13.2820   22.2240 H   0  0  0  0  0  0  0  0  0  0  0  0
  -25.5560  -15.2880   20.2250 N   0  0  0  0  0  0  0  0  0  0  0  0
  -24.8020  -15.9550   20.3460 H   0  0  0  0  0  0  0  0  0  0  0  0
  -26.4030  -15.7090   19.8670 H   0  0  0  0  0  0  0  0  0  0  0  0
  -28.5920  -22.8870   20.0860 O   0  0  0  0  0  0  0  0  0  0  0  0
  -28.1150  -24.1960   19.6900 C   0  0  0  0  0  2  0  0  0  0  0  0
  -28.4060  -25.3220   20.7160 C   0  0  0  0  0  2  0  0  0  0  0  0
  -28.4330  -26.6630   20.1770 O   0  0  0  0  0  0  0  0  0  0  0  0
  -24.6160  -31.8600   23.2390 C   0  0  0  0  0  0  0  0  0  0  0  0
  -27.2560  -27.3860   20.1940 C   0  0  0  0  0  0  0  0  0  0  0  0
  -23.4120  -30.4590   21.5950 C   0  0  0  0  0  3  0  0  0  0  0  0
  -24.8670  -28.9100   20.1860 C   0  0  0  0  0  0  0  0  0  0  0  0
  -25.9410  -30.8070   21.4070 C   0  0  0  0  0  2  0  0  0  0  0  0
  -26.0260  -29.4310   20.7760 C   0  0  0  0  0  0  0  0  0  0  0  0
  -27.2220  -28.6770   20.7750 C   0  0  0  0  0  3  0  0  0  0  0  0
  -26.0810  -26.8870   19.5940 C   0  0  0  0  0  3  0  0  0  0  0  0
  -24.8900  -27.6360   19.5920 C   0  0  0  0  0  3  0  0  0  0  0  0
  -23.6270  -29.7730   20.2190 C   0  0  0  0  0  2  0  0  0  0  0  0
  -24.6750  -31.0570   22.1390 N   0  0  0  0  0  0  0  0  0  0  0  0
  -23.5340  -32.1360   23.7740 O   0  0  0  0  0  0  0  0  0  0  0  0
  -22.7530  -29.4410   22.5550 C   0  0  0  0  0  0  0  0  0  0  0  0
  -21.4260  -29.2740   22.4320 N   0  0  0  0  0  0  0  0  0  0  0  0
  -23.4330  -28.8060   23.3650 O   0  0  0  0  0  0  0  0  0  0  0  0
  -20.9390  -29.8400   21.7500 H   0  0  0  0  0  0  0  0  0  0  0  0
  -18.0410  -28.1240   22.9390 C   0  0  0  0  0  0  0  0  0  0  0  0
  -20.6020  -28.3430   23.2020 C   0  0  0  0  0  3  0  0  0  0  0  0
  -20.6820  -26.9130   22.6180 C   0  0  0  0  0  2  0  0  0  0  0  0
  -19.5710  -26.6120   21.6080 C   0  0  0  0  0  2  0  0  0  0  0  0
  -18.1940  -26.7740   22.2590 C   0  0  0  0  0  2  0  0  0  0  0  0
  -19.1710  -28.8670   23.3690 C   0  0  0  0  0  0  0  0  0  0  0  0
  -18.9730  -30.1320   23.9650 C   0  0  0  0  0  3  0  0  0  0  0  0
  -17.6760  -30.6510   24.1370 C   0  0  0  0  0  3  0  0  0  0  0  0
  -16.5590  -29.9030   23.7260 C   0  0  0  0  0  3  0  0  0  0  0  0
  -16.7420  -28.6420   23.1330 C   0  0  0  0  0  3  0  0  0  0  0  0
  -25.9010  -32.4880   23.8630 C   0  0  0  0  0  3  0  0  0  0  0  0
  -25.5940  -33.8850   24.1950 N   0  0  0  0  0  0  0  0  0  0  0  0
  -25.9220  -34.9380   23.4340 C   0  0  0  0  0  0  0  0  0  0  0  0
  -26.5860  -34.8360   22.3990 O   0  0  0  0  0  0  0  0  0  0  0  0
  -25.0020  -34.0390   24.9980 H   0  0  0  0  0  0  0  0  0  0  0  0
  -24.1840  -36.7270   23.0910 C   0  0  0  0  0  1  0  0  0  0  0  0
  -25.4330  -36.3260   23.8930 C   0  0  0  0  0  3  0  0  0  0  0  0
  -27.5700  -37.2160   24.7090 C   0  0  0  0  0  1  0  0  0  0  0  0
  -26.4610  -37.3820   23.7740 N   0  0  0  0  0  0  0  0  0  0  0  0
  -26.0530  -38.3000   23.9280 H   0  0  0  0  0  0  0  0  0  0  0  0
  -26.4200  -31.7120   25.1360 C   0  0  1  0  0  0  0  0  0  0  0  0
  -25.3270  -31.4680   26.2020 C   0  0  0  0  0  1  0  0  0  0  0  0
  -27.0000  -30.3350   24.7350 C   0  0  0  0  0  1  0  0  0  0  0  0
  -27.5720  -32.5000   25.8010 C   0  0  0  0  0  1  0  0  0  0  0  0
  1  2  1  0
  2  4  2  0
  3  1  2  0
  3  6  1  0
  4  7  1  0
  5  4  1  0
  5 52  1  0
  6  5  2  0
  7  8  1  0
  7  9  1  0
 10 12  1  0
 10  9  1  0
 10 13  1  0
 11 12  1  0
 14 22  1  0
 15 20  1  0
 16 17  1  0
 16 15  1  0
 18 17  1  0
 18 27  1  0
 18 19  1  0
 20 14  1  0
 20 19  1  0
 21 14  2  0
 22 23  1  0
 22 13  1  0
 24 25  2  0
 25 44  1  0
 26 25  1  0
 26 29  1  0
 27 24  1  0
 27 28  1  0
 28 26  2  0
 29 30  1  0
 30 31  2  0
 32 35  1  0
 32 31  1  0
 33 32  2  0
 34 33  1  0
 34 29  2  0
 35 36  1  0
 36 37  1  0
 37 38  2  0
 39 38  1  0
 39 43  1  0
 40 39  2  0
 41 36  2  0
 41 40  1  0
 42 41  1  0
 44 45  1  0
 45 48  1  0
 45 47  1  0
 46 44  2  0
 49 50  1  0
 49 24  1  0
 51 49  1  0
 53 52  1  0
 53 54  1  0
 55 57  1  0
 55 54  1  0
 56 67  2  0
 57 62  1  0
 58 66  1  0
 58 68  1  0
 59 65  1  0
 59 61  1  0
 60 66  1  0
 61 60  1  0
 62 61  2  0
 63 57  2  0
 64 63  1  0
 64 59  2  0
 65 58  1  0
 66 56  1  0
 68 70  2  0
 69 68  1  0
 71 69  1  0
 72 81  2  0
 72 77  1  0
 73 69  1  0
 73 77  1  0
 74 73  1  0
 75 76  1  0
 75 74  1  0
 76 72  1  0
 77 78  2  0
 78 79  1  0
 80 79  2  0
 81 80  1  0
 82 56  1  0
 82 83  1  0
 82 92  1  0
 83 86  1  0
 84 88  1  0
 84 83  1  0
 85 84  2  0
 88 87  1  0
 90 88  1  0
 90 91  1  0
 90 89  1  0
 92 95  1  1
 92 93  1  0
 94 92  1  0
M  ISO  4  14 100  22 100  54 101  55 101
M  END
>  <TORSDO>  (83) 
F 24

>  <SCORE>  (83) 
-12.476

>  <name>  (83) 
83

>  <ligand_id>  (83) 
83

>  <original_smiles>  (83) 
[H]c1nc(OC([H])([H])C([H])([H])Oc2c([H])c([H])c3c(c2[H])C([H])([H])N(C(=O)C([H])(N([H])C(=O)C([H])(N([H])C([H])([H])[H])C([H])([H])[H])C(C([H])([H])[H])(C([H])([H])[H])C([H])([H])[H])C([H])(C(=O)N([H])C2([H])c4c([H])c([H])c([H])c([H])c4C([H])([H])C([H])([H])C2([H])[H])C3([H])[H])c(N([H])C([H])([H])C([H])(OC([H])([H])[H])C([H])([H])N([H])C(=O)N2C([H])([H])C([H])([H])C([H])([H])C([H])(n3nc(-c4c([H])c([H])c(Oc5c([H])c([H])c(F)c([H])c5F)c([H])c4[H])c(C(=O)N([H])[H])c3N([H])[H])C2([H])[H])c([H])c1[H]

>  <smiles>  (83) 
[H]c1nc(OC([H])([H])C([H])([H])Oc2c([H])c([H])c3c(c2[H])C([H])([H])N(C(=O)C([H])(N([H])C(=O)C([H])(N([H])C([H])([H])[H])C([H])([H])[H])C(C([H])([H])[H])(C([H])([H])[H])C([H])([H])[H])C([H])(C(=O)N([H])C2([H])c4c([H])c([H])c([H])c([H])c4C([H])([H])C([H])([H])C2([H])[H])C3([H])[H])c(N([H])C([H])([H])C([H])(OC([H])([H])[H])C([H])([H])N([H])C(=O)N2C([H])([H])C([H])([H])C([H])([H])C([H])(n3nc(-c4c([H])c([H])c(Oc5c([H])c([H])c(F)c([H])c5F)c([H])c4[H])c(C(=O)N([H])[H])c3N([H])[H])C2([H])[H])c([H])c1[H]

$$$$
84:0:0
     RDKit          3D

 93102  0  0  1  0  0  0  0  0999 V2000
  -29.5730  -18.3510   19.8170 C   0  0  0  0  0  3  0  0  0  0  0  0
  -30.0100  -20.5900   21.3220 C   0  0  0  0  0  0  0  0  0  0  0  0
  -30.2920  -18.1920   21.0320 C   0  0  0  0  0  0  0  0  0  0  0  0
  -30.5280  -19.3670   21.8110 C   0  0  0  0  0  0  0  0  0  0  0  0
  -29.3120  -20.6260   20.1290 C   0  0  0  0  0  0  0  0  0  0  0  0
  -30.1080  -21.9820   21.9190 C   0  0  0  0  0  2  0  0  0  0  0  0
  -28.8480  -22.0350   19.7920 C   0  0  0  0  0  2  0  0  0  0  0  0
  -29.1050  -22.8580   21.0980 C   0  0  0  0  0  3  0  0  0  0  0  0
  -31.3150  -19.3250   23.1140 C   0  0  0  0  0  1  0  0  0  0  0  0
  -29.0830  -19.5390   19.3650 N   0  0  0  0  0  0  0  0  0  0  0  0
  -29.8040  -25.0270   22.3030 C   0  0  0  0  0  1  0  0  0  0  0  0
  -29.4710  -24.3850   20.9380 C   0  0  0  0  0  3  0  0  0  0  0  0
  -28.3300  -25.2130   20.2660 C   0  0  0  0  0  2  0  0  0  0  0  0
  -28.5090  -26.6560   20.2900 O   0  0  0  0  0  0  0  0  0  0  0  0
  -24.6550  -31.8940   23.2450 C   0  0  0  0  0  0  0  0  0  0  0  0
  -27.3540  -27.4250   20.2190 C   0  0  0  0  0  0  0  0  0  0  0  0
  -23.4760  -30.4770   21.5980 C   0  0  0  0  0  3  0  0  0  0  0  0
  -24.9560  -28.9490   20.1870 C   0  0  0  0  0  0  0  0  0  0  0  0
  -26.0060  -30.8430   21.4300 C   0  0  0  0  0  2  0  0  0  0  0  0
  -26.1080  -29.4720   20.7870 C   0  0  0  0  0  0  0  0  0  0  0  0
  -27.3110  -28.7220   20.7940 C   0  0  0  0  0  3  0  0  0  0  0  0
  -26.1830  -26.9350   19.5940 C   0  0  0  0  0  3  0  0  0  0  0  0
  -24.9910  -27.6820   19.5820 C   0  0  0  0  0  3  0  0  0  0  0  0
  -23.7040  -29.7970   20.2240 C   0  0  0  0  0  2  0  0  0  0  0  0
  -24.7290  -31.0880   22.1490 N   0  0  0  0  0  0  0  0  0  0  0  0
  -23.5640  -32.1620   23.7690 O   0  0  0  0  0  0  0  0  0  0  0  0
  -22.8230  -29.4540   22.5580 C   0  0  0  0  0  0  0  0  0  0  0  0
  -21.4970  -29.2750   22.4300 N   0  0  0  0  0  0  0  0  0  0  0  0
  -23.5050  -28.8250   23.3700 O   0  0  0  0  0  0  0  0  0  0  0  0
  -21.0100  -29.8410   21.7500 H   0  0  0  0  0  0  0  0  0  0  0  0
  -18.1150  -28.0960   22.9280 C   0  0  0  0  0  0  0  0  0  0  0  0
  -20.6750  -28.3360   23.1940 C   0  0  0  0  0  3  0  0  0  0  0  0
  -20.7670  -26.9080   22.6070 C   0  0  0  0  0  2  0  0  0  0  0  0
  -19.6600  -26.5990   21.5950 C   0  0  0  0  0  2  0  0  0  0  0  0
  -18.2820  -26.7490   22.2440 C   0  0  0  0  0  2  0  0  0  0  0  0
  -19.2400  -28.8490   23.3600 C   0  0  0  0  0  0  0  0  0  0  0  0
  -19.0310  -30.1080   23.9600 C   0  0  0  0  0  3  0  0  0  0  0  0
  -17.7310  -30.6180   24.1320 C   0  0  0  0  0  3  0  0  0  0  0  0
  -16.6210  -29.8630   23.7170 C   0  0  0  0  0  3  0  0  0  0  0  0
  -16.8130  -28.6040   23.1210 C   0  0  0  0  0  3  0  0  0  0  0  0
  -25.9290  -32.5350   23.8790 C   0  0  0  0  0  3  0  0  0  0  0  0
  -26.4470  -31.7670   25.1550 C   0  0  1  0  0  0  0  0  0  0  0  0
  -25.3470  -31.5120   26.2150 C   0  0  0  0  0  1  0  0  0  0  0  0
  -27.0520  -30.4000   24.7600 C   0  0  0  0  0  1  0  0  0  0  0  0
  -27.5840  -32.5730   25.8270 C   0  0  0  0  0  1  0  0  0  0  0  0
  -25.6010  -33.9300   24.2080 N   0  0  0  0  0  0  0  0  0  0  0  0
  -25.9140  -34.9860   23.4450 C   0  0  0  0  0  0  0  0  0  0  0  0
  -26.5820  -34.8900   22.4110 O   0  0  0  0  0  0  0  0  0  0  0  0
  -25.0050  -34.0770   25.0100 H   0  0  0  0  0  0  0  0  0  0  0  0
  -24.1530  -36.7470   23.1080 C   0  0  0  0  0  1  0  0  0  0  0  0
  -25.4110  -36.3670   23.9040 C   0  0  0  0  0  3  0  0  0  0  0  0
  -27.5420  -37.2860   24.7060 C   0  0  0  0  0  1  0  0  0  0  0  0
  -26.4250  -37.4360   23.7760 N   0  0  0  0  0  0  0  0  0  0  0  0
  -26.0070  -38.3490   23.9320 H   0  0  0  0  0  0  0  0  0  0  0  0
  -30.8920  -16.8220   21.4540 C   0  0  0  0  0  2  0  0  0  0  0  0
  -30.8860  -14.5400   20.3630 C   0  0  0  0  0  0  0  0  0  0  0  0
  -30.5430  -12.3770   19.2100 C   0  0  0  0  0  2  0  0  0  0  0  0
  -29.5760  -12.5400   18.0190 C   0  0  0  0  0  2  0  0  0  0  0  0
  -28.1100  -12.4200   18.4780 C   0  0  0  0  0  2  0  0  0  0  0  0
  -27.7980  -13.2840   19.7290 C   0  0  0  0  0  3  0  0  0  0  0  0
  -28.8700  -13.0820   20.8220 C   0  0  0  0  0  2  0  0  0  0  0  0
  -30.1830  -13.3780   20.2270 N   0  0  0  0  0  0  0  0  0  0  0  0
  -32.0040  -14.6930   19.8640 O   0  0  0  0  0  0  0  0  0  0  0  0
  -30.2620  -15.5590   20.9960 N   0  0  0  0  0  0  0  0  0  0  0  0
  -29.3420  -15.3540   21.3570 H   0  0  0  0  0  0  0  0  0  0  0  0
  -25.4220  -13.9200   20.4840 C   0  0  0  0  0  0  0  0  0  0  0  0
  -24.3490  -13.1600   20.8670 C   0  0  0  0  0  0  0  0  0  0  0  0
  -24.7890  -11.8030   20.8210 C   0  0  0  0  0  0  0  0  0  0  0  0
  -26.4500  -13.0250   20.2310 N   0  0  0  0  0  0  0  0  0  0  0  0
  -26.0740  -11.7470   20.4930 N   0  0  0  0  0  0  0  0  0  0  0  0
  -24.0480  -10.5500   21.0150 C   0  0  0  0  0  0  0  0  0  0  0  0
  -24.4800   -9.5710   21.9370 C   0  0  0  0  0  3  0  0  0  0  0  0
  -23.7400   -8.3840   22.1190 C   0  0  0  0  0  3  0  0  0  0  0  0
  -22.5530   -8.1650   21.3800 C   0  0  0  0  0  0  0  0  0  0  0  0
  -22.1410   -9.1320   20.4460 C   0  0  0  0  0  3  0  0  0  0  0  0
  -22.8810  -10.3130   20.2620 C   0  0  0  0  0  3  0  0  0  0  0  0
  -21.7830   -7.0320   21.4730 O   0  0  0  0  0  0  0  0  0  0  0  0
  -21.7310   -6.2890   22.6240 C   0  0  0  0  0  0  0  0  0  0  0  0
  -21.3110   -6.8470   23.8520 C   0  0  0  0  0  3  0  0  0  0  0  0
  -21.2070   -6.0310   24.9970 C   0  0  0  0  0  3  0  0  0  0  0  0
  -21.5120   -4.6590   24.9150 C   0  0  0  0  0  0  0  0  0  0  0  0
  -21.9250   -4.1020   23.6930 C   0  0  0  0  0  3  0  0  0  0  0  0
  -22.0330   -4.9140   22.5510 C   0  0  0  0  0  0  0  0  0  0  0  0
  -22.4100   -4.3670   21.3710 F   0  0  0  0  0  0  0  0  0  0  0  0
  -21.4040   -3.8750   26.0130 F   0  0  0  0  0  0  0  0  0  0  0  0
  -22.9630  -13.6560   21.1670 C   0  0  0  0  0  0  0  0  0  0  0  0
  -22.2410  -12.9660   22.0420 N   0  0  0  0  0  0  0  0  0  0  0  0
  -22.5310  -14.6900   20.6560 O   0  0  0  0  0  0  0  0  0  0  0  0
  -22.6060  -12.1310   22.4770 H   0  0  0  0  0  0  0  0  0  0  0  0
  -21.3110  -13.2780   22.2840 H   0  0  0  0  0  0  0  0  0  0  0  0
  -25.6090  -15.2890   20.3120 N   0  0  0  0  0  0  0  0  0  0  0  0
  -24.8600  -15.9610   20.4460 H   0  0  0  0  0  0  0  0  0  0  0  0
  -26.4630  -15.7100   19.9680 H   0  0  0  0  0  0  0  0  0  0  0  0
  1  3  1  0
  2  4  1  0
  2  6  1  0
  3 55  1  0
  3  4  2  0
  4  9  1  0
  5  2  2  0
  7  5  1  0
  7  8  1  0
  8 12  1  0
  8  6  1  0
 10  1  2  0
 10  5  1  0
 12 11  1  0
 13 14  1  0
 13 12  1  0
 15 26  2  0
 16 14  1  0
 16 21  1  0
 17 25  1  0
 17 27  1  0
 18 24  1  0
 18 20  1  0
 19 25  1  0
 20 21  2  0
 20 19  1  0
 22 16  2  0
 23 22  1  0
 23 18  2  0
 24 17  1  0
 25 15  1  0
 27 29  2  0
 28 27  1  0
 30 28  1  0
 31 40  2  0
 31 36  1  0
 32 28  1  0
 32 36  1  0
 33 32  1  0
 34 35  1  0
 34 33  1  0
 35 31  1  0
 36 37  2  0
 37 38  1  0
 39 38  2  0
 40 39  1  0
 41 15  1  0
 41 46  1  0
 41 42  1  0
 42 45  1  1
 42 43  1  0
 44 42  1  0
 46 49  1  0
 47 51  1  0
 47 46  1  0
 48 47  2  0
 51 50  1  0
 53 51  1  0
 53 54  1  0
 53 52  1  0
 56 64  1  0
 57 62  1  0
 58 59  1  0
 58 57  1  0
 60 59  1  0
 60 69  1  0
 60 61  1  0
 62 56  1  0
 62 61  1  0
 63 56  2  0
 64 65  1  0
 64 55  1  0
 66 67  2  0
 67 86  1  0
 68 67  1  0
 68 71  1  0
 69 66  1  0
 69 70  1  0
 70 68  2  0
 71 72  1  0
 72 73  2  0
 74 77  1  0
 74 73  1  0
 75 74  2  0
 76 75  1  0
 76 71  2  0
 77 78  1  0
 78 79  1  0
 79 80  2  0
 81 80  1  0
 81 85  1  0
 82 81  2  0
 83 78  2  0
 83 82  1  0
 84 83  1  0
 86 87  1  0
 87 90  1  0
 87 89  1  0
 88 86  2  0
 91 92  1  0
 91 66  1  0
 93 91  1  0
M  ISO  4  13 101  14 101  56 100  64 100
M  END
>  <TORSDO>  (84) 
F 19

>  <SCORE>  (84) 
-14.414

>  <name>  (84) 
84

>  <ligand_id>  (84) 
84

>  <original_smiles>  (84) 
[H]c1nc2c(c(C([H])([H])[H])c1C([H])([H])N([H])C(=O)N1C([H])([H])C([H])([H])C([H])([H])C([H])(n3nc(-c4c([H])c([H])c(Oc5c([H])c([H])c(F)c([H])c5F)c([H])c4[H])c(C(=O)N([H])[H])c3N([H])[H])C1([H])[H])C([H])([H])C([H])(C([H])(C([H])([H])[H])C([H])([H])Oc1c([H])c([H])c3c(c1[H])C([H])([H])N(C(=O)C([H])(N([H])C(=O)C([H])(N([H])C([H])([H])[H])C([H])([H])[H])C(C([H])([H])[H])(C([H])([H])[H])C([H])([H])[H])C([H])(C(=O)N([H])C1([H])c4c([H])c([H])c([H])c([H])c4C([H])([H])C([H])([H])C1([H])[H])C3([H])[H])C2([H])[H]

>  <smiles>  (84) 
[H]c1nc2c(c(C([H])([H])[H])c1C([H])([H])N([H])C(=O)N1C([H])([H])C([H])([H])C([H])([H])C([H])(n3nc(-c4c([H])c([H])c(Oc5c([H])c([H])c(F)c([H])c5F)c([H])c4[H])c(C(=O)N([H])[H])c3N([H])[H])C1([H])[H])C([H])([H])C([H])(C([H])(C([H])([H])[H])C([H])([H])Oc1c([H])c([H])c3c(c1[H])C([H])([H])N(C(=O)C([H])(N([H])C(=O)C([H])(N([H])C([H])([H])[H])C([H])([H])[H])C(C([H])([H])[H])(C([H])([H])[H])C([H])([H])[H])C([H])(C(=O)N([H])C1([H])c4c([H])c([H])c([H])c([H])c4C([H])([H])C([H])([H])C1([H])[H])C3([H])[H])C2([H])[H]

$$$$
85:0:0
     RDKit          3D

 93102  0  0  1  0  0  0  0  0999 V2000
  -29.1430  -23.1560   19.1350 C   0  0  0  0  0  0  0  0  0  0  0  0
  -28.7260  -22.1950   18.3060 N   0  0  0  0  0  0  0  0  0  0  0  0
  -30.0190  -22.9760   19.9870 O   0  0  0  0  0  0  0  0  0  0  0  0
  -28.0280  -22.4580   17.6220 H   0  0  0  0  0  0  0  0  0  0  0  0
  -29.3540  -25.6080   18.7870 C   0  0  0  0  0  2  0  0  0  0  0  0
  -28.4820  -24.4690   18.9190 C   0  0  0  0  0  3  0  0  0  0  0  0
  -28.5600  -25.4460   20.1080 C   0  0  0  0  0  3  0  0  0  0  0  0
  -28.4250  -26.8630   20.1360 O   0  0  0  0  0  0  0  0  0  0  0  0
  -24.5820  -31.8840   23.2180 C   0  0  0  0  0  0  0  0  0  0  0  0
  -27.1970  -27.4790   20.1300 C   0  0  0  0  0  0  0  0  0  0  0  0
  -23.3530  -30.4750   21.5940 C   0  0  0  0  0  3  0  0  0  0  0  0
  -24.7870  -28.9390   20.1550 C   0  0  0  0  0  0  0  0  0  0  0  0
  -25.8650  -30.8580   21.3490 C   0  0  0  0  0  2  0  0  0  0  0  0
  -25.9420  -29.4850   20.7240 C   0  0  0  0  0  0  0  0  0  0  0  0
  -27.1500  -28.7640   20.7010 C   0  0  0  0  0  3  0  0  0  0  0  0
  -26.0210  -26.9260   19.5680 C   0  0  0  0  0  3  0  0  0  0  0  0
  -24.8180  -27.6580   19.5720 C   0  0  0  0  0  3  0  0  0  0  0  0
  -23.5420  -29.7910   20.2110 C   0  0  0  0  0  2  0  0  0  0  0  0
  -24.6190  -31.0860   22.1130 N   0  0  0  0  0  0  0  0  0  0  0  0
  -23.5100  -32.1550   23.7730 O   0  0  0  0  0  0  0  0  0  0  0  0
  -22.7200  -29.4560   22.5670 C   0  0  0  0  0  0  0  0  0  0  0  0
  -21.3940  -29.2730   22.4540 N   0  0  0  0  0  0  0  0  0  0  0  0
  -23.4140  -28.8320   23.3740 O   0  0  0  0  0  0  0  0  0  0  0  0
  -20.9000  -29.8300   21.7720 H   0  0  0  0  0  0  0  0  0  0  0  0
  -18.0230  -28.0830   22.9780 C   0  0  0  0  0  0  0  0  0  0  0  0
  -20.5830  -28.3420   23.2350 C   0  0  0  0  0  3  0  0  0  0  0  0
  -20.6830  -26.9090   22.6640 C   0  0  0  0  0  2  0  0  0  0  0  0
  -19.5740  -26.5810   21.6580 C   0  0  0  0  0  2  0  0  0  0  0  0
  -18.1950  -26.7290   22.3080 C   0  0  0  0  0  2  0  0  0  0  0  0
  -19.1440  -28.8470   23.3960 C   0  0  0  0  0  0  0  0  0  0  0  0
  -18.9300  -30.1150   23.9780 C   0  0  0  0  0  3  0  0  0  0  0  0
  -17.6260  -30.6200   24.1460 C   0  0  0  0  0  3  0  0  0  0  0  0
  -16.5190  -29.8530   23.7430 C   0  0  0  0  0  3  0  0  0  0  0  0
  -16.7180  -28.5860   23.1660 C   0  0  0  0  0  3  0  0  0  0  0  0
  -25.8790  -32.5140   23.8190 C   0  0  0  0  0  3  0  0  0  0  0  0
  -25.5690  -33.9050   24.1750 N   0  0  0  0  0  0  0  0  0  0  0  0
  -25.8780  -34.9690   23.4220 C   0  0  0  0  0  0  0  0  0  0  0  0
  -26.5290  -34.8840   22.3780 O   0  0  0  0  0  0  0  0  0  0  0  0
  -24.9970  -34.0450   24.9950 H   0  0  0  0  0  0  0  0  0  0  0  0
  -24.1280  -36.7490   23.1250 C   0  0  0  0  0  1  0  0  0  0  0  0
  -25.3890  -36.3460   23.9060 C   0  0  0  0  0  3  0  0  0  0  0  0
  -27.5370  -37.2350   24.6990 C   0  0  0  0  0  1  0  0  0  0  0  0
  -26.4100  -37.4100   23.7850 N   0  0  0  0  0  0  0  0  0  0  0  0
  -26.0010  -38.3250   23.9540 H   0  0  0  0  0  0  0  0  0  0  0  0
  -26.4320  -31.7270   25.0700 C   0  0  1  0  0  0  0  0  0  0  0  0
  -25.3660  -31.4550   26.1560 C   0  0  0  0  0  1  0  0  0  0  0  0
  -27.0180  -30.3650   24.6320 C   0  0  0  0  0  1  0  0  0  0  0  0
  -27.5860  -32.5220   25.7240 C   0  0  0  0  0  1  0  0  0  0  0  0
  -29.0230  -20.1330   16.9370 C   0  0  0  0  0  2  0  0  0  0  0  0
  -30.3990  -20.5350   17.3990 C   0  0  0  0  0  2  0  0  0  0  0  0
  -29.1920  -20.8490   18.2650 C   0  0  1  0  0  0  0  0  0  0  0  0
  -28.8830  -20.0670   19.5440 C   0  0  0  0  0  2  0  0  0  0  0  0
  -29.3520  -18.7460   19.3480 O   0  0  0  0  0  0  0  0  0  0  0  0
  -29.0570  -17.8010   20.3570 C   0  0  0  0  0  2  0  0  0  0  0  0
  -30.2190  -16.7950   20.2430 C   0  0  0  0  0  2  0  0  0  0  0  0
  -30.6680  -14.4110   20.4740 C   0  0  0  0  0  0  0  0  0  0  0  0
  -30.3670  -12.2570   19.3600 C   0  0  0  0  0  2  0  0  0  0  0  0
  -29.4530  -12.5170   18.1450 C   0  0  0  0  0  2  0  0  0  0  0  0
  -27.9680  -12.4040   18.5500 C   0  0  0  0  0  2  0  0  0  0  0  0
  -27.6290  -13.2240   19.8260 C   0  0  0  0  0  3  0  0  0  0  0  0
  -28.6670  -12.9590   20.9420 C   0  0  0  0  0  2  0  0  0  0  0  0
  -30.0030  -13.2370   20.3900 N   0  0  0  0  0  0  0  0  0  0  0  0
  -31.8210  -14.5750   20.0620 O   0  0  0  0  0  0  0  0  0  0  0  0
  -29.9000  -15.4700   20.7670 N   0  0  0  0  0  0  0  0  0  0  0  0
  -28.9560  -15.2950   21.0780 H   0  0  0  0  0  0  0  0  0  0  0  0
  -25.2230  -13.8510   20.5130 C   0  0  0  0  0  0  0  0  0  0  0  0
  -24.1480  -13.0850   20.8810 C   0  0  0  0  0  0  0  0  0  0  0  0
  -24.6040  -11.7320   20.8600 C   0  0  0  0  0  0  0  0  0  0  0  0
  -26.2670  -12.9640   20.2910 N   0  0  0  0  0  0  0  0  0  0  0  0
  -25.8960  -11.6870   20.5570 N   0  0  0  0  0  0  0  0  0  0  0  0
  -23.8740  -10.4730   21.0550 C   0  0  0  0  0  0  0  0  0  0  0  0
  -24.3120   -9.5000   21.9800 C   0  0  0  0  0  3  0  0  0  0  0  0
  -23.5840   -8.3040   22.1640 C   0  0  0  0  0  3  0  0  0  0  0  0
  -22.4030   -8.0750   21.4200 C   0  0  0  0  0  0  0  0  0  0  0  0
  -21.9800   -9.0360   20.4860 C   0  0  0  0  0  3  0  0  0  0  0  0
  -22.7080  -10.2230   20.3010 C   0  0  0  0  0  3  0  0  0  0  0  0
  -21.6440   -6.9330   21.5120 O   0  0  0  0  0  0  0  0  0  0  0  0
  -21.6200   -6.1730   22.6530 C   0  0  0  0  0  0  0  0  0  0  0  0
  -21.2510   -6.7160   23.9030 C   0  0  0  0  0  3  0  0  0  0  0  0
  -21.1730   -5.8820   25.0370 C   0  0  0  0  0  3  0  0  0  0  0  0
  -21.4510   -4.5080   24.9240 C   0  0  0  0  0  0  0  0  0  0  0  0
  -21.8150   -3.9650   23.6800 C   0  0  0  0  0  3  0  0  0  0  0  0
  -21.8950   -4.7940   22.5470 C   0  0  0  0  0  0  0  0  0  0  0  0
  -22.2220   -4.2610   21.3460 F   0  0  0  0  0  0  0  0  0  0  0  0
  -21.3730   -3.7050   26.0120 F   0  0  0  0  0  0  0  0  0  0  0  0
  -22.7470  -13.5700   21.1330 C   0  0  0  0  0  0  0  0  0  0  0  0
  -22.0040  -12.8920   22.0000 N   0  0  0  0  0  0  0  0  0  0  0  0
  -22.3160  -14.5880   20.5950 O   0  0  0  0  0  0  0  0  0  0  0  0
  -22.3640  -12.0760   22.4730 H   0  0  0  0  0  0  0  0  0  0  0  0
  -21.0630  -13.2020   22.2080 H   0  0  0  0  0  0  0  0  0  0  0  0
  -25.3910  -15.2190   20.3290 N   0  0  0  0  0  0  0  0  0  0  0  0
  -24.6200  -15.8690   20.4320 H   0  0  0  0  0  0  0  0  0  0  0  0
  -26.2390  -15.6570   19.9950 H   0  0  0  0  0  0  0  0  0  0  0  0
  1  3  2  0
  2  1  1  0
  4  2  1  0
  5  6  1  0
  5  7  1  0
  6  1  1  0
  6  7  1  0
  7  8  1  0
  9 20  2  0
 10  8  1  0
 10 15  1  0
 11 19  1  0
 11 21  1  0
 12 18  1  0
 12 14  1  0
 13 19  1  0
 14 13  1  0
 15 14  2  0
 16 17  1  0
 16 10  2  0
 17 12  2  0
 18 11  1  0
 19  9  1  0
 21 23  2  0
 22 21  1  0
 24 22  1  0
 25 34  2  0
 25 30  1  0
 26 22  1  0
 26 30  1  0
 27 26  1  0
 28 29  1  0
 28 27  1  0
 29 25  1  0
 30 31  2  0
 31 32  1  0
 33 32  2  0
 34 33  1  0
 35  9  1  0
 35 36  1  0
 35 45  1  0
 36 39  1  0
 37 41  1  0
 37 36  1  0
 38 37  2  0
 41 40  1  0
 43 41  1  0
 43 44  1  0
 43 42  1  0
 45 48  1  1
 45 46  1  0
 47 45  1  0
 49 50  1  0
 49 51  1  0
 50 51  1  0
 51  2  1  0
 51 52  1  1
 53 52  1  0
 53 54  1  0
 55 54  1  0
 55 64  1  0
 56 64  1  0
 57 62  1  0
 58 59  1  0
 58 57  1  0
 60 59  1  0
 60 69  1  0
 60 61  1  0
 62 56  1  0
 62 61  1  0
 63 56  2  0
 64 65  1  0
 66 67  2  0
 67 86  1  0
 68 67  1  0
 68 71  1  0
 69 66  1  0
 69 70  1  0
 70 68  2  0
 71 72  1  0
 72 73  2  0
 74 77  1  0
 74 73  1  0
 75 74  2  0
 76 75  1  0
 76 71  2  0
 77 78  1  0
 78 79  1  0
 79 80  2  0
 81 80  1  0
 81 85  1  0
 82 81  2  0
 83 78  2  0
 83 82  1  0
 84 83  1  0
 86 87  1  0
 87 90  1  0
 87 89  1  0
 88 86  2  0
 91 92  1  0
 91 66  1  0
 93 91  1  0
M  ISO  4   7 101   8 101  56 100  64 100
M  END
>  <TORSDO>  (85) 
F 22

>  <SCORE>  (85) 
-13.116

>  <name>  (85) 
85

>  <ligand_id>  (85) 
85

>  <original_smiles>  (85) 
[H]c1c([H])c([H])c2c(c1[H])C([H])([H])C([H])([H])C([H])([H])C2([H])N([H])C(=O)C1([H])N(C(=O)C([H])(N([H])C(=O)C([H])(N([H])C([H])([H])[H])C([H])([H])[H])C(C([H])([H])[H])(C([H])([H])[H])C([H])([H])[H])C([H])([H])c2c([H])c(OC3([H])C([H])([H])C3([H])C(=O)N([H])C3(C([H])([H])OC([H])([H])C([H])([H])N([H])C(=O)N4C([H])([H])C([H])([H])C([H])([H])C([H])(n5nc(-c6c([H])c([H])c(Oc7c([H])c([H])c(F)c([H])c7F)c([H])c6[H])c(C(=O)N([H])[H])c5N([H])[H])C4([H])[H])C([H])([H])C3([H])[H])c([H])c([H])c2C1([H])[H]

>  <smiles>  (85) 
[H]c1c([H])c([H])c2c(c1[H])C([H])([H])C([H])([H])C([H])([H])C2([H])N([H])C(=O)C1([H])N(C(=O)C([H])(N([H])C(=O)C([H])(N([H])C([H])([H])[H])C([H])([H])[H])C(C([H])([H])[H])(C([H])([H])[H])C([H])([H])[H])C([H])([H])c2c([H])c(OC3([H])C([H])([H])C3([H])C(=O)N([H])C3(C([H])([H])OC([H])([H])C([H])([H])N([H])C(=O)N4C([H])([H])C([H])([H])C([H])([H])C([H])(n5nc(-c6c([H])c([H])c(Oc7c([H])c([H])c(F)c([H])c7F)c([H])c6[H])c(C(=O)N([H])[H])c5N([H])[H])C4([H])[H])C([H])([H])C3([H])[H])c([H])c([H])c2C1([H])[H]

$$$$
86:0:0
     RDKit          3D

 91101  0  0  1  0  0  0  0  0999 V2000
  -29.4270  -22.2620   18.9340 C   0  0  0  0  0  3  0  0  0  0  0  0
  -29.4940  -21.3850   20.8950 C   0  0  0  0  0  0  0  0  0  0  0  0
  -29.2180  -22.7620   20.2180 C   0  0  0  0  0  0  0  0  0  0  0  0
  -29.8030  -20.1940   20.0860 C   0  0  0  0  0  0  0  0  0  0  0  0
  -30.7470  -18.7240   18.3150 C   0  0  0  0  0  2  0  0  0  0  0  0
  -30.0700  -20.0170   17.7540 C   0  0  0  0  0  2  0  0  0  0  0  0
  -30.4470  -18.5630   19.8350 C   0  0  0  0  0  3  0  0  0  0  0  0
  -29.7590  -20.8660   18.8840 N   0  0  0  0  0  0  0  0  0  0  0  0
  -30.8030  -15.6150   20.1150 C   0  0  0  0  0  0  0  0  0  0  0  0
  -30.8410  -13.0750   19.4850 C   0  0  0  0  0  2  0  0  0  0  0  0
  -29.9710  -12.6830   18.2630 C   0  0  0  0  0  2  0  0  0  0  0  0
  -28.5170  -12.4230   18.6880 C   0  0  0  0  0  2  0  0  0  0  0  0
  -28.0070  -13.4900   19.6880 C   0  0  0  0  0  3  0  0  0  0  0  0
  -29.0150  -13.8100   20.8140 C   0  0  0  0  0  2  0  0  0  0  0  0
  -30.2440  -14.2950   20.1600 N   0  0  0  0  0  0  0  0  0  0  0  0
  -32.0310  -15.5700   19.9380 O   0  0  0  0  0  0  0  0  0  0  0  0
  -30.0630  -16.9280   20.0760 N   0  0  0  0  0  0  0  0  0  0  0  0
  -29.0720  -16.7940   20.2180 H   0  0  0  0  0  0  0  0  0  0  0  0
  -25.6700  -14.0980   20.4970 C   0  0  0  0  0  0  0  0  0  0  0  0
  -24.5800  -13.3460   20.8370 C   0  0  0  0  0  0  0  0  0  0  0  0
  -24.9930  -11.9810   20.7330 C   0  0  0  0  0  0  0  0  0  0  0  0
  -26.6730  -13.1960   20.1950 N   0  0  0  0  0  0  0  0  0  0  0  0
  -26.2780  -11.9110   20.4060 N   0  0  0  0  0  0  0  0  0  0  0  0
  -24.2130  -10.7420   20.8610 C   0  0  0  0  0  0  0  0  0  0  0  0
  -24.5620   -9.7420   21.7970 C   0  0  0  0  0  3  0  0  0  0  0  0
  -23.7820   -8.5720   21.9180 C   0  0  0  0  0  3  0  0  0  0  0  0
  -22.6390   -8.3920   21.1030 C   0  0  0  0  0  0  0  0  0  0  0  0
  -22.3060   -9.3810   20.1590 C   0  0  0  0  0  3  0  0  0  0  0  0
  -23.0880  -10.5420   20.0350 C   0  0  0  0  0  3  0  0  0  0  0  0
  -21.8370   -7.2750   21.1310 O   0  0  0  0  0  0  0  0  0  0  0  0
  -21.6030   -6.5870   22.2950 C   0  0  0  0  0  0  0  0  0  0  0  0
  -21.0110   -7.2040   23.4200 C   0  0  0  0  0  3  0  0  0  0  0  0
  -20.7260   -6.4430   24.5710 C   0  0  0  0  0  3  0  0  0  0  0  0
  -21.0190   -5.0660   24.5970 C   0  0  0  0  0  0  0  0  0  0  0  0
  -21.6040   -4.4490   23.4770 C   0  0  0  0  0  3  0  0  0  0  0  0
  -21.8900   -5.2080   22.3280 C   0  0  0  0  0  0  0  0  0  0  0  0
  -22.4340   -4.6040   21.2430 F   0  0  0  0  0  0  0  0  0  0  0  0
  -20.7380   -4.3340   25.7000 F   0  0  0  0  0  0  0  0  0  0  0  0
  -23.2050  -13.8650   21.1370 C   0  0  0  0  0  0  0  0  0  0  0  0
  -22.4620  -13.1770   21.9940 N   0  0  0  0  0  0  0  0  0  0  0  0
  -22.8040  -14.9220   20.6490 O   0  0  0  0  0  0  0  0  0  0  0  0
  -22.8010  -12.3290   22.4200 H   0  0  0  0  0  0  0  0  0  0  0  0
  -21.5390  -13.5120   22.2360 H   0  0  0  0  0  0  0  0  0  0  0  0
  -25.8830  -15.4690   20.3860 N   0  0  0  0  0  0  0  0  0  0  0  0
  -25.1260  -16.1330   20.5150 H   0  0  0  0  0  0  0  0  0  0  0  0
  -26.7160  -15.8920   19.9970 H   0  0  0  0  0  0  0  0  0  0  0  0
  -30.4380  -22.1060   23.2430 C   0  0  0  0  0  2  0  0  0  0  0  0
  -30.5750  -20.6030   23.2000 C   0  0  0  0  0  2  0  0  0  0  0  0
  -29.4770  -21.2870   22.4080 C   0  0  0  0  0  3  0  0  0  0  0  0
  -28.6330  -24.4060   20.7220 C   0  0  0  0  0  2  0  0  0  0  0  0
  -28.8520  -26.0180   20.3040 O   0  0  0  0  0  0  0  0  0  0  0  0
  -24.8820  -31.8240   23.2710 C   0  0  0  0  0  0  0  0  0  0  0  0
  -27.8050  -27.1080   20.2670 C   0  0  0  0  0  0  0  0  0  0  0  0
  -23.8410  -30.4320   21.5320 C   0  0  0  0  0  3  0  0  0  0  0  0
  -25.4350  -28.9340   20.1420 C   0  0  0  0  0  0  0  0  0  0  0  0
  -26.4010  -30.7470   21.5290 C   0  0  0  0  0  2  0  0  0  0  0  0
  -26.5720  -29.3550   20.8400 C   0  0  0  0  0  0  0  0  0  0  0  0
  -27.7510  -28.4700   20.8740 C   0  0  0  0  0  3  0  0  0  0  0  0
  -26.6260  -26.8540   19.5240 C   0  0  0  0  0  3  0  0  0  0  0  0
  -25.4890  -27.7060   19.4650 C   0  0  0  0  0  3  0  0  0  0  0  0
  -24.1760  -29.8080   20.1500 C   0  0  0  0  0  2  0  0  0  0  0  0
  -25.0600  -31.0290   22.1650 N   0  0  0  0  0  0  0  0  0  0  0  0
  -23.7540  -32.0470   23.7410 O   0  0  0  0  0  0  0  0  0  0  0  0
  -23.1390  -29.3780   22.4270 C   0  0  0  0  0  0  0  0  0  0  0  0
  -21.8160  -29.1890   22.2560 N   0  0  0  0  0  0  0  0  0  0  0  0
  -23.7940  -28.7290   23.2470 O   0  0  0  0  0  0  0  0  0  0  0  0
  -21.3390  -29.7580   21.5710 H   0  0  0  0  0  0  0  0  0  0  0  0
  -18.4390  -27.9210   22.6580 C   0  0  0  0  0  0  0  0  0  0  0  0
  -20.9950  -28.1980   22.9590 C   0  0  0  0  0  3  0  0  0  0  0  0
  -21.1170  -26.8070   22.2940 C   0  0  0  0  0  2  0  0  0  0  0  0
  -20.0260  -26.5400   21.2530 C   0  0  0  0  0  2  0  0  0  0  0  0
  -18.6370  -26.6250   21.8920 C   0  0  0  0  0  2  0  0  0  0  0  0
  -19.5440  -28.6700   23.1450 C   0  0  0  0  0  0  0  0  0  0  0  0
  -19.3010  -29.8830   23.8230 C   0  0  0  0  0  3  0  0  0  0  0  0
  -17.9880  -30.3500   24.0200 C   0  0  0  0  0  3  0  0  0  0  0  0
  -16.8980  -29.6000   23.5430 C   0  0  0  0  0  3  0  0  0  0  0  0
  -17.1230  -28.3880   22.8680 C   0  0  0  0  0  3  0  0  0  0  0  0
  -26.0870  -32.5020   23.9930 C   0  0  0  0  0  3  0  0  0  0  0  0
  -25.6890  -33.8780   24.3490 N   0  0  0  0  0  0  0  0  0  0  0  0
  -25.9760  -34.9700   23.6300 C   0  0  0  0  0  0  0  0  0  0  0  0
  -26.6630  -34.9300   22.6060 O   0  0  0  0  0  0  0  0  0  0  0  0
  -25.0760  -33.9760   25.1450 H   0  0  0  0  0  0  0  0  0  0  0  0
  -24.1430  -36.6710   23.3250 C   0  0  0  0  0  1  0  0  0  0  0  0
  -25.4140  -36.3220   24.1170 C   0  0  0  0  0  3  0  0  0  0  0  0
  -27.4990  -37.3200   24.9520 C   0  0  0  0  0  1  0  0  0  0  0  0
  -26.3820  -37.4370   24.0170 N   0  0  0  0  0  0  0  0  0  0  0  0
  -25.9220  -38.3280   24.1850 H   0  0  0  0  0  0  0  0  0  0  0  0
  -26.5500  -31.7230   25.2860 C   0  0  1  0  0  0  0  0  0  0  0  0
  -25.4010  -31.4290   26.2820 C   0  0  0  0  0  1  0  0  0  0  0  0
  -27.2010  -30.3720   24.9130 C   0  0  0  0  0  1  0  0  0  0  0  0
  -27.6300  -32.5410   26.0310 C   0  0  0  0  0  1  0  0  0  0  0  0
  1  3  2  0
  2 49  1  0
  3 50  1  0
  3  2  1  0
  4  2  2  0
  5  7  1  0
  6  5  1  0
  6  8  1  0
  7 17  1  0
  7  4  1  0
  8  1  1  0
  8  4  1  0
  9 15  1  0
 10 15  1  0
 11 12  1  0
 11 10  1  0
 13 12  1  0
 13 22  1  0
 13 14  1  0
 15 14  1  0
 16  9  2  0
 17  9  1  0
 17 18  1  0
 19 20  2  0
 20 39  1  0
 21 20  1  0
 21 24  1  0
 22 23  1  0
 22 19  1  0
 23 21  2  0
 24 25  1  0
 25 26  2  0
 27 30  1  0
 27 26  1  0
 28 27  2  0
 29 28  1  0
 29 24  2  0
 30 31  1  0
 31 36  2  0
 31 32  1  0
 32 33  2  0
 33 34  1  0
 34 38  1  0
 35 34  2  0
 36 35  1  0
 37 36  1  0
 39 40  1  0
 40 43  1  0
 40 42  1  0
 41 39  2  0
 44 19  1  0
 44 45  1  0
 46 44  1  0
 48 47  1  0
 49 48  1  0
 49 47  1  0
 51 50  1  0
 52 63  2  0
 53 51  1  0
 53 58  1  0
 54 62  1  0
 54 64  1  0
 55 61  1  0
 55 57  1  0
 56 62  1  0
 57 58  2  0
 57 56  1  0
 59 53  2  0
 60 59  1  0
 60 55  2  0
 61 54  1  0
 62 52  1  0
 64 66  2  0
 65 64  1  0
 67 65  1  0
 68 77  2  0
 68 73  1  0
 69 65  1  0
 69 73  1  0
 70 69  1  0
 71 72  1  0
 71 70  1  0
 72 68  1  0
 73 74  2  0
 74 75  1  0
 76 75  2  0
 77 76  1  0
 78 52  1  0
 78 79  1  0
 78 88  1  0
 79 82  1  0
 80 84  1  0
 80 79  1  0
 81 80  2  0
 84 83  1  0
 86 84  1  0
 86 87  1  0
 86 85  1  0
 88 91  1  1
 88 89  1  0
 90 88  1  0
M  ISO  4   9 100  17 100  50 101  51 101
M  END
>  <TORSDO>  (86) 
F 18

>  <SCORE>  (86) 
-15.381

>  <name>  (86) 
86

>  <ligand_id>  (86) 
86

>  <original_smiles>  (86) 
[H]c1c([H])c([H])c2c(c1[H])C([H])([H])C([H])([H])C([H])([H])C2([H])N([H])C(=O)C1([H])N(C(=O)C([H])(N([H])C(=O)C([H])(N([H])C([H])([H])[H])C([H])([H])[H])C(C([H])([H])[H])(C([H])([H])[H])C([H])([H])[H])C([H])([H])c2c([H])c(OC([H])([H])c3c(C4([H])C([H])([H])C4([H])[H])c4n(c3[H])C([H])([H])C([H])([H])C4([H])N([H])C(=O)N3C([H])([H])C([H])([H])C([H])([H])C([H])(n4nc(-c5c([H])c([H])c(Oc6c([H])c([H])c(F)c([H])c6F)c([H])c5[H])c(C(=O)N([H])[H])c4N([H])[H])C3([H])[H])c([H])c([H])c2C1([H])[H]

>  <smiles>  (86) 
[H]c1c([H])c([H])c2c(c1[H])C([H])([H])C([H])([H])C([H])([H])C2([H])N([H])C(=O)C1([H])N(C(=O)C([H])(N([H])C(=O)C([H])(N([H])C([H])([H])[H])C([H])([H])[H])C(C([H])([H])[H])(C([H])([H])[H])C([H])([H])[H])C([H])([H])c2c([H])c(OC([H])([H])c3c(C4([H])C([H])([H])C4([H])[H])c4n(c3[H])C([H])([H])C([H])([H])C4([H])N([H])C(=O)N3C([H])([H])C([H])([H])C([H])([H])C([H])(n4nc(-c5c([H])c([H])c(Oc6c([H])c([H])c(F)c([H])c6F)c([H])c5[H])c(C(=O)N([H])[H])c4N([H])[H])C3([H])[H])c([H])c([H])c2C1([H])[H]

$$$$
87:0:0
     RDKit          3D

 94103  0  0  1  0  0  0  0  0999 V2000
  -29.2090  -21.0410   17.4450 C   0  0  0  0  0  2  0  0  0  0  0  0
  -28.2630  -20.0470   18.0830 C   0  0  0  0  0  3  0  0  0  0  0  0
  -28.4060  -21.4260   18.6650 C   0  0  0  0  0  3  0  0  0  0  0  0
  -29.5650  -17.9110   18.1940 C   0  0  0  0  0  3  0  0  0  0  0  0
  -28.4060  -18.6660   20.1950 C   0  0  0  0  0  3  0  0  0  0  0  0
  -30.0090  -16.7700   18.8820 C   0  0  0  0  0  3  0  0  0  0  0  0
  -28.8450  -17.5220   20.8890 C   0  0  0  0  0  3  0  0  0  0  0  0
  -28.7530  -18.8600   18.8410 C   0  0  0  0  0  0  0  0  0  0  0  0
  -29.6420  -16.5580   20.2360 C   0  0  0  0  0  0  0  0  0  0  0  0
  -30.6970  -14.3650   20.4370 C   0  0  0  0  0  0  0  0  0  0  0  0
  -30.3720  -12.2430   19.2580 C   0  0  0  0  0  2  0  0  0  0  0  0
  -29.4240  -12.5090   18.0690 C   0  0  0  0  0  2  0  0  0  0  0  0
  -27.9490  -12.3960   18.5040 C   0  0  0  0  0  2  0  0  0  0  0  0
  -27.6380  -13.2020   19.7930 C   0  0  0  0  0  3  0  0  0  0  0  0
  -28.6930  -12.9090   20.8850 C   0  0  0  0  0  2  0  0  0  0  0  0
  -30.0270  -13.1910   20.3240 N   0  0  0  0  0  0  0  0  0  0  0  0
  -31.8210  -14.5640   19.9660 O   0  0  0  0  0  0  0  0  0  0  0  0
  -29.9690  -15.3680   20.9420 N   0  0  0  0  0  0  0  0  0  0  0  0
  -29.2630  -15.0700   21.5990 H   0  0  0  0  0  0  0  0  0  0  0  0
  -25.2380  -13.8340   20.4930 C   0  0  0  0  0  0  0  0  0  0  0  0
  -24.1660  -13.0690   20.8680 C   0  0  0  0  0  0  0  0  0  0  0  0
  -24.6180  -11.7150   20.8420 C   0  0  0  0  0  0  0  0  0  0  0  0
  -26.2790  -12.9440   20.2700 N   0  0  0  0  0  0  0  0  0  0  0  0
  -25.9070  -11.6660   20.5330 N   0  0  0  0  0  0  0  0  0  0  0  0
  -23.8840  -10.4580   21.0400 C   0  0  0  0  0  0  0  0  0  0  0  0
  -24.3230   -9.4850   21.9640 C   0  0  0  0  0  3  0  0  0  0  0  0
  -23.5930   -8.2910   22.1480 C   0  0  0  0  0  3  0  0  0  0  0  0
  -22.4090   -8.0620   21.4090 C   0  0  0  0  0  0  0  0  0  0  0  0
  -21.9870   -9.0240   20.4730 C   0  0  0  0  0  3  0  0  0  0  0  0
  -22.7190  -10.2110   20.2870 C   0  0  0  0  0  3  0  0  0  0  0  0
  -21.6470   -6.9220   21.5030 O   0  0  0  0  0  0  0  0  0  0  0  0
  -21.6170   -6.1690   22.6490 C   0  0  0  0  0  0  0  0  0  0  0  0
  -21.2260   -6.7170   23.8910 C   0  0  0  0  0  3  0  0  0  0  0  0
  -21.1430   -5.8910   25.0300 C   0  0  0  0  0  3  0  0  0  0  0  0
  -21.4410   -4.5190   24.9290 C   0  0  0  0  0  0  0  0  0  0  0  0
  -21.8240   -3.9700   23.6920 C   0  0  0  0  0  3  0  0  0  0  0  0
  -21.9100   -4.7930   22.5560 C   0  0  0  0  0  0  0  0  0  0  0  0
  -22.2590   -4.2550   21.3620 F   0  0  0  0  0  0  0  0  0  0  0  0
  -21.3550   -3.7240   26.0210 F   0  0  0  0  0  0  0  0  0  0  0  0
  -22.7710  -13.5560   21.1450 C   0  0  0  0  0  0  0  0  0  0  0  0
  -22.0420  -12.8670   22.0170 N   0  0  0  0  0  0  0  0  0  0  0  0
  -22.3360  -14.5820   20.6220 O   0  0  0  0  0  0  0  0  0  0  0  0
  -22.4080  -12.0390   22.4640 H   0  0  0  0  0  0  0  0  0  0  0  0
  -21.1080  -13.1760   22.2430 H   0  0  0  0  0  0  0  0  0  0  0  0
  -25.4130  -15.2030   20.3120 N   0  0  0  0  0  0  0  0  0  0  0  0
  -24.6550  -15.8660   20.4290 H   0  0  0  0  0  0  0  0  0  0  0  0
  -26.2770  -15.6380   20.0100 H   0  0  0  0  0  0  0  0  0  0  0  0
  -27.2630  -22.4160   18.5830 C   0  0  0  0  0  2  0  0  0  0  0  0
  -28.3060  -24.4920   19.4390 C   0  0  0  0  0  0  0  0  0  0  0  0
  -27.6890  -23.8010   18.4760 N   0  0  0  0  0  0  0  0  0  0  0  0
  -28.5240  -24.0340   20.5630 O   0  0  0  0  0  0  0  0  0  0  0  0
  -27.5330  -24.2650   17.5890 H   0  0  0  0  0  0  0  0  0  0  0  0
  -28.7370  -25.9150   19.0790 C   0  0  0  0  0  2  0  0  0  0  0  0
  -28.4420  -26.8110   20.1470 O   0  0  0  0  0  0  0  0  0  0  0  0
  -24.5790  -31.8820   23.2350 C   0  0  0  0  0  0  0  0  0  0  0  0
  -27.2280  -27.4620   20.1460 C   0  0  0  0  0  0  0  0  0  0  0  0
  -23.3680  -30.4780   21.5950 C   0  0  0  0  0  3  0  0  0  0  0  0
  -24.8170  -28.9350   20.1750 C   0  0  0  0  0  0  0  0  0  0  0  0
  -25.8910  -30.8380   21.3960 C   0  0  0  0  0  2  0  0  0  0  0  0
  -25.9710  -29.4650   20.7660 C   0  0  0  0  0  0  0  0  0  0  0  0
  -27.1710  -28.7270   20.7650 C   0  0  0  0  0  3  0  0  0  0  0  0
  -26.0520  -26.9330   19.5620 C   0  0  0  0  0  3  0  0  0  0  0  0
  -24.8490  -27.6630   19.5790 C   0  0  0  0  0  3  0  0  0  0  0  0
  -23.5730  -29.7920   20.2170 C   0  0  0  0  0  2  0  0  0  0  0  0
  -24.6310  -31.0810   22.1330 N   0  0  0  0  0  0  0  0  0  0  0  0
  -23.5000  -32.1560   23.7760 O   0  0  0  0  0  0  0  0  0  0  0  0
  -22.7180  -29.4600   22.5580 C   0  0  0  0  0  0  0  0  0  0  0  0
  -21.3940  -29.2840   22.4330 N   0  0  0  0  0  0  0  0  0  0  0  0
  -23.4030  -28.8320   23.3710 O   0  0  0  0  0  0  0  0  0  0  0  0
  -20.9060  -29.8430   21.7470 H   0  0  0  0  0  0  0  0  0  0  0  0
  -18.0120  -28.1190   22.9420 C   0  0  0  0  0  0  0  0  0  0  0  0
  -20.5720  -28.3520   23.2040 C   0  0  0  0  0  3  0  0  0  0  0  0
  -20.6610  -26.9220   22.6230 C   0  0  0  0  0  2  0  0  0  0  0  0
  -19.5510  -26.6110   21.6140 C   0  0  0  0  0  2  0  0  0  0  0  0
  -18.1730  -26.7680   22.2630 C   0  0  0  0  0  2  0  0  0  0  0  0
  -19.1400  -28.8690   23.3680 C   0  0  0  0  0  0  0  0  0  0  0  0
  -18.9360  -30.1340   23.9620 C   0  0  0  0  0  3  0  0  0  0  0  0
  -17.6380  -30.6490   24.1330 C   0  0  0  0  0  3  0  0  0  0  0  0
  -16.5250  -29.8960   23.7220 C   0  0  0  0  0  3  0  0  0  0  0  0
  -16.7120  -28.6320   23.1330 C   0  0  0  0  0  3  0  0  0  0  0  0
  -25.8680  -32.5130   23.8490 C   0  0  0  0  0  3  0  0  0  0  0  0
  -26.3850  -31.7430   25.1270 C   0  0  1  0  0  0  0  0  0  0  0  0
  -25.2960  -31.5080   26.1990 C   0  0  0  0  0  1  0  0  0  0  0  0
  -26.9640  -30.3660   24.7330 C   0  0  0  0  0  1  0  0  0  0  0  0
  -27.5380  -32.5370   25.7850 C   0  0  0  0  0  1  0  0  0  0  0  0
  -25.5630  -33.9110   24.1750 N   0  0  0  0  0  0  0  0  0  0  0  0
  -25.9020  -34.9610   23.4140 C   0  0  0  0  0  0  0  0  0  0  0  0
  -26.5750  -34.8530   22.3860 O   0  0  0  0  0  0  0  0  0  0  0  0
  -24.9690  -34.0680   24.9760 H   0  0  0  0  0  0  0  0  0  0  0  0
  -24.1810  -36.7570   23.0430 C   0  0  0  0  0  1  0  0  0  0  0  0
  -25.4150  -36.3520   23.8640 C   0  0  0  0  0  3  0  0  0  0  0  0
  -27.5480  -37.2290   24.7080 C   0  0  0  0  0  1  0  0  0  0  0  0
  -26.4520  -37.4010   23.7560 N   0  0  0  0  0  0  0  0  0  0  0  0
  -26.0490  -38.3220   23.9010 H   0  0  0  0  0  0  0  0  0  0  0  0
  1  2  1  0
  1  3  1  0
  2  3  1  0
  2  8  1  0
  3 48  1  0
  4  8  2  0
  4  6  1  0
  5  7  2  0
  6  9  2  0
  8  5  1  0
  9  7  1  0
  9 18  1  0
 10 18  1  0
 11 16  1  0
 12 13  1  0
 12 11  1  0
 14 13  1  0
 14 23  1  0
 14 15  1  0
 16 10  1  0
 16 15  1  0
 17 10  2  0
 18 19  1  0
 20 21  2  0
 21 40  1  0
 22 21  1  0
 22 25  1  0
 23 20  1  0
 23 24  1  0
 24 22  2  0
 25 26  1  0
 26 27  2  0
 28 31  1  0
 28 27  1  0
 29 28  2  0
 30 29  1  0
 30 25  2  0
 31 32  1  0
 32 33  1  0
 33 34  2  0
 35 34  1  0
 35 39  1  0
 36 35  2  0
 37 32  2  0
 37 36  1  0
 38 37  1  0
 40 41  1  0
 41 44  1  0
 41 43  1  0
 42 40  2  0
 45 46  1  0
 45 20  1  0
 47 45  1  0
 49 51  2  0
 50 48  1  0
 50 49  1  0
 52 50  1  0
 53 49  1  0
 53 54  1  0
 55 66  2  0
 56 54  1  0
 56 61  1  0
 57 65  1  0
 57 67  1  0
 58 64  1  0
 58 60  1  0
 59 65  1  0
 60 59  1  0
 61 60  2  0
 62 63  1  0
 62 56  2  0
 63 58  2  0
 64 57  1  0
 65 55  1  0
 67 69  2  0
 68 67  1  0
 70 68  1  0
 71 80  2  0
 71 76  1  0
 72 68  1  0
 72 76  1  0
 73 72  1  0
 74 75  1  0
 74 73  1  0
 75 71  1  0
 76 77  2  0
 77 78  1  0
 79 78  2  0
 80 79  1  0
 81 55  1  0
 81 86  1  0
 81 82  1  0
 82 85  1  1
 82 83  1  0
 84 82  1  0
 86 89  1  0
 87 91  1  0
 87 86  1  0
 88 87  2  0
 91 90  1  0
 93 91  1  0
 93 94  1  0
 93 92  1  0
M  ISO  4  10 100  18 100  53 101  54 101
M  END
>  <TORSDO>  (87) 
F 20

>  <SCORE>  (87) 
-13.980

>  <name>  (87) 
87

>  <ligand_id>  (87) 
87

>  <original_smiles>  (87) 
[H]c1c([H])c([H])c2c(c1[H])C([H])([H])C([H])([H])C([H])([H])C2([H])N([H])C(=O)C1([H])N(C(=O)C([H])(N([H])C(=O)C([H])(N([H])C([H])([H])[H])C([H])([H])[H])C(C([H])([H])[H])(C([H])([H])[H])C([H])([H])[H])C([H])([H])c2c([H])c(OC([H])([H])C(=O)N([H])C([H])([H])C3([H])C([H])([H])C3([H])c3c([H])c([H])c(N([H])C(=O)N4C([H])([H])C([H])([H])C([H])([H])C([H])(n5nc(-c6c([H])c([H])c(Oc7c([H])c([H])c(F)c([H])c7F)c([H])c6[H])c(C(=O)N([H])[H])c5N([H])[H])C4([H])[H])c([H])c3[H])c([H])c([H])c2C1([H])[H]

>  <smiles>  (87) 
[H]c1c([H])c([H])c2c(c1[H])C([H])([H])C([H])([H])C([H])([H])C2([H])N([H])C(=O)C1([H])N(C(=O)C([H])(N([H])C(=O)C([H])(N([H])C([H])([H])[H])C([H])([H])[H])C(C([H])([H])[H])(C([H])([H])[H])C([H])([H])[H])C([H])([H])c2c([H])c(OC([H])([H])C(=O)N([H])C([H])([H])C3([H])C([H])([H])C3([H])c3c([H])c([H])c(N([H])C(=O)N4C([H])([H])C([H])([H])C([H])([H])C([H])(n5nc(-c6c([H])c([H])c(Oc7c([H])c([H])c(F)c([H])c7F)c([H])c6[H])c(C(=O)N([H])[H])c5N([H])[H])C4([H])[H])c([H])c3[H])c([H])c([H])c2C1([H])[H]

$$$$
88:0:0
     RDKit          3D

 93102  0  0  1  0  0  0  0  0999 V2000
  -32.5350  -18.8120   21.3230 C   0  0  0  0  0  3  0  0  0  0  0  0
  -33.4120  -19.9080   21.3600 C   0  0  0  0  0  3  0  0  0  0  0  0
  -30.7410  -20.2680   20.5380 C   0  0  0  0  0  3  0  0  0  0  0  0
  -31.1910  -18.9800   20.9220 C   0  0  0  0  0  0  0  0  0  0  0  0
  -32.9580  -21.1880   20.9910 C   0  0  0  0  0  0  0  0  0  0  0  0
  -31.6240  -21.3810   20.5700 C   0  0  0  0  0  0  0  0  0  0  0  0
  -33.9170  -22.3640   21.0510 C   0  0  0  0  0  1  0  0  0  0  0  0
  -30.8940  -14.2500   20.0250 C   0  0  0  0  0  0  0  0  0  0  0  0
  -30.4720  -12.0740   18.9400 C   0  0  0  0  0  2  0  0  0  0  0  0
  -29.4680  -12.2590   17.7830 C   0  0  0  0  0  2  0  0  0  0  0  0
  -28.0170  -12.1650   18.2910 C   0  0  0  0  0  2  0  0  0  0  0  0
  -27.7660  -13.0340   19.5520 C   0  0  0  0  0  3  0  0  0  0  0  0
  -28.8750  -12.7970   20.5980 C   0  0  0  0  0  2  0  0  0  0  0  0
  -30.1660  -13.0960   19.9590 N   0  0  0  0  0  0  0  0  0  0  0  0
  -31.9800  -14.3510   19.4410 O   0  0  0  0  0  0  0  0  0  0  0  0
  -30.2060  -17.0000   22.2300 C   0  0  0  0  0  2  0  0  0  0  0  0
  -29.7750  -15.5900   21.8200 C   0  0  0  0  0  2  0  0  0  0  0  0
  -30.6290  -16.6930   19.8870 C   0  0  0  0  0  2  0  0  0  0  0  0
  -30.2530  -17.7710   20.9140 C   0  0  0  0  0  3  0  0  0  0  0  0
  -30.2640  -15.3780   20.4520 N   0  0  0  0  0  0  0  0  0  0  0  0
  -25.4650  -13.7090   20.4850 C   0  0  0  0  0  0  0  0  0  0  0  0
  -24.3810  -12.9680   20.8730 C   0  0  0  0  0  0  0  0  0  0  0  0
  -24.7580  -11.6000   20.7000 C   0  0  0  0  0  0  0  0  0  0  0  0
  -26.4360  -12.7950   20.1090 N   0  0  0  0  0  0  0  0  0  0  0  0
  -26.0170  -11.5170   20.2910 N   0  0  0  0  0  0  0  0  0  0  0  0
  -23.9730  -10.3670   20.8460 C   0  0  0  0  0  0  0  0  0  0  0  0
  -24.2990   -9.3960   21.8170 C   0  0  0  0  0  3  0  0  0  0  0  0
  -23.5190   -8.2260   21.9510 C   0  0  0  0  0  3  0  0  0  0  0  0
  -22.3980   -8.0210   21.1100 C   0  0  0  0  0  0  0  0  0  0  0  0
  -22.0930   -8.9820   20.1300 C   0  0  0  0  0  3  0  0  0  0  0  0
  -22.8730  -10.1420   19.9950 C   0  0  0  0  0  3  0  0  0  0  0  0
  -21.5980   -6.9050   21.1500 O   0  0  0  0  0  0  0  0  0  0  0  0
  -21.2880   -6.2840   22.3330 C   0  0  0  0  0  0  0  0  0  0  0  0
  -20.5510   -6.9350   23.3470 C   0  0  0  0  0  3  0  0  0  0  0  0
  -20.1950   -6.2360   24.5180 C   0  0  0  0  0  3  0  0  0  0  0  0
  -20.5640   -4.8870   24.6730 C   0  0  0  0  0  0  0  0  0  0  0  0
  -21.2940   -4.2350   23.6630 C   0  0  0  0  0  3  0  0  0  0  0  0
  -21.6520   -4.9320   22.4940 C   0  0  0  0  0  0  0  0  0  0  0  0
  -22.3360   -4.2920   21.5150 F   0  0  0  0  0  0  0  0  0  0  0  0
  -20.2160   -4.2130   25.7940 F   0  0  0  0  0  0  0  0  0  0  0  0
  -23.0390  -13.4940   21.2890 C   0  0  0  0  0  0  0  0  0  0  0  0
  -22.3530  -12.7890   22.1810 N   0  0  0  0  0  0  0  0  0  0  0  0
  -22.6100  -14.5650   20.8590 O   0  0  0  0  0  0  0  0  0  0  0  0
  -22.7130  -11.9230   22.5530 H   0  0  0  0  0  0  0  0  0  0  0  0
  -21.4530  -13.1210   22.4990 H   0  0  0  0  0  0  0  0  0  0  0  0
  -25.6980  -15.0790   20.4040 N   0  0  0  0  0  0  0  0  0  0  0  0
  -24.9830  -15.7640   20.6240 H   0  0  0  0  0  0  0  0  0  0  0  0
  -26.5560  -15.4960   20.0640 H   0  0  0  0  0  0  0  0  0  0  0  0
  -31.2840  -22.6730   20.2250 O   0  0  0  0  0  0  0  0  0  0  0  0
  -29.9400  -23.0120   19.9080 C   0  0  0  0  0  2  0  0  0  0  0  0
  -29.8670  -24.5510   19.9900 C   0  0  0  0  0  2  0  0  0  0  0  0
  -28.4920  -25.1530   19.6590 C   0  0  0  0  0  2  0  0  0  0  0  0
  -28.5280  -26.5570   19.9360 O   0  0  0  0  0  0  0  0  0  0  0  0
  -24.5560  -31.5550   23.0500 C   0  0  0  0  0  0  0  0  0  0  0  0
  -27.3350  -27.2470   19.9040 C   0  0  0  0  0  0  0  0  0  0  0  0
  -23.4120  -30.1980   21.3260 C   0  0  0  0  0  3  0  0  0  0  0  0
  -24.9210  -28.7230   19.8930 C   0  0  0  0  0  0  0  0  0  0  0  0
  -25.9390  -30.5860   21.2190 C   0  0  0  0  0  2  0  0  0  0  0  0
  -26.0550  -29.2400   20.5320 C   0  0  0  0  0  0  0  0  0  0  0  0
  -27.2650  -28.5120   20.5280 C   0  0  0  0  0  3  0  0  0  0  0  0
  -26.1810  -26.7380   19.2630 C   0  0  0  0  0  3  0  0  0  0  0  0
  -24.9780  -27.4700   19.2570 C   0  0  0  0  0  3  0  0  0  0  0  0
  -23.6690  -29.5690   19.9300 C   0  0  0  0  0  2  0  0  0  0  0  0
  -24.6510  -30.7920   21.9230 N   0  0  0  0  0  0  0  0  0  0  0  0
  -23.4560  -31.8010   23.5650 O   0  0  0  0  0  0  0  0  0  0  0  0
  -22.7440  -29.1380   22.2300 C   0  0  0  0  0  0  0  0  0  0  0  0
  -21.4080  -29.0270   22.1360 N   0  0  0  0  0  0  0  0  0  0  0  0
  -23.4210  -28.4240   22.9740 O   0  0  0  0  0  0  0  0  0  0  0  0
  -20.9260  -29.6560   21.5100 H   0  0  0  0  0  0  0  0  0  0  0  0
  -17.9890  -28.0340   22.7490 C   0  0  0  0  0  0  0  0  0  0  0  0
  -20.5710  -28.0750   22.8640 C   0  0  0  0  0  3  0  0  0  0  0  0
  -20.5240  -26.7100   22.1410 C   0  0  0  0  0  2  0  0  0  0  0  0
  -19.3380  -26.5770   21.1790 C   0  0  0  0  0  2  0  0  0  0  0  0
  -18.0140  -26.7540   21.9290 C   0  0  0  0  0  2  0  0  0  0  0  0
  -19.1890  -28.6630   23.1730 C   0  0  0  0  0  0  0  0  0  0  0  0
  -19.1110  -29.8700   23.9010 C   0  0  0  0  0  3  0  0  0  0  0  0
  -17.8630  -30.4460   24.2060 C   0  0  0  0  0  3  0  0  0  0  0  0
  -16.6780  -29.8120   23.7970 C   0  0  0  0  0  3  0  0  0  0  0  0
  -16.7420  -28.6070   23.0740 C   0  0  0  0  0  3  0  0  0  0  0  0
  -25.8180  -32.1740   23.7270 C   0  0  0  0  0  3  0  0  0  0  0  0
  -26.3000  -31.3720   24.9980 C   0  0  1  0  0  0  0  0  0  0  0  0
  -25.1790  -31.1250   26.0370 C   0  0  0  0  0  1  0  0  0  0  0  0
  -26.8800  -29.9990   24.5900 C   0  0  0  0  0  1  0  0  0  0  0  0
  -27.4430  -32.1420   25.7010 C   0  0  0  0  0  1  0  0  0  0  0  0
  -25.4930  -33.5610   24.0820 N   0  0  0  0  0  0  0  0  0  0  0  0
  -25.8220  -34.6310   23.3470 C   0  0  0  0  0  0  0  0  0  0  0  0
  -26.5050  -34.5560   22.3210 O   0  0  0  0  0  0  0  0  0  0  0  0
  -24.8920  -33.6950   24.8820 H   0  0  0  0  0  0  0  0  0  0  0  0
  -24.0840  -36.4140   22.9960 C   0  0  0  0  0  1  0  0  0  0  0  0
  -25.3140  -36.0050   23.8230 C   0  0  0  0  0  3  0  0  0  0  0  0
  -27.4060  -36.9080   24.7380 C   0  0  0  0  0  1  0  0  0  0  0  0
  -26.3400  -37.0680   23.7530 N   0  0  0  0  0  0  0  0  0  0  0  0
  -25.9180  -37.9830   23.8900 H   0  0  0  0  0  0  0  0  0  0  0  0
  1  2  1  0
  3  6  2  0
  3  4  1  0
  4  1  2  0
  5  7  1  0
  5  2  2  0
  6  5  1  0
  8 20  1  0
  9 14  1  0
 10 11  1  0
 10  9  1  0
 12 11  1  0
 12 24  1  0
 12 13  1  0
 14  8  1  0
 14 13  1  0
 15  8  2  0
 17 16  1  0
 18 20  1  0
 18 19  1  0
 19  4  1  0
 19 16  1  0
 20 17  1  0
 21 22  2  0
 22 41  1  0
 23 26  1  0
 23 22  1  0
 24 25  1  0
 24 21  1  0
 25 23  2  0
 26 27  1  0
 27 28  2  0
 29 32  1  0
 29 28  1  0
 30 29  2  0
 31 30  1  0
 31 26  2  0
 32 33  1  0
 33 38  2  0
 33 34  1  0
 34 35  2  0
 35 36  1  0
 36 40  1  0
 37 36  2  0
 38 37  1  0
 39 38  1  0
 41 42  1  0
 42 45  1  0
 42 44  1  0
 43 41  2  0
 46 21  1  0
 46 47  1  0
 48 46  1  0
 49  6  1  0
 50 51  1  0
 50 49  1  0
 52 53  1  0
 52 51  1  0
 54 65  2  0
 55 53  1  0
 55 60  1  0
 56 64  1  0
 56 66  1  0
 57 63  1  0
 57 59  1  0
 58 64  1  0
 59 58  1  0
 60 59  2  0
 61 55  2  0
 62 61  1  0
 62 57  2  0
 63 56  1  0
 64 54  1  0
 66 68  2  0
 67 66  1  0
 69 67  1  0
 70 79  2  0
 70 75  1  0
 71 67  1  0
 71 75  1  0
 72 71  1  0
 73 74  1  0
 73 72  1  0
 74 70  1  0
 75 76  2  0
 76 77  1  0
 78 77  2  0
 79 78  1  0
 80 54  1  0
 80 85  1  0
 80 81  1  0
 81 84  1  1
 81 82  1  0
 83 81  1  0
 85 88  1  0
 86 90  1  0
 86 85  1  0
 87 86  2  0
 90 89  1  0
 92 90  1  0
 92 93  1  0
 92 91  1  0
M  ISO  4   8 100  20 100  52 101  53 101
M  END
>  <TORSDO>  (88) 
F 20

>  <SCORE>  (88) 
-11.992

>  <name>  (88) 
88

>  <ligand_id>  (88) 
88

>  <original_smiles>  (88) 
[H]c1c([H])c([H])c2c(c1[H])C([H])([H])C([H])([H])C([H])([H])C2([H])N([H])C(=O)C1([H])N(C(=O)C([H])(N([H])C(=O)C([H])(N([H])C([H])([H])[H])C([H])([H])[H])C(C([H])([H])[H])(C([H])([H])[H])C([H])([H])[H])C([H])([H])c2c([H])c(OC([H])([H])C([H])([H])C([H])([H])Oc3c([H])c(C4([H])C([H])([H])N(C(=O)N5C([H])([H])C([H])([H])C([H])([H])C([H])(n6nc(-c7c([H])c([H])c(Oc8c([H])c([H])c(F)c([H])c8F)c([H])c7[H])c(C(=O)N([H])[H])c6N([H])[H])C5([H])[H])C([H])([H])C4([H])[H])c([H])c([H])c3C([H])([H])[H])c([H])c([H])c2C1([H])[H]

>  <smiles>  (88) 
[H]c1c([H])c([H])c2c(c1[H])C([H])([H])C([H])([H])C([H])([H])C2([H])N([H])C(=O)C1([H])N(C(=O)C([H])(N([H])C(=O)C([H])(N([H])C([H])([H])[H])C([H])([H])[H])C(C([H])([H])[H])(C([H])([H])[H])C([H])([H])[H])C([H])([H])c2c([H])c(OC([H])([H])C([H])([H])C([H])([H])Oc3c([H])c(C4([H])C([H])([H])N(C(=O)N5C([H])([H])C([H])([H])C([H])([H])C([H])(n6nc(-c7c([H])c([H])c(Oc8c([H])c([H])c(F)c([H])c8F)c([H])c7[H])c(C(=O)N([H])[H])c6N([H])[H])C5([H])[H])C([H])([H])C4([H])[H])c([H])c([H])c3C([H])([H])[H])c([H])c([H])c2C1([H])[H]

$$$$
89:0:0
     RDKit          3D

 96105  0  0  1  0  0  0  0  0999 V2000
  -30.0580  -23.5050   20.2010 C   0  0  0  0  0  3  0  0  0  0  0  0
  -27.8680  -22.5490   20.0290 C   0  0  0  0  0  3  0  0  0  0  0  0
  -29.7780  -21.0040   20.3340 C   0  0  0  0  0  0  0  0  0  0  0  0
  -28.6740  -23.7170   20.0330 C   0  0  0  0  0  0  0  0  0  0  0  0
  -30.5980  -22.1870   20.3550 C   0  0  0  0  0  0  0  0  0  0  0  0
  -28.3800  -21.2340   20.1800 C   0  0  0  0  0  0  0  0  0  0  0  0
  -32.1050  -22.0880   20.5380 C   0  0  0  0  0  1  0  0  0  0  0  0
  -27.3690  -20.1000   20.1500 C   0  0  0  0  0  1  0  0  0  0  0  0
  -30.4950  -19.1310   22.0250 C   0  0  0  0  0  2  0  0  0  0  0  0
  -30.4030  -19.5610   20.5490 C   0  0  0  0  0  3  0  0  0  0  0  0
  -30.4520  -17.5810   22.0660 C   0  0  0  0  0  3  0  0  0  0  0  0
  -30.5950  -17.0860   20.6130 C   0  0  0  0  0  3  0  0  0  0  0  0
  -29.8890  -18.2510   19.8300 C   0  0  0  0  0  3  0  0  0  0  0  0
  -31.4670  -16.9580   23.0330 C   0  0  0  0  0  1  0  0  0  0  0  0
  -30.7230  -14.6030   20.0020 C   0  0  0  0  0  0  0  0  0  0  0  0
  -30.3800  -12.3810   18.9510 C   0  0  0  0  0  2  0  0  0  0  0  0
  -29.3890  -12.5160   17.7770 C   0  0  0  0  0  2  0  0  0  0  0  0
  -27.9370  -12.3830   18.2760 C   0  0  0  0  0  2  0  0  0  0  0  0
  -27.6470  -13.2730   19.5140 C   0  0  0  0  0  3  0  0  0  0  0  0
  -28.7510  -13.1250   20.5860 C   0  0  0  0  0  2  0  0  0  0  0  0
  -30.0380  -13.4210   19.9410 N   0  0  0  0  0  0  0  0  0  0  0  0
  -31.8590  -14.7130   19.5370 O   0  0  0  0  0  0  0  0  0  0  0  0
  -30.0520  -15.6980   20.4550 N   0  0  0  0  0  0  0  0  0  0  0  0
  -29.1040  -15.5430   20.7610 H   0  0  0  0  0  0  0  0  0  0  0  0
  -25.3050  -13.9160   20.3580 C   0  0  0  0  0  0  0  0  0  0  0  0
  -24.2390  -13.1620   20.7700 C   0  0  0  0  0  0  0  0  0  0  0  0
  -24.6680  -11.8010   20.6990 C   0  0  0  0  0  0  0  0  0  0  0  0
  -26.3160  -13.0160   20.0620 N   0  0  0  0  0  0  0  0  0  0  0  0
  -25.9410  -11.7380   20.3260 N   0  0  0  0  0  0  0  0  0  0  0  0
  -23.9220  -10.5530   20.9080 C   0  0  0  0  0  0  0  0  0  0  0  0
  -24.3550   -9.5800   21.8360 C   0  0  0  0  0  3  0  0  0  0  0  0
  -23.6100   -8.3970   22.0330 C   0  0  0  0  0  3  0  0  0  0  0  0
  -22.4190   -8.1780   21.3020 C   0  0  0  0  0  0  0  0  0  0  0  0
  -22.0040   -9.1390   20.3640 C   0  0  0  0  0  3  0  0  0  0  0  0
  -22.7490  -10.3130   20.1640 C   0  0  0  0  0  3  0  0  0  0  0  0
  -21.6460   -7.0460   21.4100 O   0  0  0  0  0  0  0  0  0  0  0  0
  -21.5740   -6.3320   22.5790 C   0  0  0  0  0  0  0  0  0  0  0  0
  -21.1490   -6.9220   23.7880 C   0  0  0  0  0  3  0  0  0  0  0  0
  -21.0220   -6.1350   24.9500 C   0  0  0  0  0  3  0  0  0  0  0  0
  -21.3110   -4.7570   24.9030 C   0  0  0  0  0  0  0  0  0  0  0  0
  -21.7290   -4.1670   23.6970 C   0  0  0  0  0  3  0  0  0  0  0  0
  -21.8570   -4.9510   22.5380 C   0  0  0  0  0  0  0  0  0  0  0  0
  -22.2410   -4.3730   21.3750 F   0  0  0  0  0  0  0  0  0  0  0  0
  -21.1820   -3.9990   26.0170 F   0  0  0  0  0  0  0  0  0  0  0  0
  -22.8680  -13.6670   21.1150 C   0  0  0  0  0  0  0  0  0  0  0  0
  -22.1670  -12.9790   22.0090 N   0  0  0  0  0  0  0  0  0  0  0  0
  -22.4290  -14.7080   20.6260 O   0  0  0  0  0  0  0  0  0  0  0  0
  -22.5340  -12.1360   22.4260 H   0  0  0  0  0  0  0  0  0  0  0  0
  -21.2490  -13.3000   22.2820 H   0  0  0  0  0  0  0  0  0  0  0  0
  -25.4910  -15.2840   20.1870 N   0  0  0  0  0  0  0  0  0  0  0  0
  -24.7420  -15.9510   20.3370 H   0  0  0  0  0  0  0  0  0  0  0  0
  -26.3240  -15.7060   19.7970 H   0  0  0  0  0  0  0  0  0  0  0  0
  -30.2810  -18.2100   18.4690 O   0  0  0  0  0  0  0  0  0  0  0  0
  -31.2330  -18.2340   18.4390 H   0  0  0  0  0  0  0  0  0  0  0  0
  -27.9730  -25.0630   19.6510 C   0  0  0  0  0  2  0  0  0  0  0  0
  -28.3070  -26.4240   20.1380 O   0  0  0  0  0  0  0  0  0  0  0  0
  -24.5990  -31.8040   23.2370 C   0  0  0  0  0  0  0  0  0  0  0  0
  -27.2310  -27.3390   20.0580 C   0  0  0  0  0  0  0  0  0  0  0  0
  -23.4090  -30.4470   21.5590 C   0  0  0  0  0  3  0  0  0  0  0  0
  -24.8700  -28.9640   20.0880 C   0  0  0  0  0  0  0  0  0  0  0  0
  -25.9520  -30.7760   21.4000 C   0  0  0  0  0  2  0  0  0  0  0  0
  -26.0370  -29.4200   20.7150 C   0  0  0  0  0  0  0  0  0  0  0  0
  -27.2190  -28.6140   20.7050 C   0  0  0  0  0  3  0  0  0  0  0  0
  -26.0460  -26.9820   19.3590 C   0  0  0  0  0  3  0  0  0  0  0  0
  -24.8780  -27.7490   19.4030 C   0  0  0  0  0  3  0  0  0  0  0  0
  -23.6310  -29.8250   20.1590 C   0  0  0  0  0  2  0  0  0  0  0  0
  -24.6720  -31.0240   22.1210 N   0  0  0  0  0  0  0  0  0  0  0  0
  -23.5130  -32.0640   23.7730 O   0  0  0  0  0  0  0  0  0  0  0  0
  -22.7500  -29.3940   22.4830 C   0  0  0  0  0  0  0  0  0  0  0  0
  -21.4280  -29.2030   22.3370 N   0  0  0  0  0  0  0  0  0  0  0  0
  -23.4280  -28.7550   23.2930 O   0  0  0  0  0  0  0  0  0  0  0  0
  -20.9410  -29.7710   21.6580 H   0  0  0  0  0  0  0  0  0  0  0  0
  -18.0570  -27.9650   22.7730 C   0  0  0  0  0  0  0  0  0  0  0  0
  -20.6090  -28.2420   23.0790 C   0  0  0  0  0  3  0  0  0  0  0  0
  -20.7310  -26.8230   22.4770 C   0  0  0  0  0  2  0  0  0  0  0  0
  -19.6440  -26.5120   21.4430 C   0  0  0  0  0  2  0  0  0  0  0  0
  -18.2540  -26.6310   22.0730 C   0  0  0  0  0  2  0  0  0  0  0  0
  -19.1630  -28.7280   23.2310 C   0  0  0  0  0  0  0  0  0  0  0  0
  -18.9260  -29.9770   23.8460 C   0  0  0  0  0  3  0  0  0  0  0  0
  -17.6140  -30.4630   24.0070 C   0  0  0  0  0  3  0  0  0  0  0  0
  -16.5220  -29.6960   23.5660 C   0  0  0  0  0  3  0  0  0  0  0  0
  -16.7440  -28.4490   22.9550 C   0  0  0  0  0  3  0  0  0  0  0  0
  -25.8770  -32.4260   23.8780 C   0  0  0  0  0  3  0  0  0  0  0  0
  -26.3690  -31.6470   25.1580 C   0  0  1  0  0  0  0  0  0  0  0  0
  -25.2570  -31.4150   26.2090 C   0  0  0  0  0  1  0  0  0  0  0  0
  -26.9460  -30.2650   24.7730 C   0  0  0  0  0  1  0  0  0  0  0  0
  -27.5140  -32.4310   25.8400 C   0  0  0  0  0  1  0  0  0  0  0  0
  -25.5710  -33.8250   24.2060 N   0  0  0  0  0  0  0  0  0  0  0  0
  -25.9030  -34.8760   23.4450 C   0  0  0  0  0  0  0  0  0  0  0  0
  -26.5710  -34.7700   22.4120 O   0  0  0  0  0  0  0  0  0  0  0  0
  -24.9820  -33.9820   25.0100 H   0  0  0  0  0  0  0  0  0  0  0  0
  -24.1710  -36.6660   23.0960 C   0  0  0  0  0  1  0  0  0  0  0  0
  -25.4190  -36.2650   23.9000 C   0  0  0  0  0  3  0  0  0  0  0  0
  -27.5580  -37.1550   24.7110 C   0  0  0  0  0  1  0  0  0  0  0  0
  -26.4500  -37.3180   23.7750 N   0  0  0  0  0  0  0  0  0  0  0  0
  -26.0440  -38.2390   23.9180 H   0  0  0  0  0  0  0  0  0  0  0  0
  1  5  1  0
  2  4  1  0
  2  6  2  0
  3  5  2  0
  4  1  2  0
  5  7  1  0
  6  3  1  0
  8  6  1  0
  9 11  1  0
 10  3  1  0
 10  9  1  0
 11 14  1  0
 12 23  1  0
 12 11  1  0
 13 53  1  0
 13 10  1  0
 13 12  1  0
 15 23  1  0
 16 21  1  0
 17 18  1  0
 17 16  1  0
 19 18  1  0
 19 28  1  0
 19 20  1  0
 21 15  1  0
 21 20  1  0
 22 15  2  0
 23 24  1  0
 25 26  2  0
 26 45  1  0
 27 26  1  0
 27 30  1  0
 28 29  1  0
 28 25  1  0
 29 27  2  0
 30 31  1  0
 31 32  2  0
 33 36  1  0
 33 32  1  0
 34 33  2  0
 35 34  1  0
 35 30  2  0
 36 37  1  0
 37 38  1  0
 38 39  2  0
 40 39  1  0
 40 44  1  0
 41 40  2  0
 42 37  2  0
 42 41  1  0
 43 42  1  0
 45 46  1  0
 46 49  1  0
 46 48  1  0
 47 45  2  0
 50 51  1  0
 50 25  1  0
 52 50  1  0
 54 53  1  0
 55  4  1  0
 55 56  1  0
 57 68  2  0
 58 56  1  0
 58 63  1  0
 59 67  1  0
 59 69  1  0
 60 66  1  0
 60 62  1  0
 61 67  1  0
 62 61  1  0
 63 62  2  0
 64 65  1  0
 64 58  2  0
 65 60  2  0
 66 59  1  0
 67 57  1  0
 69 71  2  0
 70 69  1  0
 72 70  1  0
 73 82  2  0
 73 78  1  0
 74 70  1  0
 74 78  1  0
 75 74  1  0
 76 77  1  0
 76 75  1  0
 77 73  1  0
 78 79  2  0
 79 80  1  0
 81 80  2  0
 82 81  1  0
 83 57  1  0
 83 88  1  0
 83 84  1  0
 84 87  1  1
 84 85  1  0
 86 84  1  0
 88 91  1  0
 89 93  1  0
 89 88  1  0
 90 89  2  0
 93 92  1  0
 95 93  1  0
 95 96  1  0
 95 94  1  0
M  ISO  4  15 100  23 100  55 101  56 101
M  END
>  <TORSDO>  (89) 
F 19

>  <SCORE>  (89) 
-13.057

>  <name>  (89) 
89

>  <ligand_id>  (89) 
89

>  <original_smiles>  (89) 
[H]OC1([H])C([H])(c2c(C([H])([H])[H])c([H])c(C([H])([H])Oc3c([H])c([H])c4c(c3[H])C([H])([H])N(C(=O)C([H])(N([H])C(=O)C([H])(N([H])C([H])([H])[H])C([H])([H])[H])C(C([H])([H])[H])(C([H])([H])[H])C([H])([H])[H])C([H])(C(=O)N([H])C3([H])c5c([H])c([H])c([H])c([H])c5C([H])([H])C([H])([H])C3([H])[H])C4([H])[H])c([H])c2C([H])([H])[H])C([H])([H])C([H])(C([H])([H])[H])C1([H])N([H])C(=O)N1C([H])([H])C([H])([H])C([H])([H])C([H])(n2nc(-c3c([H])c([H])c(Oc4c([H])c([H])c(F)c([H])c4F)c([H])c3[H])c(C(=O)N([H])[H])c2N([H])[H])C1([H])[H]

>  <smiles>  (89) 
[H]OC1([H])C([H])(c2c(C([H])([H])[H])c([H])c(C([H])([H])Oc3c([H])c([H])c4c(c3[H])C([H])([H])N(C(=O)C([H])(N([H])C(=O)C([H])(N([H])C([H])([H])[H])C([H])([H])[H])C(C([H])([H])[H])(C([H])([H])[H])C([H])([H])[H])C([H])(C(=O)N([H])C3([H])c5c([H])c([H])c([H])c([H])c5C([H])([H])C([H])([H])C3([H])[H])C4([H])[H])c([H])c2C([H])([H])[H])C([H])([H])C([H])(C([H])([H])[H])C1([H])N([H])C(=O)N1C([H])([H])C([H])([H])C([H])([H])C([H])(n2nc(-c3c([H])c([H])c(Oc4c([H])c([H])c(F)c([H])c4F)c([H])c3[H])c(C(=O)N([H])[H])c2N([H])[H])C1([H])[H]

$$$$
90:0:0
     RDKit          3D

 97106  0  0  1  0  0  0  0  0999 V2000
  -31.3370  -20.5580   20.2050 C   0  0  0  0  0  3  0  0  0  0  0  0
  -29.4930  -19.0420   20.5610 C   0  0  0  0  0  3  0  0  0  0  0  0
  -32.2190  -19.4640   20.3370 C   0  0  0  0  0  0  0  0  0  0  0  0
  -30.3660  -17.8450   20.6800 C   0  0  0  0  0  0  0  0  0  0  0  0
  -29.9470  -20.4230   20.3540 C   0  0  0  0  0  0  0  0  0  0  0  0
  -31.7530  -18.1560   20.6350 C   0  0  0  0  0  0  0  0  0  0  0  0
  -33.7060  -19.7330   20.1730 C   0  0  0  0  0  1  0  0  0  0  0  0
  -29.1450  -24.0410   19.1110 C   0  0  0  0  0  2  0  0  0  0  0  0
  -28.5310  -23.9340   21.4440 C   0  0  0  0  0  2  0  0  0  0  0  0
  -29.0480  -22.4490   19.0010 C   0  0  0  0  0  2  0  0  0  0  0  0
  -28.4380  -22.3300   21.3700 C   0  0  0  0  0  2  0  0  0  0  0  0
  -28.1980  -24.7580   20.1390 C   0  0  0  0  0  3  0  0  0  0  0  0
  -29.1830  -21.6780   20.2640 N   0  0  0  0  0  0  0  0  0  0  0  0
  -28.3270  -26.2900   20.2060 O   0  0  0  0  0  0  0  0  0  0  0  0
  -24.6370  -31.8490   23.1930 C   0  0  0  0  0  0  0  0  0  0  0  0
  -27.2250  -27.1990   20.1470 C   0  0  0  0  0  0  0  0  0  0  0  0
  -23.4370  -30.4690   21.5370 C   0  0  0  0  0  3  0  0  0  0  0  0
  -24.8860  -28.9030   20.1120 C   0  0  0  0  0  0  0  0  0  0  0  0
  -25.9870  -30.7430   21.3830 C   0  0  0  0  0  2  0  0  0  0  0  0
  -26.0590  -29.3590   20.7270 C   0  0  0  0  0  0  0  0  0  0  0  0
  -27.2270  -28.5210   20.7300 C   0  0  0  0  0  3  0  0  0  0  0  0
  -26.0300  -26.8320   19.4870 C   0  0  0  0  0  3  0  0  0  0  0  0
  -24.8810  -27.6520   19.4790 C   0  0  0  0  0  3  0  0  0  0  0  0
  -23.6600  -29.7980   20.1550 C   0  0  0  0  0  2  0  0  0  0  0  0
  -24.7060  -31.0410   22.0930 N   0  0  0  0  0  0  0  0  0  0  0  0
  -23.5500  -32.1340   23.7190 O   0  0  0  0  0  0  0  0  0  0  0  0
  -22.7530  -29.4580   22.4890 C   0  0  0  0  0  0  0  0  0  0  0  0
  -21.4230  -29.3050   22.3630 N   0  0  0  0  0  0  0  0  0  0  0  0
  -23.4200  -28.8120   23.3020 O   0  0  0  0  0  0  0  0  0  0  0  0
  -20.9430  -29.8760   21.6820 H   0  0  0  0  0  0  0  0  0  0  0  0
  -18.0300  -28.1390   22.8480 C   0  0  0  0  0  0  0  0  0  0  0  0
  -20.5900  -28.3720   23.1250 C   0  0  0  0  0  3  0  0  0  0  0  0
  -20.6780  -26.9420   22.5410 C   0  0  0  0  0  2  0  0  0  0  0  0
  -19.5760  -26.6380   21.5210 C   0  0  0  0  0  2  0  0  0  0  0  0
  -18.1940  -26.7930   22.1620 C   0  0  0  0  0  2  0  0  0  0  0  0
  -19.1550  -28.8870   23.2860 C   0  0  0  0  0  0  0  0  0  0  0  0
  -18.9470  -30.1470   23.8880 C   0  0  0  0  0  3  0  0  0  0  0  0
  -17.6470  -30.6590   24.0560 C   0  0  0  0  0  3  0  0  0  0  0  0
  -16.5360  -29.9090   23.6340 C   0  0  0  0  0  3  0  0  0  0  0  0
  -16.7280  -28.6500   23.0350 C   0  0  0  0  0  3  0  0  0  0  0  0
  -25.9170  -32.4720   23.8300 C   0  0  0  0  0  3  0  0  0  0  0  0
  -25.5940  -33.8520   24.2220 N   0  0  0  0  0  0  0  0  0  0  0  0
  -25.9070  -34.9420   23.5080 C   0  0  0  0  0  0  0  0  0  0  0  0
  -26.5650  -34.8910   22.4650 O   0  0  0  0  0  0  0  0  0  0  0  0
  -25.0080  -33.9650   25.0360 H   0  0  0  0  0  0  0  0  0  0  0  0
  -24.1490  -36.7270   23.2640 C   0  0  0  0  0  1  0  0  0  0  0  0
  -25.4120  -36.3050   24.0320 C   0  0  0  0  0  3  0  0  0  0  0  0
  -27.5580  -37.1780   24.8460 C   0  0  0  0  0  1  0  0  0  0  0  0
  -26.4280  -37.3760   23.9410 N   0  0  0  0  0  0  0  0  0  0  0  0
  -26.0150  -38.2820   24.1440 H   0  0  0  0  0  0  0  0  0  0  0  0
  -26.4510  -31.6570   25.0710 C   0  0  1  0  0  0  0  0  0  0  0  0
  -25.3720  -31.3740   26.1430 C   0  0  0  0  0  1  0  0  0  0  0  0
  -27.0370  -30.2970   24.6250 C   0  0  0  0  0  1  0  0  0  0  0  0
  -27.6050  -32.4320   25.7500 C   0  0  0  0  0  1  0  0  0  0  0  0
  -28.3290  -16.3500   21.0230 C   0  0  0  0  0  1  0  0  0  0  0  0
  -29.8680  -16.3120   21.0350 C   0  0  0  0  0  3  0  0  0  0  0  0
  -30.5540  -14.8800   20.4870 C   0  0  0  0  0  0  0  0  0  0  0  0
  -30.4510  -12.5490   19.4850 C   0  0  0  0  0  2  0  0  0  0  0  0
  -29.5190  -12.5500   18.2490 C   0  0  0  0  0  2  0  0  0  0  0  0
  -28.0470  -12.3380   18.6610 C   0  0  0  0  0  2  0  0  0  0  0  0
  -27.6470  -13.2210   19.8710 C   0  0  0  0  0  3  0  0  0  0  0  0
  -28.7060  -13.1220   20.9980 C   0  0  0  0  0  2  0  0  0  0  0  0
  -29.9750  -13.6060   20.4310 N   0  0  0  0  0  0  0  0  0  0  0  0
  -31.7010  -14.9240   20.0360 O   0  0  0  0  0  0  0  0  0  0  0  0
  -25.2440  -13.8120   20.5640 C   0  0  0  0  0  0  0  0  0  0  0  0
  -24.1760  -13.0370   20.9190 C   0  0  0  0  0  0  0  0  0  0  0  0
  -24.6390  -11.6870   20.8770 C   0  0  0  0  0  0  0  0  0  0  0  0
  -26.2960  -12.9340   20.3400 N   0  0  0  0  0  0  0  0  0  0  0  0
  -25.9330  -11.6490   20.5840 N   0  0  0  0  0  0  0  0  0  0  0  0
  -23.9070  -10.4250   21.0410 C   0  0  0  0  0  0  0  0  0  0  0  0
  -24.3620   -9.4180   21.9190 C   0  0  0  0  0  3  0  0  0  0  0  0
  -23.6280   -8.2220   22.0750 C   0  0  0  0  0  3  0  0  0  0  0  0
  -22.4270   -8.0270   21.3540 C   0  0  0  0  0  0  0  0  0  0  0  0
  -21.9910   -9.0240   20.4640 C   0  0  0  0  0  3  0  0  0  0  0  0
  -22.7250  -10.2110   20.3050 C   0  0  0  0  0  3  0  0  0  0  0  0
  -21.6620   -6.8870   21.4240 O   0  0  0  0  0  0  0  0  0  0  0  0
  -21.6840   -6.0730   22.5280 C   0  0  0  0  0  0  0  0  0  0  0  0
  -21.4010   -6.5630   23.8220 C   0  0  0  0  0  3  0  0  0  0  0  0
  -21.3660   -5.6770   24.9170 C   0  0  0  0  0  3  0  0  0  0  0  0
  -21.6040   -4.3040   24.7220 C   0  0  0  0  0  0  0  0  0  0  0  0
  -21.8820   -3.8140   23.4340 C   0  0  0  0  0  3  0  0  0  0  0  0
  -21.9190   -4.6960   22.3400 C   0  0  0  0  0  0  0  0  0  0  0  0
  -22.1650   -4.2140   21.0980 F   0  0  0  0  0  0  0  0  0  0  0  0
  -21.5640   -3.4520   25.7740 F   0  0  0  0  0  0  0  0  0  0  0  0
  -22.7780  -13.5160   21.1850 C   0  0  0  0  0  0  0  0  0  0  0  0
  -22.0430  -12.8170   22.0430 N   0  0  0  0  0  0  0  0  0  0  0  0
  -22.3460  -14.5460   20.6690 O   0  0  0  0  0  0  0  0  0  0  0  0
  -22.4060  -11.9860   22.4850 H   0  0  0  0  0  0  0  0  0  0  0  0
  -21.1050  -13.1200   22.2610 H   0  0  0  0  0  0  0  0  0  0  0  0
  -25.3920  -15.1840   20.3910 N   0  0  0  0  0  0  0  0  0  0  0  0
  -24.6130  -15.8250   20.4990 H   0  0  0  0  0  0  0  0  0  0  0  0
  -26.2400  -15.6380   20.0820 H   0  0  0  0  0  0  0  0  0  0  0  0
  -32.6810  -17.1900   20.9050 O   0  0  0  0  0  0  0  0  0  0  0  0
  -33.1770  -17.1990   22.2380 C   0  0  0  0  0  2  0  0  0  0  0  0
  -34.0090  -15.9320   22.5030 C   0  0  0  0  0  2  0  0  0  0  0  0
  -35.1630  -15.3280   20.5090 C   0  0  0  0  0  1  0  0  0  0  0  0
  -35.2440  -15.9400   21.7910 O   0  0  0  0  0  0  0  0  0  0  0  0
  1  3  2  0
  1  5  1  0
  2  4  1  0
  3  6  1  0
  4 56  1  0
  5  2  2  0
  6  4  2  0
  6 93  1  0
  7  3  1  0
  8 12  1  0
 10  8  1  0
 10 13  1  0
 11  9  1  0
 12 14  1  0
 12  9  1  0
 13  5  1  0
 13 11  1  0
 15 26  2  0
 16 14  1  0
 16 21  1  0
 17 25  1  0
 17 27  1  0
 18 24  1  0
 18 20  1  0
 19 25  1  0
 20 21  2  0
 20 19  1  0
 22 16  2  0
 23 22  1  0
 23 18  2  0
 24 17  1  0
 25 15  1  0
 27 29  2  0
 28 27  1  0
 30 28  1  0
 31 40  2  0
 31 36  1  0
 32 28  1  0
 32 36  1  0
 33 32  1  0
 34 35  1  0
 34 33  1  0
 35 31  1  0
 36 37  2  0
 37 38  1  0
 39 38  2  0
 40 39  1  0
 41 15  1  0
 41 42  1  0
 41 51  1  0
 42 45  1  0
 43 47  1  0
 43 42  1  0
 44 43  2  0
 47 46  1  0
 49 47  1  0
 49 50  1  0
 49 48  1  0
 51 54  1  1
 51 52  1  0
 53 51  1  0
 56 55  1  0
 57 56  1  0
 58 63  1  0
 59 60  1  0
 59 58  1  0
 61 60  1  0
 61 68  1  0
 61 62  1  0
 63 57  1  0
 63 62  1  0
 64 57  2  0
 65 66  2  0
 66 85  1  0
 67 66  1  0
 67 70  1  0
 68 65  1  0
 68 69  1  0
 69 67  2  0
 70 71  1  0
 71 72  2  0
 73 76  1  0
 73 72  1  0
 74 73  2  0
 75 74  1  0
 75 70  2  0
 76 77  1  0
 77 78  1  0
 78 79  2  0
 80 79  1  0
 80 84  1  0
 81 80  2  0
 82 77  2  0
 82 81  1  0
 83 82  1  0
 85 86  1  0
 86 89  1  0
 86 88  1  0
 87 85  2  0
 90 91  1  0
 90 65  1  0
 92 90  1  0
 93 94  1  0
 94 95  1  0
 96 97  1  0
 97 95  1  0
M  ISO  4  12 101  14 101  56 100  57 100
M  END
>  <TORSDO>  (90) 
F 22

>  <SCORE>  (90) 
3.903

>  <name>  (90) 
90

>  <ligand_id>  (90) 
90

>  <original_smiles>  (90) 
[H]c1c([H])c([H])c2c(c1[H])C([H])([H])C([H])([H])C([H])([H])C2([H])N([H])C(=O)C1([H])N(C(=O)C([H])(N([H])C(=O)C([H])(N([H])C([H])([H])[H])C([H])([H])[H])C(C([H])([H])[H])(C([H])([H])[H])C([H])([H])[H])C([H])([H])c2c([H])c(OC3([H])C([H])([H])C([H])([H])N(c4c([H])c(C([H])([H])[H])c(OC([H])([H])C([H])([H])OC([H])([H])[H])c(C([H])(C(=O)N5C([H])([H])C([H])([H])C([H])([H])C([H])(n6nc(-c7c([H])c([H])c(Oc8c([H])c([H])c(F)c([H])c8F)c([H])c7[H])c(C(=O)N([H])[H])c6N([H])[H])C5([H])[H])C([H])([H])[H])c4[H])C([H])([H])C3([H])[H])c([H])c([H])c2C1([H])[H]

>  <smiles>  (90) 
[H]c1c([H])c([H])c2c(c1[H])C([H])([H])C([H])([H])C([H])([H])C2([H])N([H])C(=O)C1([H])N(C(=O)C([H])(N([H])C(=O)C([H])(N([H])C([H])([H])[H])C([H])([H])[H])C(C([H])([H])[H])(C([H])([H])[H])C([H])([H])[H])C([H])([H])c2c([H])c(OC3([H])C([H])([H])C([H])([H])N(c4c([H])c(C([H])([H])[H])c(OC([H])([H])C([H])([H])OC([H])([H])[H])c(C([H])(C(=O)N5C([H])([H])C([H])([H])C([H])([H])C([H])(n6nc(-c7c([H])c([H])c(Oc8c([H])c([H])c(F)c([H])c8F)c([H])c7[H])c(C(=O)N([H])[H])c6N([H])[H])C5([H])[H])C([H])([H])[H])c4[H])C([H])([H])C3([H])[H])c([H])c([H])c2C1([H])[H]

$$$$
91:0:0
     RDKit          3D

 94103  0  0  1  0  0  0  0  0999 V2000
  -30.9770  -19.6860   22.8170 C   0  0  0  0  0  3  0  0  0  0  0  0
  -30.9310  -22.0790   22.5190 C   0  0  0  0  0  3  0  0  0  0  0  0
  -31.1170  -20.9730   23.3630 C   0  0  0  0  0  0  0  0  0  0  0  0
  -30.6480  -19.5450   21.4530 C   0  0  0  0  0  0  0  0  0  0  0  0
  -30.5750  -21.8630   21.1800 C   0  0  0  0  0  0  0  0  0  0  0  0
  -31.4430  -21.1700   24.8290 C   0  0  0  0  0  1  0  0  0  0  0  0
  -30.4270  -20.6230   20.6500 N   0  0  0  0  0  0  0  0  0  0  0  0
  -31.0190  -14.6380   20.4510 C   0  0  0  0  0  0  0  0  0  0  0  0
  -30.7940  -12.3500   19.5270 C   0  0  0  0  0  2  0  0  0  0  0  0
  -29.8870  -12.3590   18.2780 C   0  0  0  0  0  2  0  0  0  0  0  0
  -28.4070  -12.2040   18.6790 C   0  0  0  0  0  2  0  0  0  0  0  0
  -27.9990  -13.1810   19.8120 C   0  0  0  0  0  3  0  0  0  0  0  0
  -29.0270  -13.1380   20.9720 C   0  0  0  0  0  2  0  0  0  0  0  0
  -30.3510  -13.4450   20.4130 N   0  0  0  0  0  0  0  0  0  0  0  0
  -32.1700  -14.7380   20.0110 O   0  0  0  0  0  0  0  0  0  0  0  0
  -29.0000  -17.7250   20.7990 C   0  0  0  0  0  2  0  0  0  0  0  0
  -29.0850  -16.2260   20.5120 C   0  0  0  0  0  2  0  0  0  0  0  0
  -31.1340  -16.9260   21.4480 C   0  0  0  0  0  2  0  0  0  0  0  0
  -30.4460  -18.1620   20.8140 C   0  0  0  0  0  3  0  0  0  0  0  0
  -30.3920  -15.7330   20.9810 N   0  0  0  0  0  0  0  0  0  0  0  0
  -25.6140  -13.8610   20.5000 C   0  0  0  0  0  0  0  0  0  0  0  0
  -24.5240  -13.1160   20.8600 C   0  0  0  0  0  0  0  0  0  0  0  0
  -24.9520  -11.7550   20.8300 C   0  0  0  0  0  0  0  0  0  0  0  0
  -26.6380  -12.9500   20.2780 N   0  0  0  0  0  0  0  0  0  0  0  0
  -26.2440  -11.6800   20.5370 N   0  0  0  0  0  0  0  0  0  0  0  0
  -24.1950  -10.5100   21.0050 C   0  0  0  0  0  0  0  0  0  0  0  0
  -24.5830   -9.5410   21.9550 C   0  0  0  0  0  3  0  0  0  0  0  0
  -23.8290   -8.3580   22.1160 C   0  0  0  0  0  3  0  0  0  0  0  0
  -22.6750   -8.1390   21.3270 C   0  0  0  0  0  0  0  0  0  0  0  0
  -22.3080   -9.0970   20.3650 C   0  0  0  0  0  3  0  0  0  0  0  0
  -23.0620  -10.2710   20.2020 C   0  0  0  0  0  3  0  0  0  0  0  0
  -21.8950   -7.0110   21.3990 O   0  0  0  0  0  0  0  0  0  0  0  0
  -21.7590   -6.3020   22.5650 C   0  0  0  0  0  0  0  0  0  0  0  0
  -21.2120   -6.8820   23.7310 C   0  0  0  0  0  3  0  0  0  0  0  0
  -21.0290   -6.0980   24.8870 C   0  0  0  0  0  3  0  0  0  0  0  0
  -21.3790   -4.7350   24.8770 C   0  0  0  0  0  0  0  0  0  0  0  0
  -21.9180   -4.1540   23.7150 C   0  0  0  0  0  3  0  0  0  0  0  0
  -22.1050   -4.9370   22.5620 C   0  0  0  0  0  0  0  0  0  0  0  0
  -22.6050   -4.3680   21.4390 F   0  0  0  0  0  0  0  0  0  0  0  0
  -21.1950   -3.9780   25.9840 F   0  0  0  0  0  0  0  0  0  0  0  0
  -23.1360  -13.6280   21.1180 C   0  0  0  0  0  0  0  0  0  0  0  0
  -22.3920  -12.9650   21.9980 N   0  0  0  0  0  0  0  0  0  0  0  0
  -22.7180  -14.6490   20.5730 O   0  0  0  0  0  0  0  0  0  0  0  0
  -22.7420  -12.1410   22.4640 H   0  0  0  0  0  0  0  0  0  0  0  0
  -21.4590  -13.2880   22.2100 H   0  0  0  0  0  0  0  0  0  0  0  0
  -25.8080  -15.2280   20.3230 N   0  0  0  0  0  0  0  0  0  0  0  0
  -25.0510  -15.8950   20.4270 H   0  0  0  0  0  0  0  0  0  0  0  0
  -26.6670  -15.6520   19.9960 H   0  0  0  0  0  0  0  0  0  0  0  0
  -30.4430  -22.9700   20.3700 O   0  0  0  0  0  0  0  0  0  0  0  0
  -29.2640  -23.1380   19.5830 C   0  0  0  0  0  2  0  0  0  0  0  0
  -27.2380  -24.2130   20.7120 C   0  0  0  0  0  1  0  0  0  0  0  0
  -28.5930  -24.4730   20.0320 C   0  0  0  0  0  3  0  0  0  0  0  0
  -28.5010  -25.5320   18.9030 C   0  0  0  0  0  2  0  0  0  0  0  0
  -28.4230  -26.8750   19.4140 O   0  0  0  0  0  0  0  0  0  0  0  0
  -24.7230  -31.6220   23.1960 C   0  0  0  0  0  0  0  0  0  0  0  0
  -27.2270  -27.5620   19.5150 C   0  0  0  0  0  0  0  0  0  0  0  0
  -23.4620  -30.4720   21.4050 C   0  0  0  0  0  3  0  0  0  0  0  0
  -24.8590  -29.1000   19.7710 C   0  0  0  0  0  0  0  0  0  0  0  0
  -25.9920  -30.8000   21.2130 C   0  0  0  0  0  2  0  0  0  0  0  0
  -26.0350  -29.5210   20.4000 C   0  0  0  0  0  0  0  0  0  0  0  0
  -27.2170  -28.7590   20.2700 C   0  0  0  0  0  3  0  0  0  0  0  0
  -26.0260  -27.1500   18.8930 C   0  0  0  0  0  3  0  0  0  0  0  0
  -24.8480  -27.9120   19.0190 C   0  0  0  0  0  3  0  0  0  0  0  0
  -23.6370  -29.9730   19.9460 C   0  0  0  0  0  2  0  0  0  0  0  0
  -24.7450  -30.9710   21.9990 N   0  0  0  0  0  0  0  0  0  0  0  0
  -23.6560  -31.8440   23.7860 O   0  0  0  0  0  0  0  0  0  0  0  0
  -22.8010  -29.3470   22.2340 C   0  0  0  0  0  0  0  0  0  0  0  0
  -21.4680  -29.2260   22.1250 N   0  0  0  0  0  0  0  0  0  0  0  0
  -23.4840  -28.5930   22.9320 O   0  0  0  0  0  0  0  0  0  0  0  0
  -20.9800  -29.8910   21.5400 H   0  0  0  0  0  0  0  0  0  0  0  0
  -18.0640  -28.1140   22.5890 C   0  0  0  0  0  0  0  0  0  0  0  0
  -20.6390  -28.2170   22.7820 C   0  0  0  0  0  3  0  0  0  0  0  0
  -20.6500  -26.8880   21.9910 C   0  0  0  0  0  2  0  0  0  0  0  0
  -19.4940  -26.7720   20.9920 C   0  0  0  0  0  2  0  0  0  0  0  0
  -18.1470  -26.8760   21.7120 C   0  0  0  0  0  2  0  0  0  0  0  0
  -19.2350  -28.7530   23.0780 C   0  0  0  0  0  0  0  0  0  0  0  0
  -19.1030  -29.9190   23.8610 C   0  0  0  0  0  3  0  0  0  0  0  0
  -17.8330  -30.4450   24.1620 C   0  0  0  0  0  3  0  0  0  0  0  0
  -16.6760  -29.8000   23.6900 C   0  0  0  0  0  3  0  0  0  0  0  0
  -16.7930  -28.6370   22.9090 C   0  0  0  0  0  3  0  0  0  0  0  0
  -26.0320  -32.1380   23.8700 C   0  0  0  0  0  3  0  0  0  0  0  0
  -26.5050  -31.2420   25.0800 C   0  0  1  0  0  0  0  0  0  0  0  0
  -25.3990  -30.9750   26.1270 C   0  0  0  0  0  1  0  0  0  0  0  0
  -27.0190  -29.8720   24.5740 C   0  0  0  0  0  1  0  0  0  0  0  0
  -27.6900  -31.9200   25.8050 C   0  0  0  0  0  1  0  0  0  0  0  0
  -25.7870  -33.5170   24.3130 N   0  0  0  0  0  0  0  0  0  0  0  0
  -26.1870  -34.6110   23.6530 C   0  0  0  0  0  0  0  0  0  0  0  0
  -26.8720  -34.5610   22.6270 O   0  0  0  0  0  0  0  0  0  0  0  0
  -25.1850  -33.6330   25.1160 H   0  0  0  0  0  0  0  0  0  0  0  0
  -24.5730  -36.5240   23.4040 C   0  0  0  0  0  1  0  0  0  0  0  0
  -25.7580  -35.9780   24.2170 C   0  0  0  0  0  3  0  0  0  0  0  0
  -27.8910  -36.6720   25.2130 C   0  0  0  0  0  1  0  0  0  0  0  0
  -26.8500  -36.9750   24.2360 N   0  0  0  0  0  0  0  0  0  0  0  0
  -26.4860  -37.9030   24.4400 H   0  0  0  0  0  0  0  0  0  0  0  0
  1  3  1  0
  2  3  2  0
  3  6  1  0
  4  1  2  0
  5  2  1  0
  7  5  2  0
  7  4  1  0
  8 20  1  0
  9 14  1  0
 10 11  1  0
 10  9  1  0
 12 11  1  0
 12 24  1  0
 12 13  1  0
 14  8  1  0
 14 13  1  0
 15  8  2  0
 16 19  1  0
 17 16  1  0
 17 20  1  0
 19 18  1  0
 19  4  1  0
 20 18  1  0
 21 22  2  0
 22 41  1  0
 23 22  1  0
 23 26  1  0
 24 21  1  0
 24 25  1  0
 25 23  2  0
 26 27  1  0
 27 28  2  0
 29 32  1  0
 29 28  1  0
 30 29  2  0
 31 30  1  0
 31 26  2  0
 32 33  1  0
 33 34  1  0
 34 35  2  0
 36 35  1  0
 36 40  1  0
 37 36  2  0
 38 33  2  0
 38 37  1  0
 39 38  1  0
 41 42  1  0
 42 45  1  0
 42 44  1  0
 43 41  2  0
 46 47  1  0
 46 21  1  0
 48 46  1  0
 49  5  1  0
 50 52  1  0
 50 49  1  0
 52 51  1  0
 53 54  1  0
 53 52  1  0
 54 56  1  0
 55 66  2  0
 56 61  1  0
 57 65  1  0
 57 67  1  0
 58 64  1  0
 58 60  1  0
 59 65  1  0
 60 59  1  0
 61 60  2  0
 62 63  1  0
 62 56  2  0
 63 58  2  0
 64 57  1  0
 65 55  1  0
 67 69  2  0
 68 67  1  0
 70 68  1  0
 71 80  2  0
 71 76  1  0
 72 68  1  0
 72 76  1  0
 73 72  1  0
 74 75  1  0
 74 73  1  0
 75 71  1  0
 76 77  2  0
 77 78  1  0
 79 78  2  0
 80 79  1  0
 81 55  1  0
 81 86  1  0
 81 82  1  0
 82 85  1  1
 82 83  1  0
 84 82  1  0
 86 89  1  0
 87 91  1  0
 87 86  1  0
 88 87  2  0
 91 90  1  0
 91 93  1  0
 93 94  1  0
 93 92  1  0
M  ISO  4   8 100  20 100  53 101  54 101
M  END
>  <TORSDO>  (91) 
F 20

>  <SCORE>  (91) 
-13.485

>  <name>  (91) 
91

>  <ligand_id>  (91) 
91

>  <original_smiles>  (91) 
[H]c1c([H])c([H])c2c(c1[H])C([H])([H])C([H])([H])C([H])([H])C2([H])N([H])C(=O)C1([H])N(C(=O)C([H])(N([H])C(=O)C([H])(N([H])C([H])([H])[H])C([H])([H])[H])C(C([H])([H])[H])(C([H])([H])[H])C([H])([H])[H])C([H])([H])c2c([H])c(OC([H])([H])C([H])(C([H])([H])[H])C([H])([H])Oc3nc(C4([H])C([H])([H])N(C(=O)N5C([H])([H])C([H])([H])C([H])([H])C([H])(n6nc(-c7c([H])c([H])c(Oc8c([H])c([H])c(F)c([H])c8F)c([H])c7[H])c(C(=O)N([H])[H])c6N([H])[H])C5([H])[H])C([H])([H])C4([H])[H])c([H])c(C([H])([H])[H])c3[H])c([H])c([H])c2C1([H])[H]

>  <smiles>  (91) 
[H]c1c([H])c([H])c2c(c1[H])C([H])([H])C([H])([H])C([H])([H])C2([H])N([H])C(=O)C1([H])N(C(=O)C([H])(N([H])C(=O)C([H])(N([H])C([H])([H])[H])C([H])([H])[H])C(C([H])([H])[H])(C([H])([H])[H])C([H])([H])[H])C([H])([H])c2c([H])c(OC([H])([H])C([H])(C([H])([H])[H])C([H])([H])Oc3nc(C4([H])C([H])([H])N(C(=O)N5C([H])([H])C([H])([H])C([H])([H])C([H])(n6nc(-c7c([H])c([H])c(Oc8c([H])c([H])c(F)c([H])c8F)c([H])c7[H])c(C(=O)N([H])[H])c6N([H])[H])C5([H])[H])C([H])([H])C4([H])[H])c([H])c(C([H])([H])[H])c3[H])c([H])c([H])c2C1([H])[H]

$$$$
92:0:0
     RDKit          3D

 92101  0  0  1  0  0  0  0  0999 V2000
  -30.3860  -19.9340   18.9370 C   0  0  0  0  0  3  0  0  0  0  0  0
  -29.5450  -19.7080   21.1260 C   0  0  0  0  0  3  0  0  0  0  0  0
  -29.8760  -20.6390   20.0870 C   0  0  0  0  0  0  0  0  0  0  0  0
  -30.5410  -18.4810   18.8380 C   0  0  0  0  0  0  0  0  0  0  0  0
  -29.6970  -18.2710   21.0500 C   0  0  0  0  0  0  0  0  0  0  0  0
  -30.2250  -17.5720   19.9120 C   0  0  0  0  0  0  0  0  0  0  0  0
  -31.0220  -17.9080   17.5160 C   0  0  0  0  0  1  0  0  0  0  0  0
  -29.2730  -17.4530   22.2580 C   0  0  0  0  0  1  0  0  0  0  0  0
  -31.0360  -14.9650   19.5180 C   0  0  0  0  0  0  0  0  0  0  0  0
  -30.8120  -12.6530   18.5350 C   0  0  0  0  0  2  0  0  0  0  0  0
  -29.7180  -12.6790   17.4400 C   0  0  0  0  0  2  0  0  0  0  0  0
  -28.3240  -12.4540   18.0560 C   0  0  0  0  0  2  0  0  0  0  0  0
  -28.0830  -13.3400   19.3060 C   0  0  0  0  0  3  0  0  0  0  0  0
  -29.2770  -13.2800   20.2850 C   0  0  0  0  0  2  0  0  0  0  0  0
  -30.4710  -13.6970   19.5360 N   0  0  0  0  0  0  0  0  0  0  0  0
  -32.1650  -15.1000   19.0370 O   0  0  0  0  0  0  0  0  0  0  0  0
  -30.2200  -16.0460   19.9070 N   0  0  0  0  0  0  0  0  0  0  0  0
  -29.3930  -15.6800   20.3500 H   0  0  0  0  0  0  0  0  0  0  0  0
  -25.8490  -13.9160   20.4240 C   0  0  0  0  0  0  0  0  0  0  0  0
  -24.8160  -13.1400   20.8750 C   0  0  0  0  0  0  0  0  0  0  0  0
  -25.2200  -11.7860   20.6640 C   0  0  0  0  0  0  0  0  0  0  0  0
  -26.8130  -13.0370   19.9600 N   0  0  0  0  0  0  0  0  0  0  0  0
  -26.4510  -11.7440   20.1650 N   0  0  0  0  0  0  0  0  0  0  0  0
  -24.4830  -10.5290   20.8500 C   0  0  0  0  0  0  0  0  0  0  0  0
  -24.8890   -9.5660   21.8000 C   0  0  0  0  0  3  0  0  0  0  0  0
  -24.1540   -8.3740   21.9720 C   0  0  0  0  0  3  0  0  0  0  0  0
  -22.9960   -8.1360   21.1940 C   0  0  0  0  0  0  0  0  0  0  0  0
  -22.6070   -9.0880   20.2350 C   0  0  0  0  0  3  0  0  0  0  0  0
  -23.3440  -10.2710   20.0600 C   0  0  0  0  0  3  0  0  0  0  0  0
  -22.2350   -6.9940   21.2720 O   0  0  0  0  0  0  0  0  0  0  0  0
  -21.9510   -6.4030   22.4760 C   0  0  0  0  0  0  0  0  0  0  0  0
  -21.2570   -7.0870   23.4980 C   0  0  0  0  0  3  0  0  0  0  0  0
  -20.9190   -6.4170   24.6900 C   0  0  0  0  0  3  0  0  0  0  0  0
  -21.2700   -5.0650   24.8640 C   0  0  0  0  0  0  0  0  0  0  0  0
  -21.9590   -4.3810   23.8470 C   0  0  0  0  0  3  0  0  0  0  0  0
  -22.2960   -5.0480   22.6570 C   0  0  0  0  0  0  0  0  0  0  0  0
  -22.9390   -4.3770   21.6700 F   0  0  0  0  0  0  0  0  0  0  0  0
  -20.9430   -4.4200   26.0080 F   0  0  0  0  0  0  0  0  0  0  0  0
  -23.4870  -13.6280   21.3790 C   0  0  0  0  0  0  0  0  0  0  0  0
  -22.8680  -12.8900   22.2930 N   0  0  0  0  0  0  0  0  0  0  0  0
  -23.0130  -14.6980   21.0000 O   0  0  0  0  0  0  0  0  0  0  0  0
  -23.2660  -12.0250   22.6260 H   0  0  0  0  0  0  0  0  0  0  0  0
  -21.9850  -13.2030   22.6730 H   0  0  0  0  0  0  0  0  0  0  0  0
  -26.0380  -15.2930   20.3430 N   0  0  0  0  0  0  0  0  0  0  0  0
  -25.3200  -15.9520   20.6190 H   0  0  0  0  0  0  0  0  0  0  0  0
  -26.8290  -15.7360   19.8930 H   0  0  0  0  0  0  0  0  0  0  0  0
  -29.3930  -22.7800   21.7140 C   0  0  0  0  0  2  0  0  0  0  0  0
  -29.2890  -24.3430   21.6670 C   0  0  0  0  0  2  0  0  0  0  0  0
  -29.2060  -23.4760   19.4220 C   0  0  0  0  0  2  0  0  0  0  0  0
  -29.8610  -22.2790   20.3250 C   0  0  0  0  0  3  0  0  0  0  0  0
  -28.6680  -24.7540   20.3150 C   0  0  0  0  0  3  0  0  0  0  0  0
  -28.8100  -26.2760   20.0260 O   0  0  0  0  0  0  0  0  0  0  0  0
  -24.8660  -31.6670   23.1280 C   0  0  0  0  0  0  0  0  0  0  0  0
  -27.6890  -27.1800   20.0100 C   0  0  0  0  0  0  0  0  0  0  0  0
  -23.7470  -30.2790   21.4230 C   0  0  0  0  0  3  0  0  0  0  0  0
  -25.2830  -28.8100   19.9780 C   0  0  0  0  0  0  0  0  0  0  0  0
  -26.2880  -30.6600   21.3070 C   0  0  0  0  0  2  0  0  0  0  0  0
  -26.4310  -29.2940   20.6190 C   0  0  0  0  0  0  0  0  0  0  0  0
  -27.6340  -28.4970   20.6150 C   0  0  0  0  0  3  0  0  0  0  0  0
  -26.5150  -26.7920   19.3270 C   0  0  0  0  0  3  0  0  0  0  0  0
  -25.3370  -27.5740   19.3160 C   0  0  0  0  0  3  0  0  0  0  0  0
  -24.0160  -29.6500   20.0290 C   0  0  0  0  0  2  0  0  0  0  0  0
  -24.9840  -30.8890   22.0090 N   0  0  0  0  0  0  0  0  0  0  0  0
  -23.7630  -31.8900   23.6490 O   0  0  0  0  0  0  0  0  0  0  0  0
  -23.0980  -29.2160   22.3450 C   0  0  0  0  0  0  0  0  0  0  0  0
  -21.7860  -28.9750   22.1740 N   0  0  0  0  0  0  0  0  0  0  0  0
  -23.7790  -28.6070   23.1750 O   0  0  0  0  0  0  0  0  0  0  0  0
  -21.2900  -29.5160   21.4790 H   0  0  0  0  0  0  0  0  0  0  0  0
  -18.4590  -27.6050   22.5720 C   0  0  0  0  0  0  0  0  0  0  0  0
  -20.9950  -27.9800   22.9030 C   0  0  0  0  0  3  0  0  0  0  0  0
  -21.1780  -26.5700   22.2950 C   0  0  0  0  0  2  0  0  0  0  0  0
  -20.1150  -26.2240   21.2470 C   0  0  0  0  0  2  0  0  0  0  0  0
  -18.7140  -26.2860   21.8610 C   0  0  0  0  0  2  0  0  0  0  0  0
  -19.5300  -28.4060   23.0480 C   0  0  0  0  0  0  0  0  0  0  0  0
  -19.2370  -29.6370   23.6740 C   0  0  0  0  0  3  0  0  0  0  0  0
  -17.9070  -30.0690   23.8300 C   0  0  0  0  0  3  0  0  0  0  0  0
  -16.8500  -29.2640   23.3700 C   0  0  0  0  0  3  0  0  0  0  0  0
  -17.1260  -28.0350   22.7460 C   0  0  0  0  0  3  0  0  0  0  0  0
  -26.1100  -32.3330   23.7930 C   0  0  0  0  0  3  0  0  0  0  0  0
  -25.7360  -33.7090   24.1610 N   0  0  0  0  0  0  0  0  0  0  0  0
  -25.9910  -34.7950   23.4200 C   0  0  0  0  0  0  0  0  0  0  0  0
  -26.6320  -34.7480   22.3670 O   0  0  0  0  0  0  0  0  0  0  0  0
  -25.1570  -33.8140   24.9830 H   0  0  0  0  0  0  0  0  0  0  0  0
  -24.1430  -36.4900   23.1900 C   0  0  0  0  0  1  0  0  0  0  0  0
  -25.4490  -36.1480   23.9250 C   0  0  0  0  0  3  0  0  0  0  0  0
  -27.5670  -37.1560   24.6560 C   0  0  0  0  0  1  0  0  0  0  0  0
  -26.4090  -37.2630   23.7720 N   0  0  0  0  0  0  0  0  0  0  0  0
  -25.9540  -38.1550   23.9490 H   0  0  0  0  0  0  0  0  0  0  0  0
  -26.6290  -31.5480   25.0610 C   0  0  1  0  0  0  0  0  0  0  0  0
  -25.5260  -31.2420   26.1000 C   0  0  0  0  0  1  0  0  0  0  0  0
  -27.2730  -30.2030   24.6510 C   0  0  0  0  0  1  0  0  0  0  0  0
  -27.7360  -32.3680   25.7660 C   0  0  0  0  0  1  0  0  0  0  0  0
  1  3  1  0
  3  2  2  0
  4  1  2  0
  4  6  1  0
  5  2  1  0
  5  8  1  0
  6  5  2  0
  7  4  1  0
  9 15  1  0
  9 17  1  0
 10 15  1  0
 11 12  1  0
 11 10  1  0
 13 12  1  0
 13 22  1  0
 13 14  1  0
 15 14  1  0
 16  9  2  0
 17  6  1  0
 17 18  1  0
 19 20  2  0
 20 39  1  0
 21 24  1  0
 21 20  1  0
 22 23  1  0
 22 19  1  0
 23 21  2  0
 24 25  1  0
 25 26  2  0
 27 30  1  0
 27 26  1  0
 28 27  2  0
 29 28  1  0
 29 24  2  0
 30 31  1  0
 31 36  2  0
 31 32  1  0
 32 33  2  0
 33 34  1  0
 34 38  1  0
 35 34  2  0
 36 35  1  0
 37 36  1  0
 39 40  1  0
 40 42  1  0
 40 43  1  0
 41 39  2  0
 44 19  1  0
 44 45  1  0
 46 44  1  0
 48 47  1  0
 49 51  1  0
 49 50  1  0
 50  3  1  0
 50 47  1  0
 51 52  1  0
 51 48  1  0
 53 64  2  0
 54 52  1  0
 54 59  1  0
 55 63  1  0
 55 65  1  0
 56 62  1  0
 56 58  1  0
 57 63  1  0
 58 57  1  0
 59 58  2  0
 60 54  2  0
 61 60  1  0
 61 56  2  0
 62 55  1  0
 63 53  1  0
 65 67  2  0
 66 65  1  0
 68 66  1  0
 69 78  2  0
 69 74  1  0
 70 66  1  0
 70 74  1  0
 71 70  1  0
 72 73  1  0
 72 71  1  0
 73 69  1  0
 74 75  2  0
 75 76  1  0
 77 76  2  0
 78 77  1  0
 79 53  1  0
 79 80  1  0
 79 89  1  0
 80 83  1  0
 81 85  1  0
 81 80  1  0
 82 81  2  0
 85 84  1  0
 87 85  1  0
 87 88  1  0
 87 86  1  0
 89 92  1  1
 89 90  1  0
 91 89  1  0
M  ISO  4   9 100  17 100  51 101  52 101
M  END
>  <TORSDO>  (92) 
F 17

>  <SCORE>  (92) 
-11.439

>  <name>  (92) 
92

>  <ligand_id>  (92) 
92

>  <original_smiles>  (92) 
[H]c1c([H])c([H])c2c(c1[H])C([H])([H])C([H])([H])C([H])([H])C2([H])N([H])C(=O)C1([H])N(C(=O)C([H])(N([H])C(=O)C([H])(N([H])C([H])([H])[H])C([H])([H])[H])C(C([H])([H])[H])(C([H])([H])[H])C([H])([H])[H])C([H])([H])c2c([H])c(OC3([H])C([H])([H])C([H])([H])C([H])(c4c([H])c(C([H])([H])[H])c(N([H])C(=O)N5C([H])([H])C([H])([H])C([H])([H])C([H])(n6nc(-c7c([H])c([H])c(Oc8c([H])c([H])c(F)c([H])c8F)c([H])c7[H])c(C(=O)N([H])[H])c6N([H])[H])C5([H])[H])c(C([H])([H])[H])c4[H])C3([H])[H])c([H])c([H])c2C1([H])[H]

>  <smiles>  (92) 
[H]c1c([H])c([H])c2c(c1[H])C([H])([H])C([H])([H])C([H])([H])C2([H])N([H])C(=O)C1([H])N(C(=O)C([H])(N([H])C(=O)C([H])(N([H])C([H])([H])[H])C([H])([H])[H])C(C([H])([H])[H])(C([H])([H])[H])C([H])([H])[H])C([H])([H])c2c([H])c(OC3([H])C([H])([H])C([H])([H])C([H])(c4c([H])c(C([H])([H])[H])c(N([H])C(=O)N5C([H])([H])C([H])([H])C([H])([H])C([H])(n6nc(-c7c([H])c([H])c(Oc8c([H])c([H])c(F)c([H])c8F)c([H])c7[H])c(C(=O)N([H])[H])c6N([H])[H])C5([H])[H])c(C([H])([H])[H])c4[H])C3([H])[H])c([H])c([H])c2C1([H])[H]

$$$$
93:0:0
     RDKit          3D

 94103  0  0  1  0  0  0  0  0999 V2000
  -28.5160  -23.1640   20.3940 C   0  0  0  0  0  3  0  0  0  0  0  0
  -29.6680  -21.9550   18.1910 C   0  0  0  0  0  3  0  0  0  0  0  0
  -28.4620  -23.8860   19.1710 C   0  0  0  0  0  0  0  0  0  0  0  0
  -29.0940  -21.8620   20.5250 C   0  0  0  0  0  0  0  0  0  0  0  0
  -29.0820  -23.2540   18.0630 C   0  0  0  0  0  0  0  0  0  0  0  0
  -29.6580  -21.1940   19.3940 C   0  0  0  0  0  0  0  0  0  0  0  0
  -29.0700  -23.9300   16.7050 C   0  0  0  0  0  1  0  0  0  0  0  0
  -29.1390  -21.2800   21.9330 C   0  0  0  0  0  2  0  0  0  0  0  0
  -30.8710  -20.8350   23.8650 C   0  0  0  0  0  2  0  0  0  0  0  0
  -31.1320  -19.7740   22.8310 C   0  0  0  0  0  2  0  0  0  0  0  0
  -30.5750  -21.1170   22.4090 C   0  0  0  0  0  3  0  0  0  0  0  0
  -27.5060  -25.1340   19.0470 C   0  0  0  0  0  2  0  0  0  0  0  0
  -27.8410  -26.5000   19.5280 O   0  0  0  0  0  0  0  0  0  0  0  0
  -24.8430  -31.8090   23.4310 C   0  0  0  0  0  0  0  0  0  0  0  0
  -26.8030  -27.4540   19.6470 C   0  0  0  0  0  0  0  0  0  0  0  0
  -23.3950  -30.6860   21.7820 C   0  0  0  0  0  3  0  0  0  0  0  0
  -24.5860  -29.2280   20.0620 C   0  0  0  0  0  0  0  0  0  0  0  0
  -25.9280  -30.8460   21.3880 C   0  0  0  0  0  2  0  0  0  0  0  0
  -25.8390  -29.5470   20.5980 C   0  0  0  0  0  0  0  0  0  0  0  0
  -26.9460  -28.6660   20.3980 C   0  0  0  0  0  3  0  0  0  0  0  0
  -25.5290  -27.2370   19.0550 C   0  0  0  0  0  3  0  0  0  0  0  0
  -24.4330  -28.0790   19.2860 C   0  0  0  0  0  3  0  0  0  0  0  0
  -23.4310  -30.1690   20.3220 C   0  0  0  0  0  2  0  0  0  0  0  0
  -24.7470  -31.1240   22.2550 N   0  0  0  0  0  0  0  0  0  0  0  0
  -23.8360  -32.0950   24.0950 O   0  0  0  0  0  0  0  0  0  0  0  0
  -22.7490  -29.6090   22.6860 C   0  0  0  0  0  0  0  0  0  0  0  0
  -21.4280  -29.4100   22.5400 N   0  0  0  0  0  0  0  0  0  0  0  0
  -23.4360  -28.9590   23.4780 O   0  0  0  0  0  0  0  0  0  0  0  0
  -20.9310  -29.9900   21.8790 H   0  0  0  0  0  0  0  0  0  0  0  0
  -18.1060  -28.0020   22.8280 C   0  0  0  0  0  0  0  0  0  0  0  0
  -20.6190  -28.4240   23.2620 C   0  0  0  0  0  3  0  0  0  0  0  0
  -20.8500  -26.9990   22.7070 C   0  0  0  0  0  2  0  0  0  0  0  0
  -19.8390  -26.6030   21.6260 C   0  0  0  0  0  2  0  0  0  0  0  0
  -18.4120  -26.6650   22.1740 C   0  0  0  0  0  2  0  0  0  0  0  0
  -19.1430  -28.8360   23.3230 C   0  0  0  0  0  0  0  0  0  0  0  0
  -18.8060  -30.0860   23.8870 C   0  0  0  0  0  3  0  0  0  0  0  0
  -17.4630  -30.5010   23.9670 C   0  0  0  0  0  3  0  0  0  0  0  0
  -16.4400  -29.6670   23.4860 C   0  0  0  0  0  3  0  0  0  0  0  0
  -16.7610  -28.4190   22.9220 C   0  0  0  0  0  3  0  0  0  0  0  0
  -26.2210  -32.2830   23.9840 C   0  0  0  0  0  3  0  0  0  0  0  0
  -26.0640  -33.6720   24.4400 N   0  0  0  0  0  0  0  0  0  0  0  0
  -26.4220  -34.7510   23.7310 C   0  0  0  0  0  0  0  0  0  0  0  0
  -26.9910  -34.6750   22.6390 O   0  0  0  0  0  0  0  0  0  0  0  0
  -25.5650  -33.8130   25.3060 H   0  0  0  0  0  0  0  0  0  0  0  0
  -24.8350  -36.6980   23.6540 C   0  0  0  0  0  1  0  0  0  0  0  0
  -26.0950  -36.1330   24.3290 C   0  0  0  0  0  3  0  0  0  0  0  0
  -28.3530  -36.7700   25.0460 C   0  0  0  0  0  1  0  0  0  0  0  0
  -27.2050  -37.1040   24.2090 N   0  0  0  0  0  0  0  0  0  0  0  0
  -26.8910  -38.0380   24.4580 H   0  0  0  0  0  0  0  0  0  0  0  0
  -26.7660  -31.3740   25.1530 C   0  0  1  0  0  0  0  0  0  0  0  0
  -25.7450  -31.1450   26.2920 C   0  0  0  0  0  1  0  0  0  0  0  0
  -27.1900  -29.9900   24.6130 C   0  0  0  0  0  1  0  0  0  0  0  0
  -28.0320  -32.0170   25.7670 C   0  0  0  0  0  1  0  0  0  0  0  0
  -30.2880  -19.9270   19.3500 O   0  0  0  0  0  0  0  0  0  0  0  0
  -29.6840  -18.6480   19.7500 C   0  0  0  0  0  2  0  0  0  0  0  0
  -30.7230  -17.4440   19.8210 C   0  0  0  0  0  2  0  0  0  0  0  0
  -30.9720  -14.9050   20.0230 C   0  0  0  0  0  0  0  0  0  0  0  0
  -30.8330  -12.4940   19.4560 C   0  0  0  0  0  2  0  0  0  0  0  0
  -29.9170  -12.3020   18.2290 C   0  0  0  0  0  2  0  0  0  0  0  0
  -28.4510  -12.1490   18.6730 C   0  0  0  0  0  2  0  0  0  0  0  0
  -28.0140  -13.2360   19.6930 C   0  0  0  0  0  3  0  0  0  0  0  0
  -29.0590  -13.4280   20.8170 C   0  0  0  0  0  2  0  0  0  0  0  0
  -30.3560  -13.6900   20.1790 N   0  0  0  0  0  0  0  0  0  0  0  0
  -32.1460  -14.9810   19.6610 O   0  0  0  0  0  0  0  0  0  0  0  0
  -30.2150  -16.0450   20.0780 N   0  0  0  0  0  0  0  0  0  0  0  0
  -29.2390  -15.9370   20.3110 H   0  0  0  0  0  0  0  0  0  0  0  0
  -25.6840  -13.8690   20.5650 C   0  0  0  0  0  0  0  0  0  0  0  0
  -24.6010  -13.1130   20.9240 C   0  0  0  0  0  0  0  0  0  0  0  0
  -25.0040  -11.7500   20.7780 C   0  0  0  0  0  0  0  0  0  0  0  0
  -26.6780  -12.9680   20.2220 N   0  0  0  0  0  0  0  0  0  0  0  0
  -26.2790  -11.6830   20.4130 N   0  0  0  0  0  0  0  0  0  0  0  0
  -24.2310  -10.5070   20.9110 C   0  0  0  0  0  0  0  0  0  0  0  0
  -24.5970   -9.5050   21.8360 C   0  0  0  0  0  3  0  0  0  0  0  0
  -23.8270   -8.3280   21.9560 C   0  0  0  0  0  3  0  0  0  0  0  0
  -22.6760   -8.1470   21.1530 C   0  0  0  0  0  0  0  0  0  0  0  0
  -22.3310   -9.1360   20.2160 C   0  0  0  0  0  3  0  0  0  0  0  0
  -23.1020  -10.3050   20.0930 C   0  0  0  0  0  3  0  0  0  0  0  0
  -21.8830   -7.0250   21.1840 O   0  0  0  0  0  0  0  0  0  0  0  0
  -21.6370   -6.3490   22.3510 C   0  0  0  0  0  0  0  0  0  0  0  0
  -21.0450   -6.9810   23.4660 C   0  0  0  0  0  3  0  0  0  0  0  0
  -20.7450   -6.2340   24.6230 C   0  0  0  0  0  3  0  0  0  0  0  0
  -21.0280   -4.8540   24.6640 C   0  0  0  0  0  0  0  0  0  0  0  0
  -21.6120   -4.2230   23.5520 C   0  0  0  0  0  3  0  0  0  0  0  0
  -21.9130   -4.9680   22.3990 C   0  0  0  0  0  0  0  0  0  0  0  0
  -22.4560   -4.3490   21.3220 F   0  0  0  0  0  0  0  0  0  0  0  0
  -20.7340   -4.1330   25.7720 F   0  0  0  0  0  0  0  0  0  0  0  0
  -23.2380  -13.6250   21.2910 C   0  0  0  0  0  0  0  0  0  0  0  0
  -22.5270  -12.9040   22.1520 N   0  0  0  0  0  0  0  0  0  0  0  0
  -22.8160  -14.6940   20.8540 O   0  0  0  0  0  0  0  0  0  0  0  0
  -22.8820  -12.0330   22.5180 H   0  0  0  0  0  0  0  0  0  0  0  0
  -21.6160  -13.2240   22.4460 H   0  0  0  0  0  0  0  0  0  0  0  0
  -25.8990  -15.2420   20.4780 N   0  0  0  0  0  0  0  0  0  0  0  0
  -25.1660  -15.9140   20.6760 H   0  0  0  0  0  0  0  0  0  0  0  0
  -26.7500  -15.6710   20.1370 H   0  0  0  0  0  0  0  0  0  0  0  0
  1  4  1  0
  2  6  1  0
  3  1  2  0
  4  8  1  0
  5  2  2  0
  5  3  1  0
  6  4  2  0
  7  5  1  0
  8 11  1  0
 10  9  1  0
 11 10  1  0
 11  9  1  0
 12  3  1  0
 12 13  1  0
 13 15  1  0
 14 25  2  0
 15 20  1  0
 16 24  1  0
 16 26  1  0
 17 23  1  0
 17 19  1  0
 18 24  1  0
 19 18  1  0
 20 19  2  0
 21 22  1  0
 21 15  2  0
 22 17  2  0
 23 16  1  0
 24 14  1  0
 26 28  2  0
 27 26  1  0
 29 27  1  0
 30 39  2  0
 30 35  1  0
 31 27  1  0
 31 35  1  0
 32 31  1  0
 33 34  1  0
 33 32  1  0
 34 30  1  0
 35 36  2  0
 36 37  1  0
 38 37  2  0
 39 38  1  0
 40 14  1  0
 40 41  1  0
 40 50  1  0
 41 44  1  0
 42 46  1  0
 42 41  1  0
 43 42  2  0
 46 45  1  0
 48 46  1  0
 48 49  1  0
 48 47  1  0
 50 53  1  1
 50 51  1  0
 52 50  1  0
 54  6  1  0
 54 55  1  0
 55 56  1  0
 56 65  1  0
 57 65  1  0
 57 63  1  0
 58 63  1  0
 59 60  1  0
 59 58  1  0
 61 60  1  0
 61 70  1  0
 61 62  1  0
 63 62  1  0
 64 57  2  0
 65 66  1  0
 67 68  2  0
 68 87  1  0
 69 72  1  0
 69 68  1  0
 70 71  1  0
 70 67  1  0
 71 69  2  0
 72 73  1  0
 73 74  2  0
 75 78  1  0
 75 74  1  0
 76 75  2  0
 77 76  1  0
 77 72  2  0
 78 79  1  0
 79 84  2  0
 79 80  1  0
 80 81  2  0
 81 82  1  0
 82 86  1  0
 83 82  2  0
 84 83  1  0
 85 84  1  0
 87 88  1  0
 88 91  1  0
 88 90  1  0
 89 87  2  0
 92 67  1  0
 92 93  1  0
 94 92  1  0
M  ISO  4  12 101  13 101  57 100  65 100
M  END
>  <TORSDO>  (93) 
F 22

>  <SCORE>  (93) 
-12.234

>  <name>  (93) 
93

>  <ligand_id>  (93) 
93

>  <original_smiles>  (93) 
[H]c1c([H])c([H])c2c(c1[H])C([H])([H])C([H])([H])C([H])([H])C2([H])N([H])C(=O)C1([H])N(C(=O)C([H])(N([H])C(=O)C([H])(N([H])C([H])([H])[H])C([H])([H])[H])C(C([H])([H])[H])(C([H])([H])[H])C([H])([H])[H])C([H])([H])c2c([H])c(OC([H])([H])c3c([H])c(C([H])([H])C4([H])C([H])([H])C4([H])[H])c(OC([H])([H])C([H])([H])N([H])C(=O)N4C([H])([H])C([H])([H])C([H])([H])C([H])(n5nc(-c6c([H])c([H])c(Oc7c([H])c([H])c(F)c([H])c7F)c([H])c6[H])c(C(=O)N([H])[H])c5N([H])[H])C4([H])[H])c([H])c3C([H])([H])[H])c([H])c([H])c2C1([H])[H]

>  <smiles>  (93) 
[H]c1c([H])c([H])c2c(c1[H])C([H])([H])C([H])([H])C([H])([H])C2([H])N([H])C(=O)C1([H])N(C(=O)C([H])(N([H])C(=O)C([H])(N([H])C([H])([H])[H])C([H])([H])[H])C(C([H])([H])[H])(C([H])([H])[H])C([H])([H])[H])C([H])([H])c2c([H])c(OC([H])([H])c3c([H])c(C([H])([H])C4([H])C([H])([H])C4([H])[H])c(OC([H])([H])C([H])([H])N([H])C(=O)N4C([H])([H])C([H])([H])C([H])([H])C([H])(n5nc(-c6c([H])c([H])c(Oc7c([H])c([H])c(F)c([H])c7F)c([H])c6[H])c(C(=O)N([H])[H])c5N([H])[H])C4([H])[H])c([H])c3C([H])([H])[H])c([H])c([H])c2C1([H])[H]

$$$$
94:0:0
     RDKit          3D

 92101  0  0  1  0  0  0  0  0999 V2000
  -28.0420  -20.6660   19.0600 C   0  0  0  0  0  2  0  0  0  0  0  0
  -27.9270  -21.8330   18.0660 C   0  0  0  0  0  2  0  0  0  0  0  0
  -29.2200  -22.1490   20.6050 C   0  0  0  0  0  2  0  0  0  0  0  0
  -29.3900  -20.6920   19.8150 C   0  0  0  0  0  3  0  0  0  0  0  0
  -27.7390  -23.2200   18.7200 C   0  0  0  0  0  3  0  0  0  0  0  0
  -28.7870  -23.5590   19.8200 C   0  0  0  0  0  3  0  0  0  0  0  0
  -27.7130  -24.2770   17.5990 C   0  0  0  0  0  1  0  0  0  0  0  0
  -30.7980  -19.4590   21.6470 C   0  0  0  0  0  1  0  0  0  0  0  0
  -29.7420  -19.2140   20.5630 C   0  0  0  0  0  3  0  0  0  0  0  0
  -30.6400  -15.0670   20.2180 C   0  0  0  0  0  0  0  0  0  0  0  0
  -30.5140  -12.7440   19.1840 C   0  0  0  0  0  2  0  0  0  0  0  0
  -29.5430  -12.6900   17.9790 C   0  0  0  0  0  2  0  0  0  0  0  0
  -28.0950  -12.4280   18.4400 C   0  0  0  0  0  2  0  0  0  0  0  0
  -27.7080  -13.3180   19.6420 C   0  0  0  0  0  3  0  0  0  0  0  0
  -28.8010  -13.2790   20.7450 C   0  0  0  0  0  2  0  0  0  0  0  0
  -30.0340  -13.8000   20.1280 N   0  0  0  0  0  0  0  0  0  0  0  0
  -31.8380  -15.1030   19.9080 O   0  0  0  0  0  0  0  0  0  0  0  0
  -28.0130  -17.0490   19.1680 C   0  0  0  0  0  2  0  0  0  0  0  0
  -29.3200  -17.5580   18.5480 C   0  0  0  0  0  2  0  0  0  0  0  0
  -28.4680  -16.4360   20.5150 C   0  0  0  0  0  2  0  0  0  0  0  0
  -30.1740  -17.7490   19.7910 C   0  0  0  0  0  3  0  0  0  0  0  0
  -29.9180  -16.3100   20.3920 N   0  0  0  0  0  0  0  0  0  0  0  0
  -25.3210  -13.9220   20.3920 C   0  0  0  0  0  0  0  0  0  0  0  0
  -24.2680  -13.1470   20.7820 C   0  0  0  0  0  0  0  0  0  0  0  0
  -24.7400  -11.8000   20.7510 C   0  0  0  0  0  0  0  0  0  0  0  0
  -26.3710  -13.0430   20.1530 N   0  0  0  0  0  0  0  0  0  0  0  0
  -26.0260  -11.7640   20.4320 N   0  0  0  0  0  0  0  0  0  0  0  0
  -24.0230  -10.5370   20.9460 C   0  0  0  0  0  0  0  0  0  0  0  0
  -24.4540   -9.5850   21.8930 C   0  0  0  0  0  3  0  0  0  0  0  0
  -23.7370   -8.3840   22.0740 C   0  0  0  0  0  3  0  0  0  0  0  0
  -22.5750   -8.1300   21.3070 C   0  0  0  0  0  0  0  0  0  0  0  0
  -22.1630   -9.0720   20.3480 C   0  0  0  0  0  3  0  0  0  0  0  0
  -22.8820  -10.2650   20.1660 C   0  0  0  0  0  3  0  0  0  0  0  0
  -21.8280   -6.9810   21.3990 O   0  0  0  0  0  0  0  0  0  0  0  0
  -21.7510   -6.2660   22.5660 C   0  0  0  0  0  0  0  0  0  0  0  0
  -21.2440   -6.8330   23.7560 C   0  0  0  0  0  3  0  0  0  0  0  0
  -21.1180   -6.0410   24.9140 C   0  0  0  0  0  3  0  0  0  0  0  0
  -21.4880   -4.6830   24.8840 C   0  0  0  0  0  0  0  0  0  0  0  0
  -21.9880   -4.1160   23.6990 C   0  0  0  0  0  3  0  0  0  0  0  0
  -22.1170   -4.9050   22.5430 C   0  0  0  0  0  0  0  0  0  0  0  0
  -22.5790   -4.3480   21.3980 F   0  0  0  0  0  0  0  0  0  0  0  0
  -21.3590   -3.9210   25.9950 F   0  0  0  0  0  0  0  0  0  0  0  0
  -22.8720  -13.6210   21.0670 C   0  0  0  0  0  0  0  0  0  0  0  0
  -22.1520  -12.9210   21.9340 N   0  0  0  0  0  0  0  0  0  0  0  0
  -22.4290  -14.6490   20.5550 O   0  0  0  0  0  0  0  0  0  0  0  0
  -22.5220  -12.0890   22.3700 H   0  0  0  0  0  0  0  0  0  0  0  0
  -21.2170  -13.2230   22.1670 H   0  0  0  0  0  0  0  0  0  0  0  0
  -25.4430  -15.2910   20.1980 N   0  0  0  0  0  0  0  0  0  0  0  0
  -24.6600  -15.9220   20.3290 H   0  0  0  0  0  0  0  0  0  0  0  0
  -26.2780  -15.7610   19.8740 H   0  0  0  0  0  0  0  0  0  0  0  0
  -28.2650  -24.9050   20.6610 C   0  0  0  0  0  2  0  0  0  0  0  0
  -28.3720  -26.3820   20.2520 O   0  0  0  0  0  0  0  0  0  0  0  0
  -24.5880  -31.9340   23.2290 C   0  0  0  0  0  0  0  0  0  0  0  0
  -27.2540  -27.2740   20.2610 C   0  0  0  0  0  0  0  0  0  0  0  0
  -23.4150  -30.5210   21.5810 C   0  0  0  0  0  3  0  0  0  0  0  0
  -24.8910  -28.9450   20.1960 C   0  0  0  0  0  0  0  0  0  0  0  0
  -25.9640  -30.8220   21.4380 C   0  0  0  0  0  2  0  0  0  0  0  0
  -26.0600  -29.4290   20.8010 C   0  0  0  0  0  0  0  0  0  0  0  0
  -27.2450  -28.6120   20.8070 C   0  0  0  0  0  3  0  0  0  0  0  0
  -26.0530  -26.8600   19.6480 C   0  0  0  0  0  3  0  0  0  0  0  0
  -24.8970  -27.6710   19.6070 C   0  0  0  0  0  3  0  0  0  0  0  0
  -23.6570  -29.8300   20.2130 C   0  0  0  0  0  2  0  0  0  0  0  0
  -24.6750  -31.1140   22.1390 N   0  0  0  0  0  0  0  0  0  0  0  0
  -23.4950  -32.2140   23.7430 O   0  0  0  0  0  0  0  0  0  0  0  0
  -22.7310  -29.5180   22.5420 C   0  0  0  0  0  0  0  0  0  0  0  0
  -21.4040  -29.3510   22.4090 N   0  0  0  0  0  0  0  0  0  0  0  0
  -23.3970  -28.8880   23.3680 O   0  0  0  0  0  0  0  0  0  0  0  0
  -20.9220  -29.9110   21.7190 H   0  0  0  0  0  0  0  0  0  0  0  0
  -18.0130  -28.1810   22.9070 C   0  0  0  0  0  0  0  0  0  0  0  0
  -20.5740  -28.4180   23.1760 C   0  0  0  0  0  3  0  0  0  0  0  0
  -20.6620  -26.9880   22.5950 C   0  0  0  0  0  2  0  0  0  0  0  0
  -19.5570  -26.6780   21.5800 C   0  0  0  0  0  2  0  0  0  0  0  0
  -18.1770  -26.8330   22.2240 C   0  0  0  0  0  2  0  0  0  0  0  0
  -19.1380  -28.9310   23.3400 C   0  0  0  0  0  0  0  0  0  0  0  0
  -18.9300  -30.1930   23.9390 C   0  0  0  0  0  3  0  0  0  0  0  0
  -17.6290  -30.7030   24.1090 C   0  0  0  0  0  3  0  0  0  0  0  0
  -16.5180  -29.9500   23.6910 C   0  0  0  0  0  3  0  0  0  0  0  0
  -16.7120  -28.6900   23.0970 C   0  0  0  0  0  3  0  0  0  0  0  0
  -25.8550  -32.5780   23.8690 C   0  0  0  0  0  3  0  0  0  0  0  0
  -25.5350  -33.9780   24.1880 N   0  0  0  0  0  0  0  0  0  0  0  0
  -25.8720  -35.0310   23.4310 C   0  0  0  0  0  0  0  0  0  0  0  0
  -26.5510  -34.9250   22.4060 O   0  0  0  0  0  0  0  0  0  0  0  0
  -24.9320  -34.1330   24.9830 H   0  0  0  0  0  0  0  0  0  0  0  0
  -24.1520  -36.8270   23.0430 C   0  0  0  0  0  1  0  0  0  0  0  0
  -25.3770  -36.4200   23.8780 C   0  0  0  0  0  3  0  0  0  0  0  0
  -27.4900  -37.3120   24.7570 C   0  0  0  0  0  1  0  0  0  0  0  0
  -26.4120  -37.4730   23.7840 N   0  0  0  0  0  0  0  0  0  0  0  0
  -26.0020  -38.3940   23.9140 H   0  0  0  0  0  0  0  0  0  0  0  0
  -26.3520  -31.8190   25.1610 C   0  0  1  0  0  0  0  0  0  0  0  0
  -25.2420  -31.5830   26.2110 C   0  0  0  0  0  1  0  0  0  0  0  0
  -26.9480  -30.4410   24.7910 C   0  0  0  0  0  1  0  0  0  0  0  0
  -27.4880  -32.6230   25.8370 C   0  0  0  0  0  1  0  0  0  0  0  0
  1  4  1  0
  2  5  1  0
  2  1  1  0
  4  9  1  0
  4  3  1  0
  5  7  1  0
  5  6  1  0
  6  3  1  0
  6 51  1  0
  9  8  1  0
 10 22  1  0
 11 16  1  0
 12 13  1  0
 12 11  1  0
 14 13  1  0
 14 26  1  0
 14 15  1  0
 16 10  1  0
 16 15  1  0
 17 10  2  0
 18 20  1  0
 19 18  1  0
 19 21  1  0
 21 22  1  0
 21  9  1  0
 22 20  1  0
 23 24  2  0
 24 43  1  0
 25 24  1  0
 25 28  1  0
 26 23  1  0
 26 27  1  0
 27 25  2  0
 28 29  1  0
 29 30  2  0
 31 34  1  0
 31 30  1  0
 32 31  2  0
 33 32  1  0
 33 28  2  0
 34 35  1  0
 35 36  1  0
 36 37  2  0
 38 37  1  0
 38 42  1  0
 39 38  2  0
 40 35  2  0
 40 39  1  0
 41 40  1  0
 43 44  1  0
 44 47  1  0
 44 46  1  0
 45 43  2  0
 48 49  1  0
 48 23  1  0
 50 48  1  0
 52 54  1  0
 52 51  1  0
 53 64  2  0
 54 59  1  0
 55 63  1  0
 55 65  1  0
 56 62  1  0
 56 58  1  0
 57 63  1  0
 58 59  2  0
 58 57  1  0
 60 54  2  0
 61 60  1  0
 61 56  2  0
 62 55  1  0
 63 53  1  0
 65 67  2  0
 66 65  1  0
 68 66  1  0
 69 78  2  0
 69 74  1  0
 70 66  1  0
 70 74  1  0
 71 70  1  0
 72 73  1  0
 72 71  1  0
 73 69  1  0
 74 75  2  0
 75 76  1  0
 77 76  2  0
 78 77  1  0
 79 53  1  0
 79 80  1  0
 79 89  1  0
 80 83  1  0
 81 85  1  0
 81 80  1  0
 82 81  2  0
 85 84  1  0
 87 85  1  0
 87 88  1  0
 87 86  1  0
 89 92  1  1
 89 90  1  0
 91 89  1  0
M  ISO  4  10 100  22 100  51 101  52 101
M  END
>  <TORSDO>  (94) 
F 18

>  <SCORE>  (94) 
-15.459

>  <name>  (94) 
94

>  <ligand_id>  (94) 
94

>  <original_smiles>  (94) 
[H]c1c([H])c([H])c2c(c1[H])C([H])([H])C([H])([H])C([H])([H])C2([H])N([H])C(=O)C1([H])N(C(=O)C([H])(N([H])C(=O)C([H])(N([H])C([H])([H])[H])C([H])([H])[H])C(C([H])([H])[H])(C([H])([H])[H])C([H])([H])[H])C([H])([H])c2c([H])c(OC([H])([H])C3([H])C([H])([H])C([H])(C([H])(C([H])([H])[H])C4([H])N(C(=O)N5C([H])([H])C([H])([H])C([H])([H])C([H])(n6nc(-c7c([H])c([H])c(Oc8c([H])c([H])c(F)c([H])c8F)c([H])c7[H])c(C(=O)N([H])[H])c6N([H])[H])C5([H])[H])C([H])([H])C([H])([H])C4([H])[H])C([H])([H])C([H])([H])C3([H])C([H])([H])[H])c([H])c([H])c2C1([H])[H]

>  <smiles>  (94) 
[H]c1c([H])c([H])c2c(c1[H])C([H])([H])C([H])([H])C([H])([H])C2([H])N([H])C(=O)C1([H])N(C(=O)C([H])(N([H])C(=O)C([H])(N([H])C([H])([H])[H])C([H])([H])[H])C(C([H])([H])[H])(C([H])([H])[H])C([H])([H])[H])C([H])([H])c2c([H])c(OC([H])([H])C3([H])C([H])([H])C([H])(C([H])(C([H])([H])[H])C4([H])N(C(=O)N5C([H])([H])C([H])([H])C([H])([H])C([H])(n6nc(-c7c([H])c([H])c(Oc8c([H])c([H])c(F)c([H])c8F)c([H])c7[H])c(C(=O)N([H])[H])c6N([H])[H])C5([H])[H])C([H])([H])C([H])([H])C4([H])[H])C([H])([H])C([H])([H])C3([H])C([H])([H])[H])c([H])c([H])c2C1([H])[H]

$$$$
95:0:0
     RDKit          3D

 98107  0  0  1  0  0  0  0  0999 V2000
  -30.1630  -20.3060   20.7310 C   0  0  0  0  0  3  0  0  0  0  0  0
  -29.5950  -21.2260   19.7940 C   0  0  0  0  0  0  0  0  0  0  0  0
  -29.2120  -20.5020   18.6920 C   0  0  0  0  0  0  0  0  0  0  0  0
  -30.1440  -19.0740   20.1390 C   0  0  0  0  0  0  0  0  0  0  0  0
  -29.5670  -19.1650   18.8800 N   0  0  0  0  0  0  0  0  0  0  0  0
  -27.5040  -22.0690   17.4490 C   0  0  0  0  0  2  0  0  0  0  0  0
  -27.1020  -20.6430   17.1500 C   0  0  0  0  0  2  0  0  0  0  0  0
  -28.5480  -20.9750   17.4340 C   0  0  0  0  0  3  0  0  0  0  0  0
  -28.5280  -16.9210   18.5030 C   0  0  0  0  0  1  0  0  0  0  0  0
  -30.6920  -17.5850   17.3130 C   0  0  0  0  0  1  0  0  0  0  0  0
  -29.3630  -18.0720   17.9140 C   0  0  0  0  0  3  0  0  0  0  0  0
  -30.6590  -17.8930   20.6790 N   0  0  0  0  0  0  0  0  0  0  0  0
  -30.7750  -17.0690   20.0990 H   0  0  0  0  0  0  0  0  0  0  0  0
  -30.6910  -17.6560   22.1130 C   0  0  0  0  0  2  0  0  0  0  0  0
  -31.2550  -16.2600   22.4330 C   0  0  0  0  0  2  0  0  0  0  0  0
  -30.9530  -14.5160   20.6630 C   0  0  0  0  0  0  0  0  0  0  0  0
  -30.5470  -12.6110   19.1460 C   0  0  0  0  0  2  0  0  0  0  0  0
  -29.6010  -12.9970   17.9940 C   0  0  0  0  0  2  0  0  0  0  0  0
  -28.1300  -12.8190   18.4160 C   0  0  0  0  0  2  0  0  0  0  0  0
  -27.8190  -13.4920   19.7780 C   0  0  0  0  0  3  0  0  0  0  0  0
  -28.8690  -13.0990   20.8390 C   0  0  0  0  0  2  0  0  0  0  0  0
  -30.2080  -13.4340   20.3180 N   0  0  0  0  0  0  0  0  0  0  0  0
  -31.9730  -14.8560   20.0560 O   0  0  0  0  0  0  0  0  0  0  0  0
  -30.5330  -15.1850   21.7460 N   0  0  0  0  0  0  0  0  0  0  0  0
  -29.6860  -14.8510   22.1810 H   0  0  0  0  0  0  0  0  0  0  0  0
  -25.3850  -14.0400   20.4170 C   0  0  0  0  0  0  0  0  0  0  0  0
  -24.3300  -13.2430   20.7690 C   0  0  0  0  0  0  0  0  0  0  0  0
  -24.8280  -11.9040   20.7640 C   0  0  0  0  0  0  0  0  0  0  0  0
  -26.4600  -13.1870   20.2230 N   0  0  0  0  0  0  0  0  0  0  0  0
  -26.1260  -11.8960   20.4870 N   0  0  0  0  0  0  0  0  0  0  0  0
  -24.1320  -10.6240   20.9520 C   0  0  0  0  0  0  0  0  0  0  0  0
  -24.5110   -9.7190   21.9680 C   0  0  0  0  0  3  0  0  0  0  0  0
  -23.8150   -8.5030   22.1390 C   0  0  0  0  0  3  0  0  0  0  0  0
  -22.7260   -8.1830   21.2930 C   0  0  0  0  0  0  0  0  0  0  0  0
  -22.3670   -9.0770   20.2700 C   0  0  0  0  0  3  0  0  0  0  0  0
  -23.0650  -10.2840   20.0970 C   0  0  0  0  0  3  0  0  0  0  0  0
  -22.0090   -7.0140   21.3690 O   0  0  0  0  0  0  0  0  0  0  0  0
  -21.8100   -6.3680   22.5630 C   0  0  0  0  0  0  0  0  0  0  0  0
  -21.1430   -6.9850   23.6430 C   0  0  0  0  0  3  0  0  0  0  0  0
  -20.8990   -6.2600   24.8270 C   0  0  0  0  0  3  0  0  0  0  0  0
  -21.3120   -4.9190   24.9300 C   0  0  0  0  0  0  0  0  0  0  0  0
  -21.9720   -4.3000   23.8520 C   0  0  0  0  0  3  0  0  0  0  0  0
  -22.2170   -5.0220   22.6720 C   0  0  0  0  0  0  0  0  0  0  0  0
  -22.8340   -4.4150   21.6290 F   0  0  0  0  0  0  0  0  0  0  0  0
  -21.0710   -4.2190   26.0630 F   0  0  0  0  0  0  0  0  0  0  0  0
  -22.9140  -13.6840   21.0050 C   0  0  0  0  0  0  0  0  0  0  0  0
  -22.1860  -12.9770   21.8640 N   0  0  0  0  0  0  0  0  0  0  0  0
  -22.4590  -14.6910   20.4640 O   0  0  0  0  0  0  0  0  0  0  0  0
  -22.5670  -12.1630   22.3240 H   0  0  0  0  0  0  0  0  0  0  0  0
  -21.2360  -13.2550   22.0640 H   0  0  0  0  0  0  0  0  0  0  0  0
  -25.5180  -15.4130   20.2300 N   0  0  0  0  0  0  0  0  0  0  0  0
  -24.7340  -16.0510   20.3170 H   0  0  0  0  0  0  0  0  0  0  0  0
  -26.3720  -15.8720   19.9400 H   0  0  0  0  0  0  0  0  0  0  0  0
  -29.4430  -22.5930   19.9140 O   0  0  0  0  0  0  0  0  0  0  0  0
  -29.8480  -23.1920   21.1400 C   0  0  0  0  0  2  0  0  0  0  0  0
  -29.8450  -24.7320   21.0300 C   0  0  0  0  0  2  0  0  0  0  0  0
  -28.4910  -25.3480   20.6410 C   0  0  0  0  0  2  0  0  0  0  0  0
  -28.5570  -26.7770   20.7260 O   0  0  0  0  0  0  0  0  0  0  0  0
  -24.5950  -32.0220   23.4470 C   0  0  0  0  0  0  0  0  0  0  0  0
  -27.3710  -27.4780   20.6410 C   0  0  0  0  0  0  0  0  0  0  0  0
  -23.4580  -30.5580   21.8110 C   0  0  0  0  0  3  0  0  0  0  0  0
  -24.9690  -28.9720   20.5050 C   0  0  0  0  0  0  0  0  0  0  0  0
  -25.9890  -30.9160   21.7020 C   0  0  0  0  0  2  0  0  0  0  0  0
  -26.1030  -29.5230   21.1150 C   0  0  0  0  0  0  0  0  0  0  0  0
  -27.3060  -28.7850   21.1750 C   0  0  0  0  0  3  0  0  0  0  0  0
  -26.2140  -26.9390   20.0280 C   0  0  0  0  0  3  0  0  0  0  0  0
  -25.0200  -27.6780   19.9600 C   0  0  0  0  0  3  0  0  0  0  0  0
  -23.7230  -29.8270   20.4680 C   0  0  0  0  0  2  0  0  0  0  0  0
  -24.6960  -31.1820   22.3780 N   0  0  0  0  0  0  0  0  0  0  0  0
  -23.4930  -32.3110   23.9320 O   0  0  0  0  0  0  0  0  0  0  0  0
  -22.7700  -29.5710   22.7810 C   0  0  0  0  0  0  0  0  0  0  0  0
  -21.4640  -29.3380   22.5700 N   0  0  0  0  0  0  0  0  0  0  0  0
  -23.4110  -29.0150   23.6760 O   0  0  0  0  0  0  0  0  0  0  0  0
  -21.0090  -29.8390   21.8190 H   0  0  0  0  0  0  0  0  0  0  0  0
  -18.1010  -28.0550   22.8840 C   0  0  0  0  0  0  0  0  0  0  0  0
  -20.6200  -28.4200   23.3340 C   0  0  0  0  0  3  0  0  0  0  0  0
  -20.8120  -26.9620   22.8560 C   0  0  0  0  0  2  0  0  0  0  0  0
  -19.8030  -26.5400   21.7840 C   0  0  0  0  0  2  0  0  0  0  0  0
  -18.3720  -26.6740   22.3110 C   0  0  0  0  0  2  0  0  0  0  0  0
  -19.1590  -28.8800   23.3510 C   0  0  0  0  0  0  0  0  0  0  0  0
  -18.8570  -30.1690   23.8410 C   0  0  0  0  0  3  0  0  0  0  0  0
  -17.5280  -30.6340   23.8740 C   0  0  0  0  0  3  0  0  0  0  0  0
  -16.4830  -29.8060   23.4280 C   0  0  0  0  0  3  0  0  0  0  0  0
  -16.7700  -28.5200   22.9380 C   0  0  0  0  0  3  0  0  0  0  0  0
  -25.8550  -32.6780   24.0950 C   0  0  0  0  0  3  0  0  0  0  0  0
  -26.3200  -31.9570   25.4190 C   0  0  1  0  0  0  0  0  0  0  0  0
  -25.1790  -31.7240   26.4360 C   0  0  0  0  0  1  0  0  0  0  0  0
  -26.9530  -30.5820   25.0970 C   0  0  0  0  0  1  0  0  0  0  0  0
  -27.4180  -32.7960   26.1150 C   0  0  0  0  0  1  0  0  0  0  0  0
  -25.5340  -34.0870   24.3560 N   0  0  0  0  0  0  0  0  0  0  0  0
  -25.8820  -35.1070   23.5590 C   0  0  0  0  0  0  0  0  0  0  0  0
  -26.5790  -34.9610   22.5500 O   0  0  0  0  0  0  0  0  0  0  0  0
  -24.9200  -34.2750   25.1360 H   0  0  0  0  0  0  0  0  0  0  0  0
  -24.1480  -36.8650   23.0910 C   0  0  0  0  0  1  0  0  0  0  0  0
  -25.3790  -36.5110   23.9410 C   0  0  0  0  0  3  0  0  0  0  0  0
  -27.4870  -37.4570   24.7690 C   0  0  0  0  0  1  0  0  0  0  0  0
  -26.4060  -37.5650   23.7930 N   0  0  0  0  0  0  0  0  0  0  0  0
  -25.9910  -38.4890   23.8810 H   0  0  0  0  0  0  0  0  0  0  0  0
  2 54  1  0
  2  1  1  0
  3  5  1  0
  3  2  2  0
  4 12  1  0
  4  1  2  0
  5  4  1  0
  7  8  1  0
  7  6  1  0
  8  6  1  0
  8  3  1  0
 10 11  1  0
 11  9  1  0
 11  5  1  0
 12 14  1  0
 13 12  1  0
 14 15  1  0
 16 24  1  0
 17 22  1  0
 18 19  1  0
 18 17  1  0
 20 19  1  0
 20 29  1  0
 20 21  1  0
 22 16  1  0
 22 21  1  0
 23 16  2  0
 24 25  1  0
 24 15  1  0
 26 27  2  0
 27 46  1  0
 28 27  1  0
 28 31  1  0
 29 26  1  0
 29 30  1  0
 30 28  2  0
 31 32  1  0
 32 33  2  0
 34 37  1  0
 34 33  1  0
 35 34  2  0
 36 35  1  0
 36 31  2  0
 37 38  1  0
 38 43  2  0
 38 39  1  0
 39 40  2  0
 40 41  1  0
 41 45  1  0
 42 41  2  0
 43 42  1  0
 44 43  1  0
 46 47  1  0
 47 50  1  0
 47 49  1  0
 48 46  2  0
 51 52  1  0
 51 26  1  0
 53 51  1  0
 54 55  1  0
 56 55  1  0
 57 58  1  0
 57 56  1  0
 59 70  2  0
 60 58  1  0
 60 65  1  0
 61 69  1  0
 61 71  1  0
 62 64  1  0
 63 69  1  0
 64 65  2  0
 64 63  1  0
 66 60  2  0
 67 66  1  0
 67 62  2  0
 68 62  1  0
 68 61  1  0
 69 59  1  0
 71 73  2  0
 72 71  1  0
 74 72  1  0
 75 84  2  0
 75 80  1  0
 76 72  1  0
 76 80  1  0
 77 76  1  0
 78 79  1  0
 78 77  1  0
 79 75  1  0
 80 81  2  0
 81 82  1  0
 83 82  2  0
 84 83  1  0
 85 59  1  0
 85 90  1  0
 85 86  1  0
 86 89  1  1
 86 87  1  0
 88 86  1  0
 90 93  1  0
 91 95  1  0
 91 90  1  0
 92 91  2  0
 95 94  1  0
 97 98  1  0
 97 95  1  0
 97 96  1  0
M  ISO  4  16 100  24 100  57 101  58 101
M  END
>  <TORSDO>  (95) 
F 25

>  <SCORE>  (95) 
-11.001

>  <name>  (95) 
95

>  <ligand_id>  (95) 
95

>  <original_smiles>  (95) 
[H]c1c([H])c([H])c2c(c1[H])C([H])([H])C([H])([H])C([H])([H])C2([H])N([H])C(=O)C1([H])N(C(=O)C([H])(N([H])C(=O)C([H])(N([H])C([H])([H])[H])C([H])([H])[H])C(C([H])([H])[H])(C([H])([H])[H])C([H])([H])[H])C([H])([H])c2c([H])c(OC([H])([H])C([H])([H])C([H])([H])Oc3c([H])c(N([H])C([H])([H])C([H])([H])N([H])C(=O)N4C([H])([H])C([H])([H])C([H])([H])C([H])(n5nc(-c6c([H])c([H])c(Oc7c([H])c([H])c(F)c([H])c7F)c([H])c6[H])c(C(=O)N([H])[H])c5N([H])[H])C4([H])[H])n(C([H])(C([H])([H])[H])C([H])([H])[H])c3C3([H])C([H])([H])C3([H])[H])c([H])c([H])c2C1([H])[H]

>  <smiles>  (95) 
[H]c1c([H])c([H])c2c(c1[H])C([H])([H])C([H])([H])C([H])([H])C2([H])N([H])C(=O)C1([H])N(C(=O)C([H])(N([H])C(=O)C([H])(N([H])C([H])([H])[H])C([H])([H])[H])C(C([H])([H])[H])(C([H])([H])[H])C([H])([H])[H])C([H])([H])c2c([H])c(OC([H])([H])C([H])([H])C([H])([H])Oc3c([H])c(N([H])C([H])([H])C([H])([H])N([H])C(=O)N4C([H])([H])C([H])([H])C([H])([H])C([H])(n5nc(-c6c([H])c([H])c(Oc7c([H])c([H])c(F)c([H])c7F)c([H])c6[H])c(C(=O)N([H])[H])c5N([H])[H])C4([H])[H])n(C([H])(C([H])([H])[H])C([H])([H])[H])c3C3([H])C([H])([H])C3([H])[H])c([H])c([H])c2C1([H])[H]

$$$$
96:0:0
     RDKit          3D

 97105  0  0  1  0  0  0  0  0999 V2000
  -30.7350  -19.6890   22.1270 C   0  0  0  0  0  3  0  0  0  0  0  0
  -29.1070  -19.0080   20.4680 C   0  0  0  0  0  3  0  0  0  0  0  0
  -29.1480  -21.3420   21.2280 C   0  0  0  0  0  0  0  0  0  0  0  0
  -30.2080  -20.9960   22.1240 C   0  0  0  0  0  0  0  0  0  0  0  0
  -28.5700  -20.3170   20.4140 C   0  0  0  0  0  0  0  0  0  0  0  0
  -30.1940  -18.6860   21.2950 C   0  0  0  0  0  0  0  0  0  0  0  0
  -30.8020  -21.9680   23.1410 C   0  0  0  0  0  1  0  0  0  0  0  0
  -26.7690  -19.5070   18.8920 C   0  0  0  0  0  1  0  0  0  0  0  0
  -27.4970  -20.5910   19.5410 N   0  0  0  0  0  0  0  0  0  0  0  0
  -26.9620  -21.4380   19.7320 H   0  0  0  0  0  0  0  0  0  0  0  0
  -28.6510  -22.7580   21.1310 C   0  0  0  0  0  0  0  0  0  0  0  0
  -27.4780  -23.0500   21.3890 O   0  0  0  0  0  0  0  0  0  0  0  0
  -29.6170  -23.7770   20.6700 C   0  0  0  0  0  3  0  0  0  0  0  0
  -29.2340  -25.0390   20.3970 C   0  0  0  0  0  3  0  0  0  0  0  0
  -30.1730  -26.1440   19.9590 C   0  0  0  0  0  2  0  0  0  0  0  0
  -29.7940  -27.3980   20.5260 O   0  0  0  0  0  0  0  0  0  0  0  0
  -24.7310  -31.5050   23.3460 C   0  0  0  0  0  0  0  0  0  0  0  0
  -28.4880  -27.8330   20.4140 C   0  0  0  0  0  0  0  0  0  0  0  0
  -23.9960  -30.0190   21.5120 C   0  0  0  0  0  3  0  0  0  0  0  0
  -25.8580  -28.8630   20.2140 C   0  0  0  0  0  0  0  0  0  0  0  0
  -26.4150  -30.8410   21.6350 C   0  0  0  0  0  2  0  0  0  0  0  0
  -26.8250  -29.5530   20.9530 C   0  0  0  0  0  0  0  0  0  0  0  0
  -28.1390  -29.0460   21.0500 C   0  0  0  0  0  3  0  0  0  0  0  0
  -27.4910  -27.1380   19.6870 C   0  0  0  0  0  3  0  0  0  0  0  0
  -26.1860  -27.6510   19.5820 C   0  0  0  0  0  3  0  0  0  0  0  0
  -24.4790  -29.4750   20.1410 C   0  0  0  0  0  2  0  0  0  0  0  0
  -25.0560  -30.8010   22.2250 N   0  0  0  0  0  0  0  0  0  0  0  0
  -23.5640  -31.5450   23.7620 O   0  0  0  0  0  0  0  0  0  0  0  0
  -23.4450  -28.8370   22.3410 C   0  0  0  0  0  0  0  0  0  0  0  0
  -22.1910  -28.4470   22.0630 N   0  0  0  0  0  0  0  0  0  0  0  0
  -24.1460  -28.2760   23.1880 O   0  0  0  0  0  0  0  0  0  0  0  0
  -21.6810  -28.9630   21.3600 H   0  0  0  0  0  0  0  0  0  0  0  0
  -19.0280  -26.7040   22.1460 C   0  0  0  0  0  0  0  0  0  0  0  0
  -21.4750  -27.3350   22.6900 C   0  0  0  0  0  3  0  0  0  0  0  0
  -21.8620  -25.9890   22.0370 C   0  0  0  0  0  2  0  0  0  0  0  0
  -20.9220  -25.5780   20.8990 C   0  0  0  0  0  2  0  0  0  0  0  0
  -19.4820  -25.4550   21.4090 C   0  0  0  0  0  2  0  0  0  0  0  0
  -19.9650  -27.5950   22.7330 C   0  0  0  0  0  0  0  0  0  0  0  0
  -19.4930  -28.7610   23.3750 C   0  0  0  0  0  3  0  0  0  0  0  0
  -18.1140  -29.0380   23.4400 C   0  0  0  0  0  3  0  0  0  0  0  0
  -17.1900  -28.1440   22.8740 C   0  0  0  0  0  3  0  0  0  0  0  0
  -17.6470  -26.9790   22.2320 C   0  0  0  0  0  3  0  0  0  0  0  0
  -25.8010  -32.3130   24.1440 C   0  0  0  0  0  3  0  0  0  0  0  0
  -25.2990  -33.6850   24.2900 N   0  0  0  0  0  0  0  0  0  0  0  0
  -25.6640  -34.7150   23.5160 C   0  0  0  0  0  0  0  0  0  0  0  0
  -26.5230  -34.6200   22.6340 O   0  0  0  0  0  0  0  0  0  0  0  0
  -24.5490  -33.8240   24.9510 H   0  0  0  0  0  0  0  0  0  0  0  0
  -23.8480  -36.2600   22.7140 C   0  0  0  0  0  1  0  0  0  0  0  0
  -24.9630  -36.0650   23.7550 C   0  0  0  0  0  3  0  0  0  0  0  0
  -26.8230  -37.2420   24.8390 C   0  0  0  0  0  1  0  0  0  0  0  0
  -25.8840  -37.2210   23.7220 N   0  0  0  0  0  0  0  0  0  0  0  0
  -25.3660  -38.0960   23.7270 H   0  0  0  0  0  0  0  0  0  0  0  0
  -26.1330  -31.6860   25.5540 C   0  0  1  0  0  0  0  0  0  0  0  0
  -24.8820  -31.4010   26.4160 C   0  0  0  0  0  1  0  0  0  0  0  0
  -26.9060  -30.3560   25.3870 C   0  0  0  0  0  1  0  0  0  0  0  0
  -27.0560  -32.6390   26.3490 C   0  0  0  0  0  1  0  0  0  0  0  0
  -30.6470  -17.3870   21.2440 O   0  0  0  0  0  0  0  0  0  0  0  0
  -32.0510  -17.1630   21.2090 C   0  0  0  0  0  2  0  0  0  0  0  0
  -32.3060  -15.6860   21.5290 C   0  0  0  0  0  2  0  0  0  0  0  0
  -31.3150  -14.2620   19.7390 C   0  0  0  0  0  0  0  0  0  0  0  0
  -30.7260  -12.1460   18.6240 C   0  0  0  0  0  2  0  0  0  0  0  0
  -29.6950  -12.2780   17.4930 C   0  0  0  0  0  2  0  0  0  0  0  0
  -28.2650  -12.2230   18.0550 C   0  0  0  0  0  2  0  0  0  0  0  0
  -28.0560  -13.2100   19.2310 C   0  0  0  0  0  3  0  0  0  0  0  0
  -29.1750  -13.0610   20.2830 C   0  0  0  0  0  2  0  0  0  0  0  0
  -30.4850  -13.2010   19.6170 N   0  0  0  0  0  0  0  0  0  0  0  0
  -32.1780  -14.5670   18.9110 O   0  0  0  0  0  0  0  0  0  0  0  0
  -31.2910  -14.8060   20.9580 N   0  0  0  0  0  0  0  0  0  0  0  0
  -30.5830  -14.4570   21.5880 H   0  0  0  0  0  0  0  0  0  0  0  0
  -25.8040  -14.0150   20.1860 C   0  0  0  0  0  0  0  0  0  0  0  0
  -24.7020  -13.3330   20.6310 C   0  0  0  0  0  0  0  0  0  0  0  0
  -25.0230  -11.9460   20.5100 C   0  0  0  0  0  0  0  0  0  0  0  0
  -26.7310  -13.0490   19.8280 N   0  0  0  0  0  0  0  0  0  0  0  0
  -26.2670  -11.7970   20.0780 N   0  0  0  0  0  0  0  0  0  0  0  0
  -24.1970  -10.7510   20.7290 C   0  0  0  0  0  0  0  0  0  0  0  0
  -24.5820   -9.7450   21.6420 C   0  0  0  0  0  3  0  0  0  0  0  0
  -23.7630   -8.6140   21.8480 C   0  0  0  0  0  3  0  0  0  0  0  0
  -22.5460   -8.4820   21.1410 C   0  0  0  0  0  0  0  0  0  0  0  0
  -22.1770   -9.4750   20.2160 C   0  0  0  0  0  3  0  0  0  0  0  0
  -22.9960  -10.5970   20.0080 C   0  0  0  0  0  3  0  0  0  0  0  0
  -21.6980   -7.4050   21.2560 O   0  0  0  0  0  0  0  0  0  0  0  0
  -21.5700   -6.7150   22.4350 C   0  0  0  0  0  0  0  0  0  0  0  0
  -21.1790   -7.3510   23.6330 C   0  0  0  0  0  3  0  0  0  0  0  0
  -20.9910   -6.5910   24.8040 C   0  0  0  0  0  3  0  0  0  0  0  0
  -21.1830   -5.1970   24.7790 C   0  0  0  0  0  0  0  0  0  0  0  0
  -21.5650   -4.5610   23.5860 C   0  0  0  0  0  3  0  0  0  0  0  0
  -21.7560   -5.3180   22.4160 C   0  0  0  0  0  0  0  0  0  0  0  0
  -22.1050   -4.6960   21.2630 F   0  0  0  0  0  0  0  0  0  0  0  0
  -20.9950   -4.4650   25.9020 F   0  0  0  0  0  0  0  0  0  0  0  0
  -23.3910  -13.9290   21.0550 C   0  0  0  0  0  0  0  0  0  0  0  0
  -22.6920  -13.2780   21.9800 N   0  0  0  0  0  0  0  0  0  0  0  0
  -22.9980  -15.0030   20.6020 O   0  0  0  0  0  0  0  0  0  0  0  0
  -23.0220  -12.4080   22.3690 H   0  0  0  0  0  0  0  0  0  0  0  0
  -21.8150  -13.6580   22.3060 H   0  0  0  0  0  0  0  0  0  0  0  0
  -26.0850  -15.3710   20.0380 N   0  0  0  0  0  0  0  0  0  0  0  0
  -25.4020  -16.0940   20.2350 H   0  0  0  0  0  0  0  0  0  0  0  0
  -26.9510  -15.7350   19.6610 H   0  0  0  0  0  0  0  0  0  0  0  0
  2  6  1  0
  3  4  2  0
  4  1  1  0
  4  7  1  0
  5  2  2  0
  5  3  1  0
  6  1  2  0
  8  9  1  0
  9 10  1  0
  9  5  1  0
 11  3  1  0
 11 12  2  0
 13 11  1  0
 14 13  2  0
 15 14  1  0
 15 16  1  0
 17 28  2  0
 18 16  1  0
 18 23  1  0
 19 27  1  0
 19 29  1  0
 20 22  1  0
 21 27  1  0
 22 23  2  0
 22 21  1  0
 24 18  2  0
 25 24  1  0
 25 20  2  0
 26 20  1  0
 26 19  1  0
 27 17  1  0
 29 31  2  0
 30 29  1  0
 32 30  1  0
 33 42  2  0
 33 38  1  0
 34 30  1  0
 34 38  1  0
 35 34  1  0
 36 37  1  0
 36 35  1  0
 37 33  1  0
 38 39  2  0
 39 40  1  0
 41 40  2  0
 42 41  1  0
 43 17  1  0
 43 44  1  0
 43 53  1  0
 44 47  1  0
 45 49  1  0
 45 44  1  0
 46 45  2  0
 49 48  1  0
 51 52  1  0
 51 49  1  0
 51 50  1  0
 53 56  1  1
 53 54  1  0
 55 53  1  0
 57  6  1  0
 58 57  1  0
 58 59  1  0
 60 68  1  0
 61 66  1  0
 62 63  1  0
 62 61  1  0
 64 63  1  0
 64 73  1  0
 64 65  1  0
 66 60  1  0
 66 65  1  0
 67 60  2  0
 68 59  1  0
 68 69  1  0
 70 71  2  0
 71 90  1  0
 72 71  1  0
 72 75  1  0
 73 74  1  0
 73 70  1  0
 74 72  2  0
 75 76  1  0
 76 77  2  0
 78 81  1  0
 78 77  1  0
 79 78  2  0
 80 79  1  0
 80 75  2  0
 81 82  1  0
 82 83  1  0
 83 84  2  0
 85 84  1  0
 85 89  1  0
 86 85  2  0
 87 82  2  0
 87 86  1  0
 88 87  1  0
 90 91  1  0
 91 94  1  0
 91 93  1  0
 92 90  2  0
 95 70  1  0
 95 96  1  0
 97 95  1  0
M  ISO  4  15 101  16 101  60 100  68 100
M  END
>  <TORSDO>  (96) 
F 23

>  <SCORE>  (96) 
-9.724

>  <name>  (96) 
96

>  <ligand_id>  (96) 
96

>  <original_smiles>  (96) 
[H]C(C(=O)c1c(N([H])C([H])([H])[H])c([H])c(OC([H])([H])C([H])([H])N([H])C(=O)N2C([H])([H])C([H])([H])C([H])([H])C([H])(n3nc(-c4c([H])c([H])c(Oc5c([H])c([H])c(F)c([H])c5F)c([H])c4[H])c(C(=O)N([H])[H])c3N([H])[H])C2([H])[H])c([H])c1C([H])([H])[H])=C([H])C([H])([H])Oc1c([H])c([H])c2c(c1[H])C([H])([H])N(C(=O)C([H])(N([H])C(=O)C([H])(N([H])C([H])([H])[H])C([H])([H])[H])C(C([H])([H])[H])(C([H])([H])[H])C([H])([H])[H])C([H])(C(=O)N([H])C1([H])c3c([H])c([H])c([H])c([H])c3C([H])([H])C([H])([H])C1([H])[H])C2([H])[H]

>  <smiles>  (96) 
[H]C(C(=O)c1c(N([H])C([H])([H])[H])c([H])c(OC([H])([H])C([H])([H])N([H])C(=O)N2C([H])([H])C([H])([H])C([H])([H])C([H])(n3nc(-c4c([H])c([H])c(Oc5c([H])c([H])c(F)c([H])c5F)c([H])c4[H])c(C(=O)N([H])[H])c3N([H])[H])C2([H])[H])c([H])c1C([H])([H])[H])=C([H])C([H])([H])Oc1c([H])c([H])c2c(c1[H])C([H])([H])N(C(=O)C([H])(N([H])C(=O)C([H])(N([H])C([H])([H])[H])C([H])([H])[H])C(C([H])([H])[H])(C([H])([H])[H])C([H])([H])[H])C([H])(C(=O)N([H])C1([H])c3c([H])c([H])c([H])c([H])c3C([H])([H])C([H])([H])C1([H])[H])C2([H])[H]

$$$$
97:0:0
     RDKit          3D

 95104  0  0  1  0  0  0  0  0999 V2000
  -29.5250  -22.4320   20.0880 C   0  0  0  0  0  3  0  0  0  0  0  0
  -28.5220  -23.5210   20.1010 C   0  0  0  0  0  0  0  0  0  0  0  0
  -27.4770  -22.9690   19.3980 C   0  0  0  0  0  0  0  0  0  0  0  0
  -29.0860  -21.3190   19.3560 C   0  0  0  0  0  0  0  0  0  0  0  0
  -26.1090  -23.5630   19.2030 C   0  0  0  0  0  1  0  0  0  0  0  0
  -27.8120  -21.6910   18.8920 N   0  0  0  0  0  0  0  0  0  0  0  0
  -26.2050  -19.7960   18.9350 C   0  0  0  0  0  1  0  0  0  0  0  0
  -27.3960  -20.3450   16.7550 C   0  0  0  0  0  1  0  0  0  0  0  0
  -26.8620  -20.8940   18.0890 C   0  0  0  0  0  3  0  0  0  0  0  0
  -29.7460  -20.0720   18.9160 N   0  0  0  0  0  0  0  0  0  0  0  0
  -29.1060  -19.5750   18.3050 H   0  0  0  0  0  0  0  0  0  0  0  0
  -30.7120  -19.0700   19.5600 C   0  0  0  0  0  2  0  0  0  0  0  0
  -31.5580  -15.0820   19.7520 C   0  0  0  0  0  0  0  0  0  0  0  0
  -31.2550  -12.6870   19.0030 C   0  0  0  0  0  2  0  0  0  0  0  0
  -30.2900  -12.6020   17.7980 C   0  0  0  0  0  2  0  0  0  0  0  0
  -28.8300  -12.5080   18.2790 C   0  0  0  0  0  2  0  0  0  0  0  0
  -28.5030  -13.5540   19.3770 C   0  0  0  0  0  3  0  0  0  0  0  0
  -29.5870  -13.5870   20.4780 C   0  0  0  0  0  2  0  0  0  0  0  0
  -30.8760  -13.8690   19.8300 N   0  0  0  0  0  0  0  0  0  0  0  0
  -32.6640  -15.0920   19.2010 O   0  0  0  0  0  0  0  0  0  0  0  0
  -29.6200  -17.3130   21.8940 C   0  0  0  0  0  2  0  0  0  0  0  0
  -29.0160  -17.4400   20.5020 C   0  0  0  0  0  2  0  0  0  0  0  0
  -30.9090  -16.5100   21.6740 C   0  0  0  0  0  2  0  0  0  0  0  0
  -30.2300  -17.4740   19.5790 C   0  0  0  0  0  3  0  0  0  0  0  0
  -31.0010  -16.2910   20.2300 N   0  0  0  0  0  0  0  0  0  0  0  0
  -26.1910  -14.2970   20.2180 C   0  0  0  0  0  0  0  0  0  0  0  0
  -25.1010  -13.6030   20.6550 C   0  0  0  0  0  0  0  0  0  0  0  0
  -25.4590  -12.2220   20.5750 C   0  0  0  0  0  0  0  0  0  0  0  0
  -27.1640  -13.3550   19.9290 N   0  0  0  0  0  0  0  0  0  0  0  0
  -26.7270  -12.0960   20.1990 N   0  0  0  0  0  0  0  0  0  0  0  0
  -24.6400  -11.0210   20.7720 C   0  0  0  0  0  0  0  0  0  0  0  0
  -25.0010  -10.0240   21.7050 C   0  0  0  0  0  3  0  0  0  0  0  0
  -24.1810   -8.8900   21.8910 C   0  0  0  0  0  3  0  0  0  0  0  0
  -22.9860   -8.7460   21.1450 C   0  0  0  0  0  0  0  0  0  0  0  0
  -22.6450   -9.7300   20.1990 C   0  0  0  0  0  3  0  0  0  0  0  0
  -23.4650  -10.8550   20.0110 C   0  0  0  0  0  3  0  0  0  0  0  0
  -22.1410   -7.6670   21.2450 O   0  0  0  0  0  0  0  0  0  0  0  0
  -21.9790   -6.9880   22.4250 C   0  0  0  0  0  0  0  0  0  0  0  0
  -21.5680   -7.6360   23.6120 C   0  0  0  0  0  3  0  0  0  0  0  0
  -21.3480   -6.8860   24.7830 C   0  0  0  0  0  3  0  0  0  0  0  0
  -21.5300   -5.4890   24.7720 C   0  0  0  0  0  0  0  0  0  0  0  0
  -21.9360   -4.8430   23.5910 C   0  0  0  0  0  3  0  0  0  0  0  0
  -22.1580   -5.5900   22.4210 C   0  0  0  0  0  0  0  0  0  0  0  0
  -22.5270   -4.9570   21.2820 F   0  0  0  0  0  0  0  0  0  0  0  0
  -21.3100   -4.7690   25.8960 F   0  0  0  0  0  0  0  0  0  0  0  0
  -23.7680  -14.1880   21.0130 C   0  0  0  0  0  0  0  0  0  0  0  0
  -23.0400  -13.5550   21.9260 N   0  0  0  0  0  0  0  0  0  0  0  0
  -23.3830  -15.2510   20.5220 O   0  0  0  0  0  0  0  0  0  0  0  0
  -23.3600  -12.6970   22.3500 H   0  0  0  0  0  0  0  0  0  0  0  0
  -22.1460  -13.9350   22.2050 H   0  0  0  0  0  0  0  0  0  0  0  0
  -26.4010  -15.6540   20.0140 N   0  0  0  0  0  0  0  0  0  0  0  0
  -25.6500  -16.3190   20.1610 H   0  0  0  0  0  0  0  0  0  0  0  0
  -27.2140  -16.0600   19.5720 H   0  0  0  0  0  0  0  0  0  0  0  0
  -28.4440  -24.9300   20.9030 C   0  0  0  0  0  2  0  0  0  0  0  0
  -28.4120  -26.3200   20.3040 O   0  0  0  0  0  0  0  0  0  0  0  0
  -24.5890  -31.8200   23.2770 C   0  0  0  0  0  0  0  0  0  0  0  0
  -27.3000  -27.1980   20.3540 C   0  0  0  0  0  0  0  0  0  0  0  0
  -23.4440  -30.4210   21.5920 C   0  0  0  0  0  3  0  0  0  0  0  0
  -24.9500  -28.8580   20.2270 C   0  0  0  0  0  0  0  0  0  0  0  0
  -25.9940  -30.7260   21.5050 C   0  0  0  0  0  2  0  0  0  0  0  0
  -26.0990  -29.3370   20.8740 C   0  0  0  0  0  0  0  0  0  0  0  0
  -27.2810  -28.5230   20.9210 C   0  0  0  0  0  3  0  0  0  0  0  0
  -26.1370  -26.7960   19.6680 C   0  0  0  0  0  3  0  0  0  0  0  0
  -24.9760  -27.5960   19.6110 C   0  0  0  0  0  3  0  0  0  0  0  0
  -23.7130  -29.7380   20.2230 C   0  0  0  0  0  2  0  0  0  0  0  0
  -24.6920  -31.0090   22.1810 N   0  0  0  0  0  0  0  0  0  0  0  0
  -23.4880  -32.0970   23.7740 O   0  0  0  0  0  0  0  0  0  0  0  0
  -22.7450  -29.4070   22.5310 C   0  0  0  0  0  0  0  0  0  0  0  0
  -21.4170  -29.2560   22.3850 N   0  0  0  0  0  0  0  0  0  0  0  0
  -23.4010  -28.7560   23.3490 O   0  0  0  0  0  0  0  0  0  0  0  0
  -20.9470  -29.8350   21.7030 H   0  0  0  0  0  0  0  0  0  0  0  0
  -18.0040  -28.1580   22.8790 C   0  0  0  0  0  0  0  0  0  0  0  0
  -20.5730  -28.3220   23.1340 C   0  0  0  0  0  3  0  0  0  0  0  0
  -20.6200  -26.9060   22.5120 C   0  0  0  0  0  2  0  0  0  0  0  0
  -19.4990  -26.6550   21.4980 C   0  0  0  0  0  2  0  0  0  0  0  0
  -18.1280  -26.8270   22.1570 C   0  0  0  0  0  2  0  0  0  0  0  0
  -19.1520  -28.8670   23.3240 C   0  0  0  0  0  0  0  0  0  0  0  0
  -18.9790  -30.1170   23.9580 C   0  0  0  0  0  3  0  0  0  0  0  0
  -17.6940  -30.6540   24.1550 C   0  0  0  0  0  3  0  0  0  0  0  0
  -16.5610  -29.9410   23.7240 C   0  0  0  0  0  3  0  0  0  0  0  0
  -16.7180  -28.6950   23.0920 C   0  0  0  0  0  3  0  0  0  0  0  0
  -25.8470  -32.4550   23.9450 C   0  0  0  0  0  3  0  0  0  0  0  0
  -26.3020  -31.7040   25.2560 C   0  0  1  0  0  0  0  0  0  0  0  0
  -25.1540  -31.4710   26.2670 C   0  0  0  0  0  1  0  0  0  0  0  0
  -26.9140  -30.3240   24.9160 C   0  0  0  0  0  1  0  0  0  0  0  0
  -27.4080  -32.5170   25.9670 C   0  0  0  0  0  1  0  0  0  0  0  0
  -25.5340  -33.8600   24.2400 N   0  0  0  0  0  0  0  0  0  0  0  0
  -25.8850  -34.9000   23.4710 C   0  0  0  0  0  0  0  0  0  0  0  0
  -26.5790  -34.7770   22.4580 O   0  0  0  0  0  0  0  0  0  0  0  0
  -24.9210  -34.0330   25.0230 H   0  0  0  0  0  0  0  0  0  0  0  0
  -24.1650  -36.6900   23.0570 C   0  0  0  0  0  1  0  0  0  0  0  0
  -25.3920  -36.2980   23.8930 C   0  0  0  0  0  3  0  0  0  0  0  0
  -27.5180  -37.1960   24.7340 C   0  0  0  0  0  1  0  0  0  0  0  0
  -26.4270  -37.3480   23.7740 N   0  0  0  0  0  0  0  0  0  0  0  0
  -26.0200  -38.2700   23.9050 H   0  0  0  0  0  0  0  0  0  0  0  0
  1  2  1  0
  2 54  1  0
  3  2  2  0
  4  1  2  0
  5  3  1  0
  6  4  1  0
  6  3  1  0
  8  9  1  0
  9  6  1  0
  9  7  1  0
 10  4  1  0
 10 12  1  0
 11 10  1  0
 13 19  1  0
 13 25  1  0
 14 19  1  0
 15 16  1  0
 15 14  1  0
 17 16  1  0
 17 29  1  0
 17 18  1  0
 19 18  1  0
 20 13  2  0
 22 21  1  0
 23 21  1  0
 24 12  1  0
 24 25  1  0
 24 22  1  0
 25 23  1  0
 26 27  2  0
 27 46  1  0
 28 27  1  0
 28 31  1  0
 29 30  1  0
 29 26  1  0
 30 28  2  0
 31 32  1  0
 32 33  2  0
 34 37  1  0
 34 33  1  0
 35 34  2  0
 36 35  1  0
 36 31  2  0
 37 38  1  0
 38 39  1  0
 39 40  2  0
 41 40  1  0
 41 45  1  0
 42 41  2  0
 43 38  2  0
 43 42  1  0
 44 43  1  0
 46 47  1  0
 47 50  1  0
 47 49  1  0
 48 46  2  0
 51 52  1  0
 51 26  1  0
 53 51  1  0
 55 57  1  0
 55 54  1  0
 56 67  2  0
 57 62  1  0
 58 66  1  0
 58 68  1  0
 59 61  1  0
 60 66  1  0
 61 62  2  0
 61 60  1  0
 63 57  2  0
 64 63  1  0
 64 59  2  0
 65 59  1  0
 65 58  1  0
 66 56  1  0
 68 70  2  0
 69 68  1  0
 71 69  1  0
 72 81  2  0
 72 77  1  0
 73 69  1  0
 73 77  1  0
 74 73  1  0
 75 76  1  0
 75 74  1  0
 76 72  1  0
 77 78  2  0
 78 79  1  0
 80 79  2  0
 81 80  1  0
 82 56  1  0
 82 87  1  0
 82 83  1  0
 83 86  1  1
 83 84  1  0
 85 83  1  0
 87 90  1  0
 88 92  1  0
 88 87  1  0
 89 88  2  0
 92 91  1  0
 94 92  1  0
 94 95  1  0
 94 93  1  0
M  ISO  4  13 100  25 100  54 101  55 101
M  END
>  <TORSDO>  (97) 
F 20

>  <SCORE>  (97) 
-12.428

>  <name>  (97) 
97

>  <ligand_id>  (97) 
97

>  <original_smiles>  (97) 
[H]c1c([H])c([H])c2c(c1[H])C([H])([H])C([H])([H])C([H])([H])C2([H])N([H])C(=O)C1([H])N(C(=O)C([H])(N([H])C(=O)C([H])(N([H])C([H])([H])[H])C([H])([H])[H])C(C([H])([H])[H])(C([H])([H])[H])C([H])([H])[H])C([H])([H])c2c([H])c(OC([H])([H])c3c([H])c(N([H])C([H])([H])C4([H])N(C(=O)N5C([H])([H])C([H])([H])C([H])([H])C([H])(n6nc(-c7c([H])c([H])c(Oc8c([H])c([H])c(F)c([H])c8F)c([H])c7[H])c(C(=O)N([H])[H])c6N([H])[H])C5([H])[H])C([H])([H])C([H])([H])C4([H])[H])n(C([H])(C([H])([H])[H])C([H])([H])[H])c3C([H])([H])[H])c([H])c([H])c2C1([H])[H]

>  <smiles>  (97) 
[H]c1c([H])c([H])c2c(c1[H])C([H])([H])C([H])([H])C([H])([H])C2([H])N([H])C(=O)C1([H])N(C(=O)C([H])(N([H])C(=O)C([H])(N([H])C([H])([H])[H])C([H])([H])[H])C(C([H])([H])[H])(C([H])([H])[H])C([H])([H])[H])C([H])([H])c2c([H])c(OC([H])([H])c3c([H])c(N([H])C([H])([H])C4([H])N(C(=O)N5C([H])([H])C([H])([H])C([H])([H])C([H])(n6nc(-c7c([H])c([H])c(Oc8c([H])c([H])c(F)c([H])c8F)c([H])c7[H])c(C(=O)N([H])[H])c6N([H])[H])C5([H])[H])C([H])([H])C([H])([H])C4([H])[H])n(C([H])(C([H])([H])[H])C([H])([H])[H])c3C([H])([H])[H])c([H])c([H])c2C1([H])[H]

$$$$
