0:0:0
     RDKit          3D

 95103  0  0  1  0  0  0  0  0999 V2000
  -27.2260  -22.3690   19.9860 C   0  0  0  0  0  3  0  0  0  0  0  0
  -28.9200  -20.8870   20.8890 C   0  0  0  0  0  3  0  0  0  0  0  0
  -26.6600  -21.2950   19.2670 C   0  0  0  0  0  0  0  0  0  0  0  0
  -28.3760  -19.7870   20.1870 C   0  0  0  0  0  0  0  0  0  0  0  0
  -27.2470  -20.0010   19.3430 C   0  0  0  0  0  0  0  0  0  0  0  0
  -28.3860  -22.1840   20.7700 C   0  0  0  0  0  0  0  0  0  0  0  0
  -25.4270  -21.5680   18.4140 C   0  0  0  0  0  1  0  0  0  0  0  0
  -29.0290  -18.4070   20.3980 C   0  0  0  0  0  2  0  0  0  0  0  0
  -30.3700  -18.2280   19.6500 C   0  0  0  0  0  2  0  0  0  0  0  0
  -31.4520  -17.3850   20.3770 C   0  0  0  0  0  2  0  0  0  0  0  0
  -31.8150  -14.9530   20.8160 C   0  0  0  0  0  0  0  0  0  0  0  0
  -31.6920  -12.5380   20.3730 C   0  0  0  0  0  2  0  0  0  0  0  0
  -30.9640  -12.3460   19.0270 C   0  0  0  0  0  2  0  0  0  0  0  0
  -29.4430  -12.2620   19.2560 C   0  0  0  0  0  2  0  0  0  0  0  0
  -28.9100  -13.4290   20.1300 C   0  0  0  0  0  3  0  0  0  0  0  0
  -29.7700  -13.6100   21.4000 C   0  0  0  0  0  2  0  0  0  0  0  0
  -31.1710  -13.7700   20.9780 N   0  0  0  0  0  0  0  0  0  0  0  0
  -33.0120  -15.0310   20.5180 O   0  0  0  0  0  0  0  0  0  0  0  0
  -31.0260  -16.0440   20.8040 N   0  0  0  0  0  0  0  0  0  0  0  0
  -30.0560  -15.9120   21.0510 H   0  0  0  0  0  0  0  0  0  0  0  0
  -26.5060  -14.2020   20.5910 C   0  0  0  0  0  0  0  0  0  0  0  0
  -25.3490  -13.5200   20.8470 C   0  0  0  0  0  0  0  0  0  0  0  0
  -25.7140  -12.1410   20.8750 C   0  0  0  0  0  0  0  0  0  0  0  0
  -27.5000  -13.2480   20.4660 N   0  0  0  0  0  0  0  0  0  0  0  0
  -27.0220  -12.0010   20.6990 N   0  0  0  0  0  0  0  0  0  0  0  0
  -24.8850  -10.9390   21.0020 C   0  0  0  0  0  0  0  0  0  0  0  0
  -25.1110   -9.9990   22.0300 C   0  0  0  0  0  3  0  0  0  0  0  0
  -24.2930   -8.8550   22.1430 C   0  0  0  0  0  3  0  0  0  0  0  0
  -23.2360   -8.6480   21.2240 C   0  0  0  0  0  0  0  0  0  0  0  0
  -23.0290   -9.5760   20.1910 C   0  0  0  0  0  3  0  0  0  0  0  0
  -23.8470  -10.7120   20.0770 C   0  0  0  0  0  3  0  0  0  0  0  0
  -22.4040   -7.5550   21.2410 O   0  0  0  0  0  0  0  0  0  0  0  0
  -22.0580   -6.9370   22.4140 C   0  0  0  0  0  0  0  0  0  0  0  0
  -21.4110   -7.6290   23.4620 C   0  0  0  0  0  3  0  0  0  0  0  0
  -21.0040   -6.9340   24.6180 C   0  0  0  0  0  3  0  0  0  0  0  0
  -21.2380   -5.5490   24.7280 C   0  0  0  0  0  0  0  0  0  0  0  0
  -21.8760   -4.8590   23.6830 C   0  0  0  0  0  3  0  0  0  0  0  0
  -22.2820   -5.5500   22.5290 C   0  0  0  0  0  0  0  0  0  0  0  0
  -22.8790   -4.8750   21.5170 F   0  0  0  0  0  0  0  0  0  0  0  0
  -20.8410   -4.8800   25.8360 F   0  0  0  0  0  0  0  0  0  0  0  0
  -23.9730  -14.1060   20.9660 C   0  0  0  0  0  0  0  0  0  0  0  0
  -23.1270  -13.5060   21.7960 N   0  0  0  0  0  0  0  0  0  0  0  0
  -23.6540  -15.1280   20.3610 O   0  0  0  0  0  0  0  0  0  0  0  0
  -23.4000  -12.6740   22.2960 H   0  0  0  0  0  0  0  0  0  0  0  0
  -22.1990  -13.8810   21.9260 H   0  0  0  0  0  0  0  0  0  0  0  0
  -26.8030  -15.5420   20.4370 N   0  0  0  0  0  0  0  0  0  0  0  0
  -26.1100  -16.2820   20.4470 H   0  0  0  0  0  0  0  0  0  0  0  0
  -27.7210  -15.9060   20.2150 H   0  0  0  0  0  0  0  0  0  0  0  0
  -26.6820  -18.8640   18.4980 C   0  0  0  0  0  2  0  0  0  0  0  0
  -27.7280  -19.4320   16.4190 C   0  0  0  0  0  1  0  0  0  0  0  0
  -27.5750  -18.4850   17.4630 O   0  0  0  0  0  0  0  0  0  0  0  0
  -29.0280  -23.1960   21.4520 O   0  0  0  0  0  0  0  0  0  0  0  0
  -29.2340  -24.4540   20.7990 C   0  0  0  0  0  2  0  0  0  0  0  0
  -28.9430  -25.6210   21.7620 C   0  0  0  0  0  2  0  0  0  0  0  0
  -29.0480  -26.8850   21.1010 O   0  0  0  0  0  0  0  0  0  0  0  0
  -24.8450  -32.0390   23.6150 C   0  0  0  0  0  0  0  0  0  0  0  0
  -27.8650  -27.5660   20.9830 C   0  0  0  0  0  0  0  0  0  0  0  0
  -23.8240  -30.5340   21.9370 C   0  0  0  0  0  3  0  0  0  0  0  0
  -25.4400  -28.9800   20.7170 C   0  0  0  0  0  0  0  0  0  0  0  0
  -26.3460  -30.9640   21.9430 C   0  0  0  0  0  2  0  0  0  0  0  0
  -26.5250  -29.5730   21.3740 C   0  0  0  0  0  0  0  0  0  0  0  0
  -27.7460  -28.8730   21.4990 C   0  0  0  0  0  3  0  0  0  0  0  0
  -26.7650  -26.9770   20.3260 C   0  0  0  0  0  3  0  0  0  0  0  0
  -25.5530  -27.6810   20.1900 C   0  0  0  0  0  3  0  0  0  0  0  0
  -24.1720  -29.7990   20.6150 C   0  0  0  0  0  2  0  0  0  0  0  0
  -25.0160  -31.1940   22.5590 N   0  0  0  0  0  0  0  0  0  0  0  0
  -23.7160  -32.3040   24.0480 O   0  0  0  0  0  0  0  0  0  0  0  0
  -23.1160  -29.5370   22.8840 C   0  0  0  0  0  0  0  0  0  0  0  0
  -21.8200  -29.2930   22.6300 N   0  0  0  0  0  0  0  0  0  0  0  0
  -23.7370  -28.9860   23.7940 O   0  0  0  0  0  0  0  0  0  0  0  0
  -21.3920  -29.7850   21.8580 H   0  0  0  0  0  0  0  0  0  0  0  0
  -18.4350  -28.0610   22.9010 C   0  0  0  0  0  0  0  0  0  0  0  0
  -20.9600  -28.3650   23.3600 C   0  0  0  0  0  3  0  0  0  0  0  0
  -21.1290  -26.9210   22.8300 C   0  0  0  0  0  2  0  0  0  0  0  0
  -20.1120  -26.5540   21.7450 C   0  0  0  0  0  2  0  0  0  0  0  0
  -18.6830  -26.6980   22.2750 C   0  0  0  0  0  2  0  0  0  0  0  0
  -19.5080  -28.8500   23.3930 C   0  0  0  0  0  0  0  0  0  0  0  0
  -19.2290  -30.1260   23.9320 C   0  0  0  0  0  3  0  0  0  0  0  0
  -17.9080  -30.6130   23.9830 C   0  0  0  0  0  3  0  0  0  0  0  0
  -16.8490  -29.8190   23.5090 C   0  0  0  0  0  3  0  0  0  0  0  0
  -17.1120  -28.5450   22.9730 C   0  0  0  0  0  3  0  0  0  0  0  0
  -26.0570  -32.7270   24.3180 C   0  0  0  0  0  3  0  0  0  0  0  0
  -25.6730  -34.1170   24.6000 N   0  0  0  0  0  0  0  0  0  0  0  0
  -25.9950  -35.1650   23.8300 C   0  0  0  0  0  0  0  0  0  0  0  0
  -26.7170  -35.0650   22.8340 O   0  0  0  0  0  0  0  0  0  0  0  0
  -25.0310  -34.2630   25.3660 H   0  0  0  0  0  0  0  0  0  0  0  0
  -24.1950  -36.8560   23.3590 C   0  0  0  0  0  1  0  0  0  0  0  0
  -25.4260  -36.5410   24.2250 C   0  0  0  0  0  3  0  0  0  0  0  0
  -27.4950  -37.5380   25.0870 C   0  0  0  0  0  1  0  0  0  0  0  0
  -26.4100  -37.6400   24.1160 N   0  0  0  0  0  0  0  0  0  0  0  0
  -25.9580  -38.5420   24.2390 H   0  0  0  0  0  0  0  0  0  0  0  0
  -26.5100  -31.9940   25.6400 C   0  0  1  0  0  0  0  0  0  0  0  0
  -25.3430  -31.6500   26.5940 C   0  0  0  0  0  1  0  0  0  0  0  0
  -27.2460  -30.6770   25.3050 C   0  0  0  0  0  1  0  0  0  0  0  0
  -27.5160  -32.8800   26.4110 C   0  0  0  0  0  1  0  0  0  0  0  0
  1  6  1  0
  3  5  1  0
  3  1  2  0
  4  8  1  0
  4  2  1  0
  5  4  2  0
  6  2  2  0
  6 52  1  0
  7  3  1  0
  9 10  1  0
  9  8  1  0
 10 19  1  0
 11 17  1  0
 12 17  1  0
 13 14  1  0
 13 12  1  0
 15 14  1  0
 15 24  1  0
 15 16  1  0
 17 16  1  0
 18 11  2  0
 19 11  1  0
 19 20  1  0
 21 22  2  0
 22 23  1  0
 22 41  1  0
 23 26  1  0
 24 21  1  0
 24 25  1  0
 25 23  2  0
 26 27  1  0
 27 28  2  0
 29 32  1  0
 29 28  1  0
 30 29  2  0
 31 30  1  0
 31 26  2  0
 32 33  1  0
 33 38  2  0
 33 34  1  0
 34 35  2  0
 35 36  1  0
 36 40  1  0
 37 36  2  0
 38 37  1  0
 39 38  1  0
 41 42  1  0
 42 45  1  0
 42 44  1  0
 43 41  2  0
 46 47  1  0
 46 21  1  0
 48 46  1  0
 49  5  1  0
 50 51  1  0
 51 49  1  0
 53 52  1  0
 53 54  1  0
 55 54  1  0
 56 67  2  0
 57 55  1  0
 57 62  1  0
 58 66  1  0
 58 68  1  0
 59 61  1  0
 60 66  1  0
 61 62  2  0
 61 60  1  0
 63 57  2  0
 64 63  1  0
 64 59  2  0
 65 59  1  0
 65 58  1  0
 66 56  1  0
 68 70  2  0
 69 68  1  0
 71 69  1  0
 72 81  2  0
 72 77  1  0
 73 69  1  0
 73 77  1  0
 74 73  1  0
 75 76  1  0
 75 74  1  0
 76 72  1  0
 77 78  2  0
 78 79  1  0
 80 79  2  0
 81 80  1  0
 82 56  1  0
 82 83  1  0
 82 92  1  0
 83 86  1  0
 84 88  1  0
 84 83  1  0
 85 84  2  0
 88 87  1  0
 90 88  1  0
 90 91  1  0
 90 89  1  0
 92 95  1  1
 92 93  1  0
 94 92  1  0
M  ISO  4  11 100  19 100  54 101  55 101
M  END
>  <TORSDO>  (1) 
F 24

>  <SCORE>  (1) 
-10.198

>  <name>  (1) 
0

>  <ligand_id>  (1) 
0

>  <original_smiles>  (1) 
[H]c1c([H])c([H])c2c(c1[H])C([H])([H])C([H])([H])C([H])([H])C2([H])N([H])C(=O)C1([H])N(C(=O)C([H])(N([H])C(=O)C([H])(N([H])C([H])([H])[H])C([H])([H])[H])C(C([H])([H])[H])(C([H])([H])[H])C([H])([H])[H])C([H])([H])c2c([H])c(OC([H])([H])C([H])([H])Oc3c([H])c(C([H])([H])[H])c(C([H])([H])OC([H])([H])[H])c(C([H])([H])C([H])([H])C([H])([H])N([H])C(=O)N4C([H])([H])C([H])([H])C([H])([H])C([H])(n5nc(-c6c([H])c([H])c(Oc7c([H])c([H])c(F)c([H])c7F)c([H])c6[H])c(C(=O)N([H])[H])c5N([H])[H])C4([H])[H])c3[H])c([H])c([H])c2C1([H])[H]

>  <smiles>  (1) 
[H]c1c([H])c([H])c2c(c1[H])C([H])([H])C([H])([H])C([H])([H])C2([H])N([H])C(=O)C1([H])N(C(=O)C([H])(N([H])C(=O)C([H])(N([H])C([H])([H])[H])C([H])([H])[H])C(C([H])([H])[H])(C([H])([H])[H])C([H])([H])[H])C([H])([H])c2c([H])c(OC([H])([H])C([H])([H])Oc3c([H])c(C([H])([H])[H])c(C([H])([H])OC([H])([H])[H])c(C([H])([H])C([H])([H])C([H])([H])N([H])C(=O)N4C([H])([H])C([H])([H])C([H])([H])C([H])(n5nc(-c6c([H])c([H])c(Oc7c([H])c([H])c(F)c([H])c7F)c([H])c6[H])c(C(=O)N([H])[H])c5N([H])[H])C4([H])[H])c3[H])c([H])c([H])c2C1([H])[H]

$$$$
1:0:0
     RDKit          3D

 92100  0  0  1  0  0  0  0  0999 V2000
  -30.4890  -15.2580   20.2790 C   0  0  0  0  0  0  0  0  0  0  0  0
  -30.5030  -12.7650   19.5880 C   0  0  0  0  0  2  0  0  0  0  0  0
  -29.6120  -12.5030   18.3470 C   0  0  0  0  0  2  0  0  0  0  0  0
  -28.1470  -12.2770   18.7620 C   0  0  0  0  0  2  0  0  0  0  0  0
  -27.6750  -13.3110   19.8150 C   0  0  0  0  0  3  0  0  0  0  0  0
  -28.6920  -13.5020   20.9600 C   0  0  0  0  0  2  0  0  0  0  0  0
  -29.9510  -13.9470   20.3400 N   0  0  0  0  0  0  0  0  0  0  0  0
  -31.7010  -15.2830   20.0170 O   0  0  0  0  0  0  0  0  0  0  0  0
  -29.3490  -18.9790   21.2510 C   0  0  0  0  0  3  0  0  0  0  0  0
  -29.1450  -20.4410   21.1490 C   0  0  0  0  0  0  0  0  0  0  0  0
  -29.1740  -21.2300   19.9200 C   0  0  0  0  0  0  0  0  0  0  0  0
  -29.4230  -20.2290   18.8750 C   0  0  0  0  0  0  0  0  0  0  0  0
  -29.6460  -18.0560   20.1780 C   0  0  0  0  0  0  0  0  0  0  0  0
  -28.9010  -21.1700   22.4560 C   0  0  0  0  0  1  0  0  0  0  0  0
  -29.6260  -18.8170   19.0030 N   0  0  0  0  0  0  0  0  0  0  0  0
  -29.6550  -16.4660   20.3830 N   0  0  0  0  0  0  0  0  0  0  0  0
  -28.7470  -16.1680   20.7020 H   0  0  0  0  0  0  0  0  0  0  0  0
  -25.3100  -13.9380   20.5440 C   0  0  0  0  0  0  0  0  0  0  0  0
  -24.2240  -13.1910   20.9030 C   0  0  0  0  0  0  0  0  0  0  0  0
  -24.6530  -11.8280   20.8710 C   0  0  0  0  0  0  0  0  0  0  0  0
  -26.3300  -13.0350   20.3060 N   0  0  0  0  0  0  0  0  0  0  0  0
  -25.9450  -11.7590   20.5700 N   0  0  0  0  0  0  0  0  0  0  0  0
  -23.8890  -10.5870   21.0500 C   0  0  0  0  0  0  0  0  0  0  0  0
  -24.2970   -9.5920   21.9660 C   0  0  0  0  0  3  0  0  0  0  0  0
  -23.5320   -8.4170   22.1330 C   0  0  0  0  0  3  0  0  0  0  0  0
  -22.3460   -8.2280   21.3840 C   0  0  0  0  0  0  0  0  0  0  0  0
  -21.9590   -9.2110   20.4570 C   0  0  0  0  0  3  0  0  0  0  0  0
  -22.7230  -10.3780   20.2870 C   0  0  0  0  0  3  0  0  0  0  0  0
  -21.5550   -7.1070   21.4640 O   0  0  0  0  0  0  0  0  0  0  0  0
  -21.5080   -6.3370   22.5990 C   0  0  0  0  0  0  0  0  0  0  0  0
  -21.1450   -6.8800   23.8510 C   0  0  0  0  0  3  0  0  0  0  0  0
  -21.0400   -6.0390   24.9780 C   0  0  0  0  0  3  0  0  0  0  0  0
  -21.2880   -4.6580   24.8530 C   0  0  0  0  0  0  0  0  0  0  0  0
  -21.6450   -4.1170   23.6050 C   0  0  0  0  0  3  0  0  0  0  0  0
  -21.7510   -4.9540   22.4810 C   0  0  0  0  0  0  0  0  0  0  0  0
  -22.0740   -4.4240   21.2770 F   0  0  0  0  0  0  0  0  0  0  0  0
  -21.1820   -3.8490   25.9330 F   0  0  0  0  0  0  0  0  0  0  0  0
  -22.8370  -13.7070   21.1570 C   0  0  0  0  0  0  0  0  0  0  0  0
  -22.0810  -13.0340   22.0180 N   0  0  0  0  0  0  0  0  0  0  0  0
  -22.4350  -14.7420   20.6290 O   0  0  0  0  0  0  0  0  0  0  0  0
  -22.4200  -12.1970   22.4690 H   0  0  0  0  0  0  0  0  0  0  0  0
  -21.1510  -13.3640   22.2300 H   0  0  0  0  0  0  0  0  0  0  0  0
  -25.5090  -15.3060   20.3700 N   0  0  0  0  0  0  0  0  0  0  0  0
  -24.7480  -15.9700   20.4670 H   0  0  0  0  0  0  0  0  0  0  0  0
  -26.3450  -15.7200   19.9800 H   0  0  0  0  0  0  0  0  0  0  0  0
  -28.0270  -20.5490   16.8000 C   0  0  0  0  0  1  0  0  0  0  0  0
  -29.4200  -20.6770   17.4260 C   0  0  0  0  0  2  0  0  0  0  0  0
  -29.2360  -22.9870   19.8520 C   0  0  0  0  0  3  0  0  0  0  0  0
  -31.8110  -22.5780   19.7020 C   0  0  0  0  0  1  0  0  0  0  0  0
  -30.6010  -23.4240   19.2680 C   0  0  0  0  0  2  0  0  0  0  0  0
  -28.1350  -24.3260   19.4490 C   0  0  0  0  0  2  0  0  0  0  0  0
  -28.3030  -25.9410   19.6440 O   0  0  0  0  0  0  0  0  0  0  0  0
  -24.6350  -31.6240   22.9170 C   0  0  0  0  0  0  0  0  0  0  0  0
  -27.2490  -26.9820   19.6390 C   0  0  0  0  0  0  0  0  0  0  0  0
  -23.4390  -30.2730   21.2410 C   0  0  0  0  0  3  0  0  0  0  0  0
  -24.8970  -28.7740   19.7190 C   0  0  0  0  0  0  0  0  0  0  0  0
  -25.9930  -30.5660   21.0500 C   0  0  0  0  0  2  0  0  0  0  0  0
  -26.0840  -29.1920   20.3330 C   0  0  0  0  0  0  0  0  0  0  0  0
  -27.2530  -28.3160   20.2700 C   0  0  0  0  0  3  0  0  0  0  0  0
  -26.0280  -26.7050   18.9870 C   0  0  0  0  0  3  0  0  0  0  0  0
  -24.8900  -27.5520   19.0260 C   0  0  0  0  0  3  0  0  0  0  0  0
  -23.6550  -29.6550   19.8320 C   0  0  0  0  0  2  0  0  0  0  0  0
  -24.7110  -30.8450   21.7910 N   0  0  0  0  0  0  0  0  0  0  0  0
  -23.5510  -31.8620   23.4740 O   0  0  0  0  0  0  0  0  0  0  0  0
  -22.7910  -29.2180   22.1740 C   0  0  0  0  0  0  0  0  0  0  0  0
  -21.4580  -29.0450   22.0870 N   0  0  0  0  0  0  0  0  0  0  0  0
  -23.4910  -28.5550   22.9440 O   0  0  0  0  0  0  0  0  0  0  0  0
  -20.9430  -29.6320   21.4450 H   0  0  0  0  0  0  0  0  0  0  0  0
  -18.1050  -27.7920   22.6650 C   0  0  0  0  0  0  0  0  0  0  0  0
  -20.6720  -28.0580   22.8350 C   0  0  0  0  0  3  0  0  0  0  0  0
  -20.7540  -26.6640   22.1720 C   0  0  0  0  0  2  0  0  0  0  0  0
  -19.6110  -26.3950   21.1870 C   0  0  0  0  0  2  0  0  0  0  0  0
  -18.2580  -26.4890   21.8980 C   0  0  0  0  0  2  0  0  0  0  0  0
  -19.2380  -28.5360   23.0920 C   0  0  0  0  0  0  0  0  0  0  0  0
  -19.0380  -29.7550   23.7740 C   0  0  0  0  0  3  0  0  0  0  0  0
  -17.7390  -30.2330   24.0320 C   0  0  0  0  0  3  0  0  0  0  0  0
  -16.6210  -29.4860   23.6200 C   0  0  0  0  0  3  0  0  0  0  0  0
  -16.8050  -28.2680   22.9430 C   0  0  0  0  0  3  0  0  0  0  0  0
  -25.9050  -32.2670   23.5530 C   0  0  0  0  0  3  0  0  0  0  0  0
  -26.4770  -31.4380   24.7690 C   0  0  1  0  0  0  0  0  0  0  0  0
  -25.4230  -31.1090   25.8530 C   0  0  0  0  0  1  0  0  0  0  0  0
  -27.0850  -30.1010   24.2890 C   0  0  0  0  0  1  0  0  0  0  0  0
  -27.6260  -32.2240   25.4460 C   0  0  0  0  0  1  0  0  0  0  0  0
  -25.5530  -33.6290   23.9890 N   0  0  0  0  0  0  0  0  0  0  0  0
  -25.8150  -34.7490   23.3010 C   0  0  0  0  0  0  0  0  0  0  0  0
  -26.4450  -34.7450   22.2400 O   0  0  0  0  0  0  0  0  0  0  0  0
  -24.9860  -33.7040   24.8200 H   0  0  0  0  0  0  0  0  0  0  0  0
  -24.0030  -36.4920   23.1680 C   0  0  0  0  0  1  0  0  0  0  0  0
  -25.3030  -36.0840   23.8790 C   0  0  0  0  0  3  0  0  0  0  0  0
  -27.4470  -37.0020   24.6510 C   0  0  0  0  0  1  0  0  0  0  0  0
  -26.2870  -37.1850   23.7830 N   0  0  0  0  0  0  0  0  0  0  0  0
  -25.8550  -38.0760   24.0150 H   0  0  0  0  0  0  0  0  0  0  0  0
  1  7  1  0
  1 16  1  0
  2  7  1  0
  3  4  1  0
  3  2  1  0
  5  4  1  0
  5 21  1  0
  5  6  1  0
  7  6  1  0
  8  1  2  0
 10  9  1  0
 10 14  1  0
 11 10  2  0
 12 15  2  0
 12 11  1  0
 13 16  1  0
 13  9  2  0
 15 13  1  0
 16 17  1  0
 18 19  2  0
 19 38  1  0
 20 19  1  0
 20 23  1  0
 21 18  1  0
 21 22  1  0
 22 20  2  0
 23 24  1  0
 24 25  2  0
 26 29  1  0
 26 25  1  0
 27 26  2  0
 28 27  1  0
 28 23  2  0
 29 30  1  0
 30 31  1  0
 31 32  2  0
 33 32  1  0
 33 37  1  0
 34 33  2  0
 35 30  2  0
 35 34  1  0
 36 35  1  0
 38 39  1  0
 39 42  1  0
 39 41  1  0
 40 38  2  0
 43 44  1  0
 43 18  1  0
 45 43  1  0
 46 47  1  0
 47 12  1  0
 48 50  1  0
 48 11  1  0
 50 49  1  0
 51 52  1  0
 51 48  1  0
 53 64  2  0
 54 52  1  0
 54 59  1  0
 55 63  1  0
 55 65  1  0
 56 62  1  0
 56 58  1  0
 57 63  1  0
 58 57  1  0
 59 58  2  0
 60 61  1  0
 60 54  2  0
 61 56  2  0
 62 55  1  0
 63 53  1  0
 65 67  2  0
 66 65  1  0
 68 66  1  0
 69 78  2  0
 69 74  1  0
 70 66  1  0
 70 74  1  0
 71 70  1  0
 72 73  1  0
 72 71  1  0
 73 69  1  0
 74 75  2  0
 75 76  1  0
 77 76  2  0
 78 77  1  0
 79 53  1  0
 79 84  1  0
 79 80  1  0
 80 83  1  1
 80 81  1  0
 82 80  1  0
 84 87  1  0
 85 89  1  0
 85 84  1  0
 86 85  2  0
 89 88  1  0
 91 89  1  0
 91 92  1  0
 91 90  1  0
M  ISO  4   1 100  16 100  51 101  52 101
M  END
>  <TORSDO>  (2) 
F 19

>  <SCORE>  (2) 
-13.693

>  <name>  (2) 
1

>  <ligand_id>  (2) 
1

>  <original_smiles>  (2) 
[H]c1c([H])c([H])c2c(c1[H])C([H])([H])C([H])([H])C([H])([H])C2([H])N([H])C(=O)C1([H])N(C(=O)C([H])(N([H])C(=O)C([H])(N([H])C([H])([H])[H])C([H])([H])[H])C(C([H])([H])[H])(C([H])([H])[H])C([H])([H])[H])C([H])([H])c2c([H])c(OC([H])([H])C([H])(c3c(C([H])([H])C([H])([H])[H])nc(N([H])C(=O)N4C([H])([H])C([H])([H])C([H])([H])C([H])(n5nc(-c6c([H])c([H])c(Oc7c([H])c([H])c(F)c([H])c7F)c([H])c6[H])c(C(=O)N([H])[H])c5N([H])[H])C4([H])[H])c([H])c3C([H])([H])[H])C([H])([H])C([H])([H])[H])c([H])c([H])c2C1([H])[H]

>  <smiles>  (2) 
[H]c1c([H])c([H])c2c(c1[H])C([H])([H])C([H])([H])C([H])([H])C2([H])N([H])C(=O)C1([H])N(C(=O)C([H])(N([H])C(=O)C([H])(N([H])C([H])([H])[H])C([H])([H])[H])C(C([H])([H])[H])(C([H])([H])[H])C([H])([H])[H])C([H])([H])c2c([H])c(OC([H])([H])C([H])(c3c(C([H])([H])C([H])([H])[H])nc(N([H])C(=O)N4C([H])([H])C([H])([H])C([H])([H])C([H])(n5nc(-c6c([H])c([H])c(Oc7c([H])c([H])c(F)c([H])c7F)c([H])c6[H])c(C(=O)N([H])[H])c5N([H])[H])C4([H])[H])c([H])c3C([H])([H])[H])C([H])([H])C([H])([H])[H])c([H])c([H])c2C1([H])[H]

$$$$
2:0:0
     RDKit          3D

 94103  0  0  1  0  0  0  0  0999 V2000
  -29.2450  -21.1400   21.3830 C   0  0  0  0  0  3  0  0  0  0  0  0
  -29.7970  -18.8020   19.9340 C   0  0  0  0  0  0  0  0  0  0  0  0
  -28.9540  -21.1860   20.0080 C   0  0  0  0  0  0  0  0  0  0  0  0
  -29.2390  -19.9660   19.2640 C   0  0  0  0  0  0  0  0  0  0  0  0
  -30.0650  -18.9640   21.3100 C   0  0  0  0  0  0  0  0  0  0  0  0
  -30.8500  -17.8880   22.0390 C   0  0  0  0  0  2  0  0  0  0  0  0
  -32.0760  -17.4080   21.2270 C   0  0  0  0  0  2  0  0  0  0  0  0
  -31.9140  -17.5560   19.6930 C   0  0  0  0  0  2  0  0  0  0  0  0
  -30.4290  -17.5000   19.2530 C   0  0  0  0  0  3  0  0  0  0  0  0
  -29.7860  -20.0790   22.0140 N   0  0  0  0  0  0  0  0  0  0  0  0
  -30.6150  -14.9230   19.2740 C   0  0  0  0  0  0  0  0  0  0  0  0
  -30.3850  -12.5340   18.6130 C   0  0  0  0  0  2  0  0  0  0  0  0
  -29.3450  -12.4100   17.4820 C   0  0  0  0  0  2  0  0  0  0  0  0
  -27.9320  -12.2480   18.0730 C   0  0  0  0  0  2  0  0  0  0  0  0
  -27.6250  -13.2840   19.1880 C   0  0  0  0  0  3  0  0  0  0  0  0
  -28.7840  -13.4120   20.2020 C   0  0  0  0  0  2  0  0  0  0  0  0
  -30.0060  -13.7020   19.4420 N   0  0  0  0  0  0  0  0  0  0  0  0
  -31.7290  -14.9780   18.7500 O   0  0  0  0  0  0  0  0  0  0  0  0
  -29.9180  -16.0890   19.5230 N   0  0  0  0  0  0  0  0  0  0  0  0
  -28.9820  -15.9920   19.8860 H   0  0  0  0  0  0  0  0  0  0  0  0
  -25.3830  -13.8940   20.2750 C   0  0  0  0  0  0  0  0  0  0  0  0
  -24.3500  -13.1290   20.7420 C   0  0  0  0  0  0  0  0  0  0  0  0
  -24.7530  -11.7700   20.5660 C   0  0  0  0  0  0  0  0  0  0  0  0
  -26.3510  -13.0020   19.8440 N   0  0  0  0  0  0  0  0  0  0  0  0
  -25.9860  -11.7150   20.0790 N   0  0  0  0  0  0  0  0  0  0  0  0
  -24.0110  -10.5190   20.7800 C   0  0  0  0  0  0  0  0  0  0  0  0
  -24.4230   -9.5700   21.7410 C   0  0  0  0  0  3  0  0  0  0  0  0
  -23.6810   -8.3850   21.9420 C   0  0  0  0  0  3  0  0  0  0  0  0
  -22.5120   -8.1420   21.1820 C   0  0  0  0  0  0  0  0  0  0  0  0
  -22.1200   -9.0790   20.2110 C   0  0  0  0  0  3  0  0  0  0  0  0
  -22.8620  -10.2550   20.0070 C   0  0  0  0  0  3  0  0  0  0  0  0
  -21.7450   -7.0080   21.2900 O   0  0  0  0  0  0  0  0  0  0  0  0
  -21.5220   -6.4020   22.5010 C   0  0  0  0  0  0  0  0  0  0  0  0
  -20.8860   -7.0760   23.5650 C   0  0  0  0  0  3  0  0  0  0  0  0
  -20.6150   -6.3940   24.7680 C   0  0  0  0  0  3  0  0  0  0  0  0
  -20.9680   -5.0390   24.9050 C   0  0  0  0  0  0  0  0  0  0  0  0
  -21.5960   -4.3640   23.8430 C   0  0  0  0  0  3  0  0  0  0  0  0
  -21.8680   -5.0440   22.6430 C   0  0  0  0  0  0  0  0  0  0  0  0
  -22.4550   -4.3820   21.6160 F   0  0  0  0  0  0  0  0  0  0  0  0
  -20.7010   -4.3810   26.0570 F   0  0  0  0  0  0  0  0  0  0  0  0
  -23.0230  -13.6280   21.2350 C   0  0  0  0  0  0  0  0  0  0  0  0
  -22.4040  -12.9100   22.1650 N   0  0  0  0  0  0  0  0  0  0  0  0
  -22.5490  -14.6890   20.8300 O   0  0  0  0  0  0  0  0  0  0  0  0
  -22.8030  -12.0500   22.5100 H   0  0  0  0  0  0  0  0  0  0  0  0
  -21.5200  -13.2250   22.5370 H   0  0  0  0  0  0  0  0  0  0  0  0
  -25.5690  -15.2680   20.1550 N   0  0  0  0  0  0  0  0  0  0  0  0
  -24.8420  -15.9300   20.3980 H   0  0  0  0  0  0  0  0  0  0  0  0
  -26.3690  -15.7050   19.7140 H   0  0  0  0  0  0  0  0  0  0  0  0
  -27.6290  -19.1760   17.4830 C   0  0  0  0  0  1  0  0  0  0  0  0
  -28.9530  -19.8900   17.7680 C   0  0  0  0  0  2  0  0  0  0  0  0
  -28.2390  -22.5030   19.4710 C   0  0  0  0  0  2  0  0  0  0  0  0
  -28.6400  -23.9810   19.9790 C   0  0  0  0  0  3  0  0  0  0  0  0
  -27.6570  -25.1820   19.5660 C   0  0  0  0  0  3  0  0  0  0  0  0
  -27.9160  -26.6230   19.8850 O   0  0  0  0  0  0  0  0  0  0  0  0
  -24.5080  -32.0220   23.2880 C   0  0  0  0  0  0  0  0  0  0  0  0
  -26.8260  -27.5210   19.9060 C   0  0  0  0  0  0  0  0  0  0  0  0
  -23.1700  -30.6870   21.7020 C   0  0  0  0  0  3  0  0  0  0  0  0
  -24.4920  -29.1790   20.1170 C   0  0  0  0  0  0  0  0  0  0  0  0
  -25.6940  -30.9860   21.3390 C   0  0  0  0  0  2  0  0  0  0  0  0
  -25.7100  -29.6260   20.6460 C   0  0  0  0  0  0  0  0  0  0  0  0
  -26.8770  -28.8080   20.5370 C   0  0  0  0  0  3  0  0  0  0  0  0
  -25.5880  -27.1550   19.3250 C   0  0  0  0  0  3  0  0  0  0  0  0
  -24.4360  -27.9500   19.4450 C   0  0  0  0  0  3  0  0  0  0  0  0
  -23.2720  -30.0610   20.2880 C   0  0  0  0  0  2  0  0  0  0  0  0
  -24.4810  -31.2460   22.1650 N   0  0  0  0  0  0  0  0  0  0  0  0
  -23.4710  -32.2920   23.9120 O   0  0  0  0  0  0  0  0  0  0  0  0
  -22.5720  -29.6430   22.6760 C   0  0  0  0  0  0  0  0  0  0  0  0
  -21.2750  -29.3340   22.5140 N   0  0  0  0  0  0  0  0  0  0  0  0
  -23.2770  -29.1140   23.5410 O   0  0  0  0  0  0  0  0  0  0  0  0
  -20.7600  -29.8180   21.7910 H   0  0  0  0  0  0  0  0  0  0  0  0
  -18.0560  -27.7100   22.8330 C   0  0  0  0  0  0  0  0  0  0  0  0
  -20.5200  -28.3510   23.2930 C   0  0  0  0  0  3  0  0  0  0  0  0
  -20.8670  -26.9090   22.8570 C   0  0  0  0  0  2  0  0  0  0  0  0
  -19.9210  -26.3590   21.7860 C   0  0  0  0  0  2  0  0  0  0  0  0
  -18.4760  -26.3530   22.2950 C   0  0  0  0  0  2  0  0  0  0  0  0
  -19.0170  -28.6540   23.2870 C   0  0  0  0  0  0  0  0  0  0  0  0
  -18.5740  -29.9130   23.7460 C   0  0  0  0  0  3  0  0  0  0  0  0
  -17.2040  -30.2350   23.7580 C   0  0  0  0  0  3  0  0  0  0  0  0
  -16.2570  -29.2920   23.3220 C   0  0  0  0  0  3  0  0  0  0  0  0
  -16.6840  -28.0320   22.8640 C   0  0  0  0  0  3  0  0  0  0  0  0
  -25.8400  -32.6260   23.8310 C   0  0  0  0  0  3  0  0  0  0  0  0
  -26.3930  -31.8660   25.0990 C   0  0  1  0  0  0  0  0  0  0  0  0
  -25.3380  -31.6600   26.2110 C   0  0  0  0  0  1  0  0  0  0  0  0
  -26.9430  -30.4750   24.7080 C   0  0  0  0  0  1  0  0  0  0  0  0
  -27.5820  -32.6530   25.7020 C   0  0  0  0  0  1  0  0  0  0  0  0
  -25.5910  -34.0410   24.1430 N   0  0  0  0  0  0  0  0  0  0  0  0
  -25.8920  -35.0640   23.3330 C   0  0  0  0  0  0  0  0  0  0  0  0
  -26.4780  -34.9160   22.2570 O   0  0  0  0  0  0  0  0  0  0  0  0
  -25.0650  -34.2330   24.9830 H   0  0  0  0  0  0  0  0  0  0  0  0
  -24.1800  -36.8890   23.0660 C   0  0  0  0  0  1  0  0  0  0  0  0
  -25.4750  -36.4760   23.7860 C   0  0  0  0  0  3  0  0  0  0  0  0
  -27.6870  -37.3380   24.4170 C   0  0  0  0  0  1  0  0  0  0  0  0
  -26.5170  -37.5010   23.5580 N   0  0  0  0  0  0  0  0  0  0  0  0
  -26.1430  -38.4350   23.7090 H   0  0  0  0  0  0  0  0  0  0  0  0
  1 10  1  0
  2  5  1  0
  3  1  2  0
  4  2  2  0
  4  3  1  0
  5 10  2  0
  5  6  1  0
  7  6  1  0
  8  7  1  0
  9 19  1  0
  9  8  1  0
  9  2  1  0
 11 17  1  0
 11 19  1  0
 12 17  1  0
 13 14  1  0
 13 12  1  0
 15 14  1  0
 15 24  1  0
 15 16  1  0
 17 16  1  0
 18 11  2  0
 19 20  1  0
 21 22  2  0
 22 41  1  0
 23 22  1  0
 23 26  1  0
 24 25  1  0
 24 21  1  0
 25 23  2  0
 26 27  1  0
 27 28  2  0
 29 32  1  0
 29 28  1  0
 30 29  2  0
 31 30  1  0
 31 26  2  0
 32 33  1  0
 33 38  2  0
 33 34  1  0
 34 35  2  0
 35 36  1  0
 36 40  1  0
 37 36  2  0
 38 37  1  0
 39 38  1  0
 41 42  1  0
 42 44  1  0
 42 45  1  0
 43 41  2  0
 46 21  1  0
 46 47  1  0
 48 46  1  0
 49 50  1  0
 50  4  1  0
 51 52  1  0
 51  3  1  0
 53 54  1  0
 53 52  2  0
 54 56  1  0
 55 66  2  0
 56 61  1  0
 57 65  1  0
 57 67  1  0
 58 64  1  0
 58 60  1  0
 59 65  1  0
 60 59  1  0
 61 60  2  0
 62 63  1  0
 62 56  2  0
 63 58  2  0
 64 57  1  0
 65 55  1  0
 67 69  2  0
 68 67  1  0
 70 68  1  0
 71 80  2  0
 71 76  1  0
 72 68  1  0
 73 72  1  0
 74 75  1  0
 74 73  1  0
 75 71  1  0
 76 72  1  0
 76 77  2  0
 77 78  1  0
 79 78  2  0
 80 79  1  0
 81 55  1  0
 81 86  1  0
 81 82  1  0
 82 85  1  1
 82 83  1  0
 84 82  1  0
 86 89  1  0
 87 91  1  0
 87 86  1  0
 88 87  2  0
 91 90  1  0
 93 94  1  0
 93 91  1  0
 93 92  1  0
M  ISO  4  11 100  19 100  53 101  54 101
M  END
>  <TORSDO>  (3) 
F 20

>  <SCORE>  (3) 
-12.254

>  <name>  (3) 
2

>  <ligand_id>  (3) 
2

>  <original_smiles>  (3) 
[H]c1nc2c(c(C([H])([H])C([H])([H])[H])c1C([H])([H])C([H])([H])C([H])([H])Oc1c([H])c([H])c3c(c1[H])C([H])([H])N(C(=O)C([H])(N([H])C(=O)C([H])(N([H])C([H])([H])[H])C([H])([H])[H])C(C([H])([H])[H])(C([H])([H])[H])C([H])([H])[H])C([H])(C(=O)N([H])C1([H])c4c([H])c([H])c([H])c([H])c4C([H])([H])C([H])([H])C1([H])[H])C3([H])[H])C([H])(N([H])C(=O)N1C([H])([H])C([H])([H])C([H])([H])C([H])(n3nc(-c4c([H])c([H])c(Oc5c([H])c([H])c(F)c([H])c5F)c([H])c4[H])c(C(=O)N([H])[H])c3N([H])[H])C1([H])[H])C([H])([H])C([H])([H])C2([H])[H]

>  <smiles>  (3) 
[H]c1nc2c(c(C([H])([H])C([H])([H])[H])c1C([H])([H])C([H])([H])C([H])([H])Oc1c([H])c([H])c3c(c1[H])C([H])([H])N(C(=O)C([H])(N([H])C(=O)C([H])(N([H])C([H])([H])[H])C([H])([H])[H])C(C([H])([H])[H])(C([H])([H])[H])C([H])([H])[H])C([H])(C(=O)N([H])C1([H])c4c([H])c([H])c([H])c([H])c4C([H])([H])C([H])([H])C1([H])[H])C3([H])[H])C([H])(N([H])C(=O)N1C([H])([H])C([H])([H])C([H])([H])C([H])(n3nc(-c4c([H])c([H])c(Oc5c([H])c([H])c(F)c([H])c5F)c([H])c4[H])c(C(=O)N([H])[H])c3N([H])[H])C1([H])[H])C([H])([H])C([H])([H])C2([H])[H]

$$$$
3:0:0
     RDKit          3D

 95104  0  0  1  0  0  0  0  0999 V2000
  -25.7090  -21.7440   19.1950 C   0  0  0  0  0  3  0  0  0  0  0  0
  -27.3650  -20.0030   18.9440 C   0  0  0  0  0  3  0  0  0  0  0  0
  -26.6150  -22.4930   19.9720 C   0  0  0  0  0  0  0  0  0  0  0  0
  -26.0980  -20.5270   18.6230 C   0  0  0  0  0  0  0  0  0  0  0  0
  -28.3100  -20.7400   19.7100 C   0  0  0  0  0  0  0  0  0  0  0  0
  -27.9890  -22.1230   20.0080 C   0  0  0  0  0  0  0  0  0  0  0  0
  -25.1120  -19.7580   17.7580 C   0  0  0  0  0  1  0  0  0  0  0  0
  -24.6730  -23.5930   21.3470 C   0  0  0  0  0  2  0  0  0  0  0  0
  -25.1510  -24.6890   20.4300 C   0  0  0  0  0  2  0  0  0  0  0  0
  -26.1060  -23.5990   20.8630 C   0  0  0  0  0  3  0  0  0  0  0  0
  -29.4740  -20.0750   20.1180 O   0  0  0  0  0  0  0  0  0  0  0  0
  -29.3230  -18.7160   20.6830 C   0  0  0  0  0  3  0  0  0  0  0  0
  -30.4460  -17.6530   20.3490 C   0  0  0  0  0  3  0  0  0  0  0  0
  -30.9240  -15.1320   20.3860 C   0  0  0  0  0  0  0  0  0  0  0  0
  -30.7630  -12.8560   19.4250 C   0  0  0  0  0  2  0  0  0  0  0  0
  -29.8530  -12.9070   18.1790 C   0  0  0  0  0  2  0  0  0  0  0  0
  -28.3750  -12.7380   18.5860 C   0  0  0  0  0  2  0  0  0  0  0  0
  -27.9710  -13.6690   19.7610 C   0  0  0  0  0  3  0  0  0  0  0  0
  -28.9940  -13.5900   20.9160 C   0  0  0  0  0  2  0  0  0  0  0  0
  -30.3140  -13.9090   20.3540 N   0  0  0  0  0  0  0  0  0  0  0  0
  -32.0870  -15.2830   20.0020 O   0  0  0  0  0  0  0  0  0  0  0  0
  -30.1310  -16.2130   20.6490 N   0  0  0  0  0  0  0  0  0  0  0  0
  -29.1890  -16.0130   20.9530 H   0  0  0  0  0  0  0  0  0  0  0  0
  -25.5910  -14.2970   20.4850 C   0  0  0  0  0  0  0  0  0  0  0  0
  -24.5040  -13.5340   20.8220 C   0  0  0  0  0  0  0  0  0  0  0  0
  -24.9340  -12.1750   20.7400 C   0  0  0  0  0  0  0  0  0  0  0  0
  -26.6140  -13.4010   20.2220 N   0  0  0  0  0  0  0  0  0  0  0  0
  -26.2260  -12.1170   20.4340 N   0  0  0  0  0  0  0  0  0  0  0  0
  -24.1800  -10.9240   20.8780 C   0  0  0  0  0  0  0  0  0  0  0  0
  -24.5580   -9.9330   21.8100 C   0  0  0  0  0  3  0  0  0  0  0  0
  -23.8100   -8.7450   21.9330 C   0  0  0  0  0  3  0  0  0  0  0  0
  -22.6700   -8.5370   21.1230 C   0  0  0  0  0  0  0  0  0  0  0  0
  -22.3120   -9.5140   20.1790 C   0  0  0  0  0  3  0  0  0  0  0  0
  -23.0590  -10.6970   20.0540 C   0  0  0  0  0  3  0  0  0  0  0  0
  -21.8950   -7.4040   21.1580 O   0  0  0  0  0  0  0  0  0  0  0  0
  -21.7320   -6.6780   22.3110 C   0  0  0  0  0  0  0  0  0  0  0  0
  -21.1550   -7.2410   23.4700 C   0  0  0  0  0  3  0  0  0  0  0  0
  -20.9450   -6.4410   24.6120 C   0  0  0  0  0  3  0  0  0  0  0  0
  -21.2960   -5.0780   24.5920 C   0  0  0  0  0  0  0  0  0  0  0  0
  -21.8650   -4.5140   23.4360 C   0  0  0  0  0  3  0  0  0  0  0  0
  -22.0800   -5.3130   22.2980 C   0  0  0  0  0  0  0  0  0  0  0  0
  -22.6100   -4.7600   21.1800 F   0  0  0  0  0  0  0  0  0  0  0  0
  -21.0860   -4.3060   25.6840 F   0  0  0  0  0  0  0  0  0  0  0  0
  -23.1180  -14.0320   21.1060 C   0  0  0  0  0  0  0  0  0  0  0  0
  -22.3810  -13.3330   21.9630 N   0  0  0  0  0  0  0  0  0  0  0  0
  -22.6960  -15.0730   20.6050 O   0  0  0  0  0  0  0  0  0  0  0  0
  -22.7350  -12.4880   22.3880 H   0  0  0  0  0  0  0  0  0  0  0  0
  -21.4520  -13.6490   22.1980 H   0  0  0  0  0  0  0  0  0  0  0  0
  -25.7900  -15.6660   20.3590 N   0  0  0  0  0  0  0  0  0  0  0  0
  -25.0170  -16.3200   20.4250 H   0  0  0  0  0  0  0  0  0  0  0  0
  -26.6210  -16.0790   19.9560 H   0  0  0  0  0  0  0  0  0  0  0  0
  -28.9130  -23.1210   20.3510 O   0  0  0  0  0  0  0  0  0  0  0  0
  -28.7370  -24.4420   19.6950 C   0  0  0  0  0  3  0  0  0  0  0  0
  -28.5230  -25.7390   20.5830 C   0  0  0  0  0  3  0  0  0  0  0  0
  -28.5910  -27.0550   19.9220 O   0  0  0  0  0  0  0  0  0  0  0  0
  -24.6870  -31.9570   23.4370 C   0  0  0  0  0  0  0  0  0  0  0  0
  -27.4420  -27.8410   19.9640 C   0  0  0  0  0  0  0  0  0  0  0  0
  -23.5220  -30.6890   21.6610 C   0  0  0  0  0  3  0  0  0  0  0  0
  -25.0250  -29.3350   20.0900 C   0  0  0  0  0  0  0  0  0  0  0  0
  -26.0460  -31.1180   21.5120 C   0  0  0  0  0  2  0  0  0  0  0  0
  -26.1710  -29.8160   20.7340 C   0  0  0  0  0  0  0  0  0  0  0  0
  -27.3860  -29.0810   20.6610 C   0  0  0  0  0  3  0  0  0  0  0  0
  -26.2790  -27.4010   19.2980 C   0  0  0  0  0  3  0  0  0  0  0  0
  -25.0790  -28.1350   19.3620 C   0  0  0  0  0  3  0  0  0  0  0  0
  -23.7560  -30.1540   20.2230 C   0  0  0  0  0  2  0  0  0  0  0  0
  -24.7690  -31.2680   22.2620 N   0  0  0  0  0  0  0  0  0  0  0  0
  -23.5990  -32.1430   24.0000 O   0  0  0  0  0  0  0  0  0  0  0  0
  -22.9000  -29.5620   22.5150 C   0  0  0  0  0  0  0  0  0  0  0  0
  -21.5810  -29.3550   22.3710 N   0  0  0  0  0  0  0  0  0  0  0  0
  -23.6010  -28.8800   23.2660 O   0  0  0  0  0  0  0  0  0  0  0  0
  -21.0750  -29.9660   21.7440 H   0  0  0  0  0  0  0  0  0  0  0  0
  -18.2440  -28.0060   22.7320 C   0  0  0  0  0  0  0  0  0  0  0  0
  -20.7920  -28.3220   23.0420 C   0  0  0  0  0  3  0  0  0  0  0  0
  -20.9440  -26.9540   22.3340 C   0  0  0  0  0  2  0  0  0  0  0  0
  -19.8570  -26.6950   21.2880 C   0  0  0  0  0  2  0  0  0  0  0  0
  -18.4690  -26.7340   21.9320 C   0  0  0  0  0  2  0  0  0  0  0  0
  -19.3370  -28.7600   23.2400 C   0  0  0  0  0  0  0  0  0  0  0  0
  -19.0720  -29.9540   23.9470 C   0  0  0  0  0  3  0  0  0  0  0  0
  -17.7490  -30.3930   24.1490 C   0  0  0  0  0  3  0  0  0  0  0  0
  -16.6730  -29.6340   23.6580 C   0  0  0  0  0  3  0  0  0  0  0  0
  -16.9220  -28.4430   22.9540 C   0  0  0  0  0  3  0  0  0  0  0  0
  -25.9520  -32.5630   24.1200 C   0  0  0  0  0  3  0  0  0  0  0  0
  -25.6490  -33.9620   24.4550 N   0  0  0  0  0  0  0  0  0  0  0  0
  -26.0160  -35.0180   23.7170 C   0  0  0  0  0  0  0  0  0  0  0  0
  -26.7140  -34.9170   22.7040 O   0  0  0  0  0  0  0  0  0  0  0  0
  -25.0360  -34.1170   25.2420 H   0  0  0  0  0  0  0  0  0  0  0  0
  -24.3130  -36.8300   23.3370 C   0  0  0  0  0  1  0  0  0  0  0  0
  -25.5330  -36.4080   24.1720 C   0  0  0  0  0  3  0  0  0  0  0  0
  -27.6480  -37.2750   25.0710 C   0  0  0  0  0  1  0  0  0  0  0  0
  -26.5780  -37.4510   24.0930 N   0  0  0  0  0  0  0  0  0  0  0  0
  -26.1750  -38.3740   24.2280 H   0  0  0  0  0  0  0  0  0  0  0  0
  -26.4060  -31.7670   25.4050 C   0  0  1  0  0  0  0  0  0  0  0  0
  -25.2730  -31.5470   26.4340 C   0  0  0  0  0  1  0  0  0  0  0  0
  -26.9650  -30.3780   25.0180 C   0  0  0  0  0  1  0  0  0  0  0  0
  -27.5560  -32.5250   26.1100 C   0  0  0  0  0  1  0  0  0  0  0  0
  1  3  1  0
  2  5  2  0
  3  6  2  0
  3 10  1  0
  4  2  1  0
  4  1  2  0
  5  6  1  0
  5 11  1  0
  6 52  1  0
  7  4  1  0
  9 10  1  0
  9  8  1  0
 10  8  1  0
 11 12  1  0
 13 22  1  0
 13 12  2  0
 14 22  1  0
 15 20  1  0
 16 17  1  0
 16 15  1  0
 18 17  1  0
 18 27  1  0
 18 19  1  0
 20 14  1  0
 20 19  1  0
 21 14  2  0
 22 23  1  0
 24 25  2  0
 25 44  1  0
 26 25  1  0
 26 29  1  0
 27 28  1  0
 27 24  1  0
 28 26  2  0
 29 30  1  0
 30 31  2  0
 32 35  1  0
 32 31  1  0
 33 32  2  0
 34 33  1  0
 34 29  2  0
 35 36  1  0
 36 37  1  0
 37 38  2  0
 39 38  1  0
 39 43  1  0
 40 39  2  0
 41 36  2  0
 41 40  1  0
 42 41  1  0
 44 45  1  0
 45 48  1  0
 45 47  1  0
 46 44  2  0
 49 50  1  0
 49 24  1  0
 51 49  1  0
 53 52  1  0
 53 54  2  0
 55 57  1  0
 55 54  1  0
 56 67  2  0
 57 62  1  0
 58 66  1  0
 58 68  1  0
 59 65  1  0
 59 61  1  0
 60 66  1  0
 61 60  1  0
 62 61  2  0
 63 64  1  0
 63 57  2  0
 64 59  2  0
 65 58  1  0
 66 56  1  0
 68 70  2  0
 69 68  1  0
 71 69  1  0
 72 81  2  0
 72 77  1  0
 73 69  1  0
 73 77  1  0
 74 73  1  0
 75 76  1  0
 75 74  1  0
 76 72  1  0
 77 78  2  0
 78 79  1  0
 80 79  2  0
 81 80  1  0
 82 56  1  0
 82 83  1  0
 82 92  1  0
 83 86  1  0
 84 88  1  0
 84 83  1  0
 85 84  2  0
 88 87  1  0
 90 88  1  0
 90 91  1  0
 90 89  1  0
 92 95  1  1
 92 93  1  0
 94 92  1  0
M  ISO  4  14 100  22 100  54 101  55 101
M  END
>  <TORSDO>  (4) 
F 23

>  <SCORE>  (4) 
-11.412

>  <name>  (4) 
3

>  <ligand_id>  (4) 
3

>  <original_smiles>  (4) 
[H]c1c([H])c([H])c2c(c1[H])C([H])([H])C([H])([H])C([H])([H])C2([H])N([H])C(=O)C1([H])N(C(=O)C([H])(N([H])C(=O)C([H])(N([H])C([H])([H])[H])C([H])([H])[H])C(C([H])([H])[H])(C([H])([H])[H])C([H])([H])[H])C([H])([H])c2c([H])c(OC([H])([H])C([H])([H])Oc3c(OC([H])([H])C([H])([H])N([H])C(=O)N4C([H])([H])C([H])([H])C([H])([H])C([H])(n5nc(-c6c([H])c([H])c(Oc7c([H])c([H])c(F)c([H])c7F)c([H])c6[H])c(C(=O)N([H])[H])c5N([H])[H])C4([H])[H])c([H])c(C([H])([H])[H])c([H])c3C3([H])C([H])([H])C3([H])[H])c([H])c([H])c2C1([H])[H]

>  <smiles>  (4) 
[H]c1c([H])c([H])c2c(c1[H])C([H])([H])C([H])([H])C([H])([H])C2([H])N([H])C(=O)C1([H])N(C(=O)C([H])(N([H])C(=O)C([H])(N([H])C([H])([H])[H])C([H])([H])[H])C(C([H])([H])[H])(C([H])([H])[H])C([H])([H])[H])C([H])([H])c2c([H])c(OC([H])([H])C([H])([H])Oc3c(OC([H])([H])C([H])([H])N([H])C(=O)N4C([H])([H])C([H])([H])C([H])([H])C([H])(n5nc(-c6c([H])c([H])c(Oc7c([H])c([H])c(F)c([H])c7F)c([H])c6[H])c(C(=O)N([H])[H])c5N([H])[H])C4([H])[H])c([H])c(C([H])([H])[H])c([H])c3C3([H])C([H])([H])C3([H])[H])c([H])c([H])c2C1([H])[H]

$$$$
4:0:0
     RDKit          3D

 94103  0  0  1  0  0  0  0  0999 V2000
  -29.3480  -17.7160   18.6890 C   0  0  0  0  0  3  0  0  0  0  0  0
  -29.9890  -18.8380   20.7140 C   0  0  0  0  0  0  0  0  0  0  0  0
  -29.5550  -20.1600   20.1630 C   0  0  0  0  0  0  0  0  0  0  0  0
  -29.8660  -17.5440   19.9910 C   0  0  0  0  0  0  0  0  0  0  0  0
  -28.9930  -20.0440   18.8730 C   0  0  0  0  0  0  0  0  0  0  0  0
  -30.6300  -18.8250   22.0930 C   0  0  0  0  0  1  0  0  0  0  0  0
  -28.9370  -18.8950   18.1620 N   0  0  0  0  0  0  0  0  0  0  0  0
  -30.7430  -14.9480   20.0440 C   0  0  0  0  0  0  0  0  0  0  0  0
  -30.5560  -12.6130   19.0570 C   0  0  0  0  0  2  0  0  0  0  0  0
  -29.5570  -12.6190   17.8730 C   0  0  0  0  0  2  0  0  0  0  0  0
  -28.1080  -12.4410   18.3720 C   0  0  0  0  0  2  0  0  0  0  0  0
  -27.7970  -13.3350   19.6030 C   0  0  0  0  0  3  0  0  0  0  0  0
  -28.9040  -13.2760   20.6750 C   0  0  0  0  0  2  0  0  0  0  0  0
  -30.1580  -13.6800   20.0270 N   0  0  0  0  0  0  0  0  0  0  0  0
  -31.8900  -15.0450   19.5940 O   0  0  0  0  0  0  0  0  0  0  0  0
  -30.0240  -16.0920   20.4940 N   0  0  0  0  0  0  0  0  0  0  0  0
  -29.2550  -15.8100   21.0900 H   0  0  0  0  0  0  0  0  0  0  0  0
  -25.4790  -13.9370   20.4940 C   0  0  0  0  0  0  0  0  0  0  0  0
  -24.4170  -13.1740   20.8870 C   0  0  0  0  0  0  0  0  0  0  0  0
  -24.8450  -11.8130   20.7770 C   0  0  0  0  0  0  0  0  0  0  0  0
  -26.4850  -13.0490   20.1630 N   0  0  0  0  0  0  0  0  0  0  0  0
  -26.1170  -11.7630   20.4010 N   0  0  0  0  0  0  0  0  0  0  0  0
  -24.1000  -10.5600   20.9500 C   0  0  0  0  0  0  0  0  0  0  0  0
  -24.5270   -9.5640   21.8570 C   0  0  0  0  0  3  0  0  0  0  0  0
  -23.7800   -8.3770   22.0210 C   0  0  0  0  0  3  0  0  0  0  0  0
  -22.5950   -8.1760   21.2740 C   0  0  0  0  0  0  0  0  0  0  0  0
  -22.1870   -9.1590   20.3570 C   0  0  0  0  0  3  0  0  0  0  0  0
  -22.9330  -10.3380   20.1930 C   0  0  0  0  0  3  0  0  0  0  0  0
  -21.8180   -7.0450   21.3480 O   0  0  0  0  0  0  0  0  0  0  0  0
  -21.7190   -6.3130   22.5020 C   0  0  0  0  0  0  0  0  0  0  0  0
  -21.2110   -6.8770   23.6920 C   0  0  0  0  0  3  0  0  0  0  0  0
  -21.0600   -6.0720   24.8380 C   0  0  0  0  0  3  0  0  0  0  0  0
  -21.4040   -4.7090   24.7930 C   0  0  0  0  0  0  0  0  0  0  0  0
  -21.9040   -4.1450   23.6050 C   0  0  0  0  0  3  0  0  0  0  0  0
  -22.0590   -4.9460   22.4600 C   0  0  0  0  0  0  0  0  0  0  0  0
  -22.5230   -4.3970   21.3100 F   0  0  0  0  0  0  0  0  0  0  0  0
  -21.2470   -3.9340   25.8910 F   0  0  0  0  0  0  0  0  0  0  0  0
  -23.0480  -13.6680   21.2560 C   0  0  0  0  0  0  0  0  0  0  0  0
  -22.3580  -12.9490   22.1290 N   0  0  0  0  0  0  0  0  0  0  0  0
  -22.6060  -14.7280   20.8090 O   0  0  0  0  0  0  0  0  0  0  0  0
  -22.7370  -12.0870   22.4930 H   0  0  0  0  0  0  0  0  0  0  0  0
  -21.4440  -13.2580   22.4280 H   0  0  0  0  0  0  0  0  0  0  0  0
  -25.6730  -15.3080   20.3520 N   0  0  0  0  0  0  0  0  0  0  0  0
  -24.8930  -15.9570   20.3650 H   0  0  0  0  0  0  0  0  0  0  0  0
  -26.5220  -15.7220   19.9890 H   0  0  0  0  0  0  0  0  0  0  0  0
  -29.5340  -21.6350   20.9320 C   0  0  0  0  0  2  0  0  0  0  0  0
  -30.0650  -24.2510   21.2060 C   0  0  0  0  0  2  0  0  0  0  0  0
  -29.4770  -23.2000   20.3090 C   0  0  0  0  0  3  0  0  0  0  0  0
  -28.6740  -24.6270   20.7650 C   0  0  0  0  0  3  0  0  0  0  0  0
  -28.8490  -26.1640   20.5180 O   0  0  0  0  0  0  0  0  0  0  0  0
  -24.7240  -31.6790   23.2150 C   0  0  0  0  0  0  0  0  0  0  0  0
  -27.7360  -27.0750   20.4260 C   0  0  0  0  0  0  0  0  0  0  0  0
  -23.7050  -30.2000   21.5290 C   0  0  0  0  0  3  0  0  0  0  0  0
  -25.3170  -28.6820   20.2260 C   0  0  0  0  0  0  0  0  0  0  0  0
  -26.2430  -30.6070   21.5040 C   0  0  0  0  0  2  0  0  0  0  0  0
  -26.4330  -29.2080   20.8870 C   0  0  0  0  0  0  0  0  0  0  0  0
  -27.6470  -28.4240   20.9630 C   0  0  0  0  0  3  0  0  0  0  0  0
  -26.5860  -26.6360   19.7440 C   0  0  0  0  0  3  0  0  0  0  0  0
  -25.4060  -27.4080   19.6390 C   0  0  0  0  0  3  0  0  0  0  0  0
  -24.0440  -29.5110   20.1770 C   0  0  0  0  0  2  0  0  0  0  0  0
  -24.9070  -30.8540   22.1390 N   0  0  0  0  0  0  0  0  0  0  0  0
  -23.5960  -31.9060   23.6770 O   0  0  0  0  0  0  0  0  0  0  0  0
  -23.0270  -29.1690   22.4660 C   0  0  0  0  0  0  0  0  0  0  0  0
  -21.7120  -28.9460   22.2920 N   0  0  0  0  0  0  0  0  0  0  0  0
  -23.6900  -28.5710   23.3180 O   0  0  0  0  0  0  0  0  0  0  0  0
  -21.2240  -29.4950   21.5960 H   0  0  0  0  0  0  0  0  0  0  0  0
  -18.3580  -27.6450   22.6990 C   0  0  0  0  0  0  0  0  0  0  0  0
  -20.9010  -27.9740   23.0300 C   0  0  0  0  0  3  0  0  0  0  0  0
  -21.0510  -26.5500   22.4430 C   0  0  0  0  0  2  0  0  0  0  0  0
  -19.9840  -26.2110   21.3970 C   0  0  0  0  0  2  0  0  0  0  0  0
  -18.5850  -26.3100   22.0100 C   0  0  0  0  0  2  0  0  0  0  0  0
  -19.4440  -28.4330   23.1640 C   0  0  0  0  0  0  0  0  0  0  0  0
  -19.1770  -29.6820   23.7640 C   0  0  0  0  0  3  0  0  0  0  0  0
  -17.8540  -30.1450   23.9050 C   0  0  0  0  0  3  0  0  0  0  0  0
  -16.7830  -29.3540   23.4560 C   0  0  0  0  0  3  0  0  0  0  0  0
  -17.0340  -28.1060   22.8610 C   0  0  0  0  0  3  0  0  0  0  0  0
  -25.9220  -32.3960   23.9070 C   0  0  0  0  0  3  0  0  0  0  0  0
  -26.3980  -31.6770   25.2300 C   0  0  1  0  0  0  0  0  0  0  0  0
  -25.2550  -31.3960   26.2360 C   0  0  0  0  0  1  0  0  0  0  0  0
  -27.0850  -30.3320   24.9050 C   0  0  0  0  0  1  0  0  0  0  0  0
  -27.4590  -32.5460   25.9470 C   0  0  0  0  0  1  0  0  0  0  0  0
  -25.5130  -33.7800   24.1990 N   0  0  0  0  0  0  0  0  0  0  0  0
  -25.8140  -34.8410   23.4400 C   0  0  0  0  0  0  0  0  0  0  0  0
  -26.5260  -34.7620   22.4370 O   0  0  0  0  0  0  0  0  0  0  0  0
  -24.8760  -33.9070   24.9720 H   0  0  0  0  0  0  0  0  0  0  0  0
  -23.9840  -36.5160   23.0160 C   0  0  0  0  0  1  0  0  0  0  0  0
  -25.2300  -36.2060   23.8600 C   0  0  0  0  0  3  0  0  0  0  0  0
  -27.2820  -37.2460   24.7230 C   0  0  0  0  0  1  0  0  0  0  0  0
  -26.1960  -37.3200   23.7490 N   0  0  0  0  0  0  0  0  0  0  0  0
  -25.7280  -38.2160   23.8620 H   0  0  0  0  0  0  0  0  0  0  0  0
  -28.5090  -21.1600   18.2310 O   0  0  0  0  0  0  0  0  0  0  0  0
  -26.3460  -20.2340   17.3830 C   0  0  0  0  0  1  0  0  0  0  0  0
  -26.4560  -21.6850   19.5050 C   0  0  0  0  0  1  0  0  0  0  0  0
  -27.0860  -21.3510   18.1380 C   0  0  0  0  0  3  0  0  0  0  0  0
  1  4  2  0
  2  6  1  0
  3  2  2  0
  3 46  1  0
  4 16  1  0
  4  2  1  0
  5  3  1  0
  7  1  1  0
  7  5  2  0
  8 16  1  0
  9 14  1  0
 10 11  1  0
 10  9  1  0
 12 11  1  0
 12 21  1  0
 12 13  1  0
 14  8  1  0
 14 13  1  0
 15  8  2  0
 16 17  1  0
 18 19  2  0
 19 38  1  0
 20 19  1  0
 20 23  1  0
 21 22  1  0
 21 18  1  0
 22 20  2  0
 23 24  1  0
 24 25  2  0
 26 29  1  0
 26 25  1  0
 27 26  2  0
 28 27  1  0
 28 23  2  0
 29 30  1  0
 30 31  1  0
 31 32  2  0
 33 32  1  0
 33 37  1  0
 34 33  2  0
 35 30  2  0
 35 34  1  0
 36 35  1  0
 38 39  1  0
 39 42  1  0
 39 41  1  0
 40 38  2  0
 43 44  1  0
 43 18  1  0
 45 43  1  0
 48 49  1  0
 48 46  1  0
 48 47  1  0
 49 50  1  0
 49 47  1  0
 51 62  2  0
 52 50  1  0
 52 57  1  0
 53 61  1  0
 53 63  1  0
 54 56  1  0
 55 61  1  0
 56 57  2  0
 56 55  1  0
 58 52  2  0
 59 58  1  0
 59 54  2  0
 60 54  1  0
 60 53  1  0
 61 51  1  0
 63 65  2  0
 64 63  1  0
 66 64  1  0
 67 76  2  0
 67 72  1  0
 68 64  1  0
 68 72  1  0
 69 68  1  0
 70 71  1  0
 70 69  1  0
 71 67  1  0
 72 73  2  0
 73 74  1  0
 75 74  2  0
 76 75  1  0
 77 51  1  0
 77 82  1  0
 77 78  1  0
 78 81  1  1
 78 79  1  0
 80 78  1  0
 82 85  1  0
 83 87  1  0
 83 82  1  0
 84 83  2  0
 87 86  1  0
 89 87  1  0
 89 90  1  0
 89 88  1  0
 91  5  1  0
 92 94  1  0
 94 91  1  0
 94 93  1  0
M  ISO  4   8 100  16 100  49 101  50 101
M  END
>  <TORSDO>  (5) 
F 20

>  <SCORE>  (5) 
-13.208

>  <name>  (5) 
4

>  <ligand_id>  (5) 
4

>  <original_smiles>  (5) 
[H]c1nc(OC([H])(C([H])([H])[H])C([H])([H])[H])c(C([H])([H])C2([H])C([H])([H])C2([H])Oc2c([H])c([H])c3c(c2[H])C([H])([H])N(C(=O)C([H])(N([H])C(=O)C([H])(N([H])C([H])([H])[H])C([H])([H])[H])C(C([H])([H])[H])(C([H])([H])[H])C([H])([H])[H])C([H])(C(=O)N([H])C2([H])c4c([H])c([H])c([H])c([H])c4C([H])([H])C([H])([H])C2([H])[H])C3([H])[H])c(C([H])([H])[H])c1N([H])C(=O)N1C([H])([H])C([H])([H])C([H])([H])C([H])(n2nc(-c3c([H])c([H])c(Oc4c([H])c([H])c(F)c([H])c4F)c([H])c3[H])c(C(=O)N([H])[H])c2N([H])[H])C1([H])[H]

>  <smiles>  (5) 
[H]c1nc(OC([H])(C([H])([H])[H])C([H])([H])[H])c(C([H])([H])C2([H])C([H])([H])C2([H])Oc2c([H])c([H])c3c(c2[H])C([H])([H])N(C(=O)C([H])(N([H])C(=O)C([H])(N([H])C([H])([H])[H])C([H])([H])[H])C(C([H])([H])[H])(C([H])([H])[H])C([H])([H])[H])C([H])(C(=O)N([H])C2([H])c4c([H])c([H])c([H])c([H])c4C([H])([H])C([H])([H])C2([H])[H])C3([H])[H])c(C([H])([H])[H])c1N([H])C(=O)N1C([H])([H])C([H])([H])C([H])([H])C([H])(n2nc(-c3c([H])c([H])c(Oc4c([H])c([H])c(F)c([H])c4F)c([H])c3[H])c(C(=O)N([H])[H])c2N([H])[H])C1([H])[H]

$$$$
5:0:0
     RDKit          3D

 94103  0  0  1  0  0  0  0  0999 V2000
  -27.7180  -24.3480   20.6780 C   0  0  0  0  0  3  0  0  0  0  0  0
  -28.0240  -21.9150   20.8620 C   0  0  0  0  0  3  0  0  0  0  0  0
  -29.6820  -23.2780   19.7040 C   0  0  0  0  0  0  0  0  0  0  0  0
  -28.9120  -24.5000   19.9500 C   0  0  0  0  0  0  0  0  0  0  0  0
  -27.2660  -23.0880   21.1280 C   0  0  0  0  0  0  0  0  0  0  0  0
  -29.2540  -21.9570   20.1630 C   0  0  0  0  0  0  0  0  0  0  0  0
  -32.2300  -22.6600   19.2940 C   0  0  0  0  0  2  0  0  0  0  0  0
  -32.1380  -24.1560   19.4450 C   0  0  0  0  0  2  0  0  0  0  0  0
  -30.9530  -23.3820   18.9060 C   0  0  0  0  0  3  0  0  0  0  0  0
  -25.4930  -21.8410   22.1730 C   0  0  0  0  0  1  0  0  0  0  0  0
  -26.0670  -23.0900   21.8080 O   0  0  0  0  0  0  0  0  0  0  0  0
  -29.2380  -25.9460   19.3420 C   0  0  0  0  0  2  0  0  0  0  0  0
  -29.0290  -27.2320   20.0950 O   0  0  0  0  0  0  0  0  0  0  0  0
  -24.7990  -32.0100   23.5410 C   0  0  0  0  0  0  0  0  0  0  0  0
  -27.8460  -28.0080   20.0690 C   0  0  0  0  0  0  0  0  0  0  0  0
  -23.7570  -30.7260   21.7080 C   0  0  0  0  0  3  0  0  0  0  0  0
  -25.3650  -29.4630   20.1630 C   0  0  0  0  0  0  0  0  0  0  0  0
  -26.2720  -31.2380   21.6620 C   0  0  0  0  0  2  0  0  0  0  0  0
  -26.4760  -29.9540   20.8590 C   0  0  0  0  0  0  0  0  0  0  0  0
  -27.7140  -29.2370   20.8050 C   0  0  0  0  0  3  0  0  0  0  0  0
  -26.7010  -27.5780   19.3630 C   0  0  0  0  0  3  0  0  0  0  0  0
  -25.4820  -28.2850   19.4090 C   0  0  0  0  0  3  0  0  0  0  0  0
  -24.0620  -30.2350   20.2680 C   0  0  0  0  0  2  0  0  0  0  0  0
  -24.9580  -31.3400   22.3620 N   0  0  0  0  0  0  0  0  0  0  0  0
  -23.6820  -32.1400   24.0630 O   0  0  0  0  0  0  0  0  0  0  0  0
  -23.1500  -29.5570   22.5230 C   0  0  0  0  0  0  0  0  0  0  0  0
  -21.8520  -29.2790   22.3120 N   0  0  0  0  0  0  0  0  0  0  0  0
  -23.8480  -28.9070   23.3040 O   0  0  0  0  0  0  0  0  0  0  0  0
  -21.3420  -29.8630   21.6620 H   0  0  0  0  0  0  0  0  0  0  0  0
  -18.5840  -27.7390   22.5040 C   0  0  0  0  0  0  0  0  0  0  0  0
  -21.0920  -28.1960   22.9370 C   0  0  0  0  0  3  0  0  0  0  0  0
  -21.3550  -26.8480   22.2250 C   0  0  0  0  0  2  0  0  0  0  0  0
  -20.3350  -26.5400   21.1240 C   0  0  0  0  0  2  0  0  0  0  0  0
  -18.9170  -26.4920   21.7020 C   0  0  0  0  0  2  0  0  0  0  0  0
  -19.6050  -28.5470   23.0700 C   0  0  0  0  0  0  0  0  0  0  0  0
  -19.2410  -29.7150   23.7750 C   0  0  0  0  0  3  0  0  0  0  0  0
  -17.8890  -30.0770   23.9210 C   0  0  0  0  0  3  0  0  0  0  0  0
  -16.8810  -29.2650   23.3710 C   0  0  0  0  0  3  0  0  0  0  0  0
  -17.2300  -28.0970   22.6690 C   0  0  0  0  0  3  0  0  0  0  0  0
  -26.0100  -32.6640   24.2780 C   0  0  0  0  0  3  0  0  0  0  0  0
  -25.6300  -34.0420   24.6210 N   0  0  0  0  0  0  0  0  0  0  0  0
  -25.9750  -35.1280   23.9170 C   0  0  0  0  0  0  0  0  0  0  0  0
  -26.7150  -35.0770   22.9310 O   0  0  0  0  0  0  0  0  0  0  0  0
  -24.9790  -34.1530   25.3850 H   0  0  0  0  0  0  0  0  0  0  0  0
  -24.2100  -36.8720   23.5000 C   0  0  0  0  0  1  0  0  0  0  0  0
  -25.4100  -36.4860   24.3790 C   0  0  0  0  0  3  0  0  0  0  0  0
  -27.4510  -37.4210   25.3750 C   0  0  0  0  0  1  0  0  0  0  0  0
  -26.4100  -37.5760   24.3620 N   0  0  0  0  0  0  0  0  0  0  0  0
  -25.9620  -38.4780   24.5040 H   0  0  0  0  0  0  0  0  0  0  0  0
  -26.4460  -31.8740   25.5720 C   0  0  1  0  0  0  0  0  0  0  0  0
  -25.2760  -31.5600   26.5320 C   0  0  0  0  0  1  0  0  0  0  0  0
  -27.1180  -30.5310   25.1970 C   0  0  0  0  0  1  0  0  0  0  0  0
  -27.5010  -32.6900   26.3550 C   0  0  0  0  0  1  0  0  0  0  0  0
  -30.0050  -20.7580   19.9340 O   0  0  0  0  0  0  0  0  0  0  0  0
  -29.6350  -19.4030   20.4580 C   0  0  0  0  0  3  0  0  0  0  0  0
  -30.6880  -18.1790   20.2790 C   0  0  0  0  0  3  0  0  0  0  0  0
  -31.1380  -15.6160   20.6420 C   0  0  0  0  0  0  0  0  0  0  0  0
  -31.0590  -13.2730   19.7850 C   0  0  0  0  0  2  0  0  0  0  0  0
  -30.2310  -13.2550   18.4810 C   0  0  0  0  0  2  0  0  0  0  0  0
  -28.7310  -13.0830   18.7950 C   0  0  0  0  0  2  0  0  0  0  0  0
  -28.2420  -14.0370   19.9170 C   0  0  0  0  0  3  0  0  0  0  0  0
  -29.2020  -14.0420   21.1280 C   0  0  0  0  0  2  0  0  0  0  0  0
  -30.5390  -14.3780   20.6240 N   0  0  0  0  0  0  0  0  0  0  0  0
  -32.3420  -15.7230   20.3990 O   0  0  0  0  0  0  0  0  0  0  0  0
  -30.3320  -16.7440   20.6890 N   0  0  0  0  0  0  0  0  0  0  0  0
  -29.3560  -16.5650   20.8720 H   0  0  0  0  0  0  0  0  0  0  0  0
  -25.8110  -14.6370   20.4760 C   0  0  0  0  0  0  0  0  0  0  0  0
  -24.7180  -13.8660   20.7650 C   0  0  0  0  0  0  0  0  0  0  0  0
  -25.1750  -12.5120   20.7550 C   0  0  0  0  0  0  0  0  0  0  0  0
  -26.8650  -13.7530   20.3090 N   0  0  0  0  0  0  0  0  0  0  0  0
  -26.4840  -12.4700   20.5380 N   0  0  0  0  0  0  0  0  0  0  0  0
  -24.4290  -11.2530   20.8780 C   0  0  0  0  0  0  0  0  0  0  0  0
  -24.7570  -10.2920   21.8610 C   0  0  0  0  0  3  0  0  0  0  0  0
  -24.0120   -9.0990   21.9710 C   0  0  0  0  0  3  0  0  0  0  0  0
  -22.9250   -8.8570   21.0980 C   0  0  0  0  0  0  0  0  0  0  0  0
  -22.6170   -9.8060   20.1070 C   0  0  0  0  0  3  0  0  0  0  0  0
  -23.3630  -10.9900   19.9950 C   0  0  0  0  0  3  0  0  0  0  0  0
  -22.1610   -7.7150   21.1170 O   0  0  0  0  0  0  0  0  0  0  0  0
  -21.9520   -7.0070   22.2730 C   0  0  0  0  0  0  0  0  0  0  0  0
  -21.3260   -7.5880   23.3990 C   0  0  0  0  0  3  0  0  0  0  0  0
  -21.0680   -6.8040   24.5410 C   0  0  0  0  0  3  0  0  0  0  0  0
  -21.4250   -5.4430   24.5580 C   0  0  0  0  0  0  0  0  0  0  0  0
  -22.0450   -4.8630   23.4370 C   0  0  0  0  0  3  0  0  0  0  0  0
  -22.3040   -5.6430   22.2970 C   0  0  0  0  0  0  0  0  0  0  0  0
  -22.8820   -5.0740   21.2100 F   0  0  0  0  0  0  0  0  0  0  0  0
  -21.1700   -4.6880   25.6520 F   0  0  0  0  0  0  0  0  0  0  0  0
  -23.3090  -14.3510   20.9400 C   0  0  0  0  0  0  0  0  0  0  0  0
  -22.5170  -13.6540   21.7470 N   0  0  0  0  0  0  0  0  0  0  0  0
  -22.9160  -15.3820   20.3950 O   0  0  0  0  0  0  0  0  0  0  0  0
  -22.8460  -12.8210   22.2120 H   0  0  0  0  0  0  0  0  0  0  0  0
  -21.5690  -13.9650   21.9090 H   0  0  0  0  0  0  0  0  0  0  0  0
  -25.9920  -16.0070   20.3130 N   0  0  0  0  0  0  0  0  0  0  0  0
  -25.2050  -16.6480   20.3220 H   0  0  0  0  0  0  0  0  0  0  0  0
  -26.8410  -16.4300   19.9590 H   0  0  0  0  0  0  0  0  0  0  0  0
  1  5  1  0
  2  5  2  0
  3  4  1  0
  3  6  2  0
  4  1  2  0
  5 11  1  0
  6  2  1  0
  7  8  1  0
  9  7  1  0
  9  8  1  0
  9  3  1  0
 11 10  1  0
 12  4  1  0
 12 13  1  0
 14 25  2  0
 15 13  1  0
 15 20  1  0
 16 24  1  0
 16 26  1  0
 17 23  1  0
 17 19  1  0
 18 24  1  0
 19 18  1  0
 20 19  2  0
 21 22  1  0
 21 15  2  0
 22 17  2  0
 23 16  1  0
 24 14  1  0
 26 28  2  0
 27 26  1  0
 29 27  1  0
 30 39  2  0
 30 35  1  0
 31 27  1  0
 31 35  1  0
 32 31  1  0
 33 34  1  0
 33 32  1  0
 34 30  1  0
 35 36  2  0
 36 37  1  0
 38 37  2  0
 39 38  1  0
 40 14  1  0
 40 41  1  0
 40 50  1  0
 41 44  1  0
 42 46  1  0
 42 41  1  0
 43 42  2  0
 46 45  1  0
 48 46  1  0
 48 49  1  0
 48 47  1  0
 50 53  1  1
 50 51  1  0
 52 50  1  0
 54  6  1  0
 54 55  1  0
 56 55  2  0
 56 65  1  0
 57 65  1  0
 58 63  1  0
 59 60  1  0
 59 58  1  0
 61 60  1  0
 61 70  1  0
 61 62  1  0
 63 57  1  0
 63 62  1  0
 64 57  2  0
 65 66  1  0
 67 68  2  0
 68 87  1  0
 69 68  1  0
 69 72  1  0
 70 67  1  0
 70 71  1  0
 71 69  2  0
 72 73  1  0
 73 74  2  0
 75 78  1  0
 75 74  1  0
 76 75  2  0
 77 76  1  0
 77 72  2  0
 78 79  1  0
 79 84  2  0
 79 80  1  0
 80 81  2  0
 81 82  1  0
 82 86  1  0
 83 82  2  0
 84 83  1  0
 85 84  1  0
 87 88  1  0
 88 91  1  0
 88 90  1  0
 89 87  2  0
 92 93  1  0
 92 67  1  0
 94 92  1  0
M  ISO  4  12 101  13 101  57 100  65 100
M  END
>  <TORSDO>  (6) 
F 22

>  <SCORE>  (6) 
-7.172

>  <name>  (6) 
5

>  <ligand_id>  (6) 
5

>  <original_smiles>  (6) 
[H]c1c([H])c([H])c2c(c1[H])C([H])([H])C([H])([H])C([H])([H])C2([H])N([H])C(=O)C1([H])N(C(=O)C([H])(N([H])C(=O)C([H])(N([H])C([H])([H])[H])C([H])([H])[H])C(C([H])([H])[H])(C([H])([H])[H])C([H])([H])[H])C([H])([H])c2c([H])c(OC([H])([H])c3c([H])c(OC([H])([H])[H])c([H])c(OC([H])([H])C([H])([H])N([H])C(=O)N4C([H])([H])C([H])([H])C([H])([H])C([H])(n5nc(-c6c([H])c([H])c(Oc7c([H])c([H])c(F)c([H])c7F)c([H])c6[H])c(C(=O)N([H])[H])c5N([H])[H])C4([H])[H])c3C3([H])C([H])([H])C3([H])[H])c([H])c([H])c2C1([H])[H]

>  <smiles>  (6) 
[H]c1c([H])c([H])c2c(c1[H])C([H])([H])C([H])([H])C([H])([H])C2([H])N([H])C(=O)C1([H])N(C(=O)C([H])(N([H])C(=O)C([H])(N([H])C([H])([H])[H])C([H])([H])[H])C(C([H])([H])[H])(C([H])([H])[H])C([H])([H])[H])C([H])([H])c2c([H])c(OC([H])([H])c3c([H])c(OC([H])([H])[H])c([H])c(OC([H])([H])C([H])([H])N([H])C(=O)N4C([H])([H])C([H])([H])C([H])([H])C([H])(n5nc(-c6c([H])c([H])c(Oc7c([H])c([H])c(F)c([H])c7F)c([H])c6[H])c(C(=O)N([H])[H])c5N([H])[H])C4([H])[H])c3C3([H])C([H])([H])C3([H])[H])c([H])c([H])c2C1([H])[H]

$$$$
6:0:0
     RDKit          3D

 93102  0  0  1  0  0  0  0  0999 V2000
  -30.8670  -21.8880   20.9760 C   0  0  0  0  0  2  0  0  0  0  0  0
  -29.5690  -22.5830   22.3930 C   0  0  0  0  0  2  0  0  0  0  0  0
  -29.3440  -22.0720   20.9570 C   0  0  2  0  0  0  0  0  0  0  0  0
  -31.0010  -22.6650   22.1930 O   0  0  0  0  0  0  0  0  0  0  0  0
  -28.4290  -20.8240   20.7650 C   0  0  0  0  0  2  0  0  0  0  0  0
  -27.3590  -19.5000   18.8770 C   0  0  0  0  0  1  0  0  0  0  0  0
  -28.6990  -19.8710   19.5490 C   0  0  0  0  0  3  0  0  0  0  0  0
  -31.0980  -14.4970   20.0310 C   0  0  0  0  0  0  0  0  0  0  0  0
  -30.7570  -12.2310   19.1250 C   0  0  0  0  0  2  0  0  0  0  0  0
  -29.8190  -12.3210   17.9040 C   0  0  0  0  0  2  0  0  0  0  0  0
  -28.3460  -12.2410   18.3490 C   0  0  0  0  0  2  0  0  0  0  0  0
  -28.0180  -13.2000   19.5250 C   0  0  0  0  0  3  0  0  0  0  0  0
  -29.0770  -13.1070   20.6440 C   0  0  0  0  0  2  0  0  0  0  0  0
  -30.3890  -13.3330   20.0300 N   0  0  0  0  0  0  0  0  0  0  0  0
  -32.2870  -14.5200   19.6930 O   0  0  0  0  0  0  0  0  0  0  0  0
  -29.7330  -17.6980   18.5800 C   0  0  0  0  0  2  0  0  0  0  0  0
  -29.1410  -17.6470   20.9740 C   0  0  0  0  0  2  0  0  0  0  0  0
  -30.7210  -16.5380   18.8160 C   0  0  0  0  0  2  0  0  0  0  0  0
  -30.1200  -16.4470   21.1790 C   0  0  0  0  0  2  0  0  0  0  0  0
  -29.5830  -18.5910   19.8270 C   0  0  0  0  0  3  0  0  0  0  0  0
  -30.3720  -15.6540   19.9540 N   0  0  0  0  0  0  0  0  0  0  0  0
  -25.6650  -13.9020   20.2830 C   0  0  0  0  0  0  0  0  0  0  0  0
  -24.5740  -13.1740   20.6780 C   0  0  0  0  0  0  0  0  0  0  0  0
  -24.9820  -11.8050   20.6520 C   0  0  0  0  0  0  0  0  0  0  0  0
  -26.6690  -12.9780   20.0390 N   0  0  0  0  0  0  0  0  0  0  0  0
  -26.2630  -11.7130   20.3200 N   0  0  0  0  0  0  0  0  0  0  0  0
  -24.2110  -10.5740   20.8650 C   0  0  0  0  0  0  0  0  0  0  0  0
  -24.6000   -9.6140   21.8260 C   0  0  0  0  0  3  0  0  0  0  0  0
  -23.8310   -8.4480   22.0250 C   0  0  0  0  0  3  0  0  0  0  0  0
  -22.6580   -8.2320   21.2640 C   0  0  0  0  0  0  0  0  0  0  0  0
  -22.2880   -9.1800   20.2920 C   0  0  0  0  0  3  0  0  0  0  0  0
  -23.0580  -10.3380   20.0910 C   0  0  0  0  0  3  0  0  0  0  0  0
  -21.8620   -7.1170   21.3700 O   0  0  0  0  0  0  0  0  0  0  0  0
  -21.7410   -6.4310   22.5520 C   0  0  0  0  0  0  0  0  0  0  0  0
  -21.2920   -7.0570   23.7360 C   0  0  0  0  0  3  0  0  0  0  0  0
  -21.1160   -6.2980   24.9110 C   0  0  0  0  0  3  0  0  0  0  0  0
  -21.3780   -4.9150   24.9030 C   0  0  0  0  0  0  0  0  0  0  0  0
  -21.8190   -4.2890   23.7240 C   0  0  0  0  0  3  0  0  0  0  0  0
  -21.9970   -5.0440   22.5510 C   0  0  0  0  0  0  0  0  0  0  0  0
  -22.4020   -4.4320   21.4120 F   0  0  0  0  0  0  0  0  0  0  0  0
  -21.2010   -4.1840   26.0280 F   0  0  0  0  0  0  0  0  0  0  0  0
  -23.2030  -13.7080   20.9690 C   0  0  0  0  0  0  0  0  0  0  0  0
  -22.4680  -13.0560   21.8630 N   0  0  0  0  0  0  0  0  0  0  0  0
  -22.7910  -14.7400   20.4390 O   0  0  0  0  0  0  0  0  0  0  0  0
  -22.8130  -12.2210   22.3140 H   0  0  0  0  0  0  0  0  0  0  0  0
  -21.5470  -13.3970   22.1010 H   0  0  0  0  0  0  0  0  0  0  0  0
  -25.8830  -15.2630   20.0910 N   0  0  0  0  0  0  0  0  0  0  0  0
  -25.1530  -15.9540   20.2180 H   0  0  0  0  0  0  0  0  0  0  0  0
  -26.7580  -15.6620   19.7730 H   0  0  0  0  0  0  0  0  0  0  0  0
  -29.0720  -23.1490   20.0190 O   0  0  0  0  0  0  0  0  0  0  0  0
  -28.0450  -24.1260   20.3050 C   0  0  0  0  0  2  0  0  0  0  0  0
  -28.5570  -25.5310   20.7810 C   0  0  0  0  0  2  0  0  0  0  0  0
  -28.4710  -26.6410   19.8580 O   0  0  0  0  0  0  0  0  0  0  0  0
  -24.6020  -31.7240   23.1050 C   0  0  0  0  0  0  0  0  0  0  0  0
  -27.3140  -27.3930   19.9090 C   0  0  0  0  0  0  0  0  0  0  0  0
  -23.4280  -30.3680   21.4030 C   0  0  0  0  0  3  0  0  0  0  0  0
  -24.9140  -28.8930   19.9410 C   0  0  0  0  0  0  0  0  0  0  0  0
  -25.9540  -30.7550   21.2440 C   0  0  0  0  0  2  0  0  0  0  0  0
  -26.0620  -29.4020   20.5620 C   0  0  0  0  0  0  0  0  0  0  0  0
  -27.2690  -28.6600   20.5440 C   0  0  0  0  0  3  0  0  0  0  0  0
  -26.1550  -26.9090   19.2730 C   0  0  0  0  0  3  0  0  0  0  0  0
  -24.9560  -27.6470   19.2920 C   0  0  0  0  0  3  0  0  0  0  0  0
  -23.6610  -29.7400   20.0020 C   0  0  0  0  0  2  0  0  0  0  0  0
  -24.6800  -30.9630   21.9750 N   0  0  0  0  0  0  0  0  0  0  0  0
  -23.5120  -31.9670   23.6430 O   0  0  0  0  0  0  0  0  0  0  0  0
  -22.7790  -29.3060   22.3200 C   0  0  0  0  0  0  0  0  0  0  0  0
  -21.4540  -29.1310   22.1880 N   0  0  0  0  0  0  0  0  0  0  0  0
  -23.4640  -28.6470   23.1050 O   0  0  0  0  0  0  0  0  0  0  0  0
  -20.9640  -29.7210   21.5300 H   0  0  0  0  0  0  0  0  0  0  0  0
  -18.0740  -27.9390   22.6680 C   0  0  0  0  0  0  0  0  0  0  0  0
  -20.6380  -28.1600   22.9170 C   0  0  0  0  0  3  0  0  0  0  0  0
  -20.7200  -26.7610   22.2630 C   0  0  0  0  0  2  0  0  0  0  0  0
  -19.6000  -26.5030   21.2490 C   0  0  0  0  0  2  0  0  0  0  0  0
  -18.2290  -26.6270   21.9190 C   0  0  0  0  0  2  0  0  0  0  0  0
  -19.2060  -28.6660   23.1210 C   0  0  0  0  0  0  0  0  0  0  0  0
  -19.0090  -29.8980   23.7830 C   0  0  0  0  0  3  0  0  0  0  0  0
  -17.7120  -30.4030   23.9920 C   0  0  0  0  0  3  0  0  0  0  0  0
  -16.5940  -29.6720   23.5530 C   0  0  0  0  0  3  0  0  0  0  0  0
  -16.7760  -28.4410   22.8980 C   0  0  0  0  0  3  0  0  0  0  0  0
  -25.8760  -32.3470   23.7600 C   0  0  0  0  0  3  0  0  0  0  0  0
  -25.5550  -33.7350   24.1160 N   0  0  0  0  0  0  0  0  0  0  0  0
  -25.8960  -34.8050   23.3840 C   0  0  0  0  0  0  0  0  0  0  0  0
  -26.5840  -34.7270   22.3610 O   0  0  0  0  0  0  0  0  0  0  0  0
  -24.9450  -33.8690   24.9080 H   0  0  0  0  0  0  0  0  0  0  0  0
  -24.1660  -36.5980   23.0360 C   0  0  0  0  0  1  0  0  0  0  0  0
  -25.3950  -36.1810   23.8600 C   0  0  0  0  0  3  0  0  0  0  0  0
  -27.5090  -37.0570   24.7490 C   0  0  0  0  0  1  0  0  0  0  0  0
  -26.4250  -37.2400   23.7870 N   0  0  0  0  0  0  0  0  0  0  0  0
  -26.0130  -38.1550   23.9460 H   0  0  0  0  0  0  0  0  0  0  0  0
  -26.3770  -31.5490   25.0260 C   0  0  1  0  0  0  0  0  0  0  0  0
  -25.2690  -31.2800   26.0710 C   0  0  0  0  0  1  0  0  0  0  0  0
  -26.9730  -30.1840   24.6090 C   0  0  0  0  0  1  0  0  0  0  0  0
  -27.5130  -32.3350   25.7240 C   0  0  0  0  0  1  0  0  0  0  0  0
  1  4  1  0
  3  1  1  0
  3  2  1  0
  4  2  1  0
  3  5  1  1
  7  6  1  0
  7  5  1  0
  9 14  1  0
 10 11  1  0
 10  9  1  0
 12 11  1  0
 12 25  1  0
 12 13  1  0
 14  8  1  0
 14 13  1  0
 15  8  2  0
 16 18  1  0
 16 20  1  0
 17 19  1  0
 18 21  1  0
 20  7  1  0
 20 17  1  0
 21  8  1  0
 21 19  1  0
 22 23  2  0
 23 42  1  0
 24 23  1  0
 24 27  1  0
 25 22  1  0
 25 26  1  0
 26 24  2  0
 27 28  1  0
 28 29  2  0
 30 33  1  0
 30 29  1  0
 31 30  2  0
 32 31  1  0
 32 27  2  0
 33 34  1  0
 34 35  1  0
 35 36  2  0
 37 36  1  0
 37 41  1  0
 38 37  2  0
 39 34  2  0
 39 38  1  0
 40 39  1  0
 42 43  1  0
 43 46  1  0
 43 45  1  0
 44 42  2  0
 47 48  1  0
 47 22  1  0
 49 47  1  0
 50 51  1  0
 50  3  1  0
 51 52  1  0
 53 55  1  0
 53 52  1  0
 54 65  2  0
 55 60  1  0
 56 64  1  0
 56 66  1  0
 57 63  1  0
 57 59  1  0
 58 64  1  0
 59 58  1  0
 60 59  2  0
 61 62  1  0
 61 55  2  0
 62 57  2  0
 63 56  1  0
 64 54  1  0
 66 68  2  0
 67 66  1  0
 69 67  1  0
 70 79  2  0
 70 75  1  0
 71 67  1  0
 71 75  1  0
 72 71  1  0
 73 74  1  0
 73 72  1  0
 74 70  1  0
 75 76  2  0
 76 77  1  0
 78 77  2  0
 79 78  1  0
 80 54  1  0
 80 81  1  0
 80 90  1  0
 81 84  1  0
 82 86  1  0
 82 81  1  0
 83 82  2  0
 86 85  1  0
 88 86  1  0
 88 89  1  0
 88 87  1  0
 90 93  1  1
 90 91  1  0
 92 90  1  0
M  ISO  4   8 100  21 100  52 101  53 101
M  END
>  <TORSDO>  (7) 
F 21

>  <SCORE>  (7) 
-13.524

>  <name>  (7) 
6

>  <ligand_id>  (7) 
6

>  <original_smiles>  (7) 
[H]c1c([H])c([H])c2c(c1[H])C([H])([H])C([H])([H])C([H])([H])C2([H])N([H])C(=O)C1([H])N(C(=O)C([H])(N([H])C(=O)C([H])(N([H])C([H])([H])[H])C([H])([H])[H])C(C([H])([H])[H])(C([H])([H])[H])C([H])([H])[H])C([H])([H])c2c([H])c(OC([H])([H])C([H])([H])OC3(C([H])([H])C([H])(C([H])([H])[H])C4([H])C([H])([H])C([H])([H])N(C(=O)N5C([H])([H])C([H])([H])C([H])([H])C([H])(n6nc(-c7c([H])c([H])c(Oc8c([H])c([H])c(F)c([H])c8F)c([H])c7[H])c(C(=O)N([H])[H])c6N([H])[H])C5([H])[H])C([H])([H])C4([H])[H])C([H])([H])OC3([H])[H])c([H])c([H])c2C1([H])[H]

>  <smiles>  (7) 
[H]c1c([H])c([H])c2c(c1[H])C([H])([H])C([H])([H])C([H])([H])C2([H])N([H])C(=O)C1([H])N(C(=O)C([H])(N([H])C(=O)C([H])(N([H])C([H])([H])[H])C([H])([H])[H])C(C([H])([H])[H])(C([H])([H])[H])C([H])([H])[H])C([H])([H])c2c([H])c(OC([H])([H])C([H])([H])OC3(C([H])([H])C([H])(C([H])([H])[H])C4([H])C([H])([H])C([H])([H])N(C(=O)N5C([H])([H])C([H])([H])C([H])([H])C([H])(n6nc(-c7c([H])c([H])c(Oc8c([H])c([H])c(F)c([H])c8F)c([H])c7[H])c(C(=O)N([H])[H])c6N([H])[H])C5([H])[H])C([H])([H])C4([H])[H])C([H])([H])OC3([H])[H])c([H])c([H])c2C1([H])[H]

$$$$
7:0:0
     RDKit          3D

102112  0  0  1  0  0  0  0  0999 V2000
  -31.2280  -23.3560   20.6800 C   0  0  0  0  0  3  0  0  0  0  0  0
  -28.8490  -23.6560   20.3020 C   0  0  0  0  0  3  0  0  0  0  0  0
  -30.0830  -24.1680   20.7510 C   0  0  0  0  0  0  0  0  0  0  0  0
  -29.9440  -21.5870   19.5780 C   0  0  0  0  0  0  0  0  0  0  0  0
  -31.1710  -22.0620   20.1130 C   0  0  0  0  0  0  0  0  0  0  0  0
  -28.7650  -22.3720   19.7060 C   0  0  0  0  0  0  0  0  0  0  0  0
  -33.4390  -21.5910   20.7840 C   0  0  0  0  0  1  0  0  0  0  0  0
  -32.2820  -21.2490   20.0310 O   0  0  0  0  0  0  0  0  0  0  0  0
  -26.4480  -22.7220   19.1390 C   0  0  0  0  0  1  0  0  0  0  0  0
  -27.5850  -21.8650   19.1980 O   0  0  0  0  0  0  0  0  0  0  0  0
  -30.2410  -25.5820   21.3090 C   0  0  0  0  0  2  0  0  0  0  0  0
  -28.9850  -26.4720   21.3780 C   0  0  0  0  0  2  0  0  0  0  0  0
  -28.4150  -26.7300   20.0940 O   0  0  0  0  0  0  0  0  0  0  0  0
  -24.6190  -31.8860   23.2330 C   0  0  0  0  0  0  0  0  0  0  0  0
  -27.2570  -27.4720   20.1320 C   0  0  0  0  0  0  0  0  0  0  0  0
  -23.3940  -30.4770   21.6040 C   0  0  0  0  0  3  0  0  0  0  0  0
  -24.8410  -28.9380   20.1660 C   0  0  0  0  0  0  0  0  0  0  0  0
  -25.9110  -30.8510   21.3750 C   0  0  0  0  0  2  0  0  0  0  0  0
  -25.9970  -29.4780   20.7430 C   0  0  0  0  0  0  0  0  0  0  0  0
  -27.2070  -28.7520   20.7300 C   0  0  0  0  0  3  0  0  0  0  0  0
  -26.0890  -26.9390   19.5480 C   0  0  0  0  0  3  0  0  0  0  0  0
  -24.8810  -27.6650   19.5670 C   0  0  0  0  0  3  0  0  0  0  0  0
  -23.5930  -29.7910   20.2230 C   0  0  0  0  0  2  0  0  0  0  0  0
  -24.6610  -31.0840   22.1310 N   0  0  0  0  0  0  0  0  0  0  0  0
  -23.5430  -32.1630   23.7820 O   0  0  0  0  0  0  0  0  0  0  0  0
  -22.7560  -29.4550   22.5720 C   0  0  0  0  0  0  0  0  0  0  0  0
  -21.4310  -29.2730   22.4540 N   0  0  0  0  0  0  0  0  0  0  0  0
  -23.4460  -28.8310   23.3830 O   0  0  0  0  0  0  0  0  0  0  0  0
  -20.9370  -29.8320   21.7740 H   0  0  0  0  0  0  0  0  0  0  0  0
  -18.0630  -28.0690   22.9620 C   0  0  0  0  0  0  0  0  0  0  0  0
  -20.6190  -28.3370   23.2290 C   0  0  0  0  0  3  0  0  0  0  0  0
  -20.7270  -26.9040   22.6620 C   0  0  0  0  0  2  0  0  0  0  0  0
  -19.6270  -26.5710   21.6480 C   0  0  0  0  0  2  0  0  0  0  0  0
  -18.2440  -26.7150   22.2920 C   0  0  0  0  0  2  0  0  0  0  0  0
  -19.1800  -28.8360   23.3860 C   0  0  0  0  0  0  0  0  0  0  0  0
  -18.9600  -30.1030   23.9690 C   0  0  0  0  0  3  0  0  0  0  0  0
  -17.6560  -30.6040   24.1300 C   0  0  0  0  0  3  0  0  0  0  0  0
  -16.5520  -29.8330   23.7240 C   0  0  0  0  0  3  0  0  0  0  0  0
  -16.7570  -28.5670   23.1450 C   0  0  0  0  0  3  0  0  0  0  0  0
  -25.9120  -32.5150   23.8400 C   0  0  0  0  0  3  0  0  0  0  0  0
  -26.4520  -31.7380   25.1020 C   0  0  1  0  0  0  0  0  0  0  0  0
  -25.3770  -31.4910   26.1870 C   0  0  0  0  0  1  0  0  0  0  0  0
  -27.0310  -30.3640   24.6860 C   0  0  0  0  0  1  0  0  0  0  0  0
  -27.6080  -32.5340   25.7530 C   0  0  0  0  0  1  0  0  0  0  0  0
  -25.6040  -33.9100   24.1780 N   0  0  0  0  0  0  0  0  0  0  0  0
  -25.9240  -34.9650   23.4180 C   0  0  0  0  0  0  0  0  0  0  0  0
  -26.5810  -34.8680   22.3780 O   0  0  0  0  0  0  0  0  0  0  0  0
  -25.0170  -34.0610   24.9860 H   0  0  0  0  0  0  0  0  0  0  0  0
  -24.1810  -36.7510   23.0990 C   0  0  0  0  0  1  0  0  0  0  0  0
  -25.4380  -36.3490   23.8860 C   0  0  0  0  0  3  0  0  0  0  0  0
  -27.5840  -37.2380   24.6820 C   0  0  0  0  0  1  0  0  0  0  0  0
  -26.4640  -37.4070   23.7610 N   0  0  0  0  0  0  0  0  0  0  0  0
  -26.0560  -38.3230   23.9260 H   0  0  0  0  0  0  0  0  0  0  0  0
  -29.9290  -20.3050   18.7250 C   0  0  0  0  0  3  0  0  0  0  0  0
  -31.8220  -17.0940   19.3950 C   0  0  0  0  0  2  0  0  0  0  0  0
  -31.7400  -18.4960   18.8050 C   0  0  0  0  0  2  0  0  0  0  0  0
  -29.6920  -18.0560   19.9090 C   0  0  0  0  0  2  0  0  0  0  0  0
  -30.6610  -16.9600   20.4070 C   0  0  0  0  0  3  0  0  0  0  0  0
  -30.5750  -19.1540   19.4430 N   0  0  2  0  0  4  0  0  0  0  0  0
  -30.9580  -19.5770   20.2750 H   0  0  0  0  0  0  0  0  0  0  0  0
  -30.7230  -14.4410   20.4270 C   0  0  0  0  0  0  0  0  0  0  0  0
  -30.3210  -12.2860   19.3460 C   0  0  0  0  0  2  0  0  0  0  0  0
  -29.3920  -12.4940   18.1360 C   0  0  0  0  0  2  0  0  0  0  0  0
  -27.9190  -12.3820   18.5690 C   0  0  0  0  0  2  0  0  0  0  0  0
  -27.5890  -13.2480   19.8160 C   0  0  0  0  0  3  0  0  0  0  0  0
  -28.6490  -13.0800   20.9280 C   0  0  0  0  0  2  0  0  0  0  0  0
  -29.9700  -13.3160   20.3330 N   0  0  0  0  0  0  0  0  0  0  0  0
  -31.9160  -14.4450   20.1410 O   0  0  0  0  0  0  0  0  0  0  0  0
  -30.0630  -15.6070   20.5710 N   0  0  0  0  0  0  0  0  0  0  0  0
  -29.0770  -15.5480   20.7820 H   0  0  0  0  0  0  0  0  0  0  0  0
  -25.1980  -13.8610   20.5350 C   0  0  0  0  0  0  0  0  0  0  0  0
  -24.1280  -13.0940   20.9090 C   0  0  0  0  0  0  0  0  0  0  0  0
  -24.5860  -11.7400   20.8840 C   0  0  0  0  0  0  0  0  0  0  0  0
  -26.2400  -12.9780   20.3070 N   0  0  0  0  0  0  0  0  0  0  0  0
  -25.8760  -11.6970   20.5750 N   0  0  0  0  0  0  0  0  0  0  0  0
  -23.8560  -10.4800   21.0760 C   0  0  0  0  0  0  0  0  0  0  0  0
  -24.2990   -9.5020   21.9930 C   0  0  0  0  0  3  0  0  0  0  0  0
  -23.5690   -8.3070   22.1740 C   0  0  0  0  0  3  0  0  0  0  0  0
  -22.3820   -8.0830   21.4370 C   0  0  0  0  0  0  0  0  0  0  0  0
  -21.9590   -9.0500   20.5080 C   0  0  0  0  0  3  0  0  0  0  0  0
  -22.6890  -10.2360   20.3260 C   0  0  0  0  0  3  0  0  0  0  0  0
  -21.6220   -6.9420   21.5290 O   0  0  0  0  0  0  0  0  0  0  0  0
  -21.6050   -6.1790   22.6690 C   0  0  0  0  0  0  0  0  0  0  0  0
  -21.2410   -6.7180   23.9220 C   0  0  0  0  0  3  0  0  0  0  0  0
  -21.1680   -5.8820   25.0550 C   0  0  0  0  0  3  0  0  0  0  0  0
  -21.4510   -4.5080   24.9350 C   0  0  0  0  0  0  0  0  0  0  0  0
  -21.8090   -3.9680   23.6870 C   0  0  0  0  0  3  0  0  0  0  0  0
  -21.8820   -4.8010   22.5580 C   0  0  0  0  0  0  0  0  0  0  0  0
  -22.2070   -4.2720   21.3520 F   0  0  0  0  0  0  0  0  0  0  0  0
  -21.3740   -3.7030   26.0210 F   0  0  0  0  0  0  0  0  0  0  0  0
  -22.7320  -13.5760   21.1810 C   0  0  0  0  0  0  0  0  0  0  0  0
  -22.0030  -12.8850   22.0480 N   0  0  0  0  0  0  0  0  0  0  0  0
  -22.2980  -14.6010   20.6560 O   0  0  0  0  0  0  0  0  0  0  0  0
  -22.3670  -12.0550   22.4930 H   0  0  0  0  0  0  0  0  0  0  0  0
  -21.0670  -13.1890   22.2720 H   0  0  0  0  0  0  0  0  0  0  0  0
  -25.3680  -15.2300   20.3490 N   0  0  0  0  0  0  0  0  0  0  0  0
  -24.6030  -15.8880   20.4420 H   0  0  0  0  0  0  0  0  0  0  0  0
  -26.2090  -15.6560   19.9820 H   0  0  0  0  0  0  0  0  0  0  0  0
  -30.3720  -21.2390   15.2930 C   0  0  0  0  0  2  0  0  0  0  0  0
  -30.1200  -21.9570   16.6220 C   0  0  0  0  0  2  0  0  0  0  0  0
  -30.0710  -19.9420   16.0510 C   0  0  0  0  0  2  0  0  0  0  0  0
  -30.5340  -20.6530   17.3390 C   0  0  0  0  0  3  0  0  0  0  0  0
  1  3  1  0
  2  3  2  0
  3 11  1  0
  4  6  2  0
  4  5  1  0
  5  1  2  0
  6  2  1  0
  8  5  1  0
  8  7  1  0
  9 10  1  0
 10  6  1  0
 11 12  1  0
 13 15  1  0
 13 12  1  0
 14 25  2  0
 15 20  1  0
 16 24  1  0
 16 26  1  0
 17 23  1  0
 17 19  1  0
 18 24  1  0
 19 18  1  0
 20 19  2  0
 21 22  1  0
 21 15  2  0
 22 17  2  0
 23 16  1  0
 24 14  1  0
 26 28  2  0
 27 26  1  0
 29 27  1  0
 30 39  2  0
 30 35  1  0
 31 27  1  0
 31 35  1  0
 32 31  1  0
 33 34  1  0
 33 32  1  0
 34 30  1  0
 35 36  2  0
 36 37  1  0
 38 37  2  0
 39 38  1  0
 40 14  1  0
 40 45  1  0
 40 41  1  0
 41 44  1  1
 41 42  1  0
 43 41  1  0
 45 48  1  0
 46 50  1  0
 46 45  1  0
 47 46  2  0
 50 49  1  0
 52 50  1  0
 52 53  1  0
 52 51  1  0
 54102  1  0
 54 59  1  0
 54  4  1  0
 55 58  1  0
 56 55  1  0
 56 59  1  0
 57 58  1  0
 58 69  1  0
 59 57  1  0
 59 60  1  1
 61 69  1  0
 62 67  1  0
 63 64  1  0
 63 62  1  0
 65 64  1  0
 65 74  1  0
 65 66  1  0
 67 61  1  0
 67 66  1  0
 68 61  2  0
 69 70  1  0
 71 72  2  0
 72 91  1  0
 73 72  1  0
 73 76  1  0
 74 71  1  0
 74 75  1  0
 75 73  2  0
 76 77  1  0
 77 78  2  0
 79 82  1  0
 79 78  1  0
 80 79  2  0
 81 80  1  0
 81 76  2  0
 82 83  1  0
 83 84  1  0
 84 85  2  0
 86 85  1  0
 86 90  1  0
 87 86  2  0
 88 83  2  0
 88 87  1  0
 89 88  1  0
 91 92  1  0
 92 95  1  0
 92 94  1  0
 93 91  2  0
 96 97  1  0
 96 71  1  0
 98 96  1  0
 99101  1  0
 99100  1  0
100102  1  0
101102  1  0
M  ISO  4  12 101  13 101  61 100  69 100
M  END
>  <TORSDO>  (8) 
F 23

>  <SCORE>  (8) 
-13.165

>  <name>  (8) 
7

>  <ligand_id>  (8) 
7

>  <original_smiles>  (8) 
[H]c1c([H])c([H])c2c(c1[H])C([H])([H])C([H])([H])C([H])([H])C2([H])N([H])C(=O)C1([H])N(C(=O)C([H])(N([H])C(=O)C([H])(N([H])C([H])([H])[H])C([H])([H])[H])C(C([H])([H])[H])(C([H])([H])[H])C([H])([H])[H])C([H])([H])c2c([H])c(OC([H])([H])C([H])([H])c3c([H])c(OC([H])([H])[H])c(C([H])(C4([H])C([H])([H])C([H])([H])C4([H])[H])[N+]4([H])C([H])([H])C([H])([H])C([H])(N([H])C(=O)N5C([H])([H])C([H])([H])C([H])([H])C([H])(n6nc(-c7c([H])c([H])c(Oc8c([H])c([H])c(F)c([H])c8F)c([H])c7[H])c(C(=O)N([H])[H])c6N([H])[H])C5([H])[H])C4([H])[H])c(OC([H])([H])[H])c3[H])c([H])c([H])c2C1([H])[H]

>  <smiles>  (8) 
[H]c1c([H])c([H])c2c(c1[H])C([H])([H])C([H])([H])C([H])([H])C2([H])N([H])C(=O)C1([H])N(C(=O)C([H])(N([H])C(=O)C([H])(N([H])C([H])([H])[H])C([H])([H])[H])C(C([H])([H])[H])(C([H])([H])[H])C([H])([H])[H])C([H])([H])c2c([H])c(OC([H])([H])C([H])([H])c3c([H])c(OC([H])([H])[H])c(C([H])(C4([H])C([H])([H])C([H])([H])C4([H])[H])[N+]4([H])C([H])([H])C([H])([H])C([H])(N([H])C(=O)N5C([H])([H])C([H])([H])C([H])([H])C([H])(n6nc(-c7c([H])c([H])c(Oc8c([H])c([H])c(F)c([H])c8F)c([H])c7[H])c(C(=O)N([H])[H])c6N([H])[H])C5([H])[H])C4([H])[H])c(OC([H])([H])[H])c3[H])c([H])c([H])c2C1([H])[H]

$$$$
8:0:0
     RDKit          3D

 95100  0  0  1  0  0  0  0  0999 V2000
  -29.0030  -21.6780   21.9900 C   0  0  0  0  0  3  0  0  0  0  0  0
  -27.4580  -24.2540   22.0950 C   0  0  0  0  0  0  0  0  0  0  0  0
  -29.3860  -22.8890   22.7220 C   0  0  0  0  0  0  0  0  0  0  0  0
  -27.9280  -21.4060   21.0830 C   0  0  0  0  0  3  0  0  0  0  0  0
  -28.6530  -24.1460   22.8370 C   0  0  0  0  0  0  0  0  0  0  0  0
  -27.1310  -22.9500   21.2250 C   0  0  0  0  0  0  0  0  0  0  0  0
  -26.1500  -25.3470   21.8680 C   0  0  0  0  0  2  0  0  0  0  0  0
  -29.1770  -25.2910   23.7060 C   0  0  0  0  0  1  0  0  0  0  0  0
  -26.0120  -23.9590   20.8860 O   0  0  0  0  0  0  0  0  0  0  0  0
  -31.8350  -22.2230   22.5780 C   0  0  0  0  0  1  0  0  0  0  0  0
  -30.5520  -21.8900   24.7590 C   0  0  0  0  0  1  0  0  0  0  0  0
  -30.7180  -22.7550   23.4920 C   0  0  0  0  0  3  0  0  0  0  0  0
  -25.6040  -27.7370   23.6860 C   0  0  0  0  0  1  0  0  0  0  0  0
  -25.6210  -27.4650   22.1020 C   0  0  0  0  0  1  0  0  0  0  0  0
  -25.1150  -29.5320   19.7300 C   0  0  0  0  0  1  0  0  0  0  0  0
  -25.9910  -29.0450   18.3890 O   0  0  0  0  0  0  0  0  0  0  0  0
  -24.6460  -31.3190   22.6970 C   0  0  0  0  0  0  0  0  0  0  0  0
  -26.8380  -27.9330   18.3150 C   0  0  0  0  0  3  0  0  0  0  0  0
  -23.4580  -29.2480   21.5520 C   0  0  0  0  0  3  0  0  0  0  0  0
  -25.0120  -27.1900   19.7690 C   0  0  0  0  0  0  0  0  0  0  0  0
  -26.4020  -29.5090   21.4170 C   0  0  0  0  0  3  0  0  0  0  0  0
  -26.5610  -27.9790   20.2480 C   0  0  0  0  0  0  0  0  0  0  0  0
  -27.5930  -28.0200   19.4410 C   0  0  0  0  0  2  0  0  0  0  0  0
  -26.0380  -26.8090   17.9400 C   0  0  0  0  0  2  0  0  0  0  0  0
  -24.8690  -26.5580   18.6180 C   0  0  0  0  0  2  0  0  0  0  0  0
  -23.4610  -27.8270   20.4780 C   0  0  0  0  0  3  0  0  0  0  0  0
  -24.8470  -30.1100   21.9640 N   0  0  0  0  0  0  0  0  0  0  0  0
  -23.5280  -31.7350   23.0530 O   0  0  0  0  0  0  0  0  0  0  0  0
  -22.4180  -29.1640   22.6330 C   0  0  0  0  0  0  0  0  0  0  0  0
  -21.1300  -28.9960   22.3380 N   0  0  0  0  0  0  0  0  0  0  0  0
  -22.8270  -28.9510   23.7740 O   0  0  0  0  0  0  0  0  0  0  0  0
  -20.7700  -29.2930   21.4460 H   0  0  0  0  0  0  0  0  0  0  0  0
  -17.8140  -27.7140   22.8400 C   0  0  0  0  0  0  0  0  0  0  0  0
  -20.3310  -28.0720   23.1530 C   0  0  0  0  0  3  0  0  0  0  0  0
  -20.4980  -26.6330   22.6270 C   0  0  0  0  0  2  0  0  0  0  0  0
  -19.4720  -26.2760   21.5570 C   0  0  0  0  0  2  0  0  0  0  0  0
  -18.0490  -26.3860   22.1320 C   0  0  0  0  0  2  0  0  0  0  0  0
  -18.8910  -28.5280   23.2740 C   0  0  0  0  0  0  0  0  0  0  0  0
  -18.6260  -29.8000   23.8160 C   0  0  0  0  0  3  0  0  0  0  0  0
  -17.3040  -30.2460   23.9700 C   0  0  0  0  0  3  0  0  0  0  0  0
  -16.2350  -29.4190   23.5870 C   0  0  0  0  0  3  0  0  0  0  0  0
  -16.4880  -28.1590   23.0200 C   0  0  0  0  0  3  0  0  0  0  0  0
  -25.8160  -32.2480   23.0960 C   0  0  0  0  0  3  0  0  0  0  0  0
  -26.6810  -31.6630   24.2840 C   0  0  1  0  0  0  0  0  0  0  0  0
  -25.8630  -30.9480   25.3910 C   0  0  0  0  0  1  0  0  0  0  0  0
  -27.7720  -30.6830   23.8680 C   0  0  0  0  0  1  0  0  0  0  0  0
  -27.5150  -32.7830   24.9200 C   0  0  0  0  0  1  0  0  0  0  0  0
  -25.3170  -33.5930   23.5210 N   0  0  0  0  0  0  0  0  0  0  0  0
  -25.6370  -34.7880   22.9960 C   0  0  0  0  0  0  0  0  0  0  0  0
  -26.3510  -34.8890   21.9990 O   0  0  0  0  0  0  0  0  0  0  0  0
  -24.6830  -33.5920   24.3050 H   0  0  0  0  0  0  0  0  0  0  0  0
  -23.8510  -36.5620   22.9110 C   0  0  0  0  0  1  0  0  0  0  0  0
  -25.0890  -36.0660   23.6770 C   0  0  0  0  0  3  0  0  0  0  0  0
  -27.1440  -36.9070   24.7370 C   0  0  0  0  0  1  0  0  0  0  0  0
  -26.0810  -37.1730   23.7720 N   0  0  0  0  0  0  0  0  0  0  0  0
  -25.6210  -38.0420   24.0340 H   0  0  0  0  0  0  0  0  0  0  0  0
  -28.1790  -19.5400   20.1910 C   0  0  0  0  0 15  0  0  0  0  0  0
  -29.5720  -16.2060   19.7770 C   0  0  0  0  0  0  0  0  0  0  0  0
  -30.0750  -13.5840   18.8100 C   0  0  0  0  0  2  0  0  0  0  0  0
  -29.2450  -12.8120   17.7070 C   0  0  0  0  0  2  0  0  0  0  0  0
  -27.9550  -12.2140   18.2740 C   0  0  0  0  0  2  0  0  0  0  0  0
  -27.3710  -13.2280   19.2710 C   0  0  0  0  0  3  0  0  0  0  0  0
  -28.3600  -13.7850   20.3310 C   0  0  0  0  0  2  0  0  0  0  0  0
  -29.3050  -14.7000   19.6420 N   0  0  0  0  0  0  0  0  0  0  0  0
  -30.7600  -16.2110   19.3330 O   0  0  0  0  0  0  0  0  0  0  0  0
  -28.6570  -17.5880   20.2140 N   0  0  0  0  0  2  0  0  0  0  0  0
  -27.8260  -17.1750   20.6080 H   0  0  0  0  0  0  0  0  0  0  0  0
  -25.1340  -13.6430   20.3100 C   0  0  0  0  0  0  0  0  0  0  0  0
  -24.1400  -12.8280   20.7620 C   0  0  0  0  0  0  0  0  0  0  0  0
  -24.6100  -11.4890   20.5840 C   0  0  0  0  0  0  0  0  0  0  0  0
  -26.1330  -12.8030   19.8740 N   0  0  0  0  0  0  0  0  0  0  0  0
  -25.8490  -11.4910   20.1010 N   0  0  0  0  0  0  0  0  0  0  0  0
  -23.9200  -10.2130   20.7870 C   0  0  0  0  0  0  0  0  0  0  0  0
  -24.3680   -9.2710   21.7370 C   0  0  0  0  0  3  0  0  0  0  0  0
  -23.6630   -8.0640   21.9340 C   0  0  0  0  0  3  0  0  0  0  0  0
  -22.4940   -7.7920   21.1810 C   0  0  0  0  0  0  0  0  0  0  0  0
  -22.0660   -8.7270   20.2210 C   0  0  0  0  0  3  0  0  0  0  0  0
  -22.7730   -9.9240   20.0240 C   0  0  0  0  0  3  0  0  0  0  0  0
  -21.7570   -6.6350   21.2840 O   0  0  0  0  0  0  0  0  0  0  0  0
  -21.6090   -5.9820   22.4800 C   0  0  0  0  0  0  0  0  0  0  0  0
  -20.9740   -6.5880   23.5860 C   0  0  0  0  0  3  0  0  0  0  0  0
  -20.7810   -5.8560   24.7750 C   0  0  0  0  0  3  0  0  0  0  0  0
  -21.2120   -4.5180   24.8550 C   0  0  0  0  0  0  0  0  0  0  0  0
  -21.8430   -3.9130   23.7540 C   0  0  0  0  0  3  0  0  0  0  0  0
  -22.0370   -4.6420   22.5690 C   0  0  0  0  0  0  0  0  0  0  0  0
  -22.6240   -4.0480   21.5020 F   0  0  0  0  0  0  0  0  0  0  0  0
  -21.0210   -3.8130   25.9940 F   0  0  0  0  0  0  0  0  0  0  0  0
  -22.7940  -13.2770   21.2400 C   0  0  0  0  0  0  0  0  0  0  0  0
  -22.2120  -12.5570   22.1900 N   0  0  0  0  0  0  0  0  0  0  0  0
  -22.2770  -14.3060   20.8030 O   0  0  0  0  0  0  0  0  0  0  0  0
  -22.6550  -11.7270   22.5600 H   0  0  0  0  0  0  0  0  0  0  0  0
  -21.3110  -12.8380   22.5560 H   0  0  0  0  0  0  0  0  0  0  0  0
  -25.2580  -15.0260   20.1970 N   0  0  0  0  0  0  0  0  0  0  0  0
  -24.4900  -15.6440   20.4270 H   0  0  0  0  0  0  0  0  0  0  0  0
  -26.0090  -15.4980   19.7100 H   0  0  0  0  0  0  0  0  0  0  0  0
  1  3  1  0
  2  5  1  0
  3  5  2  0
  3 12  1  0
  4  6  1  0
  4  1  2  0
  5  8  1  0
  6  2  2  0
  7  2  1  0
  9  6  1  0
  9  7  1  0
 10 12  1  0
 12 11  1  0
 14 13  1  0
 16 15  1  0
 17 28  2  0
 18 16  1  0
 18 23  1  0
 19 27  1  0
 19 29  1  0
 20 22  1  0
 20 26  2  0
 21 27  1  0
 22 21  2  0
 23 22  1  0
 24 18  1  0
 24 25  1  0
 25 20  1  0
 26 19  1  0
 27 17  1  0
 29 31  2  0
 30 29  1  0
 32 30  1  0
 33 42  2  0
 33 38  1  0
 34 30  1  0
 34 38  1  0
 35 34  1  0
 36 37  1  0
 36 35  1  0
 37 33  1  0
 38 39  2  0
 39 40  1  0
 41 40  2  0
 42 41  1  0
 43 17  1  0
 43 48  1  0
 43 44  1  0
 44 47  1  1
 44 45  1  0
 46 44  1  0
 48 51  1  0
 49 48  1  0
 49 53  1  0
 50 49  2  0
 53 52  1  0
 53 55  1  0
 55 56  1  0
 55 54  1  0
 58 66  1  0
 59 64  1  0
 60 61  1  0
 60 59  1  0
 62 61  1  0
 62 71  1  0
 62 63  1  0
 64 58  1  0
 64 63  1  0
 65 58  2  0
 66 67  1  0
 68 69  2  0
 69 88  1  0
 70 69  1  0
 70 73  1  0
 71 72  1  0
 71 68  1  0
 72 70  2  0
 73 74  1  0
 74 75  2  0
 76 79  1  0
 76 75  1  0
 77 76  2  0
 78 77  1  0
 78 73  2  0
 79 80  1  0
 80 85  2  0
 80 81  1  0
 81 82  2  0
 82 83  1  0
 83 87  1  0
 84 83  2  0
 85 84  1  0
 86 85  1  0
 88 89  1  0
 89 92  1  0
 89 91  1  0
 90 88  2  0
 93 68  1  0
 93 94  1  0
 95 93  1  0
M  ISO  4  15 101  16 101  58 100  66 100
M  END
>  <TORSDO>  (9) 
F 20

>  <SCORE>  (9) 
-13.563

>  <name>  (9) 
8

>  <ligand_id>  (9) 
8

>  <original_smiles>  (9) 
[H]c1c([H])c([H])c2c(c1[H])C([H])([H])C([H])([H])C([H])([H])C2([H])N([H])C(=O)C1([H])N(C(=O)C([H])(N([H])C(=O)C([H])(N([H])C([H])([H])[H])C([H])([H])[H])C(C([H])([H])[H])(C([H])([H])[H])C([H])([H])[H])C([H])([H])c2c([H])c(OC([H])([H])C([H])(C([H])([H])[H])C3([H])Oc4c(C([H])([H])N([H])C(=O)N5C([H])([H])C([H])([H])C([H])([H])C([H])(n6nc(-c7c([H])c([H])c(Oc8c([H])c([H])c(F)c([H])c8F)c([H])c7[H])c(C(=O)N([H])[H])c6N([H])[H])C5([H])[H])c([H])c(C([H])(C([H])([H])[H])C([H])([H])[H])c(C([H])([H])[H])c43)c([H])c([H])c2C1([H])[H]

>  <smiles>  (9) 
[H]c1c([H])c([H])c2c(c1[H])C([H])([H])C([H])([H])C([H])([H])C2([H])N([H])C(=O)C1([H])N(C(=O)C([H])(N([H])C(=O)C([H])(N([H])C([H])([H])[H])C([H])([H])[H])C(C([H])([H])[H])(C([H])([H])[H])C([H])([H])[H])C([H])([H])c2c([H])c(OC([H])([H])C([H])(C([H])([H])[H])C3([H])Oc4c(C([H])([H])N([H])C(=O)N5C([H])([H])C([H])([H])C([H])([H])C([H])(n6nc(-c7c([H])c([H])c(Oc8c([H])c([H])c(F)c([H])c8F)c([H])c7[H])c(C(=O)N([H])[H])c6N([H])[H])C5([H])[H])c([H])c(C([H])(C([H])([H])[H])C([H])([H])[H])c(C([H])([H])[H])c43)c([H])c([H])c2C1([H])[H]

$$$$
9:0:0
     RDKit          3D

 97106  0  0  1  0  0  0  0  0999 V2000
  -29.7530  -20.7090   21.3190 C   0  0  0  0  0  3  0  0  0  0  0  0
  -29.1550  -21.9820   21.4550 C   0  0  0  0  0  3  0  0  0  0  0  0
  -30.9410  -22.6430   22.9510 C   0  0  0  0  0  3  0  0  0  0  0  0
  -30.9450  -20.3780   22.0100 C   0  0  0  0  0  0  0  0  0  0  0  0
  -31.5350  -21.3700   22.8410 C   0  0  0  0  0  0  0  0  0  0  0  0
  -29.7570  -22.9700   22.2710 C   0  0  0  0  0  0  0  0  0  0  0  0
  -32.8030  -21.1180   23.6400 C   0  0  0  0  0  1  0  0  0  0  0  0
  -31.9490  -17.5940   19.9190 C   0  0  0  0  0  2  0  0  0  0  0  0
  -31.6030  -18.9980   21.8210 C   0  0  0  0  0  3  0  0  0  0  0  0
  -30.6950  -17.7430   21.9400 C   0  0  0  0  0  3  0  0  0  0  0  0
  -31.4720  -16.7200   21.0970 C   0  0  0  0  0  3  0  0  0  0  0  0
  -30.4350  -17.2680   23.3790 C   0  0  0  0  0  1  0  0  0  0  0  0
  -32.2700  -18.9040   20.5090 N   0  0  0  0  0  4  0  0  0  0  0  0
  -31.9720  -19.6410   19.8930 H   0  0  0  0  0  0  0  0  0  0  0  0
  -33.2630  -18.9870   20.6420 H   0  0  0  0  0  0  0  0  0  0  0  0
  -31.1660  -14.5060   19.9650 C   0  0  0  0  0  0  0  0  0  0  0  0
  -30.7180  -12.3110   18.9470 C   0  0  0  0  0  2  0  0  0  0  0  0
  -29.7240  -12.4370   17.7770 C   0  0  0  0  0  2  0  0  0  0  0  0
  -28.2770  -12.3360   18.2920 C   0  0  0  0  0  2  0  0  0  0  0  0
  -28.0050  -13.2790   19.4940 C   0  0  0  0  0  3  0  0  0  0  0  0
  -29.1110  -13.1550   20.5670 C   0  0  0  0  0  2  0  0  0  0  0  0
  -30.4150  -13.3750   19.9160 N   0  0  0  0  0  0  0  0  0  0  0  0
  -32.2000  -14.6410   19.3110 O   0  0  0  0  0  0  0  0  0  0  0  0
  -30.7230  -15.4950   20.7570 N   0  0  0  0  0  0  0  0  0  0  0  0
  -29.8580  -15.3250   21.2460 H   0  0  0  0  0  0  0  0  0  0  0  0
  -25.6920  -13.9640   20.3960 C   0  0  0  0  0  0  0  0  0  0  0  0
  -24.6150  -13.2240   20.8080 C   0  0  0  0  0  0  0  0  0  0  0  0
  -25.0070  -11.8550   20.6880 C   0  0  0  0  0  0  0  0  0  0  0  0
  -26.6760  -13.0470   20.0570 N   0  0  0  0  0  0  0  0  0  0  0  0
  -26.2700  -11.7720   20.2890 N   0  0  0  0  0  0  0  0  0  0  0  0
  -24.2360  -10.6200   20.8770 C   0  0  0  0  0  0  0  0  0  0  0  0
  -24.6540   -9.6190   21.7820 C   0  0  0  0  0  3  0  0  0  0  0  0
  -23.8850   -8.4490   21.9590 C   0  0  0  0  0  3  0  0  0  0  0  0
  -22.6840   -8.2700   21.2310 C   0  0  0  0  0  0  0  0  0  0  0  0
  -22.2860   -9.2590   20.3150 C   0  0  0  0  0  3  0  0  0  0  0  0
  -23.0550  -10.4210   20.1360 C   0  0  0  0  0  3  0  0  0  0  0  0
  -21.8880   -7.1550   21.3190 O   0  0  0  0  0  0  0  0  0  0  0  0
  -21.7850   -6.4330   22.4820 C   0  0  0  0  0  0  0  0  0  0  0  0
  -21.3420   -7.0200   23.6870 C   0  0  0  0  0  3  0  0  0  0  0  0
  -21.1860   -6.2270   24.8400 C   0  0  0  0  0  3  0  0  0  0  0  0
  -21.4620   -4.8480   24.7910 C   0  0  0  0  0  0  0  0  0  0  0  0
  -21.8970   -4.2600   23.5900 C   0  0  0  0  0  3  0  0  0  0  0  0
  -22.0560   -5.0510   22.4370 C   0  0  0  0  0  0  0  0  0  0  0  0
  -22.4550   -4.4750   21.2780 F   0  0  0  0  0  0  0  0  0  0  0  0
  -21.3040   -4.0830   25.8960 F   0  0  0  0  0  0  0  0  0  0  0  0
  -23.2650  -13.7510   21.1990 C   0  0  0  0  0  0  0  0  0  0  0  0
  -22.5730  -13.0580   22.0970 N   0  0  0  0  0  0  0  0  0  0  0  0
  -22.8360  -14.8100   20.7430 O   0  0  0  0  0  0  0  0  0  0  0  0
  -22.9340  -12.2000   22.4850 H   0  0  0  0  0  0  0  0  0  0  0  0
  -21.6690  -13.3920   22.4010 H   0  0  0  0  0  0  0  0  0  0  0  0
  -25.9120  -15.3310   20.2630 N   0  0  0  0  0  0  0  0  0  0  0  0
  -25.1940  -16.0190   20.4550 H   0  0  0  0  0  0  0  0  0  0  0  0
  -26.7640  -15.7390   19.9000 H   0  0  0  0  0  0  0  0  0  0  0  0
  -29.2880  -24.2490   22.4800 O   0  0  0  0  0  0  0  0  0  0  0  0
  -28.3850  -24.8540   21.5600 C   0  0  0  0  0  2  0  0  0  0  0  0
  -28.8730  -26.2920   21.3290 C   0  0  0  0  0  2  0  0  0  0  0  0
  -28.3540  -26.7980   20.1070 O   0  0  0  0  0  0  0  0  0  0  0  0
  -24.5570  -31.9620   23.2470 C   0  0  0  0  0  0  0  0  0  0  0  0
  -27.1880  -27.5100   20.2040 C   0  0  0  0  0  0  0  0  0  0  0  0
  -23.3400  -30.5420   21.6260 C   0  0  0  0  0  3  0  0  0  0  0  0
  -24.7900  -28.9880   20.2130 C   0  0  0  0  0  0  0  0  0  0  0  0
  -25.8610  -30.9020   21.4140 C   0  0  0  0  0  2  0  0  0  0  0  0
  -25.9440  -29.5230   20.8010 C   0  0  0  0  0  0  0  0  0  0  0  0
  -27.1470  -28.7830   20.8070 C   0  0  0  0  0  3  0  0  0  0  0  0
  -26.0250  -26.9790   19.6160 C   0  0  0  0  0  3  0  0  0  0  0  0
  -24.8190  -27.7110   19.6270 C   0  0  0  0  0  3  0  0  0  0  0  0
  -23.5450  -29.8490   20.2510 C   0  0  0  0  0  2  0  0  0  0  0  0
  -24.6030  -31.1500   22.1540 N   0  0  0  0  0  0  0  0  0  0  0  0
  -23.4800  -32.2420   23.7910 O   0  0  0  0  0  0  0  0  0  0  0  0
  -22.6950  -29.5290   22.6000 C   0  0  0  0  0  0  0  0  0  0  0  0
  -21.3800  -29.3120   22.4500 N   0  0  0  0  0  0  0  0  0  0  0  0
  -23.3770  -28.9410   23.4440 O   0  0  0  0  0  0  0  0  0  0  0  0
  -20.8900  -29.8420   21.7440 H   0  0  0  0  0  0  0  0  0  0  0  0
  -18.0380  -28.0030   22.8510 C   0  0  0  0  0  0  0  0  0  0  0  0
  -20.5680  -28.3750   23.2260 C   0  0  0  0  0  3  0  0  0  0  0  0
  -20.7530  -26.9260   22.7210 C   0  0  0  0  0  2  0  0  0  0  0  0
  -19.7120  -26.5150   21.6740 C   0  0  0  0  0  2  0  0  0  0  0  0
  -18.2970  -26.6330   22.2480 C   0  0  0  0  0  2  0  0  0  0  0  0
  -19.1050  -28.8270   23.2940 C   0  0  0  0  0  0  0  0  0  0  0  0
  -18.8130  -30.1080   23.8140 C   0  0  0  0  0  3  0  0  0  0  0  0
  -17.4840  -30.5650   23.8980 C   0  0  0  0  0  3  0  0  0  0  0  0
  -16.4300  -29.7380   23.4760 C   0  0  0  0  0  3  0  0  0  0  0  0
  -16.7070  -28.4600   22.9580 C   0  0  0  0  0  3  0  0  0  0  0  0
  -25.8520  -32.5960   23.8500 C   0  0  0  0  0  3  0  0  0  0  0  0
  -26.3860  -31.8280   25.1220 C   0  0  1  0  0  0  0  0  0  0  0  0
  -25.3000  -31.5790   26.1930 C   0  0  0  0  0  1  0  0  0  0  0  0
  -26.9830  -30.4580   24.7200 C   0  0  0  0  0  1  0  0  0  0  0  0
  -27.5290  -32.6330   25.7810 C   0  0  0  0  0  1  0  0  0  0  0  0
  -25.5490  -33.9940   24.1760 N   0  0  0  0  0  0  0  0  0  0  0  0
  -25.8780  -35.0420   23.4080 C   0  0  0  0  0  0  0  0  0  0  0  0
  -26.5420  -34.9330   22.3730 O   0  0  0  0  0  0  0  0  0  0  0  0
  -24.9600  -34.1540   24.9810 H   0  0  0  0  0  0  0  0  0  0  0  0
  -24.1460  -36.8270   23.0530 C   0  0  0  0  0  1  0  0  0  0  0  0
  -25.3920  -36.4310   23.8600 C   0  0  0  0  0  3  0  0  0  0  0  0
  -27.5300  -37.3210   24.6700 C   0  0  0  0  0  1  0  0  0  0  0  0
  -26.4220  -37.4850   23.7350 N   0  0  0  0  0  0  0  0  0  0  0  0
  -26.0150  -38.4040   23.8870 H   0  0  0  0  0  0  0  0  0  0  0  0
  1  2  2  0
  1  4  1  0
  2  6  1  0
  4  5  2  0
  5  3  1  0
  5  7  1  0
  6 54  1  0
  6  3  2  0
  8 13  1  0
  8 11  1  0
  9 10  1  0
  9  4  1  0
 10 12  1  0
 11 24  1  0
 11 10  1  0
 13 15  1  0
 13  9  1  0
 14 13  1  0
 16 24  1  0
 17 22  1  0
 18 19  1  0
 18 17  1  0
 20 19  1  0
 20 29  1  0
 20 21  1  0
 22 16  1  0
 22 21  1  0
 23 16  2  0
 24 25  1  0
 26 27  2  0
 27 46  1  0
 28 27  1  0
 28 31  1  0
 29 30  1  0
 29 26  1  0
 30 28  2  0
 31 32  1  0
 32 33  2  0
 34 37  1  0
 34 33  1  0
 35 34  2  0
 36 35  1  0
 36 31  2  0
 37 38  1  0
 38 39  1  0
 39 40  2  0
 41 40  1  0
 41 45  1  0
 42 41  2  0
 43 38  2  0
 43 42  1  0
 44 43  1  0
 46 47  1  0
 47 50  1  0
 47 49  1  0
 48 46  2  0
 51 26  1  0
 51 52  1  0
 53 51  1  0
 55 54  1  0
 56 55  1  0
 57 59  1  0
 57 56  1  0
 58 69  2  0
 59 64  1  0
 60 68  1  0
 60 70  1  0
 61 67  1  0
 61 63  1  0
 62 68  1  0
 63 64  2  0
 63 62  1  0
 65 66  1  0
 65 59  2  0
 66 61  2  0
 67 60  1  0
 68 58  1  0
 70 72  2  0
 71 70  1  0
 73 71  1  0
 74 83  2  0
 74 79  1  0
 75 71  1  0
 75 79  1  0
 76 75  1  0
 77 78  1  0
 77 76  1  0
 78 74  1  0
 79 80  2  0
 80 81  1  0
 82 81  2  0
 83 82  1  0
 84 58  1  0
 84 89  1  0
 84 85  1  0
 85 88  1  1
 85 86  1  0
 87 85  1  0
 89 92  1  0
 90 94  1  0
 90 89  1  0
 91 90  2  0
 94 93  1  0
 96 94  1  0
 96 97  1  0
 96 95  1  0
M  ISO  4  16 100  24 100  56 101  57 101
M  END
>  <TORSDO>  (10) 
F 20

>  <SCORE>  (10) 
-13.027

>  <name>  (10) 
9

>  <ligand_id>  (10) 
9

>  <original_smiles>  (10) 
[H]c1c([H])c([H])c2c(c1[H])C([H])([H])C([H])([H])C([H])([H])C2([H])N([H])C(=O)C1([H])N(C(=O)C([H])(N([H])C(=O)C([H])(N([H])C([H])([H])[H])C([H])([H])[H])C(C([H])([H])[H])(C([H])([H])[H])C([H])([H])[H])C([H])([H])c2c([H])c(OC([H])([H])C([H])([H])Oc3c([H])c([H])c(C4([H])C([H])(C([H])([H])[H])C([H])(N([H])C(=O)N5C([H])([H])C([H])([H])C([H])([H])C([H])(n6nc(-c7c([H])c([H])c(Oc8c([H])c([H])c(F)c([H])c8F)c([H])c7[H])c(C(=O)N([H])[H])c6N([H])[H])C5([H])[H])C([H])([H])[N+]4([H])[H])c(C([H])([H])[H])c3[H])c([H])c([H])c2C1([H])[H]

>  <smiles>  (10) 
[H]c1c([H])c([H])c2c(c1[H])C([H])([H])C([H])([H])C([H])([H])C2([H])N([H])C(=O)C1([H])N(C(=O)C([H])(N([H])C(=O)C([H])(N([H])C([H])([H])[H])C([H])([H])[H])C(C([H])([H])[H])(C([H])([H])[H])C([H])([H])[H])C([H])([H])c2c([H])c(OC([H])([H])C([H])([H])Oc3c([H])c([H])c(C4([H])C([H])(C([H])([H])[H])C([H])(N([H])C(=O)N5C([H])([H])C([H])([H])C([H])([H])C([H])(n6nc(-c7c([H])c([H])c(Oc8c([H])c([H])c(F)c([H])c8F)c([H])c7[H])c(C(=O)N([H])[H])c6N([H])[H])C5([H])[H])C([H])([H])[N+]4([H])[H])c(C([H])([H])[H])c3[H])c([H])c([H])c2C1([H])[H]

$$$$
10:0:0
     RDKit          3D

 92101  0  0  1  0  0  0  0  0999 V2000
  -28.8290  -22.4420   20.4930 C   0  0  0  0  0  2  0  0  0  0  0  0
  -29.4360  -24.1030   18.5100 C   0  0  0  0  0  2  0  0  0  0  0  0
  -30.4380  -24.3610   19.5870 C   0  0  0  0  0  2  0  0  0  0  0  0
  -29.0330  -23.9330   19.9700 C   0  0  2  0  0  0  0  0  0  0  0  0
  -28.1370  -25.0590   20.6170 C   0  0  0  0  0  2  0  0  0  0  0  0
  -28.3560  -26.4830   20.2360 O   0  0  0  0  0  0  0  0  0  0  0  0
  -24.5970  -31.8860   23.2170 C   0  0  0  0  0  0  0  0  0  0  0  0
  -27.2430  -27.3330   20.1930 C   0  0  0  0  0  0  0  0  0  0  0  0
  -23.4110  -30.4800   21.5700 C   0  0  0  0  0  3  0  0  0  0  0  0
  -24.8770  -28.9400   20.1510 C   0  0  0  0  0  0  0  0  0  0  0  0
  -25.9510  -30.8090   21.4070 C   0  0  0  0  0  2  0  0  0  0  0  0
  -26.0400  -29.4320   20.7600 C   0  0  0  0  0  0  0  0  0  0  0  0
  -27.2280  -28.6410   20.7700 C   0  0  0  0  0  3  0  0  0  0  0  0
  -26.0650  -26.8960   19.5510 C   0  0  0  0  0  3  0  0  0  0  0  0
  -24.8950  -27.6800   19.5310 C   0  0  0  0  0  3  0  0  0  0  0  0
  -23.6370  -29.8090   20.1890 C   0  0  0  0  0  2  0  0  0  0  0  0
  -24.6700  -31.0770   22.1200 N   0  0  0  0  0  0  0  0  0  0  0  0
  -23.5100  -32.1620   23.7430 O   0  0  0  0  0  0  0  0  0  0  0  0
  -22.7490  -29.4600   22.5250 C   0  0  0  0  0  0  0  0  0  0  0  0
  -21.4250  -29.2740   22.3870 N   0  0  0  0  0  0  0  0  0  0  0  0
  -23.4250  -28.8400   23.3520 O   0  0  0  0  0  0  0  0  0  0  0  0
  -20.9410  -29.8280   21.6960 H   0  0  0  0  0  0  0  0  0  0  0  0
  -18.0500  -28.0550   22.8490 C   0  0  0  0  0  0  0  0  0  0  0  0
  -20.6030  -28.3350   23.1510 C   0  0  0  0  0  3  0  0  0  0  0  0
  -20.7220  -26.9020   22.5820 C   0  0  0  0  0  2  0  0  0  0  0  0
  -19.6360  -26.5660   21.5550 C   0  0  0  0  0  2  0  0  0  0  0  0
  -18.2450  -26.7030   22.1790 C   0  0  0  0  0  2  0  0  0  0  0  0
  -19.1580  -28.8280   23.2900 C   0  0  0  0  0  0  0  0  0  0  0  0
  -18.9240  -30.0900   23.8750 C   0  0  0  0  0  3  0  0  0  0  0  0
  -17.6140  -30.5830   24.0230 C   0  0  0  0  0  3  0  0  0  0  0  0
  -16.5200  -29.8100   23.5990 C   0  0  0  0  0  3  0  0  0  0  0  0
  -16.7390  -28.5470   23.0190 C   0  0  0  0  0  3  0  0  0  0  0  0
  -25.8750  -32.5210   23.8500 C   0  0  0  0  0  3  0  0  0  0  0  0
  -26.3810  -31.7560   25.1320 C   0  0  1  0  0  0  0  0  0  0  0  0
  -25.2790  -31.5190   26.1910 C   0  0  0  0  0  1  0  0  0  0  0  0
  -26.9710  -30.3790   24.7490 C   0  0  0  0  0  1  0  0  0  0  0  0
  -27.5240  -32.5550   25.8020 C   0  0  0  0  0  1  0  0  0  0  0  0
  -25.5600  -33.9210   24.1740 N   0  0  0  0  0  0  0  0  0  0  0  0
  -25.8950  -34.9740   23.4180 C   0  0  0  0  0  0  0  0  0  0  0  0
  -26.5760  -34.8720   22.3930 O   0  0  0  0  0  0  0  0  0  0  0  0
  -24.9550  -34.0750   24.9680 H   0  0  0  0  0  0  0  0  0  0  0  0
  -24.1620  -36.7600   23.0470 C   0  0  0  0  0  1  0  0  0  0  0  0
  -25.3980  -36.3600   23.8690 C   0  0  0  0  0  3  0  0  0  0  0  0
  -27.5240  -37.2510   24.7180 C   0  0  0  0  0  1  0  0  0  0  0  0
  -26.4290  -37.4170   23.7650 N   0  0  0  0  0  0  0  0  0  0  0  0
  -26.0170  -38.3350   23.9090 H   0  0  0  0  0  0  0  0  0  0  0  0
  -29.5570  -21.4460   19.7060 O   0  0  0  0  0  0  0  0  0  0  0  0
  -30.2290  -19.2530   18.9460 C   0  0  0  0  0  3  0  0  0  0  0  0
  -29.2440  -18.1030   21.1890 C   0  0  0  0  0  3  0  0  0  0  0  0
  -30.3410  -17.8410   19.0750 C   0  0  0  0  0  0  0  0  0  0  0  0
  -29.8520  -17.2040   20.2560 C   0  0  0  0  0  0  0  0  0  0  0  0
  -29.6180  -20.0520   19.9310 C   0  0  0  0  0  0  0  0  0  0  0  0
  -30.9360  -17.0890   17.8970 C   0  0  0  0  0  1  0  0  0  0  0  0
  -29.1250  -19.4670   21.0500 N   0  0  0  0  0  0  0  0  0  0  0  0
  -30.5940  -14.6880   20.1010 C   0  0  0  0  0  0  0  0  0  0  0  0
  -30.3560  -12.4620   19.0160 C   0  0  0  0  0  2  0  0  0  0  0  0
  -29.3670  -12.6200   17.8370 C   0  0  0  0  0  2  0  0  0  0  0  0
  -27.9060  -12.4740   18.3130 C   0  0  0  0  0  2  0  0  0  0  0  0
  -27.6050  -13.2990   19.5920 C   0  0  0  0  0  3  0  0  0  0  0  0
  -28.7020  -13.0960   20.6610 C   0  0  0  0  0  2  0  0  0  0  0  0
  -29.9850  -13.4580   20.0440 N   0  0  0  0  0  0  0  0  0  0  0  0
  -31.7390  -14.8410   19.6720 O   0  0  0  0  0  0  0  0  0  0  0  0
  -29.8130  -15.7460   20.5150 N   0  0  0  0  0  0  0  0  0  0  0  0
  -29.0020  -15.4430   21.0370 H   0  0  0  0  0  0  0  0  0  0  0  0
  -25.2360  -13.8990   20.3910 C   0  0  0  0  0  0  0  0  0  0  0  0
  -24.1820  -13.1260   20.7970 C   0  0  0  0  0  0  0  0  0  0  0  0
  -24.6410  -11.7740   20.7480 C   0  0  0  0  0  0  0  0  0  0  0  0
  -26.2690  -13.0170   20.1160 N   0  0  0  0  0  0  0  0  0  0  0  0
  -25.9190  -11.7340   20.3910 N   0  0  0  0  0  0  0  0  0  0  0  0
  -23.9200  -10.5100   20.9570 C   0  0  0  0  0  0  0  0  0  0  0  0
  -24.3770   -9.5430   21.8780 C   0  0  0  0  0  3  0  0  0  0  0  0
  -23.6570   -8.3450   22.0770 C   0  0  0  0  0  3  0  0  0  0  0  0
  -22.4660   -8.1050   21.3500 C   0  0  0  0  0  0  0  0  0  0  0  0
  -22.0270   -9.0610   20.4160 C   0  0  0  0  0  3  0  0  0  0  0  0
  -22.7490  -10.2490   20.2180 C   0  0  0  0  0  3  0  0  0  0  0  0
  -21.7160   -6.9590   21.4560 O   0  0  0  0  0  0  0  0  0  0  0  0
  -21.6840   -6.2250   22.6160 C   0  0  0  0  0  0  0  0  0  0  0  0
  -21.2790   -6.7910   23.8460 C   0  0  0  0  0  3  0  0  0  0  0  0
  -21.1990   -5.9810   24.9970 C   0  0  0  0  0  3  0  0  0  0  0  0
  -21.5080   -4.6110   24.9190 C   0  0  0  0  0  0  0  0  0  0  0  0
  -21.9050   -4.0450   23.6950 C   0  0  0  0  0  3  0  0  0  0  0  0
  -21.9910   -4.8520   22.5440 C   0  0  0  0  0  0  0  0  0  0  0  0
  -22.3520   -4.3000   21.3620 F   0  0  0  0  0  0  0  0  0  0  0  0
  -21.4230   -3.8310   26.0230 F   0  0  0  0  0  0  0  0  0  0  0  0
  -22.7950  -13.6040   21.1200 C   0  0  0  0  0  0  0  0  0  0  0  0
  -22.0970  -12.9070   22.0090 N   0  0  0  0  0  0  0  0  0  0  0  0
  -22.3390  -14.6290   20.6180 O   0  0  0  0  0  0  0  0  0  0  0  0
  -22.4790  -12.0800   22.4430 H   0  0  0  0  0  0  0  0  0  0  0  0
  -21.1690  -13.2130   22.2690 H   0  0  0  0  0  0  0  0  0  0  0  0
  -25.4000  -15.2690   20.2080 N   0  0  0  0  0  0  0  0  0  0  0  0
  -24.6370  -15.9250   20.3200 H   0  0  0  0  0  0  0  0  0  0  0  0
  -26.2220  -15.6860   19.7890 H   0  0  0  0  0  0  0  0  0  0  0  0
  2  3  1  0
  2  4  1  0
  3  4  1  0
  4  1  1  6
  4  5  1  0
  6  5  1  0
  7 18  2  0
  8  6  1  0
  8 13  1  0
  9 17  1  0
  9 19  1  0
 10 16  1  0
 10 12  1  0
 11 17  1  0
 12 13  2  0
 12 11  1  0
 14  8  2  0
 15 14  1  0
 15 10  2  0
 16  9  1  0
 17  7  1  0
 19 21  2  0
 20 19  1  0
 22 20  1  0
 23 32  2  0
 23 28  1  0
 24 20  1  0
 24 28  1  0
 25 24  1  0
 26 27  1  0
 26 25  1  0
 27 23  1  0
 28 29  2  0
 29 30  1  0
 31 30  2  0
 32 31  1  0
 33  7  1  0
 33 38  1  0
 33 34  1  0
 34 37  1  1
 34 35  1  0
 36 34  1  0
 38 41  1  0
 39 43  1  0
 39 38  1  0
 40 39  2  0
 43 42  1  0
 45 43  1  0
 45 46  1  0
 45 44  1  0
 47 52  1  0
 47  1  1  0
 48 50  2  0
 48 52  1  0
 50 51  1  0
 51 63  1  0
 51 49  2  0
 52 54  2  0
 53 50  1  0
 54 49  1  0
 55 63  1  0
 56 61  1  0
 57 58  1  0
 57 56  1  0
 59 58  1  0
 59 68  1  0
 59 60  1  0
 61 55  1  0
 61 60  1  0
 62 55  2  0
 63 64  1  0
 65 66  2  0
 66 85  1  0
 67 66  1  0
 67 70  1  0
 68 69  1  0
 68 65  1  0
 69 67  2  0
 70 71  1  0
 71 72  2  0
 73 76  1  0
 73 72  1  0
 74 73  2  0
 75 74  1  0
 75 70  2  0
 76 77  1  0
 77 78  1  0
 78 79  2  0
 80 79  1  0
 80 84  1  0
 81 80  2  0
 82 77  2  0
 82 81  1  0
 83 82  1  0
 85 86  1  0
 86 89  1  0
 86 88  1  0
 87 85  2  0
 90 91  1  0
 90 65  1  0
 92 90  1  0
M  ISO  4   5 101   6 101  55 100  63 100
M  END
>  <TORSDO>  (11) 
F 20

>  <SCORE>  (11) 
-13.379

>  <name>  (11) 
10

>  <ligand_id>  (11) 
10

>  <original_smiles>  (11) 
[H]c1nc(OC([H])([H])C2(C([H])([H])Oc3c([H])c([H])c4c(c3[H])C([H])([H])N(C(=O)C([H])(N([H])C(=O)C([H])(N([H])C([H])([H])[H])C([H])([H])[H])C(C([H])([H])[H])(C([H])([H])[H])C([H])([H])[H])C([H])(C(=O)N([H])C3([H])c5c([H])c([H])c([H])c([H])c5C([H])([H])C([H])([H])C3([H])[H])C4([H])[H])C([H])([H])C2([H])[H])c([H])c(C([H])([H])[H])c1N([H])C(=O)N1C([H])([H])C([H])([H])C([H])([H])C([H])(n2nc(-c3c([H])c([H])c(Oc4c([H])c([H])c(F)c([H])c4F)c([H])c3[H])c(C(=O)N([H])[H])c2N([H])[H])C1([H])[H]

>  <smiles>  (11) 
[H]c1nc(OC([H])([H])C2(C([H])([H])Oc3c([H])c([H])c4c(c3[H])C([H])([H])N(C(=O)C([H])(N([H])C(=O)C([H])(N([H])C([H])([H])[H])C([H])([H])[H])C(C([H])([H])[H])(C([H])([H])[H])C([H])([H])[H])C([H])(C(=O)N([H])C3([H])c5c([H])c([H])c([H])c([H])c5C([H])([H])C([H])([H])C3([H])[H])C4([H])[H])C([H])([H])C2([H])[H])c([H])c(C([H])([H])[H])c1N([H])C(=O)N1C([H])([H])C([H])([H])C([H])([H])C([H])(n2nc(-c3c([H])c([H])c(Oc4c([H])c([H])c(F)c([H])c4F)c([H])c3[H])c(C(=O)N([H])[H])c2N([H])[H])C1([H])[H]

$$$$
11:0:0
     RDKit          3D

 98101  0  0  1  0  0  0  0  0999 V2000
  -20.4090  -27.9240   20.1300 C   0  0  0  0  0  2  0  0  0  0  0  0
  -20.8870  -27.8420   23.2530 C   0  0  0  0  0  3  0  0  0  0  0  0
  -19.6390  -27.1890   21.2920 C   0  0  0  0  0  2  0  0  0  0  0  0
  -22.2520  -27.7370   23.6790 C   0  0  0  0  0  3  0  0  0  0  0  0
  -21.6660  -28.5860   20.7380 C   0  0  0  0  0  3  0  0  0  0  0  0
  -21.0930  -26.9230   24.8310 C   0  0  0  0  0  3  0  0  0  0  0  0
  -22.0890  -25.5060   24.9470 C   0  0  0  0  0  2  0  0  0  0  0  0
  -23.3320  -25.6750   23.9680 C   0  0  0  0  0  1  0  0  0  0  0  0
  -18.7010  -25.9640   20.8670 C   0  0  0  0  0  1  0  0  0  0  0  0
  -21.8780  -28.7120   22.4370 N   0  0  0  0  0  0  0  0  0  0  0  0
  -24.6380  -24.0490   23.2570 N   0  0  0  0  0  2  0  0  0  0  0  0
  -25.2790  -24.1500   24.0320 H   0  0  0  0  0  0  0  0  0  0  0  0
  -25.0620  -24.5530   22.5100 H   0  0  0  0  0  0  0  0  0  0  0  0
  -25.3260  -22.0520   22.6380 C   0  0  0  0  0 15  0  0  0  0  0  0
  -27.9230  -20.5760   23.2210 C   0  0  0  0  0  1  0  0  0  0  0  0
  -27.0140  -20.2380   22.0620 C   0  0  0  0  0  1  0  0  0  0  0  0
  -28.9820  -16.7250   21.0370 C   0  0  0  0  0  0  0  0  0  0  0  0
  -30.0250  -14.1220   19.8540 C   0  0  0  0  0  2  0  0  0  0  0  0
  -29.5420  -13.1570   18.6540 C   0  0  0  0  0  2  0  0  0  0  0  0
  -28.2430  -12.4270   18.9750 C   0  0  0  0  0  2  0  0  0  0  0  0
  -27.4770  -13.3750   19.8980 C   0  0  0  0  0  3  0  0  0  0  0  0
  -28.2140  -13.9580   21.1360 C   0  0  0  0  0  2  0  0  0  0  0  0
  -28.9880  -15.1400   20.6480 N   0  0  0  0  0  0  0  0  0  0  0  0
  -30.2620  -16.7030   20.8160 O   0  0  0  0  0  0  0  0  0  0  0  0
  -27.8590  -18.1950   21.4970 N   0  0  0  0  0  2  0  0  0  0  0  0
  -28.7550  -18.6730   21.5020 H   0  0  0  0  0  0  0  0  0  0  0  0
  -25.1570  -13.8180   20.5610 C   0  0  0  0  0  0  0  0  0  0  0  0
  -24.1180  -13.0300   20.9180 C   0  0  0  0  0  0  0  0  0  0  0  0
  -24.6050  -11.6870   20.8710 C   0  0  0  0  0  0  0  0  0  0  0  0
  -26.1880  -12.9520   20.2980 N   0  0  0  0  0  0  0  0  0  0  0  0
  -25.8930  -11.6570   20.5540 N   0  0  0  0  0  0  0  0  0  0  0  0
  -23.8940  -10.4240   21.0500 C   0  0  0  0  0  0  0  0  0  0  0  0
  -24.3550   -9.4210   21.9280 C   0  0  0  0  0  3  0  0  0  0  0  0
  -23.6250   -8.2230   22.0830 C   0  0  0  0  0  3  0  0  0  0  0  0
  -22.4260   -8.0230   21.3550 C   0  0  0  0  0  0  0  0  0  0  0  0
  -21.9850   -9.0220   20.4700 C   0  0  0  0  0  3  0  0  0  0  0  0
  -22.7170  -10.2080   20.3130 C   0  0  0  0  0  3  0  0  0  0  0  0
  -21.6640   -6.8830   21.4240 O   0  0  0  0  0  0  0  0  0  0  0  0
  -21.6870   -6.0740   22.5290 C   0  0  0  0  0  0  0  0  0  0  0  0
  -21.4010   -6.5660   23.8220 C   0  0  0  0  0  3  0  0  0  0  0  0
  -21.3610   -5.6800   24.9160 C   0  0  0  0  0  3  0  0  0  0  0  0
  -21.6040   -4.3070   24.7230 C   0  0  0  0  0  0  0  0  0  0  0  0
  -21.8820   -3.8170   23.4350 C   0  0  0  0  0  3  0  0  0  0  0  0
  -21.9210   -4.6980   22.3410 C   0  0  0  0  0  0  0  0  0  0  0  0
  -22.1710   -4.2160   21.0990 F   0  0  0  0  0  0  0  0  0  0  0  0
  -21.5590   -3.4570   25.7750 F   0  0  0  0  0  0  0  0  0  0  0  0
  -22.7300  -13.5120   21.1820 C   0  0  0  0  0  0  0  0  0  0  0  0
  -21.9970  -12.8220   22.0410 N   0  0  0  0  0  0  0  0  0  0  0  0
  -22.3120  -14.5500   20.6710 O   0  0  0  0  0  0  0  0  0  0  0  0
  -22.3580  -11.9900   22.4830 H   0  0  0  0  0  0  0  0  0  0  0  0
  -21.0630  -13.1390   22.2640 H   0  0  0  0  0  0  0  0  0  0  0  0
  -25.3140  -15.1930   20.4210 N   0  0  0  0  0  0  0  0  0  0  0  0
  -24.5440  -15.8370   20.5680 H   0  0  0  0  0  0  0  0  0  0  0  0
  -26.1520  -15.6360   20.0620 H   0  0  0  0  0  0  0  0  0  0  0  0
  -22.6960  -28.0590   19.7380 O   0  0  0  0  0  0  0  0  0  0  0  0
  -23.4680  -26.7200   19.2610 C   0  0  0  0  0  2  0  0  0  0  0  0
  -25.0110  -25.9190   19.6370 C   0  0  0  0  0  2  0  0  0  0  0  0
  -26.4650  -26.2790   20.2490 O   0  0  0  0  0  0  0  0  0  0  0  0
  -24.6720  -31.6210   23.2010 C   0  0  0  0  0  0  0  0  0  0  0  0
  -27.0960  -27.4200   19.8530 C   0  0  0  0  0  3  0  0  0  0  0  0
  -24.0120  -29.6100   21.5770 C   0  0  0  0  0  3  0  0  0  0  0  0
  -25.2940  -29.3920   19.7610 C   0  0  0  0  0  0  0  0  0  0  0  0
  -26.2270  -30.6570   21.6310 C   0  0  0  0  0  2  0  0  0  0  0  0
  -26.3590  -29.5380   20.6490 C   0  0  0  0  0  0  0  0  0  0  0  0
  -27.2640  -28.4760   20.7770 C   0  0  0  0  0  3  0  0  0  0  0  0
  -26.5270  -27.7170   18.6410 C   0  0  0  0  0  2  0  0  0  0  0  0
  -25.3880  -28.5220   18.6990 C   0  0  0  0  0  3  0  0  0  0  0  0
  -24.0790  -30.1260   20.1290 C   0  0  0  0  0  2  0  0  0  0  0  0
  -24.9350  -30.5940   22.3060 N   0  0  0  0  0  0  0  0  0  0  0  0
  -23.5390  -31.9280   23.6000 O   0  0  0  0  0  0  0  0  0  0  0  0
  -24.0340  -27.7560   21.9180 C   0  0  0  0  0  0  0  0  0  0  0  0
  -22.7760  -26.5340   21.8250 N   0  0  0  0  0  0  0  0  0  0  0  0
  -24.6790  -27.7820   22.9650 O   0  0  0  0  0  0  0  0  0  0  0  0
  -22.5360  -26.5020   20.8370 H   0  0  0  0  0  0  0  0  0  0  0  0
  -17.6540  -27.6290   22.8270 C   0  0  0  0  0  3  0  0  0  0  0  0
  -20.8790  -25.7430   22.6630 C   0  0  0  0  0  1  0  0  0  0  0  0
  -21.5700  -26.4130   21.5830 C   0  0  0  0  0  2  0  0  0  0  0  0
  -19.6580  -29.2240   21.9610 C   0  0  0  0  0  1  0  0  0  0  0  0
  -18.0170  -28.8140   21.8720 C   0  0  0  0  0  2  0  0  0  0  0  0
  -18.8190  -26.9410   23.5430 C   0  0  0  0  0  2  0  0  0  0  0  0
  -18.7330  -28.3370   24.4230 C   0  0  0  0  0  3  0  0  0  0  0  0
  -17.8050  -29.4820   24.6150 C   0  0  0  0  0  3  0  0  0  0  0  0
  -16.5150  -29.3430   24.0760 C   0  0  0  0  0  2  0  0  0  0  0  0
  -16.4240  -28.1650   23.3150 C   0  0  0  0  0  2  0  0  0  0  0  0
  -25.8830  -32.4110   23.8360 C   0  0  0  0  0  3  0  0  0  0  0  0
  -25.5240  -33.8080   24.1930 N   0  0  0  0  0  0  0  0  0  0  0  0
  -25.8870  -34.8970   23.5010 C   0  0  0  0  0  0  0  0  0  0  0  0
  -26.5680  -34.8370   22.4750 O   0  0  0  0  0  0  0  0  0  0  0  0
  -24.9620  -33.9530   25.0190 H   0  0  0  0  0  0  0  0  0  0  0  0
  -24.1520  -36.7080   23.2610 C   0  0  0  0  0  1  0  0  0  0  0  0
  -25.4130  -36.2790   24.0280 C   0  0  0  0  0  3  0  0  0  0  0  0
  -27.5570  -37.1630   24.8420 C   0  0  0  0  0  1  0  0  0  0  0  0
  -26.4270  -37.3550   23.9400 N   0  0  0  0  0  0  0  0  0  0  0  0
  -26.0170  -38.2640   24.1470 H   0  0  0  0  0  0  0  0  0  0  0  0
  -26.4510  -31.6620   25.1080 C   0  0  1  0  0  0  0  0  0  0  0  0
  -25.3570  -31.3970   26.1620 C   0  0  0  0  0  1  0  0  0  0  0  0
  -27.0760  -30.2880   24.7720 C   0  0  0  0  0  1  0  0  0  0  0  0
  -27.5850  -32.4790   25.7750 C   0  0  0  0  0  1  0  0  0  0  0  0
  1  3  1  0
  2 10  1  0
  2  4  1  0
  2  6  1  0
  4 10  1  0
  4  6  1  0
  5  1  1  0
  5 10  1  0
  6  7  1  0
  8  7  1  0
  9  3  1  0
 11 12  1  0
 13 11  1  0
 16 15  1  0
 17 25  1  0
 18 23  1  0
 19 20  1  0
 19 18  1  0
 21 20  1  0
 21 30  1  0
 21 22  1  0
 23 17  1  0
 23 22  1  0
 24 17  2  0
 25 26  1  0
 27 28  2  0
 28 47  1  0
 29 28  1  0
 29 32  1  0
 30 31  1  0
 30 27  1  0
 31 29  2  0
 32 33  1  0
 33 34  2  0
 35 38  1  0
 35 34  1  0
 36 35  2  0
 37 36  1  0
 37 32  2  0
 38 39  1  0
 39 40  1  0
 40 41  2  0
 42 41  1  0
 42 46  1  0
 43 42  2  0
 44 39  2  0
 44 43  1  0
 45 44  1  0
 47 48  1  0
 48 51  1  0
 48 50  1  0
 49 47  2  0
 52 27  1  0
 52 53  1  0
 54 52  1  0
 55  5  1  0
 56 57  1  0
 56 55  1  0
 57 58  1  0
 59 70  2  0
 60 58  1  0
 60 65  1  0
 61 71  1  0
 61 69  1  0
 62 68  1  0
 62 64  1  0
 63 69  1  0
 64 65  2  0
 64 63  1  0
 66 67  1  0
 66 60  1  0
 67 62  2  0
 68 61  1  0
 69 59  1  0
 71 73  2  0
 72 71  1  0
 74 72  1  0
 75 79  1  0
 75 84  1  0
 75 80  1  0
 77 72  1  0
 77 76  1  0
 79 78  1  0
 80 81  1  0
 81 82  2  0
 83 82  1  0
 84 83  1  0
 85 59  1  0
 85 86  1  0
 85 95  1  0
 86 89  1  0
 87 91  1  0
 87 86  1  0
 88 87  2  0
 91 90  1  0
 93 91  1  0
 93 94  1  0
 93 92  1  0
 95 98  1  1
 95 96  1  0
 97 95  1  0
M  ISO  4  17 100  25 100  57 101  58 101
M  END
>  <TORSDO>  (12) 
F 22

>  <SCORE>  (12) 
12.854

>  <name>  (12) 
11

>  <ligand_id>  (12) 
11

>  <original_smiles>  (12) 
[H]c1c([H])c([H])c2c(c1[H])C([H])([H])C([H])([H])C([H])([H])C2([H])N([H])C(=O)C1([H])N(C(=O)C([H])(N([H])C(=O)C([H])(N([H])C([H])([H])[H])C([H])([H])[H])C(C([H])([H])[H])(C([H])([H])[H])C([H])([H])[H])C([H])([H])c2c([H])c(OC([H])([H])C([H])([H])Oc3nc4c(c(C([H])([H])[H])c3[H])C([H])([H])C([H])([H])C4([H])[N+]([H])([H])C([H])([H])C([H])(N([H])C(=O)N3C([H])([H])C([H])([H])C([H])([H])C([H])(n4nc(-c5c([H])c([H])c(Oc6c([H])c([H])c(F)c([H])c6F)c([H])c5[H])c(C(=O)N([H])[H])c4N([H])[H])C3([H])[H])C([H])([H])[H])c([H])c([H])c2C1([H])[H]

>  <smiles>  (12) 
[H]c1c([H])c([H])c2c(c1[H])C([H])([H])C([H])([H])C([H])([H])C2([H])N([H])C(=O)C1([H])N(C(=O)C([H])(N([H])C(=O)C([H])(N([H])C([H])([H])[H])C([H])([H])[H])C(C([H])([H])[H])(C([H])([H])[H])C([H])([H])[H])C([H])([H])c2c([H])c(OC([H])([H])C([H])([H])Oc3nc4c(c(C([H])([H])[H])c3[H])C([H])([H])C([H])([H])C4([H])[N+]([H])([H])C([H])([H])C([H])(N([H])C(=O)N3C([H])([H])C([H])([H])C([H])([H])C([H])(n4nc(-c5c([H])c([H])c(Oc6c([H])c([H])c(F)c([H])c6F)c([H])c5[H])c(C(=O)N([H])[H])c4N([H])[H])C3([H])[H])C([H])([H])[H])c([H])c([H])c2C1([H])[H]

$$$$
12:0:0
     RDKit          3D

 95104  0  0  1  0  0  0  0  0999 V2000
  -29.9150  -23.5200   21.3920 C   0  0  0  0  0  3  0  0  0  0  0  0
  -30.3250  -22.1800   21.1830 C   0  0  0  0  0  0  0  0  0  0  0  0
  -28.8030  -24.0460   20.7010 C   0  0  0  0  0  0  0  0  0  0  0  0
  -28.1830  -23.1860   19.7590 C   0  0  0  0  0  0  0  0  0  0  0  0
  -29.6100  -21.3950   20.2520 C   0  0  0  0  0  0  0  0  0  0  0  0
  -26.9930  -23.6150   18.9270 C   0  0  0  0  0  1  0  0  0  0  0  0
  -28.5830  -21.9090   19.5450 N   0  0  0  0  0  0  0  0  0  0  0  0
  -29.9470  -20.0430   20.0320 N   0  0  0  0  0  0  0  0  0  0  0  0
  -30.7010  -19.7030   20.6190 H   0  0  0  0  0  0  0  0  0  0  0  0
  -31.4130  -20.2720   22.6290 C   0  0  0  0  0  2  0  0  0  0  0  0
  -31.4160  -21.5200   23.4780 C   0  0  0  0  0  2  0  0  0  0  0  0
  -31.4810  -21.6320   21.9700 C   0  0  0  0  0  3  0  0  0  0  0  0
  -28.2120  -25.4050   21.1280 C   0  0  0  0  0  2  0  0  0  0  0  0
  -28.3920  -26.5270   20.2390 O   0  0  0  0  0  0  0  0  0  0  0  0
  -24.5500  -31.7680   23.2390 C   0  0  0  0  0  0  0  0  0  0  0  0
  -27.2770  -27.3410   20.1940 C   0  0  0  0  0  0  0  0  0  0  0  0
  -23.3960  -30.3850   21.5460 C   0  0  0  0  0  3  0  0  0  0  0  0
  -24.8940  -28.8650   20.1500 C   0  0  0  0  0  0  0  0  0  0  0  0
  -25.9310  -30.7370   21.4360 C   0  0  0  0  0  2  0  0  0  0  0  0
  -26.0370  -29.3730   20.7840 C   0  0  0  0  0  0  0  0  0  0  0  0
  -27.2340  -28.6160   20.8080 C   0  0  0  0  0  3  0  0  0  0  0  0
  -26.1230  -26.8650   19.5400 C   0  0  0  0  0  3  0  0  0  0  0  0
  -24.9330  -27.6100   19.5240 C   0  0  0  0  0  3  0  0  0  0  0  0
  -23.6490  -29.7250   20.1660 C   0  0  0  0  0  2  0  0  0  0  0  0
  -24.6420  -30.9760   22.1330 N   0  0  0  0  0  0  0  0  0  0  0  0
  -23.4520  -32.0380   23.7460 O   0  0  0  0  0  0  0  0  0  0  0  0
  -22.7120  -29.3550   22.4730 C   0  0  0  0  0  0  0  0  0  0  0  0
  -21.3900  -29.1820   22.3080 N   0  0  0  0  0  0  0  0  0  0  0  0
  -23.3690  -28.7130   23.2970 O   0  0  0  0  0  0  0  0  0  0  0  0
  -20.9230  -29.7530   21.6190 H   0  0  0  0  0  0  0  0  0  0  0  0
  -17.9880  -28.0400   22.7340 C   0  0  0  0  0  0  0  0  0  0  0  0
  -20.5470  -28.2400   23.0440 C   0  0  0  0  0  3  0  0  0  0  0  0
  -20.6290  -26.8240   22.4310 C   0  0  0  0  0  2  0  0  0  0  0  0
  -19.5340  -26.5490   21.3950 C   0  0  0  0  0  2  0  0  0  0  0  0
  -18.1480  -26.7040   22.0270 C   0  0  0  0  0  2  0  0  0  0  0  0
  -19.1160  -28.7680   23.1980 C   0  0  0  0  0  0  0  0  0  0  0  0
  -18.9140  -30.0200   23.8190 C   0  0  0  0  0  3  0  0  0  0  0  0
  -17.6170  -30.5430   23.9810 C   0  0  0  0  0  3  0  0  0  0  0  0
  -16.5050  -29.8110   23.5350 C   0  0  0  0  0  3  0  0  0  0  0  0
  -16.6910  -28.5620   22.9170 C   0  0  0  0  0  3  0  0  0  0  0  0
  -25.8170  -32.3910   23.9050 C   0  0  0  0  0  3  0  0  0  0  0  0
  -25.5070  -33.7920   24.2200 N   0  0  0  0  0  0  0  0  0  0  0  0
  -25.8550  -34.8370   23.4580 C   0  0  0  0  0  0  0  0  0  0  0  0
  -26.5430  -34.7240   22.4390 O   0  0  0  0  0  0  0  0  0  0  0  0
  -24.8990  -33.9540   25.0100 H   0  0  0  0  0  0  0  0  0  0  0  0
  -24.1370  -36.6290   23.0590 C   0  0  0  0  0  1  0  0  0  0  0  0
  -25.3620  -36.2300   23.8950 C   0  0  0  0  0  3  0  0  0  0  0  0
  -27.4770  -37.1250   24.7650 C   0  0  0  0  0  1  0  0  0  0  0  0
  -26.3990  -37.2800   23.7920 N   0  0  0  0  0  0  0  0  0  0  0  0
  -25.9910  -38.2030   23.9160 H   0  0  0  0  0  0  0  0  0  0  0  0
  -26.2830  -31.6170   25.1980 C   0  0  1  0  0  0  0  0  0  0  0  0
  -25.1480  -31.3790   26.2220 C   0  0  0  0  0  1  0  0  0  0  0  0
  -26.8780  -30.2390   24.8250 C   0  0  0  0  0  1  0  0  0  0  0  0
  -27.4070  -32.4080   25.9060 C   0  0  0  0  0  1  0  0  0  0  0  0
  -28.8630  -19.0890   19.7720 C   0  0  0  0  0  2  0  0  0  0  0  0
  -29.2990  -17.6130   19.5230 C   0  0  0  0  0  2  0  0  0  0  0  0
  -29.9950  -16.8650   20.6950 C   0  0  0  0  0  2  0  0  0  0  0  0
  -30.4930  -14.4450   20.0560 C   0  0  0  0  0  0  0  0  0  0  0  0
  -30.2110  -12.2660   18.9290 C   0  0  0  0  0  2  0  0  0  0  0  0
  -29.1700  -12.4310   17.8020 C   0  0  0  0  0  2  0  0  0  0  0  0
  -27.7350  -12.2510   18.3390 C   0  0  0  0  0  2  0  0  0  0  0  0
  -27.4690  -13.0730   19.6280 C   0  0  0  0  0  3  0  0  0  0  0  0
  -28.6120  -12.8750   20.6500 C   0  0  0  0  0  2  0  0  0  0  0  0
  -29.8780  -13.2330   19.9860 N   0  0  0  0  0  0  0  0  0  0  0  0
  -31.5620  -14.6950   19.4930 O   0  0  0  0  0  0  0  0  0  0  0  0
  -29.7660  -15.4070   20.6580 N   0  0  0  0  0  0  0  0  0  0  0  0
  -28.9140  -15.0820   21.0920 H   0  0  0  0  0  0  0  0  0  0  0  0
  -25.1230  -13.6140   20.5420 C   0  0  0  0  0  0  0  0  0  0  0  0
  -24.1030  -12.8120   20.9800 C   0  0  0  0  0  0  0  0  0  0  0  0
  -24.5870  -11.4710   20.8790 C   0  0  0  0  0  0  0  0  0  0  0  0
  -26.1640  -12.7600   20.2070 N   0  0  0  0  0  0  0  0  0  0  0  0
  -25.8480  -11.4660   20.4650 N   0  0  0  0  0  0  0  0  0  0  0  0
  -23.9040  -10.1910   21.1000 C   0  0  0  0  0  0  0  0  0  0  0  0
  -24.3760   -9.2560   22.0480 C   0  0  0  0  0  3  0  0  0  0  0  0
  -23.6930   -8.0390   22.2540 C   0  0  0  0  0  3  0  0  0  0  0  0
  -22.5250   -7.7450   21.5120 C   0  0  0  0  0  0  0  0  0  0  0  0
  -22.0710   -8.6690   20.5530 C   0  0  0  0  0  3  0  0  0  0  0  0
  -22.7560   -9.8780   20.3460 C   0  0  0  0  0  3  0  0  0  0  0  0
  -21.8090   -6.5770   21.6280 O   0  0  0  0  0  0  0  0  0  0  0  0
  -21.7450   -5.8860   22.8110 C   0  0  0  0  0  0  0  0  0  0  0  0
  -21.2010   -6.4590   23.9800 C   0  0  0  0  0  3  0  0  0  0  0  0
  -21.0890   -5.6890   25.1560 C   0  0  0  0  0  3  0  0  0  0  0  0
  -21.5140   -4.3480   25.1610 C   0  0  0  0  0  0  0  0  0  0  0  0
  -22.0510   -3.7740   23.9960 C   0  0  0  0  0  3  0  0  0  0  0  0
  -22.1640   -4.5400   22.8240 C   0  0  0  0  0  0  0  0  0  0  0  0
  -22.6620   -3.9760   21.6980 F   0  0  0  0  0  0  0  0  0  0  0  0
  -21.4010   -3.6050   26.2870 F   0  0  0  0  0  0  0  0  0  0  0  0
  -22.7230  -13.2520   21.3780 C   0  0  0  0  0  0  0  0  0  0  0  0
  -22.0780  -12.5140   22.2740 N   0  0  0  0  0  0  0  0  0  0  0  0
  -22.2280  -14.2860   20.9280 O   0  0  0  0  0  0  0  0  0  0  0  0
  -22.4930  -11.6790   22.6590 H   0  0  0  0  0  0  0  0  0  0  0  0
  -21.1550  -12.7890   22.5790 H   0  0  0  0  0  0  0  0  0  0  0  0
  -25.2470  -14.9910   20.3820 N   0  0  0  0  0  0  0  0  0  0  0  0
  -24.4790  -15.6290   20.5590 H   0  0  0  0  0  0  0  0  0  0  0  0
  -26.0570  -15.4480   19.9850 H   0  0  0  0  0  0  0  0  0  0  0  0
  2  1  1  0
  2 12  1  0
  3 13  1  0
  3  1  2  0
  4  3  1  0
  5  2  2  0
  6  4  1  0
  7  4  2  0
  7  5  1  0
  8  5  1  0
  8  9  1  0
 10 11  1  0
 12 10  1  0
 12 11  1  0
 14 13  1  0
 15 26  2  0
 16 14  1  0
 16 21  1  0
 17 25  1  0
 17 27  1  0
 18 24  1  0
 18 20  1  0
 19 25  1  0
 20 21  2  0
 20 19  1  0
 22 16  2  0
 23 22  1  0
 23 18  2  0
 24 17  1  0
 25 15  1  0
 27 29  2  0
 28 27  1  0
 30 28  1  0
 31 40  2  0
 31 36  1  0
 32 28  1  0
 32 36  1  0
 33 32  1  0
 34 35  1  0
 34 33  1  0
 35 31  1  0
 36 37  2  0
 37 38  1  0
 39 38  2  0
 40 39  1  0
 41 15  1  0
 41 42  1  0
 41 51  1  0
 42 45  1  0
 43 47  1  0
 43 42  1  0
 44 43  2  0
 47 46  1  0
 49 47  1  0
 49 50  1  0
 49 48  1  0
 51 54  1  1
 51 52  1  0
 53 51  1  0
 55  8  1  0
 56 55  1  0
 56 57  1  0
 58 66  1  0
 59 64  1  0
 60 61  1  0
 60 59  1  0
 62 61  1  0
 62 71  1  0
 62 63  1  0
 64 58  1  0
 64 63  1  0
 65 58  2  0
 66 57  1  0
 66 67  1  0
 68 69  2  0
 69 88  1  0
 70 69  1  0
 70 73  1  0
 71 72  1  0
 71 68  1  0
 72 70  2  0
 73 74  1  0
 74 75  2  0
 76 79  1  0
 76 75  1  0
 77 76  2  0
 78 77  1  0
 78 73  2  0
 79 80  1  0
 80 85  2  0
 80 81  1  0
 81 82  2  0
 82 83  1  0
 83 87  1  0
 84 83  2  0
 85 84  1  0
 86 85  1  0
 88 89  1  0
 89 92  1  0
 89 91  1  0
 90 88  2  0
 93 68  1  0
 93 94  1  0
 95 93  1  0
M  ISO  4  13 101  14 101  58 100  66 100
M  END
>  <TORSDO>  (13) 
F 21

>  <SCORE>  (13) 
-13.542

>  <name>  (13) 
12

>  <ligand_id>  (13) 
12

>  <original_smiles>  (13) 
[H]c1c([H])c([H])c2c(c1[H])C([H])([H])C([H])([H])C([H])([H])C2([H])N([H])C(=O)C1([H])N(C(=O)C([H])(N([H])C(=O)C([H])(N([H])C([H])([H])[H])C([H])([H])[H])C(C([H])([H])[H])(C([H])([H])[H])C([H])([H])[H])C([H])([H])c2c([H])c(OC([H])([H])c3c(C([H])([H])[H])nc(N([H])C([H])([H])C([H])([H])C([H])([H])N([H])C(=O)N4C([H])([H])C([H])([H])C([H])([H])C([H])(n5nc(-c6c([H])c([H])c(Oc7c([H])c([H])c(F)c([H])c7F)c([H])c6[H])c(C(=O)N([H])[H])c5N([H])[H])C4([H])[H])c(C4([H])C([H])([H])C4([H])[H])c3[H])c([H])c([H])c2C1([H])[H]

>  <smiles>  (13) 
[H]c1c([H])c([H])c2c(c1[H])C([H])([H])C([H])([H])C([H])([H])C2([H])N([H])C(=O)C1([H])N(C(=O)C([H])(N([H])C(=O)C([H])(N([H])C([H])([H])[H])C([H])([H])[H])C(C([H])([H])[H])(C([H])([H])[H])C([H])([H])[H])C([H])([H])c2c([H])c(OC([H])([H])c3c(C([H])([H])[H])nc(N([H])C([H])([H])C([H])([H])C([H])([H])N([H])C(=O)N4C([H])([H])C([H])([H])C([H])([H])C([H])(n5nc(-c6c([H])c([H])c(Oc7c([H])c([H])c(F)c([H])c7F)c([H])c6[H])c(C(=O)N([H])[H])c5N([H])[H])C4([H])[H])c(C4([H])C([H])([H])C4([H])[H])c3[H])c([H])c([H])c2C1([H])[H]

$$$$
13:0:0
     RDKit          3D

101111  0  0  1  0  0  0  0  0999 V2000
  -30.8820  -20.0160   19.7140 C   0  0  0  0  0  3  0  0  0  0  0  0
  -31.0010  -18.5760   19.8530 C   0  0  0  0  0  3  0  0  0  0  0  0
  -28.6510  -18.4530   20.0630 C   0  0  0  0  0  3  0  0  0  0  0  0
  -29.6530  -20.7680   19.7790 C   0  0  0  0  0  0  0  0  0  0  0  0
  -29.8830  -17.7150   20.0630 C   0  0  0  0  0  0  0  0  0  0  0  0
  -28.5200  -19.8970   19.9280 C   0  0  0  0  0  0  0  0  0  0  0  0
  -30.7030  -15.1020   19.9950 C   0  0  0  0  0  0  0  0  0  0  0  0
  -30.5630  -12.7340   19.1380 C   0  0  0  0  0  2  0  0  0  0  0  0
  -29.6120  -12.7070   17.9160 C   0  0  0  0  0  2  0  0  0  0  0  0
  -28.1430  -12.5520   18.3620 C   0  0  0  0  0  2  0  0  0  0  0  0
  -27.7740  -13.5090   19.5260 C   0  0  0  0  0  3  0  0  0  0  0  0
  -28.8400  -13.4880   20.6440 C   0  0  0  0  0  2  0  0  0  0  0  0
  -30.1270  -13.8400   20.0270 N   0  0  0  0  0  0  0  0  0  0  0  0
  -31.8800  -15.2100   19.6340 O   0  0  0  0  0  0  0  0  0  0  0  0
  -29.8640  -16.2050   20.2280 N   0  0  0  0  0  0  0  0  0  0  0  0
  -28.9750  -15.8740   20.5690 H   0  0  0  0  0  0  0  0  0  0  0  0
  -25.4380  -14.1770   20.3440 C   0  0  0  0  0  0  0  0  0  0  0  0
  -24.3450  -13.4400   20.7080 C   0  0  0  0  0  0  0  0  0  0  0  0
  -24.7400  -12.0710   20.6050 C   0  0  0  0  0  0  0  0  0  0  0  0
  -26.4300  -13.2610   20.0380 N   0  0  0  0  0  0  0  0  0  0  0  0
  -26.0190  -11.9850   20.2580 N   0  0  0  0  0  0  0  0  0  0  0  0
  -23.9560  -10.8380   20.7570 C   0  0  0  0  0  0  0  0  0  0  0  0
  -24.4170   -9.7630   21.5490 C   0  0  0  0  0  3  0  0  0  0  0  0
  -23.6360   -8.5960   21.6940 C   0  0  0  0  0  3  0  0  0  0  0  0
  -22.3800   -8.4970   21.0510 C   0  0  0  0  0  0  0  0  0  0  0  0
  -21.9370   -9.5600   20.2450 C   0  0  0  0  0  3  0  0  0  0  0  0
  -22.7170  -10.7190   20.0970 C   0  0  0  0  0  3  0  0  0  0  0  0
  -21.5650   -7.3920   21.1160 O   0  0  0  0  0  0  0  0  0  0  0  0
  -21.6880   -6.4640   22.1180 C   0  0  0  0  0  0  0  0  0  0  0  0
  -21.6050   -6.8230   23.4810 C   0  0  0  0  0  3  0  0  0  0  0  0
  -21.6680   -5.8280   24.4770 C   0  0  0  0  0  3  0  0  0  0  0  0
  -21.8050   -4.4740   24.1120 C   0  0  0  0  0  0  0  0  0  0  0  0
  -21.8820   -4.1140   22.7560 C   0  0  0  0  0  3  0  0  0  0  0  0
  -21.8210   -5.1070   21.7620 C   0  0  0  0  0  0  0  0  0  0  0  0
  -21.8750   -4.7510   20.4550 F   0  0  0  0  0  0  0  0  0  0  0  0
  -21.8570   -3.5170   25.0680 F   0  0  0  0  0  0  0  0  0  0  0  0
  -22.9800  -13.9720   21.0360 C   0  0  0  0  0  0  0  0  0  0  0  0
  -22.2600  -13.3060   21.9320 N   0  0  0  0  0  0  0  0  0  0  0  0
  -22.5640  -15.0130   20.5310 O   0  0  0  0  0  0  0  0  0  0  0  0
  -22.6110  -12.4630   22.3630 H   0  0  0  0  0  0  0  0  0  0  0  0
  -21.3460  -13.6460   22.1910 H   0  0  0  0  0  0  0  0  0  0  0  0
  -25.6630  -15.5450   20.2210 N   0  0  0  0  0  0  0  0  0  0  0  0
  -24.9140  -16.2160   20.3510 H   0  0  0  0  0  0  0  0  0  0  0  0
  -26.4920  -15.9530   19.8080 H   0  0  0  0  0  0  0  0  0  0  0  0
  -30.6650  -23.8820   21.1400 C   0  0  0  0  0  2  0  0  0  0  0  0
  -29.6670  -22.7670   21.4430 C   0  0  0  0  0  2  0  0  0  0  0  0
  -31.0260  -23.0610   19.9080 C   0  0  0  0  0  2  0  0  0  0  0  0
  -29.6120  -22.4140   19.9350 C   0  0  1  0  0  0  0  0  0  0  0  0
  -28.6280  -24.3650   18.1750 C   0  0  0  0  0  2  0  0  0  0  0  0
  -28.4560  -23.3060   19.1940 C   0  0  0  0  0  3  0  0  0  0  0  0
  -27.8980  -24.8660   19.4300 C   0  0  0  0  0  3  0  0  0  0  0  0
  -28.1650  -26.3600   19.1500 O   0  0  0  0  0  0  0  0  0  0  0  0
  -24.7540  -31.5090   23.1130 C   0  0  0  0  0  0  0  0  0  0  0  0
  -27.0990  -27.3070   19.3020 C   0  0  0  0  0  0  0  0  0  0  0  0
  -23.4270  -30.3150   21.4120 C   0  0  0  0  0  3  0  0  0  0  0  0
  -24.7600  -28.9690   19.6800 C   0  0  0  0  0  0  0  0  0  0  0  0
  -25.9530  -30.6540   21.0710 C   0  0  0  0  0  2  0  0  0  0  0  0
  -25.9810  -29.3630   20.2430 C   0  0  0  0  0  0  0  0  0  0  0  0
  -27.1520  -28.5490   20.0400 C   0  0  0  0  0  3  0  0  0  0  0  0
  -25.8540  -27.0140   18.7040 C   0  0  0  0  0  3  0  0  0  0  0  0
  -24.7040  -27.8070   18.8970 C   0  0  0  0  0  3  0  0  0  0  0  0
  -23.5340  -29.8250   19.9440 C   0  0  0  0  0  2  0  0  0  0  0  0
  -24.7360  -30.8390   21.9210 N   0  0  0  0  0  0  0  0  0  0  0  0
  -23.7150  -31.7040   23.7610 O   0  0  0  0  0  0  0  0  0  0  0  0
  -22.8410  -29.1790   22.2870 C   0  0  0  0  0  0  0  0  0  0  0  0
  -21.5170  -28.9580   22.1950 N   0  0  0  0  0  0  0  0  0  0  0  0
  -23.5760  -28.5050   23.0110 O   0  0  0  0  0  0  0  0  0  0  0  0
  -20.9780  -29.5570   21.5870 H   0  0  0  0  0  0  0  0  0  0  0  0
  -18.2450  -27.4530   22.5770 C   0  0  0  0  0  0  0  0  0  0  0  0
  -20.7700  -27.9100   22.8970 C   0  0  0  0  0  3  0  0  0  0  0  0
  -20.9980  -26.5290   22.2370 C   0  0  0  0  0  2  0  0  0  0  0  0
  -19.9360  -26.1800   21.1890 C   0  0  0  0  0  2  0  0  0  0  0  0
  -18.5410  -26.1690   21.8210 C   0  0  0  0  0  2  0  0  0  0  0  0
  -19.2920  -28.2780   23.0670 C   0  0  0  0  0  0  0  0  0  0  0  0
  -18.9610  -29.4780   23.7350 C   0  0  0  0  0  3  0  0  0  0  0  0
  -17.6170  -29.8540   23.9150 C   0  0  0  0  0  3  0  0  0  0  0  0
  -16.5850  -29.0260   23.4390 C   0  0  0  0  0  3  0  0  0  0  0  0
  -16.9000  -27.8260   22.7770 C   0  0  0  0  0  3  0  0  0  0  0  0
  -26.0780  -32.0790   23.7070 C   0  0  0  0  0  3  0  0  0  0  0  0
  -25.7930  -33.4260   24.2220 N   0  0  0  0  0  0  0  0  0  0  0  0
  -26.1750  -34.5670   23.6320 C   0  0  0  0  0  0  0  0  0  0  0  0
  -26.8720  -34.5910   22.6140 O   0  0  0  0  0  0  0  0  0  0  0  0
  -25.1800  -33.4830   25.0230 H   0  0  0  0  0  0  0  0  0  0  0  0
  -24.5190  -36.4550   23.4860 C   0  0  0  0  0  1  0  0  0  0  0  0
  -25.7130  -35.8900   24.2730 C   0  0  0  0  0  3  0  0  0  0  0  0
  -27.8330  -36.5690   25.3100 C   0  0  0  0  0  1  0  0  0  0  0  0
  -26.7810  -36.9110   24.3560 N   0  0  0  0  0  0  0  0  0  0  0  0
  -26.3970  -37.8150   24.6170 H   0  0  0  0  0  0  0  0  0  0  0  0
  -26.6880  -31.1720   24.8460 C   0  0  1  0  0  0  0  0  0  0  0  0
  -25.6820  -30.8180   25.9660 C   0  0  0  0  0  1  0  0  0  0  0  0
  -27.2260  -29.8450   24.2640 C   0  0  0  0  0  1  0  0  0  0  0  0
  -27.8950  -31.8880   25.4970 C   0  0  0  0  0  1  0  0  0  0  0  0
  -27.2540  -20.5010   19.9790 N   0  0  0  0  0  0  0  0  0  0  0  0
  -27.3240  -21.5120   20.0000 H   0  0  0  0  0  0  0  0  0  0  0  0
  -26.2200  -19.9940   19.0750 C   0  0  0  0  0  2  0  0  0  0  0  0
  -26.1230  -21.7860   17.2620 C   0  0  0  0  0  1  0  0  0  0  0  0
  -25.3970  -21.1370   18.4560 C   0  0  0  0  0  3  0  0  0  0  0  0
  -25.0800  -22.1270   19.4990 N   0  0  0  0  0  4  0  0  0  0  0  0
  -25.9270  -22.3930   19.9690 H   0  0  0  0  0  0  0  0  0  0  0  0
  -24.4740  -21.7140   20.1850 H   0  0  0  0  0  0  0  0  0  0  0  0
  -24.6280  -22.9380   19.1160 H   0  0  0  0  0  0  0  0  0  0  0  0
  1  4  2  0
  1  2  1  0
  2  5  2  0
  4  6  1  0
  4 48  1  0
  5  3  1  0
  5 15  1  0
  6 93  1  0
  6  3  2  0
  7 13  1  0
  7 15  1  0
  8 13  1  0
  9 10  1  0
  9  8  1  0
 11 10  1  0
 11 20  1  0
 11 12  1  0
 13 12  1  0
 14  7  2  0
 15 16  1  0
 17 18  2  0
 18 37  1  0
 19 18  1  0
 19 22  1  0
 20 21  1  0
 20 17  1  0
 21 19  2  0
 22 23  1  0
 23 24  2  0
 25 28  1  0
 25 24  1  0
 26 25  2  0
 27 26  1  0
 27 22  2  0
 28 29  1  0
 29 30  1  0
 30 31  2  0
 32 31  1  0
 32 36  1  0
 33 32  2  0
 34 29  2  0
 34 33  1  0
 35 34  1  0
 37 38  1  0
 38 41  1  0
 38 40  1  0
 39 37  2  0
 42 17  1  0
 42 43  1  0
 44 42  1  0
 45 46  1  0
 47 48  1  0
 47 45  1  0
 48 46  1  0
 49 51  1  0
 50 49  1  0
 50 51  1  0
 48 50  1  6
 51 52  1  0
 52 54  1  0
 53 64  2  0
 54 59  1  0
 55 63  1  0
 55 65  1  0
 56 62  1  0
 56 58  1  0
 57 63  1  0
 58 57  1  0
 59 58  2  0
 60 61  1  0
 60 54  2  0
 61 56  2  0
 62 55  1  0
 63 53  1  0
 65 67  2  0
 66 65  1  0
 68 66  1  0
 69 78  2  0
 69 74  1  0
 70 66  1  0
 70 74  1  0
 71 70  1  0
 72 73  1  0
 72 71  1  0
 73 69  1  0
 74 75  2  0
 75 76  1  0
 77 76  2  0
 78 77  1  0
 79 53  1  0
 79 80  1  0
 79 89  1  0
 80 83  1  0
 81 80  1  0
 81 85  1  0
 82 81  2  0
 85 84  1  0
 85 87  1  0
 87 88  1  0
 87 86  1  0
 89 92  1  1
 89 90  1  0
 91 89  1  0
 93 94  1  0
 95 93  1  0
 97 96  1  0
 97 95  1  0
 97 98  1  0
 98 99  1  0
 98100  1  0
101 98  1  0
M  ISO  4   7 100  15 100  51 101  52 101
M  END
>  <TORSDO>  (14) 
F 22

>  <SCORE>  (14) 
-11.593

>  <name>  (14) 
13

>  <ligand_id>  (14) 
13

>  <original_smiles>  (14) 
[H]c1c([H])c([H])c2c(c1[H])C([H])([H])C([H])([H])C([H])([H])C2([H])N([H])C(=O)C1([H])N(C(=O)C([H])(N([H])C(=O)C([H])(N([H])C([H])([H])[H])C([H])([H])[H])C(C([H])([H])[H])(C([H])([H])[H])C([H])([H])[H])C([H])([H])c2c([H])c(OC3([H])C([H])([H])C3([H])C3(c4c([H])c([H])c(N([H])C(=O)N5C([H])([H])C([H])([H])C([H])([H])C([H])(n6nc(-c7c([H])c([H])c(Oc8c([H])c([H])c(F)c([H])c8F)c([H])c7[H])c(C(=O)N([H])[H])c6N([H])[H])C5([H])[H])c([H])c4N([H])C([H])([H])C([H])(C([H])([H])[H])[N+]([H])([H])[H])C([H])([H])C([H])([H])C3([H])[H])c([H])c([H])c2C1([H])[H]

>  <smiles>  (14) 
[H]c1c([H])c([H])c2c(c1[H])C([H])([H])C([H])([H])C([H])([H])C2([H])N([H])C(=O)C1([H])N(C(=O)C([H])(N([H])C(=O)C([H])(N([H])C([H])([H])[H])C([H])([H])[H])C(C([H])([H])[H])(C([H])([H])[H])C([H])([H])[H])C([H])([H])c2c([H])c(OC3([H])C([H])([H])C3([H])C3(c4c([H])c([H])c(N([H])C(=O)N5C([H])([H])C([H])([H])C([H])([H])C([H])(n6nc(-c7c([H])c([H])c(Oc8c([H])c([H])c(F)c([H])c8F)c([H])c7[H])c(C(=O)N([H])[H])c6N([H])[H])C5([H])[H])c([H])c4N([H])C([H])([H])C([H])(C([H])([H])[H])[N+]([H])([H])[H])C([H])([H])C([H])([H])C3([H])[H])c([H])c([H])c2C1([H])[H]

$$$$
14:0:0
     RDKit          3D

100110  0  0  1  0  0  0  0  0999 V2000
  -29.2760  -24.0350   19.1020 C   0  0  0  0  0  3  0  0  0  0  0  0
  -30.0610  -22.2100   21.0810 C   0  0  0  0  0  3  0  0  0  0  0  0
  -29.5110  -22.6770   18.7560 C   0  0  0  0  0  0  0  0  0  0  0  0
  -29.4410  -24.4980   20.4250 C   0  0  0  0  0  0  0  0  0  0  0  0
  -29.9350  -21.7430   19.7490 C   0  0  0  0  0  0  0  0  0  0  0  0
  -29.8180  -23.5680   21.4200 C   0  0  0  0  0  0  0  0  0  0  0  0
  -28.3390  -22.8770   16.3810 C   0  0  0  0  0  2  0  0  0  0  0  0
  -28.1570  -21.4620   16.8790 C   0  0  0  0  0  2  0  0  0  0  0  0
  -29.3600  -22.2650   17.3180 C   0  0  0  0  0  3  0  0  0  0  0  0
  -30.3810  -20.3000   19.3700 C   0  0  0  0  0  2  0  0  0  0  0  0
  -29.8950  -19.1890   20.2420 N   0  0  0  0  0  4  0  0  0  0  0  0
  -28.8950  -19.1160   20.1390 H   0  0  0  0  0  0  0  0  0  0  0  0
  -30.0880  -19.4490   21.1940 H   0  0  0  0  0  0  0  0  0  0  0  0
  -30.5420  -17.8560   20.0010 C   0  0  0  0  0  2  0  0  0  0  0  0
  -31.0420  -14.6340   19.7770 C   0  0  0  0  0  0  0  0  0  0  0  0
  -30.5130  -12.5920   18.4730 C   0  0  0  0  0  2  0  0  0  0  0  0
  -29.4550  -12.8950   17.3950 C   0  0  0  0  0  2  0  0  0  0  0  0
  -28.0340  -12.7660   17.9770 C   0  0  0  0  0  2  0  0  0  0  0  0
  -27.8620  -13.5350   19.3120 C   0  0  0  0  0  3  0  0  0  0  0  0
  -29.0150  -13.2160   20.2880 C   0  0  0  0  0  2  0  0  0  0  0  0
  -30.2890  -13.5080   19.6070 N   0  0  0  0  0  0  0  0  0  0  0  0
  -32.0150  -14.8990   19.0650 O   0  0  0  0  0  0  0  0  0  0  0  0
  -30.8620  -16.1750   23.1120 C   0  0  0  0  0  2  0  0  0  0  0  0
  -29.8560  -17.0460   22.3630 C   0  0  0  0  0  2  0  0  0  0  0  0
  -31.5460  -15.3220   22.0450 C   0  0  0  0  0  2  0  0  0  0  0  0
  -29.9500  -16.6820   20.8650 C   0  0  0  0  0  3  0  0  0  0  0  0
  -30.7260  -15.4120   20.8430 N   0  0  0  0  0  0  0  0  0  0  0  0
  -25.5710  -14.1800   20.2880 C   0  0  0  0  0  0  0  0  0  0  0  0
  -24.5180  -13.4240   20.7320 C   0  0  0  0  0  0  0  0  0  0  0  0
  -24.9250  -12.0610   20.5930 C   0  0  0  0  0  0  0  0  0  0  0  0
  -26.5550  -13.2790   19.9130 N   0  0  0  0  0  0  0  0  0  0  0  0
  -26.1740  -11.9970   20.1490 N   0  0  0  0  0  0  0  0  0  0  0  0
  -24.1760  -10.8140   20.7990 C   0  0  0  0  0  0  0  0  0  0  0  0
  -24.6310   -9.8120   21.6860 C   0  0  0  0  0  3  0  0  0  0  0  0
  -23.8810   -8.6310   21.8770 C   0  0  0  0  0  3  0  0  0  0  0  0
  -22.6650   -8.4410   21.1800 C   0  0  0  0  0  0  0  0  0  0  0  0
  -22.2270   -9.4310   20.2830 C   0  0  0  0  0  3  0  0  0  0  0  0
  -22.9760  -10.6040   20.0890 C   0  0  0  0  0  3  0  0  0  0  0  0
  -21.8880   -7.3100   21.2840 O   0  0  0  0  0  0  0  0  0  0  0  0
  -21.8260   -6.5820   22.4450 C   0  0  0  0  0  0  0  0  0  0  0  0
  -21.4480   -7.1700   23.6710 C   0  0  0  0  0  3  0  0  0  0  0  0
  -21.3340   -6.3750   24.8300 C   0  0  0  0  0  3  0  0  0  0  0  0
  -21.5850   -4.9910   24.7600 C   0  0  0  0  0  0  0  0  0  0  0  0
  -21.9540   -4.4010   23.5390 C   0  0  0  0  0  3  0  0  0  0  0  0
  -22.0700   -5.1950   22.3840 C   0  0  0  0  0  0  0  0  0  0  0  0
  -22.4060   -4.6190   21.2040 F   0  0  0  0  0  0  0  0  0  0  0  0
  -21.4650   -4.2220   25.8690 F   0  0  0  0  0  0  0  0  0  0  0  0
  -23.1760  -13.9280   21.1780 C   0  0  0  0  0  0  0  0  0  0  0  0
  -22.5350  -13.2340   22.1180 N   0  0  0  0  0  0  0  0  0  0  0  0
  -22.7060  -14.9720   20.7250 O   0  0  0  0  0  0  0  0  0  0  0  0
  -22.9250  -12.3870   22.5030 H   0  0  0  0  0  0  0  0  0  0  0  0
  -21.6360  -13.5510   22.4520 H   0  0  0  0  0  0  0  0  0  0  0  0
  -25.7670  -15.5510   20.1510 N   0  0  0  0  0  0  0  0  0  0  0  0
  -25.0300  -16.2250   20.3280 H   0  0  0  0  0  0  0  0  0  0  0  0
  -26.5940  -15.9660   19.7370 H   0  0  0  0  0  0  0  0  0  0  0  0
  -29.2380  -25.9730   20.8250 C   0  0  0  0  0  2  0  0  0  0  0  0
  -29.0260  -26.9160   19.7630 O   0  0  0  0  0  0  0  0  0  0  0  0
  -24.8220  -31.6330   23.1400 C   0  0  0  0  0  0  0  0  0  0  0  0
  -27.8220  -27.5820   19.8390 C   0  0  0  0  0  0  0  0  0  0  0  0
  -23.7340  -30.2130   21.4340 C   0  0  0  0  0  3  0  0  0  0  0  0
  -25.3100  -28.8710   19.9380 C   0  0  0  0  0  0  0  0  0  0  0  0
  -26.2200  -30.7940   21.2520 C   0  0  0  0  0  2  0  0  0  0  0  0
  -26.4230  -29.4660   20.5480 C   0  0  0  0  0  0  0  0  0  0  0  0
  -27.6870  -28.8310   20.4930 C   0  0  0  0  0  3  0  0  0  0  0  0
  -26.6950  -26.9980   19.2320 C   0  0  0  0  0  3  0  0  0  0  0  0
  -25.4400  -27.6350   19.2800 C   0  0  0  0  0  3  0  0  0  0  0  0
  -23.9970  -29.6180   20.0240 C   0  0  0  0  0  2  0  0  0  0  0  0
  -24.9430  -30.8920   22.0030 N   0  0  0  0  0  0  0  0  0  0  0  0
  -23.7220  -31.7870   23.6910 O   0  0  0  0  0  0  0  0  0  0  0  0
  -23.1720  -29.0970   22.3440 C   0  0  0  0  0  0  0  0  0  0  0  0
  -21.8720  -28.7950   22.1930 N   0  0  0  0  0  0  0  0  0  0  0  0
  -23.9040  -28.5050   23.1440 O   0  0  0  0  0  0  0  0  0  0  0  0
  -21.3390  -29.3300   21.5210 H   0  0  0  0  0  0  0  0  0  0  0  0
  -18.6330  -27.2340   22.5600 C   0  0  0  0  0  0  0  0  0  0  0  0
  -21.1410  -27.7520   22.9130 C   0  0  0  0  0  3  0  0  0  0  0  0
  -21.4100  -26.3590   22.3010 C   0  0  0  0  0  2  0  0  0  0  0  0
  -20.3760  -25.9540   21.2450 C   0  0  0  0  0  2  0  0  0  0  0  0
  -18.9700  -25.9320   21.8540 C   0  0  0  0  0  2  0  0  0  0  0  0
  -19.6530  -28.0970   23.0420 C   0  0  0  0  0  0  0  0  0  0  0  0
  -19.2860  -29.3120   23.6600 C   0  0  0  0  0  3  0  0  0  0  0  0
  -17.9310  -29.6700   23.7990 C   0  0  0  0  0  3  0  0  0  0  0  0
  -16.9270  -28.8050   23.3350 C   0  0  0  0  0  3  0  0  0  0  0  0
  -17.2760  -27.5890   22.7210 C   0  0  0  0  0  3  0  0  0  0  0  0
  -26.0510  -32.3420   23.7900 C   0  0  0  0  0  3  0  0  0  0  0  0
  -25.6310  -33.6980   24.1690 N   0  0  0  0  0  0  0  0  0  0  0  0
  -25.8750  -34.7980   23.4430 C   0  0  0  0  0  0  0  0  0  0  0  0
  -26.5470  -34.7840   22.4100 O   0  0  0  0  0  0  0  0  0  0  0  0
  -25.0260  -33.7770   24.9720 H   0  0  0  0  0  0  0  0  0  0  0  0
  -23.9990  -36.4480   23.1580 C   0  0  0  0  0  1  0  0  0  0  0  0
  -25.2780  -36.1270   23.9480 C   0  0  0  0  0  3  0  0  0  0  0  0
  -27.3420  -37.1600   24.7840 C   0  0  0  0  0  1  0  0  0  0  0  0
  -26.2180  -37.2660   23.8570 N   0  0  0  0  0  0  0  0  0  0  0  0
  -25.7380  -38.1440   24.0390 H   0  0  0  0  0  0  0  0  0  0  0  0
  -26.6260  -31.5660   25.0370 C   0  0  1  0  0  0  0  0  0  0  0  0
  -25.5550  -31.2050   26.0940 C   0  0  0  0  0  1  0  0  0  0  0  0
  -27.3130  -30.2530   24.5950 C   0  0  0  0  0  1  0  0  0  0  0  0
  -27.7180  -32.4180   25.7250 C   0  0  0  0  0  1  0  0  0  0  0  0
  -29.9820  -24.0490   22.6970 O   0  0  0  0  0  0  0  0  0  0  0  0
  -28.9860  -24.2800   24.8330 C   0  0  0  0  0  1  0  0  0  0  0  0
  -29.4380  -23.2860   23.7610 C   0  0  0  0  0  2  0  0  0  0  0  0
  1  4  1  0
  2  6  1  0
  3  1  2  0
  3  5  1  0
  4 56  1  0
  4  6  2  0
  5  2  2  0
  6 98  1  0
  7  8  1  0
  7  9  1  0
  8  9  1  0
  9  3  1  0
 10  5  1  0
 10 11  1  0
 11 13  1  0
 12 11  1  0
 14 11  1  0
 15 27  1  0
 16 21  1  0
 17 18  1  0
 17 16  1  0
 19 18  1  0
 19 31  1  0
 19 20  1  0
 21 15  1  0
 21 20  1  0
 22 15  2  0
 24 23  1  0
 25 23  1  0
 26 14  1  0
 26 24  1  0
 27 26  1  0
 27 25  1  0
 28 29  2  0
 29 48  1  0
 30 29  1  0
 30 33  1  0
 31 32  1  0
 31 28  1  0
 32 30  2  0
 33 34  1  0
 34 35  2  0
 36 39  1  0
 36 35  1  0
 37 36  2  0
 38 37  1  0
 38 33  2  0
 39 40  1  0
 40 41  1  0
 41 42  2  0
 43 42  1  0
 43 47  1  0
 44 43  2  0
 45 40  2  0
 45 44  1  0
 46 45  1  0
 48 49  1  0
 49 52  1  0
 49 51  1  0
 50 48  2  0
 53 28  1  0
 53 54  1  0
 55 53  1  0
 57 59  1  0
 57 56  1  0
 58 69  2  0
 59 64  1  0
 60 68  1  0
 60 70  1  0
 61 67  1  0
 61 63  1  0
 62 68  1  0
 63 62  1  0
 64 63  2  0
 65 66  1  0
 65 59  2  0
 66 61  2  0
 67 60  1  0
 68 58  1  0
 70 72  2  0
 71 70  1  0
 73 71  1  0
 74 83  2  0
 74 79  1  0
 75 71  1  0
 75 79  1  0
 76 75  1  0
 77 78  1  0
 77 76  1  0
 78 74  1  0
 79 80  2  0
 80 81  1  0
 82 81  2  0
 83 82  1  0
 84 58  1  0
 84 85  1  0
 84 94  1  0
 85 88  1  0
 86 90  1  0
 86 85  1  0
 87 86  2  0
 90 89  1  0
 92 90  1  0
 92 93  1  0
 92 91  1  0
 94 97  1  1
 94 95  1  0
 96 94  1  0
 98100  1  0
100 99  1  0
M  ISO  4  15 100  27 100  56 101  57 101
M  END
>  <TORSDO>  (15) 
F 23

>  <SCORE>  (15) 
-6.857

>  <name>  (15) 
14

>  <ligand_id>  (15) 
14

>  <original_smiles>  (15) 
[H]c1c([H])c([H])c2c(c1[H])C([H])([H])C([H])([H])C([H])([H])C2([H])N([H])C(=O)C1([H])N(C(=O)C([H])(N([H])C(=O)C([H])(N([H])C([H])([H])[H])C([H])([H])[H])C(C([H])([H])[H])(C([H])([H])[H])C([H])([H])[H])C([H])([H])c2c([H])c(OC([H])([H])c3c([H])c(C4([H])C([H])([H])C4([H])[H])c(C([H])([H])[N+]([H])([H])C([H])([H])C4([H])N(C(=O)N5C([H])([H])C([H])([H])C([H])([H])C([H])(n6nc(-c7c([H])c([H])c(Oc8c([H])c([H])c(F)c([H])c8F)c([H])c7[H])c(C(=O)N([H])[H])c6N([H])[H])C5([H])[H])C([H])([H])C([H])([H])C4([H])[H])c([H])c3OC([H])([H])C([H])([H])[H])c([H])c([H])c2C1([H])[H]

>  <smiles>  (15) 
[H]c1c([H])c([H])c2c(c1[H])C([H])([H])C([H])([H])C([H])([H])C2([H])N([H])C(=O)C1([H])N(C(=O)C([H])(N([H])C(=O)C([H])(N([H])C([H])([H])[H])C([H])([H])[H])C(C([H])([H])[H])(C([H])([H])[H])C([H])([H])[H])C([H])([H])c2c([H])c(OC([H])([H])c3c([H])c(C4([H])C([H])([H])C4([H])[H])c(C([H])([H])[N+]([H])([H])C([H])([H])C4([H])N(C(=O)N5C([H])([H])C([H])([H])C([H])([H])C([H])(n6nc(-c7c([H])c([H])c(Oc8c([H])c([H])c(F)c([H])c8F)c([H])c7[H])c(C(=O)N([H])[H])c6N([H])[H])C5([H])[H])C([H])([H])C([H])([H])C4([H])[H])c([H])c3OC([H])([H])C([H])([H])[H])c([H])c([H])c2C1([H])[H]

$$$$
15:0:0
     RDKit          3D

 96106  0  0  1  0  0  0  0  0999 V2000
  -29.1550  -19.9090   18.6360 C   0  0  0  0  0  3  0  0  0  0  0  0
  -29.4310  -20.1990   19.9920 C   0  0  0  0  0  0  0  0  0  0  0  0
  -29.2070  -22.6330   19.4440 C   0  0  0  0  0  0  0  0  0  0  0  0
  -28.9480  -22.2660   18.1200 C   0  0  0  0  0  0  0  0  0  0  0  0
  -29.4670  -21.5900   20.4000 C   0  0  0  0  0  0  0  0  0  0  0  0
  -28.9040  -20.9270   17.6850 C   0  0  0  0  0  0  0  0  0  0  0  0
  -28.8190  -23.4510   17.2040 C   0  0  0  0  0  2  0  0  0  0  0  0
  -29.2470  -24.6570   18.0640 C   0  0  0  0  0  2  0  0  0  0  0  0
  -29.3300  -24.1960   19.5470 C   0  0  0  0  0  3  0  0  0  0  0  0
  -29.8130  -21.9590   21.8330 C   0  0  0  0  0  1  0  0  0  0  0  0
  -30.7420  -14.6230   20.2790 C   0  0  0  0  0  0  0  0  0  0  0  0
  -30.3840  -12.4130   19.1880 C   0  0  0  0  0  2  0  0  0  0  0  0
  -29.4360  -12.5340   17.9780 C   0  0  0  0  0  2  0  0  0  0  0  0
  -27.9710  -12.3700   18.4250 C   0  0  0  0  0  2  0  0  0  0  0  0
  -27.6290  -13.2380   19.6630 C   0  0  0  0  0  3  0  0  0  0  0  0
  -28.7090  -13.1350   20.7680 C   0  0  0  0  0  2  0  0  0  0  0  0
  -30.0040  -13.4640   20.1600 N   0  0  0  0  0  0  0  0  0  0  0  0
  -31.9100  -14.6240   19.8780 O   0  0  0  0  0  0  0  0  0  0  0  0
  -28.5760  -17.8570   20.9060 C   0  0  0  0  0  2  0  0  0  0  0  0
  -31.0300  -18.2410   20.7000 C   0  0  0  0  0  2  0  0  0  0  0  0
  -28.9350  -16.4210   20.3520 C   0  0  0  0  0  2  0  0  0  0  0  0
  -31.1190  -16.8310   21.3790 C   0  0  0  0  0  2  0  0  0  0  0  0
  -29.6820  -18.9600   20.9260 C   0  0  0  0  0  3  0  0  0  0  0  0
  -30.2120  -15.7990   20.8020 N   0  0  0  0  0  0  0  0  0  0  0  0
  -25.2590  -13.8520   20.4310 C   0  0  0  0  0  0  0  0  0  0  0  0
  -24.1910  -13.0840   20.8170 C   0  0  0  0  0  0  0  0  0  0  0  0
  -24.6450  -11.7330   20.7780 C   0  0  0  0  0  0  0  0  0  0  0  0
  -26.2900  -12.9640   20.1770 N   0  0  0  0  0  0  0  0  0  0  0  0
  -25.9320  -11.6850   20.4500 N   0  0  0  0  0  0  0  0  0  0  0  0
  -23.9140  -10.4730   20.9770 C   0  0  0  0  0  0  0  0  0  0  0  0
  -24.3380   -9.5150   21.9230 C   0  0  0  0  0  3  0  0  0  0  0  0
  -23.6090   -8.3200   22.1070 C   0  0  0  0  0  3  0  0  0  0  0  0
  -22.4410   -8.0760   21.3440 C   0  0  0  0  0  0  0  0  0  0  0  0
  -22.0380   -9.0220   20.3850 C   0  0  0  0  0  3  0  0  0  0  0  0
  -22.7690  -10.2080   20.1990 C   0  0  0  0  0  3  0  0  0  0  0  0
  -21.6830   -6.9340   21.4370 O   0  0  0  0  0  0  0  0  0  0  0  0
  -21.6040   -6.2150   22.6030 C   0  0  0  0  0  0  0  0  0  0  0  0
  -21.1230   -6.7870   23.8010 C   0  0  0  0  0  3  0  0  0  0  0  0
  -20.9930   -5.9920   24.9570 C   0  0  0  0  0  3  0  0  0  0  0  0
  -21.3360   -4.6270   24.9160 C   0  0  0  0  0  0  0  0  0  0  0  0
  -21.8110   -4.0540   23.7230 C   0  0  0  0  0  3  0  0  0  0  0  0
  -21.9420   -4.8470   22.5690 C   0  0  0  0  0  0  0  0  0  0  0  0
  -22.3800   -4.2870   21.4150 F   0  0  0  0  0  0  0  0  0  0  0  0
  -21.2040   -3.8600   26.0240 F   0  0  0  0  0  0  0  0  0  0  0  0
  -22.8010  -13.5710   21.1030 C   0  0  0  0  0  0  0  0  0  0  0  0
  -22.0750  -12.8740   21.9710 N   0  0  0  0  0  0  0  0  0  0  0  0
  -22.3690  -14.6020   20.5920 O   0  0  0  0  0  0  0  0  0  0  0  0
  -22.4380  -12.0420   22.4100 H   0  0  0  0  0  0  0  0  0  0  0  0
  -21.1410  -13.1800   22.2000 H   0  0  0  0  0  0  0  0  0  0  0  0
  -25.4260  -15.2200   20.2530 N   0  0  0  0  0  0  0  0  0  0  0  0
  -24.6610  -15.8770   20.3640 H   0  0  0  0  0  0  0  0  0  0  0  0
  -26.2770  -15.6490   19.9070 H   0  0  0  0  0  0  0  0  0  0  0  0
  -28.5750  -19.3450   15.9010 C   0  0  0  0  0  1  0  0  0  0  0  0
  -28.6430  -20.6940   16.3510 O   0  0  0  0  0  0  0  0  0  0  0  0
  -28.3090  -25.0420   20.4020 C   0  0  0  0  0  2  0  0  0  0  0  0
  -28.4570  -26.5080   20.2640 O   0  0  0  0  0  0  0  0  0  0  0  0
  -24.5890  -31.8340   23.1870 C   0  0  0  0  0  0  0  0  0  0  0  0
  -27.3160  -27.3120   20.2050 C   0  0  0  0  0  0  0  0  0  0  0  0
  -23.4420  -30.4300   21.5090 C   0  0  0  0  0  3  0  0  0  0  0  0
  -24.9440  -28.8920   20.1270 C   0  0  0  0  0  0  0  0  0  0  0  0
  -25.9830  -30.7690   21.4010 C   0  0  0  0  0  2  0  0  0  0  0  0
  -26.0880  -29.3920   20.7620 C   0  0  0  0  0  0  0  0  0  0  0  0
  -27.2780  -28.6110   20.7940 C   0  0  0  0  0  3  0  0  0  0  0  0
  -26.1580  -26.8700   19.5280 C   0  0  0  0  0  3  0  0  0  0  0  0
  -24.9810  -27.6380   19.5000 C   0  0  0  0  0  3  0  0  0  0  0  0
  -23.7010  -29.7550   20.1360 C   0  0  0  0  0  2  0  0  0  0  0  0
  -24.6890  -31.0280   22.0890 N   0  0  0  0  0  0  0  0  0  0  0  0
  -23.4900  -32.1030   23.6890 O   0  0  0  0  0  0  0  0  0  0  0  0
  -22.7590  -29.4070   22.4490 C   0  0  0  0  0  0  0  0  0  0  0  0
  -21.4280  -29.2610   22.3170 N   0  0  0  0  0  0  0  0  0  0  0  0
  -23.4240  -28.7500   23.2550 O   0  0  0  0  0  0  0  0  0  0  0  0
  -20.9540  -29.8370   21.6380 H   0  0  0  0  0  0  0  0  0  0  0  0
  -18.0170  -28.1830   22.8420 C   0  0  0  0  0  0  0  0  0  0  0  0
  -20.5880  -28.3290   23.0720 C   0  0  0  0  0  3  0  0  0  0  0  0
  -20.6220  -26.9170   22.4420 C   0  0  0  0  0  2  0  0  0  0  0  0
  -19.4880  -26.6760   21.4410 C   0  0  0  0  0  2  0  0  0  0  0  0
  -18.1250  -26.8540   22.1150 C   0  0  0  0  0  2  0  0  0  0  0  0
  -19.1730  -28.8830   23.2770 C   0  0  0  0  0  0  0  0  0  0  0  0
  -19.0150  -30.1310   23.9190 C   0  0  0  0  0  3  0  0  0  0  0  0
  -17.7320  -30.6790   24.1250 C   0  0  0  0  0  3  0  0  0  0  0  0
  -16.5920  -29.9740   23.7040 C   0  0  0  0  0  3  0  0  0  0  0  0
  -16.7350  -28.7260   23.0700 C   0  0  0  0  0  3  0  0  0  0  0  0
  -25.8510  -32.4740   23.8460 C   0  0  0  0  0  3  0  0  0  0  0  0
  -25.5220  -33.8690   24.1710 N   0  0  0  0  0  0  0  0  0  0  0  0
  -25.8630  -34.9260   23.4230 C   0  0  0  0  0  0  0  0  0  0  0  0
  -26.5580  -34.8300   22.4060 O   0  0  0  0  0  0  0  0  0  0  0  0
  -24.9180  -34.0190   24.9670 H   0  0  0  0  0  0  0  0  0  0  0  0
  -24.1420  -36.7120   23.0240 C   0  0  0  0  0  1  0  0  0  0  0  0
  -25.3560  -36.3090   23.8730 C   0  0  0  0  0  3  0  0  0  0  0  0
  -27.4560  -37.2000   24.7830 C   0  0  0  0  0  1  0  0  0  0  0  0
  -26.3880  -37.3660   23.8010 N   0  0  0  0  0  0  0  0  0  0  0  0
  -25.9730  -38.2850   23.9350 H   0  0  0  0  0  0  0  0  0  0  0  0
  -26.3380  -31.7010   25.1310 C   0  0  1  0  0  0  0  0  0  0  0  0
  -25.2170  -31.4460   26.1650 C   0  0  0  0  0  1  0  0  0  0  0  0
  -26.9440  -30.3290   24.7480 C   0  0  0  0  0  1  0  0  0  0  0  0
  -27.4640  -32.5010   25.8290 C   0  0  0  0  0  1  0  0  0  0  0  0
  1  2  1  0
  2  5  2  0
  3  9  1  0
  3  5  1  0
  4  3  2  0
  5 10  1  0
  6  4  1  0
  6  1  2  0
  7  8  1  0
  7  4  1  0
  8  9  1  0
  9 55  1  0
 11 24  1  0
 12 17  1  0
 13 14  1  0
 13 12  1  0
 15 14  1  0
 15 28  1  0
 15 16  1  0
 17 11  1  0
 17 16  1  0
 18 11  2  0
 19 23  1  0
 20 23  1  0
 20 22  1  0
 21 24  1  0
 21 19  1  0
 23  2  1  0
 24 22  1  0
 25 26  2  0
 26 45  1  0
 27 26  1  0
 27 30  1  0
 28 25  1  0
 28 29  1  0
 29 27  2  0
 30 31  1  0
 31 32  2  0
 33 36  1  0
 33 32  1  0
 34 33  2  0
 35 34  1  0
 35 30  2  0
 36 37  1  0
 37 38  1  0
 38 39  2  0
 40 39  1  0
 40 44  1  0
 41 40  2  0
 42 37  2  0
 42 41  1  0
 43 42  1  0
 45 46  1  0
 46 49  1  0
 46 48  1  0
 47 45  2  0
 50 51  1  0
 50 25  1  0
 52 50  1  0
 53 54  1  0
 54  6  1  0
 56 55  1  0
 57 68  2  0
 58 56  1  0
 58 63  1  0
 59 67  1  0
 59 69  1  0
 60 66  1  0
 60 62  1  0
 61 67  1  0
 62 63  2  0
 62 61  1  0
 64 58  2  0
 65 64  1  0
 65 60  2  0
 66 59  1  0
 67 57  1  0
 69 71  2  0
 70 69  1  0
 72 70  1  0
 73 82  2  0
 73 78  1  0
 74 70  1  0
 74 78  1  0
 75 74  1  0
 76 77  1  0
 76 75  1  0
 77 73  1  0
 78 79  2  0
 79 80  1  0
 81 80  2  0
 82 81  1  0
 83 57  1  0
 83 84  1  0
 83 93  1  0
 84 87  1  0
 85 89  1  0
 85 84  1  0
 86 85  2  0
 89 88  1  0
 91 89  1  0
 91 92  1  0
 91 90  1  0
 93 96  1  1
 93 94  1  0
 95 93  1  0
M  ISO  4  11 100  24 100  55 101  56 101
M  END
>  <TORSDO>  (16) 
F 18

>  <SCORE>  (16) 
-14.984

>  <name>  (16) 
15

>  <ligand_id>  (16) 
15

>  <original_smiles>  (16) 
[H]c1c([H])c([H])c2c(c1[H])C([H])([H])C([H])([H])C([H])([H])C2([H])N([H])C(=O)C1([H])N(C(=O)C([H])(N([H])C(=O)C([H])(N([H])C([H])([H])[H])C([H])([H])[H])C(C([H])([H])[H])(C([H])([H])[H])C([H])([H])[H])C([H])([H])c2c([H])c(OC([H])([H])C3([H])c4c(C([H])([H])[H])c(C5([H])C([H])([H])C([H])([H])N(C(=O)N6C([H])([H])C([H])([H])C([H])([H])C([H])(n7nc(-c8c([H])c([H])c(Oc9c([H])c([H])c(F)c([H])c9F)c([H])c8[H])c(C(=O)N([H])[H])c7N([H])[H])C6([H])[H])C([H])([H])C5([H])[H])c([H])c(OC([H])([H])[H])c4C([H])([H])C3([H])[H])c([H])c([H])c2C1([H])[H]

>  <smiles>  (16) 
[H]c1c([H])c([H])c2c(c1[H])C([H])([H])C([H])([H])C([H])([H])C2([H])N([H])C(=O)C1([H])N(C(=O)C([H])(N([H])C(=O)C([H])(N([H])C([H])([H])[H])C([H])([H])[H])C(C([H])([H])[H])(C([H])([H])[H])C([H])([H])[H])C([H])([H])c2c([H])c(OC([H])([H])C3([H])c4c(C([H])([H])[H])c(C5([H])C([H])([H])C([H])([H])N(C(=O)N6C([H])([H])C([H])([H])C([H])([H])C([H])(n7nc(-c8c([H])c([H])c(Oc9c([H])c([H])c(F)c([H])c9F)c([H])c8[H])c(C(=O)N([H])[H])c7N([H])[H])C6([H])[H])C([H])([H])C5([H])[H])c([H])c(OC([H])([H])[H])c4C([H])([H])C3([H])[H])c([H])c([H])c2C1([H])[H]

$$$$
16:0:0
     RDKit          3D

 91100  0  0  1  0  0  0  0  0999 V2000
  -29.5590  -23.4930   21.6600 C   0  0  0  0  0  2  0  0  0  0  0  0
  -30.4820  -22.6250   20.8060 C   0  0  0  0  0  2  0  0  0  0  0  0
  -28.6580  -23.6210   20.4370 C   0  0  0  0  0  3  0  0  0  0  0  0
  -29.3490  -22.3020   19.9340 N   0  0  2  0  0  4  0  0  0  0  0  0
  -29.6300  -22.3880   18.9680 H   0  0  0  0  0  0  0  0  0  0  0  0
  -27.4520  -20.7220   19.3460 C   0  0  0  0  0  1  0  0  0  0  0  0
  -28.7410  -20.8740   20.1760 C   0  0  0  0  0  3  0  0  0  0  0  0
  -30.8550  -14.9330   19.8910 C   0  0  0  0  0  0  0  0  0  0  0  0
  -30.6000  -12.6200   18.9440 C   0  0  0  0  0  2  0  0  0  0  0  0
  -29.6150  -12.6290   17.7550 C   0  0  0  0  0  2  0  0  0  0  0  0
  -28.1720  -12.4460   18.2580 C   0  0  0  0  0  2  0  0  0  0  0  0
  -27.8370  -13.3710   19.4580 C   0  0  0  0  0  3  0  0  0  0  0  0
  -28.9430  -13.3600   20.5340 C   0  0  0  0  0  2  0  0  0  0  0  0
  -30.1940  -13.7180   19.8600 N   0  0  0  0  0  0  0  0  0  0  0  0
  -32.0430  -14.9450   19.5440 O   0  0  0  0  0  0  0  0  0  0  0  0
  -29.5740  -18.5420   18.8210 C   0  0  0  0  0  2  0  0  0  0  0  0
  -29.2560  -18.3540   21.1760 C   0  0  0  0  0  2  0  0  0  0  0  0
  -30.4170  -17.1810   18.8590 C   0  0  0  0  0  2  0  0  0  0  0  0
  -30.0600  -16.9650   21.1940 C   0  0  0  0  0  2  0  0  0  0  0  0
  -29.6300  -19.4530   20.1010 C   0  0  0  0  0  3  0  0  0  0  0  0
  -30.1460  -16.1600   19.9340 N   0  0  0  0  0  0  0  0  0  0  0  0
  -25.5030  -13.9600   20.3290 C   0  0  0  0  0  0  0  0  0  0  0  0
  -24.4510  -13.1880   20.7350 C   0  0  0  0  0  0  0  0  0  0  0  0
  -24.8990  -11.8330   20.6540 C   0  0  0  0  0  0  0  0  0  0  0  0
  -26.5230  -13.0760   20.0190 N   0  0  0  0  0  0  0  0  0  0  0  0
  -26.1720  -11.7910   20.2810 N   0  0  0  0  0  0  0  0  0  0  0  0
  -24.1690  -10.5730   20.8540 C   0  0  0  0  0  0  0  0  0  0  0  0
  -24.5800   -9.6250   21.8170 C   0  0  0  0  0  3  0  0  0  0  0  0
  -23.8490   -8.4320   22.0040 C   0  0  0  0  0  3  0  0  0  0  0  0
  -22.6930   -8.1780   21.2280 C   0  0  0  0  0  0  0  0  0  0  0  0
  -22.3020   -9.1150   20.2550 C   0  0  0  0  0  3  0  0  0  0  0  0
  -23.0330  -10.2990   20.0660 C   0  0  0  0  0  3  0  0  0  0  0  0
  -21.9360   -7.0360   21.3220 O   0  0  0  0  0  0  0  0  0  0  0  0
  -21.7820   -6.3700   22.5120 C   0  0  0  0  0  0  0  0  0  0  0  0
  -21.2410   -7.0000   23.6530 C   0  0  0  0  0  3  0  0  0  0  0  0
  -21.0360   -6.2590   24.8350 C   0  0  0  0  0  3  0  0  0  0  0  0
  -21.3640   -4.8900   24.8750 C   0  0  0  0  0  0  0  0  0  0  0  0
  -21.8990   -4.2610   23.7370 C   0  0  0  0  0  3  0  0  0  0  0  0
  -22.1040   -4.9990   22.5580 C   0  0  0  0  0  0  0  0  0  0  0  0
  -22.6000   -4.3820   21.4580 F   0  0  0  0  0  0  0  0  0  0  0  0
  -21.1620   -4.1770   26.0070 F   0  0  0  0  0  0  0  0  0  0  0  0
  -23.0740  -13.6720   21.0840 C   0  0  0  0  0  0  0  0  0  0  0  0
  -22.3840  -12.9660   21.9730 N   0  0  0  0  0  0  0  0  0  0  0  0
  -22.6220  -14.7110   20.6050 O   0  0  0  0  0  0  0  0  0  0  0  0
  -22.7630  -12.1250   22.3800 H   0  0  0  0  0  0  0  0  0  0  0  0
  -21.4610  -13.2730   22.2500 H   0  0  0  0  0  0  0  0  0  0  0  0
  -25.6760  -15.3320   20.1730 N   0  0  0  0  0  0  0  0  0  0  0  0
  -24.9280  -15.9960   20.3380 H   0  0  0  0  0  0  0  0  0  0  0  0
  -26.5260  -15.7670   19.8370 H   0  0  0  0  0  0  0  0  0  0  0  0
  -28.7430  -25.0320   19.5960 C   0  0  0  0  0  2  0  0  0  0  0  0
  -28.5920  -26.4310   20.1990 O   0  0  0  0  0  0  0  0  0  0  0  0
  -24.6230  -31.7820   23.1600 C   0  0  0  0  0  0  0  0  0  0  0  0
  -27.4530  -27.2840   20.1010 C   0  0  0  0  0  0  0  0  0  0  0  0
  -23.5100  -30.3670   21.4730 C   0  0  0  0  0  3  0  0  0  0  0  0
  -25.0460  -28.8840   20.0540 C   0  0  0  0  0  0  0  0  0  0  0  0
  -26.0480  -30.7540   21.3600 C   0  0  0  0  0  2  0  0  0  0  0  0
  -26.1890  -29.3840   20.6900 C   0  0  0  0  0  0  0  0  0  0  0  0
  -27.3900  -28.5960   20.6990 C   0  0  0  0  0  3  0  0  0  0  0  0
  -26.2790  -26.8590   19.4410 C   0  0  0  0  0  3  0  0  0  0  0  0
  -25.1000  -27.6320   19.4190 C   0  0  0  0  0  3  0  0  0  0  0  0
  -23.7820  -29.7220   20.0880 C   0  0  0  0  0  2  0  0  0  0  0  0
  -24.7450  -30.9880   22.0550 N   0  0  0  0  0  0  0  0  0  0  0  0
  -23.5170  -32.0130   23.6720 O   0  0  0  0  0  0  0  0  0  0  0  0
  -22.8600  -29.3140   22.4050 C   0  0  0  0  0  0  0  0  0  0  0  0
  -21.5420  -29.0950   22.2500 N   0  0  0  0  0  0  0  0  0  0  0  0
  -23.5410  -28.6970   23.2270 O   0  0  0  0  0  0  0  0  0  0  0  0
  -21.0480  -29.6480   21.5620 H   0  0  0  0  0  0  0  0  0  0  0  0
  -18.1920  -27.7950   22.6890 C   0  0  0  0  0  0  0  0  0  0  0  0
  -20.7400  -28.1180   22.9890 C   0  0  0  0  0  3  0  0  0  0  0  0
  -20.8860  -26.7050   22.3790 C   0  0  0  0  0  2  0  0  0  0  0  0
  -19.8030  -26.3790   21.3460 C   0  0  0  0  0  2  0  0  0  0  0  0
  -18.4120  -26.4690   21.9800 C   0  0  0  0  0  2  0  0  0  0  0  0
  -19.2860  -28.5760   23.1490 C   0  0  0  0  0  0  0  0  0  0  0  0
  -19.0260  -29.8160   23.7720 C   0  0  0  0  0  3  0  0  0  0  0  0
  -17.7060  -30.2740   23.9410 C   0  0  0  0  0  3  0  0  0  0  0  0
  -16.6270  -29.4900   23.4980 C   0  0  0  0  0  3  0  0  0  0  0  0
  -16.8710  -28.2520   22.8770 C   0  0  0  0  0  3  0  0  0  0  0  0
  -25.8640  -32.4540   23.8230 C   0  0  0  0  0  3  0  0  0  0  0  0
  -25.4990  -33.8420   24.1470 N   0  0  0  0  0  0  0  0  0  0  0  0
  -25.8180  -34.9090   23.4020 C   0  0  0  0  0  0  0  0  0  0  0  0
  -26.5170  -34.8300   22.3890 O   0  0  0  0  0  0  0  0  0  0  0  0
  -24.8770  -33.9750   24.9310 H   0  0  0  0  0  0  0  0  0  0  0  0
  -24.0400  -36.6460   23.0150 C   0  0  0  0  0  1  0  0  0  0  0  0
  -25.2760  -36.2800   23.8520 C   0  0  0  0  0  3  0  0  0  0  0  0
  -27.3600  -37.2340   24.7330 C   0  0  0  0  0  1  0  0  0  0  0  0
  -26.2760  -37.3660   23.7630 N   0  0  0  0  0  0  0  0  0  0  0  0
  -25.8370  -38.2730   23.9020 H   0  0  0  0  0  0  0  0  0  0  0  0
  -26.3610  -31.7000   25.1190 C   0  0  1  0  0  0  0  0  0  0  0  0
  -25.2410  -31.4280   26.1500 C   0  0  0  0  0  1  0  0  0  0  0  0
  -27.0010  -30.3420   24.7510 C   0  0  0  0  0  1  0  0  0  0  0  0
  -27.4650  -32.5300   25.8170 C   0  0  0  0  0  1  0  0  0  0  0  0
  2  1  1  0
  3 50  1  0
  3  1  1  0
  4  7  1  0
  4  3  1  0
  4  2  1  0
  4  5  1  6
  7  6  1  0
  8 21  1  0
  9 14  1  0
 10 11  1  0
 10  9  1  0
 12 11  1  0
 12 25  1  0
 12 13  1  0
 14  8  1  0
 14 13  1  0
 15  8  2  0
 16 18  1  0
 16 20  1  0
 17 19  1  0
 18 21  1  0
 20  7  1  0
 20 17  1  0
 21 19  1  0
 22 23  2  0
 23 42  1  0
 24 23  1  0
 24 27  1  0
 25 26  1  0
 25 22  1  0
 26 24  2  0
 27 28  1  0
 28 29  2  0
 30 33  1  0
 30 29  1  0
 31 30  2  0
 32 31  1  0
 32 27  2  0
 33 34  1  0
 34 39  2  0
 34 35  1  0
 35 36  2  0
 36 37  1  0
 37 41  1  0
 38 37  2  0
 39 38  1  0
 40 39  1  0
 42 43  1  0
 43 46  1  0
 43 45  1  0
 44 42  2  0
 47 22  1  0
 47 48  1  0
 49 47  1  0
 50 51  1  0
 52 63  2  0
 53 51  1  0
 53 58  1  0
 54 62  1  0
 54 64  1  0
 55 61  1  0
 55 57  1  0
 56 62  1  0
 57 58  2  0
 57 56  1  0
 59 53  2  0
 60 59  1  0
 60 55  2  0
 61 54  1  0
 62 52  1  0
 64 66  2  0
 65 64  1  0
 67 65  1  0
 68 77  2  0
 68 73  1  0
 69 65  1  0
 69 73  1  0
 70 69  1  0
 71 72  1  0
 71 70  1  0
 72 68  1  0
 73 74  2  0
 74 75  1  0
 76 75  2  0
 77 76  1  0
 78 52  1  0
 78 79  1  0
 78 88  1  0
 79 82  1  0
 80 84  1  0
 80 79  1  0
 81 80  2  0
 84 83  1  0
 86 84  1  0
 86 87  1  0
 86 85  1  0
 88 91  1  1
 88 89  1  0
 90 88  1  0
M  ISO  4   8 100  21 100  50 101  51 101
M  END
>  <TORSDO>  (17) 
F 18

>  <SCORE>  (17) 
-14.105

>  <name>  (17) 
16

>  <ligand_id>  (17) 
16

>  <original_smiles>  (17) 
[H]c1c([H])c([H])c2c(c1[H])C([H])([H])C([H])([H])C([H])([H])C2([H])N([H])C(=O)C1([H])N(C(=O)C([H])(N([H])C(=O)C([H])(N([H])C([H])([H])[H])C([H])([H])[H])C(C([H])([H])[H])(C([H])([H])[H])C([H])([H])[H])C([H])([H])c2c([H])c(OC([H])([H])C3([H])C([H])([H])C([H])([H])[N+]3([H])C([H])(C([H])([H])[H])C3([H])C([H])([H])C([H])([H])N(C(=O)N4C([H])([H])C([H])([H])C([H])([H])C([H])(n5nc(-c6c([H])c([H])c(Oc7c([H])c([H])c(F)c([H])c7F)c([H])c6[H])c(C(=O)N([H])[H])c5N([H])[H])C4([H])[H])C([H])([H])C3([H])[H])c([H])c([H])c2C1([H])[H]

>  <smiles>  (17) 
[H]c1c([H])c([H])c2c(c1[H])C([H])([H])C([H])([H])C([H])([H])C2([H])N([H])C(=O)C1([H])N(C(=O)C([H])(N([H])C(=O)C([H])(N([H])C([H])([H])[H])C([H])([H])[H])C(C([H])([H])[H])(C([H])([H])[H])C([H])([H])[H])C([H])([H])c2c([H])c(OC([H])([H])C3([H])C([H])([H])C([H])([H])[N+]3([H])C([H])(C([H])([H])[H])C3([H])C([H])([H])C([H])([H])N(C(=O)N4C([H])([H])C([H])([H])C([H])([H])C([H])(n5nc(-c6c([H])c([H])c(Oc7c([H])c([H])c(F)c([H])c7F)c([H])c6[H])c(C(=O)N([H])[H])c5N([H])[H])C4([H])[H])C([H])([H])C3([H])[H])c([H])c([H])c2C1([H])[H]

$$$$
17:0:0
     RDKit          3D

 97107  0  0  1  0  0  0  0  0999 V2000
  -29.7740  -22.4490   20.6900 C   0  0  0  0  0  2  0  0  0  0  0  0
  -28.2850  -20.6010   21.7350 C   0  0  0  0  0  2  0  0  0  0  0  0
  -27.7700  -20.6880   20.3280 C   0  0  0  0  0  2  0  0  0  0  0  0
  -29.2440  -20.9620   20.6020 C   0  0  1  0  0  0  0  0  0  0  0  0
  -31.4540  -20.0820   19.5220 C   0  0  0  0  0  3  0  0  0  0  0  0
  -30.0110  -18.4580   20.5500 C   0  0  0  0  0  3  0  0  0  0  0  0
  -30.2530  -19.8360   20.2210 C   0  0  0  0  0  0  0  0  0  0  0  0
  -32.3360  -19.0200   19.2530 C   0  0  0  0  0  0  0  0  0  0  0  0
  -30.9480  -17.4210   20.2640 C   0  0  0  0  0  0  0  0  0  0  0  0
  -33.6560  -19.2700   18.5520 C   0  0  0  0  0  1  0  0  0  0  0  0
  -32.0910  -17.7460   19.6160 N   0  0  0  0  0  0  0  0  0  0  0  0
  -31.3580  -14.9260   20.4180 C   0  0  0  0  0  0  0  0  0  0  0  0
  -31.0720  -12.6750   19.4580 C   0  0  0  0  0  2  0  0  0  0  0  0
  -30.1830  -12.7980   18.2020 C   0  0  0  0  0  2  0  0  0  0  0  0
  -28.6950  -12.6890   18.5870 C   0  0  0  0  0  2  0  0  0  0  0  0
  -28.3110  -13.6190   19.7700 C   0  0  0  0  0  3  0  0  0  0  0  0
  -29.3250  -13.5000   20.9320 C   0  0  0  0  0  2  0  0  0  0  0  0
  -30.6670  -13.7470   20.3840 N   0  0  0  0  0  0  0  0  0  0  0  0
  -32.5520  -14.9600   20.1100 O   0  0  0  0  0  0  0  0  0  0  0  0
  -30.6310  -16.0580   20.6370 N   0  0  0  0  0  0  0  0  0  0  0  0
  -29.6970  -15.9050   20.9770 H   0  0  0  0  0  0  0  0  0  0  0  0
  -25.9190  -14.2870   20.4360 C   0  0  0  0  0  0  0  0  0  0  0  0
  -24.8200  -13.5450   20.7740 C   0  0  0  0  0  0  0  0  0  0  0  0
  -25.2410  -12.1800   20.7490 C   0  0  0  0  0  0  0  0  0  0  0  0
  -26.9420  -13.3780   20.2220 N   0  0  0  0  0  0  0  0  0  0  0  0
  -26.5380  -12.1050   20.4690 N   0  0  0  0  0  0  0  0  0  0  0  0
  -24.4720  -10.9400   20.9110 C   0  0  0  0  0  0  0  0  0  0  0  0
  -24.7990   -9.9910   21.9060 C   0  0  0  0  0  3  0  0  0  0  0  0
  -24.0330   -8.8150   22.0540 C   0  0  0  0  0  3  0  0  0  0  0  0
  -22.9260   -8.5780   21.2070 C   0  0  0  0  0  0  0  0  0  0  0  0
  -22.6170   -9.5150   20.2040 C   0  0  0  0  0  3  0  0  0  0  0  0
  -23.3850  -10.6830   20.0530 C   0  0  0  0  0  3  0  0  0  0  0  0
  -22.1400   -7.4520   21.2600 O   0  0  0  0  0  0  0  0  0  0  0  0
  -21.8990   -6.7990   22.4410 C   0  0  0  0  0  0  0  0  0  0  0  0
  -21.2740   -7.4390   23.5350 C   0  0  0  0  0  3  0  0  0  0  0  0
  -20.9820   -6.7110   24.7050 C   0  0  0  0  0  3  0  0  0  0  0  0
  -21.3080   -5.3440   24.7830 C   0  0  0  0  0  0  0  0  0  0  0  0
  -21.9290   -4.7030   23.6970 C   0  0  0  0  0  3  0  0  0  0  0  0
  -22.2210   -5.4290   22.5290 C   0  0  0  0  0  0  0  0  0  0  0  0
  -22.7990   -4.8030   21.4760 F   0  0  0  0  0  0  0  0  0  0  0  0
  -21.0220   -4.6420   25.9050 F   0  0  0  0  0  0  0  0  0  0  0  0
  -23.4310  -14.0650   21.0090 C   0  0  0  0  0  0  0  0  0  0  0  0
  -22.6590  -13.4010   21.8640 N   0  0  0  0  0  0  0  0  0  0  0  0
  -23.0370  -15.0980   20.4700 O   0  0  0  0  0  0  0  0  0  0  0  0
  -22.9860  -12.5670   22.3270 H   0  0  0  0  0  0  0  0  0  0  0  0
  -21.7260  -13.7370   22.0570 H   0  0  0  0  0  0  0  0  0  0  0  0
  -26.1280  -15.6520   20.2680 N   0  0  0  0  0  0  0  0  0  0  0  0
  -25.3730  -16.3240   20.3490 H   0  0  0  0  0  0  0  0  0  0  0  0
  -26.9870  -16.0660   19.9260 H   0  0  0  0  0  0  0  0  0  0  0  0
  -29.0100  -23.4860   19.9080 N   0  0  0  0  0  4  0  0  0  0  0  0
  -29.6130  -23.8320   19.1770 H   0  0  0  0  0  0  0  0  0  0  0  0
  -28.2780  -22.9860   19.4300 H   0  0  0  0  0  0  0  0  0  0  0  0
  -27.6850  -24.2550   21.9240 C   0  0  0  0  0  2  0  0  0  0  0  0
  -26.8680  -24.5900   20.7090 C   0  0  0  0  0  2  0  0  0  0  0  0
  -28.3850  -24.6660   20.6330 C   0  0  2  0  0  0  0  0  0  0  0  0
  -29.1010  -26.0510   20.5510 C   0  0  0  0  0  2  0  0  0  0  0  0
  -28.6980  -27.0480   19.5700 O   0  0  0  0  0  0  0  0  0  0  0  0
  -24.5420  -31.7700   23.1030 C   0  0  0  0  0  0  0  0  0  0  0  0
  -27.5010  -27.7350   19.7160 C   0  0  0  0  0  0  0  0  0  0  0  0
  -23.4440  -30.4180   21.3500 C   0  0  0  0  0  3  0  0  0  0  0  0
  -25.0110  -29.0980   19.8240 C   0  0  0  0  0  0  0  0  0  0  0  0
  -25.9440  -30.9570   21.2010 C   0  0  0  0  0  2  0  0  0  0  0  0
  -26.1320  -29.6430   20.4650 C   0  0  0  0  0  0  0  0  0  0  0  0
  -27.3820  -28.9670   20.4110 C   0  0  0  0  0  3  0  0  0  0  0  0
  -26.3670  -27.2370   19.0430 C   0  0  0  0  0  3  0  0  0  0  0  0
  -25.1240  -27.8940   19.1120 C   0  0  0  0  0  3  0  0  0  0  0  0
  -23.7080  -29.8630   19.9250 C   0  0  0  0  0  2  0  0  0  0  0  0
  -24.6600  -31.0610   21.9430 N   0  0  0  0  0  0  0  0  0  0  0  0
  -23.4410  -31.9220   23.6540 O   0  0  0  0  0  0  0  0  0  0  0  0
  -22.8650  -29.2800   22.2240 C   0  0  0  0  0  0  0  0  0  0  0  0
  -21.5510  -29.0300   22.0940 N   0  0  0  0  0  0  0  0  0  0  0  0
  -23.5960  -28.6310   22.9760 O   0  0  0  0  0  0  0  0  0  0  0  0
  -21.0140  -29.6100   21.4660 H   0  0  0  0  0  0  0  0  0  0  0  0
  -18.2580  -27.6240   22.5710 C   0  0  0  0  0  0  0  0  0  0  0  0
  -20.8080  -27.9790   22.7890 C   0  0  0  0  0  3  0  0  0  0  0  0
  -20.9550  -26.6200   22.0650 C   0  0  0  0  0  2  0  0  0  0  0  0
  -19.8340  -26.3490   21.0580 C   0  0  0  0  0  2  0  0  0  0  0  0
  -18.4710  -26.3600   21.7530 C   0  0  0  0  0  2  0  0  0  0  0  0
  -19.3540  -28.3920   23.0440 C   0  0  0  0  0  0  0  0  0  0  0  0
  -19.0980  -29.5770   23.7680 C   0  0  0  0  0  3  0  0  0  0  0  0
  -17.7780  -29.9940   24.0230 C   0  0  0  0  0  3  0  0  0  0  0  0
  -16.6970  -29.2210   23.5650 C   0  0  0  0  0  3  0  0  0  0  0  0
  -16.9380  -28.0370   22.8450 C   0  0  0  0  0  3  0  0  0  0  0  0
  -25.7750  -32.4450   23.7760 C   0  0  0  0  0  3  0  0  0  0  0  0
  -25.3970  -33.8250   24.1130 N   0  0  0  0  0  0  0  0  0  0  0  0
  -25.7040  -34.8990   23.3740 C   0  0  0  0  0  0  0  0  0  0  0  0
  -26.4030  -34.8370   22.3590 O   0  0  0  0  0  0  0  0  0  0  0  0
  -24.7750  -33.9440   24.8990 H   0  0  0  0  0  0  0  0  0  0  0  0
  -23.9040  -36.6160   23.0030 C   0  0  0  0  0  1  0  0  0  0  0  0
  -25.1450  -36.2590   23.8340 C   0  0  0  0  0  3  0  0  0  0  0  0
  -27.2180  -37.2370   24.7190 C   0  0  0  0  0  1  0  0  0  0  0  0
  -26.1310  -37.3580   23.7510 N   0  0  0  0  0  0  0  0  0  0  0  0
  -25.6810  -38.2590   23.8930 H   0  0  0  0  0  0  0  0  0  0  0  0
  -26.2830  -31.6770   25.0580 C   0  0  1  0  0  0  0  0  0  0  0  0
  -25.1660  -31.3790   26.0850 C   0  0  0  0  0  1  0  0  0  0  0  0
  -26.9360  -30.3300   24.6700 C   0  0  0  0  0  1  0  0  0  0  0  0
  -27.3750  -32.5100   25.7710 C   0  0  0  0  0  1  0  0  0  0  0  0
  3  4  1  0
  3  2  1  0
  4  1  1  1
  4  2  1  0
  5  7  1  0
  7  6  2  0
  7  4  1  0
  8  5  2  0
  8 11  1  0
  9  6  1  0
  9 20  1  0
 10  8  1  0
 11  9  2  0
 12 20  1  0
 13 18  1  0
 14 15  1  0
 14 13  1  0
 16 15  1  0
 16 25  1  0
 16 17  1  0
 18 12  1  0
 18 17  1  0
 19 12  2  0
 20 21  1  0
 22 23  2  0
 23 42  1  0
 24 23  1  0
 24 27  1  0
 25 22  1  0
 25 26  1  0
 26 24  2  0
 27 28  1  0
 28 29  2  0
 30 33  1  0
 30 29  1  0
 31 30  2  0
 32 31  1  0
 32 27  2  0
 33 34  1  0
 34 39  2  0
 34 35  1  0
 35 36  2  0
 36 37  1  0
 37 41  1  0
 38 37  2  0
 39 38  1  0
 40 39  1  0
 42 43  1  0
 43 46  1  0
 43 45  1  0
 44 42  2  0
 47 48  1  0
 47 22  1  0
 49 47  1  0
 50 55  1  0
 50  1  1  0
 51 50  1  0
 52 50  1  0
 54 53  1  0
 55 54  1  0
 55 53  1  0
 55 56  1  1
 57 59  1  0
 57 56  1  0
 58 69  2  0
 59 64  1  0
 60 68  1  0
 60 70  1  0
 61 67  1  0
 61 63  1  0
 62 68  1  0
 63 62  1  0
 64 63  2  0
 65 66  1  0
 65 59  2  0
 66 61  2  0
 67 60  1  0
 68 58  1  0
 70 72  2  0
 71 70  1  0
 73 71  1  0
 74 83  2  0
 74 79  1  0
 75 71  1  0
 75 79  1  0
 76 75  1  0
 77 78  1  0
 77 76  1  0
 78 74  1  0
 79 80  2  0
 80 81  1  0
 82 81  2  0
 83 82  1  0
 84 58  1  0
 84 85  1  0
 84 94  1  0
 85 88  1  0
 86 90  1  0
 86 85  1  0
 87 86  2  0
 90 89  1  0
 92 90  1  0
 92 93  1  0
 92 91  1  0
 94 97  1  1
 94 95  1  0
 96 94  1  0
M  ISO  4  12 100  20 100  56 101  57 101
M  END
>  <TORSDO>  (18) 
F 21

>  <SCORE>  (18) 
-11.379

>  <name>  (18) 
17

>  <ligand_id>  (18) 
17

>  <original_smiles>  (18) 
[H]c1c([H])c([H])c2c(c1[H])C([H])([H])C([H])([H])C([H])([H])C2([H])N([H])C(=O)C1([H])N(C(=O)C([H])(N([H])C(=O)C([H])(N([H])C([H])([H])[H])C([H])([H])[H])C(C([H])([H])[H])(C([H])([H])[H])C([H])([H])[H])C([H])([H])c2c([H])c(OC([H])([H])C3([N+]([H])([H])C([H])([H])C4(c5c([H])c(N([H])C(=O)N6C([H])([H])C([H])([H])C([H])([H])C([H])(n7nc(-c8c([H])c([H])c(Oc9c([H])c([H])c(F)c([H])c9F)c([H])c8[H])c(C(=O)N([H])[H])c7N([H])[H])C6([H])[H])nc(C([H])([H])[H])c5[H])C([H])([H])C4([H])[H])C([H])([H])C3([H])[H])c([H])c([H])c2C1([H])[H]

>  <smiles>  (18) 
[H]c1c([H])c([H])c2c(c1[H])C([H])([H])C([H])([H])C([H])([H])C2([H])N([H])C(=O)C1([H])N(C(=O)C([H])(N([H])C(=O)C([H])(N([H])C([H])([H])[H])C([H])([H])[H])C(C([H])([H])[H])(C([H])([H])[H])C([H])([H])[H])C([H])([H])c2c([H])c(OC([H])([H])C3([N+]([H])([H])C([H])([H])C4(c5c([H])c(N([H])C(=O)N6C([H])([H])C([H])([H])C([H])([H])C([H])(n7nc(-c8c([H])c([H])c(Oc9c([H])c([H])c(F)c([H])c9F)c([H])c8[H])c(C(=O)N([H])[H])c7N([H])[H])C6([H])[H])nc(C([H])([H])[H])c5[H])C([H])([H])C4([H])[H])C([H])([H])C3([H])[H])c([H])c([H])c2C1([H])[H]

$$$$
18:0:0
     RDKit          3D

 94104  0  0  1  0  0  0  0  0999 V2000
  -28.5320  -22.6270   18.9560 C   0  0  0  0  0  3  0  0  0  0  0  0
  -29.0930  -23.1250   21.2180 C   0  0  0  0  0  3  0  0  0  0  0  0
  -28.8320  -21.2370   19.1250 C   0  0  0  0  0  0  0  0  0  0  0  0
  -29.3140  -20.7420   20.3890 C   0  0  0  0  0  0  0  0  0  0  0  0
  -28.6400  -23.6130   19.9710 C   0  0  0  0  0  0  0  0  0  0  0  0
  -29.4240  -21.7410   21.4250 C   0  0  0  0  0  0  0  0  0  0  0  0
  -29.8770  -21.3610   22.8270 C   0  0  0  0  0  1  0  0  0  0  0  0
  -30.9160  -14.7950   20.3570 C   0  0  0  0  0  0  0  0  0  0  0  0
  -30.5890  -12.5500   19.3210 C   0  0  0  0  0  2  0  0  0  0  0  0
  -29.6450  -12.6000   18.1060 C   0  0  0  0  0  2  0  0  0  0  0  0
  -28.1870  -12.4200   18.5610 C   0  0  0  0  0  2  0  0  0  0  0  0
  -27.8220  -13.3150   19.7780 C   0  0  0  0  0  3  0  0  0  0  0  0
  -28.9040  -13.2610   20.8800 C   0  0  0  0  0  2  0  0  0  0  0  0
  -30.1690  -13.6390   20.2410 N   0  0  0  0  0  0  0  0  0  0  0  0
  -32.1190  -14.7040   20.0910 O   0  0  0  0  0  0  0  0  0  0  0  0
  -28.6910  -18.0980   20.8550 C   0  0  0  0  0  2  0  0  0  0  0  0
  -30.7480  -18.6070   19.6320 C   0  0  0  0  0  2  0  0  0  0  0  0
  -29.2250  -16.6250   21.1710 C   0  0  0  0  0  2  0  0  0  0  0  0
  -31.3170  -17.2060   20.0260 C   0  0  0  0  0  2  0  0  0  0  0  0
  -29.7670  -19.2160   20.6500 C   0  0  0  0  0  3  0  0  0  0  0  0
  -30.3680  -16.0920   20.3650 N   0  0  0  0  0  0  0  0  0  0  0  0
  -25.4450  -13.8760   20.5530 C   0  0  0  0  0  0  0  0  0  0  0  0
  -24.3880  -13.0910   20.9190 C   0  0  0  0  0  0  0  0  0  0  0  0
  -24.8560  -11.7420   20.8570 C   0  0  0  0  0  0  0  0  0  0  0  0
  -26.4910  -13.0080   20.2880 N   0  0  0  0  0  0  0  0  0  0  0  0
  -26.1450  -11.7180   20.5360 N   0  0  0  0  0  0  0  0  0  0  0  0
  -24.1380  -10.4730   21.0290 C   0  0  0  0  0  0  0  0  0  0  0  0
  -24.5600   -9.5060   21.9690 C   0  0  0  0  0  3  0  0  0  0  0  0
  -23.8380   -8.3030   22.1310 C   0  0  0  0  0  3  0  0  0  0  0  0
  -22.6800   -8.0600   21.3550 C   0  0  0  0  0  0  0  0  0  0  0  0
  -22.2780   -9.0160   20.4050 C   0  0  0  0  0  3  0  0  0  0  0  0
  -23.0000  -10.2090   20.2410 C   0  0  0  0  0  3  0  0  0  0  0  0
  -21.9300   -6.9110   21.4300 O   0  0  0  0  0  0  0  0  0  0  0  0
  -21.8180   -6.1970   22.5960 C   0  0  0  0  0  0  0  0  0  0  0  0
  -21.3090   -6.7760   23.7790 C   0  0  0  0  0  3  0  0  0  0  0  0
  -21.1480   -5.9860   24.9350 C   0  0  0  0  0  3  0  0  0  0  0  0
  -21.4840   -4.6210   24.9080 C   0  0  0  0  0  0  0  0  0  0  0  0
  -21.9860   -4.0420   23.7300 C   0  0  0  0  0  3  0  0  0  0  0  0
  -22.1500   -4.8280   22.5770 C   0  0  0  0  0  0  0  0  0  0  0  0
  -22.6120   -4.2590   21.4370 F   0  0  0  0  0  0  0  0  0  0  0  0
  -21.3230   -3.8600   26.0170 F   0  0  0  0  0  0  0  0  0  0  0  0
  -22.9920  -13.5580   21.2120 C   0  0  0  0  0  0  0  0  0  0  0  0
  -22.2760  -12.8490   22.0780 N   0  0  0  0  0  0  0  0  0  0  0  0
  -22.5430  -14.5880   20.7090 O   0  0  0  0  0  0  0  0  0  0  0  0
  -22.6520  -12.0170   22.5090 H   0  0  0  0  0  0  0  0  0  0  0  0
  -21.3390  -13.1450   22.3150 H   0  0  0  0  0  0  0  0  0  0  0  0
  -25.5980  -15.2500   20.3980 N   0  0  0  0  0  0  0  0  0  0  0  0
  -24.8310  -15.8970   20.5510 H   0  0  0  0  0  0  0  0  0  0  0  0
  -26.4450  -15.7070   20.0870 H   0  0  0  0  0  0  0  0  0  0  0  0
  -29.5580  -20.3850   16.7590 C   0  0  0  0  0  2  0  0  0  0  0  0
  -28.0950  -20.7030   16.5500 C   0  0  0  0  0  2  0  0  0  0  0  0
  -28.6050  -20.3170   17.9390 C   0  0  0  0  0  3  0  0  0  0  0  0
  -27.9190  -25.0000   19.7290 C   0  0  0  0  0  2  0  0  0  0  0  0
  -28.3160  -26.3790   20.1670 O   0  0  0  0  0  0  0  0  0  0  0  0
  -24.6990  -31.8790   23.2670 C   0  0  0  0  0  0  0  0  0  0  0  0
  -27.2650  -27.3330   20.1040 C   0  0  0  0  0  0  0  0  0  0  0  0
  -23.4890  -30.5130   21.6130 C   0  0  0  0  0  3  0  0  0  0  0  0
  -24.9270  -29.0090   20.1420 C   0  0  0  0  0  0  0  0  0  0  0  0
  -26.0360  -30.8160   21.4300 C   0  0  0  0  0  2  0  0  0  0  0  0
  -26.1080  -29.4510   20.7540 C   0  0  0  0  0  0  0  0  0  0  0  0
  -27.2790  -28.6250   20.7340 C   0  0  0  0  0  3  0  0  0  0  0  0
  -26.0590  -26.9960   19.4300 C   0  0  0  0  0  3  0  0  0  0  0  0
  -24.9100  -27.7890   19.4710 C   0  0  0  0  0  3  0  0  0  0  0  0
  -23.6950  -29.8820   20.2170 C   0  0  0  0  0  2  0  0  0  0  0  0
  -24.7610  -31.0850   22.1590 N   0  0  0  0  0  0  0  0  0  0  0  0
  -23.6170  -32.1490   23.8060 O   0  0  0  0  0  0  0  0  0  0  0  0
  -22.8320  -29.4700   22.5520 C   0  0  0  0  0  0  0  0  0  0  0  0
  -21.5060  -29.2910   22.4240 N   0  0  0  0  0  0  0  0  0  0  0  0
  -23.5130  -28.8290   23.3570 O   0  0  0  0  0  0  0  0  0  0  0  0
  -21.0150  -29.8580   21.7470 H   0  0  0  0  0  0  0  0  0  0  0  0
  -18.1300  -28.0810   22.9130 C   0  0  0  0  0  0  0  0  0  0  0  0
  -20.6880  -28.3410   23.1810 C   0  0  0  0  0  3  0  0  0  0  0  0
  -20.7920  -26.9190   22.5820 C   0  0  0  0  0  2  0  0  0  0  0  0
  -19.6870  -26.6090   21.5680 C   0  0  0  0  0  2  0  0  0  0  0  0
  -18.3070  -26.7420   22.2180 C   0  0  0  0  0  2  0  0  0  0  0  0
  -19.2480  -28.8370   23.3530 C   0  0  0  0  0  0  0  0  0  0  0  0
  -19.0290  -30.0910   23.9650 C   0  0  0  0  0  3  0  0  0  0  0  0
  -17.7240  -30.5870   24.1420 C   0  0  0  0  0  3  0  0  0  0  0  0
  -16.6190  -29.8260   23.7220 C   0  0  0  0  0  3  0  0  0  0  0  0
  -16.8230  -28.5750   23.1110 C   0  0  0  0  0  3  0  0  0  0  0  0
  -25.9830  -32.5010   23.8930 C   0  0  0  0  0  3  0  0  0  0  0  0
  -25.6770  -33.8980   24.2330 N   0  0  0  0  0  0  0  0  0  0  0  0
  -25.9750  -34.9520   23.4630 C   0  0  0  0  0  0  0  0  0  0  0  0
  -26.6110  -34.8530   22.4100 O   0  0  0  0  0  0  0  0  0  0  0  0
  -25.1100  -34.0500   25.0550 H   0  0  0  0  0  0  0  0  0  0  0  0
  -24.2110  -36.7240   23.1860 C   0  0  0  0  0  1  0  0  0  0  0  0
  -25.4950  -36.3380   23.9370 C   0  0  0  0  0  3  0  0  0  0  0  0
  -27.6570  -37.2530   24.6590 C   0  0  0  0  0  1  0  0  0  0  0  0
  -26.5090  -37.4020   23.7690 N   0  0  0  0  0  0  0  0  0  0  0  0
  -26.1000  -38.3180   23.9290 H   0  0  0  0  0  0  0  0  0  0  0  0
  -26.4940  -31.7170   25.1640 C   0  0  1  0  0  0  0  0  0  0  0  0
  -25.3970  -31.4790   26.2270 C   0  0  0  0  0  1  0  0  0  0  0  0
  -27.0680  -30.3370   24.7650 C   0  0  0  0  0  1  0  0  0  0  0  0
  -27.6490  -32.5000   25.8310 C   0  0  0  0  0  1  0  0  0  0  0  0
  1  3  2  0
  1  5  1  0
  2  6  1  0
  3  4  1  0
  4  6  2  0
  5  2  2  0
  6  7  1  0
  8 21  1  0
  9 14  1  0
 10 11  1  0
 10  9  1  0
 12 11  1  0
 12 25  1  0
 12 13  1  0
 14  8  1  0
 14 13  1  0
 15  8  2  0
 16 18  1  0
 17 19  1  0
 17 20  1  0
 19 21  1  0
 20  4  1  0
 20 16  1  0
 21 18  1  0
 22 23  2  0
 23 42  1  0
 24 23  1  0
 24 27  1  0
 25 26  1  0
 25 22  1  0
 26 24  2  0
 27 28  1  0
 28 29  2  0
 30 33  1  0
 30 29  1  0
 31 30  2  0
 32 31  1  0
 32 27  2  0
 33 34  1  0
 34 35  1  0
 35 36  2  0
 37 36  1  0
 37 41  1  0
 38 37  2  0
 39 34  2  0
 39 38  1  0
 40 39  1  0
 42 43  1  0
 43 46  1  0
 43 45  1  0
 44 42  2  0
 47 48  1  0
 47 22  1  0
 49 47  1  0
 50 52  1  0
 51 50  1  0
 51 52  1  0
 52  3  1  0
 53  5  1  0
 53 54  1  0
 55 66  2  0
 56 54  1  0
 56 61  1  0
 57 65  1  0
 57 67  1  0
 58 64  1  0
 58 60  1  0
 59 65  1  0
 60 59  1  0
 61 60  2  0
 62 63  1  0
 62 56  2  0
 63 58  2  0
 64 57  1  0
 65 55  1  0
 67 69  2  0
 68 67  1  0
 70 68  1  0
 71 80  2  0
 71 76  1  0
 72 68  1  0
 72 76  1  0
 73 72  1  0
 74 75  1  0
 74 73  1  0
 75 71  1  0
 76 77  2  0
 77 78  1  0
 79 78  2  0
 80 79  1  0
 81 55  1  0
 81 82  1  0
 81 91  1  0
 82 85  1  0
 83 87  1  0
 83 82  1  0
 84 83  2  0
 87 86  1  0
 89 90  1  0
 89 87  1  0
 89 88  1  0
 91 94  1  1
 91 92  1  0
 93 91  1  0
M  ISO  4   8 100  21 100  53 101  54 101
M  END
>  <TORSDO>  (19) 
F 18

>  <SCORE>  (19) 
-14.305

>  <name>  (19) 
18

>  <ligand_id>  (19) 
18

>  <original_smiles>  (19) 
[H]c1c([H])c([H])c2c(c1[H])C([H])([H])C([H])([H])C([H])([H])C2([H])N([H])C(=O)C1([H])N(C(=O)C([H])(N([H])C(=O)C([H])(N([H])C([H])([H])[H])C([H])([H])[H])C(C([H])([H])[H])(C([H])([H])[H])C([H])([H])[H])C([H])([H])c2c([H])c(OC([H])([H])c3c([H])c(C([H])([H])[H])c(C4([H])C([H])([H])C([H])([H])N(C(=O)N5C([H])([H])C([H])([H])C([H])([H])C([H])(n6nc(-c7c([H])c([H])c(Oc8c([H])c([H])c(F)c([H])c8F)c([H])c7[H])c(C(=O)N([H])[H])c6N([H])[H])C5([H])[H])C([H])([H])C4([H])[H])c(C4([H])C([H])([H])C4([H])[H])c3[H])c([H])c([H])c2C1([H])[H]

>  <smiles>  (19) 
[H]c1c([H])c([H])c2c(c1[H])C([H])([H])C([H])([H])C([H])([H])C2([H])N([H])C(=O)C1([H])N(C(=O)C([H])(N([H])C(=O)C([H])(N([H])C([H])([H])[H])C([H])([H])[H])C(C([H])([H])[H])(C([H])([H])[H])C([H])([H])[H])C([H])([H])c2c([H])c(OC([H])([H])c3c([H])c(C([H])([H])[H])c(C4([H])C([H])([H])C([H])([H])N(C(=O)N5C([H])([H])C([H])([H])C([H])([H])C([H])(n6nc(-c7c([H])c([H])c(Oc8c([H])c([H])c(F)c([H])c8F)c([H])c7[H])c(C(=O)N([H])[H])c6N([H])[H])C5([H])[H])C([H])([H])C4([H])[H])c(C4([H])C([H])([H])C4([H])[H])c3[H])c([H])c([H])c2C1([H])[H]

$$$$
19:0:0
     RDKit          3D

 94103  0  0  1  0  0  0  0  0999 V2000
  -28.8680  -20.5760   20.7770 C   0  0  0  0  0  3  0  0  0  0  0  0
  -28.6130  -21.1770   19.4170 C   0  0  0  0  0  3  0  0  0  0  0  0
  -29.2450  -22.0490   20.4880 C   0  0  0  0  0  3  0  0  0  0  0  0
  -29.4220  -18.0470   20.7550 C   0  0  0  0  0  3  0  0  0  0  0  0
  -31.1820  -19.6210   21.2390 C   0  0  0  0  0  3  0  0  0  0  0  0
  -31.6820  -17.3530   21.2370 C   0  0  0  0  0  3  0  0  0  0  0  0
  -29.8320  -19.4010   20.9130 C   0  0  0  0  0  0  0  0  0  0  0  0
  -30.3590  -16.9860   20.9030 C   0  0  0  0  0  0  0  0  0  0  0  0
  -32.0830  -18.6310   21.4020 N   0  0  0  0  0  0  0  0  0  0  0  0
  -30.6400  -14.5930   20.1580 C   0  0  0  0  0  0  0  0  0  0  0  0
  -30.2630  -12.4950   18.9020 C   0  0  0  0  0  2  0  0  0  0  0  0
  -29.2470  -12.7610   17.7700 C   0  0  0  0  0  2  0  0  0  0  0  0
  -27.8030  -12.5990   18.2850 C   0  0  0  0  0  2  0  0  0  0  0  0
  -27.5520  -13.3680   19.6100 C   0  0  0  0  0  3  0  0  0  0  0  0
  -28.6720  -13.0860   20.6380 C   0  0  0  0  0  2  0  0  0  0  0  0
  -29.9550  -13.4250   20.0030 N   0  0  0  0  0  0  0  0  0  0  0  0
  -31.7450  -14.7750   19.6410 O   0  0  0  0  0  0  0  0  0  0  0  0
  -29.9580  -15.6050   20.7570 N   0  0  0  0  0  0  0  0  0  0  0  0
  -29.0190  -15.3720   21.0400 H   0  0  0  0  0  0  0  0  0  0  0  0
  -25.1980  -13.9510   20.4680 C   0  0  0  0  0  0  0  0  0  0  0  0
  -24.1530  -13.1680   20.8760 C   0  0  0  0  0  0  0  0  0  0  0  0
  -24.6110  -11.8170   20.7830 C   0  0  0  0  0  0  0  0  0  0  0  0
  -26.2290  -13.0760   20.1550 N   0  0  0  0  0  0  0  0  0  0  0  0
  -25.8830  -11.7870   20.4030 N   0  0  0  0  0  0  0  0  0  0  0  0
  -23.8970  -10.5490   20.9790 C   0  0  0  0  0  0  0  0  0  0  0  0
  -24.3520   -9.5800   21.9010 C   0  0  0  0  0  3  0  0  0  0  0  0
  -23.6380   -8.3760   22.0850 C   0  0  0  0  0  3  0  0  0  0  0  0
  -22.4550   -8.1330   21.3480 C   0  0  0  0  0  0  0  0  0  0  0  0
  -22.0180   -9.0920   20.4160 C   0  0  0  0  0  3  0  0  0  0  0  0
  -22.7330  -10.2870   20.2300 C   0  0  0  0  0  3  0  0  0  0  0  0
  -21.7100   -6.9830   21.4420 O   0  0  0  0  0  0  0  0  0  0  0  0
  -21.6540   -6.2550   22.6030 C   0  0  0  0  0  0  0  0  0  0  0  0
  -21.1690   -6.8100   23.8080 C   0  0  0  0  0  3  0  0  0  0  0  0
  -21.0640   -6.0070   24.9600 C   0  0  0  0  0  3  0  0  0  0  0  0
  -21.4330   -4.6490   24.9090 C   0  0  0  0  0  0  0  0  0  0  0  0
  -21.9110   -4.0940   23.7100 C   0  0  0  0  0  3  0  0  0  0  0  0
  -22.0180   -4.8950   22.5590 C   0  0  0  0  0  0  0  0  0  0  0  0
  -22.4580   -4.3490   21.3990 F   0  0  0  0  0  0  0  0  0  0  0  0
  -21.3250   -3.8740   26.0140 F   0  0  0  0  0  0  0  0  0  0  0  0
  -22.7730  -13.6350   21.2380 C   0  0  0  0  0  0  0  0  0  0  0  0
  -22.0940  -12.9130   22.1230 N   0  0  0  0  0  0  0  0  0  0  0  0
  -22.3080  -14.6750   20.7740 O   0  0  0  0  0  0  0  0  0  0  0  0
  -22.4840  -12.0710   22.5180 H   0  0  0  0  0  0  0  0  0  0  0  0
  -21.1700  -13.2060   22.4070 H   0  0  0  0  0  0  0  0  0  0  0  0
  -25.3540  -15.3250   20.3170 N   0  0  0  0  0  0  0  0  0  0  0  0
  -24.5890  -15.9720   20.4760 H   0  0  0  0  0  0  0  0  0  0  0  0
  -26.1720  -15.7700   19.9240 H   0  0  0  0  0  0  0  0  0  0  0  0
  -27.0620  -22.5290   17.9550 C   0  0  0  0  0  1  0  0  0  0  0  0
  -26.6820  -20.0470   18.2560 C   0  0  0  0  0  1  0  0  0  0  0  0
  -27.1840  -21.3400   18.9160 C   0  0  0  0  0  3  0  0  0  0  0  0
  -28.3290  -23.0430   20.9880 O   0  0  0  0  0  0  0  0  0  0  0  0
  -28.8190  -24.3830   21.2240 C   0  0  0  0  0  2  0  0  0  0  0  0
  -28.7340  -25.3590   20.0100 C   0  0  0  0  0  2  0  0  0  0  0  0
  -28.6500  -26.7710   20.3720 O   0  0  0  0  0  0  0  0  0  0  0  0
  -24.6330  -31.9190   23.2840 C   0  0  0  0  0  0  0  0  0  0  0  0
  -27.4570  -27.4840   20.2980 C   0  0  0  0  0  0  0  0  0  0  0  0
  -23.5150  -30.5070   21.5910 C   0  0  0  0  0  3  0  0  0  0  0  0
  -25.0460  -29.0000   20.2150 C   0  0  0  0  0  0  0  0  0  0  0  0
  -26.0460  -30.8940   21.4950 C   0  0  0  0  0  2  0  0  0  0  0  0
  -26.1750  -29.5230   20.8540 C   0  0  0  0  0  0  0  0  0  0  0  0
  -27.3800  -28.7740   20.8900 C   0  0  0  0  0  3  0  0  0  0  0  0
  -26.3030  -26.9980   19.6380 C   0  0  0  0  0  3  0  0  0  0  0  0
  -25.1090  -27.7400   19.6010 C   0  0  0  0  0  3  0  0  0  0  0  0
  -23.7900  -29.8420   20.2170 C   0  0  0  0  0  2  0  0  0  0  0  0
  -24.7480  -31.1230   22.1820 N   0  0  0  0  0  0  0  0  0  0  0  0
  -23.5270  -32.1710   23.7810 O   0  0  0  0  0  0  0  0  0  0  0  0
  -22.8440  -29.4690   22.5210 C   0  0  0  0  0  0  0  0  0  0  0  0
  -21.5300  -29.2600   22.3370 N   0  0  0  0  0  0  0  0  0  0  0  0
  -23.5040  -28.8570   23.3640 O   0  0  0  0  0  0  0  0  0  0  0  0
  -21.0580  -29.8090   21.6330 H   0  0  0  0  0  0  0  0  0  0  0  0
  -18.1580  -28.0080   22.7020 C   0  0  0  0  0  0  0  0  0  0  0  0
  -20.7000  -28.3030   23.0690 C   0  0  0  0  0  3  0  0  0  0  0  0
  -20.8450  -26.8780   22.4850 C   0  0  0  0  0  2  0  0  0  0  0  0
  -19.7860  -26.5480   21.4300 C   0  0  0  0  0  2  0  0  0  0  0  0
  -18.3800  -26.6670   22.0240 C   0  0  0  0  0  2  0  0  0  0  0  0
  -19.2490  -28.7830   23.1790 C   0  0  0  0  0  0  0  0  0  0  0  0
  -18.9890  -30.0390   23.7710 C   0  0  0  0  0  3  0  0  0  0  0  0
  -17.6730  -30.5190   23.8910 C   0  0  0  0  0  3  0  0  0  0  0  0
  -16.5950  -29.7410   23.4320 C   0  0  0  0  0  3  0  0  0  0  0  0
  -16.8390  -28.4870   22.8430 C   0  0  0  0  0  3  0  0  0  0  0  0
  -25.8820  -32.5700   23.9550 C   0  0  0  0  0  3  0  0  0  0  0  0
  -25.5500  -33.9730   24.2400 N   0  0  0  0  0  0  0  0  0  0  0  0
  -25.9050  -35.0100   23.4690 C   0  0  0  0  0  0  0  0  0  0  0  0
  -26.6150  -34.8880   22.4670 O   0  0  0  0  0  0  0  0  0  0  0  0
  -24.9220  -34.1410   25.0120 H   0  0  0  0  0  0  0  0  0  0  0  0
  -24.1720  -36.7750   23.0090 C   0  0  0  0  0  1  0  0  0  0  0  0
  -25.3880  -36.4050   23.8730 C   0  0  0  0  0  3  0  0  0  0  0  0
  -27.4800  -37.3370   24.7580 C   0  0  0  0  0  1  0  0  0  0  0  0
  -26.4130  -37.4650   23.7690 N   0  0  0  0  0  0  0  0  0  0  0  0
  -25.9920  -38.3840   23.8740 H   0  0  0  0  0  0  0  0  0  0  0  0
  -26.3400  -31.8260   25.2680 C   0  0  1  0  0  0  0  0  0  0  0  0
  -25.1940  -31.5830   26.2780 C   0  0  0  0  0  1  0  0  0  0  0  0
  -26.9660  -30.4540   24.9280 C   0  0  0  0  0  1  0  0  0  0  0  0
  -27.4380  -32.6490   25.9830 C   0  0  0  0  0  1  0  0  0  0  0  0
  1  7  1  0
  2 50  1  0
  2  3  1  0
  2  1  1  0
  3  1  1  0
  3 51  1  0
  4  8  2  0
  4  7  1  0
  5  9  1  0
  6  9  2  0
  7  5  2  0
  8  6  1  0
 10 18  1  0
 11 16  1  0
 12 13  1  0
 12 11  1  0
 14 13  1  0
 14 23  1  0
 14 15  1  0
 16 10  1  0
 16 15  1  0
 17 10  2  0
 18  8  1  0
 18 19  1  0
 20 21  2  0
 21 40  1  0
 22 21  1  0
 22 25  1  0
 23 24  1  0
 23 20  1  0
 24 22  2  0
 25 26  1  0
 26 27  2  0
 28 31  1  0
 28 27  1  0
 29 28  2  0
 30 29  1  0
 30 25  2  0
 31 32  1  0
 32 33  1  0
 33 34  2  0
 35 34  1  0
 35 39  1  0
 36 35  2  0
 37 32  2  0
 37 36  1  0
 38 37  1  0
 40 41  1  0
 41 44  1  0
 41 43  1  0
 42 40  2  0
 45 20  1  0
 45 46  1  0
 47 45  1  0
 48 50  1  0
 49 50  1  0
 51 52  1  0
 53 54  1  0
 53 52  1  0
 55 66  2  0
 56 54  1  0
 56 61  1  0
 57 65  1  0
 57 67  1  0
 58 64  1  0
 58 60  1  0
 59 65  1  0
 60 61  2  0
 60 59  1  0
 62 56  2  0
 63 62  1  0
 63 58  2  0
 64 57  1  0
 65 55  1  0
 67 69  2  0
 68 67  1  0
 70 68  1  0
 71 80  2  0
 71 76  1  0
 72 68  1  0
 72 76  1  0
 73 72  1  0
 74 75  1  0
 74 73  1  0
 75 71  1  0
 76 77  2  0
 77 78  1  0
 79 78  2  0
 80 79  1  0
 81 55  1  0
 81 82  1  0
 81 91  1  0
 82 85  1  0
 83 87  1  0
 83 82  1  0
 84 83  2  0
 87 86  1  0
 89 87  1  0
 89 90  1  0
 89 88  1  0
 91 94  1  1
 91 92  1  0
 93 91  1  0
M  ISO  4  10 100  18 100  53 101  54 101
M  END
>  <TORSDO>  (20) 
F 21

>  <SCORE>  (20) 
-13.650

>  <name>  (20) 
19

>  <ligand_id>  (20) 
19

>  <original_smiles>  (20) 
[H]c1nc([H])c(C2([H])C([H])(OC([H])([H])C([H])([H])Oc3c([H])c([H])c4c(c3[H])C([H])([H])N(C(=O)C([H])(N([H])C(=O)C([H])(N([H])C([H])([H])[H])C([H])([H])[H])C(C([H])([H])[H])(C([H])([H])[H])C([H])([H])[H])C([H])(C(=O)N([H])C3([H])c5c([H])c([H])c([H])c([H])c5C([H])([H])C([H])([H])C3([H])[H])C4([H])[H])C2([H])C([H])(C([H])([H])[H])C([H])([H])[H])c([H])c1N([H])C(=O)N1C([H])([H])C([H])([H])C([H])([H])C([H])(n2nc(-c3c([H])c([H])c(Oc4c([H])c([H])c(F)c([H])c4F)c([H])c3[H])c(C(=O)N([H])[H])c2N([H])[H])C1([H])[H]

>  <smiles>  (20) 
[H]c1nc([H])c(C2([H])C([H])(OC([H])([H])C([H])([H])Oc3c([H])c([H])c4c(c3[H])C([H])([H])N(C(=O)C([H])(N([H])C(=O)C([H])(N([H])C([H])([H])[H])C([H])([H])[H])C(C([H])([H])[H])(C([H])([H])[H])C([H])([H])[H])C([H])(C(=O)N([H])C3([H])c5c([H])c([H])c([H])c([H])c5C([H])([H])C([H])([H])C3([H])[H])C4([H])[H])C2([H])C([H])(C([H])([H])[H])C([H])([H])[H])c([H])c1N([H])C(=O)N1C([H])([H])C([H])([H])C([H])([H])C([H])(n2nc(-c3c([H])c([H])c(Oc4c([H])c([H])c(F)c([H])c4F)c([H])c3[H])c(C(=O)N([H])[H])c2N([H])[H])C1([H])[H]

$$$$
20:0:0
     RDKit          3D

 99109  0  0  1  0  0  0  0  0999 V2000
  -26.0870  -20.5790   17.4240 C   0  0  0  0  0  2  0  0  0  0  0  0
  -25.0490  -21.5840   17.9080 C   0  0  0  0  0  2  0  0  0  0  0  0
  -27.1080  -21.2020   18.3880 C   0  0  0  0  0  3  0  0  0  0  0  0
  -25.9310  -21.8810   19.1310 C   0  0  0  0  0  3  0  0  0  0  0  0
  -29.4240  -20.2920   19.0160 C   0  0  0  0  0  3  0  0  0  0  0  0
  -27.4370  -19.2360   19.9460 C   0  0  0  0  0  3  0  0  0  0  0  0
  -30.2360  -19.3680   19.7110 C   0  0  0  0  0  3  0  0  0  0  0  0
  -28.2440  -18.3230   20.6410 C   0  0  0  0  0  3  0  0  0  0  0  0
  -28.0160  -20.2340   19.1370 C   0  0  0  0  0  0  0  0  0  0  0  0
  -29.6440  -18.3750   20.5280 C   0  0  0  0  0  0  0  0  0  0  0  0
  -30.3280  -17.4270   21.2480 O   0  0  0  0  0  0  0  0  0  0  0  0
  -31.6550  -17.1010   20.8700 C   0  0  0  0  0  2  0  0  0  0  0  0
  -31.9560  -15.7350   21.5110 C   0  0  0  0  0  2  0  0  0  0  0  0
  -31.0320  -14.1040   19.8880 C   0  0  0  0  0  0  0  0  0  0  0  0
  -30.4020  -12.0550   18.6840 C   0  0  0  0  0  2  0  0  0  0  0  0
  -29.3690  -12.2870   17.5700 C   0  0  0  0  0  2  0  0  0  0  0  0
  -27.9430  -12.2080   18.1390 C   0  0  0  0  0  2  0  0  0  0  0  0
  -27.7560  -13.0980   19.3960 C   0  0  0  0  0  3  0  0  0  0  0  0
  -28.8930  -12.8730   20.4210 C   0  0  0  0  0  2  0  0  0  0  0  0
  -30.1950  -13.0460   19.7480 N   0  0  0  0  0  0  0  0  0  0  0  0
  -31.8960  -14.4040   19.0610 O   0  0  0  0  0  0  0  0  0  0  0  0
  -30.9990  -14.7070   21.0810 N   0  0  0  0  0  0  0  0  0  0  0  0
  -30.3030  -14.4030   21.7450 H   0  0  0  0  0  0  0  0  0  0  0  0
  -25.4740  -13.8240   20.3510 C   0  0  0  0  0  0  0  0  0  0  0  0
  -24.3970  -13.1070   20.7960 C   0  0  0  0  0  0  0  0  0  0  0  0
  -24.7630  -11.7290   20.6760 C   0  0  0  0  0  0  0  0  0  0  0  0
  -26.4360  -12.8910   19.9940 N   0  0  0  0  0  0  0  0  0  0  0  0
  -26.0140  -11.6230   20.2430 N   0  0  0  0  0  0  0  0  0  0  0  0
  -23.9770  -10.5090   20.8950 C   0  0  0  0  0  0  0  0  0  0  0  0
  -24.4060   -9.5070   21.7950 C   0  0  0  0  0  3  0  0  0  0  0  0
  -23.6250   -8.3500   22.0050 C   0  0  0  0  0  3  0  0  0  0  0  0
  -22.4010   -8.1850   21.3150 C   0  0  0  0  0  0  0  0  0  0  0  0
  -21.9890   -9.1730   20.4040 C   0  0  0  0  0  3  0  0  0  0  0  0
  -22.7690  -10.3220   20.1930 C   0  0  0  0  0  3  0  0  0  0  0  0
  -21.5910   -7.0810   21.4330 O   0  0  0  0  0  0  0  0  0  0  0  0
  -21.5290   -6.3560   22.5960 C   0  0  0  0  0  0  0  0  0  0  0  0
  -21.1610   -6.9480   23.8240 C   0  0  0  0  0  3  0  0  0  0  0  0
  -21.0430   -6.1530   24.9810 C   0  0  0  0  0  3  0  0  0  0  0  0
  -21.2800   -4.7670   24.9110 C   0  0  0  0  0  0  0  0  0  0  0  0
  -21.6400   -4.1740   23.6880 C   0  0  0  0  0  3  0  0  0  0  0  0
  -21.7610   -4.9680   22.5330 C   0  0  0  0  0  0  0  0  0  0  0  0
  -22.0870   -4.3890   21.3520 F   0  0  0  0  0  0  0  0  0  0  0  0
  -21.1580   -4.0010   26.0200 F   0  0  0  0  0  0  0  0  0  0  0  0
  -23.0670  -13.6560   21.2200 C   0  0  0  0  0  0  0  0  0  0  0  0
  -22.3890  -12.9830   22.1440 N   0  0  0  0  0  0  0  0  0  0  0  0
  -22.6390  -14.7180   20.7660 O   0  0  0  0  0  0  0  0  0  0  0  0
  -22.7480  -12.1240   22.5330 H   0  0  0  0  0  0  0  0  0  0  0  0
  -21.4960  -13.3320   22.4650 H   0  0  0  0  0  0  0  0  0  0  0  0
  -25.7110  -15.1880   20.2020 N   0  0  0  0  0  0  0  0  0  0  0  0
  -25.0050  -15.8860   20.4080 H   0  0  0  0  0  0  0  0  0  0  0  0
  -26.5610  -15.5830   19.8180 H   0  0  0  0  0  0  0  0  0  0  0  0
  -25.9790  -23.3330   19.5910 C   0  0  0  0  0  2  0  0  0  0  0  0
  -27.8760  -25.2140   22.1850 C   0  0  0  0  0  2  0  0  0  0  0  0
  -26.6210  -24.4580   21.7390 C   0  0  0  0  0  2  0  0  0  0  0  0
  -28.3020  -24.1490   20.0470 C   0  0  0  0  0  2  0  0  0  0  0  0
  -28.6930  -25.3690   20.8990 C   0  0  0  0  0  3  0  0  0  0  0  0
  -27.0370  -23.5950   20.6050 N   0  0  2  0  0  4  0  0  0  0  0  0
  -27.2640  -22.7060   21.0310 H   0  0  0  0  0  0  0  0  0  0  0  0
  -28.5670  -26.6220   20.1980 O   0  0  0  0  0  0  0  0  0  0  0  0
  -24.5320  -31.6650   23.1730 C   0  0  0  0  0  0  0  0  0  0  0  0
  -27.3670  -27.2960   20.1860 C   0  0  0  0  0  0  0  0  0  0  0  0
  -23.4080  -30.2520   21.4830 C   0  0  0  0  0  3  0  0  0  0  0  0
  -24.9380  -28.7340   20.1170 C   0  0  0  0  0  0  0  0  0  0  0  0
  -25.9290  -30.6510   21.3790 C   0  0  0  0  0  2  0  0  0  0  0  0
  -26.0600  -29.2790   20.7550 C   0  0  0  0  0  0  0  0  0  0  0  0
  -27.2730  -28.5600   20.8000 C   0  0  0  0  0  3  0  0  0  0  0  0
  -26.2470  -26.7860   19.5010 C   0  0  0  0  0  3  0  0  0  0  0  0
  -25.0240  -27.4810   19.4890 C   0  0  0  0  0  3  0  0  0  0  0  0
  -23.6800  -29.5760   20.1130 C   0  0  0  0  0  2  0  0  0  0  0  0
  -24.6390  -30.8680   22.0740 N   0  0  0  0  0  0  0  0  0  0  0  0
  -23.4290  -31.9170   23.6780 O   0  0  0  0  0  0  0  0  0  0  0  0
  -22.7340  -29.2210   22.4150 C   0  0  0  0  0  0  0  0  0  0  0  0
  -21.4100  -29.0560   22.2670 N   0  0  0  0  0  0  0  0  0  0  0  0
  -23.3980  -28.5700   23.2260 O   0  0  0  0  0  0  0  0  0  0  0  0
  -20.9310  -29.6220   21.5800 H   0  0  0  0  0  0  0  0  0  0  0  0
  -18.0100  -27.9380   22.7450 C   0  0  0  0  0  0  0  0  0  0  0  0
  -20.5730  -28.1170   23.0140 C   0  0  0  0  0  3  0  0  0  0  0  0
  -20.6410  -26.7060   22.3860 C   0  0  0  0  0  2  0  0  0  0  0  0
  -19.5250  -26.4480   21.3660 C   0  0  0  0  0  2  0  0  0  0  0  0
  -18.1490  -26.6090   22.0220 C   0  0  0  0  0  2  0  0  0  0  0  0
  -19.1500  -28.6540   23.1950 C   0  0  0  0  0  0  0  0  0  0  0  0
  -18.9680  -29.9050   23.8280 C   0  0  0  0  0  3  0  0  0  0  0  0
  -17.6790  -30.4360   24.0140 C   0  0  0  0  0  3  0  0  0  0  0  0
  -16.5530  -29.7150   23.5810 C   0  0  0  0  0  3  0  0  0  0  0  0
  -16.7180  -28.4670   22.9520 C   0  0  0  0  0  3  0  0  0  0  0  0
  -25.7880  -32.3130   23.8400 C   0  0  0  0  0  3  0  0  0  0  0  0
  -25.4570  -33.7090   24.1480 N   0  0  0  0  0  0  0  0  0  0  0  0
  -25.7970  -34.7550   23.3820 C   0  0  0  0  0  0  0  0  0  0  0  0
  -26.4920  -34.6470   22.3680 O   0  0  0  0  0  0  0  0  0  0  0  0
  -24.8360  -33.8650   24.9280 H   0  0  0  0  0  0  0  0  0  0  0  0
  -24.0440  -36.5120   22.9680 C   0  0  0  0  0  1  0  0  0  0  0  0
  -25.2810  -36.1450   23.8050 C   0  0  0  0  0  3  0  0  0  0  0  0
  -27.3950  -37.0740   24.6390 C   0  0  0  0  0  1  0  0  0  0  0  0
  -26.2990  -37.2120   23.6840 N   0  0  0  0  0  0  0  0  0  0  0  0
  -25.8780  -38.1280   23.8210 H   0  0  0  0  0  0  0  0  0  0  0  0
  -26.2610  -31.5490   25.1370 C   0  0  1  0  0  0  0  0  0  0  0  0
  -25.1320  -31.3120   26.1680 C   0  0  0  0  0  1  0  0  0  0  0  0
  -26.8570  -30.1690   24.7720 C   0  0  0  0  0  1  0  0  0  0  0  0
  -27.3900  -32.3450   25.8320 C   0  0  0  0  0  1  0  0  0  0  0  0
  1  2  1  0
  1  3  1  0
  2  4  1  0
  3  4  1  0
  3  9  1  0
  4 52  1  0
  5  9  2  0
  5  7  1  0
  6  8  2  0
  7 10  2  0
  9  6  1  0
 10  8  1  0
 10 11  1  0
 12 11  1  0
 12 13  1  0
 14 22  1  0
 15 20  1  0
 16 17  1  0
 16 15  1  0
 18 17  1  0
 18 27  1  0
 18 19  1  0
 20 14  1  0
 20 19  1  0
 21 14  2  0
 22 13  1  0
 22 23  1  0
 24 25  2  0
 25 44  1  0
 26 25  1  0
 26 29  1  0
 27 28  1  0
 27 24  1  0
 28 26  2  0
 29 30  1  0
 30 31  2  0
 32 35  1  0
 32 31  1  0
 33 32  2  0
 34 33  1  0
 34 29  2  0
 35 36  1  0
 36 37  1  0
 37 38  2  0
 39 38  1  0
 39 43  1  0
 40 39  2  0
 41 36  2  0
 41 40  1  0
 42 41  1  0
 44 45  1  0
 45 48  1  0
 45 47  1  0
 46 44  2  0
 49 24  1  0
 49 50  1  0
 51 49  1  0
 52 57  1  0
 54 53  1  0
 55 57  1  0
 55 56  1  0
 56 59  1  0
 56 53  1  0
 57 58  1  1
 57 54  1  0
 60 71  2  0
 61 59  1  0
 61 66  1  0
 62 70  1  0
 62 72  1  0
 63 65  1  0
 64 70  1  0
 65 66  2  0
 65 64  1  0
 67 61  2  0
 68 67  1  0
 68 63  2  0
 69 63  1  0
 69 62  1  0
 70 60  1  0
 72 74  2  0
 73 72  1  0
 75 73  1  0
 76 85  2  0
 76 81  1  0
 77 73  1  0
 77 81  1  0
 78 77  1  0
 79 80  1  0
 79 78  1  0
 80 76  1  0
 81 82  2  0
 82 83  1  0
 84 83  2  0
 85 84  1  0
 86 60  1  0
 86 87  1  0
 86 96  1  0
 87 90  1  0
 88 92  1  0
 88 87  1  0
 89 88  2  0
 92 91  1  0
 94 92  1  0
 94 95  1  0
 94 93  1  0
 96 99  1  1
 96 97  1  0
 98 96  1  0
M  ISO  4  14 100  22 100  56 101  59 101
M  END
>  <TORSDO>  (21) 
F 22

>  <SCORE>  (21) 
-12.466

>  <name>  (21) 
20

>  <ligand_id>  (21) 
20

>  <original_smiles>  (21) 
[H]c1c([H])c([H])c2c(c1[H])C([H])([H])C([H])([H])C([H])([H])C2([H])N([H])C(=O)C1([H])N(C(=O)C([H])(N([H])C(=O)C([H])(N([H])C([H])([H])[H])C([H])([H])[H])C(C([H])([H])[H])(C([H])([H])[H])C([H])([H])[H])C([H])([H])c2c([H])c(OC3([H])C([H])([H])C([H])([H])[N+]([H])(C([H])([H])C4([H])C([H])([H])C([H])([H])C4([H])c4c([H])c([H])c(OC([H])([H])C([H])([H])N([H])C(=O)N5C([H])([H])C([H])([H])C([H])([H])C([H])(n6nc(-c7c([H])c([H])c(Oc8c([H])c([H])c(F)c([H])c8F)c([H])c7[H])c(C(=O)N([H])[H])c6N([H])[H])C5([H])[H])c([H])c4[H])C3([H])[H])c([H])c([H])c2C1([H])[H]

>  <smiles>  (21) 
[H]c1c([H])c([H])c2c(c1[H])C([H])([H])C([H])([H])C([H])([H])C2([H])N([H])C(=O)C1([H])N(C(=O)C([H])(N([H])C(=O)C([H])(N([H])C([H])([H])[H])C([H])([H])[H])C(C([H])([H])[H])(C([H])([H])[H])C([H])([H])[H])C([H])([H])c2c([H])c(OC3([H])C([H])([H])C([H])([H])[N+]([H])(C([H])([H])C4([H])C([H])([H])C([H])([H])C4([H])c4c([H])c([H])c(OC([H])([H])C([H])([H])N([H])C(=O)N5C([H])([H])C([H])([H])C([H])([H])C([H])(n6nc(-c7c([H])c([H])c(Oc8c([H])c([H])c(F)c([H])c8F)c([H])c7[H])c(C(=O)N([H])[H])c6N([H])[H])C5([H])[H])c([H])c4[H])C3([H])[H])c([H])c([H])c2C1([H])[H]

$$$$
21:0:0
     RDKit          3D

 92101  0  0  1  0  0  0  0  0999 V2000
  -28.0060  -21.4200   21.1380 C   0  0  0  0  0  3  0  0  0  0  0  0
  -29.4320  -22.7460   19.6730 C   0  0  0  0  0  3  0  0  0  0  0  0
  -27.2650  -22.6020   21.3490 C   0  0  0  0  0  0  0  0  0  0  0  0
  -27.5730  -23.8160   20.7560 C   0  0  0  0  0  0  0  0  0  0  0  0
  -28.6570  -23.9710   19.8760 C   0  0  0  0  0  0  0  0  0  0  0  0
  -29.1390  -21.4500   20.2880 C   0  0  0  0  0  0  0  0  0  0  0  0
  -26.0120  -22.7690   22.1630 C   0  0  0  0  0  2  0  0  0  0  0  0
  -26.5390  -24.8220   21.1710 C   0  0  0  0  0  2  0  0  0  0  0  0
  -25.7300  -24.1780   22.1720 O   0  0  0  0  0  0  0  0  0  0  0  0
  -28.8970  -25.3330   19.0810 C   0  0  0  0  0  2  0  0  0  0  0  0
  -28.7670  -26.7030   19.6890 O   0  0  0  0  0  0  0  0  0  0  0  0
  -24.7490  -31.7190   23.0370 C   0  0  0  0  0  0  0  0  0  0  0  0
  -27.6040  -27.5080   19.6520 C   0  0  0  0  0  0  0  0  0  0  0  0
  -23.6270  -30.4000   21.2750 C   0  0  0  0  0  3  0  0  0  0  0  0
  -25.1630  -29.0270   19.7470 C   0  0  0  0  0  0  0  0  0  0  0  0
  -26.1540  -30.8390   21.1500 C   0  0  0  0  0  2  0  0  0  0  0  0
  -26.3020  -29.5170   20.3950 C   0  0  0  0  0  0  0  0  0  0  0  0
  -27.5190  -28.7670   20.3400 C   0  0  0  0  0  3  0  0  0  0  0  0
  -26.4340  -27.0830   18.9830 C   0  0  0  0  0  3  0  0  0  0  0  0
  -25.2330  -27.8200   19.0320 C   0  0  0  0  0  3  0  0  0  0  0  0
  -23.8850  -29.8360   19.8520 C   0  0  0  0  0  2  0  0  0  0  0  0
  -24.8600  -31.0010   21.8790 N   0  0  0  0  0  0  0  0  0  0  0  0
  -23.6490  -31.9030   23.5780 O   0  0  0  0  0  0  0  0  0  0  0  0
  -23.0010  -29.2870   22.1500 C   0  0  0  0  0  0  0  0  0  0  0  0
  -21.6770  -29.0960   22.0350 N   0  0  0  0  0  0  0  0  0  0  0  0
  -23.7070  -28.5990   22.8920 O   0  0  0  0  0  0  0  0  0  0  0  0
  -21.1660  -29.6950   21.4030 H   0  0  0  0  0  0  0  0  0  0  0  0
  -18.3260  -27.8320   22.5590 C   0  0  0  0  0  0  0  0  0  0  0  0
  -20.8950  -28.0740   22.7320 C   0  0  0  0  0  3  0  0  0  0  0  0
  -20.9670  -26.7190   21.9900 C   0  0  0  0  0  2  0  0  0  0  0  0
  -19.8180  -26.5130   20.9990 C   0  0  0  0  0  2  0  0  0  0  0  0
  -18.4670  -26.5740   21.7180 C   0  0  0  0  0  2  0  0  0  0  0  0
  -19.4660  -28.5430   23.0230 C   0  0  0  0  0  0  0  0  0  0  0  0
  -19.2770  -29.7240   23.7730 C   0  0  0  0  0  3  0  0  0  0  0  0
  -17.9830  -30.1940   24.0620 C   0  0  0  0  0  3  0  0  0  0  0  0
  -16.8590  -29.4780   23.6130 C   0  0  0  0  0  3  0  0  0  0  0  0
  -17.0320  -28.2980   22.8700 C   0  0  0  0  0  3  0  0  0  0  0  0
  -25.9930  -32.3640   23.7200 C   0  0  0  0  0  3  0  0  0  0  0  0
  -26.5300  -31.5260   24.9440 C   0  0  1  0  0  0  0  0  0  0  0  0
  -25.4420  -31.1710   25.9860 C   0  0  0  0  0  1  0  0  0  0  0  0
  -27.1700  -30.2020   24.4640 C   0  0  0  0  0  1  0  0  0  0  0  0
  -27.6440  -32.3160   25.6710 C   0  0  0  0  0  1  0  0  0  0  0  0
  -25.6120  -33.7180   24.1490 N   0  0  0  0  0  0  0  0  0  0  0  0
  -25.9400  -34.8440   23.5010 C   0  0  0  0  0  0  0  0  0  0  0  0
  -26.6600  -34.8530   22.5000 O   0  0  0  0  0  0  0  0  0  0  0  0
  -24.9730  -33.7810   24.9280 H   0  0  0  0  0  0  0  0  0  0  0  0
  -24.1670  -36.6060   23.2120 C   0  0  0  0  0  1  0  0  0  0  0  0
  -25.3800  -36.1710   24.0500 C   0  0  0  0  0  3  0  0  0  0  0  0
  -27.4370  -37.0490   25.0640 C   0  0  0  0  0  1  0  0  0  0  0  0
  -26.3790  -37.2630   24.0800 N   0  0  0  0  0  0  0  0  0  0  0  0
  -25.9340  -38.1530   24.2810 H   0  0  0  0  0  0  0  0  0  0  0  0
  -29.9170  -20.2720   20.0590 O   0  0  0  0  0  0  0  0  0  0  0  0
  -29.5450  -18.9210   20.5930 C   0  0  0  0  0  3  0  0  0  0  0  0
  -30.5200  -17.6490   20.3280 C   0  0  0  0  0  3  0  0  0  0  0  0
  -30.9550  -15.1090   20.8290 C   0  0  0  0  0  0  0  0  0  0  0  0
  -30.8410  -12.7810   19.9540 C   0  0  0  0  0  2  0  0  0  0  0  0
  -30.0270  -12.7920   18.6440 C   0  0  0  0  0  2  0  0  0  0  0  0
  -28.5250  -12.6410   18.9450 C   0  0  0  0  0  2  0  0  0  0  0  0
  -28.0430  -13.6040   20.0620 C   0  0  0  0  0  3  0  0  0  0  0  0
  -28.9850  -13.5670   21.2840 C   0  0  0  0  0  2  0  0  0  0  0  0
  -30.3360  -13.8830   20.8040 N   0  0  0  0  0  0  0  0  0  0  0  0
  -32.1670  -15.1940   20.6190 O   0  0  0  0  0  0  0  0  0  0  0  0
  -30.1670  -16.2490   20.8380 N   0  0  0  0  0  0  0  0  0  0  0  0
  -29.1890  -16.0900   21.0400 H   0  0  0  0  0  0  0  0  0  0  0  0
  -25.6100  -14.2530   20.5670 C   0  0  0  0  0  0  0  0  0  0  0  0
  -24.5020  -13.5050   20.8490 C   0  0  0  0  0  0  0  0  0  0  0  0
  -24.9370  -12.1440   20.8700 C   0  0  0  0  0  0  0  0  0  0  0  0
  -26.6550  -13.3520   20.4340 N   0  0  0  0  0  0  0  0  0  0  0  0
  -26.2490  -12.0780   20.6790 N   0  0  0  0  0  0  0  0  0  0  0  0
  -24.1740  -10.8960   21.0010 C   0  0  0  0  0  0  0  0  0  0  0  0
  -24.5210   -9.9140   21.9560 C   0  0  0  0  0  3  0  0  0  0  0  0
  -23.7600   -8.7320   22.0770 C   0  0  0  0  0  3  0  0  0  0  0  0
  -22.6370   -8.5220   21.2400 C   0  0  0  0  0  0  0  0  0  0  0  0
  -22.3090   -9.4930   20.2770 C   0  0  0  0  0  3  0  0  0  0  0  0
  -23.0710  -10.6660   20.1540 C   0  0  0  0  0  3  0  0  0  0  0  0
  -21.8570   -7.3930   21.2690 O   0  0  0  0  0  0  0  0  0  0  0  0
  -21.7290   -6.6330   22.4050 C   0  0  0  0  0  0  0  0  0  0  0  0
  -21.2430   -7.1770   23.6140 C   0  0  0  0  0  3  0  0  0  0  0  0
  -21.0640   -6.3440   24.7370 C   0  0  0  0  0  3  0  0  0  0  0  0
  -21.3600   -4.9710   24.6510 C   0  0  0  0  0  0  0  0  0  0  0  0
  -21.8400   -4.4280   23.4470 C   0  0  0  0  0  3  0  0  0  0  0  0
  -22.0210   -5.2570   22.3260 C   0  0  0  0  0  0  0  0  0  0  0  0
  -22.4620   -4.7250   21.1600 F   0  0  0  0  0  0  0  0  0  0  0  0
  -21.1800   -4.1690   25.7270 F   0  0  0  0  0  0  0  0  0  0  0  0
  -23.0940  -14.0090   20.9910 C   0  0  0  0  0  0  0  0  0  0  0  0
  -22.2780  -13.3370   21.7950 N   0  0  0  0  0  0  0  0  0  0  0  0
  -22.7250  -15.0340   20.4200 O   0  0  0  0  0  0  0  0  0  0  0  0
  -22.5880  -12.5090   22.2810 H   0  0  0  0  0  0  0  0  0  0  0  0
  -21.3280  -13.6580   21.9300 H   0  0  0  0  0  0  0  0  0  0  0  0
  -25.8150  -15.6200   20.3890 N   0  0  0  0  0  0  0  0  0  0  0  0
  -25.0470  -16.2800   20.4130 H   0  0  0  0  0  0  0  0  0  0  0  0
  -26.6800  -16.0300   20.0630 H   0  0  0  0  0  0  0  0  0  0  0  0
  1  3  1  0
  2  5  2  0
  2  6  1  0
  3  7  1  0
  4  8  1  0
  4  3  2  0
  5  4  1  0
  6  1  2  0
  7  9  1  0
  8  9  1  0
 10 11  1  0
 10  5  1  0
 12 23  2  0
 13 11  1  0
 13 18  1  0
 14 22  1  0
 14 24  1  0
 15 21  1  0
 15 17  1  0
 16 22  1  0
 17 16  1  0
 18 17  2  0
 19 20  1  0
 19 13  2  0
 20 15  2  0
 21 14  1  0
 22 12  1  0
 24 26  2  0
 25 24  1  0
 27 25  1  0
 28 37  2  0
 28 33  1  0
 29 25  1  0
 29 33  1  0
 30 29  1  0
 31 32  1  0
 31 30  1  0
 32 28  1  0
 33 34  2  0
 34 35  1  0
 36 35  2  0
 37 36  1  0
 38 12  1  0
 38 43  1  0
 38 39  1  0
 39 42  1  1
 39 40  1  0
 41 39  1  0
 43 46  1  0
 44 48  1  0
 44 43  1  0
 45 44  2  0
 48 47  1  0
 48 50  1  0
 50 51  1  0
 50 49  1  0
 52  6  1  0
 52 53  1  0
 54 53  2  0
 54 63  1  0
 55 63  1  0
 56 61  1  0
 57 58  1  0
 57 56  1  0
 59 58  1  0
 59 68  1  0
 59 60  1  0
 61 55  1  0
 61 60  1  0
 62 55  2  0
 63 64  1  0
 65 66  2  0
 66 67  1  0
 66 85  1  0
 67 70  1  0
 68 65  1  0
 68 69  1  0
 69 67  2  0
 70 71  1  0
 71 72  2  0
 73 76  1  0
 73 72  1  0
 74 73  2  0
 75 74  1  0
 75 70  2  0
 76 77  1  0
 77 78  1  0
 78 79  2  0
 80 79  1  0
 80 84  1  0
 81 80  2  0
 82 77  2  0
 82 81  1  0
 83 82  1  0
 85 86  1  0
 86 89  1  0
 86 88  1  0
 87 85  2  0
 90 91  1  0
 90 65  1  0
 92 90  1  0
M  ISO  4  10 101  11 101  55 100  63 100
M  END
>  <TORSDO>  (22) 
F 20

>  <SCORE>  (22) 
-11.703

>  <name>  (22) 
21

>  <ligand_id>  (22) 
21

>  <original_smiles>  (22) 
[H]c1c([H])c([H])c2c(c1[H])C([H])([H])C([H])([H])C([H])([H])C2([H])N([H])C(=O)C1([H])N(C(=O)C([H])(N([H])C(=O)C([H])(N([H])C([H])([H])[H])C([H])([H])[H])C(C([H])([H])[H])(C([H])([H])[H])C([H])([H])[H])C([H])([H])c2c([H])c(OC([H])([H])c3c([H])c(OC([H])([H])C([H])([H])N([H])C(=O)N4C([H])([H])C([H])([H])C([H])([H])C([H])(n5nc(-c6c([H])c([H])c(Oc7c([H])c([H])c(F)c([H])c7F)c([H])c6[H])c(C(=O)N([H])[H])c5N([H])[H])C4([H])[H])c([H])c4c3C([H])([H])OC4([H])[H])c([H])c([H])c2C1([H])[H]

>  <smiles>  (22) 
[H]c1c([H])c([H])c2c(c1[H])C([H])([H])C([H])([H])C([H])([H])C2([H])N([H])C(=O)C1([H])N(C(=O)C([H])(N([H])C(=O)C([H])(N([H])C([H])([H])[H])C([H])([H])[H])C(C([H])([H])[H])(C([H])([H])[H])C([H])([H])[H])C([H])([H])c2c([H])c(OC([H])([H])c3c([H])c(OC([H])([H])C([H])([H])N([H])C(=O)N4C([H])([H])C([H])([H])C([H])([H])C([H])(n5nc(-c6c([H])c([H])c(Oc7c([H])c([H])c(F)c([H])c7F)c([H])c6[H])c(C(=O)N([H])[H])c5N([H])[H])C4([H])[H])c([H])c4c3C([H])([H])OC4([H])[H])c([H])c([H])c2C1([H])[H]

$$$$
22:0:0
     RDKit          3D

 92101  0  0  1  0  0  0  0  0999 V2000
  -28.3110  -22.6320   19.1260 C   0  0  0  0  0  3  0  0  0  0  0  0
  -29.2010  -20.3200   19.5830 C   0  0  0  0  0  0  0  0  0  0  0  0
  -28.4210  -21.2240   18.7970 C   0  0  0  0  0  0  0  0  0  0  0  0
  -29.8600  -20.9450   20.6610 C   0  0  0  0  0  0  0  0  0  0  0  0
  -28.9610  -23.2230   20.2450 C   0  0  0  0  0  0  0  0  0  0  0  0
  -29.2680  -18.7270   19.3010 C   0  0  0  0  0  2  0  0  0  0  0  0
  -30.7850  -20.0160   21.4860 C   0  0  0  0  0  2  0  0  0  0  0  0
  -30.5310  -18.4390   21.4300 C   0  0  0  0  0  2  0  0  0  0  0  0
  -30.3450  -17.7450   20.0320 C   0  0  0  0  0  3  0  0  0  0  0  0
  -29.7370  -22.3140   20.9780 N   0  0  0  0  0  0  0  0  0  0  0  0
  -30.8760  -14.9900   19.9250 C   0  0  0  0  0  0  0  0  0  0  0  0
  -30.7150  -12.6110   19.0510 C   0  0  0  0  0  2  0  0  0  0  0  0
  -29.7240  -12.5380   17.8660 C   0  0  0  0  0  2  0  0  0  0  0  0
  -28.2830  -12.3370   18.3730 C   0  0  0  0  0  2  0  0  0  0  0  0
  -27.9320  -13.2920   19.5440 C   0  0  0  0  0  3  0  0  0  0  0  0
  -29.0390  -13.3350   20.6170 C   0  0  0  0  0  2  0  0  0  0  0  0
  -30.2800  -13.7290   19.9360 N   0  0  0  0  0  0  0  0  0  0  0  0
  -32.0650  -15.0490   19.5900 O   0  0  0  0  0  0  0  0  0  0  0  0
  -30.0950  -16.1720   20.0910 N   0  0  0  0  0  0  0  0  0  0  0  0
  -29.1340  -15.9440   20.2950 H   0  0  0  0  0  0  0  0  0  0  0  0
  -25.6180  -13.9020   20.4500 C   0  0  0  0  0  0  0  0  0  0  0  0
  -24.5570  -13.1400   20.8570 C   0  0  0  0  0  0  0  0  0  0  0  0
  -24.9820  -11.7790   20.7510 C   0  0  0  0  0  0  0  0  0  0  0  0
  -26.6190  -13.0070   20.1130 N   0  0  0  0  0  0  0  0  0  0  0  0
  -26.2520  -11.7230   20.3610 N   0  0  0  0  0  0  0  0  0  0  0  0
  -24.2340  -10.5300   20.9410 C   0  0  0  0  0  0  0  0  0  0  0  0
  -24.6490   -9.5540   21.8740 C   0  0  0  0  0  3  0  0  0  0  0  0
  -23.9000   -8.3710   22.0530 C   0  0  0  0  0  3  0  0  0  0  0  0
  -22.7220   -8.1560   21.2990 C   0  0  0  0  0  0  0  0  0  0  0  0
  -22.3260   -9.1190   20.3550 C   0  0  0  0  0  3  0  0  0  0  0  0
  -23.0760  -10.2930   20.1730 C   0  0  0  0  0  3  0  0  0  0  0  0
  -21.9470   -7.0230   21.3860 O   0  0  0  0  0  0  0  0  0  0  0  0
  -21.8190   -6.3280   22.5610 C   0  0  0  0  0  0  0  0  0  0  0  0
  -21.2580   -6.9140   23.7170 C   0  0  0  0  0  3  0  0  0  0  0  0
  -21.0800   -6.1420   24.8820 C   0  0  0  0  0  3  0  0  0  0  0  0
  -21.4550   -4.7860   24.8930 C   0  0  0  0  0  0  0  0  0  0  0  0
  -22.0080   -4.1980   23.7420 C   0  0  0  0  0  3  0  0  0  0  0  0
  -22.1880   -4.9680   22.5780 C   0  0  0  0  0  0  0  0  0  0  0  0
  -22.7020   -4.3910   21.4650 F   0  0  0  0  0  0  0  0  0  0  0  0
  -21.2770   -4.0410   26.0090 F   0  0  0  0  0  0  0  0  0  0  0  0
  -23.1920  -13.6420   21.2270 C   0  0  0  0  0  0  0  0  0  0  0  0
  -22.4990  -12.9400   22.1160 N   0  0  0  0  0  0  0  0  0  0  0  0
  -22.7520  -14.6930   20.7630 O   0  0  0  0  0  0  0  0  0  0  0  0
  -22.8690  -12.0880   22.5110 H   0  0  0  0  0  0  0  0  0  0  0  0
  -21.5870  -13.2600   22.4050 H   0  0  0  0  0  0  0  0  0  0  0  0
  -25.8050  -15.2740   20.3090 N   0  0  0  0  0  0  0  0  0  0  0  0
  -25.0560  -15.9350   20.4850 H   0  0  0  0  0  0  0  0  0  0  0  0
  -26.6240  -15.7060   19.9050 H   0  0  0  0  0  0  0  0  0  0  0  0
  -26.8720  -21.4560   16.9700 C   0  0  0  0  0  1  0  0  0  0  0  0
  -27.7590  -20.6500   17.7340 O   0  0  0  0  0  0  0  0  0  0  0  0
  -28.5390  -24.7220   20.8490 C   0  0  0  0  0  2  0  0  0  0  0  0
  -28.7940  -26.1670   20.3080 O   0  0  0  0  0  0  0  0  0  0  0  0
  -24.7890  -31.7050   23.1820 C   0  0  0  0  0  0  0  0  0  0  0  0
  -27.7120  -27.1250   20.2550 C   0  0  0  0  0  0  0  0  0  0  0  0
  -23.7330  -30.2740   21.4760 C   0  0  0  0  0  3  0  0  0  0  0  0
  -25.3170  -28.7750   20.1140 C   0  0  0  0  0  0  0  0  0  0  0  0
  -26.2790  -30.6500   21.4390 C   0  0  0  0  0  2  0  0  0  0  0  0
  -26.4470  -29.2660   20.7830 C   0  0  0  0  0  0  0  0  0  0  0  0
  -27.6480  -28.4580   20.8330 C   0  0  0  0  0  3  0  0  0  0  0  0
  -26.5570  -26.7410   19.5420 C   0  0  0  0  0  3  0  0  0  0  0  0
  -25.3870  -27.5280   19.4760 C   0  0  0  0  0  3  0  0  0  0  0  0
  -24.0510  -29.6200   20.1050 C   0  0  0  0  0  2  0  0  0  0  0  0
  -24.9500  -30.8980   22.0890 N   0  0  0  0  0  0  0  0  0  0  0  0
  -23.6660  -31.9360   23.6590 O   0  0  0  0  0  0  0  0  0  0  0  0
  -23.0520  -29.2300   22.3950 C   0  0  0  0  0  0  0  0  0  0  0  0
  -21.7350  -29.0190   22.2190 N   0  0  0  0  0  0  0  0  0  0  0  0
  -23.7140  -28.6100   23.2320 O   0  0  0  0  0  0  0  0  0  0  0  0
  -21.2570  -29.5710   21.5200 H   0  0  0  0  0  0  0  0  0  0  0  0
  -18.3700  -27.7380   22.6170 C   0  0  0  0  0  0  0  0  0  0  0  0
  -20.9170  -28.0440   22.9450 C   0  0  0  0  0  3  0  0  0  0  0  0
  -21.0600  -26.6310   22.3320 C   0  0  0  0  0  2  0  0  0  0  0  0
  -19.9860  -26.3160   21.2860 C   0  0  0  0  0  2  0  0  0  0  0  0
  -18.5880  -26.4130   21.9050 C   0  0  0  0  0  2  0  0  0  0  0  0
  -19.4640  -28.5100   23.0920 C   0  0  0  0  0  0  0  0  0  0  0  0
  -19.2040  -29.7480   23.7200 C   0  0  0  0  0  3  0  0  0  0  0  0
  -17.8860  -30.2150   23.8750 C   0  0  0  0  0  3  0  0  0  0  0  0
  -16.8070  -29.4400   23.4170 C   0  0  0  0  0  3  0  0  0  0  0  0
  -17.0490  -28.2030   22.7920 C   0  0  0  0  0  3  0  0  0  0  0  0
  -26.0050  -32.3890   23.8770 C   0  0  0  0  0  3  0  0  0  0  0  0
  -25.6290  -33.7820   24.1680 N   0  0  0  0  0  0  0  0  0  0  0  0
  -25.9580  -34.8370   23.4100 C   0  0  0  0  0  0  0  0  0  0  0  0
  -26.6750  -34.7430   22.4110 O   0  0  0  0  0  0  0  0  0  0  0  0
  -24.9940  -33.9260   24.9390 H   0  0  0  0  0  0  0  0  0  0  0  0
  -24.1880  -36.5690   22.9580 C   0  0  0  0  0  1  0  0  0  0  0  0
  -25.4060  -36.2150   23.8270 C   0  0  0  0  0  3  0  0  0  0  0  0
  -27.4620  -37.1960   24.7440 C   0  0  0  0  0  1  0  0  0  0  0  0
  -26.4050  -37.3030   23.7410 N   0  0  0  0  0  0  0  0  0  0  0  0
  -25.9610  -38.2100   23.8440 H   0  0  0  0  0  0  0  0  0  0  0  0
  -26.4580  -31.6550   25.2000 C   0  0  1  0  0  0  0  0  0  0  0  0
  -25.3040  -31.3990   26.1960 C   0  0  0  0  0  1  0  0  0  0  0  0
  -27.1090  -30.2910   24.8760 C   0  0  0  0  0  1  0  0  0  0  0  0
  -27.5360  -32.4970   25.9220 C   0  0  0  0  0  1  0  0  0  0  0  0
  1  5  1  0
  2  4  2  0
  3  1  2  0
  3  2  1  0
  4 10  1  0
  4  7  1  0
  5 51  1  0
  5 10  2  0
  6  2  1  0
  6  9  1  0
  8  7  1  0
  9 19  1  0
  9  8  1  0
 11 17  1  0
 11 19  1  0
 12 17  1  0
 13 14  1  0
 13 12  1  0
 15 14  1  0
 15 24  1  0
 15 16  1  0
 17 16  1  0
 18 11  2  0
 19 20  1  0
 21 22  2  0
 22 41  1  0
 23 22  1  0
 23 26  1  0
 24 25  1  0
 24 21  1  0
 25 23  2  0
 26 27  1  0
 27 28  2  0
 29 32  1  0
 29 28  1  0
 30 29  2  0
 31 30  1  0
 31 26  2  0
 32 33  1  0
 33 38  2  0
 33 34  1  0
 34 35  2  0
 35 36  1  0
 36 40  1  0
 37 36  2  0
 38 37  1  0
 39 38  1  0
 41 42  1  0
 42 45  1  0
 42 44  1  0
 43 41  2  0
 46 21  1  0
 46 47  1  0
 48 46  1  0
 49 50  1  0
 50  3  1  0
 52 51  1  0
 53 64  2  0
 54 52  1  0
 54 59  1  0
 55 63  1  0
 55 65  1  0
 56 58  1  0
 57 63  1  0
 58 59  2  0
 58 57  1  0
 60 54  2  0
 61 60  1  0
 61 56  2  0
 62 56  1  0
 62 55  1  0
 63 53  1  0
 65 67  2  0
 66 65  1  0
 68 66  1  0
 69 78  2  0
 69 74  1  0
 70 66  1  0
 70 74  1  0
 71 70  1  0
 72 73  1  0
 72 71  1  0
 73 69  1  0
 74 75  2  0
 75 76  1  0
 77 76  2  0
 78 77  1  0
 79 53  1  0
 79 80  1  0
 79 89  1  0
 80 83  1  0
 81 85  1  0
 81 80  1  0
 82 81  2  0
 85 84  1  0
 87 85  1  0
 87 88  1  0
 87 86  1  0
 89 92  1  1
 89 90  1  0
 91 89  1  0
M  ISO  4  11 100  19 100  51 101  52 101
M  END
>  <TORSDO>  (23) 
F 18

>  <SCORE>  (23) 
-13.476

>  <name>  (23) 
22

>  <ligand_id>  (23) 
22

>  <original_smiles>  (23) 
[H]c1c([H])c([H])c2c(c1[H])C([H])([H])C([H])([H])C([H])([H])C2([H])N([H])C(=O)C1([H])N(C(=O)C([H])(N([H])C(=O)C([H])(N([H])C([H])([H])[H])C([H])([H])[H])C(C([H])([H])[H])(C([H])([H])[H])C([H])([H])[H])C([H])([H])c2c([H])c(OC([H])([H])c3nc4c(c(OC([H])([H])[H])c3[H])C([H])([H])C([H])(N([H])C(=O)N3C([H])([H])C([H])([H])C([H])([H])C([H])(n5nc(-c6c([H])c([H])c(Oc7c([H])c([H])c(F)c([H])c7F)c([H])c6[H])c(C(=O)N([H])[H])c5N([H])[H])C3([H])[H])C([H])([H])C4([H])[H])c([H])c([H])c2C1([H])[H]

>  <smiles>  (23) 
[H]c1c([H])c([H])c2c(c1[H])C([H])([H])C([H])([H])C([H])([H])C2([H])N([H])C(=O)C1([H])N(C(=O)C([H])(N([H])C(=O)C([H])(N([H])C([H])([H])[H])C([H])([H])[H])C(C([H])([H])[H])(C([H])([H])[H])C([H])([H])[H])C([H])([H])c2c([H])c(OC([H])([H])c3nc4c(c(OC([H])([H])[H])c3[H])C([H])([H])C([H])(N([H])C(=O)N3C([H])([H])C([H])([H])C([H])([H])C([H])(n5nc(-c6c([H])c([H])c(Oc7c([H])c([H])c(F)c([H])c7F)c([H])c6[H])c(C(=O)N([H])[H])c5N([H])[H])C3([H])[H])C([H])([H])C4([H])[H])c([H])c([H])c2C1([H])[H]

$$$$
23:0:0
     RDKit          3D

 98108  0  0  1  0  0  0  0  0999 V2000
  -29.9670  -19.3440   18.6610 C   0  0  0  0  0  0  0  0  0  0  0  0
  -29.8780  -18.2880   19.6240 C   0  0  0  0  0  0  0  0  0  0  0  0
  -30.5980  -19.0550   17.4240 C   0  0  0  0  0  0  0  0  0  0  0  0
  -31.1010  -17.7570   17.2130 C   0  0  0  0  0  0  0  0  0  0  0  0
  -30.4630  -16.9910   19.3470 C   0  0  0  0  0  0  0  0  0  0  0  0
  -29.1380  -18.6270   20.9150 C   0  0  0  0  0  2  0  0  0  0  0  0
  -29.4420  -20.7930   18.9110 C   0  0  0  0  0  2  0  0  0  0  0  0
  -29.1780  -20.1460   21.2710 C   0  0  0  0  0  2  0  0  0  0  0  0
  -30.7170  -20.1150   16.3270 C   0  0  0  0  0  1  0  0  0  0  0  0
  -31.7590  -17.3340   15.9120 C   0  0  0  0  0  1  0  0  0  0  0  0
  -31.0300  -16.7910   18.1400 N   0  0  0  0  0  0  0  0  0  0  0  0
  -28.7070  -21.0690   20.1810 N   0  0  1  0  0  4  0  0  0  0  0  0
  -27.7650  -20.7620   19.9910 H   0  0  0  0  0  0  0  0  0  0  0  0
  -31.1180  -14.6790   20.0420 C   0  0  0  0  0  0  0  0  0  0  0  0
  -30.7400  -12.4740   18.9970 C   0  0  0  0  0  2  0  0  0  0  0  0
  -29.7860  -12.6830   17.8000 C   0  0  0  0  0  2  0  0  0  0  0  0
  -28.3170  -12.5840   18.2570 C   0  0  0  0  0  2  0  0  0  0  0  0
  -28.0250  -13.4360   19.5210 C   0  0  0  0  0  3  0  0  0  0  0  0
  -29.1050  -13.2430   20.6100 C   0  0  0  0  0  2  0  0  0  0  0  0
  -30.4120  -13.5070   20.0000 N   0  0  0  0  0  0  0  0  0  0  0  0
  -32.3110  -14.7060   19.7200 O   0  0  0  0  0  0  0  0  0  0  0  0
  -30.4260  -15.8480   20.2450 N   0  0  0  0  0  0  0  0  0  0  0  0
  -29.5740  -15.7570   20.7720 H   0  0  0  0  0  0  0  0  0  0  0  0
  -25.6670  -14.1040   20.2850 C   0  0  0  0  0  0  0  0  0  0  0  0
  -24.5870  -13.3630   20.6810 C   0  0  0  0  0  0  0  0  0  0  0  0
  -25.0090  -11.9980   20.6490 C   0  0  0  0  0  0  0  0  0  0  0  0
  -26.6810  -13.1930   20.0360 N   0  0  0  0  0  0  0  0  0  0  0  0
  -26.2920  -11.9220   20.3170 N   0  0  0  0  0  0  0  0  0  0  0  0
  -24.2490  -10.7580   20.8590 C   0  0  0  0  0  0  0  0  0  0  0  0
  -24.6550   -9.7950   21.8090 C   0  0  0  0  0  3  0  0  0  0  0  0
  -23.8960   -8.6210   22.0060 C   0  0  0  0  0  3  0  0  0  0  0  0
  -22.7170   -8.4010   21.2550 C   0  0  0  0  0  0  0  0  0  0  0  0
  -22.3300   -9.3530   20.2940 C   0  0  0  0  0  3  0  0  0  0  0  0
  -23.0900  -10.5190   20.0950 C   0  0  0  0  0  3  0  0  0  0  0  0
  -21.9330   -7.2790   21.3600 O   0  0  0  0  0  0  0  0  0  0  0  0
  -21.8080   -6.5960   22.5440 C   0  0  0  0  0  0  0  0  0  0  0  0
  -21.2810   -7.2050   23.7040 C   0  0  0  0  0  3  0  0  0  0  0  0
  -21.1070   -6.4470   24.8790 C   0  0  0  0  0  3  0  0  0  0  0  0
  -21.4490   -5.0810   24.8950 C   0  0  0  0  0  0  0  0  0  0  0  0
  -21.9680   -4.4720   23.7390 C   0  0  0  0  0  3  0  0  0  0  0  0
  -22.1450   -5.2280   22.5660 C   0  0  0  0  0  0  0  0  0  0  0  0
  -22.6250   -4.6300   21.4490 F   0  0  0  0  0  0  0  0  0  0  0  0
  -21.2750   -4.3510   26.0210 F   0  0  0  0  0  0  0  0  0  0  0  0
  -23.2080  -13.8820   20.9730 C   0  0  0  0  0  0  0  0  0  0  0  0
  -22.4950  -13.2450   21.8960 N   0  0  0  0  0  0  0  0  0  0  0  0
  -22.7740  -14.8900   20.4160 O   0  0  0  0  0  0  0  0  0  0  0  0
  -22.8610  -12.4320   22.3700 H   0  0  0  0  0  0  0  0  0  0  0  0
  -21.5710  -13.5760   22.1330 H   0  0  0  0  0  0  0  0  0  0  0  0
  -25.8670  -15.4690   20.0950 N   0  0  0  0  0  0  0  0  0  0  0  0
  -25.1150  -16.1400   20.2080 H   0  0  0  0  0  0  0  0  0  0  0  0
  -26.7060  -15.8750   19.7020 H   0  0  0  0  0  0  0  0  0  0  0  0
  -28.5950  -22.5460   20.6090 C   0  0  0  0  0  3  0  0  0  0  0  0
  -30.1630  -24.2900   21.9030 C   0  0  0  0  0  2  0  0  0  0  0  0
  -30.6500  -22.9220   22.2930 C   0  0  0  0  0  2  0  0  0  0  0  0
  -29.9780  -23.1260   20.9480 C   0  0  0  0  0  3  0  0  0  0  0  0
  -27.8050  -23.5670   19.6530 C   0  0  0  0  0  2  0  0  0  0  0  0
  -27.3300  -24.9660   20.2740 C   0  0  0  0  0  2  0  0  0  0  0  0
  -27.3800  -26.2170   19.4890 O   0  0  0  0  0  0  0  0  0  0  0  0
  -24.5530  -31.7460   23.1790 C   0  0  0  0  0  0  0  0  0  0  0  0
  -26.3510  -27.1420   19.6670 C   0  0  0  0  0  0  0  0  0  0  0  0
  -23.0380  -30.5520   21.6340 C   0  0  0  0  0  3  0  0  0  0  0  0
  -24.1610  -28.9420   19.9940 C   0  0  0  0  0  0  0  0  0  0  0  0
  -25.5560  -30.6520   21.1620 C   0  0  0  0  0  2  0  0  0  0  0  0
  -25.4310  -29.3040   20.4630 C   0  0  0  0  0  0  0  0  0  0  0  0
  -26.5320  -28.4170   20.2870 C   0  0  0  0  0  3  0  0  0  0  0  0
  -25.0640  -26.8220   19.1910 C   0  0  0  0  0  3  0  0  0  0  0  0
  -23.9770  -27.7060   19.3490 C   0  0  0  0  0  3  0  0  0  0  0  0
  -23.0280  -29.9230   20.2150 C   0  0  0  0  0  2  0  0  0  0  0  0
  -24.4090  -30.9950   22.0480 N   0  0  0  0  0  0  0  0  0  0  0  0
  -23.5700  -32.0950   23.8480 O   0  0  0  0  0  0  0  0  0  0  0  0
  -22.3910  -29.5560   22.6260 C   0  0  0  0  0  0  0  0  0  0  0  0
  -21.0710  -29.3470   22.4960 N   0  0  0  0  0  0  0  0  0  0  0  0
  -23.0770  -28.9710   23.4670 O   0  0  0  0  0  0  0  0  0  0  0  0
  -20.5750  -29.8700   21.7870 H   0  0  0  0  0  0  0  0  0  0  0  0
  -17.7560  -27.9550   22.8820 C   0  0  0  0  0  0  0  0  0  0  0  0
  -20.2650  -28.4200   23.2930 C   0  0  0  0  0  3  0  0  0  0  0  0
  -20.5040  -26.9570   22.8530 C   0  0  0  0  0  2  0  0  0  0  0  0
  -19.4990  -26.4720   21.8030 C   0  0  0  0  0  2  0  0  0  0  0  0
  -18.0690  -26.5690   22.3410 C   0  0  0  0  0  2  0  0  0  0  0  0
  -18.7880  -28.8280   23.3140 C   0  0  0  0  0  0  0  0  0  0  0  0
  -18.4430  -30.1180   23.7760 C   0  0  0  0  0  3  0  0  0  0  0  0
  -17.0990  -30.5350   23.8140 C   0  0  0  0  0  3  0  0  0  0  0  0
  -16.0810  -29.6590   23.3980 C   0  0  0  0  0  3  0  0  0  0  0  0
  -16.4090  -28.3720   22.9380 C   0  0  0  0  0  3  0  0  0  0  0  0
  -25.9560  -32.2220   23.6720 C   0  0  0  0  0  3  0  0  0  0  0  0
  -26.5550  -31.3070   24.8090 C   0  0  1  0  0  0  0  0  0  0  0  0
  -25.5950  -31.0880   26.0010 C   0  0  0  0  0  1  0  0  0  0  0  0
  -26.9370  -29.9180   24.2480 C   0  0  0  0  0  1  0  0  0  0  0  0
  -27.8580  -31.9370   25.3550 C   0  0  0  0  0  1  0  0  0  0  0  0
  -25.8150  -33.6060   24.1420 N   0  0  0  0  0  0  0  0  0  0  0  0
  -26.1030  -34.6920   23.4110 C   0  0  0  0  0  0  0  0  0  0  0  0
  -26.5860  -34.6250   22.2770 O   0  0  0  0  0  0  0  0  0  0  0  0
  -25.3720  -33.7370   25.0390 H   0  0  0  0  0  0  0  0  0  0  0  0
  -24.4700  -36.6010   23.5000 C   0  0  0  0  0  1  0  0  0  0  0  0
  -25.8080  -36.0690   24.0340 C   0  0  0  0  0  3  0  0  0  0  0  0
  -28.1100  -36.7800   24.5120 C   0  0  0  0  0  1  0  0  0  0  0  0
  -26.8730  -37.0660   23.7890 N   0  0  0  0  0  0  0  0  0  0  0  0
  -26.5620  -37.9980   24.0500 H   0  0  0  0  0  0  0  0  0  0  0  0
  1  7  1  0
  1  2  1  0
  2  6  1  0
  3  1  2  0
  4  3  1  0
  4 11  2  0
  5  2  2  0
  5 22  1  0
  6  8  1  0
  7 12  1  0
  9  3  1  0
 10  4  1  0
 11  5  1  0
 12 52  1  0
 12  8  1  0
 12 13  1  6
 14 22  1  0
 15 20  1  0
 16 17  1  0
 16 15  1  0
 18 17  1  0
 18 27  1  0
 18 19  1  0
 20 14  1  0
 20 19  1  0
 21 14  2  0
 22 23  1  0
 24 25  2  0
 25 44  1  0
 26 25  1  0
 26 29  1  0
 27 24  1  0
 27 28  1  0
 28 26  2  0
 29 30  1  0
 30 31  2  0
 32 35  1  0
 32 31  1  0
 33 32  2  0
 34 33  1  0
 34 29  2  0
 35 36  1  0
 36 41  2  0
 36 37  1  0
 37 38  2  0
 38 39  1  0
 39 43  1  0
 40 39  2  0
 41 40  1  0
 42 41  1  0
 44 45  1  0
 45 48  1  0
 45 47  1  0
 46 44  2  0
 49 50  1  0
 49 24  1  0
 51 49  1  0
 52 56  1  0
 52 55  1  0
 53 54  1  0
 55 53  1  0
 55 54  1  0
 56 57  1  0
 58 60  1  0
 58 57  1  0
 59 70  2  0
 60 65  1  0
 61 69  1  0
 61 71  1  0
 62 68  1  0
 62 64  1  0
 63 69  1  0
 64 63  1  0
 65 64  2  0
 66 67  1  0
 66 60  2  0
 67 62  2  0
 68 61  1  0
 69 59  1  0
 71 73  2  0
 72 71  1  0
 74 72  1  0
 75 84  2  0
 75 80  1  0
 76 72  1  0
 76 80  1  0
 77 76  1  0
 78 79  1  0
 78 77  1  0
 79 75  1  0
 80 81  2  0
 81 82  1  0
 83 82  2  0
 84 83  1  0
 85 59  1  0
 85 90  1  0
 85 86  1  0
 86 89  1  1
 86 87  1  0
 88 86  1  0
 90 93  1  0
 91 95  1  0
 91 90  1  0
 92 91  2  0
 95 94  1  0
 97 95  1  0
 97 98  1  0
 97 96  1  0
M  ISO  4  14 100  22 100  57 101  58 101
M  END
>  <TORSDO>  (24) 
F 20

>  <SCORE>  (24) 
-12.716

>  <name>  (24) 
23

>  <ligand_id>  (24) 
23

>  <original_smiles>  (24) 
[H]c1c([H])c([H])c2c(c1[H])C([H])([H])C([H])([H])C([H])([H])C2([H])N([H])C(=O)C1([H])N(C(=O)C([H])(N([H])C(=O)C([H])(N([H])C([H])([H])[H])C([H])([H])[H])C(C([H])([H])[H])(C([H])([H])[H])C([H])([H])[H])C([H])([H])c2c([H])c(OC([H])([H])C([H])([H])C([H])(C3([H])C([H])([H])C3([H])[H])[N+]3([H])C([H])([H])c4c(C([H])([H])[H])c(C([H])([H])[H])nc(N([H])C(=O)N5C([H])([H])C([H])([H])C([H])([H])C([H])(n6nc(-c7c([H])c([H])c(Oc8c([H])c([H])c(F)c([H])c8F)c([H])c7[H])c(C(=O)N([H])[H])c6N([H])[H])C5([H])[H])c4C([H])([H])C3([H])[H])c([H])c([H])c2C1([H])[H]

>  <smiles>  (24) 
[H]c1c([H])c([H])c2c(c1[H])C([H])([H])C([H])([H])C([H])([H])C2([H])N([H])C(=O)C1([H])N(C(=O)C([H])(N([H])C(=O)C([H])(N([H])C([H])([H])[H])C([H])([H])[H])C(C([H])([H])[H])(C([H])([H])[H])C([H])([H])[H])C([H])([H])c2c([H])c(OC([H])([H])C([H])([H])C([H])(C3([H])C([H])([H])C3([H])[H])[N+]3([H])C([H])([H])c4c(C([H])([H])[H])c(C([H])([H])[H])nc(N([H])C(=O)N5C([H])([H])C([H])([H])C([H])([H])C([H])(n6nc(-c7c([H])c([H])c(Oc8c([H])c([H])c(F)c([H])c8F)c([H])c7[H])c(C(=O)N([H])[H])c6N([H])[H])C5([H])[H])c4C([H])([H])C3([H])[H])c([H])c([H])c2C1([H])[H]

$$$$
24:0:0
     RDKit          3D

100109  0  0  1  0  0  0  0  0999 V2000
  -29.6650  -21.4910   21.9440 C   0  0  0  0  0  3  0  0  0  0  0  0
  -29.3920  -21.7920   19.5580 C   0  0  0  0  0  3  0  0  0  0  0  0
  -30.1410  -20.1790   21.7450 C   0  0  0  0  0  0  0  0  0  0  0  0
  -30.2000  -19.6330   20.4370 C   0  0  0  0  0  0  0  0  0  0  0  0
  -29.2900  -22.3150   20.8670 C   0  0  0  0  0  0  0  0  0  0  0  0
  -29.8430  -20.4570   19.3330 C   0  0  0  0  0  0  0  0  0  0  0  0
  -30.6540  -19.4230   22.9700 C   0  0  0  0  0  2  0  0  0  0  0  0
  -31.3140  -18.0560   22.6930 C   0  0  0  0  0  2  0  0  0  0  0  0
  -30.6820  -18.1730   20.2450 C   0  0  0  0  0  3  0  0  0  0  0  0
  -31.8240  -17.8870   21.2490 C   0  0  0  0  0  3  0  0  0  0  0  0
  -32.9930  -18.7590   20.9910 N   0  0  0  0  0  4  0  0  0  0  0  0
  -32.7340  -19.7270   21.0670 H   0  0  0  0  0  0  0  0  0  0  0  0
  -33.3510  -18.6030   20.0650 H   0  0  0  0  0  0  0  0  0  0  0  0
  -33.7300  -18.5700   21.6460 H   0  0  0  0  0  0  0  0  0  0  0  0
  -28.5980  -17.1830   19.0620 C   0  0  0  0  0  1  0  0  0  0  0  0
  -29.4800  -17.1640   20.3280 C   0  0  0  0  0  3  0  0  0  0  0  0
  -30.5800  -14.8350   20.2250 C   0  0  0  0  0  0  0  0  0  0  0  0
  -30.4750  -12.5690   19.2520 C   0  0  0  0  0  2  0  0  0  0  0  0
  -29.4920  -12.6290   18.0620 C   0  0  0  0  0  2  0  0  0  0  0  0
  -28.0350  -12.4230   18.5320 C   0  0  0  0  0  2  0  0  0  0  0  0
  -27.6720  -13.3030   19.7590 C   0  0  0  0  0  3  0  0  0  0  0  0
  -28.7670  -13.1990   20.8460 C   0  0  0  0  0  2  0  0  0  0  0  0
  -30.0540  -13.5800   20.2330 N   0  0  0  0  0  0  0  0  0  0  0  0
  -31.6350  -15.1290   19.6550 O   0  0  0  0  0  0  0  0  0  0  0  0
  -29.7530  -15.7670   20.7410 N   0  0  0  0  0  0  0  0  0  0  0  0
  -29.0040  -15.3490   21.2750 H   0  0  0  0  0  0  0  0  0  0  0  0
  -25.3000  -13.8310   20.6090 C   0  0  0  0  0  0  0  0  0  0  0  0
  -24.2660  -13.0200   20.9940 C   0  0  0  0  0  0  0  0  0  0  0  0
  -24.7480  -11.6820   20.8720 C   0  0  0  0  0  0  0  0  0  0  0  0
  -26.3470  -12.9830   20.2830 N   0  0  0  0  0  0  0  0  0  0  0  0
  -26.0200  -11.6840   20.4940 N   0  0  0  0  0  0  0  0  0  0  0  0
  -24.0570  -10.3970   21.0360 C   0  0  0  0  0  0  0  0  0  0  0  0
  -24.4820   -9.4490   21.9920 C   0  0  0  0  0  3  0  0  0  0  0  0
  -23.7910   -8.2280   22.1470 C   0  0  0  0  0  3  0  0  0  0  0  0
  -22.6610   -7.9470   21.3450 C   0  0  0  0  0  0  0  0  0  0  0  0
  -22.2530   -8.8850   20.3800 C   0  0  0  0  0  3  0  0  0  0  0  0
  -22.9460  -10.0970   20.2230 C   0  0  0  0  0  3  0  0  0  0  0  0
  -21.9440   -6.7770   21.4050 O   0  0  0  0  0  0  0  0  0  0  0  0
  -21.7840   -6.0900   22.5820 C   0  0  0  0  0  0  0  0  0  0  0  0
  -21.1330   -6.6630   23.6960 C   0  0  0  0  0  3  0  0  0  0  0  0
  -20.9300   -5.8990   24.8630 C   0  0  0  0  0  3  0  0  0  0  0  0
  -21.3660   -4.5610   24.9140 C   0  0  0  0  0  0  0  0  0  0  0  0
  -22.0090   -3.9870   23.8030 C   0  0  0  0  0  3  0  0  0  0  0  0
  -22.2130   -4.7490   22.6390 C   0  0  0  0  0  0  0  0  0  0  0  0
  -22.8140   -4.1840   21.5640 F   0  0  0  0  0  0  0  0  0  0  0  0
  -21.1640   -3.8230   26.0310 F   0  0  0  0  0  0  0  0  0  0  0  0
  -22.8780  -13.4530   21.3690 C   0  0  0  0  0  0  0  0  0  0  0  0
  -22.2130  -12.6960   22.2340 N   0  0  0  0  0  0  0  0  0  0  0  0
  -22.3920  -14.4950   20.9290 O   0  0  0  0  0  0  0  0  0  0  0  0
  -22.6180  -11.8500   22.6080 H   0  0  0  0  0  0  0  0  0  0  0  0
  -21.2850  -12.9660   22.5280 H   0  0  0  0  0  0  0  0  0  0  0  0
  -25.4290  -15.2120   20.4930 N   0  0  0  0  0  0  0  0  0  0  0  0
  -24.6590  -15.8460   20.6790 H   0  0  0  0  0  0  0  0  0  0  0  0
  -26.2580  -15.6860   20.1560 H   0  0  0  0  0  0  0  0  0  0  0  0
  -29.6110  -20.6940   16.9460 C   0  0  0  0  0  1  0  0  0  0  0  0
  -29.9650  -19.9060   18.0750 O   0  0  0  0  0  0  0  0  0  0  0  0
  -28.8640  -23.5920   21.1940 O   0  0  0  0  0  0  0  0  0  0  0  0
  -28.7960  -24.6250   20.2050 C   0  0  0  0  0  2  0  0  0  0  0  0
  -28.2090  -25.8810   20.8910 C   0  0  0  0  0  2  0  0  0  0  0  0
  -28.2640  -27.0700   20.0870 O   0  0  0  0  0  0  0  0  0  0  0  0
  -24.5420  -32.1250   23.4550 C   0  0  0  0  0  0  0  0  0  0  0  0
  -27.1130  -27.8200   20.1420 C   0  0  0  0  0  0  0  0  0  0  0  0
  -23.2950  -30.7810   21.7920 C   0  0  0  0  0  3  0  0  0  0  0  0
  -24.7150  -29.3070   20.2700 C   0  0  0  0  0  0  0  0  0  0  0  0
  -25.8120  -31.1630   21.5380 C   0  0  0  0  0  2  0  0  0  0  0  0
  -25.8860  -29.8170   20.8470 C   0  0  0  0  0  0  0  0  0  0  0  0
  -27.0910  -29.0800   20.7800 C   0  0  0  0  0  3  0  0  0  0  0  0
  -25.9290  -27.3220   19.5600 C   0  0  0  0  0  3  0  0  0  0  0  0
  -24.7300  -28.0570   19.6250 C   0  0  0  0  0  3  0  0  0  0  0  0
  -23.4660  -30.1530   20.3840 C   0  0  0  0  0  2  0  0  0  0  0  0
  -24.5690  -31.3700   22.3200 N   0  0  0  0  0  0  0  0  0  0  0  0
  -23.4760  -32.3700   24.0360 O   0  0  0  0  0  0  0  0  0  0  0  0
  -22.6750  -29.7220   22.7320 C   0  0  0  0  0  0  0  0  0  0  0  0
  -21.3740  -29.4480   22.5480 N   0  0  0  0  0  0  0  0  0  0  0  0
  -23.3650  -29.1490   23.5810 O   0  0  0  0  0  0  0  0  0  0  0  0
  -20.8790  -29.9640   21.8350 H   0  0  0  0  0  0  0  0  0  0  0  0
  -18.1070  -27.9260   22.8030 C   0  0  0  0  0  0  0  0  0  0  0  0
  -20.5890  -28.4580   23.2880 C   0  0  0  0  0  3  0  0  0  0  0  0
  -20.8900  -27.0260   22.7910 C   0  0  0  0  0  2  0  0  0  0  0  0
  -19.9250  -26.5530   21.7010 C   0  0  0  0  0  2  0  0  0  0  0  0
  -18.4810  -26.5790   22.2110 C   0  0  0  0  0  2  0  0  0  0  0  0
  -19.0980  -28.8160   23.2950 C   0  0  0  0  0  0  0  0  0  0  0  0
  -18.6990  -30.0730   23.8000 C   0  0  0  0  0  3  0  0  0  0  0  0
  -17.3410  -30.4400   23.8260 C   0  0  0  0  0  3  0  0  0  0  0  0
  -16.3620  -29.5480   23.3550 C   0  0  0  0  0  3  0  0  0  0  0  0
  -16.7460  -28.2940   22.8470 C   0  0  0  0  0  3  0  0  0  0  0  0
  -25.8430  -32.7370   24.0630 C   0  0  0  0  0  3  0  0  0  0  0  0
  -25.5740  -34.1500   24.3600 N   0  0  0  0  0  0  0  0  0  0  0  0
  -25.9290  -35.1720   23.5710 C   0  0  0  0  0  0  0  0  0  0  0  0
  -26.5910  -35.0260   22.5400 O   0  0  0  0  0  0  0  0  0  0  0  0
  -24.9890  -34.3400   25.1600 H   0  0  0  0  0  0  0  0  0  0  0  0
  -24.2390  -36.9920   23.1840 C   0  0  0  0  0  1  0  0  0  0  0  0
  -25.4790  -36.5830   23.9940 C   0  0  0  0  0  3  0  0  0  0  0  0
  -27.6370  -37.4490   24.7830 C   0  0  0  0  0  1  0  0  0  0  0  0
  -26.5350  -37.6080   23.8380 N   0  0  0  0  0  0  0  0  0  0  0  0
  -26.1500  -38.5420   23.9540 H   0  0  0  0  0  0  0  0  0  0  0  0
  -26.3420  -31.9800   25.3560 C   0  0  1  0  0  0  0  0  0  0  0  0
  -25.2300  -31.7430   26.4050 C   0  0  0  0  0  1  0  0  0  0  0  0
  -26.9440  -30.6050   24.9840 C   0  0  0  0  0  1  0  0  0  0  0  0
  -27.4740  -32.7870   26.0330 C   0  0  0  0  0  1  0  0  0  0  0  0
  2  5  1  0
  3  1  1  0
  3  7  1  0
  4  3  2  0
  5 57  1  0
  5  1  2  0
  6  2  2  0
  6  4  1  0
  8  7  1  0
  9 16  1  0
  9  4  1  0
  9 10  1  0
 10 11  1  0
 10  8  1  0
 11 12  1  0
 11 14  1  0
 13 11  1  0
 16 15  1  0
 16 25  1  0
 17 23  1  0
 17 25  1  0
 18 23  1  0
 19 20  1  0
 19 18  1  0
 21 20  1  0
 21 30  1  0
 21 22  1  0
 23 22  1  0
 24 17  2  0
 25 26  1  0
 27 28  2  0
 28 47  1  0
 29 28  1  0
 29 32  1  0
 30 31  1  0
 30 27  1  0
 31 29  2  0
 32 33  1  0
 33 34  2  0
 35 38  1  0
 35 34  1  0
 36 35  2  0
 37 36  1  0
 37 32  2  0
 38 39  1  0
 39 44  2  0
 39 40  1  0
 40 41  2  0
 41 42  1  0
 42 46  1  0
 43 42  2  0
 44 43  1  0
 45 44  1  0
 47 48  1  0
 48 51  1  0
 48 50  1  0
 49 47  2  0
 52 27  1  0
 52 53  1  0
 54 52  1  0
 55 56  1  0
 56  6  1  0
 58 59  1  0
 58 57  1  0
 60 62  1  0
 60 59  1  0
 61 72  2  0
 62 67  1  0
 63 71  1  0
 63 73  1  0
 64 70  1  0
 64 66  1  0
 65 71  1  0
 66 65  1  0
 67 66  2  0
 68 69  1  0
 68 62  2  0
 69 64  2  0
 70 63  1  0
 71 61  1  0
 73 75  2  0
 74 73  1  0
 76 74  1  0
 77 86  2  0
 77 82  1  0
 78 74  1  0
 78 82  1  0
 79 78  1  0
 80 81  1  0
 80 79  1  0
 81 77  1  0
 82 83  2  0
 83 84  1  0
 85 84  2  0
 86 85  1  0
 87 61  1  0
 87 88  1  0
 87 97  1  0
 88 91  1  0
 89 93  1  0
 89 88  1  0
 90 89  2  0
 93 92  1  0
 95 96  1  0
 95 93  1  0
 95 94  1  0
 97100  1  1
 97 98  1  0
 99 97  1  0
M  ISO  4  17 100  25 100  59 101  60 101
M  END
>  <TORSDO>  (25) 
F 22

>  <SCORE>  (25) 
-12.665

>  <name>  (25) 
24

>  <ligand_id>  (25) 
24

>  <original_smiles>  (25) 
[H]c1c([H])c([H])c2c(c1[H])C([H])([H])C([H])([H])C([H])([H])C2([H])N([H])C(=O)C1([H])N(C(=O)C([H])(N([H])C(=O)C([H])(N([H])C([H])([H])[H])C([H])([H])[H])C(C([H])([H])[H])(C([H])([H])[H])C([H])([H])[H])C([H])([H])c2c([H])c(OC([H])([H])C([H])([H])Oc3c([H])c(OC([H])([H])[H])c4c(c3[H])C([H])([H])C([H])([H])C([H])([N+]([H])([H])[H])C4([H])C([H])(N([H])C(=O)N3C([H])([H])C([H])([H])C([H])([H])C([H])(n4nc(-c5c([H])c([H])c(Oc6c([H])c([H])c(F)c([H])c6F)c([H])c5[H])c(C(=O)N([H])[H])c4N([H])[H])C3([H])[H])C([H])([H])[H])c([H])c([H])c2C1([H])[H]

>  <smiles>  (25) 
[H]c1c([H])c([H])c2c(c1[H])C([H])([H])C([H])([H])C([H])([H])C2([H])N([H])C(=O)C1([H])N(C(=O)C([H])(N([H])C(=O)C([H])(N([H])C([H])([H])[H])C([H])([H])[H])C(C([H])([H])[H])(C([H])([H])[H])C([H])([H])[H])C([H])([H])c2c([H])c(OC([H])([H])C([H])([H])Oc3c([H])c(OC([H])([H])[H])c4c(c3[H])C([H])([H])C([H])([H])C([H])([N+]([H])([H])[H])C4([H])C([H])(N([H])C(=O)N3C([H])([H])C([H])([H])C([H])([H])C([H])(n4nc(-c5c([H])c([H])c(Oc6c([H])c([H])c(F)c([H])c6F)c([H])c5[H])c(C(=O)N([H])[H])c4N([H])[H])C3([H])[H])C([H])([H])[H])c([H])c([H])c2C1([H])[H]

$$$$
25:0:0
     RDKit          3D

 99108  0  0  1  0  0  0  0  0999 V2000
  -29.8380  -17.8120   18.9520 C   0  0  0  0  0  3  0  0  0  0  0  0
  -30.0090  -20.5230   19.6350 C   0  0  0  0  0  0  0  0  0  0  0  0
  -30.1040  -18.1250   20.2960 C   0  0  0  0  0  0  0  0  0  0  0  0
  -30.1700  -19.5190   20.6500 C   0  0  0  0  0  0  0  0  0  0  0  0
  -29.7640  -20.0430   18.3190 C   0  0  0  0  0  0  0  0  0  0  0  0
  -29.6700  -20.9590   17.1100 C   0  0  0  0  0  2  0  0  0  0  0  0
  -29.6450  -22.4490   17.4550 C   0  0  0  0  0  2  0  0  0  0  0  0
  -30.2140  -22.0690   19.8810 C   0  0  0  0  0  3  0  0  0  0  0  0
  -30.6450  -22.8080   18.5700 C   0  0  0  0  0  3  0  0  0  0  0  0
  -30.4050  -19.9370   22.0980 C   0  0  0  0  0  1  0  0  0  0  0  0
  -29.6600  -18.7390   17.9980 N   0  0  0  0  0  0  0  0  0  0  0  0
  -32.4920  -23.3540   16.8640 C   0  0  0  0  0  1  0  0  0  0  0  0
  -33.1220  -23.0740   19.2590 C   0  0  0  0  0  1  0  0  0  0  0  0
  -32.1400  -22.6060   18.1660 C   0  0  0  0  0  3  0  0  0  0  0  0
  -29.0550  -22.7780   20.5260 N   0  0  0  0  0  4  0  0  0  0  0  0
  -28.2250  -22.6550   19.9640 H   0  0  0  0  0  0  0  0  0  0  0  0
  -28.8690  -22.3170   21.4040 H   0  0  0  0  0  0  0  0  0  0  0  0
  -29.2320  -24.2440   20.8450 C   0  0  0  0  0  2  0  0  0  0  0  0
  -28.2660  -25.1790   20.0560 C   0  0  0  0  0  2  0  0  0  0  0  0
  -28.4130  -26.6090   20.2860 O   0  0  0  0  0  0  0  0  0  0  0  0
  -24.6090  -31.8850   23.2370 C   0  0  0  0  0  0  0  0  0  0  0  0
  -27.2680  -27.3970   20.2010 C   0  0  0  0  0  0  0  0  0  0  0  0
  -23.4220  -30.4820   21.5910 C   0  0  0  0  0  3  0  0  0  0  0  0
  -24.8860  -28.9450   20.1820 C   0  0  0  0  0  0  0  0  0  0  0  0
  -25.9540  -30.8300   21.4210 C   0  0  0  0  0  2  0  0  0  0  0  0
  -26.0420  -29.4560   20.7830 C   0  0  0  0  0  0  0  0  0  0  0  0
  -27.2360  -28.6880   20.7930 C   0  0  0  0  0  3  0  0  0  0  0  0
  -26.0950  -26.9380   19.5520 C   0  0  0  0  0  3  0  0  0  0  0  0
  -24.9090  -27.6870   19.5630 C   0  0  0  0  0  3  0  0  0  0  0  0
  -23.6460  -29.8030   20.2170 C   0  0  0  0  0  2  0  0  0  0  0  0
  -24.6790  -31.0800   22.1410 N   0  0  0  0  0  0  0  0  0  0  0  0
  -23.5220  -32.1560   23.7650 O   0  0  0  0  0  0  0  0  0  0  0  0
  -22.7600  -29.4580   22.5460 C   0  0  0  0  0  0  0  0  0  0  0  0
  -21.4370  -29.2800   22.4100 N   0  0  0  0  0  0  0  0  0  0  0  0
  -23.4370  -28.8270   23.3620 O   0  0  0  0  0  0  0  0  0  0  0  0
  -20.9540  -29.8400   21.7230 H   0  0  0  0  0  0  0  0  0  0  0  0
  -18.0550  -28.1060   22.8980 C   0  0  0  0  0  0  0  0  0  0  0  0
  -20.6120  -28.3450   23.1740 C   0  0  0  0  0  3  0  0  0  0  0  0
  -20.7070  -26.9170   22.5910 C   0  0  0  0  0  2  0  0  0  0  0  0
  -19.6040  -26.6060   21.5730 C   0  0  0  0  0  2  0  0  0  0  0  0
  -18.2220  -26.7570   22.2170 C   0  0  0  0  0  2  0  0  0  0  0  0
  -19.1770  -28.8570   23.3340 C   0  0  0  0  0  0  0  0  0  0  0  0
  -18.9670  -30.1190   23.9320 C   0  0  0  0  0  3  0  0  0  0  0  0
  -17.6670  -30.6280   24.0980 C   0  0  0  0  0  3  0  0  0  0  0  0
  -16.5570  -29.8740   23.6780 C   0  0  0  0  0  3  0  0  0  0  0  0
  -16.7510  -28.6130   23.0870 C   0  0  0  0  0  3  0  0  0  0  0  0
  -25.8840  -32.5190   23.8650 C   0  0  0  0  0  3  0  0  0  0  0  0
  -25.5680  -33.9140   24.1930 N   0  0  0  0  0  0  0  0  0  0  0  0
  -25.8970  -34.9690   23.4330 C   0  0  0  0  0  0  0  0  0  0  0  0
  -26.5700  -34.8700   22.4040 O   0  0  0  0  0  0  0  0  0  0  0  0
  -24.9700  -34.0630   24.9900 H   0  0  0  0  0  0  0  0  0  0  0  0
  -24.1600  -36.7550   23.0720 C   0  0  0  0  0  1  0  0  0  0  0  0
  -25.4010  -36.3550   23.8890 C   0  0  0  0  0  3  0  0  0  0  0  0
  -27.5280  -37.2560   24.7250 C   0  0  0  0  0  1  0  0  0  0  0  0
  -26.4290  -37.4160   23.7760 N   0  0  0  0  0  0  0  0  0  0  0  0
  -26.0160  -38.3330   23.9160 H   0  0  0  0  0  0  0  0  0  0  0  0
  -26.3950  -31.7470   25.1410 C   0  0  1  0  0  0  0  0  0  0  0  0
  -25.2910  -31.5010   26.1970 C   0  0  0  0  0  1  0  0  0  0  0  0
  -26.9860  -30.3740   24.7480 C   0  0  0  0  0  1  0  0  0  0  0  0
  -27.5440  -32.5410   25.8060 C   0  0  0  0  0  1  0  0  0  0  0  0
  -30.3850  -16.9650   21.2960 C   0  0  0  0  0  2  0  0  0  0  0  0
  -30.6940  -14.5470   20.4920 C   0  0  0  0  0  0  0  0  0  0  0  0
  -30.4180  -12.3680   19.3430 C   0  0  0  0  0  2  0  0  0  0  0  0
  -29.4790  -12.5560   18.1330 C   0  0  0  0  0  2  0  0  0  0  0  0
  -28.0010  -12.4280   18.5510 C   0  0  0  0  0  2  0  0  0  0  0  0
  -27.6600  -13.2600   19.8140 C   0  0  0  0  0  3  0  0  0  0  0  0
  -28.7110  -13.0450   20.9260 C   0  0  0  0  0  2  0  0  0  0  0  0
  -30.0310  -13.3590   20.3590 N   0  0  0  0  0  0  0  0  0  0  0  0
  -31.8420  -14.7130   20.0760 O   0  0  0  0  0  0  0  0  0  0  0  0
  -29.9580  -15.5780   20.9710 N   0  0  0  0  0  0  0  0  0  0  0  0
  -29.0290  -15.3270   21.2730 H   0  0  0  0  0  0  0  0  0  0  0  0
  -25.2600  -13.8810   20.5010 C   0  0  0  0  0  0  0  0  0  0  0  0
  -24.1860  -13.1160   20.8650 C   0  0  0  0  0  0  0  0  0  0  0  0
  -24.6400  -11.7620   20.8450 C   0  0  0  0  0  0  0  0  0  0  0  0
  -26.3020  -12.9920   20.2850 N   0  0  0  0  0  0  0  0  0  0  0  0
  -25.9340  -11.7130   20.5490 N   0  0  0  0  0  0  0  0  0  0  0  0
  -23.9020  -10.5050   21.0310 C   0  0  0  0  0  0  0  0  0  0  0  0
  -24.3200   -9.5390   21.9720 C   0  0  0  0  0  3  0  0  0  0  0  0
  -23.5860   -8.3480   22.1500 C   0  0  0  0  0  3  0  0  0  0  0  0
  -22.4190   -8.1130   21.3850 C   0  0  0  0  0  0  0  0  0  0  0  0
  -22.0180   -9.0670   20.4330 C   0  0  0  0  0  3  0  0  0  0  0  0
  -22.7530  -10.2520   20.2530 C   0  0  0  0  0  3  0  0  0  0  0  0
  -21.6560   -6.9730   21.4710 O   0  0  0  0  0  0  0  0  0  0  0  0
  -21.5860   -6.2390   22.6280 C   0  0  0  0  0  0  0  0  0  0  0  0
  -21.1410   -6.8030   23.8430 C   0  0  0  0  0  3  0  0  0  0  0  0
  -21.0200   -5.9960   24.9920 C   0  0  0  0  0  3  0  0  0  0  0  0
  -21.3340   -4.6250   24.9260 C   0  0  0  0  0  0  0  0  0  0  0  0
  -21.7710   -4.0600   23.7140 C   0  0  0  0  0  3  0  0  0  0  0  0
  -21.8960   -4.8660   22.5690 C   0  0  0  0  0  0  0  0  0  0  0  0
  -22.2980   -4.3100   21.4000 F   0  0  0  0  0  0  0  0  0  0  0  0
  -21.2080   -3.8480   26.0270 F   0  0  0  0  0  0  0  0  0  0  0  0
  -22.7890  -13.6030   21.1210 C   0  0  0  0  0  0  0  0  0  0  0  0
  -22.0490  -12.9140   21.9820 N   0  0  0  0  0  0  0  0  0  0  0  0
  -22.3640  -14.6300   20.5950 O   0  0  0  0  0  0  0  0  0  0  0  0
  -22.4060  -12.0860   22.4330 H   0  0  0  0  0  0  0  0  0  0  0  0
  -21.1110  -13.2230   22.1980 H   0  0  0  0  0  0  0  0  0  0  0  0
  -25.4320  -15.2480   20.3150 N   0  0  0  0  0  0  0  0  0  0  0  0
  -24.6580  -15.8970   20.4090 H   0  0  0  0  0  0  0  0  0  0  0  0
  -26.2810  -15.6880   19.9850 H   0  0  0  0  0  0  0  0  0  0  0  0
  1  3  1  0
  2  8  1  0
  2  4  1  0
  3  4  2  0
  3 61  1  0
  4 10  1  0
  5  2  2  0
  6  7  1  0
  6  5  1  0
  7  9  1  0
  8 15  1  0
  9 14  1  0
  9  8  1  0
 11  5  1  0
 11  1  2  0
 12 14  1  0
 14 13  1  0
 15 18  1  0
 15 17  1  0
 16 15  1  0
 19 20  1  0
 19 18  1  0
 21 32  2  0
 22 20  1  0
 22 27  1  0
 23 31  1  0
 23 33  1  0
 24 30  1  0
 24 26  1  0
 25 31  1  0
 26 27  2  0
 26 25  1  0
 28 29  1  0
 28 22  2  0
 29 24  2  0
 30 23  1  0
 31 21  1  0
 33 35  2  0
 34 33  1  0
 36 34  1  0
 37 46  2  0
 37 42  1  0
 38 34  1  0
 38 42  1  0
 39 38  1  0
 40 41  1  0
 40 39  1  0
 41 37  1  0
 42 43  2  0
 43 44  1  0
 45 44  2  0
 46 45  1  0
 47 21  1  0
 47 48  1  0
 47 57  1  0
 48 51  1  0
 49 53  1  0
 49 48  1  0
 50 49  2  0
 53 52  1  0
 55 53  1  0
 55 56  1  0
 55 54  1  0
 57 60  1  1
 57 58  1  0
 59 57  1  0
 62 70  1  0
 63 68  1  0
 64 65  1  0
 64 63  1  0
 66 65  1  0
 66 75  1  0
 66 67  1  0
 68 62  1  0
 68 67  1  0
 69 62  2  0
 70 71  1  0
 70 61  1  0
 72 73  2  0
 73 92  1  0
 74 73  1  0
 74 77  1  0
 75 72  1  0
 75 76  1  0
 76 74  2  0
 77 78  1  0
 78 79  2  0
 80 83  1  0
 80 79  1  0
 81 80  2  0
 82 81  1  0
 82 77  2  0
 83 84  1  0
 84 85  1  0
 85 86  2  0
 87 86  1  0
 87 91  1  0
 88 87  2  0
 89 84  2  0
 89 88  1  0
 90 89  1  0
 92 93  1  0
 93 96  1  0
 93 95  1  0
 94 92  2  0
 97 98  1  0
 97 72  1  0
 99 97  1  0
M  ISO  4  19 101  20 101  62 100  70 100
M  END
>  <TORSDO>  (26) 
F 21

>  <SCORE>  (26) 
-13.675

>  <name>  (26) 
25

>  <ligand_id>  (26) 
25

>  <original_smiles>  (26) 
[H]c1nc2c(c(C([H])([H])[H])c1C([H])([H])N([H])C(=O)N1C([H])([H])C([H])([H])C([H])([H])C([H])(n3nc(-c4c([H])c([H])c(Oc5c([H])c([H])c(F)c([H])c5F)c([H])c4[H])c(C(=O)N([H])[H])c3N([H])[H])C1([H])[H])C([H])([N+]([H])([H])C([H])([H])C([H])([H])Oc1c([H])c([H])c3c(c1[H])C([H])([H])N(C(=O)C([H])(N([H])C(=O)C([H])(N([H])C([H])([H])[H])C([H])([H])[H])C(C([H])([H])[H])(C([H])([H])[H])C([H])([H])[H])C([H])(C(=O)N([H])C1([H])c4c([H])c([H])c([H])c([H])c4C([H])([H])C([H])([H])C1([H])[H])C3([H])[H])C([H])(C([H])(C([H])([H])[H])C([H])([H])[H])C([H])([H])C2([H])[H]

>  <smiles>  (26) 
[H]c1nc2c(c(C([H])([H])[H])c1C([H])([H])N([H])C(=O)N1C([H])([H])C([H])([H])C([H])([H])C([H])(n3nc(-c4c([H])c([H])c(Oc5c([H])c([H])c(F)c([H])c5F)c([H])c4[H])c(C(=O)N([H])[H])c3N([H])[H])C1([H])[H])C([H])([N+]([H])([H])C([H])([H])C([H])([H])Oc1c([H])c([H])c3c(c1[H])C([H])([H])N(C(=O)C([H])(N([H])C(=O)C([H])(N([H])C([H])([H])[H])C([H])([H])[H])C(C([H])([H])[H])(C([H])([H])[H])C([H])([H])[H])C([H])(C(=O)N([H])C1([H])c4c([H])c([H])c([H])c([H])c4C([H])([H])C([H])([H])C1([H])[H])C3([H])[H])C([H])(C([H])(C([H])([H])[H])C([H])([H])[H])C([H])([H])C2([H])[H]

$$$$
26:0:0
     RDKit          3D

100110  0  0  1  0  0  0  0  0999 V2000
  -29.7130  -22.7890   19.0360 C   0  0  0  0  0  3  0  0  0  0  0  0
  -27.0190  -22.2500   18.7470 C   0  0  0  0  0  0  0  0  0  0  0  0
  -27.9210  -21.2470   19.2100 C   0  0  0  0  0  0  0  0  0  0  0  0
  -27.4150  -23.5460   18.4180 C   0  0  0  0  0  0  0  0  0  0  0  0
  -29.3020  -21.4510   19.3530 C   0  0  0  0  0  0  0  0  0  0  0  0
  -28.8030  -23.8240   18.5910 C   0  0  0  0  0  0  0  0  0  0  0  0
  -26.8220  -20.2170   19.3350 C   0  0  0  0  0  2  0  0  0  0  0  0
  -25.8070  -21.3530   18.8270 C   0  0  0  0  0  3  0  0  0  0  0  0
  -25.0680  -21.2050   17.5010 C   0  0  0  0  0  1  0  0  0  0  0  0
  -31.9560  -18.8000   19.1510 C   0  0  0  0  0  2  0  0  0  0  0  0
  -31.3210  -19.1980   21.5990 C   0  0  0  0  0  2  0  0  0  0  0  0
  -30.6260  -19.4810   18.7550 C   0  0  0  0  0  2  0  0  0  0  0  0
  -30.0150  -19.8450   21.0940 C   0  0  0  0  0  2  0  0  0  0  0  0
  -31.9830  -18.2250   20.5930 C   0  0  0  0  0  3  0  0  0  0  0  0
  -30.2050  -20.4450   19.7740 N   0  0  0  0  0  0  0  0  0  0  0  0
  -32.1790  -15.7350   20.3910 C   0  0  0  0  0  0  0  0  0  0  0  0
  -31.9810  -13.3440   19.8200 C   0  0  0  0  0  2  0  0  0  0  0  0
  -31.1670  -13.2000   18.5180 C   0  0  0  0  0  2  0  0  0  0  0  0
  -29.6580  -13.1450   18.8230 C   0  0  0  0  0  2  0  0  0  0  0  0
  -29.2000  -14.2790   19.7790 C   0  0  0  0  0  3  0  0  0  0  0  0
  -30.1360  -14.3870   21.0030 C   0  0  0  0  0  2  0  0  0  0  0  0
  -31.5120  -14.5580   20.5070 N   0  0  0  0  0  0  0  0  0  0  0  0
  -33.3260  -15.8100   19.9400 O   0  0  0  0  0  0  0  0  0  0  0  0
  -31.4800  -16.8440   20.7020 N   0  0  0  0  0  0  0  0  0  0  0  0
  -30.5400  -16.7060   21.0400 H   0  0  0  0  0  0  0  0  0  0  0  0
  -26.8230  -15.0680   20.3630 C   0  0  0  0  0  0  0  0  0  0  0  0
  -25.6770  -14.3790   20.6590 C   0  0  0  0  0  0  0  0  0  0  0  0
  -26.0300  -12.9960   20.6290 C   0  0  0  0  0  0  0  0  0  0  0  0
  -27.8050  -14.1090   20.1770 N   0  0  0  0  0  0  0  0  0  0  0  0
  -27.3280  -12.8560   20.3910 N   0  0  0  0  0  0  0  0  0  0  0  0
  -25.1970  -11.7930   20.7580 C   0  0  0  0  0  0  0  0  0  0  0  0
  -25.4840  -10.7960   21.7160 C   0  0  0  0  0  3  0  0  0  0  0  0
  -24.6590   -9.6560   21.8330 C   0  0  0  0  0  3  0  0  0  0  0  0
  -23.5310   -9.5080   20.9900 C   0  0  0  0  0  0  0  0  0  0  0  0
  -23.2650  -10.4910   20.0230 C   0  0  0  0  0  3  0  0  0  0  0  0
  -24.0900  -11.6220   19.9040 C   0  0  0  0  0  3  0  0  0  0  0  0
  -22.6870   -8.4240   21.0150 O   0  0  0  0  0  0  0  0  0  0  0  0
  -22.3730   -7.7830   22.1870 C   0  0  0  0  0  0  0  0  0  0  0  0
  -21.7310   -8.4490   23.2530 C   0  0  0  0  0  3  0  0  0  0  0  0
  -21.3670   -7.7360   24.4120 C   0  0  0  0  0  3  0  0  0  0  0  0
  -21.6320   -6.3560   24.5030 C   0  0  0  0  0  0  0  0  0  0  0  0
  -22.2650   -5.6890   23.4390 C   0  0  0  0  0  3  0  0  0  0  0  0
  -22.6320   -6.4010   22.2830 C   0  0  0  0  0  0  0  0  0  0  0  0
  -23.2230   -5.7490   21.2520 F   0  0  0  0  0  0  0  0  0  0  0  0
  -21.2740   -5.6670   25.6130 F   0  0  0  0  0  0  0  0  0  0  0  0
  -24.3100  -14.9620   20.8660 C   0  0  0  0  0  0  0  0  0  0  0  0
  -23.4910  -14.3240   21.6940 N   0  0  0  0  0  0  0  0  0  0  0  0
  -23.9770  -16.0170   20.3280 O   0  0  0  0  0  0  0  0  0  0  0  0
  -23.7720  -13.4660   22.1460 H   0  0  0  0  0  0  0  0  0  0  0  0
  -22.5670  -14.6930   21.8750 H   0  0  0  0  0  0  0  0  0  0  0  0
  -27.1060  -16.4230   20.2200 N   0  0  0  0  0  0  0  0  0  0  0  0
  -26.3940  -17.1400   20.3010 H   0  0  0  0  0  0  0  0  0  0  0  0
  -28.0100  -16.7910   19.9480 H   0  0  0  0  0  0  0  0  0  0  0  0
  -26.4160  -24.5860   17.9410 C   0  0  0  0  0  2  0  0  0  0  0  0
  -24.2830  -25.8410   18.5030 C   0  0  0  0  0  1  0  0  0  0  0  0
  -25.4180  -24.9710   19.0410 C   0  0  0  0  0  2  0  0  0  0  0  0
  -29.1930  -25.1140   18.2760 O   0  0  0  0  0  0  0  0  0  0  0  0
  -30.3980  -25.6310   18.8310 C   0  0  0  0  0  2  0  0  0  0  0  0
  -30.2810  -27.1550   19.0940 C   0  0  0  0  0  2  0  0  0  0  0  0
  -29.9570  -27.5160   20.4460 O   0  0  0  0  0  0  0  0  0  0  0  0
  -25.9140  -30.1250   25.6770 C   0  0  0  0  0  0  0  0  0  0  0  0
  -28.8180  -28.2430   20.7460 C   0  0  0  0  0  0  0  0  0  0  0  0
  -24.9410  -30.2760   23.4080 C   0  0  0  0  0  3  0  0  0  0  0  0
  -26.5360  -29.7620   21.4820 C   0  0  0  0  0  0  0  0  0  0  0  0
  -27.4760  -30.2760   23.7410 C   0  0  0  0  0  2  0  0  0  0  0  0
  -27.5970  -29.6120   22.3830 C   0  0  0  0  0  0  0  0  0  0  0  0
  -28.7350  -28.8580   22.0180 C   0  0  0  0  0  3  0  0  0  0  0  0
  -27.7330  -28.3960   19.8540 C   0  0  0  0  0  3  0  0  0  0  0  0
  -26.6010  -29.1530   20.2150 C   0  0  0  0  0  3  0  0  0  0  0  0
  -25.3510  -30.5820   21.9420 C   0  0  0  0  0  2  0  0  0  0  0  0
  -26.1190  -30.1960   24.3320 N   0  0  0  0  0  0  0  0  0  0  0  0
  -24.7710  -30.1640   26.1560 O   0  0  0  0  0  0  0  0  0  0  0  0
  -24.0680  -29.0000   23.4210 C   0  0  0  0  0  0  0  0  0  0  0  0
  -22.8180  -29.1270   22.9450 N   0  0  0  0  0  0  0  0  0  0  0  0
  -24.5250  -27.9280   23.8240 O   0  0  0  0  0  0  0  0  0  0  0  0
  -22.5190  -30.0420   22.6380 H   0  0  0  0  0  0  0  0  0  0  0  0
  -19.4620  -28.3540   21.8410 C   0  0  0  0  0  0  0  0  0  0  0  0
  -21.8370  -28.0510   22.8140 C   0  0  0  0  0  3  0  0  0  0  0  0
  -22.1320  -27.1940   21.5640 C   0  0  0  0  0  2  0  0  0  0  0  0
  -21.3500  -27.6320   20.3240 C   0  0  0  0  0  2  0  0  0  0  0  0
  -19.8440  -27.5850   20.5890 C   0  0  0  0  0  2  0  0  0  0  0  0
  -20.4020  -28.5850   22.8800 C   0  0  0  0  0  0  0  0  0  0  0  0
  -20.0060  -29.3330   24.0100 C   0  0  0  0  0  3  0  0  0  0  0  0
  -18.6990  -29.8440   24.1120 C   0  0  0  0  0  3  0  0  0  0  0  0
  -17.7700  -29.6040   23.0860 C   0  0  0  0  0  3  0  0  0  0  0  0
  -18.1500  -28.8580   21.9550 C   0  0  0  0  0  3  0  0  0  0  0  0
  -27.1030  -30.0140   26.6820 C   0  0  0  0  0  3  0  0  0  0  0  0
  -27.2230  -31.3090   27.3680 N   0  0  0  0  0  0  0  0  0  0  0  0
  -28.1500  -32.2340   27.0880 C   0  0  0  0  0  0  0  0  0  0  0  0
  -29.0480  -32.0530   26.2610 O   0  0  0  0  0  0  0  0  0  0  0  0
  -26.4860  -31.5460   28.0170 H   0  0  0  0  0  0  0  0  0  0  0  0
  -27.4330  -34.6400   26.9380 C   0  0  0  0  0  1  0  0  0  0  0  0
  -28.0660  -33.5730   27.8440 C   0  0  0  0  0  3  0  0  0  0  0  0
  -29.9460  -33.2060   29.3790 C   0  0  0  0  0  1  0  0  0  0  0  0
  -29.3750  -34.0540   28.3370 N   0  0  0  0  0  0  0  0  0  0  0  0
  -29.2950  -34.9980   28.7060 H   0  0  0  0  0  0  0  0  0  0  0  0
  -26.9250  -28.8420   27.7230 C   0  0  1  0  0  0  0  0  0  0  0  0
  -25.5620  -28.8620   28.4530 C   0  0  0  0  0  1  0  0  0  0  0  0
  -27.0700  -27.4670   27.0290 C   0  0  0  0  0  1  0  0  0  0  0  0
  -28.0420  -28.9180   28.7910 C   0  0  0  0  0  1  0  0  0  0  0  0
  1  5  1  0
  2  8  1  0
  2  3  1  0
  3  7  1  0
  3  5  2  0
  4  6  1  0
  4  2  2  0
  5 15  1  0
  6  1  2  0
  8  9  1  0
  8  7  1  0
 10 14  1  0
 12 10  1  0
 12 15  1  0
 13 11  1  0
 14 24  1  0
 14 11  1  0
 15 13  1  0
 16 22  1  0
 16 24  1  0
 17 22  1  0
 18 19  1  0
 18 17  1  0
 20 19  1  0
 20 29  1  0
 20 21  1  0
 22 21  1  0
 23 16  2  0
 24 25  1  0
 26 27  2  0
 27 46  1  0
 28 27  1  0
 28 31  1  0
 29 26  1  0
 29 30  1  0
 30 28  2  0
 31 32  1  0
 32 33  2  0
 34 37  1  0
 34 33  1  0
 35 34  2  0
 36 35  1  0
 36 31  2  0
 37 38  1  0
 38 43  2  0
 38 39  1  0
 39 40  2  0
 40 41  1  0
 41 45  1  0
 42 41  2  0
 43 42  1  0
 44 43  1  0
 46 47  1  0
 47 50  1  0
 47 49  1  0
 48 46  2  0
 51 52  1  0
 51 26  1  0
 53 51  1  0
 54  4  1  0
 54 56  1  0
 55 56  1  0
 57  6  1  0
 57 58  1  0
 58 59  1  0
 59 60  1  0
 60 62  1  0
 61 72  2  0
 62 67  1  0
 63 73  1  0
 63 71  1  0
 64 70  1  0
 64 66  1  0
 65 71  1  0
 66 65  1  0
 67 66  2  0
 68 69  1  0
 68 62  2  0
 69 64  2  0
 70 63  1  0
 71 61  1  0
 73 75  2  0
 74 73  1  0
 76 74  1  0
 77 86  2  0
 77 82  1  0
 78 82  1  0
 78 74  1  0
 79 78  1  0
 80 81  1  0
 80 79  1  0
 81 77  1  0
 82 83  2  0
 83 84  1  0
 85 84  2  0
 86 85  1  0
 87 61  1  0
 87 88  1  0
 87 97  1  0
 88 91  1  0
 89 88  1  0
 89 93  1  0
 90 89  2  0
 93 92  1  0
 93 95  1  0
 95 96  1  0
 95 94  1  0
 97 98  1  1
 97100  1  0
 99 97  1  0
M  ISO  4  16 100  24 100  59 101  60 101
M  END
>  <TORSDO>  (27) 
F 22

>  <SCORE>  (27) 
-6.885

>  <name>  (27) 
26

>  <ligand_id>  (27) 
26

>  <original_smiles>  (27) 
[H]c1c([H])c([H])c2c(c1[H])C([H])([H])C([H])([H])C([H])([H])C2([H])N([H])C(=O)C1([H])N(C(=O)C([H])(N([H])C(=O)C([H])(N([H])C([H])([H])[H])C([H])([H])[H])C(C([H])([H])[H])(C([H])([H])[H])C([H])([H])[H])C([H])([H])c2c([H])c(OC([H])([H])C([H])([H])Oc3c([H])c(N4C([H])([H])C([H])([H])C([H])(N([H])C(=O)N5C([H])([H])C([H])([H])C([H])([H])C([H])(n6nc(-c7c([H])c([H])c(Oc8c([H])c([H])c(F)c([H])c8F)c([H])c7[H])c(C(=O)N([H])[H])c6N([H])[H])C5([H])[H])C([H])([H])C4([H])[H])c4c(c3C([H])([H])C([H])([H])C([H])([H])[H])C([H])(C([H])([H])[H])C4([H])[H])c([H])c([H])c2C1([H])[H]

>  <smiles>  (27) 
[H]c1c([H])c([H])c2c(c1[H])C([H])([H])C([H])([H])C([H])([H])C2([H])N([H])C(=O)C1([H])N(C(=O)C([H])(N([H])C(=O)C([H])(N([H])C([H])([H])[H])C([H])([H])[H])C(C([H])([H])[H])(C([H])([H])[H])C([H])([H])[H])C([H])([H])c2c([H])c(OC([H])([H])C([H])([H])Oc3c([H])c(N4C([H])([H])C([H])([H])C([H])(N([H])C(=O)N5C([H])([H])C([H])([H])C([H])([H])C([H])(n6nc(-c7c([H])c([H])c(Oc8c([H])c([H])c(F)c([H])c8F)c([H])c7[H])c(C(=O)N([H])[H])c6N([H])[H])C5([H])[H])C([H])([H])C4([H])[H])c4c(c3C([H])([H])C([H])([H])C([H])([H])[H])C([H])(C([H])([H])[H])C4([H])[H])c([H])c([H])c2C1([H])[H]

$$$$
27:0:0
     RDKit          3D

 90 99  0  0  1  0  0  0  0  0999 V2000
  -30.4780  -19.8590   21.5390 C   0  0  0  0  0  3  0  0  0  0  0  0
  -28.4130  -19.8410   20.2720 C   0  0  0  0  0  3  0  0  0  0  0  0
  -30.4650  -21.2720   21.5220 C   0  0  0  0  0  3  0  0  0  0  0  0
  -28.4010  -21.2590   20.2560 C   0  0  0  0  0  3  0  0  0  0  0  0
  -29.4430  -19.1220   20.9250 C   0  0  0  0  0  0  0  0  0  0  0  0
  -29.4240  -21.9980   20.9010 C   0  0  0  0  0  0  0  0  0  0  0  0
  -30.6810  -14.5590   20.2800 C   0  0  0  0  0  0  0  0  0  0  0  0
  -30.3810  -12.4070   19.1100 C   0  0  0  0  0  2  0  0  0  0  0  0
  -29.4120  -12.6270   17.9280 C   0  0  0  0  0  2  0  0  0  0  0  0
  -27.9490  -12.4710   18.3870 C   0  0  0  0  0  2  0  0  0  0  0  0
  -27.6350  -13.2890   19.6690 C   0  0  0  0  0  3  0  0  0  0  0  0
  -28.7120  -13.0600   20.7520 C   0  0  0  0  0  2  0  0  0  0  0  0
  -30.0200  -13.3760   20.1570 N   0  0  0  0  0  0  0  0  0  0  0  0
  -31.8240  -14.7330   19.8430 O   0  0  0  0  0  0  0  0  0  0  0  0
  -29.4730  -16.6560   19.8100 C   0  0  0  0  0  2  0  0  0  0  0  0
  -30.5080  -16.6920   21.5620 C   0  0  0  0  0  2  0  0  0  0  0  0
  -29.3900  -17.5850   21.0170 C   0  0  0  0  0  3  0  0  0  0  0  0
  -29.9410  -15.6000   20.7400 N   0  0  0  0  0  0  0  0  0  0  0  0
  -25.2460  -13.8910   20.4100 C   0  0  0  0  0  0  0  0  0  0  0  0
  -24.1870  -13.1150   20.7960 C   0  0  0  0  0  0  0  0  0  0  0  0
  -24.6540  -11.7650   20.7650 C   0  0  0  0  0  0  0  0  0  0  0  0
  -26.2920  -13.0120   20.1700 N   0  0  0  0  0  0  0  0  0  0  0  0
  -25.9400  -11.7300   20.4410 N   0  0  0  0  0  0  0  0  0  0  0  0
  -23.9380  -10.5000   20.9690 C   0  0  0  0  0  0  0  0  0  0  0  0
  -24.3850   -9.5420   21.9040 C   0  0  0  0  0  3  0  0  0  0  0  0
  -23.6690   -8.3400   22.0950 C   0  0  0  0  0  3  0  0  0  0  0  0
  -22.4910   -8.0900   21.3510 C   0  0  0  0  0  0  0  0  0  0  0  0
  -22.0640   -9.0380   20.4040 C   0  0  0  0  0  3  0  0  0  0  0  0
  -22.7810  -10.2300   20.2120 C   0  0  0  0  0  3  0  0  0  0  0  0
  -21.7440   -6.9410   21.4520 O   0  0  0  0  0  0  0  0  0  0  0  0
  -21.7040   -6.2090   22.6120 C   0  0  0  0  0  0  0  0  0  0  0  0
  -21.2700   -6.7700   23.8330 C   0  0  0  0  0  3  0  0  0  0  0  0
  -21.1780   -5.9630   24.9840 C   0  0  0  0  0  3  0  0  0  0  0  0
  -21.5100   -4.5970   24.9160 C   0  0  0  0  0  0  0  0  0  0  0  0
  -21.9370   -4.0350   23.7000 C   0  0  0  0  0  3  0  0  0  0  0  0
  -22.0310   -4.8400   22.5510 C   0  0  0  0  0  0  0  0  0  0  0  0
  -22.4230   -4.2890   21.3760 F   0  0  0  0  0  0  0  0  0  0  0  0
  -21.4130   -3.8190   26.0200 F   0  0  0  0  0  0  0  0  0  0  0  0
  -22.7900  -13.5870   21.0860 C   0  0  0  0  0  0  0  0  0  0  0  0
  -22.0780  -12.8880   21.9630 N   0  0  0  0  0  0  0  0  0  0  0  0
  -22.3410  -14.6090   20.5710 O   0  0  0  0  0  0  0  0  0  0  0  0
  -22.4540  -12.0600   22.4010 H   0  0  0  0  0  0  0  0  0  0  0  0
  -21.1420  -13.1860   22.2000 H   0  0  0  0  0  0  0  0  0  0  0  0
  -25.4030  -15.2610   20.2240 N   0  0  0  0  0  0  0  0  0  0  0  0
  -24.6350  -15.9140   20.3300 H   0  0  0  0  0  0  0  0  0  0  0  0
  -26.2580  -15.7010   19.9110 H   0  0  0  0  0  0  0  0  0  0  0  0
  -29.4870  -23.3830   20.9860 O   0  0  0  0  0  0  0  0  0  0  0  0
  -28.4280  -24.2140   20.4800 C   0  0  0  0  0  2  0  0  0  0  0  0
  -28.5240  -25.6310   21.1180 C   0  0  0  0  0  2  0  0  0  0  0  0
  -28.4830  -26.7390   20.1980 O   0  0  0  0  0  0  0  0  0  0  0  0
  -24.6110  -31.9010   23.2560 C   0  0  0  0  0  0  0  0  0  0  0  0
  -27.3180  -27.4720   20.2130 C   0  0  0  0  0  0  0  0  0  0  0  0
  -23.4340  -30.4880   21.6020 C   0  0  0  0  0  3  0  0  0  0  0  0
  -24.9140  -28.9600   20.1930 C   0  0  0  0  0  0  0  0  0  0  0  0
  -25.9570  -30.8690   21.4260 C   0  0  0  0  0  2  0  0  0  0  0  0
  -26.0620  -29.4960   20.7930 C   0  0  0  0  0  0  0  0  0  0  0  0
  -27.2690  -28.7600   20.7990 C   0  0  0  0  0  3  0  0  0  0  0  0
  -26.1580  -26.9470   19.6110 C   0  0  0  0  0  3  0  0  0  0  0  0
  -24.9570  -27.6840   19.5990 C   0  0  0  0  0  3  0  0  0  0  0  0
  -23.6630  -29.8090   20.2250 C   0  0  0  0  0  2  0  0  0  0  0  0
  -24.6850  -31.1010   22.1550 N   0  0  0  0  0  0  0  0  0  0  0  0
  -23.5230  -32.1650   23.7850 O   0  0  0  0  0  0  0  0  0  0  0  0
  -22.7810  -29.4630   22.5580 C   0  0  0  0  0  0  0  0  0  0  0  0
  -21.4570  -29.2780   22.4240 N   0  0  0  0  0  0  0  0  0  0  0  0
  -23.4630  -28.8370   23.3730 O   0  0  0  0  0  0  0  0  0  0  0  0
  -20.9700  -29.8360   21.7380 H   0  0  0  0  0  0  0  0  0  0  0  0
  -18.0800  -28.0890   22.9120 C   0  0  0  0  0  0  0  0  0  0  0  0
  -20.6390  -28.3360   23.1880 C   0  0  0  0  0  3  0  0  0  0  0  0
  -20.7370  -26.9100   22.5970 C   0  0  0  0  0  2  0  0  0  0  0  0
  -19.6330  -26.6010   21.5810 C   0  0  0  0  0  2  0  0  0  0  0  0
  -18.2530  -26.7450   22.2270 C   0  0  0  0  0  2  0  0  0  0  0  0
  -19.2020  -28.8420   23.3500 C   0  0  0  0  0  0  0  0  0  0  0  0
  -18.9890  -30.1020   23.9510 C   0  0  0  0  0  3  0  0  0  0  0  0
  -17.6860  -30.6070   24.1210 C   0  0  0  0  0  3  0  0  0  0  0  0
  -16.5790  -29.8480   23.7020 C   0  0  0  0  0  3  0  0  0  0  0  0
  -16.7770  -28.5920   23.1040 C   0  0  0  0  0  3  0  0  0  0  0  0
  -25.8860  -32.5420   23.8890 C   0  0  0  0  0  3  0  0  0  0  0  0
  -26.3910  -31.7830   25.1770 C   0  0  1  0  0  0  0  0  0  0  0  0
  -25.2850  -31.5460   26.2320 C   0  0  0  0  0  1  0  0  0  0  0  0
  -26.9840  -30.4060   24.7970 C   0  0  0  0  0  1  0  0  0  0  0  0
  -27.5290  -32.5850   25.8480 C   0  0  0  0  0  1  0  0  0  0  0  0
  -25.5690  -33.9410   24.2020 N   0  0  0  0  0  0  0  0  0  0  0  0
  -25.9090  -34.9870   23.4380 C   0  0  0  0  0  0  0  0  0  0  0  0
  -26.5930  -34.8760   22.4170 O   0  0  0  0  0  0  0  0  0  0  0  0
  -24.9610  -34.1020   24.9920 H   0  0  0  0  0  0  0  0  0  0  0  0
  -24.1810  -36.7700   23.0380 C   0  0  0  0  0  1  0  0  0  0  0  0
  -25.4100  -36.3780   23.8730 C   0  0  0  0  0  3  0  0  0  0  0  0
  -27.5270  -37.2790   24.7300 C   0  0  0  0  0  1  0  0  0  0  0  0
  -26.4400  -37.4340   23.7670 N   0  0  0  0  0  0  0  0  0  0  0  0
  -26.0290  -38.3540   23.8980 H   0  0  0  0  0  0  0  0  0  0  0  0
  2  5  1  0
  3  1  1  0
  4  2  2  0
  4  6  1  0
  5  1  2  0
  6 47  1  0
  6  3  2  0
  7 18  1  0
  8 13  1  0
  9 10  1  0
  9  8  1  0
 11 10  1  0
 11 22  1  0
 11 12  1  0
 13  7  1  0
 13 12  1  0
 14  7  2  0
 15 18  1  0
 15 17  1  0
 17  5  1  0
 17 16  1  0
 18 16  1  0
 19 20  2  0
 20 39  1  0
 21 20  1  0
 21 24  1  0
 22 19  1  0
 22 23  1  0
 23 21  2  0
 24 25  1  0
 25 26  2  0
 27 30  1  0
 27 26  1  0
 28 27  2  0
 29 28  1  0
 29 24  2  0
 30 31  1  0
 31 32  1  0
 32 33  2  0
 34 33  1  0
 34 38  1  0
 35 34  2  0
 36 31  2  0
 36 35  1  0
 37 36  1  0
 39 40  1  0
 40 43  1  0
 40 42  1  0
 41 39  2  0
 44 45  1  0
 44 19  1  0
 46 44  1  0
 48 47  1  0
 48 49  1  0
 50 52  1  0
 50 49  1  0
 51 62  2  0
 52 57  1  0
 53 61  1  0
 53 63  1  0
 54 60  1  0
 54 56  1  0
 55 61  1  0
 56 57  2  0
 56 55  1  0
 58 52  2  0
 59 58  1  0
 59 54  2  0
 60 53  1  0
 61 51  1  0
 63 65  2  0
 64 63  1  0
 66 64  1  0
 67 76  2  0
 67 72  1  0
 68 64  1  0
 68 72  1  0
 69 68  1  0
 70 71  1  0
 70 69  1  0
 71 67  1  0
 72 73  2  0
 73 74  1  0
 75 74  2  0
 76 75  1  0
 77 51  1  0
 77 82  1  0
 77 78  1  0
 78 81  1  1
 78 79  1  0
 80 78  1  0
 82 85  1  0
 83 87  1  0
 83 82  1  0
 84 83  2  0
 87 86  1  0
 89 87  1  0
 89 90  1  0
 89 88  1  0
M  ISO  4   7 100  18 100  49 101  50 101
M  END
>  <TORSDO>  (28) 
F 19

>  <SCORE>  (28) 
-14.428

>  <name>  (28) 
27

>  <ligand_id>  (28) 
27

>  <original_smiles>  (28) 
[H]c1c([H])c([H])c2c(c1[H])C([H])([H])C([H])([H])C([H])([H])C2([H])N([H])C(=O)C1([H])N(C(=O)C([H])(N([H])C(=O)C([H])(N([H])C([H])([H])[H])C([H])([H])[H])C(C([H])([H])[H])(C([H])([H])[H])C([H])([H])[H])C([H])([H])c2c([H])c(OC([H])([H])C([H])([H])Oc3c([H])c([H])c(C4([H])C([H])([H])N(C(=O)N5C([H])([H])C([H])([H])C([H])([H])C([H])(n6nc(-c7c([H])c([H])c(Oc8c([H])c([H])c(F)c([H])c8F)c([H])c7[H])c(C(=O)N([H])[H])c6N([H])[H])C5([H])[H])C4([H])[H])c([H])c3[H])c([H])c([H])c2C1([H])[H]

>  <smiles>  (28) 
[H]c1c([H])c([H])c2c(c1[H])C([H])([H])C([H])([H])C([H])([H])C2([H])N([H])C(=O)C1([H])N(C(=O)C([H])(N([H])C(=O)C([H])(N([H])C([H])([H])[H])C([H])([H])[H])C(C([H])([H])[H])(C([H])([H])[H])C([H])([H])[H])C([H])([H])c2c([H])c(OC([H])([H])C([H])([H])Oc3c([H])c([H])c(C4([H])C([H])([H])N(C(=O)N5C([H])([H])C([H])([H])C([H])([H])C([H])(n6nc(-c7c([H])c([H])c(Oc8c([H])c([H])c(F)c([H])c8F)c([H])c7[H])c(C(=O)N([H])[H])c6N([H])[H])C5([H])[H])C4([H])[H])c([H])c3[H])c([H])c([H])c2C1([H])[H]

$$$$
28:0:0
     RDKit          3D

 97106  0  0  1  0  0  0  0  0999 V2000
  -29.6040  -20.3960   20.4770 C   0  0  0  0  0  3  0  0  0  0  0  0
  -30.3580  -21.9460   22.1900 C   0  0  0  0  0  3  0  0  0  0  0  0
  -30.1300  -19.3020   21.2060 C   0  0  0  0  0  0  0  0  0  0  0  0
  -30.9110  -20.8760   22.9300 C   0  0  0  0  0  0  0  0  0  0  0  0
  -29.7410  -21.7250   20.9380 C   0  0  0  0  0  0  0  0  0  0  0  0
  -30.8220  -19.5580   22.4160 C   0  0  0  0  0  0  0  0  0  0  0  0
  -30.2260  -14.0810   19.6350 C   0  0  0  0  0  0  0  0  0  0  0  0
  -29.7290  -12.0620   18.3240 C   0  0  0  0  0  2  0  0  0  0  0  0
  -28.6000  -12.4120   17.3320 C   0  0  0  0  0  2  0  0  0  0  0  0
  -27.2130  -12.2370   17.9860 C   0  0  0  0  0  2  0  0  0  0  0  0
  -27.1140  -12.9040   19.3860 C   0  0  0  0  0  3  0  0  0  0  0  0
  -28.3370  -12.5210   20.2500 C   0  0  0  0  0  2  0  0  0  0  0  0
  -29.5460  -12.9100   19.5080 N   0  0  0  0  0  0  0  0  0  0  0  0
  -31.3090  -14.2800   19.0730 O   0  0  0  0  0  0  0  0  0  0  0  0
  -29.3170  -16.9620   21.8050 C   0  0  0  0  0  2  0  0  0  0  0  0
  -29.1200  -17.6370   19.4740 C   0  0  0  0  0  2  0  0  0  0  0  0
  -29.3160  -15.4610   21.4450 C   0  0  0  0  0  2  0  0  0  0  0  0
  -29.1630  -16.1730   18.9850 C   0  0  0  0  0  2  0  0  0  0  0  0
  -29.9680  -17.8460   20.7330 C   0  0  0  0  0  3  0  0  0  0  0  0
  -29.4570  -15.1370   20.0080 N   0  0  0  0  0  0  0  0  0  0  0  0
  -24.8340  -13.4290   20.4570 C   0  0  0  0  0  0  0  0  0  0  0  0
  -23.8510  -12.6150   20.9510 C   0  0  0  0  0  0  0  0  0  0  0  0
  -24.3370  -11.2780   20.8120 C   0  0  0  0  0  0  0  0  0  0  0  0
  -25.8550  -12.5840   20.0490 N   0  0  0  0  0  0  0  0  0  0  0  0
  -25.5680  -11.2860   20.3200 N   0  0  0  0  0  0  0  0  0  0  0  0
  -23.6820   -9.9900   21.0650 C   0  0  0  0  0  0  0  0  0  0  0  0
  -24.2130   -9.0630   21.9890 C   0  0  0  0  0  3  0  0  0  0  0  0
  -23.5560   -7.8380   22.2310 C   0  0  0  0  0  3  0  0  0  0  0  0
  -22.3540   -7.5320   21.5500 C   0  0  0  0  0  0  0  0  0  0  0  0
  -21.8430   -8.4480   20.6140 C   0  0  0  0  0  3  0  0  0  0  0  0
  -22.5010   -9.6650   20.3700 C   0  0  0  0  0  3  0  0  0  0  0  0
  -21.6610   -6.3560   21.7020 O   0  0  0  0  0  0  0  0  0  0  0  0
  -21.6600   -5.6690   22.8890 C   0  0  0  0  0  0  0  0  0  0  0  0
  -21.2030   -6.2570   24.0900 C   0  0  0  0  0  3  0  0  0  0  0  0
  -21.1520   -5.4930   25.2730 C   0  0  0  0  0  3  0  0  0  0  0  0
  -21.5500   -4.1420   25.2560 C   0  0  0  0  0  0  0  0  0  0  0  0
  -21.9990   -3.5540   24.0610 C   0  0  0  0  0  3  0  0  0  0  0  0
  -22.0510   -4.3160   22.8800 C   0  0  0  0  0  0  0  0  0  0  0  0
  -22.4640   -3.7380   21.7270 F   0  0  0  0  0  0  0  0  0  0  0  0
  -21.4940   -3.4050   26.3900 F   0  0  0  0  0  0  0  0  0  0  0  0
  -22.4960  -13.0420   21.4380 C   0  0  0  0  0  0  0  0  0  0  0  0
  -21.9310  -12.3110   22.3930 N   0  0  0  0  0  0  0  0  0  0  0  0
  -21.9520  -14.0580   21.0070 O   0  0  0  0  0  0  0  0  0  0  0  0
  -22.3890  -11.4900   22.7610 H   0  0  0  0  0  0  0  0  0  0  0  0
  -21.0290  -12.5780   22.7610 H   0  0  0  0  0  0  0  0  0  0  0  0
  -24.9400  -14.8080   20.3000 N   0  0  0  0  0  0  0  0  0  0  0  0
  -24.1920  -15.4420   20.5570 H   0  0  0  0  0  0  0  0  0  0  0  0
  -25.7420  -15.2770   19.8990 H   0  0  0  0  0  0  0  0  0  0  0  0
  -30.5780  -21.8080   25.2580 C   0  0  0  0  0  1  0  0  0  0  0  0
  -32.8590  -21.9840   24.1460 C   0  0  0  0  0  1  0  0  0  0  0  0
  -31.5710  -21.1590   24.2840 C   0  0  0  0  0  3  0  0  0  0  0  0
  -31.3870  -18.5160   23.0950 O   0  0  0  0  0  0  0  0  0  0  0  0
  -31.7850  -18.7770   23.9170 H   0  0  0  0  0  0  0  0  0  0  0  0
  -29.2380  -22.7300   20.1340 O   0  0  0  0  0  0  0  0  0  0  0  0
  -29.6540  -24.0920   20.3300 C   0  0  0  0  0  2  0  0  0  0  0  0
  -28.4860  -24.9670   20.8260 C   0  0  0  0  0  2  0  0  0  0  0  0
  -28.6220  -26.3360   20.3930 O   0  0  0  0  0  0  0  0  0  0  0  0
  -24.6710  -31.5960   23.1170 C   0  0  0  0  0  0  0  0  0  0  0  0
  -27.4520  -27.0630   20.3130 C   0  0  0  0  0  0  0  0  0  0  0  0
  -23.5350  -30.1270   21.4860 C   0  0  0  0  0  3  0  0  0  0  0  0
  -25.0500  -28.5550   20.1710 C   0  0  0  0  0  0  0  0  0  0  0  0
  -26.0660  -30.5010   21.3670 C   0  0  0  0  0  2  0  0  0  0  0  0
  -26.1840  -29.1090   20.7810 C   0  0  0  0  0  0  0  0  0  0  0  0
  -27.3900  -28.3720   20.8450 C   0  0  0  0  0  3  0  0  0  0  0  0
  -26.3060  -26.5340   19.6790 C   0  0  0  0  0  3  0  0  0  0  0  0
  -25.1070  -27.2640   19.6190 C   0  0  0  0  0  3  0  0  0  0  0  0
  -23.8000  -29.4030   20.1390 C   0  0  0  0  0  2  0  0  0  0  0  0
  -24.7740  -30.7590   22.0480 N   0  0  0  0  0  0  0  0  0  0  0  0
  -23.5680  -31.8800   23.6070 O   0  0  0  0  0  0  0  0  0  0  0  0
  -22.8570  -29.1340   22.4570 C   0  0  0  0  0  0  0  0  0  0  0  0
  -21.5370  -28.9430   22.2960 N   0  0  0  0  0  0  0  0  0  0  0  0
  -23.5170  -28.5360   23.3110 O   0  0  0  0  0  0  0  0  0  0  0  0
  -21.0660  -29.4780   21.5790 H   0  0  0  0  0  0  0  0  0  0  0  0
  -18.1400  -27.8070   22.7660 C   0  0  0  0  0  0  0  0  0  0  0  0
  -20.6980  -28.0310   23.0700 C   0  0  0  0  0  3  0  0  0  0  0  0
  -20.7860  -26.5890   22.5180 C   0  0  0  0  0  2  0  0  0  0  0  0
  -19.6930  -26.2670   21.4940 C   0  0  0  0  0  2  0  0  0  0  0  0
  -18.3050  -26.4430   22.1160 C   0  0  0  0  0  2  0  0  0  0  0  0
  -19.2640  -28.5600   23.1990 C   0  0  0  0  0  0  0  0  0  0  0  0
  -19.0560  -29.8360   23.7640 C   0  0  0  0  0  3  0  0  0  0  0  0
  -17.7570  -30.3610   23.9000 C   0  0  0  0  0  3  0  0  0  0  0  0
  -16.6480  -29.6050   23.4840 C   0  0  0  0  0  3  0  0  0  0  0  0
  -16.8390  -28.3300   22.9230 C   0  0  0  0  0  3  0  0  0  0  0  0
  -25.9290  -32.2610   23.7580 C   0  0  0  0  0  3  0  0  0  0  0  0
  -25.5720  -33.6430   24.1040 N   0  0  0  0  0  0  0  0  0  0  0  0
  -25.8640  -34.7150   23.3550 C   0  0  0  0  0  0  0  0  0  0  0  0
  -26.5370  -34.6460   22.3220 O   0  0  0  0  0  0  0  0  0  0  0  0
  -24.9750  -33.7680   24.9090 H   0  0  0  0  0  0  0  0  0  0  0  0
  -24.0750  -36.4460   23.0140 C   0  0  0  0  0  1  0  0  0  0  0  0
  -25.3260  -36.0790   23.8270 C   0  0  0  0  0  3  0  0  0  0  0  0
  -27.4230  -37.0300   24.6800 C   0  0  0  0  0  1  0  0  0  0  0  0
  -26.3220  -37.1680   23.7290 N   0  0  0  0  0  0  0  0  0  0  0  0
  -25.8830  -38.0710   23.8820 H   0  0  0  0  0  0  0  0  0  0  0  0
  -26.4640  -31.4850   25.0250 C   0  0  1  0  0  0  0  0  0  0  0  0
  -25.3670  -31.1800   26.0710 C   0  0  0  0  0  1  0  0  0  0  0  0
  -27.1130  -30.1420   24.6180 C   0  0  0  0  0  1  0  0  0  0  0  0
  -27.5720  -32.3170   25.7130 C   0  0  0  0  0  1  0  0  0  0  0  0
  1  5  2  0
  1  3  1  0
  2  4  2  0
  3  6  2  0
  4 51  1  0
  5  2  1  0
  6  4  1  0
  6 52  1  0
  7 20  1  0
  8 13  1  0
  9 10  1  0
  9  8  1  0
 11 10  1  0
 11 24  1  0
 11 12  1  0
 13  7  1  0
 13 12  1  0
 14  7  2  0
 16 19  1  0
 17 15  1  0
 18 16  1  0
 18 20  1  0
 19  3  1  0
 19 15  1  0
 20 17  1  0
 21 22  2  0
 22 41  1  0
 23 22  1  0
 23 26  1  0
 24 25  1  0
 24 21  1  0
 25 23  2  0
 26 27  1  0
 27 28  2  0
 29 32  1  0
 29 28  1  0
 30 29  2  0
 31 30  1  0
 31 26  2  0
 32 33  1  0
 33 34  1  0
 34 35  2  0
 36 35  1  0
 36 40  1  0
 37 36  2  0
 38 33  2  0
 38 37  1  0
 39 38  1  0
 41 42  1  0
 42 44  1  0
 42 45  1  0
 43 41  2  0
 46 21  1  0
 46 47  1  0
 48 46  1  0
 50 51  1  0
 51 49  1  0
 52 53  1  0
 54 55  1  0
 54  5  1  0
 55 56  1  0
 57 56  1  0
 58 69  2  0
 59 57  1  0
 59 64  1  0
 60 68  1  0
 60 70  1  0
 61 63  1  0
 62 68  1  0
 63 64  2  0
 63 62  1  0
 65 59  2  0
 66 65  1  0
 66 61  2  0
 67 61  1  0
 67 60  1  0
 68 58  1  0
 70 72  2  0
 71 70  1  0
 73 71  1  0
 74 83  2  0
 74 79  1  0
 75 71  1  0
 75 79  1  0
 76 75  1  0
 77 78  1  0
 77 76  1  0
 78 74  1  0
 79 80  2  0
 80 81  1  0
 82 81  2  0
 83 82  1  0
 84 58  1  0
 84 85  1  0
 84 94  1  0
 85 88  1  0
 86 90  1  0
 86 85  1  0
 87 86  2  0
 90 89  1  0
 92 90  1  0
 92 93  1  0
 92 91  1  0
 94 97  1  1
 94 95  1  0
 96 94  1  0
M  ISO  4   7 100  20 100  56 101  57 101
M  END
>  <TORSDO>  (29) 
F 21

>  <SCORE>  (29) 
-9.730

>  <name>  (29) 
28

>  <ligand_id>  (29) 
28

>  <original_smiles>  (29) 
[H]Oc1c(C([H])(C([H])([H])[H])C([H])([H])[H])c([H])c(OC([H])([H])C([H])([H])Oc2c([H])c([H])c3c(c2[H])C([H])([H])N(C(=O)C([H])(N([H])C(=O)C([H])(N([H])C([H])([H])[H])C([H])([H])[H])C(C([H])([H])[H])(C([H])([H])[H])C([H])([H])[H])C([H])(C(=O)N([H])C2([H])c4c([H])c([H])c([H])c([H])c4C([H])([H])C([H])([H])C2([H])[H])C3([H])[H])c([H])c1C1([H])C([H])([H])C([H])([H])N(C(=O)N2C([H])([H])C([H])([H])C([H])([H])C([H])(n3nc(-c4c([H])c([H])c(Oc5c([H])c([H])c(F)c([H])c5F)c([H])c4[H])c(C(=O)N([H])[H])c3N([H])[H])C2([H])[H])C([H])([H])C1([H])[H]

>  <smiles>  (29) 
[H]Oc1c(C([H])(C([H])([H])[H])C([H])([H])[H])c([H])c(OC([H])([H])C([H])([H])Oc2c([H])c([H])c3c(c2[H])C([H])([H])N(C(=O)C([H])(N([H])C(=O)C([H])(N([H])C([H])([H])[H])C([H])([H])[H])C(C([H])([H])[H])(C([H])([H])[H])C([H])([H])[H])C([H])(C(=O)N([H])C2([H])c4c([H])c([H])c([H])c([H])c4C([H])([H])C([H])([H])C2([H])[H])C3([H])[H])c([H])c1C1([H])C([H])([H])C([H])([H])N(C(=O)N2C([H])([H])C([H])([H])C([H])([H])C([H])(n3nc(-c4c([H])c([H])c(Oc5c([H])c([H])c(F)c([H])c5F)c([H])c4[H])c(C(=O)N([H])[H])c3N([H])[H])C2([H])[H])C([H])([H])C1([H])[H]

$$$$
29:0:0
     RDKit          3D

 94103  0  0  1  0  0  0  0  0999 V2000
  -27.9960  -21.7770   19.8270 C   0  0  0  0  0  3  0  0  0  0  0  0
  -29.0220  -22.2900   20.6690 C   0  0  0  0  0  0  0  0  0  0  0  0
  -28.1800  -20.4340   19.6010 C   0  0  0  0  0  0  0  0  0  0  0  0
  -29.8220  -21.1890   20.9350 C   0  0  0  0  0  0  0  0  0  0  0  0
  -31.0580  -21.1390   21.7820 C   0  0  0  0  0  1  0  0  0  0  0  0
  -29.3260  -20.0260   20.2950 N   0  0  0  0  0  0  0  0  0  0  0  0
  -31.1860  -14.4440   20.2560 C   0  0  0  0  0  0  0  0  0  0  0  0
  -30.9040  -12.1760   19.3150 C   0  0  0  0  0  2  0  0  0  0  0  0
  -29.9380  -12.2410   18.1160 C   0  0  0  0  0  2  0  0  0  0  0  0
  -28.4800  -12.0910   18.5920 C   0  0  0  0  0  2  0  0  0  0  0  0
  -28.1390  -13.0120   19.7970 C   0  0  0  0  0  3  0  0  0  0  0  0
  -29.2300  -12.9610   20.8880 C   0  0  0  0  0  2  0  0  0  0  0  0
  -30.5130  -13.2550   20.2420 N   0  0  0  0  0  0  0  0  0  0  0  0
  -32.3640  -14.5030   19.8930 O   0  0  0  0  0  0  0  0  0  0  0  0
  -29.7650  -17.7970   19.0760 C   0  0  0  0  0  2  0  0  0  0  0  0
  -29.6100  -17.7200   21.5320 C   0  0  0  0  0  2  0  0  0  0  0  0
  -30.6230  -16.4980   19.1090 C   0  0  0  0  0  2  0  0  0  0  0  0
  -30.4480  -16.3940   21.5510 C   0  0  0  0  0  2  0  0  0  0  0  0
  -29.9620  -18.6510   20.3420 C   0  0  0  0  0  3  0  0  0  0  0  0
  -30.4470  -15.6060   20.2920 N   0  0  0  0  0  0  0  0  0  0  0  0
  -25.8020  -13.6010   20.6810 C   0  0  0  0  0  0  0  0  0  0  0  0
  -24.7370  -12.8250   21.0510 C   0  0  0  0  0  0  0  0  0  0  0  0
  -25.1680  -11.4700   20.9080 C   0  0  0  0  0  0  0  0  0  0  0  0
  -26.8130  -12.7200   20.3350 N   0  0  0  0  0  0  0  0  0  0  0  0
  -26.4400  -11.4280   20.5340 N   0  0  0  0  0  0  0  0  0  0  0  0
  -24.4230  -10.2110   21.0510 C   0  0  0  0  0  0  0  0  0  0  0  0
  -24.7770   -9.2500   22.0240 C   0  0  0  0  0  3  0  0  0  0  0  0
  -24.0330   -8.0560   22.1550 C   0  0  0  0  0  3  0  0  0  0  0  0
  -22.9220   -7.8160   21.3120 C   0  0  0  0  0  0  0  0  0  0  0  0
  -22.5890   -8.7650   20.3300 C   0  0  0  0  0  3  0  0  0  0  0  0
  -23.3330   -9.9500   20.1980 C   0  0  0  0  0  3  0  0  0  0  0  0
  -22.1600   -6.6740   21.3510 O   0  0  0  0  0  0  0  0  0  0  0  0
  -21.8550   -6.0500   22.5340 C   0  0  0  0  0  0  0  0  0  0  0  0
  -21.1760   -6.7190   23.5750 C   0  0  0  0  0  3  0  0  0  0  0  0
  -20.8220   -6.0200   24.7470 C   0  0  0  0  0  3  0  0  0  0  0  0
  -21.1360   -4.6530   24.8750 C   0  0  0  0  0  0  0  0  0  0  0  0
  -21.8060   -3.9850   23.8360 C   0  0  0  0  0  3  0  0  0  0  0  0
  -22.1610   -4.6800   22.6680 C   0  0  0  0  0  0  0  0  0  0  0  0
  -22.7890   -4.0260   21.6610 F   0  0  0  0  0  0  0  0  0  0  0  0
  -20.7880   -3.9810   25.9970 F   0  0  0  0  0  0  0  0  0  0  0  0
  -23.3660  -13.3100   21.4230 C   0  0  0  0  0  0  0  0  0  0  0  0
  -22.6740  -12.5820   22.2920 N   0  0  0  0  0  0  0  0  0  0  0  0
  -22.9190  -14.3650   20.9780 O   0  0  0  0  0  0  0  0  0  0  0  0
  -23.0490  -11.7270   22.6760 H   0  0  0  0  0  0  0  0  0  0  0  0
  -21.7540  -12.8850   22.5790 H   0  0  0  0  0  0  0  0  0  0  0  0
  -25.9900  -14.9770   20.5870 N   0  0  0  0  0  0  0  0  0  0  0  0
  -25.2510  -15.6420   20.7870 H   0  0  0  0  0  0  0  0  0  0  0  0
  -26.8450  -15.4150   20.2680 H   0  0  0  0  0  0  0  0  0  0  0  0
  -26.8480  -20.1700   17.4710 C   0  0  0  0  0  1  0  0  0  0  0  0
  -26.0780  -19.0600   19.5960 C   0  0  0  0  0  1  0  0  0  0  0  0
  -27.3000  -19.5210   18.7880 C   0  0  0  0  0  3  0  0  0  0  0  0
  -29.1730  -23.7560   21.1930 C   0  0  0  0  0  3  0  0  0  0  0  0
  -28.2710  -24.8690   20.5410 C   0  0  0  0  0  3  0  0  0  0  0  0
  -28.4840  -26.2770   20.9300 O   0  0  0  0  0  0  0  0  0  0  0  0
  -24.6380  -31.7670   23.5390 C   0  0  0  0  0  0  0  0  0  0  0  0
  -27.3960  -27.1420   20.7610 C   0  0  0  0  0  0  0  0  0  0  0  0
  -23.5450  -30.3710   21.8210 C   0  0  0  0  0  3  0  0  0  0  0  0
  -25.0740  -28.7830   20.5370 C   0  0  0  0  0  0  0  0  0  0  0  0
  -26.0960  -30.6450   21.8420 C   0  0  0  0  0  2  0  0  0  0  0  0
  -26.2000  -29.2610   21.2200 C   0  0  0  0  0  0  0  0  0  0  0  0
  -27.3670  -28.4510   21.3240 C   0  0  0  0  0  3  0  0  0  0  0  0
  -26.2530  -26.7170   20.0450 C   0  0  0  0  0  3  0  0  0  0  0  0
  -25.1020  -27.5150   19.9410 C   0  0  0  0  0  3  0  0  0  0  0  0
  -23.8560  -29.6760   20.4710 C   0  0  0  0  0  2  0  0  0  0  0  0
  -24.7740  -30.9450   22.4580 N   0  0  0  0  0  0  0  0  0  0  0  0
  -23.5220  -32.0710   23.9800 O   0  0  0  0  0  0  0  0  0  0  0  0
  -22.7900  -29.3760   22.7350 C   0  0  0  0  0  0  0  0  0  0  0  0
  -21.4720  -29.2350   22.5140 N   0  0  0  0  0  0  0  0  0  0  0  0
  -23.3910  -28.7350   23.6010 O   0  0  0  0  0  0  0  0  0  0  0  0
  -21.0490  -29.8030   21.7930 H   0  0  0  0  0  0  0  0  0  0  0  0
  -18.0180  -28.2210   22.8540 C   0  0  0  0  0  0  0  0  0  0  0  0
  -20.5750  -28.3280   23.2300 C   0  0  0  0  0  3  0  0  0  0  0  0
  -20.6190  -26.9070   22.6250 C   0  0  0  0  0  2  0  0  0  0  0  0
  -19.5430  -26.6690   21.5610 C   0  0  0  0  0  2  0  0  0  0  0  0
  -18.1470  -26.8790   22.1540 C   0  0  0  0  0  2  0  0  0  0  0  0
  -19.1600  -28.9080   23.3460 C   0  0  0  0  0  0  0  0  0  0  0  0
  -18.9870  -30.1690   23.9580 C   0  0  0  0  0  3  0  0  0  0  0  0
  -17.7060  -30.7400   24.0840 C   0  0  0  0  0  3  0  0  0  0  0  0
  -16.5800  -30.0490   23.6080 C   0  0  0  0  0  3  0  0  0  0  0  0
  -16.7360  -28.7890   23.0010 C   0  0  0  0  0  3  0  0  0  0  0  0
  -25.8800  -32.3830   24.2560 C   0  0  0  0  0  3  0  0  0  0  0  0
  -26.2000  -31.6980   25.6400 C   0  0  1  0  0  0  0  0  0  0  0  0
  -24.9750  -31.5840   26.5770 C   0  0  0  0  0  1  0  0  0  0  0  0
  -26.7660  -30.2750   25.4300 C   0  0  0  0  0  1  0  0  0  0  0  0
  -27.2940  -32.5020   26.3820 C   0  0  0  0  0  1  0  0  0  0  0  0
  -25.6210  -33.8190   24.4340 N   0  0  0  0  0  0  0  0  0  0  0  0
  -26.0690  -34.7800   23.6170 C   0  0  0  0  0  0  0  0  0  0  0  0
  -26.8120  -34.5520   22.6580 O   0  0  0  0  0  0  0  0  0  0  0  0
  -24.9740  -34.0730   25.1660 H   0  0  0  0  0  0  0  0  0  0  0  0
  -24.4550  -36.6020   22.9800 C   0  0  0  0  0  1  0  0  0  0  0  0
  -25.6220  -36.2250   23.9080 C   0  0  0  0  0  3  0  0  0  0  0  0
  -27.7350  -37.1010   24.7990 C   0  0  0  0  0  1  0  0  0  0  0  0
  -26.7090  -37.2190   23.7660 N   0  0  0  0  0  0  0  0  0  0  0  0
  -26.3390  -38.1650   23.7930 H   0  0  0  0  0  0  0  0  0  0  0  0
  1  2  1  0
  2  4  2  0
  2 52  1  0
  3  1  2  0
  3  6  1  0
  4  5  1  0
  6 19  1  0
  6  4  1  0
  7 20  1  0
  8 13  1  0
  9 10  1  0
  9  8  1  0
 11 10  1  0
 11 24  1  0
 11 12  1  0
 13  7  1  0
 13 12  1  0
 14  7  2  0
 15 17  1  0
 16 18  1  0
 17 20  1  0
 19 15  1  0
 19 16  1  0
 20 18  1  0
 21 22  2  0
 22 41  1  0
 23 22  1  0
 23 26  1  0
 24 25  1  0
 24 21  1  0
 25 23  2  0
 26 27  1  0
 27 28  2  0
 29 32  1  0
 29 28  1  0
 30 29  2  0
 31 30  1  0
 31 26  2  0
 32 33  1  0
 33 38  2  0
 33 34  1  0
 34 35  2  0
 35 36  1  0
 36 40  1  0
 37 36  2  0
 38 37  1  0
 39 38  1  0
 41 42  1  0
 42 45  1  0
 42 44  1  0
 43 41  2  0
 46 21  1  0
 46 47  1  0
 48 46  1  0
 49 51  1  0
 51 50  1  0
 51  3  1  0
 53 54  1  0
 53 52  2  0
 55 66  2  0
 56 54  1  0
 56 61  1  0
 57 65  1  0
 57 67  1  0
 58 60  1  0
 59 65  1  0
 60 61  2  0
 60 59  1  0
 62 56  2  0
 63 62  1  0
 63 58  2  0
 64 58  1  0
 64 57  1  0
 65 55  1  0
 67 69  2  0
 68 67  1  0
 70 68  1  0
 71 80  2  0
 71 76  1  0
 72 68  1  0
 72 76  1  0
 73 72  1  0
 74 75  1  0
 74 73  1  0
 75 71  1  0
 76 77  2  0
 77 78  1  0
 79 78  2  0
 80 79  1  0
 81 55  1  0
 81 86  1  0
 81 82  1  0
 82 85  1  1
 82 83  1  0
 84 82  1  0
 86 89  1  0
 87 91  1  0
 87 86  1  0
 88 87  2  0
 91 90  1  0
 93 94  1  0
 93 91  1  0
 93 92  1  0
M  ISO  4   7 100  20 100  53 101  54 101
M  END
>  <TORSDO>  (30) 
F 19

>  <SCORE>  (30) 
-12.312

>  <name>  (30) 
29

>  <ligand_id>  (30) 
29

>  <original_smiles>  (30) 
[H]c1c([H])c([H])c2c(c1[H])C([H])([H])C([H])([H])C([H])([H])C2([H])N([H])C(=O)C1([H])N(C(=O)C([H])(N([H])C(=O)C([H])(N([H])C([H])([H])[H])C([H])([H])[H])C(C([H])([H])[H])(C([H])([H])[H])C([H])([H])[H])C([H])([H])c2c([H])c(OC([H])([H])C([H])([H])c3c([H])c(C([H])(C([H])([H])[H])C([H])([H])[H])n(C4([H])C([H])([H])C([H])([H])N(C(=O)N5C([H])([H])C([H])([H])C([H])([H])C([H])(n6nc(-c7c([H])c([H])c(Oc8c([H])c([H])c(F)c([H])c8F)c([H])c7[H])c(C(=O)N([H])[H])c6N([H])[H])C5([H])[H])C([H])([H])C4([H])[H])c3C([H])([H])[H])c([H])c([H])c2C1([H])[H]

>  <smiles>  (30) 
[H]c1c([H])c([H])c2c(c1[H])C([H])([H])C([H])([H])C([H])([H])C2([H])N([H])C(=O)C1([H])N(C(=O)C([H])(N([H])C(=O)C([H])(N([H])C([H])([H])[H])C([H])([H])[H])C(C([H])([H])[H])(C([H])([H])[H])C([H])([H])[H])C([H])([H])c2c([H])c(OC([H])([H])C([H])([H])c3c([H])c(C([H])(C([H])([H])[H])C([H])([H])[H])n(C4([H])C([H])([H])C([H])([H])N(C(=O)N5C([H])([H])C([H])([H])C([H])([H])C([H])(n6nc(-c7c([H])c([H])c(Oc8c([H])c([H])c(F)c([H])c8F)c([H])c7[H])c(C(=O)N([H])[H])c6N([H])[H])C5([H])[H])C([H])([H])C4([H])[H])c3C([H])([H])[H])c([H])c([H])c2C1([H])[H]

$$$$
30:0:0
     RDKit          3D

 97106  0  0  1  0  0  0  0  0999 V2000
  -26.7420  -21.2160   19.2350 C   0  0  0  0  0  3  0  0  0  0  0  0
  -27.4810  -22.3990   19.1490 C   0  0  0  0  0  3  0  0  0  0  0  0
  -29.4480  -21.2160   19.9210 C   0  0  0  0  0  3  0  0  0  0  0  0
  -27.3390  -20.0070   19.6600 C   0  0  0  0  0  0  0  0  0  0  0  0
  -28.7290  -20.0020   19.9890 C   0  0  0  0  0  0  0  0  0  0  0  0
  -28.8420  -22.4020   19.4980 C   0  0  0  0  0  0  0  0  0  0  0  0
  -30.2920  -16.6690   19.4660 C   0  0  0  0  0  2  0  0  0  0  0  0
  -30.8410  -17.4900   21.8170 C   0  0  0  0  0  2  0  0  0  0  0  0
  -29.9100  -18.1040   19.1210 C   0  0  0  0  0  2  0  0  0  0  0  0
  -30.4230  -18.9080   21.3760 C   0  0  0  0  0  2  0  0  0  0  0  0
  -31.3120  -16.5940   20.6310 C   0  0  0  0  0  3  0  0  0  0  0  0
  -29.4280  -18.8190   20.3060 N   0  0  0  0  0  0  0  0  0  0  0  0
  -32.1960  -14.2170   20.6990 C   0  0  0  0  0  0  0  0  0  0  0  0
  -32.1110  -11.8270   20.1020 C   0  0  0  0  0  2  0  0  0  0  0  0
  -31.2480  -11.6550   18.8300 C   0  0  0  0  0  2  0  0  0  0  0  0
  -29.7440  -11.5790   19.1800 C   0  0  0  0  0  2  0  0  0  0  0  0
  -29.2960  -12.7070   20.1510 C   0  0  0  0  0  3  0  0  0  0  0  0
  -30.2580  -12.7590   21.3560 C   0  0  0  0  0  2  0  0  0  0  0  0
  -31.6210  -12.9990   20.8410 N   0  0  0  0  0  0  0  0  0  0  0  0
  -33.2890  -14.4040   20.1550 O   0  0  0  0  0  0  0  0  0  0  0  0
  -31.3690  -15.2060   21.0850 N   0  0  0  0  0  0  0  0  0  0  0  0
  -30.4840  -14.8580   21.4170 H   0  0  0  0  0  0  0  0  0  0  0  0
  -26.9510  -13.4730   20.8920 C   0  0  0  0  0  0  0  0  0  0  0  0
  -25.8120  -12.7840   21.2160 C   0  0  0  0  0  0  0  0  0  0  0  0
  -26.1420  -11.4020   21.0630 C   0  0  0  0  0  0  0  0  0  0  0  0
  -27.9120  -12.5180   20.5920 N   0  0  0  0  0  0  0  0  0  0  0  0
  -27.4180  -11.2630   20.7260 N   0  0  0  0  0  0  0  0  0  0  0  0
  -25.2920  -10.2100   21.1460 C   0  0  0  0  0  0  0  0  0  0  0  0
  -25.4330   -9.2730   22.1910 C   0  0  0  0  0  3  0  0  0  0  0  0
  -24.5980   -8.1360   22.2490 C   0  0  0  0  0  3  0  0  0  0  0  0
  -23.6060   -7.9340   21.2590 C   0  0  0  0  0  0  0  0  0  0  0  0
  -23.4870   -8.8600   20.2060 C   0  0  0  0  0  3  0  0  0  0  0  0
  -24.3250   -9.9860   20.1480 C   0  0  0  0  0  3  0  0  0  0  0  0
  -22.7560   -6.8500   21.2290 O   0  0  0  0  0  0  0  0  0  0  0  0
  -22.2150   -6.3340   22.3770 C   0  0  0  0  0  0  0  0  0  0  0  0
  -21.3980   -7.1080   23.2320 C   0  0  0  0  0  3  0  0  0  0  0  0
  -20.8120   -6.5200   24.3690 C   0  0  0  0  0  3  0  0  0  0  0  0
  -21.0210   -5.1550   24.6420 C   0  0  0  0  0  0  0  0  0  0  0  0
  -21.8280   -4.3810   23.7900 C   0  0  0  0  0  3  0  0  0  0  0  0
  -22.4240   -4.9690   22.6610 C   0  0  0  0  0  0  0  0  0  0  0  0
  -23.1880   -4.2160   21.8330 F   0  0  0  0  0  0  0  0  0  0  0  0
  -20.4470   -4.5860   25.7280 F   0  0  0  0  0  0  0  0  0  0  0  0
  -24.4730  -13.3830   21.5350 C   0  0  0  0  0  0  0  0  0  0  0  0
  -23.6800  -12.7030   22.3560 N   0  0  0  0  0  0  0  0  0  0  0  0
  -24.1360  -14.4810   21.0970 O   0  0  0  0  0  0  0  0  0  0  0  0
  -23.9710  -11.8160   22.7380 H   0  0  0  0  0  0  0  0  0  0  0  0
  -22.7740  -13.0740   22.5980 H   0  0  0  0  0  0  0  0  0  0  0  0
  -27.2370  -14.8190   20.7980 N   0  0  0  0  0  0  0  0  0  0  0  0
  -26.5130  -15.5220   20.9030 H   0  0  0  0  0  0  0  0  0  0  0  0
  -28.1080  -15.1950   20.4520 H   0  0  0  0  0  0  0  0  0  0  0  0
  -27.0770  -17.5890   18.9460 C   0  0  0  0  0  1  0  0  0  0  0  0
  -25.0140  -18.9450   19.2280 C   0  0  0  0  0  1  0  0  0  0  0  0
  -26.4660  -18.7490   19.7350 C   0  0  0  0  0  3  0  0  0  0  0  0
  -29.6340  -23.5090   19.3960 O   0  0  0  0  0  0  0  0  0  0  0  0
  -29.2030  -24.5930   20.1830 C   0  0  0  0  0  2  0  0  0  0  0  0
  -29.8350  -25.8640   19.6460 C   0  0  0  0  0  2  0  0  0  0  0  0
  -29.4350  -26.8890   20.5210 O   0  0  0  0  0  0  0  0  0  0  0  0
  -25.0700  -31.4840   23.5760 C   0  0  0  0  0  0  0  0  0  0  0  0
  -28.1560  -27.3940   20.4720 C   0  0  0  0  0  0  0  0  0  0  0  0
  -24.0340  -30.1160   21.7860 C   0  0  0  0  0  3  0  0  0  0  0  0
  -25.6580  -28.7050   20.4080 C   0  0  0  0  0  0  0  0  0  0  0  0
  -26.5390  -30.6000   21.7860 C   0  0  0  0  0  2  0  0  0  0  0  0
  -26.7290  -29.2610   21.1130 C   0  0  0  0  0  0  0  0  0  0  0  0
  -27.9670  -28.5990   21.1630 C   0  0  0  0  0  3  0  0  0  0  0  0
  -27.0670  -26.8280   19.7570 C   0  0  0  0  0  3  0  0  0  0  0  0
  -25.8160  -27.4790   19.7310 C   0  0  0  0  0  3  0  0  0  0  0  0
  -24.3770  -29.5010   20.3980 C   0  0  0  0  0  2  0  0  0  0  0  0
  -25.2240  -30.7430   22.4440 N   0  0  0  0  0  0  0  0  0  0  0  0
  -23.9480  -31.6890   24.0590 O   0  0  0  0  0  0  0  0  0  0  0  0
  -23.3600  -29.0280   22.6500 C   0  0  0  0  0  0  0  0  0  0  0  0
  -22.0780  -28.7500   22.3700 N   0  0  0  0  0  0  0  0  0  0  0  0
  -23.9950  -28.4320   23.5230 O   0  0  0  0  0  0  0  0  0  0  0  0
  -21.6290  -29.2930   21.6440 H   0  0  0  0  0  0  0  0  0  0  0  0
  -18.7780  -27.2830   22.4460 C   0  0  0  0  0  0  0  0  0  0  0  0
  -21.2540  -27.7340   23.0290 C   0  0  0  0  0  3  0  0  0  0  0  0
  -21.5360  -26.3300   22.4500 C   0  0  0  0  0  2  0  0  0  0  0  0
  -20.5900  -25.9340   21.3120 C   0  0  0  0  0  2  0  0  0  0  0  0
  -19.1410  -25.9590   21.7970 C   0  0  0  0  0  2  0  0  0  0  0  0
  -19.7700  -28.1230   23.0170 C   0  0  0  0  0  0  0  0  0  0  0  0
  -19.3820  -29.3570   23.5830 C   0  0  0  0  0  3  0  0  0  0  0  0
  -18.0320  -29.7510   23.5870 C   0  0  0  0  0  3  0  0  0  0  0  0
  -17.0530  -28.9130   23.0310 C   0  0  0  0  0  3  0  0  0  0  0  0
  -17.4260  -27.6820   22.4620 C   0  0  0  0  0  3  0  0  0  0  0  0
  -26.2900  -32.1270   24.3110 C   0  0  0  0  0  3  0  0  0  0  0  0
  -25.9770  -33.5430   24.5360 N   0  0  0  0  0  0  0  0  0  0  0  0
  -26.4420  -34.5480   23.7830 C   0  0  0  0  0  0  0  0  0  0  0  0
  -27.2500  -34.3830   22.8650 O   0  0  0  0  0  0  0  0  0  0  0  0
  -25.2860  -33.7430   25.2430 H   0  0  0  0  0  0  0  0  0  0  0  0
  -24.8410  -36.3560   23.0850 C   0  0  0  0  0  1  0  0  0  0  0  0
  -25.9290  -35.9660   24.1000 C   0  0  0  0  0  3  0  0  0  0  0  0
  -27.9260  -36.8500   25.2240 C   0  0  0  0  0  1  0  0  0  0  0  0
  -26.9970  -36.9920   24.1060 N   0  0  0  0  0  0  0  0  0  0  0  0
  -26.5970  -37.9260   24.1450 H   0  0  0  0  0  0  0  0  0  0  0  0
  -26.6480  -31.4090   25.6700 C   0  0  1  0  0  0  0  0  0  0  0  0
  -25.4320  -31.2220   26.6070 C   0  0  0  0  0  1  0  0  0  0  0  0
  -27.2620  -30.0140   25.4000 C   0  0  0  0  0  1  0  0  0  0  0  0
  -27.7260  -32.2220   26.4230 C   0  0  0  0  0  1  0  0  0  0  0  0
  1  4  1  0
  2  1  2  0
  2  6  1  0
  3  5  1  0
  4 53  1  0
  4  5  2  0
  5 12  1  0
  6  3  2  0
  7 11  1  0
  9  7  1  0
  9 12  1  0
 10  8  1  0
 11 21  1  0
 11  8  1  0
 12 10  1  0
 13 19  1  0
 13 21  1  0
 14 19  1  0
 15 16  1  0
 15 14  1  0
 17 16  1  0
 17 26  1  0
 17 18  1  0
 19 18  1  0
 20 13  2  0
 21 22  1  0
 23 24  2  0
 24 43  1  0
 25 28  1  0
 25 24  1  0
 26 27  1  0
 26 23  1  0
 27 25  2  0
 28 29  1  0
 29 30  2  0
 31 30  1  0
 32 31  2  0
 33 32  1  0
 33 28  2  0
 34 31  1  0
 34 35  1  0
 35 40  2  0
 35 36  1  0
 36 37  2  0
 37 38  1  0
 38 42  1  0
 39 38  2  0
 40 39  1  0
 41 40  1  0
 43 44  1  0
 44 47  1  0
 44 46  1  0
 45 43  2  0
 48 23  1  0
 48 49  1  0
 50 48  1  0
 51 53  1  0
 52 53  1  0
 54  6  1  0
 54 55  1  0
 56 55  1  0
 56 57  1  0
 58 69  2  0
 59 57  1  0
 59 64  1  0
 60 68  1  0
 60 70  1  0
 61 63  1  0
 62 68  1  0
 63 64  2  0
 63 62  1  0
 65 59  2  0
 66 65  1  0
 66 61  2  0
 67 61  1  0
 67 60  1  0
 68 58  1  0
 70 72  2  0
 71 70  1  0
 73 71  1  0
 74 83  2  0
 74 79  1  0
 75 71  1  0
 76 75  1  0
 77 78  1  0
 77 76  1  0
 78 74  1  0
 79 75  1  0
 79 80  2  0
 80 81  1  0
 82 81  2  0
 83 82  1  0
 84 58  1  0
 84 85  1  0
 84 94  1  0
 85 88  1  0
 86 90  1  0
 86 85  1  0
 87 86  2  0
 90 89  1  0
 90 92  1  0
 92 93  1  0
 92 91  1  0
 94 97  1  1
 94 95  1  0
 96 94  1  0
M  ISO  4  13 100  21 100  56 101  57 101
M  END
>  <TORSDO>  (31) 
F 21

>  <SCORE>  (31) 
-8.746

>  <name>  (31) 
30

>  <ligand_id>  (31) 
30

>  <original_smiles>  (31) 
[H]c1c([H])c([H])c2c(c1[H])C([H])([H])C([H])([H])C([H])([H])C2([H])N([H])C(=O)C1([H])N(C(=O)C([H])(N([H])C(=O)C([H])(N([H])C([H])([H])[H])C([H])([H])[H])C(C([H])([H])[H])(C([H])([H])[H])C([H])([H])[H])C([H])([H])c2c([H])c(OC([H])([H])C([H])([H])Oc3c([H])c([H])c(C([H])(C([H])([H])[H])C([H])([H])[H])c(N4C([H])([H])C([H])([H])C([H])(N([H])C(=O)N5C([H])([H])C([H])([H])C([H])([H])C([H])(n6nc(-c7c([H])c([H])c(Oc8c([H])c([H])c(F)c([H])c8F)c([H])c7[H])c(C(=O)N([H])[H])c6N([H])[H])C5([H])[H])C([H])([H])C4([H])[H])c3[H])c([H])c([H])c2C1([H])[H]

>  <smiles>  (31) 
[H]c1c([H])c([H])c2c(c1[H])C([H])([H])C([H])([H])C([H])([H])C2([H])N([H])C(=O)C1([H])N(C(=O)C([H])(N([H])C(=O)C([H])(N([H])C([H])([H])[H])C([H])([H])[H])C(C([H])([H])[H])(C([H])([H])[H])C([H])([H])[H])C([H])([H])c2c([H])c(OC([H])([H])C([H])([H])Oc3c([H])c([H])c(C([H])(C([H])([H])[H])C([H])([H])[H])c(N4C([H])([H])C([H])([H])C([H])(N([H])C(=O)N5C([H])([H])C([H])([H])C([H])([H])C([H])(n6nc(-c7c([H])c([H])c(Oc8c([H])c([H])c(F)c([H])c8F)c([H])c7[H])c(C(=O)N([H])[H])c6N([H])[H])C5([H])[H])C([H])([H])C4([H])[H])c3[H])c([H])c([H])c2C1([H])[H]

$$$$
31:0:0
     RDKit          3D

 98108  0  0  1  0  0  0  0  0999 V2000
  -30.1250  -22.0990   21.0370 C   0  0  0  0  0  3  0  0  0  0  0  0
  -29.1640  -20.2270   19.8200 C   0  0  0  0  0  3  0  0  0  0  0  0
  -30.8530  -21.2080   21.8510 C   0  0  0  0  0  0  0  0  0  0  0  0
  -29.9110  -19.3030   20.5970 C   0  0  0  0  0  0  0  0  0  0  0  0
  -30.7600  -19.8150   21.6150 C   0  0  0  0  0  0  0  0  0  0  0  0
  -29.2800  -21.6250   20.0110 C   0  0  0  0  0  0  0  0  0  0  0  0
  -30.1690  -13.8660   19.7650 C   0  0  0  0  0  0  0  0  0  0  0  0
  -29.7140  -11.7510   18.5940 C   0  0  0  0  0  2  0  0  0  0  0  0
  -28.5770  -12.0100   17.5840 C   0  0  0  0  0  2  0  0  0  0  0  0
  -27.2040  -11.8080   18.2550 C   0  0  0  0  0  2  0  0  0  0  0  0
  -27.0760  -12.5590   19.6090 C   0  0  0  0  0  3  0  0  0  0  0  0
  -28.3170  -12.3160   20.4990 C   0  0  0  0  0  2  0  0  0  0  0  0
  -29.5100  -12.6760   19.7180 N   0  0  0  0  0  0  0  0  0  0  0  0
  -31.2520  -14.0440   19.2000 O   0  0  0  0  0  0  0  0  0  0  0  0
  -29.7750  -16.9070   21.5940 C   0  0  0  0  0  2  0  0  0  0  0  0
  -28.7620  -17.3150   19.3390 C   0  0  0  0  0  2  0  0  0  0  0  0
  -29.1930  -15.4780   21.3840 C   0  0  0  0  0  2  0  0  0  0  0  0
  -29.0260  -15.8540   18.9130 C   0  0  0  0  0  2  0  0  0  0  0  0
  -29.8500  -17.7810   20.3190 C   0  0  0  0  0  3  0  0  0  0  0  0
  -29.3760  -14.9400   20.0240 N   0  0  0  0  0  0  0  0  0  0  0  0
  -24.8460  -13.0590   20.7870 C   0  0  0  0  0  0  0  0  0  0  0  0
  -23.8650  -12.2370   21.2740 C   0  0  0  0  0  0  0  0  0  0  0  0
  -24.3200  -10.9020   21.0460 C   0  0  0  0  0  0  0  0  0  0  0  0
  -25.8360  -12.2200   20.2990 N   0  0  0  0  0  0  0  0  0  0  0  0
  -25.5330  -10.9130   20.5100 N   0  0  0  0  0  0  0  0  0  0  0  0
  -23.6470   -9.6140   21.2550 C   0  0  0  0  0  0  0  0  0  0  0  0
  -24.1760   -8.6360   22.1250 C   0  0  0  0  0  3  0  0  0  0  0  0
  -23.5010   -7.4130   22.3220 C   0  0  0  0  0  3  0  0  0  0  0  0
  -22.2820   -7.1580   21.6490 C   0  0  0  0  0  0  0  0  0  0  0  0
  -21.7720   -8.1250   20.7660 C   0  0  0  0  0  3  0  0  0  0  0  0
  -22.4480   -9.3400   20.5670 C   0  0  0  0  0  3  0  0  0  0  0  0
  -21.5700   -5.9890   21.7600 O   0  0  0  0  0  0  0  0  0  0  0  0
  -21.5760   -5.2480   22.9160 C   0  0  0  0  0  0  0  0  0  0  0  0
  -21.0730   -5.7610   24.1310 C   0  0  0  0  0  3  0  0  0  0  0  0
  -21.0350   -4.9430   25.2790 C   0  0  0  0  0  3  0  0  0  0  0  0
  -21.4890   -3.6110   25.2100 C   0  0  0  0  0  0  0  0  0  0  0  0
  -21.9840   -3.0980   23.9990 C   0  0  0  0  0  3  0  0  0  0  0  0
  -22.0250   -3.9140   22.8540 C   0  0  0  0  0  0  0  0  0  0  0  0
  -22.4820   -3.4070   21.6840 F   0  0  0  0  0  0  0  0  0  0  0  0
  -21.4450   -2.8230   26.3090 F   0  0  0  0  0  0  0  0  0  0  0  0
  -22.5370  -12.6590   21.8320 C   0  0  0  0  0  0  0  0  0  0  0  0
  -21.9710  -11.8660   22.7350 N   0  0  0  0  0  0  0  0  0  0  0  0
  -22.0170  -13.7260   21.5060 O   0  0  0  0  0  0  0  0  0  0  0  0
  -22.4090  -11.0020   23.0180 H   0  0  0  0  0  0  0  0  0  0  0  0
  -21.0880  -12.1270   23.1510 H   0  0  0  0  0  0  0  0  0  0  0  0
  -24.9700  -14.4430   20.6990 N   0  0  0  0  0  0  0  0  0  0  0  0
  -24.2380  -15.0750   21.0030 H   0  0  0  0  0  0  0  0  0  0  0  0
  -25.7580  -14.9200   20.2810 H   0  0  0  0  0  0  0  0  0  0  0  0
  -31.7410  -21.1810   24.3250 C   0  0  0  0  0  2  0  0  0  0  0  0
  -31.1920  -22.5680   24.0970 C   0  0  0  0  0  2  0  0  0  0  0  0
  -31.7410  -21.7690   22.9320 C   0  0  0  0  0  3  0  0  0  0  0  0
  -31.5360  -18.9520   22.3900 N   0  0  0  0  0  0  0  0  0  0  0  0
  -31.8920  -19.3020   23.2720 H   0  0  0  0  0  0  0  0  0  0  0  0
  -31.2750  -17.9750   22.4250 H   0  0  0  0  0  0  0  0  0  0  0  0
  -28.5540  -22.4580   19.1770 O   0  0  0  0  0  0  0  0  0  0  0  0
  -28.9240  -23.8420   19.0540 C   0  0  0  0  0  2  0  0  0  0  0  0
  -28.2760  -24.7520   20.1200 C   0  0  0  0  0  2  0  0  0  0  0  0
  -28.4360  -26.1450   19.7970 O   0  0  0  0  0  0  0  0  0  0  0  0
  -24.7550  -31.3030   23.0210 C   0  0  0  0  0  0  0  0  0  0  0  0
  -27.2910  -26.9110   19.7940 C   0  0  0  0  0  0  0  0  0  0  0  0
  -23.5240  -30.0110   21.3070 C   0  0  0  0  0  3  0  0  0  0  0  0
  -24.9460  -28.4900   19.8330 C   0  0  0  0  0  0  0  0  0  0  0  0
  -26.0600  -30.3000   21.1500 C   0  0  0  0  0  2  0  0  0  0  0  0
  -26.1120  -28.9550   20.4540 C   0  0  0  0  0  0  0  0  0  0  0  0
  -27.2900  -28.1740   20.4280 C   0  0  0  0  0  3  0  0  0  0  0  0
  -26.1120  -26.4610   19.1590 C   0  0  0  0  0  3  0  0  0  0  0  0
  -24.9410  -27.2430   19.1820 C   0  0  0  0  0  3  0  0  0  0  0  0
  -23.7280  -29.3840   19.9020 C   0  0  0  0  0  2  0  0  0  0  0  0
  -24.7980  -30.5500   21.8850 N   0  0  0  0  0  0  0  0  0  0  0  0
  -23.6780  -31.5880   23.5610 O   0  0  0  0  0  0  0  0  0  0  0  0
  -22.8310  -28.9710   22.2170 C   0  0  0  0  0  0  0  0  0  0  0  0
  -21.4950  -28.8770   22.1070 N   0  0  0  0  0  0  0  0  0  0  0  0
  -23.4900  -28.2560   22.9760 O   0  0  0  0  0  0  0  0  0  0  0  0
  -21.0270  -29.5010   21.4660 H   0  0  0  0  0  0  0  0  0  0  0  0
  -18.0570  -27.9230   22.6770 C   0  0  0  0  0  0  0  0  0  0  0  0
  -20.6380  -27.9440   22.8370 C   0  0  0  0  0  3  0  0  0  0  0  0
  -20.5900  -26.5680   22.1350 C   0  0  0  0  0  2  0  0  0  0  0  0
  -19.4190  -26.4300   21.1550 C   0  0  0  0  0  2  0  0  0  0  0  0
  -18.0860  -26.6310   21.8800 C   0  0  0  0  0  2  0  0  0  0  0  0
  -19.2550  -28.5480   23.1120 C   0  0  0  0  0  0  0  0  0  0  0  0
  -19.1740  -29.7680   23.8180 C   0  0  0  0  0  3  0  0  0  0  0  0
  -17.9270  -30.3600   24.0930 C   0  0  0  0  0  3  0  0  0  0  0  0
  -16.7430  -29.7290   23.6730 C   0  0  0  0  0  3  0  0  0  0  0  0
  -16.8090  -28.5120   22.9720 C   0  0  0  0  0  3  0  0  0  0  0  0
  -26.0540  -31.8660   23.6790 C   0  0  0  0  0  3  0  0  0  0  0  0
  -25.7680  -33.2370   24.1220 N   0  0  0  0  0  0  0  0  0  0  0  0
  -26.1060  -34.3410   23.4420 C   0  0  0  0  0  0  0  0  0  0  0  0
  -26.7640  -34.3090   22.3980 O   0  0  0  0  0  0  0  0  0  0  0  0
  -25.1850  -33.3360   24.9390 H   0  0  0  0  0  0  0  0  0  0  0  0
  -24.3930  -36.1710   23.2480 C   0  0  0  0  0  1  0  0  0  0  0  0
  -25.6390  -35.6950   24.0110 C   0  0  0  0  0  3  0  0  0  0  0  0
  -27.7860  -36.4990   24.8910 C   0  0  0  0  0  1  0  0  0  0  0  0
  -26.6830  -36.7420   23.9650 N   0  0  0  0  0  0  0  0  0  0  0  0
  -26.2870  -37.6540   24.1780 H   0  0  0  0  0  0  0  0  0  0  0  0
  -26.5720  -30.9850   24.8810 C   0  0  1  0  0  0  0  0  0  0  0  0
  -25.4850  -30.6670   25.9330 C   0  0  0  0  0  1  0  0  0  0  0  0
  -27.1390  -29.6420   24.3680 C   0  0  0  0  0  1  0  0  0  0  0  0
  -27.7380  -31.7100   25.5960 C   0  0  0  0  0  1  0  0  0  0  0  0
  1  3  1  0
  2  6  1  0
  2  4  2  0
  3 51  1  0
  4  5  1  0
  5  3  2  0
  5 52  1  0
  6  1  2  0
  7 20  1  0
  8 13  1  0
  9 10  1  0
  9  8  1  0
 11 10  1  0
 11 24  1  0
 11 12  1  0
 13  7  1  0
 13 12  1  0
 14  7  2  0
 16 19  1  0
 17 15  1  0
 18 16  1  0
 18 20  1  0
 19  4  1  0
 19 15  1  0
 20 17  1  0
 21 22  2  0
 22 41  1  0
 23 26  1  0
 23 22  1  0
 24 25  1  0
 24 21  1  0
 25 23  2  0
 26 27  1  0
 27 28  2  0
 29 32  1  0
 29 28  1  0
 30 29  2  0
 31 30  1  0
 31 26  2  0
 32 33  1  0
 33 34  1  0
 34 35  2  0
 36 35  1  0
 36 40  1  0
 37 36  2  0
 38 33  2  0
 38 37  1  0
 39 38  1  0
 41 42  1  0
 42 44  1  0
 42 45  1  0
 43 41  2  0
 46 21  1  0
 46 47  1  0
 48 46  1  0
 50 49  1  0
 51 50  1  0
 51 49  1  0
 52 54  1  0
 52 53  1  0
 55  6  1  0
 56 55  1  0
 56 57  1  0
 58 57  1  0
 59 70  2  0
 60 58  1  0
 60 65  1  0
 61 69  1  0
 61 71  1  0
 62 68  1  0
 62 64  1  0
 63 69  1  0
 64 63  1  0
 65 64  2  0
 66 67  1  0
 66 60  2  0
 67 62  2  0
 68 61  1  0
 69 59  1  0
 71 73  2  0
 72 71  1  0
 74 72  1  0
 75 84  2  0
 75 80  1  0
 76 72  1  0
 76 80  1  0
 77 76  1  0
 78 79  1  0
 78 77  1  0
 79 75  1  0
 80 81  2  0
 81 82  1  0
 83 82  2  0
 84 83  1  0
 85 59  1  0
 85 86  1  0
 85 95  1  0
 86 89  1  0
 87 91  1  0
 87 86  1  0
 88 87  2  0
 91 90  1  0
 93 91  1  0
 93 94  1  0
 93 92  1  0
 95 98  1  1
 95 96  1  0
 97 95  1  0
M  ISO  4   7 100  20 100  57 101  58 101
M  END
>  <TORSDO>  (32) 
F 21

>  <SCORE>  (32) 
-9.667

>  <name>  (32) 
31

>  <ligand_id>  (32) 
31

>  <original_smiles>  (32) 
[H]c1c([H])c([H])c2c(c1[H])C([H])([H])C([H])([H])C([H])([H])C2([H])N([H])C(=O)C1([H])N(C(=O)C([H])(N([H])C(=O)C([H])(N([H])C([H])([H])[H])C([H])([H])[H])C(C([H])([H])[H])(C([H])([H])[H])C([H])([H])[H])C([H])([H])c2c([H])c(OC([H])([H])C([H])([H])Oc3c([H])c(C4([H])C([H])([H])C([H])([H])N(C(=O)N5C([H])([H])C([H])([H])C([H])([H])C([H])(n6nc(-c7c([H])c([H])c(Oc8c([H])c([H])c(F)c([H])c8F)c([H])c7[H])c(C(=O)N([H])[H])c6N([H])[H])C5([H])[H])C([H])([H])C4([H])[H])c(N([H])[H])c(C4([H])C([H])([H])C4([H])[H])c3[H])c([H])c([H])c2C1([H])[H]

>  <smiles>  (32) 
[H]c1c([H])c([H])c2c(c1[H])C([H])([H])C([H])([H])C([H])([H])C2([H])N([H])C(=O)C1([H])N(C(=O)C([H])(N([H])C(=O)C([H])(N([H])C([H])([H])[H])C([H])([H])[H])C(C([H])([H])[H])(C([H])([H])[H])C([H])([H])[H])C([H])([H])c2c([H])c(OC([H])([H])C([H])([H])Oc3c([H])c(C4([H])C([H])([H])C([H])([H])N(C(=O)N5C([H])([H])C([H])([H])C([H])([H])C([H])(n6nc(-c7c([H])c([H])c(Oc8c([H])c([H])c(F)c([H])c8F)c([H])c7[H])c(C(=O)N([H])[H])c6N([H])[H])C5([H])[H])C([H])([H])C4([H])[H])c(N([H])[H])c(C4([H])C([H])([H])C4([H])[H])c3[H])c([H])c([H])c2C1([H])[H]

$$$$
32:0:0
     RDKit          3D

 99110  0  0  1  0  0  0  0  0999 V2000
  -28.1690  -24.1980   19.4610 C   0  0  0  0  0  2  0  0  0  0  0  0
  -28.7300  -22.7870   19.8190 C   0  0  0  0  0  2  0  0  0  0  0  0
  -30.0180  -24.9500   21.0260 C   0  0  0  0  0  2  0  0  0  0  0  0
  -30.7600  -22.4050   18.3020 C   0  0  0  0  0  2  0  0  0  0  0  0
  -30.8990  -24.0660   20.0980 C   0  0  0  0  0  3  0  0  0  0  0  0
  -31.0540  -23.7470   17.6760 C   0  0  0  0  0  3  0  0  0  0  0  0
  -31.1860  -24.7700   18.7750 C   0  0  0  0  0  3  0  0  0  0  0  0
  -32.3500  -24.4970   17.8490 C   0  0  0  0  0  3  0  0  0  0  0  0
  -28.6200  -25.3060   20.4570 C   0  0  0  0  0  3  0  0  0  0  0  0
  -30.2920  -22.6380   19.7640 C   0  0  1  0  0  0  0  0  0  0  0  0
  -33.6380  -23.8460   18.3150 C   0  0  0  0  0  1  0  0  0  0  0  0
  -32.3020  -21.4280   21.0180 C   0  0  0  0  0  1  0  0  0  0  0  0
  -30.7750  -21.4510   20.7310 C   0  0  0  0  0  3  0  0  0  0  0  0
  -30.5660  -17.7780   19.2370 C   0  0  0  0  0  2  0  0  0  0  0  0
  -29.6210  -17.7810   21.4920 C   0  0  0  0  0  2  0  0  0  0  0  0
  -31.0330  -19.2540   19.4170 C   0  0  0  0  0  2  0  0  0  0  0  0
  -30.0600  -19.2570   21.6950 C   0  0  0  0  0  2  0  0  0  0  0  0
  -30.5800  -17.0010   20.5710 C   0  0  0  0  0  3  0  0  0  0  0  0
  -30.2530  -20.0480   20.4320 N   0  0  1  0  0  4  0  0  0  0  0  0
  -29.3260  -20.1740   20.0500 H   0  0  0  0  0  0  0  0  0  0  0  0
  -30.9240  -14.5260   20.0030 C   0  0  0  0  0  0  0  0  0  0  0  0
  -30.5910  -12.3250   18.9250 C   0  0  0  0  0  2  0  0  0  0  0  0
  -29.5760  -12.4850   17.7740 C   0  0  0  0  0  2  0  0  0  0  0  0
  -28.1290  -12.3550   18.2920 C   0  0  0  0  0  2  0  0  0  0  0  0
  -27.8630  -13.2240   19.5510 C   0  0  0  0  0  3  0  0  0  0  0  0
  -28.9820  -13.0320   20.6000 C   0  0  0  0  0  2  0  0  0  0  0  0
  -30.2650  -13.3350   19.9450 N   0  0  0  0  0  0  0  0  0  0  0  0
  -32.0450  -14.6910   19.5150 O   0  0  0  0  0  0  0  0  0  0  0  0
  -30.1980  -15.5690   20.4700 N   0  0  0  0  0  0  0  0  0  0  0  0
  -29.2810  -15.3240   20.8100 H   0  0  0  0  0  0  0  0  0  0  0  0
  -25.5350  -13.8630   20.4380 C   0  0  0  0  0  0  0  0  0  0  0  0
  -24.4750  -13.1040   20.8550 C   0  0  0  0  0  0  0  0  0  0  0  0
  -24.8990  -11.7430   20.7540 C   0  0  0  0  0  0  0  0  0  0  0  0
  -26.5400  -12.9650   20.1130 N   0  0  0  0  0  0  0  0  0  0  0  0
  -26.1640  -11.6840   20.3590 N   0  0  0  0  0  0  0  0  0  0  0  0
  -24.1560  -10.4930   20.9520 C   0  0  0  0  0  0  0  0  0  0  0  0
  -24.5860   -9.5180   21.8800 C   0  0  0  0  0  3  0  0  0  0  0  0
  -23.8440   -8.3320   22.0670 C   0  0  0  0  0  3  0  0  0  0  0  0
  -22.6590   -8.1120   21.3250 C   0  0  0  0  0  0  0  0  0  0  0  0
  -22.2480   -9.0750   20.3870 C   0  0  0  0  0  3  0  0  0  0  0  0
  -22.9910  -10.2530   20.1990 C   0  0  0  0  0  3  0  0  0  0  0  0
  -21.8880   -6.9790   21.4220 O   0  0  0  0  0  0  0  0  0  0  0  0
  -21.7980   -6.2680   22.5920 C   0  0  0  0  0  0  0  0  0  0  0  0
  -21.3090   -6.8490   23.7820 C   0  0  0  0  0  3  0  0  0  0  0  0
  -21.1680   -6.0630   24.9430 C   0  0  0  0  0  3  0  0  0  0  0  0
  -21.5050   -4.6970   24.9150 C   0  0  0  0  0  0  0  0  0  0  0  0
  -21.9860   -4.1150   23.7290 C   0  0  0  0  0  3  0  0  0  0  0  0
  -22.1300   -4.8970   22.5700 C   0  0  0  0  0  0  0  0  0  0  0  0
  -22.5740   -4.3270   21.4240 F   0  0  0  0  0  0  0  0  0  0  0  0
  -21.3620   -3.9400   26.0270 F   0  0  0  0  0  0  0  0  0  0  0  0
  -23.1100  -13.6040   21.2340 C   0  0  0  0  0  0  0  0  0  0  0  0
  -22.4240  -12.8950   22.1240 N   0  0  0  0  0  0  0  0  0  0  0  0
  -22.6650  -14.6560   20.7770 O   0  0  0  0  0  0  0  0  0  0  0  0
  -22.7980  -12.0430   22.5120 H   0  0  0  0  0  0  0  0  0  0  0  0
  -21.5120  -13.2110   22.4210 H   0  0  0  0  0  0  0  0  0  0  0  0
  -25.7230  -15.2340   20.2880 N   0  0  0  0  0  0  0  0  0  0  0  0
  -24.9780  -15.9020   20.4580 H   0  0  0  0  0  0  0  0  0  0  0  0
  -26.5470  -15.6580   19.8840 H   0  0  0  0  0  0  0  0  0  0  0  0
  -28.6390  -26.6610   19.9210 O   0  0  0  0  0  0  0  0  0  0  0  0
  -24.6880  -31.7200   23.0950 C   0  0  0  0  0  0  0  0  0  0  0  0
  -27.4530  -27.3790   19.9440 C   0  0  0  0  0  0  0  0  0  0  0  0
  -23.5180  -30.2980   21.4470 C   0  0  0  0  0  3  0  0  0  0  0  0
  -25.0120  -28.8280   19.9900 C   0  0  0  0  0  0  0  0  0  0  0  0
  -26.0320  -30.7400   21.2340 C   0  0  0  0  0  2  0  0  0  0  0  0
  -26.1600  -29.3790   20.5730 C   0  0  0  0  0  0  0  0  0  0  0  0
  -27.3850  -28.6650   20.5390 C   0  0  0  0  0  3  0  0  0  0  0  0
  -26.2850  -26.8560   19.3490 C   0  0  0  0  0  3  0  0  0  0  0  0
  -25.0710  -27.5680   19.3720 C   0  0  0  0  0  3  0  0  0  0  0  0
  -23.7400  -29.6460   20.0560 C   0  0  0  0  0  2  0  0  0  0  0  0
  -24.7650  -30.9350   21.9830 N   0  0  0  0  0  0  0  0  0  0  0  0
  -23.6030  -31.9480   23.6480 O   0  0  0  0  0  0  0  0  0  0  0  0
  -22.9100  -29.2430   22.3990 C   0  0  0  0  0  0  0  0  0  0  0  0
  -21.5930  -29.0110   22.2750 N   0  0  0  0  0  0  0  0  0  0  0  0
  -23.6200  -28.6370   23.2050 O   0  0  0  0  0  0  0  0  0  0  0  0
  -21.0790  -29.5550   21.5960 H   0  0  0  0  0  0  0  0  0  0  0  0
  -18.2770  -27.6510   22.7430 C   0  0  0  0  0  0  0  0  0  0  0  0
  -20.8170  -28.0340   23.0380 C   0  0  0  0  0  3  0  0  0  0  0  0
  -20.9950  -26.6100   22.4630 C   0  0  0  0  0  2  0  0  0  0  0  0
  -19.9200  -26.2330   21.4390 C   0  0  0  0  0  2  0  0  0  0  0  0
  -18.5260  -26.3110   22.0700 C   0  0  0  0  0  2  0  0  0  0  0  0
  -19.3530  -28.4660   23.1840 C   0  0  0  0  0  0  0  0  0  0  0  0
  -19.0680  -29.7170   23.7720 C   0  0  0  0  0  3  0  0  0  0  0  0
  -17.7390  -30.1540   23.9250 C   0  0  0  0  0  3  0  0  0  0  0  0
  -16.6770  -29.3370   23.5020 C   0  0  0  0  0  3  0  0  0  0  0  0
  -16.9470  -28.0860   22.9170 C   0  0  0  0  0  3  0  0  0  0  0  0
  -25.9560  -32.3880   23.7120 C   0  0  0  0  0  3  0  0  0  0  0  0
  -25.5960  -33.7630   24.0840 N   0  0  0  0  0  0  0  0  0  0  0  0
  -25.8840  -34.8500   23.3540 C   0  0  0  0  0  0  0  0  0  0  0  0
  -26.5540  -34.8010   22.3170 O   0  0  0  0  0  0  0  0  0  0  0  0
  -24.9990  -33.8710   24.8910 H   0  0  0  0  0  0  0  0  0  0  0  0
  -24.0910  -36.5850   23.0500 C   0  0  0  0  0  1  0  0  0  0  0  0
  -25.3450  -36.2040   23.8510 C   0  0  0  0  0  3  0  0  0  0  0  0
  -27.4400  -37.1450   24.7190 C   0  0  0  0  0  1  0  0  0  0  0  0
  -26.3390  -37.2980   23.7720 N   0  0  0  0  0  0  0  0  0  0  0  0
  -25.8980  -38.1970   23.9430 H   0  0  0  0  0  0  0  0  0  0  0  0
  -26.5280  -31.6060   24.9590 C   0  0  1  0  0  0  0  0  0  0  0  0
  -25.4640  -31.2950   26.0370 C   0  0  0  0  0  1  0  0  0  0  0  0
  -27.1610  -30.2650   24.5180 C   0  0  0  0  0  1  0  0  0  0  0  0
  -27.6560  -32.4300   25.6220 C   0  0  0  0  0  1  0  0  0  0  0  0
  1  2  1  0
  1  9  1  0
  4 10  1  0
  5  3  1  0
  6  8  1  0
  6  4  1  0
  6  7  1  0
  7  5  1  0
  8 11  1  0
  8  7  1  0
  9  3  1  0
 10  2  1  0
 10  5  1  0
 10 13  1  1
 13 12  1  0
 14 16  1  0
 14 18  1  0
 15 17  1  0
 16 19  1  0
 18 15  1  0
 19 13  1  0
 19 17  1  0
 19 20  1  6
 21 29  1  0
 22 27  1  0
 23 24  1  0
 23 22  1  0
 24 25  1  0
 25 34  1  0
 25 26  1  0
 27 21  1  0
 27 26  1  0
 28 21  2  0
 29 18  1  0
 29 30  1  0
 31 32  2  0
 32 51  1  0
 33 32  1  0
 33 36  1  0
 34 35  1  0
 34 31  1  0
 35 33  2  0
 36 37  1  0
 37 38  2  0
 39 42  1  0
 39 38  1  0
 40 39  2  0
 41 40  1  0
 41 36  2  0
 42 43  1  0
 43 44  1  0
 44 45  2  0
 46 45  1  0
 46 50  1  0
 47 46  2  0
 48 43  2  0
 48 47  1  0
 49 48  1  0
 51 52  1  0
 52 55  1  0
 52 54  1  0
 53 51  2  0
 56 31  1  0
 56 57  1  0
 58 56  1  0
 59 61  1  0
 59  9  1  0
 60 71  2  0
 60 86  1  0
 61 66  1  0
 62 70  1  0
 62 72  1  0
 63 69  1  0
 63 65  1  0
 64 70  1  0
 65 64  1  0
 66 65  2  0
 67 68  1  0
 67 61  2  0
 68 63  2  0
 69 62  1  0
 70 60  1  0
 72 74  2  0
 73 72  1  0
 73 77  1  0
 75 73  1  0
 76 85  2  0
 76 81  1  0
 77 81  1  0
 78 77  1  0
 79 80  1  0
 79 78  1  0
 80 76  1  0
 81 82  2  0
 82 83  1  0
 84 83  2  0
 85 84  1  0
 86 87  1  0
 86 96  1  0
 87 90  1  0
 88 92  1  0
 88 87  1  0
 89 88  2  0
 91 92  1  0
 94 92  1  0
 94 95  1  0
 94 93  1  0
 96 99  1  1
 96 97  1  0
 98 96  1  0
M  ISO  4   9 101  21 100  29 100  59 101
M  END
>  <TORSDO>  (33) 
F 18

>  <SCORE>  (33) 
-13.769

>  <name>  (33) 
32

>  <ligand_id>  (33) 
32

>  <original_smiles>  (33) 
[H]c1c([H])c([H])c2c(c1[H])C([H])([H])C([H])([H])C([H])([H])C2([H])N([H])C(=O)C1([H])N(C(=O)C([H])(N([H])C(=O)C([H])(N([H])C([H])([H])[H])C([H])([H])[H])C(C([H])([H])[H])(C([H])([H])[H])C([H])([H])[H])C([H])([H])c2c([H])c(OC3([H])C([H])([H])C([H])([H])C4(C([H])(C([H])([H])[H])[N+]5([H])C([H])([H])C([H])([H])C([H])(N([H])C(=O)N6C([H])([H])C([H])([H])C([H])([H])C([H])(n7nc(-c8c([H])c([H])c(Oc9c([H])c([H])c(F)c([H])c9F)c([H])c8[H])c(C(=O)N([H])[H])c7N([H])[H])C6([H])[H])C([H])([H])C5([H])[H])C([H])([H])C5([H])C([H])(C([H])([H])[H])C5([H])C4([H])C3([H])[H])c([H])c([H])c2C1([H])[H]

>  <smiles>  (33) 
[H]c1c([H])c([H])c2c(c1[H])C([H])([H])C([H])([H])C([H])([H])C2([H])N([H])C(=O)C1([H])N(C(=O)C([H])(N([H])C(=O)C([H])(N([H])C([H])([H])[H])C([H])([H])[H])C(C([H])([H])[H])(C([H])([H])[H])C([H])([H])[H])C([H])([H])c2c([H])c(OC3([H])C([H])([H])C([H])([H])C4(C([H])(C([H])([H])[H])[N+]5([H])C([H])([H])C([H])([H])C([H])(N([H])C(=O)N6C([H])([H])C([H])([H])C([H])([H])C([H])(n7nc(-c8c([H])c([H])c(Oc9c([H])c([H])c(F)c([H])c9F)c([H])c8[H])c(C(=O)N([H])[H])c7N([H])[H])C6([H])[H])C([H])([H])C5([H])[H])C([H])([H])C5([H])C([H])(C([H])([H])[H])C5([H])C4([H])C3([H])[H])c([H])c([H])c2C1([H])[H]

$$$$
33:0:0
     RDKit          3D

 94103  0  0  1  0  0  0  0  0999 V2000
  -28.7020  -21.2550   19.7040 C   0  0  0  0  0  3  0  0  0  0  0  0
  -29.5320  -22.7850   21.3440 C   0  0  0  0  0  3  0  0  0  0  0  0
  -29.4460  -19.9860   20.2250 C   0  0  0  0  0  0  0  0  0  0  0  0
  -30.2380  -20.3270   21.3700 C   0  0  0  0  0  0  0  0  0  0  0  0
  -28.6870  -22.7250   20.2190 C   0  0  0  0  0  0  0  0  0  0  0  0
  -30.2550  -21.6780   21.8900 C   0  0  0  0  0  0  0  0  0  0  0  0
  -31.9160  -18.3780   20.8490 C   0  0  0  0  0  2  0  0  0  0  0  0
  -31.3660  -18.6010   19.4320 C   0  0  0  0  0  2  0  0  0  0  0  0
  -31.2250  -19.2550   21.9400 C   0  0  0  0  0  3  0  0  0  0  0  0
  -29.8500  -18.4070   19.5210 C   0  0  0  0  0  3  0  0  0  0  0  0
  -31.1120  -22.0410   23.0970 C   0  0  0  0  0  1  0  0  0  0  0  0
  -30.3990  -15.4630   19.6560 C   0  0  0  0  0  0  0  0  0  0  0  0
  -30.2950  -13.0210   18.7810 C   0  0  0  0  0  2  0  0  0  0  0  0
  -29.2870  -12.8680   17.6160 C   0  0  0  0  0  2  0  0  0  0  0  0
  -27.8670  -12.6210   18.1530 C   0  0  0  0  0  2  0  0  0  0  0  0
  -27.5270  -13.5060   19.3830 C   0  0  0  0  0  3  0  0  0  0  0  0
  -28.6810  -13.5970   20.4100 C   0  0  0  0  0  2  0  0  0  0  0  0
  -29.8410  -14.1460   19.6870 N   0  0  0  0  0  0  0  0  0  0  0  0
  -31.5610  -15.4400   19.2250 O   0  0  0  0  0  0  0  0  0  0  0  0
  -29.6950  -16.7630   19.9190 N   0  0  0  0  0  0  0  0  0  0  0  0
  -28.8730  -16.6070   20.4780 H   0  0  0  0  0  0  0  0  0  0  0  0
  -25.2250  -13.9950   20.3630 C   0  0  0  0  0  0  0  0  0  0  0  0
  -24.2060  -13.1980   20.7880 C   0  0  0  0  0  0  0  0  0  0  0  0
  -24.6640  -11.8480   20.6370 C   0  0  0  0  0  0  0  0  0  0  0  0
  -26.2460  -13.1440   19.9840 N   0  0  0  0  0  0  0  0  0  0  0  0
  -25.9240  -11.8390   20.2080 N   0  0  0  0  0  0  0  0  0  0  0  0
  -23.9470  -10.5800   20.8190 C   0  0  0  0  0  0  0  0  0  0  0  0
  -24.3740   -9.6190   21.7610 C   0  0  0  0  0  3  0  0  0  0  0  0
  -23.6580   -8.4150   21.9320 C   0  0  0  0  0  3  0  0  0  0  0  0
  -22.4950   -8.1620   21.1640 C   0  0  0  0  0  0  0  0  0  0  0  0
  -22.0860   -9.1140   20.2130 C   0  0  0  0  0  3  0  0  0  0  0  0
  -22.8040  -10.3080   20.0400 C   0  0  0  0  0  3  0  0  0  0  0  0
  -21.7450   -7.0140   21.2520 O   0  0  0  0  0  0  0  0  0  0  0  0
  -21.5770   -6.3510   22.4430 C   0  0  0  0  0  0  0  0  0  0  0  0
  -20.9940   -6.9750   23.5670 C   0  0  0  0  0  3  0  0  0  0  0  0
  -20.7770   -6.2360   24.7480 C   0  0  0  0  0  3  0  0  0  0  0  0
  -21.1310   -4.8760   24.8050 C   0  0  0  0  0  0  0  0  0  0  0  0
  -21.7050   -4.2510   23.6850 C   0  0  0  0  0  3  0  0  0  0  0  0
  -21.9240   -4.9870   22.5070 C   0  0  0  0  0  0  0  0  0  0  0  0
  -22.4600   -4.3730   21.4230 F   0  0  0  0  0  0  0  0  0  0  0  0
  -20.9130   -4.1650   25.9360 F   0  0  0  0  0  0  0  0  0  0  0  0
  -22.8360  -13.6530   21.2060 C   0  0  0  0  0  0  0  0  0  0  0  0
  -22.1880  -12.9230   22.1010 N   0  0  0  0  0  0  0  0  0  0  0  0
  -22.3550  -14.7020   20.7690 O   0  0  0  0  0  0  0  0  0  0  0  0
  -22.5860  -12.0830   22.4940 H   0  0  0  0  0  0  0  0  0  0  0  0
  -21.2710  -13.2140   22.4130 H   0  0  0  0  0  0  0  0  0  0  0  0
  -25.3590  -15.3780   20.2290 N   0  0  0  0  0  0  0  0  0  0  0  0
  -24.5820  -16.0010   20.4170 H   0  0  0  0  0  0  0  0  0  0  0  0
  -26.1030  -15.8250   19.7110 H   0  0  0  0  0  0  0  0  0  0  0  0
  -30.2370  -17.0070   23.0350 C   0  0  0  0  0  1  0  0  0  0  0  0
  -31.6550  -18.5370   24.4100 C   0  0  0  0  0  1  0  0  0  0  0  0
  -30.6960  -18.4770   23.2130 C   0  0  0  0  0  3  0  0  0  0  0  0
  -27.7950  -24.2140   19.8080 C   0  0  0  0  0  2  0  0  0  0  0  0
  -28.0140  -25.8560   20.1030 O   0  0  0  0  0  0  0  0  0  0  0  0
  -24.5220  -31.8820   23.1660 C   0  0  0  0  0  0  0  0  0  0  0  0
  -27.0100  -26.9830   20.0370 C   0  0  0  0  0  0  0  0  0  0  0  0
  -23.2940  -30.4780   21.5640 C   0  0  0  0  0  3  0  0  0  0  0  0
  -24.7050  -28.8880   20.0790 C   0  0  0  0  0  0  0  0  0  0  0  0
  -25.8560  -30.6920   21.3400 C   0  0  0  0  0  2  0  0  0  0  0  0
  -25.9100  -29.2820   20.6670 C   0  0  0  0  0  0  0  0  0  0  0  0
  -27.0530  -28.3530   20.6200 C   0  0  0  0  0  3  0  0  0  0  0  0
  -25.7710  -26.7630   19.3830 C   0  0  0  0  0  3  0  0  0  0  0  0
  -24.6630  -27.6530   19.4070 C   0  0  0  0  0  3  0  0  0  0  0  0
  -23.4870  -29.8030   20.1750 C   0  0  0  0  0  2  0  0  0  0  0  0
  -24.5820  -31.0490   22.0750 N   0  0  0  0  0  0  0  0  0  0  0  0
  -23.4450  -32.1650   23.7170 O   0  0  0  0  0  0  0  0  0  0  0  0
  -22.6360  -29.4760   22.5490 C   0  0  0  0  0  0  0  0  0  0  0  0
  -21.3070  -29.2790   22.4430 N   0  0  0  0  0  0  0  0  0  0  0  0
  -23.3220  -28.8800   23.3820 O   0  0  0  0  0  0  0  0  0  0  0  0
  -20.8080  -29.8130   21.7460 H   0  0  0  0  0  0  0  0  0  0  0  0
  -17.9630  -27.9480   22.9650 C   0  0  0  0  0  0  0  0  0  0  0  0
  -20.5110  -28.3230   23.2270 C   0  0  0  0  0  3  0  0  0  0  0  0
  -20.6720  -26.8870   22.6730 C   0  0  0  0  0  2  0  0  0  0  0  0
  -19.5830  -26.5030   21.6670 C   0  0  0  0  0  2  0  0  0  0  0  0
  -18.1960  -26.6000   22.3090 C   0  0  0  0  0  2  0  0  0  0  0  0
  -19.0480  -28.7660   23.3810 C   0  0  0  0  0  0  0  0  0  0  0  0
  -18.7730  -30.0230   23.9600 C   0  0  0  0  0  3  0  0  0  0  0  0
  -17.4470  -30.4600   24.1330 C   0  0  0  0  0  3  0  0  0  0  0  0
  -16.3770  -29.6420   23.7290 C   0  0  0  0  0  3  0  0  0  0  0  0
  -16.6370  -28.3880   23.1490 C   0  0  0  0  0  3  0  0  0  0  0  0
  -25.8030  -32.5340   23.7720 C   0  0  0  0  0  3  0  0  0  0  0  0
  -25.4830  -33.9320   24.1150 N   0  0  0  0  0  0  0  0  0  0  0  0
  -25.7740  -34.9990   23.3590 C   0  0  0  0  0  0  0  0  0  0  0  0
  -26.3990  -34.9120   22.2990 O   0  0  0  0  0  0  0  0  0  0  0  0
  -24.9160  -34.0750   24.9380 H   0  0  0  0  0  0  0  0  0  0  0  0
  -24.0110  -36.7860   23.1260 C   0  0  0  0  0  1  0  0  0  0  0  0
  -25.3020  -36.3820   23.8560 C   0  0  0  0  0  3  0  0  0  0  0  0
  -27.4650  -37.2920   24.5750 C   0  0  0  0  0  1  0  0  0  0  0  0
  -26.3140  -37.4480   23.6900 N   0  0  0  0  0  0  0  0  0  0  0  0
  -25.9040  -38.3620   23.8610 H   0  0  0  0  0  0  0  0  0  0  0  0
  -26.3400  -31.7770   25.0480 C   0  0  1  0  0  0  0  0  0  0  0  0
  -25.2600  -31.5340   26.1290 C   0  0  0  0  0  1  0  0  0  0  0  0
  -26.9280  -30.4030   24.6590 C   0  0  0  0  0  1  0  0  0  0  0  0
  -27.4980  -32.5830   25.6890 C   0  0  0  0  0  1  0  0  0  0  0  0
  1  5  2  0
  1  3  1  0
  2  6  2  0
  3  4  2  0
  4  6  1  0
  4  9  1  0
  5  2  1  0
  6 11  1  0
  7  9  1  0
  8 10  1  0
  8  7  1  0
  9 52  1  0
 10 20  1  0
 10  3  1  0
 12 18  1  0
 12 20  1  0
 13 18  1  0
 14 15  1  0
 14 13  1  0
 16 15  1  0
 16 25  1  0
 16 17  1  0
 18 17  1  0
 19 12  2  0
 20 21  1  0
 22 23  2  0
 23 42  1  0
 24 23  1  0
 24 27  1  0
 25 26  1  0
 25 22  1  0
 26 24  2  0
 27 28  1  0
 28 29  2  0
 30 33  1  0
 30 29  1  0
 31 30  2  0
 32 31  1  0
 32 27  2  0
 33 34  1  0
 34 39  2  0
 34 35  1  0
 35 36  2  0
 36 37  1  0
 37 41  1  0
 38 37  2  0
 39 38  1  0
 40 39  1  0
 42 43  1  0
 43 46  1  0
 43 45  1  0
 44 42  2  0
 47 22  1  0
 47 48  1  0
 49 47  1  0
 50 52  1  0
 52 51  1  0
 53 54  1  0
 53  5  1  0
 55 66  2  0
 56 54  1  0
 56 61  1  0
 57 65  1  0
 57 67  1  0
 58 64  1  0
 58 60  1  0
 59 65  1  0
 60 59  1  0
 61 60  2  0
 62 63  1  0
 62 56  2  0
 63 58  2  0
 64 57  1  0
 65 55  1  0
 67 69  2  0
 68 67  1  0
 70 68  1  0
 71 80  2  0
 71 76  1  0
 72 68  1  0
 72 76  1  0
 73 72  1  0
 74 75  1  0
 74 73  1  0
 75 71  1  0
 76 77  2  0
 77 78  1  0
 79 78  2  0
 80 79  1  0
 81 55  1  0
 81 82  1  0
 81 91  1  0
 82 85  1  0
 83 87  1  0
 83 82  1  0
 84 83  2  0
 87 86  1  0
 89 87  1  0
 89 90  1  0
 89 88  1  0
 91 94  1  1
 91 92  1  0
 93 91  1  0
M  ISO  4  12 100  20 100  53 101  54 101
M  END
>  <TORSDO>  (34) 
F 18

>  <SCORE>  (34) 
-12.446

>  <name>  (34) 
33

>  <ligand_id>  (34) 
33

>  <original_smiles>  (34) 
[H]c1c([H])c([H])c2c(c1[H])C([H])([H])C([H])([H])C([H])([H])C2([H])N([H])C(=O)C1([H])N(C(=O)C([H])(N([H])C(=O)C([H])(N([H])C([H])([H])[H])C([H])([H])[H])C(C([H])([H])[H])(C([H])([H])[H])C([H])([H])[H])C([H])([H])c2c([H])c(OC([H])([H])c3c([H])c(C([H])([H])[H])c4c(c3[H])C([H])(N([H])C(=O)N3C([H])([H])C([H])([H])C([H])([H])C([H])(n5nc(-c6c([H])c([H])c(Oc7c([H])c([H])c(F)c([H])c7F)c([H])c6[H])c(C(=O)N([H])[H])c5N([H])[H])C3([H])[H])C([H])([H])C([H])([H])C4([H])C([H])(C([H])([H])[H])C([H])([H])[H])c([H])c([H])c2C1([H])[H]

>  <smiles>  (34) 
[H]c1c([H])c([H])c2c(c1[H])C([H])([H])C([H])([H])C([H])([H])C2([H])N([H])C(=O)C1([H])N(C(=O)C([H])(N([H])C(=O)C([H])(N([H])C([H])([H])[H])C([H])([H])[H])C(C([H])([H])[H])(C([H])([H])[H])C([H])([H])[H])C([H])([H])c2c([H])c(OC([H])([H])c3c([H])c(C([H])([H])[H])c4c(c3[H])C([H])(N([H])C(=O)N3C([H])([H])C([H])([H])C([H])([H])C([H])(n5nc(-c6c([H])c([H])c(Oc7c([H])c([H])c(F)c([H])c7F)c([H])c6[H])c(C(=O)N([H])[H])c5N([H])[H])C3([H])[H])C([H])([H])C([H])([H])C4([H])C([H])(C([H])([H])[H])C([H])([H])[H])c([H])c([H])c2C1([H])[H]

$$$$
34:0:0
     RDKit          3D

 97107  0  0  1  0  0  0  0  0999 V2000
  -30.3790  -24.1170   20.2130 C   0  0  0  0  0  3  0  0  0  0  0  0
  -30.7930  -21.7210   20.4960 C   0  0  0  0  0  3  0  0  0  0  0  0
  -28.5120  -22.5320   20.1700 C   0  0  0  0  0  0  0  0  0  0  0  0
  -28.9930  -23.8910   20.1110 C   0  0  0  0  0  0  0  0  0  0  0  0
  -29.4160  -21.4300   20.3730 C   0  0  0  0  0  0  0  0  0  0  0  0
  -31.2840  -23.0510   20.3970 C   0  0  0  0  0  0  0  0  0  0  0  0
  -26.4690  -21.3150   18.9900 C   0  0  0  0  0  2  0  0  0  0  0  0
  -26.1780  -22.7890   18.9140 C   0  0  0  0  0  2  0  0  0  0  0  0
  -27.0280  -22.2480   20.0490 C   0  0  0  0  0  3  0  0  0  0  0  0
  -33.5740  -22.3330   20.5840 C   0  0  0  0  0  1  0  0  0  0  0  0
  -32.6210  -23.3840   20.4660 O   0  0  0  0  0  0  0  0  0  0  0  0
  -28.9310  -20.0890   20.4720 N   0  0  0  0  0  0  0  0  0  0  0  0
  -27.9240  -19.9890   20.3980 H   0  0  0  0  0  0  0  0  0  0  0  0
  -30.7550  -14.5880   20.0030 C   0  0  0  0  0  0  0  0  0  0  0  0
  -30.3940  -12.3730   18.9660 C   0  0  0  0  0  2  0  0  0  0  0  0
  -29.3940  -12.5110   17.8020 C   0  0  0  0  0  2  0  0  0  0  0  0
  -27.9500  -12.3590   18.3170 C   0  0  0  0  0  2  0  0  0  0  0  0
  -27.6590  -13.2310   19.5680 C   0  0  0  0  0  3  0  0  0  0  0  0
  -28.7830  -13.1180   20.6230 C   0  0  0  0  0  2  0  0  0  0  0  0
  -30.0540  -13.4150   19.9530 N   0  0  0  0  0  0  0  0  0  0  0  0
  -31.9160  -14.6550   19.5930 O   0  0  0  0  0  0  0  0  0  0  0  0
  -29.0570  -17.9050   19.2220 C   0  0  0  0  0  2  0  0  0  0  0  0
  -29.8010  -17.9690   21.5480 C   0  0  0  0  0  2  0  0  0  0  0  0
  -29.8580  -16.5850   19.0160 C   0  0  0  0  0  2  0  0  0  0  0  0
  -30.5620  -16.6160   21.3380 C   0  0  0  0  0  2  0  0  0  0  0  0
  -29.7040  -18.8340   20.2710 C   0  0  0  0  0  3  0  0  0  0  0  0
  -30.0660  -15.7550   20.2320 N   0  0  0  0  0  0  0  0  0  0  0  0
  -25.3200  -13.8080   20.4620 C   0  0  0  0  0  0  0  0  0  0  0  0
  -24.2730  -13.0260   20.8750 C   0  0  0  0  0  0  0  0  0  0  0  0
  -24.7280  -11.6750   20.7750 C   0  0  0  0  0  0  0  0  0  0  0  0
  -26.3440  -12.9340   20.1350 N   0  0  0  0  0  0  0  0  0  0  0  0
  -25.9970  -11.6440   20.3820 N   0  0  0  0  0  0  0  0  0  0  0  0
  -24.0100  -10.4080   20.9700 C   0  0  0  0  0  0  0  0  0  0  0  0
  -24.4530   -9.4450   21.9040 C   0  0  0  0  0  3  0  0  0  0  0  0
  -23.7350   -8.2440   22.0890 C   0  0  0  0  0  3  0  0  0  0  0  0
  -22.5600   -7.9960   21.3400 C   0  0  0  0  0  0  0  0  0  0  0  0
  -22.1370   -8.9470   20.3970 C   0  0  0  0  0  3  0  0  0  0  0  0
  -22.8550  -10.1400   20.2090 C   0  0  0  0  0  3  0  0  0  0  0  0
  -21.8130   -6.8460   21.4350 O   0  0  0  0  0  0  0  0  0  0  0  0
  -21.7140   -6.1470   22.6110 C   0  0  0  0  0  0  0  0  0  0  0  0
  -21.2100   -6.7380   23.7910 C   0  0  0  0  0  3  0  0  0  0  0  0
  -21.0610   -5.9630   24.9580 C   0  0  0  0  0  3  0  0  0  0  0  0
  -21.4060   -4.5990   24.9470 C   0  0  0  0  0  0  0  0  0  0  0  0
  -21.9010   -4.0060   23.7710 C   0  0  0  0  0  3  0  0  0  0  0  0
  -22.0520   -4.7790   22.6060 C   0  0  0  0  0  0  0  0  0  0  0  0
  -22.5110   -4.1980   21.4710 F   0  0  0  0  0  0  0  0  0  0  0  0
  -21.2560   -3.8520   26.0660 F   0  0  0  0  0  0  0  0  0  0  0  0
  -22.8980  -13.4970   21.2490 C   0  0  0  0  0  0  0  0  0  0  0  0
  -22.2230  -12.7790   22.1380 N   0  0  0  0  0  0  0  0  0  0  0  0
  -22.4330  -14.5380   20.7880 O   0  0  0  0  0  0  0  0  0  0  0  0
  -22.6110  -11.9360   22.5360 H   0  0  0  0  0  0  0  0  0  0  0  0
  -21.3030  -13.0790   22.4300 H   0  0  0  0  0  0  0  0  0  0  0  0
  -25.4830  -15.1820   20.3170 N   0  0  0  0  0  0  0  0  0  0  0  0
  -24.7390  -15.8450   20.5030 H   0  0  0  0  0  0  0  0  0  0  0  0
  -26.3300  -15.6190   19.9800 H   0  0  0  0  0  0  0  0  0  0  0  0
  -28.0250  -25.0800   19.8380 C   0  0  0  0  0  2  0  0  0  0  0  0
  -28.3550  -26.4850   20.1370 O   0  0  0  0  0  0  0  0  0  0  0  0
  -24.6890  -31.8470   23.2640 C   0  0  0  0  0  0  0  0  0  0  0  0
  -27.2570  -27.3620   20.0850 C   0  0  0  0  0  0  0  0  0  0  0  0
  -23.4710  -30.5000   21.5960 C   0  0  0  0  0  3  0  0  0  0  0  0
  -24.9060  -28.9900   20.1260 C   0  0  0  0  0  0  0  0  0  0  0  0
  -26.0140  -30.8060   21.4170 C   0  0  0  0  0  2  0  0  0  0  0  0
  -26.0820  -29.4490   20.7300 C   0  0  0  0  0  0  0  0  0  0  0  0
  -27.2610  -28.6480   20.7050 C   0  0  0  0  0  3  0  0  0  0  0  0
  -26.0530  -26.9670   19.4460 C   0  0  0  0  0  3  0  0  0  0  0  0
  -24.8920  -27.7510   19.4790 C   0  0  0  0  0  3  0  0  0  0  0  0
  -23.6760  -29.8680   20.1970 C   0  0  0  0  0  2  0  0  0  0  0  0
  -24.7440  -31.0660   22.1480 N   0  0  0  0  0  0  0  0  0  0  0  0
  -23.6100  -32.1180   23.8070 O   0  0  0  0  0  0  0  0  0  0  0  0
  -22.8080  -29.4580   22.5270 C   0  0  0  0  0  0  0  0  0  0  0  0
  -21.4820  -29.2880   22.3960 N   0  0  0  0  0  0  0  0  0  0  0  0
  -23.4840  -28.8070   23.3280 O   0  0  0  0  0  0  0  0  0  0  0  0
  -20.9940  -29.8650   21.7250 H   0  0  0  0  0  0  0  0  0  0  0  0
  -18.0970  -28.1050   22.8740 C   0  0  0  0  0  0  0  0  0  0  0  0
  -20.6580  -28.3390   23.1470 C   0  0  0  0  0  3  0  0  0  0  0  0
  -20.7480  -26.9190   22.5420 C   0  0  0  0  0  2  0  0  0  0  0  0
  -19.6440  -26.6260   21.5220 C   0  0  0  0  0  2  0  0  0  0  0  0
  -18.2640  -26.7690   22.1680 C   0  0  0  0  0  2  0  0  0  0  0  0
  -19.2220  -28.8480   23.3180 C   0  0  0  0  0  0  0  0  0  0  0  0
  -19.0140  -30.1010   23.9360 C   0  0  0  0  0  3  0  0  0  0  0  0
  -17.7130  -30.6080   24.1150 C   0  0  0  0  0  3  0  0  0  0  0  0
  -16.6010  -29.8610   23.6870 C   0  0  0  0  0  3  0  0  0  0  0  0
  -16.7950  -28.6100   23.0720 C   0  0  0  0  0  3  0  0  0  0  0  0
  -25.9790  -32.4550   23.8960 C   0  0  0  0  0  3  0  0  0  0  0  0
  -26.4790  -31.6650   25.1670 C   0  0  1  0  0  0  0  0  0  0  0  0
  -25.3770  -31.4360   26.2270 C   0  0  0  0  0  1  0  0  0  0  0  0
  -27.0450  -30.2820   24.7690 C   0  0  0  0  0  1  0  0  0  0  0  0
  -27.6370  -32.4390   25.8400 C   0  0  0  0  0  1  0  0  0  0  0  0
  -25.6870  -33.8540   24.2350 N   0  0  0  0  0  0  0  0  0  0  0  0
  -26.0110  -34.9070   23.4720 C   0  0  0  0  0  0  0  0  0  0  0  0
  -26.6570  -34.8020   22.4260 O   0  0  0  0  0  0  0  0  0  0  0  0
  -25.1080  -34.0100   25.0460 H   0  0  0  0  0  0  0  0  0  0  0  0
  -24.2730  -36.7010   23.1810 C   0  0  0  0  0  1  0  0  0  0  0  0
  -25.5430  -36.2970   23.9450 C   0  0  0  0  0  3  0  0  0  0  0  0
  -27.7070  -37.1810   24.6950 C   0  0  0  0  0  1  0  0  0  0  0  0
  -26.5720  -37.3480   23.7910 N   0  0  0  0  0  0  0  0  0  0  0  0
  -26.1730  -38.2700   23.9500 H   0  0  0  0  0  0  0  0  0  0  0  0
  1  6  1  0
  3  5  2  0
  4  3  1  0
  4  1  2  0
  5 12  1  0
  5  2  1  0
  6 11  1  0
  6  2  2  0
  7  9  1  0
  8  7  1  0
  8  9  1  0
  9  3  1  0
 11 10  1  0
 13 12  1  0
 14 27  1  0
 15 20  1  0
 16 17  1  0
 16 15  1  0
 18 17  1  0
 18 31  1  0
 18 19  1  0
 20 14  1  0
 20 19  1  0
 21 14  2  0
 22 26  1  0
 24 22  1  0
 24 27  1  0
 25 23  1  0
 26 12  1  0
 26 23  1  0
 27 25  1  0
 28 29  2  0
 29 48  1  0
 30 29  1  0
 30 33  1  0
 31 32  1  0
 31 28  1  0
 32 30  2  0
 33 34  1  0
 34 35  2  0
 36 39  1  0
 36 35  1  0
 37 36  2  0
 38 37  1  0
 38 33  2  0
 39 40  1  0
 40 41  1  0
 41 42  2  0
 43 42  1  0
 43 47  1  0
 44 43  2  0
 45 40  2  0
 45 44  1  0
 46 45  1  0
 48 49  1  0
 49 52  1  0
 49 51  1  0
 50 48  2  0
 53 28  1  0
 53 54  1  0
 55 53  1  0
 56  4  1  0
 56 57  1  0
 58 69  2  0
 59 57  1  0
 59 64  1  0
 60 68  1  0
 60 70  1  0
 61 67  1  0
 61 63  1  0
 62 68  1  0
 63 62  1  0
 64 63  2  0
 65 66  1  0
 65 59  2  0
 66 61  2  0
 67 60  1  0
 68 58  1  0
 70 72  2  0
 71 70  1  0
 73 71  1  0
 74 83  2  0
 74 79  1  0
 75 71  1  0
 75 79  1  0
 76 75  1  0
 77 78  1  0
 77 76  1  0
 78 74  1  0
 79 80  2  0
 80 81  1  0
 82 81  2  0
 83 82  1  0
 84 58  1  0
 84 89  1  0
 84 85  1  0
 85 88  1  1
 85 86  1  0
 87 85  1  0
 89 92  1  0
 90 94  1  0
 90 89  1  0
 91 90  2  0
 94 93  1  0
 96 94  1  0
 96 97  1  0
 96 95  1  0
M  ISO  4  14 100  27 100  56 101  57 101
M  END
>  <TORSDO>  (35) 
F 20

>  <SCORE>  (35) 
-13.311

>  <name>  (35) 
34

>  <ligand_id>  (35) 
34

>  <original_smiles>  (35) 
[H]c1c([H])c([H])c2c(c1[H])C([H])([H])C([H])([H])C([H])([H])C2([H])N([H])C(=O)C1([H])N(C(=O)C([H])(N([H])C(=O)C([H])(N([H])C([H])([H])[H])C([H])([H])[H])C(C([H])([H])[H])(C([H])([H])[H])C([H])([H])[H])C([H])([H])c2c([H])c(OC([H])([H])c3c([H])c(OC([H])([H])[H])c([H])c(N([H])C4([H])C([H])([H])C([H])([H])N(C(=O)N5C([H])([H])C([H])([H])C([H])([H])C([H])(n6nc(-c7c([H])c([H])c(Oc8c([H])c([H])c(F)c([H])c8F)c([H])c7[H])c(C(=O)N([H])[H])c6N([H])[H])C5([H])[H])C([H])([H])C4([H])[H])c3C3([H])C([H])([H])C3([H])[H])c([H])c([H])c2C1([H])[H]

>  <smiles>  (35) 
[H]c1c([H])c([H])c2c(c1[H])C([H])([H])C([H])([H])C([H])([H])C2([H])N([H])C(=O)C1([H])N(C(=O)C([H])(N([H])C(=O)C([H])(N([H])C([H])([H])[H])C([H])([H])[H])C(C([H])([H])[H])(C([H])([H])[H])C([H])([H])[H])C([H])([H])c2c([H])c(OC([H])([H])c3c([H])c(OC([H])([H])[H])c([H])c(N([H])C4([H])C([H])([H])C([H])([H])N(C(=O)N5C([H])([H])C([H])([H])C([H])([H])C([H])(n6nc(-c7c([H])c([H])c(Oc8c([H])c([H])c(F)c([H])c8F)c([H])c7[H])c(C(=O)N([H])[H])c6N([H])[H])C5([H])[H])C([H])([H])C4([H])[H])c3C3([H])C([H])([H])C3([H])[H])c([H])c([H])c2C1([H])[H]

$$$$
35:0:0
     RDKit          3D

 97107  0  0  1  0  0  0  0  0999 V2000
  -29.5170  -23.3620   20.9450 C   0  0  0  0  0  3  0  0  0  0  0  0
  -28.6050  -21.1270   19.5130 C   0  0  0  0  0  3  0  0  0  0  0  0
  -28.5660  -23.5830   19.9190 C   0  0  0  0  0  0  0  0  0  0  0  0
  -29.9940  -22.0470   21.2610 C   0  0  0  0  0  0  0  0  0  0  0  0
  -28.1420  -22.4290   19.1910 C   0  0  0  0  0  0  0  0  0  0  0  0
  -29.5090  -20.8930   20.5700 C   0  0  0  0  0  0  0  0  0  0  0  0
  -27.1280  -22.5440   18.0610 C   0  0  0  0  0  1  0  0  0  0  0  0
  -32.3670  -22.6160   21.9280 C   0  0  0  0  0  1  0  0  0  0  0  0
  -31.0750  -21.8870   22.3300 C   0  0  0  0  0  3  0  0  0  0  0  0
  -29.8660  -21.3470   24.6050 C   0  0  0  0  0  2  0  0  0  0  0  0
  -31.2610  -21.8010   24.9530 C   0  0  0  0  0  2  0  0  0  0  0  0
  -30.5880  -22.3220   23.7020 C   0  0  0  0  0  3  0  0  0  0  0  0
  -27.8360  -24.9380   19.6240 C   0  0  0  0  0  2  0  0  0  0  0  0
  -28.1090  -26.2590   20.2250 O   0  0  0  0  0  0  0  0  0  0  0  0
  -24.4680  -31.7210   23.2540 C   0  0  0  0  0  0  0  0  0  0  0  0
  -27.0330  -27.1730   20.1400 C   0  0  0  0  0  0  0  0  0  0  0  0
  -23.2580  -30.3710   21.5820 C   0  0  0  0  0  3  0  0  0  0  0  0
  -24.6980  -28.8390   20.1390 C   0  0  0  0  0  0  0  0  0  0  0  0
  -25.8080  -30.6430   21.4410 C   0  0  0  0  0  2  0  0  0  0  0  0
  -25.8690  -29.2780   20.7690 C   0  0  0  0  0  0  0  0  0  0  0  0
  -27.0360  -28.4550   20.7740 C   0  0  0  0  0  3  0  0  0  0  0  0
  -25.8420  -26.8230   19.4460 C   0  0  0  0  0  3  0  0  0  0  0  0
  -24.6870  -27.6130   19.4710 C   0  0  0  0  0  3  0  0  0  0  0  0
  -23.4750  -29.7280   20.1900 C   0  0  0  0  0  2  0  0  0  0  0  0
  -24.5290  -30.9270   22.1470 N   0  0  0  0  0  0  0  0  0  0  0  0
  -23.3830  -32.0090   23.7790 O   0  0  0  0  0  0  0  0  0  0  0  0
  -22.5710  -29.3430   22.5130 C   0  0  0  0  0  0  0  0  0  0  0  0
  -21.2480  -29.1700   22.3510 N   0  0  0  0  0  0  0  0  0  0  0  0
  -23.2270  -28.7070   23.3430 O   0  0  0  0  0  0  0  0  0  0  0  0
  -20.7800  -29.7360   21.6570 H   0  0  0  0  0  0  0  0  0  0  0  0
  -17.8540  -27.9790   22.7480 C   0  0  0  0  0  0  0  0  0  0  0  0
  -20.4040  -28.2320   23.0940 C   0  0  0  0  0  3  0  0  0  0  0  0
  -20.5200  -26.8010   22.5200 C   0  0  0  0  0  2  0  0  0  0  0  0
  -19.4490  -26.4810   21.4740 C   0  0  0  0  0  2  0  0  0  0  0  0
  -18.0490  -26.6300   22.0750 C   0  0  0  0  0  2  0  0  0  0  0  0
  -18.9620  -28.7380   23.2110 C   0  0  0  0  0  0  0  0  0  0  0  0
  -18.7280  -30.0010   23.7970 C   0  0  0  0  0  3  0  0  0  0  0  0
  -17.4200  -30.5040   23.9250 C   0  0  0  0  0  3  0  0  0  0  0  0
  -16.3260  -29.7410   23.4790 C   0  0  0  0  0  3  0  0  0  0  0  0
  -16.5450  -28.4790   22.8960 C   0  0  0  0  0  3  0  0  0  0  0  0
  -25.7550  -32.3200   23.8980 C   0  0  0  0  0  3  0  0  0  0  0  0
  -26.2280  -31.5360   25.1840 C   0  0  1  0  0  0  0  0  0  0  0  0
  -25.1050  -31.3190   26.2260 C   0  0  0  0  0  1  0  0  0  0  0  0
  -26.7920  -30.1470   24.8070 C   0  0  0  0  0  1  0  0  0  0  0  0
  -27.3780  -32.3070   25.8730 C   0  0  0  0  0  1  0  0  0  0  0  0
  -25.4740  -33.7260   24.2200 N   0  0  0  0  0  0  0  0  0  0  0  0
  -25.8160  -34.7660   23.4480 C   0  0  0  0  0  0  0  0  0  0  0  0
  -26.4740  -34.6430   22.4110 O   0  0  0  0  0  0  0  0  0  0  0  0
  -24.8920  -33.8950   25.0270 H   0  0  0  0  0  0  0  0  0  0  0  0
  -24.1120  -36.5820   23.0990 C   0  0  0  0  0  1  0  0  0  0  0  0
  -25.3560  -36.1660   23.8990 C   0  0  0  0  0  3  0  0  0  0  0  0
  -27.5150  -37.0220   24.6970 C   0  0  0  0  0  1  0  0  0  0  0  0
  -26.4020  -37.2030   23.7680 N   0  0  0  0  0  0  0  0  0  0  0  0
  -26.0120  -38.1280   23.9200 H   0  0  0  0  0  0  0  0  0  0  0  0
  -29.8740  -19.5970   20.9710 O   0  0  0  0  0  0  0  0  0  0  0  0
  -30.5040  -14.4210   19.9700 C   0  0  0  0  0  0  0  0  0  0  0  0
  -30.0580  -12.2310   18.8790 C   0  0  0  0  0  2  0  0  0  0  0  0
  -29.0140  -12.3690   17.7530 C   0  0  0  0  0  2  0  0  0  0  0  0
  -27.5980  -12.1750   18.3220 C   0  0  0  0  0  2  0  0  0  0  0  0
  -27.3520  -13.0320   19.5890 C   0  0  0  0  0  3  0  0  0  0  0  0
  -28.5190  -12.9250   20.6050 C   0  0  0  0  0  2  0  0  0  0  0  0
  -29.7670  -13.2610   19.9060 N   0  0  0  0  0  0  0  0  0  0  0  0
  -31.5820  -14.4840   19.3730 O   0  0  0  0  0  0  0  0  0  0  0  0
  -31.2960  -17.6990   20.2880 C   0  0  0  0  0  2  0  0  0  0  0  0
  -28.8030  -17.5270   19.8590 C   0  0  0  0  0  2  0  0  0  0  0  0
  -31.1140  -16.4770   21.2340 C   0  0  0  0  0  2  0  0  0  0  0  0
  -28.8150  -16.2270   20.7320 C   0  0  0  0  0  2  0  0  0  0  0  0
  -30.0060  -18.5140   20.0080 C   0  0  0  0  0  3  0  0  0  0  0  0
  -30.1120  -15.5130   20.7200 N   0  0  0  0  0  0  0  0  0  0  0  0
  -25.0510  -13.6030   20.5760 C   0  0  0  0  0  0  0  0  0  0  0  0
  -24.0300  -12.8160   21.0310 C   0  0  0  0  0  0  0  0  0  0  0  0
  -24.4880  -11.4690   20.9090 C   0  0  0  0  0  0  0  0  0  0  0  0
  -26.0650  -12.7340   20.2070 N   0  0  0  0  0  0  0  0  0  0  0  0
  -25.7390  -11.4430   20.4690 N   0  0  0  0  0  0  0  0  0  0  0  0
  -23.7840  -10.2000   21.1300 C   0  0  0  0  0  0  0  0  0  0  0  0
  -24.2680   -9.2380   22.0460 C   0  0  0  0  0  3  0  0  0  0  0  0
  -23.5620   -8.0330   22.2570 C   0  0  0  0  0  3  0  0  0  0  0  0
  -22.3630   -7.7810   21.5500 C   0  0  0  0  0  0  0  0  0  0  0  0
  -21.8990   -8.7290   20.6230 C   0  0  0  0  0  3  0  0  0  0  0  0
  -22.6040   -9.9260   20.4110 C   0  0  0  0  0  3  0  0  0  0  0  0
  -21.6270   -6.6260   21.6710 O   0  0  0  0  0  0  0  0  0  0  0  0
  -21.5910   -5.9150   22.8420 C   0  0  0  0  0  0  0  0  0  0  0  0
  -21.1350   -6.4870   24.0500 C   0  0  0  0  0  3  0  0  0  0  0  0
  -21.0490   -5.7000   25.2150 C   0  0  0  0  0  3  0  0  0  0  0  0
  -21.4080   -4.3400   25.1750 C   0  0  0  0  0  0  0  0  0  0  0  0
  -21.8560   -3.7660   23.9730 C   0  0  0  0  0  3  0  0  0  0  0  0
  -21.9450   -4.5510   22.8100 C   0  0  0  0  0  0  0  0  0  0  0  0
  -22.3570   -3.9870   21.6490 F   0  0  0  0  0  0  0  0  0  0  0  0
  -21.3190   -3.5810   26.2920 F   0  0  0  0  0  0  0  0  0  0  0  0
  -22.6670  -13.2800   21.4600 C   0  0  0  0  0  0  0  0  0  0  0  0
  -22.0320  -12.5530   22.3720 N   0  0  0  0  0  0  0  0  0  0  0  0
  -22.1790  -14.3200   21.0200 O   0  0  0  0  0  0  0  0  0  0  0  0
  -22.4420  -11.7110   22.7480 H   0  0  0  0  0  0  0  0  0  0  0  0
  -21.1210  -12.8410   22.6980 H   0  0  0  0  0  0  0  0  0  0  0  0
  -25.1890  -14.9790   20.4220 N   0  0  0  0  0  0  0  0  0  0  0  0
  -24.4300  -15.6170   20.6330 H   0  0  0  0  0  0  0  0  0  0  0  0
  -25.9840  -15.4370   19.9970 H   0  0  0  0  0  0  0  0  0  0  0  0
  1  4  1  0
  2  6  1  0
  3  1  2  0
  4  9  1  0
  5  2  2  0
  5  3  1  0
  6 55  1  0
  6  4  2  0
  7  5  1  0
  9  8  1  0
  9 12  1  0
 10 11  1  0
 12 10  1  0
 12 11  1  0
 13  3  1  0
 13 14  1  0
 15 26  2  0
 16 14  1  0
 16 21  1  0
 17 25  1  0
 17 27  1  0
 18 24  1  0
 18 20  1  0
 19 25  1  0
 20 21  2  0
 20 19  1  0
 22 23  1  0
 22 16  2  0
 23 18  2  0
 24 17  1  0
 25 15  1  0
 27 29  2  0
 28 27  1  0
 30 28  1  0
 31 40  2  0
 31 36  1  0
 32 28  1  0
 32 36  1  0
 33 32  1  0
 34 35  1  0
 34 33  1  0
 35 31  1  0
 36 37  2  0
 37 38  1  0
 39 38  2  0
 40 39  1  0
 41 15  1  0
 41 46  1  0
 41 42  1  0
 42 45  1  1
 42 43  1  0
 44 42  1  0
 46 49  1  0
 47 51  1  0
 47 46  1  0
 48 47  2  0
 51 50  1  0
 53 51  1  0
 53 54  1  0
 53 52  1  0
 56 69  1  0
 57 62  1  0
 58 59  1  0
 58 57  1  0
 60 59  1  0
 60 73  1  0
 60 61  1  0
 62 56  1  0
 62 61  1  0
 63 56  2  0
 64 66  1  0
 65 68  1  0
 65 67  1  0
 68 64  1  0
 68 55  1  0
 69 67  1  0
 69 66  1  0
 70 71  2  0
 71 90  1  0
 72 71  1  0
 72 75  1  0
 73 74  1  0
 73 70  1  0
 74 72  2  0
 75 76  1  0
 76 77  2  0
 78 81  1  0
 78 77  1  0
 79 78  2  0
 80 79  1  0
 80 75  2  0
 81 82  1  0
 82 83  1  0
 83 84  2  0
 85 84  1  0
 85 89  1  0
 86 85  2  0
 87 82  2  0
 87 86  1  0
 88 87  1  0
 90 91  1  0
 91 94  1  0
 91 93  1  0
 92 90  2  0
 95 70  1  0
 95 96  1  0
 97 95  1  0
M  ISO  4  13 101  14 101  56 100  69 100
M  END
>  <TORSDO>  (36) 
F 20

>  <SCORE>  (36) 
-12.869

>  <name>  (36) 
35

>  <ligand_id>  (36) 
35

>  <original_smiles>  (36) 
[H]c1c([H])c([H])c2c(c1[H])C([H])([H])C([H])([H])C([H])([H])C2([H])N([H])C(=O)C1([H])N(C(=O)C([H])(N([H])C(=O)C([H])(N([H])C([H])([H])[H])C([H])([H])[H])C(C([H])([H])[H])(C([H])([H])[H])C([H])([H])[H])C([H])([H])c2c([H])c(OC([H])([H])c3c([H])c(C([H])(C([H])([H])[H])C4([H])C([H])([H])C4([H])[H])c(OC4([H])C([H])([H])C([H])([H])N(C(=O)N5C([H])([H])C([H])([H])C([H])([H])C([H])(n6nc(-c7c([H])c([H])c(Oc8c([H])c([H])c(F)c([H])c8F)c([H])c7[H])c(C(=O)N([H])[H])c6N([H])[H])C5([H])[H])C([H])([H])C4([H])[H])c([H])c3C([H])([H])[H])c([H])c([H])c2C1([H])[H]

>  <smiles>  (36) 
[H]c1c([H])c([H])c2c(c1[H])C([H])([H])C([H])([H])C([H])([H])C2([H])N([H])C(=O)C1([H])N(C(=O)C([H])(N([H])C(=O)C([H])(N([H])C([H])([H])[H])C([H])([H])[H])C(C([H])([H])[H])(C([H])([H])[H])C([H])([H])[H])C([H])([H])c2c([H])c(OC([H])([H])c3c([H])c(C([H])(C([H])([H])[H])C4([H])C([H])([H])C4([H])[H])c(OC4([H])C([H])([H])C([H])([H])N(C(=O)N5C([H])([H])C([H])([H])C([H])([H])C([H])(n6nc(-c7c([H])c([H])c(Oc8c([H])c([H])c(F)c([H])c8F)c([H])c7[H])c(C(=O)N([H])[H])c6N([H])[H])C5([H])[H])C([H])([H])C4([H])[H])c([H])c3C([H])([H])[H])c([H])c([H])c2C1([H])[H]

$$$$
36:0:0
     RDKit          3D

 96105  0  0  1  0  0  0  0  0999 V2000
  -29.3880  -22.1540   19.8900 C   0  0  0  0  0  2  0  0  0  0  0  0
  -31.4410  -22.1490   21.3160 C   0  0  0  0  0  2  0  0  0  0  0  0
  -29.6510  -23.6410   19.5360 C   0  0  0  0  0  2  0  0  0  0  0  0
  -31.7130  -23.6120   20.9150 C   0  0  0  0  0  2  0  0  0  0  0  0
  -30.7080  -21.4150   20.1790 C   0  0  0  0  0  3  0  0  0  0  0  0
  -30.4690  -24.3600   20.5590 N   0  0  1  0  0  4  0  0  0  0  0  0
  -29.9170  -24.4070   21.4040 H   0  0  0  0  0  0  0  0  0  0  0  0
  -31.0120  -17.6480   19.2910 C   0  0  0  0  0  3  0  0  0  0  0  0
  -30.0910  -17.7850   21.5160 C   0  0  0  0  0  3  0  0  0  0  0  0
  -30.6010  -19.8690   20.2940 C   0  0  0  0  0  0  0  0  0  0  0  0
  -31.0320  -19.0560   19.2020 C   0  0  0  0  0  0  0  0  0  0  0  0
  -30.0970  -19.1990   21.4510 C   0  0  0  0  0  0  0  0  0  0  0  0
  -30.5580  -16.9900   20.4540 C   0  0  0  0  0  0  0  0  0  0  0  0
  -31.5210  -19.6500   17.8870 C   0  0  0  0  0  1  0  0  0  0  0  0
  -29.5380  -19.9250   22.6640 C   0  0  0  0  0  1  0  0  0  0  0  0
  -31.1240  -14.6030   19.9080 C   0  0  0  0  0  0  0  0  0  0  0  0
  -30.7910  -12.4180   18.8150 C   0  0  0  0  0  2  0  0  0  0  0  0
  -29.7740  -12.5900   17.6670 C   0  0  0  0  0  2  0  0  0  0  0  0
  -28.3290  -12.4500   18.1870 C   0  0  0  0  0  2  0  0  0  0  0  0
  -28.0610  -13.3100   19.4510 C   0  0  0  0  0  3  0  0  0  0  0  0
  -29.1790  -13.1070   20.4970 C   0  0  0  0  0  2  0  0  0  0  0  0
  -30.4700  -13.4120   19.8520 N   0  0  0  0  0  0  0  0  0  0  0  0
  -32.1950  -14.8000   19.3250 O   0  0  0  0  0  0  0  0  0  0  0  0
  -30.4810  -15.5690   20.5930 N   0  0  0  0  0  0  0  0  0  0  0  0
  -29.7190  -15.2300   21.1600 H   0  0  0  0  0  0  0  0  0  0  0  0
  -25.7280  -13.9210   20.3560 C   0  0  0  0  0  0  0  0  0  0  0  0
  -24.6770  -13.1470   20.7690 C   0  0  0  0  0  0  0  0  0  0  0  0
  -25.1110  -11.7930   20.6460 C   0  0  0  0  0  0  0  0  0  0  0  0
  -26.7390  -13.0360   20.0120 N   0  0  0  0  0  0  0  0  0  0  0  0
  -26.3740  -11.7480   20.2410 N   0  0  0  0  0  0  0  0  0  0  0  0
  -24.3810  -10.5330   20.8360 C   0  0  0  0  0  0  0  0  0  0  0  0
  -24.7730   -9.5910   21.8130 C   0  0  0  0  0  3  0  0  0  0  0  0
  -24.0440   -8.3950   21.9880 C   0  0  0  0  0  3  0  0  0  0  0  0
  -22.9080   -8.1320   21.1850 C   0  0  0  0  0  0  0  0  0  0  0  0
  -22.5360   -9.0620   20.1990 C   0  0  0  0  0  3  0  0  0  0  0  0
  -23.2660  -10.2490   20.0220 C   0  0  0  0  0  3  0  0  0  0  0  0
  -22.1550   -6.9860   21.2670 O   0  0  0  0  0  0  0  0  0  0  0  0
  -21.9110   -6.3700   22.4680 C   0  0  0  0  0  0  0  0  0  0  0  0
  -21.2630   -7.0360   23.5300 C   0  0  0  0  0  3  0  0  0  0  0  0
  -20.9700   -6.3430   24.7230 C   0  0  0  0  0  3  0  0  0  0  0  0
  -21.3150   -4.9850   24.8510 C   0  0  0  0  0  0  0  0  0  0  0  0
  -21.9560   -4.3180   23.7920 C   0  0  0  0  0  3  0  0  0  0  0  0
  -22.2510   -5.0080   22.6030 C   0  0  0  0  0  0  0  0  0  0  0  0
  -22.8490   -4.3550   21.5780 F   0  0  0  0  0  0  0  0  0  0  0  0
  -21.0280   -4.3160   25.9920 F   0  0  0  0  0  0  0  0  0  0  0  0
  -23.3110  -13.6300   21.1660 C   0  0  0  0  0  0  0  0  0  0  0  0
  -22.6500  -12.9210   22.0750 N   0  0  0  0  0  0  0  0  0  0  0  0
  -22.8410  -14.6690   20.7050 O   0  0  0  0  0  0  0  0  0  0  0  0
  -23.0440  -12.0790   22.4680 H   0  0  0  0  0  0  0  0  0  0  0  0
  -21.7370  -13.2260   22.3820 H   0  0  0  0  0  0  0  0  0  0  0  0
  -25.9030  -15.2960   20.2260 N   0  0  0  0  0  0  0  0  0  0  0  0
  -25.1620  -15.9580   20.4230 H   0  0  0  0  0  0  0  0  0  0  0  0
  -26.7420  -15.7350   19.8650 H   0  0  0  0  0  0  0  0  0  0  0  0
  -30.7800  -25.7700   20.1600 C   0  0  0  0  0  2  0  0  0  0  0  0
  -29.6410  -26.7840   20.3990 C   0  0  0  0  0  2  0  0  0  0  0  0
  -28.7010  -26.7570   19.3280 O   0  0  0  0  0  0  0  0  0  0  0  0
  -24.8260  -31.5110   23.0310 C   0  0  0  0  0  0  0  0  0  0  0  0
  -27.5400  -27.4820   19.4920 C   0  0  0  0  0  0  0  0  0  0  0  0
  -23.6120  -30.1940   21.3200 C   0  0  0  0  0  3  0  0  0  0  0  0
  -25.0740  -28.8500   19.7170 C   0  0  0  0  0  0  0  0  0  0  0  0
  -26.1040  -30.6920   21.0570 C   0  0  0  0  0  2  0  0  0  0  0  0
  -26.2270  -29.3820   20.3100 C   0  0  0  0  0  0  0  0  0  0  0  0
  -27.4600  -28.7030   20.2070 C   0  0  0  0  0  3  0  0  0  0  0  0
  -26.3740  -26.9690   18.8880 C   0  0  0  0  0  3  0  0  0  0  0  0
  -25.1410  -27.6400   19.0060 C   0  0  0  0  0  3  0  0  0  0  0  0
  -23.7940  -29.6400   19.8820 C   0  0  0  0  0  2  0  0  0  0  0  0
  -24.8670  -30.8090   21.8620 N   0  0  0  0  0  0  0  0  0  0  0  0
  -23.7580  -31.6860   23.6330 O   0  0  0  0  0  0  0  0  0  0  0  0
  -23.0480  -29.0680   22.2150 C   0  0  0  0  0  0  0  0  0  0  0  0
  -21.7370  -28.8070   22.0910 N   0  0  0  0  0  0  0  0  0  0  0  0
  -23.7850  -28.4360   22.9750 O   0  0  0  0  0  0  0  0  0  0  0  0
  -21.1990  -29.3770   21.4530 H   0  0  0  0  0  0  0  0  0  0  0  0
  -18.4720  -27.3110   22.4850 C   0  0  0  0  0  0  0  0  0  0  0  0
  -20.9970  -27.7660   22.8040 C   0  0  0  0  0  3  0  0  0  0  0  0
  -21.2240  -26.3800   22.1560 C   0  0  0  0  0  2  0  0  0  0  0  0
  -20.1620  -26.0200   21.1120 C   0  0  0  0  0  2  0  0  0  0  0  0
  -18.7670  -26.0170   21.7450 C   0  0  0  0  0  2  0  0  0  0  0  0
  -19.5190  -28.1400   22.9680 C   0  0  0  0  0  0  0  0  0  0  0  0
  -19.1910  -29.3490   23.6180 C   0  0  0  0  0  3  0  0  0  0  0  0
  -17.8470  -29.7330   23.7900 C   0  0  0  0  0  3  0  0  0  0  0  0
  -16.8140  -28.9000   23.3230 C   0  0  0  0  0  3  0  0  0  0  0  0
  -17.1280  -27.6920   22.6780 C   0  0  0  0  0  3  0  0  0  0  0  0
  -26.1100  -32.1450   23.6510 C   0  0  0  0  0  3  0  0  0  0  0  0
  -26.7160  -31.2930   24.8330 C   0  0  1  0  0  0  0  0  0  0  0  0
  -25.6840  -30.9160   25.9210 C   0  0  0  0  0  1  0  0  0  0  0  0
  -27.3380  -29.9820   24.2960 C   0  0  0  0  0  1  0  0  0  0  0  0
  -27.8620  -32.0800   25.5140 C   0  0  0  0  0  1  0  0  0  0  0  0
  -25.7590  -33.4950   24.1090 N   0  0  0  0  0  0  0  0  0  0  0  0
  -25.9990  -34.6180   23.4180 C   0  0  0  0  0  0  0  0  0  0  0  0
  -26.6130  -34.6280   22.3480 O   0  0  0  0  0  0  0  0  0  0  0  0
  -25.2040  -33.5580   24.9500 H   0  0  0  0  0  0  0  0  0  0  0  0
  -24.1600  -36.3310   23.3140 C   0  0  0  0  0  1  0  0  0  0  0  0
  -25.4740  -35.9410   24.0090 C   0  0  0  0  0  3  0  0  0  0  0  0
  -27.6100  -36.8850   24.7670 C   0  0  0  0  0  1  0  0  0  0  0  0
  -26.4400  -37.0550   23.9070 N   0  0  0  0  0  0  0  0  0  0  0  0
  -25.9980  -37.9380   24.1480 H   0  0  0  0  0  0  0  0  0  0  0  0
  1  5  1  0
  3  1  1  0
  3  6  1  0
  4  2  1  0
  5 10  1  0
  5  2  1  0
  6  4  1  0
  6  7  1  1
  8 13  1  0
 10 12  2  0
 11  8  2  0
 11 10  1  0
 12  9  1  0
 12 15  1  0
 13 24  1  0
 13  9  2  0
 14 11  1  0
 16 24  1  0
 17 22  1  0
 18 19  1  0
 18 17  1  0
 20 19  1  0
 20 29  1  0
 20 21  1  0
 22 16  1  0
 22 21  1  0
 23 16  2  0
 24 25  1  0
 26 27  2  0
 27 46  1  0
 28 27  1  0
 28 31  1  0
 29 30  1  0
 29 26  1  0
 30 28  2  0
 31 32  1  0
 32 33  2  0
 34 37  1  0
 34 33  1  0
 35 34  2  0
 36 35  1  0
 36 31  2  0
 37 38  1  0
 38 43  2  0
 38 39  1  0
 39 40  2  0
 40 41  1  0
 41 45  1  0
 42 41  2  0
 43 42  1  0
 44 43  1  0
 46 47  1  0
 47 50  1  0
 47 49  1  0
 48 46  2  0
 51 26  1  0
 51 52  1  0
 53 51  1  0
 54 55  1  0
 54  6  1  0
 56 58  1  0
 56 55  1  0
 57 68  2  0
 58 63  1  0
 59 67  1  0
 59 69  1  0
 60 66  1  0
 60 62  1  0
 61 67  1  0
 62 61  1  0
 63 62  2  0
 64 65  1  0
 64 58  2  0
 65 60  2  0
 66 59  1  0
 67 57  1  0
 69 71  2  0
 70 69  1  0
 72 70  1  0
 73 82  2  0
 73 78  1  0
 74 70  1  0
 74 78  1  0
 75 74  1  0
 76 77  1  0
 76 75  1  0
 77 73  1  0
 78 79  2  0
 79 80  1  0
 81 80  2  0
 82 81  1  0
 83 57  1  0
 83 88  1  0
 83 84  1  0
 84 87  1  1
 84 85  1  0
 86 84  1  0
 88 91  1  0
 89 93  1  0
 89 88  1  0
 90 89  2  0
 93 92  1  0
 95 93  1  0
 95 96  1  0
 95 94  1  0
M  ISO  4  16 100  24 100  55 101  56 101
M  END
>  <TORSDO>  (37) 
F 19

>  <SCORE>  (37) 
-10.614

>  <name>  (37) 
36

>  <ligand_id>  (37) 
36

>  <original_smiles>  (37) 
[H]c1c([H])c([H])c2c(c1[H])C([H])([H])C([H])([H])C([H])([H])C2([H])N([H])C(=O)C1([H])N(C(=O)C([H])(N([H])C(=O)C([H])(N([H])C([H])([H])[H])C([H])([H])[H])C(C([H])([H])[H])(C([H])([H])[H])C([H])([H])[H])C([H])([H])c2c([H])c(OC([H])([H])C([H])([H])[N+]3([H])C([H])([H])C([H])([H])C([H])(c4c(C([H])([H])[H])c([H])c(N([H])C(=O)N5C([H])([H])C([H])([H])C([H])([H])C([H])(n6nc(-c7c([H])c([H])c(Oc8c([H])c([H])c(F)c([H])c8F)c([H])c7[H])c(C(=O)N([H])[H])c6N([H])[H])C5([H])[H])c([H])c4C([H])([H])[H])C([H])([H])C3([H])[H])c([H])c([H])c2C1([H])[H]

>  <smiles>  (37) 
[H]c1c([H])c([H])c2c(c1[H])C([H])([H])C([H])([H])C([H])([H])C2([H])N([H])C(=O)C1([H])N(C(=O)C([H])(N([H])C(=O)C([H])(N([H])C([H])([H])[H])C([H])([H])[H])C(C([H])([H])[H])(C([H])([H])[H])C([H])([H])[H])C([H])([H])c2c([H])c(OC([H])([H])C([H])([H])[N+]3([H])C([H])([H])C([H])([H])C([H])(c4c(C([H])([H])[H])c([H])c(N([H])C(=O)N5C([H])([H])C([H])([H])C([H])([H])C([H])(n6nc(-c7c([H])c([H])c(Oc8c([H])c([H])c(F)c([H])c8F)c([H])c7[H])c(C(=O)N([H])[H])c6N([H])[H])C5([H])[H])c([H])c4C([H])([H])[H])C([H])([H])C3([H])[H])c([H])c([H])c2C1([H])[H]

$$$$
37:0:0
     RDKit          3D

 95105  0  0  1  0  0  0  0  0999 V2000
  -30.1380  -19.8690   19.4830 C   0  0  0  0  0  3  0  0  0  0  0  0
  -30.1200  -20.7390   21.7370 C   0  0  0  0  0  3  0  0  0  0  0  0
  -30.2140  -19.6390   20.8670 C   0  0  0  0  0  0  0  0  0  0  0  0
  -29.7040  -22.2690   19.8500 C   0  0  0  0  0  0  0  0  0  0  0  0
  -29.8770  -21.1550   18.9710 C   0  0  0  0  0  0  0  0  0  0  0  0
  -29.8840  -22.0460   21.2500 C   0  0  0  0  0  0  0  0  0  0  0  0
  -29.7630  -21.2760   17.4560 C   0  0  0  0  0  1  0  0  0  0  0  0
  -29.8470  -23.1580   22.2900 C   0  0  0  0  0  1  0  0  0  0  0  0
  -30.8550  -14.4730   19.9800 C   0  0  0  0  0  0  0  0  0  0  0  0
  -30.4080  -12.4070   18.6900 C   0  0  0  0  0  2  0  0  0  0  0  0
  -29.3500  -12.6570   17.5960 C   0  0  0  0  0  2  0  0  0  0  0  0
  -27.9250  -12.4870   18.1550 C   0  0  0  0  0  2  0  0  0  0  0  0
  -27.7200  -13.2570   19.4850 C   0  0  0  0  0  3  0  0  0  0  0  0
  -28.8740  -12.9290   20.4670 C   0  0  0  0  0  2  0  0  0  0  0  0
  -30.1360  -13.3180   19.8200 N   0  0  0  0  0  0  0  0  0  0  0  0
  -31.8390  -14.7050   19.2670 O   0  0  0  0  0  0  0  0  0  0  0  0
  -29.1750  -17.3300   20.9090 C   0  0  0  0  0  2  0  0  0  0  0  0
  -31.6760  -17.5330   21.1270 C   0  0  0  0  0  2  0  0  0  0  0  0
  -29.2890  -15.8810   21.4080 C   0  0  0  0  0  2  0  0  0  0  0  0
  -31.6800  -16.0760   21.6570 C   0  0  0  0  0  2  0  0  0  0  0  0
  -30.3270  -18.2170   21.4170 C   0  0  0  0  0  3  0  0  0  0  0  0
  -30.5920  -15.2820   21.0500 N   0  0  0  0  0  0  0  0  0  0  0  0
  -25.4010  -13.8610   20.4290 C   0  0  0  0  0  0  0  0  0  0  0  0
  -24.3630  -13.0830   20.8630 C   0  0  0  0  0  0  0  0  0  0  0  0
  -24.8030  -11.7300   20.7310 C   0  0  0  0  0  0  0  0  0  0  0  0
  -26.4110  -12.9810   20.0700 N   0  0  0  0  0  0  0  0  0  0  0  0
  -26.0580  -11.6920   20.3030 N   0  0  0  0  0  0  0  0  0  0  0  0
  -24.0850  -10.4650   20.9320 C   0  0  0  0  0  0  0  0  0  0  0  0
  -24.5420   -9.4970   21.8520 C   0  0  0  0  0  3  0  0  0  0  0  0
  -23.8250   -8.2950   22.0410 C   0  0  0  0  0  3  0  0  0  0  0  0
  -22.6380   -8.0560   21.3090 C   0  0  0  0  0  0  0  0  0  0  0  0
  -22.2000   -9.0140   20.3780 C   0  0  0  0  0  3  0  0  0  0  0  0
  -22.9180  -10.2060   20.1870 C   0  0  0  0  0  3  0  0  0  0  0  0
  -21.8910   -6.9080   21.4090 O   0  0  0  0  0  0  0  0  0  0  0  0
  -21.8090   -6.2020   22.5820 C   0  0  0  0  0  0  0  0  0  0  0  0
  -21.3020   -6.7800   23.7670 C   0  0  0  0  0  3  0  0  0  0  0  0
  -21.1700   -5.9980   24.9320 C   0  0  0  0  0  3  0  0  0  0  0  0
  -21.5340   -4.6380   24.9130 C   0  0  0  0  0  0  0  0  0  0  0  0
  -22.0350   -4.0590   23.7340 C   0  0  0  0  0  3  0  0  0  0  0  0
  -22.1680   -4.8380   22.5700 C   0  0  0  0  0  0  0  0  0  0  0  0
  -22.6310   -4.2700   21.4310 F   0  0  0  0  0  0  0  0  0  0  0  0
  -21.4010   -3.8860   26.0290 F   0  0  0  0  0  0  0  0  0  0  0  0
  -23.0020  -13.5560   21.2870 C   0  0  0  0  0  0  0  0  0  0  0  0
  -22.3470  -12.8230   22.1810 N   0  0  0  0  0  0  0  0  0  0  0  0
  -22.5300  -14.6090   20.8610 O   0  0  0  0  0  0  0  0  0  0  0  0
  -22.7430  -11.9690   22.5460 H   0  0  0  0  0  0  0  0  0  0  0  0
  -21.4390  -13.1210   22.5050 H   0  0  0  0  0  0  0  0  0  0  0  0
  -25.5620  -15.2370   20.2940 N   0  0  0  0  0  0  0  0  0  0  0  0
  -24.8160  -15.8910   20.5040 H   0  0  0  0  0  0  0  0  0  0  0  0
  -26.3820  -15.6870   19.9050 H   0  0  0  0  0  0  0  0  0  0  0  0
  -27.9470  -24.3260   19.5570 C   0  0  0  0  0  2  0  0  0  0  0  0
  -29.9630  -24.9940   19.5720 C   0  0  0  0  0  2  0  0  0  0  0  0
  -29.2970  -23.6430   19.2670 C   0  0  0  0  0  3  0  0  0  0  0  0
  -28.6240  -25.6730   19.2320 C   0  0  0  0  0  3  0  0  0  0  0  0
  -28.4020  -26.7680   20.1180 O   0  0  0  0  0  0  0  0  0  0  0  0
  -24.6330  -31.9100   23.2100 C   0  0  0  0  0  0  0  0  0  0  0  0
  -27.2090  -27.4550   20.0930 C   0  0  0  0  0  0  0  0  0  0  0  0
  -23.3920  -30.5110   21.5880 C   0  0  0  0  0  3  0  0  0  0  0  0
  -24.8140  -28.9620   20.1440 C   0  0  0  0  0  0  0  0  0  0  0  0
  -25.9160  -30.8530   21.3560 C   0  0  0  0  0  2  0  0  0  0  0  0
  -25.9790  -29.4810   20.7200 C   0  0  0  0  0  0  0  0  0  0  0  0
  -27.1730  -28.7280   20.7040 C   0  0  0  0  0  3  0  0  0  0  0  0
  -26.0240  -26.9510   19.5040 C   0  0  0  0  0  3  0  0  0  0  0  0
  -24.8290  -27.6940   19.5390 C   0  0  0  0  0  3  0  0  0  0  0  0
  -23.5760  -29.8260   20.2070 C   0  0  0  0  0  2  0  0  0  0  0  0
  -24.6650  -31.1060   22.1090 N   0  0  0  0  0  0  0  0  0  0  0  0
  -23.5630  -32.1920   23.7650 O   0  0  0  0  0  0  0  0  0  0  0  0
  -22.7490  -29.4960   22.5610 C   0  0  0  0  0  0  0  0  0  0  0  0
  -21.4300  -29.2900   22.4220 N   0  0  0  0  0  0  0  0  0  0  0  0
  -23.4330  -28.8980   23.3940 O   0  0  0  0  0  0  0  0  0  0  0  0
  -20.9390  -29.8270   21.7200 H   0  0  0  0  0  0  0  0  0  0  0  0
  -18.0750  -28.0260   22.8710 C   0  0  0  0  0  0  0  0  0  0  0  0
  -20.6180  -28.3540   23.1980 C   0  0  0  0  0  3  0  0  0  0  0  0
  -20.7700  -26.9100   22.6650 C   0  0  0  0  0  2  0  0  0  0  0  0
  -19.7020  -26.5320   21.6340 C   0  0  0  0  0  2  0  0  0  0  0  0
  -18.3020  -26.6610   22.2400 C   0  0  0  0  0  2  0  0  0  0  0  0
  -19.1640  -28.8270   23.3060 C   0  0  0  0  0  0  0  0  0  0  0  0
  -18.9010  -30.1020   23.8530 C   0  0  0  0  0  3  0  0  0  0  0  0
  -17.5820  -30.5760   23.9700 C   0  0  0  0  0  3  0  0  0  0  0  0
  -16.5070  -29.7720   23.5530 C   0  0  0  0  0  3  0  0  0  0  0  0
  -16.7550  -28.4980   23.0100 C   0  0  0  0  0  3  0  0  0  0  0  0
  -25.9350  -32.5300   23.8100 C   0  0  0  0  0  3  0  0  0  0  0  0
  -26.4870  -31.7330   25.0550 C   0  0  1  0  0  0  0  0  0  0  0  0
  -25.4210  -31.4620   26.1420 C   0  0  0  0  0  1  0  0  0  0  0  0
  -27.0710  -30.3690   24.6170 C   0  0  0  0  0  1  0  0  0  0  0  0
  -27.6490  -32.5200   25.7070 C   0  0  0  0  0  1  0  0  0  0  0  0
  -25.6330  -33.9200   24.1730 N   0  0  0  0  0  0  0  0  0  0  0  0
  -25.9340  -34.9840   23.4170 C   0  0  0  0  0  0  0  0  0  0  0  0
  -26.5650  -34.8990   22.3610 O   0  0  0  0  0  0  0  0  0  0  0  0
  -25.0690  -34.0600   24.9980 H   0  0  0  0  0  0  0  0  0  0  0  0
  -24.1840  -36.7710   23.1540 C   0  0  0  0  0  1  0  0  0  0  0  0
  -25.4570  -36.3630   23.9130 C   0  0  0  0  0  3  0  0  0  0  0  0
  -27.6110  -37.2550   24.6840 C   0  0  0  0  0  1  0  0  0  0  0  0
  -26.4810  -37.4230   23.7750 N   0  0  0  0  0  0  0  0  0  0  0  0
  -26.0750  -38.3400   23.9380 H   0  0  0  0  0  0  0  0  0  0  0  0
  1  3  1  0
  3  2  2  0
  4  6  2  0
  5  1  2  0
  5  4  1  0
  6  2  1  0
  6  8  1  0
  7  5  1  0
  9 22  1  0
 10 15  1  0
 11 12  1  0
 11 10  1  0
 13 12  1  0
 13 26  1  0
 13 14  1  0
 15  9  1  0
 15 14  1  0
 16  9  2  0
 17 19  1  0
 17 21  1  0
 18 21  1  0
 18 20  1  0
 21  3  1  0
 22 19  1  0
 22 20  1  0
 23 24  2  0
 24 43  1  0
 25 24  1  0
 25 28  1  0
 26 27  1  0
 26 23  1  0
 27 25  2  0
 28 29  1  0
 29 30  2  0
 31 34  1  0
 31 30  1  0
 32 31  2  0
 33 32  1  0
 33 28  2  0
 34 35  1  0
 35 36  1  0
 36 37  2  0
 38 37  1  0
 38 42  1  0
 39 38  2  0
 40 35  2  0
 40 39  1  0
 41 40  1  0
 43 44  1  0
 44 47  1  0
 44 46  1  0
 45 43  2  0
 48 23  1  0
 48 49  1  0
 50 48  1  0
 53 51  1  0
 53 52  1  0
 53  4  1  0
 54 51  1  0
 54 52  1  0
 54 55  1  0
 56 67  2  0
 57 55  1  0
 57 62  1  0
 58 66  1  0
 58 68  1  0
 59 65  1  0
 59 61  1  0
 60 66  1  0
 61 60  1  0
 62 61  2  0
 63 64  1  0
 63 57  2  0
 64 59  2  0
 65 58  1  0
 66 56  1  0
 68 70  2  0
 69 68  1  0
 71 69  1  0
 72 81  2  0
 72 77  1  0
 73 69  1  0
 73 77  1  0
 74 73  1  0
 75 76  1  0
 75 74  1  0
 76 72  1  0
 77 78  2  0
 78 79  1  0
 80 79  2  0
 81 80  1  0
 82 56  1  0
 82 87  1  0
 82 83  1  0
 83 86  1  1
 83 84  1  0
 85 83  1  0
 87 90  1  0
 88 92  1  0
 88 87  1  0
 89 88  2  0
 92 91  1  0
 94 92  1  0
 94 95  1  0
 94 93  1  0
M  ISO  4   9 100  22 100  54 101  55 101
M  END
>  <TORSDO>  (38) 
F 17

>  <SCORE>  (38) 
-14.467

>  <name>  (38) 
37

>  <ligand_id>  (38) 
37

>  <original_smiles>  (38) 
[H]c1c([H])c([H])c2c(c1[H])C([H])([H])C([H])([H])C([H])([H])C2([H])N([H])C(=O)C1([H])N(C(=O)C([H])(N([H])C(=O)C([H])(N([H])C([H])([H])[H])C([H])([H])[H])C(C([H])([H])[H])(C([H])([H])[H])C([H])([H])[H])C([H])([H])c2c([H])c(OC3([H])C([H])([H])C([H])(c4c(C([H])([H])[H])c([H])c(C5([H])C([H])([H])C([H])([H])N(C(=O)N6C([H])([H])C([H])([H])C([H])([H])C([H])(n7nc(-c8c([H])c([H])c(Oc9c([H])c([H])c(F)c([H])c9F)c([H])c8[H])c(C(=O)N([H])[H])c7N([H])[H])C6([H])[H])C([H])([H])C5([H])[H])c([H])c4C([H])([H])[H])C3([H])[H])c([H])c([H])c2C1([H])[H]

>  <smiles>  (38) 
[H]c1c([H])c([H])c2c(c1[H])C([H])([H])C([H])([H])C([H])([H])C2([H])N([H])C(=O)C1([H])N(C(=O)C([H])(N([H])C(=O)C([H])(N([H])C([H])([H])[H])C([H])([H])[H])C(C([H])([H])[H])(C([H])([H])[H])C([H])([H])[H])C([H])([H])c2c([H])c(OC3([H])C([H])([H])C([H])(c4c(C([H])([H])[H])c([H])c(C5([H])C([H])([H])C([H])([H])N(C(=O)N6C([H])([H])C([H])([H])C([H])([H])C([H])(n7nc(-c8c([H])c([H])c(Oc9c([H])c([H])c(F)c([H])c9F)c([H])c8[H])c(C(=O)N([H])[H])c7N([H])[H])C6([H])[H])C([H])([H])C5([H])[H])c([H])c4C([H])([H])[H])C3([H])[H])c([H])c([H])c2C1([H])[H]

$$$$
38:0:0
     RDKit          3D

102111  0  0  1  0  0  0  0  0999 V2000
  -31.2580  -20.8260   20.0250 C   0  0  0  0  0  3  0  0  0  0  0  0
  -29.7510  -22.4590   19.0510 C   0  0  0  0  0  3  0  0  0  0  0  0
  -31.8900  -21.9410   17.9710 C   0  0  0  0  0  3  0  0  0  0  0  0
  -30.0140  -21.4780   20.0400 C   0  0  0  0  0  0  0  0  0  0  0  0
  -32.1630  -20.9710   18.9500 C   0  0  0  0  0  0  0  0  0  0  0  0
  -30.7220  -22.7220   18.0530 C   0  0  0  0  0  0  0  0  0  0  0  0
  -28.6420  -19.5530   20.8700 C   0  0  0  0  0  1  0  0  0  0  0  0
  -28.9270  -21.0570   21.0410 C   0  0  0  0  0  3  0  0  0  0  0  0
  -29.3050  -21.2760   22.4640 N   0  0  0  0  0  4  0  0  0  0  0  0
  -28.4350  -21.1820   22.9660 H   0  0  0  0  0  0  0  0  0  0  0  0
  -29.9010  -20.5400   22.7960 H   0  0  0  0  0  0  0  0  0  0  0  0
  -29.8290  -22.6060   22.8540 C   0  0  0  0  0  2  0  0  0  0  0  0
  -30.5740  -24.8570   21.9860 C   0  0  0  0  0  1  0  0  0  0  0  0
  -32.1060  -22.8910   21.7120 C   0  0  0  0  0  1  0  0  0  0  0  0
  -30.6340  -23.3400   21.7560 C   0  0  0  0  0  3  0  0  0  0  0  0
  -33.2880  -20.1790   18.8320 O   0  0  0  0  0  0  0  0  0  0  0  0
  -33.1270  -14.8900   19.8340 C   0  0  0  0  0  0  0  0  0  0  0  0
  -32.7660  -12.4910   19.4880 C   0  0  0  0  0  2  0  0  0  0  0  0
  -31.9070  -12.3150   18.2230 C   0  0  0  0  0  2  0  0  0  0  0  0
  -30.4070  -12.3530   18.5800 C   0  0  0  0  0  2  0  0  0  0  0  0
  -30.0330  -13.5530   19.4930 C   0  0  0  0  0  3  0  0  0  0  0  0
  -31.0340  -13.7220   20.6560 C   0  0  0  0  0  2  0  0  0  0  0  0
  -32.3910  -13.7740   20.0880 N   0  0  0  0  0  0  0  0  0  0  0  0
  -34.3040  -14.8640   19.4640 O   0  0  0  0  0  0  0  0  0  0  0  0
  -32.5080  -18.4440   20.4450 C   0  0  0  0  0  2  0  0  0  0  0  0
  -32.3590  -18.0200   18.0370 C   0  0  0  0  0  2  0  0  0  0  0  0
  -32.5900  -16.9750   20.8350 C   0  0  0  0  0  2  0  0  0  0  0  0
  -32.2020  -16.5090   18.3180 C   0  0  0  0  0  2  0  0  0  0  0  0
  -33.1590  -18.7710   19.1040 C   0  0  0  0  0  3  0  0  0  0  0  0
  -32.4290  -16.0310   19.7120 N   0  0  0  0  0  0  0  0  0  0  0  0
  -27.7180  -14.4540   20.1680 C   0  0  0  0  0  0  0  0  0  0  0  0
  -26.5650  -13.8160   20.5430 C   0  0  0  0  0  0  0  0  0  0  0  0
  -26.8640  -12.4200   20.5440 C   0  0  0  0  0  0  0  0  0  0  0  0
  -28.6550  -13.4490   19.9710 N   0  0  0  0  0  0  0  0  0  0  0  0
  -28.1440  -12.2240   20.2550 N   0  0  0  0  0  0  0  0  0  0  0  0
  -25.9970  -11.2570   20.7580 C   0  0  0  0  0  0  0  0  0  0  0  0
  -26.1280  -10.4370   21.9000 C   0  0  0  0  0  3  0  0  0  0  0  0
  -25.2680   -9.3330   22.0900 C   0  0  0  0  0  3  0  0  0  0  0  0
  -24.2660   -9.0430   21.1370 C   0  0  0  0  0  0  0  0  0  0  0  0
  -24.1540   -9.8490   19.9900 C   0  0  0  0  0  3  0  0  0  0  0  0
  -25.0110  -10.9430   19.8000 C   0  0  0  0  0  3  0  0  0  0  0  0
  -23.4030   -7.9750   21.2240 O   0  0  0  0  0  0  0  0  0  0  0  0
  -22.7350   -7.6840   22.3850 C   0  0  0  0  0  0  0  0  0  0  0  0
  -21.8180   -8.5880   22.9650 C   0  0  0  0  0  3  0  0  0  0  0  0
  -21.1010   -8.2190   24.1230 C   0  0  0  0  0  3  0  0  0  0  0  0
  -21.2960   -6.9480   24.6950 C   0  0  0  0  0  0  0  0  0  0  0  0
  -22.2070   -6.0450   24.1180 C   0  0  0  0  0  3  0  0  0  0  0  0
  -22.9230   -6.4120   22.9650 C   0  0  0  0  0  0  0  0  0  0  0  0
  -23.7830   -5.5320   22.4000 F   0  0  0  0  0  0  0  0  0  0  0  0
  -20.6030   -6.5880   25.8010 F   0  0  0  0  0  0  0  0  0  0  0  0
  -25.2300  -14.4590   20.7870 C   0  0  0  0  0  0  0  0  0  0  0  0
  -24.4470  -13.9050   21.7050 N   0  0  0  0  0  0  0  0  0  0  0  0
  -24.8990  -15.4930   20.2050 O   0  0  0  0  0  0  0  0  0  0  0  0
  -24.7300  -13.0690   22.1970 H   0  0  0  0  0  0  0  0  0  0  0  0
  -23.5490  -14.3170   21.9160 H   0  0  0  0  0  0  0  0  0  0  0  0
  -28.0450  -15.7890   19.9650 N   0  0  0  0  0  0  0  0  0  0  0  0
  -27.3640  -16.5330   20.0670 H   0  0  0  0  0  0  0  0  0  0  0  0
  -28.9590  -16.1150   19.6720 H   0  0  0  0  0  0  0  0  0  0  0  0
  -30.5650  -23.7290   17.1400 O   0  0  0  0  0  0  0  0  0  0  0  0
  -29.8670  -24.8550   17.6620 C   0  0  0  0  0  2  0  0  0  0  0  0
  -30.0810  -26.0630   16.7320 C   0  0  0  0  0  2  0  0  0  0  0  0
  -29.8000  -27.3040   17.3830 O   0  0  0  0  0  0  0  0  0  0  0  0
  -25.7380  -28.4730   23.0930 C   0  0  0  0  0  0  0  0  0  0  0  0
  -28.5220  -27.5490   17.8390 C   0  0  0  0  0  0  0  0  0  0  0  0
  -24.5180  -28.1430   20.9630 C   0  0  0  0  0  3  0  0  0  0  0  0
  -25.9560  -28.1430   18.8590 C   0  0  0  0  0  0  0  0  0  0  0  0
  -26.8930  -29.0930   20.9730 C   0  0  0  0  0  2  0  0  0  0  0  0
  -27.0940  -28.4410   19.6200 C   0  0  0  0  0  0  0  0  0  0  0  0
  -28.3780  -28.1440   19.1130 C   0  0  0  0  0  3  0  0  0  0  0  0
  -27.3600  -27.2500   17.0890 C   0  0  0  0  0  3  0  0  0  0  0  0
  -26.0840  -27.5430   17.5960 C   0  0  0  0  0  3  0  0  0  0  0  0
  -24.6180  -28.5040   19.4560 C   0  0  0  0  0  2  0  0  0  0  0  0
  -25.7430  -28.5460   21.7310 N   0  0  0  0  0  0  0  0  0  0  0  0
  -24.7240  -28.1200   23.7060 O   0  0  0  0  0  0  0  0  0  0  0  0
  -24.1820  -26.6390   21.0890 C   0  0  0  0  0  0  0  0  0  0  0  0
  -22.9360  -26.2690   20.7530 N   0  0  0  0  0  0  0  0  0  0  0  0
  -25.0410  -25.8310   21.4580 O   0  0  0  0  0  0  0  0  0  0  0  0
  -22.2880  -26.9910   20.4670 H   0  0  0  0  0  0  0  0  0  0  0  0
  -20.0320  -24.2650   19.9720 C   0  0  0  0  0  0  0  0  0  0  0  0
  -22.4140  -24.9030   20.7530 C   0  0  0  0  0  3  0  0  0  0  0  0
  -22.9200  -24.1060   19.5260 C   0  0  0  0  0  2  0  0  0  0  0  0
  -21.9600  -24.1700   18.3330 C   0  0  0  0  0  2  0  0  0  0  0  0
  -20.5880  -23.6050   18.7200 C   0  0  0  0  0  2  0  0  0  0  0  0
  -20.8900  -24.8850   20.9190 C   0  0  0  0  0  0  0  0  0  0  0  0
  -20.3210  -25.5140   22.0490 C   0  0  0  0  0  3  0  0  0  0  0  0
  -18.9250  -25.5240   22.2400 C   0  0  0  0  0  3  0  0  0  0  0  0
  -18.0840  -24.8950   21.3080 C   0  0  0  0  0  3  0  0  0  0  0  0
  -18.6360  -24.2650   20.1790 C   0  0  0  0  0  3  0  0  0  0  0  0
  -26.9950  -28.8530   23.9370 C   0  0  0  0  0  3  0  0  0  0  0  0
  -26.6100  -29.9630   24.8200 N   0  0  0  0  0  0  0  0  0  0  0  0
  -27.0450  -31.2230   24.6870 C   0  0  0  0  0  0  0  0  0  0  0  0
  -27.8760  -31.5590   23.8380 O   0  0  0  0  0  0  0  0  0  0  0  0
  -25.8900  -29.7740   25.5010 H   0  0  0  0  0  0  0  0  0  0  0  0
  -25.4630  -33.1670   24.8940 C   0  0  0  0  0  1  0  0  0  0  0  0
  -26.4660  -32.2790   25.6470 C   0  0  0  0  0  3  0  0  0  0  0  0
  -28.3330  -32.4030   27.2370 C   0  0  0  0  0  1  0  0  0  0  0  0
  -27.4990  -33.1250   26.2810 N   0  0  0  0  0  0  0  0  0  0  0  0
  -27.0730  -33.9120   26.7620 H   0  0  0  0  0  0  0  0  0  0  0  0
  -27.5700  -27.6450   24.7730 C   0  0  1  0  0  0  0  0  0  0  0  0
  -26.5100  -26.9290   25.6390 C   0  0  0  0  0  1  0  0  0  0  0  0
  -28.2060  -26.5910   23.8360 C   0  0  0  0  0  1  0  0  0  0  0  0
  -28.6950  -28.1430   25.7100 C   0  0  0  0  0  1  0  0  0  0  0  0
  1  4  1  0
  2  4  2  0
  3  6  2  0
  3  5  1  0
  4  8  1  0
  5  1  2  0
  6  2  1  0
  8  7  1  0
  8  9  1  0
  9 11  1  0
  9 12  1  0
  9 10  1  0
 14 15  1  0
 15 13  1  0
 15 12  1  0
 16  5  1  0
 17 23  1  0
 18 23  1  0
 19 20  1  0
 19 18  1  0
 21 20  1  0
 21 34  1  0
 21 22  1  0
 23 22  1  0
 24 17  2  0
 25 27  1  0
 26 28  1  0
 26 29  1  0
 28 30  1  0
 29 16  1  0
 29 25  1  0
 30 17  1  0
 30 27  1  0
 31 32  2  0
 32 33  1  0
 32 51  1  0
 33 36  1  0
 34 31  1  0
 34 35  1  0
 35 33  2  0
 36 37  1  0
 37 38  2  0
 39 42  1  0
 39 38  1  0
 40 39  2  0
 41 40  1  0
 41 36  2  0
 42 43  1  0
 43 48  2  0
 43 44  1  0
 44 45  2  0
 45 46  1  0
 46 50  1  0
 47 46  2  0
 48 47  1  0
 49 48  1  0
 51 52  1  0
 52 55  1  0
 52 54  1  0
 53 51  2  0
 56 57  1  0
 56 31  1  0
 58 56  1  0
 59 60  1  0
 59  6  1  0
 61 62  1  0
 61 60  1  0
 62 64  1  0
 63 74  2  0
 64 69  1  0
 65 75  1  0
 65 73  1  0
 66 72  1  0
 66 68  1  0
 67 73  1  0
 68 67  1  0
 69 68  2  0
 70 71  1  0
 70 64  2  0
 71 66  2  0
 72 65  1  0
 73 63  1  0
 75 77  2  0
 76 75  1  0
 78 76  1  0
 79 88  2  0
 79 84  1  0
 80 76  1  0
 80 84  1  0
 81 80  1  0
 82 83  1  0
 82 81  1  0
 83 79  1  0
 84 85  2  0
 85 86  1  0
 87 86  2  0
 88 87  1  0
 89 63  1  0
 89 99  1  0
 89 90  1  0
 90 93  1  0
 91 90  1  0
 91 95  1  0
 92 91  2  0
 95 94  1  0
 95 97  1  0
 97 98  1  0
 97 96  1  0
 99100  1  1
 99102  1  0
101 99  1  0
M  ISO  4  17 100  30 100  61 101  62 101
M  END
>  <TORSDO>  (39) 
F 24

>  <SCORE>  (39) 
-5.276

>  <name>  (39) 
38

>  <ligand_id>  (39) 
38

>  <original_smiles>  (39) 
[H]c1c([H])c([H])c2c(c1[H])C([H])([H])C([H])([H])C([H])([H])C2([H])N([H])C(=O)C1([H])N(C(=O)C([H])(N([H])C(=O)C([H])(N([H])C([H])([H])[H])C([H])([H])[H])C(C([H])([H])[H])(C([H])([H])[H])C([H])([H])[H])C([H])([H])c2c([H])c(OC([H])([H])C([H])([H])Oc3c([H])c(OC4([H])C([H])([H])C([H])([H])N(C(=O)N5C([H])([H])C([H])([H])C([H])([H])C([H])(n6nc(-c7c([H])c([H])c(Oc8c([H])c([H])c(F)c([H])c8F)c([H])c7[H])c(C(=O)N([H])[H])c6N([H])[H])C5([H])[H])C([H])([H])C4([H])[H])c([H])c(C([H])(C([H])([H])[H])[N+]([H])([H])C([H])([H])C([H])(C([H])([H])[H])C([H])([H])[H])c3[H])c([H])c([H])c2C1([H])[H]

>  <smiles>  (39) 
[H]c1c([H])c([H])c2c(c1[H])C([H])([H])C([H])([H])C([H])([H])C2([H])N([H])C(=O)C1([H])N(C(=O)C([H])(N([H])C(=O)C([H])(N([H])C([H])([H])[H])C([H])([H])[H])C(C([H])([H])[H])(C([H])([H])[H])C([H])([H])[H])C([H])([H])c2c([H])c(OC([H])([H])C([H])([H])Oc3c([H])c(OC4([H])C([H])([H])C([H])([H])N(C(=O)N5C([H])([H])C([H])([H])C([H])([H])C([H])(n6nc(-c7c([H])c([H])c(Oc8c([H])c([H])c(F)c([H])c8F)c([H])c7[H])c(C(=O)N([H])[H])c6N([H])[H])C5([H])[H])C([H])([H])C4([H])[H])c([H])c(C([H])(C([H])([H])[H])[N+]([H])([H])C([H])([H])C([H])(C([H])([H])[H])C([H])([H])[H])c3[H])c([H])c([H])c2C1([H])[H]

$$$$
39:0:0
     RDKit          3D

 98108  0  0  1  0  0  0  0  0999 V2000
  -31.7020  -21.3610   21.2580 C   0  0  0  0  0  3  0  0  0  0  0  0
  -29.5660  -20.7410   20.2820 C   0  0  0  0  0  3  0  0  0  0  0  0
  -30.4700  -21.7410   20.6930 C   0  0  0  0  0  0  0  0  0  0  0  0
  -31.1110  -18.9940   21.0270 C   0  0  0  0  0  0  0  0  0  0  0  0
  -32.0340  -20.0000   21.4200 C   0  0  0  0  0  0  0  0  0  0  0  0
  -29.8890  -19.3710   20.4220 C   0  0  0  0  0  0  0  0  0  0  0  0
  -33.3950  -19.6560   22.0030 C   0  0  0  0  0  1  0  0  0  0  0  0
  -29.2410  -23.7180   21.6910 C   0  0  0  0  0  2  0  0  0  0  0  0
  -29.5080  -23.5750   19.1710 C   0  0  0  0  0  2  0  0  0  0  0  0
  -28.9480  -25.2220   21.5680 C   0  0  0  0  0  2  0  0  0  0  0  0
  -29.2360  -25.0810   19.0530 C   0  0  0  0  0  2  0  0  0  0  0  0
  -30.1350  -23.2220   20.5390 C   0  0  0  0  0  3  0  0  0  0  0  0
  -28.3400  -25.5750   20.2000 C   0  0  0  0  0  3  0  0  0  0  0  0
  -28.2910  -26.9940   20.1110 O   0  0  0  0  0  0  0  0  0  0  0  0
  -24.5300  -32.0390   23.3690 C   0  0  0  0  0  0  0  0  0  0  0  0
  -27.0820  -27.6470   20.1700 C   0  0  0  0  0  0  0  0  0  0  0  0
  -23.2810  -30.6830   21.7180 C   0  0  0  0  0  3  0  0  0  0  0  0
  -24.6940  -29.1500   20.2500 C   0  0  0  0  0  0  0  0  0  0  0  0
  -25.8030  -31.0210   21.4870 C   0  0  0  0  0  2  0  0  0  0  0  0
  -25.8620  -29.6600   20.8290 C   0  0  0  0  0  0  0  0  0  0  0  0
  -27.0560  -28.9140   20.7850 C   0  0  0  0  0  3  0  0  0  0  0  0
  -25.8980  -27.1420   19.5850 C   0  0  0  0  0  3  0  0  0  0  0  0
  -24.7040  -27.8890   19.6280 C   0  0  0  0  0  3  0  0  0  0  0  0
  -23.4590  -30.0190   20.3260 C   0  0  0  0  0  2  0  0  0  0  0  0
  -24.5580  -31.2610   22.2510 N   0  0  0  0  0  0  0  0  0  0  0  0
  -23.4610  -32.3160   23.9290 O   0  0  0  0  0  0  0  0  0  0  0  0
  -22.6310  -29.6550   22.6690 C   0  0  0  0  0  0  0  0  0  0  0  0
  -21.3150  -29.4440   22.5070 N   0  0  0  0  0  0  0  0  0  0  0  0
  -23.3070  -29.0480   23.5040 O   0  0  0  0  0  0  0  0  0  0  0  0
  -20.8320  -29.9870   21.8050 H   0  0  0  0  0  0  0  0  0  0  0  0
  -17.9580  -28.1740   22.9100 C   0  0  0  0  0  0  0  0  0  0  0  0
  -20.4980  -28.4930   23.2600 C   0  0  0  0  0  3  0  0  0  0  0  0
  -20.6520  -27.0610   22.6980 C   0  0  0  0  0  2  0  0  0  0  0  0
  -19.5910  -26.7030   21.6540 C   0  0  0  0  0  2  0  0  0  0  0  0
  -18.1860  -26.8230   22.2520 C   0  0  0  0  0  2  0  0  0  0  0  0
  -19.0440  -28.9650   23.3670 C   0  0  0  0  0  0  0  0  0  0  0  0
  -18.7790  -30.2300   23.9360 C   0  0  0  0  0  3  0  0  0  0  0  0
  -17.4590  -30.7040   24.0540 C   0  0  0  0  0  3  0  0  0  0  0  0
  -16.3860  -29.9090   23.6150 C   0  0  0  0  0  3  0  0  0  0  0  0
  -16.6360  -28.6460   23.0490 C   0  0  0  0  0  3  0  0  0  0  0  0
  -25.8350  -32.6380   23.9840 C   0  0  0  0  0  3  0  0  0  0  0  0
  -26.3380  -31.8570   25.2590 C   0  0  1  0  0  0  0  0  0  0  0  0
  -25.2330  -31.6070   26.3110 C   0  0  0  0  0  1  0  0  0  0  0  0
  -26.9260  -30.4850   24.8590 C   0  0  0  0  0  1  0  0  0  0  0  0
  -27.4810  -32.6450   25.9420 C   0  0  0  0  0  1  0  0  0  0  0  0
  -25.5670  -34.0450   24.3060 N   0  0  0  0  0  0  0  0  0  0  0  0
  -25.8950  -35.0810   23.5200 C   0  0  0  0  0  0  0  0  0  0  0  0
  -26.5260  -34.9490   22.4670 O   0  0  0  0  0  0  0  0  0  0  0  0
  -25.0040  -34.2240   25.1250 H   0  0  0  0  0  0  0  0  0  0  0  0
  -24.1670  -36.8820   23.2220 C   0  0  0  0  0  1  0  0  0  0  0  0
  -25.4480  -36.4830   23.9730 C   0  0  0  0  0  3  0  0  0  0  0  0
  -27.6270  -37.3680   24.6770 C   0  0  0  0  0  1  0  0  0  0  0  0
  -26.4840  -37.5210   23.7800 N   0  0  0  0  0  0  0  0  0  0  0  0
  -26.0940  -38.4500   23.9180 H   0  0  0  0  0  0  0  0  0  0  0  0
  -31.7260  -16.8750   22.5200 C   0  0  0  0  0  2  0  0  0  0  0  0
  -31.3970  -17.5240   21.1910 C   0  0  0  0  0  3  0  0  0  0  0  0
  -30.3730  -16.6340   21.8900 C   0  0  0  0  0  3  0  0  0  0  0  0
  -30.5120  -14.5520   20.4600 C   0  0  0  0  0  0  0  0  0  0  0  0
  -30.1660  -12.5120   19.1150 C   0  0  0  0  0  2  0  0  0  0  0  0
  -29.1790  -12.7790   17.9620 C   0  0  0  0  0  2  0  0  0  0  0  0
  -27.7250  -12.5810   18.4310 C   0  0  0  0  0  2  0  0  0  0  0  0
  -27.4180  -13.3370   19.7500 C   0  0  0  0  0  3  0  0  0  0  0  0
  -28.5080  -13.0540   20.8070 C   0  0  0  0  0  2  0  0  0  0  0  0
  -29.8210  -13.4060   20.2300 N   0  0  0  0  0  0  0  0  0  0  0  0
  -31.5140  -14.8690   19.8130 O   0  0  0  0  0  0  0  0  0  0  0  0
  -30.0160  -15.3100   21.4490 N   0  0  0  0  0  0  0  0  0  0  0  0
  -29.2140  -14.9100   21.9110 H   0  0  0  0  0  0  0  0  0  0  0  0
  -25.0170  -13.8650   20.5280 C   0  0  0  0  0  0  0  0  0  0  0  0
  -23.9790  -13.0550   20.9000 C   0  0  0  0  0  0  0  0  0  0  0  0
  -24.4750  -11.7190   20.8200 C   0  0  0  0  0  0  0  0  0  0  0  0
  -26.0810  -13.0200   20.2490 N   0  0  0  0  0  0  0  0  0  0  0  0
  -25.7570  -11.7230   20.4780 N   0  0  0  0  0  0  0  0  0  0  0  0
  -23.7880  -10.4330   20.9950 C   0  0  0  0  0  0  0  0  0  0  0  0
  -24.2210   -9.4880   21.9500 C   0  0  0  0  0  3  0  0  0  0  0  0
  -23.5320   -8.2660   22.1120 C   0  0  0  0  0  3  0  0  0  0  0  0
  -22.3980   -7.9820   21.3160 C   0  0  0  0  0  0  0  0  0  0  0  0
  -21.9850   -8.9170   20.3500 C   0  0  0  0  0  3  0  0  0  0  0  0
  -22.6750  -10.1290   20.1870 C   0  0  0  0  0  3  0  0  0  0  0  0
  -21.6820   -6.8110   21.3850 O   0  0  0  0  0  0  0  0  0  0  0  0
  -21.5670   -6.1060   22.5550 C   0  0  0  0  0  0  0  0  0  0  0  0
  -20.9780   -6.6680   23.7080 C   0  0  0  0  0  3  0  0  0  0  0  0
  -20.8160   -5.8860   24.8690 C   0  0  0  0  0  3  0  0  0  0  0  0
  -21.2340   -4.5410   24.8760 C   0  0  0  0  0  0  0  0  0  0  0  0
  -21.8170   -3.9780   23.7270 C   0  0  0  0  0  3  0  0  0  0  0  0
  -21.9790   -4.7590   22.5690 C   0  0  0  0  0  0  0  0  0  0  0  0
  -22.5220   -4.2050   21.4570 F   0  0  0  0  0  0  0  0  0  0  0  0
  -21.0730   -3.7870   25.9880 F   0  0  0  0  0  0  0  0  0  0  0  0
  -22.5770  -13.4880   21.2250 C   0  0  0  0  0  0  0  0  0  0  0  0
  -21.8870  -12.7390   22.0760 N   0  0  0  0  0  0  0  0  0  0  0  0
  -22.1040  -14.5230   20.7580 O   0  0  0  0  0  0  0  0  0  0  0  0
  -22.2850  -11.8990   22.4730 H   0  0  0  0  0  0  0  0  0  0  0  0
  -20.9480  -13.0070   22.3360 H   0  0  0  0  0  0  0  0  0  0  0  0
  -25.1370  -15.2440   20.3930 N   0  0  0  0  0  0  0  0  0  0  0  0
  -24.3590  -15.8740   20.5590 H   0  0  0  0  0  0  0  0  0  0  0  0
  -25.9740  -15.7190   20.0870 H   0  0  0  0  0  0  0  0  0  0  0  0
  -29.0650  -18.3550   19.9840 O   0  0  0  0  0  0  0  0  0  0  0  0
  -27.3640  -17.3680   18.6460 C   0  0  0  0  0  1  0  0  0  0  0  0
  -27.9630  -18.6810   19.1500 C   0  0  0  0  0  2  0  0  0  0  0  0
  1  5  1  0
  2  6  2  0
  2  3  1  0
  3  1  2  0
  4  5  2  0
  5  7  1  0
  6  4  1  0
  9 12  1  0
 10  8  1  0
 11  9  1  0
 11 13  1  0
 12  3  1  0
 12  8  1  0
 13 14  1  0
 13 10  1  0
 14 16  1  0
 15 26  2  0
 16 21  1  0
 17 25  1  0
 17 27  1  0
 18 24  1  0
 18 20  1  0
 19 25  1  0
 20 19  1  0
 21 20  2  0
 22 23  1  0
 22 16  2  0
 23 18  2  0
 24 17  1  0
 25 15  1  0
 27 29  2  0
 28 27  1  0
 30 28  1  0
 31 40  2  0
 31 36  1  0
 32 28  1  0
 32 36  1  0
 33 32  1  0
 34 35  1  0
 34 33  1  0
 35 31  1  0
 36 37  2  0
 37 38  1  0
 39 38  2  0
 40 39  1  0
 41 15  1  0
 41 46  1  0
 41 42  1  0
 42 45  1  1
 42 43  1  0
 44 42  1  0
 46 49  1  0
 47 51  1  0
 47 46  1  0
 48 47  2  0
 51 50  1  0
 53 54  1  0
 53 51  1  0
 53 52  1  0
 56  4  1  0
 56 57  1  0
 56 55  1  0
 57 66  1  0
 57 55  1  0
 58 66  1  0
 59 64  1  0
 60 61  1  0
 60 59  1  0
 62 61  1  0
 62 71  1  0
 62 63  1  0
 64 58  1  0
 64 63  1  0
 65 58  2  0
 66 67  1  0
 68 69  2  0
 69 88  1  0
 70 69  1  0
 70 73  1  0
 71 72  1  0
 71 68  1  0
 72 70  2  0
 73 74  1  0
 74 75  2  0
 76 79  1  0
 76 75  1  0
 77 76  2  0
 78 77  1  0
 78 73  2  0
 79 80  1  0
 80 85  2  0
 80 81  1  0
 81 82  2  0
 82 83  1  0
 83 87  1  0
 84 83  2  0
 85 84  1  0
 86 85  1  0
 88 89  1  0
 89 92  1  0
 89 91  1  0
 90 88  2  0
 93 68  1  0
 93 94  1  0
 95 93  1  0
 96  6  1  0
 97 98  1  0
 98 96  1  0
M  ISO  4  13 101  14 101  58 100  66 100
M  END
>  <TORSDO>  (40) 
F 20

>  <SCORE>  (40) 
-13.169

>  <name>  (40) 
39

>  <ligand_id>  (40) 
39

>  <original_smiles>  (40) 
[H]c1c([H])c([H])c2c(c1[H])C([H])([H])C([H])([H])C([H])([H])C2([H])N([H])C(=O)C1([H])N(C(=O)C([H])(N([H])C(=O)C([H])(N([H])C([H])([H])[H])C([H])([H])[H])C(C([H])([H])[H])(C([H])([H])[H])C([H])([H])[H])C([H])([H])c2c([H])c(OC3([H])C([H])([H])C([H])([H])C([H])(c4c([H])c(OC([H])([H])C([H])([H])[H])c(C5([H])C([H])([H])C5([H])N([H])C(=O)N5C([H])([H])C([H])([H])C([H])([H])C([H])(n6nc(-c7c([H])c([H])c(Oc8c([H])c([H])c(F)c([H])c8F)c([H])c7[H])c(C(=O)N([H])[H])c6N([H])[H])C5([H])[H])c(C([H])([H])[H])c4[H])C([H])([H])C3([H])[H])c([H])c([H])c2C1([H])[H]

>  <smiles>  (40) 
[H]c1c([H])c([H])c2c(c1[H])C([H])([H])C([H])([H])C([H])([H])C2([H])N([H])C(=O)C1([H])N(C(=O)C([H])(N([H])C(=O)C([H])(N([H])C([H])([H])[H])C([H])([H])[H])C(C([H])([H])[H])(C([H])([H])[H])C([H])([H])[H])C([H])([H])c2c([H])c(OC3([H])C([H])([H])C([H])([H])C([H])(c4c([H])c(OC([H])([H])C([H])([H])[H])c(C5([H])C([H])([H])C5([H])N([H])C(=O)N5C([H])([H])C([H])([H])C([H])([H])C([H])(n6nc(-c7c([H])c([H])c(Oc8c([H])c([H])c(F)c([H])c8F)c([H])c7[H])c(C(=O)N([H])[H])c6N([H])[H])C5([H])[H])c(C([H])([H])[H])c4[H])C([H])([H])C3([H])[H])c([H])c([H])c2C1([H])[H]

$$$$
40:0:0
     RDKit          3D

 96 98  0  0  1  0  0  0  0  0999 V2000
  -24.2040  -17.1810   20.4570 C   0  0  0  0  0  3  0  0  0  0  0  0
  -24.6430  -15.8640   20.8210 C   0  0  0  0  0  0  0  0  0  0  0  0
  -25.9130  -15.2970   20.4620 C   0  0  0  0  0  0  0  0  0  0  0  0
  -26.6750  -16.5860   19.8670 C   0  0  0  0  0  0  0  0  0  0  0  0
  -26.1740  -18.0800   19.5340 C   0  0  0  0  0  0  0  0  0  0  0  0
  -23.6500  -15.1180   21.7030 C   0  0  0  0  0  1  0  0  0  0  0  0
  -28.1450  -16.3540   19.5830 C   0  0  0  0  0  1  0  0  0  0  0  0
  -24.8720  -18.1990   19.8400 N   0  0  0  0  0  0  0  0  0  0  0  0
  -26.2150  -13.5010   22.5420 C   0  0  0  0  0  1  0  0  0  0  0  0
  -26.2940  -13.5130   21.0050 C   0  0  0  0  0  2  0  0  0  0  0  0
  -31.6080  -10.8840   22.2830 C   0  0  2  0  0  0  0  0  0  0  0  0
  -32.5230   -9.5770   22.3230 C   0  0  0  0  0  1  0  0  0  0  0  0
  -32.8750   -9.9490   20.5260 C   0  0  0  0  0  1  0  0  0  0  0  0
  -32.0490  -11.3260   19.8140 C   0  0  0  0  0  2  0  0  0  0  0  0
  -31.0320  -12.4780   20.7490 C   0  0  0  0  0  2  0  0  0  0  0  0
  -30.7960  -12.0870   22.6530 C   0  0  0  0  0  1  0  0  0  0  0  0
  -31.5880  -10.6880   23.2730 N   0  0  0  0  0  1  0  0  0  0  0  0
  -32.8780  -11.7250   22.2660 O   0  0  0  0  0  1  0  0  0  0  0  0
  -26.8990  -10.8770   22.2570 C   0  0  0  0  0  1  0  0  0  0  0  0
  -27.9390  -10.2800   18.4750 C   0  0  0  0  0 15  0  0  0  0  0  0
  -28.7090  -10.0040   22.4730 C   0  0  0  0  0  1  0  0  0  0  0  0
  -29.6370   -9.5430   19.7100 C   0  0  0  0  0 15  0  0  0  0  0  0
  -26.1230  -11.5260   20.4810 C   0  0  0  0  0  2  0  0  0  0  0  0
  -30.2250  -10.0440   21.4940 N   0  0  0  0  0  1  0  0  0  0  0  0
  -29.1830  -12.9080   19.1750 C   0  0  0  0  0  0  0  0  0  0  0  0
  -27.9970  -12.4020   19.2810 C   0  0  0  0  0  0  0  0  0  0  0  0
  -28.1390  -11.6930   20.7090 C   0  0  0  0  0  2  0  0  0  0  0  0
  -29.7610  -12.4370   20.2510 N   0  0  0  0  0  0  0  0  0  0  0  0
  -28.8500  -12.5660   21.1230 N   0  0  0  0  0  2  0  0  0  0  0  0
  -26.6300  -10.0950   21.4180 C   0  0  1  0  0  0  0  0  0  0  0  0
  -26.2920   -9.1590   22.4760 C   0  0  0  0  0  3  0  0  0  0  0  0
  -25.1570   -8.2370   22.5470 C   0  0  0  0  0  3  0  0  0  0  0  0
  -24.2360   -7.9970   21.4890 C   0  0  0  0  0  0  0  0  0  0  0  0
  -24.4050   -8.8130   20.4150 C   0  0  0  0  0  3  0  0  0  0  0  0
  -25.3300   -9.8550   20.5900 C   0  0  0  0  0  3  0  0  0  0  0  0
  -23.1970   -7.0900   21.4310 O   0  0  0  0  0  0  0  0  0  0  0  0
  -22.3990   -6.8820   22.5240 C   0  0  0  0  0  0  0  0  0  0  0  0
  -21.7340   -7.9410   23.1820 C   0  0  0  0  0  3  0  0  0  0  0  0
  -20.9470   -7.6770   24.3200 C   0  0  0  0  0  3  0  0  0  0  0  0
  -20.8180   -6.3600   24.7970 C   0  0  0  0  0  0  0  0  0  0  0  0
  -21.4490   -5.3000   24.1210 C   0  0  0  0  0  3  0  0  0  0  0  0
  -22.2260   -5.5600   22.9800 C   0  0  0  0  0  0  0  0  0  0  0  0
  -22.8190   -4.5360   22.3200 F   0  0  0  0  0  0  0  0  0  0  0  0
  -20.0890   -6.1080   25.9090 F   0  0  0  0  0  0  0  0  0  0  0  0
  -26.8370  -12.4450   18.1340 C   0  0  0  0  0  0  0  0  0  0  0  0
  -25.5050  -12.1900   18.2570 N   0  0  0  0  0  0  0  0  0  0  0  0
  -27.1010  -12.8330   17.0280 O   0  0  0  0  0  0  0  0  0  0  0  0
  -25.1150  -11.9550   19.1540 H   0  0  0  0  0  0  0  0  0  0  0  0
  -24.9060  -12.2740   17.4490 H   0  0  0  0  0  0  0  0  0  0  0  0
  -29.8080  -13.7280   18.3240 N   0  0  0  0  0  0  0  0  0  0  0  0
  -29.2540  -14.2540   17.6590 H   0  0  0  0  0  0  0  0  0  0  0  0
  -30.6920  -14.1660   18.5420 H   0  0  0  0  0  0  0  0  0  0  0  0
  -26.8010  -19.4820   19.0470 O   0  0  0  0  0  0  0  0  0  0  0  0
  -26.4960  -21.2190   19.0890 C   0  0  0  0  0  2  0  0  0  0  0  0
  -27.0710  -22.9070   19.8800 C   0  0  0  0  0  2  0  0  0  0  0  0
  -27.3710  -24.6430   19.6800 O   0  0  0  0  0  0  0  0  0  0  0  0
  -24.4530  -27.6210   25.9400 C   0  0  0  0  0  0  0  0  0  0  0  0
  -26.8970  -25.8380   20.4870 C   0  0  0  0  0  0  0  0  0  0  0  0
  -23.5520  -28.1190   23.7130 C   0  0  0  0  0  3  0  0  0  0  0  0
  -25.1490  -27.8600   21.7060 C   0  0  0  0  0  0  0  0  0  0  0  0
  -26.0950  -27.8140   23.9930 C   0  0  0  0  0  2  0  0  0  0  0  0
  -26.1670  -27.3280   22.5070 C   0  0  0  0  0  0  0  0  0  0  0  0
  -27.0720  -26.3400   21.8900 C   0  0  0  0  0  3  0  0  0  0  0  0
  -26.0390  -26.6620   19.7560 C   0  0  0  0  0  3  0  0  0  0  0  0
  -25.1560  -27.5940   20.3340 C   0  0  0  0  0  3  0  0  0  0  0  0
  -24.0300  -28.6750   22.3440 C   0  0  0  0  0  2  0  0  0  0  0  0
  -24.7160  -27.8360   24.6110 N   0  0  0  0  0  0  0  0  0  0  0  0
  -23.2930  -27.6340   26.3880 O   0  0  0  0  0  0  0  0  0  0  0  0
  -22.6460  -26.8740   23.5040 C   0  0  0  0  0  0  0  0  0  0  0  0
  -21.4540  -27.0620   22.9070 N   0  0  0  0  0  0  0  0  0  0  0  0
  -23.0260  -25.7600   23.8720 O   0  0  0  0  0  0  0  0  0  0  0  0
  -21.1970  -28.0040   22.6450 H   0  0  0  0  0  0  0  0  0  0  0  0
  -18.3990  -26.3430   21.0880 C   0  0  0  0  0  0  0  0  0  0  0  0
  -20.4840  -26.0100   22.5860 C   0  0  0  0  0  3  0  0  0  0  0  0
  -21.0130  -25.0900   21.4610 C   0  0  0  0  0  2  0  0  0  0  0  0
  -20.5660  -25.5280   20.0630 C   0  0  0  0  0  2  0  0  0  0  0  0
  -19.0370  -25.5390   19.9670 C   0  0  0  0  0  2  0  0  0  0  0  0
  -19.0840  -26.5760   22.3100 C   0  0  0  0  0  0  0  0  0  0  0  0
  -18.4550  -27.3540   23.3070 C   0  0  0  0  0  3  0  0  0  0  0  0
  -17.1720  -27.8940   23.0980 C   0  0  0  0  0  3  0  0  0  0  0  0
  -16.4960  -27.6500   21.8900 C   0  0  0  0  0  3  0  0  0  0  0  0
  -17.1060  -26.8710   20.8910 C   0  0  0  0  0  3  0  0  0  0  0  0
  -25.5950  -27.3640   26.9680 C   0  0  0  0  0  3  0  0  0  0  0  0
  -26.1600  -25.8900   26.9080 C   0  0  1  0  0  0  0  0  0  0  0  0
  -25.0660  -24.7980   26.9800 C   0  0  0  0  0  1  0  0  0  0  0  0
  -26.9640  -25.6520   25.6100 C   0  0  0  0  0  1  0  0  0  0  0  0
  -27.1440  -25.6610   28.0790 C   0  0  0  0  0  1  0  0  0  0  0  0
  -25.0610  -27.6420   28.3140 N   0  0  0  0  0  0  0  0  0  0  0  0
  -25.3540  -28.7190   29.0540 C   0  0  0  0  0  0  0  0  0  0  0  0
  -26.1650  -29.5730   28.6900 O   0  0  0  0  0  0  0  0  0  0  0  0
  -24.3440  -27.0140   28.6500 H   0  0  0  0  0  0  0  0  0  0  0  0
  -23.5190  -29.9200   30.2960 C   0  0  0  0  0  1  0  0  0  0  0  0
  -24.6400  -28.8740   30.4140 C   0  0  0  0  0  3  0  0  0  0  0  0
  -26.4760  -28.1870   31.8930 C   0  0  0  0  0  1  0  0  0  0  0  0
  -25.5490  -29.2510   31.5190 N   0  0  0  0  0  0  0  0  0  0  0  0
  -25.0210  -29.5150   32.3470 H   0  0  0  0  0  0  0  0  0  0  0  0
  1  2  2  0
  2  6  1  0
  3  2  1  0
  3 10  1  0
  4  3  2  0
  5  8  2  0
  5  4  1  0
  7  4  1  0
  8  1  1  0
 10  9  1  0
 11 12  1  1
 11 16  1  0
 11 17  1  0
 14 13  1  0
 14 15  1  0
 18 11  1  0
 23 35  1  0
 23 30  1  0
 24 21  1  0
 25 26  2  0
 25 28  1  0
 26 27  1  0
 27 29  1  0
 28 15  1  0
 28 29  1  0
 30 19  1  6
 30 31  1  0
 31 32  2  0
 33 32  1  0
 34 33  2  0
 35 34  1  0
 35 30  1  0
 36 33  1  0
 36 37  1  0
 37 42  2  0
 37 38  1  0
 38 39  2  0
 39 40  1  0
 40 44  1  0
 41 40  2  0
 42 41  1  0
 43 42  1  0
 45 46  1  0
 45 26  1  0
 46 48  1  0
 47 45  2  0
 49 46  1  0
 50 52  1  0
 50 25  1  0
 51 50  1  0
 53 54  1  0
 53  5  1  0
 54 55  1  0
 56 55  1  0
 56 58  1  0
 57 68  2  0
 58 63  1  0
 59 69  1  0
 59 67  1  0
 60 66  1  0
 60 62  1  0
 61 67  1  0
 62 61  1  0
 63 62  2  0
 64 65  1  0
 64 58  2  0
 65 60  2  0
 66 59  1  0
 67 57  1  0
 69 71  2  0
 70 69  1  0
 72 70  1  0
 73 78  1  0
 74 70  1  0
 75 74  1  0
 76 75  1  0
 77 76  1  0
 77 73  1  0
 78 74  1  0
 78 79  2  0
 80 79  1  0
 81 80  2  0
 82 73  2  0
 82 81  1  0
 83 57  1  0
 83 88  1  0
 84 83  1  0
 84 85  1  1
 84 87  1  0
 86 84  1  0
 88 91  1  0
 88 89  1  0
 89 93  1  0
 90 89  2  0
 93 92  1  0
 93 95  1  0
 95 94  1  0
 95 96  1  0
M  ISO  4  11 100  24 100  55 101  56 101
M  END
>  <TORSDO>  (41) 
F 20

>  <SCORE>  (41) 
2.963

>  <name>  (41) 
40

>  <ligand_id>  (41) 
40

>  <original_smiles>  (41) 
[H]c1nc(OC([H])([H])C([H])([H])Oc2c([H])c([H])c3c(c2[H])C([H])([H])N(C(=O)C([H])(N([H])C(=O)C([H])(N([H])C([H])([H])[H])C([H])([H])[H])C(C([H])([H])[H])(C([H])([H])[H])C([H])([H])[H])C([H])(C(=O)N([H])C2([H])c4c([H])c([H])c([H])c([H])c4C([H])([H])C([H])([H])C2([H])[H])C3([H])[H])c(C([H])([H])[H])c(C([H])(C([H])([H])[H])C2([H])C([H])([H])C([H])([H])N(C(=O)N3C([H])([H])C([H])([H])C([H])([H])C([H])(n4nc(-c5c([H])c([H])c(Oc6c([H])c([H])c(F)c([H])c6F)c([H])c5[H])c(C(=O)N([H])[H])c4N([H])[H])C3([H])[H])C([H])([H])C2([H])[H])c1C([H])([H])[H]

>  <smiles>  (41) 
[H]c1nc(OC([H])([H])C([H])([H])Oc2c([H])c([H])c3c(c2[H])C([H])([H])N(C(=O)C([H])(N([H])C(=O)C([H])(N([H])C([H])([H])[H])C([H])([H])[H])C(C([H])([H])[H])(C([H])([H])[H])C([H])([H])[H])C([H])(C(=O)N([H])C2([H])c4c([H])c([H])c([H])c([H])c4C([H])([H])C([H])([H])C2([H])[H])C3([H])[H])c(C([H])([H])[H])c(C([H])(C([H])([H])[H])C2([H])C([H])([H])C([H])([H])N(C(=O)N3C([H])([H])C([H])([H])C([H])([H])C([H])(n4nc(-c5c([H])c([H])c(Oc6c([H])c([H])c(F)c([H])c6F)c([H])c5[H])c(C(=O)N([H])[H])c4N([H])[H])C3([H])[H])C([H])([H])C2([H])[H])c1C([H])([H])[H]

$$$$
41:0:0
     RDKit          3D

 98107  0  0  1  0  0  0  0  0999 V2000
  -28.8030  -24.0790   18.4210 C   0  0  0  0  0  3  0  0  0  0  0  0
  -29.6080  -22.3660   16.9460 C   0  0  0  0  0  3  0  0  0  0  0  0
  -29.3300  -21.8630   19.3660 C   0  0  0  0  0  0  0  0  0  0  0  0
  -28.8690  -23.2390   19.5550 C   0  0  0  0  0  0  0  0  0  0  0  0
  -29.2050  -23.6950   17.1440 C   0  0  0  0  0  0  0  0  0  0  0  0
  -29.6440  -21.4550   18.0210 C   0  0  0  0  0  0  0  0  0  0  0  0
  -28.2650  -19.9050   20.8000 C   0  0  0  0  0  2  0  0  0  0  0  0
  -29.4570  -20.7920   20.4870 C   0  0  0  0  0  3  0  0  0  0  0  0
  -29.3930  -19.3790   20.0550 N   0  0  1  0  0  4  0  0  0  0  0  0
  -29.4150  -19.4580   19.0450 H   0  0  0  0  0  0  0  0  0  0  0  0
  -30.2170  -18.2700   20.6640 C   0  0  0  0  0  2  0  0  0  0  0  0
  -30.0530  -16.9140   19.8660 C   0  0  0  0  0  2  0  0  0  0  0  0
  -30.9010  -14.5320   20.0690 C   0  0  0  0  0  0  0  0  0  0  0  0
  -30.5160  -12.3460   18.9870 C   0  0  0  0  0  2  0  0  0  0  0  0
  -29.5570  -12.6020   17.8070 C   0  0  0  0  0  2  0  0  0  0  0  0
  -28.0870  -12.4880   18.2570 C   0  0  0  0  0  2  0  0  0  0  0  0
  -27.8090  -13.2800   19.5670 C   0  0  0  0  0  3  0  0  0  0  0  0
  -28.9090  -13.0680   20.6420 C   0  0  0  0  0  2  0  0  0  0  0  0
  -30.2130  -13.3500   20.0270 N   0  0  0  0  0  0  0  0  0  0  0  0
  -31.9840  -14.6800   19.4980 O   0  0  0  0  0  0  0  0  0  0  0  0
  -30.2450  -15.6060   20.5770 N   0  0  0  0  0  0  0  0  0  0  0  0
  -29.5210  -15.3630   21.2350 H   0  0  0  0  0  0  0  0  0  0  0  0
  -25.4310  -13.9000   20.3090 C   0  0  0  0  0  0  0  0  0  0  0  0
  -24.3660  -13.1490   20.7200 C   0  0  0  0  0  0  0  0  0  0  0  0
  -24.8090  -11.7900   20.6800 C   0  0  0  0  0  0  0  0  0  0  0  0
  -26.4670  -13.0100   20.0740 N   0  0  0  0  0  0  0  0  0  0  0  0
  -26.0950  -11.7310   20.3420 N   0  0  0  0  0  0  0  0  0  0  0  0
  -24.0670  -10.5420   20.8930 C   0  0  0  0  0  0  0  0  0  0  0  0
  -24.4950   -9.5810   21.8330 C   0  0  0  0  0  3  0  0  0  0  0  0
  -23.7500   -8.4010   22.0420 C   0  0  0  0  0  3  0  0  0  0  0  0
  -22.5620   -8.1680   21.3080 C   0  0  0  0  0  0  0  0  0  0  0  0
  -22.1550   -9.1190   20.3540 C   0  0  0  0  0  3  0  0  0  0  0  0
  -22.9020  -10.2900   20.1410 C   0  0  0  0  0  3  0  0  0  0  0  0
  -21.7950   -7.0320   21.4260 O   0  0  0  0  0  0  0  0  0  0  0  0
  -21.7400   -6.3150   22.5930 C   0  0  0  0  0  0  0  0  0  0  0  0
  -21.3140   -6.8990   23.8080 C   0  0  0  0  0  3  0  0  0  0  0  0
  -21.1930   -6.1060   24.9670 C   0  0  0  0  0  3  0  0  0  0  0  0
  -21.5040   -4.7340   24.9160 C   0  0  0  0  0  0  0  0  0  0  0  0
  -21.9280   -4.1510   23.7080 C   0  0  0  0  0  3  0  0  0  0  0  0
  -22.0380   -4.9380   22.5480 C   0  0  0  0  0  0  0  0  0  0  0  0
  -22.4130   -4.3630   21.3810 F   0  0  0  0  0  0  0  0  0  0  0  0
  -21.3900   -3.9730   26.0300 F   0  0  0  0  0  0  0  0  0  0  0  0
  -22.9780  -13.6420   21.0230 C   0  0  0  0  0  0  0  0  0  0  0  0
  -22.2580  -12.9660   21.9100 N   0  0  0  0  0  0  0  0  0  0  0  0
  -22.5440  -14.6730   20.5020 O   0  0  0  0  0  0  0  0  0  0  0  0
  -22.6160  -12.1290   22.3470 H   0  0  0  0  0  0  0  0  0  0  0  0
  -21.3350  -13.2900   22.1670 H   0  0  0  0  0  0  0  0  0  0  0  0
  -25.6010  -15.2670   20.0870 N   0  0  0  0  0  0  0  0  0  0  0  0
  -24.8160  -15.9060   20.1240 H   0  0  0  0  0  0  0  0  0  0  0  0
  -26.3840  -15.6480   19.5760 H   0  0  0  0  0  0  0  0  0  0  0  0
  -29.8820  -24.4470   14.9730 C   0  0  0  0  0  1  0  0  0  0  0  0
  -29.1540  -24.6630   16.1690 O   0  0  0  0  0  0  0  0  0  0  0  0
  -29.2730  -19.4700   16.7190 C   0  0  0  0  0  1  0  0  0  0  0  0
  -30.0250  -20.1580   17.7320 O   0  0  0  0  0  0  0  0  0  0  0  0
  -28.6440  -23.1730   22.1560 C   0  0  0  0  0  1  0  0  0  0  0  0
  -28.3330  -23.9370   20.8520 C   0  0  0  0  0  3  0  0  0  0  0  0
  -28.7520  -25.4640   21.0820 C   0  0  0  0  0  2  0  0  0  0  0  0
  -28.5160  -26.5550   20.1380 O   0  0  0  0  0  0  0  0  0  0  0  0
  -24.5870  -31.7590   23.1280 C   0  0  0  0  0  0  0  0  0  0  0  0
  -27.3400  -27.2900   20.1890 C   0  0  0  0  0  0  0  0  0  0  0  0
  -23.4300  -30.3400   21.4590 C   0  0  0  0  0  3  0  0  0  0  0  0
  -24.9370  -28.7990   20.0840 C   0  0  0  0  0  0  0  0  0  0  0  0
  -25.9550  -30.7220   21.3150 C   0  0  0  0  0  2  0  0  0  0  0  0
  -26.0740  -29.3390   20.7000 C   0  0  0  0  0  0  0  0  0  0  0  0
  -27.2800  -28.5980   20.7430 C   0  0  0  0  0  3  0  0  0  0  0  0
  -26.1920  -26.7760   19.5560 C   0  0  0  0  0  3  0  0  0  0  0  0
  -24.9950  -27.5230   19.4940 C   0  0  0  0  0  3  0  0  0  0  0  0
  -23.6820  -29.6440   20.0920 C   0  0  0  0  0  2  0  0  0  0  0  0
  -24.6730  -30.9610   22.0250 N   0  0  0  0  0  0  0  0  0  0  0  0
  -23.4930  -32.0160   23.6480 O   0  0  0  0  0  0  0  0  0  0  0  0
  -22.7620  -29.3240   22.4150 C   0  0  0  0  0  0  0  0  0  0  0  0
  -21.4390  -29.1460   22.2800 N   0  0  0  0  0  0  0  0  0  0  0  0
  -23.4380  -28.6980   23.2350 O   0  0  0  0  0  0  0  0  0  0  0  0
  -20.9530  -29.6950   21.5820 H   0  0  0  0  0  0  0  0  0  0  0  0
  -18.0580  -27.9660   22.7730 C   0  0  0  0  0  0  0  0  0  0  0  0
  -20.6180  -28.2070   23.0440 C   0  0  0  0  0  3  0  0  0  0  0  0
  -20.7120  -26.7830   22.4500 C   0  0  0  0  0  2  0  0  0  0  0  0
  -19.6050  -26.4780   21.4340 C   0  0  0  0  0  2  0  0  0  0  0  0
  -18.2240  -26.6260   22.0800 C   0  0  0  0  0  2  0  0  0  0  0  0
  -19.1810  -28.7160   23.2130 C   0  0  0  0  0  0  0  0  0  0  0  0
  -18.9710  -29.9730   23.8210 C   0  0  0  0  0  3  0  0  0  0  0  0
  -17.6680  -30.4780   23.9980 C   0  0  0  0  0  3  0  0  0  0  0  0
  -16.5590  -29.7250   23.5740 C   0  0  0  0  0  3  0  0  0  0  0  0
  -16.7550  -28.4720   22.9660 C   0  0  0  0  0  3  0  0  0  0  0  0
  -25.8520  -32.4060   23.7750 C   0  0  0  0  0  3  0  0  0  0  0  0
  -26.3760  -31.6210   25.0410 C   0  0  1  0  0  0  0  0  0  0  0  0
  -25.2750  -31.3260   26.0850 C   0  0  0  0  0  1  0  0  0  0  0  0
  -27.0070  -30.2690   24.6300 C   0  0  0  0  0  1  0  0  0  0  0  0
  -27.4920  -32.4330   25.7370 C   0  0  0  0  0  1  0  0  0  0  0  0
  -25.5140  -33.7920   24.1260 N   0  0  0  0  0  0  0  0  0  0  0  0
  -25.8310  -34.8620   23.3850 C   0  0  0  0  0  0  0  0  0  0  0  0
  -26.5080  -34.7890   22.3560 O   0  0  0  0  0  0  0  0  0  0  0  0
  -24.9180  -33.9260   24.9300 H   0  0  0  0  0  0  0  0  0  0  0  0
  -24.0700  -36.6260   23.0520 C   0  0  0  0  0  1  0  0  0  0  0  0
  -25.3140  -36.2320   23.8630 C   0  0  0  0  0  3  0  0  0  0  0  0
  -27.4240  -37.1480   24.7220 C   0  0  0  0  0  1  0  0  0  0  0  0
  -26.3260  -37.3070   23.7730 N   0  0  0  0  0  0  0  0  0  0  0  0
  -25.8990  -38.2140   23.9310 H   0  0  0  0  0  0  0  0  0  0  0  0
  1  4  1  0
  2  5  1  0
  2  6  2  0
  3  4  2  0
  4 56  1  0
  5  1  2  0
  6  3  1  0
  8  3  1  0
  8  7  1  0
  9  8  1  0
  9 11  1  0
  9  7  1  0
  9 10  1  6
 12 21  1  0
 12 11  1  0
 13 21  1  0
 14 19  1  0
 15 16  1  0
 15 14  1  0
 17 16  1  0
 17 26  1  0
 17 18  1  0
 19 13  1  0
 19 18  1  0
 20 13  2  0
 21 22  1  0
 23 24  2  0
 24 43  1  0
 25 24  1  0
 25 28  1  0
 26 23  1  0
 26 27  1  0
 27 25  2  0
 28 29  1  0
 29 30  2  0
 31 34  1  0
 31 30  1  0
 32 31  2  0
 33 32  1  0
 33 28  2  0
 34 35  1  0
 35 36  1  0
 36 37  2  0
 38 37  1  0
 38 42  1  0
 39 38  2  0
 40 35  2  0
 40 39  1  0
 41 40  1  0
 43 44  1  0
 44 47  1  0
 44 46  1  0
 45 43  2  0
 48 49  1  0
 48 23  1  0
 50 48  1  0
 51 52  1  0
 52  5  1  0
 53 54  1  0
 54  6  1  0
 56 57  1  0
 56 55  1  0
 58 60  1  0
 58 57  1  0
 59 70  2  0
 60 65  1  0
 61 69  1  0
 61 71  1  0
 62 68  1  0
 62 64  1  0
 63 69  1  0
 64 65  2  0
 64 63  1  0
 66 60  2  0
 67 66  1  0
 67 62  2  0
 68 61  1  0
 69 59  1  0
 71 73  2  0
 72 71  1  0
 74 72  1  0
 75 84  2  0
 75 80  1  0
 76 72  1  0
 76 80  1  0
 77 76  1  0
 78 79  1  0
 78 77  1  0
 79 75  1  0
 80 81  2  0
 81 82  1  0
 83 82  2  0
 84 83  1  0
 85 59  1  0
 85 90  1  0
 85 86  1  0
 86 89  1  1
 86 87  1  0
 88 86  1  0
 90 93  1  0
 91 95  1  0
 91 90  1  0
 92 91  2  0
 95 94  1  0
 97 95  1  0
 97 98  1  0
 97 96  1  0
M  ISO  4  13 100  21 100  57 101  58 101
M  END
>  <TORSDO>  (42) 
F 23

>  <SCORE>  (42) 
-12.708

>  <name>  (42) 
41

>  <ligand_id>  (42) 
41

>  <original_smiles>  (42) 
[H]c1c([H])c([H])c2c(c1[H])C([H])([H])C([H])([H])C([H])([H])C2([H])N([H])C(=O)C1([H])N(C(=O)C([H])(N([H])C(=O)C([H])(N([H])C([H])([H])[H])C([H])([H])[H])C(C([H])([H])[H])(C([H])([H])[H])C([H])([H])[H])C([H])([H])c2c([H])c(OC([H])([H])C([H])(c3c([H])c(OC([H])([H])[H])c([H])c(OC([H])([H])[H])c3C3([H])C([H])([H])[N+]3([H])C([H])([H])C([H])([H])N([H])C(=O)N3C([H])([H])C([H])([H])C([H])([H])C([H])(n4nc(-c5c([H])c([H])c(Oc6c([H])c([H])c(F)c([H])c6F)c([H])c5[H])c(C(=O)N([H])[H])c4N([H])[H])C3([H])[H])C([H])([H])[H])c([H])c([H])c2C1([H])[H]

>  <smiles>  (42) 
[H]c1c([H])c([H])c2c(c1[H])C([H])([H])C([H])([H])C([H])([H])C2([H])N([H])C(=O)C1([H])N(C(=O)C([H])(N([H])C(=O)C([H])(N([H])C([H])([H])[H])C([H])([H])[H])C(C([H])([H])[H])(C([H])([H])[H])C([H])([H])[H])C([H])([H])c2c([H])c(OC([H])([H])C([H])(c3c([H])c(OC([H])([H])[H])c([H])c(OC([H])([H])[H])c3C3([H])C([H])([H])[N+]3([H])C([H])([H])C([H])([H])N([H])C(=O)N3C([H])([H])C([H])([H])C([H])([H])C([H])(n4nc(-c5c([H])c([H])c(Oc6c([H])c([H])c(F)c([H])c6F)c([H])c5[H])c(C(=O)N([H])[H])c4N([H])[H])C3([H])[H])C([H])([H])[H])c([H])c([H])c2C1([H])[H]

$$$$
42:0:0
     RDKit          3D

 97106  0  0  1  0  0  0  0  0999 V2000
  -27.5010  -18.9970   19.5180 C   0  0  0  0  0  3  0  0  0  0  0  0
  -29.5110  -20.1850   18.9020 C   0  0  0  0  0  3  0  0  0  0  0  0
  -29.6850  -18.1600   20.2870 C   0  0  0  0  0  0  0  0  0  0  0  0
  -28.1170  -20.0240   18.7870 C   0  0  0  0  0  0  0  0  0  0  0  0
  -28.2610  -18.0800   20.2690 C   0  0  0  0  0  0  0  0  0  0  0  0
  -30.2980  -19.2840   19.6490 C   0  0  0  0  0  0  0  0  0  0  0  0
  -27.4870  -17.0030   21.0230 C   0  0  0  0  0  1  0  0  0  0  0  0
  -31.7870  -19.5780   19.6700 C   0  0  0  0  0  1  0  0  0  0  0  0
  -31.4940  -13.7760   19.3190 C   0  0  0  0  0  0  0  0  0  0  0  0
  -30.8960  -11.5130   18.5370 C   0  0  0  0  0  2  0  0  0  0  0  0
  -29.8240  -11.5670   17.4360 C   0  0  0  0  0  2  0  0  0  0  0  0
  -28.4090  -11.6070   18.0470 C   0  0  0  0  0  2  0  0  0  0  0  0
  -28.2720  -12.6970   19.1370 C   0  0  0  0  0  3  0  0  0  0  0  0
  -29.4300  -12.5830   20.1530 C   0  0  0  0  0  2  0  0  0  0  0  0
  -30.7040  -12.6740   19.4160 N   0  0  0  0  0  0  0  0  0  0  0  0
  -32.4590  -13.8550   18.5500 O   0  0  0  0  0  0  0  0  0  0  0  0
  -31.9710  -16.8760   21.0210 C   0  0  0  0  0  2  0  0  0  0  0  0
  -32.2720  -15.3720   21.0320 C   0  0  0  0  0  2  0  0  0  0  0  0
  -30.2280  -15.7480   19.8760 C   0  0  0  0  0  2  0  0  0  0  0  0
  -30.4530  -16.9270   20.8150 C   0  0  0  0  0  3  0  0  0  0  0  0
  -31.2300  -14.7400   20.2190 N   0  0  0  0  0  0  0  0  0  0  0  0
  -26.1510  -13.6670   20.2330 C   0  0  0  0  0  0  0  0  0  0  0  0
  -25.0190  -13.0660   20.7210 C   0  0  0  0  0  0  0  0  0  0  0  0
  -25.2060  -11.6640   20.5260 C   0  0  0  0  0  0  0  0  0  0  0  0
  -26.9680  -12.6370   19.7940 N   0  0  0  0  0  0  0  0  0  0  0  0
  -26.4060  -11.4230   20.0200 N   0  0  0  0  0  0  0  0  0  0  0  0
  -24.2870  -10.5390   20.7360 C   0  0  0  0  0  0  0  0  0  0  0  0
  -24.5830   -9.5080   21.6530 C   0  0  0  0  0  3  0  0  0  0  0  0
  -23.6770   -8.4440   21.8480 C   0  0  0  0  0  3  0  0  0  0  0  0
  -22.4600   -8.4050   21.1240 C   0  0  0  0  0  0  0  0  0  0  0  0
  -22.1820   -9.4240   20.1950 C   0  0  0  0  0  3  0  0  0  0  0  0
  -23.0870  -10.4790   19.9980 C   0  0  0  0  0  3  0  0  0  0  0  0
  -21.5320   -7.3990   21.2310 O   0  0  0  0  0  0  0  0  0  0  0  0
  -21.3500   -6.7080   22.4020 C   0  0  0  0  0  0  0  0  0  0  0  0
  -20.9420   -7.3530   23.5900 C   0  0  0  0  0  3  0  0  0  0  0  0
  -20.6940   -6.5950   24.7520 C   0  0  0  0  0  3  0  0  0  0  0  0
  -20.8490   -5.1960   24.7270 C   0  0  0  0  0  0  0  0  0  0  0  0
  -21.2520   -4.5520   23.5450 C   0  0  0  0  0  3  0  0  0  0  0  0
  -21.4970   -5.3070   22.3840 C   0  0  0  0  0  0  0  0  0  0  0  0
  -21.8610   -4.6800   21.2400 F   0  0  0  0  0  0  0  0  0  0  0  0
  -20.6090   -4.4670   25.8420 F   0  0  0  0  0  0  0  0  0  0  0  0
  -23.7890  -13.7550   21.2410 C   0  0  0  0  0  0  0  0  0  0  0  0
  -23.0800  -13.1260   22.1740 N   0  0  0  0  0  0  0  0  0  0  0  0
  -23.4760  -14.8790   20.8550 O   0  0  0  0  0  0  0  0  0  0  0  0
  -23.3540  -12.2130   22.5010 H   0  0  0  0  0  0  0  0  0  0  0  0
  -22.2610  -13.5650   22.5710 H   0  0  0  0  0  0  0  0  0  0  0  0
  -26.5380  -14.9960   20.1030 N   0  0  0  0  0  0  0  0  0  0  0  0
  -25.9210  -15.7640   20.3320 H   0  0  0  0  0  0  0  0  0  0  0  0
  -27.3470  -15.2930   19.5740 H   0  0  0  0  0  0  0  0  0  0  0  0
  -27.2460  -20.8820   17.8700 C   0  0  0  0  0  2  0  0  0  0  0  0
  -27.9190  -22.1220   17.2470 C   0  0  0  0  0  2  0  0  0  0  0  0
  -28.4470  -23.0430   18.2760 N   0  0  0  0  0  4  0  0  0  0  0  0
  -28.9220  -22.5020   18.9830 H   0  0  0  0  0  0  0  0  0  0  0  0
  -27.6640  -23.4940   18.7250 H   0  0  0  0  0  0  0  0  0  0  0  0
  -29.3580  -24.0800   17.7380 C   0  0  0  0  0  2  0  0  0  0  0  0
  -29.6640  -25.1680   18.7770 C   0  0  0  0  0  2  0  0  0  0  0  0
  -29.3860  -26.4540   18.2290 O   0  0  0  0  0  0  0  0  0  0  0  0
  -25.5950  -29.8080   23.1960 C   0  0  0  0  0  0  0  0  0  0  0  0
  -28.1660  -26.9760   18.5790 C   0  0  0  0  0  0  0  0  0  0  0  0
  -24.3030  -28.9290   21.2780 C   0  0  0  0  0  3  0  0  0  0  0  0
  -25.6850  -28.1060   19.3020 C   0  0  0  0  0  0  0  0  0  0  0  0
  -26.7540  -29.5920   21.0050 C   0  0  0  0  0  2  0  0  0  0  0  0
  -26.8600  -28.5270   19.9350 C   0  0  0  0  0  0  0  0  0  0  0  0
  -28.1040  -27.9710   19.5760 C   0  0  0  0  0  3  0  0  0  0  0  0
  -26.9760  -26.5570   17.9440 C   0  0  0  0  0  3  0  0  0  0  0  0
  -25.7360  -27.1160   18.3050 C   0  0  0  0  0  3  0  0  0  0  0  0
  -24.4000  -28.7710   19.7360 C   0  0  0  0  0  2  0  0  0  0  0  0
  -25.5750  -29.4360   21.8850 N   0  0  0  0  0  0  0  0  0  0  0  0
  -24.5690  -29.7710   23.8890 O   0  0  0  0  0  0  0  0  0  0  0  0
  -23.8330  -27.5840   21.8790 C   0  0  0  0  0  0  0  0  0  0  0  0
  -22.5590  -27.2340   21.6370 N   0  0  0  0  0  0  0  0  0  0  0  0
  -24.6080  -26.8720   22.5190 O   0  0  0  0  0  0  0  0  0  0  0  0
  -21.9820  -27.8780   21.1130 H   0  0  0  0  0  0  0  0  0  0  0  0
  -19.5180  -25.3090   21.3740 C   0  0  0  0  0  0  0  0  0  0  0  0
  -21.9100  -25.9960   22.0670 C   0  0  0  0  0  3  0  0  0  0  0  0
  -22.3890  -24.7950   21.2200 C   0  0  0  0  0  2  0  0  0  0  0  0
  -21.4970  -24.5300   20.0030 C   0  0  0  0  0  2  0  0  0  0  0  0
  -20.0610  -24.2290   20.4520 C   0  0  0  0  0  2  0  0  0  0  0  0
  -20.3870  -26.1510   22.1180 C   0  0  0  0  0  0  0  0  0  0  0  0
  -19.8310  -27.1700   22.9210 C   0  0  0  0  0  3  0  0  0  0  0  0
  -18.4380  -27.3500   22.9970 C   0  0  0  0  0  3  0  0  0  0  0  0
  -17.5800  -26.4960   22.2800 C   0  0  0  0  0  3  0  0  0  0  0  0
  -18.1210  -25.4780   21.4730 C   0  0  0  0  0  3  0  0  0  0  0  0
  -26.9020  -30.3170   23.8820 C   0  0  0  0  0  3  0  0  0  0  0  0
  -26.6050  -31.6250   24.4810 N   0  0  0  0  0  0  0  0  0  0  0  0
  -26.9900  -32.8000   23.9640 C   0  0  0  0  0  0  0  0  0  0  0  0
  -27.6980  -32.8890   22.9580 O   0  0  0  0  0  0  0  0  0  0  0  0
  -25.9780  -31.6300   25.2720 H   0  0  0  0  0  0  0  0  0  0  0  0
  -25.3510  -34.7050   23.8850 C   0  0  0  0  0  1  0  0  0  0  0  0
  -26.5090  -34.0780   24.6770 C   0  0  0  0  0  3  0  0  0  0  0  0
  -28.5940  -34.6600   25.8360 C   0  0  0  0  0  1  0  0  0  0  0  0
  -27.5800  -35.0800   24.8720 N   0  0  0  0  0  0  0  0  0  0  0  0
  -27.1930  -35.9670   25.1830 H   0  0  0  0  0  0  0  0  0  0  0  0
  -27.4650  -29.3180   24.9650 C   0  0  1  0  0  0  0  0  0  0  0  0
  -26.4150  -28.8760   26.0100 C   0  0  0  0  0  1  0  0  0  0  0  0
  -28.0220  -28.0430   24.2880 C   0  0  0  0  0  1  0  0  0  0  0  0
  -28.6490  -29.9710   25.7180 C   0  0  0  0  0  1  0  0  0  0  0  0
  1  5  1  0
  2  6  2  0
  4  2  1  0
  4  1  2  0
  5  3  2  0
  5  7  1  0
  6  8  1  0
  6  3  1  0
  9 15  1  0
  9 21  1  0
 10 15  1  0
 11 12  1  0
 11 10  1  0
 13 12  1  0
 13 25  1  0
 13 14  1  0
 15 14  1  0
 16  9  2  0
 17 18  1  0
 19 21  1  0
 19 20  1  0
 20  3  1  0
 20 17  1  0
 21 18  1  0
 22 23  2  0
 23 42  1  0
 24 23  1  0
 24 27  1  0
 25 26  1  0
 25 22  1  0
 26 24  2  0
 27 28  1  0
 28 29  2  0
 30 33  1  0
 30 29  1  0
 31 30  2  0
 32 31  1  0
 32 27  2  0
 33 34  1  0
 34 35  1  0
 35 36  2  0
 37 36  1  0
 37 41  1  0
 38 37  2  0
 39 34  2  0
 39 38  1  0
 40 39  1  0
 42 43  1  0
 43 45  1  0
 43 46  1  0
 44 42  2  0
 47 22  1  0
 47 48  1  0
 49 47  1  0
 50  4  1  0
 51 50  1  0
 51 52  1  0
 52 54  1  0
 52 53  1  0
 55 52  1  0
 55 56  1  0
 57 59  1  0
 57 56  1  0
 58 69  2  0
 59 64  1  0
 60 70  1  0
 60 68  1  0
 61 67  1  0
 61 63  1  0
 62 68  1  0
 63 62  1  0
 64 63  2  0
 65 66  1  0
 65 59  2  0
 66 61  2  0
 67 60  1  0
 68 58  1  0
 70 72  2  0
 71 70  1  0
 73 71  1  0
 74 83  2  0
 74 79  1  0
 75 71  1  0
 75 79  1  0
 76 75  1  0
 77 78  1  0
 77 76  1  0
 78 74  1  0
 79 80  2  0
 80 81  1  0
 82 81  2  0
 83 82  1  0
 84 58  1  0
 84 85  1  0
 84 94  1  0
 85 88  1  0
 86 85  1  0
 86 90  1  0
 87 86  2  0
 90 89  1  0
 90 92  1  0
 92 93  1  0
 92 91  1  0
 94 97  1  1
 94 95  1  0
 96 94  1  0
M  ISO  4   9 100  21 100  56 101  57 101
M  END
>  <TORSDO>  (43) 
F 21

>  <SCORE>  (43) 
-8.017

>  <name>  (43) 
42

>  <ligand_id>  (43) 
42

>  <original_smiles>  (43) 
[H]c1c([H])c([H])c2c(c1[H])C([H])([H])C([H])([H])C([H])([H])C2([H])N([H])C(=O)C1([H])N(C(=O)C([H])(N([H])C(=O)C([H])(N([H])C([H])([H])[H])C([H])([H])[H])C(C([H])([H])[H])(C([H])([H])[H])C([H])([H])[H])C([H])([H])c2c([H])c(OC([H])([H])C([H])([H])[N+]([H])([H])C([H])([H])C([H])([H])c3c([H])c(C([H])([H])[H])c(C4([H])C([H])([H])N(C(=O)N5C([H])([H])C([H])([H])C([H])([H])C([H])(n6nc(-c7c([H])c([H])c(Oc8c([H])c([H])c(F)c([H])c8F)c([H])c7[H])c(C(=O)N([H])[H])c6N([H])[H])C5([H])[H])C([H])([H])C4([H])[H])c(C([H])([H])[H])c3[H])c([H])c([H])c2C1([H])[H]

>  <smiles>  (43) 
[H]c1c([H])c([H])c2c(c1[H])C([H])([H])C([H])([H])C([H])([H])C2([H])N([H])C(=O)C1([H])N(C(=O)C([H])(N([H])C(=O)C([H])(N([H])C([H])([H])[H])C([H])([H])[H])C(C([H])([H])[H])(C([H])([H])[H])C([H])([H])[H])C([H])([H])c2c([H])c(OC([H])([H])C([H])([H])[N+]([H])([H])C([H])([H])C([H])([H])c3c([H])c(C([H])([H])[H])c(C4([H])C([H])([H])N(C(=O)N5C([H])([H])C([H])([H])C([H])([H])C([H])(n6nc(-c7c([H])c([H])c(Oc8c([H])c([H])c(F)c([H])c8F)c([H])c7[H])c(C(=O)N([H])[H])c6N([H])[H])C5([H])[H])C([H])([H])C4([H])[H])c(C([H])([H])[H])c3[H])c([H])c([H])c2C1([H])[H]

$$$$
43:0:0
     RDKit          3D

101111  0  0  1  0  0  0  0  0999 V2000
  -29.0770  -20.3610   19.7890 C   0  0  0  0  0  3  0  0  0  0  0  0
  -30.5020  -20.6490   21.7410 C   0  0  0  0  0  3  0  0  0  0  0  0
  -29.7330  -21.2070   20.7010 C   0  0  0  0  0  0  0  0  0  0  0  0
  -29.2040  -18.9620   19.8650 C   0  0  0  0  0  0  0  0  0  0  0  0
  -29.9990  -18.4070   20.9000 C   0  0  0  0  0  0  0  0  0  0  0  0
  -30.6150  -19.2440   21.8700 C   0  0  0  0  0  0  0  0  0  0  0  0
  -30.8960  -23.4640   20.4770 C   0  0  0  0  0  2  0  0  0  0  0  0
  -28.6410  -23.3810   21.5480 C   0  0  0  0  0  2  0  0  0  0  0  0
  -30.6520  -24.8980   19.9760 C   0  0  0  0  0  2  0  0  0  0  0  0
  -28.3130  -24.7890   21.0360 C   0  0  0  0  0  2  0  0  0  0  0  0
  -29.5640  -22.7050   20.5270 C   0  0  0  0  0  3  0  0  0  0  0  0
  -29.5750  -25.6630   20.7800 C   0  0  0  0  0  3  0  0  0  0  0  0
  -29.3480  -26.8450   20.0020 O   0  0  0  0  0  0  0  0  0  0  0  0
  -24.7830  -31.1900   23.3100 C   0  0  0  0  0  0  0  0  0  0  0  0
  -28.1010  -27.4150   20.0420 C   0  0  0  0  0  0  0  0  0  0  0  0
  -23.8490  -29.8360   21.4620 C   0  0  0  0  0  3  0  0  0  0  0  0
  -25.5530  -28.6160   20.0170 C   0  0  0  0  0  0  0  0  0  0  0  0
  -26.3190  -30.4890   21.4830 C   0  0  0  0  0  2  0  0  0  0  0  0
  -26.6000  -29.2040   20.7400 C   0  0  0  0  0  0  0  0  0  0  0  0
  -27.8780  -28.6050   20.7610 C   0  0  0  0  0  3  0  0  0  0  0  0
  -27.0510  -26.8520   19.2870 C   0  0  0  0  0  3  0  0  0  0  0  0
  -25.7710  -27.4310   19.2930 C   0  0  0  0  0  3  0  0  0  0  0  0
  -24.2190  -29.3220   20.0460 C   0  0  0  0  0  2  0  0  0  0  0  0
  -24.9970  -30.5140   22.1460 N   0  0  0  0  0  0  0  0  0  0  0  0
  -23.6470  -31.2870   23.7920 O   0  0  0  0  0  0  0  0  0  0  0  0
  -23.2620  -28.6590   22.2740 C   0  0  0  0  0  0  0  0  0  0  0  0
  -21.9830  -28.3360   22.0190 N   0  0  0  0  0  0  0  0  0  0  0  0
  -23.9560  -28.0460   23.0900 O   0  0  0  0  0  0  0  0  0  0  0  0
  -21.4790  -28.8930   21.3440 H   0  0  0  0  0  0  0  0  0  0  0  0
  -18.7680  -26.6950   22.0980 C   0  0  0  0  0  0  0  0  0  0  0  0
  -21.2350  -27.2440   22.6390 C   0  0  0  0  0  3  0  0  0  0  0  0
  -21.5770  -25.8900   21.9740 C   0  0  0  0  0  2  0  0  0  0  0  0
  -20.6210  -25.5210   20.8360 C   0  0  0  0  0  2  0  0  0  0  0  0
  -19.1800  -25.4400   21.3490 C   0  0  0  0  0  2  0  0  0  0  0  0
  -19.7340  -27.5520   22.6900 C   0  0  0  0  0  0  0  0  0  0  0  0
  -19.3000  -28.7260   23.3420 C   0  0  0  0  0  3  0  0  0  0  0  0
  -17.9320  -29.0460   23.4140 C   0  0  0  0  0  3  0  0  0  0  0  0
  -16.9790  -28.1870   22.8400 C   0  0  0  0  0  3  0  0  0  0  0  0
  -17.3980  -27.0130   22.1880 C   0  0  0  0  0  3  0  0  0  0  0  0
  -25.9490  -31.8910   24.0740 C   0  0  0  0  0  3  0  0  0  0  0  0
  -25.5470  -33.2820   24.3160 N   0  0  0  0  0  0  0  0  0  0  0  0
  -25.9540  -34.3290   23.5850 C   0  0  0  0  0  0  0  0  0  0  0  0
  -26.7780  -34.2290   22.6710 O   0  0  0  0  0  0  0  0  0  0  0  0
  -24.8290  -33.4310   25.0110 H   0  0  0  0  0  0  0  0  0  0  0  0
  -24.2690  -36.0620   22.8910 C   0  0  0  0  0  1  0  0  0  0  0  0
  -25.3520  -35.7060   23.9220 C   0  0  0  0  0  3  0  0  0  0  0  0
  -27.2680  -36.6690   25.1180 C   0  0  0  0  0  1  0  0  0  0  0  0
  -26.3570  -36.7890   23.9820 N   0  0  0  0  0  0  0  0  0  0  0  0
  -25.9040  -37.6980   24.0340 H   0  0  0  0  0  0  0  0  0  0  0  0
  -26.3250  -31.1720   25.4280 C   0  0  1  0  0  0  0  0  0  0  0  0
  -25.1160  -30.9300   26.3610 C   0  0  0  0  0  1  0  0  0  0  0  0
  -26.9890  -29.8020   25.1530 C   0  0  0  0  0  1  0  0  0  0  0  0
  -27.3630  -32.0190   26.2010 C   0  0  0  0  0  1  0  0  0  0  0  0
  -29.1560  -17.6590   17.5790 C   0  0  0  0  0  2  0  0  0  0  0  0
  -28.0130  -18.6370   17.5130 C   0  0  0  0  0  2  0  0  0  0  0  0
  -28.4800  -18.1040   18.8560 C   0  0  0  0  0  3  0  0  0  0  0  0
  -31.6910  -19.4450   24.0130 C   0  0  0  0  0  1  0  0  0  0  0  0
  -31.2990  -18.6410   22.9070 O   0  0  0  0  0  0  0  0  0  0  0  0
  -30.1650  -17.0170   20.9530 N   0  0  0  0  0  0  0  0  0  0  0  0
  -29.8750  -16.5520   20.1030 H   0  0  0  0  0  0  0  0  0  0  0  0
  -31.4990  -16.5820   21.3570 C   0  0  0  0  0  2  0  0  0  0  0  0
  -33.4990  -15.1310   20.7660 C   0  0  0  0  0  1  0  0  0  0  0  0
  -32.1150  -15.6270   20.3230 C   0  0  0  0  0  3  0  0  0  0  0  0
  -31.2210  -13.6970   19.0160 C   0  0  0  0  0  0  0  0  0  0  0  0
  -30.5050  -11.4880   18.2050 C   0  0  0  0  0  2  0  0  0  0  0  0
  -29.3730  -11.5540   17.1680 C   0  0  0  0  0  2  0  0  0  0  0  0
  -28.0040  -11.5820   17.8670 C   0  0  0  0  0  2  0  0  0  0  0  0
  -27.9280  -12.6640   18.9730 C   0  0  0  0  0  3  0  0  0  0  0  0
  -29.1480  -12.5810   19.9170 C   0  0  0  0  0  2  0  0  0  0  0  0
  -30.3840  -12.6360   19.1120 N   0  0  0  0  0  0  0  0  0  0  0  0
  -32.0320  -13.8480   18.0990 O   0  0  0  0  0  0  0  0  0  0  0  0
  -31.2140  -14.5000   20.0850 N   0  0  0  0  0  0  0  0  0  0  0  0
  -30.5480  -14.2880   20.8140 H   0  0  0  0  0  0  0  0  0  0  0  0
  -25.8490  -13.5900   20.1850 C   0  0  0  0  0  0  0  0  0  0  0  0
  -24.7630  -12.9690   20.7390 C   0  0  0  0  0  0  0  0  0  0  0  0
  -24.9750  -11.5680   20.5620 C   0  0  0  0  0  0  0  0  0  0  0  0
  -26.6680  -12.5760   19.7110 N   0  0  0  0  0  0  0  0  0  0  0  0
  -26.1530  -11.3510   19.9890 N   0  0  0  0  0  0  0  0  0  0  0  0
  -24.1010  -10.4230   20.8510 C   0  0  0  0  0  0  0  0  0  0  0  0
  -24.4970   -9.3930   21.7310 C   0  0  0  0  0  3  0  0  0  0  0  0
  -23.6320   -8.3130   22.0080 C   0  0  0  0  0  3  0  0  0  0  0  0
  -22.3540   -8.2560   21.4040 C   0  0  0  0  0  0  0  0  0  0  0  0
  -21.9720   -9.2710   20.5090 C   0  0  0  0  0  3  0  0  0  0  0  0
  -22.8370  -10.3430   20.2310 C   0  0  0  0  0  3  0  0  0  0  0  0
  -21.4560   -7.2320   21.5920 O   0  0  0  0  0  0  0  0  0  0  0  0
  -21.4090   -6.5240   22.7660 C   0  0  0  0  0  0  0  0  0  0  0  0
  -21.1040   -7.1430   23.9980 C   0  0  0  0  0  3  0  0  0  0  0  0
  -20.9980   -6.3670   25.1680 C   0  0  0  0  0  3  0  0  0  0  0  0
  -21.1860   -4.9720   25.1100 C   0  0  0  0  0  0  0  0  0  0  0  0
  -21.4830   -4.3530   23.8830 C   0  0  0  0  0  3  0  0  0  0  0  0
  -21.5910   -5.1270   22.7140 C   0  0  0  0  0  0  0  0  0  0  0  0
  -21.8580   -4.5230   21.5310 F   0  0  0  0  0  0  0  0  0  0  0  0
  -21.0760   -4.2240   26.2330 F   0  0  0  0  0  0  0  0  0  0  0  0
  -23.5480  -13.6370   21.3170 C   0  0  0  0  0  0  0  0  0  0  0  0
  -22.9280  -13.0200   22.3180 N   0  0  0  0  0  0  0  0  0  0  0  0
  -23.1690  -14.7360   20.9150 O   0  0  0  0  0  0  0  0  0  0  0  0
  -23.2520  -12.1280   22.6600 H   0  0  0  0  0  0  0  0  0  0  0  0
  -22.1210  -13.4480   22.7500 H   0  0  0  0  0  0  0  0  0  0  0  0
  -26.2010  -14.9270   20.0270 N   0  0  0  0  0  0  0  0  0  0  0  0
  -25.6020  -15.6870   20.3300 H   0  0  0  0  0  0  0  0  0  0  0  0
  -27.0510  -15.2470   19.5790 H   0  0  0  0  0  0  0  0  0  0  0  0
  1  4  2  0
  1  3  1  0
  2  6  1  0
  3  2  2  0
  4  5  1  0
  5 59  1  0
  5  6  2  0
  6 58  1  0
  7 11  1  0
  9  7  1  0
  9 12  1  0
 10  8  1  0
 11  3  1  0
 11  8  1  0
 12 13  1  0
 12 10  1  0
 13 15  1  0
 14 25  2  0
 15 20  1  0
 16 24  1  0
 16 26  1  0
 17 23  1  0
 17 19  1  0
 18 24  1  0
 19 20  2  0
 19 18  1  0
 21 22  1  0
 21 15  2  0
 22 17  2  0
 23 16  1  0
 24 14  1  0
 26 28  2  0
 27 26  1  0
 29 27  1  0
 30 39  2  0
 30 35  1  0
 31 27  1  0
 31 35  1  0
 32 31  1  0
 33 34  1  0
 33 32  1  0
 34 30  1  0
 35 36  2  0
 36 37  1  0
 38 37  2  0
 39 38  1  0
 40 14  1  0
 40 41  1  0
 40 50  1  0
 41 44  1  0
 42 46  1  0
 42 41  1  0
 43 42  2  0
 46 45  1  0
 46 48  1  0
 48 49  1  0
 48 47  1  0
 50 53  1  1
 50 51  1  0
 52 50  1  0
 54 56  1  0
 55 54  1  0
 55 56  1  0
 56  4  1  0
 58 57  1  0
 59 61  1  0
 60 59  1  0
 63 62  1  0
 63 61  1  0
 64 70  1  0
 64 72  1  0
 65 70  1  0
 66 67  1  0
 66 65  1  0
 68 67  1  0
 68 77  1  0
 68 69  1  0
 70 69  1  0
 71 64  2  0
 72 63  1  0
 72 73  1  0
 74 75  2  0
 75 94  1  0
 76 75  1  0
 76 79  1  0
 77 78  1  0
 77 74  1  0
 78 76  2  0
 79 80  1  0
 80 81  2  0
 82 85  1  0
 82 81  1  0
 83 82  2  0
 84 83  1  0
 84 79  2  0
 85 86  1  0
 86 87  1  0
 87 88  2  0
 89 88  1  0
 89 93  1  0
 90 89  2  0
 91 86  2  0
 91 90  1  0
 92 91  1  0
 94 95  1  0
 95 97  1  0
 95 98  1  0
 96 94  2  0
 99 74  1  0
 99100  1  0
101 99  1  0
M  ISO  4  12 101  13 101  64 100  72 100
M  END
>  <TORSDO>  (44) 
F 22

>  <SCORE>  (44) 
-8.172

>  <name>  (44) 
43

>  <ligand_id>  (44) 
43

>  <original_smiles>  (44) 
[H]c1c([H])c([H])c2c(c1[H])C([H])([H])C([H])([H])C([H])([H])C2([H])N([H])C(=O)C1([H])N(C(=O)C([H])(N([H])C(=O)C([H])(N([H])C([H])([H])[H])C([H])([H])[H])C(C([H])([H])[H])(C([H])([H])[H])C([H])([H])[H])C([H])([H])c2c([H])c(OC3([H])C([H])([H])C([H])([H])C([H])(c4c([H])c(OC([H])([H])[H])c(N([H])C([H])([H])C([H])(N([H])C(=O)N5C([H])([H])C([H])([H])C([H])([H])C([H])(n6nc(-c7c([H])c([H])c(Oc8c([H])c([H])c(F)c([H])c8F)c([H])c7[H])c(C(=O)N([H])[H])c6N([H])[H])C5([H])[H])C([H])([H])[H])c(C5([H])C([H])([H])C5([H])[H])c4[H])C([H])([H])C3([H])[H])c([H])c([H])c2C1([H])[H]

>  <smiles>  (44) 
[H]c1c([H])c([H])c2c(c1[H])C([H])([H])C([H])([H])C([H])([H])C2([H])N([H])C(=O)C1([H])N(C(=O)C([H])(N([H])C(=O)C([H])(N([H])C([H])([H])[H])C([H])([H])[H])C(C([H])([H])[H])(C([H])([H])[H])C([H])([H])[H])C([H])([H])c2c([H])c(OC3([H])C([H])([H])C([H])([H])C([H])(c4c([H])c(OC([H])([H])[H])c(N([H])C([H])([H])C([H])(N([H])C(=O)N5C([H])([H])C([H])([H])C([H])([H])C([H])(n6nc(-c7c([H])c([H])c(Oc8c([H])c([H])c(F)c([H])c8F)c([H])c7[H])c(C(=O)N([H])[H])c6N([H])[H])C5([H])[H])C([H])([H])[H])c(C5([H])C([H])([H])C5([H])[H])c4[H])C([H])([H])C3([H])[H])c([H])c([H])c2C1([H])[H]

$$$$
44:0:0
     RDKit          3D

 93101  0  0  1  0  0  0  0  0999 V2000
  -29.9470  -23.3750   20.5370 C   0  0  0  0  0  3  0  0  0  0  0  0
  -28.0490  -22.4990   19.3640 C   0  0  0  0  0  3  0  0  0  0  0  0
  -28.7260  -23.6330   19.8730 C   0  0  0  0  0  0  0  0  0  0  0  0
  -30.4390  -22.0320   20.6660 C   0  0  0  0  0  0  0  0  0  0  0  0
  -28.5400  -21.1650   19.4340 C   0  0  0  0  0  0  0  0  0  0  0  0
  -29.7510  -20.8880   20.1390 C   0  0  0  0  0  0  0  0  0  0  0  0
  -31.7780  -21.8200   21.3500 C   0  0  0  0  0  1  0  0  0  0  0  0
  -27.2620  -20.5620   17.2830 C   0  0  0  0  0  1  0  0  0  0  0  0
  -26.6060  -19.5330   19.4970 C   0  0  0  0  0  1  0  0  0  0  0  0
  -27.7690  -20.0910   18.6590 C   0  0  0  0  0  3  0  0  0  0  0  0
  -28.0450  -25.0040   19.5310 C   0  0  0  0  0  2  0  0  0  0  0  0
  -28.3650  -26.3700   20.0130 O   0  0  0  0  0  0  0  0  0  0  0  0
  -24.5180  -31.6990   23.0600 C   0  0  0  0  0  0  0  0  0  0  0  0
  -27.2710  -27.2660   19.9270 C   0  0  0  0  0  0  0  0  0  0  0  0
  -23.3750  -30.3210   21.3670 C   0  0  0  0  0  3  0  0  0  0  0  0
  -24.8820  -28.8580   19.9220 C   0  0  0  0  0  0  0  0  0  0  0  0
  -25.9160  -30.6870   21.2470 C   0  0  0  0  0  2  0  0  0  0  0  0
  -26.0320  -29.3320   20.5640 C   0  0  0  0  0  0  0  0  0  0  0  0
  -27.2280  -28.5450   20.5700 C   0  0  0  0  0  3  0  0  0  0  0  0
  -26.0940  -26.8890   19.2230 C   0  0  0  0  0  3  0  0  0  0  0  0
  -24.9140  -27.6400   19.2440 C   0  0  0  0  0  3  0  0  0  0  0  0
  -23.6260  -29.7030   19.9720 C   0  0  0  0  0  2  0  0  0  0  0  0
  -24.6210  -30.9180   21.9460 N   0  0  0  0  0  0  0  0  0  0  0  0
  -23.4190  -31.9400   23.5800 O   0  0  0  0  0  0  0  0  0  0  0  0
  -22.7190  -29.2590   22.2830 C   0  0  0  0  0  0  0  0  0  0  0  0
  -21.3910  -29.0890   22.1620 N   0  0  0  0  0  0  0  0  0  0  0  0
  -23.4040  -28.5950   23.0660 O   0  0  0  0  0  0  0  0  0  0  0  0
  -20.8980  -29.6770   21.5060 H   0  0  0  0  0  0  0  0  0  0  0  0
  -18.0070  -27.9220   22.6870 C   0  0  0  0  0  0  0  0  0  0  0  0
  -20.5770  -28.1240   22.9020 C   0  0  0  0  0  3  0  0  0  0  0  0
  -20.6380  -26.7230   22.2480 C   0  0  0  0  0  2  0  0  0  0  0  0
  -19.5040  -26.4750   21.2490 C   0  0  0  0  0  2  0  0  0  0  0  0
  -18.1420  -26.6090   21.9340 C   0  0  0  0  0  2  0  0  0  0  0  0
  -19.1500  -28.6410   23.1280 C   0  0  0  0  0  0  0  0  0  0  0  0
  -18.9690  -29.8740   23.7910 C   0  0  0  0  0  3  0  0  0  0  0  0
  -17.6780  -30.3870   24.0190 C   0  0  0  0  0  3  0  0  0  0  0  0
  -16.5500  -29.6640   23.5930 C   0  0  0  0  0  3  0  0  0  0  0  0
  -16.7150  -28.4330   22.9320 C   0  0  0  0  0  3  0  0  0  0  0  0
  -25.7750  -32.3440   23.7170 C   0  0  0  0  0  3  0  0  0  0  0  0
  -25.4280  -33.7250   24.0790 N   0  0  0  0  0  0  0  0  0  0  0  0
  -25.7410  -34.8040   23.3510 C   0  0  0  0  0  0  0  0  0  0  0  0
  -26.4260  -34.7460   22.3270 O   0  0  0  0  0  0  0  0  0  0  0  0
  -24.8240  -33.8420   24.8800 H   0  0  0  0  0  0  0  0  0  0  0  0
  -23.9750  -36.5640   23.0210 C   0  0  0  0  0  1  0  0  0  0  0  0
  -25.2140  -36.1680   23.8400 C   0  0  0  0  0  3  0  0  0  0  0  0
  -27.3120  -37.0820   24.7280 C   0  0  0  0  0  1  0  0  0  0  0  0
  -26.2210  -37.2480   23.7710 N   0  0  0  0  0  0  0  0  0  0  0  0
  -25.7900  -38.1540   23.9370 H   0  0  0  0  0  0  0  0  0  0  0  0
  -26.2870  -31.5510   24.9810 C   0  0  1  0  0  0  0  0  0  0  0  0
  -25.1840  -31.2620   26.0250 C   0  0  0  0  0  1  0  0  0  0  0  0
  -26.9080  -30.1980   24.5640 C   0  0  0  0  0  1  0  0  0  0  0  0
  -27.4090  -32.3550   25.6810 C   0  0  0  0  0  1  0  0  0  0  0  0
  -30.3900  -19.6290   20.2090 O   0  0  0  0  0  0  0  0  0  0  0  0
  -29.7930  -18.3900   20.7340 C   0  0  0  0  0  2  0  0  0  0  0  0
  -30.7010  -17.1230   20.4480 C   0  0  0  0  0  2  0  0  0  0  0  0
  -30.7870  -14.5970   20.2740 C   0  0  0  0  0  0  0  0  0  0  0  0
  -30.4440  -12.3840   19.2080 C   0  0  0  0  0  2  0  0  0  0  0  0
  -29.4870  -12.5310   18.0070 C   0  0  0  0  0  2  0  0  0  0  0  0
  -28.0250  -12.3830   18.4690 C   0  0  0  0  0  2  0  0  0  0  0  0
  -27.7000  -13.2580   19.7090 C   0  0  0  0  0  3  0  0  0  0  0  0
  -28.7810  -13.1260   20.8070 C   0  0  0  0  0  2  0  0  0  0  0  0
  -30.0840  -13.4240   20.1940 N   0  0  0  0  0  0  0  0  0  0  0  0
  -31.9400  -14.6790   19.8500 O   0  0  0  0  0  0  0  0  0  0  0  0
  -30.1310  -15.7390   20.6350 N   0  0  0  0  0  0  0  0  0  0  0  0
  -29.1710  -15.6540   20.9350 H   0  0  0  0  0  0  0  0  0  0  0  0
  -25.3280  -13.8620   20.4890 C   0  0  0  0  0  0  0  0  0  0  0  0
  -24.2610  -13.0930   20.8680 C   0  0  0  0  0  0  0  0  0  0  0  0
  -24.7100  -11.7390   20.8080 C   0  0  0  0  0  0  0  0  0  0  0  0
  -26.3590  -12.9780   20.2220 N   0  0  0  0  0  0  0  0  0  0  0  0
  -25.9950  -11.6940   20.4750 N   0  0  0  0  0  0  0  0  0  0  0  0
  -23.9760  -10.4800   20.9950 C   0  0  0  0  0  0  0  0  0  0  0  0
  -24.3950   -9.5120   21.9340 C   0  0  0  0  0  3  0  0  0  0  0  0
  -23.6610   -8.3180   22.1080 C   0  0  0  0  0  3  0  0  0  0  0  0
  -22.4940   -8.0840   21.3440 C   0  0  0  0  0  0  0  0  0  0  0  0
  -22.0930   -9.0410   20.3940 C   0  0  0  0  0  3  0  0  0  0  0  0
  -22.8280  -10.2250   20.2180 C   0  0  0  0  0  3  0  0  0  0  0  0
  -21.7330   -6.9440   21.4270 O   0  0  0  0  0  0  0  0  0  0  0  0
  -21.6370   -6.2260   22.5940 C   0  0  0  0  0  0  0  0  0  0  0  0
  -21.1600   -6.8070   23.7880 C   0  0  0  0  0  3  0  0  0  0  0  0
  -21.0120   -6.0160   24.9450 C   0  0  0  0  0  3  0  0  0  0  0  0
  -21.3300   -4.6450   24.9070 C   0  0  0  0  0  0  0  0  0  0  0  0
  -21.7990   -4.0640   23.7150 C   0  0  0  0  0  3  0  0  0  0  0  0
  -21.9490   -4.8520   22.5620 C   0  0  0  0  0  0  0  0  0  0  0  0
  -22.3820   -4.2830   21.4100 F   0  0  0  0  0  0  0  0  0  0  0  0
  -21.1800   -3.8820   26.0150 F   0  0  0  0  0  0  0  0  0  0  0  0
  -22.8740  -13.5790   21.1740 C   0  0  0  0  0  0  0  0  0  0  0  0
  -22.1590  -12.8790   22.0470 N   0  0  0  0  0  0  0  0  0  0  0  0
  -22.4350  -14.6150   20.6770 O   0  0  0  0  0  0  0  0  0  0  0  0
  -22.5270  -12.0380   22.4680 H   0  0  0  0  0  0  0  0  0  0  0  0
  -21.2300  -13.1860   22.2970 H   0  0  0  0  0  0  0  0  0  0  0  0
  -25.5010  -15.2350   20.3260 N   0  0  0  0  0  0  0  0  0  0  0  0
  -24.7400  -15.8920   20.4560 H   0  0  0  0  0  0  0  0  0  0  0  0
  -26.3460  -15.6690   19.9770 H   0  0  0  0  0  0  0  0  0  0  0  0
  1  4  1  0
  2  5  2  0
  2  3  1  0
  3  1  2  0
  4  7  1  0
  5  6  1  0
  6 53  1  0
  6  4  2  0
  8 10  1  0
 10  5  1  0
 10  9  1  0
 11  3  1  0
 11 12  1  0
 13 24  2  0
 14 12  1  0
 14 19  1  0
 15 23  1  0
 15 25  1  0
 16 22  1  0
 16 18  1  0
 17 23  1  0
 18 19  2  0
 18 17  1  0
 20 21  1  0
 20 14  2  0
 21 16  2  0
 22 15  1  0
 23 13  1  0
 25 27  2  0
 26 25  1  0
 28 26  1  0
 29 38  2  0
 29 34  1  0
 30 26  1  0
 30 34  1  0
 31 30  1  0
 32 33  1  0
 32 31  1  0
 33 29  1  0
 34 35  2  0
 35 36  1  0
 37 36  2  0
 38 37  1  0
 39 13  1  0
 39 40  1  0
 39 49  1  0
 40 43  1  0
 41 45  1  0
 41 40  1  0
 42 41  2  0
 45 44  1  0
 47 45  1  0
 47 48  1  0
 47 46  1  0
 49 52  1  1
 49 50  1  0
 51 49  1  0
 53 54  1  0
 55 64  1  0
 55 54  1  0
 56 64  1  0
 57 62  1  0
 58 59  1  0
 58 57  1  0
 60 59  1  0
 60 69  1  0
 60 61  1  0
 62 56  1  0
 62 61  1  0
 63 56  2  0
 64 65  1  0
 66 67  2  0
 67 86  1  0
 68 67  1  0
 68 71  1  0
 69 70  1  0
 69 66  1  0
 70 68  2  0
 71 72  1  0
 72 73  2  0
 74 77  1  0
 74 73  1  0
 75 74  2  0
 76 75  1  0
 76 71  2  0
 77 78  1  0
 78 79  1  0
 79 80  2  0
 81 80  1  0
 81 85  1  0
 82 81  2  0
 83 78  2  0
 83 82  1  0
 84 83  1  0
 86 87  1  0
 87 90  1  0
 87 89  1  0
 88 86  2  0
 91 92  1  0
 91 66  1  0
 93 91  1  0
M  ISO  4  11 101  12 101  56 100  64 100
M  END
>  <TORSDO>  (45) 
F 21

>  <SCORE>  (45) 
-13.034

>  <name>  (45) 
44

>  <ligand_id>  (45) 
44

>  <original_smiles>  (45) 
[H]c1c([H])c([H])c2c(c1[H])C([H])([H])C([H])([H])C([H])([H])C2([H])N([H])C(=O)C1([H])N(C(=O)C([H])(N([H])C(=O)C([H])(N([H])C([H])([H])[H])C([H])([H])[H])C(C([H])([H])[H])(C([H])([H])[H])C([H])([H])[H])C([H])([H])c2c([H])c(OC([H])([H])c3c([H])c(C([H])([H])[H])c(OC([H])([H])C([H])([H])N([H])C(=O)N4C([H])([H])C([H])([H])C([H])([H])C([H])(n5nc(-c6c([H])c([H])c(Oc7c([H])c([H])c(F)c([H])c7F)c([H])c6[H])c(C(=O)N([H])[H])c5N([H])[H])C4([H])[H])c(C([H])(C([H])([H])[H])C([H])([H])[H])c3[H])c([H])c([H])c2C1([H])[H]

>  <smiles>  (45) 
[H]c1c([H])c([H])c2c(c1[H])C([H])([H])C([H])([H])C([H])([H])C2([H])N([H])C(=O)C1([H])N(C(=O)C([H])(N([H])C(=O)C([H])(N([H])C([H])([H])[H])C([H])([H])[H])C(C([H])([H])[H])(C([H])([H])[H])C([H])([H])[H])C([H])([H])c2c([H])c(OC([H])([H])c3c([H])c(C([H])([H])[H])c(OC([H])([H])C([H])([H])N([H])C(=O)N4C([H])([H])C([H])([H])C([H])([H])C([H])(n5nc(-c6c([H])c([H])c(Oc7c([H])c([H])c(F)c([H])c7F)c([H])c6[H])c(C(=O)N([H])[H])c5N([H])[H])C4([H])[H])c(C([H])(C([H])([H])[H])C([H])([H])[H])c3[H])c([H])c([H])c2C1([H])[H]

$$$$
45:0:0
     RDKit          3D

100109  0  0  1  0  0  0  0  0999 V2000
  -28.4910  -23.2180   20.6700 C   0  0  0  0  0  3  0  0  0  0  0  0
  -28.8630  -21.8580   20.9320 C   0  0  0  0  0  3  0  0  0  0  0  0
  -28.7440  -23.8520   19.4240 C   0  0  0  0  0  0  0  0  0  0  0  0
  -29.3870  -23.0180   18.4450 C   0  0  0  0  0  0  0  0  0  0  0  0
  -29.8850  -21.6980   18.7610 C   0  0  0  0  0  0  0  0  0  0  0  0
  -29.5760  -21.0590   19.9960 C   0  0  0  0  0  0  0  0  0  0  0  0
  -29.5380  -23.5290   17.0090 C   0  0  0  0  0  1  0  0  0  0  0  0
  -30.1260  -19.7700   20.3410 N   0  0  0  0  0  0  0  0  0  0  0  0
  -31.1130  -19.7620   20.5750 H   0  0  0  0  0  0  0  0  0  0  0  0
  -30.7300  -14.7160   19.9440 C   0  0  0  0  0  0  0  0  0  0  0  0
  -30.4280  -12.4380   18.9560 C   0  0  0  0  0  2  0  0  0  0  0  0
  -29.4220  -12.4920   17.7870 C   0  0  0  0  0  2  0  0  0  0  0  0
  -27.9780  -12.3260   18.3020 C   0  0  0  0  0  2  0  0  0  0  0  0
  -27.6790  -13.2260   19.5300 C   0  0  0  0  0  3  0  0  0  0  0  0
  -28.8050  -13.1260   20.5840 C   0  0  0  0  0  2  0  0  0  0  0  0
  -30.0550  -13.5100   19.9140 N   0  0  0  0  0  0  0  0  0  0  0  0
  -31.8730  -14.7660   19.4750 O   0  0  0  0  0  0  0  0  0  0  0  0
  -28.9820  -17.7690   21.3550 C   0  0  0  0  0  2  0  0  0  0  0  0
  -29.0050  -16.2350   21.1320 C   0  0  0  0  0  2  0  0  0  0  0  0
  -30.5410  -17.2600   19.6610 C   0  0  0  0  0  2  0  0  0  0  0  0
  -29.5460  -18.4100   20.0880 C   0  0  0  0  0  3  0  0  0  0  0  0
  -30.0630  -15.9230   20.1590 N   0  0  0  0  0  0  0  0  0  0  0  0
  -25.3580  -13.8420   20.4380 C   0  0  0  0  0  0  0  0  0  0  0  0
  -24.3050  -13.0760   20.8550 C   0  0  0  0  0  0  0  0  0  0  0  0
  -24.7340  -11.7190   20.7430 C   0  0  0  0  0  0  0  0  0  0  0  0
  -26.3640  -12.9510   20.1000 N   0  0  0  0  0  0  0  0  0  0  0  0
  -25.9980  -11.6670   20.3430 N   0  0  0  0  0  0  0  0  0  0  0  0
  -23.9940  -10.4650   20.9380 C   0  0  0  0  0  0  0  0  0  0  0  0
  -24.4360   -9.4790   21.8450 C   0  0  0  0  0  3  0  0  0  0  0  0
  -23.6940   -8.2910   22.0290 C   0  0  0  0  0  3  0  0  0  0  0  0
  -22.4980   -8.0820   21.3020 C   0  0  0  0  0  0  0  0  0  0  0  0
  -22.0750   -9.0570   20.3820 C   0  0  0  0  0  3  0  0  0  0  0  0
  -22.8170  -10.2340   20.1970 C   0  0  0  0  0  3  0  0  0  0  0  0
  -21.7300   -6.9460   21.3940 O   0  0  0  0  0  0  0  0  0  0  0  0
  -21.6520   -6.2220   22.5570 C   0  0  0  0  0  0  0  0  0  0  0  0
  -21.2130   -6.8000   23.7670 C   0  0  0  0  0  3  0  0  0  0  0  0
  -21.0830   -6.0040   24.9220 C   0  0  0  0  0  3  0  0  0  0  0  0
  -21.3840   -4.6300   24.8680 C   0  0  0  0  0  0  0  0  0  0  0  0
  -21.8170   -4.0500   23.6630 C   0  0  0  0  0  3  0  0  0  0  0  0
  -21.9490   -4.8450   22.5100 C   0  0  0  0  0  0  0  0  0  0  0  0
  -22.3460   -4.2790   21.3450 F   0  0  0  0  0  0  0  0  0  0  0  0
  -21.2510   -3.8620   25.9750 F   0  0  0  0  0  0  0  0  0  0  0  0
  -22.9430  -13.5710   21.2450 C   0  0  0  0  0  0  0  0  0  0  0  0
  -22.2700  -12.8640   22.1440 N   0  0  0  0  0  0  0  0  0  0  0  0
  -22.4900  -14.6210   20.7910 O   0  0  0  0  0  0  0  0  0  0  0  0
  -22.6520  -12.0150   22.5340 H   0  0  0  0  0  0  0  0  0  0  0  0
  -21.3610  -13.1790   22.4530 H   0  0  0  0  0  0  0  0  0  0  0  0
  -25.5310  -15.2140   20.2900 N   0  0  0  0  0  0  0  0  0  0  0  0
  -24.7790  -15.8720   20.4670 H   0  0  0  0  0  0  0  0  0  0  0  0
  -26.3510  -15.6510   19.8860 H   0  0  0  0  0  0  0  0  0  0  0  0
  -30.8880  -21.0010   17.8290 C   0  0  0  0  0  2  0  0  0  0  0  0
  -32.3240  -21.5030   18.0880 C   0  0  0  0  0  2  0  0  0  0  0  0
  -32.4580  -22.9550   17.8200 N   0  0  0  0  0  4  0  0  0  0  0  0
  -31.6820  -23.3950   18.2920 H   0  0  0  0  0  0  0  0  0  0  0  0
  -32.3620  -23.1350   16.8330 H   0  0  0  0  0  0  0  0  0  0  0  0
  -33.5600  -25.1130   18.3730 C   0  0  0  0  0  1  0  0  0  0  0  0
  -34.9170  -23.1580   17.4980 C   0  0  0  0  0  1  0  0  0  0  0  0
  -33.6980  -23.5810   18.3320 C   0  0  0  0  0  3  0  0  0  0  0  0
  -28.2440  -25.3230   19.0580 C   0  0  0  0  0  2  0  0  0  0  0  0
  -28.0500  -26.4070   20.0510 O   0  0  0  0  0  0  0  0  0  0  0  0
  -24.5450  -31.8340   23.2780 C   0  0  0  0  0  0  0  0  0  0  0  0
  -26.9490  -27.2850   20.0110 C   0  0  0  0  0  0  0  0  0  0  0  0
  -23.2560  -30.5110   21.6410 C   0  0  0  0  0  3  0  0  0  0  0  0
  -24.6210  -28.9610   20.1280 C   0  0  0  0  0  0  0  0  0  0  0  0
  -25.7970  -30.7640   21.3880 C   0  0  0  0  0  2  0  0  0  0  0  0
  -25.8190  -29.4010   20.7010 C   0  0  0  0  0  0  0  0  0  0  0  0
  -26.9820  -28.5730   20.6360 C   0  0  0  0  0  3  0  0  0  0  0  0
  -25.7190  -26.8980   19.4270 C   0  0  0  0  0  3  0  0  0  0  0  0
  -24.5720  -27.7140   19.4840 C   0  0  0  0  0  3  0  0  0  0  0  0
  -23.4080  -29.8620   20.2390 C   0  0  0  0  0  2  0  0  0  0  0  0
  -24.5530  -31.0520   22.1590 N   0  0  0  0  0  0  0  0  0  0  0  0
  -23.4870  -32.1250   23.8530 O   0  0  0  0  0  0  0  0  0  0  0  0
  -22.5900  -29.4910   22.5950 C   0  0  0  0  0  0  0  0  0  0  0  0
  -21.2660  -29.3060   22.4590 N   0  0  0  0  0  0  0  0  0  0  0  0
  -23.2650  -28.8660   23.4170 O   0  0  0  0  0  0  0  0  0  0  0  0
  -20.7770  -29.8590   21.7670 H   0  0  0  0  0  0  0  0  0  0  0  0
  -17.9060  -28.0320   22.8880 C   0  0  0  0  0  0  0  0  0  0  0  0
  -20.4490  -28.3640   23.2250 C   0  0  0  0  0  3  0  0  0  0  0  0
  -20.6040  -26.9260   22.6800 C   0  0  0  0  0  2  0  0  0  0  0  0
  -19.5410  -26.5550   21.6410 C   0  0  0  0  0  2  0  0  0  0  0  0
  -18.1370  -26.6760   22.2410 C   0  0  0  0  0  2  0  0  0  0  0  0
  -18.9930  -28.8320   23.3350 C   0  0  0  0  0  0  0  0  0  0  0  0
  -18.7250  -30.0980   23.8960 C   0  0  0  0  0  3  0  0  0  0  0  0
  -17.4030  -30.5700   24.0130 C   0  0  0  0  0  3  0  0  0  0  0  0
  -16.3320  -29.7690   23.5820 C   0  0  0  0  0  3  0  0  0  0  0  0
  -16.5830  -28.5020   23.0280 C   0  0  0  0  0  3  0  0  0  0  0  0
  -25.8640  -32.4150   23.8750 C   0  0  0  0  0  3  0  0  0  0  0  0
  -25.6110  -33.8200   24.2220 N   0  0  0  0  0  0  0  0  0  0  0  0
  -25.9420  -34.8670   23.4550 C   0  0  0  0  0  0  0  0  0  0  0  0
  -26.5640  -34.7480   22.3960 O   0  0  0  0  0  0  0  0  0  0  0  0
  -25.0520  -33.9890   25.0460 H   0  0  0  0  0  0  0  0  0  0  0  0
  -24.2460  -36.7060   23.2010 C   0  0  0  0  0  1  0  0  0  0  0  0
  -25.5190  -36.2670   23.9400 C   0  0  0  0  0  3  0  0  0  0  0  0
  -27.7210  -37.0870   24.6530 C   0  0  0  0  0  1  0  0  0  0  0  0
  -26.5720  -37.2940   23.7750 N   0  0  0  0  0  0  0  0  0  0  0  0
  -26.2010  -38.2230   23.9570 H   0  0  0  0  0  0  0  0  0  0  0  0
  -26.3780  -31.6160   25.1370 C   0  0  1  0  0  0  0  0  0  0  0  0
  -25.2980  -31.4070   26.2240 C   0  0  0  0  0  1  0  0  0  0  0  0
  -26.9040  -30.2220   24.7260 C   0  0  0  0  0  1  0  0  0  0  0  0
  -27.5710  -32.3650   25.7770 C   0  0  0  0  0  1  0  0  0  0  0  0
  1  2  1  0
  3  1  2  0
  4  5  2  0
  4  3  1  0
  5  6  1  0
  6  8  1  0
  6  2  2  0
  7  4  1  0
  8  9  1  0
 10 22  1  0
 11 16  1  0
 12 13  1  0
 12 11  1  0
 14 13  1  0
 14 26  1  0
 14 15  1  0
 16 10  1  0
 16 15  1  0
 17 10  2  0
 19 18  1  0
 20 21  1  0
 20 22  1  0
 21  8  1  0
 21 18  1  0
 22 19  1  0
 23 24  2  0
 24 43  1  0
 25 24  1  0
 25 28  1  0
 26 27  1  0
 26 23  1  0
 27 25  2  0
 28 29  1  0
 29 30  2  0
 31 34  1  0
 31 30  1  0
 32 31  2  0
 33 32  1  0
 33 28  2  0
 34 35  1  0
 35 36  1  0
 36 37  2  0
 38 37  1  0
 38 42  1  0
 39 38  2  0
 40 35  2  0
 40 39  1  0
 41 40  1  0
 43 44  1  0
 44 47  1  0
 44 46  1  0
 45 43  2  0
 48 23  1  0
 48 49  1  0
 50 48  1  0
 51 52  1  0
 51  5  1  0
 53 52  1  0
 53 54  1  0
 53 58  1  0
 55 53  1  0
 57 58  1  0
 58 56  1  0
 59  3  1  0
 59 60  1  0
 61 72  2  0
 62 60  1  0
 62 67  1  0
 63 71  1  0
 63 73  1  0
 64 70  1  0
 64 66  1  0
 65 71  1  0
 66 65  1  0
 67 66  2  0
 68 69  1  0
 68 62  2  0
 69 64  2  0
 70 63  1  0
 71 61  1  0
 73 75  2  0
 74 73  1  0
 76 74  1  0
 77 86  2  0
 77 82  1  0
 78 74  1  0
 78 82  1  0
 79 78  1  0
 80 81  1  0
 80 79  1  0
 81 77  1  0
 82 83  2  0
 83 84  1  0
 85 84  2  0
 86 85  1  0
 87 61  1  0
 87 88  1  0
 87 97  1  0
 88 91  1  0
 89 93  1  0
 89 88  1  0
 90 89  2  0
 93 92  1  0
 95 93  1  0
 95 96  1  0
 95 94  1  0
 97100  1  1
 97 98  1  0
 99 97  1  0
M  ISO  4  10 100  22 100  59 101  60 101
M  END
>  <TORSDO>  (46) 
F 22

>  <SCORE>  (46) 
-12.507

>  <name>  (46) 
45

>  <ligand_id>  (46) 
45

>  <original_smiles>  (46) 
[H]c1c([H])c([H])c2c(c1[H])C([H])([H])C([H])([H])C([H])([H])C2([H])N([H])C(=O)C1([H])N(C(=O)C([H])(N([H])C(=O)C([H])(N([H])C([H])([H])[H])C([H])([H])[H])C(C([H])([H])[H])(C([H])([H])[H])C([H])([H])[H])C([H])([H])c2c([H])c(OC([H])([H])c3c([H])c([H])c(N([H])C4([H])C([H])([H])N(C(=O)N5C([H])([H])C([H])([H])C([H])([H])C([H])(n6nc(-c7c([H])c([H])c(Oc8c([H])c([H])c(F)c([H])c8F)c([H])c7[H])c(C(=O)N([H])[H])c6N([H])[H])C5([H])[H])C([H])([H])C4([H])[H])c(C([H])([H])C([H])([H])[N+]([H])([H])C([H])(C([H])([H])[H])C([H])([H])[H])c3C([H])([H])[H])c([H])c([H])c2C1([H])[H]

>  <smiles>  (46) 
[H]c1c([H])c([H])c2c(c1[H])C([H])([H])C([H])([H])C([H])([H])C2([H])N([H])C(=O)C1([H])N(C(=O)C([H])(N([H])C(=O)C([H])(N([H])C([H])([H])[H])C([H])([H])[H])C(C([H])([H])[H])(C([H])([H])[H])C([H])([H])[H])C([H])([H])c2c([H])c(OC([H])([H])c3c([H])c([H])c(N([H])C4([H])C([H])([H])N(C(=O)N5C([H])([H])C([H])([H])C([H])([H])C([H])(n6nc(-c7c([H])c([H])c(Oc8c([H])c([H])c(F)c([H])c8F)c([H])c7[H])c(C(=O)N([H])[H])c6N([H])[H])C5([H])[H])C([H])([H])C4([H])[H])c(C([H])([H])C([H])([H])[N+]([H])([H])C([H])(C([H])([H])[H])C([H])([H])[H])c3C([H])([H])[H])c([H])c([H])c2C1([H])[H]

$$$$
46:0:0
     RDKit          3D

 97106  0  0  1  0  0  0  0  0999 V2000
  -30.0580  -19.8780   21.3490 C   0  0  0  0  0  3  0  0  0  0  0  0
  -29.4450  -21.7250   19.3230 C   0  0  0  0  0  3  0  0  0  0  0  0
  -30.1700  -19.4730   20.0020 C   0  0  0  0  0  0  0  0  0  0  0  0
  -29.8450  -20.4090   18.9830 C   0  0  0  0  0  0  0  0  0  0  0  0
  -29.6520  -21.1880   21.6850 C   0  0  0  0  0  0  0  0  0  0  0  0
  -29.3570  -22.1350   20.6750 C   0  0  0  0  0  0  0  0  0  0  0  0
  -29.9700  -20.0390   17.5080 C   0  0  0  0  0  2  0  0  0  0  0  0
  -31.1070  -17.9700   18.1890 C   0  0  0  0  0  2  0  0  0  0  0  0
  -30.6750  -18.0540   19.6740 C   0  0  0  0  0  3  0  0  0  0  0  0
  -30.1000  -18.5850   17.3010 N   0  0  0  0  0  4  0  0  0  0  0  0
  -30.3570  -18.4260   16.3400 H   0  0  0  0  0  0  0  0  0  0  0  0
  -29.2020  -18.1590   17.4520 H   0  0  0  0  0  0  0  0  0  0  0  0
  -30.8700  -22.2130   23.6540 C   0  0  0  0  0  1  0  0  0  0  0  0
  -29.5690  -21.5760   23.1530 C   0  0  0  0  0  2  0  0  0  0  0  0
  -29.6750  -16.9310   20.1020 C   0  0  0  0  0  2  0  0  0  0  0  0
  -30.9140  -14.7500   20.0860 C   0  0  0  0  0  0  0  0  0  0  0  0
  -30.5850  -12.5860   18.9400 C   0  0  0  0  0  2  0  0  0  0  0  0
  -29.5740  -12.7580   17.7880 C   0  0  0  0  0  2  0  0  0  0  0  0
  -28.1290  -12.5980   18.2980 C   0  0  0  0  0  2  0  0  0  0  0  0
  -27.8450  -13.4420   19.5690 C   0  0  0  0  0  3  0  0  0  0  0  0
  -28.9580  -13.2420   20.6200 C   0  0  0  0  0  2  0  0  0  0  0  0
  -30.2480  -13.5660   19.9860 N   0  0  0  0  0  0  0  0  0  0  0  0
  -31.9640  -14.9800   19.4810 O   0  0  0  0  0  0  0  0  0  0  0  0
  -30.4820  -15.8670   22.1960 C   0  0  0  0  0  1  0  0  0  0  0  0
  -30.2690  -15.7360   20.7530 N   0  0  0  0  0  0  0  0  0  0  0  0
  -25.4990  -14.0310   20.4490 C   0  0  0  0  0  0  0  0  0  0  0  0
  -24.4510  -13.2480   20.8530 C   0  0  0  0  0  0  0  0  0  0  0  0
  -24.9020  -11.8970   20.7430 C   0  0  0  0  0  0  0  0  0  0  0  0
  -26.5230  -13.1550   20.1190 N   0  0  0  0  0  0  0  0  0  0  0  0
  -26.1700  -11.8660   20.3520 N   0  0  0  0  0  0  0  0  0  0  0  0
  -24.1840  -10.6300   20.9300 C   0  0  0  0  0  0  0  0  0  0  0  0
  -24.5970   -9.6820   21.8910 C   0  0  0  0  0  3  0  0  0  0  0  0
  -23.8790   -8.4800   22.0660 C   0  0  0  0  0  3  0  0  0  0  0  0
  -22.7330   -8.2170   21.2770 C   0  0  0  0  0  0  0  0  0  0  0  0
  -22.3390   -9.1550   20.3060 C   0  0  0  0  0  3  0  0  0  0  0  0
  -23.0580  -10.3480   20.1300 C   0  0  0  0  0  3  0  0  0  0  0  0
  -21.9890   -7.0640   21.3580 O   0  0  0  0  0  0  0  0  0  0  0  0
  -21.8200   -6.4000   22.5450 C   0  0  0  0  0  0  0  0  0  0  0  0
  -21.2130   -7.0120   23.6630 C   0  0  0  0  0  3  0  0  0  0  0  0
  -20.9960   -6.2700   24.8410 C   0  0  0  0  0  3  0  0  0  0  0  0
  -21.3750   -4.9160   24.9020 C   0  0  0  0  0  0  0  0  0  0  0  0
  -21.9750   -4.3030   23.7880 C   0  0  0  0  0  3  0  0  0  0  0  0
  -22.1940   -5.0410   22.6120 C   0  0  0  0  0  0  0  0  0  0  0  0
  -22.7530   -4.4400   21.5340 F   0  0  0  0  0  0  0  0  0  0  0  0
  -21.1610   -4.2000   26.0300 F   0  0  0  0  0  0  0  0  0  0  0  0
  -23.0760  -13.7180   21.2330 C   0  0  0  0  0  0  0  0  0  0  0  0
  -22.4040  -12.9950   22.1220 N   0  0  0  0  0  0  0  0  0  0  0  0
  -22.6080  -14.7600   20.7760 O   0  0  0  0  0  0  0  0  0  0  0  0
  -22.7980  -12.1520   22.5130 H   0  0  0  0  0  0  0  0  0  0  0  0
  -21.4840  -13.2900   22.4170 H   0  0  0  0  0  0  0  0  0  0  0  0
  -25.6600  -15.4070   20.3140 N   0  0  0  0  0  0  0  0  0  0  0  0
  -24.9110  -16.0630   20.5070 H   0  0  0  0  0  0  0  0  0  0  0  0
  -26.5030  -15.8560   19.9820 H   0  0  0  0  0  0  0  0  0  0  0  0
  -29.0040  -23.4120   21.0780 O   0  0  0  0  0  0  0  0  0  0  0  0
  -29.0030  -24.4980   20.1450 C   0  0  0  0  0  2  0  0  0  0  0  0
  -28.7010  -25.7940   20.9330 C   0  0  0  0  0  2  0  0  0  0  0  0
  -28.7320  -26.9920   20.1380 O   0  0  0  0  0  0  0  0  0  0  0  0
  -24.6920  -31.9140   23.3370 C   0  0  0  0  0  0  0  0  0  0  0  0
  -27.5520  -27.7000   20.1420 C   0  0  0  0  0  0  0  0  0  0  0  0
  -23.5690  -30.5350   21.6190 C   0  0  0  0  0  3  0  0  0  0  0  0
  -25.1040  -29.1080   20.1640 C   0  0  0  0  0  0  0  0  0  0  0  0
  -26.0820  -30.9960   21.4830 C   0  0  0  0  0  2  0  0  0  0  0  0
  -26.2310  -29.6560   20.7920 C   0  0  0  0  0  0  0  0  0  0  0  0
  -27.4620  -28.9600   20.7750 C   0  0  0  0  0  3  0  0  0  0  0  0
  -26.4110  -27.1620   19.5120 C   0  0  0  0  0  3  0  0  0  0  0  0
  -25.1880  -27.8590   19.5220 C   0  0  0  0  0  3  0  0  0  0  0  0
  -23.8280  -29.9170   20.2190 C   0  0  0  0  0  2  0  0  0  0  0  0
  -24.7970  -31.1610   22.2050 N   0  0  0  0  0  0  0  0  0  0  0  0
  -23.5910  -32.1250   23.8650 O   0  0  0  0  0  0  0  0  0  0  0  0
  -22.9380  -29.4540   22.5250 C   0  0  0  0  0  0  0  0  0  0  0  0
  -21.6290  -29.2130   22.3460 N   0  0  0  0  0  0  0  0  0  0  0  0
  -23.6230  -28.8380   23.3450 O   0  0  0  0  0  0  0  0  0  0  0  0
  -21.1380  -29.7670   21.6580 H   0  0  0  0  0  0  0  0  0  0  0  0
  -18.3070  -27.8260   22.6650 C   0  0  0  0  0  0  0  0  0  0  0  0
  -20.8320  -28.2140   23.0570 C   0  0  0  0  0  3  0  0  0  0  0  0
  -21.0370  -26.8060   22.4530 C   0  0  0  0  0  2  0  0  0  0  0  0
  -20.0000  -26.4490   21.3840 C   0  0  0  0  0  2  0  0  0  0  0  0
  -18.5860  -26.5050   21.9690 C   0  0  0  0  0  2  0  0  0  0  0  0
  -19.3630  -28.6360   23.1620 C   0  0  0  0  0  0  0  0  0  0  0  0
  -19.0500  -29.8710   23.7700 C   0  0  0  0  0  3  0  0  0  0  0  0
  -17.7140  -30.2990   23.8860 C   0  0  0  0  0  3  0  0  0  0  0  0
  -16.6720  -29.4850   23.4080 C   0  0  0  0  0  3  0  0  0  0  0  0
  -16.9690  -28.2510   22.8040 C   0  0  0  0  0  3  0  0  0  0  0  0
  -25.9420  -32.5640   24.0080 C   0  0  0  0  0  3  0  0  0  0  0  0
  -25.5880  -33.9450   24.3610 N   0  0  0  0  0  0  0  0  0  0  0  0
  -25.9190  -35.0220   23.6350 C   0  0  0  0  0  0  0  0  0  0  0  0
  -26.6260  -34.9600   22.6250 O   0  0  0  0  0  0  0  0  0  0  0  0
  -24.9660  -34.0660   25.1450 H   0  0  0  0  0  0  0  0  0  0  0  0
  -24.1610  -36.7780   23.2590 C   0  0  0  0  0  1  0  0  0  0  0  0
  -25.3810  -36.3860   24.1070 C   0  0  0  0  0  3  0  0  0  0  0  0
  -27.4580  -37.3050   25.0410 C   0  0  0  0  0  1  0  0  0  0  0  0
  -26.3920  -37.4650   24.0550 N   0  0  0  0  0  0  0  0  0  0  0  0
  -25.9580  -38.3730   24.2030 H   0  0  0  0  0  0  0  0  0  0  0  0
  -26.4480  -31.7760   25.2780 C   0  0  1  0  0  0  0  0  0  0  0  0
  -25.3300  -31.4540   26.2970 C   0  0  0  0  0  1  0  0  0  0  0  0
  -27.1070  -30.4390   24.8620 C   0  0  0  0  0  1  0  0  0  0  0  0
  -27.5400  -32.5980   26.0040 C   0  0  0  0  0  1  0  0  0  0  0  0
  1  5  1  0
  2  6  1  0
  3  1  2  0
  4  2  2  0
  4  3  1  0
  5 14  1  0
  6 54  1  0
  6  5  2  0
  7  4  1  0
  8  9  1  0
  9  3  1  0
  9 15  1  0
 10 12  1  0
 10  7  1  0
 10  8  1  0
 11 10  1  0
 14 13  1  0
 15 25  1  0
 16 25  1  0
 17 22  1  0
 18 19  1  0
 18 17  1  0
 20 19  1  0
 20 29  1  0
 20 21  1  0
 22 16  1  0
 22 21  1  0
 23 16  2  0
 25 24  1  0
 26 27  2  0
 27 46  1  0
 28 27  1  0
 28 31  1  0
 29 30  1  0
 29 26  1  0
 30 28  2  0
 31 32  1  0
 32 33  2  0
 34 37  1  0
 34 33  1  0
 35 34  2  0
 36 35  1  0
 36 31  2  0
 37 38  1  0
 38 43  2  0
 38 39  1  0
 39 40  2  0
 40 41  1  0
 41 45  1  0
 42 41  2  0
 43 42  1  0
 44 43  1  0
 46 47  1  0
 47 50  1  0
 47 49  1  0
 48 46  2  0
 51 26  1  0
 51 52  1  0
 53 51  1  0
 55 56  1  0
 55 54  1  0
 57 59  1  0
 57 56  1  0
 58 69  2  0
 59 64  1  0
 60 68  1  0
 60 70  1  0
 61 67  1  0
 61 63  1  0
 62 68  1  0
 63 62  1  0
 64 63  2  0
 65 66  1  0
 65 59  2  0
 66 61  2  0
 67 60  1  0
 68 58  1  0
 70 72  2  0
 71 70  1  0
 73 71  1  0
 74 83  2  0
 74 79  1  0
 75 71  1  0
 75 79  1  0
 76 75  1  0
 77 78  1  0
 77 76  1  0
 78 74  1  0
 79 80  2  0
 80 81  1  0
 82 81  2  0
 83 82  1  0
 84 58  1  0
 84 85  1  0
 84 94  1  0
 85 88  1  0
 86 90  1  0
 86 85  1  0
 87 86  2  0
 90 89  1  0
 92 90  1  0
 92 93  1  0
 92 91  1  0
 94 97  1  1
 94 95  1  0
 96 94  1  0
M  ISO  4  16 100  25 100  56 101  57 101
M  END
>  <TORSDO>  (47) 
F 21

>  <SCORE>  (47) 
-12.995

>  <name>  (47) 
46

>  <ligand_id>  (47) 
46

>  <original_smiles>  (47) 
[H]c1c([H])c([H])c2c(c1[H])C([H])([H])C([H])([H])C([H])([H])C2([H])N([H])C(=O)C1([H])N(C(=O)C([H])(N([H])C(=O)C([H])(N([H])C([H])([H])[H])C([H])([H])[H])C(C([H])([H])[H])(C([H])([H])[H])C([H])([H])[H])C([H])([H])c2c([H])c(OC([H])([H])C([H])([H])Oc3c([H])c4c(c([H])c3C([H])([H])C([H])([H])[H])C([H])(C([H])([H])N(C(=O)N3C([H])([H])C([H])([H])C([H])([H])C([H])(n5nc(-c6c([H])c([H])c(Oc7c([H])c([H])c(F)c([H])c7F)c([H])c6[H])c(C(=O)N([H])[H])c5N([H])[H])C3([H])[H])C([H])([H])[H])C([H])([H])[N+]([H])([H])C4([H])[H])c([H])c([H])c2C1([H])[H]

>  <smiles>  (47) 
[H]c1c([H])c([H])c2c(c1[H])C([H])([H])C([H])([H])C([H])([H])C2([H])N([H])C(=O)C1([H])N(C(=O)C([H])(N([H])C(=O)C([H])(N([H])C([H])([H])[H])C([H])([H])[H])C(C([H])([H])[H])(C([H])([H])[H])C([H])([H])[H])C([H])([H])c2c([H])c(OC([H])([H])C([H])([H])Oc3c([H])c4c(c([H])c3C([H])([H])C([H])([H])[H])C([H])(C([H])([H])N(C(=O)N3C([H])([H])C([H])([H])C([H])([H])C([H])(n5nc(-c6c([H])c([H])c(Oc7c([H])c([H])c(F)c([H])c7F)c([H])c6[H])c(C(=O)N([H])[H])c5N([H])[H])C3([H])[H])C([H])([H])[H])C([H])([H])[N+]([H])([H])C4([H])[H])c([H])c([H])c2C1([H])[H]

$$$$
47:0:0
     RDKit          3D

 97106  0  0  1  0  0  0  0  0999 V2000
  -31.3700  -16.7940   18.4040 C   0  0  0  0  0  3  0  0  0  0  0  0
  -31.9190  -17.8230   17.5990 C   0  0  0  0  0  3  0  0  0  0  0  0
  -30.5100  -19.4050   18.7330 C   0  0  0  0  0  0  0  0  0  0  0  0
  -29.9830  -18.4050   19.5520 C   0  0  0  0  0  0  0  0  0  0  0  0
  -30.4270  -17.0330   19.4540 C   0  0  0  0  0  0  0  0  0  0  0  0
  -31.5110  -19.1570   17.7780 C   0  0  0  0  0  0  0  0  0  0  0  0
  -29.8780  -20.7240   19.0090 C   0  0  0  0  0  0  0  0  0  0  0  0
  -28.9700  -19.1280   20.4460 C   0  0  0  0  0  2  0  0  0  0  0  0
  -29.0690  -20.5850   20.0770 N   0  0  0  0  0  0  0  0  0  0  0  0
  -30.0770  -21.7390   18.3340 O   0  0  0  0  0  0  0  0  0  0  0  0
  -30.6890  -14.7490   20.4970 C   0  0  0  0  0  0  0  0  0  0  0  0
  -30.4520  -12.4660   19.6450 C   0  0  0  0  0  2  0  0  0  0  0  0
  -29.5800  -12.5420   18.3800 C   0  0  0  0  0  2  0  0  0  0  0  0
  -28.0920  -12.3980   18.7490 C   0  0  0  0  0  2  0  0  0  0  0  0
  -27.6700  -13.3570   19.9020 C   0  0  0  0  0  3  0  0  0  0  0  0
  -28.6770  -13.3120   21.0740 C   0  0  0  0  0  2  0  0  0  0  0  0
  -30.0130  -13.5670   20.5220 N   0  0  0  0  0  0  0  0  0  0  0  0
  -31.9190  -14.7660   20.4030 O   0  0  0  0  0  0  0  0  0  0  0  0
  -29.9760  -15.9030   20.2760 N   0  0  0  0  0  0  0  0  0  0  0  0
  -29.0010  -15.8880   20.5490 H   0  0  0  0  0  0  0  0  0  0  0  0
  -25.2560  -13.9870   20.5180 C   0  0  0  0  0  0  0  0  0  0  0  0
  -24.1690  -13.2300   20.8620 C   0  0  0  0  0  0  0  0  0  0  0  0
  -24.6200  -11.8770   20.8800 C   0  0  0  0  0  0  0  0  0  0  0  0
  -26.3030  -13.0950   20.3450 N   0  0  0  0  0  0  0  0  0  0  0  0
  -25.9220  -11.8230   20.6260 N   0  0  0  0  0  0  0  0  0  0  0  0
  -23.8690  -10.6270   21.0580 C   0  0  0  0  0  0  0  0  0  0  0  0
  -24.2700   -9.6550   22.0000 C   0  0  0  0  0  3  0  0  0  0  0  0
  -23.5210   -8.4700   22.1720 C   0  0  0  0  0  3  0  0  0  0  0  0
  -22.3570   -8.2470   21.3970 C   0  0  0  0  0  0  0  0  0  0  0  0
  -21.9740   -9.2070   20.4450 C   0  0  0  0  0  3  0  0  0  0  0  0
  -22.7250  -10.3820   20.2730 C   0  0  0  0  0  3  0  0  0  0  0  0
  -21.5840   -7.1130   21.4820 O   0  0  0  0  0  0  0  0  0  0  0  0
  -21.5280   -6.3630   22.6270 C   0  0  0  0  0  0  0  0  0  0  0  0
  -21.1420   -6.9180   23.8660 C   0  0  0  0  0  3  0  0  0  0  0  0
  -21.0280   -6.0930   25.0030 C   0  0  0  0  0  3  0  0  0  0  0  0
  -21.2960   -4.7150   24.9040 C   0  0  0  0  0  0  0  0  0  0  0  0
  -21.6790   -4.1590   23.6710 C   0  0  0  0  0  3  0  0  0  0  0  0
  -21.7910   -4.9810   22.5350 C   0  0  0  0  0  0  0  0  0  0  0  0
  -22.1380   -4.4350   21.3430 F   0  0  0  0  0  0  0  0  0  0  0  0
  -21.1780   -3.9200   25.9930 F   0  0  0  0  0  0  0  0  0  0  0  0
  -22.7650  -13.7240   21.0690 C   0  0  0  0  0  0  0  0  0  0  0  0
  -21.9970  -13.0560   21.9280 N   0  0  0  0  0  0  0  0  0  0  0  0
  -22.3580  -14.7360   20.5050 O   0  0  0  0  0  0  0  0  0  0  0  0
  -22.3400  -12.2360   22.4080 H   0  0  0  0  0  0  0  0  0  0  0  0
  -21.0520  -13.3680   22.1020 H   0  0  0  0  0  0  0  0  0  0  0  0
  -25.4460  -15.3490   20.3180 N   0  0  0  0  0  0  0  0  0  0  0  0
  -24.6930  -16.0270   20.3630 H   0  0  0  0  0  0  0  0  0  0  0  0
  -26.3200  -15.7540   20.0120 H   0  0  0  0  0  0  0  0  0  0  0  0
  -28.7120  -21.7000   22.2730 C   0  0  0  0  0  1  0  0  0  0  0  0
  -28.3020  -21.6600   20.7900 C   0  0  0  0  0  3  0  0  0  0  0  0
  -28.1950  -23.1370   20.1680 C   0  0  0  0  0  2  0  0  0  0  0  0
  -30.4770  -24.3900   20.0110 C   0  0  0  0  0  1  0  0  0  0  0  0
  -29.1150  -24.3150   20.7010 C   0  0  0  0  0  3  0  0  0  0  0  0
  -28.4480  -25.7360   20.9000 C   0  0  0  0  0  2  0  0  0  0  0  0
  -28.4850  -26.7500   19.8620 O   0  0  0  0  0  0  0  0  0  0  0  0
  -24.7170  -31.9270   23.1170 C   0  0  0  0  0  0  0  0  0  0  0  0
  -27.3620  -27.5590   19.8770 C   0  0  0  0  0  0  0  0  0  0  0  0
  -23.5060  -30.5360   21.4730 C   0  0  0  0  0  3  0  0  0  0  0  0
  -24.9530  -29.0520   19.9810 C   0  0  0  0  0  0  0  0  0  0  0  0
  -26.0240  -30.9310   21.2270 C   0  0  0  0  0  2  0  0  0  0  0  0
  -26.1220  -29.5740   20.5530 C   0  0  0  0  0  0  0  0  0  0  0  0
  -27.3320  -28.8340   20.4960 C   0  0  0  0  0  3  0  0  0  0  0  0
  -26.1790  -27.0650   19.2920 C   0  0  0  0  0  3  0  0  0  0  0  0
  -24.9780  -27.7960   19.3510 C   0  0  0  0  0  3  0  0  0  0  0  0
  -23.6960  -29.8940   20.0750 C   0  0  0  0  0  2  0  0  0  0  0  0
  -24.7700  -31.1460   21.9990 N   0  0  0  0  0  0  0  0  0  0  0  0
  -23.6420  -32.1720   23.6790 O   0  0  0  0  0  0  0  0  0  0  0  0
  -22.8900  -29.4870   22.4280 C   0  0  0  0  0  0  0  0  0  0  0  0
  -21.5640  -29.2910   22.3310 N   0  0  0  0  0  0  0  0  0  0  0  0
  -23.5970  -28.8490   23.2170 O   0  0  0  0  0  0  0  0  0  0  0  0
  -21.0530  -29.8540   21.6670 H   0  0  0  0  0  0  0  0  0  0  0  0
  -18.2130  -28.0480   22.8850 C   0  0  0  0  0  0  0  0  0  0  0  0
  -20.7760  -28.3290   23.1060 C   0  0  0  0  0  3  0  0  0  0  0  0
  -20.8700  -26.9100   22.5070 C   0  0  0  0  0  2  0  0  0  0  0  0
  -19.7640  -26.6020   21.4940 C   0  0  0  0  0  2  0  0  0  0  0  0
  -18.3860  -26.7230   22.1580 C   0  0  0  0  0  2  0  0  0  0  0  0
  -19.3330  -28.8110   23.3110 C   0  0  0  0  0  0  0  0  0  0  0  0
  -19.1190  -30.0540   23.9450 C   0  0  0  0  0  3  0  0  0  0  0  0
  -17.8130  -30.5340   24.1530 C   0  0  0  0  0  3  0  0  0  0  0  0
  -16.7060  -29.7700   23.7420 C   0  0  0  0  0  3  0  0  0  0  0  0
  -16.9080  -28.5260   23.1160 C   0  0  0  0  0  3  0  0  0  0  0  0
  -26.0010  -32.5670   23.7290 C   0  0  0  0  0  3  0  0  0  0  0  0
  -25.6660  -33.9460   24.1120 N   0  0  0  0  0  0  0  0  0  0  0  0
  -25.9550  -35.0290   23.3800 C   0  0  0  0  0  0  0  0  0  0  0  0
  -26.6020  -34.9760   22.3310 O   0  0  0  0  0  0  0  0  0  0  0  0
  -25.0820  -34.0610   24.9260 H   0  0  0  0  0  0  0  0  0  0  0  0
  -24.1800  -36.7940   23.1260 C   0  0  0  0  0  1  0  0  0  0  0  0
  -25.4490  -36.3910   23.8940 C   0  0  0  0  0  3  0  0  0  0  0  0
  -27.5860  -37.2950   24.6970 C   0  0  0  0  0  1  0  0  0  0  0  0
  -26.4530  -37.4700   23.7900 N   0  0  0  0  0  0  0  0  0  0  0  0
  -26.0330  -38.3760   23.9800 H   0  0  0  0  0  0  0  0  0  0  0  0
  -26.5720  -31.7660   24.9630 C   0  0  1  0  0  0  0  0  0  0  0  0
  -25.5220  -31.4670   26.0590 C   0  0  0  0  0  1  0  0  0  0  0  0
  -27.1710  -30.4180   24.4970 C   0  0  0  0  0  1  0  0  0  0  0  0
  -27.7270  -32.5660   25.6160 C   0  0  0  0  0  1  0  0  0  0  0  0
  -31.9930  -20.1230   15.6810 C   0  0  0  0  0  1  0  0  0  0  0  0
  -32.0970  -20.1970   17.0940 O   0  0  0  0  0  0  0  0  0  0  0  0
  1  5  1  0
  2  6  1  0
  2  1  2  0
  3  7  1  0
  3  4  1  0
  4  8  1  0
  5  4  2  0
  5 19  1  0
  6  3  2  0
  7  9  1  0
  9  8  1  0
  9 50  1  0
 10  7  2  0
 11 17  1  0
 12 17  1  0
 13 14  1  0
 13 12  1  0
 15 14  1  0
 15 24  1  0
 15 16  1  0
 17 16  1  0
 18 11  2  0
 19 11  1  0
 19 20  1  0
 21 22  2  0
 22 23  1  0
 22 41  1  0
 23 26  1  0
 24 21  1  0
 24 25  1  0
 25 23  2  0
 26 27  1  0
 27 28  2  0
 29 32  1  0
 29 28  1  0
 30 29  2  0
 31 30  1  0
 31 26  2  0
 32 33  1  0
 33 34  1  0
 34 35  2  0
 36 35  1  0
 36 40  1  0
 37 36  2  0
 38 33  2  0
 38 37  1  0
 39 38  1  0
 41 42  1  0
 42 45  1  0
 42 44  1  0
 43 41  2  0
 46 47  1  0
 46 21  1  0
 48 46  1  0
 50 49  1  0
 51 53  1  0
 51 50  1  0
 53 52  1  0
 53 54  1  0
 55 57  1  0
 55 54  1  0
 56 67  2  0
 57 62  1  0
 58 66  1  0
 58 68  1  0
 59 65  1  0
 59 61  1  0
 60 66  1  0
 61 60  1  0
 62 61  2  0
 63 64  1  0
 63 57  2  0
 64 59  2  0
 65 58  1  0
 66 56  1  0
 68 70  2  0
 69 68  1  0
 71 69  1  0
 72 81  2  0
 72 77  1  0
 73 69  1  0
 73 77  1  0
 74 73  1  0
 75 76  1  0
 75 74  1  0
 76 72  1  0
 77 78  2  0
 78 79  1  0
 80 79  2  0
 81 80  1  0
 82 56  1  0
 82 83  1  0
 82 92  1  0
 83 86  1  0
 84 88  1  0
 84 83  1  0
 85 84  2  0
 88 87  1  0
 90 88  1  0
 90 91  1  0
 90 89  1  0
 92 95  1  1
 92 93  1  0
 94 92  1  0
 96 97  1  0
 97  6  1  0
M  ISO  4  11 100  19 100  54 101  55 101
M  END
>  <TORSDO>  (48) 
F 21

>  <SCORE>  (48) 
-13.380

>  <name>  (48) 
47

>  <ligand_id>  (48) 
47

>  <original_smiles>  (48) 
[H]c1c([H])c([H])c2c(c1[H])C([H])([H])C([H])([H])C([H])([H])C2([H])N([H])C(=O)C1([H])N(C(=O)C([H])(N([H])C(=O)C([H])(N([H])C([H])([H])[H])C([H])([H])[H])C(C([H])([H])[H])(C([H])([H])[H])C([H])([H])[H])C([H])([H])c2c([H])c(OC([H])([H])C([H])(C([H])([H])[H])C([H])([H])C([H])(N3C(=O)c4c(OC([H])([H])[H])c([H])c([H])c(N([H])C(=O)N5C([H])([H])C([H])([H])C([H])([H])C([H])(n6nc(-c7c([H])c([H])c(Oc8c([H])c([H])c(F)c([H])c8F)c([H])c7[H])c(C(=O)N([H])[H])c6N([H])[H])C5([H])[H])c4C3([H])[H])C([H])([H])[H])c([H])c([H])c2C1([H])[H]

>  <smiles>  (48) 
[H]c1c([H])c([H])c2c(c1[H])C([H])([H])C([H])([H])C([H])([H])C2([H])N([H])C(=O)C1([H])N(C(=O)C([H])(N([H])C(=O)C([H])(N([H])C([H])([H])[H])C([H])([H])[H])C(C([H])([H])[H])(C([H])([H])[H])C([H])([H])[H])C([H])([H])c2c([H])c(OC([H])([H])C([H])(C([H])([H])[H])C([H])([H])C([H])(N3C(=O)c4c(OC([H])([H])[H])c([H])c([H])c(N([H])C(=O)N5C([H])([H])C([H])([H])C([H])([H])C([H])(n6nc(-c7c([H])c([H])c(Oc8c([H])c([H])c(F)c([H])c8F)c([H])c7[H])c(C(=O)N([H])[H])c6N([H])[H])C5([H])[H])c4C3([H])[H])C([H])([H])[H])c([H])c([H])c2C1([H])[H]

$$$$
48:0:0
     RDKit          3D

 97106  0  0  1  0  0  0  0  0999 V2000
  -28.5180  -23.0870   19.0290 C   0  0  0  0  0  0  0  0  0  0  0  0
  -28.7840  -23.2430   21.4570 C   0  0  0  0  0  0  0  0  0  0  0  0
  -28.6750  -22.4260   20.2880 C   0  0  0  0  0  0  0  0  0  0  0  0
  -28.4850  -24.5100   18.9500 C   0  0  0  0  0  0  0  0  0  0  0  0
  -28.7140  -24.6670   21.3680 C   0  0  0  0  0  0  0  0  0  0  0  0
  -28.5580  -25.3110   20.1150 C   0  0  0  0  0  0  0  0  0  0  0  0
  -28.3950  -22.3060   17.7170 C   0  0  0  0  0  1  0  0  0  0  0  0
  -28.9640  -22.6030   22.8340 C   0  0  0  0  0  1  0  0  0  0  0  0
  -28.3710  -25.1970   17.5900 C   0  0  0  0  0  1  0  0  0  0  0  0
  -28.8370  -25.5220   22.6260 C   0  0  0  0  0  1  0  0  0  0  0  0
  -28.5670  -26.7010   20.0160 O   0  0  0  0  0  0  0  0  0  0  0  0
  -24.7220  -31.8120   23.2170 C   0  0  0  0  0  0  0  0  0  0  0  0
  -27.3890  -27.4310   20.0400 C   0  0  0  0  0  0  0  0  0  0  0  0
  -23.5290  -30.4480   21.5350 C   0  0  0  0  0  3  0  0  0  0  0  0
  -24.9930  -28.9460   20.0780 C   0  0  0  0  0  0  0  0  0  0  0  0
  -26.0560  -30.8110   21.3610 C   0  0  0  0  0  2  0  0  0  0  0  0
  -26.1470  -29.4540   20.6870 C   0  0  0  0  0  0  0  0  0  0  0  0
  -27.3460  -28.7020   20.6660 C   0  0  0  0  0  3  0  0  0  0  0  0
  -26.2170  -26.9450   19.4220 C   0  0  0  0  0  3  0  0  0  0  0  0
  -25.0240  -27.6920   19.4420 C   0  0  0  0  0  3  0  0  0  0  0  0
  -23.7480  -29.8040   20.1400 C   0  0  0  0  0  2  0  0  0  0  0  0
  -24.7880  -31.0370   22.0970 N   0  0  0  0  0  0  0  0  0  0  0  0
  -23.6380  -32.0670   23.7590 O   0  0  0  0  0  0  0  0  0  0  0  0
  -22.8730  -29.4020   22.4660 C   0  0  0  0  0  0  0  0  0  0  0  0
  -21.5540  -29.2060   22.3140 N   0  0  0  0  0  0  0  0  0  0  0  0
  -23.5510  -28.7710   23.2830 O   0  0  0  0  0  0  0  0  0  0  0  0
  -21.0690  -29.7700   21.6290 H   0  0  0  0  0  0  0  0  0  0  0  0
  -18.1900  -27.9530   22.7230 C   0  0  0  0  0  0  0  0  0  0  0  0
  -20.7370  -28.2430   23.0510 C   0  0  0  0  0  3  0  0  0  0  0  0
  -20.8740  -26.8250   22.4510 C   0  0  0  0  0  2  0  0  0  0  0  0
  -19.7970  -26.5040   21.4110 C   0  0  0  0  0  2  0  0  0  0  0  0
  -18.4000  -26.6190   22.0290 C   0  0  0  0  0  2  0  0  0  0  0  0
  -19.2880  -28.7230   23.1900 C   0  0  0  0  0  0  0  0  0  0  0  0
  -19.0400  -29.9720   23.7980 C   0  0  0  0  0  3  0  0  0  0  0  0
  -17.7260  -30.4540   23.9450 C   0  0  0  0  0  3  0  0  0  0  0  0
  -16.6410  -29.6810   23.4960 C   0  0  0  0  0  3  0  0  0  0  0  0
  -16.8730  -28.4320   22.8910 C   0  0  0  0  0  3  0  0  0  0  0  0
  -26.0020  -32.4300   23.8620 C   0  0  0  0  0  3  0  0  0  0  0  0
  -25.6890  -33.8200   24.2230 N   0  0  0  0  0  0  0  0  0  0  0  0
  -25.9880  -34.8870   23.4700 C   0  0  0  0  0  0  0  0  0  0  0  0
  -26.6300  -34.8050   22.4190 O   0  0  0  0  0  0  0  0  0  0  0  0
  -25.1120  -33.9570   25.0400 H   0  0  0  0  0  0  0  0  0  0  0  0
  -24.2130  -36.6490   23.2160 C   0  0  0  0  0  1  0  0  0  0  0  0
  -25.4990  -36.2640   23.9610 C   0  0  0  0  0  3  0  0  0  0  0  0
  -27.6540  -37.1840   24.6970 C   0  0  0  0  0  1  0  0  0  0  0  0
  -26.5070  -37.3360   23.8060 N   0  0  0  0  0  0  0  0  0  0  0  0
  -26.0920  -38.2470   23.9780 H   0  0  0  0  0  0  0  0  0  0  0  0
  -26.5120  -31.6280   25.1210 C   0  0  1  0  0  0  0  0  0  0  0  0
  -25.4130  -31.3620   26.1760 C   0  0  0  0  0  1  0  0  0  0  0  0
  -27.0970  -30.2620   24.6960 C   0  0  0  0  0  1  0  0  0  0  0  0
  -27.6580  -32.4060   25.8100 C   0  0  0  0  0  1  0  0  0  0  0  0
  -28.6960  -20.8650   20.3990 C   0  0  0  0  0  2  0  0  0  0  0  0
  -31.0010  -20.7400   19.2010 C   0  0  0  0  0  1  0  0  0  0  0  0
  -30.1070  -20.1720   20.3220 C   0  0  0  0  0  3  0  0  0  0  0  0
  -30.9130  -14.5860   20.0880 C   0  0  0  0  0  0  0  0  0  0  0  0
  -30.5890  -12.3860   19.0200 C   0  0  0  0  0  2  0  0  0  0  0  0
  -29.5950  -12.5450   17.8520 C   0  0  0  0  0  2  0  0  0  0  0  0
  -28.1420  -12.4070   18.3480 C   0  0  0  0  0  2  0  0  0  0  0  0
  -27.8500  -13.2580   19.6150 C   0  0  0  0  0  3  0  0  0  0  0  0
  -28.9600  -13.0950   20.6750 C   0  0  0  0  0  2  0  0  0  0  0  0
  -30.2410  -13.4020   20.0250 N   0  0  0  0  0  0  0  0  0  0  0  0
  -32.0750  -14.6990   19.6870 O   0  0  0  0  0  0  0  0  0  0  0  0
  -29.9350  -16.5170   19.0120 C   0  0  0  0  0  2  0  0  0  0  0  0
  -30.2970  -16.4660   21.5250 C   0  0  0  0  0  2  0  0  0  0  0  0
  -29.4500  -17.9840   19.1720 C   0  0  0  0  0  2  0  0  0  0  0  0
  -29.8110  -17.9490   21.5500 C   0  0  0  0  0  2  0  0  0  0  0  0
  -30.1570  -15.7150   20.2500 N   0  0  0  0  0  0  0  0  0  0  0  0
  -30.1350  -18.6600   20.2930 N   0  0  2  0  0  4  0  0  0  0  0  0
  -31.1140  -18.4620   20.1540 H   0  0  0  0  0  0  0  0  0  0  0  0
  -25.5070  -13.8560   20.4820 C   0  0  0  0  0  0  0  0  0  0  0  0
  -24.4530  -13.0810   20.8780 C   0  0  0  0  0  0  0  0  0  0  0  0
  -24.8970  -11.7270   20.7740 C   0  0  0  0  0  0  0  0  0  0  0  0
  -26.5270  -12.9740   20.1630 N   0  0  0  0  0  0  0  0  0  0  0  0
  -26.1690  -11.6860   20.3980 N   0  0  0  0  0  0  0  0  0  0  0  0
  -24.1690  -10.4640   20.9560 C   0  0  0  0  0  0  0  0  0  0  0  0
  -24.5870   -9.5000   21.9000 C   0  0  0  0  0  3  0  0  0  0  0  0
  -23.8610   -8.3030   22.0700 C   0  0  0  0  0  3  0  0  0  0  0  0
  -22.7020   -8.0590   21.2950 C   0  0  0  0  0  0  0  0  0  0  0  0
  -22.3010   -9.0120   20.3430 C   0  0  0  0  0  3  0  0  0  0  0  0
  -23.0290  -10.2020   20.1710 C   0  0  0  0  0  3  0  0  0  0  0  0
  -21.9480   -6.9140   21.3740 O   0  0  0  0  0  0  0  0  0  0  0  0
  -21.7950   -6.2320   22.5530 C   0  0  0  0  0  0  0  0  0  0  0  0
  -21.2400   -6.8420   23.7000 C   0  0  0  0  0  3  0  0  0  0  0  0
  -21.0370   -6.0860   24.8700 C   0  0  0  0  0  3  0  0  0  0  0  0
  -21.3760   -4.7210   24.8970 C   0  0  0  0  0  0  0  0  0  0  0  0
  -21.9220   -4.1090   23.7550 C   0  0  0  0  0  3  0  0  0  0  0  0
  -22.1280   -4.8620   22.5850 C   0  0  0  0  0  0  0  0  0  0  0  0
  -22.6360   -4.2630   21.4810 F   0  0  0  0  0  0  0  0  0  0  0  0
  -21.1730   -3.9910   26.0190 F   0  0  0  0  0  0  0  0  0  0  0  0
  -23.0760  -13.5590   21.2410 C   0  0  0  0  0  0  0  0  0  0  0  0
  -22.3950  -12.8470   22.1310 N   0  0  0  0  0  0  0  0  0  0  0  0
  -22.6180  -14.5990   20.7730 O   0  0  0  0  0  0  0  0  0  0  0  0
  -22.7820  -12.0050   22.5310 H   0  0  0  0  0  0  0  0  0  0  0  0
  -21.4750  -13.1480   22.4170 H   0  0  0  0  0  0  0  0  0  0  0  0
  -25.6820  -15.2320   20.3450 N   0  0  0  0  0  0  0  0  0  0  0  0
  -24.9340  -15.8930   20.5210 H   0  0  0  0  0  0  0  0  0  0  0  0
  -26.5250  -15.6670   19.9970 H   0  0  0  0  0  0  0  0  0  0  0  0
  1  3  1  0
  2  8  1  0
  3 52  1  0
  3  2  2  0
  4  1  2  0
  4  6  1  0
  5  2  1  0
  5 10  1  0
  6  5  2  0
  7  1  1  0
  9  4  1  0
 11 13  1  0
 11  6  1  0
 12 23  2  0
 13 18  1  0
 14 22  1  0
 14 24  1  0
 15 21  1  0
 15 17  1  0
 16 22  1  0
 17 16  1  0
 18 17  2  0
 19 20  1  0
 19 13  2  0
 20 15  2  0
 21 14  1  0
 22 12  1  0
 24 26  2  0
 25 24  1  0
 27 25  1  0
 28 37  2  0
 28 33  1  0
 29 25  1  0
 29 33  1  0
 30 29  1  0
 31 32  1  0
 31 30  1  0
 32 28  1  0
 33 34  2  0
 34 35  1  0
 36 35  2  0
 37 36  1  0
 38 12  1  0
 38 39  1  0
 38 48  1  0
 39 42  1  0
 40 44  1  0
 40 39  1  0
 41 40  2  0
 44 43  1  0
 46 44  1  0
 46 47  1  0
 46 45  1  0
 48 51  1  1
 48 49  1  0
 50 48  1  0
 54 53  1  0
 54 52  1  0
 55 67  1  0
 56 61  1  0
 57 58  1  0
 57 56  1  0
 59 58  1  0
 59 73  1  0
 59 60  1  0
 61 55  1  0
 61 60  1  0
 62 55  2  0
 63 65  1  0
 63 67  1  0
 64 66  1  0
 65 68  1  0
 67 64  1  0
 68 54  1  0
 68 66  1  0
 68 69  1  6
 70 71  2  0
 71 90  1  0
 72 71  1  0
 72 75  1  0
 73 74  1  0
 73 70  1  0
 74 72  2  0
 75 76  1  0
 76 77  2  0
 78 81  1  0
 78 77  1  0
 79 78  2  0
 80 79  1  0
 80 75  2  0
 81 82  1  0
 82 87  2  0
 82 83  1  0
 83 84  2  0
 84 85  1  0
 85 89  1  0
 86 85  2  0
 87 86  1  0
 88 87  1  0
 90 91  1  0
 91 94  1  0
 91 93  1  0
 92 90  2  0
 95 70  1  0
 95 96  1  0
 97 95  1  0
M  ISO  4   6 101  11 101  55 100  67 100
M  END
>  <TORSDO>  (49) 
F 18

>  <SCORE>  (49) 
-14.355

>  <name>  (49) 
48

>  <ligand_id>  (49) 
48

>  <original_smiles>  (49) 
[H]c1c([H])c([H])c2c(c1[H])C([H])([H])C([H])([H])C([H])([H])C2([H])N([H])C(=O)C1([H])N(C(=O)C([H])(N([H])C(=O)C([H])(N([H])C([H])([H])[H])C([H])([H])[H])C(C([H])([H])[H])(C([H])([H])[H])C([H])([H])[H])C([H])([H])c2c([H])c(Oc3c(C([H])([H])[H])c(C([H])([H])[H])c(C([H])([H])C([H])(C([H])([H])[H])[N+]4([H])C([H])([H])C([H])([H])N(C(=O)N5C([H])([H])C([H])([H])C([H])([H])C([H])(n6nc(-c7c([H])c([H])c(Oc8c([H])c([H])c(F)c([H])c8F)c([H])c7[H])c(C(=O)N([H])[H])c6N([H])[H])C5([H])[H])C([H])([H])C4([H])[H])c(C([H])([H])[H])c3C([H])([H])[H])c([H])c([H])c2C1([H])[H]

>  <smiles>  (49) 
[H]c1c([H])c([H])c2c(c1[H])C([H])([H])C([H])([H])C([H])([H])C2([H])N([H])C(=O)C1([H])N(C(=O)C([H])(N([H])C(=O)C([H])(N([H])C([H])([H])[H])C([H])([H])[H])C(C([H])([H])[H])(C([H])([H])[H])C([H])([H])[H])C([H])([H])c2c([H])c(Oc3c(C([H])([H])[H])c(C([H])([H])[H])c(C([H])([H])C([H])(C([H])([H])[H])[N+]4([H])C([H])([H])C([H])([H])N(C(=O)N5C([H])([H])C([H])([H])C([H])([H])C([H])(n6nc(-c7c([H])c([H])c(Oc8c([H])c([H])c(F)c([H])c8F)c([H])c7[H])c(C(=O)N([H])[H])c6N([H])[H])C5([H])[H])C([H])([H])C4([H])[H])c(C([H])([H])[H])c3C([H])([H])[H])c([H])c([H])c2C1([H])[H]

$$$$
49:0:0
     RDKit          3D

 96105  0  0  1  0  0  0  0  0999 V2000
  -27.3140  -23.6420   19.3740 C   0  0  0  0  0  3  0  0  0  0  0  0
  -29.6110  -23.6520   20.1270 C   0  0  0  0  0  3  0  0  0  0  0  0
  -28.5140  -24.3500   19.5790 C   0  0  0  0  0  0  0  0  0  0  0  0
  -27.1880  -22.2850   19.7330 C   0  0  0  0  0  0  0  0  0  0  0  0
  -29.5180  -22.2730   20.4440 C   0  0  0  0  0  0  0  0  0  0  0  0
  -28.2990  -21.5700   20.2540 C   0  0  0  0  0  0  0  0  0  0  0  0
  -25.8290  -21.6430   19.5530 C   0  0  0  0  0  1  0  0  0  0  0  0
  -31.7910  -21.3370   19.8330 C   0  0  0  0  0  1  0  0  0  0  0  0
  -30.7620  -21.5620   20.9510 C   0  0  0  0  0  2  0  0  0  0  0  0
  -28.6600  -25.8080   19.1260 C   0  0  0  0  0  2  0  0  0  0  0  0
  -28.4000  -26.8030   20.1310 O   0  0  0  0  0  0  0  0  0  0  0  0
  -24.6080  -31.9190   23.3220 C   0  0  0  0  0  0  0  0  0  0  0  0
  -27.2100  -27.5070   20.1390 C   0  0  0  0  0  0  0  0  0  0  0  0
  -23.3820  -30.5480   21.6680 C   0  0  0  0  0  3  0  0  0  0  0  0
  -24.8160  -29.0270   20.2100 C   0  0  0  0  0  0  0  0  0  0  0  0
  -25.9100  -30.8870   21.4660 C   0  0  0  0  0  2  0  0  0  0  0  0
  -25.9790  -29.5260   20.8070 C   0  0  0  0  0  0  0  0  0  0  0  0
  -27.1720  -28.7670   20.7840 C   0  0  0  0  0  3  0  0  0  0  0  0
  -26.0250  -27.0350   19.5280 C   0  0  0  0  0  3  0  0  0  0  0  0
  -24.8320  -27.7750   19.5760 C   0  0  0  0  0  3  0  0  0  0  0  0
  -23.5760  -29.8910   20.2750 C   0  0  0  0  0  2  0  0  0  0  0  0
  -24.6520  -31.1320   22.2090 N   0  0  0  0  0  0  0  0  0  0  0  0
  -23.5330  -32.1900   23.8740 O   0  0  0  0  0  0  0  0  0  0  0  0
  -22.7320  -29.5150   22.6160 C   0  0  0  0  0  0  0  0  0  0  0  0
  -21.4100  -29.3260   22.4780 N   0  0  0  0  0  0  0  0  0  0  0  0
  -23.4160  -28.8880   23.4310 O   0  0  0  0  0  0  0  0  0  0  0  0
  -20.9220  -29.8820   21.7910 H   0  0  0  0  0  0  0  0  0  0  0  0
  -18.0470  -28.0810   22.9210 C   0  0  0  0  0  0  0  0  0  0  0  0
  -20.5960  -28.3810   23.2380 C   0  0  0  0  0  3  0  0  0  0  0  0
  -20.7310  -26.9500   22.6690 C   0  0  0  0  0  2  0  0  0  0  0  0
  -19.6530  -26.6040   21.6370 C   0  0  0  0  0  2  0  0  0  0  0  0
  -18.2570  -26.7320   22.2550 C   0  0  0  0  0  2  0  0  0  0  0  0
  -19.1470  -28.8630   23.3680 C   0  0  0  0  0  0  0  0  0  0  0  0
  -18.9010  -30.1250   23.9490 C   0  0  0  0  0  3  0  0  0  0  0  0
  -17.5860  -30.6100   24.0860 C   0  0  0  0  0  3  0  0  0  0  0  0
  -16.4990  -29.8280   23.6560 C   0  0  0  0  0  3  0  0  0  0  0  0
  -16.7310  -28.5640   23.0820 C   0  0  0  0  0  3  0  0  0  0  0  0
  -25.9040  -32.5300   23.9380 C   0  0  0  0  0  3  0  0  0  0  0  0
  -26.4020  -31.7660   25.2260 C   0  0  1  0  0  0  0  0  0  0  0  0
  -25.3000  -31.5590   26.2880 C   0  0  0  0  0  1  0  0  0  0  0  0
  -26.9660  -30.3750   24.8520 C   0  0  0  0  0  1  0  0  0  0  0  0
  -27.5590  -32.5520   25.8850 C   0  0  0  0  0  1  0  0  0  0  0  0
  -25.6240  -33.9400   24.2450 N   0  0  0  0  0  0  0  0  0  0  0  0
  -25.9770  -34.9720   23.4670 C   0  0  0  0  0  0  0  0  0  0  0  0
  -26.6460  -34.8390   22.4380 O   0  0  0  0  0  0  0  0  0  0  0  0
  -25.0340  -34.1180   25.0430 H   0  0  0  0  0  0  0  0  0  0  0  0
  -24.2840  -36.7910   23.0760 C   0  0  0  0  0  1  0  0  0  0  0  0
  -25.5130  -36.3770   23.9000 C   0  0  0  0  0  3  0  0  0  0  0  0
  -27.6620  -37.2310   24.7260 C   0  0  0  0  0  1  0  0  0  0  0  0
  -26.5650  -37.4100   23.7780 N   0  0  0  0  0  0  0  0  0  0  0  0
  -26.1740  -38.3380   23.9200 H   0  0  0  0  0  0  0  0  0  0  0  0
  -28.2050  -20.2350   20.6270 O   0  0  0  0  0  0  0  0  0  0  0  0
  -26.8740  -18.5430   19.4670 C   0  0  0  0  0  1  0  0  0  0  0  0
  -28.2410  -19.2500   19.5810 C   0  0  0  0  0  3  0  0  0  0  0  0
  -31.3660  -14.4150   20.1180 C   0  0  0  0  0  0  0  0  0  0  0  0
  -31.0010  -12.1470   19.2550 C   0  0  0  0  0  2  0  0  0  0  0  0
  -30.0960  -12.2550   18.0120 C   0  0  0  0  0  2  0  0  0  0  0  0
  -28.6090  -12.2140   18.4200 C   0  0  0  0  0  2  0  0  0  0  0  0
  -28.2710  -13.1900   19.5790 C   0  0  0  0  0  3  0  0  0  0  0  0
  -29.3050  -13.0910   20.7220 C   0  0  0  0  0  2  0  0  0  0  0  0
  -30.6440  -13.2630   20.1400 N   0  0  0  0  0  0  0  0  0  0  0  0
  -32.5490  -14.4530   19.7680 O   0  0  0  0  0  0  0  0  0  0  0  0
  -29.5960  -17.2980   18.6070 C   0  0  0  0  0  2  0  0  0  0  0  0
  -29.3240  -17.3890   21.1050 C   0  0  0  0  0  2  0  0  0  0  0  0
  -30.7920  -16.3600   18.8290 C   0  0  0  0  0  2  0  0  0  0  0  0
  -30.4940  -16.3880   21.2430 C   0  0  0  0  0  2  0  0  0  0  0  0
  -29.4080  -18.2400   19.8100 C   0  0  0  0  0  3  0  0  0  0  0  0
  -30.6230  -15.5460   20.0450 N   0  0  0  0  0  0  0  0  0  0  0  0
  -25.9100  -13.9420   20.2700 C   0  0  0  0  0  0  0  0  0  0  0  0
  -24.7970  -13.2410   20.6450 C   0  0  0  0  0  0  0  0  0  0  0  0
  -25.1800  -11.8640   20.6360 C   0  0  0  0  0  0  0  0  0  0  0  0
  -26.9040  -13.0000   20.0580 N   0  0  0  0  0  0  0  0  0  0  0  0
  -26.4670  -11.7440   20.3350 N   0  0  0  0  0  0  0  0  0  0  0  0
  -24.3780  -10.6500   20.8390 C   0  0  0  0  0  0  0  0  0  0  0  0
  -24.7290   -9.6900   21.8130 C   0  0  0  0  0  3  0  0  0  0  0  0
  -23.9350   -8.5390   22.0040 C   0  0  0  0  0  3  0  0  0  0  0  0
  -22.7750   -8.3410   21.2180 C   0  0  0  0  0  0  0  0  0  0  0  0
  -22.4410   -9.2890   20.2340 C   0  0  0  0  0  3  0  0  0  0  0  0
  -23.2370  -10.4310   20.0410 C   0  0  0  0  0  3  0  0  0  0  0  0
  -21.9570   -7.2410   21.3140 O   0  0  0  0  0  0  0  0  0  0  0  0
  -21.8020   -6.5620   22.4950 C   0  0  0  0  0  0  0  0  0  0  0  0
  -21.3430   -7.2000   23.6690 C   0  0  0  0  0  3  0  0  0  0  0  0
  -21.1320   -6.4490   24.8430 C   0  0  0  0  0  3  0  0  0  0  0  0
  -21.3700   -5.0620   24.8440 C   0  0  0  0  0  0  0  0  0  0  0  0
  -21.8230   -4.4250   23.6760 C   0  0  0  0  0  3  0  0  0  0  0  0
  -22.0350   -5.1720   22.5050 C   0  0  0  0  0  0  0  0  0  0  0  0
  -22.4500   -4.5470   21.3760 F   0  0  0  0  0  0  0  0  0  0  0  0
  -21.1590   -4.3400   25.9690 F   0  0  0  0  0  0  0  0  0  0  0  0
  -23.4310  -13.8050   20.9040 C   0  0  0  0  0  0  0  0  0  0  0  0
  -22.6670  -13.1750   21.7900 N   0  0  0  0  0  0  0  0  0  0  0  0
  -23.0490  -14.8390   20.3560 O   0  0  0  0  0  0  0  0  0  0  0  0
  -22.9890  -12.3380   22.2530 H   0  0  0  0  0  0  0  0  0  0  0  0
  -21.7500  -13.5360   22.0100 H   0  0  0  0  0  0  0  0  0  0  0  0
  -26.1570  -15.2940   20.0770 N   0  0  0  0  0  0  0  0  0  0  0  0
  -25.4380  -16.0000   20.1880 H   0  0  0  0  0  0  0  0  0  0  0  0
  -27.0500  -15.6700   19.7870 H   0  0  0  0  0  0  0  0  0  0  0  0
  1  3  2  0
  1  4  1  0
  2  5  2  0
  3  2  1  0
  4  6  2  0
  5  9  1  0
  6  5  1  0
  6 52  1  0
  7  4  1  0
  8  9  1  0
 10  3  1  0
 10 11  1  0
 11 13  1  0
 12 23  2  0
 13 18  1  0
 14 22  1  0
 14 24  1  0
 15 21  1  0
 15 17  1  0
 16 22  1  0
 17 16  1  0
 18 17  2  0
 19 20  1  0
 19 13  2  0
 20 15  2  0
 21 14  1  0
 22 12  1  0
 24 26  2  0
 25 24  1  0
 27 25  1  0
 28 37  2  0
 28 33  1  0
 29 25  1  0
 29 33  1  0
 30 29  1  0
 31 32  1  0
 31 30  1  0
 32 28  1  0
 33 34  2  0
 34 35  1  0
 36 35  2  0
 37 36  1  0
 38 12  1  0
 38 43  1  0
 38 39  1  0
 39 42  1  1
 39 40  1  0
 41 39  1  0
 43 46  1  0
 44 48  1  0
 44 43  1  0
 45 44  2  0
 48 47  1  0
 50 48  1  0
 50 51  1  0
 50 49  1  0
 54 53  1  0
 54 52  1  0
 55 61  1  0
 56 61  1  0
 57 58  1  0
 57 56  1  0
 59 58  1  0
 59 72  1  0
 59 60  1  0
 61 60  1  0
 62 55  2  0
 63 65  1  0
 63 67  1  0
 64 66  1  0
 65 68  1  0
 67 54  1  0
 67 64  1  0
 68 55  1  0
 68 66  1  0
 69 70  2  0
 70 89  1  0
 71 70  1  0
 71 74  1  0
 72 69  1  0
 72 73  1  0
 73 71  2  0
 74 75  1  0
 75 76  2  0
 77 80  1  0
 77 76  1  0
 78 77  2  0
 79 78  1  0
 79 74  2  0
 80 81  1  0
 81 86  2  0
 81 82  1  0
 82 83  2  0
 83 84  1  0
 84 88  1  0
 85 84  2  0
 86 85  1  0
 87 86  1  0
 89 90  1  0
 90 93  1  0
 90 92  1  0
 91 89  2  0
 94 95  1  0
 94 69  1  0
 96 94  1  0
M  ISO  4  10 101  11 101  55 100  68 100
M  END
>  <TORSDO>  (50) 
F 20

>  <SCORE>  (50) 
-13.141

>  <name>  (50) 
49

>  <ligand_id>  (50) 
49

>  <original_smiles>  (50) 
[H]c1c([H])c([H])c2c(c1[H])C([H])([H])C([H])([H])C([H])([H])C2([H])N([H])C(=O)C1([H])N(C(=O)C([H])(N([H])C(=O)C([H])(N([H])C([H])([H])[H])C([H])([H])[H])C(C([H])([H])[H])(C([H])([H])[H])C([H])([H])[H])C([H])([H])c2c([H])c(OC([H])([H])c3c([H])c(C([H])([H])[H])c(OC([H])(C([H])([H])[H])C4([H])C([H])([H])C([H])([H])N(C(=O)N5C([H])([H])C([H])([H])C([H])([H])C([H])(n6nc(-c7c([H])c([H])c(Oc8c([H])c([H])c(F)c([H])c8F)c([H])c7[H])c(C(=O)N([H])[H])c6N([H])[H])C5([H])[H])C([H])([H])C4([H])[H])c(C([H])([H])C([H])([H])[H])c3[H])c([H])c([H])c2C1([H])[H]

>  <smiles>  (50) 
[H]c1c([H])c([H])c2c(c1[H])C([H])([H])C([H])([H])C([H])([H])C2([H])N([H])C(=O)C1([H])N(C(=O)C([H])(N([H])C(=O)C([H])(N([H])C([H])([H])[H])C([H])([H])[H])C(C([H])([H])[H])(C([H])([H])[H])C([H])([H])[H])C([H])([H])c2c([H])c(OC([H])([H])c3c([H])c(C([H])([H])[H])c(OC([H])(C([H])([H])[H])C4([H])C([H])([H])C([H])([H])N(C(=O)N5C([H])([H])C([H])([H])C([H])([H])C([H])(n6nc(-c7c([H])c([H])c(Oc8c([H])c([H])c(F)c([H])c8F)c([H])c7[H])c(C(=O)N([H])[H])c6N([H])[H])C5([H])[H])C([H])([H])C4([H])[H])c(C([H])([H])C([H])([H])[H])c3[H])c([H])c([H])c2C1([H])[H]

$$$$
50:0:0
     RDKit          3D

 98106  0  0  1  0  0  0  0  0999 V2000
  -30.2400  -22.3310   22.0160 C   0  0  0  0  0  3  0  0  0  0  0  0
  -28.9500  -21.8210   20.0290 C   0  0  0  0  0  3  0  0  0  0  0  0
  -30.3460  -20.9580   22.3180 C   0  0  0  0  0  0  0  0  0  0  0  0
  -29.0250  -20.4410   20.3250 C   0  0  0  0  0  0  0  0  0  0  0  0
  -29.7360  -19.9920   21.4710 C   0  0  0  0  0  0  0  0  0  0  0  0
  -29.5650  -22.7780   20.8680 C   0  0  0  0  0  0  0  0  0  0  0  0
  -31.1210  -20.5710   23.5690 C   0  0  0  0  0  1  0  0  0  0  0  0
  -28.3090  -19.4740   19.3910 C   0  0  0  0  0  1  0  0  0  0  0  0
  -29.8200  -18.4980   21.8170 C   0  0  0  0  0  2  0  0  0  0  0  0
  -30.7460  -17.7630   20.9250 N   0  0  0  0  0  4  0  0  0  0  0  0
  -31.4970  -18.3840   20.6760 H   0  0  0  0  0  0  0  0  0  0  0  0
  -30.2640  -17.5150   20.0780 H   0  0  0  0  0  0  0  0  0  0  0  0
  -31.3270  -16.5500   21.5440 C   0  0  0  0  0  2  0  0  0  0  0  0
  -31.8850  -15.5370   20.5130 C   0  0  0  0  0  3  0  0  0  0  0  0
  -30.8160  -13.8670   18.9790 C   0  0  0  0  0  0  0  0  0  0  0  0
  -30.1440  -11.7000   18.0140 C   0  0  0  0  0  2  0  0  0  0  0  0
  -28.9670  -11.8090   17.0300 C   0  0  0  0  0  2  0  0  0  0  0  0
  -27.6270  -11.7320   17.7800 C   0  0  0  0  0  2  0  0  0  0  0  0
  -27.5630  -12.7110   18.9800 C   0  0  0  0  0  3  0  0  0  0  0  0
  -28.8260  -12.5920   19.8640 C   0  0  0  0  0  2  0  0  0  0  0  0
  -30.0230  -12.7670   19.0180 N   0  0  0  0  0  0  0  0  0  0  0  0
  -31.5790  -14.1240   18.0460 O   0  0  0  0  0  0  0  0  0  0  0  0
  -30.8490  -14.5710   20.1190 N   0  0  0  0  0  0  0  0  0  0  0  0
  -30.2190  -14.2480   20.8390 H   0  0  0  0  0  0  0  0  0  0  0  0
  -25.4630  -13.4660   20.2670 C   0  0  0  0  0  0  0  0  0  0  0  0
  -24.4390  -12.7600   20.8420 C   0  0  0  0  0  0  0  0  0  0  0  0
  -24.7480  -11.3810   20.6380 C   0  0  0  0  0  0  0  0  0  0  0  0
  -26.3370  -12.5190   19.7540 N   0  0  0  0  0  0  0  0  0  0  0  0
  -25.9210  -11.2560   20.0310 N   0  0  0  0  0  0  0  0  0  0  0  0
  -23.9660  -10.1720   20.9350 C   0  0  0  0  0  0  0  0  0  0  0  0
  -24.4510   -9.1760   21.8120 C   0  0  0  0  0  3  0  0  0  0  0  0
  -23.6720   -8.0330   22.0970 C   0  0  0  0  0  3  0  0  0  0  0  0
  -22.3970   -7.8780   21.5050 C   0  0  0  0  0  0  0  0  0  0  0  0
  -21.9280   -8.8610   20.6160 C   0  0  0  0  0  3  0  0  0  0  0  0
  -22.7060   -9.9960   20.3290 C   0  0  0  0  0  3  0  0  0  0  0  0
  -21.5830   -6.7890   21.7040 O   0  0  0  0  0  0  0  0  0  0  0  0
  -21.5850   -6.0940   22.8860 C   0  0  0  0  0  0  0  0  0  0  0  0
  -21.2600   -6.7110   24.1140 C   0  0  0  0  0  3  0  0  0  0  0  0
  -21.2070   -5.9430   25.2950 C   0  0  0  0  0  3  0  0  0  0  0  0
  -21.4700   -4.5620   25.2510 C   0  0  0  0  0  0  0  0  0  0  0  0
  -21.7880   -3.9450   24.0280 C   0  0  0  0  0  3  0  0  0  0  0  0
  -21.8420   -4.7090   22.8500 C   0  0  0  0  0  0  0  0  0  0  0  0
  -22.1290   -4.1050   21.6710 F   0  0  0  0  0  0  0  0  0  0  0  0
  -21.4110   -3.8230   26.3830 F   0  0  0  0  0  0  0  0  0  0  0  0
  -23.1970  -13.3320   21.4640 C   0  0  0  0  0  0  0  0  0  0  0  0
  -22.6400  -12.6490   22.4590 N   0  0  0  0  0  0  0  0  0  0  0  0
  -22.7410  -14.4150   21.1010 O   0  0  0  0  0  0  0  0  0  0  0  0
  -23.0270  -11.7690   22.7680 H   0  0  0  0  0  0  0  0  0  0  0  0
  -21.8180  -13.0120   22.9190 H   0  0  0  0  0  0  0  0  0  0  0  0
  -25.7120  -14.8260   20.1210 N   0  0  0  0  0  0  0  0  0  0  0  0
  -25.0540  -15.5320   20.4320 H   0  0  0  0  0  0  0  0  0  0  0  0
  -26.5010  -15.2150   19.6190 H   0  0  0  0  0  0  0  0  0  0  0  0
  -33.8410  -13.8870   20.0700 C   0  0  0  0  0  1  0  0  0  0  0  0
  -33.1120  -14.7830   21.0840 C   0  0  0  0  0  2  0  0  0  0  0  0
  -29.5620  -24.1360   20.6450 O   0  0  0  0  0  0  0  0  0  0  0  0
  -28.9490  -24.6320   19.4590 C   0  0  0  0  0  2  0  0  0  0  0  0
  -29.4590  -26.0580   19.1990 C   0  0  0  0  0  2  0  0  0  0  0  0
  -29.0940  -26.9560   20.2460 O   0  0  0  0  0  0  0  0  0  0  0  0
  -24.8820  -31.7670   23.3260 C   0  0  0  0  0  0  0  0  0  0  0  0
  -27.8580  -27.5660   20.2180 C   0  0  0  0  0  0  0  0  0  0  0  0
  -23.8150  -30.3840   21.5750 C   0  0  0  0  0  3  0  0  0  0  0  0
  -25.3950  -28.9550   20.1780 C   0  0  0  0  0  0  0  0  0  0  0  0
  -26.3300  -30.8440   21.5230 C   0  0  0  0  0  2  0  0  0  0  0  0
  -26.4970  -29.5020   20.8440 C   0  0  0  0  0  0  0  0  0  0  0  0
  -27.7260  -28.8110   20.8690 C   0  0  0  0  0  3  0  0  0  0  0  0
  -26.7270  -27.0140   19.5680 C   0  0  0  0  0  3  0  0  0  0  0  0
  -25.5010  -27.7020   19.5470 C   0  0  0  0  0  3  0  0  0  0  0  0
  -24.1200  -29.7650   20.1840 C   0  0  0  0  0  2  0  0  0  0  0  0
  -25.0240  -31.0120   22.2000 N   0  0  0  0  0  0  0  0  0  0  0  0
  -23.7650  -31.9780   23.8190 O   0  0  0  0  0  0  0  0  0  0  0  0
  -23.1600  -29.3010   22.4620 C   0  0  0  0  0  0  0  0  0  0  0  0
  -21.8480  -29.0870   22.2720 N   0  0  0  0  0  0  0  0  0  0  0  0
  -23.8290  -28.6580   23.2750 O   0  0  0  0  0  0  0  0  0  0  0  0
  -21.3680  -29.6600   21.5920 H   0  0  0  0  0  0  0  0  0  0  0  0
  -18.4860  -27.8120   22.6090 C   0  0  0  0  0  0  0  0  0  0  0  0
  -21.0290  -28.0950   22.9680 C   0  0  0  0  0  3  0  0  0  0  0  0
  -21.1740  -26.7000   22.3200 C   0  0  0  0  0  2  0  0  0  0  0  0
  -20.1070  -26.4130   21.2580 C   0  0  0  0  0  2  0  0  0  0  0  0
  -18.7050  -26.5030   21.8700 C   0  0  0  0  0  2  0  0  0  0  0  0
  -19.5780  -28.5680   23.1110 C   0  0  0  0  0  0  0  0  0  0  0  0
  -19.3200  -29.7960   23.7580 C   0  0  0  0  0  3  0  0  0  0  0  0
  -18.0020  -30.2690   23.9070 C   0  0  0  0  0  3  0  0  0  0  0  0
  -16.9240  -29.5080   23.4230 C   0  0  0  0  0  3  0  0  0  0  0  0
  -17.1670  -28.2810   22.7800 C   0  0  0  0  0  3  0  0  0  0  0  0
  -26.1110  -32.4230   24.0310 C   0  0  0  0  0  3  0  0  0  0  0  0
  -25.7450  -33.8050   24.3640 N   0  0  0  0  0  0  0  0  0  0  0  0
  -26.0840  -34.8770   23.6360 C   0  0  0  0  0  0  0  0  0  0  0  0
  -26.8110  -34.8090   22.6410 O   0  0  0  0  0  0  0  0  0  0  0  0
  -25.1120  -33.9330   25.1400 H   0  0  0  0  0  0  0  0  0  0  0  0
  -24.3200  -36.6160   23.2080 C   0  0  0  0  0  1  0  0  0  0  0  0
  -25.5270  -36.2440   24.0830 C   0  0  0  0  0  3  0  0  0  0  0  0
  -27.5870  -37.1780   25.0370 C   0  0  0  0  0  1  0  0  0  0  0  0
  -26.5290  -37.3310   24.0420 N   0  0  0  0  0  0  0  0  0  0  0  0
  -26.0860  -38.2350   24.1840 H   0  0  0  0  0  0  0  0  0  0  0  0
  -26.5740  -31.6440   25.3220 C   0  0  1  0  0  0  0  0  0  0  0  0
  -25.4240  -31.3250   26.3050 C   0  0  0  0  0  1  0  0  0  0  0  0
  -27.2480  -30.3070   24.9340 C   0  0  0  0  0  1  0  0  0  0  0  0
  -27.6370  -32.4720   26.0830 C   0  0  0  0  0  1  0  0  0  0  0  0
  1  3  1  0
  2  4  2  0
  2  6  1  0
  3  7  1  0
  4  5  1  0
  5  9  1  0
  5  3  2  0
  6  1  2  0
  8  4  1  0
 10 13  1  0
 10  9  1  0
 11 10  1  0
 12 10  1  0
 14 54  1  0
 14 13  1  0
 15 21  1  0
 15 23  1  0
 16 21  1  0
 17 18  1  0
 17 16  1  0
 19 18  1  0
 19 28  1  0
 19 20  1  0
 21 20  1  0
 22 15  2  0
 23 14  1  0
 23 24  1  0
 25 26  2  0
 26 45  1  0
 27 26  1  0
 27 30  1  0
 28 29  1  0
 28 25  1  0
 29 27  2  0
 30 31  1  0
 31 32  2  0
 33 36  1  0
 33 32  1  0
 34 33  2  0
 35 34  1  0
 35 30  2  0
 36 37  1  0
 37 38  1  0
 38 39  2  0
 40 39  1  0
 40 44  1  0
 41 40  2  0
 42 37  2  0
 42 41  1  0
 43 42  1  0
 45 46  1  0
 46 48  1  0
 46 49  1  0
 47 45  2  0
 50 25  1  0
 50 51  1  0
 52 50  1  0
 53 54  1  0
 55  6  1  0
 56 55  1  0
 57 56  1  0
 57 58  1  0
 59 70  2  0
 60 58  1  0
 60 65  1  0
 61 69  1  0
 61 71  1  0
 62 68  1  0
 62 64  1  0
 63 69  1  0
 64 65  2  0
 64 63  1  0
 66 60  2  0
 67 66  1  0
 67 62  2  0
 68 61  1  0
 69 59  1  0
 71 73  2  0
 72 71  1  0
 74 72  1  0
 75 84  2  0
 75 80  1  0
 76 72  1  0
 76 80  1  0
 77 76  1  0
 78 79  1  0
 78 77  1  0
 79 75  1  0
 80 81  2  0
 81 82  1  0
 83 82  2  0
 84 83  1  0
 85 59  1  0
 85 86  1  0
 85 95  1  0
 86 89  1  0
 87 91  1  0
 87 86  1  0
 88 87  2  0
 91 90  1  0
 93 91  1  0
 93 94  1  0
 93 92  1  0
 95 98  1  1
 95 96  1  0
 97 95  1  0
M  ISO  4  15 100  23 100  57 101  58 101
M  END
>  <TORSDO>  (51) 
F 24

>  <SCORE>  (51) 
-8.900

>  <name>  (51) 
50

>  <ligand_id>  (51) 
50

>  <original_smiles>  (51) 
[H]c1c([H])c([H])c2c(c1[H])C([H])([H])C([H])([H])C([H])([H])C2([H])N([H])C(=O)C1([H])N(C(=O)C([H])(N([H])C(=O)C([H])(N([H])C([H])([H])[H])C([H])([H])[H])C(C([H])([H])[H])(C([H])([H])[H])C([H])([H])[H])C([H])([H])c2c([H])c(OC([H])([H])C([H])([H])Oc3c([H])c(C([H])([H])[H])c(C([H])([H])[N+]([H])([H])C([H])([H])C([H])(N([H])C(=O)N4C([H])([H])C([H])([H])C([H])([H])C([H])(n5nc(-c6c([H])c([H])c(Oc7c([H])c([H])c(F)c([H])c7F)c([H])c6[H])c(C(=O)N([H])[H])c5N([H])[H])C4([H])[H])C([H])([H])C([H])([H])[H])c(C([H])([H])[H])c3[H])c([H])c([H])c2C1([H])[H]

>  <smiles>  (51) 
[H]c1c([H])c([H])c2c(c1[H])C([H])([H])C([H])([H])C([H])([H])C2([H])N([H])C(=O)C1([H])N(C(=O)C([H])(N([H])C(=O)C([H])(N([H])C([H])([H])[H])C([H])([H])[H])C(C([H])([H])[H])(C([H])([H])[H])C([H])([H])[H])C([H])([H])c2c([H])c(OC([H])([H])C([H])([H])Oc3c([H])c(C([H])([H])[H])c(C([H])([H])[N+]([H])([H])C([H])([H])C([H])(N([H])C(=O)N4C([H])([H])C([H])([H])C([H])([H])C([H])(n5nc(-c6c([H])c([H])c(Oc7c([H])c([H])c(F)c([H])c7F)c([H])c6[H])c(C(=O)N([H])[H])c5N([H])[H])C4([H])[H])C([H])([H])C([H])([H])[H])c(C([H])([H])[H])c3[H])c([H])c([H])c2C1([H])[H]

$$$$
51:0:0
     RDKit          3D

 98107  0  0  1  0  0  0  0  0999 V2000
  -29.4950  -21.9840   19.9250 C   0  0  0  0  0  2  0  0  0  0  0  0
  -31.8250  -21.8260   20.7610 C   0  0  0  0  0  2  0  0  0  0  0  0
  -29.6920  -23.4980   19.6530 C   0  0  0  0  0  2  0  0  0  0  0  0
  -32.0290  -23.3250   20.4650 C   0  0  0  0  0  2  0  0  0  0  0  0
  -30.8210  -21.2200   19.7720 C   0  0  0  0  0  3  0  0  0  0  0  0
  -30.7600  -24.1130   20.4980 N   0  0  1  0  0  4  0  0  0  0  0  0
  -30.4380  -24.0850   21.4550 H   0  0  0  0  0  0  0  0  0  0  0  0
  -30.5590  -19.0800   21.1540 C   0  0  0  0  0  3  0  0  0  0  0  0
  -30.6430  -17.4490   18.8830 C   0  0  0  0  0  3  0  0  0  0  0  0
  -30.6960  -19.6880   19.8850 C   0  0  0  0  0  0  0  0  0  0  0  0
  -30.7300  -18.8490   18.7380 C   0  0  0  0  0  0  0  0  0  0  0  0
  -30.4750  -17.6700   21.3020 C   0  0  0  0  0  0  0  0  0  0  0  0
  -30.5260  -16.8380   20.1550 C   0  0  0  0  0  0  0  0  0  0  0  0
  -30.8530  -19.4120   17.3300 C   0  0  0  0  0  1  0  0  0  0  0  0
  -31.0420  -14.4030   19.7580 C   0  0  0  0  0  0  0  0  0  0  0  0
  -30.6820  -12.1920   18.7320 C   0  0  0  0  0  2  0  0  0  0  0  0
  -29.6380  -12.3380   17.6050 C   0  0  0  0  0  2  0  0  0  0  0  0
  -28.2070  -12.2070   18.1640 C   0  0  0  0  0  2  0  0  0  0  0  0
  -27.9690  -13.0910   19.4170 C   0  0  0  0  0  3  0  0  0  0  0  0
  -29.1160  -12.9220   20.4380 C   0  0  0  0  0  2  0  0  0  0  0  0
  -30.3840  -13.2130   19.7490 N   0  0  0  0  0  0  0  0  0  0  0  0
  -32.1290  -14.5580   19.1920 O   0  0  0  0  0  0  0  0  0  0  0  0
  -30.3740  -15.4220   20.3340 N   0  0  0  0  0  0  0  0  0  0  0  0
  -29.5450  -15.1560   20.8410 H   0  0  0  0  0  0  0  0  0  0  0  0
  -25.6790  -13.7190   20.4130 C   0  0  0  0  0  0  0  0  0  0  0  0
  -24.6290  -12.9540   20.8440 C   0  0  0  0  0  0  0  0  0  0  0  0
  -25.0380  -11.5950   20.6820 C   0  0  0  0  0  0  0  0  0  0  0  0
  -26.6640  -12.8250   20.0180 N   0  0  0  0  0  0  0  0  0  0  0  0
  -26.2860  -11.5400   20.2370 N   0  0  0  0  0  0  0  0  0  0  0  0
  -24.2930  -10.3430   20.8710 C   0  0  0  0  0  0  0  0  0  0  0  0
  -24.6700   -9.4010   21.8530 C   0  0  0  0  0  3  0  0  0  0  0  0
  -23.9280   -8.2140   22.0290 C   0  0  0  0  0  3  0  0  0  0  0  0
  -22.7940   -7.9600   21.2210 C   0  0  0  0  0  0  0  0  0  0  0  0
  -22.4370   -8.8910   20.2290 C   0  0  0  0  0  3  0  0  0  0  0  0
  -23.1800  -10.0700   20.0520 C   0  0  0  0  0  3  0  0  0  0  0  0
  -22.0280   -6.8220   21.3010 O   0  0  0  0  0  0  0  0  0  0  0  0
  -21.7470   -6.2270   22.5050 C   0  0  0  0  0  0  0  0  0  0  0  0
  -21.1090   -6.9280   23.5530 C   0  0  0  0  0  3  0  0  0  0  0  0
  -20.7770   -6.2600   24.7480 C   0  0  0  0  0  3  0  0  0  0  0  0
  -21.0720   -4.8900   24.8940 C   0  0  0  0  0  0  0  0  0  0  0  0
  -21.7020   -4.1900   23.8500 C   0  0  0  0  0  3  0  0  0  0  0  0
  -22.0350   -4.8570   22.6580 C   0  0  0  0  0  0  0  0  0  0  0  0
  -22.6230   -4.1710   21.6470 F   0  0  0  0  0  0  0  0  0  0  0  0
  -20.7460   -4.2450   26.0380 F   0  0  0  0  0  0  0  0  0  0  0  0
  -23.2860  -13.4510   21.2950 C   0  0  0  0  0  0  0  0  0  0  0  0
  -22.6440  -12.7350   22.2130 N   0  0  0  0  0  0  0  0  0  0  0  0
  -22.8180  -14.5070   20.8710 O   0  0  0  0  0  0  0  0  0  0  0  0
  -23.0370  -11.8790   22.5750 H   0  0  0  0  0  0  0  0  0  0  0  0
  -21.7470  -13.0480   22.5570 H   0  0  0  0  0  0  0  0  0  0  0  0
  -25.8730  -15.0930   20.3050 N   0  0  0  0  0  0  0  0  0  0  0  0
  -25.1580  -15.7630   20.5650 H   0  0  0  0  0  0  0  0  0  0  0  0
  -26.7240  -15.5290   19.9770 H   0  0  0  0  0  0  0  0  0  0  0  0
  -30.5250  -17.8280   23.7900 C   0  0  0  0  0  1  0  0  0  0  0  0
  -30.3430  -17.0620   22.5630 N   0  0  0  0  0  0  0  0  0  0  0  0
  -30.4570  -16.0550   22.6230 H   0  0  0  0  0  0  0  0  0  0  0  0
  -31.0150  -25.5500   20.1600 C   0  0  0  0  0  2  0  0  0  0  0  0
  -29.8450  -26.5220   20.4380 C   0  0  0  0  0  2  0  0  0  0  0  0
  -28.9390  -26.5770   19.3360 O   0  0  0  0  0  0  0  0  0  0  0  0
  -25.1830  -31.4040   23.0620 C   0  0  0  0  0  0  0  0  0  0  0  0
  -27.7880  -27.3150   19.5130 C   0  0  0  0  0  0  0  0  0  0  0  0
  -23.9250  -30.0940   21.3800 C   0  0  0  0  0  3  0  0  0  0  0  0
  -25.3430  -28.7170   19.7650 C   0  0  0  0  0  0  0  0  0  0  0  0
  -26.4190  -30.5560   21.0730 C   0  0  0  0  0  2  0  0  0  0  0  0
  -26.5120  -29.2370   20.3360 C   0  0  0  0  0  0  0  0  0  0  0  0
  -27.7340  -28.5420   20.2180 C   0  0  0  0  0  3  0  0  0  0  0  0
  -26.6060  -26.8140   18.9290 C   0  0  0  0  0  3  0  0  0  0  0  0
  -25.3830  -27.5010   19.0610 C   0  0  0  0  0  3  0  0  0  0  0  0
  -24.0770  -29.5250   19.9420 C   0  0  0  0  0  2  0  0  0  0  0  0
  -25.1960  -30.6960   21.8970 N   0  0  0  0  0  0  0  0  0  0  0  0
  -24.1280  -31.5970   23.6820 O   0  0  0  0  0  0  0  0  0  0  0  0
  -23.3580  -28.9830   22.2910 C   0  0  0  0  0  0  0  0  0  0  0  0
  -22.0480  -28.7170   22.1670 N   0  0  0  0  0  0  0  0  0  0  0  0
  -24.0950  -28.3650   23.0650 O   0  0  0  0  0  0  0  0  0  0  0  0
  -21.5130  -29.2740   21.5160 H   0  0  0  0  0  0  0  0  0  0  0  0
  -18.7910  -27.2020   22.5480 C   0  0  0  0  0  0  0  0  0  0  0  0
  -21.3060  -27.6870   22.8940 C   0  0  0  0  0  3  0  0  0  0  0  0
  -21.5560  -26.2890   22.2850 C   0  0  0  0  0  2  0  0  0  0  0  0
  -20.5130  -25.8940   21.2330 C   0  0  0  0  0  2  0  0  0  0  0  0
  -19.1090  -25.8940   21.8440 C   0  0  0  0  0  2  0  0  0  0  0  0
  -19.8230  -28.0520   23.0260 C   0  0  0  0  0  0  0  0  0  0  0  0
  -19.4750  -29.2740   23.6420 C   0  0  0  0  0  3  0  0  0  0  0  0
  -18.1260  -29.6480   23.7860 C   0  0  0  0  0  3  0  0  0  0  0  0
  -17.1070  -28.7960   23.3250 C   0  0  0  0  0  3  0  0  0  0  0  0
  -17.4410  -27.5750   22.7110 C   0  0  0  0  0  3  0  0  0  0  0  0
  -26.4860  -32.0240   23.6580 C   0  0  0  0  0  3  0  0  0  0  0  0
  -27.1150  -31.1560   24.8170 C   0  0  1  0  0  0  0  0  0  0  0  0
  -26.1070  -30.7790   25.9270 C   0  0  0  0  0  1  0  0  0  0  0  0
  -27.7110  -29.8460   24.2510 C   0  0  0  0  0  1  0  0  0  0  0  0
  -28.2840  -31.9260   25.4740 C   0  0  0  0  0  1  0  0  0  0  0  0
  -26.1540  -33.3720   24.1390 N   0  0  0  0  0  0  0  0  0  0  0  0
  -26.3910  -34.5010   23.4560 C   0  0  0  0  0  0  0  0  0  0  0  0
  -26.9820  -34.5190   22.3730 O   0  0  0  0  0  0  0  0  0  0  0  0
  -25.6160  -33.4290   24.9910 H   0  0  0  0  0  0  0  0  0  0  0  0
  -24.5640  -36.2290   23.4090 C   0  0  0  0  0  1  0  0  0  0  0  0
  -25.8880  -35.8200   24.0740 C   0  0  0  0  0  3  0  0  0  0  0  0
  -28.0490  -36.7360   24.7950 C   0  0  0  0  0  1  0  0  0  0  0  0
  -26.8600  -36.9290   23.9670 N   0  0  0  0  0  0  0  0  0  0  0  0
  -26.4320  -37.8110   24.2310 H   0  0  0  0  0  0  0  0  0  0  0  0
  3  1  1  0
  3  6  1  0
  4  6  1  0
  4  2  1  0
  5 10  1  0
  5  1  1  0
  5  2  1  0
  6  7  1  1
  8 12  1  0
  9 13  1  0
 10  8  2  0
 11  9  2  0
 11 10  1  0
 12 54  1  0
 13 23  1  0
 13 12  2  0
 14 11  1  0
 15 23  1  0
 16 21  1  0
 17 18  1  0
 17 16  1  0
 19 18  1  0
 19 28  1  0
 19 20  1  0
 21 15  1  0
 21 20  1  0
 22 15  2  0
 23 24  1  0
 25 26  2  0
 26 45  1  0
 27 26  1  0
 27 30  1  0
 28 29  1  0
 28 25  1  0
 29 27  2  0
 30 31  1  0
 31 32  2  0
 33 36  1  0
 33 32  1  0
 34 33  2  0
 35 34  1  0
 35 30  2  0
 36 37  1  0
 37 42  2  0
 37 38  1  0
 38 39  2  0
 39 40  1  0
 40 44  1  0
 41 40  2  0
 42 41  1  0
 43 42  1  0
 45 46  1  0
 46 49  1  0
 46 48  1  0
 47 45  2  0
 50 25  1  0
 50 51  1  0
 52 50  1  0
 54 55  1  0
 54 53  1  0
 56 57  1  0
 56  6  1  0
 58 60  1  0
 58 57  1  0
 59 70  2  0
 60 65  1  0
 61 69  1  0
 61 71  1  0
 62 68  1  0
 62 64  1  0
 63 69  1  0
 64 63  1  0
 65 64  2  0
 66 67  1  0
 66 60  2  0
 67 62  2  0
 68 61  1  0
 69 59  1  0
 71 73  2  0
 72 71  1  0
 74 72  1  0
 75 84  2  0
 75 80  1  0
 76 72  1  0
 76 80  1  0
 77 76  1  0
 78 79  1  0
 78 77  1  0
 79 75  1  0
 80 81  2  0
 81 82  1  0
 83 82  2  0
 84 83  1  0
 85 59  1  0
 85 90  1  0
 85 86  1  0
 86 89  1  1
 86 87  1  0
 88 86  1  0
 90 93  1  0
 91 95  1  0
 91 90  1  0
 92 91  2  0
 95 94  1  0
 97 95  1  0
 97 98  1  0
 97 96  1  0
M  ISO  4  15 100  23 100  57 101  58 101
M  END
>  <TORSDO>  (52) 
F 20

>  <SCORE>  (52) 
-10.452

>  <name>  (52) 
51

>  <ligand_id>  (52) 
51

>  <original_smiles>  (52) 
[H]c1c([H])c([H])c2c(c1[H])C([H])([H])C([H])([H])C([H])([H])C2([H])N([H])C(=O)C1([H])N(C(=O)C([H])(N([H])C(=O)C([H])(N([H])C([H])([H])[H])C([H])([H])[H])C(C([H])([H])[H])(C([H])([H])[H])C([H])([H])[H])C([H])([H])c2c([H])c(OC([H])([H])C([H])([H])[N+]3([H])C([H])([H])C([H])([H])C([H])(c4c([H])c(N([H])C([H])([H])[H])c(N([H])C(=O)N5C([H])([H])C([H])([H])C([H])([H])C([H])(n6nc(-c7c([H])c([H])c(Oc8c([H])c([H])c(F)c([H])c8F)c([H])c7[H])c(C(=O)N([H])[H])c6N([H])[H])C5([H])[H])c([H])c4C([H])([H])[H])C([H])([H])C3([H])[H])c([H])c([H])c2C1([H])[H]

>  <smiles>  (52) 
[H]c1c([H])c([H])c2c(c1[H])C([H])([H])C([H])([H])C([H])([H])C2([H])N([H])C(=O)C1([H])N(C(=O)C([H])(N([H])C(=O)C([H])(N([H])C([H])([H])[H])C([H])([H])[H])C(C([H])([H])[H])(C([H])([H])[H])C([H])([H])[H])C([H])([H])c2c([H])c(OC([H])([H])C([H])([H])[N+]3([H])C([H])([H])C([H])([H])C([H])(c4c([H])c(N([H])C([H])([H])[H])c(N([H])C(=O)N5C([H])([H])C([H])([H])C([H])([H])C([H])(n6nc(-c7c([H])c([H])c(Oc8c([H])c([H])c(F)c([H])c8F)c([H])c7[H])c(C(=O)N([H])[H])c6N([H])[H])C5([H])[H])c([H])c4C([H])([H])[H])C([H])([H])C3([H])[H])c([H])c([H])c2C1([H])[H]

$$$$
52:0:0
     RDKit          3D

 95104  0  0  1  0  0  0  0  0999 V2000
  -27.4980  -23.3490   19.4030 C   0  0  0  0  0  3  0  0  0  0  0  0
  -28.6480  -24.0970   19.7320 C   0  0  0  0  0  0  0  0  0  0  0  0
  -27.4120  -21.9540   19.6260 C   0  0  0  0  0  0  0  0  0  0  0  0
  -29.7230  -23.3910   20.3500 C   0  0  0  0  0  0  0  0  0  0  0  0
  -29.6530  -21.9700   20.5680 C   0  0  0  0  0  0  0  0  0  0  0  0
  -28.4920  -21.2170   20.1870 C   0  0  0  0  0  0  0  0  0  0  0  0
  -26.1150  -21.2560   19.2380 C   0  0  0  0  0  1  0  0  0  0  0  0
  -30.9750  -24.1640   20.7680 C   0  0  0  0  0  1  0  0  0  0  0  0
  -30.8250  -21.2540   21.2320 C   0  0  0  0  0  1  0  0  0  0  0  0
  -28.2770  -19.8140   20.3720 N   0  0  0  0  0  0  0  0  0  0  0  0
  -27.3220  -19.5290   20.1830 H   0  0  0  0  0  0  0  0  0  0  0  0
  -30.7490  -14.5710   19.6410 C   0  0  0  0  0  0  0  0  0  0  0  0
  -30.3490  -12.3610   18.5860 C   0  0  0  0  0  2  0  0  0  0  0  0
  -29.2870  -12.5030   17.4770 C   0  0  0  0  0  2  0  0  0  0  0  0
  -27.8630  -12.3780   18.0560 C   0  0  0  0  0  2  0  0  0  0  0  0
  -27.6500  -13.2390   19.3310 C   0  0  0  0  0  3  0  0  0  0  0  0
  -28.8180  -13.0510   20.3190 C   0  0  0  0  0  2  0  0  0  0  0  0
  -30.0530  -13.3920   19.6060 N   0  0  0  0  0  0  0  0  0  0  0  0
  -31.8840  -14.6230   19.1500 O   0  0  0  0  0  0  0  0  0  0  0  0
  -29.5030  -18.1330   18.9360 C   0  0  0  0  0  2  0  0  0  0  0  0
  -28.7020  -17.4520   21.1540 C   0  0  0  0  0  2  0  0  0  0  0  0
  -30.4560  -16.8970   18.9520 C   0  0  0  0  0  2  0  0  0  0  0  0
  -29.7150  -16.2650   21.1660 C   0  0  0  0  0  2  0  0  0  0  0  0
  -29.2220  -18.6690   20.3490 C   0  0  0  0  0  3  0  0  0  0  0  0
  -30.0510  -15.7510   19.8180 N   0  0  0  0  0  0  0  0  0  0  0  0
  -25.3810  -13.8580   20.3660 C   0  0  0  0  0  0  0  0  0  0  0  0
  -24.3410  -13.0960   20.8220 C   0  0  0  0  0  0  0  0  0  0  0  0
  -24.7490  -11.7360   20.6600 C   0  0  0  0  0  0  0  0  0  0  0  0
  -26.3600  -12.9660   19.9600 N   0  0  0  0  0  0  0  0  0  0  0  0
  -25.9910  -11.6790   20.1930 N   0  0  0  0  0  0  0  0  0  0  0  0
  -24.0100  -10.4870   20.8670 C   0  0  0  0  0  0  0  0  0  0  0  0
  -24.4470   -9.5100   21.7880 C   0  0  0  0  0  3  0  0  0  0  0  0
  -23.7060   -8.3250   21.9820 C   0  0  0  0  0  3  0  0  0  0  0  0
  -22.5120   -8.1080   21.2520 C   0  0  0  0  0  0  0  0  0  0  0  0
  -22.0970   -9.0730   20.3170 C   0  0  0  0  0  3  0  0  0  0  0  0
  -22.8390  -10.2480   20.1220 C   0  0  0  0  0  3  0  0  0  0  0  0
  -21.7390   -6.9770   21.3540 O   0  0  0  0  0  0  0  0  0  0  0  0
  -21.6110   -6.2980   22.5400 C   0  0  0  0  0  0  0  0  0  0  0  0
  -21.0980   -6.9170   23.7030 C   0  0  0  0  0  3  0  0  0  0  0  0
  -20.9230   -6.1620   24.8810 C   0  0  0  0  0  3  0  0  0  0  0  0
  -21.2490   -4.7930   24.8970 C   0  0  0  0  0  0  0  0  0  0  0  0
  -21.7520   -4.1750   23.7390 C   0  0  0  0  0  3  0  0  0  0  0  0
  -21.9320   -4.9270   22.5640 C   0  0  0  0  0  0  0  0  0  0  0  0
  -22.4000   -4.3230   21.4440 F   0  0  0  0  0  0  0  0  0  0  0  0
  -21.0710   -4.0650   26.0250 F   0  0  0  0  0  0  0  0  0  0  0  0
  -23.0030  -13.5940   21.2910 C   0  0  0  0  0  0  0  0  0  0  0  0
  -22.3760  -12.8870   22.2240 N   0  0  0  0  0  0  0  0  0  0  0  0
  -22.5270  -14.6450   20.8600 O   0  0  0  0  0  0  0  0  0  0  0  0
  -22.7800  -12.0410   22.5970 H   0  0  0  0  0  0  0  0  0  0  0  0
  -21.4820  -13.2000   22.5770 H   0  0  0  0  0  0  0  0  0  0  0  0
  -25.5650  -15.2320   20.2380 N   0  0  0  0  0  0  0  0  0  0  0  0
  -24.8430  -15.8990   20.4850 H   0  0  0  0  0  0  0  0  0  0  0  0
  -26.3850  -15.6600   19.8260 H   0  0  0  0  0  0  0  0  0  0  0  0
  -28.7450  -25.5770   19.2440 C   0  0  0  0  0  2  0  0  0  0  0  0
  -28.4890  -26.6600   20.1870 O   0  0  0  0  0  0  0  0  0  0  0  0
  -24.4990  -31.7880   23.2250 C   0  0  0  0  0  0  0  0  0  0  0  0
  -27.3050  -27.3930   20.1400 C   0  0  0  0  0  0  0  0  0  0  0  0
  -23.3640  -30.3770   21.5460 C   0  0  0  0  0  3  0  0  0  0  0  0
  -24.8800  -28.8910   20.1280 C   0  0  0  0  0  0  0  0  0  0  0  0
  -25.8900  -30.7850   21.4050 C   0  0  0  0  0  2  0  0  0  0  0  0
  -26.0200  -29.4190   20.7470 C   0  0  0  0  0  0  0  0  0  0  0  0
  -27.2310  -28.6780   20.7500 C   0  0  0  0  0  3  0  0  0  0  0  0
  -26.1320  -26.8930   19.5270 C   0  0  0  0  0  3  0  0  0  0  0  0
  -24.9360  -27.6310   19.5160 C   0  0  0  0  0  3  0  0  0  0  0  0
  -23.6160  -29.7210   20.1630 C   0  0  0  0  0  2  0  0  0  0  0  0
  -24.6020  -30.9980   22.1170 N   0  0  0  0  0  0  0  0  0  0  0  0
  -23.4010  -32.0280   23.7450 O   0  0  0  0  0  0  0  0  0  0  0  0
  -22.7190  -29.3290   22.4820 C   0  0  0  0  0  0  0  0  0  0  0  0
  -21.3980  -29.1290   22.3420 N   0  0  0  0  0  0  0  0  0  0  0  0
  -23.4030  -28.6980   23.2910 O   0  0  0  0  0  0  0  0  0  0  0  0
  -20.9040  -29.6880   21.6600 H   0  0  0  0  0  0  0  0  0  0  0  0
  -18.0310  -27.9040   22.8310 C   0  0  0  0  0  0  0  0  0  0  0  0
  -20.5910  -28.1640   23.0890 C   0  0  0  0  0  3  0  0  0  0  0  0
  -20.6940  -26.7520   22.4680 C   0  0  0  0  0  2  0  0  0  0  0  0
  -19.5850  -26.4560   21.4530 C   0  0  0  0  0  2  0  0  0  0  0  0
  -18.2080  -26.5760   22.1120 C   0  0  0  0  0  2  0  0  0  0  0  0
  -19.1520  -28.6550   23.2760 C   0  0  0  0  0  0  0  0  0  0  0  0
  -18.9330  -29.8990   23.9100 C   0  0  0  0  0  3  0  0  0  0  0  0
  -17.6280  -30.3910   24.1000 C   0  0  0  0  0  3  0  0  0  0  0  0
  -16.5240  -29.6360   23.6690 C   0  0  0  0  0  3  0  0  0  0  0  0
  -16.7260  -28.3930   23.0430 C   0  0  0  0  0  3  0  0  0  0  0  0
  -25.7550  -32.4470   23.8770 C   0  0  0  0  0  3  0  0  0  0  0  0
  -25.4130  -33.8430   24.1840 N   0  0  0  0  0  0  0  0  0  0  0  0
  -25.7430  -34.8930   23.4210 C   0  0  0  0  0  0  0  0  0  0  0  0
  -26.4410  -34.7900   22.4070 O   0  0  0  0  0  0  0  0  0  0  0  0
  -24.7920  -33.9950   24.9640 H   0  0  0  0  0  0  0  0  0  0  0  0
  -23.9960  -36.6530   23.0000 C   0  0  0  0  0  1  0  0  0  0  0  0
  -25.2180  -36.2750   23.8520 C   0  0  0  0  0  3  0  0  0  0  0  0
  -27.3060  -37.2060   24.7480 C   0  0  0  0  0  1  0  0  0  0  0  0
  -26.2360  -37.3450   23.7640 N   0  0  0  0  0  0  0  0  0  0  0  0
  -25.8090  -38.2580   23.8880 H   0  0  0  0  0  0  0  0  0  0  0  0
  -26.2480  -31.6950   25.1730 C   0  0  1  0  0  0  0  0  0  0  0  0
  -25.1280  -31.4400   26.2080 C   0  0  0  0  0  1  0  0  0  0  0  0
  -26.8730  -30.3280   24.8100 C   0  0  0  0  0  1  0  0  0  0  0  0
  -27.3620  -32.5180   25.8620 C   0  0  0  0  0  1  0  0  0  0  0  0
  1  3  2  0
  1  2  1  0
  2  4  2  0
  3  6  1  0
  4  5  1  0
  4  8  1  0
  5  9  1  0
  6 10  1  0
  6  5  2  0
  7  3  1  0
 11 10  1  0
 12 25  1  0
 13 18  1  0
 14 15  1  0
 14 13  1  0
 16 15  1  0
 16 29  1  0
 16 17  1  0
 18 12  1  0
 18 17  1  0
 19 12  2  0
 20 22  1  0
 20 24  1  0
 21 23  1  0
 22 25  1  0
 24 10  1  0
 24 21  1  0
 25 23  1  0
 26 27  2  0
 27 46  1  0
 28 27  1  0
 28 31  1  0
 29 30  1  0
 29 26  1  0
 30 28  2  0
 31 32  1  0
 32 33  2  0
 34 37  1  0
 34 33  1  0
 35 34  2  0
 36 35  1  0
 36 31  2  0
 37 38  1  0
 38 43  2  0
 38 39  1  0
 39 40  2  0
 40 41  1  0
 41 45  1  0
 42 41  2  0
 43 42  1  0
 44 43  1  0
 46 47  1  0
 47 50  1  0
 47 49  1  0
 48 46  2  0
 51 26  1  0
 51 52  1  0
 53 51  1  0
 54  2  1  0
 54 55  1  0
 56 67  2  0
 57 55  1  0
 57 62  1  0
 58 66  1  0
 58 68  1  0
 59 65  1  0
 59 61  1  0
 60 66  1  0
 61 62  2  0
 61 60  1  0
 63 57  2  0
 64 63  1  0
 64 59  2  0
 65 58  1  0
 66 56  1  0
 68 70  2  0
 69 68  1  0
 71 69  1  0
 72 81  2  0
 72 77  1  0
 73 69  1  0
 73 77  1  0
 74 73  1  0
 75 76  1  0
 75 74  1  0
 76 72  1  0
 77 78  2  0
 78 79  1  0
 80 79  2  0
 81 80  1  0
 82 56  1  0
 82 83  1  0
 82 92  1  0
 83 86  1  0
 84 88  1  0
 84 83  1  0
 85 84  2  0
 88 87  1  0
 90 88  1  0
 90 91  1  0
 90 89  1  0
 92 95  1  1
 92 93  1  0
 94 92  1  0
M  ISO  4  12 100  25 100  54 101  55 101
M  END
>  <TORSDO>  (53) 
F 18

>  <SCORE>  (53) 
-13.668

>  <name>  (53) 
52

>  <ligand_id>  (53) 
52

>  <original_smiles>  (53) 
[H]c1c([H])c([H])c2c(c1[H])C([H])([H])C([H])([H])C([H])([H])C2([H])N([H])C(=O)C1([H])N(C(=O)C([H])(N([H])C(=O)C([H])(N([H])C([H])([H])[H])C([H])([H])[H])C(C([H])([H])[H])(C([H])([H])[H])C([H])([H])[H])C([H])([H])c2c([H])c(OC([H])([H])c3c([H])c(C([H])([H])[H])c(N([H])C4([H])C([H])([H])C([H])([H])N(C(=O)N5C([H])([H])C([H])([H])C([H])([H])C([H])(n6nc(-c7c([H])c([H])c(Oc8c([H])c([H])c(F)c([H])c8F)c([H])c7[H])c(C(=O)N([H])[H])c6N([H])[H])C5([H])[H])C([H])([H])C4([H])[H])c(C([H])([H])[H])c3C([H])([H])[H])c([H])c([H])c2C1([H])[H]

>  <smiles>  (53) 
[H]c1c([H])c([H])c2c(c1[H])C([H])([H])C([H])([H])C([H])([H])C2([H])N([H])C(=O)C1([H])N(C(=O)C([H])(N([H])C(=O)C([H])(N([H])C([H])([H])[H])C([H])([H])[H])C(C([H])([H])[H])(C([H])([H])[H])C([H])([H])[H])C([H])([H])c2c([H])c(OC([H])([H])c3c([H])c(C([H])([H])[H])c(N([H])C4([H])C([H])([H])C([H])([H])N(C(=O)N5C([H])([H])C([H])([H])C([H])([H])C([H])(n6nc(-c7c([H])c([H])c(Oc8c([H])c([H])c(F)c([H])c8F)c([H])c7[H])c(C(=O)N([H])[H])c6N([H])[H])C5([H])[H])C([H])([H])C4([H])[H])c(C([H])([H])[H])c3C([H])([H])[H])c([H])c([H])c2C1([H])[H]

$$$$
53:0:0
     RDKit          3D

 92101  0  0  1  0  0  0  0  0999 V2000
  -29.4990  -20.9110   19.1610 C   0  0  0  0  0  3  0  0  0  0  0  0
  -29.9480  -19.6030   19.4350 C   0  0  0  0  0  3  0  0  0  0  0  0
  -30.2430  -20.2080   21.7630 C   0  0  0  0  0  3  0  0  0  0  0  0
  -29.4120  -21.8990   20.1710 C   0  0  0  0  0  0  0  0  0  0  0  0
  -30.3230  -19.2340   20.7400 C   0  0  0  0  0  0  0  0  0  0  0  0
  -29.8020  -21.5330   21.4920 C   0  0  0  0  0  0  0  0  0  0  0  0
  -29.7710  -22.5290   22.6380 C   0  0  0  0  0  1  0  0  0  0  0  0
  -27.8400  -24.1860   20.4370 C   0  0  0  0  0  2  0  0  0  0  0  0
  -29.7450  -24.5790   19.6740 C   0  0  0  0  0  2  0  0  0  0  0  0
  -28.8930  -23.2940   19.7420 C   0  0  0  0  0  3  0  0  0  0  0  0
  -28.4150  -25.3620   19.6070 C   0  0  0  0  0  3  0  0  0  0  0  0
  -28.4140  -26.6780   20.1970 O   0  0  0  0  0  0  0  0  0  0  0  0
  -24.5970  -31.8850   23.2360 C   0  0  0  0  0  0  0  0  0  0  0  0
  -27.2430  -27.4200   20.1560 C   0  0  0  0  0  0  0  0  0  0  0  0
  -23.3980  -30.4960   21.5770 C   0  0  0  0  0  3  0  0  0  0  0  0
  -24.8550  -28.9590   20.1580 C   0  0  0  0  0  0  0  0  0  0  0  0
  -25.9310  -30.8360   21.4070 C   0  0  0  0  0  2  0  0  0  0  0  0
  -26.0120  -29.4640   20.7620 C   0  0  0  0  0  0  0  0  0  0  0  0
  -27.2050  -28.7010   20.7620 C   0  0  0  0  0  3  0  0  0  0  0  0
  -26.0600  -26.9410   19.5430 C   0  0  0  0  0  3  0  0  0  0  0  0
  -24.8750  -27.6950   19.5500 C   0  0  0  0  0  3  0  0  0  0  0  0
  -23.6180  -29.8250   20.1950 C   0  0  0  0  0  2  0  0  0  0  0  0
  -24.6590  -31.0890   22.1300 N   0  0  0  0  0  0  0  0  0  0  0  0
  -23.5130  -32.1600   23.7680 O   0  0  0  0  0  0  0  0  0  0  0  0
  -22.7370  -29.4730   22.5270 C   0  0  0  0  0  0  0  0  0  0  0  0
  -21.4130  -29.2960   22.3860 N   0  0  0  0  0  0  0  0  0  0  0  0
  -23.4090  -28.8410   23.3470 O   0  0  0  0  0  0  0  0  0  0  0  0
  -20.9290  -29.8520   21.6960 H   0  0  0  0  0  0  0  0  0  0  0  0
  -18.0360  -28.1100   22.8630 C   0  0  0  0  0  0  0  0  0  0  0  0
  -20.5920  -28.3550   23.1470 C   0  0  0  0  0  3  0  0  0  0  0  0
  -20.6910  -26.9280   22.5590 C   0  0  0  0  0  2  0  0  0  0  0  0
  -19.5910  -26.6190   21.5390 C   0  0  0  0  0  2  0  0  0  0  0  0
  -18.2080  -26.7650   22.1800 C   0  0  0  0  0  2  0  0  0  0  0  0
  -19.1550  -28.8630   23.3030 C   0  0  0  0  0  0  0  0  0  0  0  0
  -18.9410  -30.1240   23.9030 C   0  0  0  0  0  3  0  0  0  0  0  0
  -17.6380  -30.6290   24.0690 C   0  0  0  0  0  3  0  0  0  0  0  0
  -16.5320  -29.8750   23.6430 C   0  0  0  0  0  3  0  0  0  0  0  0
  -16.7330  -28.6160   23.0480 C   0  0  0  0  0  3  0  0  0  0  0  0
  -25.8810  -32.5070   23.8670 C   0  0  0  0  0  3  0  0  0  0  0  0
  -26.3820  -31.7340   25.1480 C   0  0  1  0  0  0  0  0  0  0  0  0
  -25.2800  -31.4990   26.2060 C   0  0  0  0  0  1  0  0  0  0  0  0
  -26.9650  -30.3540   24.7630 C   0  0  0  0  0  1  0  0  0  0  0  0
  -27.5260  -32.5250   25.8250 C   0  0  0  0  0  1  0  0  0  0  0  0
  -25.5790  -33.9060   24.1920 N   0  0  0  0  0  0  0  0  0  0  0  0
  -25.9090  -34.9530   23.4240 C   0  0  0  0  0  0  0  0  0  0  0  0
  -26.5700  -34.8410   22.3890 O   0  0  0  0  0  0  0  0  0  0  0  0
  -24.9900  -34.0660   24.9950 H   0  0  0  0  0  0  0  0  0  0  0  0
  -24.1810  -36.7470   23.0680 C   0  0  0  0  0  1  0  0  0  0  0  0
  -25.4250  -36.3440   23.8750 C   0  0  0  0  0  3  0  0  0  0  0  0
  -27.5600  -37.2380   24.6970 C   0  0  0  0  0  1  0  0  0  0  0  0
  -26.4570  -37.3970   23.7510 N   0  0  0  0  0  0  0  0  0  0  0  0
  -26.0500  -38.3180   23.8910 H   0  0  0  0  0  0  0  0  0  0  0  0
  -30.8660  -17.8210   20.9890 C   0  0  0  0  0  2  0  0  0  0  0  0
  -29.8160  -16.6830   20.8480 C   0  0  0  0  0  2  0  0  0  0  0  0
  -31.0000  -14.5440   20.1830 C   0  0  0  0  0  0  0  0  0  0  0  0
  -30.6420  -12.3950   19.0560 C   0  0  0  0  0  2  0  0  0  0  0  0
  -29.6790  -12.6500   17.8760 C   0  0  0  0  0  2  0  0  0  0  0  0
  -28.2100  -12.5450   18.3360 C   0  0  0  0  0  2  0  0  0  0  0  0
  -27.9170  -13.3690   19.6200 C   0  0  0  0  0  3  0  0  0  0  0  0
  -28.9980  -13.1240   20.7000 C   0  0  0  0  0  2  0  0  0  0  0  0
  -30.3100  -13.3790   20.0920 N   0  0  0  0  0  0  0  0  0  0  0  0
  -32.1900  -14.6470   19.8910 O   0  0  0  0  0  0  0  0  0  0  0  0
  -30.2280  -15.6120   19.9320 N   0  0  0  0  0  0  0  0  0  0  0  0
  -30.4270  -15.9810   19.0120 H   0  0  0  0  0  0  0  0  0  0  0  0
  -25.5430  -14.0250   20.3600 C   0  0  0  0  0  0  0  0  0  0  0  0
  -24.4660  -13.2720   20.7440 C   0  0  0  0  0  0  0  0  0  0  0  0
  -24.9030  -11.9130   20.7150 C   0  0  0  0  0  0  0  0  0  0  0  0
  -26.5690  -13.1210   20.1220 N   0  0  0  0  0  0  0  0  0  0  0  0
  -26.1890  -11.8480   20.3940 N   0  0  0  0  0  0  0  0  0  0  0  0
  -24.1580  -10.6650   20.9180 C   0  0  0  0  0  0  0  0  0  0  0  0
  -24.5690   -9.7080   21.8720 C   0  0  0  0  0  3  0  0  0  0  0  0
  -23.8270   -8.5220   22.0630 C   0  0  0  0  0  3  0  0  0  0  0  0
  -22.6600   -8.2850   21.3000 C   0  0  0  0  0  0  0  0  0  0  0  0
  -22.2660   -9.2300   20.3360 C   0  0  0  0  0  3  0  0  0  0  0  0
  -23.0090  -10.4070   20.1440 C   0  0  0  0  0  3  0  0  0  0  0  0
  -21.8900   -7.1510   21.3980 O   0  0  0  0  0  0  0  0  0  0  0  0
  -21.7930   -6.4480   22.5730 C   0  0  0  0  0  0  0  0  0  0  0  0
  -21.3060   -7.0400   23.7590 C   0  0  0  0  0  3  0  0  0  0  0  0
  -21.1580   -6.2630   24.9240 C   0  0  0  0  0  3  0  0  0  0  0  0
  -21.4870   -4.8940   24.9050 C   0  0  0  0  0  0  0  0  0  0  0  0
  -21.9660   -4.3010   23.7230 C   0  0  0  0  0  3  0  0  0  0  0  0
  -22.1160   -5.0770   22.5590 C   0  0  0  0  0  0  0  0  0  0  0  0
  -22.5580   -4.4950   21.4180 F   0  0  0  0  0  0  0  0  0  0  0  0
  -21.3360   -4.1440   26.0210 F   0  0  0  0  0  0  0  0  0  0  0  0
  -23.0800  -13.7740   21.0270 C   0  0  0  0  0  0  0  0  0  0  0  0
  -22.3520  -13.0990   21.9100 N   0  0  0  0  0  0  0  0  0  0  0  0
  -22.6510  -14.8010   20.5020 O   0  0  0  0  0  0  0  0  0  0  0  0
  -22.7100  -12.2680   22.3570 H   0  0  0  0  0  0  0  0  0  0  0  0
  -21.4210  -13.4180   22.1410 H   0  0  0  0  0  0  0  0  0  0  0  0
  -25.7310  -15.3890   20.1750 N   0  0  0  0  0  0  0  0  0  0  0  0
  -24.9830  -16.0630   20.3030 H   0  0  0  0  0  0  0  0  0  0  0  0
  -26.5960  -15.8130   19.8620 H   0  0  0  0  0  0  0  0  0  0  0  0
  1  2  2  0
  1  4  1  0
  2  5  1  0
  4  6  2  0
  5 53  1  0
  5  3  2  0
  6  3  1  0
  6  7  1  0
  9 10  1  0
 10  4  1  0
 10  8  1  0
 11  9  1  0
 11 12  1  0
 11  8  1  0
 13 24  2  0
 14 12  1  0
 14 19  1  0
 15 23  1  0
 15 25  1  0
 16 22  1  0
 16 18  1  0
 17 23  1  0
 18 19  2  0
 18 17  1  0
 20 21  1  0
 20 14  2  0
 21 16  2  0
 22 15  1  0
 23 13  1  0
 25 27  2  0
 26 25  1  0
 28 26  1  0
 29 38  2  0
 29 34  1  0
 30 26  1  0
 30 34  1  0
 31 30  1  0
 32 33  1  0
 32 31  1  0
 33 29  1  0
 34 35  2  0
 35 36  1  0
 37 36  2  0
 38 37  1  0
 39 13  1  0
 39 44  1  0
 39 40  1  0
 40 43  1  1
 40 41  1  0
 42 40  1  0
 44 47  1  0
 45 49  1  0
 45 44  1  0
 46 45  2  0
 49 48  1  0
 51 49  1  0
 51 52  1  0
 51 50  1  0
 54 53  1  0
 56 61  1  0
 57 58  1  0
 57 56  1  0
 59 58  1  0
 59 68  1  0
 59 60  1  0
 61 55  1  0
 61 60  1  0
 62 55  2  0
 63 55  1  0
 63 54  1  0
 64 63  1  0
 65 66  2  0
 66 85  1  0
 67 66  1  0
 67 70  1  0
 68 65  1  0
 68 69  1  0
 69 67  2  0
 70 71  1  0
 71 72  2  0
 73 76  1  0
 73 72  1  0
 74 73  2  0
 75 74  1  0
 75 70  2  0
 76 77  1  0
 77 78  1  0
 78 79  2  0
 80 79  1  0
 80 84  1  0
 81 80  2  0
 82 77  2  0
 82 81  1  0
 83 82  1  0
 85 86  1  0
 86 89  1  0
 86 88  1  0
 87 85  2  0
 90 91  1  0
 90 65  1  0
 92 90  1  0
M  ISO  4  11 101  12 101  55 100  63 100
M  END
>  <TORSDO>  (54) 
F 19

>  <SCORE>  (54) 
-14.335

>  <name>  (54) 
53

>  <ligand_id>  (54) 
53

>  <original_smiles>  (54) 
[H]c1c([H])c([H])c2c(c1[H])C([H])([H])C([H])([H])C([H])([H])C2([H])N([H])C(=O)C1([H])N(C(=O)C([H])(N([H])C(=O)C([H])(N([H])C([H])([H])[H])C([H])([H])[H])C(C([H])([H])[H])(C([H])([H])[H])C([H])([H])[H])C([H])([H])c2c([H])c(OC3([H])C([H])([H])C([H])(c4c([H])c([H])c(C([H])([H])C([H])([H])N([H])C(=O)N5C([H])([H])C([H])([H])C([H])([H])C([H])(n6nc(-c7c([H])c([H])c(Oc8c([H])c([H])c(F)c([H])c8F)c([H])c7[H])c(C(=O)N([H])[H])c6N([H])[H])C5([H])[H])c([H])c4C([H])([H])[H])C3([H])[H])c([H])c([H])c2C1([H])[H]

>  <smiles>  (54) 
[H]c1c([H])c([H])c2c(c1[H])C([H])([H])C([H])([H])C([H])([H])C2([H])N([H])C(=O)C1([H])N(C(=O)C([H])(N([H])C(=O)C([H])(N([H])C([H])([H])[H])C([H])([H])[H])C(C([H])([H])[H])(C([H])([H])[H])C([H])([H])[H])C([H])([H])c2c([H])c(OC3([H])C([H])([H])C([H])(c4c([H])c([H])c(C([H])([H])C([H])([H])N([H])C(=O)N5C([H])([H])C([H])([H])C([H])([H])C([H])(n6nc(-c7c([H])c([H])c(Oc8c([H])c([H])c(F)c([H])c8F)c([H])c7[H])c(C(=O)N([H])[H])c6N([H])[H])C5([H])[H])c([H])c4C([H])([H])[H])C3([H])[H])c([H])c([H])c2C1([H])[H]

$$$$
54:0:0
     RDKit          3D

 98107  0  0  1  0  0  0  0  0999 V2000
  -29.2630  -21.9140   19.8740 C   0  0  0  0  0  2  0  0  0  0  0  0
  -31.0400  -21.8360   21.6000 C   0  0  0  0  0  2  0  0  0  0  0  0
  -29.5000  -23.4350   19.6900 C   0  0  0  0  0  2  0  0  0  0  0  0
  -31.2910  -23.3450   21.4100 C   0  0  0  0  0  2  0  0  0  0  0  0
  -30.5670  -21.2070   20.2850 C   0  0  0  0  0  3  0  0  0  0  0  0
  -30.1060  -24.0900   20.8900 N   0  0  1  0  0  4  0  0  0  0  0  0
  -29.4120  -24.0630   21.6250 H   0  0  0  0  0  0  0  0  0  0  0  0
  -29.2550  -19.0220   20.5550 C   0  0  0  0  0  3  0  0  0  0  0  0
  -31.5760  -17.4780   20.3060 C   0  0  0  0  0  3  0  0  0  0  0  0
  -30.4940  -19.6710   20.3460 C   0  0  0  0  0  0  0  0  0  0  0  0
  -30.3370  -16.8260   20.5210 C   0  0  0  0  0  0  0  0  0  0  0  0
  -29.1660  -17.6070   20.6350 C   0  0  0  0  0  0  0  0  0  0  0  0
  -31.6710  -18.8900   20.2230 C   0  0  0  0  0  0  0  0  0  0  0  0
  -30.8440  -14.4200   19.9520 C   0  0  0  0  0  0  0  0  0  0  0  0
  -30.4760  -12.3030   18.7470 C   0  0  0  0  0  2  0  0  0  0  0  0
  -29.4810  -12.5650   17.5980 C   0  0  0  0  0  2  0  0  0  0  0  0
  -28.0260  -12.4270   18.0910 C   0  0  0  0  0  2  0  0  0  0  0  0
  -27.7600  -13.2170   19.4020 C   0  0  0  0  0  3  0  0  0  0  0  0
  -28.8630  -12.9390   20.4470 C   0  0  0  0  0  2  0  0  0  0  0  0
  -30.1640  -13.2480   19.8310 N   0  0  0  0  0  0  0  0  0  0  0  0
  -31.9480  -14.5920   19.4300 O   0  0  0  0  0  0  0  0  0  0  0  0
  -30.1800  -15.4010   20.5930 N   0  0  0  0  0  0  0  0  0  0  0  0
  -29.3480  -15.1040   21.0780 H   0  0  0  0  0  0  0  0  0  0  0  0
  -25.3740  -13.8070   20.1670 C   0  0  0  0  0  0  0  0  0  0  0  0
  -24.3330  -13.0280   20.5960 C   0  0  0  0  0  0  0  0  0  0  0  0
  -24.8180  -11.6840   20.5930 C   0  0  0  0  0  0  0  0  0  0  0  0
  -26.4280  -12.9370   19.9330 N   0  0  0  0  0  0  0  0  0  0  0  0
  -26.0980  -11.6570   20.2440 N   0  0  0  0  0  0  0  0  0  0  0  0
  -24.1210  -10.4160   20.8470 C   0  0  0  0  0  0  0  0  0  0  0  0
  -24.5490   -9.5290   21.8600 C   0  0  0  0  0  3  0  0  0  0  0  0
  -23.8530   -8.3240   22.0980 C   0  0  0  0  0  3  0  0  0  0  0  0
  -22.7160   -7.9970   21.3220 C   0  0  0  0  0  0  0  0  0  0  0  0
  -22.3080   -8.8710   20.3000 C   0  0  0  0  0  3  0  0  0  0  0  0
  -23.0050  -10.0670   20.0600 C   0  0  0  0  0  3  0  0  0  0  0  0
  -21.9930   -6.8370   21.4640 O   0  0  0  0  0  0  0  0  0  0  0  0
  -21.8520   -6.2220   22.6820 C   0  0  0  0  0  0  0  0  0  0  0  0
  -21.3080   -6.8950   23.7970 C   0  0  0  0  0  3  0  0  0  0  0  0
  -21.1170   -6.2040   25.0110 C   0  0  0  0  0  3  0  0  0  0  0  0
  -21.4590   -4.8420   25.1090 C   0  0  0  0  0  0  0  0  0  0  0  0
  -21.9950   -4.1690   23.9970 C   0  0  0  0  0  3  0  0  0  0  0  0
  -22.1880   -4.8570   22.7850 C   0  0  0  0  0  0  0  0  0  0  0  0
  -22.6850   -4.1980   21.7110 F   0  0  0  0  0  0  0  0  0  0  0  0
  -21.2670   -4.1760   26.2710 F   0  0  0  0  0  0  0  0  0  0  0  0
  -22.9370  -13.4890   20.9020 C   0  0  0  0  0  0  0  0  0  0  0  0
  -22.2630  -12.8260   21.8360 N   0  0  0  0  0  0  0  0  0  0  0  0
  -22.4510  -14.4740   20.3450 O   0  0  0  0  0  0  0  0  0  0  0  0
  -22.6680  -12.0310   22.3070 H   0  0  0  0  0  0  0  0  0  0  0  0
  -21.3280  -13.1180   22.0830 H   0  0  0  0  0  0  0  0  0  0  0  0
  -25.5060  -15.1730   19.9380 N   0  0  0  0  0  0  0  0  0  0  0  0
  -24.7310  -15.8170   20.0430 H   0  0  0  0  0  0  0  0  0  0  0  0
  -26.3420  -15.6160   19.5760 H   0  0  0  0  0  0  0  0  0  0  0  0
  -26.7700  -17.5530   20.4210 C   0  0  0  0  0  1  0  0  0  0  0  0
  -27.9810  -16.9210   20.8150 O   0  0  0  0  0  0  0  0  0  0  0  0
  -34.0700  -18.7850   19.9600 C   0  0  0  0  0  1  0  0  0  0  0  0
  -32.8690  -19.5470   20.0260 O   0  0  0  0  0  0  0  0  0  0  0  0
  -30.4520  -25.5270   20.6550 C   0  0  0  0  0  2  0  0  0  0  0  0
  -29.2960  -26.5300   20.8420 C   0  0  0  0  0  2  0  0  0  0  0  0
  -28.4820  -26.6060   19.6730 O   0  0  0  0  0  0  0  0  0  0  0  0
  -24.7090  -31.6520   23.0620 C   0  0  0  0  0  0  0  0  0  0  0  0
  -27.3340  -27.3590   19.7810 C   0  0  0  0  0  0  0  0  0  0  0  0
  -23.4670  -30.2600   21.4340 C   0  0  0  0  0  3  0  0  0  0  0  0
  -24.8980  -28.7900   19.9180 C   0  0  0  0  0  0  0  0  0  0  0  0
  -25.9680  -30.6890   21.1420 C   0  0  0  0  0  2  0  0  0  0  0  0
  -26.0620  -29.3320   20.4770 C   0  0  0  0  0  0  0  0  0  0  0  0
  -27.2800  -28.6240   20.4160 C   0  0  0  0  0  3  0  0  0  0  0  0
  -26.1580  -26.8340   19.2070 C   0  0  0  0  0  3  0  0  0  0  0  0
  -24.9400  -27.5370   19.2820 C   0  0  0  0  0  3  0  0  0  0  0  0
  -23.6360  -29.6130   20.0330 C   0  0  0  0  0  2  0  0  0  0  0  0
  -24.7350  -30.8810   21.9380 N   0  0  0  0  0  0  0  0  0  0  0  0
  -23.6470  -31.8850   23.6540 O   0  0  0  0  0  0  0  0  0  0  0  0
  -22.8800  -29.2030   22.3970 C   0  0  0  0  0  0  0  0  0  0  0  0
  -21.5590  -28.9770   22.3010 N   0  0  0  0  0  0  0  0  0  0  0  0
  -23.6080  -28.5880   23.1810 O   0  0  0  0  0  0  0  0  0  0  0  0
  -21.0330  -29.5250   21.6360 H   0  0  0  0  0  0  0  0  0  0  0  0
  -18.2450  -27.6560   22.8600 C   0  0  0  0  0  0  0  0  0  0  0  0
  -20.7970  -27.9990   23.0770 C   0  0  0  0  0  3  0  0  0  0  0  0
  -20.9360  -26.5820   22.4770 C   0  0  0  0  0  2  0  0  0  0  0  0
  -19.8230  -26.2350   21.4840 C   0  0  0  0  0  2  0  0  0  0  0  0
  -18.4510  -26.3230   22.1600 C   0  0  0  0  0  2  0  0  0  0  0  0
  -19.3460  -28.4510   23.2760 C   0  0  0  0  0  0  0  0  0  0  0  0
  -19.0990  -29.6980   23.8900 C   0  0  0  0  0  3  0  0  0  0  0  0
  -17.7810  -30.1520   24.0910 C   0  0  0  0  0  3  0  0  0  0  0  0
  -16.6950  -29.3560   23.6930 C   0  0  0  0  0  3  0  0  0  0  0  0
  -16.9270  -28.1100   23.0830 C   0  0  0  0  0  3  0  0  0  0  0  0
  -26.0070  -32.2950   23.6440 C   0  0  0  0  0  3  0  0  0  0  0  0
  -25.6770  -33.6680   24.0490 N   0  0  0  0  0  0  0  0  0  0  0  0
  -25.9450  -34.7590   23.3190 C   0  0  0  0  0  0  0  0  0  0  0  0
  -26.5710  -34.7180   22.2560 O   0  0  0  0  0  0  0  0  0  0  0  0
  -25.1150  -33.7720   24.8800 H   0  0  0  0  0  0  0  0  0  0  0  0
  -24.1420  -36.5010   23.1310 C   0  0  0  0  0  1  0  0  0  0  0  0
  -25.4410  -36.1120   23.8560 C   0  0  0  0  0  3  0  0  0  0  0  0
  -27.5880  -37.0400   24.6000 C   0  0  0  0  0  1  0  0  0  0  0  0
  -26.4300  -37.2050   23.7250 N   0  0  0  0  0  0  0  0  0  0  0  0
  -26.0030  -38.1030   23.9310 H   0  0  0  0  0  0  0  0  0  0  0  0
  -26.6160  -31.4860   24.8550 C   0  0  1  0  0  0  0  0  0  0  0  0
  -25.5880  -31.1680   25.9660 C   0  0  0  0  0  1  0  0  0  0  0  0
  -27.2150  -30.1450   24.3670 C   0  0  0  0  0  1  0  0  0  0  0  0
  -27.7770  -32.2850   25.4910 C   0  0  0  0  0  1  0  0  0  0  0  0
  1  5  1  0
  3  1  1  0
  3  6  1  0
  4  2  1  0
  5 10  1  0
  5  2  1  0
  6  4  1  0
  6  7  1  1
  8 12  1  0
  9 11  1  0
 10  8  2  0
 11 22  1  0
 11 12  2  0
 12 53  1  0
 13  9  2  0
 13 10  1  0
 14 22  1  0
 15 20  1  0
 16 17  1  0
 16 15  1  0
 18 17  1  0
 18 27  1  0
 18 19  1  0
 20 14  1  0
 20 19  1  0
 21 14  2  0
 22 23  1  0
 24 25  2  0
 25 44  1  0
 26 25  1  0
 26 29  1  0
 27 24  1  0
 27 28  1  0
 28 26  2  0
 29 30  1  0
 30 31  2  0
 32 35  1  0
 32 31  1  0
 33 32  2  0
 34 33  1  0
 34 29  2  0
 35 36  1  0
 36 41  2  0
 36 37  1  0
 37 38  2  0
 38 39  1  0
 39 43  1  0
 40 39  2  0
 41 40  1  0
 42 41  1  0
 44 45  1  0
 45 48  1  0
 45 47  1  0
 46 44  2  0
 49 50  1  0
 49 24  1  0
 51 49  1  0
 52 53  1  0
 54 55  1  0
 55 13  1  0
 56 57  1  0
 56  6  1  0
 58 60  1  0
 58 57  1  0
 59 70  2  0
 60 65  1  0
 61 69  1  0
 61 71  1  0
 62 68  1  0
 62 64  1  0
 63 69  1  0
 64 63  1  0
 65 64  2  0
 66 67  1  0
 66 60  2  0
 67 62  2  0
 68 61  1  0
 69 59  1  0
 71 73  2  0
 72 71  1  0
 74 72  1  0
 75 84  2  0
 75 80  1  0
 76 72  1  0
 76 80  1  0
 77 76  1  0
 78 79  1  0
 78 77  1  0
 79 75  1  0
 80 81  2  0
 81 82  1  0
 83 82  2  0
 84 83  1  0
 85 59  1  0
 85 86  1  0
 85 95  1  0
 86 89  1  0
 87 91  1  0
 87 86  1  0
 88 87  2  0
 91 90  1  0
 93 91  1  0
 93 94  1  0
 93 92  1  0
 95 98  1  1
 95 96  1  0
 97 95  1  0
M  ISO  4  14 100  22 100  57 101  58 101
M  END
>  <TORSDO>  (55) 
F 21

>  <SCORE>  (55) 
-12.239

>  <name>  (55) 
54

>  <ligand_id>  (55) 
54

>  <original_smiles>  (55) 
[H]c1c([H])c([H])c2c(c1[H])C([H])([H])C([H])([H])C([H])([H])C2([H])N([H])C(=O)C1([H])N(C(=O)C([H])(N([H])C(=O)C([H])(N([H])C([H])([H])[H])C([H])([H])[H])C(C([H])([H])[H])(C([H])([H])[H])C([H])([H])[H])C([H])([H])c2c([H])c(OC([H])([H])C([H])([H])[N+]3([H])C([H])([H])C([H])([H])C([H])(c4c([H])c(OC([H])([H])[H])c(N([H])C(=O)N5C([H])([H])C([H])([H])C([H])([H])C([H])(n6nc(-c7c([H])c([H])c(Oc8c([H])c([H])c(F)c([H])c8F)c([H])c7[H])c(C(=O)N([H])[H])c6N([H])[H])C5([H])[H])c([H])c4OC([H])([H])[H])C([H])([H])C3([H])[H])c([H])c([H])c2C1([H])[H]

>  <smiles>  (55) 
[H]c1c([H])c([H])c2c(c1[H])C([H])([H])C([H])([H])C([H])([H])C2([H])N([H])C(=O)C1([H])N(C(=O)C([H])(N([H])C(=O)C([H])(N([H])C([H])([H])[H])C([H])([H])[H])C(C([H])([H])[H])(C([H])([H])[H])C([H])([H])[H])C([H])([H])c2c([H])c(OC([H])([H])C([H])([H])[N+]3([H])C([H])([H])C([H])([H])C([H])(c4c([H])c(OC([H])([H])[H])c(N([H])C(=O)N5C([H])([H])C([H])([H])C([H])([H])C([H])(n6nc(-c7c([H])c([H])c(Oc8c([H])c([H])c(F)c([H])c8F)c([H])c7[H])c(C(=O)N([H])[H])c6N([H])[H])C5([H])[H])c([H])c4OC([H])([H])[H])C([H])([H])C3([H])[H])c([H])c([H])c2C1([H])[H]

$$$$
55:0:0
     RDKit          3D

 95104  0  0  1  0  0  0  0  0999 V2000
  -29.8170  -23.8270   20.9610 C   0  0  0  0  0  0  0  0  0  0  0  0
  -28.8850  -24.0280   19.9080 C   0  0  0  0  0  0  0  0  0  0  0  0
  -30.1380  -22.4950   21.3750 C   0  0  0  0  0  0  0  0  0  0  0  0
  -28.3520  -22.8410   19.3210 C   0  0  0  0  0  0  0  0  0  0  0  0
  -29.5880  -21.3830   20.6830 C   0  0  0  0  0  0  0  0  0  0  0  0
  -30.4930  -25.0280   21.6170 C   0  0  0  0  0  1  0  0  0  0  0  0
  -31.0910  -22.2710   22.5510 C   0  0  0  0  0  1  0  0  0  0  0  0
  -27.3530  -22.8940   18.1800 C   0  0  0  0  0  1  0  0  0  0  0  0
  -28.6990  -21.5730   19.6900 N   0  0  0  0  0  0  0  0  0  0  0  0
  -29.9910  -20.0640   21.0290 N   0  0  0  0  0  0  0  0  0  0  0  0
  -30.7430  -20.0140   21.7060 H   0  0  0  0  0  0  0  0  0  0  0  0
  -30.6620  -14.5890   20.0300 C   0  0  0  0  0  0  0  0  0  0  0  0
  -30.3310  -12.3900   18.9380 C   0  0  0  0  0  2  0  0  0  0  0  0
  -29.3340  -12.5670   17.7730 C   0  0  0  0  0  2  0  0  0  0  0  0
  -27.8820  -12.4250   18.2720 C   0  0  0  0  0  2  0  0  0  0  0  0
  -27.6010  -13.2600   19.5510 C   0  0  0  0  0  3  0  0  0  0  0  0
  -28.7120  -13.0600   20.6040 C   0  0  0  0  0  2  0  0  0  0  0  0
  -29.9890  -13.3980   19.9610 N   0  0  0  0  0  0  0  0  0  0  0  0
  -31.8150  -14.6830   19.5960 O   0  0  0  0  0  0  0  0  0  0  0  0
  -29.5770  -17.6940   21.7040 C   0  0  0  0  0  2  0  0  0  0  0  0
  -30.2920  -18.1660   19.3920 C   0  0  0  0  0  2  0  0  0  0  0  0
  -29.2000  -16.2300   21.3090 C   0  0  0  0  0  2  0  0  0  0  0  0
  -29.8610  -16.7190   18.9990 C   0  0  0  0  0  2  0  0  0  0  0  0
  -29.4790  -18.7510   20.5690 C   0  0  0  0  0  3  0  0  0  0  0  0
  -29.8930  -15.7290   20.1040 N   0  0  0  0  0  0  0  0  0  0  0  0
  -25.2510  -13.8660   20.3950 C   0  0  0  0  0  0  0  0  0  0  0  0
  -24.1980  -13.0940   20.8070 C   0  0  0  0  0  0  0  0  0  0  0  0
  -24.6480  -11.7400   20.7340 C   0  0  0  0  0  0  0  0  0  0  0  0
  -26.2760  -12.9810   20.0970 N   0  0  0  0  0  0  0  0  0  0  0  0
  -25.9200  -11.6970   20.3590 N   0  0  0  0  0  0  0  0  0  0  0  0
  -23.9220  -10.4810   20.9410 C   0  0  0  0  0  0  0  0  0  0  0  0
  -24.3670   -9.5180   21.8740 C   0  0  0  0  0  3  0  0  0  0  0  0
  -23.6420   -8.3220   22.0690 C   0  0  0  0  0  3  0  0  0  0  0  0
  -22.4570   -8.0830   21.3330 C   0  0  0  0  0  0  0  0  0  0  0  0
  -22.0310   -9.0340   20.3900 C   0  0  0  0  0  3  0  0  0  0  0  0
  -22.7570  -10.2210   20.1920 C   0  0  0  0  0  3  0  0  0  0  0  0
  -21.7030   -6.9390   21.4380 O   0  0  0  0  0  0  0  0  0  0  0  0
  -21.6320   -6.2280   22.6090 C   0  0  0  0  0  0  0  0  0  0  0  0
  -21.1900   -6.8170   23.8130 C   0  0  0  0  0  3  0  0  0  0  0  0
  -21.0670   -6.0340   24.9770 C   0  0  0  0  0  3  0  0  0  0  0  0
  -21.3750   -4.6600   24.9380 C   0  0  0  0  0  0  0  0  0  0  0  0
  -21.8100   -4.0700   23.7390 C   0  0  0  0  0  3  0  0  0  0  0  0
  -21.9350   -4.8520   22.5770 C   0  0  0  0  0  0  0  0  0  0  0  0
  -22.3340   -4.2730   21.4180 F   0  0  0  0  0  0  0  0  0  0  0  0
  -21.2490   -3.9040   26.0540 F   0  0  0  0  0  0  0  0  0  0  0  0
  -22.8210  -13.5780   21.1560 C   0  0  0  0  0  0  0  0  0  0  0  0
  -22.1330  -12.8770   22.0510 N   0  0  0  0  0  0  0  0  0  0  0  0
  -22.3640  -14.6120   20.6700 O   0  0  0  0  0  0  0  0  0  0  0  0
  -22.5170  -12.0420   22.4660 H   0  0  0  0  0  0  0  0  0  0  0  0
  -21.2100  -13.1840   22.3260 H   0  0  0  0  0  0  0  0  0  0  0  0
  -25.4160  -15.2360   20.2280 N   0  0  0  0  0  0  0  0  0  0  0  0
  -24.6610  -15.8940   20.3870 H   0  0  0  0  0  0  0  0  0  0  0  0
  -26.2510  -15.6730   19.8600 H   0  0  0  0  0  0  0  0  0  0  0  0
  -28.5960  -25.4470   19.2980 C   0  0  0  0  0  2  0  0  0  0  0  0
  -28.3730  -26.5850   20.1890 O   0  0  0  0  0  0  0  0  0  0  0  0
  -24.5910  -31.8750   23.2100 C   0  0  0  0  0  0  0  0  0  0  0  0
  -27.2110  -27.3560   20.1350 C   0  0  0  0  0  0  0  0  0  0  0  0
  -23.3830  -30.4740   21.5730 C   0  0  0  0  0  3  0  0  0  0  0  0
  -24.8290  -28.9280   20.1460 C   0  0  0  0  0  0  0  0  0  0  0  0
  -25.9170  -30.8070   21.3790 C   0  0  0  0  0  2  0  0  0  0  0  0
  -25.9950  -29.4300   20.7350 C   0  0  0  0  0  0  0  0  0  0  0  0
  -27.1840  -28.6520   20.7250 C   0  0  0  0  0  3  0  0  0  0  0  0
  -26.0100  -26.8810   19.5560 C   0  0  0  0  0  3  0  0  0  0  0  0
  -24.8360  -27.6560   19.5540 C   0  0  0  0  0  3  0  0  0  0  0  0
  -23.5910  -29.7980   20.1930 C   0  0  0  0  0  2  0  0  0  0  0  0
  -24.6490  -31.0690   22.1110 N   0  0  0  0  0  0  0  0  0  0  0  0
  -23.5100  -32.1510   23.7480 O   0  0  0  0  0  0  0  0  0  0  0  0
  -22.7270  -29.4550   22.5350 C   0  0  0  0  0  0  0  0  0  0  0  0
  -21.3990  -29.2840   22.4170 N   0  0  0  0  0  0  0  0  0  0  0  0
  -23.4100  -28.8230   23.3450 O   0  0  0  0  0  0  0  0  0  0  0  0
  -20.9080  -29.8470   21.7370 H   0  0  0  0  0  0  0  0  0  0  0  0
  -18.0190  -28.1120   22.9370 C   0  0  0  0  0  0  0  0  0  0  0  0
  -20.5800  -28.3500   23.1910 C   0  0  0  0  0  3  0  0  0  0  0  0
  -20.6670  -26.9200   22.6110 C   0  0  0  0  0  2  0  0  0  0  0  0
  -19.5560  -26.6090   21.6030 C   0  0  0  0  0  2  0  0  0  0  0  0
  -18.1800  -26.7630   22.2570 C   0  0  0  0  0  2  0  0  0  0  0  0
  -19.1460  -28.8640   23.3610 C   0  0  0  0  0  0  0  0  0  0  0  0
  -18.9400  -30.1280   23.9560 C   0  0  0  0  0  3  0  0  0  0  0  0
  -17.6410  -30.6400   24.1320 C   0  0  0  0  0  3  0  0  0  0  0  0
  -16.5280  -29.8840   23.7240 C   0  0  0  0  0  3  0  0  0  0  0  0
  -16.7180  -28.6220   23.1320 C   0  0  0  0  0  3  0  0  0  0  0  0
  -25.8760  -32.5060   23.8280 C   0  0  0  0  0  3  0  0  0  0  0  0
  -25.5680  -33.9050   24.1560 N   0  0  0  0  0  0  0  0  0  0  0  0
  -25.8960  -34.9560   23.3920 C   0  0  0  0  0  0  0  0  0  0  0  0
  -26.5590  -34.8500   22.3570 O   0  0  0  0  0  0  0  0  0  0  0  0
  -24.9780  -34.0620   24.9600 H   0  0  0  0  0  0  0  0  0  0  0  0
  -24.1630  -36.7450   23.0460 C   0  0  0  0  0  1  0  0  0  0  0  0
  -25.4110  -36.3450   23.8480 C   0  0  0  0  0  3  0  0  0  0  0  0
  -27.5510  -37.2350   24.6570 C   0  0  0  0  0  1  0  0  0  0  0  0
  -26.4400  -37.4000   23.7240 N   0  0  0  0  0  0  0  0  0  0  0  0
  -26.0350  -38.3200   23.8720 H   0  0  0  0  0  0  0  0  0  0  0  0
  -26.3940  -31.7370   25.1050 C   0  0  1  0  0  0  0  0  0  0  0  0
  -25.3040  -31.5010   26.1750 C   0  0  0  0  0  1  0  0  0  0  0  0
  -26.9770  -30.3580   24.7130 C   0  0  0  0  0  1  0  0  0  0  0  0
  -27.5470  -32.5310   25.7640 C   0  0  0  0  0  1  0  0  0  0  0  0
  1  3  1  0
  1  6  1  0
  2  1  2  0
  3  7  1  0
  4  9  2  0
  4  2  1  0
  5 10  1  0
  5  3  2  0
  8  4  1  0
  9  5  1  0
 10 11  1  0
 12 25  1  0
 13 18  1  0
 14 15  1  0
 14 13  1  0
 16 15  1  0
 16 29  1  0
 16 17  1  0
 18 12  1  0
 18 17  1  0
 19 12  2  0
 21 24  1  0
 22 20  1  0
 23 21  1  0
 23 25  1  0
 24 10  1  0
 24 20  1  0
 25 22  1  0
 26 27  2  0
 27 46  1  0
 28 27  1  0
 28 31  1  0
 29 30  1  0
 29 26  1  0
 30 28  2  0
 31 32  1  0
 32 33  2  0
 34 37  1  0
 34 33  1  0
 35 34  2  0
 36 35  1  0
 36 31  2  0
 37 38  1  0
 38 39  1  0
 39 40  2  0
 41 40  1  0
 41 45  1  0
 42 41  2  0
 43 38  2  0
 43 42  1  0
 44 43  1  0
 46 47  1  0
 47 50  1  0
 47 49  1  0
 48 46  2  0
 51 52  1  0
 51 26  1  0
 53 51  1  0
 54  2  1  0
 54 55  1  0
 56 67  2  0
 57 55  1  0
 57 62  1  0
 58 66  1  0
 58 68  1  0
 59 65  1  0
 59 61  1  0
 60 66  1  0
 61 60  1  0
 62 61  2  0
 63 57  2  0
 64 63  1  0
 64 59  2  0
 65 58  1  0
 66 56  1  0
 68 70  2  0
 69 68  1  0
 71 69  1  0
 72 81  2  0
 72 77  1  0
 73 69  1  0
 73 77  1  0
 74 73  1  0
 75 76  1  0
 75 74  1  0
 76 72  1  0
 77 78  2  0
 78 79  1  0
 80 79  2  0
 81 80  1  0
 82 56  1  0
 82 83  1  0
 82 92  1  0
 83 86  1  0
 84 88  1  0
 84 83  1  0
 85 84  2  0
 88 87  1  0
 90 88  1  0
 90 91  1  0
 90 89  1  0
 92 95  1  1
 92 93  1  0
 94 92  1  0
M  ISO  4  12 100  25 100  54 101  55 101
M  END
>  <TORSDO>  (56) 
F 18

>  <SCORE>  (56) 
-14.278

>  <name>  (56) 
55

>  <ligand_id>  (56) 
55

>  <original_smiles>  (56) 
[H]c1c([H])c([H])c2c(c1[H])C([H])([H])C([H])([H])C([H])([H])C2([H])N([H])C(=O)C1([H])N(C(=O)C([H])(N([H])C(=O)C([H])(N([H])C([H])([H])[H])C([H])([H])[H])C(C([H])([H])[H])(C([H])([H])[H])C([H])([H])[H])C([H])([H])c2c([H])c(OC([H])([H])c3c(C([H])([H])[H])nc(N([H])C4([H])C([H])([H])C([H])([H])N(C(=O)N5C([H])([H])C([H])([H])C([H])([H])C([H])(n6nc(-c7c([H])c([H])c(Oc8c([H])c([H])c(F)c([H])c8F)c([H])c7[H])c(C(=O)N([H])[H])c6N([H])[H])C5([H])[H])C([H])([H])C4([H])[H])c(C([H])([H])[H])c3C([H])([H])[H])c([H])c([H])c2C1([H])[H]

>  <smiles>  (56) 
[H]c1c([H])c([H])c2c(c1[H])C([H])([H])C([H])([H])C([H])([H])C2([H])N([H])C(=O)C1([H])N(C(=O)C([H])(N([H])C(=O)C([H])(N([H])C([H])([H])[H])C([H])([H])[H])C(C([H])([H])[H])(C([H])([H])[H])C([H])([H])[H])C([H])([H])c2c([H])c(OC([H])([H])c3c(C([H])([H])[H])nc(N([H])C4([H])C([H])([H])C([H])([H])N(C(=O)N5C([H])([H])C([H])([H])C([H])([H])C([H])(n6nc(-c7c([H])c([H])c(Oc8c([H])c([H])c(F)c([H])c8F)c([H])c7[H])c(C(=O)N([H])[H])c6N([H])[H])C5([H])[H])C([H])([H])C4([H])[H])c(C([H])([H])[H])c3C([H])([H])[H])c([H])c([H])c2C1([H])[H]

$$$$
56:0:0
     RDKit          3D

 95104  0  0  1  0  0  0  0  0999 V2000
  -26.1020  -24.3880   20.4300 C   0  0  0  0  0  3  0  0  0  0  0  0
  -24.8850  -23.8350   20.0110 C   0  0  0  0  0  3  0  0  0  0  0  0
  -27.3090  -23.6610   20.3030 C   0  0  0  0  0  0  0  0  0  0  0  0
  -24.8980  -22.5470   19.4730 C   0  0  0  0  0  0  0  0  0  0  0  0
  -27.2180  -22.3300   19.7750 C   0  0  0  0  0  0  0  0  0  0  0  0
  -23.6220  -21.8870   18.9940 C   0  0  0  0  0  1  0  0  0  0  0  0
  -26.0300  -21.8270   19.3660 N   0  0  0  0  0  0  0  0  0  0  0  0
  -28.3020  -21.4240   19.6320 N   0  0  0  0  0  0  0  0  0  0  0  0
  -29.2420  -21.7950   19.7020 H   0  0  0  0  0  0  0  0  0  0  0  0
  -28.0750  -20.0240   20.0760 C   0  0  0  0  0  2  0  0  0  0  0  0
  -31.0380  -15.0040   19.7380 C   0  0  0  0  0  0  0  0  0  0  0  0
  -30.7750  -12.6840   18.9470 C   0  0  0  0  0  2  0  0  0  0  0  0
  -29.7910  -12.6790   17.7590 C   0  0  0  0  0  2  0  0  0  0  0  0
  -28.3390  -12.5610   18.2600 C   0  0  0  0  0  2  0  0  0  0  0  0
  -28.0100  -13.5590   19.4040 C   0  0  0  0  0  3  0  0  0  0  0  0
  -29.1090  -13.5550   20.4880 C   0  0  0  0  0  2  0  0  0  0  0  0
  -30.3940  -13.8060   19.8200 N   0  0  0  0  0  0  0  0  0  0  0  0
  -32.1840  -15.0930   19.2850 O   0  0  0  0  0  0  0  0  0  0  0  0
  -29.2050  -18.1470   18.6730 C   0  0  0  0  0  2  0  0  0  0  0  0
  -29.1830  -17.9880   21.1360 C   0  0  0  0  0  2  0  0  0  0  0  0
  -30.3020  -17.0470   18.6570 C   0  0  0  0  0  2  0  0  0  0  0  0
  -30.2750  -16.8880   21.0780 C   0  0  0  0  0  2  0  0  0  0  0  0
  -29.2430  -18.9950   19.9590 C   0  0  0  0  0  3  0  0  0  0  0  0
  -30.2580  -16.1240   19.8180 N   0  0  0  0  0  0  0  0  0  0  0  0
  -25.7000  -14.2130   20.3180 C   0  0  0  0  0  0  0  0  0  0  0  0
  -24.6300  -13.4640   20.7270 C   0  0  0  0  0  0  0  0  0  0  0  0
  -25.0350  -12.0980   20.6040 C   0  0  0  0  0  0  0  0  0  0  0  0
  -26.6890  -13.3070   19.9710 N   0  0  0  0  0  0  0  0  0  0  0  0
  -26.2970  -12.0260   20.2030 N   0  0  0  0  0  0  0  0  0  0  0  0
  -24.2750  -10.8550   20.7930 C   0  0  0  0  0  0  0  0  0  0  0  0
  -24.6840   -9.8720   21.7200 C   0  0  0  0  0  3  0  0  0  0  0  0
  -23.9280   -8.6940   21.8960 C   0  0  0  0  0  3  0  0  0  0  0  0
  -22.7450   -8.4910   21.1460 C   0  0  0  0  0  0  0  0  0  0  0  0
  -22.3530   -9.4640   20.2080 C   0  0  0  0  0  3  0  0  0  0  0  0
  -23.1110  -10.6330   20.0310 C   0  0  0  0  0  3  0  0  0  0  0  0
  -21.9590   -7.3680   21.2320 O   0  0  0  0  0  0  0  0  0  0  0  0
  -21.8380   -6.6630   22.4020 C   0  0  0  0  0  0  0  0  0  0  0  0
  -21.3750   -7.2670   23.5910 C   0  0  0  0  0  3  0  0  0  0  0  0
  -21.1980   -6.4910   24.7540 C   0  0  0  0  0  3  0  0  0  0  0  0
  -21.4740   -5.1100   24.7280 C   0  0  0  0  0  0  0  0  0  0  0  0
  -21.9290   -4.5060   23.5430 C   0  0  0  0  0  3  0  0  0  0  0  0
  -22.1080   -5.2800   22.3840 C   0  0  0  0  0  0  0  0  0  0  0  0
  -22.5270   -4.6880   21.2400 F   0  0  0  0  0  0  0  0  0  0  0  0
  -21.2960   -4.3610   25.8420 F   0  0  0  0  0  0  0  0  0  0  0  0
  -23.2750  -13.9790   21.1170 C   0  0  0  0  0  0  0  0  0  0  0  0
  -22.5910  -13.2830   22.0180 N   0  0  0  0  0  0  0  0  0  0  0  0
  -22.8340  -15.0320   20.6600 O   0  0  0  0  0  0  0  0  0  0  0  0
  -22.9580  -12.4290   22.4090 H   0  0  0  0  0  0  0  0  0  0  0  0
  -21.6840  -13.6090   22.3200 H   0  0  0  0  0  0  0  0  0  0  0  0
  -25.9120  -15.5830   20.1940 N   0  0  0  0  0  0  0  0  0  0  0  0
  -25.2010  -16.2680   20.4270 H   0  0  0  0  0  0  0  0  0  0  0  0
  -26.7750  -15.9990   19.8700 H   0  0  0  0  0  0  0  0  0  0  0  0
  -28.6270  -24.3570   20.7210 C   0  0  0  0  0  2  0  0  0  0  0  0
  -28.5300  -25.6720   21.5890 C   0  0  0  0  0  2  0  0  0  0  0  0
  -28.6620  -26.9520   20.9180 O   0  0  0  0  0  0  0  0  0  0  0  0
  -24.6670  -32.2630   23.6040 C   0  0  0  0  0  0  0  0  0  0  0  0
  -27.5230  -27.7290   20.8380 C   0  0  0  0  0  0  0  0  0  0  0  0
  -23.5790  -30.7950   21.9390 C   0  0  0  0  0  3  0  0  0  0  0  0
  -25.1340  -29.2330   20.6470 C   0  0  0  0  0  0  0  0  0  0  0  0
  -26.1110  -31.1700   21.8880 C   0  0  0  0  0  2  0  0  0  0  0  0
  -26.2480  -29.7770   21.2990 C   0  0  0  0  0  0  0  0  0  0  0  0
  -27.4490  -29.0300   21.3970 C   0  0  0  0  0  3  0  0  0  0  0  0
  -26.4080  -27.2240   20.1420 C   0  0  0  0  0  3  0  0  0  0  0  0
  -25.2100  -27.9560   20.0630 C   0  0  0  0  0  3  0  0  0  0  0  0
  -23.8800  -30.0790   20.5950 C   0  0  0  0  0  2  0  0  0  0  0  0
  -24.8010  -31.4270   22.5360 N   0  0  0  0  0  0  0  0  0  0  0  0
  -23.5510  -32.5400   24.0680 O   0  0  0  0  0  0  0  0  0  0  0  0
  -22.8820  -29.7950   22.8900 C   0  0  0  0  0  0  0  0  0  0  0  0
  -21.5730  -29.5810   22.6820 N   0  0  0  0  0  0  0  0  0  0  0  0
  -23.5190  -29.2140   23.7720 O   0  0  0  0  0  0  0  0  0  0  0  0
  -21.1200  -30.1030   21.9460 H   0  0  0  0  0  0  0  0  0  0  0  0
  -18.1900  -28.3560   23.0160 C   0  0  0  0  0  0  0  0  0  0  0  0
  -20.7240  -28.6530   23.4290 C   0  0  0  0  0  3  0  0  0  0  0  0
  -20.8770  -27.2090   22.9000 C   0  0  0  0  0  2  0  0  0  0  0  0
  -19.8400  -26.8450   21.8320 C   0  0  0  0  0  2  0  0  0  0  0  0
  -18.4210  -26.9900   22.3900 C   0  0  0  0  0  2  0  0  0  0  0  0
  -19.2720  -29.1430   23.4910 C   0  0  0  0  0  0  0  0  0  0  0  0
  -19.0050  -30.4180   24.0340 C   0  0  0  0  0  3  0  0  0  0  0  0
  -17.6870  -30.9070   24.1090 C   0  0  0  0  0  3  0  0  0  0  0  0
  -16.6180  -30.1180   23.6520 C   0  0  0  0  0  3  0  0  0  0  0  0
  -16.8700  -28.8430   23.1120 C   0  0  0  0  0  3  0  0  0  0  0  0
  -25.9060  -32.9320   24.2800 C   0  0  0  0  0  3  0  0  0  0  0  0
  -26.2790  -32.2870   25.6700 C   0  0  1  0  0  0  0  0  0  0  0  0
  -25.0790  -32.1610   26.6390 C   0  0  0  0  0  1  0  0  0  0  0  0
  -26.8780  -30.8740   25.4750 C   0  0  0  0  0  1  0  0  0  0  0  0
  -27.3700  -33.1360   26.3660 C   0  0  0  0  0  1  0  0  0  0  0  0
  -25.6090  -34.3630   24.4340 N   0  0  0  0  0  0  0  0  0  0  0  0
  -26.0270  -35.3200   23.5940 C   0  0  0  0  0  0  0  0  0  0  0  0
  -26.7720  -35.0930   22.6370 O   0  0  0  0  0  0  0  0  0  0  0  0
  -24.9600  -34.6130   25.1650 H   0  0  0  0  0  0  0  0  0  0  0  0
  -24.3750  -37.0890   22.9130 C   0  0  0  0  0  1  0  0  0  0  0  0
  -25.5410  -36.7570   23.8590 C   0  0  0  0  0  3  0  0  0  0  0  0
  -27.6300  -37.6900   24.7510 C   0  0  0  0  0  1  0  0  0  0  0  0
  -26.6060  -37.7750   23.7130 N   0  0  0  0  0  0  0  0  0  0  0  0
  -26.2140  -38.7120   23.7310 H   0  0  0  0  0  0  0  0  0  0  0  0
  2  1  2  0
  3  1  1  0
  3 53  1  0
  4  2  1  0
  5  3  2  0
  6  4  1  0
  7  4  2  0
  7  5  1  0
  8  9  1  0
  8  5  1  0
  8 10  1  0
 11 24  1  0
 11 17  1  0
 12 17  1  0
 13 14  1  0
 13 12  1  0
 15 14  1  0
 15 28  1  0
 15 16  1  0
 17 16  1  0
 18 11  2  0
 19 23  1  0
 21 19  1  0
 21 24  1  0
 22 20  1  0
 23 10  1  0
 23 20  1  0
 24 22  1  0
 25 26  2  0
 26 45  1  0
 27 26  1  0
 27 30  1  0
 28 29  1  0
 28 25  1  0
 29 27  2  0
 30 31  1  0
 31 32  2  0
 33 36  1  0
 33 32  1  0
 34 33  2  0
 35 34  1  0
 35 30  2  0
 36 37  1  0
 37 38  1  0
 38 39  2  0
 40 39  1  0
 40 44  1  0
 41 40  2  0
 42 37  2  0
 42 41  1  0
 43 42  1  0
 45 46  1  0
 46 49  1  0
 46 48  1  0
 47 45  2  0
 50 25  1  0
 50 51  1  0
 52 50  1  0
 53 54  1  0
 55 54  1  0
 56 67  2  0
 57 55  1  0
 57 62  1  0
 58 66  1  0
 58 68  1  0
 59 61  1  0
 60 66  1  0
 61 62  2  0
 61 60  1  0
 63 57  2  0
 64 63  1  0
 64 59  2  0
 65 59  1  0
 65 58  1  0
 66 56  1  0
 68 70  2  0
 69 68  1  0
 71 69  1  0
 72 81  2  0
 72 77  1  0
 73 69  1  0
 73 77  1  0
 74 73  1  0
 75 76  1  0
 75 74  1  0
 76 72  1  0
 77 78  2  0
 78 79  1  0
 80 79  2  0
 81 80  1  0
 82 56  1  0
 82 87  1  0
 82 83  1  0
 83 86  1  1
 83 84  1  0
 85 83  1  0
 87 90  1  0
 88 92  1  0
 88 87  1  0
 89 88  2  0
 92 91  1  0
 94 95  1  0
 94 92  1  0
 94 93  1  0
M  ISO  4  11 100  24 100  54 101  55 101
M  END
>  <TORSDO>  (57) 
F 20

>  <SCORE>  (57) 
-11.565

>  <name>  (57) 
56

>  <ligand_id>  (57) 
56

>  <original_smiles>  (57) 
[H]c1c(C([H])([H])[H])nc(N([H])C([H])([H])C2([H])C([H])([H])C([H])([H])N(C(=O)N3C([H])([H])C([H])([H])C([H])([H])C([H])(n4nc(-c5c([H])c([H])c(Oc6c([H])c([H])c(F)c([H])c6F)c([H])c5[H])c(C(=O)N([H])[H])c4N([H])[H])C3([H])[H])C([H])([H])C2([H])[H])c(C([H])([H])C([H])([H])Oc2c([H])c([H])c3c(c2[H])C([H])([H])N(C(=O)C([H])(N([H])C(=O)C([H])(N([H])C([H])([H])[H])C([H])([H])[H])C(C([H])([H])[H])(C([H])([H])[H])C([H])([H])[H])C([H])(C(=O)N([H])C2([H])c4c([H])c([H])c([H])c([H])c4C([H])([H])C([H])([H])C2([H])[H])C3([H])[H])c1[H]

>  <smiles>  (57) 
[H]c1c(C([H])([H])[H])nc(N([H])C([H])([H])C2([H])C([H])([H])C([H])([H])N(C(=O)N3C([H])([H])C([H])([H])C([H])([H])C([H])(n4nc(-c5c([H])c([H])c(Oc6c([H])c([H])c(F)c([H])c6F)c([H])c5[H])c(C(=O)N([H])[H])c4N([H])[H])C3([H])[H])C([H])([H])C2([H])[H])c(C([H])([H])C([H])([H])Oc2c([H])c([H])c3c(c2[H])C([H])([H])N(C(=O)C([H])(N([H])C(=O)C([H])(N([H])C([H])([H])[H])C([H])([H])[H])C(C([H])([H])[H])(C([H])([H])[H])C([H])([H])[H])C([H])(C(=O)N([H])C2([H])c4c([H])c([H])c([H])c([H])c4C([H])([H])C([H])([H])C2([H])[H])C3([H])[H])c1[H]

$$$$
57:0:0
     RDKit          3D

 93101  0  0  1  0  0  0  0  0999 V2000
  -30.7260  -19.9510   19.3180 C   0  0  0  0  0  3  0  0  0  0  0  0
  -29.8080  -20.1900   21.5520 C   0  0  0  0  0  3  0  0  0  0  0  0
  -30.2730  -21.2460   18.9890 C   0  0  0  0  0  0  0  0  0  0  0  0
  -29.3380  -21.4840   21.2300 C   0  0  0  0  0  0  0  0  0  0  0  0
  -30.4900  -19.4000   20.5930 C   0  0  0  0  0  0  0  0  0  0  0  0
  -29.5760  -22.0210   19.9400 C   0  0  0  0  0  0  0  0  0  0  0  0
  -30.5070  -21.8010   17.5950 C   0  0  0  0  0  1  0  0  0  0  0  0
  -28.5280  -22.2420   22.2670 C   0  0  0  0  0  1  0  0  0  0  0  0
  -30.9260  -18.1060   20.8120 O   0  0  0  0  0  0  0  0  0  0  0  0
  -30.6780  -17.5140   22.0850 C   0  0  0  0  0  2  0  0  0  0  0  0
  -31.2880  -16.1040   22.1470 C   0  0  0  0  0  2  0  0  0  0  0  0
  -30.6920  -14.5140   20.3150 C   0  0  0  0  0  0  0  0  0  0  0  0
  -30.2130  -12.5510   18.8960 C   0  0  0  0  0  2  0  0  0  0  0  0
  -29.1940  -12.8530   17.7820 C   0  0  0  0  0  2  0  0  0  0  0  0
  -27.7560  -12.6690   18.2980 C   0  0  0  0  0  2  0  0  0  0  0  0
  -27.5060  -13.4160   19.6340 C   0  0  0  0  0  3  0  0  0  0  0  0
  -28.6220  -13.1080   20.6570 C   0  0  0  0  0  2  0  0  0  0  0  0
  -29.9280  -13.4240   20.0450 N   0  0  0  0  0  0  0  0  0  0  0  0
  -31.6230  -14.8880   19.5960 O   0  0  0  0  0  0  0  0  0  0  0  0
  -30.4540  -15.0910   21.4970 N   0  0  0  0  0  0  0  0  0  0  0  0
  -29.6940  -14.7030   22.0360 H   0  0  0  0  0  0  0  0  0  0  0  0
  -25.1310  -13.9630   20.4720 C   0  0  0  0  0  0  0  0  0  0  0  0
  -24.0970  -13.1630   20.8780 C   0  0  0  0  0  0  0  0  0  0  0  0
  -24.5790  -11.8210   20.7940 C   0  0  0  0  0  0  0  0  0  0  0  0
  -26.1810  -13.1070   20.1730 N   0  0  0  0  0  0  0  0  0  0  0  0
  -25.8530  -11.8130   20.4200 N   0  0  0  0  0  0  0  0  0  0  0  0
  -23.8870  -10.5410   20.9930 C   0  0  0  0  0  0  0  0  0  0  0  0
  -24.3620   -9.5790   21.9120 C   0  0  0  0  0  3  0  0  0  0  0  0
  -23.6690   -8.3630   22.0970 C   0  0  0  0  0  3  0  0  0  0  0  0
  -22.4870   -8.1020   21.3640 C   0  0  0  0  0  0  0  0  0  0  0  0
  -22.0320   -9.0520   20.4340 C   0  0  0  0  0  3  0  0  0  0  0  0
  -22.7260  -10.2580   20.2460 C   0  0  0  0  0  3  0  0  0  0  0  0
  -21.7610   -6.9380   21.4610 O   0  0  0  0  0  0  0  0  0  0  0  0
  -21.7290   -6.2040   22.6190 C   0  0  0  0  0  0  0  0  0  0  0  0
  -21.2680   -6.7510   23.8360 C   0  0  0  0  0  3  0  0  0  0  0  0
  -21.1870   -5.9410   24.9870 C   0  0  0  0  0  3  0  0  0  0  0  0
  -21.5550   -4.5850   24.9210 C   0  0  0  0  0  0  0  0  0  0  0  0
  -22.0090   -4.0360   23.7090 C   0  0  0  0  0  3  0  0  0  0  0  0
  -22.0920   -4.8430   22.5610 C   0  0  0  0  0  0  0  0  0  0  0  0
  -22.5100   -4.3050   21.3900 F   0  0  0  0  0  0  0  0  0  0  0  0
  -21.4690   -3.8030   26.0240 F   0  0  0  0  0  0  0  0  0  0  0  0
  -22.7070  -13.6060   21.2330 C   0  0  0  0  0  0  0  0  0  0  0  0
  -22.0350  -12.8730   22.1130 N   0  0  0  0  0  0  0  0  0  0  0  0
  -22.2250  -14.6370   20.7650 O   0  0  0  0  0  0  0  0  0  0  0  0
  -22.4370  -12.0360   22.5120 H   0  0  0  0  0  0  0  0  0  0  0  0
  -21.1050  -13.1500   22.3940 H   0  0  0  0  0  0  0  0  0  0  0  0
  -25.2630  -15.3400   20.3170 N   0  0  0  0  0  0  0  0  0  0  0  0
  -24.4940  -15.9840   20.4770 H   0  0  0  0  0  0  0  0  0  0  0  0
  -26.1010  -15.7990   19.9800 H   0  0  0  0  0  0  0  0  0  0  0  0
  -29.0130  -23.2000   19.5130 O   0  0  0  0  0  0  0  0  0  0  0  0
  -29.4350  -24.4370   20.0900 C   0  0  0  0  0  2  0  0  0  0  0  0
  -28.3120  -25.4060   19.6900 C   0  0  0  0  0  2  0  0  0  0  0  0
  -28.4510  -26.7820   20.0820 O   0  0  0  0  0  0  0  0  0  0  0  0
  -24.6090  -31.8820   23.2440 C   0  0  0  0  0  0  0  0  0  0  0  0
  -27.2840  -27.5290   20.0540 C   0  0  0  0  0  0  0  0  0  0  0  0
  -23.4160  -30.5130   21.5700 C   0  0  0  0  0  3  0  0  0  0  0  0
  -24.8820  -29.0350   20.1050 C   0  0  0  0  0  0  0  0  0  0  0  0
  -25.9450  -30.8920   21.3890 C   0  0  0  0  0  2  0  0  0  0  0  0
  -26.0400  -29.5410   20.7110 C   0  0  0  0  0  0  0  0  0  0  0  0
  -27.2430  -28.7950   20.6850 C   0  0  0  0  0  3  0  0  0  0  0  0
  -26.1020  -27.0570   19.4250 C   0  0  0  0  0  3  0  0  0  0  0  0
  -24.9090  -27.7930   19.4590 C   0  0  0  0  0  3  0  0  0  0  0  0
  -23.6310  -29.8790   20.1730 C   0  0  0  0  0  2  0  0  0  0  0  0
  -24.6750  -31.1090   22.1260 N   0  0  0  0  0  0  0  0  0  0  0  0
  -23.5250  -32.1350   23.7880 O   0  0  0  0  0  0  0  0  0  0  0  0
  -22.7720  -29.4600   22.5000 C   0  0  0  0  0  0  0  0  0  0  0  0
  -21.4500  -29.2640   22.3600 N   0  0  0  0  0  0  0  0  0  0  0  0
  -23.4580  -28.8260   23.3050 O   0  0  0  0  0  0  0  0  0  0  0  0
  -20.9610  -29.8290   21.6810 H   0  0  0  0  0  0  0  0  0  0  0  0
  -18.0850  -28.0290   22.8150 C   0  0  0  0  0  0  0  0  0  0  0  0
  -20.6400  -28.3020   23.1040 C   0  0  0  0  0  3  0  0  0  0  0  0
  -20.7590  -26.8850   22.4950 C   0  0  0  0  0  2  0  0  0  0  0  0
  -19.6620  -26.5770   21.4700 C   0  0  0  0  0  2  0  0  0  0  0  0
  -18.2750  -26.6970   22.1090 C   0  0  0  0  0  2  0  0  0  0  0  0
  -19.1960  -28.7900   23.2680 C   0  0  0  0  0  0  0  0  0  0  0  0
  -18.9640  -30.0390   23.8820 C   0  0  0  0  0  3  0  0  0  0  0  0
  -17.6550  -30.5260   24.0550 C   0  0  0  0  0  3  0  0  0  0  0  0
  -16.5590  -29.7590   23.6220 C   0  0  0  0  0  3  0  0  0  0  0  0
  -16.7750  -28.5140   23.0060 C   0  0  0  0  0  3  0  0  0  0  0  0
  -25.8910  -32.5070   23.8800 C   0  0  0  0  0  3  0  0  0  0  0  0
  -25.5840  -33.9050   24.2080 N   0  0  0  0  0  0  0  0  0  0  0  0
  -25.9110  -34.9540   23.4400 C   0  0  0  0  0  0  0  0  0  0  0  0
  -26.5720  -34.8470   22.4050 O   0  0  0  0  0  0  0  0  0  0  0  0
  -24.9980  -34.0640   25.0140 H   0  0  0  0  0  0  0  0  0  0  0  0
  -24.1710  -36.7370   23.0920 C   0  0  0  0  0  1  0  0  0  0  0  0
  -25.4230  -36.3430   23.8930 C   0  0  0  0  0  3  0  0  0  0  0  0
  -27.5600  -37.2420   24.6980 C   0  0  0  0  0  1  0  0  0  0  0  0
  -26.4500  -37.4000   23.7610 N   0  0  0  0  0  0  0  0  0  0  0  0
  -26.0410  -38.3190   23.9050 H   0  0  0  0  0  0  0  0  0  0  0  0
  -26.3940  -31.7300   25.1580 C   0  0  1  0  0  0  0  0  0  0  0  0
  -25.2880  -31.4860   26.2110 C   0  0  0  0  0  1  0  0  0  0  0  0
  -26.9840  -30.3530   24.7670 C   0  0  0  0  0  1  0  0  0  0  0  0
  -27.5410  -32.5210   25.8330 C   0  0  0  0  0  1  0  0  0  0  0  0
  1  5  1  0
  3  1  2  0
  3  6  1  0
  4  2  1  0
  4  8  1  0
  5  9  1  0
  5  2  2  0
  6  4  2  0
  7  3  1  0
  9 10  1  0
 10 11  1  0
 12 20  1  0
 13 18  1  0
 14 15  1  0
 14 13  1  0
 16 15  1  0
 16 25  1  0
 16 17  1  0
 18 12  1  0
 18 17  1  0
 19 12  2  0
 20 21  1  0
 20 11  1  0
 22 23  2  0
 23 42  1  0
 24 23  1  0
 24 27  1  0
 25 26  1  0
 25 22  1  0
 26 24  2  0
 27 28  1  0
 28 29  2  0
 30 33  1  0
 30 29  1  0
 31 30  2  0
 32 31  1  0
 32 27  2  0
 33 34  1  0
 34 35  1  0
 35 36  2  0
 37 36  1  0
 37 41  1  0
 38 37  2  0
 39 34  2  0
 39 38  1  0
 40 39  1  0
 42 43  1  0
 43 46  1  0
 43 45  1  0
 44 42  2  0
 47 22  1  0
 47 48  1  0
 49 47  1  0
 50  6  1  0
 50 51  1  0
 52 53  1  0
 52 51  1  0
 54 65  2  0
 55 53  1  0
 55 60  1  0
 56 64  1  0
 56 66  1  0
 57 63  1  0
 57 59  1  0
 58 64  1  0
 59 58  1  0
 60 59  2  0
 61 62  1  0
 61 55  2  0
 62 57  2  0
 63 56  1  0
 64 54  1  0
 66 68  2  0
 67 66  1  0
 69 67  1  0
 70 79  2  0
 70 75  1  0
 71 67  1  0
 71 75  1  0
 72 71  1  0
 73 74  1  0
 73 72  1  0
 74 70  1  0
 75 76  2  0
 76 77  1  0
 78 77  2  0
 79 78  1  0
 80 54  1  0
 80 81  1  0
 80 90  1  0
 81 84  1  0
 82 86  1  0
 82 81  1  0
 83 82  2  0
 86 85  1  0
 88 86  1  0
 88 89  1  0
 88 87  1  0
 90 93  1  1
 90 91  1  0
 92 90  1  0
M  ISO  4  12 100  20 100  52 101  53 101
M  END
>  <TORSDO>  (58) 
F 22

>  <SCORE>  (58) 
-12.719

>  <name>  (58) 
57

>  <ligand_id>  (58) 
57

>  <original_smiles>  (58) 
[H]c1c([H])c([H])c2c(c1[H])C([H])([H])C([H])([H])C([H])([H])C2([H])N([H])C(=O)C1([H])N(C(=O)C([H])(N([H])C(=O)C([H])(N([H])C([H])([H])[H])C([H])([H])[H])C(C([H])([H])[H])(C([H])([H])[H])C([H])([H])[H])C([H])([H])c2c([H])c(OC([H])([H])C([H])([H])Oc3c(C([H])([H])[H])c([H])c(OC([H])([H])C([H])([H])N([H])C(=O)N4C([H])([H])C([H])([H])C([H])([H])C([H])(n5nc(-c6c([H])c([H])c(Oc7c([H])c([H])c(F)c([H])c7F)c([H])c6[H])c(C(=O)N([H])[H])c5N([H])[H])C4([H])[H])c([H])c3C([H])([H])[H])c([H])c([H])c2C1([H])[H]

>  <smiles>  (58) 
[H]c1c([H])c([H])c2c(c1[H])C([H])([H])C([H])([H])C([H])([H])C2([H])N([H])C(=O)C1([H])N(C(=O)C([H])(N([H])C(=O)C([H])(N([H])C([H])([H])[H])C([H])([H])[H])C(C([H])([H])[H])(C([H])([H])[H])C([H])([H])[H])C([H])([H])c2c([H])c(OC([H])([H])C([H])([H])Oc3c(C([H])([H])[H])c([H])c(OC([H])([H])C([H])([H])N([H])C(=O)N4C([H])([H])C([H])([H])C([H])([H])C([H])(n5nc(-c6c([H])c([H])c(Oc7c([H])c([H])c(F)c([H])c7F)c([H])c6[H])c(C(=O)N([H])[H])c5N([H])[H])C4([H])[H])c([H])c3C([H])([H])[H])c([H])c([H])c2C1([H])[H]

$$$$
58:0:0
     RDKit          3D

 96104  0  0  1  0  0  0  0  0999 V2000
  -28.6390  -22.2980   19.5750 C   0  0  0  0  0  3  0  0  0  0  0  0
  -29.9460  -22.3970   21.6060 C   0  0  0  0  0  3  0  0  0  0  0  0
  -28.6820  -20.8760   19.6160 C   0  0  0  0  0  0  0  0  0  0  0  0
  -29.2670  -23.0860   20.5730 C   0  0  0  0  0  0  0  0  0  0  0  0
  -29.9760  -20.9720   21.6850 C   0  0  0  0  0  0  0  0  0  0  0  0
  -29.3390  -20.2010   20.6810 C   0  0  0  0  0  0  0  0  0  0  0  0
  -31.2390  -21.0000   23.7420 C   0  0  0  0  0  1  0  0  0  0  0  0
  -30.5840  -20.2720   22.7080 O   0  0  0  0  0  0  0  0  0  0  0  0
  -29.0410  -19.9620   17.2900 C   0  0  0  0  0  1  0  0  0  0  0  0
  -28.0680  -20.0690   18.4740 C   0  0  0  0  0  3  0  0  0  0  0  0
  -26.8610  -20.6300   17.9930 O   0  0  0  0  0  0  0  0  0  0  0  0
  -26.4780  -20.0010   17.3880 H   0  0  0  0  0  0  0  0  0  0  0  0
  -29.2850  -18.8130   20.7740 O   0  0  0  0  0  0  0  0  0  0  0  0
  -30.5070  -18.0750   20.5910 C   0  0  0  0  0  2  0  0  0  0  0  0
  -30.6540  -16.8520   21.5530 C   0  0  0  0  0  2  0  0  0  0  0  0
  -30.7980  -14.5600   20.4740 C   0  0  0  0  0  0  0  0  0  0  0  0
  -30.5000  -12.4100   19.2810 C   0  0  0  0  0  2  0  0  0  0  0  0
  -29.5620  -12.6110   18.0710 C   0  0  0  0  0  2  0  0  0  0  0  0
  -28.0860  -12.4800   18.4940 C   0  0  0  0  0  2  0  0  0  0  0  0
  -27.7480  -13.3180   19.7580 C   0  0  0  0  0  3  0  0  0  0  0  0
  -28.7950  -13.0780   20.8690 C   0  0  0  0  0  2  0  0  0  0  0  0
  -30.1180  -13.3910   20.3080 N   0  0  0  0  0  0  0  0  0  0  0  0
  -31.9290  -14.7440   20.0220 O   0  0  0  0  0  0  0  0  0  0  0  0
  -30.1200  -15.5550   21.0820 N   0  0  0  0  0  0  0  0  0  0  0  0
  -29.1750  -15.3340   21.3620 H   0  0  0  0  0  0  0  0  0  0  0  0
  -25.3450  -13.9550   20.4210 C   0  0  0  0  0  0  0  0  0  0  0  0
  -24.2670  -13.1960   20.7850 C   0  0  0  0  0  0  0  0  0  0  0  0
  -24.7190  -11.8400   20.7800 C   0  0  0  0  0  0  0  0  0  0  0  0
  -26.3890  -13.0620   20.2210 N   0  0  0  0  0  0  0  0  0  0  0  0
  -26.0130  -11.7860   20.4940 N   0  0  0  0  0  0  0  0  0  0  0  0
  -23.9790  -10.5860   20.9780 C   0  0  0  0  0  0  0  0  0  0  0  0
  -24.3900   -9.6290   21.9310 C   0  0  0  0  0  3  0  0  0  0  0  0
  -23.6520   -8.4390   22.1130 C   0  0  0  0  0  3  0  0  0  0  0  0
  -22.4910   -8.1990   21.3410 C   0  0  0  0  0  0  0  0  0  0  0  0
  -22.1000   -9.1450   20.3770 C   0  0  0  0  0  3  0  0  0  0  0  0
  -22.8370  -10.3260   20.1940 C   0  0  0  0  0  3  0  0  0  0  0  0
  -21.7260   -7.0600   21.4320 O   0  0  0  0  0  0  0  0  0  0  0  0
  -21.6470   -6.3380   22.5960 C   0  0  0  0  0  0  0  0  0  0  0  0
  -21.2000   -6.9150   23.8030 C   0  0  0  0  0  3  0  0  0  0  0  0
  -21.0680   -6.1210   24.9590 C   0  0  0  0  0  3  0  0  0  0  0  0
  -21.3730   -4.7480   24.9080 C   0  0  0  0  0  0  0  0  0  0  0  0
  -21.8120   -4.1680   23.7040 C   0  0  0  0  0  3  0  0  0  0  0  0
  -21.9460   -4.9610   22.5510 C   0  0  0  0  0  0  0  0  0  0  0  0
  -22.3500   -4.3930   21.3910 F   0  0  0  0  0  0  0  0  0  0  0  0
  -21.2380   -3.9820   26.0160 F   0  0  0  0  0  0  0  0  0  0  0  0
  -22.8690  -13.6860   21.0290 C   0  0  0  0  0  0  0  0  0  0  0  0
  -22.1240  -13.0100   21.8960 N   0  0  0  0  0  0  0  0  0  0  0  0
  -22.4460  -14.7070   20.4900 O   0  0  0  0  0  0  0  0  0  0  0  0
  -22.4760  -12.1810   22.3530 H   0  0  0  0  0  0  0  0  0  0  0  0
  -21.1890  -13.3250   22.1090 H   0  0  0  0  0  0  0  0  0  0  0  0
  -25.5230  -15.3220   20.2260 N   0  0  0  0  0  0  0  0  0  0  0  0
  -24.7610  -15.9850   20.3130 H   0  0  0  0  0  0  0  0  0  0  0  0
  -26.3850  -15.7540   19.9170 H   0  0  0  0  0  0  0  0  0  0  0  0
  -29.2990  -24.4850   20.5870 O   0  0  0  0  0  0  0  0  0  0  0  0
  -28.3060  -25.2200   19.8930 C   0  0  0  0  0  2  0  0  0  0  0  0
  -28.4130  -26.6320   20.1020 O   0  0  0  0  0  0  0  0  0  0  0  0
  -24.6490  -31.8810   23.1950 C   0  0  0  0  0  0  0  0  0  0  0  0
  -27.2540  -27.4050   20.0650 C   0  0  0  0  0  0  0  0  0  0  0  0
  -23.4260  -30.4870   21.5600 C   0  0  0  0  0  3  0  0  0  0  0  0
  -24.8650  -28.9580   20.1080 C   0  0  0  0  0  0  0  0  0  0  0  0
  -25.9570  -30.8340   21.3420 C   0  0  0  0  0  2  0  0  0  0  0  0
  -26.0330  -29.4640   20.6880 C   0  0  0  0  0  0  0  0  0  0  0  0
  -27.2280  -28.6970   20.6610 C   0  0  0  0  0  3  0  0  0  0  0  0
  -26.0640  -26.9420   19.4550 C   0  0  0  0  0  3  0  0  0  0  0  0
  -24.8810  -27.6990   19.4860 C   0  0  0  0  0  3  0  0  0  0  0  0
  -23.6180  -29.8160   20.1750 C   0  0  0  0  0  2  0  0  0  0  0  0
  -24.6960  -31.0830   22.0900 N   0  0  0  0  0  0  0  0  0  0  0  0
  -23.5740  -32.1510   23.7480 O   0  0  0  0  0  0  0  0  0  0  0  0
  -22.7850  -29.4610   22.5240 C   0  0  0  0  0  0  0  0  0  0  0  0
  -21.4590  -29.2770   22.4150 N   0  0  0  0  0  0  0  0  0  0  0  0
  -23.4790  -28.8310   23.3270 O   0  0  0  0  0  0  0  0  0  0  0  0
  -20.9570  -29.8400   21.7420 H   0  0  0  0  0  0  0  0  0  0  0  0
  -18.0980  -28.0610   22.9420 C   0  0  0  0  0  0  0  0  0  0  0  0
  -20.6570  -28.3310   23.1890 C   0  0  0  0  0  3  0  0  0  0  0  0
  -20.7620  -26.9010   22.6090 C   0  0  0  0  0  2  0  0  0  0  0  0
  -19.6510  -26.5740   21.6040 C   0  0  0  0  0  2  0  0  0  0  0  0
  -18.2750  -26.7130   22.2620 C   0  0  0  0  0  2  0  0  0  0  0  0
  -19.2170  -28.8280   23.3630 C   0  0  0  0  0  0  0  0  0  0  0  0
  -18.9990  -30.0900   23.9570 C   0  0  0  0  0  3  0  0  0  0  0  0
  -17.6940  -30.5820   24.1400 C   0  0  0  0  0  3  0  0  0  0  0  0
  -16.5890  -29.8110   23.7390 C   0  0  0  0  0  3  0  0  0  0  0  0
  -16.7920  -28.5530   23.1420 C   0  0  0  0  0  3  0  0  0  0  0  0
  -25.9410  -32.5130   23.8030 C   0  0  0  0  0  3  0  0  0  0  0  0
  -25.6300  -33.9050   24.1560 N   0  0  0  0  0  0  0  0  0  0  0  0
  -25.9370  -34.9690   23.4030 C   0  0  0  0  0  0  0  0  0  0  0  0
  -26.5860  -34.8830   22.3560 O   0  0  0  0  0  0  0  0  0  0  0  0
  -25.0610  -34.0480   24.9780 H   0  0  0  0  0  0  0  0  0  0  0  0
  -24.1920  -36.7570   23.1020 C   0  0  0  0  0  1  0  0  0  0  0  0
  -25.4490  -36.3480   23.8870 C   0  0  0  0  0  3  0  0  0  0  0  0
  -27.5920  -37.2380   24.6940 C   0  0  0  0  0  1  0  0  0  0  0  0
  -26.4720  -37.4100   23.7720 N   0  0  0  0  0  0  0  0  0  0  0  0
  -26.0610  -38.3240   23.9420 H   0  0  0  0  0  0  0  0  0  0  0  0
  -26.4880  -31.7300   25.0590 C   0  0  1  0  0  0  0  0  0  0  0  0
  -25.4210  -31.4660   26.1470 C   0  0  0  0  0  1  0  0  0  0  0  0
  -27.0780  -30.3630   24.6390 C   0  0  0  0  0  1  0  0  0  0  0  0
  -27.6430  -32.5290   25.7100 C   0  0  0  0  0  1  0  0  0  0  0  0
  1  3  2  0
  1  4  1  0
  2  5  1  0
  3  6  1  0
  4 54  1  0
  4  2  2  0
  5  8  1  0
  6 13  1  0
  6  5  2  0
  8  7  1  0
 10  9  1  0
 10  3  1  0
 11 10  1  0
 12 11  1  0
 14 13  1  0
 14 15  1  0
 16 24  1  0
 17 22  1  0
 18 19  1  0
 18 17  1  0
 20 19  1  0
 20 29  1  0
 20 21  1  0
 22 16  1  0
 22 21  1  0
 23 16  2  0
 24 25  1  0
 24 15  1  0
 26 27  2  0
 27 46  1  0
 28 27  1  0
 28 31  1  0
 29 26  1  0
 29 30  1  0
 30 28  2  0
 31 32  1  0
 32 33  2  0
 34 37  1  0
 34 33  1  0
 35 34  2  0
 36 35  1  0
 36 31  2  0
 37 38  1  0
 38 39  1  0
 39 40  2  0
 41 40  1  0
 41 45  1  0
 42 41  2  0
 43 38  2  0
 43 42  1  0
 44 43  1  0
 46 47  1  0
 47 50  1  0
 47 49  1  0
 48 46  2  0
 51 52  1  0
 51 26  1  0
 53 51  1  0
 55 56  1  0
 55 54  1  0
 57 68  2  0
 58 56  1  0
 58 63  1  0
 59 67  1  0
 59 69  1  0
 60 66  1  0
 60 62  1  0
 61 67  1  0
 62 61  1  0
 63 62  2  0
 64 65  1  0
 64 58  2  0
 65 60  2  0
 66 59  1  0
 67 57  1  0
 69 71  2  0
 70 69  1  0
 72 70  1  0
 73 82  2  0
 73 78  1  0
 74 70  1  0
 74 78  1  0
 75 74  1  0
 76 77  1  0
 76 75  1  0
 77 73  1  0
 78 79  2  0
 79 80  1  0
 81 80  2  0
 82 81  1  0
 83 57  1  0
 83 84  1  0
 83 93  1  0
 84 87  1  0
 85 89  1  0
 85 84  1  0
 86 85  2  0
 89 88  1  0
 91 89  1  0
 91 92  1  0
 91 90  1  0
 93 96  1  1
 93 94  1  0
 95 93  1  0
M  ISO  4  16 100  24 100  55 101  56 101
M  END
>  <TORSDO>  (59) 
F 24

>  <SCORE>  (59) 
-13.171

>  <name>  (59) 
58

>  <ligand_id>  (59) 
58

>  <original_smiles>  (59) 
[H]OC([H])(c1c([H])c(OC([H])([H])Oc2c([H])c([H])c3c(c2[H])C([H])([H])N(C(=O)C([H])(N([H])C(=O)C([H])(N([H])C([H])([H])[H])C([H])([H])[H])C(C([H])([H])[H])(C([H])([H])[H])C([H])([H])[H])C([H])(C(=O)N([H])C2([H])c4c([H])c([H])c([H])c([H])c4C([H])([H])C([H])([H])C2([H])[H])C3([H])[H])c([H])c(OC([H])([H])[H])c1OC([H])([H])C([H])([H])N([H])C(=O)N1C([H])([H])C([H])([H])C([H])([H])C([H])(n2nc(-c3c([H])c([H])c(Oc4c([H])c([H])c(F)c([H])c4F)c([H])c3[H])c(C(=O)N([H])[H])c2N([H])[H])C1([H])[H])C([H])([H])[H]

>  <smiles>  (59) 
[H]OC([H])(c1c([H])c(OC([H])([H])Oc2c([H])c([H])c3c(c2[H])C([H])([H])N(C(=O)C([H])(N([H])C(=O)C([H])(N([H])C([H])([H])[H])C([H])([H])[H])C(C([H])([H])[H])(C([H])([H])[H])C([H])([H])[H])C([H])(C(=O)N([H])C2([H])c4c([H])c([H])c([H])c([H])c4C([H])([H])C([H])([H])C2([H])[H])C3([H])[H])c([H])c(OC([H])([H])[H])c1OC([H])([H])C([H])([H])N([H])C(=O)N1C([H])([H])C([H])([H])C([H])([H])C([H])(n2nc(-c3c([H])c([H])c(Oc4c([H])c([H])c(F)c([H])c4F)c([H])c3[H])c(C(=O)N([H])[H])c2N([H])[H])C1([H])[H])C([H])([H])[H]

$$$$
59:0:0
     RDKit          3D

 98108  0  0  1  0  0  0  0  0999 V2000
  -29.6240  -24.2820   19.3660 C   0  0  0  0  0  3  0  0  0  0  0  0
  -28.0960  -23.4400   21.0450 C   0  0  0  0  0  3  0  0  0  0  0  0
  -29.7470  -23.0040   18.7770 C   0  0  0  0  0  0  0  0  0  0  0  0
  -28.8230  -24.5040   20.4950 C   0  0  0  0  0  0  0  0  0  0  0  0
  -28.1840  -22.1520   20.4850 C   0  0  0  0  0  0  0  0  0  0  0  0
  -29.0270  -21.9080   19.3590 C   0  0  0  0  0  0  0  0  0  0  0  0
  -27.3560  -21.0560   21.1440 C   0  0  0  0  0  1  0  0  0  0  0  0
  -31.9100  -23.7300   17.3990 C   0  0  0  0  0  2  0  0  0  0  0  0
  -30.7140  -23.9670   16.5040 C   0  0  0  0  0  2  0  0  0  0  0  0
  -30.6600  -22.8890   17.5640 C   0  0  0  0  0  3  0  0  0  0  0  0
  -28.6020  -20.3380   17.3910 C   0  0  0  0  0  1  0  0  0  0  0  0
  -29.1740  -20.4710   18.8220 C   0  0  0  0  0  3  0  0  0  0  0  0
  -31.0720  -18.7460   18.2080 C   0  0  0  0  0  2  0  0  0  0  0  0
  -30.8110  -19.5630   20.6110 C   0  0  0  0  0  2  0  0  0  0  0  0
  -30.4990  -17.3920   18.6420 C   0  0  0  0  0  2  0  0  0  0  0  0
  -30.2510  -18.1830   21.0120 C   0  0  0  0  0  2  0  0  0  0  0  0
  -30.6040  -19.9090   19.1130 C   0  0  0  0  0  3  0  0  0  0  0  0
  -30.8650  -17.1040   20.1100 C   0  0  0  0  0  3  0  0  0  0  0  0
  -31.1580  -14.6680   20.1070 C   0  0  0  0  0  0  0  0  0  0  0  0
  -30.7860  -12.4740   19.0860 C   0  0  0  0  0  2  0  0  0  0  0  0
  -29.8360  -12.6600   17.8860 C   0  0  0  0  0  2  0  0  0  0  0  0
  -28.3670  -12.5690   18.3410 C   0  0  0  0  0  2  0  0  0  0  0  0
  -28.0620  -13.4690   19.5700 C   0  0  0  0  0  3  0  0  0  0  0  0
  -29.1300  -13.2860   20.6730 C   0  0  0  0  0  2  0  0  0  0  0  0
  -30.4540  -13.5110   20.0720 N   0  0  0  0  0  0  0  0  0  0  0  0
  -32.2870  -14.7850   19.6240 O   0  0  0  0  0  0  0  0  0  0  0  0
  -30.4650  -15.7500   20.4890 N   0  0  0  0  0  0  0  0  0  0  0  0
  -29.5370  -15.6060   20.8590 H   0  0  0  0  0  0  0  0  0  0  0  0
  -25.7090  -14.1450   20.3660 C   0  0  0  0  0  0  0  0  0  0  0  0
  -24.6230  -13.4010   20.7450 C   0  0  0  0  0  0  0  0  0  0  0  0
  -25.0310  -12.0350   20.6610 C   0  0  0  0  0  0  0  0  0  0  0  0
  -26.7130  -13.2330   20.0800 N   0  0  0  0  0  0  0  0  0  0  0  0
  -26.3100  -11.9580   20.3130 N   0  0  0  0  0  0  0  0  0  0  0  0
  -24.2650  -10.7950   20.8350 C   0  0  0  0  0  0  0  0  0  0  0  0
  -24.6340   -9.8280   21.7960 C   0  0  0  0  0  3  0  0  0  0  0  0
  -23.8700   -8.6510   21.9580 C   0  0  0  0  0  3  0  0  0  0  0  0
  -22.7230   -8.4350   21.1580 C   0  0  0  0  0  0  0  0  0  0  0  0
  -22.3730   -9.3900   20.1880 C   0  0  0  0  0  3  0  0  0  0  0  0
  -23.1370  -10.5570   20.0240 C   0  0  0  0  0  3  0  0  0  0  0  0
  -21.9360   -7.3120   21.2280 O   0  0  0  0  0  0  0  0  0  0  0  0
  -21.7620   -6.6260   22.4030 C   0  0  0  0  0  0  0  0  0  0  0  0
  -21.1840   -7.2300   23.5410 C   0  0  0  0  0  3  0  0  0  0  0  0
  -20.9610   -6.4680   24.7060 C   0  0  0  0  0  3  0  0  0  0  0  0
  -21.3050   -5.1040   24.7330 C   0  0  0  0  0  0  0  0  0  0  0  0
  -21.8770   -4.5000   23.6000 C   0  0  0  0  0  3  0  0  0  0  0  0
  -22.1020   -5.2580   22.4370 C   0  0  0  0  0  0  0  0  0  0  0  0
  -22.6330   -4.6650   21.3410 F   0  0  0  0  0  0  0  0  0  0  0  0
  -21.0850   -4.3710   25.8490 F   0  0  0  0  0  0  0  0  0  0  0  0
  -23.2530  -13.9210   21.0740 C   0  0  0  0  0  0  0  0  0  0  0  0
  -22.5290  -13.2290   21.9470 N   0  0  0  0  0  0  0  0  0  0  0  0
  -22.8350  -14.9740   20.5930 O   0  0  0  0  0  0  0  0  0  0  0  0
  -22.8780  -12.3760   22.3570 H   0  0  0  0  0  0  0  0  0  0  0  0
  -21.6090  -13.5570   22.2080 H   0  0  0  0  0  0  0  0  0  0  0  0
  -25.9200  -15.5130   20.2230 N   0  0  0  0  0  0  0  0  0  0  0  0
  -25.1800  -16.1910   20.3700 H   0  0  0  0  0  0  0  0  0  0  0  0
  -26.7730  -15.9290   19.8730 H   0  0  0  0  0  0  0  0  0  0  0  0
  -28.7930  -25.8790   21.1270 C   0  0  0  0  0  2  0  0  0  0  0  0
  -28.7310  -26.9030   20.1420 O   0  0  0  0  0  0  0  0  0  0  0  0
  -24.6700  -31.7940   23.2630 C   0  0  0  0  0  0  0  0  0  0  0  0
  -27.5380  -27.5670   20.1360 C   0  0  0  0  0  0  0  0  0  0  0  0
  -23.5480  -30.3950   21.5550 C   0  0  0  0  0  3  0  0  0  0  0  0
  -25.0870  -28.9430   20.1310 C   0  0  0  0  0  0  0  0  0  0  0  0
  -26.0570  -30.8560   21.4230 C   0  0  0  0  0  2  0  0  0  0  0  0
  -26.2060  -29.5070   20.7570 C   0  0  0  0  0  0  0  0  0  0  0  0
  -27.4370  -28.8250   20.7600 C   0  0  0  0  0  3  0  0  0  0  0  0
  -26.4120  -26.9970   19.5130 C   0  0  0  0  0  3  0  0  0  0  0  0
  -25.1820  -27.6840   19.5080 C   0  0  0  0  0  3  0  0  0  0  0  0
  -23.8110  -29.7530   20.1650 C   0  0  0  0  0  2  0  0  0  0  0  0
  -24.7740  -31.0280   22.1400 N   0  0  0  0  0  0  0  0  0  0  0  0
  -23.5690  -32.0160   23.7850 O   0  0  0  0  0  0  0  0  0  0  0  0
  -22.9110  -29.3300   22.4750 C   0  0  0  0  0  0  0  0  0  0  0  0
  -21.5980  -29.1030   22.3030 N   0  0  0  0  0  0  0  0  0  0  0  0
  -23.5940  -28.7110   23.2950 O   0  0  0  0  0  0  0  0  0  0  0  0
  -21.1090  -29.6580   21.6150 H   0  0  0  0  0  0  0  0  0  0  0  0
  -18.2530  -27.7950   22.6810 C   0  0  0  0  0  0  0  0  0  0  0  0
  -20.7940  -28.1210   23.0270 C   0  0  0  0  0  3  0  0  0  0  0  0
  -20.9550  -26.7100   22.4150 C   0  0  0  0  0  2  0  0  0  0  0  0
  -19.8890  -26.3830   21.3640 C   0  0  0  0  0  2  0  0  0  0  0  0
  -18.4880  -26.4700   21.9760 C   0  0  0  0  0  2  0  0  0  0  0  0
  -19.3370  -28.5770   23.1600 C   0  0  0  0  0  0  0  0  0  0  0  0
  -19.0660  -29.8190   23.7770 C   0  0  0  0  0  3  0  0  0  0  0  0
  -17.7440  -30.2770   23.9200 C   0  0  0  0  0  3  0  0  0  0  0  0
  -16.6740  -29.4910   23.4590 C   0  0  0  0  0  3  0  0  0  0  0  0
  -16.9290  -28.2530   22.8450 C   0  0  0  0  0  3  0  0  0  0  0  0
  -25.9220  -32.4470   23.9280 C   0  0  0  0  0  3  0  0  0  0  0  0
  -26.4010  -31.6930   25.2290 C   0  0  1  0  0  0  0  0  0  0  0  0
  -25.2690  -31.4390   26.2530 C   0  0  0  0  0  1  0  0  0  0  0  0
  -27.0250  -30.3260   24.8680 C   0  0  0  0  0  1  0  0  0  0  0  0
  -27.5080  -32.5130   25.9340 C   0  0  0  0  0  1  0  0  0  0  0  0
  -25.5840  -33.8440   24.2300 N   0  0  0  0  0  0  0  0  0  0  0  0
  -25.9240  -34.8900   23.4640 C   0  0  0  0  0  0  0  0  0  0  0  0
  -26.6270  -34.7810   22.4550 O   0  0  0  0  0  0  0  0  0  0  0  0
  -24.9650  -34.0020   25.0100 H   0  0  0  0  0  0  0  0  0  0  0  0
  -24.1760  -36.6450   23.0310 C   0  0  0  0  0  1  0  0  0  0  0  0
  -25.4000  -36.2760   23.8840 C   0  0  0  0  0  3  0  0  0  0  0  0
  -27.4870  -37.2210   24.7680 C   0  0  0  0  0  1  0  0  0  0  0  0
  -26.4180  -37.3450   23.7810 N   0  0  0  0  0  0  0  0  0  0  0  0
  -25.9910  -38.2620   23.8900 H   0  0  0  0  0  0  0  0  0  0  0  0
  1  4  1  0
  3  6  1  0
  3  1  2  0
  4  2  2  0
  4 57  1  0
  5  2  1  0
  5  7  1  0
  6  5  2  0
  8 10  1  0
  9  8  1  0
  9 10  1  0
 10  3  1  0
 12 11  1  0
 12  6  1  0
 13 15  1  0
 13 17  1  0
 14 16  1  0
 15 18  1  0
 17 12  1  0
 17 14  1  0
 18 27  1  0
 18 16  1  0
 19 27  1  0
 20 25  1  0
 21 22  1  0
 21 20  1  0
 23 22  1  0
 23 32  1  0
 23 24  1  0
 25 19  1  0
 25 24  1  0
 26 19  2  0
 27 28  1  0
 29 30  2  0
 30 49  1  0
 31 30  1  0
 31 34  1  0
 32 33  1  0
 32 29  1  0
 33 31  2  0
 34 35  1  0
 35 36  2  0
 37 40  1  0
 37 36  1  0
 38 37  2  0
 39 38  1  0
 39 34  2  0
 40 41  1  0
 41 46  2  0
 41 42  1  0
 42 43  2  0
 43 44  1  0
 44 48  1  0
 45 44  2  0
 46 45  1  0
 47 46  1  0
 49 50  1  0
 50 53  1  0
 50 52  1  0
 51 49  2  0
 54 29  1  0
 54 55  1  0
 56 54  1  0
 58 57  1  0
 59 70  2  0
 60 58  1  0
 60 65  1  0
 61 69  1  0
 61 71  1  0
 62 68  1  0
 62 64  1  0
 63 69  1  0
 64 65  2  0
 64 63  1  0
 66 60  2  0
 67 66  1  0
 67 62  2  0
 68 61  1  0
 69 59  1  0
 71 73  2  0
 72 71  1  0
 74 72  1  0
 75 84  2  0
 75 80  1  0
 76 72  1  0
 76 80  1  0
 77 76  1  0
 78 79  1  0
 78 77  1  0
 79 75  1  0
 80 81  2  0
 81 82  1  0
 83 82  2  0
 84 83  1  0
 85 59  1  0
 85 90  1  0
 85 86  1  0
 86 89  1  1
 86 87  1  0
 88 86  1  0
 90 93  1  0
 91 95  1  0
 91 90  1  0
 92 91  2  0
 95 94  1  0
 97 95  1  0
 97 98  1  0
 97 96  1  0
M  ISO  4  19 100  27 100  57 101  58 101
M  END
>  <TORSDO>  (60) 
F 20

>  <SCORE>  (60) 
-12.809

>  <name>  (60) 
59

>  <ligand_id>  (60) 
59

>  <original_smiles>  (60) 
[H]c1c([H])c([H])c2c(c1[H])C([H])([H])C([H])([H])C([H])([H])C2([H])N([H])C(=O)C1([H])N(C(=O)C([H])(N([H])C(=O)C([H])(N([H])C([H])([H])[H])C([H])([H])[H])C(C([H])([H])[H])(C([H])([H])[H])C([H])([H])[H])C([H])([H])c2c([H])c(OC([H])([H])c3c([H])c(C([H])([H])[H])c(C([H])(C([H])([H])[H])C4([H])C([H])([H])C([H])([H])C([H])(N([H])C(=O)N5C([H])([H])C([H])([H])C([H])([H])C([H])(n6nc(-c7c([H])c([H])c(Oc8c([H])c([H])c(F)c([H])c8F)c([H])c7[H])c(C(=O)N([H])[H])c6N([H])[H])C5([H])[H])C([H])([H])C4([H])[H])c(C4([H])C([H])([H])C4([H])[H])c3[H])c([H])c([H])c2C1([H])[H]

>  <smiles>  (60) 
[H]c1c([H])c([H])c2c(c1[H])C([H])([H])C([H])([H])C([H])([H])C2([H])N([H])C(=O)C1([H])N(C(=O)C([H])(N([H])C(=O)C([H])(N([H])C([H])([H])[H])C([H])([H])[H])C(C([H])([H])[H])(C([H])([H])[H])C([H])([H])[H])C([H])([H])c2c([H])c(OC([H])([H])c3c([H])c(C([H])([H])[H])c(C([H])(C([H])([H])[H])C4([H])C([H])([H])C([H])([H])C([H])(N([H])C(=O)N5C([H])([H])C([H])([H])C([H])([H])C([H])(n6nc(-c7c([H])c([H])c(Oc8c([H])c([H])c(F)c([H])c8F)c([H])c7[H])c(C(=O)N([H])[H])c6N([H])[H])C5([H])[H])C([H])([H])C4([H])[H])c(C4([H])C([H])([H])C4([H])[H])c3[H])c([H])c([H])c2C1([H])[H]

$$$$
60:0:0
     RDKit          3D

 97106  0  0  1  0  0  0  0  0999 V2000
  -29.3370  -24.6420   21.1950 C   0  0  0  0  0  3  0  0  0  0  0  0
  -29.7210  -22.6380   19.8520 C   0  0  0  0  0  3  0  0  0  0  0  0
  -29.2420  -24.0020   19.9520 C   0  0  0  0  0  0  0  0  0  0  0  0
  -29.8270  -23.9760   22.3320 C   0  0  0  0  0  0  0  0  0  0  0  0
  -30.2580  -22.6210   22.2460 C   0  0  0  0  0  0  0  0  0  0  0  0
  -30.2240  -21.9220   20.9980 C   0  0  0  0  0  0  0  0  0  0  0  0
  -29.5650  -21.3710   24.3830 C   0  0  0  0  0  1  0  0  0  0  0  0
  -30.7250  -21.8960   23.5210 C   0  0  0  0  0  2  0  0  0  0  0  0
  -30.5520  -20.5270   21.0970 N   0  0  0  0  0  0  0  0  0  0  0  0
  -31.0660  -20.3570   21.9540 H   0  0  0  0  0  0  0  0  0  0  0  0
  -32.0290  -14.9730   20.1550 C   0  0  0  0  0  0  0  0  0  0  0  0
  -31.6850  -12.6720   19.2730 C   0  0  0  0  0  2  0  0  0  0  0  0
  -30.7350  -12.6900   18.0580 C   0  0  0  0  0  2  0  0  0  0  0  0
  -29.2690  -12.5710   18.5220 C   0  0  0  0  0  2  0  0  0  0  0  0
  -28.9330  -13.5300   19.6960 C   0  0  0  0  0  3  0  0  0  0  0  0
  -30.0180  -13.4860   20.7990 C   0  0  0  0  0  2  0  0  0  0  0  0
  -31.2890  -13.8090   20.1390 N   0  0  0  0  0  0  0  0  0  0  0  0
  -33.2370  -14.8790   19.9170 O   0  0  0  0  0  0  0  0  0  0  0  0
  -29.8940  -18.1530   20.8710 C   0  0  0  0  0  2  0  0  0  0  0  0
  -32.1020  -18.7890   20.0730 C   0  0  0  0  0  2  0  0  0  0  0  0
  -30.0590  -16.7200   20.2520 C   0  0  0  0  0  2  0  0  0  0  0  0
  -32.2070  -17.3710   19.4040 C   0  0  0  0  0  2  0  0  0  0  0  0
  -30.6600  -19.3380   20.2050 C   0  0  0  0  0  3  0  0  0  0  0  0
  -31.4570  -16.2520   20.0620 N   0  0  0  0  0  0  0  0  0  0  0  0
  -26.6140  -14.2300   20.5410 C   0  0  0  0  0  0  0  0  0  0  0  0
  -25.5140  -13.5030   20.9010 C   0  0  0  0  0  0  0  0  0  0  0  0
  -25.8890  -12.1300   20.7740 C   0  0  0  0  0  0  0  0  0  0  0  0
  -27.5930  -13.3020   20.2210 N   0  0  0  0  0  0  0  0  0  0  0  0
  -27.1640  -12.0300   20.4210 N   0  0  0  0  0  0  0  0  0  0  0  0
  -25.0900  -10.9070   20.9130 C   0  0  0  0  0  0  0  0  0  0  0  0
  -25.3820   -9.9410   21.9010 C   0  0  0  0  0  3  0  0  0  0  0  0
  -24.5870   -8.7810   22.0250 C   0  0  0  0  0  3  0  0  0  0  0  0
  -23.4860   -8.5810   21.1610 C   0  0  0  0  0  0  0  0  0  0  0  0
  -23.2140   -9.5330   20.1630 C   0  0  0  0  0  3  0  0  0  0  0  0
  -24.0090  -10.6840   20.0360 C   0  0  0  0  0  3  0  0  0  0  0  0
  -22.6750   -7.4720   21.1920 O   0  0  0  0  0  0  0  0  0  0  0  0
  -22.3010   -6.8880   22.3750 C   0  0  0  0  0  0  0  0  0  0  0  0
  -21.5510   -7.5860   23.3470 C   0  0  0  0  0  3  0  0  0  0  0  0
  -21.1280   -6.9260   24.5180 C   0  0  0  0  0  3  0  0  0  0  0  0
  -21.4440   -5.5690   24.7160 C   0  0  0  0  0  0  0  0  0  0  0  0
  -22.1850   -4.8700   23.7470 C   0  0  0  0  0  3  0  0  0  0  0  0
  -22.6100   -5.5280   22.5790 C   0  0  0  0  0  0  0  0  0  0  0  0
  -23.3070   -4.8460   21.6400 F   0  0  0  0  0  0  0  0  0  0  0  0
  -21.0320   -4.9330   25.8370 F   0  0  0  0  0  0  0  0  0  0  0  0
  -24.1590  -14.0490   21.2460 C   0  0  0  0  0  0  0  0  0  0  0  0
  -23.4420  -13.3860   22.1460 N   0  0  0  0  0  0  0  0  0  0  0  0
  -23.7490  -15.1000   20.7520 O   0  0  0  0  0  0  0  0  0  0  0  0
  -23.7890  -12.5370   22.5670 H   0  0  0  0  0  0  0  0  0  0  0  0
  -22.5330  -13.7320   22.4160 H   0  0  0  0  0  0  0  0  0  0  0  0
  -26.8470  -15.5980   20.4350 N   0  0  0  0  0  0  0  0  0  0  0  0
  -26.1190  -16.2760   20.6260 H   0  0  0  0  0  0  0  0  0  0  0  0
  -27.7010  -16.0180   20.0930 H   0  0  0  0  0  0  0  0  0  0  0  0
  -28.5210  -24.7750   18.7980 C   0  0  0  0  0  2  0  0  0  0  0  0
  -28.5920  -26.2680   18.7830 O   0  0  0  0  0  0  0  0  0  0  0  0
  -24.4810  -30.9520   22.4260 C   0  0  0  0  0  0  0  0  0  0  0  0
  -27.4280  -27.0580   18.7950 C   0  0  0  0  0  0  0  0  0  0  0  0
  -23.4090  -29.7720   20.5420 C   0  0  0  0  0  3  0  0  0  0  0  0
  -24.9840  -28.5450   18.9500 C   0  0  0  0  0  0  0  0  0  0  0  0
  -25.9330  -30.2340   20.5170 C   0  0  0  0  0  2  0  0  0  0  0  0
  -26.1060  -28.9790   19.6670 C   0  0  0  0  0  0  0  0  0  0  0  0
  -27.3270  -28.2450   19.5870 C   0  0  0  0  0  3  0  0  0  0  0  0
  -26.2850  -26.7000   18.0390 C   0  0  0  0  0  3  0  0  0  0  0  0
  -25.0770  -27.4120   18.1300 C   0  0  0  0  0  3  0  0  0  0  0  0
  -23.7040  -29.3420   19.0840 C   0  0  0  0  0  2  0  0  0  0  0  0
  -24.6240  -30.3300   21.2190 N   0  0  0  0  0  0  0  0  0  0  0  0
  -23.3660  -31.0870   22.9520 O   0  0  0  0  0  0  0  0  0  0  0  0
  -22.7780  -28.5810   21.3020 C   0  0  0  0  0  0  0  0  0  0  0  0
  -21.4590  -28.3870   21.1330 N   0  0  0  0  0  0  0  0  0  0  0  0
  -23.4710  -27.8440   22.0070 O   0  0  0  0  0  0  0  0  0  0  0  0
  -20.9550  -29.0380   20.5480 H   0  0  0  0  0  0  0  0  0  0  0  0
  -18.1160  -27.0300   21.3930 C   0  0  0  0  0  0  0  0  0  0  0  0
  -20.6660  -27.3070   21.7220 C   0  0  0  0  0  3  0  0  0  0  0  0
  -20.8100  -26.0030   20.9060 C   0  0  0  0  0  2  0  0  0  0  0  0
  -19.7190  -25.8320   19.8440 C   0  0  0  0  0  2  0  0  0  0  0  0
  -18.3330  -25.8240   20.4940 C   0  0  0  0  0  2  0  0  0  0  0  0
  -19.2120  -27.7350   21.9580 C   0  0  0  0  0  0  0  0  0  0  0  0
  -18.9560  -28.8680   22.7600 C   0  0  0  0  0  3  0  0  0  0  0  0
  -17.6370  -29.2960   23.0030 C   0  0  0  0  0  3  0  0  0  0  0  0
  -16.5560  -28.5850   22.4530 C   0  0  0  0  0  3  0  0  0  0  0  0
  -16.7960  -27.4530   21.6550 C   0  0  0  0  0  3  0  0  0  0  0  0
  -25.7050  -31.5410   23.1900 C   0  0  0  0  0  3  0  0  0  0  0  0
  -25.2560  -32.7670   23.8650 N   0  0  0  0  0  0  0  0  0  0  0  0
  -25.5810  -34.0090   23.4850 C   0  0  0  0  0  0  0  0  0  0  0  0
  -26.3570  -34.2410   22.5530 O   0  0  0  0  0  0  0  0  0  0  0  0
  -24.5740  -32.6530   24.6010 H   0  0  0  0  0  0  0  0  0  0  0  0
  -23.8040  -35.7880   23.4310 C   0  0  0  0  0  1  0  0  0  0  0  0
  -24.9470  -35.1790   24.2600 C   0  0  0  0  0  3  0  0  0  0  0  0
  -26.8730  -35.8170   25.6440 C   0  0  0  0  0  1  0  0  0  0  0  0
  -25.9140  -36.2370   24.6250 N   0  0  0  0  0  0  0  0  0  0  0  0
  -25.4310  -37.0650   24.9650 H   0  0  0  0  0  0  0  0  0  0  0  0
  -26.3340  -30.5320   24.2280 C   0  0  1  0  0  0  0  0  0  0  0  0
  -25.2990  -29.9150   25.2000 C   0  0  0  0  0  1  0  0  0  0  0  0
  -27.0470  -29.3700   23.4990 C   0  0  0  0  0  1  0  0  0  0  0  0
  -27.4120  -31.2540   25.0720 C   0  0  0  0  0  1  0  0  0  0  0  0
  -29.8130  -24.7550   23.6410 C   0  0  0  0  0  2  0  0  0  0  0  0
  -28.3160  -26.0990   24.8840 C   0  0  0  0  0  1  0  0  0  0  0  0
  -28.4900  -24.9050   24.1380 O   0  0  0  0  0  0  0  0  0  0  0  0
  1  4  1  0
  2  3  1  0
  2  6  2  0
  3  1  2  0
  4 95  1  0
  5  4  2  0
  5  8  1  0
  6  9  1  0
  6  5  1  0
  8  7  1  0
  9 10  1  0
 12 17  1  0
 13 14  1  0
 13 12  1  0
 15 14  1  0
 15 28  1  0
 15 16  1  0
 17 11  1  0
 17 16  1  0
 18 11  2  0
 20 23  1  0
 21 19  1  0
 22 24  1  0
 22 20  1  0
 23 19  1  0
 23  9  1  0
 24 11  1  0
 24 21  1  0
 25 26  2  0
 26 45  1  0
 27 26  1  0
 27 30  1  0
 28 29  1  0
 28 25  1  0
 29 27  2  0
 30 31  1  0
 31 32  2  0
 33 36  1  0
 33 32  1  0
 34 33  2  0
 35 34  1  0
 35 30  2  0
 36 37  1  0
 37 42  2  0
 37 38  1  0
 38 39  2  0
 39 40  1  0
 40 44  1  0
 41 40  2  0
 42 41  1  0
 43 42  1  0
 45 46  1  0
 46 49  1  0
 46 48  1  0
 47 45  2  0
 50 25  1  0
 50 51  1  0
 52 50  1  0
 53  3  1  0
 54 56  1  0
 54 53  1  0
 55 66  2  0
 56 61  1  0
 57 65  1  0
 57 67  1  0
 58 64  1  0
 58 60  1  0
 59 65  1  0
 60 59  1  0
 61 60  2  0
 62 63  1  0
 62 56  2  0
 63 58  2  0
 64 57  1  0
 65 55  1  0
 67 69  2  0
 68 67  1  0
 70 68  1  0
 71 80  2  0
 71 76  1  0
 72 68  1  0
 72 76  1  0
 73 72  1  0
 74 75  1  0
 74 73  1  0
 75 71  1  0
 76 77  2  0
 77 78  1  0
 79 78  2  0
 80 79  1  0
 81 55  1  0
 81 82  1  0
 81 91  1  0
 82 85  1  0
 83 82  1  0
 83 87  1  0
 84 83  2  0
 87 86  1  0
 87 89  1  0
 89 90  1  0
 89 88  1  0
 91 94  1  1
 91 92  1  0
 93 91  1  0
 95 97  1  0
 97 96  1  0
M  ISO  4  11 100  24 100  53 101  54 101
M  END
>  <TORSDO>  (61) 
F 21

>  <SCORE>  (61) 
-8.464

>  <name>  (61) 
60

>  <ligand_id>  (61) 
60

>  <original_smiles>  (61) 
[H]c1c([H])c([H])c2c(c1[H])C([H])([H])C([H])([H])C([H])([H])C2([H])N([H])C(=O)C1([H])N(C(=O)C([H])(N([H])C(=O)C([H])(N([H])C([H])([H])[H])C([H])([H])[H])C(C([H])([H])[H])(C([H])([H])[H])C([H])([H])[H])C([H])([H])c2c([H])c(OC([H])([H])c3c([H])c(N([H])C4([H])C([H])([H])C([H])([H])N(C(=O)N5C([H])([H])C([H])([H])C([H])([H])C([H])(n6nc(-c7c([H])c([H])c(Oc8c([H])c([H])c(F)c([H])c8F)c([H])c7[H])c(C(=O)N([H])[H])c6N([H])[H])C5([H])[H])C([H])([H])C4([H])[H])c(C([H])([H])C([H])([H])[H])c(C([H])([H])OC([H])([H])[H])c3[H])c([H])c([H])c2C1([H])[H]

>  <smiles>  (61) 
[H]c1c([H])c([H])c2c(c1[H])C([H])([H])C([H])([H])C([H])([H])C2([H])N([H])C(=O)C1([H])N(C(=O)C([H])(N([H])C(=O)C([H])(N([H])C([H])([H])[H])C([H])([H])[H])C(C([H])([H])[H])(C([H])([H])[H])C([H])([H])[H])C([H])([H])c2c([H])c(OC([H])([H])c3c([H])c(N([H])C4([H])C([H])([H])C([H])([H])N(C(=O)N5C([H])([H])C([H])([H])C([H])([H])C([H])(n6nc(-c7c([H])c([H])c(Oc8c([H])c([H])c(F)c([H])c8F)c([H])c7[H])c(C(=O)N([H])[H])c6N([H])[H])C5([H])[H])C([H])([H])C4([H])[H])c(C([H])([H])C([H])([H])[H])c(C([H])([H])OC([H])([H])[H])c3[H])c([H])c([H])c2C1([H])[H]

$$$$
61:0:0
     RDKit          3D

 89 98  0  0  1  0  0  0  0  0999 V2000
  -30.3780  -15.4490   20.3220 C   0  0  0  0  0  0  0  0  0  0  0  0
  -30.4020  -12.9790   19.4260 C   0  0  0  0  0  2  0  0  0  0  0  0
  -29.4750  -12.6900   18.2150 C   0  0  0  0  0  2  0  0  0  0  0  0
  -28.0410  -12.3870   18.6780 C   0  0  0  0  0  2  0  0  0  0  0  0
  -27.5740  -13.3650   19.7830 C   0  0  0  0  0  3  0  0  0  0  0  0
  -28.6280  -13.5730   20.8900 C   0  0  0  0  0  2  0  0  0  0  0  0
  -29.8220  -14.1280   20.2240 N   0  0  0  0  0  0  0  0  0  0  0  0
  -31.6140  -15.4140   20.1940 O   0  0  0  0  0  0  0  0  0  0  0  0
  -28.9490  -19.5910   19.9750 C   0  0  0  0  0  3  0  0  0  0  0  0
  -30.4890  -20.0720   22.0670 C   0  0  0  0  0  3  0  0  0  0  0  0
  -28.9950  -21.0810   20.4200 C   0  0  0  0  0  0  0  0  0  0  0  0
  -29.7990  -21.2190   21.5570 C   0  0  0  0  0  0  0  0  0  0  0  0
  -29.6830  -18.3550   20.5640 C   0  0  0  0  0  0  0  0  0  0  0  0
  -28.3330  -22.5950   19.8720 C   0  0  0  0  0  2  0  0  0  0  0  0
  -29.8540  -22.5910   22.2910 C   0  0  0  0  0  2  0  0  0  0  0  0
  -29.6520  -23.9530   21.5020 C   0  0  0  0  0  2  0  0  0  0  0  0
  -28.3330  -24.1840   20.6980 C   0  0  0  0  0  3  0  0  0  0  0  0
  -30.4540  -18.7730   21.6050 N   0  0  0  0  0  0  0  0  0  0  0  0
  -29.5940  -16.7400   20.2520 N   0  0  0  0  0  0  0  0  0  0  0  0
  -28.6540  -16.5020   19.9790 H   0  0  0  0  0  0  0  0  0  0  0  0
  -25.2150  -13.9080   20.5730 C   0  0  0  0  0  0  0  0  0  0  0  0
  -24.1570  -13.1250   20.9410 C   0  0  0  0  0  0  0  0  0  0  0  0
  -24.6270  -11.7770   20.8910 C   0  0  0  0  0  0  0  0  0  0  0  0
  -26.2560  -13.0370   20.3100 N   0  0  0  0  0  0  0  0  0  0  0  0
  -25.9170  -11.7480   20.5710 N   0  0  0  0  0  0  0  0  0  0  0  0
  -23.9010  -10.5110   21.0700 C   0  0  0  0  0  0  0  0  0  0  0  0
  -24.3240   -9.5420   22.0060 C   0  0  0  0  0  3  0  0  0  0  0  0
  -23.5950   -8.3440   22.1740 C   0  0  0  0  0  3  0  0  0  0  0  0
  -22.4300   -8.1080   21.4060 C   0  0  0  0  0  0  0  0  0  0  0  0
  -22.0270   -9.0660   20.4590 C   0  0  0  0  0  3  0  0  0  0  0  0
  -22.7560  -10.2540   20.2890 C   0  0  0  0  0  3  0  0  0  0  0  0
  -21.6750   -6.9620   21.4840 O   0  0  0  0  0  0  0  0  0  0  0  0
  -21.5900   -6.2330   22.6430 C   0  0  0  0  0  0  0  0  0  0  0  0
  -21.1140   -6.7980   23.8450 C   0  0  0  0  0  3  0  0  0  0  0  0
  -20.9780   -5.9950   24.9950 C   0  0  0  0  0  3  0  0  0  0  0  0
  -21.3080   -4.6280   24.9430 C   0  0  0  0  0  0  0  0  0  0  0  0
  -21.7790   -4.0620   23.7450 C   0  0  0  0  0  3  0  0  0  0  0  0
  -21.9160   -4.8620   22.5970 C   0  0  0  0  0  0  0  0  0  0  0  0
  -22.3490   -4.3080   21.4390 F   0  0  0  0  0  0  0  0  0  0  0  0
  -21.1710   -3.8540   26.0450 F   0  0  0  0  0  0  0  0  0  0  0  0
  -22.7610  -13.5980   21.2200 C   0  0  0  0  0  0  0  0  0  0  0  0
  -22.0390  -12.8980   22.0870 N   0  0  0  0  0  0  0  0  0  0  0  0
  -22.3210  -14.6250   20.7040 O   0  0  0  0  0  0  0  0  0  0  0  0
  -22.4090  -12.0680   22.5250 H   0  0  0  0  0  0  0  0  0  0  0  0
  -21.1020  -13.1980   22.3170 H   0  0  0  0  0  0  0  0  0  0  0  0
  -25.3710  -15.2810   20.4100 N   0  0  0  0  0  0  0  0  0  0  0  0
  -24.6010  -15.9290   20.5370 H   0  0  0  0  0  0  0  0  0  0  0  0
  -26.2080  -15.7290   20.0610 H   0  0  0  0  0  0  0  0  0  0  0  0
  -28.3050  -25.8360   20.3210 O   0  0  0  0  0  0  0  0  0  0  0  0
  -24.6670  -31.9010   23.2420 C   0  0  0  0  0  0  0  0  0  0  0  0
  -27.2570  -26.9230   20.3460 C   0  0  0  0  0  0  0  0  0  0  0  0
  -23.4980  -30.4820   21.6070 C   0  0  0  0  0  3  0  0  0  0  0  0
  -24.9630  -28.8410   20.2380 C   0  0  0  0  0  0  0  0  0  0  0  0
  -26.0700  -30.6740   21.4970 C   0  0  0  0  0  2  0  0  0  0  0  0
  -26.1470  -29.2470   20.8670 C   0  0  0  0  0  0  0  0  0  0  0  0
  -27.2880  -28.3130   20.8830 C   0  0  0  0  0  3  0  0  0  0  0  0
  -26.0370  -26.6770   19.6770 C   0  0  0  0  0  3  0  0  0  0  0  0
  -24.9370  -27.5780   19.6230 C   0  0  0  0  0  3  0  0  0  0  0  0
  -23.7490  -29.7730   20.2480 C   0  0  0  0  0  2  0  0  0  0  0  0
  -24.7670  -31.0490   22.1680 N   0  0  0  0  0  0  0  0  0  0  0  0
  -23.5700  -32.1990   23.7420 O   0  0  0  0  0  0  0  0  0  0  0  0
  -22.7850  -29.5040   22.5790 C   0  0  0  0  0  0  0  0  0  0  0  0
  -21.4550  -29.3460   22.4440 N   0  0  0  0  0  0  0  0  0  0  0  0
  -23.4370  -28.8880   23.4250 O   0  0  0  0  0  0  0  0  0  0  0  0
  -20.9800  -29.8930   21.7390 H   0  0  0  0  0  0  0  0  0  0  0  0
  -18.0600  -28.1640   22.9470 C   0  0  0  0  0  0  0  0  0  0  0  0
  -20.6210  -28.4180   23.2170 C   0  0  0  0  0  3  0  0  0  0  0  0
  -20.7150  -26.9820   22.6510 C   0  0  0  0  0  2  0  0  0  0  0  0
  -19.6150  -26.6590   21.6350 C   0  0  0  0  0  2  0  0  0  0  0  0
  -18.2310  -26.8130   22.2730 C   0  0  0  0  0  2  0  0  0  0  0  0
  -19.1810  -28.9250   23.3750 C   0  0  0  0  0  0  0  0  0  0  0  0
  -18.9630  -30.1870   23.9690 C   0  0  0  0  0  3  0  0  0  0  0  0
  -17.6590  -30.6900   24.1360 C   0  0  0  0  0  3  0  0  0  0  0  0
  -16.5530  -29.9280   23.7200 C   0  0  0  0  0  3  0  0  0  0  0  0
  -16.7550  -28.6670   23.1330 C   0  0  0  0  0  3  0  0  0  0  0  0
  -25.9270  -32.5550   23.8870 C   0  0  0  0  0  3  0  0  0  0  0  0
  -25.6010  -33.9590   24.2010 N   0  0  0  0  0  0  0  0  0  0  0  0
  -25.9300  -35.0140   23.4430 C   0  0  0  0  0  0  0  0  0  0  0  0
  -26.6000  -34.9080   22.4130 O   0  0  0  0  0  0  0  0  0  0  0  0
  -25.0050  -34.1140   25.0020 H   0  0  0  0  0  0  0  0  0  0  0  0
  -24.1900  -36.8030   23.0990 C   0  0  0  0  0  1  0  0  0  0  0  0
  -25.4430  -36.4060   23.8980 C   0  0  0  0  0  3  0  0  0  0  0  0
  -27.5800  -37.3130   24.7010 C   0  0  0  0  0  1  0  0  0  0  0  0
  -26.4690  -37.4640   23.7650 N   0  0  0  0  0  0  0  0  0  0  0  0
  -26.0580  -38.3830   23.9060 H   0  0  0  0  0  0  0  0  0  0  0  0
  -26.4130  -31.8090   25.1900 C   0  0  1  0  0  0  0  0  0  0  0  0
  -25.2960  -31.5910   26.2380 C   0  0  0  0  0  1  0  0  0  0  0  0
  -27.0060  -30.4240   24.8460 C   0  0  0  0  0  1  0  0  0  0  0  0
  -27.5490  -32.6160   25.8630 C   0  0  0  0  0  1  0  0  0  0  0  0
  2  7  1  0
  3  4  1  0
  3  2  1  0
  5  4  1  0
  5 24  1  0
  5  6  1  0
  7  1  1  0
  7  6  1  0
  8  1  2  0
  9 11  2  0
  9 13  1  0
 11 12  1  0
 12 10  2  0
 12 15  1  0
 13 18  2  0
 14 11  1  0
 14 17  1  0
 16 15  1  0
 17 49  1  0
 17 16  1  0
 18 10  1  0
 19  1  1  0
 19 13  1  0
 20 19  1  0
 21 22  2  0
 22 41  1  0
 23 22  1  0
 23 26  1  0
 24 25  1  0
 24 21  1  0
 25 23  2  0
 26 27  1  0
 27 28  2  0
 29 32  1  0
 29 28  1  0
 30 29  2  0
 31 30  1  0
 31 26  2  0
 32 33  1  0
 33 34  1  0
 34 35  2  0
 36 35  1  0
 36 40  1  0
 37 36  2  0
 38 33  2  0
 38 37  1  0
 39 38  1  0
 41 42  1  0
 42 45  1  0
 42 44  1  0
 43 41  2  0
 46 47  1  0
 46 21  1  0
 48 46  1  0
 49 51  1  0
 50 61  2  0
 51 56  1  0
 52 60  1  0
 52 62  1  0
 53 59  1  0
 53 55  1  0
 54 60  1  0
 55 56  2  0
 55 54  1  0
 57 51  2  0
 58 57  1  0
 58 53  2  0
 59 52  1  0
 60 50  1  0
 62 64  2  0
 63 62  1  0
 65 63  1  0
 66 75  2  0
 66 71  1  0
 67 63  1  0
 67 71  1  0
 68 67  1  0
 69 70  1  0
 69 68  1  0
 70 66  1  0
 71 72  2  0
 72 73  1  0
 74 73  2  0
 75 74  1  0
 76 50  1  0
 76 77  1  0
 76 86  1  0
 77 80  1  0
 78 82  1  0
 78 77  1  0
 79 78  2  0
 82 81  1  0
 84 82  1  0
 84 85  1  0
 84 83  1  0
 86 89  1  1
 86 87  1  0
 88 86  1  0
M  ISO  4   1 100  17 101  19 100  49 101
M  END
>  <TORSDO>  (62) 
F 15

>  <SCORE>  (62) 
-16.763

>  <name>  (62) 
61

>  <ligand_id>  (62) 
61

>  <original_smiles>  (62) 
[H]c1nc(N([H])C(=O)N2C([H])([H])C([H])([H])C([H])([H])C([H])(n3nc(-c4c([H])c([H])c(Oc5c([H])c([H])c(F)c([H])c5F)c([H])c4[H])c(C(=O)N([H])[H])c3N([H])[H])C2([H])[H])c([H])c2c1C([H])([H])C([H])([H])C([H])(Oc1c([H])c([H])c3c(c1[H])C([H])([H])N(C(=O)C([H])(N([H])C(=O)C([H])(N([H])C([H])([H])[H])C([H])([H])[H])C(C([H])([H])[H])(C([H])([H])[H])C([H])([H])[H])C([H])(C(=O)N([H])C1([H])c4c([H])c([H])c([H])c([H])c4C([H])([H])C([H])([H])C1([H])[H])C3([H])[H])C2([H])[H]

>  <smiles>  (62) 
[H]c1nc(N([H])C(=O)N2C([H])([H])C([H])([H])C([H])([H])C([H])(n3nc(-c4c([H])c([H])c(Oc5c([H])c([H])c(F)c([H])c5F)c([H])c4[H])c(C(=O)N([H])[H])c3N([H])[H])C2([H])[H])c([H])c2c1C([H])([H])C([H])([H])C([H])(Oc1c([H])c([H])c3c(c1[H])C([H])([H])N(C(=O)C([H])(N([H])C(=O)C([H])(N([H])C([H])([H])[H])C([H])([H])[H])C(C([H])([H])[H])(C([H])([H])[H])C([H])([H])[H])C([H])(C(=O)N([H])C1([H])c4c([H])c([H])c([H])c([H])c4C([H])([H])C([H])([H])C1([H])[H])C3([H])[H])C2([H])[H]

$$$$
62:0:0
     RDKit          3D

 98107  0  0  1  0  0  0  0  0999 V2000
  -28.8360  -20.4900   17.7560 C   0  0  0  0  0  3  0  0  0  0  0  0
  -29.1790  -22.1730   19.4820 C   0  0  0  0  0  3  0  0  0  0  0  0
  -30.0930  -22.5110   17.2520 C   0  0  0  0  0  3  0  0  0  0  0  0
  -28.6910  -20.9040   19.1010 C   0  0  0  0  0  0  0  0  0  0  0  0
  -29.5760  -21.2670   16.8390 C   0  0  0  0  0  0  0  0  0  0  0  0
  -29.8720  -22.9920   18.5540 C   0  0  0  0  0  0  0  0  0  0  0  0
  -29.8250  -20.7610   15.4240 C   0  0  0  0  0  3  0  0  0  0  0  0
  -30.0380  -19.4440   15.4230 F   0  0  0  0  0  0  0  0  0  0  0  0
  -30.8810  -21.3590   14.8690 F   0  0  0  0  0  0  0  0  0  0  0  0
  -28.0250  -20.0050   20.1500 C   0  0  0  0  0  2  0  0  0  0  0  0
  -28.9840  -19.0810   20.8060 N   0  0  0  0  0  4  0  0  0  0  0  0
  -29.9060  -19.4680   20.6960 H   0  0  0  0  0  0  0  0  0  0  0  0
  -28.7660  -19.0870   21.7910 H   0  0  0  0  0  0  0  0  0  0  0  0
  -30.8160  -14.5060   20.5870 C   0  0  0  0  0  0  0  0  0  0  0  0
  -30.5710  -12.2750   19.6200 C   0  0  0  0  0  2  0  0  0  0  0  0
  -29.6830  -12.4060   18.3660 C   0  0  0  0  0  2  0  0  0  0  0  0
  -28.1850  -12.3150   18.7340 C   0  0  0  0  0  2  0  0  0  0  0  0
  -27.7850  -13.2130   19.9380 C   0  0  0  0  0  3  0  0  0  0  0  0
  -28.8050  -13.1010   21.0970 C   0  0  0  0  0  2  0  0  0  0  0  0
  -30.1530  -13.3230   20.5540 N   0  0  0  0  0  0  0  0  0  0  0  0
  -32.0270  -14.6260   20.3900 O   0  0  0  0  0  0  0  0  0  0  0  0
  -29.4030  -17.4390   18.9280 C   0  0  0  0  0  2  0  0  0  0  0  0
  -29.9740  -16.0260   18.9120 C   0  0  0  0  0  2  0  0  0  0  0  0
  -29.8430  -16.7060   21.1770 C   0  0  0  0  0  2  0  0  0  0  0  0
  -28.9500  -17.6630   20.3660 C   0  0  0  0  0  3  0  0  0  0  0  0
  -30.0100  -15.5470   20.3020 N   0  0  0  0  0  0  0  0  0  0  0  0
  -25.3670  -13.8330   20.5730 C   0  0  0  0  0  0  0  0  0  0  0  0
  -24.2890  -13.0670   20.9180 C   0  0  0  0  0  0  0  0  0  0  0  0
  -24.7490  -11.7140   20.9120 C   0  0  0  0  0  0  0  0  0  0  0  0
  -26.4190  -12.9500   20.3820 N   0  0  0  0  0  0  0  0  0  0  0  0
  -26.0460  -11.6720   20.6490 N   0  0  0  0  0  0  0  0  0  0  0  0
  -24.0160  -10.4530   21.0870 C   0  0  0  0  0  0  0  0  0  0  0  0
  -24.4270   -9.4910   22.0340 C   0  0  0  0  0  3  0  0  0  0  0  0
  -23.6990   -8.2940   22.2010 C   0  0  0  0  0  3  0  0  0  0  0  0
  -22.5460   -8.0500   21.4180 C   0  0  0  0  0  0  0  0  0  0  0  0
  -22.1510   -9.0020   20.4610 C   0  0  0  0  0  3  0  0  0  0  0  0
  -22.8800  -10.1910   20.2940 C   0  0  0  0  0  3  0  0  0  0  0  0
  -21.7920   -6.9040   21.4920 O   0  0  0  0  0  0  0  0  0  0  0  0
  -21.7160   -6.1660   22.6460 C   0  0  0  0  0  0  0  0  0  0  0  0
  -21.2490   -6.7180   23.8570 C   0  0  0  0  0  3  0  0  0  0  0  0
  -21.1200   -5.9040   25.0000 C   0  0  0  0  0  3  0  0  0  0  0  0
  -21.4490   -4.5370   24.9300 C   0  0  0  0  0  0  0  0  0  0  0  0
  -21.9120   -3.9830   23.7240 C   0  0  0  0  0  3  0  0  0  0  0  0
  -22.0400   -4.7960   22.5820 C   0  0  0  0  0  0  0  0  0  0  0  0
  -22.4650   -4.2530   21.4150 F   0  0  0  0  0  0  0  0  0  0  0  0
  -21.3170   -3.7510   26.0240 F   0  0  0  0  0  0  0  0  0  0  0  0
  -22.8820  -13.5430   21.1400 C   0  0  0  0  0  0  0  0  0  0  0  0
  -22.1300  -12.8500   21.9840 N   0  0  0  0  0  0  0  0  0  0  0  0
  -22.4600  -14.5650   20.5970 O   0  0  0  0  0  0  0  0  0  0  0  0
  -22.4850  -12.0260   22.4480 H   0  0  0  0  0  0  0  0  0  0  0  0
  -21.1850  -13.1460   22.1730 H   0  0  0  0  0  0  0  0  0  0  0  0
  -25.5250  -15.2030   20.3770 N   0  0  0  0  0  0  0  0  0  0  0  0
  -24.7170  -15.8150   20.3950 H   0  0  0  0  0  0  0  0  0  0  0  0
  -26.3350  -15.6230   19.9410 H   0  0  0  0  0  0  0  0  0  0  0  0
  -30.3750  -24.2410   18.8430 O   0  0  0  0  0  0  0  0  0  0  0  0
  -29.8730  -24.9450   19.9760 C   0  0  0  0  0  2  0  0  0  0  0  0
  -28.4260  -25.4350   19.7610 C   0  0  0  0  0  2  0  0  0  0  0  0
  -28.3970  -26.8020   20.1570 O   0  0  0  0  0  0  0  0  0  0  0  0
  -24.5650  -31.8780   23.2530 C   0  0  0  0  0  0  0  0  0  0  0  0
  -27.2000  -27.4730   20.1420 C   0  0  0  0  0  0  0  0  0  0  0  0
  -23.3550  -30.4810   21.6090 C   0  0  0  0  0  3  0  0  0  0  0  0
  -24.8000  -28.9550   20.1690 C   0  0  0  0  0  0  0  0  0  0  0  0
  -25.8730  -30.8570   21.3940 C   0  0  0  0  0  2  0  0  0  0  0  0
  -25.9570  -29.4900   20.7490 C   0  0  0  0  0  0  0  0  0  0  0  0
  -27.1610  -28.7570   20.7240 C   0  0  0  0  0  3  0  0  0  0  0  0
  -26.0210  -26.9420   19.5660 C   0  0  0  0  0  3  0  0  0  0  0  0
  -24.8270  -27.6840   19.5740 C   0  0  0  0  0  3  0  0  0  0  0  0
  -23.5520  -29.8010   20.2270 C   0  0  0  0  0  2  0  0  0  0  0  0
  -24.6170  -31.0840   22.1450 N   0  0  0  0  0  0  0  0  0  0  0  0
  -23.4860  -32.1490   23.7940 O   0  0  0  0  0  0  0  0  0  0  0  0
  -22.7090  -29.4560   22.5670 C   0  0  0  0  0  0  0  0  0  0  0  0
  -21.3840  -29.2750   22.4370 N   0  0  0  0  0  0  0  0  0  0  0  0
  -23.3930  -28.8280   23.3780 O   0  0  0  0  0  0  0  0  0  0  0  0
  -20.8950  -29.8430   21.7600 H   0  0  0  0  0  0  0  0  0  0  0  0
  -18.0070  -28.0810   22.9250 C   0  0  0  0  0  0  0  0  0  0  0  0
  -20.5660  -28.3300   23.1970 C   0  0  0  0  0  3  0  0  0  0  0  0
  -20.6660  -26.9030   22.6100 C   0  0  0  0  0  2  0  0  0  0  0  0
  -19.5620  -26.5890   21.5960 C   0  0  0  0  0  2  0  0  0  0  0  0
  -18.1800  -26.7360   22.2380 C   0  0  0  0  0  2  0  0  0  0  0  0
  -19.1290  -28.8370   23.3600 C   0  0  0  0  0  0  0  0  0  0  0  0
  -18.9130  -30.1000   23.9550 C   0  0  0  0  0  3  0  0  0  0  0  0
  -17.6090  -30.6040   24.1180 C   0  0  0  0  0  3  0  0  0  0  0  0
  -16.5030  -29.8430   23.7020 C   0  0  0  0  0  3  0  0  0  0  0  0
  -16.7040  -28.5820   23.1140 C   0  0  0  0  0  3  0  0  0  0  0  0
  -25.8550  -32.5040   23.8730 C   0  0  0  0  0  3  0  0  0  0  0  0
  -25.5560  -33.9040   24.1970 N   0  0  0  0  0  0  0  0  0  0  0  0
  -25.8950  -34.9510   23.4330 C   0  0  0  0  0  0  0  0  0  0  0  0
  -26.5710  -34.8390   22.4060 O   0  0  0  0  0  0  0  0  0  0  0  0
  -24.9660  -34.0670   25.0000 H   0  0  0  0  0  0  0  0  0  0  0  0
  -24.1900  -36.7570   23.0460 C   0  0  0  0  0  1  0  0  0  0  0  0
  -25.4130  -36.3460   23.8800 C   0  0  0  0  0  3  0  0  0  0  0  0
  -27.5420  -37.2100   24.7470 C   0  0  0  0  0  1  0  0  0  0  0  0
  -26.4590  -37.3880   23.7820 N   0  0  0  0  0  0  0  0  0  0  0  0
  -26.0600  -38.3130   23.9220 H   0  0  0  0  0  0  0  0  0  0  0  0
  -26.3670  -31.7350   25.1520 C   0  0  1  0  0  0  0  0  0  0  0  0
  -25.2700  -31.5020   26.2190 C   0  0  0  0  0  1  0  0  0  0  0  0
  -26.9500  -30.3580   24.7600 C   0  0  0  0  0  1  0  0  0  0  0  0
  -27.5230  -32.5230   25.8130 C   0  0  0  0  0  1  0  0  0  0  0  0
  1  4  1  0
  3  6  2  0
  4  2  2  0
  4 10  1  0
  5  3  1  0
  5  1  2  0
  6 55  1  0
  6  2  1  0
  7  5  1  0
  8  7  1  0
  9  7  1  0
 10 11  1  0
 11 13  1  0
 12 11  1  0
 15 20  1  0
 16 17  1  0
 16 15  1  0
 18 17  1  0
 18 30  1  0
 18 19  1  0
 20 14  1  0
 20 19  1  0
 21 14  2  0
 22 25  1  0
 23 22  1  0
 23 26  1  0
 25 11  1  0
 25 24  1  0
 26 14  1  0
 26 24  1  0
 27 28  2  0
 28 47  1  0
 29 28  1  0
 29 32  1  0
 30 27  1  0
 30 31  1  0
 31 29  2  0
 32 33  1  0
 33 34  2  0
 35 38  1  0
 35 34  1  0
 36 35  2  0
 37 36  1  0
 37 32  2  0
 38 39  1  0
 39 40  1  0
 40 41  2  0
 42 41  1  0
 42 46  1  0
 43 42  2  0
 44 39  2  0
 44 43  1  0
 45 44  1  0
 47 48  1  0
 48 51  1  0
 48 50  1  0
 49 47  2  0
 52 53  1  0
 52 27  1  0
 54 52  1  0
 55 56  1  0
 57 56  1  0
 57 58  1  0
 59 70  2  0
 60 58  1  0
 60 65  1  0
 61 69  1  0
 61 71  1  0
 62 68  1  0
 62 64  1  0
 63 69  1  0
 64 63  1  0
 65 64  2  0
 66 67  1  0
 66 60  2  0
 67 62  2  0
 68 61  1  0
 69 59  1  0
 71 73  2  0
 72 71  1  0
 74 72  1  0
 75 84  2  0
 75 80  1  0
 76 72  1  0
 76 80  1  0
 77 76  1  0
 78 79  1  0
 78 77  1  0
 79 75  1  0
 80 81  2  0
 81 82  1  0
 83 82  2  0
 84 83  1  0
 85 59  1  0
 85 86  1  0
 85 95  1  0
 86 89  1  0
 87 91  1  0
 87 86  1  0
 88 87  2  0
 91 90  1  0
 93 91  1  0
 93 94  1  0
 93 92  1  0
 95 98  1  1
 95 96  1  0
 97 95  1  0
M  ISO  4  14 100  26 100  57 101  58 101
M  END
>  <TORSDO>  (63) 
F 22

>  <SCORE>  (63) 
-13.334

>  <name>  (63) 
62

>  <ligand_id>  (63) 
62

>  <original_smiles>  (63) 
[H]c1c([H])c([H])c2c(c1[H])C([H])([H])C([H])([H])C([H])([H])C2([H])N([H])C(=O)C1([H])N(C(=O)C([H])(N([H])C(=O)C([H])(N([H])C([H])([H])[H])C([H])([H])[H])C(C([H])([H])[H])(C([H])([H])[H])C([H])([H])[H])C([H])([H])c2c([H])c(OC([H])([H])C([H])([H])Oc3c([H])c(C([H])(F)F)c([H])c(C([H])([H])[N+]([H])([H])C4([H])C([H])([H])N(C(=O)N5C([H])([H])C([H])([H])C([H])([H])C([H])(n6nc(-c7c([H])c([H])c(Oc8c([H])c([H])c(F)c([H])c8F)c([H])c7[H])c(C(=O)N([H])[H])c6N([H])[H])C5([H])[H])C([H])([H])C4([H])[H])c3[H])c([H])c([H])c2C1([H])[H]

>  <smiles>  (63) 
[H]c1c([H])c([H])c2c(c1[H])C([H])([H])C([H])([H])C([H])([H])C2([H])N([H])C(=O)C1([H])N(C(=O)C([H])(N([H])C(=O)C([H])(N([H])C([H])([H])[H])C([H])([H])[H])C(C([H])([H])[H])(C([H])([H])[H])C([H])([H])[H])C([H])([H])c2c([H])c(OC([H])([H])C([H])([H])Oc3c([H])c(C([H])(F)F)c([H])c(C([H])([H])[N+]([H])([H])C4([H])C([H])([H])N(C(=O)N5C([H])([H])C([H])([H])C([H])([H])C([H])(n6nc(-c7c([H])c([H])c(Oc8c([H])c([H])c(F)c([H])c8F)c([H])c7[H])c(C(=O)N([H])[H])c6N([H])[H])C5([H])[H])C([H])([H])C4([H])[H])c3[H])c([H])c([H])c2C1([H])[H]

$$$$
63:0:0
     RDKit          3D

 95104  0  0  1  0  0  0  0  0999 V2000
  -30.5240  -21.2890   14.8640 C   0  0  0  0  0  3  0  0  0  0  0  0
  -30.3800  -20.4400   15.9650 C   0  0  0  0  0  3  0  0  0  0  0  0
  -29.9360  -22.3650   17.3420 C   0  0  0  0  0  3  0  0  0  0  0  0
  -29.9280  -23.2380   16.2090 C   0  0  0  0  0  0  0  0  0  0  0  0
  -30.5430  -22.7010   15.0120 C   0  0  0  0  0  0  0  0  0  0  0  0
  -30.2470  -20.9920   17.2480 C   0  0  0  0  0  0  0  0  0  0  0  0
  -27.7360  -28.6310   14.9760 C   0  0  0  0  0  0  0  0  0  0  0  0
  -27.9100  -30.4810   13.3370 C   0  0  0  0  0  2  0  0  0  0  0  0
  -28.3990  -29.9520   11.9700 C   0  0  0  0  0  2  0  0  0  0  0  0
  -29.9390  -29.8790   11.9170 C   0  0  0  0  0  2  0  0  0  0  0  0
  -30.5530  -29.2110   13.1730 C   0  0  0  0  0  3  0  0  0  0  0  0
  -29.9410  -29.8280   14.4440 C   0  0  0  0  0  2  0  0  0  0  0  0
  -28.4870  -29.6170   14.3880 N   0  0  0  0  0  0  0  0  0  0  0  0
  -26.5020  -28.6680   14.9180 O   0  0  0  0  0  0  0  0  0  0  0  0
  -30.1250  -25.9290   16.0570 C   0  0  0  0  0  2  0  0  0  0  0  0
  -27.9190  -24.8880   15.6990 C   0  0  0  0  0  2  0  0  0  0  0  0
  -29.2810  -27.1930   16.3460 C   0  0  0  0  0  2  0  0  0  0  0  0
  -27.7310  -26.1550   14.7840 C   0  0  0  0  0  2  0  0  0  0  0  0
  -29.3060  -24.6680   16.4220 C   0  0  0  0  0  3  0  0  0  0  0  0
  -28.3470  -27.4310   15.2420 N   0  0  0  0  0  0  0  0  0  0  0  0
  -32.9250  -28.7550   12.2950 C   0  0  0  0  0  0  0  0  0  0  0  0
  -34.1540  -29.2020   12.7030 C   0  0  0  0  0  0  0  0  0  0  0  0
  -33.9130  -30.0310   13.8400 C   0  0  0  0  0  0  0  0  0  0  0  0
  -32.0100  -29.3070   13.1770 N   0  0  0  0  0  0  0  0  0  0  0  0
  -32.6230  -30.0340   14.1460 N   0  0  0  0  0  0  0  0  0  0  0  0
  -34.8290  -30.8740   14.6170 C   0  0  0  0  0  0  0  0  0  0  0  0
  -35.7090  -30.3200   15.5700 C   0  0  0  0  0  3  0  0  0  0  0  0
  -36.5950  -31.1480   16.2910 C   0  0  0  0  0  3  0  0  0  0  0  0
  -36.6070  -32.5460   16.0620 C   0  0  0  0  0  0  0  0  0  0  0  0
  -35.7120  -33.0940   15.1270 C   0  0  0  0  0  3  0  0  0  0  0  0
  -34.8260  -32.2700   14.4140 C   0  0  0  0  0  3  0  0  0  0  0  0
  -37.4160  -33.4290   16.7350 O   0  0  0  0  0  0  0  0  0  0  0  0
  -36.9000  -34.3620   17.6000 C   0  0  0  0  0  0  0  0  0  0  0  0
  -36.0660  -33.9980   18.6800 C   0  0  0  0  0  3  0  0  0  0  0  0
  -35.6160  -34.9790   19.5850 C   0  0  0  0  0  3  0  0  0  0  0  0
  -36.0030  -36.3220   19.4180 C   0  0  0  0  0  0  0  0  0  0  0  0
  -36.8390  -36.6860   18.3480 C   0  0  0  0  0  3  0  0  0  0  0  0
  -37.2860  -35.7080   17.4420 C   0  0  0  0  0  0  0  0  0  0  0  0
  -38.1090  -36.0630   16.4250 F   0  0  0  0  0  0  0  0  0  0  0  0
  -35.5760  -37.2650   20.2910 F   0  0  0  0  0  0  0  0  0  0  0  0
  -35.4660  -28.9580   12.0190 C   0  0  0  0  0  0  0  0  0  0  0  0
  -35.8820  -27.6990   11.9230 N   0  0  0  0  0  0  0  0  0  0  0  0
  -36.1100  -29.8820   11.5260 O   0  0  0  0  0  0  0  0  0  0  0  0
  -35.3440  -26.9420   12.3180 H   0  0  0  0  0  0  0  0  0  0  0  0
  -36.7500  -27.4870   11.4510 H   0  0  0  0  0  0  0  0  0  0  0  0
  -32.5090  -27.9500   11.2410 N   0  0  0  0  0  0  0  0  0  0  0  0
  -33.1500  -27.6080   10.5360 H   0  0  0  0  0  0  0  0  0  0  0  0
  -31.5400  -27.7480   11.0340 H   0  0  0  0  0  0  0  0  0  0  0  0
  -31.3020  -23.9060   12.7270 C   0  0  0  0  0  1  0  0  0  0  0  0
  -32.9910  -22.6470   14.0300 C   0  0  0  0  0  1  0  0  0  0  0  0
  -31.6330  -23.3970   14.1260 C   0  0  0  0  0  3  0  0  0  0  0  0
  -30.3770  -20.2140   18.3800 O   0  0  0  0  0  0  0  0  0  0  0  0
  -31.7000  -20.1690   18.9430 C   0  0  0  0  0  2  0  0  0  0  0  0
  -31.6660  -19.8690   20.4570 C   0  0  0  0  0  2  0  0  0  0  0  0
  -31.8960  -21.0270   21.2780 O   0  0  0  0  0  0  0  0  0  0  0  0
  -33.1010  -27.8730   19.7640 C   0  0  0  0  0  0  0  0  0  0  0  0
  -31.3120  -22.2420   20.9710 C   0  0  0  0  0  0  0  0  0  0  0  0
  -30.7330  -27.2710   20.1710 C   0  0  0  0  0  3  0  0  0  0  0  0
  -30.2300  -24.7690   20.2800 C   0  0  0  0  0  0  0  0  0  0  0  0
  -32.3850  -25.5370   19.2680 C   0  0  0  0  0  2  0  0  0  0  0  0
  -31.5630  -24.4750   19.9720 C   0  0  0  0  0  0  0  0  0  0  0  0
  -32.1050  -23.2150   20.3170 C   0  0  0  0  0  3  0  0  0  0  0  0
  -29.9660  -22.5620   21.2730 C   0  0  0  0  0  3  0  0  0  0  0  0
  -29.4300  -23.8190   20.9360 C   0  0  0  0  0  3  0  0  0  0  0  0
  -29.7170  -26.1340   19.8760 C   0  0  0  0  0  2  0  0  0  0  0  0
  -32.1280  -26.9150   19.7510 N   0  0  0  0  0  0  0  0  0  0  0  0
  -32.8430  -29.0430   20.0760 O   0  0  0  0  0  0  0  0  0  0  0  0
  -30.6240  -27.6570   21.6630 C   0  0  0  0  0  0  0  0  0  0  0  0
  -29.5260  -28.3390   22.0260 N   0  0  0  0  0  0  0  0  0  0  0  0
  -31.4950  -27.3220   22.4690 O   0  0  0  0  0  0  0  0  0  0  0  0
  -28.8590  -28.5760   21.3060 H   0  0  0  0  0  0  0  0  0  0  0  0
  -28.1400  -31.0630   23.9530 C   0  0  0  0  0  0  0  0  0  0  0  0
  -29.1890  -28.7710   23.3820 C   0  0  0  0  0  3  0  0  0  0  0  0
  -27.8470  -28.1570   23.8430 C   0  0  0  0  0  2  0  0  0  0  0  0
  -26.6400  -29.0610   23.5690 C   0  0  0  0  0  2  0  0  0  0  0  0
  -26.8060  -30.4100   24.2750 C   0  0  0  0  0  2  0  0  0  0  0  0
  -29.2540  -30.2970   23.5180 C   0  0  0  0  0  0  0  0  0  0  0  0
  -30.4580  -30.9600   23.1970 C   0  0  0  0  0  3  0  0  0  0  0  0
  -30.5600  -32.3590   23.3060 C   0  0  0  0  0  3  0  0  0  0  0  0
  -29.4620  -33.1100   23.7550 C   0  0  0  0  0  3  0  0  0  0  0  0
  -28.2570  -32.4620   24.0800 C   0  0  0  0  0  3  0  0  0  0  0  0
  -34.5750  -27.5510   19.3680 C   0  0  0  0  0  3  0  0  0  0  0  0
  -35.6310  -28.4930   20.0680 C   0  0  1  0  0  0  0  0  0  0  0  0
  -35.5200  -29.9770   19.6450 C   0  0  0  0  0  1  0  0  0  0  0  0
  -35.4830  -28.4290   21.6060 C   0  0  0  0  0  1  0  0  0  0  0  0
  -37.0640  -28.0090   19.7400 C   0  0  0  0  0  1  0  0  0  0  0  0
  -34.6750  -27.6570   17.9060 N   0  0  0  0  0  0  0  0  0  0  0  0
  -35.0140  -26.6500   17.0910 C   0  0  0  0  0  0  0  0  0  0  0  0
  -35.3520  -25.5370   17.5070 O   0  0  0  0  0  0  0  0  0  0  0  0
  -34.3510  -28.5200   17.4940 H   0  0  0  0  0  0  0  0  0  0  0  0
  -33.6940  -26.3060   14.9770 C   0  0  0  0  0  1  0  0  0  0  0  0
  -34.9730  -26.9180   15.5740 C   0  0  0  0  0  3  0  0  0  0  0  0
  -37.3930  -27.0930   15.1990 C   0  0  0  0  0  1  0  0  0  0  0  0
  -36.1550  -26.3980   14.8530 N   0  0  0  0  0  0  0  0  0  0  0  0
  -36.0230  -26.4650   13.8460 H   0  0  0  0  0  0  0  0  0  0  0  0
  1  5  2  0
  1  2  1  0
  2  6  2  0
  4  3  2  0
  5  4  1  0
  6  3  1  0
  6 52  1  0
  7 20  1  0
  8 13  1  0
  9  8  1  0
 10  9  1  0
 11 10  1  0
 11 24  1  0
 11 12  1  0
 13 12  1  0
 13  7  1  0
 14  7  2  0
 15 17  1  0
 15 19  1  0
 16 19  1  0
 18 20  1  0
 18 16  1  0
 19  4  1  0
 20 17  1  0
 21 22  2  0
 21 24  1  0
 22 23  1  0
 23 25  2  0
 23 26  1  0
 24 25  1  0
 26 27  1  0
 27 28  2  0
 29 28  1  0
 29 32  1  0
 30 29  2  0
 31 26  2  0
 31 30  1  0
 32 33  1  0
 33 34  1  0
 34 35  2  0
 36 35  1  0
 36 40  1  0
 37 36  2  0
 38 33  2  0
 38 37  1  0
 39 38  1  0
 41 22  1  0
 42 41  1  0
 42 44  1  0
 43 41  2  0
 45 42  1  0
 46 21  1  0
 47 46  1  0
 48 46  1  0
 49 51  1  0
 50 51  1  0
 51  5  1  0
 52 53  1  0
 53 54  1  0
 54 55  1  0
 56 67  2  0
 57 63  1  0
 57 55  1  0
 58 68  1  0
 59 64  1  0
 60 66  1  0
 60 61  1  0
 61 59  2  0
 61 62  1  0
 62 57  2  0
 64 63  2  0
 65 58  1  0
 65 59  1  0
 66 56  1  0
 66 58  1  0
 68 69  1  0
 68 70  2  0
 71 69  1  0
 72 81  1  0
 72 76  1  0
 73 69  1  0
 73 77  1  0
 73 74  1  0
 75 74  1  0
 75 76  1  0
 77 72  2  0
 78 79  2  0
 78 77  1  0
 79 80  1  0
 80 81  2  0
 82 56  1  0
 82 83  1  0
 83 85  1  1
 84 83  1  0
 86 83  1  0
 87 82  1  0
 88 89  2  0
 88 87  1  0
 90 87  1  0
 92 91  1  0
 92 88  1  0
 94 93  1  0
 94 92  1  0
 95 94  1  0
M  ISO  4   7 100  20 100  54 101  55 101
M  END
>  <TORSDO>  (64) 
F 20

>  <SCORE>  (64) 
-3.968

>  <name>  (64) 
63

>  <ligand_id>  (64) 
63

>  <original_smiles>  (64) 
[H]c1c([H])c([H])c2c(c1[H])C([H])([H])C([H])([H])C([H])([H])C2([H])N([H])C(=O)C1([H])N(C(=O)C([H])(N([H])C(=O)C([H])(N([H])C([H])([H])[H])C([H])([H])[H])C(C([H])([H])[H])(C([H])([H])[H])C([H])([H])[H])C([H])([H])c2c([H])c(OC([H])([H])C([H])([H])Oc3c([H])c([H])c(C([H])(C([H])([H])[H])C([H])([H])[H])c(C4([H])C([H])([H])C([H])([H])N(C(=O)N5C([H])([H])C([H])([H])C([H])([H])C([H])(n6nc(-c7c([H])c([H])c(Oc8c([H])c([H])c(F)c([H])c8F)c([H])c7[H])c(C(=O)N([H])[H])c6N([H])[H])C5([H])[H])C([H])([H])C4([H])[H])c3[H])c([H])c([H])c2C1([H])[H]

>  <smiles>  (64) 
[H]c1c([H])c([H])c2c(c1[H])C([H])([H])C([H])([H])C([H])([H])C2([H])N([H])C(=O)C1([H])N(C(=O)C([H])(N([H])C(=O)C([H])(N([H])C([H])([H])[H])C([H])([H])[H])C(C([H])([H])[H])(C([H])([H])[H])C([H])([H])[H])C([H])([H])c2c([H])c(OC([H])([H])C([H])([H])Oc3c([H])c([H])c(C([H])(C([H])([H])[H])C([H])([H])[H])c(C4([H])C([H])([H])C([H])([H])N(C(=O)N5C([H])([H])C([H])([H])C([H])([H])C([H])(n6nc(-c7c([H])c([H])c(Oc8c([H])c([H])c(F)c([H])c8F)c([H])c7[H])c(C(=O)N([H])[H])c6N([H])[H])C5([H])[H])C([H])([H])C4([H])[H])c3[H])c([H])c([H])c2C1([H])[H]

$$$$
64:0:0
     RDKit          3D

 95105  0  0  1  0  0  0  0  0999 V2000
  -28.6580  -19.6700   20.3570 C   0  0  0  0  0  3  0  0  0  0  0  0
  -30.8150  -19.9720   21.2810 C   0  0  0  0  0  3  0  0  0  0  0  0
  -29.6190  -20.5950   20.8240 C   0  0  0  0  0  0  0  0  0  0  0  0
  -28.8830  -18.2540   20.2950 C   0  0  0  0  0  0  0  0  0  0  0  0
  -31.0640  -18.5510   21.2330 C   0  0  0  0  0  0  0  0  0  0  0  0
  -30.1070  -17.6090   20.7160 C   0  0  0  0  0  0  0  0  0  0  0  0
  -27.7630  -17.4870   19.6380 C   0  0  0  0  0  1  0  0  0  0  0  0
  -32.4350  -18.0940   21.6950 C   0  0  0  0  0  1  0  0  0  0  0  0
  -30.8840  -15.1170   21.1630 C   0  0  0  0  0  0  0  0  0  0  0  0
  -30.7970  -12.7410   20.3850 C   0  0  0  0  0  2  0  0  0  0  0  0
  -30.0440  -12.6040   19.0470 C   0  0  0  0  0  2  0  0  0  0  0  0
  -28.5280  -12.4640   19.2850 C   0  0  0  0  0  2  0  0  0  0  0  0
  -27.9730  -13.4710   20.3270 C   0  0  0  0  0  3  0  0  0  0  0  0
  -28.8730  -13.5900   21.5730 C   0  0  0  0  0  2  0  0  0  0  0  0
  -30.2170  -13.9100   21.0830 N   0  0  0  0  0  0  0  0  0  0  0  0
  -32.0980  -15.0660   21.3740 O   0  0  0  0  0  0  0  0  0  0  0  0
  -30.4360  -16.1770   20.3410 N   0  0  0  0  0  0  0  0  0  0  0  0
  -25.5140  -14.0880   20.7300 C   0  0  0  0  0  0  0  0  0  0  0  0
  -24.4030  -13.3280   20.9620 C   0  0  0  0  0  0  0  0  0  0  0  0
  -24.8620  -11.9800   21.0400 C   0  0  0  0  0  0  0  0  0  0  0  0
  -26.5780  -13.2030   20.6610 N   0  0  0  0  0  0  0  0  0  0  0  0
  -26.1840  -11.9310   20.9200 N   0  0  0  0  0  0  0  0  0  0  0  0
  -24.1130  -10.7260   21.1620 C   0  0  0  0  0  0  0  0  0  0  0  0
  -24.4860   -9.7350   22.0950 C   0  0  0  0  0  3  0  0  0  0  0  0
  -23.7360   -8.5440   22.2070 C   0  0  0  0  0  3  0  0  0  0  0  0
  -22.6030   -8.3390   21.3850 C   0  0  0  0  0  0  0  0  0  0  0  0
  -22.2520   -9.3190   20.4430 C   0  0  0  0  0  3  0  0  0  0  0  0
  -23.0000  -10.5020   20.3280 C   0  0  0  0  0  3  0  0  0  0  0  0
  -21.8320   -7.2020   21.4070 O   0  0  0  0  0  0  0  0  0  0  0  0
  -21.7870   -6.3860   22.5090 C   0  0  0  0  0  0  0  0  0  0  0  0
  -21.3800   -6.8640   23.7740 C   0  0  0  0  0  3  0  0  0  0  0  0
  -21.2810   -5.9750   24.8620 C   0  0  0  0  0  3  0  0  0  0  0  0
  -21.5800   -4.6100   24.6880 C   0  0  0  0  0  0  0  0  0  0  0  0
  -21.9820   -4.1320   23.4270 C   0  0  0  0  0  3  0  0  0  0  0  0
  -22.0820   -5.0190   22.3400 C   0  0  0  0  0  0  0  0  0  0  0  0
  -22.4510   -4.5510   21.1240 F   0  0  0  0  0  0  0  0  0  0  0  0
  -21.4780   -3.7540   25.7320 F   0  0  0  0  0  0  0  0  0  0  0  0
  -22.9860  -13.8180   21.0100 C   0  0  0  0  0  0  0  0  0  0  0  0
  -22.1520  -13.1880   21.8290 N   0  0  0  0  0  0  0  0  0  0  0  0
  -22.6230  -14.7960   20.3570 O   0  0  0  0  0  0  0  0  0  0  0  0
  -22.4560  -12.3980   22.3780 H   0  0  0  0  0  0  0  0  0  0  0  0
  -21.1960  -13.5010   21.9110 H   0  0  0  0  0  0  0  0  0  0  0  0
  -25.6960  -15.4510   20.5540 N   0  0  0  0  0  0  0  0  0  0  0  0
  -24.9230  -16.1070   20.5670 H   0  0  0  0  0  0  0  0  0  0  0  0
  -26.5950  -15.8920   20.4270 H   0  0  0  0  0  0  0  0  0  0  0  0
  -30.2630  -16.1760   17.7410 C   0  0  0  0  0  2  0  0  0  0  0  0
  -31.1920  -17.3080   18.0740 C   0  0  0  0  0  2  0  0  0  0  0  0
  -31.0780  -16.1140   19.0220 C   0  0  0  0  0  3  0  0  0  0  0  0
  -27.9300  -22.7330   20.9660 C   0  0  0  0  0  2  0  0  0  0  0  0
  -30.0450  -23.0240   19.7290 C   0  0  0  0  0  2  0  0  0  0  0  0
  -27.7820  -24.3120   21.0950 C   0  0  0  0  0  2  0  0  0  0  0  0
  -29.9130  -24.5940   19.8900 C   0  0  0  0  0  2  0  0  0  0  0  0
  -29.3960  -22.1830   20.8740 C   0  0  0  0  0  3  0  0  0  0  0  0
  -28.4580  -25.1680   19.9690 C   0  0  0  0  0  3  0  0  0  0  0  0
  -28.4590  -26.6610   20.1430 O   0  0  0  0  0  0  0  0  0  0  0  0
  -24.5510  -31.9410   23.1860 C   0  0  0  0  0  0  0  0  0  0  0  0
  -27.2980  -27.4630   20.0910 C   0  0  0  0  0  0  0  0  0  0  0  0
  -23.3920  -30.5270   21.5270 C   0  0  0  0  0  3  0  0  0  0  0  0
  -24.8870  -29.0280   20.0860 C   0  0  0  0  0  0  0  0  0  0  0  0
  -25.9220  -30.9130   21.3510 C   0  0  0  0  0  2  0  0  0  0  0  0
  -26.0420  -29.5410   20.6890 C   0  0  0  0  0  0  0  0  0  0  0  0
  -27.2470  -28.7720   20.6770 C   0  0  0  0  0  3  0  0  0  0  0  0
  -26.1150  -27.0040   19.4710 C   0  0  0  0  0  3  0  0  0  0  0  0
  -24.9290  -27.7670   19.4660 C   0  0  0  0  0  3  0  0  0  0  0  0
  -23.6280  -29.8700   20.1390 C   0  0  0  0  0  2  0  0  0  0  0  0
  -24.6400  -31.1460   22.0780 N   0  0  0  0  0  0  0  0  0  0  0  0
  -23.4590  -32.1810   23.7200 O   0  0  0  0  0  0  0  0  0  0  0  0
  -22.7540  -29.4820   22.4760 C   0  0  0  0  0  0  0  0  0  0  0  0
  -21.4340  -29.2670   22.3410 N   0  0  0  0  0  0  0  0  0  0  0  0
  -23.4460  -28.8710   23.2930 O   0  0  0  0  0  0  0  0  0  0  0  0
  -20.9320  -29.8170   21.6570 H   0  0  0  0  0  0  0  0  0  0  0  0
  -18.0990  -27.9340   22.7830 C   0  0  0  0  0  0  0  0  0  0  0  0
  -20.6400  -28.2990   23.0990 C   0  0  0  0  0  3  0  0  0  0  0  0
  -20.8100  -26.8720   22.5280 C   0  0  0  0  0  2  0  0  0  0  0  0
  -19.7410  -26.5030   21.4940 C   0  0  0  0  0  2  0  0  0  0  0  0
  -18.3430  -26.5930   22.1130 C   0  0  0  0  0  2  0  0  0  0  0  0
  -19.1780  -28.7420   23.2320 C   0  0  0  0  0  0  0  0  0  0  0  0
  -18.8970  -29.9950   23.8180 C   0  0  0  0  0  3  0  0  0  0  0  0
  -17.5690  -30.4420   23.9610 C   0  0  0  0  0  3  0  0  0  0  0  0
  -16.5050  -29.6320   23.5290 C   0  0  0  0  0  3  0  0  0  0  0  0
  -16.7710  -28.3800   22.9450 C   0  0  0  0  0  3  0  0  0  0  0  0
  -25.8130  -32.6030   23.8200 C   0  0  0  0  0  3  0  0  0  0  0  0
  -25.4780  -34.0040   24.1180 N   0  0  0  0  0  0  0  0  0  0  0  0
  -25.8700  -35.0540   23.3830 C   0  0  0  0  0  0  0  0  0  0  0  0
  -26.6170  -34.9450   22.4080 O   0  0  0  0  0  0  0  0  0  0  0  0
  -24.8250  -34.1620   24.8710 H   0  0  0  0  0  0  0  0  0  0  0  0
  -24.1740  -36.8450   22.8920 C   0  0  0  0  0  1  0  0  0  0  0  0
  -25.3520  -36.4450   23.7950 C   0  0  0  0  0  3  0  0  0  0  0  0
  -27.4140  -37.3410   24.7820 C   0  0  0  0  0  1  0  0  0  0  0  0
  -26.3900  -37.4980   23.7530 N   0  0  0  0  0  0  0  0  0  0  0  0
  -25.9740  -38.4200   23.8580 H   0  0  0  0  0  0  0  0  0  0  0  0
  -26.3120  -31.8650   25.1220 C   0  0  1  0  0  0  0  0  0  0  0  0
  -25.2080  -31.6540   26.1830 C   0  0  0  0  0  1  0  0  0  0  0  0
  -26.9010  -30.4790   24.7730 C   0  0  0  0  0  1  0  0  0  0  0  0
  -27.4570  -32.6770   25.7780 C   0  0  0  0  0  1  0  0  0  0  0  0
  1  3  1  0
  3  2  2  0
  4  1  2  0
  4  6  1  0
  5  2  1  0
  5  8  1  0
  6  5  2  0
  7  4  1  0
  9 16  2  0
 10 15  1  0
 11 12  1  0
 11 10  1  0
 13 12  1  0
 13 21  1  0
 13 14  1  0
 15  9  1  0
 15 14  1  0
 17  6  1  0
 17  9  1  0
 18 19  2  0
 19 38  1  0
 19 20  1  0
 20 23  1  0
 21 18  1  0
 21 22  1  0
 22 20  2  0
 23 24  1  0
 24 25  2  0
 26 29  1  0
 26 25  1  0
 27 26  2  0
 28 27  1  0
 28 23  2  0
 29 30  1  0
 30 31  1  0
 31 32  2  0
 33 32  1  0
 33 37  1  0
 34 33  2  0
 35 30  2  0
 35 34  1  0
 36 35  1  0
 38 39  1  0
 39 42  1  0
 39 41  1  0
 40 38  2  0
 43 44  1  0
 43 18  1  0
 45 43  1  0
 46 47  1  0
 46 48  1  0
 47 48  1  0
 48 17  1  0
 49 51  1  0
 50 52  1  0
 50 53  1  0
 52 54  1  0
 53  3  1  0
 53 49  1  0
 54 55  1  0
 54 51  1  0
 56 67  2  0
 57 55  1  0
 57 62  1  0
 58 66  1  0
 58 68  1  0
 59 65  1  0
 59 61  1  0
 60 66  1  0
 61 60  1  0
 62 61  2  0
 63 57  2  0
 64 63  1  0
 64 59  2  0
 65 58  1  0
 66 56  1  0
 68 70  2  0
 69 68  1  0
 71 69  1  0
 72 81  2  0
 72 77  1  0
 73 69  1  0
 73 77  1  0
 74 73  1  0
 75 76  1  0
 75 74  1  0
 76 72  1  0
 77 78  2  0
 78 79  1  0
 80 79  2  0
 81 80  1  0
 82 56  1  0
 82 83  1  0
 82 92  1  0
 83 86  1  0
 84 88  1  0
 84 83  1  0
 85 84  2  0
 88 87  1  0
 90 88  1  0
 90 91  1  0
 90 89  1  0
 92 95  1  1
 92 93  1  0
 94 92  1  0
M  ISO  4   9 100  17 100  54 101  55 101
M  END
>  <TORSDO>  (65) 
F 18

>  <SCORE>  (65) 
-13.114

>  <name>  (65) 
64

>  <ligand_id>  (65) 
64

>  <original_smiles>  (65) 
[H]c1c([H])c([H])c2c(c1[H])C([H])([H])C([H])([H])C([H])([H])C2([H])N([H])C(=O)C1([H])N(C(=O)C([H])(N([H])C(=O)C([H])(N([H])C([H])([H])[H])C([H])([H])[H])C(C([H])([H])[H])(C([H])([H])[H])C([H])([H])[H])C([H])([H])c2c([H])c(OC3([H])C([H])([H])C([H])([H])C([H])(c4c([H])c(C([H])([H])[H])c(N(C(=O)N5C([H])([H])C([H])([H])C([H])([H])C([H])(n6nc(-c7c([H])c([H])c(Oc8c([H])c([H])c(F)c([H])c8F)c([H])c7[H])c(C(=O)N([H])[H])c6N([H])[H])C5([H])[H])C5([H])C([H])([H])C5([H])[H])c(C([H])([H])[H])c4[H])C([H])([H])C3([H])[H])c([H])c([H])c2C1([H])[H]

>  <smiles>  (65) 
[H]c1c([H])c([H])c2c(c1[H])C([H])([H])C([H])([H])C([H])([H])C2([H])N([H])C(=O)C1([H])N(C(=O)C([H])(N([H])C(=O)C([H])(N([H])C([H])([H])[H])C([H])([H])[H])C(C([H])([H])[H])(C([H])([H])[H])C([H])([H])[H])C([H])([H])c2c([H])c(OC3([H])C([H])([H])C([H])([H])C([H])(c4c([H])c(C([H])([H])[H])c(N(C(=O)N5C([H])([H])C([H])([H])C([H])([H])C([H])(n6nc(-c7c([H])c([H])c(Oc8c([H])c([H])c(F)c([H])c8F)c([H])c7[H])c(C(=O)N([H])[H])c6N([H])[H])C5([H])[H])C5([H])C([H])([H])C5([H])[H])c(C([H])([H])[H])c4[H])C([H])([H])C3([H])[H])c([H])c([H])c2C1([H])[H]

$$$$
65:0:0
     RDKit          3D

 95104  0  0  1  0  0  0  0  0999 V2000
  -29.8170  -22.5050   22.1050 C   0  0  0  0  0  3  0  0  0  0  0  0
  -30.2960  -21.1830   22.0130 C   0  0  0  0  0  0  0  0  0  0  0  0
  -30.8720  -20.7510   20.7860 C   0  0  0  0  0  0  0  0  0  0  0  0
  -30.9430  -21.7070   19.7360 C   0  0  0  0  0  0  0  0  0  0  0  0
  -29.9600  -23.3760   21.0160 C   0  0  0  0  0  0  0  0  0  0  0  0
  -30.2430  -20.3130   23.2570 C   0  0  0  0  0  1  0  0  0  0  0  0
  -31.5380  -21.3490   18.3850 C   0  0  0  0  0  1  0  0  0  0  0  0
  -30.5140  -22.9830   19.8490 N   0  0  0  0  0  0  0  0  0  0  0  0
  -31.4300  -19.4710   20.5810 N   0  0  0  0  0  0  0  0  0  0  0  0
  -32.0910  -19.4300   19.8100 H   0  0  0  0  0  0  0  0  0  0  0  0
  -31.4040  -14.7850   19.7480 C   0  0  0  0  0  0  0  0  0  0  0  0
  -31.0770  -12.5060   18.8460 C   0  0  0  0  0  2  0  0  0  0  0  0
  -30.0730  -12.5320   17.6740 C   0  0  0  0  0  2  0  0  0  0  0  0
  -28.6240  -12.4250   18.1850 C   0  0  0  0  0  2  0  0  0  0  0  0
  -28.3290  -13.4070   19.3490 C   0  0  0  0  0  3  0  0  0  0  0  0
  -29.4360  -13.3150   20.4200 C   0  0  0  0  0  2  0  0  0  0  0  0
  -30.7280  -13.5990   19.7720 N   0  0  0  0  0  0  0  0  0  0  0  0
  -32.4420  -14.9210   19.0890 O   0  0  0  0  0  0  0  0  0  0  0  0
  -30.9330  -17.5080   22.0040 C   0  0  0  0  0  2  0  0  0  0  0  0
  -30.5310  -16.0700   21.6890 C   0  0  0  0  0  2  0  0  0  0  0  0
  -30.9360  -17.2080   19.6380 C   0  0  0  0  0  2  0  0  0  0  0  0
  -30.6250  -18.2580   20.7150 C   0  0  0  0  0  3  0  0  0  0  0  0
  -30.7730  -15.8770   20.2540 N   0  0  0  0  0  0  0  0  0  0  0  0
  -26.0240  -14.0970   20.2660 C   0  0  0  0  0  0  0  0  0  0  0  0
  -24.9530  -13.3590   20.6950 C   0  0  0  0  0  0  0  0  0  0  0  0
  -25.3460  -11.9910   20.5820 C   0  0  0  0  0  0  0  0  0  0  0  0
  -27.0050  -13.1780   19.9240 N   0  0  0  0  0  0  0  0  0  0  0  0
  -26.6030  -11.9050   20.1680 N   0  0  0  0  0  0  0  0  0  0  0  0
  -24.5800  -10.7550   20.7900 C   0  0  0  0  0  0  0  0  0  0  0  0
  -24.9080   -9.8460   21.8200 C   0  0  0  0  0  3  0  0  0  0  0  0
  -24.1450   -8.6730   22.0110 C   0  0  0  0  0  3  0  0  0  0  0  0
  -23.0400   -8.4020   21.1690 C   0  0  0  0  0  0  0  0  0  0  0  0
  -22.7320   -9.2990   20.1300 C   0  0  0  0  0  3  0  0  0  0  0  0
  -23.4960  -10.4620   19.9390 C   0  0  0  0  0  3  0  0  0  0  0  0
  -22.2590   -7.2760   21.2620 O   0  0  0  0  0  0  0  0  0  0  0  0
  -21.9150   -6.7370   22.4760 C   0  0  0  0  0  0  0  0  0  0  0  0
  -21.2210   -7.4840   23.4530 C   0  0  0  0  0  3  0  0  0  0  0  0
  -20.8270   -6.8700   24.6600 C   0  0  0  0  0  3  0  0  0  0  0  0
  -21.1150   -5.5120   24.8860 C   0  0  0  0  0  0  0  0  0  0  0  0
  -21.8010   -4.7650   23.9120 C   0  0  0  0  0  3  0  0  0  0  0  0
  -22.1970   -5.3750   22.7090 C   0  0  0  0  0  0  0  0  0  0  0  0
  -22.8380   -4.6460   21.7640 F   0  0  0  0  0  0  0  0  0  0  0  0
  -20.7300   -4.9190   26.0410 F   0  0  0  0  0  0  0  0  0  0  0  0
  -23.6060  -13.8860   21.0980 C   0  0  0  0  0  0  0  0  0  0  0  0
  -22.9430  -13.2230   22.0390 N   0  0  0  0  0  0  0  0  0  0  0  0
  -23.1530  -14.9220   20.6120 O   0  0  0  0  0  0  0  0  0  0  0  0
  -23.3230  -12.3840   22.4520 H   0  0  0  0  0  0  0  0  0  0  0  0
  -22.0440  -13.5580   22.3510 H   0  0  0  0  0  0  0  0  0  0  0  0
  -26.2400  -15.4640   20.1220 N   0  0  0  0  0  0  0  0  0  0  0  0
  -25.5220  -16.1530   20.3180 H   0  0  0  0  0  0  0  0  0  0  0  0
  -27.0940  -15.8720   19.7610 H   0  0  0  0  0  0  0  0  0  0  0  0
  -29.5340  -24.6820   21.1480 O   0  0  0  0  0  0  0  0  0  0  0  0
  -30.1620  -25.6930   20.3570 C   0  0  0  0  0  2  0  0  0  0  0  0
  -29.3760  -27.0140   20.4740 C   0  0  0  0  0  2  0  0  0  0  0  0
  -28.4040  -27.0380   19.4370 O   0  0  0  0  0  0  0  0  0  0  0  0
  -24.5960  -31.7760   23.2380 C   0  0  0  0  0  0  0  0  0  0  0  0
  -27.2480  -27.7490   19.6530 C   0  0  0  0  0  0  0  0  0  0  0  0
  -23.3550  -30.4540   21.5540 C   0  0  0  0  0  3  0  0  0  0  0  0
  -24.7910  -29.1100   19.9290 C   0  0  0  0  0  0  0  0  0  0  0  0
  -25.8440  -30.9540   21.2470 C   0  0  0  0  0  2  0  0  0  0  0  0
  -25.9550  -29.6420   20.5010 C   0  0  0  0  0  0  0  0  0  0  0  0
  -27.1880  -28.9640   20.3740 C   0  0  0  0  0  3  0  0  0  0  0  0
  -26.0730  -27.2320   19.0750 C   0  0  0  0  0  3  0  0  0  0  0  0
  -24.8420  -27.8990   19.2190 C   0  0  0  0  0  3  0  0  0  0  0  0
  -23.5130  -29.8980   20.1140 C   0  0  0  0  0  2  0  0  0  0  0  0
  -24.6190  -31.0720   22.0720 N   0  0  0  0  0  0  0  0  0  0  0  0
  -23.5390  -31.9490   23.8600 O   0  0  0  0  0  0  0  0  0  0  0  0
  -22.8110  -29.3270   22.4600 C   0  0  0  0  0  0  0  0  0  0  0  0
  -21.5230  -28.9860   22.2830 N   0  0  0  0  0  0  0  0  0  0  0  0
  -23.5430  -28.7630   23.2780 O   0  0  0  0  0  0  0  0  0  0  0  0
  -20.9890  -29.5010   21.5970 H   0  0  0  0  0  0  0  0  0  0  0  0
  -18.3560  -27.2650   22.5150 C   0  0  0  0  0  0  0  0  0  0  0  0
  -20.8070  -27.9290   22.9960 C   0  0  0  0  0  3  0  0  0  0  0  0
  -21.1860  -26.5340   22.4490 C   0  0  0  0  0  2  0  0  0  0  0  0
  -20.2380  -26.0390   21.3500 C   0  0  0  0  0  2  0  0  0  0  0  0
  -18.8020  -25.9620   21.8750 C   0  0  0  0  0  2  0  0  0  0  0  0
  -19.2980  -28.1960   23.0270 C   0  0  0  0  0  0  0  0  0  0  0  0
  -18.8320  -29.4090   23.5800 C   0  0  0  0  0  3  0  0  0  0  0  0
  -17.4550  -29.6950   23.6290 C   0  0  0  0  0  3  0  0  0  0  0  0
  -16.5260  -28.7630   23.1350 C   0  0  0  0  0  3  0  0  0  0  0  0
  -16.9760  -27.5500   22.5840 C   0  0  0  0  0  3  0  0  0  0  0  0
  -25.8890  -32.4150   23.8340 C   0  0  0  0  0  3  0  0  0  0  0  0
  -26.4400  -31.6440   25.0970 C   0  0  1  0  0  0  0  0  0  0  0  0
  -25.3600  -31.3550   26.1660 C   0  0  0  0  0  1  0  0  0  0  0  0
  -27.0660  -30.2930   24.6820 C   0  0  0  0  0  1  0  0  0  0  0  0
  -27.5660  -32.4680   25.7630 C   0  0  0  0  0  1  0  0  0  0  0  0
  -25.5790  -33.8100   24.1690 N   0  0  0  0  0  0  0  0  0  0  0  0
  -25.9110  -34.8650   23.4130 C   0  0  0  0  0  0  0  0  0  0  0  0
  -26.5830  -34.7660   22.3830 O   0  0  0  0  0  0  0  0  0  0  0  0
  -24.9830  -33.9620   24.9700 H   0  0  0  0  0  0  0  0  0  0  0  0
  -24.1730  -36.6480   23.0660 C   0  0  0  0  0  1  0  0  0  0  0  0
  -25.4180  -36.2500   23.8730 C   0  0  0  0  0  3  0  0  0  0  0  0
  -27.5510  -37.1440   24.6980 C   0  0  0  0  0  1  0  0  0  0  0  0
  -26.4450  -37.3090   23.7580 N   0  0  0  0  0  0  0  0  0  0  0  0
  -26.0350  -38.2260   23.9090 H   0  0  0  0  0  0  0  0  0  0  0  0
  2  1  2  0
  2  6  1  0
  3  2  1  0
  4  8  1  0
  4  3  2  0
  5 52  1  0
  5  1  1  0
  7  4  1  0
  8  5  2  0
  9  3  1  0
 10  9  1  0
 11 17  1  0
 11 23  1  0
 12 17  1  0
 13 14  1  0
 13 12  1  0
 15 14  1  0
 15 27  1  0
 15 16  1  0
 17 16  1  0
 18 11  2  0
 20 19  1  0
 21 23  1  0
 21 22  1  0
 22  9  1  0
 22 19  1  0
 23 20  1  0
 24 25  2  0
 25 44  1  0
 26 25  1  0
 26 29  1  0
 27 28  1  0
 27 24  1  0
 28 26  2  0
 29 30  1  0
 30 31  2  0
 32 35  1  0
 32 31  1  0
 33 32  2  0
 34 33  1  0
 34 29  2  0
 35 36  1  0
 36 41  2  0
 36 37  1  0
 37 38  2  0
 38 39  1  0
 39 43  1  0
 40 39  2  0
 41 40  1  0
 42 41  1  0
 44 45  1  0
 45 48  1  0
 45 47  1  0
 46 44  2  0
 49 24  1  0
 49 50  1  0
 51 49  1  0
 53 54  1  0
 53 52  1  0
 55 57  1  0
 55 54  1  0
 56 67  2  0
 57 62  1  0
 58 66  1  0
 58 68  1  0
 59 65  1  0
 59 61  1  0
 60 66  1  0
 61 60  1  0
 62 61  2  0
 63 64  1  0
 63 57  2  0
 64 59  2  0
 65 58  1  0
 66 56  1  0
 68 70  2  0
 69 68  1  0
 71 69  1  0
 72 81  2  0
 72 77  1  0
 73 69  1  0
 73 77  1  0
 74 73  1  0
 75 76  1  0
 75 74  1  0
 76 72  1  0
 77 78  2  0
 78 79  1  0
 80 79  2  0
 81 80  1  0
 82 56  1  0
 82 87  1  0
 82 83  1  0
 83 86  1  1
 83 84  1  0
 85 83  1  0
 87 90  1  0
 88 92  1  0
 88 87  1  0
 89 88  2  0
 92 91  1  0
 94 92  1  0
 94 95  1  0
 94 93  1  0
M  ISO  4  11 100  23 100  54 101  55 101
M  END
>  <TORSDO>  (66) 
F 20

>  <SCORE>  (66) 
-12.117

>  <name>  (66) 
65

>  <ligand_id>  (66) 
65

>  <original_smiles>  (66) 
[H]c1c([H])c([H])c2c(c1[H])C([H])([H])C([H])([H])C([H])([H])C2([H])N([H])C(=O)C1([H])N(C(=O)C([H])(N([H])C(=O)C([H])(N([H])C([H])([H])[H])C([H])([H])[H])C(C([H])([H])[H])(C([H])([H])[H])C([H])([H])[H])C([H])([H])c2c([H])c(OC([H])([H])C([H])([H])Oc3nc(C([H])([H])[H])c(N([H])C4([H])C([H])([H])N(C(=O)N5C([H])([H])C([H])([H])C([H])([H])C([H])(n6nc(-c7c([H])c([H])c(Oc8c([H])c([H])c(F)c([H])c8F)c([H])c7[H])c(C(=O)N([H])[H])c6N([H])[H])C5([H])[H])C([H])([H])C4([H])[H])c(C([H])([H])[H])c3[H])c([H])c([H])c2C1([H])[H]

>  <smiles>  (66) 
[H]c1c([H])c([H])c2c(c1[H])C([H])([H])C([H])([H])C([H])([H])C2([H])N([H])C(=O)C1([H])N(C(=O)C([H])(N([H])C(=O)C([H])(N([H])C([H])([H])[H])C([H])([H])[H])C(C([H])([H])[H])(C([H])([H])[H])C([H])([H])[H])C([H])([H])c2c([H])c(OC([H])([H])C([H])([H])Oc3nc(C([H])([H])[H])c(N([H])C4([H])C([H])([H])N(C(=O)N5C([H])([H])C([H])([H])C([H])([H])C([H])(n6nc(-c7c([H])c([H])c(Oc8c([H])c([H])c(F)c([H])c8F)c([H])c7[H])c(C(=O)N([H])[H])c6N([H])[H])C5([H])[H])C([H])([H])C4([H])[H])c(C([H])([H])[H])c3[H])c([H])c([H])c2C1([H])[H]

$$$$
66:0:0
     RDKit          3D

101110  0  0  1  0  0  0  0  0999 V2000
  -27.3760  -22.7150   20.2450 C   0  0  0  0  0  2  0  0  0  0  0  0
  -29.3890  -23.8680   19.6310 C   0  0  0  0  0  2  0  0  0  0  0  0
  -28.6670  -22.4250   19.4640 C   0  0  0  0  0  3  0  0  0  0  0  0
  -27.0250  -24.2530   20.2530 C   0  0  0  0  0  3  0  0  0  0  0  0
  -28.3730  -25.0670   20.1190 C   0  0  0  0  0  3  0  0  0  0  0  0
  -29.6000  -18.5220   18.6200 C   0  0  0  0  0  3  0  0  0  0  0  0
  -29.9360  -18.8030   20.9290 C   0  0  0  0  0  3  0  0  0  0  0  0
  -29.2910  -20.8860   19.5970 C   0  0  0  0  0  0  0  0  0  0  0  0
  -29.3220  -19.9480   18.4940 C   0  0  0  0  0  0  0  0  0  0  0  0
  -29.6920  -20.2310   20.8190 C   0  0  0  0  0  0  0  0  0  0  0  0
  -29.8820  -17.8560   19.8560 C   0  0  0  0  0  0  0  0  0  0  0  0
  -29.0220  -20.4600   17.0960 C   0  0  0  0  0  1  0  0  0  0  0  0
  -29.8850  -21.0330   22.0960 C   0  0  0  0  0  1  0  0  0  0  0  0
  -30.7810  -15.2580   19.8140 C   0  0  0  0  0  0  0  0  0  0  0  0
  -30.7280  -12.8410   19.0660 C   0  0  0  0  0  2  0  0  0  0  0  0
  -29.7600  -12.6920   17.8670 C   0  0  0  0  0  2  0  0  0  0  0  0
  -28.3090  -12.4960   18.3470 C   0  0  0  0  0  2  0  0  0  0  0  0
  -27.9150  -13.5000   19.4620 C   0  0  0  0  0  3  0  0  0  0  0  0
  -28.9960  -13.5880   20.5620 C   0  0  0  0  0  2  0  0  0  0  0  0
  -30.2550  -13.9740   19.9090 N   0  0  0  0  0  0  0  0  0  0  0  0
  -31.9330  -15.3880   19.3820 O   0  0  0  0  0  0  0  0  0  0  0  0
  -29.9490  -16.3560   20.1200 N   0  0  0  0  0  0  0  0  0  0  0  0
  -29.1410  -16.0270   20.6270 H   0  0  0  0  0  0  0  0  0  0  0  0
  -25.5770  -14.1100   20.3150 C   0  0  0  0  0  0  0  0  0  0  0  0
  -24.5170  -13.3450   20.7200 C   0  0  0  0  0  0  0  0  0  0  0  0
  -24.9540  -11.9880   20.6400 C   0  0  0  0  0  0  0  0  0  0  0  0
  -26.5920  -13.2190   20.0090 N   0  0  0  0  0  0  0  0  0  0  0  0
  -26.2270  -11.9360   20.2670 N   0  0  0  0  0  0  0  0  0  0  0  0
  -24.2140  -10.7350   20.8380 C   0  0  0  0  0  0  0  0  0  0  0  0
  -24.6430   -9.7630   21.7690 C   0  0  0  0  0  3  0  0  0  0  0  0
  -23.9020   -8.5760   21.9560 C   0  0  0  0  0  3  0  0  0  0  0  0
  -22.7190   -8.3530   21.2120 C   0  0  0  0  0  0  0  0  0  0  0  0
  -22.3100   -9.3130   20.2700 C   0  0  0  0  0  3  0  0  0  0  0  0
  -23.0500  -10.4910   20.0810 C   0  0  0  0  0  3  0  0  0  0  0  0
  -21.9500   -7.2180   21.3080 O   0  0  0  0  0  0  0  0  0  0  0  0
  -21.8510   -6.5130   22.4810 C   0  0  0  0  0  0  0  0  0  0  0  0
  -21.3500   -7.1000   23.6630 C   0  0  0  0  0  3  0  0  0  0  0  0
  -21.2010   -6.3200   24.8270 C   0  0  0  0  0  3  0  0  0  0  0  0
  -21.5420   -4.9540   24.8100 C   0  0  0  0  0  0  0  0  0  0  0  0
  -22.0380   -4.3670   23.6320 C   0  0  0  0  0  3  0  0  0  0  0  0
  -22.1880   -5.1440   22.4710 C   0  0  0  0  0  0  0  0  0  0  0  0
  -22.6450   -4.5690   21.3330 F   0  0  0  0  0  0  0  0  0  0  0  0
  -21.3930   -4.2030   25.9260 F   0  0  0  0  0  0  0  0  0  0  0  0
  -23.1430  -13.8410   21.0660 C   0  0  0  0  0  0  0  0  0  0  0  0
  -22.4560  -13.1580   21.9750 N   0  0  0  0  0  0  0  0  0  0  0  0
  -22.6890  -14.8700   20.5660 O   0  0  0  0  0  0  0  0  0  0  0  0
  -22.8360  -12.3250   22.3980 H   0  0  0  0  0  0  0  0  0  0  0  0
  -21.5360  -13.4730   22.2500 H   0  0  0  0  0  0  0  0  0  0  0  0
  -25.7570  -15.4810   20.1590 N   0  0  0  0  0  0  0  0  0  0  0  0
  -25.0070  -16.1440   20.3280 H   0  0  0  0  0  0  0  0  0  0  0  0
  -26.5850  -15.9140   19.7710 H   0  0  0  0  0  0  0  0  0  0  0  0
  -28.4260  -26.5260   19.5570 O   0  0  0  0  0  0  0  0  0  0  0  0
  -24.6350  -31.7680   23.0540 C   0  0  0  0  0  0  0  0  0  0  0  0
  -27.3420  -27.4660   19.6010 C   0  0  0  0  0  0  0  0  0  0  0  0
  -23.4620  -30.4670   21.3200 C   0  0  0  0  0  3  0  0  0  0  0  0
  -24.9490  -29.0930   19.7420 C   0  0  0  0  0  0  0  0  0  0  0  0
  -25.9950  -30.8630   21.1390 C   0  0  0  0  0  2  0  0  0  0  0  0
  -26.1140  -29.5310   20.3840 C   0  0  0  0  0  0  0  0  0  0  0  0
  -27.3110  -28.7290   20.3100 C   0  0  0  0  0  3  0  0  0  0  0  0
  -26.1750  -27.1700   18.8650 C   0  0  0  0  0  3  0  0  0  0  0  0
  -24.9890  -27.9260   18.9650 C   0  0  0  0  0  3  0  0  0  0  0  0
  -23.6860  -29.9270   19.8830 C   0  0  0  0  0  2  0  0  0  0  0  0
  -24.7180  -31.0480   21.8960 N   0  0  0  0  0  0  0  0  0  0  0  0
  -23.5490  -31.9580   23.6220 O   0  0  0  0  0  0  0  0  0  0  0  0
  -22.8530  -29.3460   22.1980 C   0  0  0  0  0  0  0  0  0  0  0  0
  -21.5260  -29.1470   22.1080 N   0  0  0  0  0  0  0  0  0  0  0  0
  -23.5770  -28.6520   22.9170 O   0  0  0  0  0  0  0  0  0  0  0  0
  -20.9950  -29.7600   21.5060 H   0  0  0  0  0  0  0  0  0  0  0  0
  -18.2010  -27.8020   22.6030 C   0  0  0  0  0  0  0  0  0  0  0  0
  -20.7610  -28.1140   22.8110 C   0  0  0  0  0  3  0  0  0  0  0  0
  -20.8820  -26.7460   22.0980 C   0  0  0  0  0  2  0  0  0  0  0  0
  -19.7540  -26.4860   21.0950 C   0  0  0  0  0  2  0  0  0  0  0  0
  -18.3910  -26.5290   21.7940 C   0  0  0  0  0  2  0  0  0  0  0  0
  -19.3140  -28.5540   23.0680 C   0  0  0  0  0  0  0  0  0  0  0  0
  -19.0800  -29.7470   23.7860 C   0  0  0  0  0  3  0  0  0  0  0  0
  -17.7700  -30.1880   24.0440 C   0  0  0  0  0  3  0  0  0  0  0  0
  -16.6720  -29.4310   23.5970 C   0  0  0  0  0  3  0  0  0  0  0  0
  -16.8890  -28.2400   22.8830 C   0  0  0  0  0  3  0  0  0  0  0  0
  -25.8990  -32.4060   23.7080 C   0  0  0  0  0  3  0  0  0  0  0  0
  -25.5830  -33.8090   24.0190 N   0  0  0  0  0  0  0  0  0  0  0  0
  -25.9380  -34.8560   23.2630 C   0  0  0  0  0  0  0  0  0  0  0  0
  -26.6340  -34.7430   22.2510 O   0  0  0  0  0  0  0  0  0  0  0  0
  -24.9740  -33.9710   24.8060 H   0  0  0  0  0  0  0  0  0  0  0  0
  -24.2270  -36.6550   22.8570 C   0  0  0  0  0  1  0  0  0  0  0  0
  -25.4460  -36.2490   23.7010 C   0  0  0  0  0  3  0  0  0  0  0  0
  -27.5590  -37.1400   24.5840 C   0  0  0  0  0  1  0  0  0  0  0  0
  -26.4850  -37.2980   23.6070 N   0  0  0  0  0  0  0  0  0  0  0  0
  -26.0770  -38.2200   23.7320 H   0  0  0  0  0  0  0  0  0  0  0  0
  -26.3720  -31.6490   25.0090 C   0  0  1  0  0  0  0  0  0  0  0  0
  -25.2500  -31.4450   26.0530 C   0  0  0  0  0  1  0  0  0  0  0  0
  -26.9460  -30.2560   24.6570 C   0  0  0  0  0  1  0  0  0  0  0  0
  -27.5140  -32.4380   25.6900 C   0  0  0  0  0  1  0  0  0  0  0  0
  -26.1360  -24.5300   21.5360 C   0  0  0  0  0  3  0  0  0  0  0  0
  -26.4330  -25.7810   22.2570 N   0  0  0  0  0  4  0  0  0  0  0  0
  -26.3850  -26.5830   21.6470 H   0  0  0  0  0  0  0  0  0  0  0  0
  -27.3530  -25.7400   22.6650 H   0  0  0  0  0  0  0  0  0  0  0  0
  -25.7810  -25.9030   23.0130 H   0  0  0  0  0  0  0  0  0  0  0  0
  -23.9920  -25.2880   20.2110 C   0  0  0  0  0  1  0  0  0  0  0  0
  -24.5900  -24.4090   21.3230 C   0  0  0  0  0  3  0  0  0  0  0  0
  -24.1850  -23.0690   21.1040 O   0  0  0  0  0  0  0  0  0  0  0  0
  -24.5850  -22.7600   20.2990 H   0  0  0  0  0  0  0  0  0  0  0  0
  1  4  1  0
  2  5  1  0
  3  8  1  0
  3  2  1  0
  3  1  1  0
  4 93  1  0
  5 52  1  0
  5  4  1  0
  6 11  1  0
  8 10  2  0
  9  6  2  0
  9  8  1  0
 10  7  1  0
 10 13  1  0
 11 22  1  0
 11  7  2  0
 12  9  1  0
 14 20  1  0
 14 22  1  0
 15 20  1  0
 16 17  1  0
 16 15  1  0
 18 17  1  0
 18 27  1  0
 18 19  1  0
 20 19  1  0
 21 14  2  0
 22 23  1  0
 24 25  2  0
 25 44  1  0
 26 25  1  0
 26 29  1  0
 27 28  1  0
 27 24  1  0
 28 26  2  0
 29 30  1  0
 30 31  2  0
 32 35  1  0
 32 31  1  0
 33 32  2  0
 34 33  1  0
 34 29  2  0
 35 36  1  0
 36 37  1  0
 37 38  2  0
 39 38  1  0
 39 43  1  0
 40 39  2  0
 41 36  2  0
 41 40  1  0
 42 41  1  0
 44 45  1  0
 45 48  1  0
 45 47  1  0
 46 44  2  0
 49 24  1  0
 49 50  1  0
 51 49  1  0
 52 54  1  0
 53 64  2  0
 54 59  1  0
 55 63  1  0
 55 65  1  0
 56 62  1  0
 56 58  1  0
 57 63  1  0
 58 57  1  0
 59 58  2  0
 60 61  1  0
 60 54  2  0
 61 56  2  0
 62 55  1  0
 63 53  1  0
 65 67  2  0
 66 65  1  0
 68 66  1  0
 69 78  2  0
 69 74  1  0
 70 66  1  0
 70 74  1  0
 71 70  1  0
 72 73  1  0
 72 71  1  0
 73 69  1  0
 74 75  2  0
 75 76  1  0
 77 76  2  0
 78 77  1  0
 79 53  1  0
 79 80  1  0
 79 89  1  0
 80 83  1  0
 81 85  1  0
 81 80  1  0
 82 81  2  0
 85 84  1  0
 87 85  1  0
 87 88  1  0
 87 86  1  0
 89 92  1  1
 89 90  1  0
 91 89  1  0
 93 94  1  0
 94 96  1  0
 94 97  1  0
 95 94  1  0
 99 98  1  0
 99 93  1  0
100 99  1  0
101100  1  0
M  ISO  4   5 101  14 100  22 100  52 101
M  END
>  <TORSDO>  (67) 
F 21

>  <SCORE>  (67) 
-13.537

>  <name>  (67) 
66

>  <ligand_id>  (67) 
66

>  <original_smiles>  (67) 
[H]OC([H])(C([H])([H])[H])C([H])(C1([H])C([H])([H])C([H])(c2c(C([H])([H])[H])c([H])c(N([H])C(=O)N3C([H])([H])C([H])([H])C([H])([H])C([H])(n4nc(-c5c([H])c([H])c(Oc6c([H])c([H])c(F)c([H])c6F)c([H])c5[H])c(C(=O)N([H])[H])c4N([H])[H])C3([H])[H])c([H])c2C([H])([H])[H])C([H])([H])C1([H])Oc1c([H])c([H])c2c(c1[H])C([H])([H])N(C(=O)C([H])(N([H])C(=O)C([H])(N([H])C([H])([H])[H])C([H])([H])[H])C(C([H])([H])[H])(C([H])([H])[H])C([H])([H])[H])C([H])(C(=O)N([H])C1([H])c3c([H])c([H])c([H])c([H])c3C([H])([H])C([H])([H])C1([H])[H])C2([H])[H])[N+]([H])([H])[H]

>  <smiles>  (67) 
[H]OC([H])(C([H])([H])[H])C([H])(C1([H])C([H])([H])C([H])(c2c(C([H])([H])[H])c([H])c(N([H])C(=O)N3C([H])([H])C([H])([H])C([H])([H])C([H])(n4nc(-c5c([H])c([H])c(Oc6c([H])c([H])c(F)c([H])c6F)c([H])c5[H])c(C(=O)N([H])[H])c4N([H])[H])C3([H])[H])c([H])c2C([H])([H])[H])C([H])([H])C1([H])Oc1c([H])c([H])c2c(c1[H])C([H])([H])N(C(=O)C([H])(N([H])C(=O)C([H])(N([H])C([H])([H])[H])C([H])([H])[H])C(C([H])([H])[H])(C([H])([H])[H])C([H])([H])[H])C([H])(C(=O)N([H])C1([H])c3c([H])c([H])c([H])c([H])c3C([H])([H])C([H])([H])C1([H])[H])C2([H])[H])[N+]([H])([H])[H]

$$$$
68:0:0
     RDKit          3D

 97107  0  0  1  0  0  0  0  0999 V2000
  -30.3620  -20.1770   19.9990 C   0  0  0  0  0  3  0  0  0  0  0  0
  -30.3120  -20.6080   22.3820 C   0  0  0  0  0  3  0  0  0  0  0  0
  -30.3600  -19.6870   21.3180 C   0  0  0  0  0  0  0  0  0  0  0  0
  -30.1760  -22.4940   20.8130 C   0  0  0  0  0  0  0  0  0  0  0  0
  -30.2680  -21.5610   19.7380 C   0  0  0  0  0  0  0  0  0  0  0  0
  -30.2260  -22.0050   22.1500 C   0  0  0  0  0  0  0  0  0  0  0  0
  -30.2630  -22.0020   18.2820 C   0  0  0  0  0  1  0  0  0  0  0  0
  -30.8050  -14.4820   19.9330 C   0  0  0  0  0  0  0  0  0  0  0  0
  -30.3540  -12.4090   18.6540 C   0  0  0  0  0  2  0  0  0  0  0  0
  -29.3050  -12.6500   17.5510 C   0  0  0  0  0  2  0  0  0  0  0  0
  -27.8780  -12.4750   18.1030 C   0  0  0  0  0  2  0  0  0  0  0  0
  -27.6600  -13.2610   19.4190 C   0  0  0  0  0  3  0  0  0  0  0  0
  -28.8070  -12.9670   20.4180 C   0  0  0  0  0  2  0  0  0  0  0  0
  -30.0780  -13.3350   19.7710 N   0  0  0  0  0  0  0  0  0  0  0  0
  -31.8010  -14.7070   19.2360 O   0  0  0  0  0  0  0  0  0  0  0  0
  -29.2410  -17.4360   20.8850 C   0  0  0  0  0  2  0  0  0  0  0  0
  -31.7050  -17.4850   21.3200 C   0  0  0  0  0  2  0  0  0  0  0  0
  -29.2320  -15.9440   21.2670 C   0  0  0  0  0  2  0  0  0  0  0  0
  -31.6250  -15.9870   21.7070 C   0  0  0  0  0  2  0  0  0  0  0  0
  -30.3670  -18.1860   21.6100 C   0  0  0  0  0  3  0  0  0  0  0  0
  -30.5310  -15.2910   20.9980 N   0  0  0  0  0  0  0  0  0  0  0  0
  -25.3390  -13.8710   20.3590 C   0  0  0  0  0  0  0  0  0  0  0  0
  -24.2990  -13.0940   20.7930 C   0  0  0  0  0  0  0  0  0  0  0  0
  -24.7400  -11.7400   20.6670 C   0  0  0  0  0  0  0  0  0  0  0  0
  -26.3490  -12.9890   20.0040 N   0  0  0  0  0  0  0  0  0  0  0  0
  -25.9960  -11.7010   20.2450 N   0  0  0  0  0  0  0  0  0  0  0  0
  -24.0210  -10.4780   20.8710 C   0  0  0  0  0  0  0  0  0  0  0  0
  -24.4550   -9.5270   21.8220 C   0  0  0  0  0  3  0  0  0  0  0  0
  -23.7370   -8.3270   22.0110 C   0  0  0  0  0  3  0  0  0  0  0  0
  -22.5730   -8.0680   21.2490 C   0  0  0  0  0  0  0  0  0  0  0  0
  -22.1600   -9.0060   20.2860 C   0  0  0  0  0  3  0  0  0  0  0  0
  -22.8780  -10.1980   20.0950 C   0  0  0  0  0  3  0  0  0  0  0  0
  -21.8280   -6.9180   21.3460 O   0  0  0  0  0  0  0  0  0  0  0  0
  -21.6790   -6.2570   22.5380 C   0  0  0  0  0  0  0  0  0  0  0  0
  -21.1070   -6.8790   23.6690 C   0  0  0  0  0  3  0  0  0  0  0  0
  -20.9090   -6.1410   24.8530 C   0  0  0  0  0  3  0  0  0  0  0  0
  -21.2730   -4.7810   24.9060 C   0  0  0  0  0  0  0  0  0  0  0  0
  -21.8380   -4.1590   23.7790 C   0  0  0  0  0  3  0  0  0  0  0  0
  -22.0380   -4.8950   22.5970 C   0  0  0  0  0  0  0  0  0  0  0  0
  -22.5630   -4.2850   21.5080 F   0  0  0  0  0  0  0  0  0  0  0  0
  -21.0760   -4.0700   26.0410 F   0  0  0  0  0  0  0  0  0  0  0  0
  -22.9360  -13.5710   21.2070 C   0  0  0  0  0  0  0  0  0  0  0  0
  -22.2790  -12.8420   22.1040 N   0  0  0  0  0  0  0  0  0  0  0  0
  -22.4650  -14.6200   20.7720 O   0  0  0  0  0  0  0  0  0  0  0  0
  -22.6740  -11.9930   22.4780 H   0  0  0  0  0  0  0  0  0  0  0  0
  -21.3680  -13.1420   22.4220 H   0  0  0  0  0  0  0  0  0  0  0  0
  -25.5000  -15.2460   20.2190 N   0  0  0  0  0  0  0  0  0  0  0  0
  -24.7490  -15.8960   20.4220 H   0  0  0  0  0  0  0  0  0  0  0  0
  -26.3170  -15.6950   19.8250 H   0  0  0  0  0  0  0  0  0  0  0  0
  -31.1050  -24.9020   21.1490 C   0  0  0  0  0  2  0  0  0  0  0  0
  -30.5250  -26.3200   21.0510 C   0  0  0  0  0  2  0  0  0  0  0  0
  -28.7040  -24.6620   20.9610 C   0  0  0  0  0  2  0  0  0  0  0  0
  -30.0280  -24.0070   20.5290 C   0  0  0  0  0  3  0  0  0  0  0  0
  -28.9900  -26.1760   21.0030 C   0  0  0  0  0  3  0  0  0  0  0  0
  -28.5190  -26.7780   19.7990 O   0  0  0  0  0  0  0  0  0  0  0  0
  -24.5810  -31.7530   23.0780 C   0  0  0  0  0  0  0  0  0  0  0  0
  -27.3360  -27.4680   19.8970 C   0  0  0  0  0  0  0  0  0  0  0  0
  -23.4070  -30.3650   21.3960 C   0  0  0  0  0  3  0  0  0  0  0  0
  -24.9000  -28.8910   19.9450 C   0  0  0  0  0  0  0  0  0  0  0  0
  -25.9220  -30.7870   21.2160 C   0  0  0  0  0  2  0  0  0  0  0  0
  -26.0400  -29.4320   20.5530 C   0  0  0  0  0  0  0  0  0  0  0  0
  -27.2620  -28.7240   20.5360 C   0  0  0  0  0  3  0  0  0  0  0  0
  -26.1850  -26.9330   19.2830 C   0  0  0  0  0  3  0  0  0  0  0  0
  -24.9640  -27.6350   19.3120 C   0  0  0  0  0  3  0  0  0  0  0  0
  -23.6360  -29.7180   20.0030 C   0  0  0  0  0  2  0  0  0  0  0  0
  -24.6540  -30.9830   21.9550 N   0  0  0  0  0  0  0  0  0  0  0  0
  -23.4930  -31.9890   23.6220 O   0  0  0  0  0  0  0  0  0  0  0  0
  -22.7770  -29.3080   22.3310 C   0  0  0  0  0  0  0  0  0  0  0  0
  -21.4540  -29.1140   22.2050 N   0  0  0  0  0  0  0  0  0  0  0  0
  -23.4740  -28.6680   23.1210 O   0  0  0  0  0  0  0  0  0  0  0  0
  -20.9530  -29.6840   21.5390 H   0  0  0  0  0  0  0  0  0  0  0  0
  -18.0950  -27.8790   22.6990 C   0  0  0  0  0  0  0  0  0  0  0  0
  -20.6540  -28.1440   22.9510 C   0  0  0  0  0  3  0  0  0  0  0  0
  -20.7580  -26.7340   22.3230 C   0  0  0  0  0  2  0  0  0  0  0  0
  -19.6470  -26.4410   21.3110 C   0  0  0  0  0  2  0  0  0  0  0  0
  -18.2710  -26.5570   21.9740 C   0  0  0  0  0  2  0  0  0  0  0  0
  -19.2140  -28.6320   23.1430 C   0  0  0  0  0  0  0  0  0  0  0  0
  -18.9960  -29.8740   23.7800 C   0  0  0  0  0  3  0  0  0  0  0  0
  -17.6900  -30.3630   23.9760 C   0  0  0  0  0  3  0  0  0  0  0  0
  -16.5860  -29.6060   23.5490 C   0  0  0  0  0  3  0  0  0  0  0  0
  -16.7890  -28.3670   22.9160 C   0  0  0  0  0  3  0  0  0  0  0  0
  -25.8540  -32.3930   23.7140 C   0  0  0  0  0  3  0  0  0  0  0  0
  -25.5140  -33.7720   24.0910 N   0  0  0  0  0  0  0  0  0  0  0  0
  -25.8190  -34.8550   23.3640 C   0  0  0  0  0  0  0  0  0  0  0  0
  -26.4870  -34.8000   22.3280 O   0  0  0  0  0  0  0  0  0  0  0  0
  -24.9180  -33.8850   24.8980 H   0  0  0  0  0  0  0  0  0  0  0  0
  -24.0470  -36.6140   23.0670 C   0  0  0  0  0  1  0  0  0  0  0  0
  -25.2980  -36.2140   23.8660 C   0  0  0  0  0  3  0  0  0  0  0  0
  -27.4070  -37.1260   24.7330 C   0  0  0  0  0  1  0  0  0  0  0  0
  -26.3060  -37.2950   23.7890 N   0  0  0  0  0  0  0  0  0  0  0  0
  -25.8770  -38.2000   23.9610 H   0  0  0  0  0  0  0  0  0  0  0  0
  -26.3980  -31.5910   24.9600 C   0  0  1  0  0  0  0  0  0  0  0  0
  -25.3160  -31.2860   26.0220 C   0  0  0  0  0  1  0  0  0  0  0  0
  -27.0150  -30.2440   24.5140 C   0  0  0  0  0  1  0  0  0  0  0  0
  -27.5300  -32.3910   25.6450 C   0  0  0  0  0  1  0  0  0  0  0  0
  -30.3350  -22.4590   24.5210 C   0  0  0  0  0  1  0  0  0  0  0  0
  -30.1850  -22.9200   23.1840 O   0  0  0  0  0  0  0  0  0  0  0  0
  1  3  1  0
  3  2  2  0
  4  6  2  0
  5  1  2  0
  5  4  1  0
  6  2  1  0
  6 97  1  0
  7  5  1  0
  8 21  1  0
  9 14  1  0
 10 11  1  0
 10  9  1  0
 12 11  1  0
 12 25  1  0
 12 13  1  0
 14  8  1  0
 14 13  1  0
 15  8  2  0
 16 18  1  0
 16 20  1  0
 17 20  1  0
 17 19  1  0
 20  3  1  0
 21 18  1  0
 21 19  1  0
 22 23  2  0
 23 42  1  0
 24 23  1  0
 24 27  1  0
 25 26  1  0
 25 22  1  0
 26 24  2  0
 27 28  1  0
 28 29  2  0
 30 33  1  0
 30 29  1  0
 31 30  2  0
 32 31  1  0
 32 27  2  0
 33 34  1  0
 34 39  2  0
 34 35  1  0
 35 36  2  0
 36 37  1  0
 37 41  1  0
 38 37  2  0
 39 38  1  0
 40 39  1  0
 42 43  1  0
 43 46  1  0
 43 45  1  0
 44 42  2  0
 47 22  1  0
 47 48  1  0
 49 47  1  0
 51 50  1  0
 52 54  1  0
 53  4  1  0
 53 52  1  0
 53 50  1  0
 54 55  1  0
 54 51  1  0
 55 57  1  0
 56 67  2  0
 57 62  1  0
 58 66  1  0
 58 68  1  0
 59 65  1  0
 59 61  1  0
 60 66  1  0
 61 60  1  0
 62 61  2  0
 63 64  1  0
 63 57  2  0
 64 59  2  0
 65 58  1  0
 66 56  1  0
 68 70  2  0
 69 68  1  0
 71 69  1  0
 72 81  2  0
 72 77  1  0
 73 69  1  0
 73 77  1  0
 74 73  1  0
 75 76  1  0
 75 74  1  0
 76 72  1  0
 77 78  2  0
 78 79  1  0
 80 79  2  0
 81 80  1  0
 82 56  1  0
 82 83  1  0
 82 92  1  0
 83 86  1  0
 84 88  1  0
 84 83  1  0
 85 84  2  0
 88 87  1  0
 90 88  1  0
 90 91  1  0
 90 89  1  0
 92 95  1  1
 92 93  1  0
 94 92  1  0
 97 96  1  0
M  ISO  4   8 100  21 100  54 101  55 101
M  END
>  <TORSDO>  (68) 
F 18

>  <SCORE>  (68) 
-13.871

>  <name>  (68) 
68

>  <ligand_id>  (68) 
68

>  <original_smiles>  (68) 
[H]c1c([H])c([H])c2c(c1[H])C([H])([H])C([H])([H])C([H])([H])C2([H])N([H])C(=O)C1([H])N(C(=O)C([H])(N([H])C(=O)C([H])(N([H])C([H])([H])[H])C([H])([H])[H])C(C([H])([H])[H])(C([H])([H])[H])C([H])([H])[H])C([H])([H])c2c([H])c(OC3([H])C([H])([H])C([H])([H])C([H])(c4c(OC([H])([H])[H])c([H])c(C5([H])C([H])([H])C([H])([H])N(C(=O)N6C([H])([H])C([H])([H])C([H])([H])C([H])(n7nc(-c8c([H])c([H])c(Oc9c([H])c([H])c(F)c([H])c9F)c([H])c8[H])c(C(=O)N([H])[H])c7N([H])[H])C6([H])[H])C([H])([H])C5([H])[H])c([H])c4C([H])([H])[H])C3([H])[H])c([H])c([H])c2C1([H])[H]

>  <smiles>  (68) 
[H]c1c([H])c([H])c2c(c1[H])C([H])([H])C([H])([H])C([H])([H])C2([H])N([H])C(=O)C1([H])N(C(=O)C([H])(N([H])C(=O)C([H])(N([H])C([H])([H])[H])C([H])([H])[H])C(C([H])([H])[H])(C([H])([H])[H])C([H])([H])[H])C([H])([H])c2c([H])c(OC3([H])C([H])([H])C([H])([H])C([H])(c4c(OC([H])([H])[H])c([H])c(C5([H])C([H])([H])C([H])([H])N(C(=O)N6C([H])([H])C([H])([H])C([H])([H])C([H])(n7nc(-c8c([H])c([H])c(Oc9c([H])c([H])c(F)c([H])c9F)c([H])c8[H])c(C(=O)N([H])[H])c7N([H])[H])C6([H])[H])C([H])([H])C5([H])[H])c([H])c4C([H])([H])[H])C3([H])[H])c([H])c([H])c2C1([H])[H]

$$$$
69:0:0
     RDKit          3D

 92 92  0  0  1  0  0  0  0  0999 V2000
  -24.6640  -29.9350   19.9350 C   0  0  0  0  0 15  0  0  0  0  0  0
  -25.1910  -27.2210   21.6360 C   0  0  0  0  0 15  0  0  0  0  0  0
  -24.2860  -28.6950   18.3680 C   0  0  0  0  0 15  0  0  0  0  0  0
  -25.6060  -25.2950   20.5500 C   0  0  0  0  0 15  0  0  0  0  0  0
  -24.6790  -26.4840   19.0080 C   0  0  0  0  0  1  0  0  0  0  0  0
  -29.3560  -17.2420   19.9950 C   0  0  0  0  0  2  0  0  0  0  0  0
  -30.1480  -14.4440   19.0280 C   0  0  0  0  0  2  0  0  0  0  0  0
  -29.5460  -13.3050   18.0300 C   0  0  0  0  0  2  0  0  0  0  0  0
  -28.3760  -12.5200   18.6200 C   0  0  0  0  0  2  0  0  0  0  0  0
  -27.6410  -13.5470   19.5020 C   0  0  0  0  0  3  0  0  0  0  0  0
  -28.4880  -14.4290   20.4840 C   0  0  0  0  0  2  0  0  0  0  0  0
  -29.2240  -15.5880   19.7870 N   0  0  0  0  0  0  0  0  0  0  0  0
  -30.6320  -17.0740   19.7880 O   0  0  0  0  0  1  0  0  0  0  0  0
  -26.9200  -21.5750   19.3810 C   0  0  0  0  0  2  0  0  0  0  0  0
  -28.0280  -20.1710   19.2230 C   0  0  0  0  0  3  0  0  0  0  0  0
  -27.7820  -20.7710   21.0100 C   0  0  0  0  0  1  0  0  0  0  0  0
  -26.9660  -22.9220   20.5030 C   0  0  0  0  0  1  0  0  0  0  0  0
  -28.3760  -18.9180   20.2180 N   0  0  0  0  0  1  0  0  0  0  0  0
  -25.3770  -13.8710   20.5000 C   0  0  0  0  0  0  0  0  0  0  0  0
  -24.3840  -13.0430   20.9160 C   0  0  0  0  0  0  0  0  0  0  0  0
  -24.8550  -11.7090   20.7110 C   0  0  0  0  0  0  0  0  0  0  0  0
  -26.4090  -13.0690   20.0880 N   0  0  0  0  0  0  0  0  0  0  0  0
  -26.1190  -11.7470   20.2560 N   0  0  0  0  0  0  0  0  0  0  0  0
  -24.1430  -10.4310   20.8860 C   0  0  0  0  0  0  0  0  0  0  0  0
  -24.5460   -9.4730   21.8460 C   0  0  0  0  0  3  0  0  0  0  0  0
  -23.8120   -8.2770   22.0080 C   0  0  0  0  0  3  0  0  0  0  0  0
  -22.6780   -8.0230   21.2180 C   0  0  0  0  0  0  0  0  0  0  0  0
  -22.2920   -8.9670   20.2610 C   0  0  0  0  0  3  0  0  0  0  0  0
  -23.0160  -10.1600   20.0860 C   0  0  0  0  0  3  0  0  0  0  0  0
  -21.9260   -6.8910   21.2920 O   0  0  0  0  0  0  0  0  0  0  0  0
  -21.6830   -6.2630   22.4850 C   0  0  0  0  0  0  0  0  0  0  0  0
  -20.9970   -6.9140   23.5310 C   0  0  0  0  0  3  0  0  0  0  0  0
  -20.6850   -6.2190   24.7200 C   0  0  0  0  0  3  0  0  0  0  0  0
  -21.0710   -4.8730   24.8710 C   0  0  0  0  0  0  0  0  0  0  0  0
  -21.7180   -4.2060   23.8170 C   0  0  0  0  0  3  0  0  0  0  0  0
  -22.0270   -4.9030   22.6290 C   0  0  0  0  0  0  0  0  0  0  0  0
  -22.6580   -4.2620   21.6150 F   0  0  0  0  0  0  0  0  0  0  0  0
  -20.7620   -4.1910   25.9970 F   0  0  0  0  0  0  0  0  0  0  0  0
  -23.0290  -13.4950   21.3460 C   0  0  0  0  0  0  0  0  0  0  0  0
  -22.4130  -12.7650   22.2620 N   0  0  0  0  0  0  0  0  0  0  0  0
  -22.5440  -14.5550   20.9490 O   0  0  0  0  0  0  0  0  0  0  0  0
  -22.8220  -11.9080   22.6160 H   0  0  0  0  0  0  0  0  0  0  0  0
  -21.5020  -13.0450   22.6080 H   0  0  0  0  0  0  0  0  0  0  0  0
  -25.5110  -15.2560   20.4070 N   0  0  0  0  0  0  0  0  0  0  0  0
  -24.7410  -15.8800   20.6200 H   0  0  0  0  0  0  0  0  0  0  0  0
  -26.3060  -15.7250   19.9820 H   0  0  0  0  0  0  0  0  0  0  0  0
  -25.1950  -25.5660   17.9900 N   0  0  0  0  0  4  0  0  0  0  0  0
  -24.9660  -26.3750   17.3820 H   0  0  0  0  0  0  0  0  0  0  0  0
  -24.6500  -24.8420   18.5350 H   0  0  0  0  0  0  0  0  0  0  0  0
  -26.7040  -25.1620   17.9930 C   0  0  0  0  0  2  0  0  0  0  0  0
  -28.2280  -25.7900   18.6960 C   0  0  0  0  0  2  0  0  0  0  0  0
  -28.5060  -26.6030   19.9730 O   0  0  0  0  0  0  0  0  0  0  0  0
  -25.6920  -31.5480   24.7190 C   0  0  0  0  0  0  0  0  0  0  0  0
  -28.4830  -27.9740   19.9040 C   0  0  0  0  0  3  0  0  0  0  0  0
  -24.3020  -30.1210   23.2110 C   0  0  0  0  0  3  0  0  0  0  0  0
  -26.4450  -28.9750   20.6720 C   0  0  0  0  0  2  0  0  0  0  0  0
  -27.1800  -30.2450   22.9720 C   0  0  0  0  0  2  0  0  0  0  0  0
  -27.4640  -29.5240   21.5050 C   0  0  0  0  0  0  0  0  0  0  0  0
  -28.5560  -28.7950   21.0960 C   0  0  0  0  0  3  0  0  0  0  0  0
  -27.6890  -28.3360   18.8100 C   0  0  0  0  0  2  0  0  0  0  0  0
  -26.7010  -29.0170   19.2450 C   0  0  0  0  0  2  0  0  0  0  0  0
  -24.2750  -29.0680   21.9260 C   0  0  0  0  0  1  0  0  0  0  0  0
  -25.7170  -30.6160   23.7030 N   0  0  0  0  0  0  0  0  0  0  0  0
  -24.6140  -32.0000   25.1600 O   0  0  0  0  0  0  0  0  0  0  0  0
  -23.2420  -29.6340   24.0190 C   0  0  0  0  0  0  0  0  0  0  0  0
  -22.0310  -29.6340   23.4570 N   0  0  0  0  0  0  0  0  0  0  0  0
  -23.5380  -29.0430   25.0130 O   0  0  0  0  0  0  0  0  0  0  0  0
  -21.8150  -30.0340   22.5350 H   0  0  0  0  0  0  0  0  0  0  0  0
  -18.6630  -28.4400   23.0410 C   0  0  0  0  0  0  0  0  0  0  0  0
  -21.0370  -28.6840   23.9270 C   0  0  0  0  0  3  0  0  0  0  0  0
  -21.2760  -27.2810   23.3540 C   0  0  0  0  0  2  0  0  0  0  0  0
  -20.5000  -26.9970   22.0780 C   0  0  0  0  0  2  0  0  0  0  0  0
  -19.0260  -27.0980   22.3870 C   0  0  0  0  0  2  0  0  0  0  0  0
  -19.6340  -29.2210   23.7000 C   0  0  0  0  0  0  0  0  0  0  0  0
  -19.2850  -30.4780   24.2220 C   0  0  0  0  0  3  0  0  0  0  0  0
  -17.9660  -30.9540   24.1060 C   0  0  0  0  0  3  0  0  0  0  0  0
  -16.9840  -30.1580   23.4940 C   0  0  0  0  0  3  0  0  0  0  0  0
  -17.3340  -28.9050   22.9660 C   0  0  0  0  0  3  0  0  0  0  0  0
  -26.9590  -32.0220   25.4620 C   0  0  0  0  0  3  0  0  0  0  0  0
  -27.2900  -31.0540   26.6730 C   0  0  1  0  0  0  0  0  0  0  0  0
  -26.0800  -30.8270   27.6050 C   0  0  0  0  0  1  0  0  0  0  0  0
  -27.7790  -29.6670   26.2330 C   0  0  0  0  0  1  0  0  0  0  0  0
  -28.4490  -31.6440   27.4880 C   0  0  0  0  0  1  0  0  0  0  0  0
  -26.8160  -33.4210   25.9630 N   0  0  0  0  0  0  0  0  0  0  0  0
  -27.4160  -34.5200   25.4710 C   0  0  0  0  0  0  0  0  0  0  0  0
  -28.1820  -34.4830   24.5030 O   0  0  0  0  0  0  0  0  0  0  0  0
  -26.1180  -33.5280   26.6830 H   0  0  0  0  0  0  0  0  0  0  0  0
  -26.0840  -36.6630   25.5190 C   0  0  0  0  0  1  0  0  0  0  0  0
  -27.1810  -35.8610   26.2230 C   0  0  0  0  0  3  0  0  0  0  0  0
  -29.4000  -36.1890   27.2630 C   0  0  0  0  0  1  0  0  0  0  0  0
  -28.3940  -36.7080   26.3300 N   0  0  0  0  0  0  0  0  0  0  0  0
  -28.1410  -37.6490   26.6370 H   0  0  0  0  0  0  0  0  0  0  0  0
  7 12  1  0
  8  9  1  0
  8  7  1  0
 10  9  1  0
 10 22  1  0
 10 11  1  0
 12  6  1  0
 12 11  1  0
 13  6  1  0
 14 17  1  0
 15 14  1  0
 15 18  1  0
 15 16  1  0
 19 20  2  0
 20 39  1  0
 21 24  1  0
 21 20  1  0
 22 23  1  0
 22 19  1  0
 23 21  2  0
 24 25  1  0
 25 26  2  0
 27 30  1  0
 27 26  1  0
 28 27  2  0
 29 28  1  0
 29 24  2  0
 30 31  1  0
 31 36  2  0
 31 32  1  0
 32 33  2  0
 33 34  1  0
 34 38  1  0
 35 34  2  0
 36 35  1  0
 37 36  1  0
 39 40  1  0
 40 43  1  0
 40 42  1  0
 41 39  2  0
 44 19  1  0
 44 45  1  0
 46 44  1  0
 47 50  1  0
 47 49  1  0
 47  5  1  0
 48 47  1  0
 50 51  1  0
 51 52  1  0
 53 64  2  0
 54 52  1  0
 54 59  1  0
 55 62  1  0
 55 63  1  0
 55 65  1  0
 56 58  1  0
 57 63  1  0
 58 57  1  0
 59 58  2  0
 60 61  1  0
 60 54  1  0
 61 56  1  0
 63 53  1  0
 65 67  2  0
 66 65  1  0
 68 66  1  0
 69 74  1  0
 70 66  1  0
 71 70  1  0
 72 73  1  0
 72 71  1  0
 73 69  1  0
 74 70  1  0
 74 75  2  0
 76 75  1  0
 77 76  2  0
 78 69  2  0
 78 77  1  0
 79 53  1  0
 79 84  1  0
 79 80  1  0
 80 83  1  1
 80 81  1  0
 82 80  1  0
 84 87  1  0
 85 84  1  0
 85 89  1  0
 86 85  2  0
 89 88  1  0
 89 91  1  0
 91 92  1  0
 91 90  1  0
M  ISO  4   6 100  18 100  51 101  52 101
M  END
>  <TORSDO>  (69) 
F 19

>  <SCORE>  (69) 
-9.211

>  <name>  (69) 
69

>  <ligand_id>  (69) 
69

>  <original_smiles>  (69) 
[H]c1c([H])c([H])c2c(c1[H])C([H])([H])C([H])([H])C([H])([H])C2([H])N([H])C(=O)C1([H])N(C(=O)C([H])(N([H])C(=O)C([H])(N([H])C([H])([H])[H])C([H])([H])[H])C(C([H])([H])[H])(C([H])([H])[H])C([H])([H])[H])C([H])([H])c2c([H])c(OC([H])([H])C([H])([H])[N+]([H])([H])C3([H])C([H])([H])C([H])([H])C([H])([H])C3([H])C3([H])C([H])([H])N(C(=O)N4C([H])([H])C([H])([H])C([H])([H])C([H])(n5nc(-c6c([H])c([H])c(Oc7c([H])c([H])c(F)c([H])c7F)c([H])c6[H])c(C(=O)N([H])[H])c5N([H])[H])C4([H])[H])C([H])([H])C3([H])[H])c([H])c([H])c2C1([H])[H]

>  <smiles>  (69) 
[H]c1c([H])c([H])c2c(c1[H])C([H])([H])C([H])([H])C([H])([H])C2([H])N([H])C(=O)C1([H])N(C(=O)C([H])(N([H])C(=O)C([H])(N([H])C([H])([H])[H])C([H])([H])[H])C(C([H])([H])[H])(C([H])([H])[H])C([H])([H])[H])C([H])([H])c2c([H])c(OC([H])([H])C([H])([H])[N+]([H])([H])C3([H])C([H])([H])C([H])([H])C([H])([H])C3([H])C3([H])C([H])([H])N(C(=O)N4C([H])([H])C([H])([H])C([H])([H])C([H])(n5nc(-c6c([H])c([H])c(Oc7c([H])c([H])c(F)c([H])c7F)c([H])c6[H])c(C(=O)N([H])[H])c5N([H])[H])C4([H])[H])C([H])([H])C3([H])[H])c([H])c([H])c2C1([H])[H]

$$$$
70:0:0
     RDKit          3D

 98106  0  0  1  0  0  0  0  0999 V2000
  -30.7330  -19.7500   20.0940 C   0  0  0  0  0  2  0  0  0  0  0  0
  -28.0890  -20.0850   19.3670 C   0  0  0  0  0  0  0  0  0  0  0  0
  -30.0010  -18.5530   19.8310 C   0  0  0  0  0  0  0  0  0  0  0  0
  -28.6330  -18.7520   19.4810 C   0  0  0  0  0  0  0  0  0  0  0  0
  -28.8940  -21.2270   19.6740 C   0  0  0  0  0  0  0  0  0  0  0  0
  -30.1810  -20.9990   20.0210 N   0  0  0  0  0  0  0  0  0  0  0  0
  -30.7800  -21.7950   20.2370 H   0  0  0  0  0  0  0  0  0  0  0  0
  -26.1070  -19.9090   17.6000 C   0  0  0  0  0  2  0  0  0  0  0  0
  -26.3090  -21.3720   17.9000 C   0  0  0  0  0  2  0  0  0  0  0  0
  -26.6580  -20.3340   18.9480 C   0  0  0  0  0  3  0  0  0  0  0  0
  -27.8430  -17.6130   19.2490 N   0  0  0  0  0  0  0  0  0  0  0  0
  -28.4030  -16.8350   18.9470 H   0  0  0  0  0  0  0  0  0  0  0  0
  -27.4550  -16.1580   21.2050 C   0  0  0  0  0  1  0  0  0  0  0  0
  -25.5870  -16.7410   19.6120 C   0  0  0  0  0 15  0  0  0  0  0  0
  -26.8790  -17.2340   20.2750 C   0  0  0  0  0  2  0  0  0  0  0  0
  -30.7330  -17.1690   20.0940 C   0  0  0  0  0  2  0  0  0  0  0  0
  -30.7720  -14.6490   19.7190 C   0  0  0  0  0  0  0  0  0  0  0  0
  -30.3880  -12.4130   18.7100 C   0  0  0  0  0  2  0  0  0  0  0  0
  -29.3580  -12.5350   17.5670 C   0  0  0  0  0  2  0  0  0  0  0  0
  -27.9250  -12.4060   18.1170 C   0  0  0  0  0  2  0  0  0  0  0  0
  -27.6780  -13.3020   19.3600 C   0  0  0  0  0  3  0  0  0  0  0  0
  -28.8200  -13.1770   20.3920 C   0  0  0  0  0  2  0  0  0  0  0  0
  -30.0800  -13.4680   19.6970 N   0  0  0  0  0  0  0  0  0  0  0  0
  -31.9100  -14.7230   19.2500 O   0  0  0  0  0  0  0  0  0  0  0  0
  -30.1090  -15.7890   20.0960 N   0  0  0  0  0  0  0  0  0  0  0  0
  -29.1710  -15.6540   20.4280 H   0  0  0  0  0  0  0  0  0  0  0  0
  -25.3810  -13.9420   20.3140 C   0  0  0  0  0  0  0  0  0  0  0  0
  -24.3270  -13.1870   20.7540 C   0  0  0  0  0  0  0  0  0  0  0  0
  -24.7390  -11.8250   20.6320 C   0  0  0  0  0  0  0  0  0  0  0  0
  -26.3700  -13.0410   19.9570 N   0  0  0  0  0  0  0  0  0  0  0  0
  -25.9950  -11.7600   20.2070 N   0  0  0  0  0  0  0  0  0  0  0  0
  -23.9900  -10.5790   20.8370 C   0  0  0  0  0  0  0  0  0  0  0  0
  -24.4240   -9.5980   21.7560 C   0  0  0  0  0  3  0  0  0  0  0  0
  -23.6750   -8.4170   21.9510 C   0  0  0  0  0  3  0  0  0  0  0  0
  -22.4780   -8.2090   21.2260 C   0  0  0  0  0  0  0  0  0  0  0  0
  -22.0620   -9.1770   20.2950 C   0  0  0  0  0  3  0  0  0  0  0  0
  -22.8110  -10.3500   20.0990 C   0  0  0  0  0  3  0  0  0  0  0  0
  -21.6990   -7.0820   21.3300 O   0  0  0  0  0  0  0  0  0  0  0  0
  -21.6050   -6.3780   22.5040 C   0  0  0  0  0  0  0  0  0  0  0  0
  -21.1530   -6.9790   23.7000 C   0  0  0  0  0  3  0  0  0  0  0  0
  -21.0070   -6.2030   24.8670 C   0  0  0  0  0  3  0  0  0  0  0  0
  -21.3020   -4.8270   24.8400 C   0  0  0  0  0  0  0  0  0  0  0  0
  -21.7470   -4.2260   23.6500 C   0  0  0  0  0  3  0  0  0  0  0  0
  -21.8960   -4.9990   22.4850 C   0  0  0  0  0  0  0  0  0  0  0  0
  -22.3050   -4.4100   21.3350 F   0  0  0  0  0  0  0  0  0  0  0  0
  -21.1540   -4.0790   25.9590 F   0  0  0  0  0  0  0  0  0  0  0  0
  -22.9770  -13.6960   21.1680 C   0  0  0  0  0  0  0  0  0  0  0  0
  -22.3180  -13.0020   22.0890 N   0  0  0  0  0  0  0  0  0  0  0  0
  -22.5200  -14.7430   20.7110 O   0  0  0  0  0  0  0  0  0  0  0  0
  -22.7030  -12.1540   22.4790 H   0  0  0  0  0  0  0  0  0  0  0  0
  -21.4160  -13.3230   22.4110 H   0  0  0  0  0  0  0  0  0  0  0  0
  -25.5690  -15.3110   20.1620 N   0  0  0  0  0  0  0  0  0  0  0  0
  -24.8420  -15.9790   20.3890 H   0  0  0  0  0  0  0  0  0  0  0  0
  -26.3890  -15.7470   19.7650 H   0  0  0  0  0  0  0  0  0  0  0  0
  -28.3550  -22.5330   19.5830 O   0  0  0  0  0  0  0  0  0  0  0  0
  -29.0110  -23.7950   19.9510 C   0  0  0  0  0  2  0  0  0  0  0  0
  -28.0870  -25.0360   19.5710 C   0  0  0  0  0  2  0  0  0  0  0  0
  -28.3230  -26.4440   19.9930 O   0  0  0  0  0  0  0  0  0  0  0  0
  -24.4240  -31.6790   23.0850 C   0  0  0  0  0  0  0  0  0  0  0  0
  -27.2120  -27.3080   19.9170 C   0  0  0  0  0  0  0  0  0  0  0  0
  -23.3000  -30.3370   21.3470 C   0  0  0  0  0  3  0  0  0  0  0  0
  -24.8250  -28.8910   19.8960 C   0  0  0  0  0  0  0  0  0  0  0  0
  -25.8400  -30.7080   21.2620 C   0  0  0  0  0  2  0  0  0  0  0  0
  -25.9670  -29.3650   20.5540 C   0  0  0  0  0  0  0  0  0  0  0  0
  -27.1650  -28.5870   20.5550 C   0  0  0  0  0  3  0  0  0  0  0  0
  -26.0450  -26.9000   19.2260 C   0  0  0  0  0  3  0  0  0  0  0  0
  -24.8680  -27.6640   19.2220 C   0  0  0  0  0  3  0  0  0  0  0  0
  -23.5700  -29.7340   19.9450 C   0  0  0  0  0  2  0  0  0  0  0  0
  -24.5390  -30.9220   21.9560 N   0  0  0  0  0  0  0  0  0  0  0  0
  -23.3190  -31.9130   23.5960 O   0  0  0  0  0  0  0  0  0  0  0  0
  -22.6290  -29.2620   22.2350 C   0  0  0  0  0  0  0  0  0  0  0  0
  -21.2950  -29.1350   22.1260 N   0  0  0  0  0  0  0  0  0  0  0  0
  -23.3040  -28.5510   22.9820 O   0  0  0  0  0  0  0  0  0  0  0  0
  -20.8110  -29.7610   21.4980 H   0  0  0  0  0  0  0  0  0  0  0  0
  -17.8860  -28.0470   22.6600 C   0  0  0  0  0  0  0  0  0  0  0  0
  -20.4620  -28.1640   22.8380 C   0  0  0  0  0  3  0  0  0  0  0  0
  -20.4700  -26.7920   22.1230 C   0  0  0  0  0  2  0  0  0  0  0  0
  -19.3130  -26.6220   21.1340 C   0  0  0  0  0  2  0  0  0  0  0  0
  -17.9670  -26.7650   21.8500 C   0  0  0  0  0  2  0  0  0  0  0  0
  -19.0560  -28.7130   23.1090 C   0  0  0  0  0  0  0  0  0  0  0  0
  -18.9230  -29.9210   23.8270 C   0  0  0  0  0  3  0  0  0  0  0  0
  -17.6520  -30.4600   24.1020 C   0  0  0  0  0  3  0  0  0  0  0  0
  -16.4960  -29.7890   23.6670 C   0  0  0  0  0  3  0  0  0  0  0  0
  -16.6140  -28.5840   22.9510 C   0  0  0  0  0  3  0  0  0  0  0  0
  -25.6750  -32.3040   23.7770 C   0  0  0  0  0  3  0  0  0  0  0  0
  -25.3500  -33.7010   24.0970 N   0  0  0  0  0  0  0  0  0  0  0  0
  -25.7150  -34.7560   23.3570 C   0  0  0  0  0  0  0  0  0  0  0  0
  -26.4290  -34.6570   22.3560 O   0  0  0  0  0  0  0  0  0  0  0  0
  -24.7190  -33.8520   24.8700 H   0  0  0  0  0  0  0  0  0  0  0  0
  -24.0010  -36.5510   22.9390 C   0  0  0  0  0  1  0  0  0  0  0  0
  -25.2080  -36.1430   23.7980 C   0  0  0  0  0  3  0  0  0  0  0  0
  -27.3060  -37.0260   24.7190 C   0  0  0  0  0  1  0  0  0  0  0  0
  -26.2430  -37.1980   23.7320 N   0  0  0  0  0  0  0  0  0  0  0  0
  -25.8310  -38.1170   23.8660 H   0  0  0  0  0  0  0  0  0  0  0  0
  -26.1200  -31.5250   25.0750 C   0  0  1  0  0  0  0  0  0  0  0  0
  -24.9750  -31.3070   26.0920 C   0  0  0  0  0  1  0  0  0  0  0  0
  -26.7000  -30.1380   24.7130 C   0  0  0  0  0  1  0  0  0  0  0  0
  -27.2520  -32.3040   25.7880 C   0  0  0  0  0  1  0  0  0  0  0  0
  2  4  1  0
  2  5  2  0
  3  1  1  0
  3 16  1  0
  4  3  2  0
  5  6  1  0
  6  1  1  0
  6  7  1  0
  8  9  1  0
  8 10  1  0
  9 10  1  0
 10  2  1  0
 11  4  1  0
 11 15  1  0
 12 11  1  0
 15 13  1  0
 16 25  1  0
 17 25  1  0
 18 23  1  0
 19 20  1  0
 19 18  1  0
 21 20  1  0
 21 30  1  0
 21 22  1  0
 23 17  1  0
 23 22  1  0
 24 17  2  0
 25 26  1  0
 27 28  2  0
 28 47  1  0
 29 28  1  0
 29 32  1  0
 30 31  1  0
 30 27  1  0
 31 29  2  0
 32 33  1  0
 33 34  2  0
 35 38  1  0
 35 34  1  0
 36 35  2  0
 37 36  1  0
 37 32  2  0
 38 39  1  0
 39 40  1  0
 40 41  2  0
 42 41  1  0
 42 46  1  0
 43 42  2  0
 44 39  2  0
 44 43  1  0
 45 44  1  0
 47 48  1  0
 48 51  1  0
 48 50  1  0
 49 47  2  0
 52 27  1  0
 52 53  1  0
 54 52  1  0
 55  5  1  0
 55 56  1  0
 57 56  1  0
 57 58  1  0
 59 70  2  0
 60 58  1  0
 60 65  1  0
 61 69  1  0
 61 71  1  0
 62 68  1  0
 62 64  1  0
 63 69  1  0
 64 65  2  0
 64 63  1  0
 66 60  2  0
 67 66  1  0
 67 62  2  0
 68 61  1  0
 69 59  1  0
 71 73  2  0
 72 71  1  0
 74 72  1  0
 75 84  2  0
 75 80  1  0
 76 72  1  0
 76 80  1  0
 77 76  1  0
 78 79  1  0
 78 77  1  0
 79 75  1  0
 80 81  2  0
 81 82  1  0
 83 82  2  0
 84 83  1  0
 85 59  1  0
 85 86  1  0
 85 95  1  0
 86 89  1  0
 87 91  1  0
 87 86  1  0
 88 87  2  0
 91 90  1  0
 93 91  1  0
 93 94  1  0
 93 92  1  0
 95 98  1  1
 95 96  1  0
 97 95  1  0
M  ISO  4  17 100  25 100  57 101  58 101
M  END
>  <TORSDO>  (70) 
F 23

>  <SCORE>  (70) 
-11.187

>  <name>  (70) 
70

>  <ligand_id>  (70) 
70

>  <original_smiles>  (70) 
[H]c1c([H])c([H])c2c(c1[H])C([H])([H])C([H])([H])C([H])([H])C2([H])N([H])C(=O)C1([H])N(C(=O)C([H])(N([H])C(=O)C([H])(N([H])C([H])([H])[H])C([H])([H])[H])C(C([H])([H])[H])(C([H])([H])[H])C([H])([H])[H])C([H])([H])c2c([H])c(OC([H])([H])C([H])([H])Oc3c(C4([H])C([H])([H])C4([H])[H])c(N([H])C([H])(C([H])([H])[H])C([H])([H])[H])c(C([H])([H])N([H])C(=O)N4C([H])([H])C([H])([H])C([H])([H])C([H])(n5nc(-c6c([H])c([H])c(Oc7c([H])c([H])c(F)c([H])c7F)c([H])c6[H])c(C(=O)N([H])[H])c5N([H])[H])C4([H])[H])c([H])[n+]3[H])c([H])c([H])c2C1([H])[H]

>  <smiles>  (70) 
[H]c1c([H])c([H])c2c(c1[H])C([H])([H])C([H])([H])C([H])([H])C2([H])N([H])C(=O)C1([H])N(C(=O)C([H])(N([H])C(=O)C([H])(N([H])C([H])([H])[H])C([H])([H])[H])C(C([H])([H])[H])(C([H])([H])[H])C([H])([H])[H])C([H])([H])c2c([H])c(OC([H])([H])C([H])([H])Oc3c(C4([H])C([H])([H])C4([H])[H])c(N([H])C([H])(C([H])([H])[H])C([H])([H])[H])c(C([H])([H])N([H])C(=O)N4C([H])([H])C([H])([H])C([H])([H])C([H])(n5nc(-c6c([H])c([H])c(Oc7c([H])c([H])c(F)c([H])c7F)c([H])c6[H])c(C(=O)N([H])[H])c5N([H])[H])C4([H])[H])c([H])[n+]3[H])c([H])c([H])c2C1([H])[H]

$$$$
71:0:0
     RDKit          3D

 93102  0  0  1  0  0  0  0  0999 V2000
  -29.4800  -21.0780   20.8380 C   0  0  0  0  0  2  0  0  0  0  0  0
  -30.8400  -14.9140   21.2710 C   0  0  0  0  0  0  0  0  0  0  0  0
  -30.7880  -12.5120   20.6140 C   0  0  0  0  0  2  0  0  0  0  0  0
  -30.0460  -12.3410   19.2720 C   0  0  0  0  0  2  0  0  0  0  0  0
  -28.5250  -12.2320   19.4870 C   0  0  0  0  0  2  0  0  0  0  0  0
  -27.9590  -13.2520   20.5160 C   0  0  0  0  0  3  0  0  0  0  0  0
  -28.8490  -13.3840   21.7640 C   0  0  0  0  0  2  0  0  0  0  0  0
  -30.1990  -13.6920   21.2740 N   0  0  0  0  0  0  0  0  0  0  0  0
  -32.0370  -14.9420   21.5690 O   0  0  0  0  0  0  0  0  0  0  0  0
  -27.9870  -18.1870   18.7300 C   0  0  0  0  0  3  0  0  0  0  0  0
  -28.1610  -19.4100   19.3920 C   0  0  0  0  0  3  0  0  0  0  0  0
  -29.8610  -18.3590   20.8000 C   0  0  0  0  0  3  0  0  0  0  0  0
  -28.7950  -17.0790   19.0370 C   0  0  0  0  0  0  0  0  0  0  0  0
  -29.1670  -19.5780   20.3660 C   0  0  0  0  0  0  0  0  0  0  0  0
  -29.6530  -17.0570   20.1710 C   0  0  0  0  0  0  0  0  0  0  0  0
  -28.9370  -15.9970   17.9790 C   0  0  0  0  0  2  0  0  0  0  0  0
  -30.4320  -15.7330   17.7280 C   0  0  0  0  0  2  0  0  0  0  0  0
  -31.2810  -15.6630   19.0240 C   0  0  0  0  0  2  0  0  0  0  0  0
  -30.4690  -15.8070   20.2560 N   0  0  0  0  0  0  0  0  0  0  0  0
  -25.4930  -13.8700   20.8430 C   0  0  0  0  0  0  0  0  0  0  0  0
  -24.3810  -13.1080   21.0730 C   0  0  0  0  0  0  0  0  0  0  0  0
  -24.8410  -11.7590   21.1810 C   0  0  0  0  0  0  0  0  0  0  0  0
  -26.5590  -12.9850   20.8230 N   0  0  0  0  0  0  0  0  0  0  0  0
  -26.1630  -11.7140   21.0900 N   0  0  0  0  0  0  0  0  0  0  0  0
  -24.0930  -10.5020   21.3090 C   0  0  0  0  0  0  0  0  0  0  0  0
  -24.4230   -9.5450   22.2930 C   0  0  0  0  0  3  0  0  0  0  0  0
  -23.6770   -8.3530   22.4110 C   0  0  0  0  0  3  0  0  0  0  0  0
  -22.5860   -8.1100   21.5440 C   0  0  0  0  0  0  0  0  0  0  0  0
  -22.2760   -9.0560   20.5490 C   0  0  0  0  0  3  0  0  0  0  0  0
  -23.0230  -10.2390   20.4300 C   0  0  0  0  0  3  0  0  0  0  0  0
  -21.8210   -6.9700   21.5700 O   0  0  0  0  0  0  0  0  0  0  0  0
  -21.7020   -6.2080   22.7040 C   0  0  0  0  0  0  0  0  0  0  0  0
  -21.2330   -6.7510   23.9210 C   0  0  0  0  0  3  0  0  0  0  0  0
  -21.0590   -5.9170   25.0430 C   0  0  0  0  0  3  0  0  0  0  0  0
  -21.3470   -4.5410   24.9510 C   0  0  0  0  0  0  0  0  0  0  0  0
  -21.8110   -3.9980   23.7400 C   0  0  0  0  0  3  0  0  0  0  0  0
  -21.9840   -4.8290   22.6190 C   0  0  0  0  0  0  0  0  0  0  0  0
  -22.4110   -4.2970   21.4490 F   0  0  0  0  0  0  0  0  0  0  0  0
  -21.1740   -3.7390   26.0270 F   0  0  0  0  0  0  0  0  0  0  0  0
  -22.9590  -13.5870   21.0950 C   0  0  0  0  0  0  0  0  0  0  0  0
  -22.1040  -12.9360   21.8760 N   0  0  0  0  0  0  0  0  0  0  0  0
  -22.6090  -14.5780   20.4540 O   0  0  0  0  0  0  0  0  0  0  0  0
  -22.3990  -12.1370   22.4180 H   0  0  0  0  0  0  0  0  0  0  0  0
  -21.1430  -13.2410   21.9330 H   0  0  0  0  0  0  0  0  0  0  0  0
  -25.6860  -15.2310   20.6240 N   0  0  0  0  0  0  0  0  0  0  0  0
  -24.9110  -15.8840   20.5750 H   0  0  0  0  0  0  0  0  0  0  0  0
  -26.5810  -15.6630   20.4360 H   0  0  0  0  0  0  0  0  0  0  0  0
  -28.7130  -22.2490   20.1850 N   0  0  0  0  0  4  0  0  0  0  0  0
  -28.7310  -22.0770   19.1930 H   0  0  0  0  0  0  0  0  0  0  0  0
  -27.7560  -22.1500   20.4850 H   0  0  0  0  0  0  0  0  0  0  0  0
  -29.1130  -23.7290   20.3960 C   0  0  0  0  0  3  0  0  0  0  0  0
  -28.0910  -24.8640   19.8450 C   0  0  0  0  0  3  0  0  0  0  0  0
  -28.3340  -26.3540   19.9160 O   0  0  0  0  0  0  0  0  0  0  0  0
  -24.5440  -31.7240   23.0160 C   0  0  0  0  0  0  0  0  0  0  0  0
  -27.2210  -27.2340   19.8640 C   0  0  0  0  0  0  0  0  0  0  0  0
  -23.3580  -30.3230   21.3670 C   0  0  0  0  0  3  0  0  0  0  0  0
  -24.8290  -28.8320   19.8980 C   0  0  0  0  0  0  0  0  0  0  0  0
  -25.8920  -30.6920   21.1670 C   0  0  0  0  0  2  0  0  0  0  0  0
  -25.9960  -29.3250   20.4950 C   0  0  0  0  0  0  0  0  0  0  0  0
  -27.1960  -28.5390   20.4680 C   0  0  0  0  0  3  0  0  0  0  0  0
  -26.0280  -26.8210   19.2260 C   0  0  0  0  0  3  0  0  0  0  0  0
  -24.8500  -27.5890   19.2510 C   0  0  0  0  0  3  0  0  0  0  0  0
  -23.5750  -29.6790   19.9740 C   0  0  0  0  0  2  0  0  0  0  0  0
  -24.6170  -30.9320   21.9060 N   0  0  0  0  0  0  0  0  0  0  0  0
  -23.4590  -31.9650   23.5660 O   0  0  0  0  0  0  0  0  0  0  0  0
  -22.7300  -29.2750   22.3190 C   0  0  0  0  0  0  0  0  0  0  0  0
  -21.4070  -29.0680   22.2070 N   0  0  0  0  0  0  0  0  0  0  0  0
  -23.4330  -28.6520   23.1190 O   0  0  0  0  0  0  0  0  0  0  0  0
  -20.8960  -29.6230   21.5350 H   0  0  0  0  0  0  0  0  0  0  0  0
  -18.0690  -27.7620   22.7110 C   0  0  0  0  0  0  0  0  0  0  0  0
  -20.6200  -28.0990   22.9720 C   0  0  0  0  0  3  0  0  0  0  0  0
  -20.7630  -26.6760   22.3840 C   0  0  0  0  0  2  0  0  0  0  0  0
  -19.6690  -26.3270   21.3720 C   0  0  0  0  0  2  0  0  0  0  0  0
  -18.2850  -26.4240   22.0230 C   0  0  0  0  0  2  0  0  0  0  0  0
  -19.1650  -28.5550   23.1430 C   0  0  0  0  0  0  0  0  0  0  0  0
  -18.9090  -29.8050   23.7470 C   0  0  0  0  0  3  0  0  0  0  0  0
  -17.5900  -30.2630   23.9240 C   0  0  0  0  0  3  0  0  0  0  0  0
  -16.5080  -29.4660   23.5070 C   0  0  0  0  0  3  0  0  0  0  0  0
  -16.7490  -28.2180   22.9070 C   0  0  0  0  0  3  0  0  0  0  0  0
  -25.8160  -32.3800   23.6340 C   0  0  0  0  0  3  0  0  0  0  0  0
  -26.3890  -31.5820   24.8680 C   0  0  1  0  0  0  0  0  0  0  0  0
  -25.3330  -31.2720   25.9540 C   0  0  0  0  0  1  0  0  0  0  0  0
  -27.0050  -30.2370   24.4150 C   0  0  0  0  0  1  0  0  0  0  0  0
  -27.5320  -32.3870   25.5300 C   0  0  0  0  0  1  0  0  0  0  0  0
  -25.4620  -33.7520   24.0280 N   0  0  0  0  0  0  0  0  0  0  0  0
  -25.7800  -34.8520   23.3310 C   0  0  0  0  0  0  0  0  0  0  0  0
  -26.4700  -34.8200   22.3100 O   0  0  0  0  0  0  0  0  0  0  0  0
  -24.8520  -33.8510   24.8270 H   0  0  0  0  0  0  0  0  0  0  0  0
  -24.0050  -36.6120   23.0450 C   0  0  0  0  0  1  0  0  0  0  0  0
  -25.2470  -36.2020   23.8510 C   0  0  0  0  0  3  0  0  0  0  0  0
  -27.3480  -37.1000   24.7510 C   0  0  0  0  0  1  0  0  0  0  0  0
  -26.2500  -37.2880   23.8060 N   0  0  0  0  0  0  0  0  0  0  0  0
  -25.8160  -38.1870   23.9970 H   0  0  0  0  0  0  0  0  0  0  0  0
  2  8  1  0
  2  9  2  0
  3  8  1  0
  4  5  1  0
  4  3  1  0
  6  5  1  0
  6 23  1  0
  6  7  1  0
  8  7  1  0
 10 13  2  0
 10 11  1  0
 11 14  2  0
 13 15  1  0
 14 12  1  0
 14  1  1  0
 15 19  1  0
 15 12  2  0
 16 13  1  0
 17 16  1  0
 17 18  1  0
 18 19  1  0
 19  2  1  0
 20 21  2  0
 21 40  1  0
 21 22  1  0
 22 25  1  0
 23 20  1  0
 23 24  1  0
 24 22  2  0
 25 26  1  0
 26 27  2  0
 28 31  1  0
 28 27  1  0
 29 28  2  0
 30 29  1  0
 30 25  2  0
 31 32  1  0
 32 33  1  0
 33 34  2  0
 35 34  1  0
 35 39  1  0
 36 35  2  0
 37 32  2  0
 37 36  1  0
 38 37  1  0
 40 41  1  0
 41 44  1  0
 41 43  1  0
 42 40  2  0
 45 20  1  0
 46 45  1  0
 47 45  1  0
 48 51  1  0
 48 50  1  0
 48  1  1  0
 49 48  1  0
 52 53  1  0
 52 51  2  0
 54 65  2  0
 55 53  1  0
 55 60  1  0
 56 64  1  0
 56 66  1  0
 57 63  1  0
 57 59  1  0
 58 64  1  0
 59 58  1  0
 60 59  2  0
 61 62  1  0
 61 55  2  0
 62 57  2  0
 63 56  1  0
 64 54  1  0
 66 68  2  0
 67 66  1  0
 69 67  1  0
 70 79  2  0
 70 75  1  0
 71 67  1  0
 71 75  1  0
 72 71  1  0
 73 74  1  0
 73 72  1  0
 74 70  1  0
 75 76  2  0
 76 77  1  0
 78 77  2  0
 79 78  1  0
 80 54  1  0
 80 85  1  0
 80 81  1  0
 81 84  1  1
 81 82  1  0
 83 81  1  0
 85 88  1  0
 86 90  1  0
 86 85  1  0
 87 86  2  0
 90 89  1  0
 92 90  1  0
 92 93  1  0
 92 91  1  0
M  ISO  4   2 100  19 100  52 101  53 101
M  END
>  <TORSDO>  (71) 
F 19

>  <SCORE>  (71) 
-11.001

>  <name>  (71) 
71

>  <ligand_id>  (71) 
71

>  <original_smiles>  (71) 
[H]c1c([H])c([H])c2c(c1[H])C([H])([H])C([H])([H])C([H])([H])C2([H])N([H])C(=O)C1([H])N(C(=O)C([H])(N([H])C(=O)C([H])(N([H])C([H])([H])[H])C([H])([H])[H])C(C([H])([H])[H])(C([H])([H])[H])C([H])([H])[H])C([H])([H])c2c([H])c(OC([H])([H])C([H])([H])[N+]([H])([H])C([H])([H])c3c([H])c([H])c4c(c3[H])N(C(=O)N3C([H])([H])C([H])([H])C([H])([H])C([H])(n5nc(-c6c([H])c([H])c(Oc7c([H])c([H])c(F)c([H])c7F)c([H])c6[H])c(C(=O)N([H])[H])c5N([H])[H])C3([H])[H])C([H])([H])C([H])([H])C4([H])[H])c([H])c([H])c2C1([H])[H]

>  <smiles>  (71) 
[H]c1c([H])c([H])c2c(c1[H])C([H])([H])C([H])([H])C([H])([H])C2([H])N([H])C(=O)C1([H])N(C(=O)C([H])(N([H])C(=O)C([H])(N([H])C([H])([H])[H])C([H])([H])[H])C(C([H])([H])[H])(C([H])([H])[H])C([H])([H])[H])C([H])([H])c2c([H])c(OC([H])([H])C([H])([H])[N+]([H])([H])C([H])([H])c3c([H])c([H])c4c(c3[H])N(C(=O)N3C([H])([H])C([H])([H])C([H])([H])C([H])(n5nc(-c6c([H])c([H])c(Oc7c([H])c([H])c(F)c([H])c7F)c([H])c6[H])c(C(=O)N([H])[H])c5N([H])[H])C3([H])[H])C([H])([H])C([H])([H])C4([H])[H])c([H])c([H])c2C1([H])[H]

$$$$
72:0:0
     RDKit          3D

 92101  0  0  1  0  0  0  0  0999 V2000
  -29.5740  -22.8950   21.4390 C   0  0  0  0  0  2  0  0  0  0  0  0
  -28.2630  -22.3460   19.4030 C   0  0  0  0  0  2  0  0  0  0  0  0
  -28.7720  -24.2610   21.6320 C   0  0  0  0  0  2  0  0  0  0  0  0
  -28.3340  -23.9410   19.1940 C   0  0  0  0  0  2  0  0  0  0  0  0
  -28.8620  -21.6860   20.7190 C   0  0  0  0  0  3  0  0  0  0  0  0
  -28.0100  -24.8870   20.4090 C   0  0  0  0  0  3  0  0  0  0  0  0
  -29.7500  -20.4040   20.5640 N   0  0  0  0  0  4  0  0  0  0  0  0
  -30.4340  -20.4770   21.2980 H   0  0  0  0  0  0  0  0  0  0  0  0
  -30.2670  -20.4950   19.7030 H   0  0  0  0  0  0  0  0  0  0  0  0
  -29.2450  -18.9310   20.6780 C   0  0  0  0  0  2  0  0  0  0  0  0
  -30.5840  -14.9770   20.6500 C   0  0  0  0  0  0  0  0  0  0  0  0
  -30.4880  -12.6090   19.7970 C   0  0  0  0  0  2  0  0  0  0  0  0
  -29.6120  -12.4560   18.5300 C   0  0  0  0  0  2  0  0  0  0  0  0
  -28.1180  -12.3250   18.8880 C   0  0  0  0  0  2  0  0  0  0  0  0
  -27.6480  -13.3000   19.9970 C   0  0  0  0  0  3  0  0  0  0  0  0
  -28.6530  -13.3710   21.1670 C   0  0  0  0  0  2  0  0  0  0  0  0
  -29.9550  -13.7400   20.5970 N   0  0  0  0  0  0  0  0  0  0  0  0
  -31.8190  -14.9950   20.6550 O   0  0  0  0  0  0  0  0  0  0  0  0
  -30.0860  -17.2120   18.1830 C   0  0  0  0  0  2  0  0  0  0  0  0
  -31.0370  -17.8760   19.1670 C   0  0  0  0  0  2  0  0  0  0  0  0
  -29.2740  -16.2130   19.0280 C   0  0  0  0  0  2  0  0  0  0  0  0
  -30.3210  -17.6680   20.5040 C   0  0  0  0  0  3  0  0  0  0  0  0
  -29.8570  -16.1760   20.3860 N   0  0  0  0  0  0  0  0  0  0  0  0
  -25.2290  -13.8950   20.5970 C   0  0  0  0  0  0  0  0  0  0  0  0
  -24.1470  -13.1210   20.9130 C   0  0  0  0  0  0  0  0  0  0  0  0
  -24.6200  -11.7720   20.9390 C   0  0  0  0  0  0  0  0  0  0  0  0
  -26.2890  -13.0150   20.4390 N   0  0  0  0  0  0  0  0  0  0  0  0
  -25.9270  -11.7370   20.7160 N   0  0  0  0  0  0  0  0  0  0  0  0
  -23.8930  -10.5070   21.0990 C   0  0  0  0  0  0  0  0  0  0  0  0
  -24.2760   -9.5540   22.0680 C   0  0  0  0  0  3  0  0  0  0  0  0
  -23.5480   -8.3550   22.2200 C   0  0  0  0  0  3  0  0  0  0  0  0
  -22.4220   -8.1000   21.4000 C   0  0  0  0  0  0  0  0  0  0  0  0
  -22.0590   -9.0430   20.4210 C   0  0  0  0  0  3  0  0  0  0  0  0
  -22.7890  -10.2330   20.2680 C   0  0  0  0  0  3  0  0  0  0  0  0
  -21.6680   -6.9530   21.4600 O   0  0  0  0  0  0  0  0  0  0  0  0
  -21.5590   -6.2250   22.6180 C   0  0  0  0  0  0  0  0  0  0  0  0
  -21.0460   -6.7880   23.8090 C   0  0  0  0  0  3  0  0  0  0  0  0
  -20.8850   -5.9840   24.9540 C   0  0  0  0  0  3  0  0  0  0  0  0
  -21.2280   -4.6190   24.9120 C   0  0  0  0  0  0  0  0  0  0  0  0
  -21.7340   -4.0570   23.7270 C   0  0  0  0  0  3  0  0  0  0  0  0
  -21.8960   -4.8580   22.5830 C   0  0  0  0  0  0  0  0  0  0  0  0
  -22.3630   -4.3060   21.4360 F   0  0  0  0  0  0  0  0  0  0  0  0
  -21.0670   -3.8440   26.0100 F   0  0  0  0  0  0  0  0  0  0  0  0
  -22.7320  -13.5910   21.0830 C   0  0  0  0  0  0  0  0  0  0  0  0
  -21.9590  -12.9120   21.9240 N   0  0  0  0  0  0  0  0  0  0  0  0
  -22.3200  -14.5980   20.5080 O   0  0  0  0  0  0  0  0  0  0  0  0
  -22.3020  -12.0970   22.4110 H   0  0  0  0  0  0  0  0  0  0  0  0
  -21.0070  -13.2090   22.0820 H   0  0  0  0  0  0  0  0  0  0  0  0
  -25.3990  -15.2620   20.4060 N   0  0  0  0  0  0  0  0  0  0  0  0
  -24.6310  -15.9210   20.4600 H   0  0  0  0  0  0  0  0  0  0  0  0
  -26.2770  -15.6980   20.1510 H   0  0  0  0  0  0  0  0  0  0  0  0
  -28.2250  -26.3840   20.2330 O   0  0  0  0  0  0  0  0  0  0  0  0
  -24.5870  -31.9140   23.2600 C   0  0  0  0  0  0  0  0  0  0  0  0
  -27.1360  -27.2920   20.1870 C   0  0  0  0  0  0  0  0  0  0  0  0
  -23.3650  -30.5220   21.6280 C   0  0  0  0  0  3  0  0  0  0  0  0
  -24.7970  -28.9680   20.1800 C   0  0  0  0  0  0  0  0  0  0  0  0
  -25.9090  -30.8180   21.4270 C   0  0  0  0  0  2  0  0  0  0  0  0
  -25.9760  -29.4360   20.7740 C   0  0  0  0  0  0  0  0  0  0  0  0
  -27.1490  -28.6120   20.7610 C   0  0  0  0  0  3  0  0  0  0  0  0
  -25.9380  -26.9030   19.5510 C   0  0  0  0  0  3  0  0  0  0  0  0
  -24.7860  -27.7140   19.5510 C   0  0  0  0  0  3  0  0  0  0  0  0
  -23.5660  -29.8550   20.2420 C   0  0  0  0  0  2  0  0  0  0  0  0
  -24.6390  -31.1040   22.1610 N   0  0  0  0  0  0  0  0  0  0  0  0
  -23.5080  -32.1910   23.8050 O   0  0  0  0  0  0  0  0  0  0  0  0
  -22.7090  -29.5050   22.5930 C   0  0  0  0  0  0  0  0  0  0  0  0
  -21.3830  -29.3150   22.4670 N   0  0  0  0  0  0  0  0  0  0  0  0
  -23.3900  -28.8900   23.4170 O   0  0  0  0  0  0  0  0  0  0  0  0
  -20.8900  -29.8650   21.7780 H   0  0  0  0  0  0  0  0  0  0  0  0
  -18.0200  -28.0710   22.9550 C   0  0  0  0  0  0  0  0  0  0  0  0
  -20.5720  -28.3740   23.2420 C   0  0  0  0  0  3  0  0  0  0  0  0
  -20.6990  -26.9370   22.6860 C   0  0  0  0  0  2  0  0  0  0  0  0
  -19.6120  -26.5850   21.6680 C   0  0  0  0  0  2  0  0  0  0  0  0
  -18.2210  -26.7180   22.2970 C   0  0  0  0  0  2  0  0  0  0  0  0
  -19.1230  -28.8560   23.3840 C   0  0  0  0  0  0  0  0  0  0  0  0
  -18.8780  -30.1230   23.9580 C   0  0  0  0  0  3  0  0  0  0  0  0
  -17.5640  -30.6020   24.1110 C   0  0  0  0  0  3  0  0  0  0  0  0
  -16.4760  -29.8160   23.6960 C   0  0  0  0  0  3  0  0  0  0  0  0
  -16.7050  -28.5520   23.1220 C   0  0  0  0  0  3  0  0  0  0  0  0
  -25.8760  -32.5460   23.8710 C   0  0  0  0  0  3  0  0  0  0  0  0
  -25.5730  -33.9460   24.2020 N   0  0  0  0  0  0  0  0  0  0  0  0
  -25.8880  -34.9960   23.4360 C   0  0  0  0  0  0  0  0  0  0  0  0
  -26.5360  -34.8920   22.3900 O   0  0  0  0  0  0  0  0  0  0  0  0
  -25.0070  -34.1050   25.0230 H   0  0  0  0  0  0  0  0  0  0  0  0
  -24.1530  -36.7900   23.1140 C   0  0  0  0  0  1  0  0  0  0  0  0
  -25.4090  -36.3860   23.9010 C   0  0  0  0  0  3  0  0  0  0  0  0
  -27.5570  -37.2740   24.6920 C   0  0  0  0  0  1  0  0  0  0  0  0
  -26.4370  -37.4410   23.7700 N   0  0  0  0  0  0  0  0  0  0  0  0
  -26.0300  -38.3590   23.9250 H   0  0  0  0  0  0  0  0  0  0  0  0
  -26.4000  -31.7760   25.1450 C   0  0  1  0  0  0  0  0  0  0  0  0
  -25.3170  -31.5460   26.2250 C   0  0  0  0  0  1  0  0  0  0  0  0
  -26.9760  -30.3960   24.7560 C   0  0  0  0  0  1  0  0  0  0  0  0
  -27.5580  -32.5700   25.7950 C   0  0  0  0  0  1  0  0  0  0  0  0
  1  3  1  0
  2  5  1  0
  4  2  1  0
  4  6  1  0
  5  7  1  0
  5  1  1  0
  6 52  1  0
  6  3  1  0
  7 10  1  0
  7  8  1  0
  9  7  1  0
 11 18  2  0
 12 17  1  0
 13 14  1  0
 13 12  1  0
 15 14  1  0
 15 27  1  0
 15 16  1  0
 17 11  1  0
 17 16  1  0
 19 21  1  0
 19 20  1  0
 20 22  1  0
 21 23  1  0
 22 10  1  0
 23 22  1  0
 23 11  1  0
 24 25  2  0
 25 26  1  0
 25 44  1  0
 26 29  1  0
 27 24  1  0
 27 28  1  0
 28 26  2  0
 29 30  1  0
 30 31  2  0
 32 35  1  0
 32 31  1  0
 33 32  2  0
 34 33  1  0
 34 29  2  0
 35 36  1  0
 36 37  1  0
 37 38  2  0
 39 38  1  0
 39 43  1  0
 40 39  2  0
 41 36  2  0
 41 40  1  0
 42 41  1  0
 44 45  1  0
 45 48  1  0
 45 47  1  0
 46 44  2  0
 49 50  1  0
 49 24  1  0
 51 49  1  0
 53 64  2  0
 54 52  1  0
 54 59  1  0
 55 63  1  0
 55 65  1  0
 56 62  1  0
 56 58  1  0
 57 63  1  0
 58 57  1  0
 59 58  2  0
 60 54  2  0
 61 60  1  0
 61 56  2  0
 62 55  1  0
 63 53  1  0
 65 67  2  0
 66 65  1  0
 68 66  1  0
 69 78  2  0
 69 74  1  0
 70 66  1  0
 70 74  1  0
 71 70  1  0
 72 73  1  0
 72 71  1  0
 73 69  1  0
 74 75  2  0
 75 76  1  0
 77 76  2  0
 78 77  1  0
 79 53  1  0
 79 80  1  0
 79 89  1  0
 80 83  1  0
 81 85  1  0
 81 80  1  0
 82 81  2  0
 85 84  1  0
 87 85  1  0
 87 88  1  0
 87 86  1  0
 89 92  1  1
 89 90  1  0
 91 89  1  0
M  ISO  4   6 101  11 100  23 100  52 101
M  END
>  <TORSDO>  (72) 
F 18

>  <SCORE>  (72) 
-14.195

>  <name>  (72) 
72

>  <ligand_id>  (72) 
72

>  <original_smiles>  (72) 
[H]c1c([H])c([H])c2c(c1[H])C([H])([H])C([H])([H])C([H])([H])C2([H])N([H])C(=O)C1([H])N(C(=O)C([H])(N([H])C(=O)C([H])(N([H])C([H])([H])[H])C([H])([H])[H])C(C([H])([H])[H])(C([H])([H])[H])C([H])([H])[H])C([H])([H])c2c([H])c(OC3([H])C([H])([H])C([H])([H])C([H])([N+]([H])([H])C([H])([H])C4([H])N(C(=O)N5C([H])([H])C([H])([H])C([H])([H])C([H])(n6nc(-c7c([H])c([H])c(Oc8c([H])c([H])c(F)c([H])c8F)c([H])c7[H])c(C(=O)N([H])[H])c6N([H])[H])C5([H])[H])C([H])([H])C([H])([H])C4([H])[H])C([H])([H])C3([H])[H])c([H])c([H])c2C1([H])[H]

>  <smiles>  (72) 
[H]c1c([H])c([H])c2c(c1[H])C([H])([H])C([H])([H])C([H])([H])C2([H])N([H])C(=O)C1([H])N(C(=O)C([H])(N([H])C(=O)C([H])(N([H])C([H])([H])[H])C([H])([H])[H])C(C([H])([H])[H])(C([H])([H])[H])C([H])([H])[H])C([H])([H])c2c([H])c(OC3([H])C([H])([H])C([H])([H])C([H])([N+]([H])([H])C([H])([H])C4([H])N(C(=O)N5C([H])([H])C([H])([H])C([H])([H])C([H])(n6nc(-c7c([H])c([H])c(Oc8c([H])c([H])c(F)c([H])c8F)c([H])c7[H])c(C(=O)N([H])[H])c6N([H])[H])C5([H])[H])C([H])([H])C([H])([H])C4([H])[H])C([H])([H])C3([H])[H])c([H])c([H])c2C1([H])[H]

$$$$
73:0:0
     RDKit          3D

 98 99  0  0  1  0  0  0  0  0999 V2000
  -33.2390  -19.2500   20.6860 N   0  0  0  0  0  4  0  0  0  0  0  0
  -33.7840  -18.4260   20.4910 H   0  0  0  0  0  0  0  0  0  0  0  0
  -33.3070  -19.4040   21.6770 H   0  0  0  0  0  0  0  0  0  0  0  0
  -30.3480  -19.2980   22.0070 C   0  0  0  0  0 15  0  0  0  0  0  0
  -30.8990  -19.3800   18.3680 C   0  0  0  0  0 15  0  0  0  0  0  0
  -28.6810  -20.6650   21.5400 C   0  0  0  0  0 15  0  0  0  0  0  0
  -29.0230  -20.6460   18.4740 C   0  0  0  0  0 15  0  0  0  0  0  0
  -31.8190  -18.8460   20.3830 C   0  0  0  0  0  1  0  0  0  0  0  0
  -28.4190  -22.0890   19.9810 C   0  0  0  0  0 15  0  0  0  0  0  0
  -28.2270  -24.2460   20.0590 O   0  0  0  0  0  1  0  0  0  0  0  0
  -24.7220  -31.4510   22.9320 C   0  0  0  0  0  0  0  0  0  0  0  0
  -27.3050  -25.7680   20.0370 C   0  0  0  0  0  0  0  0  0  0  0  0
  -23.6010  -30.0260   21.2820 C   0  0  0  0  0  3  0  0  0  0  0  0
  -25.0850  -28.2390   19.9400 C   0  0  0  0  0  0  0  0  0  0  0  0
  -26.2040  -29.9750   21.2900 C   0  0  0  0  0  2  0  0  0  0  0  0
  -26.2790  -28.4640   20.6320 C   0  0  0  0  0  0  0  0  0  0  0  0
  -27.3320  -27.2860   20.6270 C   0  0  0  0  0  3  0  0  0  0  0  0
  -26.0680  -25.9430   19.2870 C   0  0  0  0  0  3  0  0  0  0  0  0
  -25.0610  -27.0100   19.2420 C   0  0  0  0  0  3  0  0  0  0  0  0
  -23.9040  -29.2710   19.9420 C   0  0  0  0  0  2  0  0  0  0  0  0
  -24.8750  -30.5360   21.8870 N   0  0  0  0  0  0  0  0  0  0  0  0
  -23.6040  -31.7750   23.3800 O   0  0  0  0  0  0  0  0  0  0  0  0
  -22.8040  -29.1120   22.2580 C   0  0  0  0  0  0  0  0  0  0  0  0
  -21.4610  -29.0350   22.1490 N   0  0  0  0  0  0  0  0  0  0  0  0
  -23.4220  -28.4560   23.0980 O   0  0  0  0  0  0  0  0  0  0  0  0
  -21.0040  -29.6130   21.4570 H   0  0  0  0  0  0  0  0  0  0  0  0
  -18.0260  -27.9340   22.7250 C   0  0  0  0  0  0  0  0  0  0  0  0
  -20.6050  -28.1090   22.9100 C   0  0  0  0  0  3  0  0  0  0  0  0
  -20.6300  -26.6940   22.2830 C   0  0  0  0  0  2  0  0  0  0  0  0
  -19.4910  -26.4550   21.2870 C   0  0  0  0  0  2  0  0  0  0  0  0
  -18.1340  -26.6160   21.9780 C   0  0  0  0  0  2  0  0  0  0  0  0
  -19.1840  -28.6450   23.1480 C   0  0  0  0  0  0  0  0  0  0  0  0
  -19.0210  -29.8750   23.8190 C   0  0  0  0  0  3  0  0  0  0  0  0
  -17.7370  -30.3980   24.0650 C   0  0  0  0  0  3  0  0  0  0  0  0
  -16.5970  -29.6880   23.6510 C   0  0  0  0  0  3  0  0  0  0  0  0
  -16.7430  -28.4570   22.9890 C   0  0  0  0  0  3  0  0  0  0  0  0
  -25.9330  -32.1510   23.6280 C   0  0  0  0  0  3  0  0  0  0  0  0
  -26.4180  -31.3890   24.9240 C   0  0  1  0  0  0  0  0  0  0  0  0
  -25.2970  -31.1310   25.9590 C   0  0  0  0  0  1  0  0  0  0  0  0
  -27.0360  -30.0210   24.5700 C   0  0  0  0  0  1  0  0  0  0  0  0
  -27.5360  -32.2000   25.6230 C   0  0  0  0  0  1  0  0  0  0  0  0
  -25.5490  -33.5360   24.0060 N   0  0  0  0  0  0  0  0  0  0  0  0
  -25.8880  -34.6560   23.3500 C   0  0  0  0  0  0  0  0  0  0  0  0
  -26.5970  -34.6360   22.3410 O   0  0  0  0  0  0  0  0  0  0  0  0
  -24.9140  -33.6210   24.7860 H   0  0  0  0  0  0  0  0  0  0  0  0
  -24.1370  -36.4580   23.0860 C   0  0  0  0  0  1  0  0  0  0  0  0
  -25.3710  -36.0110   23.8880 C   0  0  0  0  0  3  0  0  0  0  0  0
  -27.4690  -36.8960   24.8180 C   0  0  0  0  0  1  0  0  0  0  0  0
  -26.3850  -37.0910   23.8600 N   0  0  0  0  0  0  0  0  0  0  0  0
  -25.9550  -37.9930   24.0480 H   0  0  0  0  0  0  0  0  0  0  0  0
  -35.4710  -20.3030   20.2360 C   0  0  0  0  0  1  0  0  0  0  0  0
  -33.9520  -20.3620   20.0030 C   0  0  0  0  0  3  0  0  0  0  0  0
  -31.1980  -21.9220   19.5520 C   0  0  0  0  0  2  0  0  0  0  0  0
  -31.3490  -21.6000   21.6360 C   0  0  0  0  0  2  0  0  0  0  0  0
  -32.5640  -22.2440   19.4170 C   0  0  0  0  0  3  0  0  0  0  0  0
  -32.7520  -21.8000   21.6460 C   0  0  0  0  0  3  0  0  0  0  0  0
  -33.3820  -21.7180   20.4010 C   0  0  0  0  0  3  0  0  0  0  0  0
  -30.6350  -20.8710   20.5130 C   0  0  0  0  0  2  0  0  0  0  0  0
  -33.1160  -22.8930   18.1620 C   0  0  0  0  0  1  0  0  0  0  0  0
  -33.5220  -22.0390   22.9300 C   0  0  0  0  0  1  0  0  0  0  0  0
  -29.9210  -16.8070   19.9900 C   0  0  0  0  0  0  0  0  0  0  0  0
  -30.0300  -14.0650   18.9410 C   0  0  0  0  0  2  0  0  0  0  0  0
  -29.1670  -13.3100   17.8420 C   0  0  0  0  0  2  0  0  0  0  0  0
  -27.8910  -12.7050   18.4180 C   0  0  0  0  0  2  0  0  0  0  0  0
  -27.3530  -13.6770   19.4740 C   0  0  0  0  0  3  0  0  0  0  0  0
  -28.4080  -14.3140   20.4750 C   0  0  0  0  0  2  0  0  0  0  0  0
  -29.3580  -15.3060   19.7630 N   0  0  0  0  0  0  0  0  0  0  0  0
  -31.0760  -16.3330   19.7280 O   0  0  0  0  0  0  0  0  0  0  0  0
  -29.5080  -18.6200   20.2730 N   0  0  0  0  0  2  0  0  0  0  0  0
  -28.5040  -18.7040   20.3490 H   0  0  0  0  0  0  0  0  0  0  0  0
  -25.0400  -14.0520   20.3820 C   0  0  0  0  0  0  0  0  0  0  0  0
  -24.0250  -13.2360   20.7870 C   0  0  0  0  0  0  0  0  0  0  0  0
  -24.5280  -11.9000   20.7100 C   0  0  0  0  0  0  0  0  0  0  0  0
  -26.1040  -13.2290   20.0860 N   0  0  0  0  0  0  0  0  0  0  0  0
  -25.8110  -11.9160   20.3280 N   0  0  0  0  0  0  0  0  0  0  0  0
  -23.8290  -10.6190   20.9250 C   0  0  0  0  0  0  0  0  0  0  0  0
  -24.3040   -9.6530   21.8390 C   0  0  0  0  0  3  0  0  0  0  0  0
  -23.5910   -8.4510   22.0520 C   0  0  0  0  0  3  0  0  0  0  0  0
  -22.3860   -8.2040   21.3520 C   0  0  0  0  0  0  0  0  0  0  0  0
  -21.9260   -9.1590   20.4280 C   0  0  0  0  0  3  0  0  0  0  0  0
  -22.6390  -10.3510   20.2130 C   0  0  0  0  0  3  0  0  0  0  0  0
  -21.6430   -7.0530   21.4730 O   0  0  0  0  0  0  0  0  0  0  0  0
  -21.6550   -6.3040   22.6230 C   0  0  0  0  0  0  0  0  0  0  0  0
  -21.2970   -6.8530   23.8740 C   0  0  0  0  0  3  0  0  0  0  0  0
  -21.2570   -6.0310   25.0180 C   0  0  0  0  0  3  0  0  0  0  0  0
  -21.5640   -4.6610   24.9130 C   0  0  0  0  0  0  0  0  0  0  0  0
  -21.9160   -4.1110   23.6670 C   0  0  0  0  0  3  0  0  0  0  0  0
  -21.9570   -4.9300   22.5250 C   0  0  0  0  0  0  0  0  0  0  0  0
  -22.2740   -4.3900   21.3240 F   0  0  0  0  0  0  0  0  0  0  0  0
  -21.5190   -3.8700   26.0100 F   0  0  0  0  0  0  0  0  0  0  0  0
  -22.6330  -13.6800   21.1230 C   0  0  0  0  0  0  0  0  0  0  0  0
  -21.9610  -12.9700   22.0190 N   0  0  0  0  0  0  0  0  0  0  0  0
  -22.1540  -14.7010   20.6270 O   0  0  0  0  0  0  0  0  0  0  0  0
  -22.3640  -12.1460   22.4410 H   0  0  0  0  0  0  0  0  0  0  0  0
  -21.0290  -13.2520   22.2890 H   0  0  0  0  0  0  0  0  0  0  0  0
  -25.1410  -15.4270   20.1980 N   0  0  0  0  0  0  0  0  0  0  0  0
  -24.3550  -16.0520   20.3380 H   0  0  0  0  0  0  0  0  0  0  0  0
  -25.9580  -15.8940   19.8280 H   0  0  0  0  0  0  0  0  0  0  0  0
  1  3  1  0
  2  1  1  0
  8  1  1  0
 11 22  2  0
 12 10  1  0
 12 17  1  0
 13 21  1  0
 13 23  1  0
 14 20  1  0
 14 16  1  0
 15 21  1  0
 16 15  1  0
 17 16  2  0
 18 12  2  0
 19 18  1  0
 19 14  2  0
 20 13  1  0
 21 11  1  0
 23 25  2  0
 24 23  1  0
 26 24  1  0
 27 36  2  0
 27 32  1  0
 28 24  1  0
 28 32  1  0
 29 28  1  0
 30 31  1  0
 30 29  1  0
 31 27  1  0
 32 33  2  0
 33 34  1  0
 35 34  2  0
 36 35  1  0
 37 11  1  0
 37 42  1  0
 37 38  1  0
 38 41  1  1
 38 39  1  0
 40 38  1  0
 42 45  1  0
 43 47  1  0
 43 42  1  0
 44 43  2  0
 47 46  1  0
 49 47  1  0
 49 50  1  0
 49 48  1  0
 52 51  1  0
 52  1  1  0
 53 58  1  0
 54 56  1  0
 55 59  1  0
 55 53  1  0
 55 57  1  0
 56 60  1  0
 57 52  1  0
 57 56  1  0
 58 54  1  0
 61 69  1  0
 62 67  1  0
 63 64  1  0
 63 62  1  0
 65 64  1  0
 65 74  1  0
 65 66  1  0
 67 61  1  0
 67 66  1  0
 68 61  2  0
 69 70  1  0
 71 72  2  0
 72 91  1  0
 73 72  1  0
 73 76  1  0
 74 75  1  0
 74 71  1  0
 75 73  2  0
 76 77  1  0
 77 78  2  0
 79 82  1  0
 79 78  1  0
 80 79  2  0
 81 80  1  0
 81 76  2  0
 82 83  1  0
 83 84  1  0
 84 85  2  0
 86 85  1  0
 86 90  1  0
 87 86  2  0
 88 83  2  0
 88 87  1  0
 89 88  1  0
 91 92  1  0
 92 95  1  0
 92 94  1  0
 93 91  2  0
 96 97  1  0
 96 71  1  0
 98 96  1  0
M  ISO  4   9 101  10 101  61 100  69 100
M  END
>  <TORSDO>  (73) 
F 19

>  <SCORE>  (73) 
-11.828

>  <name>  (73) 
73

>  <ligand_id>  (73) 
73

>  <original_smiles>  (73) 
[H]c1c([H])c([H])c2c(c1[H])C([H])([H])C([H])([H])C([H])([H])C2([H])N([H])C(=O)C1([H])N(C(=O)C([H])(N([H])C(=O)C([H])(N([H])C([H])([H])[H])C([H])([H])[H])C(C([H])([H])[H])(C([H])([H])[H])C([H])([H])[H])C([H])([H])c2c([H])c(OC3([H])C([H])([H])C([H])([H])C([H])([N+]([H])([H])C([H])(c4c(C([H])([H])[H])c([H])c(N([H])C(=O)N5C([H])([H])C([H])([H])C([H])([H])C([H])(n6nc(-c7c([H])c([H])c(Oc8c([H])c([H])c(F)c([H])c8F)c([H])c7[H])c(C(=O)N([H])[H])c6N([H])[H])C5([H])[H])c([H])c4C([H])([H])[H])C([H])([H])[H])C([H])([H])C3([H])[H])c([H])c([H])c2C1([H])[H]

>  <smiles>  (73) 
[H]c1c([H])c([H])c2c(c1[H])C([H])([H])C([H])([H])C([H])([H])C2([H])N([H])C(=O)C1([H])N(C(=O)C([H])(N([H])C(=O)C([H])(N([H])C([H])([H])[H])C([H])([H])[H])C(C([H])([H])[H])(C([H])([H])[H])C([H])([H])[H])C([H])([H])c2c([H])c(OC3([H])C([H])([H])C([H])([H])C([H])([N+]([H])([H])C([H])(c4c(C([H])([H])[H])c([H])c(N([H])C(=O)N5C([H])([H])C([H])([H])C([H])([H])C([H])(n6nc(-c7c([H])c([H])c(Oc8c([H])c([H])c(F)c([H])c8F)c([H])c7[H])c(C(=O)N([H])[H])c6N([H])[H])C5([H])[H])c([H])c4C([H])([H])[H])C([H])([H])[H])C([H])([H])C3([H])[H])c([H])c([H])c2C1([H])[H]

$$$$
74:0:0
     RDKit          3D

 99108  0  0  1  0  0  0  0  0999 V2000
  -30.9180  -19.8210   19.8930 C   0  0  0  0  0  3  0  0  0  0  0  0
  -31.2360  -17.9310   21.3980 C   0  0  0  0  0  3  0  0  0  0  0  0
  -29.9050  -19.1390   19.2140 C   0  0  0  0  0  0  0  0  0  0  0  0
  -29.5550  -17.8360   19.6610 C   0  0  0  0  0  0  0  0  0  0  0  0
  -30.3650  -17.1270   20.6070 C   0  0  0  0  0  0  0  0  0  0  0  0
  -31.3930  -19.3160   21.1120 C   0  0  0  0  0  0  0  0  0  0  0  0
  -30.7350  -14.6420   20.4730 C   0  0  0  0  0  0  0  0  0  0  0  0
  -30.3920  -12.4550   19.3600 C   0  0  0  0  0  2  0  0  0  0  0  0
  -29.4660  -12.6390   18.1380 C   0  0  0  0  0  2  0  0  0  0  0  0
  -27.9800  -12.5040   18.5470 C   0  0  0  0  0  2  0  0  0  0  0  0
  -27.6260  -13.3170   19.8240 C   0  0  0  0  0  3  0  0  0  0  0  0
  -28.6950  -13.1660   20.9360 C   0  0  0  0  0  2  0  0  0  0  0  0
  -30.0180  -13.4740   20.3610 N   0  0  0  0  0  0  0  0  0  0  0  0
  -31.8850  -14.7440   20.0480 O   0  0  0  0  0  0  0  0  0  0  0  0
  -30.0850  -15.7370   20.9410 N   0  0  0  0  0  0  0  0  0  0  0  0
  -29.1320  -15.5500   21.1970 H   0  0  0  0  0  0  0  0  0  0  0  0
  -25.1970  -13.8980   20.4870 C   0  0  0  0  0  0  0  0  0  0  0  0
  -24.1400  -13.1360   20.8860 C   0  0  0  0  0  0  0  0  0  0  0  0
  -24.6140  -11.7920   20.8600 C   0  0  0  0  0  0  0  0  0  0  0  0
  -26.2690  -13.0370   20.2960 N   0  0  0  0  0  0  0  0  0  0  0  0
  -25.9110  -11.7580   20.5660 N   0  0  0  0  0  0  0  0  0  0  0  0
  -23.8820  -10.5380   21.0360 C   0  0  0  0  0  0  0  0  0  0  0  0
  -24.2960   -9.5710   21.9760 C   0  0  0  0  0  3  0  0  0  0  0  0
  -23.5580   -8.3810   22.1500 C   0  0  0  0  0  3  0  0  0  0  0  0
  -22.3950   -8.1520   21.3790 C   0  0  0  0  0  0  0  0  0  0  0  0
  -22.0010   -9.1090   20.4270 C   0  0  0  0  0  3  0  0  0  0  0  0
  -22.7380  -10.2890   20.2520 C   0  0  0  0  0  3  0  0  0  0  0  0
  -21.6320   -7.0120   21.4550 O   0  0  0  0  0  0  0  0  0  0  0  0
  -21.5580   -6.2810   22.6110 C   0  0  0  0  0  0  0  0  0  0  0  0
  -21.0780   -6.8370   23.8180 C   0  0  0  0  0  3  0  0  0  0  0  0
  -20.9600   -6.0270   24.9660 C   0  0  0  0  0  3  0  0  0  0  0  0
  -21.3020   -4.6630   24.9050 C   0  0  0  0  0  0  0  0  0  0  0  0
  -21.7700   -4.1080   23.7000 C   0  0  0  0  0  3  0  0  0  0  0  0
  -21.8970   -4.9150   22.5550 C   0  0  0  0  0  0  0  0  0  0  0  0
  -22.3340   -4.3710   21.3940 F   0  0  0  0  0  0  0  0  0  0  0  0
  -21.1750   -3.8820   26.0010 F   0  0  0  0  0  0  0  0  0  0  0  0
  -22.7450  -13.6270   21.1450 C   0  0  0  0  0  0  0  0  0  0  0  0
  -22.0050  -12.9440   22.0100 N   0  0  0  0  0  0  0  0  0  0  0  0
  -22.3180  -14.6570   20.6240 O   0  0  0  0  0  0  0  0  0  0  0  0
  -22.3620  -12.1130   22.4550 H   0  0  0  0  0  0  0  0  0  0  0  0
  -21.0720  -13.2610   22.2350 H   0  0  0  0  0  0  0  0  0  0  0  0
  -25.2710  -15.2480   20.2370 N   0  0  0  0  0  0  0  0  0  0  0  0
  -24.4340  -15.8190   20.2970 H   0  0  0  0  0  0  0  0  0  0  0  0
  -26.0630  -15.7270   19.8310 H   0  0  0  0  0  0  0  0  0  0  0  0
  -27.3980  -17.2210   20.7170 C   0  0  0  0  0  1  0  0  0  0  0  0
  -28.0150  -16.3250   18.2690 C   0  0  0  0  0  1  0  0  0  0  0  0
  -28.1360  -17.3760   19.3780 C   0  0  0  0  0  3  0  0  0  0  0  0
  -28.9940  -21.4160   18.1140 C   0  0  0  0  0  2  0  0  0  0  0  0
  -27.8400  -20.6070   18.6400 C   0  0  0  0  0  2  0  0  0  0  0  0
  -29.1010  -19.8970   18.1810 C   0  0  0  0  0  3  0  0  0  0  0  0
  -31.8350  -20.2280   22.0520 O   0  0  0  0  0  0  0  0  0  0  0  0
  -30.8020  -21.1710   22.4680 C   0  0  0  0  0  3  0  0  0  0  0  0
  -30.9460  -22.6230   21.9020 C   0  0  0  0  0  3  0  0  0  0  0  0
  -29.7670  -23.5330   22.1200 N   0  0  0  0  0  4  0  0  0  0  0  0
  -28.9190  -22.9900   22.0270 H   0  0  0  0  0  0  0  0  0  0  0  0
  -29.7930  -23.8720   23.0750 H   0  0  0  0  0  0  0  0  0  0  0  0
  -29.6970  -24.7060   21.1810 C   0  0  0  0  0  2  0  0  0  0  0  0
  -28.4320  -25.6150   21.3230 C   0  0  0  0  0  2  0  0  0  0  0  0
  -28.4530  -26.7240   20.3860 O   0  0  0  0  0  0  0  0  0  0  0  0
  -24.5740  -31.9310   23.3000 C   0  0  0  0  0  0  0  0  0  0  0  0
  -27.2910  -27.4740   20.3370 C   0  0  0  0  0  0  0  0  0  0  0  0
  -23.3950  -30.5070   21.6530 C   0  0  0  0  0  3  0  0  0  0  0  0
  -24.8810  -28.9640   20.2650 C   0  0  0  0  0  0  0  0  0  0  0  0
  -25.9180  -30.8910   21.4730 C   0  0  0  0  0  2  0  0  0  0  0  0
  -26.0270  -29.5070   20.8610 C   0  0  0  0  0  0  0  0  0  0  0  0
  -27.2340  -28.7730   20.8910 C   0  0  0  0  0  3  0  0  0  0  0  0
  -26.1370  -26.9460   19.7200 C   0  0  0  0  0  3  0  0  0  0  0  0
  -24.9320  -27.6810   19.6860 C   0  0  0  0  0  3  0  0  0  0  0  0
  -23.6320  -29.8170   20.2820 C   0  0  0  0  0  2  0  0  0  0  0  0
  -24.6460  -31.1270   22.2010 N   0  0  0  0  0  0  0  0  0  0  0  0
  -23.4880  -32.1940   23.8320 O   0  0  0  0  0  0  0  0  0  0  0  0
  -22.7400  -29.4910   22.6160 C   0  0  0  0  0  0  0  0  0  0  0  0
  -21.4190  -29.2920   22.4780 N   0  0  0  0  0  0  0  0  0  0  0  0
  -23.4200  -28.8820   23.4460 O   0  0  0  0  0  0  0  0  0  0  0  0
  -20.9290  -29.8400   21.7850 H   0  0  0  0  0  0  0  0  0  0  0  0
  -18.0570  -28.0450   22.9370 C   0  0  0  0  0  0  0  0  0  0  0  0
  -20.6060  -28.3530   23.2510 C   0  0  0  0  0  3  0  0  0  0  0  0
  -20.7410  -26.9120   22.7060 C   0  0  0  0  0  2  0  0  0  0  0  0
  -19.6650  -26.5530   21.6770 C   0  0  0  0  0  2  0  0  0  0  0  0
  -18.2680  -26.6880   22.2900 C   0  0  0  0  0  2  0  0  0  0  0  0
  -19.1550  -28.8330   23.3760 C   0  0  0  0  0  0  0  0  0  0  0  0
  -18.9020  -30.1020   23.9420 C   0  0  0  0  0  3  0  0  0  0  0  0
  -17.5860  -30.5840   24.0740 C   0  0  0  0  0  3  0  0  0  0  0  0
  -16.5040  -29.7950   23.6500 C   0  0  0  0  0  3  0  0  0  0  0  0
  -16.7390  -28.5280   23.0870 C   0  0  0  0  0  3  0  0  0  0  0  0
  -25.8520  -32.5760   23.9270 C   0  0  0  0  0  3  0  0  0  0  0  0
  -25.5380  -33.9780   24.2330 N   0  0  0  0  0  0  0  0  0  0  0  0
  -25.8830  -35.0170   23.4620 C   0  0  0  0  0  0  0  0  0  0  0  0
  -26.5670  -34.8990   22.4420 O   0  0  0  0  0  0  0  0  0  0  0  0
  -24.9310  -34.1430   25.0230 H   0  0  0  0  0  0  0  0  0  0  0  0
  -24.1700  -36.8100   23.0380 C   0  0  0  0  0  1  0  0  0  0  0  0
  -25.3860  -36.4130   23.8890 C   0  0  0  0  0  3  0  0  0  0  0  0
  -27.5030  -37.3020   24.7640 C   0  0  0  0  0  1  0  0  0  0  0  0
  -26.4250  -37.4620   23.7910 N   0  0  0  0  0  0  0  0  0  0  0  0
  -26.0170  -38.3850   23.9220 H   0  0  0  0  0  0  0  0  0  0  0  0
  -26.3630  -31.8250   25.2160 C   0  0  1  0  0  0  0  0  0  0  0  0
  -25.2670  -31.5980   26.2820 C   0  0  0  0  0  1  0  0  0  0  0  0
  -26.9550  -30.4450   24.8440 C   0  0  0  0  0  1  0  0  0  0  0  0
  -27.5080  -32.6320   25.8740 C   0  0  0  0  0  1  0  0  0  0  0  0
  1  6  1  0
  3  4  1  0
  3  1  2  0
  4  5  2  0
  5 15  1  0
  5  2  1  0
  6  2  2  0
  6 51  1  0
  7 15  1  0
  8 13  1  0
  9 10  1  0
  9  8  1  0
 11 10  1  0
 11 20  1  0
 11 12  1  0
 13  7  1  0
 13 12  1  0
 14  7  2  0
 15 16  1  0
 17 18  2  0
 18 37  1  0
 19 18  1  0
 19 22  1  0
 20 17  1  0
 20 21  1  0
 21 19  2  0
 22 23  1  0
 23 24  2  0
 25 28  1  0
 25 24  1  0
 26 25  2  0
 27 26  1  0
 27 22  2  0
 28 29  1  0
 29 30  1  0
 30 31  2  0
 32 31  1  0
 32 36  1  0
 33 32  2  0
 34 29  2  0
 34 33  1  0
 35 34  1  0
 37 38  1  0
 38 41  1  0
 38 40  1  0
 39 37  2  0
 42 43  1  0
 42 17  1  0
 44 42  1  0
 46 47  1  0
 47  4  1  0
 47 45  1  0
 48 50  1  0
 48 49  1  0
 50 49  1  0
 50  3  1  0
 51 52  1  0
 53 54  1  0
 53 52  2  0
 54 56  1  0
 55 54  1  0
 57 58  1  0
 57 54  1  0
 59 58  1  0
 60 71  2  0
 61 59  1  0
 61 66  1  0
 62 70  1  0
 62 72  1  0
 63 69  1  0
 63 65  1  0
 64 70  1  0
 65 66  2  0
 65 64  1  0
 67 61  2  0
 68 67  1  0
 68 63  2  0
 69 62  1  0
 70 60  1  0
 72 74  2  0
 73 72  1  0
 75 73  1  0
 76 85  2  0
 76 81  1  0
 77 73  1  0
 77 81  1  0
 78 77  1  0
 79 80  1  0
 79 78  1  0
 80 76  1  0
 81 82  2  0
 82 83  1  0
 84 83  2  0
 85 84  1  0
 86 60  1  0
 86 87  1  0
 86 96  1  0
 87 90  1  0
 88 92  1  0
 88 87  1  0
 89 88  2  0
 92 91  1  0
 94 92  1  0
 94 95  1  0
 94 93  1  0
 96 99  1  1
 96 97  1  0
 98 96  1  0
M  ISO  4   7 100  15 100  58 101  59 101
M  END
>  <TORSDO>  (74) 
F 24

>  <SCORE>  (74) 
-12.125

>  <name>  (74) 
74

>  <ligand_id>  (74) 
74

>  <original_smiles>  (74) 
[H]c1c([H])c([H])c2c(c1[H])C([H])([H])C([H])([H])C([H])([H])C2([H])N([H])C(=O)C1([H])N(C(=O)C([H])(N([H])C(=O)C([H])(N([H])C([H])([H])[H])C([H])([H])[H])C(C([H])([H])[H])(C([H])([H])[H])C([H])([H])[H])C([H])([H])c2c([H])c(OC([H])([H])C([H])([H])[N+]([H])([H])C([H])([H])C([H])([H])Oc3c([H])c(N([H])C(=O)N4C([H])([H])C([H])([H])C([H])([H])C([H])(n5nc(-c6c([H])c([H])c(Oc7c([H])c([H])c(F)c([H])c7F)c([H])c6[H])c(C(=O)N([H])[H])c5N([H])[H])C4([H])[H])c(C([H])(C([H])([H])[H])C([H])([H])[H])c(C4([H])C([H])([H])C4([H])[H])c3[H])c([H])c([H])c2C1([H])[H]

>  <smiles>  (74) 
[H]c1c([H])c([H])c2c(c1[H])C([H])([H])C([H])([H])C([H])([H])C2([H])N([H])C(=O)C1([H])N(C(=O)C([H])(N([H])C(=O)C([H])(N([H])C([H])([H])[H])C([H])([H])[H])C(C([H])([H])[H])(C([H])([H])[H])C([H])([H])[H])C([H])([H])c2c([H])c(OC([H])([H])C([H])([H])[N+]([H])([H])C([H])([H])C([H])([H])Oc3c([H])c(N([H])C(=O)N4C([H])([H])C([H])([H])C([H])([H])C([H])(n5nc(-c6c([H])c([H])c(Oc7c([H])c([H])c(F)c([H])c7F)c([H])c6[H])c(C(=O)N([H])[H])c5N([H])[H])C4([H])[H])c(C([H])(C([H])([H])[H])C([H])([H])[H])c(C4([H])C([H])([H])C4([H])[H])c3[H])c([H])c([H])c2C1([H])[H]

$$$$
75:0:0
     RDKit          3D

 99109  0  0  1  0  0  0  0  0999 V2000
  -29.5570  -22.4810   21.9750 C   0  0  0  0  0  3  0  0  0  0  0  0
  -31.8170  -20.8260   22.0320 C   0  0  0  0  0  3  0  0  0  0  0  0
  -30.8380  -23.0570   21.8310 C   0  0  0  0  0  0  0  0  0  0  0  0
  -29.3940  -21.0870   22.0730 C   0  0  0  0  0  0  0  0  0  0  0  0
  -31.9810  -22.2240   21.9370 C   0  0  0  0  0  0  0  0  0  0  0  0
  -30.5300  -20.2460   22.0250 C   0  0  0  0  0  0  0  0  0  0  0  0
  -27.9890  -20.5140   22.1540 C   0  0  0  0  0  1  0  0  0  0  0  0
  -33.3930  -22.7820   21.8770 C   0  0  0  0  0  1  0  0  0  0  0  0
  -29.6710  -17.2550   20.0590 C   0  0  0  0  0  2  0  0  0  0  0  0
  -30.8800  -16.4820   22.1230 C   0  0  0  0  0  2  0  0  0  0  0  0
  -30.1330  -18.6800   20.3620 C   0  0  0  0  0  2  0  0  0  0  0  0
  -31.3110  -17.9400   22.3900 C   0  0  0  0  0  2  0  0  0  0  0  0
  -30.6760  -16.2310   20.6140 C   0  0  0  0  0  3  0  0  0  0  0  0
  -30.3510  -18.8710   21.7960 N   0  0  0  0  0  0  0  0  0  0  0  0
  -30.4260  -14.1510   19.2700 C   0  0  0  0  0  0  0  0  0  0  0  0
  -29.8250  -12.0900   18.0570 C   0  0  0  0  0  2  0  0  0  0  0  0
  -28.6820  -12.3390   17.0550 C   0  0  0  0  0  2  0  0  0  0  0  0
  -27.3110  -12.2090   17.7450 C   0  0  0  0  0  2  0  0  0  0  0  0
  -27.2240  -13.0350   19.0540 C   0  0  0  0  0  3  0  0  0  0  0  0
  -28.4480  -12.7510   19.9520 C   0  0  0  0  0  2  0  0  0  0  0  0
  -29.6760  -13.0270   19.1780 N   0  0  0  0  0  0  0  0  0  0  0  0
  -31.2800  -14.4760   18.4390 O   0  0  0  0  0  0  0  0  0  0  0  0
  -30.1820  -14.8840   20.3620 N   0  0  0  0  0  0  0  0  0  0  0  0
  -29.5040  -14.5080   21.0090 H   0  0  0  0  0  0  0  0  0  0  0  0
  -24.9950  -13.6800   20.1740 C   0  0  0  0  0  0  0  0  0  0  0  0
  -23.9990  -12.9210   20.7280 C   0  0  0  0  0  0  0  0  0  0  0  0
  -24.4260  -11.5640   20.6100 C   0  0  0  0  0  0  0  0  0  0  0  0
  -25.9690  -12.7840   19.7610 N   0  0  0  0  0  0  0  0  0  0  0  0
  -25.6370  -11.5060   20.0740 N   0  0  0  0  0  0  0  0  0  0  0  0
  -23.7280  -10.3110   20.9250 C   0  0  0  0  0  0  0  0  0  0  0  0
  -24.2180   -9.4190   21.9050 C   0  0  0  0  0  3  0  0  0  0  0  0
  -23.5200   -8.2290   22.2010 C   0  0  0  0  0  3  0  0  0  0  0  0
  -22.3180   -7.9220   21.5180 C   0  0  0  0  0  0  0  0  0  0  0  0
  -21.8480   -8.8020   20.5280 C   0  0  0  0  0  3  0  0  0  0  0  0
  -22.5470   -9.9850   20.2310 C   0  0  0  0  0  3  0  0  0  0  0  0
  -21.5870   -6.7760   21.7220 O   0  0  0  0  0  0  0  0  0  0  0  0
  -21.5000   -6.1890   22.9580 C   0  0  0  0  0  0  0  0  0  0  0  0
  -20.9830   -6.8770   24.0770 C   0  0  0  0  0  3  0  0  0  0  0  0
  -20.8470   -6.2130   25.3120 C   0  0  0  0  0  3  0  0  0  0  0  0
  -21.2170   -4.8600   25.4290 C   0  0  0  0  0  0  0  0  0  0  0  0
  -21.7270   -4.1700   24.3140 C   0  0  0  0  0  3  0  0  0  0  0  0
  -21.8650   -4.8320   23.0820 C   0  0  0  0  0  0  0  0  0  0  0  0
  -22.3370   -4.1580   22.0060 F   0  0  0  0  0  0  0  0  0  0  0  0
  -21.0800   -4.2190   26.6120 F   0  0  0  0  0  0  0  0  0  0  0  0
  -22.6810  -13.4170   21.2520 C   0  0  0  0  0  0  0  0  0  0  0  0
  -22.1380  -12.7550   22.2680 N   0  0  0  0  0  0  0  0  0  0  0  0
  -22.1490  -14.4270   20.7930 O   0  0  0  0  0  0  0  0  0  0  0  0
  -22.5860  -11.9380   22.6560 H   0  0  0  0  0  0  0  0  0  0  0  0
  -21.2640  -13.0690   22.6630 H   0  0  0  0  0  0  0  0  0  0  0  0
  -25.1480  -15.0490   19.9750 N   0  0  0  0  0  0  0  0  0  0  0  0
  -24.4290  -15.7190   20.2250 H   0  0  0  0  0  0  0  0  0  0  0  0
  -25.9460  -15.4750   19.5180 H   0  0  0  0  0  0  0  0  0  0  0  0
  -30.0150  -25.4820   22.2100 C   0  0  0  0  0  2  0  0  0  0  0  0
  -30.7230  -24.6230   19.8830 C   0  0  0  0  0  2  0  0  0  0  0  0
  -28.7880  -25.9610   21.4100 C   0  0  0  0  0  2  0  0  0  0  0  0
  -30.4440  -26.0580   19.4320 C   0  0  0  0  0  2  0  0  0  0  0  0
  -30.9370  -24.5260   21.4130 C   0  0  0  0  0  3  0  0  0  0  0  0
  -29.1550  -26.6250   20.0590 C   0  0  0  0  0  3  0  0  0  0  0  0
  -28.0770  -26.4170   19.1390 O   0  0  0  0  0  0  0  0  0  0  0  0
  -24.3330  -31.2680   22.8010 C   0  0  0  0  0  0  0  0  0  0  0  0
  -26.9300  -27.1700   19.2840 C   0  0  0  0  0  0  0  0  0  0  0  0
  -23.0870  -30.0330   21.0490 C   0  0  0  0  0  3  0  0  0  0  0  0
  -24.5120  -28.6300   19.4630 C   0  0  0  0  0  0  0  0  0  0  0  0
  -25.6020  -30.4130   20.8400 C   0  0  0  0  0  2  0  0  0  0  0  0
  -25.6710  -29.1060   20.0850 C   0  0  0  0  0  0  0  0  0  0  0  0
  -26.8740  -28.3840   20.0070 C   0  0  0  0  0  3  0  0  0  0  0  0
  -25.7580  -26.7040   18.6510 C   0  0  0  0  0  3  0  0  0  0  0  0
  -24.5470  -27.4200   18.7440 C   0  0  0  0  0  3  0  0  0  0  0  0
  -23.2710  -29.4800   19.6070 C   0  0  0  0  0  2  0  0  0  0  0  0
  -24.3590  -30.5800   21.6250 N   0  0  0  0  0  0  0  0  0  0  0  0
  -23.2650  -31.4950   23.3840 O   0  0  0  0  0  0  0  0  0  0  0  0
  -22.4480  -28.9300   21.9190 C   0  0  0  0  0  0  0  0  0  0  0  0
  -21.1320  -28.7290   21.7510 N   0  0  0  0  0  0  0  0  0  0  0  0
  -23.1310  -28.2640   22.7000 O   0  0  0  0  0  0  0  0  0  0  0  0
  -20.6440  -29.3240   21.0980 H   0  0  0  0  0  0  0  0  0  0  0  0
  -17.7930  -27.3810   22.0250 C   0  0  0  0  0  0  0  0  0  0  0  0
  -20.3230  -27.7190   22.4300 C   0  0  0  0  0  3  0  0  0  0  0  0
  -20.5070  -26.3280   21.7800 C   0  0  0  0  0  2  0  0  0  0  0  0
  -19.4660  -26.0220   20.6990 C   0  0  0  0  0  2  0  0  0  0  0  0
  -18.0530  -26.0790   21.2860 C   0  0  0  0  0  2  0  0  0  0  0  0
  -18.8590  -28.1590   22.5470 C   0  0  0  0  0  0  0  0  0  0  0  0
  -18.5650  -29.3780   23.1950 C   0  0  0  0  0  3  0  0  0  0  0  0
  -17.2370  -29.8240   23.3240 C   0  0  0  0  0  3  0  0  0  0  0  0
  -16.1840  -29.0430   22.8190 C   0  0  0  0  0  3  0  0  0  0  0  0
  -16.4610  -27.8230   22.1760 C   0  0  0  0  0  3  0  0  0  0  0  0
  -25.6370  -31.8250   23.4550 C   0  0  0  0  0  3  0  0  0  0  0  0
  -25.3310  -33.1610   23.9820 N   0  0  0  0  0  0  0  0  0  0  0  0
  -25.6660  -34.3100   23.3790 C   0  0  0  0  0  0  0  0  0  0  0  0
  -26.3410  -34.3540   22.3470 O   0  0  0  0  0  0  0  0  0  0  0  0
  -24.7370  -33.2020   24.7950 H   0  0  0  0  0  0  0  0  0  0  0  0
  -23.9550  -36.1470   23.2600 C   0  0  0  0  0  1  0  0  0  0  0  0
  -25.1770  -35.6200   24.0270 C   0  0  0  0  0  3  0  0  0  0  0  0
  -27.2910  -36.3630   25.0280 C   0  0  0  0  0  1  0  0  0  0  0  0
  -26.2140  -36.6710   24.0900 N   0  0  0  0  0  0  0  0  0  0  0  0
  -25.8080  -37.5630   24.3560 H   0  0  0  0  0  0  0  0  0  0  0  0
  -26.2120  -30.8910   24.5910 C   0  0  1  0  0  0  0  0  0  0  0  0
  -25.1620  -30.4920   25.6550 C   0  0  0  0  0  1  0  0  0  0  0  0
  -26.7900  -29.5910   23.9840 C   0  0  0  0  0  1  0  0  0  0  0  0
  -27.3770  -31.6040   25.3170 C   0  0  0  0  0  1  0  0  0  0  0  0
  1  4  1  0
  3  5  1  0
  3  1  2  0
  4  7  1  0
  5  2  2  0
  6  2  1  0
  6  4  2  0
  8  5  1  0
  9 11  1  0
  9 13  1  0
 10 12  1  0
 11 14  1  0
 13 23  1  0
 13 10  1  0
 14  6  1  0
 14 12  1  0
 15 23  1  0
 16 21  1  0
 17 18  1  0
 17 16  1  0
 19 18  1  0
 19 28  1  0
 19 20  1  0
 21 15  1  0
 21 20  1  0
 22 15  2  0
 23 24  1  0
 25 26  2  0
 26 45  1  0
 27 26  1  0
 27 30  1  0
 28 29  1  0
 28 25  1  0
 29 27  2  0
 30 31  1  0
 31 32  2  0
 33 36  1  0
 33 32  1  0
 34 33  2  0
 35 34  1  0
 35 30  2  0
 36 37  1  0
 37 42  2  0
 37 38  1  0
 38 39  2  0
 39 40  1  0
 40 44  1  0
 41 40  2  0
 42 41  1  0
 43 42  1  0
 45 46  1  0
 46 48  1  0
 46 49  1  0
 47 45  2  0
 50 25  1  0
 50 51  1  0
 52 50  1  0
 54 57  1  0
 55 53  1  0
 56 54  1  0
 56 58  1  0
 57  3  1  0
 57 53  1  0
 58 59  1  0
 58 55  1  0
 59 61  1  0
 60 71  2  0
 61 66  1  0
 62 70  1  0
 62 72  1  0
 63 69  1  0
 63 65  1  0
 64 70  1  0
 65 64  1  0
 66 65  2  0
 67 68  1  0
 67 61  2  0
 68 63  2  0
 69 62  1  0
 70 60  1  0
 72 74  2  0
 73 72  1  0
 75 73  1  0
 76 85  2  0
 76 81  1  0
 77 73  1  0
 77 81  1  0
 78 77  1  0
 79 80  1  0
 79 78  1  0
 80 76  1  0
 81 82  2  0
 82 83  1  0
 84 83  2  0
 85 84  1  0
 86 60  1  0
 86 87  1  0
 86 96  1  0
 87 90  1  0
 88 87  1  0
 88 92  1  0
 89 88  2  0
 92 91  1  0
 92 94  1  0
 94 95  1  0
 94 93  1  0
 96 99  1  1
 96 97  1  0
 98 96  1  0
M  ISO  4  15 100  23 100  58 101  59 101
M  END
>  <TORSDO>  (75) 
F 18

>  <SCORE>  (75) 
-4.930

>  <name>  (75) 
75

>  <ligand_id>  (75) 
75

>  <original_smiles>  (75) 
[H]c1c([H])c([H])c2c(c1[H])C([H])([H])C([H])([H])C([H])([H])C2([H])N([H])C(=O)C1([H])N(C(=O)C([H])(N([H])C(=O)C([H])(N([H])C([H])([H])[H])C([H])([H])[H])C(C([H])([H])[H])(C([H])([H])[H])C([H])([H])[H])C([H])([H])c2c([H])c(OC3([H])C([H])([H])C([H])([H])C([H])(c4c([H])c(C([H])([H])[H])c(N5C([H])([H])C([H])([H])C([H])(N([H])C(=O)N6C([H])([H])C([H])([H])C([H])([H])C([H])(n7nc(-c8c([H])c([H])c(Oc9c([H])c([H])c(F)c([H])c9F)c([H])c8[H])c(C(=O)N([H])[H])c7N([H])[H])C6([H])[H])C([H])([H])C5([H])[H])c([H])c4C([H])([H])[H])C([H])([H])C3([H])[H])c([H])c([H])c2C1([H])[H]

>  <smiles>  (75) 
[H]c1c([H])c([H])c2c(c1[H])C([H])([H])C([H])([H])C([H])([H])C2([H])N([H])C(=O)C1([H])N(C(=O)C([H])(N([H])C(=O)C([H])(N([H])C([H])([H])[H])C([H])([H])[H])C(C([H])([H])[H])(C([H])([H])[H])C([H])([H])[H])C([H])([H])c2c([H])c(OC3([H])C([H])([H])C([H])([H])C([H])(c4c([H])c(C([H])([H])[H])c(N5C([H])([H])C([H])([H])C([H])(N([H])C(=O)N6C([H])([H])C([H])([H])C([H])([H])C([H])(n7nc(-c8c([H])c([H])c(Oc9c([H])c([H])c(F)c([H])c9F)c([H])c8[H])c(C(=O)N([H])[H])c7N([H])[H])C6([H])[H])C([H])([H])C5([H])[H])c([H])c4C([H])([H])[H])C([H])([H])C3([H])[H])c([H])c([H])c2C1([H])[H]

$$$$
76:0:0
     RDKit          3D

 96104  0  0  1  0  0  0  0  0999 V2000
  -26.3570  -22.6780   18.6660 C   0  0  0  0  0  3  0  0  0  0  0  0
  -28.2880  -21.2300   18.9700 C   0  0  0  0  0  3  0  0  0  0  0  0
  -25.4990  -21.5600   18.6530 C   0  0  0  0  0  0  0  0  0  0  0  0
  -26.0380  -20.2580   18.8380 C   0  0  0  0  0  0  0  0  0  0  0  0
  -27.7450  -22.5130   18.8390 C   0  0  0  0  0  0  0  0  0  0  0  0
  -27.4450  -20.0970   18.9670 C   0  0  0  0  0  0  0  0  0  0  0  0
  -24.0110  -21.7960   18.4210 C   0  0  0  0  0  1  0  0  0  0  0  0
  -25.5300  -18.0220   19.9920 C   0  0  0  0  0  1  0  0  0  0  0  0
  -24.9650  -18.3840   17.5080 C   0  0  0  0  0  1  0  0  0  0  0  0
  -25.1210  -19.0270   18.8940 C   0  0  0  0  0  3  0  0  0  0  0  0
  -28.5890  -23.5870   18.8720 O   0  0  0  0  0  0  0  0  0  0  0  0
  -28.3430  -24.4600   19.9630 C   0  0  0  0  0  2  0  0  0  0  0  0
  -28.7860  -25.8650   19.5630 C   0  0  0  0  0  2  0  0  0  0  0  0
  -28.4350  -26.7760   20.5910 O   0  0  0  0  0  0  0  0  0  0  0  0
  -24.5240  -31.9850   23.3360 C   0  0  0  0  0  0  0  0  0  0  0  0
  -27.2190  -27.4190   20.5330 C   0  0  0  0  0  0  0  0  0  0  0  0
  -23.3480  -30.5320   21.7090 C   0  0  0  0  0  3  0  0  0  0  0  0
  -24.8240  -28.9130   20.4090 C   0  0  0  0  0  0  0  0  0  0  0  0
  -25.8790  -30.8560   21.5820 C   0  0  0  0  0  2  0  0  0  0  0  0
  -25.9630  -29.4580   21.0130 C   0  0  0  0  0  0  0  0  0  0  0  0
  -27.1560  -28.7140   21.0850 C   0  0  0  0  0  3  0  0  0  0  0  0
  -26.0520  -26.8660   19.9480 C   0  0  0  0  0  3  0  0  0  0  0  0
  -24.8580  -27.6100   19.8840 C   0  0  0  0  0  3  0  0  0  0  0  0
  -23.5930  -29.7870   20.3680 C   0  0  0  0  0  2  0  0  0  0  0  0
  -24.5980  -31.1420   22.2670 N   0  0  0  0  0  0  0  0  0  0  0  0
  -23.4310  -32.2950   23.8290 O   0  0  0  0  0  0  0  0  0  0  0  0
  -22.6530  -29.5600   22.6880 C   0  0  0  0  0  0  0  0  0  0  0  0
  -21.3350  -29.3810   22.5140 N   0  0  0  0  0  0  0  0  0  0  0  0
  -23.2990  -28.9690   23.5580 O   0  0  0  0  0  0  0  0  0  0  0  0
  -20.8790  -29.9140   21.7860 H   0  0  0  0  0  0  0  0  0  0  0  0
  -17.9280  -28.2530   22.9260 C   0  0  0  0  0  0  0  0  0  0  0  0
  -20.4760  -28.4880   23.2900 C   0  0  0  0  0  3  0  0  0  0  0  0
  -20.5790  -27.0310   22.7830 C   0  0  0  0  0  2  0  0  0  0  0  0
  -19.5140  -26.6780   21.7390 C   0  0  0  0  0  2  0  0  0  0  0  0
  -18.1100  -26.8720   22.3190 C   0  0  0  0  0  2  0  0  0  0  0  0
  -19.0410  -29.0180   23.3680 C   0  0  0  0  0  0  0  0  0  0  0  0
  -18.8170  -30.3110   23.8900 C   0  0  0  0  0  3  0  0  0  0  0  0
  -17.5150  -30.8370   23.9780 C   0  0  0  0  0  3  0  0  0  0  0  0
  -16.4170  -30.0700   23.5520 C   0  0  0  0  0  3  0  0  0  0  0  0
  -16.6240  -28.7800   23.0320 C   0  0  0  0  0  3  0  0  0  0  0  0
  -25.8020  -32.6160   23.9730 C   0  0  0  0  0  3  0  0  0  0  0  0
  -25.5060  -34.0250   24.2540 N   0  0  0  0  0  0  0  0  0  0  0  0
  -25.8620  -35.0480   23.4640 C   0  0  0  0  0  0  0  0  0  0  0  0
  -26.5480  -34.9030   22.4480 O   0  0  0  0  0  0  0  0  0  0  0  0
  -24.9050  -34.2140   25.0430 H   0  0  0  0  0  0  0  0  0  0  0  0
  -24.1540  -36.8350   23.0160 C   0  0  0  0  0  1  0  0  0  0  0  0
  -25.3790  -36.4560   23.8620 C   0  0  0  0  0  3  0  0  0  0  0  0
  -27.5120  -37.3470   24.6910 C   0  0  0  0  0  1  0  0  0  0  0  0
  -26.4230  -37.4950   23.7280 N   0  0  0  0  0  0  0  0  0  0  0  0
  -26.0250  -38.4230   23.8400 H   0  0  0  0  0  0  0  0  0  0  0  0
  -26.2790  -31.8730   25.2810 C   0  0  1  0  0  0  0  0  0  0  0  0
  -25.1530  -31.6540   26.3190 C   0  0  0  0  0  1  0  0  0  0  0  0
  -26.8760  -30.4900   24.9320 C   0  0  0  0  0  1  0  0  0  0  0  0
  -27.4070  -32.6830   25.9620 C   0  0  0  0  0  1  0  0  0  0  0  0
  -27.9380  -18.8200   19.0700 O   0  0  0  0  0  0  0  0  0  0  0  0
  -29.2990  -18.6040   19.3960 C   0  0  0  0  0  2  0  0  0  0  0  0
  -29.3460  -17.1500   19.8480 C   0  0  0  0  0  2  0  0  0  0  0  0
  -30.7330  -16.6790   20.2960 C   0  0  0  0  0  2  0  0  0  0  0  0
  -31.1960  -14.2640   20.0860 C   0  0  0  0  0  0  0  0  0  0  0  0
  -30.7980  -12.0020   19.2040 C   0  0  0  0  0  2  0  0  0  0  0  0
  -29.8270  -12.0620   18.0090 C   0  0  0  0  0  2  0  0  0  0  0  0
  -28.3590  -12.0670   18.4750 C   0  0  0  0  0  2  0  0  0  0  0  0
  -28.0780  -13.0860   19.6100 C   0  0  0  0  0  3  0  0  0  0  0  0
  -29.1410  -12.9520   20.7240 C   0  0  0  0  0  2  0  0  0  0  0  0
  -30.4780  -13.1120   20.1130 N   0  0  0  0  0  0  0  0  0  0  0  0
  -32.2470  -14.4100   19.4540 O   0  0  0  0  0  0  0  0  0  0  0  0
  -30.6100  -15.2870   20.7060 N   0  0  0  0  0  0  0  0  0  0  0  0
  -29.8090  -15.0470   21.2710 H   0  0  0  0  0  0  0  0  0  0  0  0
  -25.7750  -13.8990   20.4420 C   0  0  0  0  0  0  0  0  0  0  0  0
  -24.6460  -13.2190   20.8190 C   0  0  0  0  0  0  0  0  0  0  0  0
  -24.9660  -11.8320   20.6960 C   0  0  0  0  0  0  0  0  0  0  0  0
  -26.7180  -12.9310   20.1280 N   0  0  0  0  0  0  0  0  0  0  0  0
  -26.2330  -11.6810   20.3330 N   0  0  0  0  0  0  0  0  0  0  0  0
  -24.1250  -10.6380   20.8540 C   0  0  0  0  0  0  0  0  0  0  0  0
  -24.4770   -9.6040   21.7510 C   0  0  0  0  0  3  0  0  0  0  0  0
  -23.6470   -8.4720   21.8990 C   0  0  0  0  0  3  0  0  0  0  0  0
  -22.4490   -8.3690   21.1540 C   0  0  0  0  0  0  0  0  0  0  0  0
  -22.1140   -9.3900   20.2470 C   0  0  0  0  0  3  0  0  0  0  0  0
  -22.9440  -10.5140   20.0950 C   0  0  0  0  0  3  0  0  0  0  0  0
  -21.5930   -7.2940   21.2190 O   0  0  0  0  0  0  0  0  0  0  0  0
  -21.4640   -6.5430   22.3590 C   0  0  0  0  0  0  0  0  0  0  0  0
  -21.0660   -7.1150   23.5870 C   0  0  0  0  0  3  0  0  0  0  0  0
  -20.8760   -6.2950   24.7170 C   0  0  0  0  0  3  0  0  0  0  0  0
  -21.0720   -4.9050   24.6190 C   0  0  0  0  0  0  0  0  0  0  0  0
  -21.4640   -4.3330   23.3970 C   0  0  0  0  0  3  0  0  0  0  0  0
  -21.6580   -5.1500   22.2700 C   0  0  0  0  0  0  0  0  0  0  0  0
  -22.0140   -4.5900   21.0880 F   0  0  0  0  0  0  0  0  0  0  0  0
  -20.8830   -4.1160   25.7030 F   0  0  0  0  0  0  0  0  0  0  0  0
  -23.3160  -13.8160   21.1800 C   0  0  0  0  0  0  0  0  0  0  0  0
  -22.5640  -13.1510   22.0510 N   0  0  0  0  0  0  0  0  0  0  0  0
  -22.9560  -14.9010   20.7280 O   0  0  0  0  0  0  0  0  0  0  0  0
  -22.8700  -12.2750   22.4450 H   0  0  0  0  0  0  0  0  0  0  0  0
  -21.6680  -13.5240   22.3310 H   0  0  0  0  0  0  0  0  0  0  0  0
  -26.0710  -15.2490   20.3280 N   0  0  0  0  0  0  0  0  0  0  0  0
  -25.3960  -15.9710   20.5500 H   0  0  0  0  0  0  0  0  0  0  0  0
  -26.9350  -15.6190   19.9510 H   0  0  0  0  0  0  0  0  0  0  0  0
  1  5  1  0
  3  1  2  0
  3  4  1  0
  4 10  1  0
  4  6  2  0
  5 11  1  0
  5  2  2  0
  6  2  1  0
  6 55  1  0
  7  3  1  0
  9 10  1  0
 10  8  1  0
 11 12  1  0
 13 12  1  0
 13 14  1  0
 15 26  2  0
 16 14  1  0
 16 21  1  0
 17 25  1  0
 17 27  1  0
 18 20  1  0
 19 25  1  0
 20 21  2  0
 20 19  1  0
 22 16  2  0
 23 22  1  0
 23 18  2  0
 24 18  1  0
 24 17  1  0
 25 15  1  0
 27 29  2  0
 28 27  1  0
 30 28  1  0
 31 40  2  0
 31 36  1  0
 32 28  1  0
 32 36  1  0
 33 32  1  0
 34 35  1  0
 34 33  1  0
 35 31  1  0
 36 37  2  0
 37 38  1  0
 39 38  2  0
 40 39  1  0
 41 15  1  0
 41 42  1  0
 41 51  1  0
 42 45  1  0
 43 47  1  0
 43 42  1  0
 44 43  2  0
 47 46  1  0
 49 50  1  0
 49 47  1  0
 49 48  1  0
 51 54  1  1
 51 52  1  0
 53 51  1  0
 55 56  1  0
 56 57  1  0
 57 58  1  0
 58 67  1  0
 59 65  1  0
 59 67  1  0
 60 65  1  0
 61 62  1  0
 61 60  1  0
 63 62  1  0
 63 72  1  0
 63 64  1  0
 65 64  1  0
 66 59  2  0
 67 68  1  0
 69 70  2  0
 70 89  1  0
 71 70  1  0
 71 74  1  0
 72 73  1  0
 72 69  1  0
 73 71  2  0
 74 75  1  0
 75 76  2  0
 77 80  1  0
 77 76  1  0
 78 77  2  0
 79 78  1  0
 79 74  2  0
 80 81  1  0
 81 82  1  0
 82 83  2  0
 84 83  1  0
 84 88  1  0
 85 84  2  0
 86 81  2  0
 86 85  1  0
 87 86  1  0
 89 90  1  0
 90 93  1  0
 90 92  1  0
 91 89  2  0
 94 69  1  0
 94 95  1  0
 96 94  1  0
M  ISO  4  13 101  14 101  59 100  67 100
M  END
>  <TORSDO>  (76) 
F 24

>  <SCORE>  (76) 
-8.023

>  <name>  (76) 
76

>  <ligand_id>  (76) 
76

>  <original_smiles>  (76) 
[H]c1c([H])c([H])c2c(c1[H])C([H])([H])C([H])([H])C([H])([H])C2([H])N([H])C(=O)C1([H])N(C(=O)C([H])(N([H])C(=O)C([H])(N([H])C([H])([H])[H])C([H])([H])[H])C(C([H])([H])[H])(C([H])([H])[H])C([H])([H])[H])C([H])([H])c2c([H])c(OC([H])([H])C([H])([H])Oc3c([H])c(OC([H])([H])C([H])([H])C([H])([H])N([H])C(=O)N4C([H])([H])C([H])([H])C([H])([H])C([H])(n5nc(-c6c([H])c([H])c(Oc7c([H])c([H])c(F)c([H])c7F)c([H])c6[H])c(C(=O)N([H])[H])c5N([H])[H])C4([H])[H])c(C([H])(C([H])([H])[H])C([H])([H])[H])c(C([H])([H])[H])c3[H])c([H])c([H])c2C1([H])[H]

>  <smiles>  (76) 
[H]c1c([H])c([H])c2c(c1[H])C([H])([H])C([H])([H])C([H])([H])C2([H])N([H])C(=O)C1([H])N(C(=O)C([H])(N([H])C(=O)C([H])(N([H])C([H])([H])[H])C([H])([H])[H])C(C([H])([H])[H])(C([H])([H])[H])C([H])([H])[H])C([H])([H])c2c([H])c(OC([H])([H])C([H])([H])Oc3c([H])c(OC([H])([H])C([H])([H])C([H])([H])N([H])C(=O)N4C([H])([H])C([H])([H])C([H])([H])C([H])(n5nc(-c6c([H])c([H])c(Oc7c([H])c([H])c(F)c([H])c7F)c([H])c6[H])c(C(=O)N([H])[H])c5N([H])[H])C4([H])[H])c(C([H])(C([H])([H])[H])C([H])([H])[H])c(C([H])([H])[H])c3[H])c([H])c([H])c2C1([H])[H]

$$$$
77:0:0
     RDKit          3D

 95103  0  0  1  0  0  0  0  0999 V2000
  -28.0740  -23.8400   20.0550 C   0  0  0  0  0  3  0  0  0  0  0  0
  -28.3230  -21.3580   18.9840 C   0  0  0  0  0  3  0  0  0  0  0  0
  -29.3460  -23.5180   19.5140 C   0  0  0  0  0  0  0  0  0  0  0  0
  -29.4760  -22.1860   18.9440 C   0  0  0  0  0  0  0  0  0  0  0  0
  -27.0050  -22.9400   20.0020 C   0  0  0  0  0  0  0  0  0  0  0  0
  -27.1240  -21.7110   19.4760 N   0  0  0  0  0  0  0  0  0  0  0  0
  -24.7420  -22.3530   20.5810 C   0  0  0  0  0  1  0  0  0  0  0  0
  -25.7800  -23.3290   20.5030 O   0  0  0  0  0  0  0  0  0  0  0  0
  -31.8070  -24.0640   20.0290 C   0  0  0  0  0  1  0  0  0  0  0  0
  -30.4590  -24.6310   19.5400 C   0  0  0  0  0  3  0  0  0  0  0  0
  -30.6280  -26.0000   21.7560 C   0  0  0  0  0  1  0  0  0  0  0  0
  -30.1150  -26.0100   20.2990 C   0  0  0  0  0  3  0  0  0  0  0  0
  -30.5630  -27.3520   19.6010 C   0  0  0  0  0  2  0  0  0  0  0  0
  -30.1230  -28.6020   20.2240 O   0  0  0  0  0  0  0  0  0  0  0  0
  -25.0950  -31.8590   24.1330 C   0  0  0  0  0  0  0  0  0  0  0  0
  -28.7950  -29.0180   20.2790 C   0  0  0  0  0  0  0  0  0  0  0  0
  -24.2930  -30.6720   22.1200 C   0  0  0  0  0  3  0  0  0  0  0  0
  -26.0990  -29.9170   20.4750 C   0  0  0  0  0  0  0  0  0  0  0  0
  -26.6650  -31.6320   22.2020 C   0  0  0  0  0  2  0  0  0  0  0  0
  -27.0900  -30.5210   21.2550 C   0  0  0  0  0  0  0  0  0  0  0  0
  -28.4350  -30.0820   21.1520 C   0  0  0  0  0  3  0  0  0  0  0  0
  -27.7720  -28.4300   19.5010 C   0  0  0  0  0  3  0  0  0  0  0  0
  -26.4370  -28.8740   19.5940 C   0  0  0  0  0  3  0  0  0  0  0  0
  -24.6840  -30.4280   20.6350 C   0  0  0  0  0  2  0  0  0  0  0  0
  -25.3640  -31.3940   22.8790 N   0  0  0  0  0  0  0  0  0  0  0  0
  -23.9710  -31.7270   24.6410 O   0  0  0  0  0  0  0  0  0  0  0  0
  -23.8940  -29.3200   22.7570 C   0  0  0  0  0  0  0  0  0  0  0  0
  -22.7590  -28.7550   22.3130 N   0  0  0  0  0  0  0  0  0  0  0  0
  -24.6110  -28.7890   23.6090 O   0  0  0  0  0  0  0  0  0  0  0  0
  -22.2210  -29.2550   21.6180 H   0  0  0  0  0  0  0  0  0  0  0  0
  -20.0760  -26.3970   21.7620 C   0  0  0  0  0  0  0  0  0  0  0  0
  -22.2160  -27.4660   22.7420 C   0  0  0  0  0  3  0  0  0  0  0  0
  -22.9820  -26.2950   22.0830 C   0  0  0  0  0  2  0  0  0  0  0  0
  -22.3350  -25.8090   20.7830 C   0  0  0  0  0  2  0  0  0  0  0  0
  -20.8970  -25.3440   21.0370 C   0  0  0  0  0  2  0  0  0  0  0  0
  -20.6960  -27.4030   22.5500 C   0  0  0  0  0  0  0  0  0  0  0  0
  -19.8870  -28.3780   23.1740 C   0  0  0  0  0  3  0  0  0  0  0  0
  -18.4880  -28.3580   23.0230 C   0  0  0  0  0  3  0  0  0  0  0  0
  -17.8790  -27.3520   22.2550 C   0  0  0  0  0  3  0  0  0  0  0  0
  -18.6720  -26.3710   21.6300 C   0  0  0  0  0  3  0  0  0  0  0  0
  -26.1750  -32.6000   24.9810 C   0  0  0  0  0  3  0  0  0  0  0  0
  -25.6930  -33.9660   25.2210 N   0  0  0  0  0  0  0  0  0  0  0  0
  -26.0670  -35.0410   24.5140 C   0  0  0  0  0  0  0  0  0  0  0  0
  -26.9180  -34.9920   23.6220 O   0  0  0  0  0  0  0  0  0  0  0  0
  -24.9550  -34.0740   25.9000 H   0  0  0  0  0  0  0  0  0  0  0  0
  -24.2790  -36.6680   23.8220 C   0  0  0  0  0  1  0  0  0  0  0  0
  -25.3870  -36.3820   24.8490 C   0  0  0  0  0  3  0  0  0  0  0  0
  -27.2470  -37.4680   26.0270 C   0  0  0  0  0  1  0  0  0  0  0  0
  -26.3270  -37.5240   24.8950 N   0  0  0  0  0  0  0  0  0  0  0  0
  -25.8220  -38.4050   24.9370 H   0  0  0  0  0  0  0  0  0  0  0  0
  -26.4950  -31.8770   26.3470 C   0  0  1  0  0  0  0  0  0  0  0  0
  -25.2360  -31.5050   27.1640 C   0  0  0  0  0  1  0  0  0  0  0  0
  -27.3000  -30.5790   26.1030 C   0  0  0  0  0  1  0  0  0  0  0  0
  -27.3820  -32.7880   27.2290 C   0  0  0  0  0  1  0  0  0  0  0  0
  -30.6500  -21.6700   18.3810 O   0  0  0  0  0  0  0  0  0  0  0  0
  -30.9280  -20.2280   18.4120 C   0  0  0  0  0  2  0  0  0  0  0  0
  -31.8340  -19.6600   19.5720 C   0  0  0  0  0  2  0  0  0  0  0  0
  -32.5510  -17.2070   19.9560 C   0  0  0  0  0  0  0  0  0  0  0  0
  -32.6780  -14.7570   19.6100 C   0  0  0  0  0  2  0  0  0  0  0  0
  -31.9130  -14.4110   18.3140 C   0  0  0  0  0  2  0  0  0  0  0  0
  -30.4120  -14.2020   18.6030 C   0  0  0  0  0  2  0  0  0  0  0  0
  -29.8060  -15.3370   19.4720 C   0  0  0  0  0  3  0  0  0  0  0  0
  -30.7030  -15.6520   20.6900 C   0  0  0  0  0  2  0  0  0  0  0  0
  -32.0490  -15.9580   20.1850 N   0  0  0  0  0  0  0  0  0  0  0  0
  -33.7310  -17.3940   19.6490 O   0  0  0  0  0  0  0  0  0  0  0  0
  -31.6370  -18.2140   19.9020 N   0  0  0  0  0  0  0  0  0  0  0  0
  -30.6950  -17.9380   20.1380 H   0  0  0  0  0  0  0  0  0  0  0  0
  -27.3690  -15.9090   20.0530 C   0  0  0  0  0  0  0  0  0  0  0  0
  -26.2920  -15.1230   20.3590 C   0  0  0  0  0  0  0  0  0  0  0  0
  -26.7680  -13.7770   20.3500 C   0  0  0  0  0  0  0  0  0  0  0  0
  -28.4340  -15.0390   19.8740 N   0  0  0  0  0  0  0  0  0  0  0  0
  -28.0750  -13.7510   20.1130 N   0  0  0  0  0  0  0  0  0  0  0  0
  -26.0460  -12.5060   20.4940 C   0  0  0  0  0  0  0  0  0  0  0  0
  -26.2150  -11.6870   21.6320 C   0  0  0  0  0  3  0  0  0  0  0  0
  -25.4990  -10.4780   21.7570 C   0  0  0  0  0  3  0  0  0  0  0  0
  -24.5980  -10.0780   20.7400 C   0  0  0  0  0  0  0  0  0  0  0  0
  -24.4490  -10.8860   19.5990 C   0  0  0  0  0  3  0  0  0  0  0  0
  -25.1680  -12.0880   19.4740 C   0  0  0  0  0  3  0  0  0  0  0  0
  -23.8770   -8.9090   20.7640 O   0  0  0  0  0  0  0  0  0  0  0  0
  -23.2520   -8.4720   21.9050 C   0  0  0  0  0  0  0  0  0  0  0  0
  -22.2250   -9.2150   22.5250 C   0  0  0  0  0  3  0  0  0  0  0  0
  -21.5630   -8.6950   23.6560 C   0  0  0  0  0  3  0  0  0  0  0  0
  -21.9210   -7.4310   24.1620 C   0  0  0  0  0  0  0  0  0  0  0  0
  -22.9410   -6.6870   23.5420 C   0  0  0  0  0  3  0  0  0  0  0  0
  -23.6030   -7.2060   22.4150 C   0  0  0  0  0  0  0  0  0  0  0  0
  -24.5700   -6.4760   21.8100 F   0  0  0  0  0  0  0  0  0  0  0  0
  -21.2810   -6.9260   25.2420 F   0  0  0  0  0  0  0  0  0  0  0  0
  -24.8750  -15.5850   20.5510 C   0  0  0  0  0  0  0  0  0  0  0  0
  -24.1070  -14.8800   21.3750 N   0  0  0  0  0  0  0  0  0  0  0  0
  -24.4570  -16.6060   20.0060 O   0  0  0  0  0  0  0  0  0  0  0  0
  -24.4570  -14.0560   21.8410 H   0  0  0  0  0  0  0  0  0  0  0  0
  -23.1530  -15.1670   21.5390 H   0  0  0  0  0  0  0  0  0  0  0  0
  -27.5280  -17.2820   19.8880 N   0  0  0  0  0  0  0  0  0  0  0  0
  -26.7420  -17.9210   19.9360 H   0  0  0  0  0  0  0  0  0  0  0  0
  -28.3770  -17.7230   19.5590 H   0  0  0  0  0  0  0  0  0  0  0  0
  2  6  1  0
  3 10  1  0
  3  1  2  0
  4  2  2  0
  4  3  1  0
  5  1  1  0
  5  8  1  0
  6  5  2  0
  8  7  1  0
 10  9  1  0
 10 12  1  0
 12 11  1  0
 13 14  1  0
 13 12  1  0
 14 16  1  0
 15 26  2  0
 16 21  1  0
 17 27  1  0
 17 25  1  0
 18 24  1  0
 18 20  1  0
 19 25  1  0
 20 19  1  0
 21 20  2  0
 22 23  1  0
 22 16  2  0
 23 18  2  0
 24 17  1  0
 25 15  1  0
 27 29  2  0
 28 27  1  0
 30 28  1  0
 31 36  1  0
 32 28  1  0
 33 32  1  0
 34 35  1  0
 34 33  1  0
 35 31  1  0
 36 32  1  0
 36 37  2  0
 38 37  1  0
 39 38  2  0
 40 31  2  0
 40 39  1  0
 41 15  1  0
 41 42  1  0
 41 51  1  0
 42 45  1  0
 43 47  1  0
 43 42  1  0
 44 43  2  0
 47 46  1  0
 47 49  1  0
 49 50  1  0
 49 48  1  0
 51 52  1  1
 51 54  1  0
 53 51  1  0
 55 56  1  0
 55  4  1  0
 56 57  1  0
 57 66  1  0
 58 64  1  0
 59 64  1  0
 60 61  1  0
 60 59  1  0
 62 61  1  0
 62 71  1  0
 62 63  1  0
 64 63  1  0
 65 58  2  0
 66 58  1  0
 66 67  1  0
 68 69  2  0
 69 88  1  0
 70 69  1  0
 70 73  1  0
 71 68  1  0
 71 72  1  0
 72 70  2  0
 73 74  1  0
 74 75  2  0
 76 79  1  0
 76 75  1  0
 77 76  2  0
 78 77  1  0
 78 73  2  0
 79 80  1  0
 80 85  2  0
 80 81  1  0
 81 82  2  0
 82 83  1  0
 83 87  1  0
 84 83  2  0
 85 84  1  0
 86 85  1  0
 88 89  1  0
 89 92  1  0
 89 91  1  0
 90 88  2  0
 93 94  1  0
 93 68  1  0
 95 93  1  0
M  ISO  4  13 101  14 101  58 100  66 100
M  END
>  <TORSDO>  (77) 
F 23

>  <SCORE>  (77) 
-0.608

>  <name>  (77) 
77

>  <ligand_id>  (77) 
77

>  <original_smiles>  (77) 
[H]c1nc(OC([H])([H])[H])c([H])c(C([H])(C([H])([H])[H])C([H])(C([H])([H])[H])C([H])([H])Oc2c([H])c([H])c3c(c2[H])C([H])([H])N(C(=O)C([H])(N([H])C(=O)C([H])(N([H])C([H])([H])[H])C([H])([H])[H])C(C([H])([H])[H])(C([H])([H])[H])C([H])([H])[H])C([H])(C(=O)N([H])C2([H])c4c([H])c([H])c([H])c([H])c4C([H])([H])C([H])([H])C2([H])[H])C3([H])[H])c1OC([H])([H])C([H])([H])N([H])C(=O)N1C([H])([H])C([H])([H])C([H])([H])C([H])(n2nc(-c3c([H])c([H])c(Oc4c([H])c([H])c(F)c([H])c4F)c([H])c3[H])c(C(=O)N([H])[H])c2N([H])[H])C1([H])[H]

>  <smiles>  (77) 
[H]c1nc(OC([H])([H])[H])c([H])c(C([H])(C([H])([H])[H])C([H])(C([H])([H])[H])C([H])([H])Oc2c([H])c([H])c3c(c2[H])C([H])([H])N(C(=O)C([H])(N([H])C(=O)C([H])(N([H])C([H])([H])[H])C([H])([H])[H])C(C([H])([H])[H])(C([H])([H])[H])C([H])([H])[H])C([H])(C(=O)N([H])C2([H])c4c([H])c([H])c([H])c([H])c4C([H])([H])C([H])([H])C2([H])[H])C3([H])[H])c1OC([H])([H])C([H])([H])N([H])C(=O)N1C([H])([H])C([H])([H])C([H])([H])C([H])(n2nc(-c3c([H])c([H])c(Oc4c([H])c([H])c(F)c([H])c4F)c([H])c3[H])c(C(=O)N([H])[H])c2N([H])[H])C1([H])[H]

$$$$
78:0:0
     RDKit          3D

 88 97  0  0  1  0  0  0  0  0999 V2000
  -30.4380  -15.5030   20.3350 C   0  0  0  0  0  0  0  0  0  0  0  0
  -30.4130  -12.9980   19.5300 C   0  0  0  0  0  2  0  0  0  0  0  0
  -29.5490  -12.6420   18.2940 C   0  0  0  0  0  2  0  0  0  0  0  0
  -28.1070  -12.3340   18.7190 C   0  0  0  0  0  2  0  0  0  0  0  0
  -27.5910  -13.3490   19.7670 C   0  0  0  0  0  3  0  0  0  0  0  0
  -28.6010  -13.6530   20.8970 C   0  0  0  0  0  2  0  0  0  0  0  0
  -29.8100  -14.2020   20.2510 N   0  0  0  0  0  0  0  0  0  0  0  0
  -31.6690  -15.3450   20.2490 O   0  0  0  0  0  0  0  0  0  0  0  0
  -30.6510  -20.9340   21.1290 C   0  0  0  0  0  3  0  0  0  0  0  0
  -29.9660  -22.2070   20.8720 C   0  0  0  0  0  3  0  0  0  0  0  0
  -30.1660  -19.6260   20.7550 C   0  0  0  0  0  0  0  0  0  0  0  0
  -28.9580  -19.6010   20.1110 C   0  0  0  0  0  0  0  0  0  0  0  0
  -28.7000  -22.3880   20.2000 C   0  0  0  0  0  0  0  0  0  0  0  0
  -28.2460  -20.9520   19.8360 C   0  0  0  0  0  0  0  0  0  0  0  0
  -30.7720  -18.1360   20.9460 C   0  0  0  0  0  3  0  0  0  0  0  0
  -28.7640  -17.9410   19.8840 C   0  0  0  0  0  3  0  0  0  0  0  0
  -26.9230  -20.8350   19.1000 C   0  0  0  0  0  1  0  0  0  0  0  0
  -29.9050  -16.9410   20.4520 N   0  0  0  0  0  0  0  0  0  0  0  0
  -25.2060  -13.8840   20.4570 C   0  0  0  0  0  0  0  0  0  0  0  0
  -24.1420  -13.1010   20.8090 C   0  0  0  0  0  0  0  0  0  0  0  0
  -24.6220  -11.7570   20.8180 C   0  0  0  0  0  0  0  0  0  0  0  0
  -26.2630  -13.0150   20.2620 N   0  0  0  0  0  0  0  0  0  0  0  0
  -25.9240  -11.7280   20.5460 N   0  0  0  0  0  0  0  0  0  0  0  0
  -23.9000  -10.4890   21.0100 C   0  0  0  0  0  0  0  0  0  0  0  0
  -24.3140   -9.5360   21.9640 C   0  0  0  0  0  3  0  0  0  0  0  0
  -23.5850   -8.3400   22.1460 C   0  0  0  0  0  3  0  0  0  0  0  0
  -22.4270   -8.0880   21.3720 C   0  0  0  0  0  0  0  0  0  0  0  0
  -22.0320   -9.0320   20.4060 C   0  0  0  0  0  3  0  0  0  0  0  0
  -22.7610  -10.2180   20.2240 C   0  0  0  0  0  3  0  0  0  0  0  0
  -21.6740   -6.9430   21.4610 O   0  0  0  0  0  0  0  0  0  0  0  0
  -21.6120   -6.2100   22.6190 C   0  0  0  0  0  0  0  0  0  0  0  0
  -21.1760   -6.7770   23.8360 C   0  0  0  0  0  3  0  0  0  0  0  0
  -21.0610   -5.9710   24.9870 C   0  0  0  0  0  3  0  0  0  0  0  0
  -21.3720   -4.6000   24.9200 C   0  0  0  0  0  0  0  0  0  0  0  0
  -21.8000   -4.0320   23.7070 C   0  0  0  0  0  3  0  0  0  0  0  0
  -21.9160   -4.8350   22.5600 C   0  0  0  0  0  0  0  0  0  0  0  0
  -22.3100   -4.2790   21.3890 F   0  0  0  0  0  0  0  0  0  0  0  0
  -21.2540   -3.8240   26.0230 F   0  0  0  0  0  0  0  0  0  0  0  0
  -22.7310  -13.5730   21.0160 C   0  0  0  0  0  0  0  0  0  0  0  0
  -21.9850  -12.8950   21.8810 N   0  0  0  0  0  0  0  0  0  0  0  0
  -22.3020  -14.5780   20.4530 O   0  0  0  0  0  0  0  0  0  0  0  0
  -22.3420  -12.0820   22.3590 H   0  0  0  0  0  0  0  0  0  0  0  0
  -21.0380  -13.1940   22.0670 H   0  0  0  0  0  0  0  0  0  0  0  0
  -25.3620  -15.2510   20.2600 N   0  0  0  0  0  0  0  0  0  0  0  0
  -24.5920  -15.9050   20.3460 H   0  0  0  0  0  0  0  0  0  0  0  0
  -26.2230  -15.6940   19.9710 H   0  0  0  0  0  0  0  0  0  0  0  0
  -27.8800  -23.9940   19.9450 C   0  0  0  0  0  2  0  0  0  0  0  0
  -28.1810  -25.6630   20.1580 O   0  0  0  0  0  0  0  0  0  0  0  0
  -24.6750  -31.8090   23.1260 C   0  0  0  0  0  0  0  0  0  0  0  0
  -27.2100  -26.8390   20.0950 C   0  0  0  0  0  0  0  0  0  0  0  0
  -23.4820  -30.4220   21.4820 C   0  0  0  0  0  3  0  0  0  0  0  0
  -24.9280  -28.8050   20.0500 C   0  0  0  0  0  0  0  0  0  0  0  0
  -26.0540  -30.5990   21.3480 C   0  0  0  0  0  2  0  0  0  0  0  0
  -26.1200  -29.1780   20.6840 C   0  0  0  0  0  0  0  0  0  0  0  0
  -27.2520  -28.2210   20.6750 C   0  0  0  0  0  3  0  0  0  0  0  0
  -25.9860  -26.6530   19.4050 C   0  0  0  0  0  3  0  0  0  0  0  0
  -24.8940  -27.5640   19.3920 C   0  0  0  0  0  3  0  0  0  0  0  0
  -23.7160  -29.7420   20.1020 C   0  0  0  0  0  2  0  0  0  0  0  0
  -24.7590  -30.9730   22.0400 N   0  0  0  0  0  0  0  0  0  0  0  0
  -23.5830  -32.1030   23.6410 O   0  0  0  0  0  0  0  0  0  0  0  0
  -22.7770  -29.4290   22.4430 C   0  0  0  0  0  0  0  0  0  0  0  0
  -21.4430  -29.2880   22.3340 N   0  0  0  0  0  0  0  0  0  0  0  0
  -23.4380  -28.7880   23.2640 O   0  0  0  0  0  0  0  0  0  0  0  0
  -20.9610  -29.8610   21.6550 H   0  0  0  0  0  0  0  0  0  0  0  0
  -18.0490  -28.1180   22.8820 C   0  0  0  0  0  0  0  0  0  0  0  0
  -20.6170  -28.3490   23.1030 C   0  0  0  0  0  3  0  0  0  0  0  0
  -20.6890  -26.9250   22.5020 C   0  0  0  0  0  2  0  0  0  0  0  0
  -19.5660  -26.6340   21.5030 C   0  0  0  0  0  2  0  0  0  0  0  0
  -18.1970  -26.7810   22.1730 C   0  0  0  0  0  2  0  0  0  0  0  0
  -19.1830  -28.8600   23.3030 C   0  0  0  0  0  0  0  0  0  0  0  0
  -18.9870  -30.1090   23.9310 C   0  0  0  0  0  3  0  0  0  0  0  0
  -17.6910  -30.6160   24.1390 C   0  0  0  0  0  3  0  0  0  0  0  0
  -16.5700  -29.8720   23.7290 C   0  0  0  0  0  3  0  0  0  0  0  0
  -16.7520  -28.6240   23.1070 C   0  0  0  0  0  3  0  0  0  0  0  0
  -25.9390  -32.4540   23.7670 C   0  0  0  0  0  3  0  0  0  0  0  0
  -25.6110  -33.8450   24.1300 N   0  0  0  0  0  0  0  0  0  0  0  0
  -25.9230  -34.9250   23.4010 C   0  0  0  0  0  0  0  0  0  0  0  0
  -26.5800  -34.8570   22.3590 O   0  0  0  0  0  0  0  0  0  0  0  0
  -25.0250  -33.9700   24.9430 H   0  0  0  0  0  0  0  0  0  0  0  0
  -24.1710  -36.7180   23.1420 C   0  0  0  0  0  1  0  0  0  0  0  0
  -25.4370  -36.3010   23.9080 C   0  0  0  0  0  3  0  0  0  0  0  0
  -27.5830  -37.1930   24.7040 C   0  0  0  0  0  1  0  0  0  0  0  0
  -26.4550  -37.3690   23.7930 N   0  0  0  0  0  0  0  0  0  0  0  0
  -26.0410  -38.2810   23.9710 H   0  0  0  0  0  0  0  0  0  0  0  0
  -26.4510  -31.6730   25.0410 C   0  0  1  0  0  0  0  0  0  0  0  0
  -25.3570  -31.4260   26.1070 C   0  0  0  0  0  1  0  0  0  0  0  0
  -27.0370  -30.2970   24.6490 C   0  0  0  0  0  1  0  0  0  0  0  0
  -27.6000  -32.4650   25.7120 C   0  0  0  0  0  1  0  0  0  0  0  0
  1 18  1  0
  2  7  1  0
  3  4  1  0
  3  2  1  0
  5  4  1  0
  5 22  1  0
  5  6  1  0
  7  1  1  0
  7  6  1  0
  8  1  2  0
 10  9  2  0
 11 15  2  0
 11  9  1  0
 12 11  1  0
 13 10  1  0
 14 12  1  0
 14 13  2  0
 16 12  2  0
 16 18  1  0
 17 14  1  0
 18 15  1  0
 19 20  2  0
 20 21  1  0
 20 39  1  0
 21 24  1  0
 22 19  1  0
 22 23  1  0
 23 21  2  0
 24 25  1  0
 25 26  2  0
 27 30  1  0
 27 26  1  0
 28 27  2  0
 29 28  1  0
 29 24  2  0
 30 31  1  0
 31 32  1  0
 32 33  2  0
 34 33  1  0
 34 38  1  0
 35 34  2  0
 36 31  2  0
 36 35  1  0
 37 36  1  0
 39 40  1  0
 40 43  1  0
 40 42  1  0
 41 39  2  0
 44 45  1  0
 44 19  1  0
 46 44  1  0
 47 48  1  0
 47 13  1  0
 49 60  2  0
 50 48  1  0
 50 55  1  0
 51 59  1  0
 51 61  1  0
 52 58  1  0
 52 54  1  0
 53 59  1  0
 54 53  1  0
 55 54  2  0
 56 50  2  0
 57 56  1  0
 57 52  2  0
 58 51  1  0
 59 49  1  0
 61 63  2  0
 62 61  1  0
 64 62  1  0
 65 74  2  0
 65 70  1  0
 66 62  1  0
 66 70  1  0
 67 66  1  0
 68 69  1  0
 68 67  1  0
 69 65  1  0
 70 71  2  0
 71 72  1  0
 73 72  2  0
 74 73  1  0
 75 49  1  0
 75 76  1  0
 75 85  1  0
 76 79  1  0
 77 81  1  0
 77 76  1  0
 78 77  2  0
 81 80  1  0
 83 81  1  0
 83 84  1  0
 83 82  1  0
 85 88  1  1
 85 86  1  0
 87 85  1  0
M  ISO  4   1 100  18 100  47 101  48 101
M  END
>  <TORSDO>  (78) 
F 16

>  <SCORE>  (78) 
-16.597

>  <name>  (78) 
78

>  <ligand_id>  (78) 
78

>  <original_smiles>  (78) 
[H]c1c([H])c([H])c2c(c1[H])C([H])([H])C([H])([H])C([H])([H])C2([H])N([H])C(=O)C1([H])N(C(=O)C([H])(N([H])C(=O)C([H])(N([H])C([H])([H])[H])C([H])([H])[H])C(C([H])([H])[H])(C([H])([H])[H])C([H])([H])[H])C([H])([H])c2c([H])c(OC([H])([H])c3c([H])c([H])c4c(c3C([H])([H])[H])C([H])([H])N(C(=O)N3C([H])([H])C([H])([H])C([H])([H])C([H])(n5nc(-c6c([H])c([H])c(Oc7c([H])c([H])c(F)c([H])c7F)c([H])c6[H])c(C(=O)N([H])[H])c5N([H])[H])C3([H])[H])C4([H])[H])c([H])c([H])c2C1([H])[H]

>  <smiles>  (78) 
[H]c1c([H])c([H])c2c(c1[H])C([H])([H])C([H])([H])C([H])([H])C2([H])N([H])C(=O)C1([H])N(C(=O)C([H])(N([H])C(=O)C([H])(N([H])C([H])([H])[H])C([H])([H])[H])C(C([H])([H])[H])(C([H])([H])[H])C([H])([H])[H])C([H])([H])c2c([H])c(OC([H])([H])c3c([H])c([H])c4c(c3C([H])([H])[H])C([H])([H])N(C(=O)N3C([H])([H])C([H])([H])C([H])([H])C([H])(n5nc(-c6c([H])c([H])c(Oc7c([H])c([H])c(F)c([H])c7F)c([H])c6[H])c(C(=O)N([H])[H])c5N([H])[H])C3([H])[H])C4([H])[H])c([H])c([H])c2C1([H])[H]

$$$$
79:0:0
     RDKit          3D

 98107  0  0  1  0  0  0  0  0999 V2000
  -27.5810  -21.9760   18.6510 C   0  0  0  0  0  3  0  0  0  0  0  0
  -30.2490  -21.4370   18.9670 C   0  0  0  0  0  3  0  0  0  0  0  0
  -27.9840  -20.6240   18.6830 C   0  0  0  0  0  0  0  0  0  0  0  0
  -29.3610  -20.3500   18.8650 C   0  0  0  0  0  0  0  0  0  0  0  0
  -28.5490  -22.9870   18.7450 C   0  0  0  0  0  0  0  0  0  0  0  0
  -29.8620  -22.7260   18.9100 N   0  0  0  0  0  0  0  0  0  0  0  0
  -24.6950  -18.8340   18.8980 C   0  0  0  0  0  2  0  0  0  0  0  0
  -25.9820  -19.2750   19.5950 C   0  0  0  0  0  2  0  0  0  0  0  0
  -24.7050  -19.6710   17.6160 C   0  0  0  0  0  2  0  0  0  0  0  0
  -26.9530  -19.5270   18.4270 C   0  0  0  0  0  3  0  0  0  0  0  0
  -26.1250  -19.8300   17.2470 N   0  0  0  0  0  4  0  0  0  0  0  0
  -26.3100  -20.7650   16.9200 H   0  0  0  0  0  0  0  0  0  0  0  0
  -26.3670  -19.1870   16.5120 H   0  0  0  0  0  0  0  0  0  0  0  0
  -29.8860  -19.0850   18.8460 O   0  0  0  0  0  0  0  0  0  0  0  0
  -29.5960  -18.2480   19.9600 C   0  0  0  0  0  2  0  0  0  0  0  0
  -29.9200  -16.8450   19.4420 C   0  0  0  0  0  2  0  0  0  0  0  0
  -30.7040  -14.7390   20.2950 C   0  0  0  0  0  0  0  0  0  0  0  0
  -30.4360  -12.5420   19.2760 C   0  0  0  0  0  2  0  0  0  0  0  0
  -29.4870  -12.7060   18.0690 C   0  0  0  0  0  2  0  0  0  0  0  0
  -28.0180  -12.5650   18.5070 C   0  0  0  0  0  2  0  0  0  0  0  0
  -27.6700  -13.4160   19.7590 C   0  0  0  0  0  3  0  0  0  0  0  0
  -28.7440  -13.2660   20.8640 C   0  0  0  0  0  2  0  0  0  0  0  0
  -30.0600  -13.5490   20.2740 N   0  0  0  0  0  0  0  0  0  0  0  0
  -31.8480  -14.9040   19.8650 O   0  0  0  0  0  0  0  0  0  0  0  0
  -29.8980  -15.7930   20.4590 N   0  0  0  0  0  0  0  0  0  0  0  0
  -29.0200  -15.6170   20.9210 H   0  0  0  0  0  0  0  0  0  0  0  0
  -25.2820  -13.9690   20.5310 C   0  0  0  0  0  0  0  0  0  0  0  0
  -24.2380  -13.1750   20.9180 C   0  0  0  0  0  0  0  0  0  0  0  0
  -24.7200  -11.8310   20.8560 C   0  0  0  0  0  0  0  0  0  0  0  0
  -26.3360  -13.1100   20.2640 N   0  0  0  0  0  0  0  0  0  0  0  0
  -26.0030  -11.8180   20.5180 N   0  0  0  0  0  0  0  0  0  0  0  0
  -24.0210  -10.5540   21.0440 C   0  0  0  0  0  0  0  0  0  0  0  0
  -24.4530   -9.6140   22.0050 C   0  0  0  0  0  3  0  0  0  0  0  0
  -23.7580   -8.4000   22.1800 C   0  0  0  0  0  3  0  0  0  0  0  0
  -22.6170   -8.1150   21.3940 C   0  0  0  0  0  0  0  0  0  0  0  0
  -22.2050   -9.0430   20.4220 C   0  0  0  0  0  3  0  0  0  0  0  0
  -22.9010  -10.2510   20.2440 C   0  0  0  0  0  3  0  0  0  0  0  0
  -21.8940   -6.9500   21.4770 O   0  0  0  0  0  0  0  0  0  0  0  0
  -21.7980   -6.2450   22.6490 C   0  0  0  0  0  0  0  0  0  0  0  0
  -21.2410   -6.8110   23.8150 C   0  0  0  0  0  3  0  0  0  0  0  0
  -21.0970   -6.0300   24.9790 C   0  0  0  0  0  3  0  0  0  0  0  0
  -21.5000   -4.6810   24.9760 C   0  0  0  0  0  0  0  0  0  0  0  0
  -22.0480   -4.1130   23.8140 C   0  0  0  0  0  3  0  0  0  0  0  0
  -22.1940   -4.8910   22.6520 C   0  0  0  0  0  0  0  0  0  0  0  0
  -22.7030   -4.3320   21.5290 F   0  0  0  0  0  0  0  0  0  0  0  0
  -21.3550   -3.9280   26.0920 F   0  0  0  0  0  0  0  0  0  0  0  0
  -22.8400  -13.6230   21.2340 C   0  0  0  0  0  0  0  0  0  0  0  0
  -22.1460  -12.8970   22.1060 N   0  0  0  0  0  0  0  0  0  0  0  0
  -22.3690  -14.6470   20.7440 O   0  0  0  0  0  0  0  0  0  0  0  0
  -22.5440  -12.0720   22.5300 H   0  0  0  0  0  0  0  0  0  0  0  0
  -21.2040  -13.1690   22.3500 H   0  0  0  0  0  0  0  0  0  0  0  0
  -25.4270  -15.3450   20.3650 N   0  0  0  0  0  0  0  0  0  0  0  0
  -24.6660  -16.0010   20.4960 H   0  0  0  0  0  0  0  0  0  0  0  0
  -26.2820  -15.7760   20.0470 H   0  0  0  0  0  0  0  0  0  0  0  0
  -28.1450  -24.2970   18.6090 O   0  0  0  0  0  0  0  0  0  0  0  0
  -29.0840  -25.3460   18.8460 C   0  0  0  0  0  2  0  0  0  0  0  0
  -29.0470  -25.7830   20.3220 C   0  0  0  0  0  2  0  0  0  0  0  0
  -28.9590  -27.2000   20.4670 O   0  0  0  0  0  0  0  0  0  0  0  0
  -24.6470  -32.0430   23.3210 C   0  0  0  0  0  0  0  0  0  0  0  0
  -27.7210  -27.8020   20.3910 C   0  0  0  0  0  0  0  0  0  0  0  0
  -23.6210  -30.5930   21.5990 C   0  0  0  0  0  3  0  0  0  0  0  0
  -25.2400  -29.1510   20.2630 C   0  0  0  0  0  0  0  0  0  0  0  0
  -26.1250  -31.1070   21.5450 C   0  0  0  0  0  2  0  0  0  0  0  0
  -26.3300  -29.7480   20.9100 C   0  0  0  0  0  0  0  0  0  0  0  0
  -27.5710  -29.0830   20.9640 C   0  0  0  0  0  3  0  0  0  0  0  0
  -26.6010  -27.2020   19.7630 C   0  0  0  0  0  3  0  0  0  0  0  0
  -25.3680  -27.8760   19.6930 C   0  0  0  0  0  3  0  0  0  0  0  0
  -23.9500  -29.9370   20.2320 C   0  0  0  0  0  2  0  0  0  0  0  0
  -24.8140  -31.2610   22.2190 N   0  0  0  0  0  0  0  0  0  0  0  0
  -23.5220  -32.2470   23.7980 O   0  0  0  0  0  0  0  0  0  0  0  0
  -22.9720  -29.5280   22.5120 C   0  0  0  0  0  0  0  0  0  0  0  0
  -21.6660  -29.2860   22.3130 N   0  0  0  0  0  0  0  0  0  0  0  0
  -23.6420  -28.9210   23.3520 O   0  0  0  0  0  0  0  0  0  0  0  0
  -21.1860  -29.8280   21.6070 H   0  0  0  0  0  0  0  0  0  0  0  0
  -18.3240  -27.9640   22.6510 C   0  0  0  0  0  0  0  0  0  0  0  0
  -20.8570  -28.3010   23.0290 C   0  0  0  0  0  3  0  0  0  0  0  0
  -21.0340  -26.8920   22.4200 C   0  0  0  0  0  2  0  0  0  0  0  0
  -19.9830  -26.5590   21.3570 C   0  0  0  0  0  2  0  0  0  0  0  0
  -18.5740  -26.6390   21.9520 C   0  0  0  0  0  2  0  0  0  0  0  0
  -19.3980  -28.7510   23.1450 C   0  0  0  0  0  0  0  0  0  0  0  0
  -19.1140  -29.9910   23.7580 C   0  0  0  0  0  3  0  0  0  0  0  0
  -17.7870  -30.4450   23.8850 C   0  0  0  0  0  3  0  0  0  0  0  0
  -16.7260  -29.6540   23.4080 C   0  0  0  0  0  3  0  0  0  0  0  0
  -16.9940  -28.4170   22.7980 C   0  0  0  0  0  3  0  0  0  0  0  0
  -25.8560  -32.7390   24.0210 C   0  0  0  0  0  3  0  0  0  0  0  0
  -25.4760  -34.1320   24.2820 N   0  0  0  0  0  0  0  0  0  0  0  0
  -25.8090  -35.1690   23.5020 C   0  0  0  0  0  0  0  0  0  0  0  0
  -26.5400  -35.0570   22.5130 O   0  0  0  0  0  0  0  0  0  0  0  0
  -24.8310  -34.2900   25.0420 H   0  0  0  0  0  0  0  0  0  0  0  0
  -24.0220  -36.8640   22.9940 C   0  0  0  0  0  1  0  0  0  0  0  0
  -25.2410  -36.5500   23.8780 C   0  0  0  0  0  3  0  0  0  0  0  0
  -27.2920  -37.5660   24.7680 C   0  0  0  0  0  1  0  0  0  0  0  0
  -26.2290  -37.6450   23.7680 N   0  0  0  0  0  0  0  0  0  0  0  0
  -25.7740  -38.5490   23.8620 H   0  0  0  0  0  0  0  0  0  0  0  0
  -26.2980  -32.0200   25.3550 C   0  0  1  0  0  0  0  0  0  0  0  0
  -25.1280  -31.7470   26.3300 C   0  0  0  0  0  1  0  0  0  0  0  0
  -26.9820  -30.6690   25.0440 C   0  0  0  0  0  1  0  0  0  0  0  0
  -27.3430  -32.8870   26.0970 C   0  0  0  0  0  1  0  0  0  0  0  0
  1  3  2  0
  1  5  1  0
  3  4  1  0
  4  2  2  0
  5  6  2  0
  6  2  1  0
  7  8  1  0
  9  7  1  0
 10  3  1  0
 10  8  1  0
 11  9  1  0
 11 10  1  0
 12 11  1  0
 13 11  1  0
 14  4  1  0
 14 15  1  0
 16 15  1  0
 16 25  1  0
 17 25  1  0
 18 23  1  0
 19 20  1  0
 19 18  1  0
 21 20  1  0
 21 30  1  0
 21 22  1  0
 23 17  1  0
 23 22  1  0
 24 17  2  0
 25 26  1  0
 27 28  2  0
 28 47  1  0
 29 28  1  0
 29 32  1  0
 30 31  1  0
 30 27  1  0
 31 29  2  0
 32 33  1  0
 33 34  2  0
 35 38  1  0
 35 34  1  0
 36 35  2  0
 37 36  1  0
 37 32  2  0
 38 39  1  0
 39 44  2  0
 39 40  1  0
 40 41  2  0
 42 41  1  0
 42 46  1  0
 43 42  2  0
 44 43  1  0
 45 44  1  0
 47 48  1  0
 48 51  1  0
 48 50  1  0
 49 47  2  0
 52 53  1  0
 52 27  1  0
 54 52  1  0
 55  5  1  0
 55 56  1  0
 56 57  1  0
 57 58  1  0
 59 70  2  0
 60 58  1  0
 60 65  1  0
 61 69  1  0
 61 71  1  0
 62 64  1  0
 63 69  1  0
 64 65  2  0
 64 63  1  0
 66 60  2  0
 67 66  1  0
 67 62  2  0
 68 62  1  0
 68 61  1  0
 69 59  1  0
 71 73  2  0
 72 71  1  0
 74 72  1  0
 75 84  2  0
 75 80  1  0
 76 72  1  0
 76 80  1  0
 77 76  1  0
 78 79  1  0
 78 77  1  0
 79 75  1  0
 80 81  2  0
 81 82  1  0
 83 82  2  0
 84 83  1  0
 85 59  1  0
 85 86  1  0
 85 95  1  0
 86 89  1  0
 87 91  1  0
 87 86  1  0
 88 87  2  0
 91 90  1  0
 93 94  1  0
 93 91  1  0
 93 92  1  0
 95 98  1  1
 95 96  1  0
 97 95  1  0
M  ISO  4  17 100  25 100  57 101  58 101
M  END
>  <TORSDO>  (79) 
F 23

>  <SCORE>  (79) 
-10.094

>  <name>  (79) 
79

>  <ligand_id>  (79) 
79

>  <original_smiles>  (79) 
[H]c1nc(OC([H])([H])C([H])([H])Oc2c([H])c([H])c3c(c2[H])C([H])([H])N(C(=O)C([H])(N([H])C(=O)C([H])(N([H])C([H])([H])[H])C([H])([H])[H])C(C([H])([H])[H])(C([H])([H])[H])C([H])([H])[H])C([H])(C(=O)N([H])C2([H])c4c([H])c([H])c([H])c([H])c4C([H])([H])C([H])([H])C2([H])[H])C3([H])[H])c([H])c(C2([H])C([H])([H])C([H])([H])C([H])([H])[N+]2([H])[H])c1OC([H])([H])C([H])([H])N([H])C(=O)N1C([H])([H])C([H])([H])C([H])([H])C([H])(n2nc(-c3c([H])c([H])c(Oc4c([H])c([H])c(F)c([H])c4F)c([H])c3[H])c(C(=O)N([H])[H])c2N([H])[H])C1([H])[H]

>  <smiles>  (79) 
[H]c1nc(OC([H])([H])C([H])([H])Oc2c([H])c([H])c3c(c2[H])C([H])([H])N(C(=O)C([H])(N([H])C(=O)C([H])(N([H])C([H])([H])[H])C([H])([H])[H])C(C([H])([H])[H])(C([H])([H])[H])C([H])([H])[H])C([H])(C(=O)N([H])C2([H])c4c([H])c([H])c([H])c([H])c4C([H])([H])C([H])([H])C2([H])[H])C3([H])[H])c([H])c(C2([H])C([H])([H])C([H])([H])C([H])([H])[N+]2([H])[H])c1OC([H])([H])C([H])([H])N([H])C(=O)N1C([H])([H])C([H])([H])C([H])([H])C([H])(n2nc(-c3c([H])c([H])c(Oc4c([H])c([H])c(F)c([H])c4F)c([H])c3[H])c(C(=O)N([H])[H])c2N([H])[H])C1([H])[H]

$$$$
80:0:0
     RDKit          3D

 98107  0  0  1  0  0  0  0  0999 V2000
  -27.6000  -22.3190   19.2570 C   0  0  0  0  0  3  0  0  0  0  0  0
  -28.5880  -22.7730   20.1510 C   0  0  0  0  0  0  0  0  0  0  0  0
  -29.5020  -21.7910   20.6630 C   0  0  0  0  0  0  0  0  0  0  0  0
  -27.5550  -20.9650   18.8840 C   0  0  0  0  0  0  0  0  0  0  0  0
  -29.3580  -20.4280   20.2600 C   0  0  0  0  0  0  0  0  0  0  0  0
  -28.4130  -20.0520   19.3820 N   0  0  0  0  0  0  0  0  0  0  0  0
  -26.3280  -21.2070   16.5920 C   0  0  0  0  0  2  0  0  0  0  0  0
  -25.2220  -21.0260   17.6090 C   0  0  0  0  0  2  0  0  0  0  0  0
  -26.5890  -20.4340   17.8630 C   0  0  0  0  0  3  0  0  0  0  0  0
  -30.1980  -19.3910   20.7280 N   0  0  0  0  0  0  0  0  0  0  0  0
  -30.8580  -19.6120   21.4630 H   0  0  0  0  0  0  0  0  0  0  0  0
  -29.8480  -17.9650   20.5520 C   0  0  0  0  0  2  0  0  0  0  0  0
  -31.1120  -17.2090   22.6710 C   0  0  0  0  0  1  0  0  0  0  0  0
  -30.8670  -16.9540   21.1740 C   0  0  0  0  0  3  0  0  0  0  0  0
  -31.1150  -14.5070   20.5020 C   0  0  0  0  0  0  0  0  0  0  0  0
  -30.8310  -12.2760   19.4660 C   0  0  0  0  0  2  0  0  0  0  0  0
  -29.9150  -12.4130   18.2320 C   0  0  0  0  0  2  0  0  0  0  0  0
  -28.4300  -12.3080   18.6370 C   0  0  0  0  0  2  0  0  0  0  0  0
  -28.0740  -13.2110   19.8480 C   0  0  0  0  0  3  0  0  0  0  0  0
  -29.1070  -13.0500   20.9860 C   0  0  0  0  0  2  0  0  0  0  0  0
  -30.4410  -13.3230   20.4250 N   0  0  0  0  0  0  0  0  0  0  0  0
  -32.2470  -14.6520   20.0320 O   0  0  0  0  0  0  0  0  0  0  0  0
  -30.4230  -15.5500   21.0120 N   0  0  0  0  0  0  0  0  0  0  0  0
  -29.4950  -15.3320   21.3440 H   0  0  0  0  0  0  0  0  0  0  0  0
  -25.7050  -13.8870   20.5920 C   0  0  0  0  0  0  0  0  0  0  0  0
  -24.6040  -13.1460   20.9250 C   0  0  0  0  0  0  0  0  0  0  0  0
  -25.0010  -11.7780   20.8230 C   0  0  0  0  0  0  0  0  0  0  0  0
  -26.7100  -12.9720   20.3150 N   0  0  0  0  0  0  0  0  0  0  0  0
  -26.2880  -11.6960   20.5100 N   0  0  0  0  0  0  0  0  0  0  0  0
  -24.2170  -10.5420   20.9500 C   0  0  0  0  0  0  0  0  0  0  0  0
  -24.6050   -9.5090   21.8310 C   0  0  0  0  0  3  0  0  0  0  0  0
  -23.8240   -8.3390   21.9500 C   0  0  0  0  0  3  0  0  0  0  0  0
  -22.6410   -8.1960   21.1860 C   0  0  0  0  0  0  0  0  0  0  0  0
  -22.2730   -9.2170   20.2930 C   0  0  0  0  0  3  0  0  0  0  0  0
  -23.0540  -10.3790   20.1720 C   0  0  0  0  0  3  0  0  0  0  0  0
  -21.8340   -7.0840   21.2160 O   0  0  0  0  0  0  0  0  0  0  0  0
  -21.7390   -6.2940   22.3340 C   0  0  0  0  0  0  0  0  0  0  0  0
  -21.3300   -6.8130   23.5810 C   0  0  0  0  0  3  0  0  0  0  0  0
  -21.1790   -5.9520   24.6870 C   0  0  0  0  0  3  0  0  0  0  0  0
  -21.4250   -4.5740   24.5460 C   0  0  0  0  0  0  0  0  0  0  0  0
  -21.8270   -4.0550   23.3030 C   0  0  0  0  0  3  0  0  0  0  0  0
  -21.9800   -4.9110   22.1990 C   0  0  0  0  0  0  0  0  0  0  0  0
  -22.3470   -4.4020   20.9980 F   0  0  0  0  0  0  0  0  0  0  0  0
  -21.2730   -3.7460   25.6050 F   0  0  0  0  0  0  0  0  0  0  0  0
  -23.2290  -13.6740   21.2240 C   0  0  0  0  0  0  0  0  0  0  0  0
  -22.4800  -12.9830   22.0760 N   0  0  0  0  0  0  0  0  0  0  0  0
  -22.8320  -14.7320   20.7410 O   0  0  0  0  0  0  0  0  0  0  0  0
  -22.8140  -12.1260   22.4910 H   0  0  0  0  0  0  0  0  0  0  0  0
  -21.5570  -13.3170   22.3180 H   0  0  0  0  0  0  0  0  0  0  0  0
  -25.9300  -15.2560   20.4830 N   0  0  0  0  0  0  0  0  0  0  0  0
  -25.1890  -15.9350   20.6180 H   0  0  0  0  0  0  0  0  0  0  0  0
  -26.7930  -15.6730   20.1570 H   0  0  0  0  0  0  0  0  0  0  0  0
  -28.5760  -24.2710   20.5540 C   0  0  0  0  0  2  0  0  0  0  0  0
  -28.6920  -25.2940   19.3840 C   0  0  0  0  0  2  0  0  0  0  0  0
  -28.5930  -26.6860   19.7780 O   0  0  0  0  0  0  0  0  0  0  0  0
  -24.6340  -31.6690   23.0100 C   0  0  0  0  0  0  0  0  0  0  0  0
  -27.3780  -27.3590   19.7880 C   0  0  0  0  0  0  0  0  0  0  0  0
  -23.4570  -30.2760   21.3420 C   0  0  0  0  0  3  0  0  0  0  0  0
  -24.9380  -28.8190   19.8650 C   0  0  0  0  0  0  0  0  0  0  0  0
  -25.9750  -30.7010   21.1430 C   0  0  0  0  0  2  0  0  0  0  0  0
  -26.0890  -29.3540   20.4550 C   0  0  0  0  0  0  0  0  0  0  0  0
  -27.3090  -28.6350   20.4060 C   0  0  0  0  0  3  0  0  0  0  0  0
  -26.1970  -26.8390   19.2070 C   0  0  0  0  0  3  0  0  0  0  0  0
  -24.9900  -27.5630   19.2390 C   0  0  0  0  0  3  0  0  0  0  0  0
  -23.6730  -29.6430   19.9440 C   0  0  0  0  0  2  0  0  0  0  0  0
  -24.7060  -30.8990   21.8870 N   0  0  0  0  0  0  0  0  0  0  0  0
  -23.5500  -31.8960   23.5650 O   0  0  0  0  0  0  0  0  0  0  0  0
  -22.8430  -29.2130   22.2810 C   0  0  0  0  0  0  0  0  0  0  0  0
  -21.5200  -29.0110   22.1710 N   0  0  0  0  0  0  0  0  0  0  0  0
  -23.5540  -28.5740   23.0610 O   0  0  0  0  0  0  0  0  0  0  0  0
  -21.0070  -29.5740   21.5070 H   0  0  0  0  0  0  0  0  0  0  0  0
  -18.1770  -27.7400   22.6890 C   0  0  0  0  0  0  0  0  0  0  0  0
  -20.7350  -28.0340   22.9250 C   0  0  0  0  0  3  0  0  0  0  0  0
  -20.8520  -26.6250   22.2980 C   0  0  0  0  0  2  0  0  0  0  0  0
  -19.7370  -26.3170   21.2950 C   0  0  0  0  0  2  0  0  0  0  0  0
  -18.3650  -26.4180   21.9650 C   0  0  0  0  0  2  0  0  0  0  0  0
  -19.2890  -28.5070   23.1250 C   0  0  0  0  0  0  0  0  0  0  0  0
  -19.0580  -29.7480   23.7590 C   0  0  0  0  0  3  0  0  0  0  0  0
  -17.7470  -30.2170   23.9660 C   0  0  0  0  0  3  0  0  0  0  0  0
  -16.6500  -29.4450   23.5470 C   0  0  0  0  0  3  0  0  0  0  0  0
  -16.8660  -28.2090   22.9110 C   0  0  0  0  0  3  0  0  0  0  0  0
  -25.9050  -32.3200   23.6400 C   0  0  0  0  0  3  0  0  0  0  0  0
  -25.5500  -33.6900   24.0350 N   0  0  0  0  0  0  0  0  0  0  0  0
  -25.8300  -34.7860   23.3180 C   0  0  0  0  0  0  0  0  0  0  0  0
  -26.4870  -34.7540   22.2740 O   0  0  0  0  0  0  0  0  0  0  0  0
  -24.9630  -33.7890   24.8490 H   0  0  0  0  0  0  0  0  0  0  0  0
  -24.0240  -36.5200   23.0720 C   0  0  0  0  0  1  0  0  0  0  0  0
  -25.2970  -36.1320   23.8430 C   0  0  0  0  0  3  0  0  0  0  0  0
  -27.4100  -37.0690   24.6730 C   0  0  0  0  0  1  0  0  0  0  0  0
  -26.2840  -37.2300   23.7560 N   0  0  0  0  0  0  0  0  0  0  0  0
  -25.8430  -38.1260   23.9480 H   0  0  0  0  0  0  0  0  0  0  0  0
  -26.4700  -31.5160   24.8750 C   0  0  1  0  0  0  0  0  0  0  0  0
  -25.4060  -31.2070   25.9530 C   0  0  0  0  0  1  0  0  0  0  0  0
  -27.0870  -30.1730   24.4220 C   0  0  0  0  0  1  0  0  0  0  0  0
  -27.6110  -32.3180   25.5460 C   0  0  0  0  0  1  0  0  0  0  0  0
  -30.6110  -22.2050   21.6300 C   0  0  0  0  0  2  0  0  0  0  0  0
  -30.7470  -21.3770   24.0570 C   0  0  0  0  0  1  0  0  0  0  0  0
  -30.1120  -22.3700   23.0780 C   0  0  0  0  0  2  0  0  0  0  0  0
  1  2  1  0
  2 53  1  0
  2  3  2  0
  3 96  1  0
  4  1  2  0
  4  6  1  0
  5  3  1  0
  5 10  1  0
  6  5  2  0
  7  8  1  0
  7  9  1  0
  8  9  1  0
  9  4  1  0
 10 11  1  0
 12 10  1  0
 12 14  1  0
 14 13  1  0
 15 23  1  0
 16 21  1  0
 17 18  1  0
 17 16  1  0
 19 18  1  0
 19 28  1  0
 19 20  1  0
 21 15  1  0
 21 20  1  0
 22 15  2  0
 23 14  1  0
 23 24  1  0
 25 26  2  0
 26 45  1  0
 27 26  1  0
 27 30  1  0
 28 29  1  0
 28 25  1  0
 29 27  2  0
 30 31  1  0
 31 32  2  0
 33 36  1  0
 33 32  1  0
 34 33  2  0
 35 34  1  0
 35 30  2  0
 36 37  1  0
 37 38  1  0
 38 39  2  0
 40 39  1  0
 40 44  1  0
 41 40  2  0
 42 37  2  0
 42 41  1  0
 43 42  1  0
 45 46  1  0
 46 49  1  0
 46 48  1  0
 47 45  2  0
 50 25  1  0
 50 51  1  0
 52 50  1  0
 54 55  1  0
 54 53  1  0
 55 57  1  0
 56 67  2  0
 57 62  1  0
 58 66  1  0
 58 68  1  0
 59 65  1  0
 59 61  1  0
 60 66  1  0
 61 60  1  0
 62 61  2  0
 63 64  1  0
 63 57  2  0
 64 59  2  0
 65 58  1  0
 66 56  1  0
 68 70  2  0
 69 68  1  0
 71 69  1  0
 72 81  2  0
 72 77  1  0
 73 69  1  0
 73 77  1  0
 74 73  1  0
 75 76  1  0
 75 74  1  0
 76 72  1  0
 77 78  2  0
 78 79  1  0
 80 79  2  0
 81 80  1  0
 82 56  1  0
 82 83  1  0
 82 92  1  0
 83 86  1  0
 84 88  1  0
 84 83  1  0
 85 84  2  0
 88 87  1  0
 90 88  1  0
 90 91  1  0
 90 89  1  0
 92 95  1  1
 92 93  1  0
 94 92  1  0
 96 98  1  0
 98 97  1  0
M  ISO  4  15 100  23 100  54 101  55 101
M  END
>  <TORSDO>  (80) 
F 24

>  <SCORE>  (80) 
-11.521

>  <name>  (80) 
80

>  <ligand_id>  (80) 
80

>  <original_smiles>  (80) 
[H]c1c([H])c([H])c2c(c1[H])C([H])([H])C([H])([H])C([H])([H])C2([H])N([H])C(=O)C1([H])N(C(=O)C([H])(N([H])C(=O)C([H])(N([H])C([H])([H])[H])C([H])([H])[H])C(C([H])([H])[H])(C([H])([H])[H])C([H])([H])[H])C([H])([H])c2c([H])c(OC([H])([H])C([H])([H])c3c([H])c(C4([H])C([H])([H])C4([H])[H])nc(N([H])C([H])([H])C([H])(N([H])C(=O)N4C([H])([H])C([H])([H])C([H])([H])C([H])(n5nc(-c6c([H])c([H])c(Oc7c([H])c([H])c(F)c([H])c7F)c([H])c6[H])c(C(=O)N([H])[H])c5N([H])[H])C4([H])[H])C([H])([H])[H])c3C([H])([H])C([H])([H])C([H])([H])[H])c([H])c([H])c2C1([H])[H]

>  <smiles>  (80) 
[H]c1c([H])c([H])c2c(c1[H])C([H])([H])C([H])([H])C([H])([H])C2([H])N([H])C(=O)C1([H])N(C(=O)C([H])(N([H])C(=O)C([H])(N([H])C([H])([H])[H])C([H])([H])[H])C(C([H])([H])[H])(C([H])([H])[H])C([H])([H])[H])C([H])([H])c2c([H])c(OC([H])([H])C([H])([H])c3c([H])c(C4([H])C([H])([H])C4([H])[H])nc(N([H])C([H])([H])C([H])(N([H])C(=O)N4C([H])([H])C([H])([H])C([H])([H])C([H])(n5nc(-c6c([H])c([H])c(Oc7c([H])c([H])c(F)c([H])c7F)c([H])c6[H])c(C(=O)N([H])[H])c5N([H])[H])C4([H])[H])C([H])([H])[H])c3C([H])([H])C([H])([H])C([H])([H])[H])c([H])c([H])c2C1([H])[H]

$$$$
81:0:0
     RDKit          3D

 93102  0  0  1  0  0  0  0  0999 V2000
  -28.0640  -21.4240   20.6450 C   0  0  0  0  0  3  0  0  0  0  0  0
  -30.4640  -21.2640   20.5550 C   0  0  0  0  0  3  0  0  0  0  0  0
  -29.4060  -23.4650   21.0380 C   0  0  0  0  0  0  0  0  0  0  0  0
  -28.1470  -22.8120   20.9430 C   0  0  0  0  0  0  0  0  0  0  0  0
  -30.5630  -22.6580   20.8180 C   0  0  0  0  0  0  0  0  0  0  0  0
  -29.2130  -20.6180   20.4830 C   0  0  0  0  0  0  0  0  0  0  0  0
  -26.8590  -23.5750   21.1870 C   0  0  0  0  0  1  0  0  0  0  0  0
  -31.9560  -23.2670   20.8900 C   0  0  0  0  0  1  0  0  0  0  0  0
  -30.3980  -25.9360   20.8200 C   0  0  0  0  0  2  0  0  0  0  0  0
  -29.5710  -24.9090   21.5580 C   0  0  0  0  0  3  0  0  0  0  0  0
  -28.9660  -26.2840   21.1510 C   0  0  0  0  0  3  0  0  0  0  0  0
  -28.3200  -26.5940   19.9080 O   0  0  0  0  0  0  0  0  0  0  0  0
  -24.6490  -31.8480   23.1830 C   0  0  0  0  0  0  0  0  0  0  0  0
  -27.2140  -27.4240   19.9810 C   0  0  0  0  0  0  0  0  0  0  0  0
  -23.4090  -30.4810   21.5400 C   0  0  0  0  0  3  0  0  0  0  0  0
  -24.8330  -28.9640   20.0570 C   0  0  0  0  0  0  0  0  0  0  0  0
  -25.9330  -30.8250   21.3040 C   0  0  0  0  0  2  0  0  0  0  0  0
  -26.0040  -29.4620   20.6420 C   0  0  0  0  0  0  0  0  0  0  0  0
  -27.1990  -28.6980   20.6110 C   0  0  0  0  0  3  0  0  0  0  0  0
  -26.0330  -26.9630   19.3650 C   0  0  0  0  0  3  0  0  0  0  0  0
  -24.8430  -27.7140   19.4150 C   0  0  0  0  0  3  0  0  0  0  0  0
  -23.5920  -29.8260   20.1440 C   0  0  0  0  0  2  0  0  0  0  0  0
  -24.6830  -31.0670   22.0670 N   0  0  0  0  0  0  0  0  0  0  0  0
  -23.5780  -32.1150   23.7470 O   0  0  0  0  0  0  0  0  0  0  0  0
  -22.7710  -29.4450   22.4950 C   0  0  0  0  0  0  0  0  0  0  0  0
  -21.4440  -29.2650   22.3830 N   0  0  0  0  0  0  0  0  0  0  0  0
  -23.4650  -28.8070   23.2890 O   0  0  0  0  0  0  0  0  0  0  0  0
  -20.9460  -29.8310   21.7120 H   0  0  0  0  0  0  0  0  0  0  0  0
  -18.0790  -28.0460   22.8950 C   0  0  0  0  0  0  0  0  0  0  0  0
  -20.6380  -28.3150   23.1500 C   0  0  0  0  0  3  0  0  0  0  0  0
  -20.7420  -26.8910   22.5550 C   0  0  0  0  0  2  0  0  0  0  0  0
  -19.6330  -26.5740   21.5460 C   0  0  0  0  0  2  0  0  0  0  0  0
  -18.2560  -26.7060   22.2030 C   0  0  0  0  0  2  0  0  0  0  0  0
  -19.1980  -28.8080   23.3250 C   0  0  0  0  0  0  0  0  0  0  0  0
  -18.9780  -30.0640   23.9330 C   0  0  0  0  0  3  0  0  0  0  0  0
  -17.6740  -30.5580   24.1130 C   0  0  0  0  0  3  0  0  0  0  0  0
  -16.5690  -29.7940   23.6990 C   0  0  0  0  0  3  0  0  0  0  0  0
  -16.7730  -28.5390   23.0970 C   0  0  0  0  0  3  0  0  0  0  0  0
  -25.9480  -32.4630   23.7900 C   0  0  0  0  0  3  0  0  0  0  0  0
  -26.4940  -31.6580   25.0330 C   0  0  1  0  0  0  0  0  0  0  0  0
  -25.4250  -31.3910   26.1170 C   0  0  0  0  0  1  0  0  0  0  0  0
  -27.0690  -30.2930   24.5890 C   0  0  0  0  0  1  0  0  0  0  0  0
  -27.6590  -32.4360   25.6900 C   0  0  0  0  0  1  0  0  0  0  0  0
  -25.6460  -33.8510   24.1640 N   0  0  0  0  0  0  0  0  0  0  0  0
  -25.9520  -34.9220   23.4180 C   0  0  0  0  0  0  0  0  0  0  0  0
  -26.5890  -34.8450   22.3640 O   0  0  0  0  0  0  0  0  0  0  0  0
  -25.0710  -33.9860   24.9810 H   0  0  0  0  0  0  0  0  0  0  0  0
  -24.2060  -36.7140   23.1610 C   0  0  0  0  0  1  0  0  0  0  0  0
  -25.4750  -36.2980   23.9220 C   0  0  0  0  0  3  0  0  0  0  0  0
  -27.6310  -37.1720   24.7040 C   0  0  0  0  0  1  0  0  0  0  0  0
  -26.5010  -37.3560   23.8000 N   0  0  0  0  0  0  0  0  0  0  0  0
  -26.0960  -38.2720   23.9780 H   0  0  0  0  0  0  0  0  0  0  0  0
  -29.0600  -19.2680   20.1710 O   0  0  0  0  0  0  0  0  0  0  0  0
  -29.7800  -18.2490   20.9070 C   0  0  0  0  0  2  0  0  0  0  0  0
  -30.1920  -17.0490   19.9860 C   0  0  0  0  0  2  0  0  0  0  0  0
  -30.6570  -14.5790   20.0900 C   0  0  0  0  0  0  0  0  0  0  0  0
  -30.3030  -12.4010   18.9840 C   0  0  0  0  0  2  0  0  0  0  0  0
  -29.3100  -12.6030   17.8200 C   0  0  0  0  0  2  0  0  0  0  0  0
  -27.8570  -12.4670   18.3150 C   0  0  0  0  0  2  0  0  0  0  0  0
  -27.5780  -13.2980   19.5980 C   0  0  0  0  0  3  0  0  0  0  0  0
  -28.6870  -13.0990   20.6580 C   0  0  0  0  0  2  0  0  0  0  0  0
  -29.9800  -13.3970   20.0240 N   0  0  0  0  0  0  0  0  0  0  0  0
  -31.7790  -14.7220   19.6010 O   0  0  0  0  0  0  0  0  0  0  0  0
  -29.9500  -15.6660   20.4900 N   0  0  0  0  0  0  0  0  0  0  0  0
  -29.0480  -15.4800   20.9030 H   0  0  0  0  0  0  0  0  0  0  0  0
  -25.2160  -13.9000   20.4140 C   0  0  0  0  0  0  0  0  0  0  0  0
  -24.1650  -13.1270   20.8270 C   0  0  0  0  0  0  0  0  0  0  0  0
  -24.6230  -11.7750   20.7730 C   0  0  0  0  0  0  0  0  0  0  0  0
  -26.2500  -13.0190   20.1360 N   0  0  0  0  0  0  0  0  0  0  0  0
  -25.8990  -11.7360   20.4100 N   0  0  0  0  0  0  0  0  0  0  0  0
  -23.9020  -10.5130   20.9920 C   0  0  0  0  0  0  0  0  0  0  0  0
  -24.3660   -9.5490   21.9130 C   0  0  0  0  0  3  0  0  0  0  0  0
  -23.6460   -8.3520   22.1200 C   0  0  0  0  0  3  0  0  0  0  0  0
  -22.4490   -8.1120   21.4050 C   0  0  0  0  0  0  0  0  0  0  0  0
  -22.0030   -9.0650   20.4720 C   0  0  0  0  0  3  0  0  0  0  0  0
  -22.7240  -10.2530   20.2640 C   0  0  0  0  0  3  0  0  0  0  0  0
  -21.6980   -6.9670   21.5220 O   0  0  0  0  0  0  0  0  0  0  0  0
  -21.6780   -6.2330   22.6800 C   0  0  0  0  0  0  0  0  0  0  0  0
  -21.2660   -6.7910   23.9090 C   0  0  0  0  0  3  0  0  0  0  0  0
  -21.1970   -5.9840   25.0620 C   0  0  0  0  0  3  0  0  0  0  0  0
  -21.5290   -4.6180   24.9860 C   0  0  0  0  0  0  0  0  0  0  0  0
  -21.9350   -4.0580   23.7620 C   0  0  0  0  0  3  0  0  0  0  0  0
  -22.0060   -4.8640   22.6120 C   0  0  0  0  0  0  0  0  0  0  0  0
  -22.3770   -4.3150   21.4300 F   0  0  0  0  0  0  0  0  0  0  0  0
  -21.4540   -3.8390   26.0910 F   0  0  0  0  0  0  0  0  0  0  0  0
  -22.7820  -13.6050   21.1610 C   0  0  0  0  0  0  0  0  0  0  0  0
  -22.0910  -12.9060   22.0550 N   0  0  0  0  0  0  0  0  0  0  0  0
  -22.3230  -14.6330   20.6650 O   0  0  0  0  0  0  0  0  0  0  0  0
  -22.4770  -12.0720   22.4740 H   0  0  0  0  0  0  0  0  0  0  0  0
  -21.1640  -13.2060   22.3230 H   0  0  0  0  0  0  0  0  0  0  0  0
  -25.3720  -15.2720   20.2320 N   0  0  0  0  0  0  0  0  0  0  0  0
  -24.6070  -15.9220   20.3690 H   0  0  0  0  0  0  0  0  0  0  0  0
  -26.2010  -15.7120   19.8520 H   0  0  0  0  0  0  0  0  0  0  0  0
  1  4  1  0
  2  5  2  0
  4  3  2  0
  4  7  1  0
  5  8  1  0
  5  3  1  0
  6  2  1  0
  6  1  2  0
  9 11  1  0
  9 10  1  0
 10  3  1  0
 11 12  1  0
 11 10  1  0
 12 14  1  0
 13 24  2  0
 14 19  1  0
 15 23  1  0
 15 25  1  0
 16 22  1  0
 16 18  1  0
 17 23  1  0
 18 17  1  0
 19 18  2  0
 20 21  1  0
 20 14  2  0
 21 16  2  0
 22 15  1  0
 23 13  1  0
 25 27  2  0
 26 25  1  0
 28 26  1  0
 29 38  2  0
 29 34  1  0
 30 26  1  0
 30 34  1  0
 31 30  1  0
 32 33  1  0
 32 31  1  0
 33 29  1  0
 34 35  2  0
 35 36  1  0
 37 36  2  0
 38 37  1  0
 39 13  1  0
 39 44  1  0
 39 40  1  0
 40 43  1  1
 40 41  1  0
 42 40  1  0
 44 47  1  0
 45 49  1  0
 45 44  1  0
 46 45  2  0
 49 48  1  0
 51 49  1  0
 51 52  1  0
 51 50  1  0
 53  6  1  0
 53 54  1  0
 55 64  1  0
 55 54  1  0
 56 64  1  0
 57 62  1  0
 58 59  1  0
 58 57  1  0
 60 59  1  0
 60 69  1  0
 60 61  1  0
 62 56  1  0
 62 61  1  0
 63 56  2  0
 64 65  1  0
 66 67  2  0
 67 86  1  0
 68 67  1  0
 68 71  1  0
 69 70  1  0
 69 66  1  0
 70 68  2  0
 71 72  1  0
 72 73  2  0
 74 77  1  0
 74 73  1  0
 75 74  2  0
 76 75  1  0
 76 71  2  0
 77 78  1  0
 78 79  1  0
 79 80  2  0
 81 80  1  0
 81 85  1  0
 82 81  2  0
 83 78  2  0
 83 82  1  0
 84 83  1  0
 86 87  1  0
 87 90  1  0
 87 89  1  0
 88 86  2  0
 91 92  1  0
 91 66  1  0
 93 91  1  0
M  ISO  4  11 101  12 101  56 100  64 100
M  END
>  <TORSDO>  (81) 
F 20

>  <SCORE>  (81) 
-13.697

>  <name>  (81) 
81

>  <ligand_id>  (81) 
81

>  <original_smiles>  (81) 
[H]c1c([H])c([H])c2c(c1[H])C([H])([H])C([H])([H])C([H])([H])C2([H])N([H])C(=O)C1([H])N(C(=O)C([H])(N([H])C(=O)C([H])(N([H])C([H])([H])[H])C([H])([H])[H])C(C([H])([H])[H])(C([H])([H])[H])C([H])([H])[H])C([H])([H])c2c([H])c(OC3([H])C([H])([H])C3([H])c3c(C([H])([H])[H])c([H])c(OC([H])([H])C([H])([H])N([H])C(=O)N4C([H])([H])C([H])([H])C([H])([H])C([H])(n5nc(-c6c([H])c([H])c(Oc7c([H])c([H])c(F)c([H])c7F)c([H])c6[H])c(C(=O)N([H])[H])c5N([H])[H])C4([H])[H])c([H])c3C([H])([H])[H])c([H])c([H])c2C1([H])[H]

>  <smiles>  (81) 
[H]c1c([H])c([H])c2c(c1[H])C([H])([H])C([H])([H])C([H])([H])C2([H])N([H])C(=O)C1([H])N(C(=O)C([H])(N([H])C(=O)C([H])(N([H])C([H])([H])[H])C([H])([H])[H])C(C([H])([H])[H])(C([H])([H])[H])C([H])([H])[H])C([H])([H])c2c([H])c(OC3([H])C([H])([H])C3([H])c3c(C([H])([H])[H])c([H])c(OC([H])([H])C([H])([H])N([H])C(=O)N4C([H])([H])C([H])([H])C([H])([H])C([H])(n5nc(-c6c([H])c([H])c(Oc7c([H])c([H])c(F)c([H])c7F)c([H])c6[H])c(C(=O)N([H])[H])c5N([H])[H])C4([H])[H])c([H])c3C([H])([H])[H])c([H])c([H])c2C1([H])[H]

$$$$
82:0:0
     RDKit          3D

 94103  0  0  1  0  0  0  0  0999 V2000
  -28.3720  -23.9550   17.3690 C   0  0  0  0  0  3  0  0  0  0  0  0
  -28.2250  -25.0990   18.1660 C   0  0  0  0  0  3  0  0  0  0  0  0
  -28.7340  -23.7530   20.1510 C   0  0  0  0  0  3  0  0  0  0  0  0
  -28.7150  -22.7260   17.9580 C   0  0  0  0  0  0  0  0  0  0  0  0
  -28.8910  -22.5410   19.3370 C   0  0  0  0  0  0  0  0  0  0  0  0
  -28.3840  -25.0640   19.5680 C   0  0  0  0  0  0  0  0  0  0  0  0
  -29.0510  -21.5190   17.1340 C   0  0  0  0  0  2  0  0  0  0  0  0
  -29.2120  -20.3980   18.1590 C   0  0  0  0  0  2  0  0  0  0  0  0
  -29.4490  -21.0300   19.5550 C   0  0  0  0  0  3  0  0  0  0  0  0
  -29.0270  -20.0260   20.6420 N   0  0  0  0  0  4  0  0  0  0  0  0
  -28.0860  -20.3080   20.8650 H   0  0  0  0  0  0  0  0  0  0  0  0
  -29.5610  -20.2150   21.4730 H   0  0  0  0  0  0  0  0  0  0  0  0
  -28.9110  -18.4780   20.4380 C   0  0  0  0  0  2  0  0  0  0  0  0
  -30.7980  -17.6840   22.0380 C   0  0  0  0  0  1  0  0  0  0  0  0
  -30.1240  -17.4090   20.6820 C   0  0  0  0  0  3  0  0  0  0  0  0
  -30.5680  -14.7740   20.3800 C   0  0  0  0  0  0  0  0  0  0  0  0
  -30.3910  -12.4850   19.3700 C   0  0  0  0  0  2  0  0  0  0  0  0
  -29.4520  -12.5380   18.1440 C   0  0  0  0  0  2  0  0  0  0  0  0
  -27.9820  -12.3600   18.5730 C   0  0  0  0  0  2  0  0  0  0  0  0
  -27.6040  -13.2550   19.7830 C   0  0  0  0  0  3  0  0  0  0  0  0
  -28.6600  -13.1770   20.9070 C   0  0  0  0  0  2  0  0  0  0  0  0
  -29.9520  -13.5420   20.3120 N   0  0  0  0  0  0  0  0  0  0  0  0
  -31.7560  -14.8800   20.0620 O   0  0  0  0  0  0  0  0  0  0  0  0
  -29.7820  -15.9020   20.6180 N   0  0  0  0  0  0  0  0  0  0  0  0
  -28.8140  -15.6800   20.7980 H   0  0  0  0  0  0  0  0  0  0  0  0
  -25.2180  -13.8550   20.5040 C   0  0  0  0  0  0  0  0  0  0  0  0
  -24.1510  -13.0840   20.8780 C   0  0  0  0  0  0  0  0  0  0  0  0
  -24.6130  -11.7330   20.8580 C   0  0  0  0  0  0  0  0  0  0  0  0
  -26.2600  -12.9710   20.2750 N   0  0  0  0  0  0  0  0  0  0  0  0
  -25.9030  -11.6910   20.5500 N   0  0  0  0  0  0  0  0  0  0  0  0
  -23.8850  -10.4730   21.0530 C   0  0  0  0  0  0  0  0  0  0  0  0
  -24.3240   -9.5020   21.9790 C   0  0  0  0  0  3  0  0  0  0  0  0
  -23.5960   -8.3060   22.1630 C   0  0  0  0  0  3  0  0  0  0  0  0
  -22.4130   -8.0750   21.4200 C   0  0  0  0  0  0  0  0  0  0  0  0
  -21.9940   -9.0340   20.4830 C   0  0  0  0  0  3  0  0  0  0  0  0
  -22.7220  -10.2210   20.2980 C   0  0  0  0  0  3  0  0  0  0  0  0
  -21.6560   -6.9310   21.5130 O   0  0  0  0  0  0  0  0  0  0  0  0
  -21.6300   -6.1770   22.6580 C   0  0  0  0  0  0  0  0  0  0  0  0
  -21.2460   -6.7220   23.9020 C   0  0  0  0  0  3  0  0  0  0  0  0
  -21.1660   -5.8940   25.0400 C   0  0  0  0  0  3  0  0  0  0  0  0
  -21.4610   -4.5220   24.9350 C   0  0  0  0  0  0  0  0  0  0  0  0
  -21.8380   -3.9750   23.6950 C   0  0  0  0  0  3  0  0  0  0  0  0
  -21.9190   -4.8010   22.5600 C   0  0  0  0  0  0  0  0  0  0  0  0
  -22.2620   -4.2640   21.3640 F   0  0  0  0  0  0  0  0  0  0  0  0
  -21.3770   -3.7240   26.0250 F   0  0  0  0  0  0  0  0  0  0  0  0
  -22.7540  -13.5650   21.1420 C   0  0  0  0  0  0  0  0  0  0  0  0
  -22.0230  -12.8770   22.0120 N   0  0  0  0  0  0  0  0  0  0  0  0
  -22.3200  -14.5880   20.6120 O   0  0  0  0  0  0  0  0  0  0  0  0
  -22.3870  -12.0530   22.4640 H   0  0  0  0  0  0  0  0  0  0  0  0
  -21.0840  -13.1810   22.2290 H   0  0  0  0  0  0  0  0  0  0  0  0
  -25.3850  -15.2240   20.3140 N   0  0  0  0  0  0  0  0  0  0  0  0
  -24.6090  -15.8700   20.3960 H   0  0  0  0  0  0  0  0  0  0  0  0
  -26.2070  -15.6470   19.9030 H   0  0  0  0  0  0  0  0  0  0  0  0
  -28.3060  -26.3380   20.2270 O   0  0  0  0  0  0  0  0  0  0  0  0
  -24.6200  -31.8560   23.2120 C   0  0  0  0  0  0  0  0  0  0  0  0
  -27.2060  -27.2380   20.1470 C   0  0  0  0  0  0  0  0  0  0  0  0
  -23.4090  -30.4590   21.5780 C   0  0  0  0  0  3  0  0  0  0  0  0
  -24.8510  -28.9000   20.1450 C   0  0  0  0  0  0  0  0  0  0  0  0
  -25.9530  -30.7580   21.3880 C   0  0  0  0  0  2  0  0  0  0  0  0
  -26.0280  -29.3750   20.7370 C   0  0  0  0  0  0  0  0  0  0  0  0
  -27.2050  -28.5550   20.7250 C   0  0  0  0  0  3  0  0  0  0  0  0
  -25.9910  -26.8260   19.5500 C   0  0  0  0  0  3  0  0  0  0  0  0
  -24.8380  -27.6350   19.5410 C   0  0  0  0  0  3  0  0  0  0  0  0
  -23.6180  -29.7840   20.1960 C   0  0  0  0  0  2  0  0  0  0  0  0
  -24.6800  -31.0440   22.1150 N   0  0  0  0  0  0  0  0  0  0  0  0
  -23.5370  -32.1350   23.7500 O   0  0  0  0  0  0  0  0  0  0  0  0
  -22.7450  -29.4460   22.5420 C   0  0  0  0  0  0  0  0  0  0  0  0
  -21.4160  -29.2740   22.4230 N   0  0  0  0  0  0  0  0  0  0  0  0
  -23.4240  -28.8180   23.3580 O   0  0  0  0  0  0  0  0  0  0  0  0
  -20.9270  -29.8320   21.7370 H   0  0  0  0  0  0  0  0  0  0  0  0
  -18.0390  -28.0790   22.9390 C   0  0  0  0  0  0  0  0  0  0  0  0
  -20.5990  -28.3400   23.1980 C   0  0  0  0  0  3  0  0  0  0  0  0
  -20.6980  -26.9060   22.6250 C   0  0  0  0  0  2  0  0  0  0  0  0
  -19.5920  -26.5820   21.6160 C   0  0  0  0  0  2  0  0  0  0  0  0
  -18.2130  -26.7290   22.2650 C   0  0  0  0  0  2  0  0  0  0  0  0
  -19.1600  -28.8420   23.3630 C   0  0  0  0  0  0  0  0  0  0  0  0
  -18.9430  -30.1060   23.9560 C   0  0  0  0  0  3  0  0  0  0  0  0
  -17.6390  -30.6050   24.1270 C   0  0  0  0  0  3  0  0  0  0  0  0
  -16.5330  -29.8400   23.7180 C   0  0  0  0  0  3  0  0  0  0  0  0
  -16.7340  -28.5790   23.1290 C   0  0  0  0  0  3  0  0  0  0  0  0
  -25.9020  -32.4910   23.8310 C   0  0  0  0  0  3  0  0  0  0  0  0
  -26.4260  -31.7170   25.1030 C   0  0  1  0  0  0  0  0  0  0  0  0
  -25.3390  -31.4780   26.1770 C   0  0  0  0  0  1  0  0  0  0  0  0
  -27.0070  -30.3400   24.7080 C   0  0  0  0  0  1  0  0  0  0  0  0
  -27.5800  -32.5110   25.7590 C   0  0  0  0  0  1  0  0  0  0  0  0
  -25.5890  -33.8870   24.1710 N   0  0  0  0  0  0  0  0  0  0  0  0
  -25.9120  -34.9470   23.4160 C   0  0  0  0  0  0  0  0  0  0  0  0
  -26.5730  -34.8520   22.3780 O   0  0  0  0  0  0  0  0  0  0  0  0
  -25.0020  -34.0340   24.9780 H   0  0  0  0  0  0  0  0  0  0  0  0
  -24.1770  -36.7410   23.0910 C   0  0  0  0  0  1  0  0  0  0  0  0
  -25.4260  -36.3320   23.8880 C   0  0  0  0  0  3  0  0  0  0  0  0
  -27.5670  -37.2150   24.7030 C   0  0  0  0  0  1  0  0  0  0  0  0
  -26.4560  -37.3880   23.7730 N   0  0  0  0  0  0  0  0  0  0  0  0
  -26.0490  -38.3060   23.9300 H   0  0  0  0  0  0  0  0  0  0  0  0
  1  4  2  0
  1  2  1  0
  2  6  2  0
  4  5  1  0
  5  9  1  0
  5  3  2  0
  6  3  1  0
  6 54  1  0
  7  4  1  0
  7  8  1  0
  8  9  1  0
  9 10  1  0
 10 11  1  0
 10 12  1  0
 13 10  1  0
 13 15  1  0
 15 14  1  0
 16 24  1  0
 17 22  1  0
 18 19  1  0
 18 17  1  0
 20 19  1  0
 20 29  1  0
 20 21  1  0
 22 16  1  0
 22 21  1  0
 23 16  2  0
 24 15  1  0
 24 25  1  0
 26 27  2  0
 27 46  1  0
 28 27  1  0
 28 31  1  0
 29 26  1  0
 29 30  1  0
 30 28  2  0
 31 32  1  0
 32 33  2  0
 34 37  1  0
 34 33  1  0
 35 34  2  0
 36 35  1  0
 36 31  2  0
 37 38  1  0
 38 39  1  0
 39 40  2  0
 41 40  1  0
 41 45  1  0
 42 41  2  0
 43 38  2  0
 43 42  1  0
 44 43  1  0
 46 47  1  0
 47 50  1  0
 47 49  1  0
 48 46  2  0
 51 52  1  0
 51 26  1  0
 53 51  1  0
 55 66  2  0
 56 54  1  0
 56 61  1  0
 57 65  1  0
 57 67  1  0
 58 64  1  0
 58 60  1  0
 59 65  1  0
 60 59  1  0
 61 60  2  0
 62 56  2  0
 63 62  1  0
 63 58  2  0
 64 57  1  0
 65 55  1  0
 67 69  2  0
 68 67  1  0
 70 68  1  0
 71 80  2  0
 71 76  1  0
 72 68  1  0
 72 76  1  0
 73 72  1  0
 74 75  1  0
 74 73  1  0
 75 71  1  0
 76 77  2  0
 77 78  1  0
 79 78  2  0
 80 79  1  0
 81 55  1  0
 81 86  1  0
 81 82  1  0
 82 85  1  1
 82 83  1  0
 84 82  1  0
 86 89  1  0
 87 91  1  0
 87 86  1  0
 88 87  2  0
 91 90  1  0
 93 91  1  0
 93 94  1  0
 93 92  1  0
M  ISO  4   6 101  16 100  24 100  54 101
M  END
>  <TORSDO>  (82) 
F 19

>  <SCORE>  (82) 
-14.311

>  <name>  (82) 
82

>  <ligand_id>  (82) 
82

>  <original_smiles>  (82) 
[H]c1c([H])c([H])c2c(c1[H])C([H])([H])C([H])([H])C([H])([H])C2([H])N([H])C(=O)C1([H])N(C(=O)C([H])(N([H])C(=O)C([H])(N([H])C([H])([H])[H])C([H])([H])[H])C(C([H])([H])[H])(C([H])([H])[H])C([H])([H])[H])C([H])([H])c2c([H])c(Oc3c([H])c([H])c4c(c3[H])C([H])([N+]([H])([H])C([H])([H])C([H])(N([H])C(=O)N3C([H])([H])C([H])([H])C([H])([H])C([H])(n5nc(-c6c([H])c([H])c(Oc7c([H])c([H])c(F)c([H])c7F)c([H])c6[H])c(C(=O)N([H])[H])c5N([H])[H])C3([H])[H])C([H])([H])[H])C([H])([H])C4([H])[H])c([H])c([H])c2C1([H])[H]

>  <smiles>  (82) 
[H]c1c([H])c([H])c2c(c1[H])C([H])([H])C([H])([H])C([H])([H])C2([H])N([H])C(=O)C1([H])N(C(=O)C([H])(N([H])C(=O)C([H])(N([H])C([H])([H])[H])C([H])([H])[H])C(C([H])([H])[H])(C([H])([H])[H])C([H])([H])[H])C([H])([H])c2c([H])c(Oc3c([H])c([H])c4c(c3[H])C([H])([N+]([H])([H])C([H])([H])C([H])(N([H])C(=O)N3C([H])([H])C([H])([H])C([H])([H])C([H])(n5nc(-c6c([H])c([H])c(Oc7c([H])c([H])c(F)c([H])c7F)c([H])c6[H])c(C(=O)N([H])[H])c5N([H])[H])C3([H])[H])C([H])([H])[H])C([H])([H])C4([H])[H])c([H])c([H])c2C1([H])[H]

$$$$
83:0:0
     RDKit          3D

 97106  0  0  1  0  0  0  0  0999 V2000
  -29.4200  -22.1620   22.5540 C   0  0  0  0  0  3  0  0  0  0  0  0
  -30.0160  -23.8930   20.9520 C   0  0  0  0  0  0  0  0  0  0  0  0
  -29.7060  -23.5200   22.2780 C   0  0  0  0  0  0  0  0  0  0  0  0
  -30.0240  -22.8690   19.9660 C   0  0  0  0  0  0  0  0  0  0  0  0
  -29.4730  -21.2140   21.5220 C   0  0  0  0  0  0  0  0  0  0  0  0
  -29.7520  -21.5680   20.2520 N   0  0  0  0  0  0  0  0  0  0  0  0
  -29.2060  -19.8670   21.8380 N   0  0  0  0  0  0  0  0  0  0  0  0
  -28.9530  -19.6690   22.7990 H   0  0  0  0  0  0  0  0  0  0  0  0
  -30.9980  -14.6570   19.9890 C   0  0  0  0  0  0  0  0  0  0  0  0
  -30.6210  -12.4550   18.9150 C   0  0  0  0  0  2  0  0  0  0  0  0
  -29.6040  -12.5800   17.7590 C   0  0  0  0  0  2  0  0  0  0  0  0
  -28.1690  -12.3980   18.2870 C   0  0  0  0  0  2  0  0  0  0  0  0
  -27.8910  -13.2700   19.5360 C   0  0  0  0  0  3  0  0  0  0  0  0
  -29.0260  -13.1170   20.5870 C   0  0  0  0  0  2  0  0  0  0  0  0
  -30.2860  -13.4810   19.9280 N   0  0  0  0  0  0  0  0  0  0  0  0
  -32.1110  -14.7070   19.4530 O   0  0  0  0  0  0  0  0  0  0  0  0
  -28.7000  -17.5250   21.2470 C   0  0  0  0  0  2  0  0  0  0  0  0
  -31.0210  -18.1910   21.4920 C   0  0  0  0  0  2  0  0  0  0  0  0
  -29.0990  -16.2770   20.4280 C   0  0  0  0  0  2  0  0  0  0  0  0
  -31.4700  -16.9300   20.7130 C   0  0  0  0  0  2  0  0  0  0  0  0
  -29.6480  -18.7100   21.0490 C   0  0  0  0  0  3  0  0  0  0  0  0
  -30.4970  -15.8000   20.5890 N   0  0  0  0  0  0  0  0  0  0  0  0
  -25.5640  -13.8960   20.4350 C   0  0  0  0  0  0  0  0  0  0  0  0
  -24.5120  -13.1270   20.8530 C   0  0  0  0  0  0  0  0  0  0  0  0
  -24.9480  -11.7720   20.7410 C   0  0  0  0  0  0  0  0  0  0  0  0
  -26.5760  -13.0060   20.1040 N   0  0  0  0  0  0  0  0  0  0  0  0
  -26.2120  -11.7210   20.3460 N   0  0  0  0  0  0  0  0  0  0  0  0
  -24.2150  -10.5140   20.9310 C   0  0  0  0  0  0  0  0  0  0  0  0
  -24.6400   -9.5510   21.8720 C   0  0  0  0  0  3  0  0  0  0  0  0
  -23.9130   -8.3550   22.0460 C   0  0  0  0  0  3  0  0  0  0  0  0
  -22.7450   -8.1170   21.2840 C   0  0  0  0  0  0  0  0  0  0  0  0
  -22.3400   -9.0670   20.3310 C   0  0  0  0  0  3  0  0  0  0  0  0
  -23.0690  -10.2560   20.1540 C   0  0  0  0  0  3  0  0  0  0  0  0
  -21.9860   -6.9760   21.3770 O   0  0  0  0  0  0  0  0  0  0  0  0
  -21.8330   -6.3070   22.5650 C   0  0  0  0  0  0  0  0  0  0  0  0
  -21.2910   -6.9280   23.7100 C   0  0  0  0  0  3  0  0  0  0  0  0
  -21.0840   -6.1810   24.8870 C   0  0  0  0  0  3  0  0  0  0  0  0
  -21.4130   -4.8130   24.9210 C   0  0  0  0  0  0  0  0  0  0  0  0
  -21.9500   -4.1920   23.7800 C   0  0  0  0  0  3  0  0  0  0  0  0
  -22.1530   -4.9350   22.6040 C   0  0  0  0  0  0  0  0  0  0  0  0
  -22.6510   -4.3260   21.5000 F   0  0  0  0  0  0  0  0  0  0  0  0
  -21.2120   -4.0910   26.0490 F   0  0  0  0  0  0  0  0  0  0  0  0
  -23.1440  -13.6150   21.2390 C   0  0  0  0  0  0  0  0  0  0  0  0
  -22.4790  -12.9110   22.1490 N   0  0  0  0  0  0  0  0  0  0  0  0
  -22.6790  -14.6520   20.7700 O   0  0  0  0  0  0  0  0  0  0  0  0
  -22.8710  -12.0700   22.5440 H   0  0  0  0  0  0  0  0  0  0  0  0
  -21.5640  -13.2160   22.4520 H   0  0  0  0  0  0  0  0  0  0  0  0
  -25.7320  -15.2680   20.2880 N   0  0  0  0  0  0  0  0  0  0  0  0
  -24.9740  -15.9160   20.4740 H   0  0  0  0  0  0  0  0  0  0  0  0
  -26.5500  -15.7160   19.8950 H   0  0  0  0  0  0  0  0  0  0  0  0
  -29.1920  -23.7910   17.7330 C   0  0  0  0  0  1  0  0  0  0  0  0
  -30.3500  -23.1390   18.5010 C   0  0  0  0  0  2  0  0  0  0  0  0
  -29.5660  -24.1280   24.6040 C   0  0  0  0  0  1  0  0  0  0  0  0
  -29.7340  -24.5070   23.2430 O   0  0  0  0  0  0  0  0  0  0  0  0
  -30.4590  -25.3470   20.6740 C   0  0  0  0  0  2  0  0  0  0  0  0
  -29.4020  -26.4770   20.8280 C   0  0  0  0  0  2  0  0  0  0  0  0
  -28.7220  -26.7490   19.6020 O   0  0  0  0  0  0  0  0  0  0  0  0
  -24.7570  -31.6000   23.0540 C   0  0  0  0  0  0  0  0  0  0  0  0
  -27.5580  -27.4790   19.6980 C   0  0  0  0  0  0  0  0  0  0  0  0
  -23.5910  -30.2390   21.3470 C   0  0  0  0  0  3  0  0  0  0  0  0
  -25.0960  -28.8620   19.8120 C   0  0  0  0  0  0  0  0  0  0  0  0
  -26.0900  -30.7350   21.1340 C   0  0  0  0  0  2  0  0  0  0  0  0
  -26.2330  -29.4060   20.4250 C   0  0  0  0  0  0  0  0  0  0  0  0
  -27.4680  -28.7190   20.3750 C   0  0  0  0  0  3  0  0  0  0  0  0
  -26.4130  -26.9590   19.0640 C   0  0  0  0  0  3  0  0  0  0  0  0
  -25.1790  -27.6370   19.1300 C   0  0  0  0  0  3  0  0  0  0  0  0
  -23.8110  -29.6520   19.9270 C   0  0  0  0  0  2  0  0  0  0  0  0
  -24.8310  -30.8710   21.9040 N   0  0  0  0  0  0  0  0  0  0  0  0
  -23.6750  -31.7880   23.6260 O   0  0  0  0  0  0  0  0  0  0  0  0
  -23.0070  -29.1330   22.2550 C   0  0  0  0  0  0  0  0  0  0  0  0
  -21.6940  -28.8820   22.1240 N   0  0  0  0  0  0  0  0  0  0  0  0
  -23.7320  -28.5070   23.0320 O   0  0  0  0  0  0  0  0  0  0  0  0
  -21.1690  -29.4450   21.4690 H   0  0  0  0  0  0  0  0  0  0  0  0
  -18.4010  -27.4600   22.5540 C   0  0  0  0  0  0  0  0  0  0  0  0
  -20.9370  -27.8590   22.8450 C   0  0  0  0  0  3  0  0  0  0  0  0
  -21.1280  -26.4670   22.1990 C   0  0  0  0  0  2  0  0  0  0  0  0
  -20.0470  -26.1280   21.1680 C   0  0  0  0  0  2  0  0  0  0  0  0
  -18.6600  -26.1590   21.8140 C   0  0  0  0  0  2  0  0  0  0  0  0
  -19.4710  -28.2660   23.0240 C   0  0  0  0  0  0  0  0  0  0  0  0
  -19.1770  -29.4850   23.6730 C   0  0  0  0  0  3  0  0  0  0  0  0
  -17.8440  -29.8990   23.8580 C   0  0  0  0  0  3  0  0  0  0  0  0
  -16.7880  -29.0890   23.4050 C   0  0  0  0  0  3  0  0  0  0  0  0
  -17.0670  -27.8710   22.7590 C   0  0  0  0  0  3  0  0  0  0  0  0
  -26.0240  -32.2550   23.6890 C   0  0  0  0  0  3  0  0  0  0  0  0
  -26.5860  -31.4490   24.9230 C   0  0  1  0  0  0  0  0  0  0  0  0
  -25.5170  -31.1180   25.9890 C   0  0  0  0  0  1  0  0  0  0  0  0
  -27.2200  -30.1170   24.4590 C   0  0  0  0  0  1  0  0  0  0  0  0
  -27.7120  -32.2580   25.6080 C   0  0  0  0  0  1  0  0  0  0  0  0
  -25.6640  -33.6240   24.0810 N   0  0  0  0  0  0  0  0  0  0  0  0
  -25.9600  -34.7200   23.3700 C   0  0  0  0  0  0  0  0  0  0  0  0
  -26.6360  -34.6880   22.3370 O   0  0  0  0  0  0  0  0  0  0  0  0
  -25.0630  -33.7220   24.8860 H   0  0  0  0  0  0  0  0  0  0  0  0
  -24.1670  -36.4610   23.0870 C   0  0  0  0  0  1  0  0  0  0  0  0
  -25.4210  -36.0680   23.8850 C   0  0  0  0  0  3  0  0  0  0  0  0
  -27.5180  -36.9960   24.7650 C   0  0  0  0  0  1  0  0  0  0  0  0
  -26.4140  -37.1620   23.8220 N   0  0  0  0  0  0  0  0  0  0  0  0
  -25.9740  -38.0600   24.0060 H   0  0  0  0  0  0  0  0  0  0  0  0
  2  3  2  0
  3  1  1  0
  3 54  1  0
  4  6  2  0
  4  2  1  0
  5  7  1  0
  5  1  2  0
  6  5  1  0
  7  8  1  0
  9 22  1  0
 10 15  1  0
 11 12  1  0
 11 10  1  0
 13 12  1  0
 13 26  1  0
 13 14  1  0
 15  9  1  0
 15 14  1  0
 16  9  2  0
 19 22  1  0
 19 17  1  0
 20 18  1  0
 21 17  1  0
 21 18  1  0
 21  7  1  0
 22 20  1  0
 23 24  2  0
 24 43  1  0
 25 24  1  0
 25 28  1  0
 26 27  1  0
 26 23  1  0
 27 25  2  0
 28 29  1  0
 29 30  2  0
 31 34  1  0
 31 30  1  0
 32 31  2  0
 33 32  1  0
 33 28  2  0
 34 35  1  0
 35 40  2  0
 35 36  1  0
 36 37  2  0
 37 38  1  0
 38 42  1  0
 39 38  2  0
 40 39  1  0
 41 40  1  0
 43 44  1  0
 44 47  1  0
 44 46  1  0
 45 43  2  0
 48 23  1  0
 48 49  1  0
 50 48  1  0
 51 52  1  0
 52  4  1  0
 54 53  1  0
 55 56  1  0
 55  2  1  0
 57 59  1  0
 57 56  1  0
 58 69  2  0
 59 64  1  0
 60 68  1  0
 60 70  1  0
 61 67  1  0
 61 63  1  0
 62 68  1  0
 63 62  1  0
 64 63  2  0
 65 66  1  0
 65 59  2  0
 66 61  2  0
 67 60  1  0
 68 58  1  0
 70 72  2  0
 71 70  1  0
 73 71  1  0
 74 83  2  0
 74 79  1  0
 75 71  1  0
 75 79  1  0
 76 75  1  0
 77 78  1  0
 77 76  1  0
 78 74  1  0
 79 80  2  0
 80 81  1  0
 82 81  2  0
 83 82  1  0
 84 58  1  0
 84 89  1  0
 84 85  1  0
 85 88  1  1
 85 86  1  0
 87 85  1  0
 89 92  1  0
 90 94  1  0
 90 89  1  0
 91 90  2  0
 94 93  1  0
 96 94  1  0
 96 97  1  0
 96 95  1  0
M  ISO  4   9 100  22 100  56 101  57 101
M  END
>  <TORSDO>  (83) 
F 20

>  <SCORE>  (83) 
-11.303

>  <name>  (83) 
83

>  <ligand_id>  (83) 
83

>  <original_smiles>  (83) 
[H]c1c([H])c([H])c2c(c1[H])C([H])([H])C([H])([H])C([H])([H])C2([H])N([H])C(=O)C1([H])N(C(=O)C([H])(N([H])C(=O)C([H])(N([H])C([H])([H])[H])C([H])([H])[H])C(C([H])([H])[H])(C([H])([H])[H])C([H])([H])[H])C([H])([H])c2c([H])c(OC([H])([H])C([H])([H])c3c(C([H])([H])C([H])([H])[H])nc(N([H])C4([H])C([H])([H])C([H])([H])N(C(=O)N5C([H])([H])C([H])([H])C([H])([H])C([H])(n6nc(-c7c([H])c([H])c(Oc8c([H])c([H])c(F)c([H])c8F)c([H])c7[H])c(C(=O)N([H])[H])c6N([H])[H])C5([H])[H])C([H])([H])C4([H])[H])c([H])c3OC([H])([H])[H])c([H])c([H])c2C1([H])[H]

>  <smiles>  (83) 
[H]c1c([H])c([H])c2c(c1[H])C([H])([H])C([H])([H])C([H])([H])C2([H])N([H])C(=O)C1([H])N(C(=O)C([H])(N([H])C(=O)C([H])(N([H])C([H])([H])[H])C([H])([H])[H])C(C([H])([H])[H])(C([H])([H])[H])C([H])([H])[H])C([H])([H])c2c([H])c(OC([H])([H])C([H])([H])c3c(C([H])([H])C([H])([H])[H])nc(N([H])C4([H])C([H])([H])C([H])([H])N(C(=O)N5C([H])([H])C([H])([H])C([H])([H])C([H])(n6nc(-c7c([H])c([H])c(Oc8c([H])c([H])c(F)c([H])c8F)c([H])c7[H])c(C(=O)N([H])[H])c6N([H])[H])C5([H])[H])C([H])([H])C4([H])[H])c([H])c3OC([H])([H])[H])c([H])c([H])c2C1([H])[H]

$$$$
84:0:0
     RDKit          3D

 99109  0  0  1  0  0  0  0  0999 V2000
  -29.0100  -25.0730   16.9750 C   0  0  0  0  0  3  0  0  0  0  0  0
  -29.0900  -24.4730   19.3290 C   0  0  0  0  0  3  0  0  0  0  0  0
  -29.1870  -22.7210   17.6320 C   0  0  0  0  0  0  0  0  0  0  0  0
  -28.9960  -25.4500   18.3290 C   0  0  0  0  0  0  0  0  0  0  0  0
  -29.0920  -23.7110   16.6190 C   0  0  0  0  0  0  0  0  0  0  0  0
  -29.1720  -23.1090   18.9980 C   0  0  0  0  0  0  0  0  0  0  0  0
  -29.0620  -23.3510   15.1410 C   0  0  0  0  0  1  0  0  0  0  0  0
  -30.3770  -20.6590   16.4520 C   0  0  0  0  0  2  0  0  0  0  0  0
  -29.2790  -21.2560   17.3150 C   0  0  0  0  0  3  0  0  0  0  0  0
  -30.3910  -20.4470   17.9440 C   0  0  0  0  0  3  0  0  0  0  0  0
  -30.7410  -16.7810   18.9160 C   0  0  0  0  0  2  0  0  0  0  0  0
  -29.0720  -17.8380   20.4130 C   0  0  0  0  0  2  0  0  0  0  0  0
  -31.0950  -18.1460   18.3100 C   0  0  0  0  0  2  0  0  0  0  0  0
  -29.3900  -19.1960   19.7740 C   0  0  0  0  0  2  0  0  0  0  0  0
  -30.3120  -16.9430   20.3940 C   0  0  0  0  0  3  0  0  0  0  0  0
  -29.9680  -19.1060   18.4030 N   0  0  1  0  0  4  0  0  0  0  0  0
  -29.2400  -18.7810   17.7850 H   0  0  0  0  0  0  0  0  0  0  0  0
  -30.8530  -14.6270   21.0360 C   0  0  0  0  0  0  0  0  0  0  0  0
  -30.6620  -12.4740   19.9170 C   0  0  0  0  0  2  0  0  0  0  0  0
  -29.8290  -12.7040   18.6390 C   0  0  0  0  0  2  0  0  0  0  0  0
  -28.3220  -12.5750   18.9380 C   0  0  0  0  0  2  0  0  0  0  0  0
  -27.8740  -13.4120   20.1660 C   0  0  0  0  0  3  0  0  0  0  0  0
  -28.8300  -13.1840   21.3640 C   0  0  0  0  0  2  0  0  0  0  0  0
  -30.2070  -13.4480   20.9150 N   0  0  0  0  0  0  0  0  0  0  0  0
  -32.0520  -14.7940   20.8040 O   0  0  0  0  0  0  0  0  0  0  0  0
  -30.0150  -15.6650   21.0290 N   0  0  0  0  0  0  0  0  0  0  0  0
  -29.0480  -15.4480   21.2180 H   0  0  0  0  0  0  0  0  0  0  0  0
  -25.4200  -14.0170   20.6600 C   0  0  0  0  0  0  0  0  0  0  0  0
  -24.3250  -13.2410   20.9340 C   0  0  0  0  0  0  0  0  0  0  0  0
  -24.7930  -11.8920   20.9430 C   0  0  0  0  0  0  0  0  0  0  0  0
  -26.4840  -13.1390   20.5230 N   0  0  0  0  0  0  0  0  0  0  0  0
  -26.1040  -11.8560   20.7500 N   0  0  0  0  0  0  0  0  0  0  0  0
  -24.0600  -10.6250   21.0670 C   0  0  0  0  0  0  0  0  0  0  0  0
  -24.4230   -9.6540   22.0250 C   0  0  0  0  0  3  0  0  0  0  0  0
  -23.6930   -8.4510   22.1350 C   0  0  0  0  0  3  0  0  0  0  0  0
  -22.5850   -8.2130   21.2880 C   0  0  0  0  0  0  0  0  0  0  0  0
  -22.2420   -9.1760   20.3220 C   0  0  0  0  0  3  0  0  0  0  0  0
  -22.9730  -10.3680   20.2080 C   0  0  0  0  0  3  0  0  0  0  0  0
  -21.8330   -7.0640   21.3080 O   0  0  0  0  0  0  0  0  0  0  0  0
  -21.6950   -6.3140   22.4490 C   0  0  0  0  0  0  0  0  0  0  0  0
  -21.1480   -6.8550   23.6330 C   0  0  0  0  0  3  0  0  0  0  0  0
  -20.9590   -6.0300   24.7600 C   0  0  0  0  0  3  0  0  0  0  0  0
  -21.3050   -4.6660   24.7030 C   0  0  0  0  0  0  0  0  0  0  0  0
  -21.8440   -4.1260   23.5220 C   0  0  0  0  0  3  0  0  0  0  0  0
  -22.0350   -4.9470   22.3970 C   0  0  0  0  0  0  0  0  0  0  0  0
  -22.5350   -4.4170   21.2540 F   0  0  0  0  0  0  0  0  0  0  0  0
  -21.1160   -3.8720   25.7820 F   0  0  0  0  0  0  0  0  0  0  0  0
  -22.9070  -13.7120   21.0840 C   0  0  0  0  0  0  0  0  0  0  0  0
  -22.1100  -13.0110   21.8830 N   0  0  0  0  0  0  0  0  0  0  0  0
  -22.5110  -14.7360   20.5270 O   0  0  0  0  0  0  0  0  0  0  0  0
  -22.4430  -12.1850   22.3570 H   0  0  0  0  0  0  0  0  0  0  0  0
  -21.1550  -13.3070   22.0240 H   0  0  0  0  0  0  0  0  0  0  0  0
  -25.5920  -15.3880   20.4960 N   0  0  0  0  0  0  0  0  0  0  0  0
  -24.8100  -16.0320   20.5290 H   0  0  0  0  0  0  0  0  0  0  0  0
  -26.4560  -15.8320   20.2150 H   0  0  0  0  0  0  0  0  0  0  0  0
  -29.0590  -22.4870   21.3280 C   0  0  0  0  0  1  0  0  0  0  0  0
  -29.2350  -22.1260   19.9610 O   0  0  0  0  0  0  0  0  0  0  0  0
  -28.8910  -26.8980   18.7450 C   0  0  0  0  0  2  0  0  0  0  0  0
  -28.3950  -27.0160   20.0780 O   0  0  0  0  0  0  0  0  0  0  0  0
  -24.5430  -31.9610   23.3730 C   0  0  0  0  0  0  0  0  0  0  0  0
  -27.1850  -27.6430   20.1710 C   0  0  0  0  0  0  0  0  0  0  0  0
  -23.3220  -30.5860   21.7140 C   0  0  0  0  0  3  0  0  0  0  0  0
  -24.7660  -29.0730   20.2590 C   0  0  0  0  0  0  0  0  0  0  0  0
  -25.8370  -30.9660   21.4990 C   0  0  0  0  0  2  0  0  0  0  0  0
  -25.9190  -29.6060   20.8480 C   0  0  0  0  0  0  0  0  0  0  0  0
  -27.1280  -28.8860   20.8220 C   0  0  0  0  0  3  0  0  0  0  0  0
  -26.0190  -27.0930   19.5970 C   0  0  0  0  0  3  0  0  0  0  0  0
  -24.8040  -27.8070   19.6420 C   0  0  0  0  0  3  0  0  0  0  0  0
  -23.5190  -29.9220   20.3250 C   0  0  0  0  0  2  0  0  0  0  0  0
  -24.5850  -31.1850   22.2540 N   0  0  0  0  0  0  0  0  0  0  0  0
  -23.4680  -32.2230   23.9300 O   0  0  0  0  0  0  0  0  0  0  0  0
  -22.6830  -29.5480   22.6630 C   0  0  0  0  0  0  0  0  0  0  0  0
  -21.3630  -29.3470   22.5250 N   0  0  0  0  0  0  0  0  0  0  0  0
  -23.3720  -28.9250   23.4760 O   0  0  0  0  0  0  0  0  0  0  0  0
  -20.8700  -29.9020   21.8390 H   0  0  0  0  0  0  0  0  0  0  0  0
  -18.0090  -28.0850   22.9550 C   0  0  0  0  0  0  0  0  0  0  0  0
  -20.5540  -28.3920   23.2790 C   0  0  0  0  0  3  0  0  0  0  0  0
  -20.6970  -26.9650   22.7030 C   0  0  0  0  0  2  0  0  0  0  0  0
  -19.6220  -26.6210   21.6670 C   0  0  0  0  0  2  0  0  0  0  0  0
  -18.2260  -26.7400   22.2840 C   0  0  0  0  0  2  0  0  0  0  0  0
  -19.1020  -28.8690   23.4070 C   0  0  0  0  0  0  0  0  0  0  0  0
  -18.8470  -30.1300   23.9900 C   0  0  0  0  0  3  0  0  0  0  0  0
  -17.5300  -30.6050   24.1270 C   0  0  0  0  0  3  0  0  0  0  0  0
  -16.4490  -29.8180   23.6940 C   0  0  0  0  0  3  0  0  0  0  0  0
  -16.6900  -28.5590   23.1130 C   0  0  0  0  0  3  0  0  0  0  0  0
  -25.8380  -32.5790   23.9920 C   0  0  0  0  0  3  0  0  0  0  0  0
  -26.3350  -31.8200   25.2830 C   0  0  1  0  0  0  0  0  0  0  0  0
  -25.2300  -31.6140   26.3450 C   0  0  0  0  0  1  0  0  0  0  0  0
  -26.9000  -30.4290   24.9120 C   0  0  0  0  0  1  0  0  0  0  0  0
  -27.4900  -32.6080   25.9430 C   0  0  0  0  0  1  0  0  0  0  0  0
  -25.5560  -33.9880   24.2920 N   0  0  0  0  0  0  0  0  0  0  0  0
  -25.9370  -35.0190   23.5250 C   0  0  0  0  0  0  0  0  0  0  0  0
  -26.6360  -34.8830   22.5170 O   0  0  0  0  0  0  0  0  0  0  0  0
  -24.9450  -34.1710   25.0740 H   0  0  0  0  0  0  0  0  0  0  0  0
  -24.2780  -36.8510   23.0680 C   0  0  0  0  0  1  0  0  0  0  0  0
  -25.4680  -36.4240   23.9440 C   0  0  0  0  0  3  0  0  0  0  0  0
  -27.5860  -37.2580   24.8630 C   0  0  0  0  0  1  0  0  0  0  0  0
  -26.5340  -37.4470   23.8690 N   0  0  0  0  0  0  0  0  0  0  0  0
  -26.1470  -38.3790   23.9900 H   0  0  0  0  0  0  0  0  0  0  0  0
  1  4  1  0
  3  6  2  0
  4 58  1  0
  4  2  2  0
  5  1  2  0
  5  3  1  0
  6  2  1  0
  6 57  1  0
  7  5  1  0
  8  9  1  0
  9  3  1  0
  9 10  1  0
 10  8  1  0
 10 16  1  0
 11 15  1  0
 13 16  1  0
 13 11  1  0
 14 12  1  0
 15 12  1  0
 15 26  1  0
 16 17  1  6
 16 14  1  0
 19 24  1  0
 20 21  1  0
 20 19  1  0
 22 21  1  0
 22 31  1  0
 22 23  1  0
 24 18  1  0
 24 23  1  0
 25 18  2  0
 26 18  1  0
 26 27  1  0
 28 29  2  0
 29 30  1  0
 29 48  1  0
 30 33  1  0
 31 28  1  0
 31 32  1  0
 32 30  2  0
 33 34  1  0
 34 35  2  0
 36 39  1  0
 36 35  1  0
 37 36  2  0
 38 37  1  0
 38 33  2  0
 39 40  1  0
 40 41  1  0
 41 42  2  0
 43 42  1  0
 43 47  1  0
 44 43  2  0
 45 40  2  0
 45 44  1  0
 46 45  1  0
 48 49  1  0
 49 52  1  0
 49 51  1  0
 50 48  2  0
 53 54  1  0
 53 28  1  0
 55 53  1  0
 57 56  1  0
 58 59  1  0
 59 61  1  0
 60 71  2  0
 61 66  1  0
 62 70  1  0
 62 72  1  0
 63 69  1  0
 63 65  1  0
 64 70  1  0
 65 64  1  0
 66 65  2  0
 67 68  1  0
 67 61  2  0
 68 63  2  0
 69 62  1  0
 70 60  1  0
 72 74  2  0
 73 72  1  0
 75 73  1  0
 76 85  2  0
 76 81  1  0
 77 73  1  0
 77 81  1  0
 78 77  1  0
 79 80  1  0
 79 78  1  0
 80 76  1  0
 81 82  2  0
 82 83  1  0
 84 83  2  0
 85 84  1  0
 86 60  1  0
 86 91  1  0
 86 87  1  0
 87 90  1  1
 87 88  1  0
 89 87  1  0
 91 94  1  0
 92 96  1  0
 92 91  1  0
 93 92  2  0
 96 95  1  0
 98 96  1  0
 98 99  1  0
 98 97  1  0
M  ISO  4  18 100  26 100  58 101  59 101
M  END
>  <TORSDO>  (84) 
F 20

>  <SCORE>  (84) 
-13.271

>  <name>  (84) 
84

>  <ligand_id>  (84) 
84

>  <original_smiles>  (84) 
[H]c1c([H])c([H])c2c(c1[H])C([H])([H])C([H])([H])C([H])([H])C2([H])N([H])C(=O)C1([H])N(C(=O)C([H])(N([H])C(=O)C([H])(N([H])C([H])([H])[H])C([H])([H])[H])C(C([H])([H])[H])(C([H])([H])[H])C([H])([H])[H])C([H])([H])c2c([H])c(OC([H])([H])c3c([H])c(OC([H])([H])[H])c(C4([H])C([H])([H])C4([H])[N+]4([H])C([H])([H])C([H])([H])C([H])(N([H])C(=O)N5C([H])([H])C([H])([H])C([H])([H])C([H])(n6nc(-c7c([H])c([H])c(Oc8c([H])c([H])c(F)c([H])c8F)c([H])c7[H])c(C(=O)N([H])[H])c6N([H])[H])C5([H])[H])C([H])([H])C4([H])[H])c(C([H])([H])[H])c3[H])c([H])c([H])c2C1([H])[H]

>  <smiles>  (84) 
[H]c1c([H])c([H])c2c(c1[H])C([H])([H])C([H])([H])C([H])([H])C2([H])N([H])C(=O)C1([H])N(C(=O)C([H])(N([H])C(=O)C([H])(N([H])C([H])([H])[H])C([H])([H])[H])C(C([H])([H])[H])(C([H])([H])[H])C([H])([H])[H])C([H])([H])c2c([H])c(OC([H])([H])c3c([H])c(OC([H])([H])[H])c(C4([H])C([H])([H])C4([H])[N+]4([H])C([H])([H])C([H])([H])C([H])(N([H])C(=O)N5C([H])([H])C([H])([H])C([H])([H])C([H])(n6nc(-c7c([H])c([H])c(Oc8c([H])c([H])c(F)c([H])c8F)c([H])c7[H])c(C(=O)N([H])[H])c6N([H])[H])C5([H])[H])C([H])([H])C4([H])[H])c(C([H])([H])[H])c3[H])c([H])c([H])c2C1([H])[H]

$$$$
85:0:0
     RDKit          3D

 96106  0  0  1  0  0  0  0  0999 V2000
  -30.7790  -21.6950   20.9390 C   0  0  0  0  0  2  0  0  0  0  0  0
  -28.4440  -21.8270   21.7900 C   0  0  0  0  0  2  0  0  0  0  0  0
  -30.9680  -23.1880   21.2600 C   0  0  0  0  0  2  0  0  0  0  0  0
  -28.6570  -23.3390   22.0820 C   0  0  0  0  0  2  0  0  0  0  0  0
  -29.7630  -21.0260   21.8830 C   0  0  0  0  0  3  0  0  0  0  0  0
  -29.6960  -23.9630   21.2060 N   0  0  1  0  0  4  0  0  0  0  0  0
  -29.3570  -23.9180   20.2560 H   0  0  0  0  0  0  0  0  0  0  0  0
  -31.0520  -14.5930   20.9210 C   0  0  0  0  0  0  0  0  0  0  0  0
  -30.8350  -12.3170   20.0350 C   0  0  0  0  0  2  0  0  0  0  0  0
  -30.0070  -12.3500   18.7340 C   0  0  0  0  0  2  0  0  0  0  0  0
  -28.4980  -12.2920   19.0300 C   0  0  0  0  0  2  0  0  0  0  0  0
  -28.0450  -13.2490   20.1660 C   0  0  0  0  0  3  0  0  0  0  0  0
  -29.0030  -13.1950   21.3760 C   0  0  0  0  0  2  0  0  0  0  0  0
  -30.3660  -13.4190   20.8840 N   0  0  0  0  0  0  0  0  0  0  0  0
  -32.2850  -14.6270   20.9030 O   0  0  0  0  0  0  0  0  0  0  0  0
  -29.0980  -19.0640   20.3680 C   0  0  0  0  0  3  0  0  0  0  0  0
  -30.2060  -18.5540   22.4380 C   0  0  0  0  0  3  0  0  0  0  0  0
  -29.6520  -19.5240   21.5740 C   0  0  0  0  0  0  0  0  0  0  0  0
  -29.2520  -17.7100   20.0160 C   0  0  0  0  0  0  0  0  0  0  0  0
  -29.9620  -16.8270   20.8780 C   0  0  0  0  0  0  0  0  0  0  0  0
  -28.7480  -17.2440   18.6540 C   0  0  0  0  0  2  0  0  0  0  0  0
  -29.6640  -16.2020   17.9930 C   0  0  0  0  0  2  0  0  0  0  0  0
  -30.8510  -15.8150   18.8830 C   0  0  0  0  0  2  0  0  0  0  0  0
  -30.3540  -17.2480   22.1040 N   0  0  0  0  0  0  0  0  0  0  0  0
  -30.4030  -15.5990   20.2740 N   0  0  0  0  0  0  0  0  0  0  0  0
  -25.6070  -13.8850   20.6750 C   0  0  0  0  0  0  0  0  0  0  0  0
  -24.5030  -13.1260   20.9580 C   0  0  0  0  0  0  0  0  0  0  0  0
  -24.9530  -11.7710   20.9940 C   0  0  0  0  0  0  0  0  0  0  0  0
  -26.6600  -12.9920   20.5510 N   0  0  0  0  0  0  0  0  0  0  0  0
  -26.2660  -11.7180   20.8090 N   0  0  0  0  0  0  0  0  0  0  0  0
  -24.2020  -10.5180   21.1420 C   0  0  0  0  0  0  0  0  0  0  0  0
  -24.5530   -9.5580   22.1160 C   0  0  0  0  0  3  0  0  0  0  0  0
  -23.8050   -8.3670   22.2490 C   0  0  0  0  0  3  0  0  0  0  0  0
  -22.6920   -8.1310   21.4090 C   0  0  0  0  0  0  0  0  0  0  0  0
  -22.3610   -9.0790   20.4250 C   0  0  0  0  0  3  0  0  0  0  0  0
  -23.1100  -10.2600   20.2890 C   0  0  0  0  0  3  0  0  0  0  0  0
  -21.9230   -6.9930   21.4510 O   0  0  0  0  0  0  0  0  0  0  0  0
  -21.7820   -6.2610   22.6040 C   0  0  0  0  0  0  0  0  0  0  0  0
  -21.2620   -6.8290   23.7870 C   0  0  0  0  0  3  0  0  0  0  0  0
  -21.0690   -6.0250   24.9280 C   0  0  0  0  0  3  0  0  0  0  0  0
  -21.3830   -4.6540   24.8850 C   0  0  0  0  0  0  0  0  0  0  0  0
  -21.8930   -4.0850   23.7060 C   0  0  0  0  0  3  0  0  0  0  0  0
  -22.0890   -4.8860   22.5670 C   0  0  0  0  0  0  0  0  0  0  0  0
  -22.5620   -4.3290   21.4260 F   0  0  0  0  0  0  0  0  0  0  0  0
  -21.1900   -3.8770   25.9780 F   0  0  0  0  0  0  0  0  0  0  0  0
  -23.0910  -13.6180   21.0940 C   0  0  0  0  0  0  0  0  0  0  0  0
  -22.2840  -12.9480   21.9090 N   0  0  0  0  0  0  0  0  0  0  0  0
  -22.7080  -14.6320   20.5110 O   0  0  0  0  0  0  0  0  0  0  0  0
  -22.6050  -12.1270   22.4020 H   0  0  0  0  0  0  0  0  0  0  0  0
  -21.3330  -13.2600   22.0410 H   0  0  0  0  0  0  0  0  0  0  0  0
  -25.8010  -15.2500   20.4900 N   0  0  0  0  0  0  0  0  0  0  0  0
  -25.0400  -15.9190   20.5220 H   0  0  0  0  0  0  0  0  0  0  0  0
  -26.6950  -15.6770   20.2880 H   0  0  0  0  0  0  0  0  0  0  0  0
  -29.9780  -25.4070   21.4910 C   0  0  0  0  0  2  0  0  0  0  0  0
  -28.7910  -26.3960   21.4080 C   0  0  0  0  0  2  0  0  0  0  0  0
  -28.3850  -26.7110   20.0680 O   0  0  0  0  0  0  0  0  0  0  0  0
  -24.6530  -31.8890   23.1960 C   0  0  0  0  0  0  0  0  0  0  0  0
  -27.2530  -27.4950   20.0440 C   0  0  0  0  0  0  0  0  0  0  0  0
  -23.4170  -30.4970   21.5620 C   0  0  0  0  0  3  0  0  0  0  0  0
  -24.8500  -28.9790   20.0920 C   0  0  0  0  0  0  0  0  0  0  0  0
  -25.9310  -30.8750   21.3150 C   0  0  0  0  0  2  0  0  0  0  0  0
  -26.0110  -29.5100   20.6650 C   0  0  0  0  0  0  0  0  0  0  0  0
  -27.2170  -28.7770   20.6390 C   0  0  0  0  0  3  0  0  0  0  0  0
  -26.0860  -26.9820   19.4460 C   0  0  0  0  0  3  0  0  0  0  0  0
  -24.8810  -27.7140   19.4750 C   0  0  0  0  0  3  0  0  0  0  0  0
  -23.5990  -29.8230   20.1730 C   0  0  0  0  0  2  0  0  0  0  0  0
  -24.6860  -31.1000   22.0840 N   0  0  0  0  0  0  0  0  0  0  0  0
  -23.5840  -32.1530   23.7610 O   0  0  0  0  0  0  0  0  0  0  0  0
  -22.7860  -29.4700   22.5280 C   0  0  0  0  0  0  0  0  0  0  0  0
  -21.4600  -29.2870   22.4240 N   0  0  0  0  0  0  0  0  0  0  0  0
  -23.4860  -28.8390   23.3240 O   0  0  0  0  0  0  0  0  0  0  0  0
  -20.9550  -29.8500   21.7540 H   0  0  0  0  0  0  0  0  0  0  0  0
  -18.1000  -28.0690   22.9520 C   0  0  0  0  0  0  0  0  0  0  0  0
  -20.6580  -28.3390   23.1990 C   0  0  0  0  0  3  0  0  0  0  0  0
  -20.7640  -26.9110   22.6140 C   0  0  0  0  0  2  0  0  0  0  0  0
  -19.6520  -26.5870   21.6110 C   0  0  0  0  0  2  0  0  0  0  0  0
  -18.2770  -26.7240   22.2690 C   0  0  0  0  0  2  0  0  0  0  0  0
  -19.2190  -28.8360   23.3740 C   0  0  0  0  0  0  0  0  0  0  0  0
  -19.0010  -30.0970   23.9690 C   0  0  0  0  0  3  0  0  0  0  0  0
  -17.6950  -30.5920   24.1500 C   0  0  0  0  0  3  0  0  0  0  0  0
  -16.5910  -29.8210   23.7480 C   0  0  0  0  0  3  0  0  0  0  0  0
  -16.7940  -28.5610   23.1550 C   0  0  0  0  0  3  0  0  0  0  0  0
  -25.9530  -32.5140   23.7960 C   0  0  0  0  0  3  0  0  0  0  0  0
  -25.6520  -33.9050   24.1600 N   0  0  0  0  0  0  0  0  0  0  0  0
  -25.9760  -34.9720   23.4170 C   0  0  0  0  0  0  0  0  0  0  0  0
  -26.6340  -34.8870   22.3750 O   0  0  0  0  0  0  0  0  0  0  0  0
  -25.0760  -34.0470   24.9760 H   0  0  0  0  0  0  0  0  0  0  0  0
  -24.2560  -36.7750   23.0990 C   0  0  0  0  0  1  0  0  0  0  0  0
  -25.4930  -36.3490   23.9050 C   0  0  0  0  0  3  0  0  0  0  0  0
  -27.6310  -37.2040   24.7590 C   0  0  0  0  0  1  0  0  0  0  0  0
  -26.5280  -37.4020   23.8210 N   0  0  0  0  0  0  0  0  0  0  0  0
  -26.1240  -38.3190   23.9980 H   0  0  0  0  0  0  0  0  0  0  0  0
  -26.5100  -31.7200   25.0420 C   0  0  1  0  0  0  0  0  0  0  0  0
  -25.4470  -31.4590   26.1360 C   0  0  0  0  0  1  0  0  0  0  0  0
  -27.0860  -30.3540   24.6030 C   0  0  0  0  0  1  0  0  0  0  0  0
  -27.6740  -32.5060   25.6890 C   0  0  0  0  0  1  0  0  0  0  0  0
  1  3  1  0
  1  5  1  0
  2  5  1  0
  2  4  1  0
  5 18  1  0
  6  3  1  0
  6 54  1  0
  6  4  1  0
  6  7  1  6
  9 14  1  0
 10 11  1  0
 10  9  1  0
 12 11  1  0
 12 29  1  0
 12 13  1  0
 14  8  1  0
 14 13  1  0
 15  8  2  0
 16 18  1  0
 18 17  2  0
 19 16  2  0
 19 20  1  0
 20 24  2  0
 21 19  1  0
 22 21  1  0
 22 23  1  0
 23 25  1  0
 24 17  1  0
 25 20  1  0
 25  8  1  0
 26 27  2  0
 27 28  1  0
 27 46  1  0
 28 31  1  0
 29 26  1  0
 29 30  1  0
 30 28  2  0
 31 32  1  0
 32 33  2  0
 34 37  1  0
 34 33  1  0
 35 34  2  0
 36 35  1  0
 36 31  2  0
 37 38  1  0
 38 39  1  0
 39 40  2  0
 41 40  1  0
 41 45  1  0
 42 41  2  0
 43 38  2  0
 43 42  1  0
 44 43  1  0
 46 47  1  0
 47 50  1  0
 47 49  1  0
 48 46  2  0
 51 52  1  0
 51 26  1  0
 53 51  1  0
 55 54  1  0
 56 55  1  0
 57 68  2  0
 58 56  1  0
 58 63  1  0
 59 67  1  0
 59 69  1  0
 60 66  1  0
 60 62  1  0
 61 67  1  0
 62 61  1  0
 63 62  2  0
 64 65  1  0
 64 58  2  0
 65 60  2  0
 66 59  1  0
 67 57  1  0
 69 71  2  0
 70 69  1  0
 72 70  1  0
 73 82  2  0
 73 78  1  0
 74 70  1  0
 74 78  1  0
 75 74  1  0
 76 77  1  0
 76 75  1  0
 77 73  1  0
 78 79  2  0
 79 80  1  0
 81 80  2  0
 82 81  1  0
 83 57  1  0
 83 84  1  0
 83 93  1  0
 84 87  1  0
 85 89  1  0
 85 84  1  0
 86 85  2  0
 89 88  1  0
 91 89  1  0
 91 92  1  0
 91 90  1  0
 93 96  1  1
 93 94  1  0
 95 93  1  0
M  ISO  4   8 100  25 100  55 101  56 101
M  END
>  <TORSDO>  (85) 
F 18

>  <SCORE>  (85) 
-12.651

>  <name>  (85) 
85

>  <ligand_id>  (85) 
85

>  <original_smiles>  (85) 
[H]c1nc2c(c([H])c1C1([H])C([H])([H])C([H])([H])[N+]([H])(C([H])([H])C([H])([H])Oc3c([H])c([H])c4c(c3[H])C([H])([H])N(C(=O)C([H])(N([H])C(=O)C([H])(N([H])C([H])([H])[H])C([H])([H])[H])C(C([H])([H])[H])(C([H])([H])[H])C([H])([H])[H])C([H])(C(=O)N([H])C3([H])c5c([H])c([H])c([H])c([H])c5C([H])([H])C([H])([H])C3([H])[H])C4([H])[H])C([H])([H])C1([H])[H])C([H])([H])C([H])([H])C([H])([H])N2C(=O)N1C([H])([H])C([H])([H])C([H])([H])C([H])(n2nc(-c3c([H])c([H])c(Oc4c([H])c([H])c(F)c([H])c4F)c([H])c3[H])c(C(=O)N([H])[H])c2N([H])[H])C1([H])[H]

>  <smiles>  (85) 
[H]c1nc2c(c([H])c1C1([H])C([H])([H])C([H])([H])[N+]([H])(C([H])([H])C([H])([H])Oc3c([H])c([H])c4c(c3[H])C([H])([H])N(C(=O)C([H])(N([H])C(=O)C([H])(N([H])C([H])([H])[H])C([H])([H])[H])C(C([H])([H])[H])(C([H])([H])[H])C([H])([H])[H])C([H])(C(=O)N([H])C3([H])c5c([H])c([H])c([H])c([H])c5C([H])([H])C([H])([H])C3([H])[H])C4([H])[H])C([H])([H])C1([H])[H])C([H])([H])C([H])([H])C([H])([H])N2C(=O)N1C([H])([H])C([H])([H])C([H])([H])C([H])(n2nc(-c3c([H])c([H])c(Oc4c([H])c([H])c(F)c([H])c4F)c([H])c3[H])c(C(=O)N([H])[H])c2N([H])[H])C1([H])[H]

$$$$
86:0:0
     RDKit          3D

 96105  0  0  1  0  0  0  0  0999 V2000
  -28.6730  -23.6970   18.6430 C   0  0  0  0  0  3  0  0  0  0  0  0
  -29.2380  -21.2990   18.6080 C   0  0  0  0  0  3  0  0  0  0  0  0
  -29.2840  -22.5380   20.7070 C   0  0  0  0  0  0  0  0  0  0  0  0
  -28.8440  -22.4820   17.9440 C   0  0  0  0  0  0  0  0  0  0  0  0
  -28.8830  -23.7800   20.0320 C   0  0  0  0  0  0  0  0  0  0  0  0
  -29.4880  -21.2710   20.0000 C   0  0  0  0  0  0  0  0  0  0  0  0
  -28.6020  -22.4380   16.4480 C   0  0  0  0  0  1  0  0  0  0  0  0
  -28.7620  -21.4190   22.9890 C   0  0  0  0  0  2  0  0  0  0  0  0
  -29.8050  -20.7920   23.9230 C   0  0  0  0  0  2  0  0  0  0  0  0
  -30.9570  -22.4830   22.6620 C   0  0  0  0  0  2  0  0  0  0  0  0
  -29.4850  -22.5500   22.2270 C   0  0  0  0  0  3  0  0  0  0  0  0
  -30.9180  -21.8370   24.0490 C   0  0  0  0  0  3  0  0  0  0  0  0
  -32.2630  -21.2550   24.5010 C   0  0  0  0  0  1  0  0  0  0  0  0
  -28.5830  -25.1840   20.7430 C   0  0  0  0  0  2  0  0  0  0  0  0
  -28.6380  -26.4970   20.0170 O   0  0  0  0  0  0  0  0  0  0  0  0
  -24.6500  -31.7460   23.1020 C   0  0  0  0  0  0  0  0  0  0  0  0
  -27.4960  -27.3240   20.0290 C   0  0  0  0  0  0  0  0  0  0  0  0
  -23.5290  -30.3150   21.4330 C   0  0  0  0  0  3  0  0  0  0  0  0
  -25.0650  -28.8450   20.0060 C   0  0  0  0  0  0  0  0  0  0  0  0
  -26.0550  -30.7480   21.2790 C   0  0  0  0  0  2  0  0  0  0  0  0
  -26.2060  -29.3790   20.6170 C   0  0  0  0  0  0  0  0  0  0  0  0
  -27.4290  -28.6340   20.6120 C   0  0  0  0  0  3  0  0  0  0  0  0
  -26.3310  -26.8460   19.3990 C   0  0  0  0  0  3  0  0  0  0  0  0
  -25.1300  -27.5860   19.3850 C   0  0  0  0  0  3  0  0  0  0  0  0
  -23.7890  -29.6650   20.0480 C   0  0  0  0  0  2  0  0  0  0  0  0
  -24.7620  -30.9560   21.9950 N   0  0  0  0  0  0  0  0  0  0  0  0
  -23.5490  -31.9660   23.6300 O   0  0  0  0  0  0  0  0  0  0  0  0
  -22.9020  -29.2590   22.3750 C   0  0  0  0  0  0  0  0  0  0  0  0
  -21.5840  -29.0340   22.2440 N   0  0  0  0  0  0  0  0  0  0  0  0
  -23.6040  -28.6450   23.1840 O   0  0  0  0  0  0  0  0  0  0  0  0
  -21.0750  -29.5840   21.5680 H   0  0  0  0  0  0  0  0  0  0  0  0
  -18.2560  -27.6930   22.7170 C   0  0  0  0  0  0  0  0  0  0  0  0
  -20.8020  -28.0510   22.9970 C   0  0  0  0  0  3  0  0  0  0  0  0
  -20.9620  -26.6340   22.3980 C   0  0  0  0  0  2  0  0  0  0  0  0
  -19.8750  -26.2850   21.3760 C   0  0  0  0  0  2  0  0  0  0  0  0
  -18.4880  -26.3630   22.0190 C   0  0  0  0  0  2  0  0  0  0  0  0
  -19.3430  -28.4920   23.1620 C   0  0  0  0  0  0  0  0  0  0  0  0
  -19.0710  -29.7340   23.7760 C   0  0  0  0  0  3  0  0  0  0  0  0
  -17.7470  -30.1780   23.9500 C   0  0  0  0  0  3  0  0  0  0  0  0
  -16.6750  -29.3770   23.5200 C   0  0  0  0  0  3  0  0  0  0  0  0
  -16.9310  -28.1360   22.9090 C   0  0  0  0  0  3  0  0  0  0  0  0
  -25.8940  -32.4310   23.7470 C   0  0  0  0  0  3  0  0  0  0  0  0
  -25.5140  -33.8070   24.1000 N   0  0  0  0  0  0  0  0  0  0  0  0
  -25.7960  -34.8900   23.3630 C   0  0  0  0  0  0  0  0  0  0  0  0
  -26.4720  -34.8380   22.3320 O   0  0  0  0  0  0  0  0  0  0  0  0
  -24.9130  -33.9160   24.9030 H   0  0  0  0  0  0  0  0  0  0  0  0
  -23.9760  -36.5970   23.0430 C   0  0  0  0  0  1  0  0  0  0  0  0
  -25.2390  -36.2430   23.8440 C   0  0  0  0  0  3  0  0  0  0  0  0
  -27.3310  -37.2200   24.6800 C   0  0  0  0  0  1  0  0  0  0  0  0
  -26.2160  -37.3510   23.7460 N   0  0  0  0  0  0  0  0  0  0  0  0
  -25.7640  -38.2460   23.9140 H   0  0  0  0  0  0  0  0  0  0  0  0
  -26.4380  -31.6650   25.0160 C   0  0  1  0  0  0  0  0  0  0  0  0
  -25.3500  -31.3630   26.0740 C   0  0  0  0  0  1  0  0  0  0  0  0
  -27.0840  -30.3210   24.6080 C   0  0  0  0  0  1  0  0  0  0  0  0
  -27.5470  -32.5000   25.6960 C   0  0  0  0  0  1  0  0  0  0  0  0
  -29.9520  -20.0720   20.6370 O   0  0  0  0  0  0  0  0  0  0  0  0
  -29.8340  -18.6820   20.0850 C   0  0  0  0  0  2  0  0  0  0  0  0
  -30.6340  -17.4770   20.8230 C   0  0  0  0  0  2  0  0  0  0  0  0
  -31.0070  -14.8660   20.4970 C   0  0  0  0  0  0  0  0  0  0  0  0
  -30.8190  -12.5480   19.5740 C   0  0  0  0  0  2  0  0  0  0  0  0
  -29.9290  -12.5660   18.3110 C   0  0  0  0  0  2  0  0  0  0  0  0
  -28.4400  -12.4400   18.6890 C   0  0  0  0  0  2  0  0  0  0  0  0
  -28.0330  -13.3980   19.8410 C   0  0  0  0  0  3  0  0  0  0  0  0
  -29.0410  -13.3440   21.0080 C   0  0  0  0  0  2  0  0  0  0  0  0
  -30.3650  -13.6510   20.4490 N   0  0  0  0  0  0  0  0  0  0  0  0
  -32.2110  -14.9430   20.2400 O   0  0  0  0  0  0  0  0  0  0  0  0
  -30.2360  -16.0080   20.6410 N   0  0  0  0  0  0  0  0  0  0  0  0
  -29.2510  -15.8230   20.7500 H   0  0  0  0  0  0  0  0  0  0  0  0
  -25.6460  -14.0800   20.4880 C   0  0  0  0  0  0  0  0  0  0  0  0
  -24.5410  -13.3470   20.8230 C   0  0  0  0  0  0  0  0  0  0  0  0
  -24.9560  -11.9790   20.8110 C   0  0  0  0  0  0  0  0  0  0  0  0
  -26.6640  -13.1620   20.2880 N   0  0  0  0  0  0  0  0  0  0  0  0
  -26.2530  -11.8940   20.5460 N   0  0  0  0  0  0  0  0  0  0  0  0
  -24.1770  -10.7450   20.9770 C   0  0  0  0  0  0  0  0  0  0  0  0
  -24.5520   -9.7560   21.9140 C   0  0  0  0  0  3  0  0  0  0  0  0
  -23.7760   -8.5870   22.0670 C   0  0  0  0  0  3  0  0  0  0  0  0
  -22.6130   -8.3990   21.2850 C   0  0  0  0  0  0  0  0  0  0  0  0
  -22.2570   -9.3750   20.3390 C   0  0  0  0  0  3  0  0  0  0  0  0
  -23.0330  -10.5360   20.1820 C   0  0  0  0  0  3  0  0  0  0  0  0
  -21.8120   -7.2840   21.3500 O   0  0  0  0  0  0  0  0  0  0  0  0
  -21.7020   -6.5410   22.4980 C   0  0  0  0  0  0  0  0  0  0  0  0
  -21.2890   -7.1160   23.7200 C   0  0  0  0  0  3  0  0  0  0  0  0
  -21.1230   -6.3040   24.8590 C   0  0  0  0  0  3  0  0  0  0  0  0
  -21.3580   -4.9180   24.7780 C   0  0  0  0  0  0  0  0  0  0  0  0
  -21.7640   -4.3440   23.5610 C   0  0  0  0  0  3  0  0  0  0  0  0
  -21.9320   -5.1530   22.4230 C   0  0  0  0  0  0  0  0  0  0  0  0
  -22.3030   -4.5910   21.2480 F   0  0  0  0  0  0  0  0  0  0  0  0
  -21.1920   -4.1370   25.8700 F   0  0  0  0  0  0  0  0  0  0  0  0
  -23.1530  -13.8750   21.0440 C   0  0  0  0  0  0  0  0  0  0  0  0
  -22.3760  -13.2170   21.8980 N   0  0  0  0  0  0  0  0  0  0  0  0
  -22.7670  -14.9060   20.4940 O   0  0  0  0  0  0  0  0  0  0  0  0
  -22.7010  -12.3830   22.3640 H   0  0  0  0  0  0  0  0  0  0  0  0
  -21.4430  -13.5540   22.0890 H   0  0  0  0  0  0  0  0  0  0  0  0
  -25.8640  -15.4440   20.3110 N   0  0  0  0  0  0  0  0  0  0  0  0
  -25.1130  -16.1200   20.3880 H   0  0  0  0  0  0  0  0  0  0  0  0
  -26.7270  -15.8490   19.9730 H   0  0  0  0  0  0  0  0  0  0  0  0
  1  5  1  0
  2  6  2  0
  4  2  1  0
  4  1  2  0
  5  3  2  0
  5 14  1  0
  6 56  1  0
  6  3  1  0
  7  4  1  0
  8  9  1  0
  9 12  1  0
 10 12  1  0
 11  3  1  0
 11 10  1  0
 11  8  1  0
 12 13  1  0
 15 17  1  0
 15 14  1  0
 16 27  2  0
 17 22  1  0
 18 26  1  0
 18 28  1  0
 19 25  1  0
 19 21  1  0
 20 26  1  0
 21 20  1  0
 22 21  2  0
 23 17  2  0
 24 23  1  0
 24 19  2  0
 25 18  1  0
 26 16  1  0
 28 30  2  0
 29 28  1  0
 31 29  1  0
 32 41  2  0
 32 37  1  0
 33 29  1  0
 33 37  1  0
 34 33  1  0
 35 36  1  0
 35 34  1  0
 36 32  1  0
 37 38  2  0
 38 39  1  0
 40 39  2  0
 41 40  1  0
 42 16  1  0
 42 43  1  0
 42 52  1  0
 43 46  1  0
 44 48  1  0
 44 43  1  0
 45 44  2  0
 48 47  1  0
 50 48  1  0
 50 51  1  0
 50 49  1  0
 52 55  1  1
 52 53  1  0
 54 52  1  0
 57 56  1  0
 57 58  1  0
 59 67  1  0
 60 65  1  0
 61 62  1  0
 61 60  1  0
 63 62  1  0
 63 72  1  0
 63 64  1  0
 65 59  1  0
 65 64  1  0
 66 59  2  0
 67 68  1  0
 67 58  1  0
 69 70  2  0
 70 89  1  0
 71 70  1  0
 71 74  1  0
 72 69  1  0
 72 73  1  0
 73 71  2  0
 74 75  1  0
 75 76  2  0
 77 80  1  0
 77 76  1  0
 78 77  2  0
 79 78  1  0
 79 74  2  0
 80 81  1  0
 81 82  1  0
 82 83  2  0
 84 83  1  0
 84 88  1  0
 85 84  2  0
 86 81  2  0
 86 85  1  0
 87 86  1  0
 89 90  1  0
 90 93  1  0
 90 92  1  0
 91 89  2  0
 94 95  1  0
 94 69  1  0
 96 94  1  0
M  ISO  4  14 101  15 101  59 100  67 100
M  END
>  <TORSDO>  (86) 
F 21

>  <SCORE>  (86) 
-11.269

>  <name>  (86) 
86

>  <ligand_id>  (86) 
86

>  <original_smiles>  (86) 
[H]c1c([H])c([H])c2c(c1[H])C([H])([H])C([H])([H])C([H])([H])C2([H])N([H])C(=O)C1([H])N(C(=O)C([H])(N([H])C(=O)C([H])(N([H])C([H])([H])[H])C([H])([H])[H])C(C([H])([H])[H])(C([H])([H])[H])C([H])([H])[H])C([H])([H])c2c([H])c(OC([H])([H])c3c([H])c(C([H])([H])[H])c([H])c(OC([H])([H])C([H])([H])N([H])C(=O)N4C([H])([H])C([H])([H])C([H])([H])C([H])(n5nc(-c6c([H])c([H])c(Oc7c([H])c([H])c(F)c([H])c7F)c([H])c6[H])c(C(=O)N([H])[H])c5N([H])[H])C4([H])[H])c3C3([H])C([H])([H])C([H])([H])C([H])(C([H])([H])[H])C3([H])[H])c([H])c([H])c2C1([H])[H]

>  <smiles>  (86) 
[H]c1c([H])c([H])c2c(c1[H])C([H])([H])C([H])([H])C([H])([H])C2([H])N([H])C(=O)C1([H])N(C(=O)C([H])(N([H])C(=O)C([H])(N([H])C([H])([H])[H])C([H])([H])[H])C(C([H])([H])[H])(C([H])([H])[H])C([H])([H])[H])C([H])([H])c2c([H])c(OC([H])([H])c3c([H])c(C([H])([H])[H])c([H])c(OC([H])([H])C([H])([H])N([H])C(=O)N4C([H])([H])C([H])([H])C([H])([H])C([H])(n5nc(-c6c([H])c([H])c(Oc7c([H])c([H])c(F)c([H])c7F)c([H])c6[H])c(C(=O)N([H])[H])c5N([H])[H])C4([H])[H])c3C3([H])C([H])([H])C([H])([H])C([H])(C([H])([H])[H])C3([H])[H])c([H])c([H])c2C1([H])[H]

$$$$
87:0:0
     RDKit          3D

 94103  0  0  1  0  0  0  0  0999 V2000
  -29.9800  -23.2120   20.4400 C   0  0  0  0  0  3  0  0  0  0  0  0
  -28.1780  -22.4330   19.1160 C   0  0  0  0  0  3  0  0  0  0  0  0
  -28.8320  -23.5540   19.6900 C   0  0  0  0  0  0  0  0  0  0  0  0
  -30.4170  -21.8430   20.5810 C   0  0  0  0  0  0  0  0  0  0  0  0
  -28.5920  -21.0700   19.2500 C   0  0  0  0  0  0  0  0  0  0  0  0
  -29.7640  -20.6970   19.9910 C   0  0  0  0  0  0  0  0  0  0  0  0
  -31.6720  -21.6070   21.4050 C   0  0  0  0  0  1  0  0  0  0  0  0
  -29.8850  -18.3710   21.2030 C   0  0  0  0  0  2  0  0  0  0  0  0
  -30.3190  -18.2500   19.1830 C   0  0  0  0  0  2  0  0  0  0  0  0
  -30.6520  -17.2870   20.3720 C   0  0  0  0  0  3  0  0  0  0  0  0
  -30.3430  -19.3410   20.1850 N   0  0  0  0  0  0  0  0  0  0  0  0
  -30.8060  -14.7140   20.0470 C   0  0  0  0  0  0  0  0  0  0  0  0
  -30.4910  -12.4510   19.0480 C   0  0  0  0  0  2  0  0  0  0  0  0
  -29.5100  -12.5400   17.8600 C   0  0  0  0  0  2  0  0  0  0  0  0
  -28.0560  -12.3990   18.3470 C   0  0  0  0  0  2  0  0  0  0  0  0
  -27.7440  -13.3060   19.5680 C   0  0  0  0  0  3  0  0  0  0  0  0
  -28.8440  -13.2090   20.6500 C   0  0  0  0  0  2  0  0  0  0  0  0
  -30.1260  -13.5190   20.0050 N   0  0  0  0  0  0  0  0  0  0  0  0
  -31.9690  -14.7830   19.6450 O   0  0  0  0  0  0  0  0  0  0  0  0
  -30.1150  -15.8650   20.3580 N   0  0  0  0  0  0  0  0  0  0  0  0
  -29.1500  -15.7430   20.6260 H   0  0  0  0  0  0  0  0  0  0  0  0
  -25.4030  -13.9430   20.4040 C   0  0  0  0  0  0  0  0  0  0  0  0
  -24.3350  -13.1890   20.8060 C   0  0  0  0  0  0  0  0  0  0  0  0
  -24.7610  -11.8270   20.7330 C   0  0  0  0  0  0  0  0  0  0  0  0
  -26.4150  -13.0430   20.1100 N   0  0  0  0  0  0  0  0  0  0  0  0
  -26.0370  -11.7640   20.3700 N   0  0  0  0  0  0  0  0  0  0  0  0
  -24.0110  -10.5800   20.9310 C   0  0  0  0  0  0  0  0  0  0  0  0
  -24.4340   -9.6020   21.8580 C   0  0  0  0  0  3  0  0  0  0  0  0
  -23.6860   -8.4210   22.0440 C   0  0  0  0  0  3  0  0  0  0  0  0
  -22.4980   -8.2080   21.3040 C   0  0  0  0  0  0  0  0  0  0  0  0
  -22.0930   -9.1740   20.3660 C   0  0  0  0  0  3  0  0  0  0  0  0
  -22.8430  -10.3480   20.1780 C   0  0  0  0  0  3  0  0  0  0  0  0
  -21.7200   -7.0790   21.4010 O   0  0  0  0  0  0  0  0  0  0  0  0
  -21.6310   -6.3640   22.5690 C   0  0  0  0  0  0  0  0  0  0  0  0
  -21.1940   -6.9550   23.7740 C   0  0  0  0  0  3  0  0  0  0  0  0
  -21.0520   -6.1670   24.9340 C   0  0  0  0  0  3  0  0  0  0  0  0
  -21.3360   -4.7900   24.8880 C   0  0  0  0  0  0  0  0  0  0  0  0
  -21.7670   -4.1980   23.6880 C   0  0  0  0  0  3  0  0  0  0  0  0
  -21.9110   -4.9830   22.5310 C   0  0  0  0  0  0  0  0  0  0  0  0
  -22.3060   -4.4040   21.3710 F   0  0  0  0  0  0  0  0  0  0  0  0
  -21.1930   -4.0310   26.0010 F   0  0  0  0  0  0  0  0  0  0  0  0
  -22.9620  -13.6960   21.1420 C   0  0  0  0  0  0  0  0  0  0  0  0
  -22.2570  -13.0080   22.0340 N   0  0  0  0  0  0  0  0  0  0  0  0
  -22.5260  -14.7360   20.6500 O   0  0  0  0  0  0  0  0  0  0  0  0
  -22.6240  -12.1660   22.4530 H   0  0  0  0  0  0  0  0  0  0  0  0
  -21.3380  -13.3290   22.3030 H   0  0  0  0  0  0  0  0  0  0  0  0
  -25.5930  -15.3120   20.2400 N   0  0  0  0  0  0  0  0  0  0  0  0
  -24.8410  -15.9780   20.3840 H   0  0  0  0  0  0  0  0  0  0  0  0
  -26.4240  -15.7330   19.8490 H   0  0  0  0  0  0  0  0  0  0  0  0
  -27.9320  -20.0720   17.0130 C   0  0  0  0  0  1  0  0  0  0  0  0
  -26.2370  -20.1530   18.9090 C   0  0  0  0  0  1  0  0  0  0  0  0
  -27.7240  -20.0290   18.5360 C   0  0  0  0  0  3  0  0  0  0  0  0
  -28.2450  -24.9840   19.3180 C   0  0  0  0  0  2  0  0  0  0  0  0
  -28.5270  -26.3440   19.8960 O   0  0  0  0  0  0  0  0  0  0  0  0
  -24.6180  -31.6120   23.0600 C   0  0  0  0  0  0  0  0  0  0  0  0
  -27.4350  -27.2580   19.8280 C   0  0  0  0  0  0  0  0  0  0  0  0
  -23.4960  -30.2500   21.3400 C   0  0  0  0  0  3  0  0  0  0  0  0
  -25.0260  -28.8400   19.8600 C   0  0  0  0  0  0  0  0  0  0  0  0
  -26.0340  -30.6530   21.2260 C   0  0  0  0  0  2  0  0  0  0  0  0
  -26.1730  -29.3110   20.5110 C   0  0  0  0  0  0  0  0  0  0  0  0
  -27.3780  -28.5300   20.4970 C   0  0  0  0  0  3  0  0  0  0  0  0
  -26.2630  -26.8960   19.1130 C   0  0  0  0  0  3  0  0  0  0  0  0
  -25.0770  -27.6390   19.1510 C   0  0  0  0  0  3  0  0  0  0  0  0
  -23.7580  -29.6640   19.9320 C   0  0  0  0  0  2  0  0  0  0  0  0
  -24.7330  -30.8540   21.9310 N   0  0  0  0  0  0  0  0  0  0  0  0
  -23.5140  -31.8240   23.5850 O   0  0  0  0  0  0  0  0  0  0  0  0
  -22.8580  -29.1600   22.2350 C   0  0  0  0  0  0  0  0  0  0  0  0
  -21.5330  -28.9710   22.1130 N   0  0  0  0  0  0  0  0  0  0  0  0
  -23.5560  -28.4900   23.0040 O   0  0  0  0  0  0  0  0  0  0  0  0
  -21.0280  -29.5650   21.4710 H   0  0  0  0  0  0  0  0  0  0  0  0
  -18.1690  -27.7390   22.6320 C   0  0  0  0  0  0  0  0  0  0  0  0
  -20.7360  -27.9750   22.8340 C   0  0  0  0  0  3  0  0  0  0  0  0
  -20.8140  -26.5940   22.1440 C   0  0  0  0  0  2  0  0  0  0  0  0
  -19.6770  -26.3540   21.1450 C   0  0  0  0  0  2  0  0  0  0  0  0
  -18.3180  -26.4490   21.8440 C   0  0  0  0  0  2  0  0  0  0  0  0
  -19.3040  -28.4640   23.0820 C   0  0  0  0  0  0  0  0  0  0  0  0
  -19.1080  -29.6750   23.7810 C   0  0  0  0  0  3  0  0  0  0  0  0
  -17.8120  -30.1620   24.0300 C   0  0  0  0  0  3  0  0  0  0  0  0
  -16.6920  -29.4340   23.5950 C   0  0  0  0  0  3  0  0  0  0  0  0
  -16.8710  -28.2240   22.9010 C   0  0  0  0  0  3  0  0  0  0  0  0
  -25.8640  -32.2650   23.7310 C   0  0  0  0  0  3  0  0  0  0  0  0
  -26.3660  -31.4790   25.0030 C   0  0  1  0  0  0  0  0  0  0  0  0
  -25.2520  -31.1890   26.0350 C   0  0  0  0  0  1  0  0  0  0  0  0
  -26.9950  -30.1240   24.5990 C   0  0  0  0  0  1  0  0  0  0  0  0
  -27.4790  -32.2880   25.7110 C   0  0  0  0  0  1  0  0  0  0  0  0
  -25.5030  -33.6450   24.0850 N   0  0  0  0  0  0  0  0  0  0  0  0
  -25.8170  -34.7270   23.3580 C   0  0  0  0  0  0  0  0  0  0  0  0
  -26.5100  -34.6670   22.3390 O   0  0  0  0  0  0  0  0  0  0  0  0
  -24.8900  -33.7630   24.8780 H   0  0  0  0  0  0  0  0  0  0  0  0
  -24.0360  -36.4700   23.0170 C   0  0  0  0  0  1  0  0  0  0  0  0
  -25.2780  -36.0870   23.8380 C   0  0  0  0  0  3  0  0  0  0  0  0
  -27.3700  -37.0230   24.7210 C   0  0  0  0  0  1  0  0  0  0  0  0
  -26.2770  -37.1760   23.7640 N   0  0  0  0  0  0  0  0  0  0  0  0
  -25.8390  -38.0790   23.9250 H   0  0  0  0  0  0  0  0  0  0  0  0
  1  4  1  0
  2  5  2  0
  2  3  1  0
  3  1  2  0
  4  7  1  0
  5  6  1  0
  6 11  1  0
  6  4  2  0
  9 11  1  0
  9 10  1  0
 10 20  1  0
 10  8  1  0
 11  8  1  0
 12 20  1  0
 13 18  1  0
 14 15  1  0
 14 13  1  0
 16 15  1  0
 16 25  1  0
 16 17  1  0
 18 12  1  0
 18 17  1  0
 19 12  2  0
 20 21  1  0
 22 23  2  0
 23 42  1  0
 24 23  1  0
 24 27  1  0
 25 26  1  0
 25 22  1  0
 26 24  2  0
 27 28  1  0
 28 29  2  0
 30 33  1  0
 30 29  1  0
 31 30  2  0
 32 31  1  0
 32 27  2  0
 33 34  1  0
 34 35  1  0
 35 36  2  0
 37 36  1  0
 37 41  1  0
 38 37  2  0
 39 34  2  0
 39 38  1  0
 40 39  1  0
 42 43  1  0
 43 46  1  0
 43 45  1  0
 44 42  2  0
 47 48  1  0
 47 22  1  0
 49 47  1  0
 50 52  1  0
 52 51  1  0
 52  5  1  0
 53  3  1  0
 53 54  1  0
 55 66  2  0
 56 54  1  0
 56 61  1  0
 57 65  1  0
 57 67  1  0
 58 64  1  0
 58 60  1  0
 59 65  1  0
 60 59  1  0
 61 60  2  0
 62 63  1  0
 62 56  2  0
 63 58  2  0
 64 57  1  0
 65 55  1  0
 67 69  2  0
 68 67  1  0
 70 68  1  0
 71 80  2  0
 71 76  1  0
 72 68  1  0
 72 76  1  0
 73 72  1  0
 74 75  1  0
 74 73  1  0
 75 71  1  0
 76 77  2  0
 77 78  1  0
 79 78  2  0
 80 79  1  0
 81 55  1  0
 81 86  1  0
 81 82  1  0
 82 85  1  1
 82 83  1  0
 84 82  1  0
 86 89  1  0
 87 91  1  0
 87 86  1  0
 88 87  2  0
 91 90  1  0
 93 91  1  0
 93 94  1  0
 93 92  1  0
M  ISO  4  12 100  20 100  53 101  54 101
M  END
>  <TORSDO>  (87) 
F 19

>  <SCORE>  (87) 
-13.690

>  <name>  (87) 
87

>  <ligand_id>  (87) 
87

>  <original_smiles>  (87) 
[H]c1c([H])c([H])c2c(c1[H])C([H])([H])C([H])([H])C([H])([H])C2([H])N([H])C(=O)C1([H])N(C(=O)C([H])(N([H])C(=O)C([H])(N([H])C([H])([H])[H])C([H])([H])[H])C(C([H])([H])[H])(C([H])([H])[H])C([H])([H])[H])C([H])([H])c2c([H])c(OC([H])([H])c3c([H])c(C([H])([H])[H])c(N4C([H])([H])C([H])(N([H])C(=O)N5C([H])([H])C([H])([H])C([H])([H])C([H])(n6nc(-c7c([H])c([H])c(Oc8c([H])c([H])c(F)c([H])c8F)c([H])c7[H])c(C(=O)N([H])[H])c6N([H])[H])C5([H])[H])C4([H])[H])c(C([H])(C([H])([H])[H])C([H])([H])[H])c3[H])c([H])c([H])c2C1([H])[H]

>  <smiles>  (87) 
[H]c1c([H])c([H])c2c(c1[H])C([H])([H])C([H])([H])C([H])([H])C2([H])N([H])C(=O)C1([H])N(C(=O)C([H])(N([H])C(=O)C([H])(N([H])C([H])([H])[H])C([H])([H])[H])C(C([H])([H])[H])(C([H])([H])[H])C([H])([H])[H])C([H])([H])c2c([H])c(OC([H])([H])c3c([H])c(C([H])([H])[H])c(N4C([H])([H])C([H])(N([H])C(=O)N5C([H])([H])C([H])([H])C([H])([H])C([H])(n6nc(-c7c([H])c([H])c(Oc8c([H])c([H])c(F)c([H])c8F)c([H])c7[H])c(C(=O)N([H])[H])c6N([H])[H])C5([H])[H])C4([H])[H])c(C([H])(C([H])([H])[H])C([H])([H])[H])c3[H])c([H])c([H])c2C1([H])[H]

$$$$
88:0:0
     RDKit          3D

100110  0  0  1  0  0  0  0  0999 V2000
  -31.4930  -21.7460   18.9420 C   0  0  0  0  0  3  0  0  0  0  0  0
  -30.6100  -22.4800   21.0790 C   0  0  0  0  0  3  0  0  0  0  0  0
  -31.0720  -22.7910   19.7860 C   0  0  0  0  0  0  0  0  0  0  0  0
  -30.8530  -20.0840   20.6300 C   0  0  0  0  0  0  0  0  0  0  0  0
  -31.3820  -20.3910   19.3460 C   0  0  0  0  0  0  0  0  0  0  0  0
  -30.4980  -21.1370   21.5150 C   0  0  0  0  0  0  0  0  0  0  0  0
  -31.0310  -14.6160   20.2260 C   0  0  0  0  0  0  0  0  0  0  0  0
  -30.5830  -12.4910   19.0530 C   0  0  0  0  0  2  0  0  0  0  0  0
  -29.6150  -12.7110   17.8740 C   0  0  0  0  0  2  0  0  0  0  0  0
  -28.1560  -12.5700   18.3450 C   0  0  0  0  0  2  0  0  0  0  0  0
  -27.8570  -13.4190   19.6040 C   0  0  0  0  0  3  0  0  0  0  0  0
  -28.9460  -13.2390   20.6920 C   0  0  0  0  0  2  0  0  0  0  0  0
  -30.2640  -13.4950   20.0810 N   0  0  0  0  0  0  0  0  0  0  0  0
  -32.1640  -14.7030   19.7470 O   0  0  0  0  0  0  0  0  0  0  0  0
  -29.7650  -17.8850   19.9440 C   0  0  0  0  0  2  0  0  0  0  0  0
  -31.7680  -17.7780   21.4520 C   0  0  0  0  0  2  0  0  0  0  0  0
  -29.3910  -16.4480   20.3480 C   0  0  0  0  0  2  0  0  0  0  0  0
  -31.3110  -16.3760   21.9200 C   0  0  0  0  0  2  0  0  0  0  0  0
  -30.5530  -18.6240   21.0320 C   0  0  0  0  0  3  0  0  0  0  0  0
  -30.5060  -15.6600   20.9130 N   0  0  0  0  0  0  0  0  0  0  0  0
  -25.5160  -14.1150   20.3930 C   0  0  0  0  0  0  0  0  0  0  0  0
  -24.4270  -13.3770   20.7620 C   0  0  0  0  0  0  0  0  0  0  0  0
  -24.8350  -12.0100   20.6870 C   0  0  0  0  0  0  0  0  0  0  0  0
  -26.5170  -13.1940   20.1160 N   0  0  0  0  0  0  0  0  0  0  0  0
  -26.1140  -11.9250   20.3560 N   0  0  0  0  0  0  0  0  0  0  0  0
  -24.0680  -10.7720   20.8520 C   0  0  0  0  0  0  0  0  0  0  0  0
  -24.5040   -9.7470   21.7170 C   0  0  0  0  0  3  0  0  0  0  0  0
  -23.7370   -8.5730   21.8730 C   0  0  0  0  0  3  0  0  0  0  0  0
  -22.5230   -8.4210   21.1640 C   0  0  0  0  0  0  0  0  0  0  0  0
  -22.1090   -9.4350   20.2830 C   0  0  0  0  0  3  0  0  0  0  0  0
  -22.8750  -10.6000   20.1260 C   0  0  0  0  0  3  0  0  0  0  0  0
  -21.7240   -7.3050   21.2360 O   0  0  0  0  0  0  0  0  0  0  0  0
  -21.7190   -6.4990   22.3460 C   0  0  0  0  0  0  0  0  0  0  0  0
  -21.4030   -6.9960   23.6300 C   0  0  0  0  0  3  0  0  0  0  0  0
  -21.3360   -6.1160   24.7280 C   0  0  0  0  0  3  0  0  0  0  0  0
  -21.5820   -4.7420   24.5470 C   0  0  0  0  0  0  0  0  0  0  0  0
  -21.8970   -4.2450   23.2690 C   0  0  0  0  0  3  0  0  0  0  0  0
  -21.9620   -5.1210   22.1720 C   0  0  0  0  0  0  0  0  0  0  0  0
  -22.2420   -4.6330   20.9400 F   0  0  0  0  0  0  0  0  0  0  0  0
  -21.5120   -3.8950   25.6020 F   0  0  0  0  0  0  0  0  0  0  0  0
  -23.0540  -13.8990   21.0700 C   0  0  0  0  0  0  0  0  0  0  0  0
  -22.3310  -13.2210   21.9530 N   0  0  0  0  0  0  0  0  0  0  0  0
  -22.6370  -14.9400   20.5670 O   0  0  0  0  0  0  0  0  0  0  0  0
  -22.6860  -12.3770   22.3810 H   0  0  0  0  0  0  0  0  0  0  0  0
  -21.4100  -13.5500   22.2030 H   0  0  0  0  0  0  0  0  0  0  0  0
  -25.7240  -15.4850   20.2440 N   0  0  0  0  0  0  0  0  0  0  0  0
  -24.9790  -16.1590   20.3830 H   0  0  0  0  0  0  0  0  0  0  0  0
  -26.5730  -15.9050   19.8890 H   0  0  0  0  0  0  0  0  0  0  0  0
  -31.3100  -25.2820   20.3660 C   0  0  0  0  0  2  0  0  0  0  0  0
  -29.6640  -24.4870   18.5820 C   0  0  0  0  0  2  0  0  0  0  0  0
  -31.1210  -26.7250   19.8520 C   0  0  0  0  0  2  0  0  0  0  0  0
  -29.4940  -25.9380   18.0980 C   0  0  0  0  0  2  0  0  0  0  0  0
  -31.0230  -24.2300   19.2710 C   0  0  0  0  0  3  0  0  0  0  0  0
  -29.7240  -26.9510   19.2340 C   0  0  0  0  0  3  0  0  0  0  0  0
  -28.7540  -26.7790   20.2660 O   0  0  0  0  0  0  0  0  0  0  0  0
  -24.7400  -31.7090   23.4120 C   0  0  0  0  0  0  0  0  0  0  0  0
  -27.5970  -27.5180   20.1940 C   0  0  0  0  0  0  0  0  0  0  0  0
  -23.6200  -30.3760   21.6530 C   0  0  0  0  0  3  0  0  0  0  0  0
  -25.1580  -28.9440   20.2010 C   0  0  0  0  0  0  0  0  0  0  0  0
  -26.1400  -30.7990   21.5690 C   0  0  0  0  0  2  0  0  0  0  0  0
  -26.2800  -29.4720   20.8530 C   0  0  0  0  0  0  0  0  0  0  0  0
  -27.5020  -28.7630   20.8540 C   0  0  0  0  0  3  0  0  0  0  0  0
  -26.4570  -26.9870   19.5580 C   0  0  0  0  0  3  0  0  0  0  0  0
  -25.2400  -27.6980   19.5520 C   0  0  0  0  0  3  0  0  0  0  0  0
  -23.8890  -29.7650   20.2510 C   0  0  0  0  0  2  0  0  0  0  0  0
  -24.8490  -30.9720   22.2710 N   0  0  0  0  0  0  0  0  0  0  0  0
  -23.6350  -31.9330   23.9280 O   0  0  0  0  0  0  0  0  0  0  0  0
  -22.9480  -29.2980   22.5370 C   0  0  0  0  0  0  0  0  0  0  0  0
  -21.6310  -29.1120   22.3550 N   0  0  0  0  0  0  0  0  0  0  0  0
  -23.6100  -28.6350   23.3390 O   0  0  0  0  0  0  0  0  0  0  0  0
  -21.1570  -29.6960   21.6820 H   0  0  0  0  0  0  0  0  0  0  0  0
  -18.2600  -27.8550   22.6720 C   0  0  0  0  0  0  0  0  0  0  0  0
  -20.8030  -28.1250   23.0450 C   0  0  0  0  0  3  0  0  0  0  0  0
  -20.9450  -26.7290   22.3920 C   0  0  0  0  0  2  0  0  0  0  0  0
  -19.8830  -26.4520   21.3230 C   0  0  0  0  0  2  0  0  0  0  0  0
  -18.4770  -26.5490   21.9250 C   0  0  0  0  0  2  0  0  0  0  0  0
  -19.3540  -28.6040   23.1820 C   0  0  0  0  0  0  0  0  0  0  0  0
  -19.1000  -29.8270   23.8360 C   0  0  0  0  0  3  0  0  0  0  0  0
  -17.7860  -30.3100   23.9780 C   0  0  0  0  0  3  0  0  0  0  0  0
  -16.7050  -29.5590   23.4830 C   0  0  0  0  0  3  0  0  0  0  0  0
  -16.9430  -28.3310   22.8420 C   0  0  0  0  0  3  0  0  0  0  0  0
  -25.9920  -32.3260   24.1140 C   0  0  0  0  0  3  0  0  0  0  0  0
  -26.4440  -31.5250   25.3980 C   0  0  1  0  0  0  0  0  0  0  0  0
  -25.2940  -31.2630   26.3990 C   0  0  0  0  0  1  0  0  0  0  0  0
  -27.0460  -30.1560   25.0050 C   0  0  0  0  0  1  0  0  0  0  0  0
  -27.5560  -32.3030   26.1420 C   0  0  0  0  0  1  0  0  0  0  0  0
  -25.6690  -33.7180   24.4600 N   0  0  0  0  0  0  0  0  0  0  0  0
  -26.0470  -34.7850   23.7440 C   0  0  0  0  0  0  0  0  0  0  0  0
  -26.7700  -34.7000   22.7460 O   0  0  0  0  0  0  0  0  0  0  0  0
  -25.0340  -33.8570   25.2330 H   0  0  0  0  0  0  0  0  0  0  0  0
  -24.3350  -36.5810   23.3410 C   0  0  0  0  0  1  0  0  0  0  0  0
  -25.5400  -36.1660   24.2010 C   0  0  0  0  0  3  0  0  0  0  0  0
  -27.6340  -37.0250   25.1520 C   0  0  0  0  0  1  0  0  0  0  0  0
  -26.5790  -37.2200   24.1610 N   0  0  0  0  0  0  0  0  0  0  0  0
  -26.1670  -38.1360   24.3140 H   0  0  0  0  0  0  0  0  0  0  0  0
  -31.8850  -19.5900   17.1270 C   0  0  0  0  0  1  0  0  0  0  0  0
  -31.7380  -19.3450   18.5190 O   0  0  0  0  0  0  0  0  0  0  0  0
  -30.0090  -20.8030   22.7620 O   0  0  0  0  0  0  0  0  0  0  0  0
  -29.9300  -21.0330   25.1400 C   0  0  0  0  0  1  0  0  0  0  0  0
  -30.0330  -21.7710   23.8030 C   0  0  0  0  0  2  0  0  0  0  0  0
  1  5  2  0
  1  3  1  0
  2  6  1  0
  3  2  2  0
  4  6  2  0
  5  4  1  0
  6 98  1  0
  7 20  1  0
  8 13  1  0
  9 10  1  0
  9  8  1  0
 11 10  1  0
 11 24  1  0
 11 12  1  0
 13  7  1  0
 13 12  1  0
 14  7  2  0
 15 17  1  0
 15 19  1  0
 16 18  1  0
 17 20  1  0
 19  4  1  0
 19 16  1  0
 20 18  1  0
 21 22  2  0
 22 41  1  0
 23 22  1  0
 23 26  1  0
 24 25  1  0
 24 21  1  0
 25 23  2  0
 26 27  1  0
 27 28  2  0
 29 32  1  0
 29 28  1  0
 30 29  2  0
 31 30  1  0
 31 26  2  0
 32 33  1  0
 33 34  1  0
 34 35  2  0
 36 35  1  0
 36 40  1  0
 37 36  2  0
 38 33  2  0
 38 37  1  0
 39 38  1  0
 41 42  1  0
 42 45  1  0
 42 44  1  0
 43 41  2  0
 46 47  1  0
 46 21  1  0
 48 46  1  0
 50 53  1  0
 51 49  1  0
 52 50  1  0
 52 54  1  0
 53  3  1  0
 53 49  1  0
 54 51  1  0
 54 55  1  0
 56 67  2  0
 57 55  1  0
 57 62  1  0
 58 66  1  0
 58 68  1  0
 59 65  1  0
 59 61  1  0
 60 66  1  0
 61 62  2  0
 61 60  1  0
 63 57  2  0
 64 63  1  0
 64 59  2  0
 65 58  1  0
 66 56  1  0
 68 70  2  0
 69 68  1  0
 71 69  1  0
 72 81  2  0
 72 77  1  0
 73 69  1  0
 73 77  1  0
 74 73  1  0
 75 76  1  0
 75 74  1  0
 76 72  1  0
 77 78  2  0
 78 79  1  0
 80 79  2  0
 81 80  1  0
 82 56  1  0
 82 87  1  0
 82 83  1  0
 83 86  1  1
 83 84  1  0
 85 83  1  0
 87 90  1  0
 88 92  1  0
 88 87  1  0
 89 88  2  0
 92 91  1  0
 94 92  1  0
 94 95  1  0
 94 93  1  0
 96 97  1  0
 97  5  1  0
 98100  1  0
100 99  1  0
M  ISO  4   7 100  20 100  54 101  55 101
M  END
>  <TORSDO>  (88) 
F 20

>  <SCORE>  (88) 
-13.219

>  <name>  (88) 
88

>  <ligand_id>  (88) 
88

>  <original_smiles>  (88) 
[H]c1c([H])c([H])c2c(c1[H])C([H])([H])C([H])([H])C([H])([H])C2([H])N([H])C(=O)C1([H])N(C(=O)C([H])(N([H])C(=O)C([H])(N([H])C([H])([H])[H])C([H])([H])[H])C(C([H])([H])[H])(C([H])([H])[H])C([H])([H])[H])C([H])([H])c2c([H])c(OC3([H])C([H])([H])C([H])([H])C([H])(c4c([H])c(OC([H])([H])[H])c(C5([H])C([H])([H])C([H])([H])N(C(=O)N6C([H])([H])C([H])([H])C([H])([H])C([H])(n7nc(-c8c([H])c([H])c(Oc9c([H])c([H])c(F)c([H])c9F)c([H])c8[H])c(C(=O)N([H])[H])c7N([H])[H])C6([H])[H])C([H])([H])C5([H])[H])c(OC([H])([H])C([H])([H])[H])c4[H])C([H])([H])C3([H])[H])c([H])c([H])c2C1([H])[H]

>  <smiles>  (88) 
[H]c1c([H])c([H])c2c(c1[H])C([H])([H])C([H])([H])C([H])([H])C2([H])N([H])C(=O)C1([H])N(C(=O)C([H])(N([H])C(=O)C([H])(N([H])C([H])([H])[H])C([H])([H])[H])C(C([H])([H])[H])(C([H])([H])[H])C([H])([H])[H])C([H])([H])c2c([H])c(OC3([H])C([H])([H])C([H])([H])C([H])(c4c([H])c(OC([H])([H])[H])c(C5([H])C([H])([H])C([H])([H])N(C(=O)N6C([H])([H])C([H])([H])C([H])([H])C([H])(n7nc(-c8c([H])c([H])c(Oc9c([H])c([H])c(F)c([H])c9F)c([H])c8[H])c(C(=O)N([H])[H])c7N([H])[H])C6([H])[H])C([H])([H])C5([H])[H])c(OC([H])([H])C([H])([H])[H])c4[H])C([H])([H])C3([H])[H])c([H])c([H])c2C1([H])[H]

$$$$
89:0:0
     RDKit          3D

 97106  0  0  1  0  0  0  0  0999 V2000
  -28.7170  -22.1170   19.9740 C   0  0  0  0  0  3  0  0  0  0  0  0
  -29.3070  -23.2710   19.3930 C   0  0  0  0  0  0  0  0  0  0  0  0
  -30.7230  -23.2560   19.2420 C   0  0  0  0  0  0  0  0  0  0  0  0
  -31.4550  -22.1930   19.8340 C   0  0  0  0  0  0  0  0  0  0  0  0
  -29.5160  -21.0270   20.3810 C   0  0  0  0  0  0  0  0  0  0  0  0
  -31.4470  -24.2880   18.3860 C   0  0  0  0  0  1  0  0  0  0  0  0
  -30.8550  -21.1030   20.3540 N   0  0  0  0  0  0  0  0  0  0  0  0
  -28.9430  -19.8180   20.8280 N   0  0  0  0  0  0  0  0  0  0  0  0
  -27.9300  -19.7900   20.8410 H   0  0  0  0  0  0  0  0  0  0  0  0
  -30.7130  -14.4280   20.0350 C   0  0  0  0  0  0  0  0  0  0  0  0
  -30.2940  -12.2820   18.9060 C   0  0  0  0  0  2  0  0  0  0  0  0
  -29.2810  -12.5150   17.7680 C   0  0  0  0  0  2  0  0  0  0  0  0
  -27.8370  -12.3950   18.2950 C   0  0  0  0  0  2  0  0  0  0  0  0
  -27.5950  -13.2180   19.5890 C   0  0  0  0  0  3  0  0  0  0  0  0
  -28.7220  -12.9970   20.6210 C   0  0  0  0  0  2  0  0  0  0  0  0
  -30.0000  -13.2720   19.9540 N   0  0  0  0  0  0  0  0  0  0  0  0
  -31.8600  -14.5290   19.5870 O   0  0  0  0  0  0  0  0  0  0  0  0
  -28.9360  -17.7090   19.4780 C   0  0  0  0  0  2  0  0  0  0  0  0
  -29.6760  -17.6190   21.8170 C   0  0  0  0  0  2  0  0  0  0  0  0
  -29.7410  -16.4270   19.1700 C   0  0  0  0  0  2  0  0  0  0  0  0
  -30.4640  -16.3100   21.5310 C   0  0  0  0  0  2  0  0  0  0  0  0
  -29.6200  -18.5290   20.5790 C   0  0  0  0  0  3  0  0  0  0  0  0
  -30.0120  -15.5560   20.3400 N   0  0  0  0  0  0  0  0  0  0  0  0
  -25.2710  -13.8380   20.4950 C   0  0  0  0  0  0  0  0  0  0  0  0
  -24.2150  -13.0710   20.9090 C   0  0  0  0  0  0  0  0  0  0  0  0
  -24.6450  -11.7130   20.7980 C   0  0  0  0  0  0  0  0  0  0  0  0
  -26.2780  -12.9480   20.1580 N   0  0  0  0  0  0  0  0  0  0  0  0
  -25.9100  -11.6630   20.3990 N   0  0  0  0  0  0  0  0  0  0  0  0
  -23.9080  -10.4580   20.9920 C   0  0  0  0  0  0  0  0  0  0  0  0
  -24.3440   -9.4800   21.9130 C   0  0  0  0  0  3  0  0  0  0  0  0
  -23.6070   -8.2890   22.0950 C   0  0  0  0  0  3  0  0  0  0  0  0
  -22.4190   -8.0700   21.3550 C   0  0  0  0  0  0  0  0  0  0  0  0
  -22.0040   -9.0360   20.4230 C   0  0  0  0  0  3  0  0  0  0  0  0
  -22.7400  -10.2180   20.2390 C   0  0  0  0  0  3  0  0  0  0  0  0
  -21.6530   -6.9340   21.4490 O   0  0  0  0  0  0  0  0  0  0  0  0
  -21.5640   -6.2180   22.6170 C   0  0  0  0  0  0  0  0  0  0  0  0
  -21.0940   -6.8010   23.8140 C   0  0  0  0  0  3  0  0  0  0  0  0
  -20.9540   -6.0110   24.9720 C   0  0  0  0  0  3  0  0  0  0  0  0
  -21.2730   -4.6410   24.9350 C   0  0  0  0  0  0  0  0  0  0  0  0
  -21.7360   -4.0580   23.7410 C   0  0  0  0  0  3  0  0  0  0  0  0
  -21.8780   -4.8450   22.5840 C   0  0  0  0  0  0  0  0  0  0  0  0
  -22.3040   -4.2740   21.4320 F   0  0  0  0  0  0  0  0  0  0  0  0
  -21.1310   -3.8800   26.0440 F   0  0  0  0  0  0  0  0  0  0  0  0
  -22.8500  -13.5640   21.2960 C   0  0  0  0  0  0  0  0  0  0  0  0
  -22.1760  -12.8550   22.1940 N   0  0  0  0  0  0  0  0  0  0  0  0
  -22.3950  -14.6110   20.8380 O   0  0  0  0  0  0  0  0  0  0  0  0
  -22.5570  -12.0070   22.5870 H   0  0  0  0  0  0  0  0  0  0  0  0
  -21.2620  -13.1660   22.4940 H   0  0  0  0  0  0  0  0  0  0  0  0
  -25.4530  -15.2100   20.3570 N   0  0  0  0  0  0  0  0  0  0  0  0
  -24.7170  -15.8800   20.5510 H   0  0  0  0  0  0  0  0  0  0  0  0
  -26.3050  -15.6430   20.0220 H   0  0  0  0  0  0  0  0  0  0  0  0
  -33.5620  -21.2610   18.7620 C   0  0  0  0  0  1  0  0  0  0  0  0
  -33.5100  -21.7360   21.2670 C   0  0  0  0  0  1  0  0  0  0  0  0
  -32.9870  -22.1470   19.8790 C   0  0  0  0  0  3  0  0  0  0  0  0
  -28.3650  -24.3560   18.8100 C   0  0  0  0  0  2  0  0  0  0  0  0
  -28.6780  -25.8950   18.8830 C   0  0  0  0  0  2  0  0  0  0  0  0
  -28.3570  -26.6300   20.0760 O   0  0  0  0  0  0  0  0  0  0  0  0
  -24.6050  -31.8590   23.1720 C   0  0  0  0  0  0  0  0  0  0  0  0
  -27.1920  -27.3770   20.0750 C   0  0  0  0  0  0  0  0  0  0  0  0
  -23.3800  -30.4660   21.5390 C   0  0  0  0  0  3  0  0  0  0  0  0
  -24.8120  -28.9140   20.1070 C   0  0  0  0  0  0  0  0  0  0  0  0
  -25.9100  -30.7950   21.3340 C   0  0  0  0  0  2  0  0  0  0  0  0
  -25.9780  -29.4210   20.6960 C   0  0  0  0  0  0  0  0  0  0  0  0
  -27.1670  -28.6520   20.6890 C   0  0  0  0  0  3  0  0  0  0  0  0
  -26.0020  -26.8870   19.4910 C   0  0  0  0  0  3  0  0  0  0  0  0
  -24.8180  -27.6450   19.5090 C   0  0  0  0  0  3  0  0  0  0  0  0
  -23.5780  -29.7850   20.1580 C   0  0  0  0  0  2  0  0  0  0  0  0
  -24.6500  -31.0550   22.0720 N   0  0  0  0  0  0  0  0  0  0  0  0
  -23.5280  -32.1400   23.7160 O   0  0  0  0  0  0  0  0  0  0  0  0
  -22.7260  -29.4490   22.5020 C   0  0  0  0  0  0  0  0  0  0  0  0
  -21.4020  -29.2650   22.3700 N   0  0  0  0  0  0  0  0  0  0  0  0
  -23.4060  -28.8300   23.3250 O   0  0  0  0  0  0  0  0  0  0  0  0
  -20.9140  -29.8170   21.6770 H   0  0  0  0  0  0  0  0  0  0  0  0
  -18.0300  -28.0560   22.8440 C   0  0  0  0  0  0  0  0  0  0  0  0
  -20.5820  -28.3330   23.1430 C   0  0  0  0  0  3  0  0  0  0  0  0
  -20.7000  -26.8950   22.5870 C   0  0  0  0  0  2  0  0  0  0  0  0
  -19.6120  -26.5530   21.5640 C   0  0  0  0  0  2  0  0  0  0  0  0
  -18.2220  -26.6990   22.1890 C   0  0  0  0  0  2  0  0  0  0  0  0
  -19.1390  -28.8300   23.2770 C   0  0  0  0  0  0  0  0  0  0  0  0
  -18.9060  -30.1010   23.8480 C   0  0  0  0  0  3  0  0  0  0  0  0
  -17.5960  -30.5970   23.9910 C   0  0  0  0  0  3  0  0  0  0  0  0
  -16.5020  -29.8200   23.5740 C   0  0  0  0  0  3  0  0  0  0  0  0
  -16.7190  -28.5520   23.0070 C   0  0  0  0  0  3  0  0  0  0  0  0
  -25.8980  -32.4810   23.7840 C   0  0  0  0  0  3  0  0  0  0  0  0
  -26.4330  -31.6920   25.0420 C   0  0  1  0  0  0  0  0  0  0  0  0
  -25.3540  -31.4360   26.1190 C   0  0  0  0  0  1  0  0  0  0  0  0
  -27.0140  -30.3230   24.6210 C   0  0  0  0  0  1  0  0  0  0  0  0
  -27.5910  -32.4800   25.7000 C   0  0  0  0  0  1  0  0  0  0  0  0
  -25.5940  -33.8750   24.1360 N   0  0  0  0  0  0  0  0  0  0  0  0
  -25.9200  -34.9370   23.3880 C   0  0  0  0  0  0  0  0  0  0  0  0
  -26.5800  -34.8470   22.3480 O   0  0  0  0  0  0  0  0  0  0  0  0
  -25.0090  -34.0190   24.9450 H   0  0  0  0  0  0  0  0  0  0  0  0
  -24.1940  -36.7380   23.0670 C   0  0  0  0  0  1  0  0  0  0  0  0
  -25.4380  -36.3200   23.8670 C   0  0  0  0  0  3  0  0  0  0  0  0
  -27.5750  -37.1870   24.7080 C   0  0  0  0  0  1  0  0  0  0  0  0
  -26.4730  -37.3710   23.7680 N   0  0  0  0  0  0  0  0  0  0  0  0
  -26.0700  -38.2900   23.9290 H   0  0  0  0  0  0  0  0  0  0  0  0
  1  5  1  0
  2  1  2  0
  3  2  1  0
  3  4  2  0
  4 54  1  0
  4  7  1  0
  5  8  1  0
  6  3  1  0
  7  5  2  0
  8  9  1  0
 10 23  1  0
 11 16  1  0
 12 13  1  0
 12 11  1  0
 14 13  1  0
 14 27  1  0
 14 15  1  0
 16 10  1  0
 16 15  1  0
 17 10  2  0
 18 22  1  0
 20 18  1  0
 20 23  1  0
 21 19  1  0
 22  8  1  0
 22 19  1  0
 23 21  1  0
 24 25  2  0
 25 44  1  0
 26 25  1  0
 26 29  1  0
 27 28  1  0
 27 24  1  0
 28 26  2  0
 29 30  1  0
 30 31  2  0
 32 35  1  0
 32 31  1  0
 33 32  2  0
 34 33  1  0
 34 29  2  0
 35 36  1  0
 36 37  1  0
 37 38  2  0
 39 38  1  0
 39 43  1  0
 40 39  2  0
 41 36  2  0
 41 40  1  0
 42 41  1  0
 44 45  1  0
 45 48  1  0
 45 47  1  0
 46 44  2  0
 49 24  1  0
 49 50  1  0
 51 49  1  0
 52 54  1  0
 54 53  1  0
 55 56  1  0
 55  2  1  0
 56 57  1  0
 58 69  2  0
 59 57  1  0
 59 64  1  0
 60 68  1  0
 60 70  1  0
 61 67  1  0
 61 63  1  0
 62 68  1  0
 63 62  1  0
 64 63  2  0
 65 66  1  0
 65 59  2  0
 66 61  2  0
 67 60  1  0
 68 58  1  0
 70 72  2  0
 71 70  1  0
 73 71  1  0
 74 83  2  0
 74 79  1  0
 75 71  1  0
 75 79  1  0
 76 75  1  0
 77 78  1  0
 77 76  1  0
 78 74  1  0
 79 80  2  0
 80 81  1  0
 82 81  2  0
 83 82  1  0
 84 58  1  0
 84 89  1  0
 84 85  1  0
 85 88  1  1
 85 86  1  0
 87 85  1  0
 89 92  1  0
 90 94  1  0
 90 89  1  0
 91 90  2  0
 94 93  1  0
 96 94  1  0
 96 97  1  0
 96 95  1  0
M  ISO  4  10 100  23 100  56 101  57 101
M  END
>  <TORSDO>  (89) 
F 19

>  <SCORE>  (89) 
-13.903

>  <name>  (89) 
89

>  <ligand_id>  (89) 
89

>  <original_smiles>  (89) 
[H]c1c([H])c([H])c2c(c1[H])C([H])([H])C([H])([H])C([H])([H])C2([H])N([H])C(=O)C1([H])N(C(=O)C([H])(N([H])C(=O)C([H])(N([H])C([H])([H])[H])C([H])([H])[H])C(C([H])([H])[H])(C([H])([H])[H])C([H])([H])[H])C([H])([H])c2c([H])c(OC([H])([H])C([H])([H])c3c([H])c(N([H])C4([H])C([H])([H])C([H])([H])N(C(=O)N5C([H])([H])C([H])([H])C([H])([H])C([H])(n6nc(-c7c([H])c([H])c(Oc8c([H])c([H])c(F)c([H])c8F)c([H])c7[H])c(C(=O)N([H])[H])c6N([H])[H])C5([H])[H])C([H])([H])C4([H])[H])nc(C([H])(C([H])([H])[H])C([H])([H])[H])c3C([H])([H])[H])c([H])c([H])c2C1([H])[H]

>  <smiles>  (89) 
[H]c1c([H])c([H])c2c(c1[H])C([H])([H])C([H])([H])C([H])([H])C2([H])N([H])C(=O)C1([H])N(C(=O)C([H])(N([H])C(=O)C([H])(N([H])C([H])([H])[H])C([H])([H])[H])C(C([H])([H])[H])(C([H])([H])[H])C([H])([H])[H])C([H])([H])c2c([H])c(OC([H])([H])C([H])([H])c3c([H])c(N([H])C4([H])C([H])([H])C([H])([H])N(C(=O)N5C([H])([H])C([H])([H])C([H])([H])C([H])(n6nc(-c7c([H])c([H])c(Oc8c([H])c([H])c(F)c([H])c8F)c([H])c7[H])c(C(=O)N([H])[H])c6N([H])[H])C5([H])[H])C([H])([H])C4([H])[H])nc(C([H])(C([H])([H])[H])C([H])([H])[H])c3C([H])([H])[H])c([H])c([H])c2C1([H])[H]

$$$$
90:0:0
     RDKit          3D

 89 98  0  0  1  0  0  0  0  0999 V2000
  -30.4370  -15.2350   20.3770 C   0  0  0  0  0  0  0  0  0  0  0  0
  -30.4790  -12.7810   19.5620 C   0  0  0  0  0  2  0  0  0  0  0  0
  -29.5990  -12.5830   18.3020 C   0  0  0  0  0  2  0  0  0  0  0  0
  -28.1340  -12.3140   18.6960 C   0  0  0  0  0  2  0  0  0  0  0  0
  -27.6430  -13.3000   19.7840 C   0  0  0  0  0  3  0  0  0  0  0  0
  -28.6470  -13.4480   20.9470 C   0  0  0  0  0  2  0  0  0  0  0  0
  -29.9090  -13.9220   20.3590 N   0  0  0  0  0  0  0  0  0  0  0  0
  -31.6580  -15.2850   20.1630 O   0  0  0  0  0  0  0  0  0  0  0  0
  -28.2570  -18.6980   20.0360 C   0  0  0  0  0  3  0  0  0  0  0  0
  -30.2490  -20.3990   20.4900 C   0  0  0  0  0  3  0  0  0  0  0  0
  -29.0330  -21.1720   20.2110 C   0  0  0  0  0  0  0  0  0  0  0  0
  -28.0190  -20.1580   19.9700 C   0  0  0  0  0  0  0  0  0  0  0  0
  -29.5080  -18.0090   20.3230 C   0  0  0  0  0  0  0  0  0  0  0  0
  -26.6010  -20.6100   19.6300 C   0  0  0  0  0  1  0  0  0  0  0  0
  -30.4700  -18.9930   20.5300 N   0  0  0  0  0  0  0  0  0  0  0  0
  -29.5650  -16.4150   20.4330 N   0  0  0  0  0  0  0  0  0  0  0  0
  -28.6330  -16.0630   20.5660 H   0  0  0  0  0  0  0  0  0  0  0  0
  -25.2410  -13.8880   20.4290 C   0  0  0  0  0  0  0  0  0  0  0  0
  -24.1650  -13.1220   20.7790 C   0  0  0  0  0  0  0  0  0  0  0  0
  -24.6280  -11.7710   20.7960 C   0  0  0  0  0  0  0  0  0  0  0  0
  -26.2900  -13.0040   20.2420 N   0  0  0  0  0  0  0  0  0  0  0  0
  -25.9310  -11.7260   20.5300 N   0  0  0  0  0  0  0  0  0  0  0  0
  -23.8910  -10.5150   20.9910 C   0  0  0  0  0  0  0  0  0  0  0  0
  -24.3010   -9.5610   21.9480 C   0  0  0  0  0  3  0  0  0  0  0  0
  -23.5680   -8.3690   22.1290 C   0  0  0  0  0  3  0  0  0  0  0  0
  -22.4090   -8.1230   21.3540 C   0  0  0  0  0  0  0  0  0  0  0  0
  -22.0160   -9.0670   20.3870 C   0  0  0  0  0  3  0  0  0  0  0  0
  -22.7500  -10.2510   20.2040 C   0  0  0  0  0  3  0  0  0  0  0  0
  -21.6500   -6.9800   21.4410 O   0  0  0  0  0  0  0  0  0  0  0  0
  -21.5840   -6.2470   22.6010 C   0  0  0  0  0  0  0  0  0  0  0  0
  -21.1530   -6.8160   23.8180 C   0  0  0  0  0  3  0  0  0  0  0  0
  -21.0300   -6.0110   24.9670 C   0  0  0  0  0  3  0  0  0  0  0  0
  -21.3320   -4.6380   24.9000 C   0  0  0  0  0  0  0  0  0  0  0  0
  -21.7570   -4.0680   23.6870 C   0  0  0  0  0  3  0  0  0  0  0  0
  -21.8810   -4.8710   22.5400 C   0  0  0  0  0  0  0  0  0  0  0  0
  -22.2710   -4.3110   21.3680 F   0  0  0  0  0  0  0  0  0  0  0  0
  -21.2080   -3.8630   26.0030 F   0  0  0  0  0  0  0  0  0  0  0  0
  -22.7590  -13.6100   20.9840 C   0  0  0  0  0  0  0  0  0  0  0  0
  -22.0010  -12.9510   21.8510 N   0  0  0  0  0  0  0  0  0  0  0  0
  -22.3430  -14.6120   20.4050 O   0  0  0  0  0  0  0  0  0  0  0  0
  -22.3520  -12.1470   22.3480 H   0  0  0  0  0  0  0  0  0  0  0  0
  -21.0560  -13.2640   22.0250 H   0  0  0  0  0  0  0  0  0  0  0  0
  -25.4120  -15.2540   20.2240 N   0  0  0  0  0  0  0  0  0  0  0  0
  -24.6260  -15.8910   20.2790 H   0  0  0  0  0  0  0  0  0  0  0  0
  -26.2250  -15.6660   19.7950 H   0  0  0  0  0  0  0  0  0  0  0  0
  -29.1760  -23.7070   19.0390 C   0  0  0  0  0  2  0  0  0  0  0  0
  -28.9460  -22.9060   20.3000 C   0  0  0  0  0  3  0  0  0  0  0  0
  -28.0280  -24.3190   19.8140 C   0  0  0  0  0  3  0  0  0  0  0  0
  -28.2450  -25.9340   19.9430 O   0  0  0  0  0  0  0  0  0  0  0  0
  -24.7210  -31.7900   23.0730 C   0  0  0  0  0  0  0  0  0  0  0  0
  -27.2230  -27.0040   19.9040 C   0  0  0  0  0  0  0  0  0  0  0  0
  -23.5050  -30.4290   21.4260 C   0  0  0  0  0  3  0  0  0  0  0  0
  -24.9230  -28.8570   19.9460 C   0  0  0  0  0  0  0  0  0  0  0  0
  -26.0670  -30.6450   21.2420 C   0  0  0  0  0  2  0  0  0  0  0  0
  -26.1200  -29.2540   20.5540 C   0  0  0  0  0  0  0  0  0  0  0  0
  -27.2650  -28.3470   20.5100 C   0  0  0  0  0  3  0  0  0  0  0  0
  -26.0030  -26.7560   19.2370 C   0  0  0  0  0  3  0  0  0  0  0  0
  -24.8850  -27.6280   19.2670 C   0  0  0  0  0  3  0  0  0  0  0  0
  -23.7080  -29.7740   20.0330 C   0  0  0  0  0  2  0  0  0  0  0  0
  -24.7880  -30.9800   21.9680 N   0  0  0  0  0  0  0  0  0  0  0  0
  -23.6390  -32.0700   23.6120 O   0  0  0  0  0  0  0  0  0  0  0  0
  -22.8240  -29.4120   22.3780 C   0  0  0  0  0  0  0  0  0  0  0  0
  -21.4920  -29.2630   22.2770 N   0  0  0  0  0  0  0  0  0  0  0  0
  -23.5000  -28.7590   23.1760 O   0  0  0  0  0  0  0  0  0  0  0  0
  -21.0010  -29.8360   21.6050 H   0  0  0  0  0  0  0  0  0  0  0  0
  -18.1070  -28.0850   22.8430 C   0  0  0  0  0  0  0  0  0  0  0  0
  -20.6750  -28.3120   23.0400 C   0  0  0  0  0  3  0  0  0  0  0  0
  -20.7440  -26.9000   22.4140 C   0  0  0  0  0  2  0  0  0  0  0  0
  -19.6070  -26.6210   21.4250 C   0  0  0  0  0  2  0  0  0  0  0  0
  -18.2490  -26.7540   22.1200 C   0  0  0  0  0  2  0  0  0  0  0  0
  -19.2460  -28.8230   23.2610 C   0  0  0  0  0  0  0  0  0  0  0  0
  -19.0570  -30.0630   23.9060 C   0  0  0  0  0  3  0  0  0  0  0  0
  -17.7620  -30.5690   24.1330 C   0  0  0  0  0  3  0  0  0  0  0  0
  -16.6390  -29.8290   23.7270 C   0  0  0  0  0  3  0  0  0  0  0  0
  -16.8120  -28.5870   23.0890 C   0  0  0  0  0  3  0  0  0  0  0  0
  -25.9990  -32.4200   23.7030 C   0  0  0  0  0  3  0  0  0  0  0  0
  -26.5600  -31.5910   24.9260 C   0  0  1  0  0  0  0  0  0  0  0  0
  -25.5020  -31.2830   26.0140 C   0  0  0  0  0  1  0  0  0  0  0  0
  -27.1460  -30.2400   24.4560 C   0  0  0  0  0  1  0  0  0  0  0  0
  -27.7250  -32.3630   25.5900 C   0  0  0  0  0  1  0  0  0  0  0  0
  -25.6680  -33.7910   24.1290 N   0  0  0  0  0  0  0  0  0  0  0  0
  -25.9480  -34.8980   23.4270 C   0  0  0  0  0  0  0  0  0  0  0  0
  -26.5760  -34.8720   22.3660 O   0  0  0  0  0  0  0  0  0  0  0  0
  -25.1030  -33.8820   24.9610 H   0  0  0  0  0  0  0  0  0  0  0  0
  -24.1730  -36.6760   23.2700 C   0  0  0  0  0  1  0  0  0  0  0  0
  -25.4630  -36.2510   23.9910 C   0  0  0  0  0  3  0  0  0  0  0  0
  -27.6160  -37.1410   24.7680 C   0  0  0  0  0  1  0  0  0  0  0  0
  -26.4720  -37.3270   23.8780 N   0  0  0  0  0  0  0  0  0  0  0  0
  -26.0600  -38.2360   24.0690 H   0  0  0  0  0  0  0  0  0  0  0  0
  1 16  1  0
  2  7  1  0
  3  4  1  0
  3  2  1  0
  5  4  1  0
  5 21  1  0
  5  6  1  0
  7  1  1  0
  7  6  1  0
  8  1  2  0
  9 13  1  0
 10 15  1  0
 11 10  2  0
 12  9  2  0
 12 11  1  0
 13 16  1  0
 13 15  2  0
 14 12  1  0
 16 17  1  0
 18 19  2  0
 19 20  1  0
 19 38  1  0
 20 23  1  0
 21 18  1  0
 21 22  1  0
 22 20  2  0
 23 24  1  0
 24 25  2  0
 26 29  1  0
 26 25  1  0
 27 26  2  0
 28 27  1  0
 28 23  2  0
 29 30  1  0
 30 31  1  0
 31 32  2  0
 33 32  1  0
 33 37  1  0
 34 33  2  0
 35 30  2  0
 35 34  1  0
 36 35  1  0
 38 39  1  0
 39 42  1  0
 39 41  1  0
 40 38  2  0
 43 44  1  0
 43 18  1  0
 45 43  1  0
 46 48  1  0
 46 47  1  0
 47 11  1  0
 48 49  1  0
 48 47  1  0
 50 61  2  0
 51 49  1  0
 51 56  1  0
 52 60  1  0
 52 62  1  0
 53 59  1  0
 53 55  1  0
 54 60  1  0
 55 54  1  0
 56 55  2  0
 57 58  1  0
 57 51  2  0
 58 53  2  0
 59 52  1  0
 60 50  1  0
 62 64  2  0
 63 62  1  0
 65 63  1  0
 66 75  2  0
 66 71  1  0
 67 63  1  0
 67 71  1  0
 68 67  1  0
 69 70  1  0
 69 68  1  0
 70 66  1  0
 71 72  2  0
 72 73  1  0
 74 73  2  0
 75 74  1  0
 76 50  1  0
 76 81  1  0
 76 77  1  0
 77 80  1  1
 77 78  1  0
 79 77  1  0
 81 84  1  0
 82 86  1  0
 82 81  1  0
 83 82  2  0
 86 85  1  0
 88 86  1  0
 88 89  1  0
 88 87  1  0
M  ISO  4   1 100  16 100  48 101  49 101
M  END
>  <TORSDO>  (90) 
F 16

>  <SCORE>  (90) 
-14.957

>  <name>  (90) 
90

>  <ligand_id>  (90) 
90

>  <original_smiles>  (90) 
[H]c1nc(N([H])C(=O)N2C([H])([H])C([H])([H])C([H])([H])C([H])(n3nc(-c4c([H])c([H])c(Oc5c([H])c([H])c(F)c([H])c5F)c([H])c4[H])c(C(=O)N([H])[H])c3N([H])[H])C2([H])[H])c([H])c(C([H])([H])[H])c1C1([H])C([H])([H])C1([H])Oc1c([H])c([H])c2c(c1[H])C([H])([H])N(C(=O)C([H])(N([H])C(=O)C([H])(N([H])C([H])([H])[H])C([H])([H])[H])C(C([H])([H])[H])(C([H])([H])[H])C([H])([H])[H])C([H])(C(=O)N([H])C1([H])c3c([H])c([H])c([H])c([H])c3C([H])([H])C([H])([H])C1([H])[H])C2([H])[H]

>  <smiles>  (90) 
[H]c1nc(N([H])C(=O)N2C([H])([H])C([H])([H])C([H])([H])C([H])(n3nc(-c4c([H])c([H])c(Oc5c([H])c([H])c(F)c([H])c5F)c([H])c4[H])c(C(=O)N([H])[H])c3N([H])[H])C2([H])[H])c([H])c(C([H])([H])[H])c1C1([H])C([H])([H])C1([H])Oc1c([H])c([H])c2c(c1[H])C([H])([H])N(C(=O)C([H])(N([H])C(=O)C([H])(N([H])C([H])([H])[H])C([H])([H])[H])C(C([H])([H])[H])(C([H])([H])[H])C([H])([H])[H])C([H])(C(=O)N([H])C1([H])c3c([H])c([H])c([H])c([H])c3C([H])([H])C([H])([H])C1([H])[H])C2([H])[H]

$$$$
91:0:0
     RDKit          3D

 99109  0  0  1  0  0  0  0  0999 V2000
  -29.8440  -23.7410   19.9770 C   0  0  0  0  0  3  0  0  0  0  0  0
  -27.4670  -23.3820   20.1320 C   0  0  0  0  0  3  0  0  0  0  0  0
  -28.5660  -24.2500   20.2810 C   0  0  0  0  0  0  0  0  0  0  0  0
  -30.0310  -22.4020   19.5400 C   0  0  0  0  0  0  0  0  0  0  0  0
  -27.6280  -22.0400   19.7060 C   0  0  0  0  0  0  0  0  0  0  0  0
  -28.9200  -21.5120   19.3910 C   0  0  0  0  0  0  0  0  0  0  0  0
  -31.4610  -21.9800   19.2350 C   0  0  0  0  0  1  0  0  0  0  0  0
  -26.3610  -21.2020   19.5920 C   0  0  0  0  0  1  0  0  0  0  0  0
  -28.3760  -25.6570   20.8760 C   0  0  0  0  0  2  0  0  0  0  0  0
  -28.3800  -26.7540   19.9420 O   0  0  0  0  0  0  0  0  0  0  0  0
  -24.4930  -31.8550   23.1110 C   0  0  0  0  0  0  0  0  0  0  0  0
  -27.2270  -27.5100   19.9600 C   0  0  0  0  0  0  0  0  0  0  0  0
  -23.3220  -30.4690   21.4300 C   0  0  0  0  0  3  0  0  0  0  0  0
  -24.8120  -28.9810   19.9850 C   0  0  0  0  0  0  0  0  0  0  0  0
  -25.8440  -30.8680   21.2620 C   0  0  0  0  0  2  0  0  0  0  0  0
  -25.9580  -29.5110   20.5940 C   0  0  0  0  0  0  0  0  0  0  0  0
  -27.1720  -28.7820   20.5800 C   0  0  0  0  0  3  0  0  0  0  0  0
  -26.0680  -26.9960   19.3460 C   0  0  0  0  0  3  0  0  0  0  0  0
  -24.8620  -27.7230   19.3580 C   0  0  0  0  0  3  0  0  0  0  0  0
  -23.5510  -29.8170   20.0400 C   0  0  0  0  0  2  0  0  0  0  0  0
  -24.5710  -31.0790   21.9930 N   0  0  0  0  0  0  0  0  0  0  0  0
  -23.4030  -32.1000   23.6480 O   0  0  0  0  0  0  0  0  0  0  0  0
  -22.6770  -29.4210   22.3650 C   0  0  0  0  0  0  0  0  0  0  0  0
  -21.3510  -29.2430   22.2420 N   0  0  0  0  0  0  0  0  0  0  0  0
  -23.3680  -28.7710   23.1560 O   0  0  0  0  0  0  0  0  0  0  0  0
  -20.8560  -29.8180   21.5750 H   0  0  0  0  0  0  0  0  0  0  0  0
  -17.9710  -28.0860   22.7840 C   0  0  0  0  0  0  0  0  0  0  0  0
  -20.5410  -28.2830   22.9900 C   0  0  0  0  0  3  0  0  0  0  0  0
  -20.5980  -26.8830   22.3370 C   0  0  0  0  0  2  0  0  0  0  0  0
  -19.4580  -26.6320   21.3430 C   0  0  0  0  0  2  0  0  0  0  0  0
  -18.1000  -26.7700   22.0360 C   0  0  0  0  0  2  0  0  0  0  0  0
  -19.1160  -28.8040   23.2170 C   0  0  0  0  0  0  0  0  0  0  0  0
  -18.9410  -30.0400   23.8760 C   0  0  0  0  0  3  0  0  0  0  0  0
  -17.6520  -30.5560   24.1090 C   0  0  0  0  0  3  0  0  0  0  0  0
  -16.5210  -29.8340   23.6940 C   0  0  0  0  0  3  0  0  0  0  0  0
  -16.6810  -28.6000   23.0360 C   0  0  0  0  0  3  0  0  0  0  0  0
  -25.7640  -32.4940   23.7540 C   0  0  0  0  0  3  0  0  0  0  0  0
  -25.4320  -33.8780   24.1100 N   0  0  0  0  0  0  0  0  0  0  0  0
  -25.7680  -34.9530   23.3830 C   0  0  0  0  0  0  0  0  0  0  0  0
  -26.4610  -34.8820   22.3640 O   0  0  0  0  0  0  0  0  0  0  0  0
  -24.8200  -34.0080   24.9030 H   0  0  0  0  0  0  0  0  0  0  0  0
  -24.0480  -36.7500   23.0140 C   0  0  0  0  0  1  0  0  0  0  0  0
  -25.2550  -36.3240   23.8630 C   0  0  0  0  0  3  0  0  0  0  0  0
  -27.3470  -37.1900   24.8120 C   0  0  0  0  0  1  0  0  0  0  0  0
  -26.2860  -37.3840   23.8280 N   0  0  0  0  0  0  0  0  0  0  0  0
  -25.8700  -38.2980   23.9870 H   0  0  0  0  0  0  0  0  0  0  0  0
  -26.2870  -31.7020   25.0150 C   0  0  1  0  0  0  0  0  0  0  0  0
  -25.1890  -31.4110   26.0660 C   0  0  0  0  0  1  0  0  0  0  0  0
  -26.9100  -30.3510   24.5960 C   0  0  0  0  0  1  0  0  0  0  0  0
  -27.4130  -32.5060   25.7080 C   0  0  0  0  0  1  0  0  0  0  0  0
  -29.0800  -20.0450   18.8570 C   0  0  0  0  0  3  0  0  0  0  0  0
  -28.8230  -19.2930   16.3230 C   0  0  0  0  0  2  0  0  0  0  0  0
  -28.9220  -20.7970   16.3310 C   0  0  0  0  0  2  0  0  0  0  0  0
  -29.6020  -19.9910   17.4200 C   0  0  0  0  0  3  0  0  0  0  0  0
  -29.8250  -19.1360   19.7790 N   0  0  0  0  0  4  0  0  0  0  0  0
  -30.7900  -19.4180   19.8020 H   0  0  0  0  0  0  0  0  0  0  0  0
  -29.4500  -19.3040   20.6990 H   0  0  0  0  0  0  0  0  0  0  0  0
  -29.7580  -17.6600   19.5060 C   0  0  0  0  0  2  0  0  0  0  0  0
  -30.5580  -14.5500   19.5870 C   0  0  0  0  0  0  0  0  0  0  0  0
  -30.1300  -12.4580   18.3180 C   0  0  0  0  0  2  0  0  0  0  0  0
  -29.0290  -12.6550   17.2550 C   0  0  0  0  0  2  0  0  0  0  0  0
  -27.6280  -12.4640   17.8650 C   0  0  0  0  0  2  0  0  0  0  0  0
  -27.4410  -13.2540   19.1860 C   0  0  0  0  0  3  0  0  0  0  0  0
  -28.6280  -13.0110   20.1420 C   0  0  0  0  0  2  0  0  0  0  0  0
  -29.8720  -13.3770   19.4390 N   0  0  0  0  0  0  0  0  0  0  0  0
  -31.4420  -14.9050   18.8010 O   0  0  0  0  0  0  0  0  0  0  0  0
  -31.6200  -16.0490   22.4790 C   0  0  0  0  0  2  0  0  0  0  0  0
  -31.4190  -17.1890   21.4820 C   0  0  0  0  0  2  0  0  0  0  0  0
  -30.7580  -14.8890   21.9530 C   0  0  0  0  0  2  0  0  0  0  0  0
  -30.1280  -16.7990   20.7600 C   0  0  0  0  0  3  0  0  0  0  0  0
  -30.2030  -15.3140   20.6570 N   0  0  0  0  0  0  0  0  0  0  0  0
  -25.1500  -13.7990   20.2230 C   0  0  0  0  0  0  0  0  0  0  0  0
  -24.1450  -12.9990   20.6950 C   0  0  0  0  0  0  0  0  0  0  0  0
  -24.6080  -11.6560   20.5460 C   0  0  0  0  0  0  0  0  0  0  0  0
  -26.1620  -12.9430   19.8200 N   0  0  0  0  0  0  0  0  0  0  0  0
  -25.8470  -11.6460   20.0690 N   0  0  0  0  0  0  0  0  0  0  0  0
  -23.9240  -10.3770   20.7770 C   0  0  0  0  0  0  0  0  0  0  0  0
  -24.3900   -9.4520   21.7370 C   0  0  0  0  0  3  0  0  0  0  0  0
  -23.7060   -8.2370   21.9520 C   0  0  0  0  0  3  0  0  0  0  0  0
  -22.5410   -7.9360   21.2070 C   0  0  0  0  0  0  0  0  0  0  0  0
  -22.0940   -8.8510   20.2360 C   0  0  0  0  0  3  0  0  0  0  0  0
  -22.7790  -10.0580   20.0210 C   0  0  0  0  0  3  0  0  0  0  0  0
  -21.8270   -6.7700   21.3290 O   0  0  0  0  0  0  0  0  0  0  0  0
  -21.6980   -6.1270   22.5330 C   0  0  0  0  0  0  0  0  0  0  0  0
  -21.1280   -6.7610   23.6590 C   0  0  0  0  0  3  0  0  0  0  0  0
  -20.9540   -6.0430   24.8580 C   0  0  0  0  0  3  0  0  0  0  0  0
  -21.3370   -4.6900   24.9320 C   0  0  0  0  0  0  0  0  0  0  0  0
  -21.8990   -4.0550   23.8100 C   0  0  0  0  0  3  0  0  0  0  0  0
  -22.0770   -4.7720   22.6140 C   0  0  0  0  0  0  0  0  0  0  0  0
  -22.6000   -4.1490   21.5300 F   0  0  0  0  0  0  0  0  0  0  0  0
  -21.1610   -3.9980   26.0810 F   0  0  0  0  0  0  0  0  0  0  0  0
  -22.7910  -13.4450   21.1670 C   0  0  0  0  0  0  0  0  0  0  0  0
  -22.1960  -12.7110   22.1010 N   0  0  0  0  0  0  0  0  0  0  0  0
  -22.2750  -14.4770   20.7430 O   0  0  0  0  0  0  0  0  0  0  0  0
  -22.6300  -11.8750   22.4620 H   0  0  0  0  0  0  0  0  0  0  0  0
  -21.2940  -12.9900   22.4590 H   0  0  0  0  0  0  0  0  0  0  0  0
  -25.2820  -15.1780   20.0850 N   0  0  0  0  0  0  0  0  0  0  0  0
  -24.5360  -15.8190   20.3310 H   0  0  0  0  0  0  0  0  0  0  0  0
  -26.0750  -15.6360   19.6570 H   0  0  0  0  0  0  0  0  0  0  0  0
  1  3  1  0
  2  3  2  0
  3  9  1  0
  4  1  2  0
  5  2  1  0
  6  4  1  0
  6  5  2  0
  7  4  1  0
  8  5  1  0
 10 12  1  0
 10  9  1  0
 11 22  2  0
 12 17  1  0
 13 21  1  0
 13 23  1  0
 14 20  1  0
 14 16  1  0
 15 21  1  0
 16 15  1  0
 17 16  2  0
 18 19  1  0
 18 12  2  0
 19 14  2  0
 20 13  1  0
 21 11  1  0
 23 25  2  0
 24 23  1  0
 26 24  1  0
 27 36  2  0
 27 32  1  0
 28 24  1  0
 28 32  1  0
 29 28  1  0
 30 31  1  0
 30 29  1  0
 31 27  1  0
 32 33  2  0
 33 34  1  0
 35 34  2  0
 36 35  1  0
 37 11  1  0
 37 38  1  0
 37 47  1  0
 38 41  1  0
 39 43  1  0
 39 38  1  0
 40 39  2  0
 43 42  1  0
 45 43  1  0
 45 46  1  0
 45 44  1  0
 47 50  1  1
 47 48  1  0
 49 47  1  0
 51  6  1  0
 51 55  1  0
 52 53  1  0
 52 54  1  0
 53 54  1  0
 54 51  1  0
 55 56  1  0
 55 57  1  0
 58 55  1  0
 59 71  1  0
 60 65  1  0
 61 62  1  0
 61 60  1  0
 63 62  1  0
 63 75  1  0
 63 64  1  0
 65 59  1  0
 65 64  1  0
 66 59  2  0
 68 67  1  0
 69 67  1  0
 70 58  1  0
 70 68  1  0
 71 70  1  0
 71 69  1  0
 72 73  2  0
 73 92  1  0
 74 73  1  0
 74 77  1  0
 75 76  1  0
 75 72  1  0
 76 74  2  0
 77 78  1  0
 78 79  2  0
 80 83  1  0
 80 79  1  0
 81 80  2  0
 82 81  1  0
 82 77  2  0
 83 84  1  0
 84 89  2  0
 84 85  1  0
 85 86  2  0
 86 87  1  0
 87 91  1  0
 88 87  2  0
 89 88  1  0
 90 89  1  0
 92 93  1  0
 93 96  1  0
 93 95  1  0
 94 92  2  0
 97 72  1  0
 97 98  1  0
 99 97  1  0
M  ISO  4   9 101  10 101  59 100  71 100
M  END
>  <TORSDO>  (91) 
F 21

>  <SCORE>  (91) 
-10.425

>  <name>  (91) 
91

>  <ligand_id>  (91) 
91

>  <original_smiles>  (91) 
[H]c1c([H])c([H])c2c(c1[H])C([H])([H])C([H])([H])C([H])([H])C2([H])N([H])C(=O)C1([H])N(C(=O)C([H])(N([H])C(=O)C([H])(N([H])C([H])([H])[H])C([H])([H])[H])C(C([H])([H])[H])(C([H])([H])[H])C([H])([H])[H])C([H])([H])c2c([H])c(OC([H])([H])c3c([H])c(C([H])([H])[H])c(C([H])(C4([H])C([H])([H])C4([H])[H])[N+]([H])([H])C([H])([H])C4([H])N(C(=O)N5C([H])([H])C([H])([H])C([H])([H])C([H])(n6nc(-c7c([H])c([H])c(Oc8c([H])c([H])c(F)c([H])c8F)c([H])c7[H])c(C(=O)N([H])[H])c6N([H])[H])C5([H])[H])C([H])([H])C([H])([H])C4([H])[H])c(C([H])([H])[H])c3[H])c([H])c([H])c2C1([H])[H]

>  <smiles>  (91) 
[H]c1c([H])c([H])c2c(c1[H])C([H])([H])C([H])([H])C([H])([H])C2([H])N([H])C(=O)C1([H])N(C(=O)C([H])(N([H])C(=O)C([H])(N([H])C([H])([H])[H])C([H])([H])[H])C(C([H])([H])[H])(C([H])([H])[H])C([H])([H])[H])C([H])([H])c2c([H])c(OC([H])([H])c3c([H])c(C([H])([H])[H])c(C([H])(C4([H])C([H])([H])C4([H])[H])[N+]([H])([H])C([H])([H])C4([H])N(C(=O)N5C([H])([H])C([H])([H])C([H])([H])C([H])(n6nc(-c7c([H])c([H])c(Oc8c([H])c([H])c(F)c([H])c8F)c([H])c7[H])c(C(=O)N([H])[H])c6N([H])[H])C5([H])[H])C([H])([H])C([H])([H])C4([H])[H])c(C([H])([H])[H])c3[H])c([H])c([H])c2C1([H])[H]

$$$$
92:0:0
     RDKit          3D

 97106  0  0  1  0  0  0  0  0999 V2000
  -30.9950  -19.4600   21.6990 C   0  0  0  0  0  3  0  0  0  0  0  0
  -30.0570  -18.4490   21.4240 C   0  0  0  0  0  0  0  0  0  0  0  0
  -30.7870  -20.7860   21.2810 C   0  0  0  0  0  0  0  0  0  0  0  0
  -28.8460  -18.7830   20.7610 C   0  0  0  0  0  0  0  0  0  0  0  0
  -28.5800  -20.1390   20.4140 C   0  0  0  0  0  0  0  0  0  0  0  0
  -29.5770  -21.1420   20.6340 C   0  0  0  0  0  0  0  0  0  0  0  0
  -27.8400  -17.6800   20.4150 C   0  0  0  0  0  1  0  0  0  0  0  0
  -27.2260  -20.4790   19.7900 C   0  0  0  0  0  1  0  0  0  0  0  0
  -29.0780  -24.0720   18.3280 C   0  0  0  0  0  2  0  0  0  0  0  0
  -29.0670  -24.8780   20.6960 C   0  0  0  0  0  2  0  0  0  0  0  0
  -28.9620  -22.6190   18.8090 C   0  0  0  0  0  2  0  0  0  0  0  0
  -28.9840  -23.4290   21.2100 C   0  0  0  0  0  2  0  0  0  0  0  0
  -28.3800  -25.0020   19.3270 C   0  0  0  0  0  3  0  0  0  0  0  0
  -29.4300  -22.4720   20.1920 N   0  0  0  0  0  0  0  0  0  0  0  0
  -28.4350  -26.3530   18.8760 O   0  0  0  0  0  0  0  0  0  0  0  0
  -24.5770  -30.9340   22.6570 C   0  0  0  0  0  0  0  0  0  0  0  0
  -27.2500  -27.0420   18.9590 C   0  0  0  0  0  0  0  0  0  0  0  0
  -23.3730  -29.7730   20.8320 C   0  0  0  0  0  3  0  0  0  0  0  0
  -24.8320  -28.4740   19.1940 C   0  0  0  0  0  0  0  0  0  0  0  0
  -25.8900  -30.1900   20.6790 C   0  0  0  0  0  2  0  0  0  0  0  0
  -25.9860  -28.9300   19.8470 C   0  0  0  0  0  0  0  0  0  0  0  0
  -27.1980  -28.2200   19.7280 C   0  0  0  0  0  3  0  0  0  0  0  0
  -26.0840  -26.5920   18.3010 C   0  0  0  0  0  3  0  0  0  0  0  0
  -24.8740  -27.3010   18.4190 C   0  0  0  0  0  3  0  0  0  0  0  0
  -23.5790  -29.3020   19.3690 C   0  0  0  0  0  2  0  0  0  0  0  0
  -24.6320  -30.3040   21.4490 N   0  0  0  0  0  0  0  0  0  0  0  0
  -23.4960  -31.1170   23.2360 O   0  0  0  0  0  0  0  0  0  0  0  0
  -22.7370  -28.6180   21.6370 C   0  0  0  0  0  0  0  0  0  0  0  0
  -21.4020  -28.5020   21.5610 N   0  0  0  0  0  0  0  0  0  0  0  0
  -23.4380  -27.8370   22.2860 O   0  0  0  0  0  0  0  0  0  0  0  0
  -20.8990  -29.1890   21.0160 H   0  0  0  0  0  0  0  0  0  0  0  0
  -18.0050  -27.4540   22.1990 C   0  0  0  0  0  0  0  0  0  0  0  0
  -20.5900  -27.4690   22.2000 C   0  0  0  0  0  3  0  0  0  0  0  0
  -20.4950  -26.2050   21.3150 C   0  0  0  0  0  2  0  0  0  0  0  0
  -19.2670  -26.1990   20.4010 C   0  0  0  0  0  2  0  0  0  0  0  0
  -17.9810  -26.2850   21.2270 C   0  0  0  0  0  2  0  0  0  0  0  0
  -19.2290  -28.0200   22.6430 C   0  0  0  0  0  0  0  0  0  0  0  0
  -19.1940  -29.1300   23.5160 C   0  0  0  0  0  3  0  0  0  0  0  0
  -17.9690  -29.6660   23.9500 C   0  0  0  0  0  3  0  0  0  0  0  0
  -16.7600  -29.0910   23.5210 C   0  0  0  0  0  3  0  0  0  0  0  0
  -16.7790  -27.9860   22.6510 C   0  0  0  0  0  3  0  0  0  0  0  0
  -25.8630  -31.4780   23.3570 C   0  0  0  0  0  3  0  0  0  0  0  0
  -26.3810  -30.5450   24.5210 C   0  0  1  0  0  0  0  0  0  0  0  0
  -25.2910  -30.1710   25.5540 C   0  0  0  0  0  1  0  0  0  0  0  0
  -26.9590  -29.2300   23.9450 C   0  0  0  0  0  1  0  0  0  0  0  0
  -27.5400  -31.2410   25.2730 C   0  0  0  0  0  1  0  0  0  0  0  0
  -25.5550  -32.8210   23.8640 N   0  0  0  0  0  0  0  0  0  0  0  0
  -25.8970  -33.9610   23.2500 C   0  0  0  0  0  0  0  0  0  0  0  0
  -26.5760  -33.9900   22.2190 O   0  0  0  0  0  0  0  0  0  0  0  0
  -24.9570  -32.8720   24.6760 H   0  0  0  0  0  0  0  0  0  0  0  0
  -24.1730  -35.7870   23.1180 C   0  0  0  0  0  1  0  0  0  0  0  0
  -25.4070  -35.2790   23.8800 C   0  0  0  0  0  3  0  0  0  0  0  0
  -27.5350  -36.0410   24.8370 C   0  0  0  0  0  1  0  0  0  0  0  0
  -26.4410  -36.3350   23.9150 N   0  0  0  0  0  0  0  0  0  0  0  0
  -26.0330  -37.2280   24.1810 H   0  0  0  0  0  0  0  0  0  0  0  0
  -32.0220  -22.2540   22.9690 C   0  0  0  0  0  1  0  0  0  0  0  0
  -31.9240  -21.7800   21.5130 C   0  0  0  0  0  2  0  0  0  0  0  0
  -30.4180  -17.0170   21.8200 C   0  0  0  0  0  2  0  0  0  0  0  0
  -31.1270  -16.2660   20.6790 C   0  0  0  0  0  2  0  0  0  0  0  0
  -31.0980  -14.0340   19.6610 C   0  0  0  0  0  0  0  0  0  0  0  0
  -30.5260  -11.9600   18.4660 C   0  0  0  0  0  2  0  0  0  0  0  0
  -29.4840  -12.2560   17.3720 C   0  0  0  0  0  2  0  0  0  0  0  0
  -28.0610  -12.1520   17.9440 C   0  0  0  0  0  2  0  0  0  0  0  0
  -27.8890  -12.9860   19.2400 C   0  0  0  0  0  3  0  0  0  0  0  0
  -29.0360  -12.7050   20.2420 C   0  0  0  0  0  2  0  0  0  0  0  0
  -30.3300  -12.9190   19.5610 N   0  0  0  0  0  0  0  0  0  0  0  0
  -32.0180  -14.3090   18.8870 O   0  0  0  0  0  0  0  0  0  0  0  0
  -30.7810  -14.8500   20.6690 N   0  0  0  0  0  0  0  0  0  0  0  0
  -30.0880  -14.5260   21.3230 H   0  0  0  0  0  0  0  0  0  0  0  0
  -25.5980  -13.6710   20.2000 C   0  0  0  0  0  0  0  0  0  0  0  0
  -24.5450  -12.9310   20.6680 C   0  0  0  0  0  0  0  0  0  0  0  0
  -24.9450  -11.5640   20.5630 C   0  0  0  0  0  0  0  0  0  0  0  0
  -26.5790  -12.7560   19.8480 N   0  0  0  0  0  0  0  0  0  0  0  0
  -26.1920  -11.4820   20.1190 N   0  0  0  0  0  0  0  0  0  0  0  0
  -24.1950  -10.3250   20.8100 C   0  0  0  0  0  0  0  0  0  0  0  0
  -24.6250   -9.3800   21.7670 C   0  0  0  0  0  3  0  0  0  0  0  0
  -23.8780   -8.2060   21.9980 C   0  0  0  0  0  3  0  0  0  0  0  0
  -22.6850   -7.9690   21.2740 C   0  0  0  0  0  0  0  0  0  0  0  0
  -22.2730   -8.9020   20.3070 C   0  0  0  0  0  3  0  0  0  0  0  0
  -23.0210  -10.0680   20.0740 C   0  0  0  0  0  3  0  0  0  0  0  0
  -21.9070   -6.8450   21.4130 O   0  0  0  0  0  0  0  0  0  0  0  0
  -21.7740   -6.2060   22.6210 C   0  0  0  0  0  0  0  0  0  0  0  0
  -21.3030   -6.8770   23.7700 C   0  0  0  0  0  3  0  0  0  0  0  0
  -21.1150   -6.1670   24.9730 C   0  0  0  0  0  3  0  0  0  0  0  0
  -21.3860   -4.7860   25.0260 C   0  0  0  0  0  0  0  0  0  0  0  0
  -21.8500   -4.1160   23.8800 C   0  0  0  0  0  3  0  0  0  0  0  0
  -22.0400   -4.8230   22.6810 C   0  0  0  0  0  0  0  0  0  0  0  0
  -22.4660   -4.1680   21.5740 F   0  0  0  0  0  0  0  0  0  0  0  0
  -21.1990   -4.1010   26.1780 F   0  0  0  0  0  0  0  0  0  0  0  0
  -23.2050  -13.4550   21.1010 C   0  0  0  0  0  0  0  0  0  0  0  0
  -22.5620  -12.7850   22.0520 N   0  0  0  0  0  0  0  0  0  0  0  0
  -22.7410  -14.4920   20.6290 O   0  0  0  0  0  0  0  0  0  0  0  0
  -22.9480  -11.9430   22.4510 H   0  0  0  0  0  0  0  0  0  0  0  0
  -21.6700  -13.1210   22.3860 H   0  0  0  0  0  0  0  0  0  0  0  0
  -25.8000  -15.0380   20.0250 N   0  0  0  0  0  0  0  0  0  0  0  0
  -25.0790  -15.7240   20.2170 H   0  0  0  0  0  0  0  0  0  0  0  0
  -26.6380  -15.4410   19.6250 H   0  0  0  0  0  0  0  0  0  0  0  0
  2  1  1  0
  2 58  1  0
  3 57  1  0
  3  1  2  0
  4  2  2  0
  5  6  2  0
  5  4  1  0
  6  3  1  0
  7  4  1  0
  8  5  1  0
  9 11  1  0
  9 13  1  0
 10 12  1  0
 11 14  1  0
 13 15  1  0
 13 10  1  0
 14  6  1  0
 14 12  1  0
 15 17  1  0
 16 27  2  0
 17 22  1  0
 18 26  1  0
 18 28  1  0
 19 25  1  0
 19 21  1  0
 20 26  1  0
 21 20  1  0
 22 21  2  0
 23 24  1  0
 23 17  2  0
 24 19  2  0
 25 18  1  0
 26 16  1  0
 28 30  2  0
 29 28  1  0
 31 29  1  0
 32 37  2  0
 32 41  1  0
 33 29  1  0
 33 37  1  0
 34 33  1  0
 35 36  1  0
 35 34  1  0
 36 32  1  0
 37 38  1  0
 38 39  2  0
 40 39  1  0
 41 40  2  0
 42 16  1  0
 42 47  1  0
 42 43  1  0
 43 46  1  1
 43 44  1  0
 45 43  1  0
 47 50  1  0
 48 47  1  0
 48 52  1  0
 49 48  2  0
 52 51  1  0
 52 54  1  0
 54 55  1  0
 54 53  1  0
 57 56  1  0
 59 58  1  0
 60 68  1  0
 61 66  1  0
 62 63  1  0
 62 61  1  0
 64 63  1  0
 64 73  1  0
 64 65  1  0
 66 60  1  0
 66 65  1  0
 67 60  2  0
 68 59  1  0
 68 69  1  0
 70 71  2  0
 71 90  1  0
 72 71  1  0
 72 75  1  0
 73 74  1  0
 73 70  1  0
 74 72  2  0
 75 76  1  0
 76 77  2  0
 78 81  1  0
 78 77  1  0
 79 78  2  0
 80 79  1  0
 80 75  2  0
 81 82  1  0
 82 87  2  0
 82 83  1  0
 83 84  2  0
 84 85  1  0
 85 89  1  0
 86 85  2  0
 87 86  1  0
 88 87  1  0
 90 91  1  0
 91 94  1  0
 91 93  1  0
 92 90  2  0
 95 70  1  0
 95 96  1  0
 97 95  1  0
M  ISO  4  13 101  15 101  60 100  68 100
M  END
>  <TORSDO>  (92) 
F 20

>  <SCORE>  (92) 
-9.711

>  <name>  (92) 
92

>  <ligand_id>  (92) 
92

>  <original_smiles>  (92) 
[H]c1c([H])c([H])c2c(c1[H])C([H])([H])C([H])([H])C([H])([H])C2([H])N([H])C(=O)C1([H])N(C(=O)C([H])(N([H])C(=O)C([H])(N([H])C([H])([H])[H])C([H])([H])[H])C(C([H])([H])[H])(C([H])([H])[H])C([H])([H])[H])C([H])([H])c2c([H])c(OC3([H])C([H])([H])C([H])([H])N(c4c(C([H])([H])[H])c(C([H])([H])[H])c(C([H])([H])C([H])([H])N([H])C(=O)N5C([H])([H])C([H])([H])C([H])([H])C([H])(n6nc(-c7c([H])c([H])c(Oc8c([H])c([H])c(F)c([H])c8F)c([H])c7[H])c(C(=O)N([H])[H])c6N([H])[H])C5([H])[H])c([H])c4C([H])([H])C([H])([H])[H])C([H])([H])C3([H])[H])c([H])c([H])c2C1([H])[H]

>  <smiles>  (92) 
[H]c1c([H])c([H])c2c(c1[H])C([H])([H])C([H])([H])C([H])([H])C2([H])N([H])C(=O)C1([H])N(C(=O)C([H])(N([H])C(=O)C([H])(N([H])C([H])([H])[H])C([H])([H])[H])C(C([H])([H])[H])(C([H])([H])[H])C([H])([H])[H])C([H])([H])c2c([H])c(OC3([H])C([H])([H])C([H])([H])N(c4c(C([H])([H])[H])c(C([H])([H])[H])c(C([H])([H])C([H])([H])N([H])C(=O)N5C([H])([H])C([H])([H])C([H])([H])C([H])(n6nc(-c7c([H])c([H])c(Oc8c([H])c([H])c(F)c([H])c8F)c([H])c7[H])c(C(=O)N([H])[H])c6N([H])[H])C5([H])[H])c([H])c4C([H])([H])C([H])([H])[H])C([H])([H])C3([H])[H])c([H])c([H])c2C1([H])[H]

$$$$
93:0:0
     RDKit          3D

 96105  0  0  1  0  0  0  0  0999 V2000
  -30.2170  -20.0880   19.0030 C   0  0  0  0  0  3  0  0  0  0  0  0
  -30.0520  -22.5060   19.2340 C   0  0  0  0  0  3  0  0  0  0  0  0
  -29.5690  -21.0640   21.1320 C   0  0  0  0  0  3  0  0  0  0  0  0
  -30.3230  -21.3750   18.4300 C   0  0  0  0  0  0  0  0  0  0  0  0
  -29.8440  -19.9210   20.3550 C   0  0  0  0  0  0  0  0  0  0  0  0
  -29.6790  -22.3620   20.5930 C   0  0  0  0  0  0  0  0  0  0  0  0
  -32.0440  -22.1600   16.6190 C   0  0  0  0  0  2  0  0  0  0  0  0
  -30.7360  -22.7920   16.2030 C   0  0  0  0  0  2  0  0  0  0  0  0
  -30.7390  -21.4950   16.9860 C   0  0  0  0  0  3  0  0  0  0  0  0
  -29.7440  -18.6550   20.9510 N   0  0  0  0  0  0  0  0  0  0  0  0
  -29.5640  -18.6390   21.9510 H   0  0  0  0  0  0  0  0  0  0  0  0
  -30.6250  -17.5910   20.4780 C   0  0  0  0  0  2  0  0  0  0  0  0
  -30.5560  -16.9050   23.0030 C   0  0  0  0  0  1  0  0  0  0  0  0
  -30.9400  -16.5220   21.5610 C   0  0  0  0  0  3  0  0  0  0  0  0
  -30.8520  -14.3480   20.3420 C   0  0  0  0  0  0  0  0  0  0  0  0
  -30.4280  -12.2680   19.0860 C   0  0  0  0  0  2  0  0  0  0  0  0
  -29.4600  -12.5340   17.9170 C   0  0  0  0  0  2  0  0  0  0  0  0
  -27.9950  -12.4260   18.3830 C   0  0  0  0  0  2  0  0  0  0  0  0
  -27.7170  -13.2460   19.6720 C   0  0  0  0  0  3  0  0  0  0  0  0
  -28.7870  -12.9510   20.7460 C   0  0  0  0  0  2  0  0  0  0  0  0
  -30.1140  -13.2210   20.1610 N   0  0  0  0  0  0  0  0  0  0  0  0
  -31.9000  -14.5770   19.7320 O   0  0  0  0  0  0  0  0  0  0  0  0
  -30.3490  -15.2310   21.2160 N   0  0  0  0  0  0  0  0  0  0  0  0
  -29.4820  -14.9790   21.6670 H   0  0  0  0  0  0  0  0  0  0  0  0
  -25.3420  -13.9070   20.4200 C   0  0  0  0  0  0  0  0  0  0  0  0
  -24.2650  -13.1580   20.8110 C   0  0  0  0  0  0  0  0  0  0  0  0
  -24.6970  -11.7960   20.7750 C   0  0  0  0  0  0  0  0  0  0  0  0
  -26.3650  -13.0030   20.1730 N   0  0  0  0  0  0  0  0  0  0  0  0
  -25.9800  -11.7290   20.4420 N   0  0  0  0  0  0  0  0  0  0  0  0
  -23.9490  -10.5500   20.9810 C   0  0  0  0  0  0  0  0  0  0  0  0
  -24.3790   -9.5760   21.9100 C   0  0  0  0  0  3  0  0  0  0  0  0
  -23.6330   -8.3930   22.1040 C   0  0  0  0  0  3  0  0  0  0  0  0
  -22.4420   -8.1770   21.3700 C   0  0  0  0  0  0  0  0  0  0  0  0
  -22.0310   -9.1390   20.4310 C   0  0  0  0  0  3  0  0  0  0  0  0
  -22.7780  -10.3130   20.2340 C   0  0  0  0  0  3  0  0  0  0  0  0
  -21.6680   -7.0480   21.4740 O   0  0  0  0  0  0  0  0  0  0  0  0
  -21.6190   -6.3110   22.6300 C   0  0  0  0  0  0  0  0  0  0  0  0
  -21.2180   -6.8800   23.8590 C   0  0  0  0  0  3  0  0  0  0  0  0
  -21.1160   -6.0710   25.0080 C   0  0  0  0  0  3  0  0  0  0  0  0
  -21.4050   -4.6960   24.9310 C   0  0  0  0  0  0  0  0  0  0  0  0
  -21.7990   -4.1260   23.7070 C   0  0  0  0  0  3  0  0  0  0  0  0
  -21.9030   -4.9320   22.5590 C   0  0  0  0  0  0  0  0  0  0  0  0
  -22.2630   -4.3760   21.3780 F   0  0  0  0  0  0  0  0  0  0  0  0
  -21.2990   -3.9160   26.0320 F   0  0  0  0  0  0  0  0  0  0  0  0
  -22.8840  -13.6640   21.1120 C   0  0  0  0  0  0  0  0  0  0  0  0
  -22.1610  -12.9840   21.9950 N   0  0  0  0  0  0  0  0  0  0  0  0
  -22.4560  -14.6980   20.5980 O   0  0  0  0  0  0  0  0  0  0  0  0
  -22.5190  -12.1480   22.4300 H   0  0  0  0  0  0  0  0  0  0  0  0
  -21.2340  -13.3060   22.2380 H   0  0  0  0  0  0  0  0  0  0  0  0
  -25.5340  -15.2730   20.2360 N   0  0  0  0  0  0  0  0  0  0  0  0
  -24.7910  -15.9510   20.3660 H   0  0  0  0  0  0  0  0  0  0  0  0
  -26.3980  -15.6920   19.9140 H   0  0  0  0  0  0  0  0  0  0  0  0
  -29.4270  -23.4120   21.4530 O   0  0  0  0  0  0  0  0  0  0  0  0
  -29.6060  -24.7580   21.0130 C   0  0  0  0  0  2  0  0  0  0  0  0
  -28.3610  -25.2920   20.2830 C   0  0  0  0  0  2  0  0  0  0  0  0
  -28.4240  -26.7190   20.2480 O   0  0  0  0  0  0  0  0  0  0  0  0
  -24.5780  -31.8840   23.2210 C   0  0  0  0  0  0  0  0  0  0  0  0
  -27.2330  -27.4100   20.2190 C   0  0  0  0  0  0  0  0  0  0  0  0
  -23.3740  -30.4600   21.5950 C   0  0  0  0  0  3  0  0  0  0  0  0
  -24.8310  -28.8990   20.2000 C   0  0  0  0  0  0  0  0  0  0  0  0
  -25.8980  -30.8190   21.3980 C   0  0  0  0  0  2  0  0  0  0  0  0
  -25.9860  -29.4400   20.7800 C   0  0  0  0  0  0  0  0  0  0  0  0
  -27.1900  -28.7020   20.7830 C   0  0  0  0  0  3  0  0  0  0  0  0
  -26.0610  -26.8770   19.6340 C   0  0  0  0  0  3  0  0  0  0  0  0
  -24.8610  -27.6150   19.6280 C   0  0  0  0  0  3  0  0  0  0  0  0
  -23.5860  -29.7570   20.2280 C   0  0  0  0  0  2  0  0  0  0  0  0
  -24.6350  -31.0700   22.1310 N   0  0  0  0  0  0  0  0  0  0  0  0
  -23.4940  -32.1670   23.7530 O   0  0  0  0  0  0  0  0  0  0  0  0
  -22.7200  -29.4540   22.5690 C   0  0  0  0  0  0  0  0  0  0  0  0
  -21.3940  -29.2800   22.4440 N   0  0  0  0  0  0  0  0  0  0  0  0
  -23.4000  -28.8340   23.3890 O   0  0  0  0  0  0  0  0  0  0  0  0
  -20.9080  -29.8310   21.7500 H   0  0  0  0  0  0  0  0  0  0  0  0
  -18.0070  -28.1390   22.9760 C   0  0  0  0  0  0  0  0  0  0  0  0
  -20.5710  -28.3580   23.2260 C   0  0  0  0  0  3  0  0  0  0  0  0
  -20.6470  -26.9230   22.6530 C   0  0  0  0  0  2  0  0  0  0  0  0
  -19.5300  -26.6150   21.6490 C   0  0  0  0  0  2  0  0  0  0  0  0
  -18.1570  -26.7850   22.3050 C   0  0  0  0  0  2  0  0  0  0  0  0
  -19.1420  -28.8850   23.3940 C   0  0  0  0  0  0  0  0  0  0  0  0
  -18.9490  -30.1540   23.9800 C   0  0  0  0  0  3  0  0  0  0  0  0
  -17.6540  -30.6790   24.1530 C   0  0  0  0  0  3  0  0  0  0  0  0
  -16.5340  -29.9300   23.7520 C   0  0  0  0  0  3  0  0  0  0  0  0
  -16.7120  -28.6630   23.1700 C   0  0  0  0  0  3  0  0  0  0  0  0
  -25.8620  -32.5210   23.8350 C   0  0  0  0  0  3  0  0  0  0  0  0
  -25.5480  -33.9170   24.1670 N   0  0  0  0  0  0  0  0  0  0  0  0
  -25.8760  -34.9710   23.4060 C   0  0  0  0  0  0  0  0  0  0  0  0
  -26.5460  -34.8700   22.3740 O   0  0  0  0  0  0  0  0  0  0  0  0
  -24.9520  -34.0690   24.9680 H   0  0  0  0  0  0  0  0  0  0  0  0
  -24.1400  -36.7550   23.0480 C   0  0  0  0  0  1  0  0  0  0  0  0
  -25.3810  -36.3570   23.8620 C   0  0  0  0  0  3  0  0  0  0  0  0
  -27.5110  -37.2490   24.6970 C   0  0  0  0  0  1  0  0  0  0  0  0
  -26.4110  -37.4130   23.7510 N   0  0  0  0  0  0  0  0  0  0  0  0
  -26.0020  -38.3320   23.8960 H   0  0  0  0  0  0  0  0  0  0  0  0
  -26.3920  -31.7510   25.1070 C   0  0  1  0  0  0  0  0  0  0  0  0
  -25.3060  -31.4990   26.1790 C   0  0  0  0  0  1  0  0  0  0  0  0
  -26.9830  -30.3790   24.7040 C   0  0  0  0  0  1  0  0  0  0  0  0
  -27.5420  -32.5510   25.7640 C   0  0  0  0  0  1  0  0  0  0  0  0
  1  5  1  0
  2  6  2  0
  4  1  2  0
  4  2  1  0
  5 10  1  0
  5  3  2  0
  6  3  1  0
  6 53  1  0
  7  9  1  0
  8  7  1  0
  8  9  1  0
  9  4  1  0
 10 11  1  0
 12 10  1  0
 12 14  1  0
 14 13  1  0
 15 23  1  0
 16 21  1  0
 17 18  1  0
 17 16  1  0
 19 18  1  0
 19 28  1  0
 19 20  1  0
 21 15  1  0
 21 20  1  0
 22 15  2  0
 23 14  1  0
 23 24  1  0
 25 26  2  0
 26 45  1  0
 27 26  1  0
 27 30  1  0
 28 25  1  0
 28 29  1  0
 29 27  2  0
 30 31  1  0
 31 32  2  0
 33 36  1  0
 33 32  1  0
 34 33  2  0
 35 34  1  0
 35 30  2  0
 36 37  1  0
 37 38  1  0
 38 39  2  0
 40 39  1  0
 40 44  1  0
 41 40  2  0
 42 37  2  0
 42 41  1  0
 43 42  1  0
 45 46  1  0
 46 49  1  0
 46 48  1  0
 47 45  2  0
 50 51  1  0
 50 25  1  0
 52 50  1  0
 54 53  1  0
 55 54  1  0
 56 55  1  0
 57 68  2  0
 58 56  1  0
 58 63  1  0
 59 67  1  0
 59 69  1  0
 60 66  1  0
 60 62  1  0
 61 67  1  0
 62 63  2  0
 62 61  1  0
 64 58  2  0
 65 64  1  0
 65 60  2  0
 66 59  1  0
 67 57  1  0
 69 71  2  0
 70 69  1  0
 72 70  1  0
 73 82  2  0
 73 78  1  0
 74 70  1  0
 74 78  1  0
 75 74  1  0
 76 77  1  0
 76 75  1  0
 77 73  1  0
 78 79  2  0
 79 80  1  0
 81 80  2  0
 82 81  1  0
 83 57  1  0
 83 84  1  0
 83 93  1  0
 84 87  1  0
 85 89  1  0
 85 84  1  0
 86 85  2  0
 89 88  1  0
 91 89  1  0
 91 92  1  0
 91 90  1  0
 93 96  1  1
 93 94  1  0
 95 93  1  0
M  ISO  4  15 100  23 100  55 101  56 101
M  END
>  <TORSDO>  (93) 
F 23

>  <SCORE>  (93) 
-12.806

>  <name>  (93) 
93

>  <ligand_id>  (93) 
93

>  <original_smiles>  (93) 
[H]c1c([H])c([H])c2c(c1[H])C([H])([H])C([H])([H])C([H])([H])C2([H])N([H])C(=O)C1([H])N(C(=O)C([H])(N([H])C(=O)C([H])(N([H])C([H])([H])[H])C([H])([H])[H])C(C([H])([H])[H])(C([H])([H])[H])C([H])([H])[H])C([H])([H])c2c([H])c(OC([H])([H])C([H])([H])Oc3c([H])c(N([H])C([H])([H])C([H])(N([H])C(=O)N4C([H])([H])C([H])([H])C([H])([H])C([H])(n5nc(-c6c([H])c([H])c(Oc7c([H])c([H])c(F)c([H])c7F)c([H])c6[H])c(C(=O)N([H])[H])c5N([H])[H])C4([H])[H])C([H])([H])[H])c([H])c(C4([H])C([H])([H])C4([H])[H])c3[H])c([H])c([H])c2C1([H])[H]

>  <smiles>  (93) 
[H]c1c([H])c([H])c2c(c1[H])C([H])([H])C([H])([H])C([H])([H])C2([H])N([H])C(=O)C1([H])N(C(=O)C([H])(N([H])C(=O)C([H])(N([H])C([H])([H])[H])C([H])([H])[H])C(C([H])([H])[H])(C([H])([H])[H])C([H])([H])[H])C([H])([H])c2c([H])c(OC([H])([H])C([H])([H])Oc3c([H])c(N([H])C([H])([H])C([H])(N([H])C(=O)N4C([H])([H])C([H])([H])C([H])([H])C([H])(n5nc(-c6c([H])c([H])c(Oc7c([H])c([H])c(F)c([H])c7F)c([H])c6[H])c(C(=O)N([H])[H])c5N([H])[H])C4([H])[H])C([H])([H])[H])c([H])c(C4([H])C([H])([H])C4([H])[H])c3[H])c([H])c([H])c2C1([H])[H]

$$$$
94:0:0
     RDKit          3D

 97105  0  0  1  0  0  0  0  0999 V2000
  -28.7150  -23.1310   20.9930 C   0  0  0  0  0  3  0  0  0  0  0  0
  -29.8080  -21.5700   19.5000 C   0  0  0  0  0  3  0  0  0  0  0  0
  -29.3070  -22.4980   22.1000 C   0  0  0  0  0  0  0  0  0  0  0  0
  -30.1480  -21.3590   21.9260 C   0  0  0  0  0  0  0  0  0  0  0  0
  -30.4060  -20.8920   20.5980 C   0  0  0  0  0  0  0  0  0  0  0  0
  -28.9560  -22.6880   19.6800 C   0  0  0  0  0  0  0  0  0  0  0  0
  -29.0280  -23.1090   23.4680 C   0  0  0  0  0  1  0  0  0  0  0  0
  -32.1740  -21.3360   23.4640 C   0  0  0  0  0  1  0  0  0  0  0  0
  -30.7970  -19.1750   23.2200 C   0  0  0  0  0  1  0  0  0  0  0  0
  -30.7970  -20.7190   23.1750 C   0  0  0  0  0  3  0  0  0  0  0  0
  -31.2530  -19.7780   20.4040 N   0  0  0  0  0  0  0  0  0  0  0  0
  -31.5980  -19.3300   21.2450 H   0  0  0  0  0  0  0  0  0  0  0  0
  -32.0220  -19.5280   19.1860 C   0  0  0  0  0  2  0  0  0  0  0  0
  -34.1870  -18.8030   20.4110 C   0  0  0  0  0  1  0  0  0  0  0  0
  -33.1180  -18.4390   19.3690 C   0  0  0  0  0  3  0  0  0  0  0  0
  -33.2830  -15.9370   19.5800 C   0  0  0  0  0  0  0  0  0  0  0  0
  -33.1060  -13.4740   19.5640 C   0  0  0  0  0  2  0  0  0  0  0  0
  -32.2600  -13.0150   18.3600 C   0  0  0  0  0  2  0  0  0  0  0  0
  -30.7620  -13.0110   18.7180 C   0  0  0  0  0  2  0  0  0  0  0  0
  -30.3030  -14.3300   19.3980 C   0  0  0  0  0  3  0  0  0  0  0  0
  -31.2710  -14.7380   20.5300 C   0  0  0  0  0  2  0  0  0  0  0  0
  -32.6270  -14.8080   19.9630 N   0  0  0  0  0  0  0  0  0  0  0  0
  -34.4290  -15.9110   19.1230 O   0  0  0  0  0  0  0  0  0  0  0  0
  -32.5840  -17.0900   19.6420 N   0  0  0  0  0  0  0  0  0  0  0  0
  -31.6250  -17.0270   19.9490 H   0  0  0  0  0  0  0  0  0  0  0  0
  -28.0180  -15.2490   20.1380 C   0  0  0  0  0  0  0  0  0  0  0  0
  -26.8510  -14.6250   20.4910 C   0  0  0  0  0  0  0  0  0  0  0  0
  -27.1160  -13.2230   20.4210 C   0  0  0  0  0  0  0  0  0  0  0  0
  -28.9260  -14.2350   19.8770 N   0  0  0  0  0  0  0  0  0  0  0  0
  -28.3880  -13.0090   20.1060 N   0  0  0  0  0  0  0  0  0  0  0  0
  -26.2190  -12.0720   20.5800 C   0  0  0  0  0  0  0  0  0  0  0  0
  -26.3660  -11.1610   21.6510 C   0  0  0  0  0  3  0  0  0  0  0  0
  -25.4790  -10.0720   21.7920 C   0  0  0  0  0  3  0  0  0  0  0  0
  -24.4300   -9.8870   20.8610 C   0  0  0  0  0  0  0  0  0  0  0  0
  -24.3010  -10.7820   19.7850 C   0  0  0  0  0  3  0  0  0  0  0  0
  -25.1880  -11.8620   19.6420 C   0  0  0  0  0  3  0  0  0  0  0  0
  -23.5360   -8.8440   20.9050 O   0  0  0  0  0  0  0  0  0  0  0  0
  -22.9400   -8.4560   22.0770 C   0  0  0  0  0  0  0  0  0  0  0  0
  -22.1440   -9.3410   22.8370 C   0  0  0  0  0  3  0  0  0  0  0  0
  -21.4910   -8.8810   23.9990 C   0  0  0  0  0  3  0  0  0  0  0  0
  -21.6260   -7.5360   24.3960 C   0  0  0  0  0  0  0  0  0  0  0  0
  -22.4130   -6.6520   23.6390 C   0  0  0  0  0  3  0  0  0  0  0  0
  -23.0650   -7.1110   22.4800 C   0  0  0  0  0  0  0  0  0  0  0  0
  -23.8050   -6.2490   21.7410 F   0  0  0  0  0  0  0  0  0  0  0  0
  -20.9920   -7.0920   25.5070 F   0  0  0  0  0  0  0  0  0  0  0  0
  -25.5350  -15.2880   20.7810 C   0  0  0  0  0  0  0  0  0  0  0  0
  -24.7230  -14.6880   21.6460 N   0  0  0  0  0  0  0  0  0  0  0  0
  -25.2380  -16.3700   20.2760 O   0  0  0  0  0  0  0  0  0  0  0  0
  -24.9750  -13.8120   22.0780 H   0  0  0  0  0  0  0  0  0  0  0  0
  -23.8360  -15.1110   21.8790 H   0  0  0  0  0  0  0  0  0  0  0  0
  -28.3770  -16.5870   19.9990 N   0  0  0  0  0  0  0  0  0  0  0  0
  -27.7140  -17.3420   20.1340 H   0  0  0  0  0  0  0  0  0  0  0  0
  -29.2920  -16.9090   19.7070 H   0  0  0  0  0  0  0  0  0  0  0  0
  -28.4200  -23.3110   18.5650 O   0  0  0  0  0  0  0  0  0  0  0  0
  -27.4750  -24.3870   18.7300 C   0  0  0  0  0  2  0  0  0  0  0  0
  -28.0630  -25.7110   19.2940 C   0  0  0  0  0  2  0  0  0  0  0  0
  -27.8090  -26.8830   18.4990 O   0  0  0  0  0  0  0  0  0  0  0  0
  -24.8110  -31.4180   23.1160 C   0  0  0  0  0  0  0  0  0  0  0  0
  -26.7050  -27.6340   18.8380 C   0  0  0  0  0  0  0  0  0  0  0  0
  -23.3060  -30.4750   21.3950 C   0  0  0  0  0  3  0  0  0  0  0  0
  -24.4510  -29.2140   19.4950 C   0  0  0  0  0  0  0  0  0  0  0  0
  -25.8100  -30.7430   20.9350 C   0  0  0  0  0  2  0  0  0  0  0  0
  -25.7100  -29.5420   20.0140 C   0  0  0  0  0  0  0  0  0  0  0  0
  -26.8410  -28.7640   19.6780 C   0  0  0  0  0  3  0  0  0  0  0  0
  -25.4310  -27.3200   18.3210 C   0  0  0  0  0  3  0  0  0  0  0  0
  -24.3070  -28.1030   18.6460 C   0  0  0  0  0  3  0  0  0  0  0  0
  -23.2920  -30.1030   19.8880 C   0  0  0  0  0  2  0  0  0  0  0  0
  -24.6690  -30.8810   21.8730 N   0  0  0  0  0  0  0  0  0  0  0  0
  -23.8280  -31.6160   23.8440 O   0  0  0  0  0  0  0  0  0  0  0  0
  -22.7010  -29.3000   22.1990 C   0  0  0  0  0  0  0  0  0  0  0  0
  -21.3780  -29.1040   22.0660 N   0  0  0  0  0  0  0  0  0  0  0  0
  -23.4160  -28.5760   22.8950 O   0  0  0  0  0  0  0  0  0  0  0  0
  -20.8630  -29.7460   21.4810 H   0  0  0  0  0  0  0  0  0  0  0  0
  -18.0930  -27.6090   22.2340 C   0  0  0  0  0  0  0  0  0  0  0  0
  -20.6000  -28.0370   22.6960 C   0  0  0  0  0  3  0  0  0  0  0  0
  -20.8560  -26.6800   22.0000 C   0  0  0  0  0  2  0  0  0  0  0  0
  -19.8460  -26.3690   20.8920 C   0  0  0  0  0  2  0  0  0  0  0  0
  -18.4220  -26.3460   21.4540 C   0  0  0  0  0  2  0  0  0  0  0  0
  -19.1180  -28.4100   22.8040 C   0  0  0  0  0  0  0  0  0  0  0  0
  -18.7630  -29.5920   23.4880 C   0  0  0  0  0  3  0  0  0  0  0  0
  -17.4150  -29.9750   23.6130 C   0  0  0  0  0  3  0  0  0  0  0  0
  -16.4030  -29.1700   23.0620 C   0  0  0  0  0  3  0  0  0  0  0  0
  -16.7430  -27.9890   22.3780 C   0  0  0  0  0  3  0  0  0  0  0  0
  -26.2090  -31.8320   23.6750 C   0  0  0  0  0  3  0  0  0  0  0  0
  -26.0670  -33.1630   24.2790 N   0  0  0  0  0  0  0  0  0  0  0  0
  -26.4990  -34.3020   23.7200 C   0  0  0  0  0  0  0  0  0  0  0  0
  -27.1310  -34.3300   22.6600 O   0  0  0  0  0  0  0  0  0  0  0  0
  -25.5180  -33.2220   25.1240 H   0  0  0  0  0  0  0  0  0  0  0  0
  -25.0130  -36.3270   23.7530 C   0  0  0  0  0  1  0  0  0  0  0  0
  -26.1820  -35.6180   24.4540 C   0  0  0  0  0  3  0  0  0  0  0  0
  -28.3960  -36.0430   25.4240 C   0  0  0  0  0  1  0  0  0  0  0  0
  -27.3380  -36.5350   24.5450 N   0  0  0  0  0  0  0  0  0  0  0  0
  -27.0470  -37.4500   24.8790 H   0  0  0  0  0  0  0  0  0  0  0  0
  -26.7890  -30.8040   24.7210 C   0  0  1  0  0  0  0  0  0  0  0  0
  -25.7990  -30.4450   25.8540 C   0  0  0  0  0  1  0  0  0  0  0  0
  -27.2060  -29.4900   24.0200 C   0  0  0  0  0  1  0  0  0  0  0  0
  -28.0670  -31.3840   25.3710 C   0  0  0  0  0  1  0  0  0  0  0  0
  1  3  1  0
  2  6  1  0
  2  5  2  0
  3  7  1  0
  4  3  2  0
  4 10  1  0
  5  4  1  0
  6  1  2  0
 10  9  1  0
 10  8  1  0
 11  5  1  0
 11 12  1  0
 13 15  1  0
 13 11  1  0
 15 24  1  0
 15 14  1  0
 16 24  1  0
 16 22  1  0
 17 22  1  0
 18 19  1  0
 18 17  1  0
 20 19  1  0
 20 29  1  0
 20 21  1  0
 22 21  1  0
 23 16  2  0
 24 25  1  0
 26 27  2  0
 27 46  1  0
 28 27  1  0
 28 31  1  0
 29 30  1  0
 29 26  1  0
 30 28  2  0
 31 32  1  0
 32 33  2  0
 34 37  1  0
 34 33  1  0
 35 34  2  0
 36 35  1  0
 36 31  2  0
 37 38  1  0
 38 43  2  0
 38 39  1  0
 39 40  2  0
 40 41  1  0
 41 45  1  0
 42 41  2  0
 43 42  1  0
 44 43  1  0
 46 47  1  0
 47 50  1  0
 47 49  1  0
 48 46  2  0
 51 52  1  0
 51 26  1  0
 53 51  1  0
 54 55  1  0
 54  6  1  0
 55 56  1  0
 57 59  1  0
 57 56  1  0
 58 69  2  0
 59 64  1  0
 60 68  1  0
 60 70  1  0
 61 67  1  0
 61 63  1  0
 62 68  1  0
 63 62  1  0
 64 63  2  0
 65 66  1  0
 65 59  2  0
 66 61  2  0
 67 60  1  0
 68 58  1  0
 70 72  2  0
 71 70  1  0
 73 71  1  0
 74 83  2  0
 74 79  1  0
 75 71  1  0
 75 79  1  0
 76 75  1  0
 77 78  1  0
 77 76  1  0
 78 74  1  0
 79 80  2  0
 80 81  1  0
 82 81  2  0
 83 82  1  0
 84 58  1  0
 84 85  1  0
 84 94  1  0
 85 88  1  0
 86 85  1  0
 86 90  1  0
 87 86  2  0
 90 89  1  0
 90 92  1  0
 92 93  1  0
 92 91  1  0
 94 97  1  1
 94 95  1  0
 96 94  1  0
M  ISO  4  16 100  24 100  56 101  57 101
M  END
>  <TORSDO>  (94) 
F 23

>  <SCORE>  (94) 
-6.797

>  <name>  (94) 
94

>  <ligand_id>  (94) 
94

>  <original_smiles>  (94) 
[H]c1c([H])c([H])c2c(c1[H])C([H])([H])C([H])([H])C([H])([H])C2([H])N([H])C(=O)C1([H])N(C(=O)C([H])(N([H])C(=O)C([H])(N([H])C([H])([H])[H])C([H])([H])[H])C(C([H])([H])[H])(C([H])([H])[H])C([H])([H])[H])C([H])([H])c2c([H])c(OC([H])([H])C([H])([H])Oc3c([H])c(N([H])C([H])([H])C([H])(N([H])C(=O)N4C([H])([H])C([H])([H])C([H])([H])C([H])(n5nc(-c6c([H])c([H])c(Oc7c([H])c([H])c(F)c([H])c7F)c([H])c6[H])c(C(=O)N([H])[H])c5N([H])[H])C4([H])[H])C([H])([H])[H])c(C([H])(C([H])([H])[H])C([H])([H])[H])c(C([H])([H])[H])c3[H])c([H])c([H])c2C1([H])[H]

>  <smiles>  (94) 
[H]c1c([H])c([H])c2c(c1[H])C([H])([H])C([H])([H])C([H])([H])C2([H])N([H])C(=O)C1([H])N(C(=O)C([H])(N([H])C(=O)C([H])(N([H])C([H])([H])[H])C([H])([H])[H])C(C([H])([H])[H])(C([H])([H])[H])C([H])([H])[H])C([H])([H])c2c([H])c(OC([H])([H])C([H])([H])Oc3c([H])c(N([H])C([H])([H])C([H])(N([H])C(=O)N4C([H])([H])C([H])([H])C([H])([H])C([H])(n5nc(-c6c([H])c([H])c(Oc7c([H])c([H])c(F)c([H])c7F)c([H])c6[H])c(C(=O)N([H])[H])c5N([H])[H])C4([H])[H])C([H])([H])[H])c(C([H])(C([H])([H])[H])C([H])([H])[H])c(C([H])([H])[H])c3[H])c([H])c([H])c2C1([H])[H]

$$$$
95:0:0
     RDKit          3D

 99108  0  0  1  0  0  0  0  0999 V2000
  -30.1150  -19.3860   17.5760 C   0  0  0  0  0  3  0  0  0  0  0  0
  -29.9480  -20.5280   16.7640 C   0  0  0  0  0  3  0  0  0  0  0  0
  -28.9030  -20.5450   19.3220 C   0  0  0  0  0  3  0  0  0  0  0  0
  -29.6290  -19.3500   18.8950 C   0  0  0  0  0  0  0  0  0  0  0  0
  -29.2750  -21.6980   17.2090 C   0  0  0  0  0  0  0  0  0  0  0  0
  -28.6930  -21.7390   18.5110 C   0  0  0  0  0  0  0  0  0  0  0  0
  -30.0900  -18.1200   19.8210 C   0  0  0  0  0  3  0  0  0  0  0  0
  -30.5010  -15.5680   19.1610 C   0  0  0  0  0  0  0  0  0  0  0  0
  -30.3190  -13.2350   18.2560 C   0  0  0  0  0  2  0  0  0  0  0  0
  -29.2080  -13.1350   17.1850 C   0  0  0  0  0  2  0  0  0  0  0  0
  -27.8320  -12.8990   17.8380 C   0  0  0  0  0  2  0  0  0  0  0  0
  -27.5650  -13.8460   19.0390 C   0  0  0  0  0  3  0  0  0  0  0  0
  -28.7770  -13.8940   19.9950 C   0  0  0  0  0  2  0  0  0  0  0  0
  -29.9400  -14.3110   19.2010 N   0  0  0  0  0  0  0  0  0  0  0  0
  -31.6300  -15.7240   18.6950 O   0  0  0  0  0  0  0  0  0  0  0  0
  -29.7190  -16.6570   19.5230 N   0  0  0  0  0  0  0  0  0  0  0  0
  -28.7570  -16.4250   19.7100 H   0  0  0  0  0  0  0  0  0  0  0  0
  -25.3960  -14.3470   20.3160 C   0  0  0  0  0  0  0  0  0  0  0  0
  -24.3840  -13.5420   20.7570 C   0  0  0  0  0  0  0  0  0  0  0  0
  -24.7640  -12.2070   20.4150 C   0  0  0  0  0  0  0  0  0  0  0  0
  -26.3290  -13.5020   19.7360 N   0  0  0  0  0  0  0  0  0  0  0  0
  -25.9680  -12.1990   19.8570 N   0  0  0  0  0  0  0  0  0  0  0  0
  -24.0230  -10.9440   20.5330 C   0  0  0  0  0  0  0  0  0  0  0  0
  -24.5790   -9.8220   21.1850 C   0  0  0  0  0  3  0  0  0  0  0  0
  -23.8400   -8.6240   21.3020 C   0  0  0  0  0  3  0  0  0  0  0  0
  -22.5320   -8.5410   20.7690 C   0  0  0  0  0  0  0  0  0  0  0  0
  -21.9940   -9.6540   20.0980 C   0  0  0  0  0  3  0  0  0  0  0  0
  -22.7320  -10.8440   19.9790 C   0  0  0  0  0  3  0  0  0  0  0  0
  -21.7500   -7.4140   20.8130 O   0  0  0  0  0  0  0  0  0  0  0  0
  -21.8900   -6.4790   21.8080 C   0  0  0  0  0  0  0  0  0  0  0  0
  -21.7470   -6.8160   23.1720 C   0  0  0  0  0  3  0  0  0  0  0  0
  -21.8310   -5.8120   24.1570 C   0  0  0  0  0  3  0  0  0  0  0  0
  -22.0500   -4.4720   23.7820 C   0  0  0  0  0  0  0  0  0  0  0  0
  -22.1880   -4.1360   22.4240 C   0  0  0  0  0  3  0  0  0  0  0  0
  -22.1060   -5.1360   21.4400 C   0  0  0  0  0  0  0  0  0  0  0  0
  -22.2190   -4.8030   20.1310 F   0  0  0  0  0  0  0  0  0  0  0  0
  -22.1230   -3.5070   24.7270 F   0  0  0  0  0  0  0  0  0  0  0  0
  -23.0880  -13.9900   21.3670 C   0  0  0  0  0  0  0  0  0  0  0  0
  -22.5200  -13.1860   22.2570 N   0  0  0  0  0  0  0  0  0  0  0  0
  -22.5960  -15.0830   21.0900 O   0  0  0  0  0  0  0  0  0  0  0  0
  -22.9360  -12.2990   22.5000 H   0  0  0  0  0  0  0  0  0  0  0  0
  -21.6560  -13.4590   22.7030 H   0  0  0  0  0  0  0  0  0  0  0  0
  -25.5940  -15.7250   20.3350 N   0  0  0  0  0  0  0  0  0  0  0  0
  -24.8830  -16.3570   20.6870 H   0  0  0  0  0  0  0  0  0  0  0  0
  -26.3430  -16.2060   19.8530 H   0  0  0  0  0  0  0  0  0  0  0  0
  -29.8660  -18.4540   21.3220 C   0  0  0  0  0  2  0  0  0  0  0  0
  -31.6420  -16.2390   23.7140 C   0  0  0  0  0  2  0  0  0  0  0  0
  -31.6330  -15.4570   22.4050 C   0  0  0  0  0  2  0  0  0  0  0  0
  -31.1250  -17.6070   23.2790 C   0  0  0  0  0  2  0  0  0  0  0  0
  -30.4260  -16.0220   21.6380 C   0  0  0  0  0  2  0  0  0  0  0  0
  -30.0880  -17.3270   22.2620 N   0  0  2  0  0  4  0  0  0  0  0  0
  -29.2320  -17.1890   22.7770 H   0  0  0  0  0  0  0  0  0  0  0  0
  -29.1600  -22.7940   16.3860 O   0  0  0  0  0  0  0  0  0  0  0  0
  -30.0210  -24.5060   14.9620 C   0  0  0  0  0  1  0  0  0  0  0  0
  -30.2160  -23.0760   15.4750 C   0  0  0  0  0  2  0  0  0  0  0  0
  -27.9800  -22.8810   19.0200 O   0  0  0  0  0  0  0  0  0  0  0  0
  -27.8310  -24.2090   18.3230 C   0  0  0  0  0  3  0  0  0  0  0  0
  -27.1690  -25.4870   19.0780 C   0  0  0  0  0  3  0  0  0  0  0  0
  -27.2480  -26.8970   18.5480 O   0  0  0  0  0  0  0  0  0  0  0  0
  -24.5470  -31.8300   23.1580 C   0  0  0  0  0  0  0  0  0  0  0  0
  -26.2400  -27.8270   18.8860 C   0  0  0  0  0  0  0  0  0  0  0  0
  -22.9890  -30.8830   21.4920 C   0  0  0  0  0  3  0  0  0  0  0  0
  -24.0660  -29.5770   19.5670 C   0  0  0  0  0  0  0  0  0  0  0  0
  -25.4930  -31.0700   20.9620 C   0  0  0  0  0  2  0  0  0  0  0  0
  -25.3510  -29.8520   20.0510 C   0  0  0  0  0  0  0  0  0  0  0  0
  -26.4430  -28.9950   19.6960 C   0  0  0  0  0  3  0  0  0  0  0  0
  -24.9360  -27.6240   18.3860 C   0  0  0  0  0  3  0  0  0  0  0  0
  -23.8630  -28.4720   18.7230 C   0  0  0  0  0  3  0  0  0  0  0  0
  -22.9340  -30.4970   19.9890 C   0  0  0  0  0  2  0  0  0  0  0  0
  -24.3710  -31.2670   21.9250 N   0  0  0  0  0  0  0  0  0  0  0  0
  -23.5850  -32.0520   23.9080 O   0  0  0  0  0  0  0  0  0  0  0  0
  -22.3810  -29.7300   22.3320 C   0  0  0  0  0  0  0  0  0  0  0  0
  -21.0440  -29.6070   22.3170 N   0  0  0  0  0  0  0  0  0  0  0  0
  -23.1110  -28.9580   22.9570 O   0  0  0  0  0  0  0  0  0  0  0  0
  -20.5090  -30.2820   21.7860 H   0  0  0  0  0  0  0  0  0  0  0  0
  -17.6950  -28.3700   22.9110 C   0  0  0  0  0  0  0  0  0  0  0  0
  -20.2710  -28.5670   23.0000 C   0  0  0  0  0  3  0  0  0  0  0  0
  -20.2990  -27.2410   22.2040 C   0  0  0  0  0  2  0  0  0  0  0  0
  -19.1120  -27.0890   21.2490 C   0  0  0  0  0  2  0  0  0  0  0  0
  -17.7900  -27.1420   22.0200 C   0  0  0  0  0  2  0  0  0  0  0  0
  -18.8600  -29.0480   23.3580 C   0  0  0  0  0  0  0  0  0  0  0  0
  -18.7180  -30.2000   24.1580 C   0  0  0  0  0  3  0  0  0  0  0  0
  -17.4420  -30.6800   24.5100 C   0  0  0  0  0  3  0  0  0  0  0  0
  -16.2910  -29.9980   24.0780 C   0  0  0  0  0  3  0  0  0  0  0  0
  -16.4180  -28.8440   23.2840 C   0  0  0  0  0  3  0  0  0  0  0  0
  -25.9570  -32.2430   23.6740 C   0  0  0  0  0  3  0  0  0  0  0  0
  -25.8400  -33.5850   24.2640 N   0  0  0  0  0  0  0  0  0  0  0  0
  -26.2530  -34.7150   23.6770 C   0  0  0  0  0  0  0  0  0  0  0  0
  -26.8440  -34.7290   22.5940 O   0  0  0  0  0  0  0  0  0  0  0  0
  -25.3160  -33.6550   25.1240 H   0  0  0  0  0  0  0  0  0  0  0  0
  -24.7700  -36.7480   23.7580 C   0  0  0  0  0  1  0  0  0  0  0  0
  -25.9710  -36.0420   24.4090 C   0  0  0  0  0  3  0  0  0  0  0  0
  -28.2210  -36.4870   25.2840 C   0  0  0  0  0  1  0  0  0  0  0  0
  -27.1290  -36.9590   24.4360 N   0  0  0  0  0  0  0  0  0  0  0  0
  -26.8500  -37.8810   24.7600 H   0  0  0  0  0  0  0  0  0  0  0  0
  -26.5560  -31.2280   24.7230 C   0  0  1  0  0  0  0  0  0  0  0  0
  -25.5980  -30.9050   25.8930 C   0  0  0  0  0  1  0  0  0  0  0  0
  -26.9350  -29.8910   24.0440 C   0  0  0  0  0  1  0  0  0  0  0  0
  -27.8640  -31.8030   25.3190 C   0  0  0  0  0  1  0  0  0  0  0  0
  1  4  1  0
  2  5  1  0
  2  1  2  0
  4  3  2  0
  4  7  1  0
  5  6  2  0
  6 56  1  0
  6  3  1  0
  7 46  1  0
  8 14  1  0
  8 16  1  0
  9 14  1  0
 10 11  1  0
 10  9  1  0
 12 11  1  0
 12 21  1  0
 12 13  1  0
 14 13  1  0
 15  8  2  0
 16 17  1  0
 16  7  1  0
 18 43  1  0
 18 19  2  0
 19 38  1  0
 20 23  1  0
 20 19  1  0
 21 22  1  0
 21 18  1  0
 22 20  2  0
 23 24  1  0
 24 25  2  0
 26 29  1  0
 26 25  1  0
 27 26  2  0
 28 27  1  0
 28 23  2  0
 29 30  1  0
 30 31  1  0
 31 32  2  0
 33 32  1  0
 33 37  1  0
 34 33  2  0
 35 30  2  0
 35 34  1  0
 36 35  1  0
 38 39  1  0
 39 41  1  0
 39 42  1  0
 40 38  2  0
 43 44  1  0
 45 43  1  0
 46 51  1  0
 48 47  1  0
 49 47  1  0
 50 51  1  0
 50 48  1  0
 51 52  1  1
 51 49  1  0
 53  5  1  0
 54 55  1  0
 55 53  1  0
 57 56  1  0
 57 58  2  0
 59 61  1  0
 59 58  1  0
 60 71  2  0
 61 66  1  0
 62 70  1  0
 62 72  1  0
 63 69  1  0
 63 65  1  0
 64 70  1  0
 65 64  1  0
 66 65  2  0
 67 68  1  0
 67 61  2  0
 68 63  2  0
 69 62  1  0
 70 60  1  0
 72 74  2  0
 73 72  1  0
 75 73  1  0
 76 85  2  0
 76 81  1  0
 77 73  1  0
 77 81  1  0
 78 77  1  0
 79 80  1  0
 79 78  1  0
 80 76  1  0
 81 82  2  0
 82 83  1  0
 84 83  2  0
 85 84  1  0
 86 60  1  0
 86 87  1  0
 86 96  1  0
 87 90  1  0
 88 87  1  0
 88 92  1  0
 89 88  2  0
 92 91  1  0
 92 94  1  0
 94 95  1  0
 94 93  1  0
 96 99  1  1
 96 97  1  0
 98 96  1  0
M  ISO  4   8 100  16 100  58 101  59 101
M  END
>  <TORSDO>  (95) 
F 24

>  <SCORE>  (95) 
-4.688

>  <name>  (95) 
95

>  <ligand_id>  (95) 
95

>  <original_smiles>  (95) 
[H]c1c([H])c([H])c2c(c1[H])C([H])([H])C([H])([H])C([H])([H])C2([H])N([H])C(=O)C1([H])N(C(=O)C([H])(N([H])C(=O)C([H])(N([H])C([H])([H])[H])C([H])([H])[H])C(C([H])([H])[H])(C([H])([H])[H])C([H])([H])[H])C([H])([H])c2c([H])c(OC([H])([H])C([H])([H])Oc3c([H])c(C([H])(N([H])C(=O)N4C([H])([H])C([H])([H])C([H])([H])C([H])(n5nc(-c6c([H])c([H])c(Oc7c([H])c([H])c(F)c([H])c7F)c([H])c6[H])c(C(=O)N([H])[H])c5N([H])[H])C4([H])[H])C([H])([H])[N+]4([H])C([H])([H])C([H])([H])C([H])([H])C4([H])[H])c([H])c([H])c3OC([H])([H])C([H])([H])[H])c([H])c([H])c2C1([H])[H]

>  <smiles>  (95) 
[H]c1c([H])c([H])c2c(c1[H])C([H])([H])C([H])([H])C([H])([H])C2([H])N([H])C(=O)C1([H])N(C(=O)C([H])(N([H])C(=O)C([H])(N([H])C([H])([H])[H])C([H])([H])[H])C(C([H])([H])[H])(C([H])([H])[H])C([H])([H])[H])C([H])([H])c2c([H])c(OC([H])([H])C([H])([H])Oc3c([H])c(C([H])(N([H])C(=O)N4C([H])([H])C([H])([H])C([H])([H])C([H])(n5nc(-c6c([H])c([H])c(Oc7c([H])c([H])c(F)c([H])c7F)c([H])c6[H])c(C(=O)N([H])[H])c5N([H])[H])C4([H])[H])C([H])([H])[N+]4([H])C([H])([H])C([H])([H])C([H])([H])C4([H])[H])c([H])c([H])c3OC([H])([H])C([H])([H])[H])c([H])c([H])c2C1([H])[H]

$$$$
96:0:0
     RDKit          3D

 89 98  0  0  1  0  0  0  0  0999 V2000
  -28.6780  -22.3300   21.0270 C   0  0  0  0  0  3  0  0  0  0  0  0
  -28.8610  -22.3280   18.7220 C   0  0  0  0  0  3  0  0  0  0  0  0
  -29.4380  -20.0730   19.9240 C   0  0  0  0  0  0  0  0  0  0  0  0
  -28.5160  -23.1610   19.8520 C   0  0  0  0  0  0  0  0  0  0  0  0
  -29.1170  -20.9150   21.0720 C   0  0  0  0  0  0  0  0  0  0  0  0
  -29.3000  -20.9210   18.7460 C   0  0  0  0  0  0  0  0  0  0  0  0
  -29.2720  -20.2980   22.4520 C   0  0  0  0  0  1  0  0  0  0  0  0
  -29.6730  -20.3200   17.3980 C   0  0  0  0  0  1  0  0  0  0  0  0
  -29.4410  -17.5300   18.9080 C   0  0  0  0  0  2  0  0  0  0  0  0
  -30.0850  -18.4780   19.8880 C   0  0  0  0  0  3  0  0  0  0  0  0
  -29.7340  -16.8060   20.1970 C   0  0  0  0  0  3  0  0  0  0  0  0
  -30.5900  -15.3750   19.9260 C   0  0  0  0  0  0  0  0  0  0  0  0
  -30.4770  -13.0050   18.9560 C   0  0  0  0  0  2  0  0  0  0  0  0
  -29.4680  -12.9520   17.7830 C   0  0  0  0  0  2  0  0  0  0  0  0
  -28.0430  -12.6840   18.2980 C   0  0  0  0  0  2  0  0  0  0  0  0
  -27.6960  -13.5710   19.5230 C   0  0  0  0  0  3  0  0  0  0  0  0
  -28.8220  -13.6010   20.5760 C   0  0  0  0  0  2  0  0  0  0  0  0
  -30.0400  -14.0780   19.9080 N   0  0  0  0  0  0  0  0  0  0  0  0
  -31.7690  -15.4220   19.5510 O   0  0  0  0  0  0  0  0  0  0  0  0
  -25.3850  -14.0870   20.4800 C   0  0  0  0  0  0  0  0  0  0  0  0
  -24.3550  -13.2880   20.8880 C   0  0  0  0  0  0  0  0  0  0  0  0
  -24.8210  -11.9430   20.7570 C   0  0  0  0  0  0  0  0  0  0  0  0
  -26.4060  -13.2300   20.1100 N   0  0  0  0  0  0  0  0  0  0  0  0
  -26.0830  -11.9310   20.3440 N   0  0  0  0  0  0  0  0  0  0  0  0
  -24.1130  -10.6690   20.9430 C   0  0  0  0  0  0  0  0  0  0  0  0
  -24.5470   -9.7070   21.8830 C   0  0  0  0  0  3  0  0  0  0  0  0
  -23.8320   -8.5030   22.0580 C   0  0  0  0  0  3  0  0  0  0  0  0
  -22.6690   -8.2480   21.2920 C   0  0  0  0  0  0  0  0  0  0  0  0
  -22.2550   -9.1980   20.3410 C   0  0  0  0  0  3  0  0  0  0  0  0
  -22.9690  -10.3950   20.1660 C   0  0  0  0  0  3  0  0  0  0  0  0
  -21.9300   -7.0940   21.3730 O   0  0  0  0  0  0  0  0  0  0  0  0
  -21.7870   -6.4130   22.5550 C   0  0  0  0  0  0  0  0  0  0  0  0
  -21.1940   -7.0080   23.6900 C   0  0  0  0  0  3  0  0  0  0  0  0
  -21.0020   -6.2500   24.8620 C   0  0  0  0  0  3  0  0  0  0  0  0
  -21.3930   -4.8990   24.8990 C   0  0  0  0  0  0  0  0  0  0  0  0
  -21.9790   -4.3030   23.7690 C   0  0  0  0  0  3  0  0  0  0  0  0
  -22.1720   -5.0570   22.5990 C   0  0  0  0  0  0  0  0  0  0  0  0
  -22.7170   -4.4730   21.5040 F   0  0  0  0  0  0  0  0  0  0  0  0
  -21.2010   -4.1690   26.0210 F   0  0  0  0  0  0  0  0  0  0  0  0
  -22.9820  -13.7440   21.2840 C   0  0  0  0  0  0  0  0  0  0  0  0
  -22.3290  -13.0130   22.1790 N   0  0  0  0  0  0  0  0  0  0  0  0
  -22.5010  -14.7840   20.8350 O   0  0  0  0  0  0  0  0  0  0  0  0
  -22.7360  -12.1710   22.5580 H   0  0  0  0  0  0  0  0  0  0  0  0
  -21.4120  -13.2990   22.4850 H   0  0  0  0  0  0  0  0  0  0  0  0
  -25.5330  -15.4670   20.3630 N   0  0  0  0  0  0  0  0  0  0  0  0
  -24.7780  -16.1070   20.5830 H   0  0  0  0  0  0  0  0  0  0  0  0
  -26.3530  -15.9340   19.9990 H   0  0  0  0  0  0  0  0  0  0  0  0
  -27.6980  -24.6540   19.7510 C   0  0  0  0  0  2  0  0  0  0  0  0
  -28.0780  -26.1850   20.0110 O   0  0  0  0  0  0  0  0  0  0  0  0
  -24.5580  -31.9790   23.1620 C   0  0  0  0  0  0  0  0  0  0  0  0
  -27.0610  -27.2470   19.9790 C   0  0  0  0  0  0  0  0  0  0  0  0
  -23.3230  -30.5970   21.5430 C   0  0  0  0  0  3  0  0  0  0  0  0
  -24.7370  -29.0480   20.0440 C   0  0  0  0  0  0  0  0  0  0  0  0
  -25.8770  -30.8530   21.3140 C   0  0  0  0  0  2  0  0  0  0  0  0
  -25.9380  -29.4660   20.6330 C   0  0  0  0  0  0  0  0  0  0  0  0
  -27.0970  -28.5820   20.5850 C   0  0  0  0  0  3  0  0  0  0  0  0
  -25.8320  -26.9680   19.3360 C   0  0  0  0  0  3  0  0  0  0  0  0
  -24.7040  -27.8180   19.3750 C   0  0  0  0  0  3  0  0  0  0  0  0
  -23.5070  -29.9430   20.1480 C   0  0  0  0  0  2  0  0  0  0  0  0
  -24.6080  -31.1670   22.0590 N   0  0  0  0  0  0  0  0  0  0  0  0
  -23.4840  -32.2510   23.7220 O   0  0  0  0  0  0  0  0  0  0  0  0
  -22.6750  -29.5740   22.5100 C   0  0  0  0  0  0  0  0  0  0  0  0
  -21.3550  -29.3450   22.3720 N   0  0  0  0  0  0  0  0  0  0  0  0
  -23.3620  -28.9920   23.3530 O   0  0  0  0  0  0  0  0  0  0  0  0
  -20.8540  -29.8660   21.6670 H   0  0  0  0  0  0  0  0  0  0  0  0
  -18.0470  -27.9220   22.7940 C   0  0  0  0  0  0  0  0  0  0  0  0
  -20.5680  -28.3790   23.1460 C   0  0  0  0  0  3  0  0  0  0  0  0
  -20.7930  -26.9370   22.6330 C   0  0  0  0  0  2  0  0  0  0  0  0
  -19.7590  -26.4970   21.5920 C   0  0  0  0  0  2  0  0  0  0  0  0
  -18.3450  -26.5660   22.1760 C   0  0  0  0  0  2  0  0  0  0  0  0
  -19.0890  -28.7790   23.2350 C   0  0  0  0  0  0  0  0  0  0  0  0
  -18.7560  -30.0410   23.7700 C   0  0  0  0  0  3  0  0  0  0  0  0
  -17.4130  -30.4490   23.8720 C   0  0  0  0  0  3  0  0  0  0  0  0
  -16.3840  -29.5900   23.4490 C   0  0  0  0  0  3  0  0  0  0  0  0
  -16.7010  -28.3270   22.9150 C   0  0  0  0  0  3  0  0  0  0  0  0
  -25.8460  -32.6220   23.7600 C   0  0  0  0  0  3  0  0  0  0  0  0
  -25.5330  -34.0170   24.1120 N   0  0  0  0  0  0  0  0  0  0  0  0
  -25.8050  -35.0800   23.3440 C   0  0  0  0  0  0  0  0  0  0  0  0
  -26.4130  -34.9920   22.2750 O   0  0  0  0  0  0  0  0  0  0  0  0
  -24.9890  -34.1590   24.9500 H   0  0  0  0  0  0  0  0  0  0  0  0
  -24.0210  -36.8450   23.1320 C   0  0  0  0  0  1  0  0  0  0  0  0
  -25.3310  -36.4610   23.8410 C   0  0  0  0  0  3  0  0  0  0  0  0
  -27.5020  -37.3940   24.5100 C   0  0  0  0  0  1  0  0  0  0  0  0
  -26.3310  -37.5350   23.6480 N   0  0  0  0  0  0  0  0  0  0  0  0
  -25.9160  -38.4470   23.8250 H   0  0  0  0  0  0  0  0  0  0  0  0
  -26.3920  -31.8510   25.0240 C   0  0  1  0  0  0  0  0  0  0  0  0
  -25.3190  -31.5830   26.1060 C   0  0  0  0  0  1  0  0  0  0  0  0
  -26.9980  -30.4870   24.6210 C   0  0  0  0  0  1  0  0  0  0  0  0
  -27.5370  -32.6620   25.6770 C   0  0  0  0  0  1  0  0  0  0  0  0
  1  5  1  0
  2  6  2  0
  2  4  1  0
  3  5  2  0
  4  1  2  0
  5  7  1  0
  6  3  1  0
  8  6  1  0
  9 10  1  0
  9 11  1  0
 10  3  1  0
 10 11  1  0
 11 12  1  0
 13 18  1  0
 14 15  1  0
 14 13  1  0
 16 15  1  0
 16 23  1  0
 16 17  1  0
 18 12  1  0
 18 17  1  0
 19 12  2  0
 20 21  2  0
 21 40  1  0
 22 21  1  0
 22 25  1  0
 23 24  1  0
 23 20  1  0
 24 22  2  0
 25 26  1  0
 26 27  2  0
 28 31  1  0
 28 27  1  0
 29 28  2  0
 30 29  1  0
 30 25  2  0
 31 32  1  0
 32 37  2  0
 32 33  1  0
 33 34  2  0
 34 35  1  0
 35 39  1  0
 36 35  2  0
 37 36  1  0
 38 37  1  0
 40 41  1  0
 41 44  1  0
 41 43  1  0
 42 40  2  0
 45 20  1  0
 45 46  1  0
 47 45  1  0
 48  4  1  0
 48 49  1  0
 50 61  2  0
 51 49  1  0
 51 56  1  0
 52 60  1  0
 52 62  1  0
 53 59  1  0
 53 55  1  0
 54 60  1  0
 55 54  1  0
 56 55  2  0
 57 58  1  0
 57 51  2  0
 58 53  2  0
 59 52  1  0
 60 50  1  0
 62 64  2  0
 63 62  1  0
 65 63  1  0
 66 75  2  0
 66 71  1  0
 67 63  1  0
 67 71  1  0
 68 67  1  0
 69 70  1  0
 69 68  1  0
 70 66  1  0
 71 72  2  0
 72 73  1  0
 74 73  2  0
 75 74  1  0
 76 50  1  0
 76 77  1  0
 76 86  1  0
 77 80  1  0
 78 82  1  0
 78 77  1  0
 79 78  2  0
 82 81  1  0
 84 85  1  0
 84 82  1  0
 84 83  1  0
 86 89  1  1
 86 87  1  0
 88 86  1  0
M  ISO  4  11 100  12 100  48 101  49 101
M  END
>  <TORSDO>  (96) 
F 18

>  <SCORE>  (96) 
-14.122

>  <name>  (96) 
96

>  <ligand_id>  (96) 
96

>  <original_smiles>  (96) 
[H]c1c([H])c([H])c2c(c1[H])C([H])([H])C([H])([H])C([H])([H])C2([H])N([H])C(=O)C1([H])N(C(=O)C([H])(N([H])C(=O)C([H])(N([H])C([H])([H])[H])C([H])([H])[H])C(C([H])([H])[H])(C([H])([H])[H])C([H])([H])[H])C([H])([H])c2c([H])c(OC([H])([H])c3c([H])c(C([H])([H])[H])c(C4([H])C([H])([H])C4([H])C(=O)N4C([H])([H])C([H])([H])C([H])([H])C([H])(n5nc(-c6c([H])c([H])c(Oc7c([H])c([H])c(F)c([H])c7F)c([H])c6[H])c(C(=O)N([H])[H])c5N([H])[H])C4([H])[H])c(C([H])([H])[H])c3[H])c([H])c([H])c2C1([H])[H]

>  <smiles>  (96) 
[H]c1c([H])c([H])c2c(c1[H])C([H])([H])C([H])([H])C([H])([H])C2([H])N([H])C(=O)C1([H])N(C(=O)C([H])(N([H])C(=O)C([H])(N([H])C([H])([H])[H])C([H])([H])[H])C(C([H])([H])[H])(C([H])([H])[H])C([H])([H])[H])C([H])([H])c2c([H])c(OC([H])([H])c3c([H])c(C([H])([H])[H])c(C4([H])C([H])([H])C4([H])C(=O)N4C([H])([H])C([H])([H])C([H])([H])C([H])(n5nc(-c6c([H])c([H])c(Oc7c([H])c([H])c(F)c([H])c7F)c([H])c6[H])c(C(=O)N([H])[H])c5N([H])[H])C4([H])[H])c(C([H])([H])[H])c3[H])c([H])c([H])c2C1([H])[H]

$$$$
