0:0:0
     RDKit          3D

 91100  0  0  1  0  0  0  0  0999 V2000
  -28.9370  -18.2200   20.6670 C   0  0  0  0  0  3  0  0  0  0  0  0
  -31.2490  -18.5340   20.5030 C   0  0  0  0  0  3  0  0  0  0  0  0
  -28.7380  -19.5850   20.2370 C   0  0  0  0  0  0  0  0  0  0  0  0
  -30.2060  -17.5800   20.8000 C   0  0  0  0  0  0  0  0  0  0  0  0
  -29.8330  -20.4480   19.9360 C   0  0  0  0  0  0  0  0  0  0  0  0
  -31.0770  -19.8710   20.0910 N   0  0  0  0  0  0  0  0  0  0  0  0
  -31.0900  -14.9510   21.1280 C   0  0  0  0  0  0  0  0  0  0  0  0
  -31.0900  -12.4800   20.5460 C   0  0  0  0  0  2  0  0  0  0  0  0
  -30.3600  -12.2740   19.1970 C   0  0  0  0  0  2  0  0  0  0  0  0
  -28.8360  -12.1500   19.4000 C   0  0  0  0  0  2  0  0  0  0  0  0
  -28.2820  -13.2400   20.3550 C   0  0  0  0  0  3  0  0  0  0  0  0
  -29.1410  -13.3740   21.6330 C   0  0  0  0  0  2  0  0  0  0  0  0
  -30.5130  -13.6870   21.2030 N   0  0  0  0  0  0  0  0  0  0  0  0
  -32.3110  -15.0280   20.9470 O   0  0  0  0  0  0  0  0  0  0  0  0
  -30.2330  -16.0770   21.1320 N   0  0  0  0  0  0  0  0  0  0  0  0
  -29.3170  -15.7500   21.4040 H   0  0  0  0  0  0  0  0  0  0  0  0
  -25.8800  -13.9950   20.8350 C   0  0  0  0  0  0  0  0  0  0  0  0
  -24.7130  -13.3010   21.0080 C   0  0  0  0  0  0  0  0  0  0  0  0
  -25.0600  -11.9170   20.9220 C   0  0  0  0  0  0  0  0  0  0  0  0
  -26.8670  -13.0400   20.6540 N   0  0  0  0  0  0  0  0  0  0  0  0
  -26.3730  -11.7800   20.7710 N   0  0  0  0  0  0  0  0  0  0  0  0
  -24.2090  -10.7200   20.9170 C   0  0  0  0  0  0  0  0  0  0  0  0
  -24.4970   -9.6050   21.7330 C   0  0  0  0  0  3  0  0  0  0  0  0
  -23.6520   -8.4740   21.7270 C   0  0  0  0  0  3  0  0  0  0  0  0
  -22.5040   -8.4510   20.9000 C   0  0  0  0  0  0  0  0  0  0  0  0
  -22.2320   -9.5540   20.0730 C   0  0  0  0  0  3  0  0  0  0  0  0
  -23.0770  -10.6770   20.0760 C   0  0  0  0  0  3  0  0  0  0  0  0
  -21.6400   -7.3860   20.8090 O   0  0  0  0  0  0  0  0  0  0  0  0
  -21.5250   -6.4630   21.8190 C   0  0  0  0  0  0  0  0  0  0  0  0
  -21.2010   -6.8410   23.1400 C   0  0  0  0  0  3  0  0  0  0  0  0
  -21.0250   -5.8540   24.1300 C   0  0  0  0  0  3  0  0  0  0  0  0
  -21.1630   -4.4930   23.8030 C   0  0  0  0  0  0  0  0  0  0  0  0
  -21.4800   -4.1150   22.4860 C   0  0  0  0  0  3  0  0  0  0  0  0
  -21.6580   -5.0980   21.4960 C   0  0  0  0  0  0  0  0  0  0  0  0
  -21.9430   -4.7260   20.2250 F   0  0  0  0  0  0  0  0  0  0  0  0
  -20.9860   -3.5450   24.7520 F   0  0  0  0  0  0  0  0  0  0  0  0
  -23.3390  -13.8900   21.1440 C   0  0  0  0  0  0  0  0  0  0  0  0
  -22.4560  -13.2210   21.8770 N   0  0  0  0  0  0  0  0  0  0  0  0
  -23.0560  -14.9750   20.6400 O   0  0  0  0  0  0  0  0  0  0  0  0
  -22.6940  -12.3400   22.3070 H   0  0  0  0  0  0  0  0  0  0  0  0
  -21.5290  -13.5980   22.0120 H   0  0  0  0  0  0  0  0  0  0  0  0
  -26.1790  -15.3540   20.7890 N   0  0  0  0  0  0  0  0  0  0  0  0
  -25.4510  -16.0580   20.8280 H   0  0  0  0  0  0  0  0  0  0  0  0
  -27.0820  -15.7350   20.5380 H   0  0  0  0  0  0  0  0  0  0  0  0
  -26.2600  -19.3810   19.3100 C   0  0  0  0  0  2  0  0  0  0  0  0
  -26.8710  -20.6380   18.7390 C   0  0  0  0  0  2  0  0  0  0  0  0
  -27.3420  -20.1160   20.0760 C   0  0  0  0  0  3  0  0  0  0  0  0
  -29.6090  -21.7010   19.2010 O   0  0  0  0  0  0  0  0  0  0  0  0
  -29.9680  -23.1720   19.4820 C   0  0  0  0  0  3  0  0  0  0  0  0
  -28.9360  -24.4330   19.0100 C   0  0  0  0  0  3  0  0  0  0  0  0
  -29.0450  -25.9800   19.2070 O   0  0  0  0  0  0  0  0  0  0  0  0
  -24.8230  -30.8920   22.7310 C   0  0  0  0  0  0  0  0  0  0  0  0
  -27.8790  -26.8330   19.2350 C   0  0  0  0  0  0  0  0  0  0  0  0
  -23.7630  -29.5300   20.9710 C   0  0  0  0  0  3  0  0  0  0  0  0
  -25.3590  -28.2860   19.3860 C   0  0  0  0  0  0  0  0  0  0  0  0
  -26.2650  -30.1140   20.8140 C   0  0  0  0  0  2  0  0  0  0  0  0
  -26.4900  -28.8100   20.0260 C   0  0  0  0  0  0  0  0  0  0  0  0
  -27.7470  -28.1030   19.9320 C   0  0  0  0  0  3  0  0  0  0  0  0
  -26.7070  -26.4130   18.5660 C   0  0  0  0  0  3  0  0  0  0  0  0
  -25.4800  -27.1040   18.6410 C   0  0  0  0  0  3  0  0  0  0  0  0
  -24.0360  -29.0210   19.5310 C   0  0  0  0  0  2  0  0  0  0  0  0
  -24.9690  -30.1960   21.5620 N   0  0  0  0  0  0  0  0  0  0  0  0
  -23.7200  -30.9930   23.2920 O   0  0  0  0  0  0  0  0  0  0  0  0
  -23.2270  -28.3610   21.8350 C   0  0  0  0  0  0  0  0  0  0  0  0
  -21.9320  -28.0300   21.6820 N   0  0  0  0  0  0  0  0  0  0  0  0
  -23.9760  -27.7580   22.6070 O   0  0  0  0  0  0  0  0  0  0  0  0
  -21.3760  -28.5790   21.0410 H   0  0  0  0  0  0  0  0  0  0  0  0
  -18.7470  -26.3290   22.0110 C   0  0  0  0  0  0  0  0  0  0  0  0
  -21.2400  -26.9290   22.3590 C   0  0  0  0  0  3  0  0  0  0  0  0
  -21.5510  -25.5740   21.6820 C   0  0  0  0  0  2  0  0  0  0  0  0
  -20.5210  -25.1780   20.6200 C   0  0  0  0  0  2  0  0  0  0  0  0
  -19.1240  -25.0750   21.2400 C   0  0  0  0  0  2  0  0  0  0  0  0
  -19.7400  -27.2080   22.5230 C   0  0  0  0  0  0  0  0  0  0  0  0
  -19.3340  -28.3750   23.2060 C   0  0  0  0  0  3  0  0  0  0  0  0
  -17.9690  -28.6700   23.3810 C   0  0  0  0  0  3  0  0  0  0  0  0
  -16.9930  -27.7900   22.8840 C   0  0  0  0  0  3  0  0  0  0  0  0
  -17.3810  -26.6220   22.2050 C   0  0  0  0  0  3  0  0  0  0  0  0
  -26.0290  -31.6110   23.4080 C   0  0  0  0  0  3  0  0  0  0  0  0
  -26.6610  -30.7800   24.5930 C   0  0  1  0  0  0  0  0  0  0  0  0
  -25.6290  -30.3070   25.6440 C   0  0  0  0  0  1  0  0  0  0  0  0
  -27.3910  -29.5260   24.0560 C   0  0  0  0  0  1  0  0  0  0  0  0
  -27.7270  -31.6330   25.3190 C   0  0  0  0  0  1  0  0  0  0  0  0
  -25.5560  -32.9170   23.8950 N   0  0  0  0  0  0  0  0  0  0  0  0
  -25.7840  -34.0890   23.2870 C   0  0  0  0  0  0  0  0  0  0  0  0
  -26.4790  -34.1910   22.2730 O   0  0  0  0  0  0  0  0  0  0  0  0
  -24.9350  -32.9040   24.6910 H   0  0  0  0  0  0  0  0  0  0  0  0
  -23.8780  -35.7210   23.1090 C   0  0  0  0  0  1  0  0  0  0  0  0
  -25.1410  -35.3480   23.9010 C   0  0  0  0  0  3  0  0  0  0  0  0
  -27.1520  -36.3410   24.9000 C   0  0  0  0  0  1  0  0  0  0  0  0
  -26.0530  -36.5110   23.9550 N   0  0  0  0  0  0  0  0  0  0  0  0
  -25.5450  -37.3550   24.2050 H   0  0  0  0  0  0  0  0  0  0  0  0
  1  4  1  0
  2  4  2  0
  3  1  2  0
  4 15  1  0
  5  6  2  0
  5  3  1  0
  6  2  1  0
  7 15  1  0
  7 13  1  0
  8 13  1  0
  9 10  1  0
  9  8  1  0
 11 10  1  0
 11 20  1  0
 11 12  1  0
 13 12  1  0
 14  7  2  0
 15 16  1  0
 17 18  2  0
 18 37  1  0
 19 18  1  0
 20 21  1  0
 20 17  1  0
 21 19  2  0
 22 19  1  0
 22 23  1  0
 24 23  2  0
 25 24  1  0
 26 27  1  0
 26 25  2  0
 27 22  2  0
 28 25  1  0
 28 29  1  0
 29 30  1  0
 30 31  2  0
 32 31  1  0
 32 36  1  0
 33 32  2  0
 34 29  2  0
 34 33  1  0
 35 34  1  0
 37 38  1  0
 38 41  1  0
 38 40  1  0
 39 37  2  0
 42 43  1  0
 42 17  1  0
 44 42  1  0
 45 47  1  0
 46 45  1  0
 46 47  1  0
 47  3  1  0
 48 49  1  0
 48  5  1  0
 50 51  1  0
 50 49  2  0
 51 53  1  0
 52 63  2  0
 53 58  1  0
 54 62  1  0
 54 64  1  0
 55 61  1  0
 55 57  1  0
 56 62  1  0
 57 56  1  0
 58 57  2  0
 59 60  1  0
 59 53  2  0
 60 55  2  0
 61 54  1  0
 62 52  1  0
 64 66  2  0
 65 64  1  0
 67 65  1  0
 68 77  2  0
 68 73  1  0
 69 65  1  0
 69 73  1  0
 70 69  1  0
 71 72  1  0
 71 70  1  0
 72 68  1  0
 73 74  2  0
 74 75  1  0
 76 75  2  0
 77 76  1  0
 78 52  1  0
 78 83  1  0
 78 79  1  0
 79 82  1  1
 79 80  1  0
 81 79  1  0
 83 86  1  0
 84 83  1  0
 84 88  1  0
 85 84  2  0
 88 87  1  0
 88 90  1  0
 90 91  1  0
 90 89  1  0
M  ISO  4   7 100  15 100  50 101  51 101
M  END
>  <TORSDO>  (1) 
F 20

>  <SCORE>  (1) 
-9.833

>  <name>  (1) 
0

>  <ligand_id>  (1) 
0

>  <original_smiles>  (1) 
[H]c1nc(OC([H])([H])C([H])([H])Oc2c([H])c([H])c3c(c2[H])C([H])([H])N(C(=O)C([H])(N([H])C(=O)C([H])(N([H])C([H])([H])[H])C([H])([H])[H])C(C([H])([H])[H])(C([H])([H])[H])C([H])([H])[H])C([H])(C(=O)N([H])C2([H])c4c([H])c([H])c([H])c([H])c4C([H])([H])C([H])([H])C2([H])[H])C3([H])[H])c(C2([H])C([H])([H])C2([H])[H])c([H])c1N([H])C(=O)N1C([H])([H])C([H])([H])C([H])([H])C([H])(n2nc(-c3c([H])c([H])c(Oc4c([H])c([H])c(F)c([H])c4F)c([H])c3[H])c(C(=O)N([H])[H])c2N([H])[H])C1([H])[H]

>  <smiles>  (1) 
[H]c1nc(OC([H])([H])C([H])([H])Oc2c([H])c([H])c3c(c2[H])C([H])([H])N(C(=O)C([H])(N([H])C(=O)C([H])(N([H])C([H])([H])[H])C([H])([H])[H])C(C([H])([H])[H])(C([H])([H])[H])C([H])([H])[H])C([H])(C(=O)N([H])C2([H])c4c([H])c([H])c([H])c([H])c4C([H])([H])C([H])([H])C2([H])[H])C3([H])[H])c(C2([H])C([H])([H])C2([H])[H])c([H])c1N([H])C(=O)N1C([H])([H])C([H])([H])C([H])([H])C([H])(n2nc(-c3c([H])c([H])c(Oc4c([H])c([H])c(F)c([H])c4F)c([H])c3[H])c(C(=O)N([H])[H])c2N([H])[H])C1([H])[H]

$$$$
1:0:0
     RDKit          3D

 91100  0  0  1  0  0  0  0  0999 V2000
  -29.8320  -22.8930   19.2420 C   0  0  0  0  0  2  0  0  0  0  0  0
  -29.8230  -21.8800   20.4480 C   0  0  0  0  0  3  0  0  0  0  0  0
  -29.1600  -23.8250   20.3260 C   0  0  0  0  0  3  0  0  0  0  0  0
  -28.6570  -22.5970   20.9790 O   0  0  0  0  0  0  0  0  0  0  0  0
  -28.6470  -19.5010   20.6710 C   0  0  0  0  0  3  0  0  0  0  0  0
  -28.6680  -18.0670   20.7160 C   0  0  0  0  0  3  0  0  0  0  0  0
  -30.9920  -18.0570   20.1720 C   0  0  0  0  0  3  0  0  0  0  0  0
  -29.8020  -20.2770   20.3830 C   0  0  0  0  0  0  0  0  0  0  0  0
  -30.9810  -19.4950   20.1280 C   0  0  0  0  0  0  0  0  0  0  0  0
  -29.8370  -17.2860   20.4760 C   0  0  0  0  0  0  0  0  0  0  0  0
  -32.3000  -20.1850   19.8140 C   0  0  0  0  0  1  0  0  0  0  0  0
  -30.5670  -14.7550   20.1720 C   0  0  0  0  0  0  0  0  0  0  0  0
  -30.3420  -12.5080   19.0980 C   0  0  0  0  0  2  0  0  0  0  0  0
  -29.3480  -12.6340   17.9210 C   0  0  0  0  0  2  0  0  0  0  0  0
  -27.8940  -12.4600   18.4060 C   0  0  0  0  0  2  0  0  0  0  0  0
  -27.5830  -13.3070   19.6690 C   0  0  0  0  0  3  0  0  0  0  0  0
  -28.6870  -13.1480   20.7370 C   0  0  0  0  0  2  0  0  0  0  0  0
  -29.9650  -13.5190   20.1100 N   0  0  0  0  0  0  0  0  0  0  0  0
  -31.7170  -14.9130   19.7480 O   0  0  0  0  0  0  0  0  0  0  0  0
  -29.7600  -15.8080   20.5630 N   0  0  0  0  0  0  0  0  0  0  0  0
  -28.8740  -15.4700   20.9030 H   0  0  0  0  0  0  0  0  0  0  0  0
  -25.2280  -13.8970   20.5060 C   0  0  0  0  0  0  0  0  0  0  0  0
  -24.1730  -13.1200   20.9020 C   0  0  0  0  0  0  0  0  0  0  0  0
  -24.6250  -11.7670   20.8160 C   0  0  0  0  0  0  0  0  0  0  0  0
  -26.2550  -13.0180   20.2040 N   0  0  0  0  0  0  0  0  0  0  0  0
  -25.9010  -11.7300   20.4500 N   0  0  0  0  0  0  0  0  0  0  0  0
  -23.8990  -10.5040   21.0040 C   0  0  0  0  0  0  0  0  0  0  0  0
  -24.3360   -9.5310   21.9290 C   0  0  0  0  0  3  0  0  0  0  0  0
  -23.6100   -8.3340   22.1050 C   0  0  0  0  0  3  0  0  0  0  0  0
  -22.4310   -8.1020   21.3580 C   0  0  0  0  0  0  0  0  0  0  0  0
  -22.0120   -9.0640   20.4220 C   0  0  0  0  0  3  0  0  0  0  0  0
  -22.7390  -10.2530   20.2430 C   0  0  0  0  0  3  0  0  0  0  0  0
  -21.6760   -6.9570   21.4440 O   0  0  0  0  0  0  0  0  0  0  0  0
  -21.5950   -6.2330   22.6070 C   0  0  0  0  0  0  0  0  0  0  0  0
  -21.1160   -6.8040   23.8070 C   0  0  0  0  0  3  0  0  0  0  0  0
  -20.9840   -6.0070   24.9610 C   0  0  0  0  0  3  0  0  0  0  0  0
  -21.3210   -4.6410   24.9170 C   0  0  0  0  0  0  0  0  0  0  0  0
  -21.7930   -4.0700   23.7220 C   0  0  0  0  0  3  0  0  0  0  0  0
  -21.9270   -4.8640   22.5690 C   0  0  0  0  0  0  0  0  0  0  0  0
  -22.3620   -4.3050   21.4150 F   0  0  0  0  0  0  0  0  0  0  0  0
  -21.1860   -3.8730   26.0230 F   0  0  0  0  0  0  0  0  0  0  0  0
  -22.7920  -13.5980   21.2460 C   0  0  0  0  0  0  0  0  0  0  0  0
  -22.0990  -12.8860   22.1270 N   0  0  0  0  0  0  0  0  0  0  0  0
  -22.3370  -14.6360   20.7680 O   0  0  0  0  0  0  0  0  0  0  0  0
  -22.4810  -12.0440   22.5350 H   0  0  0  0  0  0  0  0  0  0  0  0
  -21.1750  -13.1860   22.4010 H   0  0  0  0  0  0  0  0  0  0  0  0
  -25.3930  -15.2710   20.3540 N   0  0  0  0  0  0  0  0  0  0  0  0
  -24.6290  -15.9220   20.5040 H   0  0  0  0  0  0  0  0  0  0  0  0
  -26.2110  -15.7090   19.9510 H   0  0  0  0  0  0  0  0  0  0  0  0
  -28.0790  -24.9600   19.9580 C   0  0  0  0  0  2  0  0  0  0  0  0
  -28.3080  -26.4240   20.2090 O   0  0  0  0  0  0  0  0  0  0  0  0
  -24.5940  -31.8650   23.2530 C   0  0  0  0  0  0  0  0  0  0  0  0
  -27.2040  -27.3080   20.1530 C   0  0  0  0  0  0  0  0  0  0  0  0
  -23.3920  -30.4850   21.5980 C   0  0  0  0  0  3  0  0  0  0  0  0
  -24.8430  -28.9510   20.1540 C   0  0  0  0  0  0  0  0  0  0  0  0
  -25.9350  -30.7980   21.4220 C   0  0  0  0  0  2  0  0  0  0  0  0
  -26.0150  -29.4230   20.7590 C   0  0  0  0  0  0  0  0  0  0  0  0
  -27.1980  -28.6160   20.7470 C   0  0  0  0  0  3  0  0  0  0  0  0
  -26.0050  -26.9050   19.5190 C   0  0  0  0  0  3  0  0  0  0  0  0
  -24.8430  -27.6990   19.5240 C   0  0  0  0  0  3  0  0  0  0  0  0
  -23.6080  -29.8270   20.2100 C   0  0  0  0  0  2  0  0  0  0  0  0
  -24.6590  -31.0660   22.1470 N   0  0  0  0  0  0  0  0  0  0  0  0
  -23.5090  -32.1370   23.7900 O   0  0  0  0  0  0  0  0  0  0  0  0
  -22.7270  -29.4580   22.5470 C   0  0  0  0  0  0  0  0  0  0  0  0
  -21.4010  -29.2830   22.4200 N   0  0  0  0  0  0  0  0  0  0  0  0
  -23.4050  -28.8220   23.3590 O   0  0  0  0  0  0  0  0  0  0  0  0
  -20.9110  -29.8470   21.7400 H   0  0  0  0  0  0  0  0  0  0  0  0
  -18.0200  -28.0910   22.9170 C   0  0  0  0  0  0  0  0  0  0  0  0
  -20.5810  -28.3380   23.1820 C   0  0  0  0  0  3  0  0  0  0  0  0
  -20.6760  -26.9130   22.5870 C   0  0  0  0  0  2  0  0  0  0  0  0
  -19.5700  -26.6080   21.5720 C   0  0  0  0  0  2  0  0  0  0  0  0
  -18.1910  -26.7490   22.2220 C   0  0  0  0  0  2  0  0  0  0  0  0
  -19.1430  -28.8440   23.3530 C   0  0  0  0  0  0  0  0  0  0  0  0
  -18.9290  -30.0990   23.9630 C   0  0  0  0  0  3  0  0  0  0  0  0
  -17.6260  -30.6020   24.1390 C   0  0  0  0  0  3  0  0  0  0  0  0
  -16.5180  -29.8450   23.7200 C   0  0  0  0  0  3  0  0  0  0  0  0
  -16.7170  -28.5910   23.1140 C   0  0  0  0  0  3  0  0  0  0  0  0
  -25.8740  -32.4940   23.8820 C   0  0  0  0  0  3  0  0  0  0  0  0
  -25.5650  -33.8900   24.2230 N   0  0  0  0  0  0  0  0  0  0  0  0
  -25.8700  -34.9470   23.4580 C   0  0  0  0  0  0  0  0  0  0  0  0
  -26.5110  -34.8490   22.4080 O   0  0  0  0  0  0  0  0  0  0  0  0
  -24.9940  -34.0390   25.0420 H   0  0  0  0  0  0  0  0  0  0  0  0
  -24.1080  -36.7210   23.1750 C   0  0  0  0  0  1  0  0  0  0  0  0
  -25.3880  -36.3320   23.9330 C   0  0  0  0  0  3  0  0  0  0  0  0
  -27.5430  -37.2470   24.6730 C   0  0  0  0  0  1  0  0  0  0  0  0
  -26.4020  -37.3960   23.7730 N   0  0  0  0  0  0  0  0  0  0  0  0
  -25.9920  -38.3120   23.9300 H   0  0  0  0  0  0  0  0  0  0  0  0
  -26.3860  -31.7150   25.1560 C   0  0  1  0  0  0  0  0  0  0  0  0
  -25.2890  -31.4690   26.2180 C   0  0  0  0  0  1  0  0  0  0  0  0
  -26.9690  -30.3400   24.7570 C   0  0  0  0  0  1  0  0  0  0  0  0
  -27.5340  -32.5040   25.8260 C   0  0  0  0  0  1  0  0  0  0  0  0
  1  3  1  0
  1  2  1  0
  2  8  1  0
  2  4  1  0
  3 50  1  0
  3  4  1  0
  5  6  1  0
  7 10  1  0
  8  5  2  0
  9  7  2  0
  9  8  1  0
 10 20  1  0
 10  6  2  0
 11  9  1  0
 12 20  1  0
 13 18  1  0
 14 15  1  0
 14 13  1  0
 16 15  1  0
 16 25  1  0
 16 17  1  0
 18 12  1  0
 18 17  1  0
 19 12  2  0
 20 21  1  0
 22 23  2  0
 23 42  1  0
 24 23  1  0
 24 27  1  0
 25 26  1  0
 25 22  1  0
 26 24  2  0
 27 28  1  0
 28 29  2  0
 30 33  1  0
 30 29  1  0
 31 30  2  0
 32 31  1  0
 32 27  2  0
 33 34  1  0
 34 35  1  0
 35 36  2  0
 37 36  1  0
 37 41  1  0
 38 37  2  0
 39 34  2  0
 39 38  1  0
 40 39  1  0
 42 43  1  0
 43 46  1  0
 43 45  1  0
 44 42  2  0
 47 48  1  0
 47 22  1  0
 49 47  1  0
 50 51  1  0
 52 63  2  0
 53 51  1  0
 53 58  1  0
 54 62  1  0
 54 64  1  0
 55 61  1  0
 55 57  1  0
 56 62  1  0
 57 56  1  0
 58 57  2  0
 59 60  1  0
 59 53  2  0
 60 55  2  0
 61 54  1  0
 62 52  1  0
 64 66  2  0
 65 64  1  0
 67 65  1  0
 68 77  2  0
 68 73  1  0
 69 65  1  0
 69 73  1  0
 70 69  1  0
 71 72  1  0
 71 70  1  0
 72 68  1  0
 73 74  2  0
 74 75  1  0
 76 75  2  0
 77 76  1  0
 78 52  1  0
 78 79  1  0
 78 88  1  0
 79 82  1  0
 80 84  1  0
 80 79  1  0
 81 80  2  0
 84 83  1  0
 86 87  1  0
 86 84  1  0
 86 85  1  0
 88 91  1  1
 88 89  1  0
 90 88  1  0
M  ISO  4  12 100  20 100  50 101  51 101
M  END
>  <TORSDO>  (2) 
F 18

>  <SCORE>  (2) 
-14.583

>  <name>  (2) 
1

>  <ligand_id>  (2) 
1

>  <original_smiles>  (2) 
[H]c1c([H])c([H])c2c(c1[H])C([H])([H])C([H])([H])C([H])([H])C2([H])N([H])C(=O)C1([H])N(C(=O)C([H])(N([H])C(=O)C([H])(N([H])C([H])([H])[H])C([H])([H])[H])C(C([H])([H])[H])(C([H])([H])[H])C([H])([H])[H])C([H])([H])c2c([H])c(OC([H])([H])C3([H])OC([H])(c4c([H])c([H])c(N([H])C(=O)N5C([H])([H])C([H])([H])C([H])([H])C([H])(n6nc(-c7c([H])c([H])c(Oc8c([H])c([H])c(F)c([H])c8F)c([H])c7[H])c(C(=O)N([H])[H])c6N([H])[H])C5([H])[H])c([H])c4C([H])([H])[H])C3([H])[H])c([H])c([H])c2C1([H])[H]

>  <smiles>  (2) 
[H]c1c([H])c([H])c2c(c1[H])C([H])([H])C([H])([H])C([H])([H])C2([H])N([H])C(=O)C1([H])N(C(=O)C([H])(N([H])C(=O)C([H])(N([H])C([H])([H])[H])C([H])([H])[H])C(C([H])([H])[H])(C([H])([H])[H])C([H])([H])[H])C([H])([H])c2c([H])c(OC([H])([H])C3([H])OC([H])(c4c([H])c([H])c(N([H])C(=O)N5C([H])([H])C([H])([H])C([H])([H])C([H])(n6nc(-c7c([H])c([H])c(Oc8c([H])c([H])c(F)c([H])c8F)c([H])c7[H])c(C(=O)N([H])[H])c6N([H])[H])C5([H])[H])c([H])c4C([H])([H])[H])C3([H])[H])c([H])c([H])c2C1([H])[H]

$$$$
2:0:0
     RDKit          3D

 94103  0  0  1  0  0  0  0  0999 V2000
  -30.4500  -20.2030   22.1760 C   0  0  0  0  0  3  0  0  0  0  0  0
  -29.5870  -20.9240   21.3280 C   0  0  0  0  0  0  0  0  0  0  0  0
  -30.7160  -18.8480   21.8930 C   0  0  0  0  0  0  0  0  0  0  0  0
  -28.9610  -20.2310   20.2700 C   0  0  0  0  0  0  0  0  0  0  0  0
  -30.1180  -18.2670   20.7530 C   0  0  0  0  0  0  0  0  0  0  0  0
  -29.3730  -22.4220   21.5470 C   0  0  0  0  0  2  0  0  0  0  0  0
  -27.9440  -20.9090   19.3620 C   0  0  0  0  0  2  0  0  0  0  0  0
  -27.9330  -22.4460   19.4680 C   0  0  0  0  0  2  0  0  0  0  0  0
  -28.0660  -22.9450   20.9220 C   0  0  0  0  0  3  0  0  0  0  0  0
  -31.7010  -18.0850   22.7630 C   0  0  0  0  0  1  0  0  0  0  0  0
  -29.2220  -18.9350   19.9940 N   0  0  0  0  0  0  0  0  0  0  0  0
  -26.3890  -24.7150   21.5790 C   0  0  0  0  0  1  0  0  0  0  0  0
  -27.8430  -24.4840   21.1220 C   0  0  0  0  0  3  0  0  0  0  0  0
  -28.2830  -25.3750   19.9100 C   0  0  0  0  0  2  0  0  0  0  0  0
  -28.3070  -26.7990   20.1470 O   0  0  0  0  0  0  0  0  0  0  0  0
  -24.5210  -31.9560   23.2390 C   0  0  0  0  0  0  0  0  0  0  0  0
  -27.1400  -27.5370   20.0900 C   0  0  0  0  0  0  0  0  0  0  0  0
  -23.3090  -30.5780   21.5840 C   0  0  0  0  0  3  0  0  0  0  0  0
  -24.7550  -29.0660   20.1250 C   0  0  0  0  0  0  0  0  0  0  0  0
  -25.8370  -30.9320   21.3850 C   0  0  0  0  0  2  0  0  0  0  0  0
  -25.9150  -29.5700   20.7230 C   0  0  0  0  0  0  0  0  0  0  0  0
  -27.1090  -28.8120   20.7060 C   0  0  0  0  0  3  0  0  0  0  0  0
  -25.9630  -27.0670   19.4580 C   0  0  0  0  0  3  0  0  0  0  0  0
  -24.7740  -27.8140   19.4910 C   0  0  0  0  0  3  0  0  0  0  0  0
  -23.5120  -29.9240   20.1920 C   0  0  0  0  0  2  0  0  0  0  0  0
  -24.5750  -31.1680   22.1280 N   0  0  0  0  0  0  0  0  0  0  0  0
  -23.4420  -32.2220   23.7850 O   0  0  0  0  0  0  0  0  0  0  0  0
  -22.6620  -29.5410   22.5310 C   0  0  0  0  0  0  0  0  0  0  0  0
  -21.3360  -29.3630   22.4040 N   0  0  0  0  0  0  0  0  0  0  0  0
  -23.3480  -28.9050   23.3350 O   0  0  0  0  0  0  0  0  0  0  0  0
  -20.8470  -29.9290   21.7250 H   0  0  0  0  0  0  0  0  0  0  0  0
  -17.9570  -28.1890   22.9100 C   0  0  0  0  0  0  0  0  0  0  0  0
  -20.5190  -28.4180   23.1660 C   0  0  0  0  0  3  0  0  0  0  0  0
  -20.6040  -26.9980   22.5610 C   0  0  0  0  0  2  0  0  0  0  0  0
  -19.4890  -26.7040   21.5520 C   0  0  0  0  0  2  0  0  0  0  0  0
  -18.1140  -26.8500   22.2100 C   0  0  0  0  0  2  0  0  0  0  0  0
  -19.0860  -28.9310   23.3470 C   0  0  0  0  0  0  0  0  0  0  0  0
  -18.8840  -30.1860   23.9630 C   0  0  0  0  0  3  0  0  0  0  0  0
  -17.5870  -30.6970   24.1470 C   0  0  0  0  0  3  0  0  0  0  0  0
  -16.4710  -29.9490   23.7300 C   0  0  0  0  0  3  0  0  0  0  0  0
  -16.6580  -28.6980   23.1180 C   0  0  0  0  0  3  0  0  0  0  0  0
  -25.8110  -32.5770   23.8610 C   0  0  0  0  0  3  0  0  0  0  0  0
  -26.3150  -31.8060   25.1420 C   0  0  1  0  0  0  0  0  0  0  0  0
  -25.2110  -31.5720   26.2000 C   0  0  0  0  0  1  0  0  0  0  0  0
  -26.8970  -30.4260   24.7540 C   0  0  0  0  0  1  0  0  0  0  0  0
  -27.4610  -32.5970   25.8110 C   0  0  0  0  0  1  0  0  0  0  0  0
  -25.5140  -33.9790   24.1800 N   0  0  0  0  0  0  0  0  0  0  0  0
  -25.8750  -35.0240   23.4220 C   0  0  0  0  0  0  0  0  0  0  0  0
  -26.5640  -34.9060   22.4040 O   0  0  0  0  0  0  0  0  0  0  0  0
  -24.9000  -34.1430   24.9640 H   0  0  0  0  0  0  0  0  0  0  0  0
  -24.1910  -36.8450   23.0130 C   0  0  0  0  0  1  0  0  0  0  0  0
  -25.3980  -36.4210   23.8630 C   0  0  0  0  0  3  0  0  0  0  0  0
  -27.5190  -37.2720   24.7620 C   0  0  0  0  0  1  0  0  0  0  0  0
  -26.4540  -37.4540   23.7800 N   0  0  0  0  0  0  0  0  0  0  0  0
  -26.0600  -38.3820   23.9100 H   0  0  0  0  0  0  0  0  0  0  0  0
  -30.6270  -16.9630   20.1530 C   0  0  0  0  0  2  0  0  0  0  0  0
  -30.7320  -14.5550   20.3490 C   0  0  0  0  0  0  0  0  0  0  0  0
  -30.3470  -12.3900   19.2680 C   0  0  0  0  0  2  0  0  0  0  0  0
  -29.4010  -12.5930   18.0680 C   0  0  0  0  0  2  0  0  0  0  0  0
  -27.9360  -12.4610   18.5200 C   0  0  0  0  0  2  0  0  0  0  0  0
  -27.6140  -13.3090   19.7810 C   0  0  0  0  0  3  0  0  0  0  0  0
  -28.6920  -13.1490   20.8780 C   0  0  0  0  0  2  0  0  0  0  0  0
  -30.0040  -13.4100   20.2720 N   0  0  0  0  0  0  0  0  0  0  0  0
  -31.8830  -14.6220   19.9170 O   0  0  0  0  0  0  0  0  0  0  0  0
  -30.0830  -15.6900   20.6560 N   0  0  0  0  0  0  0  0  0  0  0  0
  -29.1190  -15.6630   20.9510 H   0  0  0  0  0  0  0  0  0  0  0  0
  -25.2290  -13.8880   20.5500 C   0  0  0  0  0  0  0  0  0  0  0  0
  -24.1720  -13.1040   20.9270 C   0  0  0  0  0  0  0  0  0  0  0  0
  -24.6390  -11.7550   20.8700 C   0  0  0  0  0  0  0  0  0  0  0  0
  -26.2740  -13.0170   20.2870 N   0  0  0  0  0  0  0  0  0  0  0  0
  -25.9250  -11.7280   20.5370 N   0  0  0  0  0  0  0  0  0  0  0  0
  -23.9220  -10.4860   21.0530 C   0  0  0  0  0  0  0  0  0  0  0  0
  -24.3520   -9.5250   21.9950 C   0  0  0  0  0  3  0  0  0  0  0  0
  -23.6350   -8.3210   22.1680 C   0  0  0  0  0  3  0  0  0  0  0  0
  -22.4730   -8.0700   21.3990 C   0  0  0  0  0  0  0  0  0  0  0  0
  -22.0630   -9.0200   20.4470 C   0  0  0  0  0  3  0  0  0  0  0  0
  -22.7810  -10.2150   20.2720 C   0  0  0  0  0  3  0  0  0  0  0  0
  -21.7300   -6.9180   21.4810 O   0  0  0  0  0  0  0  0  0  0  0  0
  -21.6450   -6.1960   22.6440 C   0  0  0  0  0  0  0  0  0  0  0  0
  -21.1320   -6.7580   23.8340 C   0  0  0  0  0  3  0  0  0  0  0  0
  -20.9990   -5.9610   24.9880 C   0  0  0  0  0  3  0  0  0  0  0  0
  -21.3660   -4.6020   24.9540 C   0  0  0  0  0  0  0  0  0  0  0  0
  -21.8700   -4.0390   23.7680 C   0  0  0  0  0  3  0  0  0  0  0  0
  -22.0060   -4.8340   22.6150 C   0  0  0  0  0  0  0  0  0  0  0  0
  -22.4730   -4.2810   21.4700 F   0  0  0  0  0  0  0  0  0  0  0  0
  -21.2300   -3.8340   26.0590 F   0  0  0  0  0  0  0  0  0  0  0  0
  -22.7780  -13.5700   21.2340 C   0  0  0  0  0  0  0  0  0  0  0  0
  -22.0640  -12.8480   22.0930 N   0  0  0  0  0  0  0  0  0  0  0  0
  -22.3300  -14.6080   20.7480 O   0  0  0  0  0  0  0  0  0  0  0  0
  -22.4400  -12.0080   22.5060 H   0  0  0  0  0  0  0  0  0  0  0  0
  -21.1300  -13.1420   22.3390 H   0  0  0  0  0  0  0  0  0  0  0  0
  -25.3830  -15.2610   20.3880 N   0  0  0  0  0  0  0  0  0  0  0  0
  -24.6160  -15.9120   20.5210 H   0  0  0  0  0  0  0  0  0  0  0  0
  -26.2250  -15.7080   20.0450 H   0  0  0  0  0  0  0  0  0  0  0  0
  2  6  1  0
  2  1  2  0
  3  1  1  0
  3 10  1  0
  4  2  1  0
  5  3  2  0
  7  8  1  0
  7  4  1  0
  8  9  1  0
  9 13  1  0
  9  6  1  0
 11  4  2  0
 11  5  1  0
 13 12  1  0
 14 15  1  0
 14 13  1  0
 16 27  2  0
 17 15  1  0
 17 22  1  0
 18 26  1  0
 18 28  1  0
 19 25  1  0
 19 21  1  0
 20 26  1  0
 21 20  1  0
 22 21  2  0
 23 24  1  0
 23 17  2  0
 24 19  2  0
 25 18  1  0
 26 16  1  0
 28 30  2  0
 29 28  1  0
 31 29  1  0
 32 41  2  0
 32 37  1  0
 33 29  1  0
 33 37  1  0
 34 33  1  0
 35 36  1  0
 35 34  1  0
 36 32  1  0
 37 38  2  0
 38 39  1  0
 40 39  2  0
 41 40  1  0
 42 16  1  0
 42 47  1  0
 42 43  1  0
 43 46  1  1
 43 44  1  0
 45 43  1  0
 47 50  1  0
 48 52  1  0
 48 47  1  0
 49 48  2  0
 52 51  1  0
 54 52  1  0
 54 55  1  0
 54 53  1  0
 56 65  1  0
 56  5  1  0
 57 65  1  0
 58 63  1  0
 59 60  1  0
 59 58  1  0
 61 60  1  0
 61 70  1  0
 61 62  1  0
 63 57  1  0
 63 62  1  0
 64 57  2  0
 65 66  1  0
 67 68  2  0
 68 87  1  0
 69 68  1  0
 69 72  1  0
 70 71  1  0
 70 67  1  0
 71 69  2  0
 72 73  1  0
 73 74  2  0
 75 78  1  0
 75 74  1  0
 76 75  2  0
 77 76  1  0
 77 72  2  0
 78 79  1  0
 79 80  1  0
 80 81  2  0
 82 81  1  0
 82 86  1  0
 83 82  2  0
 84 79  2  0
 84 83  1  0
 85 84  1  0
 87 88  1  0
 88 91  1  0
 88 90  1  0
 89 87  2  0
 92 93  1  0
 92 67  1  0
 94 92  1  0
M  ISO  4  14 101  15 101  57 100  65 100
M  END
>  <TORSDO>  (3) 
F 19

>  <SCORE>  (3) 
-13.896

>  <name>  (3) 
2

>  <ligand_id>  (3) 
2

>  <original_smiles>  (3) 
[H]c1c([H])c([H])c2c(c1[H])C([H])([H])C([H])([H])C([H])([H])C2([H])N([H])C(=O)C1([H])N(C(=O)C([H])(N([H])C(=O)C([H])(N([H])C([H])([H])[H])C([H])([H])[H])C(C([H])([H])[H])(C([H])([H])[H])C([H])([H])[H])C([H])([H])c2c([H])c(OC([H])([H])C([H])(C([H])([H])[H])C3([H])C([H])([H])c4c(nc(C([H])([H])N([H])C(=O)N5C([H])([H])C([H])([H])C([H])([H])C([H])(n6nc(-c7c([H])c([H])c(Oc8c([H])c([H])c(F)c([H])c8F)c([H])c7[H])c(C(=O)N([H])[H])c6N([H])[H])C5([H])[H])c(C([H])([H])[H])c4[H])C([H])([H])C3([H])[H])c([H])c([H])c2C1([H])[H]

>  <smiles>  (3) 
[H]c1c([H])c([H])c2c(c1[H])C([H])([H])C([H])([H])C([H])([H])C2([H])N([H])C(=O)C1([H])N(C(=O)C([H])(N([H])C(=O)C([H])(N([H])C([H])([H])[H])C([H])([H])[H])C(C([H])([H])[H])(C([H])([H])[H])C([H])([H])[H])C([H])([H])c2c([H])c(OC([H])([H])C([H])(C([H])([H])[H])C3([H])C([H])([H])c4c(nc(C([H])([H])N([H])C(=O)N5C([H])([H])C([H])([H])C([H])([H])C([H])(n6nc(-c7c([H])c([H])c(Oc8c([H])c([H])c(F)c([H])c8F)c([H])c7[H])c(C(=O)N([H])[H])c6N([H])[H])C5([H])[H])c(C([H])([H])[H])c4[H])C([H])([H])C3([H])[H])c([H])c([H])c2C1([H])[H]

$$$$
3:0:0
     RDKit          3D

 93102  0  0  1  0  0  0  0  0999 V2000
  -30.1790  -23.9670   17.6520 C   0  0  0  0  0  3  0  0  0  0  0  0
  -32.5800  -22.8930   18.4060 C   0  0  0  0  0  3  0  0  0  0  0  0
  -30.1800  -23.0230   18.7070 C   0  0  0  0  0  0  0  0  0  0  0  0
  -31.4270  -22.4630   19.1000 C   0  0  0  0  0  0  0  0  0  0  0  0
  -31.3800  -24.3030   17.0010 C   0  0  0  0  0  0  0  0  0  0  0  0
  -32.5590  -23.7750   17.3830 N   0  0  0  0  0  0  0  0  0  0  0  0
  -27.5340  -23.0620   18.7850 C   0  0  0  0  0  2  0  0  0  0  0  0
  -27.9640  -21.6170   18.6720 C   0  0  0  0  0  2  0  0  0  0  0  0
  -28.8680  -22.6270   19.3460 C   0  0  0  0  0  3  0  0  0  0  0  0
  -31.4990  -21.4050   20.2200 C   0  0  0  0  0  2  0  0  0  0  0  0
  -32.3410  -20.1310   19.9590 C   0  0  0  0  0  2  0  0  0  0  0  0
  -31.9370  -18.0020   18.7330 C   0  0  0  0  0  0  0  0  0  0  0  0
  -32.5370  -16.1760   17.1880 C   0  0  0  0  0  2  0  0  0  0  0  0
  -33.9660  -16.4200   16.6580 C   0  0  0  0  0  2  0  0  0  0  0  0
  -33.9420  -17.3270   15.4140 C   0  0  0  0  0  2  0  0  0  0  0  0
  -33.0790  -18.5990   15.6210 C   0  0  0  0  0  3  0  0  0  0  0  0
  -31.7040  -18.2470   16.2320 C   0  0  0  0  0  2  0  0  0  0  0  0
  -31.9320  -17.4880   17.4740 N   0  0  0  0  0  0  0  0  0  0  0  0
  -32.1770  -17.3200   19.7350 O   0  0  0  0  0  0  0  0  0  0  0  0
  -31.8410  -19.3400   18.8220 N   0  0  0  0  0  0  0  0  0  0  0  0
  -31.6100  -19.8330   17.9730 H   0  0  0  0  0  0  0  0  0  0  0  0
  -33.8500  -20.1940   13.7560 C   0  0  0  0  0  0  0  0  0  0  0  0
  -33.2520  -20.6000   12.5920 C   0  0  0  0  0  0  0  0  0  0  0  0
  -31.9700  -19.9680   12.5660 C   0  0  0  0  0  0  0  0  0  0  0  0
  -32.9370  -19.3590   14.3800 N   0  0  0  0  0  0  0  0  0  0  0  0
  -31.7770  -19.2690   13.6770 N   0  0  0  0  0  0  0  0  0  0  0  0
  -30.9380  -19.9420   11.5210 C   0  0  0  0  0  0  0  0  0  0  0  0
  -29.6730  -20.5390   11.7200 C   0  0  0  0  0  3  0  0  0  0  0  0
  -28.7000  -20.5170   10.6970 C   0  0  0  0  0  3  0  0  0  0  0  0
  -28.9890  -19.8950    9.4580 C   0  0  0  0  0  0  0  0  0  0  0  0
  -30.2400  -19.2830    9.2730 C   0  0  0  0  0  3  0  0  0  0  0  0
  -31.2060  -19.3020   10.2940 C   0  0  0  0  0  3  0  0  0  0  0  0
  -28.0960  -19.7990    8.4180 O   0  0  0  0  0  0  0  0  0  0  0  0
  -27.0130  -20.6350    8.3210 C   0  0  0  0  0  0  0  0  0  0  0  0
  -27.1550  -22.0110    8.0440 C   0  0  0  0  0  3  0  0  0  0  0  0
  -26.0130  -22.8200    7.8840 C   0  0  0  0  0  3  0  0  0  0  0  0
  -24.7290  -22.2540    7.9910 C   0  0  0  0  0  0  0  0  0  0  0  0
  -24.5840  -20.8820    8.2590 C   0  0  0  0  0  3  0  0  0  0  0  0
  -25.7230  -20.0750    8.4210 C   0  0  0  0  0  0  0  0  0  0  0  0
  -25.5790  -18.7490    8.6600 F   0  0  0  0  0  0  0  0  0  0  0  0
  -23.6310  -23.0280    7.8300 F   0  0  0  0  0  0  0  0  0  0  0  0
  -33.8680  -21.4470   11.5170 C   0  0  0  0  0  0  0  0  0  0  0  0
  -33.5660  -22.7390   11.5040 N   0  0  0  0  0  0  0  0  0  0  0  0
  -34.6630  -20.9720   10.7070 O   0  0  0  0  0  0  0  0  0  0  0  0
  -32.9360  -23.1380   12.1820 H   0  0  0  0  0  0  0  0  0  0  0  0
  -33.9740  -23.3410   10.8010 H   0  0  0  0  0  0  0  0  0  0  0  0
  -35.0940  -20.4460   14.3260 N   0  0  0  0  0  0  0  0  0  0  0  0
  -35.8070  -21.0010   13.8660 H   0  0  0  0  0  0  0  0  0  0  0  0
  -35.4200  -20.0150   15.1820 H   0  0  0  0  0  0  0  0  0  0  0  0
  -31.4880  -25.1620   15.9240 O   0  0  0  0  0  0  0  0  0  0  0  0
  -32.6120  -26.0470   15.8240 C   0  0  0  0  0  2  0  0  0  0  0  0
  -32.1830  -27.3420   15.0940 C   0  0  0  0  0  2  0  0  0  0  0  0
  -32.2350  -27.2400   13.6660 O   0  0  0  0  0  0  0  0  0  0  0  0
  -34.9670  -30.0890    7.7590 C   0  0  0  0  0  0  0  0  0  0  0  0
  -33.3980  -27.4870   12.9630 C   0  0  0  0  0  0  0  0  0  0  0  0
  -36.5540  -28.7920    9.1450 C   0  0  0  0  0  3  0  0  0  0  0  0
  -35.7180  -28.1290   11.4630 C   0  0  0  0  0  0  0  0  0  0  0  0
  -34.5300  -29.9380   10.2080 C   0  0  0  0  0  2  0  0  0  0  0  0
  -34.5310  -28.8390   11.2520 C   0  0  0  0  0  0  0  0  0  0  0  0
  -33.3760  -28.5230   11.9990 C   0  0  0  0  0  3  0  0  0  0  0  0
  -34.6040  -26.7690   13.1500 C   0  0  0  0  0  3  0  0  0  0  0  0
  -35.7580  -27.0910   12.4100 C   0  0  0  0  0  3  0  0  0  0  0  0
  -36.9160  -28.5330   10.6330 C   0  0  0  0  0  2  0  0  0  0  0  0
  -35.3090  -29.6130    8.9900 N   0  0  0  0  0  0  0  0  0  0  0  0
  -35.6880  -29.8890    6.7710 O   0  0  0  0  0  0  0  0  0  0  0  0
  -36.4840  -27.4340    8.4100 C   0  0  0  0  0  0  0  0  0  0  0  0
  -37.5010  -27.1490    7.5800 N   0  0  0  0  0  0  0  0  0  0  0  0
  -35.5490  -26.6540    8.6110 O   0  0  0  0  0  0  0  0  0  0  0  0
  -38.2250  -27.8460    7.4630 H   0  0  0  0  0  0  0  0  0  0  0  0
  -39.5310  -25.5320    5.0680 C   0  0  0  0  0  0  0  0  0  0  0  0
  -37.6690  -25.9130    6.8190 C   0  0  0  0  0  3  0  0  0  0  0  0
  -38.3800  -24.8310    7.6630 C   0  0  0  0  0  2  0  0  0  0  0  0
  -39.9000  -24.8160    7.4680 C   0  0  0  0  0  2  0  0  0  0  0  0
  -40.2520  -24.5690    5.9980 C   0  0  0  0  0  2  0  0  0  0  0  0
  -38.3280  -26.1740    5.4610 C   0  0  0  0  0  0  0  0  0  0  0  0
  -37.7170  -27.0870    4.5740 C   0  0  0  0  0  3  0  0  0  0  0  0
  -38.2870  -27.3600    3.3160 C   0  0  0  0  0  3  0  0  0  0  0  0
  -39.4700  -26.7090    2.9250 C   0  0  0  0  0  3  0  0  0  0  0  0
  -40.0860  -25.7930    3.7970 C   0  0  0  0  0  3  0  0  0  0  0  0
  -33.6690  -30.9260    7.5370 C   0  0  0  0  0  3  0  0  0  0  0  0
  -34.0070  -32.0370    6.6390 N   0  0  0  0  0  0  0  0  0  0  0  0
  -34.8680  -33.0200    6.9350 C   0  0  0  0  0  0  0  0  0  0  0  0
  -35.4120  -33.1210    8.0380 O   0  0  0  0  0  0  0  0  0  0  0  0
  -33.6390  -31.9860    5.6990 H   0  0  0  0  0  0  0  0  0  0  0  0
  -36.5470  -34.6920    6.0950 C   0  0  0  0  0  1  0  0  0  0  0  0
  -35.1740  -34.0520    5.8330 C   0  0  0  0  0  3  0  0  0  0  0  0
  -33.1530  -34.8340    4.6800 C   0  0  0  0  0  1  0  0  0  0  0  0
  -34.1460  -35.1080    5.7150 N   0  0  0  0  0  0  0  0  0  0  0  0
  -34.5740  -36.0090    5.5150 H   0  0  0  0  0  0  0  0  0  0  0  0
  -32.4750  -30.0770    6.9480 C   0  0  1  0  0  0  0  0  0  0  0  0
  -32.2410  -30.3010    5.4380 C   0  0  0  0  0  1  0  0  0  0  0  0
  -32.7160  -28.5650    7.1700 C   0  0  0  0  0  1  0  0  0  0  0  0
  -31.1650  -30.4260    7.6940 C   0  0  0  0  0  1  0  0  0  0  0  0
  1  3  2  0
  2  4  2  0
  3  4  1  0
  3  9  1  0
  4 10  1  0
  5  6  2  0
  5  1  1  0
  6  2  1  0
  7  9  1  0
  8  7  1  0
  8  9  1  0
 11 10  1  0
 12 20  1  0
 12 19  2  0
 13 18  1  0
 14 13  1  0
 15 16  1  0
 15 14  1  0
 16 25  1  0
 16 17  1  0
 17 18  1  0
 18 12  1  0
 20 11  1  0
 21 20  1  0
 22 47  1  0
 22 25  1  0
 23 22  2  0
 24 23  1  0
 24 26  2  0
 26 25  1  0
 27 28  1  0
 27 24  1  0
 29 28  2  0
 30 29  1  0
 31 30  2  0
 31 32  1  0
 32 27  2  0
 33 30  1  0
 34 33  1  0
 34 39  1  0
 35 34  2  0
 36 37  2  0
 36 35  1  0
 37 38  1  0
 38 39  2  0
 39 40  1  0
 41 37  1  0
 42 23  1  0
 43 42  1  0
 43 45  1  0
 44 42  2  0
 46 43  1  0
 47 49  1  0
 48 47  1  0
 50  5  1  0
 51 50  1  0
 52 51  1  0
 53 52  1  0
 54 64  1  0
 55 61  1  0
 55 53  1  0
 56 66  1  0
 56 63  1  0
 57 62  1  0
 58 59  1  0
 59 57  2  0
 59 60  1  0
 60 55  2  0
 62 61  2  0
 63 57  1  0
 64 56  1  0
 64 58  1  0
 65 54  2  0
 66 68  2  0
 67 66  1  0
 69 67  1  0
 70 75  1  0
 70 74  1  0
 71 67  1  0
 71 72  1  0
 73 72  1  0
 74 73  1  0
 75 71  1  0
 76 75  2  0
 77 76  1  0
 78 77  2  0
 78 79  1  0
 79 70  2  0
 80 54  1  0
 81 82  1  0
 81 80  1  0
 82 83  2  0
 84 81  1  0
 86 85  1  0
 86 82  1  0
 87 88  1  0
 88 86  1  0
 89 88  1  0
 90 92  1  6
 90 80  1  0
 90 93  1  0
 91 90  1  0
M  ISO  4  12 100  20 100  52 101  53 101
M  END
>  <TORSDO>  (4) 
F 22

>  <SCORE>  (4) 
-2.555

>  <name>  (4) 
3

>  <ligand_id>  (4) 
3

>  <original_smiles>  (4) 
[H]c1nc(OC([H])([H])C([H])([H])Oc2c([H])c([H])c3c(c2[H])C([H])([H])N(C(=O)C([H])(N([H])C(=O)C([H])(N([H])C([H])([H])[H])C([H])([H])[H])C(C([H])([H])[H])(C([H])([H])[H])C([H])([H])[H])C([H])(C(=O)N([H])C2([H])c4c([H])c([H])c([H])c([H])c4C([H])([H])C([H])([H])C2([H])[H])C3([H])[H])c([H])c(C2([H])C([H])([H])C2([H])[H])c1C([H])([H])C([H])([H])N([H])C(=O)N1C([H])([H])C([H])([H])C([H])([H])C([H])(n2nc(-c3c([H])c([H])c(Oc4c([H])c([H])c(F)c([H])c4F)c([H])c3[H])c(C(=O)N([H])[H])c2N([H])[H])C1([H])[H]

>  <smiles>  (4) 
[H]c1nc(OC([H])([H])C([H])([H])Oc2c([H])c([H])c3c(c2[H])C([H])([H])N(C(=O)C([H])(N([H])C(=O)C([H])(N([H])C([H])([H])[H])C([H])([H])[H])C(C([H])([H])[H])(C([H])([H])[H])C([H])([H])[H])C([H])(C(=O)N([H])C2([H])c4c([H])c([H])c([H])c([H])c4C([H])([H])C([H])([H])C2([H])[H])C3([H])[H])c([H])c(C2([H])C([H])([H])C2([H])[H])c1C([H])([H])C([H])([H])N([H])C(=O)N1C([H])([H])C([H])([H])C([H])([H])C([H])(n2nc(-c3c([H])c([H])c(Oc4c([H])c([H])c(F)c([H])c4F)c([H])c3[H])c(C(=O)N([H])[H])c2N([H])[H])C1([H])[H]

$$$$
4:0:0
     RDKit          3D

104114  0  0  1  0  0  0  0  0999 V2000
  -32.7790  -24.5160   10.8040 C   0  0  0  0  0  3  0  0  0  0  0  0
  -32.6430  -26.6620    9.6880 C   0  0  0  0  0  3  0  0  0  0  0  0
  -32.4880  -23.8200    9.5730 C   0  0  0  0  0  0  0  0  0  0  0  0
  -32.4410  -24.6030    8.3740 C   0  0  0  0  0  0  0  0  0  0  0  0
  -32.9220  -25.9510   10.8640 C   0  0  0  0  0  0  0  0  0  0  0  0
  -32.4010  -26.0200    8.4630 C   0  0  0  0  0  0  0  0  0  0  0  0
  -32.4180  -17.9700    8.3200 C   0  0  0  0  0  0  0  0  0  0  0  0
  -31.6080  -15.6950    8.8960 C   0  0  0  0  0  2  0  0  0  0  0  0
  -30.2890  -15.8220    9.6910 C   0  0  0  0  0  2  0  0  0  0  0  0
  -30.5810  -15.9810   11.1960 C   0  0  0  0  0  2  0  0  0  0  0  0
  -31.6680  -17.0510   11.4870 C   0  0  0  0  0  3  0  0  0  0  0  0
  -32.8930  -16.8640   10.5690 C   0  0  0  0  0  2  0  0  0  0  0  0
  -32.4100  -16.9020    9.1820 N   0  0  0  0  0  0  0  0  0  0  0  0
  -32.1420  -17.7980    7.1280 O   0  0  0  0  0  0  0  0  0  0  0  0
  -31.3030  -21.6780    8.4250 C   0  0  0  0  0  2  0  0  0  0  0  0
  -33.5810  -21.4510    9.1620 C   0  0  0  0  0  2  0  0  0  0  0  0
  -31.1200  -20.1110    8.5340 C   0  0  0  0  0  2  0  0  0  0  0  0
  -33.4320  -19.9380    9.5120 C   0  0  0  0  0  2  0  0  0  0  0  0
  -32.2870  -22.2580    9.4540 C   0  0  0  0  0  3  0  0  0  0  0  0
  -32.3040  -19.2420    8.8550 N   0  0  0  0  0  0  0  0  0  0  0  0
  -31.6030  -17.9290   13.8980 C   0  0  0  0  0  0  0  0  0  0  0  0
  -32.1870  -17.4820   15.0530 C   0  0  0  0  0  0  0  0  0  0  0  0
  -32.9690  -16.3450   14.6850 C   0  0  0  0  0  0  0  0  0  0  0  0
  -32.0380  -17.0750   12.8980 N   0  0  0  0  0  0  0  0  0  0  0  0
  -32.9120  -16.1500   13.3730 N   0  0  0  0  0  0  0  0  0  0  0  0
  -33.7230  -15.3940   15.5140 C   0  0  0  0  0  0  0  0  0  0  0  0
  -35.0100  -15.7030   16.0090 C   0  0  0  0  0  3  0  0  0  0  0  0
  -35.7060  -14.7790   16.8180 C   0  0  0  0  0  3  0  0  0  0  0  0
  -35.1150  -13.5350   17.1440 C   0  0  0  0  0  0  0  0  0  0  0  0
  -33.8440  -13.2230   16.6300 C   0  0  0  0  0  3  0  0  0  0  0  0
  -33.1550  -14.1420   15.8190 C   0  0  0  0  0  3  0  0  0  0  0  0
  -35.7260  -12.5660   17.9030 O   0  0  0  0  0  0  0  0  0  0  0  0
  -35.3700  -12.3440   19.2090 C   0  0  0  0  0  0  0  0  0  0  0  0
  -34.4500  -11.3360   19.5700 C   0  0  0  0  0  3  0  0  0  0  0  0
  -34.1660  -11.0940   20.9280 C   0  0  0  0  0  3  0  0  0  0  0  0
  -34.8030  -11.8540   21.9280 C   0  0  0  0  0  0  0  0  0  0  0  0
  -35.7250  -12.8550   21.5710 C   0  0  0  0  0  3  0  0  0  0  0  0
  -36.0090  -13.0970   20.2160 C   0  0  0  0  0  0  0  0  0  0  0  0
  -36.9120  -14.0500   19.8780 F   0  0  0  0  0  0  0  0  0  0  0  0
  -34.5370  -11.6180   23.2340 F   0  0  0  0  0  0  0  0  0  0  0  0
  -31.9580  -18.0180   16.4360 C   0  0  0  0  0  0  0  0  0  0  0  0
  -33.0120  -18.4880   17.0940 N   0  0  0  0  0  0  0  0  0  0  0  0
  -30.8300  -18.0680   16.9210 O   0  0  0  0  0  0  0  0  0  0  0  0
  -33.9350  -18.4630   16.6850 H   0  0  0  0  0  0  0  0  0  0  0  0
  -32.8950  -18.8770   18.0190 H   0  0  0  0  0  0  0  0  0  0  0  0
  -30.7230  -18.9690   13.6190 N   0  0  0  0  0  0  0  0  0  0  0  0
  -30.3090  -19.5270   14.3570 H   0  0  0  0  0  0  0  0  0  0  0  0
  -30.2880  -19.1070   12.7180 H   0  0  0  0  0  0  0  0  0  0  0  0
  -33.9880  -24.0680    6.4060 C   0  0  0  0  0  2  0  0  0  0  0  0
  -32.4240  -24.7990    4.7370 C   0  0  0  0  0  2  0  0  0  0  0  0
  -32.5590  -23.9540    6.9730 C   0  0  0  0  0  3  0  0  0  0  0  0
  -33.8660  -25.0110    5.2090 C   0  0  0  0  0  3  0  0  0  0  0  0
  -31.6540  -24.5430    5.9660 N   0  0  0  0  0  4  0  0  0  0  0  0
  -30.8340  -23.9840    5.7980 H   0  0  0  0  0  0  0  0  0  0  0  0
  -31.3830  -25.4370    6.3440 H   0  0  0  0  0  0  0  0  0  0  0  0
  -34.8440  -24.7330    4.2170 O   0  0  0  0  0  0  0  0  0  0  0  0
  -34.7350  -25.3600    3.5060 H   0  0  0  0  0  0  0  0  0  0  0  0
  -34.7590  -27.2050   12.1930 C   0  0  0  0  0  1  0  0  0  0  0  0
  -33.2730  -26.8260   12.1250 C   0  0  0  0  0  3  0  0  0  0  0  0
  -32.3650  -28.1190   12.3250 C   0  0  0  0  0  2  0  0  0  0  0  0
  -32.9090  -29.3360   12.9650 O   0  0  0  0  0  0  0  0  0  0  0  0
  -34.6150  -32.7300   19.0850 C   0  0  0  0  0  0  0  0  0  0  0  0
  -32.7530  -29.4250   14.3570 C   0  0  0  0  0  0  0  0  0  0  0  0
  -33.6860  -30.4540   19.3080 C   0  0  0  0  0  3  0  0  0  0  0  0
  -32.6060  -29.4820   17.2100 C   0  0  0  0  0  0  0  0  0  0  0  0
  -33.0230  -31.9360   17.3230 C   0  0  0  0  0  2  0  0  0  0  0  0
  -32.8330  -30.6690   16.5010 C   0  0  0  0  0  0  0  0  0  0  0  0
  -32.8950  -30.6490   15.0770 C   0  0  0  0  0  3  0  0  0  0  0  0
  -32.4840  -28.2590   15.1140 C   0  0  0  0  0  3  0  0  0  0  0  0
  -32.4240  -28.2790   16.5180 C   0  0  0  0  0  3  0  0  0  0  0  0
  -32.5660  -29.5570   18.7210 C   0  0  0  0  0  2  0  0  0  0  0  0
  -33.8190  -31.7500   18.5670 N   0  0  0  0  0  0  0  0  0  0  0  0
  -35.1960  -32.5830   20.1700 O   0  0  0  0  0  0  0  0  0  0  0  0
  -35.0010  -29.6400   19.3660 C   0  0  0  0  0  0  0  0  0  0  0  0
  -35.4280  -29.2680   20.5850 N   0  0  0  0  0  0  0  0  0  0  0  0
  -35.6020  -29.3380   18.3310 O   0  0  0  0  0  0  0  0  0  0  0  0
  -34.8890  -29.5640   21.3870 H   0  0  0  0  0  0  0  0  0  0  0  0
  -37.6580  -28.2000   23.2230 C   0  0  0  0  0  0  0  0  0  0  0  0
  -36.6190  -28.4650   20.8710 C   0  0  0  0  0  3  0  0  0  0  0  0
  -36.2660  -26.9630   20.9700 C   0  0  0  0  0  2  0  0  0  0  0  0
  -35.9630  -26.5070   22.4030 C   0  0  0  0  0  2  0  0  0  0  0  0
  -37.1700  -26.7610   23.3120 C   0  0  0  0  0  2  0  0  0  0  0  0
  -37.3840  -29.0030   22.0840 C   0  0  0  0  0  0  0  0  0  0  0  0
  -37.8300  -30.3420   22.0690 C   0  0  0  0  0  3  0  0  0  0  0  0
  -38.5330  -30.8780   23.1640 C   0  0  0  0  0  3  0  0  0  0  0  0
  -38.8150  -30.0720   24.2790 C   0  0  0  0  0  3  0  0  0  0  0  0
  -38.3820  -28.7340   24.3060 C   0  0  0  0  0  3  0  0  0  0  0  0
  -34.8100  -34.0930   18.3530 C   0  0  0  0  0  3  0  0  0  0  0  0
  -34.5730  -35.1610   19.3340 N   0  0  0  0  0  0  0  0  0  0  0  0
  -33.5990  -36.0760   19.2360 C   0  0  0  0  0  0  0  0  0  0  0  0
  -32.8440  -36.1490   18.2620 O   0  0  0  0  0  0  0  0  0  0  0  0
  -35.1150  -35.1230   20.1850 H   0  0  0  0  0  0  0  0  0  0  0  0
  -32.0510  -36.8980   21.0460 C   0  0  0  0  0  1  0  0  0  0  0  0
  -33.4380  -37.0680   20.4060 C   0  0  0  0  0  3  0  0  0  0  0  0
  -34.9970  -38.7840   19.5930 C   0  0  0  0  0  1  0  0  0  0  0  0
  -33.6300  -38.4800   20.0100 N   0  0  0  0  0  0  0  0  0  0  0  0
  -33.3860  -39.1010   20.7740 H   0  0  0  0  0  0  0  0  0  0  0  0
  -36.2370  -34.2460   17.6950 C   0  0  1  0  0  0  0  0  0  0  0  0
  -37.3410  -34.6560   18.6940 C   0  0  0  0  0  1  0  0  0  0  0  0
  -36.6750  -32.9200   17.0280 C   0  0  0  0  0  1  0  0  0  0  0  0
  -36.1860  -35.3140   16.5770 C   0  0  0  0  0  1  0  0  0  0  0  0
  -32.1910  -26.7870    7.3400 O   0  0  0  0  0  0  0  0  0  0  0  0
  -33.9040  -28.3780    6.7240 C   0  0  0  0  0  1  0  0  0  0  0  0
  -32.5680  -28.1630    7.4370 C   0  0  0  0  0  2  0  0  0  0  0  0
  1  5  1  0
  2  5  2  0
  3  1  2  0
  4  6  2  0
  4  3  1  0
  5 59  1  0
  6  2  1  0
  7 20  1  0
  7 13  1  0
  8 13  1  0
  8  9  1  0
  9 10  1  0
 10 11  1  0
 11 12  1  0
 11 24  1  0
 13 12  1  0
 14  7  2  0
 15 17  1  0
 15 19  1  0
 16 19  1  0
 16 18  1  0
 17 20  1  0
 19  3  1  0
 20 18  1  0
 21 22  2  0
 22 41  1  0
 23 22  1  0
 23 26  1  0
 24 25  1  0
 24 21  1  0
 25 23  2  0
 26 31  2  0
 26 27  1  0
 27 28  2  0
 28 29  1  0
 29 32  1  0
 30 29  2  0
 31 30  1  0
 32 33  1  0
 33 34  2  0
 33 38  1  0
 34 35  1  0
 35 36  2  0
 36 40  1  0
 37 36  1  0
 38 37  2  0
 39 38  1  0
 41 43  2  0
 41 42  1  0
 42 45  1  0
 44 42  1  0
 46 21  1  0
 46 47  1  0
 48 46  1  0
 49 51  1  0
 50 52  1  0
 50 53  1  0
 51  4  1  0
 52 56  1  0
 52 49  1  0
 53 55  1  0
 53 51  1  0
 54 53  1  0
 57 56  1  0
 59 58  1  0
 59 60  1  0
 60 61  1  0
 61 63  1  0
 62 73  2  0
 63 68  2  0
 63 69  1  0
 64 74  1  0
 65 71  1  0
 66 72  1  0
 67 65  2  0
 67 66  1  0
 68 67  1  0
 69 70  2  0
 70 65  1  0
 71 64  1  0
 72 62  1  0
 72 64  1  0
 74 75  1  0
 75 77  1  0
 76 74  2  0
 78 82  1  0
 78 87  1  0
 79 75  1  0
 79 80  1  0
 79 83  1  0
 80 81  1  0
 81 82  1  0
 83 78  2  0
 84 83  1  0
 84 85  2  0
 85 86  1  0
 86 87  2  0
 88 62  1  0
 88 89  1  0
 89 92  1  0
 90 89  1  0
 90 94  1  0
 91 90  2  0
 94 93  1  0
 95 96  1  0
 96 94  1  0
 96 97  1  0
 98 88  1  0
 98 99  1  1
100 98  1  0
101 98  1  0
102104  1  0
102  6  1  0
103104  1  0
M  ISO  4   7 100  20 100  60 101  61 101
M  END
>  <TORSDO>  (5) 
F 22

>  <SCORE>  (5) 
-4.340

>  <name>  (5) 
4

>  <ligand_id>  (5) 
4

>  <original_smiles>  (5) 
[H]OC1([H])C([H])([H])C([H])(c2c(OC([H])([H])C([H])([H])[H])c([H])c(C([H])(C([H])([H])[H])C([H])([H])Oc3c([H])c([H])c4c(c3[H])C([H])([H])N(C(=O)C([H])(N([H])C(=O)C([H])(N([H])C([H])([H])[H])C([H])([H])[H])C(C([H])([H])[H])(C([H])([H])[H])C([H])([H])[H])C([H])(C(=O)N([H])C3([H])c5c([H])c([H])c([H])c([H])c5C([H])([H])C([H])([H])C3([H])[H])C4([H])[H])c([H])c2C2([H])C([H])([H])C([H])([H])N(C(=O)N3C([H])([H])C([H])([H])C([H])([H])C([H])(n4nc(-c5c([H])c([H])c(Oc6c([H])c([H])c(F)c([H])c6F)c([H])c5[H])c(C(=O)N([H])[H])c4N([H])[H])C3([H])[H])C([H])([H])C2([H])[H])[N+]([H])([H])C1([H])[H]

>  <smiles>  (5) 
[H]OC1([H])C([H])([H])C([H])(c2c(OC([H])([H])C([H])([H])[H])c([H])c(C([H])(C([H])([H])[H])C([H])([H])Oc3c([H])c([H])c4c(c3[H])C([H])([H])N(C(=O)C([H])(N([H])C(=O)C([H])(N([H])C([H])([H])[H])C([H])([H])[H])C(C([H])([H])[H])(C([H])([H])[H])C([H])([H])[H])C([H])(C(=O)N([H])C3([H])c5c([H])c([H])c([H])c([H])c5C([H])([H])C([H])([H])C3([H])[H])C4([H])[H])c([H])c2C2([H])C([H])([H])C([H])([H])N(C(=O)N3C([H])([H])C([H])([H])C([H])([H])C([H])(n4nc(-c5c([H])c([H])c(Oc6c([H])c([H])c(F)c([H])c6F)c([H])c5[H])c(C(=O)N([H])[H])c4N([H])[H])C3([H])[H])C([H])([H])C2([H])[H])[N+]([H])([H])C1([H])[H]

$$$$
5:0:0
     RDKit          3D

 95104  0  0  1  0  0  0  0  0999 V2000
  -29.3880  -23.3880   21.1630 C   0  0  0  0  0  3  0  0  0  0  0  0
  -28.6800  -21.1940   19.5590 C   0  0  0  0  0  3  0  0  0  0  0  0
  -28.5950  -23.6390   20.0170 C   0  0  0  0  0  0  0  0  0  0  0  0
  -29.7970  -22.0610   21.5210 C   0  0  0  0  0  0  0  0  0  0  0  0
  -28.2530  -22.5050   19.2200 C   0  0  0  0  0  0  0  0  0  0  0  0
  -29.4330  -20.9320   20.7240 C   0  0  0  0  0  0  0  0  0  0  0  0
  -27.3510  -22.6460   18.0010 C   0  0  0  0  0  1  0  0  0  0  0  0
  -30.1300  -22.6280   23.9940 C   0  0  0  0  0  1  0  0  0  0  0  0
  -32.1290  -22.1970   22.4850 C   0  0  0  0  0  1  0  0  0  0  0  0
  -30.6580  -21.8580   22.7700 C   0  0  0  0  0  3  0  0  0  0  0  0
  -27.9060  -25.0030   19.6830 C   0  0  0  0  0  2  0  0  0  0  0  0
  -28.2220  -26.3330   20.2420 O   0  0  0  0  0  0  0  0  0  0  0  0
  -24.6430  -31.8110   23.3060 C   0  0  0  0  0  0  0  0  0  0  0  0
  -27.1570  -27.2580   20.1620 C   0  0  0  0  0  0  0  0  0  0  0  0
  -23.4140  -30.4660   21.6450 C   0  0  0  0  0  3  0  0  0  0  0  0
  -24.8340  -28.9350   20.1850 C   0  0  0  0  0  0  0  0  0  0  0  0
  -25.9630  -30.7320   21.4780 C   0  0  0  0  0  2  0  0  0  0  0  0
  -26.0120  -29.3690   20.8040 C   0  0  0  0  0  0  0  0  0  0  0  0
  -27.1760  -28.5400   20.7950 C   0  0  0  0  0  3  0  0  0  0  0  0
  -25.9570  -26.9160   19.4780 C   0  0  0  0  0  3  0  0  0  0  0  0
  -24.8090  -27.7130   19.5140 C   0  0  0  0  0  3  0  0  0  0  0  0
  -23.6150  -29.8280   20.2510 C   0  0  0  0  0  2  0  0  0  0  0  0
  -24.6910  -31.0190   22.1980 N   0  0  0  0  0  0  0  0  0  0  0  0
  -23.5630  -32.1030   23.8410 O   0  0  0  0  0  0  0  0  0  0  0  0
  -22.7350  -29.4360   22.5810 C   0  0  0  0  0  0  0  0  0  0  0  0
  -21.4090  -29.2720   22.4350 N   0  0  0  0  0  0  0  0  0  0  0  0
  -23.3970  -28.7960   23.4010 O   0  0  0  0  0  0  0  0  0  0  0  0
  -20.9350  -29.8410   21.7470 H   0  0  0  0  0  0  0  0  0  0  0  0
  -18.0120  -28.0970   22.8700 C   0  0  0  0  0  0  0  0  0  0  0  0
  -20.5680  -28.3360   23.1850 C   0  0  0  0  0  3  0  0  0  0  0  0
  -20.6700  -26.9060   22.6060 C   0  0  0  0  0  2  0  0  0  0  0  0
  -19.5840  -26.5960   21.5720 C   0  0  0  0  0  2  0  0  0  0  0  0
  -18.1910  -26.7490   22.1920 C   0  0  0  0  0  2  0  0  0  0  0  0
  -19.1300  -28.8490   23.3210 C   0  0  0  0  0  0  0  0  0  0  0  0
  -18.9090  -30.1110   23.9150 C   0  0  0  0  0  3  0  0  0  0  0  0
  -17.6060  -30.6210   24.0590 C   0  0  0  0  0  3  0  0  0  0  0  0
  -16.5030  -29.8660   23.6260 C   0  0  0  0  0  3  0  0  0  0  0  0
  -16.7070  -28.6050   23.0370 C   0  0  0  0  0  3  0  0  0  0  0  0
  -25.9380  -32.4060   23.9380 C   0  0  0  0  0  3  0  0  0  0  0  0
  -26.4180  -31.6230   25.2210 C   0  0  1  0  0  0  0  0  0  0  0  0
  -25.3050  -31.4150   26.2750 C   0  0  0  0  0  1  0  0  0  0  0  0
  -26.9700  -30.2270   24.8420 C   0  0  0  0  0  1  0  0  0  0  0  0
  -27.5810  -32.3870   25.8950 C   0  0  0  0  0  1  0  0  0  0  0  0
  -25.6650  -33.8130   24.2600 N   0  0  0  0  0  0  0  0  0  0  0  0
  -26.0040  -34.8510   23.4830 C   0  0  0  0  0  0  0  0  0  0  0  0
  -26.6560  -34.7260   22.4420 O   0  0  0  0  0  0  0  0  0  0  0  0
  -25.0910  -33.9880   25.0720 H   0  0  0  0  0  0  0  0  0  0  0  0
  -24.2960  -36.6670   23.1520 C   0  0  0  0  0  1  0  0  0  0  0  0
  -25.5520  -36.2540   23.9360 C   0  0  0  0  0  3  0  0  0  0  0  0
  -27.7290  -37.1070   24.6910 C   0  0  0  0  0  1  0  0  0  0  0  0
  -26.5960  -37.2910   23.7870 N   0  0  0  0  0  0  0  0  0  0  0  0
  -26.2080  -38.2140   23.9550 H   0  0  0  0  0  0  0  0  0  0  0  0
  -29.7540  -19.6260   21.1320 O   0  0  0  0  0  0  0  0  0  0  0  0
  -30.5240  -14.4800   20.2220 C   0  0  0  0  0  0  0  0  0  0  0  0
  -30.1540  -12.2730   19.1370 C   0  0  0  0  0  2  0  0  0  0  0  0
  -29.1710  -12.3920   17.9560 C   0  0  0  0  0  2  0  0  0  0  0  0
  -27.7260  -12.1940   18.4470 C   0  0  0  0  0  2  0  0  0  0  0  0
  -27.4070  -13.0610   19.6900 C   0  0  0  0  0  3  0  0  0  0  0  0
  -28.5190  -12.9810   20.7670 C   0  0  0  0  0  2  0  0  0  0  0  0
  -29.8000  -13.3130   20.1310 N   0  0  0  0  0  0  0  0  0  0  0  0
  -31.6420  -14.5430   19.7010 O   0  0  0  0  0  0  0  0  0  0  0  0
  -31.2880  -17.7660   20.6000 C   0  0  0  0  0  2  0  0  0  0  0  0
  -28.8810  -17.5700   19.8530 C   0  0  0  0  0  2  0  0  0  0  0  0
  -31.0030  -16.5480   21.5270 C   0  0  0  0  0  2  0  0  0  0  0  0
  -28.7790  -16.3020   20.7630 C   0  0  0  0  0  2  0  0  0  0  0  0
  -30.0340  -18.5730   20.1680 C   0  0  0  0  0  3  0  0  0  0  0  0
  -30.0620  -15.5790   20.9210 N   0  0  0  0  0  0  0  0  0  0  0  0
  -25.0460  -13.6330   20.5230 C   0  0  0  0  0  0  0  0  0  0  0  0
  -24.0110  -12.8480   20.9480 C   0  0  0  0  0  0  0  0  0  0  0  0
  -24.4930  -11.5040   20.9000 C   0  0  0  0  0  0  0  0  0  0  0  0
  -26.0910  -12.7670   20.2430 N   0  0  0  0  0  0  0  0  0  0  0  0
  -25.7690  -11.4810   20.5330 N   0  0  0  0  0  0  0  0  0  0  0  0
  -23.7970  -10.2310   21.1250 C   0  0  0  0  0  0  0  0  0  0  0  0
  -24.2590   -9.2970   22.0790 C   0  0  0  0  0  3  0  0  0  0  0  0
  -23.5600   -8.0890   22.2910 C   0  0  0  0  0  3  0  0  0  0  0  0
  -22.3870   -7.8080   21.5490 C   0  0  0  0  0  0  0  0  0  0  0  0
  -21.9470   -8.7300   20.5830 C   0  0  0  0  0  3  0  0  0  0  0  0
  -22.6480   -9.9300   20.3700 C   0  0  0  0  0  3  0  0  0  0  0  0
  -21.6610   -6.6490   21.6690 O   0  0  0  0  0  0  0  0  0  0  0  0
  -21.6070   -5.9510   22.8490 C   0  0  0  0  0  0  0  0  0  0  0  0
  -21.1280   -6.5360   24.0420 C   0  0  0  0  0  3  0  0  0  0  0  0
  -21.0270   -5.7630   25.2160 C   0  0  0  0  0  3  0  0  0  0  0  0
  -21.3950   -4.4030   25.1970 C   0  0  0  0  0  0  0  0  0  0  0  0
  -21.8650   -3.8170   24.0090 C   0  0  0  0  0  3  0  0  0  0  0  0
  -21.9680   -4.5890   22.8390 C   0  0  0  0  0  0  0  0  0  0  0  0
  -22.4010   -4.0150   21.6920 F   0  0  0  0  0  0  0  0  0  0  0  0
  -21.2890   -3.6570   26.3210 F   0  0  0  0  0  0  0  0  0  0  0  0
  -22.6200  -13.3030   21.2780 C   0  0  0  0  0  0  0  0  0  0  0  0
  -21.9380  -12.5950   22.1720 N   0  0  0  0  0  0  0  0  0  0  0  0
  -22.1470  -14.3230   20.7770 O   0  0  0  0  0  0  0  0  0  0  0  0
  -22.3350  -11.7710   22.5970 H   0  0  0  0  0  0  0  0  0  0  0  0
  -21.0050  -12.8800   22.4340 H   0  0  0  0  0  0  0  0  0  0  0  0
  -25.1730  -15.0050   20.3270 N   0  0  0  0  0  0  0  0  0  0  0  0
  -24.3920  -15.6360   20.4760 H   0  0  0  0  0  0  0  0  0  0  0  0
  -25.9800  -15.4580   19.9240 H   0  0  0  0  0  0  0  0  0  0  0  0
  1  4  1  0
  2  6  1  0
  3  1  2  0
  4 10  1  0
  5  2  2  0
  5  3  1  0
  6 53  1  0
  6  4  2  0
  7  5  1  0
  9 10  1  0
 10  8  1  0
 11  3  1  0
 11 12  1  0
 13 24  2  0
 14 12  1  0
 14 19  1  0
 15 23  1  0
 15 25  1  0
 16 22  1  0
 16 18  1  0
 17 23  1  0
 18 17  1  0
 19 18  2  0
 20 21  1  0
 20 14  2  0
 21 16  2  0
 22 15  1  0
 23 13  1  0
 25 27  2  0
 26 25  1  0
 28 26  1  0
 29 38  2  0
 29 34  1  0
 30 26  1  0
 30 34  1  0
 31 30  1  0
 32 33  1  0
 32 31  1  0
 33 29  1  0
 34 35  2  0
 35 36  1  0
 37 36  2  0
 38 37  1  0
 39 13  1  0
 39 44  1  0
 39 40  1  0
 40 43  1  1
 40 41  1  0
 42 40  1  0
 44 47  1  0
 45 49  1  0
 45 44  1  0
 46 45  2  0
 49 48  1  0
 51 49  1  0
 51 52  1  0
 51 50  1  0
 54 67  1  0
 55 60  1  0
 56 57  1  0
 56 55  1  0
 58 57  1  0
 58 71  1  0
 58 59  1  0
 60 54  1  0
 60 59  1  0
 61 54  2  0
 62 64  1  0
 63 66  1  0
 63 65  1  0
 65 67  1  0
 66 62  1  0
 66 53  1  0
 67 64  1  0
 68 69  2  0
 69 88  1  0
 70 69  1  0
 70 73  1  0
 71 68  1  0
 71 72  1  0
 72 70  2  0
 73 74  1  0
 74 75  2  0
 76 79  1  0
 76 75  1  0
 77 76  2  0
 78 77  1  0
 78 73  2  0
 79 80  1  0
 80 81  1  0
 81 82  2  0
 83 82  1  0
 83 87  1  0
 84 83  2  0
 85 80  2  0
 85 84  1  0
 86 85  1  0
 88 89  1  0
 89 92  1  0
 89 91  1  0
 90 88  2  0
 93 94  1  0
 93 68  1  0
 95 93  1  0
M  ISO  4  11 101  12 101  54 100  67 100
M  END
>  <TORSDO>  (6) 
F 19

>  <SCORE>  (6) 
-13.632

>  <name>  (6) 
5

>  <ligand_id>  (6) 
5

>  <original_smiles>  (6) 
[H]c1c([H])c([H])c2c(c1[H])C([H])([H])C([H])([H])C([H])([H])C2([H])N([H])C(=O)C1([H])N(C(=O)C([H])(N([H])C(=O)C([H])(N([H])C([H])([H])[H])C([H])([H])[H])C(C([H])([H])[H])(C([H])([H])[H])C([H])([H])[H])C([H])([H])c2c([H])c(OC([H])([H])c3c([H])c(C([H])(C([H])([H])[H])C([H])([H])[H])c(OC4([H])C([H])([H])C([H])([H])N(C(=O)N5C([H])([H])C([H])([H])C([H])([H])C([H])(n6nc(-c7c([H])c([H])c(Oc8c([H])c([H])c(F)c([H])c8F)c([H])c7[H])c(C(=O)N([H])[H])c6N([H])[H])C5([H])[H])C([H])([H])C4([H])[H])c([H])c3C([H])([H])[H])c([H])c([H])c2C1([H])[H]

>  <smiles>  (6) 
[H]c1c([H])c([H])c2c(c1[H])C([H])([H])C([H])([H])C([H])([H])C2([H])N([H])C(=O)C1([H])N(C(=O)C([H])(N([H])C(=O)C([H])(N([H])C([H])([H])[H])C([H])([H])[H])C(C([H])([H])[H])(C([H])([H])[H])C([H])([H])[H])C([H])([H])c2c([H])c(OC([H])([H])c3c([H])c(C([H])(C([H])([H])[H])C([H])([H])[H])c(OC4([H])C([H])([H])C([H])([H])N(C(=O)N5C([H])([H])C([H])([H])C([H])([H])C([H])(n6nc(-c7c([H])c([H])c(Oc8c([H])c([H])c(F)c([H])c8F)c([H])c7[H])c(C(=O)N([H])[H])c6N([H])[H])C5([H])[H])C([H])([H])C4([H])[H])c([H])c3C([H])([H])[H])c([H])c([H])c2C1([H])[H]

$$$$
6:0:0
     RDKit          3D

 93102  0  0  1  0  0  0  0  0999 V2000
  -27.9500  -21.8890   19.7220 C   0  0  0  0  0  2  0  0  0  0  0  0
  -28.6520  -23.3020   19.9740 C   0  0  0  0  0  3  0  0  0  0  0  0
  -29.5050  -22.3170   20.8990 C   0  0  0  0  0  3  0  0  0  0  0  0
  -29.2060  -21.1110   20.0130 N   0  0  1  0  0  4  0  0  0  0  0  0
  -29.7940  -21.1610   19.1950 H   0  0  0  0  0  0  0  0  0  0  0  0
  -30.5690  -14.9960   20.2710 C   0  0  0  0  0  0  0  0  0  0  0  0
  -30.3680  -12.6520   19.3390 C   0  0  0  0  0  2  0  0  0  0  0  0
  -29.4300  -12.5760   18.1160 C   0  0  0  0  0  2  0  0  0  0  0  0
  -27.9790  -12.3500   18.5740 C   0  0  0  0  0  2  0  0  0  0  0  0
  -27.5710  -13.2950   19.7350 C   0  0  0  0  0  3  0  0  0  0  0  0
  -28.6390  -13.3780   20.8460 C   0  0  0  0  0  2  0  0  0  0  0  0
  -29.8940  -13.7780   20.1990 N   0  0  0  0  0  0  0  0  0  0  0  0
  -31.7820  -14.9520   20.0400 O   0  0  0  0  0  0  0  0  0  0  0  0
  -30.6040  -18.9130   20.7670 C   0  0  0  0  0  2  0  0  0  0  0  0
  -28.6070  -18.4610   19.5830 C   0  0  0  0  0  2  0  0  0  0  0  0
  -30.6790  -17.3820   21.2590 C   0  0  0  0  0  2  0  0  0  0  0  0
  -28.6850  -16.8830   19.9970 C   0  0  0  0  0  2  0  0  0  0  0  0
  -29.1980  -19.5980   20.5330 C   0  0  0  0  0  3  0  0  0  0  0  0
  -29.9660  -16.2770   20.5170 N   0  0  0  0  0  0  0  0  0  0  0  0
  -25.2040  -13.8520   20.5210 C   0  0  0  0  0  0  0  0  0  0  0  0
  -24.1490  -13.0670   20.8960 C   0  0  0  0  0  0  0  0  0  0  0  0
  -24.6220  -11.7190   20.8460 C   0  0  0  0  0  0  0  0  0  0  0  0
  -26.2480  -12.9820   20.2580 N   0  0  0  0  0  0  0  0  0  0  0  0
  -25.9090  -11.6930   20.5220 N   0  0  0  0  0  0  0  0  0  0  0  0
  -23.9050  -10.4510   21.0310 C   0  0  0  0  0  0  0  0  0  0  0  0
  -24.3320   -9.4910   21.9750 C   0  0  0  0  0  3  0  0  0  0  0  0
  -23.6120   -8.2890   22.1480 C   0  0  0  0  0  3  0  0  0  0  0  0
  -22.4520   -8.0380   21.3760 C   0  0  0  0  0  0  0  0  0  0  0  0
  -22.0450   -8.9870   20.4220 C   0  0  0  0  0  3  0  0  0  0  0  0
  -22.7660  -10.1800   20.2470 C   0  0  0  0  0  3  0  0  0  0  0  0
  -21.7060   -6.8870   21.4590 O   0  0  0  0  0  0  0  0  0  0  0  0
  -21.6190   -6.1670   22.6230 C   0  0  0  0  0  0  0  0  0  0  0  0
  -21.0980   -6.7280   23.8090 C   0  0  0  0  0  3  0  0  0  0  0  0
  -20.9630   -5.9320   24.9640 C   0  0  0  0  0  3  0  0  0  0  0  0
  -21.3380   -4.5750   24.9330 C   0  0  0  0  0  0  0  0  0  0  0  0
  -21.8530   -4.0140   23.7510 C   0  0  0  0  0  3  0  0  0  0  0  0
  -21.9900   -4.8070   22.5980 C   0  0  0  0  0  0  0  0  0  0  0  0
  -22.4650   -4.2570   21.4560 F   0  0  0  0  0  0  0  0  0  0  0  0
  -21.2020   -3.8080   26.0390 F   0  0  0  0  0  0  0  0  0  0  0  0
  -22.7520  -13.5330   21.1840 C   0  0  0  0  0  0  0  0  0  0  0  0
  -22.0350  -12.8230   22.0470 N   0  0  0  0  0  0  0  0  0  0  0  0
  -22.3070  -14.5640   20.6790 O   0  0  0  0  0  0  0  0  0  0  0  0
  -22.4100  -11.9910   22.4760 H   0  0  0  0  0  0  0  0  0  0  0  0
  -21.0970  -13.1170   22.2810 H   0  0  0  0  0  0  0  0  0  0  0  0
  -25.3560  -15.2250   20.3530 N   0  0  0  0  0  0  0  0  0  0  0  0
  -24.5820  -15.8700   20.4790 H   0  0  0  0  0  0  0  0  0  0  0  0
  -26.1930  -15.6720   20.0040 H   0  0  0  0  0  0  0  0  0  0  0  0
  -31.3360  -24.0890   21.1890 C   0  0  0  0  0  1  0  0  0  0  0  0
  -31.0070  -22.5930   21.0720 C   0  0  0  0  0  3  0  0  0  0  0  0
  -31.4750  -21.9780   22.2590 O   0  0  0  0  0  0  0  0  0  0  0  0
  -31.0950  -22.4340   23.0040 H   0  0  0  0  0  0  0  0  0  0  0  0
  -27.8560  -24.7110   20.4380 C   0  0  0  0  0  2  0  0  0  0  0  0
  -28.1650  -26.2060   20.1210 O   0  0  0  0  0  0  0  0  0  0  0  0
  -24.5860  -31.8840   23.1880 C   0  0  0  0  0  0  0  0  0  0  0  0
  -27.1170  -27.1950   20.1010 C   0  0  0  0  0  0  0  0  0  0  0  0
  -23.3700  -30.5120   21.5410 C   0  0  0  0  0  3  0  0  0  0  0  0
  -24.8020  -28.9480   20.0930 C   0  0  0  0  0  0  0  0  0  0  0  0
  -25.9240  -30.7690   21.3650 C   0  0  0  0  0  2  0  0  0  0  0  0
  -25.9870  -29.3830   20.7020 C   0  0  0  0  0  0  0  0  0  0  0  0
  -27.1470  -28.5230   20.6880 C   0  0  0  0  0  3  0  0  0  0  0  0
  -25.9120  -26.8690   19.4420 C   0  0  0  0  0  3  0  0  0  0  0  0
  -24.7770  -27.7040   19.4460 C   0  0  0  0  0  3  0  0  0  0  0  0
  -23.5800  -29.8500   20.1540 C   0  0  0  0  0  2  0  0  0  0  0  0
  -24.6460  -31.0750   22.0860 N   0  0  0  0  0  0  0  0  0  0  0  0
  -23.5040  -32.1690   23.7240 O   0  0  0  0  0  0  0  0  0  0  0  0
  -22.6920  -29.4960   22.4950 C   0  0  0  0  0  0  0  0  0  0  0  0
  -21.3630  -29.3340   22.3740 N   0  0  0  0  0  0  0  0  0  0  0  0
  -23.3650  -28.8590   23.3090 O   0  0  0  0  0  0  0  0  0  0  0  0
  -20.8770  -29.8990   21.6920 H   0  0  0  0  0  0  0  0  0  0  0  0
  -17.9750  -28.1620   22.8970 C   0  0  0  0  0  0  0  0  0  0  0  0
  -20.5400  -28.3940   23.1410 C   0  0  0  0  0  3  0  0  0  0  0  0
  -20.6200  -26.9700   22.5440 C   0  0  0  0  0  2  0  0  0  0  0  0
  -19.5040  -26.6720   21.5380 C   0  0  0  0  0  2  0  0  0  0  0  0
  -18.1310  -26.8220   22.1990 C   0  0  0  0  0  2  0  0  0  0  0  0
  -19.1060  -28.9080   23.3240 C   0  0  0  0  0  0  0  0  0  0  0  0
  -18.9050  -30.1620   23.9400 C   0  0  0  0  0  3  0  0  0  0  0  0
  -17.6060  -30.6710   24.1290 C   0  0  0  0  0  3  0  0  0  0  0  0
  -16.4900  -29.9240   23.7160 C   0  0  0  0  0  3  0  0  0  0  0  0
  -16.6760  -28.6700   23.1060 C   0  0  0  0  0  3  0  0  0  0  0  0
  -25.8700  -32.5070   23.8130 C   0  0  0  0  0  3  0  0  0  0  0  0
  -26.3770  -31.7300   25.0900 C   0  0  1  0  0  0  0  0  0  0  0  0
  -25.2790  -31.4990   26.1550 C   0  0  0  0  0  1  0  0  0  0  0  0
  -26.9500  -30.3470   24.7020 C   0  0  0  0  0  1  0  0  0  0  0  0
  -27.5330  -32.5130   25.7570 C   0  0  0  0  0  1  0  0  0  0  0  0
  -25.5700  -33.9070   24.1520 N   0  0  0  0  0  0  0  0  0  0  0  0
  -25.9110  -34.9650   23.4030 C   0  0  0  0  0  0  0  0  0  0  0  0
  -26.5800  -34.8640   22.3710 O   0  0  0  0  0  0  0  0  0  0  0  0
  -24.9760  -34.0590   24.9540 H   0  0  0  0  0  0  0  0  0  0  0  0
  -24.2110  -36.7880   23.0570 C   0  0  0  0  0  1  0  0  0  0  0  0
  -25.4390  -36.3550   23.8750 C   0  0  0  0  0  3  0  0  0  0  0  0
  -27.5730  -37.2060   24.7410 C   0  0  0  0  0  1  0  0  0  0  0  0
  -26.4870  -37.3950   23.7840 N   0  0  0  0  0  0  0  0  0  0  0  0
  -26.0910  -38.3200   23.9320 H   0  0  0  0  0  0  0  0  0  0  0  0
  1  2  1  0
  1  4  1  0
  2 52  1  0
  2  3  1  0
  3 49  1  0
  4  5  1  6
  4 18  1  0
  4  3  1  0
  6 19  1  0
  7 12  1  0
  8  9  1  0
  8  7  1  0
 10  9  1  0
 10 23  1  0
 10 11  1  0
 12  6  1  0
 12 11  1  0
 13  6  2  0
 14 16  1  0
 15 17  1  0
 17 19  1  0
 18 15  1  0
 18 14  1  0
 19 16  1  0
 20 21  2  0
 21 40  1  0
 22 21  1  0
 22 25  1  0
 23 20  1  0
 23 24  1  0
 24 22  2  0
 25 26  1  0
 26 27  2  0
 28 31  1  0
 28 27  1  0
 29 28  2  0
 30 29  1  0
 30 25  2  0
 31 32  1  0
 32 33  1  0
 33 34  2  0
 35 34  1  0
 35 39  1  0
 36 35  2  0
 37 32  2  0
 37 36  1  0
 38 37  1  0
 40 41  1  0
 41 44  1  0
 41 43  1  0
 42 40  2  0
 45 46  1  0
 45 20  1  0
 47 45  1  0
 49 48  1  0
 49 50  1  0
 50 51  1  0
 53 52  1  0
 54 65  2  0
 55 53  1  0
 55 60  1  0
 56 64  1  0
 56 66  1  0
 57 63  1  0
 57 59  1  0
 58 64  1  0
 59 58  1  0
 60 59  2  0
 61 62  1  0
 61 55  2  0
 62 57  2  0
 63 56  1  0
 64 54  1  0
 66 68  2  0
 67 66  1  0
 69 67  1  0
 70 79  2  0
 70 75  1  0
 71 67  1  0
 71 75  1  0
 72 71  1  0
 73 74  1  0
 73 72  1  0
 74 70  1  0
 75 76  2  0
 76 77  1  0
 78 77  2  0
 79 78  1  0
 80 54  1  0
 80 85  1  0
 80 81  1  0
 81 84  1  1
 81 82  1  0
 83 81  1  0
 85 88  1  0
 86 90  1  0
 86 85  1  0
 87 86  2  0
 90 89  1  0
 92 90  1  0
 92 93  1  0
 92 91  1  0
M  ISO  4   6 100  19 100  52 101  53 101
M  END
>  <TORSDO>  (7) 
F 19

>  <SCORE>  (7) 
-14.680

>  <name>  (7) 
6

>  <ligand_id>  (7) 
6

>  <original_smiles>  (7) 
[H]OC([H])(C([H])([H])[H])C1([H])C([H])(C([H])([H])Oc2c([H])c([H])c3c(c2[H])C([H])([H])N(C(=O)C([H])(N([H])C(=O)C([H])(N([H])C([H])([H])[H])C([H])([H])[H])C(C([H])([H])[H])(C([H])([H])[H])C([H])([H])[H])C([H])(C(=O)N([H])C2([H])c4c([H])c([H])c([H])c([H])c4C([H])([H])C([H])([H])C2([H])[H])C3([H])[H])C([H])([H])[N+]1([H])C1([H])C([H])([H])C([H])([H])N(C(=O)N2C([H])([H])C([H])([H])C([H])([H])C([H])(n3nc(-c4c([H])c([H])c(Oc5c([H])c([H])c(F)c([H])c5F)c([H])c4[H])c(C(=O)N([H])[H])c3N([H])[H])C2([H])[H])C([H])([H])C1([H])[H]

>  <smiles>  (7) 
[H]OC([H])(C([H])([H])[H])C1([H])C([H])(C([H])([H])Oc2c([H])c([H])c3c(c2[H])C([H])([H])N(C(=O)C([H])(N([H])C(=O)C([H])(N([H])C([H])([H])[H])C([H])([H])[H])C(C([H])([H])[H])(C([H])([H])[H])C([H])([H])[H])C([H])(C(=O)N([H])C2([H])c4c([H])c([H])c([H])c([H])c4C([H])([H])C([H])([H])C2([H])[H])C3([H])[H])C([H])([H])[N+]1([H])C1([H])C([H])([H])C([H])([H])N(C(=O)N2C([H])([H])C([H])([H])C([H])([H])C([H])(n3nc(-c4c([H])c([H])c(Oc5c([H])c([H])c(F)c([H])c5F)c([H])c4[H])c(C(=O)N([H])[H])c3N([H])[H])C2([H])[H])C([H])([H])C1([H])[H]

$$$$
7:0:0
     RDKit          3D

 94104  0  0  1  0  0  0  0  0999 V2000
  -30.0190  -21.3880   20.4750 C   0  0  0  0  0  2  0  0  0  0  0  0
  -30.8660  -14.9020   20.8680 C   0  0  0  0  0  0  0  0  0  0  0  0
  -30.8020  -12.5350   20.0770 C   0  0  0  0  0  2  0  0  0  0  0  0
  -29.9730  -12.4020   18.7790 C   0  0  0  0  0  2  0  0  0  0  0  0
  -28.4650  -12.2930   19.0730 C   0  0  0  0  0  2  0  0  0  0  0  0
  -27.9620  -13.2830   20.1550 C   0  0  0  0  0  3  0  0  0  0  0  0
  -28.9150  -13.3500   21.3660 C   0  0  0  0  0  2  0  0  0  0  0  0
  -30.2530  -13.6680   20.8510 N   0  0  0  0  0  0  0  0  0  0  0  0
  -32.0930  -14.9750   20.9550 O   0  0  0  0  0  0  0  0  0  0  0  0
  -29.9940  -18.4660   17.8570 C   0  0  0  0  0  3  0  0  0  0  0  0
  -29.9220  -19.7190   18.5180 C   0  0  0  0  0  3  0  0  0  0  0  0
  -30.0680  -17.3540   18.6920 C   0  0  0  0  0  0  0  0  0  0  0  0
  -29.9310  -19.8800   19.9430 C   0  0  0  0  0  0  0  0  0  0  0  0
  -30.1120  -17.3840   20.1220 C   0  0  0  0  0  0  0  0  0  0  0  0
  -30.0380  -18.6710   20.7810 C   0  0  0  0  0  0  0  0  0  0  0  0
  -30.2400  -15.8700   18.6390 C   0  0  0  0  0  3  0  0  0  0  0  0
  -31.6120  -15.5460   18.0250 C   0  0  0  0  0  1  0  0  0  0  0  0
  -30.1920  -15.8910   20.1590 N   0  0  0  0  0  0  0  0  0  0  0  0
  -30.0980  -18.7610   22.1290 F   0  0  0  0  0  0  0  0  0  0  0  0
  -25.5150  -13.8750   20.6600 C   0  0  0  0  0  0  0  0  0  0  0  0
  -24.4200  -13.1010   20.9350 C   0  0  0  0  0  0  0  0  0  0  0  0
  -24.8900  -11.7530   20.9760 C   0  0  0  0  0  0  0  0  0  0  0  0
  -26.5800  -12.9980   20.5390 N   0  0  0  0  0  0  0  0  0  0  0  0
  -26.2030  -11.7180   20.7980 N   0  0  0  0  0  0  0  0  0  0  0  0
  -24.1540  -10.4890   21.1140 C   0  0  0  0  0  0  0  0  0  0  0  0
  -24.5320   -9.5170   22.0670 C   0  0  0  0  0  3  0  0  0  0  0  0
  -23.7970   -8.3180   22.1960 C   0  0  0  0  0  3  0  0  0  0  0  0
  -22.6740   -8.0820   21.3700 C   0  0  0  0  0  0  0  0  0  0  0  0
  -22.3140   -9.0430   20.4100 C   0  0  0  0  0  3  0  0  0  0  0  0
  -23.0490  -10.2330   20.2770 C   0  0  0  0  0  3  0  0  0  0  0  0
  -21.9160   -6.9350   21.4070 O   0  0  0  0  0  0  0  0  0  0  0  0
  -21.8260   -6.1680   22.5380 C   0  0  0  0  0  0  0  0  0  0  0  0
  -21.3460   -6.6930   23.7580 C   0  0  0  0  0  3  0  0  0  0  0  0
  -21.2050   -5.8520   24.8790 C   0  0  0  0  0  3  0  0  0  0  0  0
  -21.5300   -4.4870   24.7830 C   0  0  0  0  0  0  0  0  0  0  0  0
  -22.0030   -3.9600   23.5670 C   0  0  0  0  0  3  0  0  0  0  0  0
  -22.1450   -4.7970   22.4470 C   0  0  0  0  0  0  0  0  0  0  0  0
  -22.5800   -4.2800   21.2740 F   0  0  0  0  0  0  0  0  0  0  0  0
  -21.3890   -3.6770   25.8590 F   0  0  0  0  0  0  0  0  0  0  0  0
  -23.0020  -13.5750   21.0580 C   0  0  0  0  0  0  0  0  0  0  0  0
  -22.1980  -12.8980   21.8710 N   0  0  0  0  0  0  0  0  0  0  0  0
  -22.6110  -14.5840   20.4730 O   0  0  0  0  0  0  0  0  0  0  0  0
  -22.5290  -12.0820   22.3650 H   0  0  0  0  0  0  0  0  0  0  0  0
  -21.2430  -13.1990   22.0020 H   0  0  0  0  0  0  0  0  0  0  0  0
  -25.6920  -15.2440   20.4780 N   0  0  0  0  0  0  0  0  0  0  0  0
  -24.9170  -15.8980   20.4900 H   0  0  0  0  0  0  0  0  0  0  0  0
  -26.5770  -15.6830   20.2590 H   0  0  0  0  0  0  0  0  0  0  0  0
  -27.8090  -24.0990   18.7730 C   0  0  0  0  0  2  0  0  0  0  0  0
  -28.6820  -22.8130   18.7580 C   0  0  0  0  0  2  0  0  0  0  0  0
  -29.1080  -23.8580   20.7830 C   0  0  0  0  0  2  0  0  0  0  0  0
  -28.0900  -24.8770   20.0840 C   0  0  0  0  0  3  0  0  0  0  0  0
  -28.9500  -22.4660   20.1710 N   0  0  2  0  0  4  0  0  0  0  0  0
  -28.0850  -22.0850   20.5270 H   0  0  0  0  0  0  0  0  0  0  0  0
  -28.3380  -26.3750   19.9770 O   0  0  0  0  0  0  0  0  0  0  0  0
  -24.6100  -31.8150   23.0830 C   0  0  0  0  0  0  0  0  0  0  0  0
  -27.2370  -27.2740   19.9490 C   0  0  0  0  0  0  0  0  0  0  0  0
  -23.4200  -30.4350   21.4280 C   0  0  0  0  0  3  0  0  0  0  0  0
  -24.8750  -28.9230   19.9700 C   0  0  0  0  0  0  0  0  0  0  0  0
  -25.9630  -30.7600   21.2490 C   0  0  0  0  0  2  0  0  0  0  0  0
  -26.0490  -29.3920   20.5740 C   0  0  0  0  0  0  0  0  0  0  0  0
  -27.2350  -28.5840   20.5460 C   0  0  0  0  0  3  0  0  0  0  0  0
  -26.0330  -26.8850   19.3180 C   0  0  0  0  0  3  0  0  0  0  0  0
  -24.8740  -27.6780   19.3300 C   0  0  0  0  0  3  0  0  0  0  0  0
  -23.6370  -29.7940   20.0340 C   0  0  0  0  0  2  0  0  0  0  0  0
  -24.6830  -31.0210   21.9760 N   0  0  0  0  0  0  0  0  0  0  0  0
  -23.5250  -32.0730   23.6250 O   0  0  0  0  0  0  0  0  0  0  0  0
  -22.7660  -29.3930   22.3710 C   0  0  0  0  0  0  0  0  0  0  0  0
  -21.4370  -29.2310   22.2700 N   0  0  0  0  0  0  0  0  0  0  0  0
  -23.4560  -28.7380   23.1560 O   0  0  0  0  0  0  0  0  0  0  0  0
  -20.9370  -29.8090   21.6080 H   0  0  0  0  0  0  0  0  0  0  0  0
  -18.0570  -28.0630   22.8470 C   0  0  0  0  0  0  0  0  0  0  0  0
  -20.6270  -28.2800   23.0350 C   0  0  0  0  0  3  0  0  0  0  0  0
  -20.6880  -26.8680   22.4070 C   0  0  0  0  0  2  0  0  0  0  0  0
  -19.5460  -26.5980   21.4220 C   0  0  0  0  0  2  0  0  0  0  0  0
  -18.1900  -26.7380   22.1170 C   0  0  0  0  0  2  0  0  0  0  0  0
  -19.2020  -28.7940   23.2640 C   0  0  0  0  0  0  0  0  0  0  0  0
  -19.0210  -30.0360   23.9110 C   0  0  0  0  0  3  0  0  0  0  0  0
  -17.7310  -30.5460   24.1440 C   0  0  0  0  0  3  0  0  0  0  0  0
  -16.6000  -29.8140   23.7390 C   0  0  0  0  0  3  0  0  0  0  0  0
  -16.7660  -28.5740   23.0960 C   0  0  0  0  0  3  0  0  0  0  0  0
  -25.8870  -32.4530   23.7120 C   0  0  0  0  0  3  0  0  0  0  0  0
  -25.5510  -33.8330   24.0930 N   0  0  0  0  0  0  0  0  0  0  0  0
  -25.8810  -34.9200   23.3850 C   0  0  0  0  0  0  0  0  0  0  0  0
  -26.5710  -34.8680   22.3630 O   0  0  0  0  0  0  0  0  0  0  0  0
  -24.9380  -33.9430   24.8880 H   0  0  0  0  0  0  0  0  0  0  0  0
  -24.1510  -36.7180   23.0530 C   0  0  0  0  0  1  0  0  0  0  0  0
  -25.3660  -36.2830   23.8880 C   0  0  0  0  0  3  0  0  0  0  0  0
  -27.4630  -37.1430   24.8330 C   0  0  0  0  0  1  0  0  0  0  0  0
  -26.3920  -37.3480   23.8620 N   0  0  0  0  0  0  0  0  0  0  0  0
  -25.9720  -38.2570   24.0410 H   0  0  0  0  0  0  0  0  0  0  0  0
  -26.4300  -31.6510   24.9590 C   0  0  1  0  0  0  0  0  0  0  0  0
  -25.3530  -31.3680   26.0340 C   0  0  0  0  0  1  0  0  0  0  0  0
  -27.0270  -30.2910   24.5270 C   0  0  0  0  0  1  0  0  0  0  0  0
  -27.5800  -32.4420   25.6260 C   0  0  0  0  0  1  0  0  0  0  0  0
  2  9  2  0
  3  8  1  0
  4  5  1  0
  4  3  1  0
  6  5  1  0
  6 23  1  0
  6  7  1  0
  8  2  1  0
  8  7  1  0
 10 11  2  0
 10 12  1  0
 11 13  1  0
 12 14  2  0
 13  1  1  0
 13 15  2  0
 14 18  1  0
 14 15  1  0
 15 19  1  0
 16 17  1  0
 16 12  1  0
 16 18  1  0
 18  2  1  0
 20 21  2  0
 21 22  1  0
 21 40  1  0
 22 25  1  0
 23 20  1  0
 23 24  1  0
 24 22  2  0
 25 26  1  0
 26 27  2  0
 28 31  1  0
 28 27  1  0
 29 28  2  0
 30 29  1  0
 30 25  2  0
 31 32  1  0
 32 33  1  0
 33 34  2  0
 35 34  1  0
 35 39  1  0
 36 35  2  0
 37 32  2  0
 37 36  1  0
 38 37  1  0
 40 41  1  0
 41 44  1  0
 41 43  1  0
 42 40  2  0
 45 46  1  0
 45 20  1  0
 47 45  1  0
 48 51  1  0
 49 48  1  0
 49 52  1  0
 51 54  1  0
 51 50  1  0
 52  1  1  0
 52 53  1  1
 52 50  1  0
 55 66  2  0
 56 54  1  0
 56 61  1  0
 57 65  1  0
 57 67  1  0
 58 64  1  0
 58 60  1  0
 59 65  1  0
 60 59  1  0
 61 60  2  0
 62 63  1  0
 62 56  2  0
 63 58  2  0
 64 57  1  0
 65 55  1  0
 67 69  2  0
 68 67  1  0
 70 68  1  0
 71 80  2  0
 71 76  1  0
 72 68  1  0
 72 76  1  0
 73 72  1  0
 74 75  1  0
 74 73  1  0
 75 71  1  0
 76 77  2  0
 77 78  1  0
 79 78  2  0
 80 79  1  0
 81 55  1  0
 81 82  1  0
 81 91  1  0
 82 85  1  0
 83 87  1  0
 83 82  1  0
 84 83  2  0
 87 86  1  0
 89 87  1  0
 89 90  1  0
 89 88  1  0
 91 94  1  1
 91 92  1  0
 93 91  1  0
M  ISO  4   2 100  18 100  51 101  54 101
M  END
>  <TORSDO>  (8) 
F 17

>  <SCORE>  (8) 
-14.320

>  <name>  (8) 
7

>  <ligand_id>  (8) 
7

>  <original_smiles>  (8) 
[H]c1c([H])c([H])c2c(c1[H])C([H])([H])C([H])([H])C([H])([H])C2([H])N([H])C(=O)C1([H])N(C(=O)C([H])(N([H])C(=O)C([H])(N([H])C([H])([H])[H])C([H])([H])[H])C(C([H])([H])[H])(C([H])([H])[H])C([H])([H])[H])C([H])([H])c2c([H])c(OC3([H])C([H])([H])C([H])([H])[N+]([H])(C([H])([H])c4c([H])c([H])c5c(c4F)N(C(=O)N4C([H])([H])C([H])([H])C([H])([H])C([H])(n6nc(-c7c([H])c([H])c(Oc8c([H])c([H])c(F)c([H])c8F)c([H])c7[H])c(C(=O)N([H])[H])c6N([H])[H])C4([H])[H])C5([H])C([H])([H])[H])C3([H])[H])c([H])c([H])c2C1([H])[H]

>  <smiles>  (8) 
[H]c1c([H])c([H])c2c(c1[H])C([H])([H])C([H])([H])C([H])([H])C2([H])N([H])C(=O)C1([H])N(C(=O)C([H])(N([H])C(=O)C([H])(N([H])C([H])([H])[H])C([H])([H])[H])C(C([H])([H])[H])(C([H])([H])[H])C([H])([H])[H])C([H])([H])c2c([H])c(OC3([H])C([H])([H])C([H])([H])[N+]([H])(C([H])([H])c4c([H])c([H])c5c(c4F)N(C(=O)N4C([H])([H])C([H])([H])C([H])([H])C([H])(n6nc(-c7c([H])c([H])c(Oc8c([H])c([H])c(F)c([H])c8F)c([H])c7[H])c(C(=O)N([H])[H])c6N([H])[H])C4([H])[H])C5([H])C([H])([H])[H])C3([H])[H])c([H])c([H])c2C1([H])[H]

$$$$
8:0:0
     RDKit          3D

 94103  0  0  1  0  0  0  0  0999 V2000
  -29.9010  -24.7710   20.3530 C   0  0  0  0  0  3  0  0  0  0  0  0
  -30.0660  -23.3850   20.5840 C   0  0  0  0  0  0  0  0  0  0  0  0
  -28.9230  -22.5680   20.7830 C   0  0  0  0  0  0  0  0  0  0  0  0
  -27.6650  -23.2300   20.7080 C   0  0  0  0  0  0  0  0  0  0  0  0
  -28.6180  -25.3490   20.3250 C   0  0  0  0  0  0  0  0  0  0  0  0
  -31.4720  -22.8140   20.6310 C   0  0  0  0  0  1  0  0  0  0  0  0
  -26.3580  -22.4740   20.8630 C   0  0  0  0  0  1  0  0  0  0  0  0
  -27.5230  -24.5690   20.5090 N   0  0  0  0  0  0  0  0  0  0  0  0
  -28.4980  -26.7290   20.0960 O   0  0  0  0  0  0  0  0  0  0  0  0
  -24.6760  -31.9250   23.2290 C   0  0  0  0  0  0  0  0  0  0  0  0
  -27.3140  -27.4620   20.1300 C   0  0  0  0  0  0  0  0  0  0  0  0
  -23.4660  -30.5180   21.5930 C   0  0  0  0  0  3  0  0  0  0  0  0
  -24.9200  -28.9950   20.1480 C   0  0  0  0  0  0  0  0  0  0  0  0
  -25.9920  -30.8840   21.3800 C   0  0  0  0  0  2  0  0  0  0  0  0
  -26.0790  -29.5090   20.7410 C   0  0  0  0  0  0  0  0  0  0  0  0
  -27.2760  -28.7480   20.7330 C   0  0  0  0  0  3  0  0  0  0  0  0
  -26.1430  -26.9940   19.4960 C   0  0  0  0  0  3  0  0  0  0  0  0
  -24.9490  -27.7390   19.5200 C   0  0  0  0  0  3  0  0  0  0  0  0
  -23.6720  -29.8480   20.2080 C   0  0  0  0  0  2  0  0  0  0  0  0
  -24.7300  -31.1270   22.1240 N   0  0  0  0  0  0  0  0  0  0  0  0
  -23.5970  -32.1850   23.7800 O   0  0  0  0  0  0  0  0  0  0  0  0
  -22.8360  -29.4860   22.5570 C   0  0  0  0  0  0  0  0  0  0  0  0
  -21.5150  -29.2760   22.4310 N   0  0  0  0  0  0  0  0  0  0  0  0
  -23.5310  -28.8770   23.3730 O   0  0  0  0  0  0  0  0  0  0  0  0
  -21.0150  -29.8190   21.7400 H   0  0  0  0  0  0  0  0  0  0  0  0
  -18.1690  -27.9980   22.9140 C   0  0  0  0  0  0  0  0  0  0  0  0
  -20.7180  -28.3240   23.2030 C   0  0  0  0  0  3  0  0  0  0  0  0
  -20.8610  -26.8910   22.6380 C   0  0  0  0  0  2  0  0  0  0  0  0
  -19.7760  -26.5330   21.6180 C   0  0  0  0  0  2  0  0  0  0  0  0
  -18.3850  -26.6480   22.2510 C   0  0  0  0  0  2  0  0  0  0  0  0
  -19.2640  -28.7900   23.3470 C   0  0  0  0  0  0  0  0  0  0  0  0
  -19.0090  -30.0530   23.9260 C   0  0  0  0  0  3  0  0  0  0  0  0
  -17.6920  -30.5240   24.0740 C   0  0  0  0  0  3  0  0  0  0  0  0
  -16.6090  -29.7270   23.6600 C   0  0  0  0  0  3  0  0  0  0  0  0
  -16.8490  -28.4650   23.0860 C   0  0  0  0  0  3  0  0  0  0  0  0
  -25.9610  -32.5670   23.8370 C   0  0  0  0  0  3  0  0  0  0  0  0
  -25.6470  -33.9640   24.1630 N   0  0  0  0  0  0  0  0  0  0  0  0
  -25.9630  -35.0140   23.3930 C   0  0  0  0  0  0  0  0  0  0  0  0
  -26.6220  -34.9100   22.3560 O   0  0  0  0  0  0  0  0  0  0  0  0
  -25.0640  -34.1190   24.9720 H   0  0  0  0  0  0  0  0  0  0  0  0
  -24.2210  -36.7930   23.0430 C   0  0  0  0  0  1  0  0  0  0  0  0
  -25.4690  -36.4010   23.8480 C   0  0  0  0  0  3  0  0  0  0  0  0
  -27.6020  -37.3050   24.6640 C   0  0  0  0  0  1  0  0  0  0  0  0
  -26.4930  -37.4620   23.7250 N   0  0  0  0  0  0  0  0  0  0  0  0
  -26.0820  -38.3800   23.8690 H   0  0  0  0  0  0  0  0  0  0  0  0
  -26.4950  -31.8030   25.1110 C   0  0  1  0  0  0  0  0  0  0  0  0
  -25.4130  -31.5580   26.1890 C   0  0  0  0  0  1  0  0  0  0  0  0
  -27.0850  -30.4290   24.7170 C   0  0  0  0  0  1  0  0  0  0  0  0
  -27.6450  -32.6080   25.7620 C   0  0  0  0  0  1  0  0  0  0  0  0
  -29.0510  -21.0480   21.1440 C   0  0  0  0  0  2  0  0  0  0  0  0
  -30.7760  -14.6670   20.0560 C   0  0  0  0  0  0  0  0  0  0  0  0
  -30.4450  -12.4750   18.9700 C   0  0  0  0  0  2  0  0  0  0  0  0
  -29.4460  -12.6590   17.8080 C   0  0  0  0  0  2  0  0  0  0  0  0
  -27.9970  -12.5080   18.3140 C   0  0  0  0  0  2  0  0  0  0  0  0
  -27.7140  -13.3480   19.5880 C   0  0  0  0  0  3  0  0  0  0  0  0
  -28.8280  -13.1770   20.6420 C   0  0  0  0  0  2  0  0  0  0  0  0
  -30.1070  -13.4810   19.9890 N   0  0  0  0  0  0  0  0  0  0  0  0
  -31.9460  -14.7710   19.6700 O   0  0  0  0  0  0  0  0  0  0  0  0
  -28.9760  -20.0360   19.9600 C   0  0  0  0  0  0  0  0  0  0  0  0
  -28.7940  -17.7030   19.0960 C   0  0  0  0  0  2  0  0  0  0  0  0
  -29.3470  -17.9810   21.4350 C   0  0  0  0  0  2  0  0  0  0  0  0
  -29.8830  -16.6130   18.9780 C   0  0  0  0  0  2  0  0  0  0  0  0
  -30.2790  -16.7150   21.3350 C   0  0  0  0  0  2  0  0  0  0  0  0
  -29.1100  -18.6800   20.1540 N   0  0  0  0  0  0  0  0  0  0  0  0
  -30.0150  -15.7990   20.2010 N   0  0  0  0  0  0  0  0  0  0  0  0
  -28.7570  -20.5030   18.8360 O   0  0  0  0  0  0  0  0  0  0  0  0
  -25.3720  -13.9400   20.4620 C   0  0  0  0  0  0  0  0  0  0  0  0
  -24.3210  -13.1610   20.8650 C   0  0  0  0  0  0  0  0  0  0  0  0
  -24.7690  -11.8080   20.7640 C   0  0  0  0  0  0  0  0  0  0  0  0
  -26.3930  -13.0620   20.1400 N   0  0  0  0  0  0  0  0  0  0  0  0
  -26.0400  -11.7720   20.3810 N   0  0  0  0  0  0  0  0  0  0  0  0
  -24.0460  -10.5450   20.9550 C   0  0  0  0  0  0  0  0  0  0  0  0
  -24.4710   -9.5840   21.8980 C   0  0  0  0  0  3  0  0  0  0  0  0
  -23.7460   -8.3850   22.0740 C   0  0  0  0  0  3  0  0  0  0  0  0
  -22.5820   -8.1400   21.3080 C   0  0  0  0  0  0  0  0  0  0  0  0
  -22.1780   -9.0900   20.3540 C   0  0  0  0  0  3  0  0  0  0  0  0
  -22.9030  -10.2800   20.1750 C   0  0  0  0  0  3  0  0  0  0  0  0
  -21.8300   -6.9940   21.3930 O   0  0  0  0  0  0  0  0  0  0  0  0
  -21.7020   -6.3030   22.5710 C   0  0  0  0  0  0  0  0  0  0  0  0
  -21.1590   -6.9000   23.7290 C   0  0  0  0  0  3  0  0  0  0  0  0
  -20.9810   -6.1340   24.8990 C   0  0  0  0  0  3  0  0  0  0  0  0
  -21.3370   -4.7730   24.9120 C   0  0  0  0  0  0  0  0  0  0  0  0
  -21.8720   -4.1750   23.7570 C   0  0  0  0  0  3  0  0  0  0  0  0
  -22.0510   -4.9380   22.5900 C   0  0  0  0  0  0  0  0  0  0  0  0
  -22.5480   -4.3520   21.4740 F   0  0  0  0  0  0  0  0  0  0  0  0
  -21.1590   -4.0340   26.0320 F   0  0  0  0  0  0  0  0  0  0  0  0
  -22.9450  -13.6370   21.2340 C   0  0  0  0  0  0  0  0  0  0  0  0
  -22.2610  -12.9140   22.1130 N   0  0  0  0  0  0  0  0  0  0  0  0
  -22.4880  -14.6850   20.7770 O   0  0  0  0  0  0  0  0  0  0  0  0
  -22.6440  -12.0650   22.5010 H   0  0  0  0  0  0  0  0  0  0  0  0
  -21.3420  -13.2150   22.4060 H   0  0  0  0  0  0  0  0  0  0  0  0
  -25.5440  -15.3140   20.3210 N   0  0  0  0  0  0  0  0  0  0  0  0
  -24.8020  -15.9820   20.4990 H   0  0  0  0  0  0  0  0  0  0  0  0
  -26.3980  -15.7460   19.9940 H   0  0  0  0  0  0  0  0  0  0  0  0
  1  2  2  0
  2  6  1  0
  2  3  1  0
  3 50  1  0
  4  3  2  0
  4  7  1  0
  5  1  1  0
  5  8  2  0
  8  4  1  0
  9 11  1  0
  9  5  1  0
 10 21  2  0
 11 16  1  0
 12 20  1  0
 12 22  1  0
 13 19  1  0
 13 15  1  0
 14 20  1  0
 15 14  1  0
 16 15  2  0
 17 18  1  0
 17 11  2  0
 18 13  2  0
 19 12  1  0
 20 10  1  0
 22 24  2  0
 23 22  1  0
 25 23  1  0
 26 35  2  0
 26 31  1  0
 27 23  1  0
 27 31  1  0
 28 27  1  0
 29 30  1  0
 29 28  1  0
 30 26  1  0
 31 32  2  0
 32 33  1  0
 34 33  2  0
 35 34  1  0
 36 10  1  0
 36 37  1  0
 36 46  1  0
 37 40  1  0
 38 42  1  0
 38 37  1  0
 39 38  2  0
 42 41  1  0
 44 42  1  0
 44 45  1  0
 44 43  1  0
 46 49  1  1
 46 47  1  0
 48 46  1  0
 51 65  1  0
 52 57  1  0
 53 54  1  0
 53 52  1  0
 55 54  1  0
 55 70  1  0
 55 56  1  0
 57 51  1  0
 57 56  1  0
 58 51  2  0
 59 64  1  0
 59 50  1  0
 60 64  1  0
 62 60  1  0
 62 65  1  0
 63 61  1  0
 64 61  1  0
 65 63  1  0
 66 59  2  0
 67 68  2  0
 68 87  1  0
 69 68  1  0
 69 72  1  0
 70 71  1  0
 70 67  1  0
 71 69  2  0
 72 73  1  0
 73 74  2  0
 75 78  1  0
 75 74  1  0
 76 75  2  0
 77 76  1  0
 77 72  2  0
 78 79  1  0
 79 84  2  0
 79 80  1  0
 80 81  2  0
 81 82  1  0
 82 86  1  0
 83 82  2  0
 84 83  1  0
 85 84  1  0
 87 88  1  0
 88 91  1  0
 88 90  1  0
 89 87  2  0
 92 67  1  0
 92 93  1  0
 94 92  1  0
M  ISO  4   5 101   9 101  51 100  65 100
M  END
>  <TORSDO>  (9) 
F 17

>  <SCORE>  (9) 
-14.536

>  <name>  (9) 
8

>  <ligand_id>  (9) 
8

>  <original_smiles>  (9) 
[H]c1c([H])c([H])c2c(c1[H])C([H])([H])C([H])([H])C([H])([H])C2([H])N([H])C(=O)C1([H])N(C(=O)C([H])(N([H])C(=O)C([H])(N([H])C([H])([H])[H])C([H])([H])[H])C(C([H])([H])[H])(C([H])([H])[H])C([H])([H])[H])C([H])([H])c2c([H])c(Oc3nc(C([H])([H])[H])c(C([H])([H])C(=O)N4C([H])([H])C([H])([H])N(C(=O)N5C([H])([H])C([H])([H])C([H])([H])C([H])(n6nc(-c7c([H])c([H])c(Oc8c([H])c([H])c(F)c([H])c8F)c([H])c7[H])c(C(=O)N([H])[H])c6N([H])[H])C5([H])[H])C([H])([H])C4([H])[H])c(C([H])([H])[H])c3[H])c([H])c([H])c2C1([H])[H]

>  <smiles>  (9) 
[H]c1c([H])c([H])c2c(c1[H])C([H])([H])C([H])([H])C([H])([H])C2([H])N([H])C(=O)C1([H])N(C(=O)C([H])(N([H])C(=O)C([H])(N([H])C([H])([H])[H])C([H])([H])[H])C(C([H])([H])[H])(C([H])([H])[H])C([H])([H])[H])C([H])([H])c2c([H])c(Oc3nc(C([H])([H])[H])c(C([H])([H])C(=O)N4C([H])([H])C([H])([H])N(C(=O)N5C([H])([H])C([H])([H])C([H])([H])C([H])(n6nc(-c7c([H])c([H])c(Oc8c([H])c([H])c(F)c([H])c8F)c([H])c7[H])c(C(=O)N([H])[H])c6N([H])[H])C5([H])[H])C([H])([H])C4([H])[H])c(C([H])([H])[H])c3[H])c([H])c([H])c2C1([H])[H]

$$$$
9:0:0
     RDKit          3D

 92101  0  0  1  0  0  0  0  0999 V2000
  -29.3600  -21.8360   20.3480 C   0  0  0  0  0  3  0  0  0  0  0  0
  -27.1350  -21.0710   19.5240 C   0  0  0  0  0  3  0  0  0  0  0  0
  -28.7870  -23.1440   20.3290 C   0  0  0  0  0  0  0  0  0  0  0  0
  -26.5710  -22.3760   19.5500 C   0  0  0  0  0  0  0  0  0  0  0  0
  -27.4280  -23.3860   19.9780 C   0  0  0  0  0  0  0  0  0  0  0  0
  -28.4770  -20.7620   19.9300 C   0  0  0  0  0  0  0  0  0  0  0  0
  -28.8410  -24.6030   20.8250 C   0  0  0  0  0  3  0  0  0  0  0  0
  -25.1220  -22.6460   19.2040 C   0  0  0  0  0  1  0  0  0  0  0  0
  -27.4050  -24.7050   20.3750 O   0  0  0  0  0  0  0  0  0  0  0  0
  -29.6680  -25.7180   20.0970 C   0  0  0  0  0  2  0  0  0  0  0  0
  -29.4400  -27.0990   20.5600 O   0  0  0  0  0  0  0  0  0  0  0  0
  -24.8570  -31.8800   23.3410 C   0  0  0  0  0  0  0  0  0  0  0  0
  -28.2120  -27.7540   20.4290 C   0  0  0  0  0  0  0  0  0  0  0  0
  -23.9730  -30.4520   21.5290 C   0  0  0  0  0  3  0  0  0  0  0  0
  -25.7070  -29.1080   20.2220 C   0  0  0  0  0  0  0  0  0  0  0  0
  -26.4690  -31.0220   21.6320 C   0  0  0  0  0  2  0  0  0  0  0  0
  -26.7490  -29.6870   20.9530 C   0  0  0  0  0  0  0  0  0  0  0  0
  -28.0020  -29.0220   21.0470 C   0  0  0  0  0  3  0  0  0  0  0  0
  -27.1380  -27.2070   19.6900 C   0  0  0  0  0  3  0  0  0  0  0  0
  -25.9010  -27.8720   19.5850 C   0  0  0  0  0  3  0  0  0  0  0  0
  -24.3940  -29.8600   20.1590 C   0  0  0  0  0  2  0  0  0  0  0  0
  -25.1110  -31.1340   22.2280 N   0  0  0  0  0  0  0  0  0  0  0  0
  -23.7010  -32.0320   23.7640 O   0  0  0  0  0  0  0  0  0  0  0  0
  -23.3160  -29.3360   22.3760 C   0  0  0  0  0  0  0  0  0  0  0  0
  -22.0100  -29.1040   22.1580 N   0  0  0  0  0  0  0  0  0  0  0  0
  -23.9810  -28.6840   23.1850 O   0  0  0  0  0  0  0  0  0  0  0  0
  -21.5320  -29.6880   21.4850 H   0  0  0  0  0  0  0  0  0  0  0  0
  -18.6470  -27.8210   22.4920 C   0  0  0  0  0  0  0  0  0  0  0  0
  -21.1990  -28.0750   22.8100 C   0  0  0  0  0  3  0  0  0  0  0  0
  -21.3230  -26.7210   22.0750 C   0  0  0  0  0  2  0  0  0  0  0  0
  -20.2310  -26.5040   21.0220 C   0  0  0  0  0  2  0  0  0  0  0  0
  -18.8440  -26.5590   21.6680 C   0  0  0  0  0  2  0  0  0  0  0  0
  -19.7530  -28.5400   23.0150 C   0  0  0  0  0  0  0  0  0  0  0  0
  -19.5160  -29.7250   23.7450 C   0  0  0  0  0  3  0  0  0  0  0  0
  -18.2050  -30.1890   23.9570 C   0  0  0  0  0  3  0  0  0  0  0  0
  -17.1120  -29.4650   23.4500 C   0  0  0  0  0  3  0  0  0  0  0  0
  -17.3340  -28.2820   22.7240 C   0  0  0  0  0  3  0  0  0  0  0  0
  -26.0000  -32.5970   24.1230 C   0  0  0  0  0  3  0  0  0  0  0  0
  -26.3690  -31.8810   25.4810 C   0  0  1  0  0  0  0  0  0  0  0  0
  -25.1480  -31.5920   26.3840 C   0  0  0  0  0  1  0  0  0  0  0  0
  -27.0860  -30.5360   25.2120 C   0  0  0  0  0  1  0  0  0  0  0  0
  -27.3590  -32.7570   26.2830 C   0  0  0  0  0  1  0  0  0  0  0  0
  -25.5710  -33.9810   24.3680 N   0  0  0  0  0  0  0  0  0  0  0  0
  -25.9270  -35.0330   23.6190 C   0  0  0  0  0  0  0  0  0  0  0  0
  -26.7210  -34.9450   22.6790 O   0  0  0  0  0  0  0  0  0  0  0  0
  -24.8760  -34.1180   25.0890 H   0  0  0  0  0  0  0  0  0  0  0  0
  -24.1310  -36.6890   23.0240 C   0  0  0  0  0  1  0  0  0  0  0  0
  -25.3070  -36.3990   23.9690 C   0  0  0  0  0  3  0  0  0  0  0  0
  -27.2850  -37.4570   24.9700 C   0  0  0  0  0  1  0  0  0  0  0  0
  -26.2760  -37.5160   23.9150 N   0  0  0  0  0  0  0  0  0  0  0  0
  -25.7970  -38.4110   23.9830 H   0  0  0  0  0  0  0  0  0  0  0  0
  -28.7110  -19.3770   19.9790 O   0  0  0  0  0  0  0  0  0  0  0  0
  -29.9800  -18.7460   19.7160 C   0  0  0  0  0  2  0  0  0  0  0  0
  -30.3750  -17.6260   20.7670 C   0  0  0  0  0  2  0  0  0  0  0  0
  -30.6870  -15.1270   20.2840 C   0  0  0  0  0  0  0  0  0  0  0  0
  -30.5380  -12.8300   19.3560 C   0  0  0  0  0  2  0  0  0  0  0  0
  -29.6120  -12.8390   18.1220 C   0  0  0  0  0  2  0  0  0  0  0  0
  -28.1410  -12.6570   18.5440 C   0  0  0  0  0  2  0  0  0  0  0  0
  -27.7310  -13.5950   19.7110 C   0  0  0  0  0  3  0  0  0  0  0  0
  -28.7750  -13.5690   20.8480 C   0  0  0  0  0  2  0  0  0  0  0  0
  -30.0780  -13.9030   20.2580 N   0  0  0  0  0  0  0  0  0  0  0  0
  -31.8530  -15.2720   19.9100 O   0  0  0  0  0  0  0  0  0  0  0  0
  -29.9120  -16.2110   20.5790 N   0  0  0  0  0  0  0  0  0  0  0  0
  -28.9460  -16.0210   20.8010 H   0  0  0  0  0  0  0  0  0  0  0  0
  -25.3480  -14.1660   20.4800 C   0  0  0  0  0  0  0  0  0  0  0  0
  -24.2830  -13.3790   20.8270 C   0  0  0  0  0  0  0  0  0  0  0  0
  -24.7430  -12.0300   20.7330 C   0  0  0  0  0  0  0  0  0  0  0  0
  -26.3890  -13.2950   20.1980 N   0  0  0  0  0  0  0  0  0  0  0  0
  -26.0300  -12.0030   20.4110 N   0  0  0  0  0  0  0  0  0  0  0  0
  -24.0160  -10.7610   20.8760 C   0  0  0  0  0  0  0  0  0  0  0  0
  -24.4430   -9.7620   21.7780 C   0  0  0  0  0  3  0  0  0  0  0  0
  -23.7160   -8.5590   21.9100 C   0  0  0  0  0  3  0  0  0  0  0  0
  -22.5480   -8.3470   21.1400 C   0  0  0  0  0  0  0  0  0  0  0  0
  -22.1410   -9.3350   20.2260 C   0  0  0  0  0  3  0  0  0  0  0  0
  -22.8680  -10.5300   20.0920 C   0  0  0  0  0  3  0  0  0  0  0  0
  -21.7940   -7.2000   21.1820 O   0  0  0  0  0  0  0  0  0  0  0  0
  -21.7350   -6.4180   22.3090 C   0  0  0  0  0  0  0  0  0  0  0  0
  -21.2920   -6.9300   23.5480 C   0  0  0  0  0  3  0  0  0  0  0  0
  -21.1820   -6.0760   24.6620 C   0  0  0  0  0  3  0  0  0  0  0  0
  -21.5040   -4.7120   24.5390 C   0  0  0  0  0  0  0  0  0  0  0  0
  -21.9400   -4.1980   23.3060 C   0  0  0  0  0  3  0  0  0  0  0  0
  -22.0520   -5.0500   22.1920 C   0  0  0  0  0  0  0  0  0  0  0  0
  -22.4530   -4.5480   21.0000 F   0  0  0  0  0  0  0  0  0  0  0  0
  -21.3900   -3.8880   25.6090 F   0  0  0  0  0  0  0  0  0  0  0  0
  -22.8900  -13.8470   21.1320 C   0  0  0  0  0  0  0  0  0  0  0  0
  -22.1740  -13.1240   21.9850 N   0  0  0  0  0  0  0  0  0  0  0  0
  -22.4450  -14.8880   20.6500 O   0  0  0  0  0  0  0  0  0  0  0  0
  -22.5460  -12.2810   22.3970 H   0  0  0  0  0  0  0  0  0  0  0  0
  -21.2390  -13.4180   22.2320 H   0  0  0  0  0  0  0  0  0  0  0  0
  -25.5120  -15.5430   20.3600 N   0  0  0  0  0  0  0  0  0  0  0  0
  -24.7460  -16.1910   20.5040 H   0  0  0  0  0  0  0  0  0  0  0  0
  -26.3560  -15.9960   20.0330 H   0  0  0  0  0  0  0  0  0  0  0  0
  2  4  2  0
  2  6  1  0
  3  1  1  0
  3  7  1  0
  4  5  1  0
  5  3  2  0
  5  9  1  0
  6 52  1  0
  6  1  2  0
  7 10  1  0
  8  4  1  0
  9  7  1  0
 10 11  1  0
 12 23  2  0
 13 11  1  0
 13 18  1  0
 14 22  1  0
 14 24  1  0
 15 17  1  0
 16 22  1  0
 17 18  2  0
 17 16  1  0
 19 13  2  0
 20 19  1  0
 20 15  2  0
 21 15  1  0
 21 14  1  0
 22 12  1  0
 24 26  2  0
 25 24  1  0
 27 25  1  0
 28 37  2  0
 28 33  1  0
 29 25  1  0
 29 33  1  0
 30 29  1  0
 31 32  1  0
 31 30  1  0
 32 28  1  0
 33 34  2  0
 34 35  1  0
 36 35  2  0
 37 36  1  0
 38 12  1  0
 38 43  1  0
 38 39  1  0
 39 42  1  1
 39 40  1  0
 41 39  1  0
 43 46  1  0
 44 48  1  0
 44 43  1  0
 45 44  2  0
 48 47  1  0
 50 48  1  0
 50 51  1  0
 50 49  1  0
 53 52  1  0
 53 54  1  0
 55 63  1  0
 56 61  1  0
 57 58  1  0
 57 56  1  0
 59 58  1  0
 59 68  1  0
 59 60  1  0
 61 55  1  0
 61 60  1  0
 62 55  2  0
 63 54  1  0
 63 64  1  0
 65 66  2  0
 66 85  1  0
 67 66  1  0
 67 70  1  0
 68 69  1  0
 68 65  1  0
 69 67  2  0
 70 71  1  0
 71 72  2  0
 73 76  1  0
 73 72  1  0
 74 73  2  0
 75 74  1  0
 75 70  2  0
 76 77  1  0
 77 78  1  0
 78 79  2  0
 80 79  1  0
 80 84  1  0
 81 80  2  0
 82 77  2  0
 82 81  1  0
 83 82  1  0
 85 86  1  0
 86 89  1  0
 86 88  1  0
 87 85  2  0
 90 65  1  0
 90 91  1  0
 92 90  1  0
M  ISO  4  10 101  11 101  55 100  63 100
M  END
>  <TORSDO>  (10) 
F 20

>  <SCORE>  (10) 
-12.809

>  <name>  (10) 
9

>  <ligand_id>  (10) 
9

>  <original_smiles>  (10) 
[H]c1c([H])c([H])c2c(c1[H])C([H])([H])C([H])([H])C([H])([H])C2([H])N([H])C(=O)C1([H])N(C(=O)C([H])(N([H])C(=O)C([H])(N([H])C([H])([H])[H])C([H])([H])[H])C(C([H])([H])[H])(C([H])([H])[H])C([H])([H])[H])C([H])([H])c2c([H])c(OC([H])([H])C3([H])Oc4c(C([H])([H])[H])c([H])c(OC([H])([H])C([H])([H])N([H])C(=O)N5C([H])([H])C([H])([H])C([H])([H])C([H])(n6nc(-c7c([H])c([H])c(Oc8c([H])c([H])c(F)c([H])c8F)c([H])c7[H])c(C(=O)N([H])[H])c6N([H])[H])C5([H])[H])c([H])c43)c([H])c([H])c2C1([H])[H]

>  <smiles>  (10) 
[H]c1c([H])c([H])c2c(c1[H])C([H])([H])C([H])([H])C([H])([H])C2([H])N([H])C(=O)C1([H])N(C(=O)C([H])(N([H])C(=O)C([H])(N([H])C([H])([H])[H])C([H])([H])[H])C(C([H])([H])[H])(C([H])([H])[H])C([H])([H])[H])C([H])([H])c2c([H])c(OC([H])([H])C3([H])Oc4c(C([H])([H])[H])c([H])c(OC([H])([H])C([H])([H])N([H])C(=O)N5C([H])([H])C([H])([H])C([H])([H])C([H])(n6nc(-c7c([H])c([H])c(Oc8c([H])c([H])c(F)c([H])c8F)c([H])c7[H])c(C(=O)N([H])[H])c6N([H])[H])C5([H])[H])c([H])c43)c([H])c([H])c2C1([H])[H]

$$$$
10:0:0
     RDKit          3D

 99108  0  0  1  0  0  0  0  0999 V2000
  -31.0570  -22.2010   20.7840 C   0  0  0  0  0  3  0  0  0  0  0  0
  -30.2530  -21.7800   18.5460 C   0  0  0  0  0  3  0  0  0  0  0  0
  -30.5510  -19.8820   20.0970 C   0  0  0  0  0  0  0  0  0  0  0  0
  -31.0370  -20.8110   21.0650 C   0  0  0  0  0  0  0  0  0  0  0  0
  -30.6190  -22.7010   19.5370 C   0  0  0  0  0  0  0  0  0  0  0  0
  -30.1950  -20.4020   18.8120 C   0  0  0  0  0  0  0  0  0  0  0  0
  -31.5070  -20.3630   22.4410 C   0  0  0  0  0  1  0  0  0  0  0  0
  -29.5530  -19.4280   17.5370 Cl  0  0  0  0  0  0  0  0  0  0  0  0
  -30.8600  -14.6250   20.0150 C   0  0  0  0  0  0  0  0  0  0  0  0
  -30.4150  -12.4640   18.9260 C   0  0  0  0  0  2  0  0  0  0  0  0
  -29.4020  -12.5850   17.7750 C   0  0  0  0  0  2  0  0  0  0  0  0
  -27.9540  -12.4170   18.2880 C   0  0  0  0  0  2  0  0  0  0  0  0
  -27.6440  -13.2300   19.5750 C   0  0  0  0  0  3  0  0  0  0  0  0
  -28.8140  -13.1420   20.5940 C   0  0  0  0  0  2  0  0  0  0  0  0
  -30.0600  -13.5130   19.8910 N   0  0  0  0  0  0  0  0  0  0  0  0
  -32.0740  -14.5020   20.0220 O   0  0  0  0  0  0  0  0  0  0  0  0
  -29.1340  -16.2120   19.1230 C   0  0  0  0  0  2  0  0  0  0  0  0
  -30.2120  -18.4150   20.4910 C   0  0  0  0  0  3  0  0  0  0  0  0
  -31.1230  -17.1990   19.9610 C   0  0  0  0  0  3  0  0  0  0  0  0
  -28.2070  -16.9540   20.1100 C   0  0  0  0  0  3  0  0  0  0  0  0
  -28.0270  -16.3600   21.5260 C   0  0  0  0  0  1  0  0  0  0  0  0
  -30.3680  -15.8990   19.8090 N   0  0  0  0  0  0  0  0  0  0  0  0
  -28.7520  -18.3010   20.2570 N   0  0  0  0  0  4  0  0  0  0  0  0
  -28.5860  -18.7760   19.3810 H   0  0  0  0  0  0  0  0  0  0  0  0
  -28.2520  -18.8110   20.9690 H   0  0  0  0  0  0  0  0  0  0  0  0
  -25.2630  -13.8220   20.3220 C   0  0  0  0  0  0  0  0  0  0  0  0
  -24.2240  -13.0460   20.7390 C   0  0  0  0  0  0  0  0  0  0  0  0
  -24.7100  -11.7050   20.7120 C   0  0  0  0  0  0  0  0  0  0  0  0
  -26.3280  -12.9500   20.1140 N   0  0  0  0  0  0  0  0  0  0  0  0
  -25.9960  -11.6730   20.3950 N   0  0  0  0  0  0  0  0  0  0  0  0
  -24.0060  -10.4410   20.9100 C   0  0  0  0  0  0  0  0  0  0  0  0
  -24.4590   -9.4940   21.8530 C   0  0  0  0  0  3  0  0  0  0  0  0
  -23.7530   -8.2900   22.0430 C   0  0  0  0  0  3  0  0  0  0  0  0
  -22.5830   -8.0280   21.2910 C   0  0  0  0  0  0  0  0  0  0  0  0
  -22.1540   -8.9650   20.3340 C   0  0  0  0  0  3  0  0  0  0  0  0
  -22.8610  -10.1620   20.1400 C   0  0  0  0  0  3  0  0  0  0  0  0
  -21.8450   -6.8770   21.3970 O   0  0  0  0  0  0  0  0  0  0  0  0
  -21.7840   -6.1710   22.5720 C   0  0  0  0  0  0  0  0  0  0  0  0
  -21.3180   -6.7580   23.7690 C   0  0  0  0  0  3  0  0  0  0  0  0
  -21.2040   -5.9780   24.9360 C   0  0  0  0  0  3  0  0  0  0  0  0
  -21.5490   -4.6130   24.9070 C   0  0  0  0  0  0  0  0  0  0  0  0
  -22.0110   -4.0280   23.7160 C   0  0  0  0  0  3  0  0  0  0  0  0
  -22.1250   -4.8060   22.5510 C   0  0  0  0  0  0  0  0  0  0  0  0
  -22.5490   -4.2310   21.3990 F   0  0  0  0  0  0  0  0  0  0  0  0
  -21.4300   -3.8610   26.0270 F   0  0  0  0  0  0  0  0  0  0  0  0
  -22.8290  -13.5150   21.0290 C   0  0  0  0  0  0  0  0  0  0  0  0
  -22.1320  -12.8280   21.9260 N   0  0  0  0  0  0  0  0  0  0  0  0
  -22.3700  -14.5290   20.5040 O   0  0  0  0  0  0  0  0  0  0  0  0
  -22.5190  -12.0090   22.3720 H   0  0  0  0  0  0  0  0  0  0  0  0
  -21.1990  -13.1230   22.1730 H   0  0  0  0  0  0  0  0  0  0  0  0
  -25.3460  -15.1830   20.0580 N   0  0  0  0  0  0  0  0  0  0  0  0
  -24.4940  -15.7320   20.0760 H   0  0  0  0  0  0  0  0  0  0  0  0
  -26.0300  -15.5460   19.4130 H   0  0  0  0  0  0  0  0  0  0  0  0
  -33.1660  -16.6530   18.3620 C   0  0  0  0  0  1  0  0  0  0  0  0
  -32.0030  -17.5840   18.7280 C   0  0  0  0  0  2  0  0  0  0  0  0
  -30.5570  -24.0360   19.2030 O   0  0  0  0  0  0  0  0  0  0  0  0
  -30.0340  -24.9620   20.1590 C   0  0  0  0  0  2  0  0  0  0  0  0
  -28.6120  -25.4450   19.7770 C   0  0  0  0  0  2  0  0  0  0  0  0
  -28.4900  -26.8110   20.1740 O   0  0  0  0  0  0  0  0  0  0  0  0
  -24.5720  -31.8670   23.2080 C   0  0  0  0  0  0  0  0  0  0  0  0
  -27.2700  -27.4550   20.1440 C   0  0  0  0  0  0  0  0  0  0  0  0
  -23.3790  -30.4630   21.5540 C   0  0  0  0  0  3  0  0  0  0  0  0
  -24.8480  -28.9240   20.1410 C   0  0  0  0  0  0  0  0  0  0  0  0
  -25.8970  -30.8400   21.3640 C   0  0  0  0  0  2  0  0  0  0  0  0
  -25.9940  -29.4640   20.7330 C   0  0  0  0  0  0  0  0  0  0  0  0
  -27.2010  -28.7350   20.7340 C   0  0  0  0  0  3  0  0  0  0  0  0
  -26.1030  -26.9160   19.5480 C   0  0  0  0  0  3  0  0  0  0  0  0
  -24.8960  -27.6490   19.5480 C   0  0  0  0  0  3  0  0  0  0  0  0
  -23.5980  -29.7760   20.1770 C   0  0  0  0  0  2  0  0  0  0  0  0
  -24.6340  -31.0710   22.1030 N   0  0  0  0  0  0  0  0  0  0  0  0
  -23.4880  -32.1360   23.7440 O   0  0  0  0  0  0  0  0  0  0  0  0
  -22.7240  -29.4430   22.5120 C   0  0  0  0  0  0  0  0  0  0  0  0
  -21.3980  -29.2670   22.3820 N   0  0  0  0  0  0  0  0  0  0  0  0
  -23.4040  -28.8140   23.3270 O   0  0  0  0  0  0  0  0  0  0  0  0
  -20.9110  -29.8290   21.6980 H   0  0  0  0  0  0  0  0  0  0  0  0
  -18.0170  -28.0980   22.8740 C   0  0  0  0  0  0  0  0  0  0  0  0
  -20.5770  -28.3280   23.1440 C   0  0  0  0  0  3  0  0  0  0  0  0
  -20.6660  -26.9030   22.5510 C   0  0  0  0  0  2  0  0  0  0  0  0
  -19.5590  -26.6030   21.5350 C   0  0  0  0  0  2  0  0  0  0  0  0
  -18.1790  -26.7540   22.1840 C   0  0  0  0  0  2  0  0  0  0  0  0
  -19.1440  -28.8440   23.3110 C   0  0  0  0  0  0  0  0  0  0  0  0
  -18.9380  -30.1040   23.9140 C   0  0  0  0  0  3  0  0  0  0  0  0
  -17.6390  -30.6160   24.0870 C   0  0  0  0  0  3  0  0  0  0  0  0
  -16.5260  -29.8660   23.6670 C   0  0  0  0  0  3  0  0  0  0  0  0
  -16.7170  -28.6090   23.0660 C   0  0  0  0  0  3  0  0  0  0  0  0
  -25.8550  -32.4970   23.8390 C   0  0  0  0  0  3  0  0  0  0  0  0
  -26.3660  -31.7230   25.1140 C   0  0  1  0  0  0  0  0  0  0  0  0
  -25.2700  -31.4800   26.1760 C   0  0  0  0  0  1  0  0  0  0  0  0
  -26.9520  -30.3490   24.7160 C   0  0  0  0  0  1  0  0  0  0  0  0
  -27.5140  -32.5150   25.7850 C   0  0  0  0  0  1  0  0  0  0  0  0
  -25.5450  -33.8960   24.1670 N   0  0  0  0  0  0  0  0  0  0  0  0
  -25.8930  -34.9470   23.4130 C   0  0  0  0  0  0  0  0  0  0  0  0
  -26.5770  -34.8420   22.3920 O   0  0  0  0  0  0  0  0  0  0  0  0
  -24.9410  -34.0520   24.9610 H   0  0  0  0  0  0  0  0  0  0  0  0
  -24.1790  -36.7460   23.0250 C   0  0  0  0  0  1  0  0  0  0  0  0
  -25.4010  -36.3360   23.8630 C   0  0  0  0  0  3  0  0  0  0  0  0
  -27.5200  -37.2100   24.7430 C   0  0  0  0  0  1  0  0  0  0  0  0
  -26.4400  -37.3850   23.7750 N   0  0  0  0  0  0  0  0  0  0  0  0
  -26.0350  -38.3060   23.9130 H   0  0  0  0  0  0  0  0  0  0  0  0
  1  4  1  0
  2  6  2  0
  2  5  1  0
  3  4  2  0
  4  7  1  0
  5  1  2  0
  6  3  1  0
  8  6  1  0
  9 16  2  0
 10 15  1  0
 11 12  1  0
 11 10  1  0
 13 12  1  0
 13 29  1  0
 13 14  1  0
 15  9  1  0
 15 14  1  0
 17 22  1  0
 17 20  1  0
 18  3  1  0
 19 55  1  0
 19 18  1  0
 20 23  1  0
 20 21  1  0
 22 19  1  0
 22  9  1  0
 23 18  1  0
 23 25  1  0
 24 23  1  0
 26 27  2  0
 27 46  1  0
 28 27  1  0
 28 31  1  0
 29 26  1  0
 29 30  1  0
 30 28  2  0
 31 32  1  0
 32 33  2  0
 34 37  1  0
 34 33  1  0
 35 34  2  0
 36 35  1  0
 36 31  2  0
 37 38  1  0
 38 39  1  0
 39 40  2  0
 41 40  1  0
 41 45  1  0
 42 41  2  0
 43 38  2  0
 43 42  1  0
 44 43  1  0
 46 47  1  0
 47 50  1  0
 47 49  1  0
 48 46  2  0
 51 52  1  0
 51 26  1  0
 53 51  1  0
 54 55  1  0
 56  5  1  0
 56 57  1  0
 58 57  1  0
 58 59  1  0
 60 71  2  0
 61 59  1  0
 61 66  1  0
 62 70  1  0
 62 72  1  0
 63 69  1  0
 63 65  1  0
 64 70  1  0
 65 66  2  0
 65 64  1  0
 67 68  1  0
 67 61  2  0
 68 63  2  0
 69 62  1  0
 70 60  1  0
 72 74  2  0
 73 72  1  0
 75 73  1  0
 76 85  2  0
 76 81  1  0
 77 73  1  0
 77 81  1  0
 78 77  1  0
 79 80  1  0
 79 78  1  0
 80 76  1  0
 81 82  2  0
 82 83  1  0
 84 83  2  0
 85 84  1  0
 86 60  1  0
 86 91  1  0
 86 87  1  0
 87 90  1  1
 87 88  1  0
 89 87  1  0
 91 94  1  0
 92 96  1  0
 92 91  1  0
 93 92  2  0
 96 95  1  0
 98 96  1  0
 98 99  1  0
 98 97  1  0
M  ISO  4   9 100  22 100  58 101  59 101
M  END
>  <TORSDO>  (11) 
F 20

>  <SCORE>  (11) 
-12.756

>  <name>  (11) 
10

>  <ligand_id>  (11) 
10

>  <original_smiles>  (11) 
[H]c1c([H])c([H])c2c(c1[H])C([H])([H])C([H])([H])C([H])([H])C2([H])N([H])C(=O)C1([H])N(C(=O)C([H])(N([H])C(=O)C([H])(N([H])C([H])([H])[H])C([H])([H])[H])C(C([H])([H])[H])(C([H])([H])[H])C([H])([H])[H])C([H])([H])c2c([H])c(OC([H])([H])C([H])([H])Oc3c([H])c(Cl)c(C4([H])C([H])(C([H])([H])C([H])([H])[H])N(C(=O)N5C([H])([H])C([H])([H])C([H])([H])C([H])(n6nc(-c7c([H])c([H])c(Oc8c([H])c([H])c(F)c([H])c8F)c([H])c7[H])c(C(=O)N([H])[H])c6N([H])[H])C5([H])[H])C([H])([H])C([H])(C([H])([H])[H])[N+]4([H])[H])c(C([H])([H])[H])c3[H])c([H])c([H])c2C1([H])[H]

>  <smiles>  (11) 
[H]c1c([H])c([H])c2c(c1[H])C([H])([H])C([H])([H])C([H])([H])C2([H])N([H])C(=O)C1([H])N(C(=O)C([H])(N([H])C(=O)C([H])(N([H])C([H])([H])[H])C([H])([H])[H])C(C([H])([H])[H])(C([H])([H])[H])C([H])([H])[H])C([H])([H])c2c([H])c(OC([H])([H])C([H])([H])Oc3c([H])c(Cl)c(C4([H])C([H])(C([H])([H])C([H])([H])[H])N(C(=O)N5C([H])([H])C([H])([H])C([H])([H])C([H])(n6nc(-c7c([H])c([H])c(Oc8c([H])c([H])c(F)c([H])c8F)c([H])c7[H])c(C(=O)N([H])[H])c6N([H])[H])C5([H])[H])C([H])([H])C([H])(C([H])([H])[H])[N+]4([H])[H])c(C([H])([H])[H])c3[H])c([H])c([H])c2C1([H])[H]

$$$$
11:0:0
     RDKit          3D

 93102  0  0  1  0  0  0  0  0999 V2000
  -27.7540  -20.7660   20.4220 C   0  0  0  0  0  3  0  0  0  0  0  0
  -30.1370  -20.6860   20.8040 C   0  0  0  0  0  3  0  0  0  0  0  0
  -29.0070  -22.8780   20.6150 C   0  0  0  0  0  0  0  0  0  0  0  0
  -27.7830  -22.1820   20.4350 C   0  0  0  0  0  0  0  0  0  0  0  0
  -30.1840  -22.1000   20.8120 C   0  0  0  0  0  0  0  0  0  0  0  0
  -28.9190  -19.9960   20.6210 C   0  0  0  0  0  0  0  0  0  0  0  0
  -26.4700  -22.9300   20.2700 C   0  0  0  0  0  1  0  0  0  0  0  0
  -31.5320  -22.7660   21.0440 C   0  0  0  0  0  1  0  0  0  0  0  0
  -29.9650  -25.0850   19.6140 C   0  0  0  0  0  2  0  0  0  0  0  0
  -29.0980  -24.4030   20.6480 C   0  0  0  0  0  3  0  0  0  0  0  0
  -28.4950  -25.4080   19.6540 C   0  0  0  0  0  3  0  0  0  0  0  0
  -28.4120  -26.7770   20.0860 O   0  0  0  0  0  0  0  0  0  0  0  0
  -24.5710  -31.8850   23.2020 C   0  0  0  0  0  0  0  0  0  0  0  0
  -27.2070  -27.4550   20.0850 C   0  0  0  0  0  0  0  0  0  0  0  0
  -23.3590  -30.4950   21.5530 C   0  0  0  0  0  3  0  0  0  0  0  0
  -24.8070  -28.9620   20.1160 C   0  0  0  0  0  0  0  0  0  0  0  0
  -25.8840  -30.8550   21.3480 C   0  0  0  0  0  2  0  0  0  0  0  0
  -25.9660  -29.4850   20.6990 C   0  0  0  0  0  0  0  0  0  0  0  0
  -27.1650  -28.7390   20.6780 C   0  0  0  0  0  3  0  0  0  0  0  0
  -26.0250  -26.9400   19.5080 C   0  0  0  0  0  3  0  0  0  0  0  0
  -24.8310  -27.6900   19.5180 C   0  0  0  0  0  3  0  0  0  0  0  0
  -23.5640  -29.8230   20.1690 C   0  0  0  0  0  2  0  0  0  0  0  0
  -24.6240  -31.0940   22.0920 N   0  0  0  0  0  0  0  0  0  0  0  0
  -23.4920  -32.1530   23.7480 O   0  0  0  0  0  0  0  0  0  0  0  0
  -22.7120  -29.4680   22.5090 C   0  0  0  0  0  0  0  0  0  0  0  0
  -21.3870  -29.2880   22.3840 N   0  0  0  0  0  0  0  0  0  0  0  0
  -23.3970  -28.8370   23.3170 O   0  0  0  0  0  0  0  0  0  0  0  0
  -20.8950  -29.8500   21.7040 H   0  0  0  0  0  0  0  0  0  0  0  0
  -18.0130  -28.0950   22.8820 C   0  0  0  0  0  0  0  0  0  0  0  0
  -20.5710  -28.3460   23.1500 C   0  0  0  0  0  3  0  0  0  0  0  0
  -20.6700  -26.9200   22.5620 C   0  0  0  0  0  2  0  0  0  0  0  0
  -19.5650  -26.6080   21.5470 C   0  0  0  0  0  2  0  0  0  0  0  0
  -18.1860  -26.7510   22.1970 C   0  0  0  0  0  2  0  0  0  0  0  0
  -19.1340  -28.8510   23.3160 C   0  0  0  0  0  0  0  0  0  0  0  0
  -18.9190  -30.1100   23.9170 C   0  0  0  0  0  3  0  0  0  0  0  0
  -17.6160  -30.6130   24.0900 C   0  0  0  0  0  3  0  0  0  0  0  0
  -16.5090  -29.8540   23.6720 C   0  0  0  0  0  3  0  0  0  0  0  0
  -16.7080  -28.5960   23.0750 C   0  0  0  0  0  3  0  0  0  0  0  0
  -25.8590  -32.5110   23.8220 C   0  0  0  0  0  3  0  0  0  0  0  0
  -26.3800  -31.7330   25.0930 C   0  0  1  0  0  0  0  0  0  0  0  0
  -25.2890  -31.4890   26.1630 C   0  0  0  0  0  1  0  0  0  0  0  0
  -26.9610  -30.3580   24.6900 C   0  0  0  0  0  1  0  0  0  0  0  0
  -27.5320  -32.5240   25.7580 C   0  0  0  0  0  1  0  0  0  0  0  0
  -25.5550  -33.9080   24.1580 N   0  0  0  0  0  0  0  0  0  0  0  0
  -25.8900  -34.9620   23.4020 C   0  0  0  0  0  0  0  0  0  0  0  0
  -26.5590  -34.8610   22.3700 O   0  0  0  0  0  0  0  0  0  0  0  0
  -24.9620  -34.0610   24.9610 H   0  0  0  0  0  0  0  0  0  0  0  0
  -24.1700  -36.7610   23.0460 C   0  0  0  0  0  1  0  0  0  0  0  0
  -25.4040  -36.3500   23.8630 C   0  0  0  0  0  3  0  0  0  0  0  0
  -27.5350  -37.2240   24.7150 C   0  0  0  0  0  1  0  0  0  0  0  0
  -26.4410  -37.4000   23.7630 N   0  0  0  0  0  0  0  0  0  0  0  0
  -26.0370  -38.3210   23.9090 H   0  0  0  0  0  0  0  0  0  0  0  0
  -28.8010  -18.6140   20.6100 O   0  0  0  0  0  0  0  0  0  0  0  0
  -29.6900  -17.8220   21.4150 C   0  0  0  0  0  2  0  0  0  0  0  0
  -30.6000  -16.8870   20.5770 C   0  0  0  0  0  2  0  0  0  0  0  0
  -30.8440  -14.4600   20.0300 C   0  0  0  0  0  0  0  0  0  0  0  0
  -30.5110  -12.2730   18.9390 C   0  0  0  0  0  2  0  0  0  0  0  0
  -29.5180  -12.4430   17.7710 C   0  0  0  0  0  2  0  0  0  0  0  0
  -28.0620  -12.3190   18.2640 C   0  0  0  0  0  2  0  0  0  0  0  0
  -27.7780  -13.1870   19.5200 C   0  0  0  0  0  3  0  0  0  0  0  0
  -28.8770  -12.9860   20.5870 C   0  0  0  0  0  2  0  0  0  0  0  0
  -30.1750  -13.2780   19.9580 N   0  0  0  0  0  0  0  0  0  0  0  0
  -31.9410  -14.6470   19.4990 O   0  0  0  0  0  0  0  0  0  0  0  0
  -30.1660  -15.4790   20.5870 N   0  0  0  0  0  0  0  0  0  0  0  0
  -29.2570  -15.2700   20.9730 H   0  0  0  0  0  0  0  0  0  0  0  0
  -25.4280  -13.8240   20.3530 C   0  0  0  0  0  0  0  0  0  0  0  0
  -24.3670  -13.0640   20.7640 C   0  0  0  0  0  0  0  0  0  0  0  0
  -24.8020  -11.7050   20.6900 C   0  0  0  0  0  0  0  0  0  0  0  0
  -26.4450  -12.9290   20.0590 N   0  0  0  0  0  0  0  0  0  0  0  0
  -26.0740  -11.6480   20.3180 N   0  0  0  0  0  0  0  0  0  0  0  0
  -24.0640  -10.4520   20.8970 C   0  0  0  0  0  0  0  0  0  0  0  0
  -24.4960   -9.4880   21.8350 C   0  0  0  0  0  3  0  0  0  0  0  0
  -23.7610   -8.2980   22.0280 C   0  0  0  0  0  3  0  0  0  0  0  0
  -22.5790   -8.0660   21.2850 C   0  0  0  0  0  0  0  0  0  0  0  0
  -22.1660   -9.0190   20.3370 C   0  0  0  0  0  3  0  0  0  0  0  0
  -22.9020  -10.1990   20.1410 C   0  0  0  0  0  3  0  0  0  0  0  0
  -21.8150   -6.9280   21.3880 O   0  0  0  0  0  0  0  0  0  0  0  0
  -21.7310   -6.2210   22.5610 C   0  0  0  0  0  0  0  0  0  0  0  0
  -21.2630   -6.8100   23.7550 C   0  0  0  0  0  3  0  0  0  0  0  0
  -21.1280   -6.0290   24.9200 C   0  0  0  0  0  3  0  0  0  0  0  0
  -21.4510   -4.6590   24.8910 C   0  0  0  0  0  0  0  0  0  0  0  0
  -21.9110   -4.0690   23.7010 C   0  0  0  0  0  3  0  0  0  0  0  0
  -22.0480   -4.8480   22.5380 C   0  0  0  0  0  0  0  0  0  0  0  0
  -22.4730   -4.2690   21.3890 F   0  0  0  0  0  0  0  0  0  0  0  0
  -21.3130   -3.9060   26.0070 F   0  0  0  0  0  0  0  0  0  0  0  0
  -22.9930  -13.5590   21.1140 C   0  0  0  0  0  0  0  0  0  0  0  0
  -22.2980  -12.8620   22.0060 N   0  0  0  0  0  0  0  0  0  0  0  0
  -22.5460  -14.5990   20.6310 O   0  0  0  0  0  0  0  0  0  0  0  0
  -22.6730  -12.0210   22.4190 H   0  0  0  0  0  0  0  0  0  0  0  0
  -21.3770  -13.1750   22.2810 H   0  0  0  0  0  0  0  0  0  0  0  0
  -25.6080  -15.1940   20.1900 N   0  0  0  0  0  0  0  0  0  0  0  0
  -24.8590  -15.8600   20.3490 H   0  0  0  0  0  0  0  0  0  0  0  0
  -26.4490  -15.6240   19.8260 H   0  0  0  0  0  0  0  0  0  0  0  0
  1  4  2  0
  1  6  1  0
  2  5  1  0
  3  5  2  0
  4  3  1  0
  5  8  1  0
  6  2  2  0
  7  4  1  0
  9 11  1  0
  9 10  1  0
 10  3  1  0
 11 12  1  0
 11 10  1  0
 13 24  2  0
 14 12  1  0
 14 19  1  0
 15 23  1  0
 15 25  1  0
 16 22  1  0
 16 18  1  0
 17 23  1  0
 18 17  1  0
 19 18  2  0
 20 21  1  0
 20 14  2  0
 21 16  2  0
 22 15  1  0
 23 13  1  0
 25 27  2  0
 26 25  1  0
 28 26  1  0
 29 38  2  0
 29 34  1  0
 30 26  1  0
 30 34  1  0
 31 30  1  0
 32 33  1  0
 32 31  1  0
 33 29  1  0
 34 35  2  0
 35 36  1  0
 37 36  2  0
 38 37  1  0
 39 13  1  0
 39 44  1  0
 39 40  1  0
 40 43  1  1
 40 41  1  0
 42 40  1  0
 44 47  1  0
 45 49  1  0
 45 44  1  0
 46 45  2  0
 49 48  1  0
 51 49  1  0
 51 52  1  0
 51 50  1  0
 53  6  1  0
 53 54  1  0
 55 64  1  0
 55 54  1  0
 56 64  1  0
 57 62  1  0
 58 59  1  0
 58 57  1  0
 60 59  1  0
 60 69  1  0
 60 61  1  0
 62 56  1  0
 62 61  1  0
 63 56  2  0
 64 65  1  0
 66 67  2  0
 67 86  1  0
 68 67  1  0
 68 71  1  0
 69 70  1  0
 69 66  1  0
 70 68  2  0
 71 72  1  0
 72 73  2  0
 74 77  1  0
 74 73  1  0
 75 74  2  0
 76 75  1  0
 76 71  2  0
 77 78  1  0
 78 79  1  0
 79 80  2  0
 81 80  1  0
 81 85  1  0
 82 81  2  0
 83 78  2  0
 83 82  1  0
 84 83  1  0
 86 87  1  0
 87 90  1  0
 87 89  1  0
 88 86  2  0
 91 92  1  0
 91 66  1  0
 93 91  1  0
M  ISO  4  11 101  12 101  56 100  64 100
M  END
>  <TORSDO>  (12) 
F 20

>  <SCORE>  (12) 
-13.483

>  <name>  (12) 
11

>  <ligand_id>  (12) 
11

>  <original_smiles>  (12) 
[H]c1c([H])c([H])c2c(c1[H])C([H])([H])C([H])([H])C([H])([H])C2([H])N([H])C(=O)C1([H])N(C(=O)C([H])(N([H])C(=O)C([H])(N([H])C([H])([H])[H])C([H])([H])[H])C(C([H])([H])[H])(C([H])([H])[H])C([H])([H])[H])C([H])([H])c2c([H])c(OC3([H])C([H])([H])C3([H])c3c(C([H])([H])[H])c([H])c(OC([H])([H])C([H])([H])N([H])C(=O)N4C([H])([H])C([H])([H])C([H])([H])C([H])(n5nc(-c6c([H])c([H])c(Oc7c([H])c([H])c(F)c([H])c7F)c([H])c6[H])c(C(=O)N([H])[H])c5N([H])[H])C4([H])[H])c([H])c3C([H])([H])[H])c([H])c([H])c2C1([H])[H]

>  <smiles>  (12) 
[H]c1c([H])c([H])c2c(c1[H])C([H])([H])C([H])([H])C([H])([H])C2([H])N([H])C(=O)C1([H])N(C(=O)C([H])(N([H])C(=O)C([H])(N([H])C([H])([H])[H])C([H])([H])[H])C(C([H])([H])[H])(C([H])([H])[H])C([H])([H])[H])C([H])([H])c2c([H])c(OC3([H])C([H])([H])C3([H])c3c(C([H])([H])[H])c([H])c(OC([H])([H])C([H])([H])N([H])C(=O)N4C([H])([H])C([H])([H])C([H])([H])C([H])(n5nc(-c6c([H])c([H])c(Oc7c([H])c([H])c(F)c([H])c7F)c([H])c6[H])c(C(=O)N([H])[H])c5N([H])[H])C4([H])[H])c([H])c3C([H])([H])[H])c([H])c([H])c2C1([H])[H]

$$$$
12:0:0
     RDKit          3D

102113  0  0  1  0  0  0  0  0999 V2000
  -29.9020  -18.6430   19.1450 C   0  0  0  0  0  3  0  0  0  0  0  0
  -31.6400  -20.0920   18.2480 C   0  0  0  0  0  3  0  0  0  0  0  0
  -31.8580  -17.6680   18.0380 C   0  0  0  0  0  0  0  0  0  0  0  0
  -30.3920  -19.9380   18.8820 C   0  0  0  0  0  0  0  0  0  0  0  0
  -30.6140  -17.5050   18.7130 C   0  0  0  0  0  0  0  0  0  0  0  0
  -32.3730  -18.9710   17.8190 C   0  0  0  0  0  0  0  0  0  0  0  0
  -32.6330  -16.4710   17.4940 C   0  0  0  0  0  2  0  0  0  0  0  0
  -34.0520  -18.1610   16.3340 C   0  0  0  0  0  2  0  0  0  0  0  0
  -34.0720  -16.7980   17.0500 C   0  0  1  0  0  0  0  0  0  0  0  0
  -35.0230  -16.8400   18.2620 C   0  0  0  0  0  1  0  0  0  0  0  0
  -34.5690  -15.7080   16.0820 C   0  0  0  0  0  1  0  0  0  0  0  0
  -33.5680  -19.2030   17.1750 O   0  0  0  0  0  0  0  0  0  0  0  0
  -29.5300  -21.1580   19.1570 C   0  0  0  0  0  2  0  0  0  0  0  0
  -30.1510  -22.1940   20.1200 C   0  0  0  0  0  2  0  0  0  0  0  0
  -27.9320  -24.6530   21.2340 C   0  0  0  0  0  2  0  0  0  0  0  0
  -28.2830  -23.8740   19.9570 C   0  0  0  0  0  2  0  0  0  0  0  0
  -30.2130  -25.7370   21.3890 C   0  0  0  0  0  2  0  0  0  0  0  0
  -30.3740  -24.1630   18.4260 C   0  0  0  0  0  2  0  0  0  0  0  0
  -30.7280  -24.7370   20.3500 C   0  0  0  0  0  3  0  0  0  0  0  0
  -28.6980  -25.9850   21.3190 C   0  0  0  0  0  3  0  0  0  0  0  0
  -29.8010  -23.6510   19.7600 C   0  0  2  0  0  0  0  0  0  0  0  0
  -30.8810  -25.3630   19.0510 O   0  0  0  0  0  0  0  0  0  0  0  0
  -28.4270  -26.7890   20.1730 O   0  0  0  0  0  0  0  0  0  0  0  0
  -24.5590  -31.8960   23.2610 C   0  0  0  0  0  0  0  0  0  0  0  0
  -27.2530  -27.4900   20.2160 C   0  0  0  0  0  0  0  0  0  0  0  0
  -23.3720  -30.4860   21.6070 C   0  0  0  0  0  3  0  0  0  0  0  0
  -24.8470  -28.9520   20.2050 C   0  0  0  0  0  0  0  0  0  0  0  0
  -25.8940  -30.8620   21.4340 C   0  0  0  0  0  2  0  0  0  0  0  0
  -25.9920  -29.4900   20.8060 C   0  0  0  0  0  0  0  0  0  0  0  0
  -27.1990  -28.7620   20.8180 C   0  0  0  0  0  3  0  0  0  0  0  0
  -26.0990  -26.9560   19.6090 C   0  0  0  0  0  3  0  0  0  0  0  0
  -24.8920  -27.6790   19.6070 C   0  0  0  0  0  3  0  0  0  0  0  0
  -23.5980  -29.8030   20.2320 C   0  0  0  0  0  2  0  0  0  0  0  0
  -24.6260  -31.0960   22.1600 N   0  0  0  0  0  0  0  0  0  0  0  0
  -23.4710  -32.1650   23.7900 O   0  0  0  0  0  0  0  0  0  0  0  0
  -22.7170  -29.4640   22.5620 C   0  0  0  0  0  0  0  0  0  0  0  0
  -21.3950  -29.2800   22.4210 N   0  0  0  0  0  0  0  0  0  0  0  0
  -23.3940  -28.8400   23.3830 O   0  0  0  0  0  0  0  0  0  0  0  0
  -20.9110  -29.8350   21.7300 H   0  0  0  0  0  0  0  0  0  0  0  0
  -18.0150  -28.0940   22.8880 C   0  0  0  0  0  0  0  0  0  0  0  0
  -20.5710  -28.3420   23.1820 C   0  0  0  0  0  3  0  0  0  0  0  0
  -20.6730  -26.9120   22.6040 C   0  0  0  0  0  2  0  0  0  0  0  0
  -19.5790  -26.5960   21.5790 C   0  0  0  0  0  2  0  0  0  0  0  0
  -18.1930  -26.7450   22.2130 C   0  0  0  0  0  2  0  0  0  0  0  0
  -19.1330  -28.8500   23.3300 C   0  0  0  0  0  0  0  0  0  0  0  0
  -18.9140  -30.1150   23.9200 C   0  0  0  0  0  3  0  0  0  0  0  0
  -17.6110  -30.6220   24.0750 C   0  0  0  0  0  3  0  0  0  0  0  0
  -16.5070  -29.8620   23.6510 C   0  0  0  0  0  3  0  0  0  0  0  0
  -16.7110  -28.6000   23.0640 C   0  0  0  0  0  3  0  0  0  0  0  0
  -25.8380  -32.5280   23.8920 C   0  0  0  0  0  3  0  0  0  0  0  0
  -26.3390  -31.7660   25.1810 C   0  0  1  0  0  0  0  0  0  0  0  0
  -25.2330  -31.5400   26.2370 C   0  0  0  0  0  1  0  0  0  0  0  0
  -26.9240  -30.3860   24.8050 C   0  0  0  0  0  1  0  0  0  0  0  0
  -27.4820  -32.5650   25.8510 C   0  0  0  0  0  1  0  0  0  0  0  0
  -25.5300  -33.9300   24.2020 N   0  0  0  0  0  0  0  0  0  0  0  0
  -25.8790  -34.9730   23.4360 C   0  0  0  0  0  0  0  0  0  0  0  0
  -26.5680  -34.8550   22.4180 O   0  0  0  0  0  0  0  0  0  0  0  0
  -24.9210  -34.0960   24.9900 H   0  0  0  0  0  0  0  0  0  0  0  0
  -24.1700  -36.7680   23.0200 C   0  0  0  0  0  1  0  0  0  0  0  0
  -25.3870  -36.3660   23.8670 C   0  0  0  0  0  3  0  0  0  0  0  0
  -27.5030  -37.2490   24.7460 C   0  0  0  0  0  1  0  0  0  0  0  0
  -26.4280  -37.4130   23.7720 N   0  0  0  0  0  0  0  0  0  0  0  0
  -26.0220  -38.3360   23.8980 H   0  0  0  0  0  0  0  0  0  0  0  0
  -29.9290  -16.1490   18.8440 C   0  0  0  0  0  2  0  0  0  0  0  0
  -30.6910  -14.4770   20.4310 C   0  0  0  0  0  0  0  0  0  0  0  0
  -30.3910  -12.2760   19.4500 C   0  0  0  0  0  2  0  0  0  0  0  0
  -29.4750  -12.4630   18.2200 C   0  0  0  0  0  2  0  0  0  0  0  0
  -27.9910  -12.3790   18.6290 C   0  0  0  0  0  2  0  0  0  0  0  0
  -27.6390  -13.2460   19.8680 C   0  0  0  0  0  3  0  0  0  0  0  0
  -28.6850  -13.0730   20.9990 C   0  0  0  0  0  2  0  0  0  0  0  0
  -30.0220  -13.3000   20.4330 N   0  0  0  0  0  0  0  0  0  0  0  0
  -31.8980  -14.5760   20.2220 O   0  0  0  0  0  0  0  0  0  0  0  0
  -29.8920  -15.5180   20.1720 N   0  0  0  0  0  0  0  0  0  0  0  0
  -28.9570  -15.4070   20.5310 H   0  0  0  0  0  0  0  0  0  0  0  0
  -25.2400  -13.8790   20.5510 C   0  0  0  0  0  0  0  0  0  0  0  0
  -24.1610  -13.1150   20.9080 C   0  0  0  0  0  0  0  0  0  0  0  0
  -24.6130  -11.7600   20.8870 C   0  0  0  0  0  0  0  0  0  0  0  0
  -26.2810  -12.9880   20.3370 N   0  0  0  0  0  0  0  0  0  0  0  0
  -25.9060  -11.7100   20.5980 N   0  0  0  0  0  0  0  0  0  0  0  0
  -23.8770  -10.5040   21.0690 C   0  0  0  0  0  0  0  0  0  0  0  0
  -24.2930   -9.5340   22.0070 C   0  0  0  0  0  3  0  0  0  0  0  0
  -23.5580   -8.3410   22.1770 C   0  0  0  0  0  3  0  0  0  0  0  0
  -22.3940   -8.1090   21.4080 C   0  0  0  0  0  0  0  0  0  0  0  0
  -21.9980   -9.0680   20.4580 C   0  0  0  0  0  3  0  0  0  0  0  0
  -22.7320  -10.2530   20.2860 C   0  0  0  0  0  3  0  0  0  0  0  0
  -21.6330   -6.9690   21.4860 O   0  0  0  0  0  0  0  0  0  0  0  0
  -21.5620   -6.2270   22.6380 C   0  0  0  0  0  0  0  0  0  0  0  0
  -21.1160   -6.7850   23.8560 C   0  0  0  0  0  3  0  0  0  0  0  0
  -20.9950   -5.9710   25.0000 C   0  0  0  0  0  3  0  0  0  0  0  0
  -21.3070   -4.6000   24.9260 C   0  0  0  0  0  0  0  0  0  0  0  0
  -21.7430   -4.0410   23.7110 C   0  0  0  0  0  3  0  0  0  0  0  0
  -21.8680   -4.8530   22.5710 C   0  0  0  0  0  0  0  0  0  0  0  0
  -22.2680   -4.3050   21.3970 F   0  0  0  0  0  0  0  0  0  0  0  0
  -21.1820   -3.8160   26.0220 F   0  0  0  0  0  0  0  0  0  0  0  0
  -22.7630  -13.6020   21.1620 C   0  0  0  0  0  0  0  0  0  0  0  0
  -22.0180  -12.9060   22.0140 N   0  0  0  0  0  0  0  0  0  0  0  0
  -22.3390  -14.6300   20.6360 O   0  0  0  0  0  0  0  0  0  0  0  0
  -22.3770  -12.0750   22.4590 H   0  0  0  0  0  0  0  0  0  0  0  0
  -21.0780  -13.2110   22.2270 H   0  0  0  0  0  0  0  0  0  0  0  0
  -25.4190  -15.2490   20.3730 N   0  0  0  0  0  0  0  0  0  0  0  0
  -24.6550  -15.9090   20.4760 H   0  0  0  0  0  0  0  0  0  0  0  0
  -26.2720  -15.6880   20.0510 H   0  0  0  0  0  0  0  0  0  0  0  0
  2  4  2  0
  3  5  1  0
  4  1  1  0
  4 13  1  0
  5 64  1  0
  5  1  2  0
  6  3  2  0
  6  2  1  0
  7  3  1  0
  8  9  1  0
  8 12  1  0
  9  7  1  0
  9 10  1  1
 11  9  1  0
 12  6  1  0
 13 14  1  0
 15 20  1  0
 16 15  1  0
 18 22  1  0
 18 21  1  0
 19 17  1  0
 20 23  1  0
 20 17  1  0
 21 16  1  0
 21 14  1  1
 21 19  1  0
 22 19  1  0
 23 25  1  0
 24 35  2  0
 25 30  1  0
 26 34  1  0
 26 36  1  0
 27 33  1  0
 27 29  1  0
 28 34  1  0
 29 30  2  0
 29 28  1  0
 31 25  2  0
 32 31  1  0
 32 27  2  0
 33 26  1  0
 34 24  1  0
 36 38  2  0
 37 36  1  0
 39 37  1  0
 40 49  2  0
 40 45  1  0
 41 37  1  0
 41 45  1  0
 42 41  1  0
 43 44  1  0
 43 42  1  0
 44 40  1  0
 45 46  2  0
 46 47  1  0
 48 47  2  0
 49 48  1  0
 50 24  1  0
 50 55  1  0
 50 51  1  0
 51 54  1  1
 51 52  1  0
 53 51  1  0
 55 58  1  0
 56 60  1  0
 56 55  1  0
 57 56  2  0
 60 59  1  0
 62 60  1  0
 62 63  1  0
 62 61  1  0
 64 73  1  0
 65 71  1  0
 66 71  1  0
 67 68  1  0
 67 66  1  0
 69 68  1  0
 69 78  1  0
 69 70  1  0
 71 70  1  0
 72 65  2  0
 73 65  1  0
 73 74  1  0
 75 76  2  0
 76 95  1  0
 77 76  1  0
 77 80  1  0
 78 75  1  0
 78 79  1  0
 79 77  2  0
 80 81  1  0
 81 82  2  0
 83 86  1  0
 83 82  1  0
 84 83  2  0
 85 84  1  0
 85 80  2  0
 86 87  1  0
 87 88  1  0
 88 89  2  0
 90 89  1  0
 90 94  1  0
 91 90  2  0
 92 87  2  0
 92 91  1  0
 93 92  1  0
 95 96  1  0
 96 99  1  0
 96 98  1  0
 97 95  2  0
100101  1  0
100 75  1  0
102100  1  0
M  ISO  4  20 101  23 101  65 100  73 100
M  END
>  <TORSDO>  (13) 
F 20

>  <SCORE>  (13) 
-13.993

>  <name>  (13) 
12

>  <ligand_id>  (13) 
12

>  <original_smiles>  (13) 
[H]c1c([H])c([H])c2c(c1[H])C([H])([H])C([H])([H])C([H])([H])C2([H])N([H])C(=O)C1([H])N(C(=O)C([H])(N([H])C(=O)C([H])(N([H])C([H])([H])[H])C([H])([H])[H])C(C([H])([H])[H])(C([H])([H])[H])C([H])([H])[H])C([H])([H])c2c([H])c(OC3([H])C([H])([H])C([H])([H])C4(C([H])([H])C([H])([H])c5c([H])c6c(c(C([H])([H])N([H])C(=O)N7C([H])([H])C([H])([H])C([H])([H])C([H])(n8nc(-c9c([H])c([H])c(Oc%10c([H])c([H])c(F)c([H])c%10F)c([H])c9[H])c(C(=O)N([H])[H])c8N([H])[H])C7([H])[H])c5[H])C([H])([H])C(C([H])([H])[H])(C([H])([H])[H])C([H])([H])O6)C([H])([H])OC4([H])C3([H])[H])c([H])c([H])c2C1([H])[H]

>  <smiles>  (13) 
[H]c1c([H])c([H])c2c(c1[H])C([H])([H])C([H])([H])C([H])([H])C2([H])N([H])C(=O)C1([H])N(C(=O)C([H])(N([H])C(=O)C([H])(N([H])C([H])([H])[H])C([H])([H])[H])C(C([H])([H])[H])(C([H])([H])[H])C([H])([H])[H])C([H])([H])c2c([H])c(OC3([H])C([H])([H])C([H])([H])C4(C([H])([H])C([H])([H])c5c([H])c6c(c(C([H])([H])N([H])C(=O)N7C([H])([H])C([H])([H])C([H])([H])C([H])(n8nc(-c9c([H])c([H])c(Oc%10c([H])c([H])c(F)c([H])c%10F)c([H])c9[H])c(C(=O)N([H])[H])c8N([H])[H])C7([H])[H])c5[H])C([H])([H])C(C([H])([H])[H])(C([H])([H])[H])C([H])([H])O6)C([H])([H])OC4([H])C3([H])[H])c([H])c([H])c2C1([H])[H]

$$$$
13:0:0
     RDKit          3D

 97107  0  0  1  0  0  0  0  0999 V2000
  -29.7240  -22.6320   21.3740 C   0  0  0  0  0  3  0  0  0  0  0  0
  -27.7220  -21.2510   21.1040 C   0  0  0  0  0  3  0  0  0  0  0  0
  -27.5880  -23.6840   20.9220 C   0  0  0  0  0  0  0  0  0  0  0  0
  -28.9850  -23.8290   21.1320 C   0  0  0  0  0  0  0  0  0  0  0  0
  -26.9910  -22.4260   20.8660 C   0  0  0  0  0  0  0  0  0  0  0  0
  -29.1020  -21.3490   21.3780 C   0  0  0  0  0  0  0  0  0  0  0  0
  -25.2600  -23.8870   20.5050 C   0  0  0  0  0  2  0  0  0  0  0  0
  -26.5130  -24.7430   20.8020 C   0  0  0  0  0  3  0  0  0  0  0  0
  -26.3170  -25.5690   22.0830 C   0  0  0  0  0  1  0  0  0  0  0  0
  -25.6230  -22.4710   20.6090 N   0  0  0  0  0  0  0  0  0  0  0  0
  -25.0240  -21.8540   21.1550 H   0  0  0  0  0  0  0  0  0  0  0  0
  -29.6720  -25.2120   21.1770 C   0  0  0  0  0  2  0  0  0  0  0  0
  -29.4390  -26.1170   19.9340 C   0  0  0  0  0  2  0  0  0  0  0  0
  -29.2990  -27.5190   20.2780 O   0  0  0  0  0  0  0  0  0  0  0  0
  -24.6720  -31.9580   23.3820 C   0  0  0  0  0  0  0  0  0  0  0  0
  -28.0490  -28.1180   20.1980 C   0  0  0  0  0  0  0  0  0  0  0  0
  -23.7720  -30.5940   21.5270 C   0  0  0  0  0  3  0  0  0  0  0  0
  -25.5030  -29.3740   20.1090 C   0  0  0  0  0  0  0  0  0  0  0  0
  -26.2460  -31.2420   21.5850 C   0  0  0  0  0  2  0  0  0  0  0  0
  -26.5430  -29.9540   20.8430 C   0  0  0  0  0  0  0  0  0  0  0  0
  -27.8150  -29.3340   20.8850 C   0  0  0  0  0  3  0  0  0  0  0  0
  -26.9910  -27.5740   19.4300 C   0  0  0  0  0  3  0  0  0  0  0  0
  -25.7240  -28.1830   19.3970 C   0  0  0  0  0  3  0  0  0  0  0  0
  -24.1700  -30.0840   20.1170 C   0  0  0  0  0  2  0  0  0  0  0  0
  -24.9070  -31.2760   22.2260 N   0  0  0  0  0  0  0  0  0  0  0  0
  -23.5280  -32.0590   23.8470 O   0  0  0  0  0  0  0  0  0  0  0  0
  -23.1730  -29.4180   22.3310 C   0  0  0  0  0  0  0  0  0  0  0  0
  -21.8680  -29.1550   22.1340 N   0  0  0  0  0  0  0  0  0  0  0  0
  -23.8780  -28.7520   23.0960 O   0  0  0  0  0  0  0  0  0  0  0  0
  -21.3590  -29.7350   21.4830 H   0  0  0  0  0  0  0  0  0  0  0  0
  -18.5670  -27.7110   22.4240 C   0  0  0  0  0  0  0  0  0  0  0  0
  -21.1030  -28.0850   22.7710 C   0  0  0  0  0  3  0  0  0  0  0  0
  -21.2940  -26.7460   22.0240 C   0  0  0  0  0  2  0  0  0  0  0  0
  -20.2270  -26.5030   20.9520 C   0  0  0  0  0  2  0  0  0  0  0  0
  -18.8300  -26.4760   21.5800 C   0  0  0  0  0  2  0  0  0  0  0  0
  -19.6330  -28.4760   22.9680 C   0  0  0  0  0  0  0  0  0  0  0  0
  -19.3300  -29.6370   23.7090 C   0  0  0  0  0  3  0  0  0  0  0  0
  -17.9950  -30.0370   23.9120 C   0  0  0  0  0  3  0  0  0  0  0  0
  -16.9450  -29.2700   23.3800 C   0  0  0  0  0  3  0  0  0  0  0  0
  -17.2310  -28.1080   22.6420 C   0  0  0  0  0  3  0  0  0  0  0  0
  -25.8230  -32.6660   24.1630 C   0  0  0  0  0  3  0  0  0  0  0  0
  -26.1150  -32.0100   25.5700 C   0  0  1  0  0  0  0  0  0  0  0  0
  -24.8530  -31.8320   26.4450 C   0  0  0  0  0  1  0  0  0  0  0  0
  -26.7690  -30.6190   25.3980 C   0  0  0  0  0  1  0  0  0  0  0  0
  -27.1210  -32.8800   26.3590 C   0  0  0  0  0  1  0  0  0  0  0  0
  -25.4530  -34.0790   24.3140 N   0  0  0  0  0  0  0  0  0  0  0  0
  -25.8870  -35.0670   23.5190 C   0  0  0  0  0  0  0  0  0  0  0  0
  -26.7110  -34.8900   22.6160 O   0  0  0  0  0  0  0  0  0  0  0  0
  -24.7400  -34.2880   24.9970 H   0  0  0  0  0  0  0  0  0  0  0  0
  -24.2120  -36.7750   22.7450 C   0  0  0  0  0  1  0  0  0  0  0  0
  -25.3200  -36.4760   23.7680 C   0  0  0  0  0  3  0  0  0  0  0  0
  -27.2970  -37.4850   24.8190 C   0  0  0  0  0  1  0  0  0  0  0  0
  -26.3450  -37.5410   23.7120 N   0  0  0  0  0  0  0  0  0  0  0  0
  -25.9090  -38.4600   23.7190 H   0  0  0  0  0  0  0  0  0  0  0  0
  -29.7810  -20.2430   21.8520 O   0  0  0  0  0  0  0  0  0  0  0  0
  -30.7410  -14.9400   19.9240 C   0  0  0  0  0  0  0  0  0  0  0  0
  -30.3930  -12.7080   18.9100 C   0  0  0  0  0  2  0  0  0  0  0  0
  -29.4050  -12.7930   17.7310 C   0  0  0  0  0  2  0  0  0  0  0  0
  -27.9660  -12.6090   18.2390 C   0  0  0  0  0  2  0  0  0  0  0  0
  -27.6480  -13.5150   19.4580 C   0  0  0  0  0  3  0  0  0  0  0  0
  -28.7610  -13.4460   20.5340 C   0  0  0  0  0  2  0  0  0  0  0  0
  -30.0380  -13.7660   19.8850 N   0  0  0  0  0  0  0  0  0  0  0  0
  -31.8270  -15.0170   19.3370 O   0  0  0  0  0  0  0  0  0  0  0  0
  -30.9520  -18.2170   21.8450 C   0  0  0  0  0  2  0  0  0  0  0  0
  -28.7070  -18.1020   20.9290 C   0  0  0  0  0  2  0  0  0  0  0  0
  -31.3730  -16.9380   21.1050 C   0  0  0  0  0  2  0  0  0  0  0  0
  -29.0310  -16.7330   20.2430 C   0  0  0  0  0  2  0  0  0  0  0  0
  -29.9190  -19.0390   21.0750 C   0  0  0  0  0  3  0  0  0  0  0  0
  -30.2890  -16.0330   20.6330 N   0  0  0  0  0  0  0  0  0  0  0  0
  -25.3040  -14.0870   20.3440 C   0  0  0  0  0  0  0  0  0  0  0  0
  -24.2690  -13.2980   20.7610 C   0  0  0  0  0  0  0  0  0  0  0  0
  -24.7320  -11.9490   20.6610 C   0  0  0  0  0  0  0  0  0  0  0  0
  -26.3350  -13.2170   20.0190 N   0  0  0  0  0  0  0  0  0  0  0  0
  -25.9990  -11.9270   20.2690 N   0  0  0  0  0  0  0  0  0  0  0  0
  -24.0240  -10.6780   20.8550 C   0  0  0  0  0  0  0  0  0  0  0  0
  -24.4950   -9.7060   21.7650 C   0  0  0  0  0  3  0  0  0  0  0  0
  -23.7870   -8.4990   21.9510 C   0  0  0  0  0  3  0  0  0  0  0  0
  -22.5960   -8.2570   21.2260 C   0  0  0  0  0  0  0  0  0  0  0  0
  -22.1460   -9.2180   20.3020 C   0  0  0  0  0  3  0  0  0  0  0  0
  -22.8540  -10.4160   20.1160 C   0  0  0  0  0  3  0  0  0  0  0  0
  -21.8570   -7.1030   21.3230 O   0  0  0  0  0  0  0  0  0  0  0  0
  -21.8180   -6.3680   22.4810 C   0  0  0  0  0  0  0  0  0  0  0  0
  -21.3820   -6.9250   23.7030 C   0  0  0  0  0  3  0  0  0  0  0  0
  -21.2920   -6.1160   24.8530 C   0  0  0  0  0  3  0  0  0  0  0  0
  -21.6270   -4.7510   24.7820 C   0  0  0  0  0  0  0  0  0  0  0  0
  -22.0550   -4.1920   23.5640 C   0  0  0  0  0  3  0  0  0  0  0  0
  -22.1470   -4.9990   22.4170 C   0  0  0  0  0  0  0  0  0  0  0  0
  -22.5400   -4.4510   21.2410 F   0  0  0  0  0  0  0  0  0  0  0  0
  -21.5320   -3.9700   25.8840 F   0  0  0  0  0  0  0  0  0  0  0  0
  -22.8900  -13.7580   21.1350 C   0  0  0  0  0  0  0  0  0  0  0  0
  -22.2500  -13.0680   22.0710 N   0  0  0  0  0  0  0  0  0  0  0  0
  -22.3910  -14.7640   20.6300 O   0  0  0  0  0  0  0  0  0  0  0  0
  -22.6670  -12.2520   22.4940 H   0  0  0  0  0  0  0  0  0  0  0  0
  -21.3270  -13.3570   22.3650 H   0  0  0  0  0  0  0  0  0  0  0  0
  -25.4460  -15.4640   20.1910 N   0  0  0  0  0  0  0  0  0  0  0  0
  -24.6750  -16.1010   20.3520 H   0  0  0  0  0  0  0  0  0  0  0  0
  -26.2540  -15.9170   19.7850 H   0  0  0  0  0  0  0  0  0  0  0  0
  1  6  1  0
  2  6  2  0
  3  4  1  0
  4 12  1  0
  4  1  2  0
  5  3  2  0
  5  2  1  0
  6 55  1  0
  7 10  1  0
  7  8  1  0
  8  3  1  0
  8  9  1  0
 10  5  1  0
 10 11  1  0
 13 14  1  0
 13 12  1  0
 15 26  2  0
 16 14  1  0
 16 21  1  0
 17 25  1  0
 17 27  1  0
 18 24  1  0
 18 20  1  0
 19 25  1  0
 20 21  2  0
 20 19  1  0
 22 16  2  0
 23 22  1  0
 23 18  2  0
 24 17  1  0
 25 15  1  0
 27 29  2  0
 28 27  1  0
 30 28  1  0
 31 40  2  0
 31 36  1  0
 32 28  1  0
 32 36  1  0
 33 32  1  0
 34 35  1  0
 34 33  1  0
 35 31  1  0
 36 37  2  0
 37 38  1  0
 39 38  2  0
 40 39  1  0
 41 15  1  0
 41 46  1  0
 41 42  1  0
 42 45  1  1
 42 43  1  0
 44 42  1  0
 46 49  1  0
 47 51  1  0
 47 46  1  0
 48 47  2  0
 51 50  1  0
 53 54  1  0
 53 51  1  0
 53 52  1  0
 56 69  1  0
 57 62  1  0
 58 59  1  0
 58 57  1  0
 60 59  1  0
 60 73  1  0
 60 61  1  0
 62 56  1  0
 62 61  1  0
 63 56  2  0
 65 68  1  0
 66 64  1  0
 67 69  1  0
 67 65  1  0
 68 64  1  0
 68 55  1  0
 69 66  1  0
 70 71  2  0
 71 90  1  0
 72 71  1  0
 72 75  1  0
 73 74  1  0
 73 70  1  0
 74 72  2  0
 75 76  1  0
 76 77  2  0
 78 81  1  0
 78 77  1  0
 79 78  2  0
 80 79  1  0
 80 75  2  0
 81 82  1  0
 82 83  1  0
 83 84  2  0
 85 84  1  0
 85 89  1  0
 86 85  2  0
 87 82  2  0
 87 86  1  0
 88 87  1  0
 90 91  1  0
 91 94  1  0
 91 93  1  0
 92 90  2  0
 95 70  1  0
 95 96  1  0
 97 95  1  0
M  ISO  4  13 101  14 101  56 100  69 100
M  END
>  <TORSDO>  (14) 
F 19

>  <SCORE>  (14) 
-12.115

>  <name>  (14) 
13

>  <ligand_id>  (14) 
13

>  <original_smiles>  (14) 
[H]c1c([H])c([H])c2c(c1[H])C([H])([H])C([H])([H])C([H])([H])C2([H])N([H])C(=O)C1([H])N(C(=O)C([H])(N([H])C(=O)C([H])(N([H])C([H])([H])[H])C([H])([H])[H])C(C([H])([H])[H])(C([H])([H])[H])C([H])([H])[H])C([H])([H])c2c([H])c(OC([H])([H])C([H])([H])c3c([H])c(OC4([H])C([H])([H])C([H])([H])N(C(=O)N5C([H])([H])C([H])([H])C([H])([H])C([H])(n6nc(-c7c([H])c([H])c(Oc8c([H])c([H])c(F)c([H])c8F)c([H])c7[H])c(C(=O)N([H])[H])c6N([H])[H])C5([H])[H])C([H])([H])C4([H])[H])c([H])c4c3C([H])(C([H])([H])[H])C([H])([H])N4[H])c([H])c([H])c2C1([H])[H]

>  <smiles>  (14) 
[H]c1c([H])c([H])c2c(c1[H])C([H])([H])C([H])([H])C([H])([H])C2([H])N([H])C(=O)C1([H])N(C(=O)C([H])(N([H])C(=O)C([H])(N([H])C([H])([H])[H])C([H])([H])[H])C(C([H])([H])[H])(C([H])([H])[H])C([H])([H])[H])C([H])([H])c2c([H])c(OC([H])([H])C([H])([H])c3c([H])c(OC4([H])C([H])([H])C([H])([H])N(C(=O)N5C([H])([H])C([H])([H])C([H])([H])C([H])(n6nc(-c7c([H])c([H])c(Oc8c([H])c([H])c(F)c([H])c8F)c([H])c7[H])c(C(=O)N([H])[H])c6N([H])[H])C5([H])[H])C([H])([H])C4([H])[H])c([H])c4c3C([H])(C([H])([H])[H])C([H])([H])N4[H])c([H])c([H])c2C1([H])[H]

$$$$
14:0:0
     RDKit          3D

 92101  0  0  1  0  0  0  0  0999 V2000
  -29.8980  -22.3410   20.4070 C   0  0  0  0  0  3  0  0  0  0  0  0
  -27.8080  -21.6170   19.7950 C   0  0  0  0  0  3  0  0  0  0  0  0
  -28.5760  -22.8260   20.0690 C   0  0  0  0  0  0  0  0  0  0  0  0
  -30.3570  -20.9230   20.4380 C   0  0  0  0  0  0  0  0  0  0  0  0
  -28.2390  -20.1950   19.8040 C   0  0  0  0  0  0  0  0  0  0  0  0
  -29.5790  -19.7110   20.1050 C   0  0  0  0  0  0  0  0  0  0  0  0
  -31.8210  -20.7520   20.8270 C   0  0  0  0  0  1  0  0  0  0  0  0
  -27.1980  -19.1620   19.4100 C   0  0  0  0  0  1  0  0  0  0  0  0
  -27.8960  -24.4090   19.8500 C   0  0  0  0  0  2  0  0  0  0  0  0
  -28.2470  -25.9480   20.2270 O   0  0  0  0  0  0  0  0  0  0  0  0
  -24.6190  -31.8350   23.1890 C   0  0  0  0  0  0  0  0  0  0  0  0
  -27.2470  -27.0430   20.1440 C   0  0  0  0  0  0  0  0  0  0  0  0
  -23.4600  -30.4560   21.5150 C   0  0  0  0  0  3  0  0  0  0  0  0
  -24.9380  -28.8890   20.0910 C   0  0  0  0  0  0  0  0  0  0  0  0
  -26.0250  -30.6920   21.4090 C   0  0  0  0  0  2  0  0  0  0  0  0
  -26.1120  -29.2970   20.7340 C   0  0  0  0  0  0  0  0  0  0  0  0
  -27.2660  -28.3930   20.7400 C   0  0  0  0  0  3  0  0  0  0  0  0
  -26.0440  -26.7880   19.4460 C   0  0  0  0  0  3  0  0  0  0  0  0
  -24.9260  -27.6540   19.4270 C   0  0  0  0  0  3  0  0  0  0  0  0
  -23.7140  -29.7990   20.1330 C   0  0  0  0  0  2  0  0  0  0  0  0
  -24.7230  -31.0180   22.0930 N   0  0  0  0  0  0  0  0  0  0  0  0
  -23.5200  -32.1140   23.6960 O   0  0  0  0  0  0  0  0  0  0  0  0
  -22.7570  -29.4390   22.4530 C   0  0  0  0  0  0  0  0  0  0  0  0
  -21.4260  -29.2850   22.3170 N   0  0  0  0  0  0  0  0  0  0  0  0
  -23.4140  -28.7930   23.2740 O   0  0  0  0  0  0  0  0  0  0  0  0
  -20.9500  -29.8580   21.6350 H   0  0  0  0  0  0  0  0  0  0  0  0
  -18.0280  -28.1160   22.8140 C   0  0  0  0  0  0  0  0  0  0  0  0
  -20.5930  -28.3370   23.0650 C   0  0  0  0  0  3  0  0  0  0  0  0
  -20.6680  -26.9230   22.4460 C   0  0  0  0  0  2  0  0  0  0  0  0
  -19.5550  -26.6470   21.4300 C   0  0  0  0  0  2  0  0  0  0  0  0
  -18.1800  -26.7880   22.0890 C   0  0  0  0  0  2  0  0  0  0  0  0
  -19.1610  -28.8510   23.2580 C   0  0  0  0  0  0  0  0  0  0  0  0
  -18.9620  -30.0930   23.8990 C   0  0  0  0  0  3  0  0  0  0  0  0
  -17.6650  -30.6030   24.0940 C   0  0  0  0  0  3  0  0  0  0  0  0
  -16.5480  -29.8670   23.6640 C   0  0  0  0  0  3  0  0  0  0  0  0
  -16.7300  -28.6240   23.0330 C   0  0  0  0  0  3  0  0  0  0  0  0
  -25.8790  -32.4760   23.8520 C   0  0  0  0  0  3  0  0  0  0  0  0
  -26.3550  -31.7060   25.1470 C   0  0  1  0  0  0  0  0  0  0  0  0
  -25.2290  -31.4670   26.1820 C   0  0  0  0  0  1  0  0  0  0  0  0
  -26.9500  -30.3290   24.7800 C   0  0  0  0  0  1  0  0  0  0  0  0
  -27.4850  -32.5000   25.8420 C   0  0  0  0  0  1  0  0  0  0  0  0
  -25.5550  -33.8740   24.1830 N   0  0  0  0  0  0  0  0  0  0  0  0
  -25.8710  -34.9330   23.4260 C   0  0  0  0  0  0  0  0  0  0  0  0
  -26.5280  -34.8360   22.3870 O   0  0  0  0  0  0  0  0  0  0  0  0
  -24.9780  -34.0220   24.9980 H   0  0  0  0  0  0  0  0  0  0  0  0
  -24.1190  -36.7140   23.1070 C   0  0  0  0  0  1  0  0  0  0  0  0
  -25.3810  -36.3200   23.8930 C   0  0  0  0  0  3  0  0  0  0  0  0
  -27.5180  -37.2330   24.6890 C   0  0  0  0  0  1  0  0  0  0  0  0
  -26.4020  -37.3820   23.7600 N   0  0  0  0  0  0  0  0  0  0  0  0
  -25.9870  -38.2990   23.9080 H   0  0  0  0  0  0  0  0  0  0  0  0
  -30.2630  -18.1160   19.8470 C   0  0  0  0  0  0  0  0  0  0  0  0
  -30.5790  -15.2820   20.0740 C   0  0  0  0  0  0  0  0  0  0  0  0
  -30.4480  -12.8850   19.1290 C   0  0  0  0  0  2  0  0  0  0  0  0
  -29.4770  -12.7620   17.9290 C   0  0  0  0  0  2  0  0  0  0  0  0
  -28.0400  -12.5040   18.4180 C   0  0  0  0  0  2  0  0  0  0  0  0
  -27.6540  -13.4240   19.6040 C   0  0  0  0  0  3  0  0  0  0  0  0
  -28.7550  -13.5140   20.6860 C   0  0  0  0  0  2  0  0  0  0  0  0
  -29.9710  -14.0010   20.0210 N   0  0  0  0  0  0  0  0  0  0  0  0
  -31.7760  -15.2680   19.7630 O   0  0  0  0  0  0  0  0  0  0  0  0
  -29.8760  -16.5640   20.2400 N   0  0  0  0  0  4  0  0  0  0  0  0
  -28.9110  -16.4550   20.5070 H   0  0  0  0  0  0  0  0  0  0  0  0
  -25.3220  -13.9640   20.4810 C   0  0  0  0  0  0  0  0  0  0  0  0
  -24.2740  -13.1800   20.8740 C   0  0  0  0  0  0  0  0  0  0  0  0
  -24.7300  -11.8290   20.7770 C   0  0  0  0  0  0  0  0  0  0  0  0
  -26.3480  -13.0930   20.1610 N   0  0  0  0  0  0  0  0  0  0  0  0
  -26.0070  -11.8010   20.4080 N   0  0  0  0  0  0  0  0  0  0  0  0
  -24.0050  -10.5640   20.9570 C   0  0  0  0  0  0  0  0  0  0  0  0
  -24.4490   -9.5800   21.8670 C   0  0  0  0  0  3  0  0  0  0  0  0
  -23.7220   -8.3820   22.0390 C   0  0  0  0  0  3  0  0  0  0  0  0
  -22.5370   -8.1590   21.2990 C   0  0  0  0  0  0  0  0  0  0  0  0
  -22.1120   -9.1310   20.3770 C   0  0  0  0  0  3  0  0  0  0  0  0
  -22.8400  -10.3210   20.2030 C   0  0  0  0  0  3  0  0  0  0  0  0
  -21.7800   -7.0160   21.3790 O   0  0  0  0  0  0  0  0  0  0  0  0
  -21.7190   -6.2730   22.5320 C   0  0  0  0  0  0  0  0  0  0  0  0
  -21.2300   -6.8150   23.7400 C   0  0  0  0  0  3  0  0  0  0  0  0
  -21.1160   -5.9970   24.8820 C   0  0  0  0  0  3  0  0  0  0  0  0
  -21.4840   -4.6400   24.8170 C   0  0  0  0  0  0  0  0  0  0  0  0
  -21.9670   -4.0980   23.6130 C   0  0  0  0  0  3  0  0  0  0  0  0
  -22.0800   -4.9130   22.4730 C   0  0  0  0  0  0  0  0  0  0  0  0
  -22.5250   -4.3790   21.3100 F   0  0  0  0  0  0  0  0  0  0  0  0
  -21.3710   -3.8530   25.9130 F   0  0  0  0  0  0  0  0  0  0  0  0
  -22.8910  -13.6530   21.2170 C   0  0  0  0  0  0  0  0  0  0  0  0
  -22.1970  -12.9370   22.0960 N   0  0  0  0  0  0  0  0  0  0  0  0
  -22.4360  -14.6930   20.7390 O   0  0  0  0  0  0  0  0  0  0  0  0
  -22.5780  -12.0970   22.5050 H   0  0  0  0  0  0  0  0  0  0  0  0
  -21.2690  -13.2340   22.3640 H   0  0  0  0  0  0  0  0  0  0  0  0
  -25.4840  -15.3390   20.3370 N   0  0  0  0  0  0  0  0  0  0  0  0
  -24.7260  -15.9930   20.5000 H   0  0  0  0  0  0  0  0  0  0  0  0
  -26.3040  -15.7740   19.9380 H   0  0  0  0  0  0  0  0  0  0  0  0
  -30.3950  -19.0730   17.3000 C   0  0  0  0  0  2  0  0  0  0  0  0
  -30.7420  -18.0710   18.3830 C   0  0  0  0  0  3  0  0  0  0  0  0
  -31.6520  -19.1130   17.9830 O   0  0  0  0  0  0  0  0  0  0  0  0
  1  4  1  0
  2  5  2  0
  2  3  1  0
  3  1  2  0
  4  7  1  0
  5  6  1  0
  6  4  2  0
  8  5  1  0
  9  3  1  0
  9 10  1  0
 11 22  2  0
 12 10  1  0
 12 17  1  0
 13 21  1  0
 13 23  1  0
 14 20  1  0
 14 16  1  0
 15 21  1  0
 16 17  2  0
 16 15  1  0
 18 12  2  0
 19 18  1  0
 19 14  2  0
 20 13  1  0
 21 11  1  0
 23 25  2  0
 24 23  1  0
 26 24  1  0
 27 36  2  0
 27 32  1  0
 28 24  1  0
 28 32  1  0
 29 28  1  0
 30 31  1  0
 30 29  1  0
 31 27  1  0
 32 33  2  0
 33 34  1  0
 35 34  2  0
 36 35  1  0
 37 11  1  0
 37 42  1  0
 37 38  1  0
 38 41  1  1
 38 39  1  0
 40 38  1  0
 42 45  1  0
 43 47  1  0
 43 42  1  0
 44 43  2  0
 47 46  1  0
 49 47  1  0
 49 50  1  0
 49 48  1  0
 51  6  1  0
 51 60  2  0
 52 60  1  0
 53 58  1  0
 54 55  1  0
 54 53  1  0
 56 55  1  0
 56 65  1  0
 56 57  1  0
 58 52  1  0
 58 57  1  0
 59 52  2  0
 60 61  1  0
 62 63  2  0
 63 82  1  0
 64 63  1  0
 64 67  1  0
 65 66  1  0
 65 62  1  0
 66 64  2  0
 67 68  1  0
 68 69  2  0
 70 73  1  0
 70 69  1  0
 71 70  2  0
 72 71  1  0
 72 67  2  0
 73 74  1  0
 74 75  1  0
 75 76  2  0
 77 76  1  0
 77 81  1  0
 78 77  2  0
 79 74  2  0
 79 78  1  0
 80 79  1  0
 82 83  1  0
 83 86  1  0
 83 85  1  0
 84 82  2  0
 87 62  1  0
 87 88  1  0
 89 87  1  0
 90 92  1  0
 90 91  1  0
 91 51  1  0
 92 91  1  0
M  ISO  4   9 101  10 101  52 100  60 100
M  END
>  <TORSDO>  (15) 
F 19

>  <SCORE>  (15) 
-15.427

>  <name>  (15) 
14

>  <ligand_id>  (15) 
14

>  <original_smiles>  (15) 
[H]c1c([H])c([H])c2c(c1[H])C([H])([H])C([H])([H])C([H])([H])C2([H])N([H])C(=O)C1([H])N(C(=O)C([H])(N([H])C(=O)C([H])(N([H])C([H])([H])[H])C([H])([H])[H])C(C([H])([H])[H])(C([H])([H])[H])C([H])([H])[H])C([H])([H])c2c([H])c(OC([H])([H])c3c([H])c(C([H])([H])[H])c(C([H])(N([H])C(=O)N4C([H])([H])C([H])([H])C([H])([H])C([H])(n5nc(-c6c([H])c([H])c(Oc7c([H])c([H])c(F)c([H])c7F)c([H])c6[H])c(C(=O)N([H])[H])c5N([H])[H])C4([H])[H])C4([H])OC4([H])[H])c(C([H])([H])[H])c3[H])c([H])c([H])c2C1([H])[H]

>  <smiles>  (15) 
[H]c1c([H])c([H])c2c(c1[H])C([H])([H])C([H])([H])C([H])([H])C2([H])N([H])C(=O)C1([H])N(C(=O)C([H])(N([H])C(=O)C([H])(N([H])C([H])([H])[H])C([H])([H])[H])C(C([H])([H])[H])(C([H])([H])[H])C([H])([H])[H])C([H])([H])c2c([H])c(OC([H])([H])c3c([H])c(C([H])([H])[H])c(C([H])(N([H])C(=O)N4C([H])([H])C([H])([H])C([H])([H])C([H])(n5nc(-c6c([H])c([H])c(Oc7c([H])c([H])c(F)c([H])c7F)c([H])c6[H])c(C(=O)N([H])[H])c5N([H])[H])C4([H])[H])C4([H])OC4([H])[H])c(C([H])([H])[H])c3[H])c([H])c([H])c2C1([H])[H]

$$$$
15:0:0
     RDKit          3D

 96105  0  0  1  0  0  0  0  0999 V2000
  -26.5090  -24.1260   20.5120 C   0  0  0  0  0  3  0  0  0  0  0  0
  -26.0700  -22.9750   19.8340 C   0  0  0  0  0  3  0  0  0  0  0  0
  -28.7780  -23.2710   20.4870 C   0  0  0  0  0  3  0  0  0  0  0  0
  -27.8790  -24.3340   20.7660 C   0  0  0  0  0  0  0  0  0  0  0  0
  -26.9750  -21.9500   19.4700 C   0  0  0  0  0  0  0  0  0  0  0  0
  -28.3370  -22.0730   19.8640 C   0  0  0  0  0  0  0  0  0  0  0  0
  -26.7030  -21.0230   17.1310 C   0  0  0  0  0  1  0  0  0  0  0  0
  -24.9990  -20.3910   18.8850 C   0  0  0  0  0  1  0  0  0  0  0  0
  -26.4710  -20.7650   18.6300 C   0  0  0  0  0  3  0  0  0  0  0  0
  -29.2560  -21.0410   19.6020 N   0  0  0  0  0  0  0  0  0  0  0  0
  -28.9680  -20.4860   18.8020 H   0  0  0  0  0  0  0  0  0  0  0  0
  -29.5330  -20.1560   20.7370 C   0  0  0  0  0  2  0  0  0  0  0  0
  -31.0060  -14.6980   20.2290 C   0  0  0  0  0  0  0  0  0  0  0  0
  -30.6760  -12.5200   19.1370 C   0  0  0  0  0  2  0  0  0  0  0  0
  -29.7260  -12.7240   17.9390 C   0  0  0  0  0  2  0  0  0  0  0  0
  -28.2540  -12.6030   18.3850 C   0  0  0  0  0  2  0  0  0  0  0  0
  -27.9300  -13.4550   19.6420 C   0  0  0  0  0  3  0  0  0  0  0  0
  -29.0000  -13.2550   20.7430 C   0  0  0  0  0  2  0  0  0  0  0  0
  -30.3170  -13.5250   20.1460 N   0  0  0  0  0  0  0  0  0  0  0  0
  -32.1760  -14.8140   19.8540 O   0  0  0  0  0  0  0  0  0  0  0  0
  -29.3510  -17.9680   19.3900 C   0  0  0  0  0  2  0  0  0  0  0  0
  -30.7580  -17.9860   21.5020 C   0  0  0  0  0  2  0  0  0  0  0  0
  -29.9960  -16.5980   19.1210 C   0  0  0  0  0  2  0  0  0  0  0  0
  -30.1630  -16.5550   21.6130 C   0  0  0  0  0  2  0  0  0  0  0  0
  -30.2330  -18.8360   20.3070 C   0  0  0  0  0  3  0  0  0  0  0  0
  -30.2310  -15.8050   20.3440 N   0  0  0  0  0  0  0  0  0  0  0  0
  -25.5480  -14.0850   20.3840 C   0  0  0  0  0  0  0  0  0  0  0  0
  -24.4770  -13.3220   20.7650 C   0  0  0  0  0  0  0  0  0  0  0  0
  -24.9250  -11.9670   20.7260 C   0  0  0  0  0  0  0  0  0  0  0  0
  -26.5830  -13.1940   20.1410 N   0  0  0  0  0  0  0  0  0  0  0  0
  -26.2100  -11.9160   20.4020 N   0  0  0  0  0  0  0  0  0  0  0  0
  -24.1900  -10.7110   20.9220 C   0  0  0  0  0  0  0  0  0  0  0  0
  -24.6020   -9.7540   21.8790 C   0  0  0  0  0  3  0  0  0  0  0  0
  -23.8660   -8.5640   22.0660 C   0  0  0  0  0  3  0  0  0  0  0  0
  -22.7090   -8.3190   21.2900 C   0  0  0  0  0  0  0  0  0  0  0  0
  -22.3160   -9.2630   20.3240 C   0  0  0  0  0  3  0  0  0  0  0  0
  -23.0500  -10.4450   20.1360 C   0  0  0  0  0  3  0  0  0  0  0  0
  -21.9530   -7.1750   21.3770 O   0  0  0  0  0  0  0  0  0  0  0  0
  -21.8330   -6.4790   22.5540 C   0  0  0  0  0  0  0  0  0  0  0  0
  -21.3470   -7.0880   23.7310 C   0  0  0  0  0  3  0  0  0  0  0  0
  -21.1790   -6.3220   24.9030 C   0  0  0  0  0  3  0  0  0  0  0  0
  -21.4780   -4.9470   24.8950 C   0  0  0  0  0  0  0  0  0  0  0  0
  -21.9510   -4.3360   23.7210 C   0  0  0  0  0  3  0  0  0  0  0  0
  -22.1260   -5.1020   22.5520 C   0  0  0  0  0  0  0  0  0  0  0  0
  -22.5660   -4.5040   21.4190 F   0  0  0  0  0  0  0  0  0  0  0  0
  -21.3040   -4.2060   26.0150 F   0  0  0  0  0  0  0  0  0  0  0  0
  -23.0870  -13.8140   21.0530 C   0  0  0  0  0  0  0  0  0  0  0  0
  -22.3600  -13.1330   21.9330 N   0  0  0  0  0  0  0  0  0  0  0  0
  -22.6490  -14.8340   20.5290 O   0  0  0  0  0  0  0  0  0  0  0  0
  -22.7270  -12.3070   22.3800 H   0  0  0  0  0  0  0  0  0  0  0  0
  -21.4260  -13.4420   22.1620 H   0  0  0  0  0  0  0  0  0  0  0  0
  -25.7240  -15.4540   20.2020 N   0  0  0  0  0  0  0  0  0  0  0  0
  -24.9470  -16.1070   20.2390 H   0  0  0  0  0  0  0  0  0  0  0  0
  -26.5720  -15.8720   19.8470 H   0  0  0  0  0  0  0  0  0  0  0  0
  -28.3540  -25.6630   21.3750 C   0  0  0  0  0  2  0  0  0  0  0  0
  -28.3810  -26.7980   20.4820 O   0  0  0  0  0  0  0  0  0  0  0  0
  -24.5370  -32.0650   23.3960 C   0  0  0  0  0  0  0  0  0  0  0  0
  -27.2400  -27.5700   20.4450 C   0  0  0  0  0  0  0  0  0  0  0  0
  -23.3720  -30.6480   21.7350 C   0  0  0  0  0  3  0  0  0  0  0  0
  -24.8610  -29.0930   20.3670 C   0  0  0  0  0  0  0  0  0  0  0  0
  -25.9050  -30.9890   21.6150 C   0  0  0  0  0  2  0  0  0  0  0  0
  -26.0010  -29.6100   20.9940 C   0  0  0  0  0  0  0  0  0  0  0  0
  -27.1930  -28.8490   21.0450 C   0  0  0  0  0  3  0  0  0  0  0  0
  -26.1040  -27.0950   19.7620 C   0  0  0  0  0  3  0  0  0  0  0  0
  -24.9070  -27.8320   19.7470 C   0  0  0  0  0  3  0  0  0  0  0  0
  -23.6180  -29.9540   20.3690 C   0  0  0  0  0  2  0  0  0  0  0  0
  -24.6190  -31.2520   22.3050 N   0  0  0  0  0  0  0  0  0  0  0  0
  -23.4420  -32.3470   23.9020 O   0  0  0  0  0  0  0  0  0  0  0  0
  -22.6890  -29.6400   22.6890 C   0  0  0  0  0  0  0  0  0  0  0  0
  -21.3670  -29.4670   22.5310 N   0  0  0  0  0  0  0  0  0  0  0  0
  -23.3480  -29.0120   23.5240 O   0  0  0  0  0  0  0  0  0  0  0  0
  -20.8980  -30.0230   21.8290 H   0  0  0  0  0  0  0  0  0  0  0  0
  -17.9690  -28.3220   22.9730 C   0  0  0  0  0  0  0  0  0  0  0  0
  -20.5240  -28.5440   23.2920 C   0  0  0  0  0  3  0  0  0  0  0  0
  -20.6160  -27.1100   22.7200 C   0  0  0  0  0  2  0  0  0  0  0  0
  -19.5300  -26.8010   21.6870 C   0  0  0  0  0  2  0  0  0  0  0  0
  -18.1390  -26.9690   22.3060 C   0  0  0  0  0  2  0  0  0  0  0  0
  -19.0900  -29.0700   23.4220 C   0  0  0  0  0  0  0  0  0  0  0  0
  -18.8800  -30.3370   24.0060 C   0  0  0  0  0  3  0  0  0  0  0  0
  -17.5800  -30.8590   24.1450 C   0  0  0  0  0  3  0  0  0  0  0  0
  -16.4720  -30.1090   23.7150 C   0  0  0  0  0  3  0  0  0  0  0  0
  -16.6670  -28.8430   23.1350 C   0  0  0  0  0  3  0  0  0  0  0  0
  -25.8080  -32.6970   24.0430 C   0  0  0  0  0  3  0  0  0  0  0  0
  -26.2670  -31.9640   25.3620 C   0  0  1  0  0  0  0  0  0  0  0  0
  -25.1310  -31.7740   26.3930 C   0  0  0  0  0  1  0  0  0  0  0  0
  -26.8500  -30.5680   25.0360 C   0  0  0  0  0  1  0  0  0  0  0  0
  -27.4010  -32.7700   26.0390 C   0  0  0  0  0  1  0  0  0  0  0  0
  -25.5110  -34.1100   24.3060 N   0  0  0  0  0  0  0  0  0  0  0  0
  -25.8880  -35.1250   23.5170 C   0  0  0  0  0  0  0  0  0  0  0  0
  -26.5890  -34.9690   22.5130 O   0  0  0  0  0  0  0  0  0  0  0  0
  -24.8880  -34.3070   25.0760 H   0  0  0  0  0  0  0  0  0  0  0  0
  -24.1980  -36.9260   23.0410 C   0  0  0  0  0  1  0  0  0  0  0  0
  -25.4090  -36.5380   23.9030 C   0  0  0  0  0  3  0  0  0  0  0  0
  -27.5350  -37.4260   24.7540 C   0  0  0  0  0  1  0  0  0  0  0  0
  -26.4600  -37.5710   23.7750 N   0  0  0  0  0  0  0  0  0  0  0  0
  -26.0630  -38.5020   23.8730 H   0  0  0  0  0  0  0  0  0  0  0  0
  1  4  1  0
  2  1  2  0
  3  4  2  0
  4 55  1  0
  5  2  1  0
  5  6  2  0
  6  3  1  0
  7  9  1  0
  9  8  1  0
  9  5  1  0
 10  6  1  0
 10 12  1  0
 11 10  1  0
 13 26  1  0
 14 19  1  0
 15 16  1  0
 15 14  1  0
 17 16  1  0
 17 30  1  0
 17 18  1  0
 19 13  1  0
 19 18  1  0
 20 13  2  0
 21 25  1  0
 22 24  1  0
 23 21  1  0
 23 26  1  0
 25 12  1  0
 25 22  1  0
 26 24  1  0
 27 28  2  0
 28 47  1  0
 29 28  1  0
 29 32  1  0
 30 27  1  0
 30 31  1  0
 31 29  2  0
 32 33  1  0
 33 34  2  0
 35 38  1  0
 35 34  1  0
 36 35  2  0
 37 36  1  0
 37 32  2  0
 38 39  1  0
 39 40  1  0
 40 41  2  0
 42 41  1  0
 42 46  1  0
 43 42  2  0
 44 39  2  0
 44 43  1  0
 45 44  1  0
 47 48  1  0
 48 51  1  0
 48 50  1  0
 49 47  2  0
 52 53  1  0
 52 27  1  0
 54 52  1  0
 56 55  1  0
 57 68  2  0
 58 56  1  0
 58 63  1  0
 59 67  1  0
 59 69  1  0
 60 66  1  0
 60 62  1  0
 61 67  1  0
 62 63  2  0
 62 61  1  0
 64 58  2  0
 65 64  1  0
 65 60  2  0
 66 59  1  0
 67 57  1  0
 69 71  2  0
 70 69  1  0
 72 70  1  0
 73 82  2  0
 73 78  1  0
 74 70  1  0
 74 78  1  0
 75 74  1  0
 76 77  1  0
 76 75  1  0
 77 73  1  0
 78 79  2  0
 79 80  1  0
 81 80  2  0
 82 81  1  0
 83 57  1  0
 83 88  1  0
 83 84  1  0
 84 87  1  1
 84 85  1  0
 86 84  1  0
 88 91  1  0
 89 93  1  0
 89 88  1  0
 90 89  2  0
 93 92  1  0
 95 96  1  0
 95 93  1  0
 95 94  1  0
M  ISO  4  13 100  26 100  55 101  56 101
M  END
>  <TORSDO>  (16) 
F 20

>  <SCORE>  (16) 
-12.917

>  <name>  (16) 
15

>  <ligand_id>  (16) 
15

>  <original_smiles>  (16) 
[H]c1c([H])c([H])c2c(c1[H])C([H])([H])C([H])([H])C([H])([H])C2([H])N([H])C(=O)C1([H])N(C(=O)C([H])(N([H])C(=O)C([H])(N([H])C([H])([H])[H])C([H])([H])[H])C(C([H])([H])[H])(C([H])([H])[H])C([H])([H])[H])C([H])([H])c2c([H])c(OC([H])([H])c3c([H])c([H])c(C([H])(C([H])([H])[H])C([H])([H])[H])c(N([H])C([H])([H])C4([H])C([H])([H])C([H])([H])N(C(=O)N5C([H])([H])C([H])([H])C([H])([H])C([H])(n6nc(-c7c([H])c([H])c(Oc8c([H])c([H])c(F)c([H])c8F)c([H])c7[H])c(C(=O)N([H])[H])c6N([H])[H])C5([H])[H])C([H])([H])C4([H])[H])c3[H])c([H])c([H])c2C1([H])[H]

>  <smiles>  (16) 
[H]c1c([H])c([H])c2c(c1[H])C([H])([H])C([H])([H])C([H])([H])C2([H])N([H])C(=O)C1([H])N(C(=O)C([H])(N([H])C(=O)C([H])(N([H])C([H])([H])[H])C([H])([H])[H])C(C([H])([H])[H])(C([H])([H])[H])C([H])([H])[H])C([H])([H])c2c([H])c(OC([H])([H])c3c([H])c([H])c(C([H])(C([H])([H])[H])C([H])([H])[H])c(N([H])C([H])([H])C4([H])C([H])([H])C([H])([H])N(C(=O)N5C([H])([H])C([H])([H])C([H])([H])C([H])(n6nc(-c7c([H])c([H])c(Oc8c([H])c([H])c(F)c([H])c8F)c([H])c7[H])c(C(=O)N([H])[H])c6N([H])[H])C5([H])[H])C([H])([H])C4([H])[H])c3[H])c([H])c([H])c2C1([H])[H]

$$$$
16:0:0
     RDKit          3D

 89 97  0  0  1  0  0  0  0  0999 V2000
  -29.4260  -18.9380   21.0850 C   0  0  0  0  0  3  0  0  0  0  0  0
  -30.1290  -20.0750   18.6890 C   0  0  0  0  0  3  0  0  0  0  0  0
  -29.9930  -18.0100   20.1420 C   0  0  0  0  0  0  0  0  0  0  0  0
  -29.1750  -20.3470   20.8550 C   0  0  0  0  0  0  0  0  0  0  0  0
  -30.3620  -18.6550   18.9100 C   0  0  0  0  0  0  0  0  0  0  0  0
  -29.5140  -20.9900   19.6180 C   0  0  0  0  0  0  0  0  0  0  0  0
  -28.4130  -21.1100   21.9350 C   0  0  0  0  0  1  0  0  0  0  0  0
  -30.9620  -17.8450   17.7630 C   0  0  0  0  0  1  0  0  0  0  0  0
  -29.8950  -16.4110   20.4880 C   0  0  0  0  0  2  0  0  0  0  0  0
  -30.8090  -15.1060   20.1050 C   0  0  0  0  0  0  0  0  0  0  0  0
  -30.7170  -12.7390   19.2210 C   0  0  0  0  0  2  0  0  0  0  0  0
  -29.7640  -12.7050   18.0030 C   0  0  0  0  0  2  0  0  0  0  0  0
  -28.2990  -12.5180   18.4480 C   0  0  0  0  0  2  0  0  0  0  0  0
  -27.9090  -13.4820   19.5960 C   0  0  0  0  0  3  0  0  0  0  0  0
  -28.9680  -13.4720   20.7210 C   0  0  0  0  0  2  0  0  0  0  0  0
  -30.2620  -13.8300   20.1230 N   0  0  0  0  0  0  0  0  0  0  0  0
  -31.9760  -15.2350   19.7240 O   0  0  0  0  0  0  0  0  0  0  0  0
  -25.5540  -14.1390   20.3740 C   0  0  0  0  0  0  0  0  0  0  0  0
  -24.4690  -13.3970   20.7500 C   0  0  0  0  0  0  0  0  0  0  0  0
  -24.8890  -12.0320   20.6930 C   0  0  0  0  0  0  0  0  0  0  0  0
  -26.5650  -13.2300   20.1060 N   0  0  0  0  0  0  0  0  0  0  0  0
  -26.1740  -11.9580   20.3640 N   0  0  0  0  0  0  0  0  0  0  0  0
  -24.1270  -10.7920   20.8730 C   0  0  0  0  0  0  0  0  0  0  0  0
  -24.5460   -9.7940   21.7800 C   0  0  0  0  0  3  0  0  0  0  0  0
  -23.7870   -8.6160   21.9500 C   0  0  0  0  0  3  0  0  0  0  0  0
  -22.5940   -8.4270   21.2120 C   0  0  0  0  0  0  0  0  0  0  0  0
  -22.1940   -9.4140   20.2940 C   0  0  0  0  0  3  0  0  0  0  0  0
  -22.9520  -10.5840   20.1230 C   0  0  0  0  0  3  0  0  0  0  0  0
  -21.8050   -7.3050   21.2930 O   0  0  0  0  0  0  0  0  0  0  0  0
  -21.7810   -6.5240   22.4200 C   0  0  0  0  0  0  0  0  0  0  0  0
  -21.3940   -7.0400   23.6770 C   0  0  0  0  0  3  0  0  0  0  0  0
  -21.3150   -6.1850   24.7940 C   0  0  0  0  0  3  0  0  0  0  0  0
  -21.6120   -4.8160   24.6570 C   0  0  0  0  0  0  0  0  0  0  0  0
  -21.9920   -4.3000   23.4060 C   0  0  0  0  0  3  0  0  0  0  0  0
  -22.0720   -5.1520   22.2900 C   0  0  0  0  0  0  0  0  0  0  0  0
  -22.4170   -4.6470   21.0810 F   0  0  0  0  0  0  0  0  0  0  0  0
  -21.5310   -3.9920   25.7270 F   0  0  0  0  0  0  0  0  0  0  0  0
  -23.0900  -13.9130   21.0400 C   0  0  0  0  0  0  0  0  0  0  0  0
  -22.3510  -13.2340   21.9080 N   0  0  0  0  0  0  0  0  0  0  0  0
  -22.6790  -14.9570   20.5320 O   0  0  0  0  0  0  0  0  0  0  0  0
  -22.6910  -12.3900   22.3450 H   0  0  0  0  0  0  0  0  0  0  0  0
  -21.4240  -13.5620   22.1390 H   0  0  0  0  0  0  0  0  0  0  0  0
  -25.7580  -15.5080   20.2090 N   0  0  0  0  0  0  0  0  0  0  0  0
  -25.0140  -16.1820   20.3400 H   0  0  0  0  0  0  0  0  0  0  0  0
  -26.6020  -15.9200   19.8310 H   0  0  0  0  0  0  0  0  0  0  0  0
  -29.0950  -22.3130   19.1810 O   0  0  0  0  0  0  0  0  0  0  0  0
  -29.3140  -23.6850   19.7970 C   0  0  0  0  0  3  0  0  0  0  0  0
  -28.3260  -24.9530   19.3730 C   0  0  0  0  0  3  0  0  0  0  0  0
  -28.5040  -26.4510   19.6790 O   0  0  0  0  0  0  0  0  0  0  0  0
  -24.6010  -31.6760   23.0320 C   0  0  0  0  0  0  0  0  0  0  0  0
  -27.3830  -27.3440   19.6730 C   0  0  0  0  0  0  0  0  0  0  0  0
  -23.4480  -30.3150   21.3310 C   0  0  0  0  0  3  0  0  0  0  0  0
  -24.9530  -28.9190   19.7900 C   0  0  0  0  0  0  0  0  0  0  0  0
  -25.9810  -30.7390   21.1470 C   0  0  0  0  0  2  0  0  0  0  0  0
  -26.1140  -29.4020   20.4030 C   0  0  0  0  0  0  0  0  0  0  0  0
  -27.3290  -28.6310   20.3320 C   0  0  0  0  0  3  0  0  0  0  0  0
  -26.1910  -26.9540   19.0230 C   0  0  0  0  0  3  0  0  0  0  0  0
  -24.9990  -27.7050   19.0910 C   0  0  0  0  0  3  0  0  0  0  0  0
  -23.6780  -29.7370   19.9100 C   0  0  0  0  0  2  0  0  0  0  0  0
  -24.6970  -30.9290   21.8900 N   0  0  0  0  0  0  0  0  0  0  0  0
  -23.5130  -31.8670   23.5920 O   0  0  0  0  0  0  0  0  0  0  0  0
  -22.8450  -29.2160   22.2400 C   0  0  0  0  0  0  0  0  0  0  0  0
  -21.5240  -28.9830   22.1260 N   0  0  0  0  0  0  0  0  0  0  0  0
  -23.5650  -28.5750   23.0110 O   0  0  0  0  0  0  0  0  0  0  0  0
  -20.9960  -29.5610   21.4850 H   0  0  0  0  0  0  0  0  0  0  0  0
  -18.2160  -27.5910   22.6220 C   0  0  0  0  0  0  0  0  0  0  0  0
  -20.7650  -27.9610   22.8530 C   0  0  0  0  0  3  0  0  0  0  0  0
  -20.9200  -26.5710   22.1910 C   0  0  0  0  0  2  0  0  0  0  0  0
  -19.8120  -26.2580   21.1800 C   0  0  0  0  0  2  0  0  0  0  0  0
  -18.4400  -26.2960   21.8580 C   0  0  0  0  0  2  0  0  0  0  0  0
  -19.3070  -28.3810   23.0720 C   0  0  0  0  0  0  0  0  0  0  0  0
  -19.0430  -29.5950   23.7450 C   0  0  0  0  0  3  0  0  0  0  0  0
  -17.7200  -30.0160   23.9760 C   0  0  0  0  0  3  0  0  0  0  0  0
  -16.6450  -29.2240   23.5390 C   0  0  0  0  0  3  0  0  0  0  0  0
  -16.8930  -28.0150   22.8660 C   0  0  0  0  0  3  0  0  0  0  0  0
  -25.8550  -32.3440   23.6750 C   0  0  0  0  0  3  0  0  0  0  0  0
  -26.4010  -31.5570   24.9310 C   0  0  1  0  0  0  0  0  0  0  0  0
  -25.3260  -31.2530   26.0020 C   0  0  0  0  0  1  0  0  0  0  0  0
  -27.0310  -30.2090   24.5100 C   0  0  0  0  0  1  0  0  0  0  0  0
  -27.5240  -32.3780   25.6090 C   0  0  0  0  0  1  0  0  0  0  0  0
  -25.4820  -33.7160   24.0530 N   0  0  0  0  0  0  0  0  0  0  0  0
  -25.7820  -34.8130   23.3440 C   0  0  0  0  0  0  0  0  0  0  0  0
  -26.4650  -34.7780   22.3180 O   0  0  0  0  0  0  0  0  0  0  0  0
  -24.8680  -33.8130   24.8490 H   0  0  0  0  0  0  0  0  0  0  0  0
  -23.9870  -36.5560   23.0450 C   0  0  0  0  0  1  0  0  0  0  0  0
  -25.2360  -36.1640   23.8520 C   0  0  0  0  0  3  0  0  0  0  0  0
  -27.3260  -37.1000   24.7420 C   0  0  0  0  0  1  0  0  0  0  0  0
  -26.2270  -37.2600   23.7940 N   0  0  0  0  0  0  0  0  0  0  0  0
  -25.7810  -38.1560   23.9750 H   0  0  0  0  0  0  0  0  0  0  0  0
  2  5  2  0
  2  6  1  0
  3  9  1  0
  3  1  2  0
  4  1  1  0
  4  7  1  0
  5  3  1  0
  6  4  2  0
  8  5  1  0
 10 16  1  0
 10  9  1  0
 11 16  1  0
 12 13  1  0
 12 11  1  0
 14 13  1  0
 14 21  1  0
 14 15  1  0
 16 15  1  0
 17 10  2  0
 18 19  2  0
 19 38  1  0
 20 19  1  0
 20 23  1  0
 21 22  1  0
 21 18  1  0
 22 20  2  0
 23 24  1  0
 24 25  2  0
 26 29  1  0
 26 25  1  0
 27 26  2  0
 28 27  1  0
 28 23  2  0
 29 30  1  0
 30 31  1  0
 31 32  2  0
 33 32  1  0
 33 37  1  0
 34 33  2  0
 35 30  2  0
 35 34  1  0
 36 35  1  0
 38 39  1  0
 39 42  1  0
 39 41  1  0
 40 38  2  0
 43 44  1  0
 43 18  1  0
 45 43  1  0
 46  6  1  0
 46 47  1  0
 48 49  1  0
 48 47  2  0
 50 61  2  0
 51 49  1  0
 51 56  1  0
 52 60  1  0
 52 62  1  0
 53 59  1  0
 53 55  1  0
 54 60  1  0
 55 54  1  0
 56 55  2  0
 57 58  1  0
 57 51  2  0
 58 53  2  0
 59 52  1  0
 60 50  1  0
 62 64  2  0
 63 62  1  0
 65 63  1  0
 66 75  2  0
 66 71  1  0
 67 63  1  0
 67 71  1  0
 68 67  1  0
 69 70  1  0
 69 68  1  0
 70 66  1  0
 71 72  2  0
 72 73  1  0
 74 73  2  0
 75 74  1  0
 76 50  1  0
 76 81  1  0
 76 77  1  0
 77 80  1  1
 77 78  1  0
 79 77  1  0
 81 84  1  0
 82 86  1  0
 82 81  1  0
 83 82  2  0
 86 85  1  0
 88 86  1  0
 88 89  1  0
 88 87  1  0
M  ISO  4   9 100  10 100  48 101  49 101
M  END
>  <TORSDO>  (17) 
F 20

>  <SCORE>  (17) 
-12.425

>  <name>  (17) 
16

>  <ligand_id>  (17) 
16

>  <original_smiles>  (17) 
[H]c1c([H])c([H])c2c(c1[H])C([H])([H])C([H])([H])C([H])([H])C2([H])N([H])C(=O)C1([H])N(C(=O)C([H])(N([H])C(=O)C([H])(N([H])C([H])([H])[H])C([H])([H])[H])C(C([H])([H])[H])(C([H])([H])[H])C([H])([H])[H])C([H])([H])c2c([H])c(OC([H])([H])C([H])([H])Oc3c([H])c(C([H])([H])[H])c(C([H])([H])C(=O)N4C([H])([H])C([H])([H])C([H])([H])C([H])(n5nc(-c6c([H])c([H])c(Oc7c([H])c([H])c(F)c([H])c7F)c([H])c6[H])c(C(=O)N([H])[H])c5N([H])[H])C4([H])[H])c([H])c3C([H])([H])[H])c([H])c([H])c2C1([H])[H]

>  <smiles>  (17) 
[H]c1c([H])c([H])c2c(c1[H])C([H])([H])C([H])([H])C([H])([H])C2([H])N([H])C(=O)C1([H])N(C(=O)C([H])(N([H])C(=O)C([H])(N([H])C([H])([H])[H])C([H])([H])[H])C(C([H])([H])[H])(C([H])([H])[H])C([H])([H])[H])C([H])([H])c2c([H])c(OC([H])([H])C([H])([H])Oc3c([H])c(C([H])([H])[H])c(C([H])([H])C(=O)N4C([H])([H])C([H])([H])C([H])([H])C([H])(n5nc(-c6c([H])c([H])c(Oc7c([H])c([H])c(F)c([H])c7F)c([H])c6[H])c(C(=O)N([H])[H])c5N([H])[H])C4([H])[H])c([H])c3C([H])([H])[H])c([H])c([H])c2C1([H])[H]

$$$$
17:0:0
     RDKit          3D

 91100  0  0  1  0  0  0  0  0999 V2000
  -30.1720  -23.3120   20.0010 C   0  0  0  0  0  3  0  0  0  0  0  0
  -28.1650  -22.4240   20.8900 C   0  0  0  0  0  3  0  0  0  0  0  0
  -28.8380  -23.5820   20.4030 C   0  0  0  0  0  0  0  0  0  0  0  0
  -30.7330  -21.9900   20.1090 C   0  0  0  0  0  0  0  0  0  0  0  0
  -29.9550  -20.8950   20.6020 C   0  0  0  0  0  0  0  0  0  0  0  0
  -32.1810  -21.7840   19.6780 C   0  0  0  0  0  1  0  0  0  0  0  0
  -28.6830  -21.1610   20.9900 N   0  0  0  0  0  0  0  0  0  0  0  0
  -29.5910  -18.2720   21.4310 C   0  0  0  0  0  2  0  0  0  0  0  0
  -30.5020  -19.4200   20.8900 C   0  0  0  0  0  3  0  0  0  0  0  0
  -31.0110  -18.2860   19.8980 C   0  0  0  0  0  3  0  0  0  0  0  0
  -30.5840  -17.1790   20.9360 C   0  0  0  0  0  3  0  0  0  0  0  0
  -32.4950  -18.2800   19.4980 C   0  0  0  0  0  1  0  0  0  0  0  0
  -29.9870  -15.8520   20.6150 O   0  0  0  0  0  0  0  0  0  0  0  0
  -30.7310  -14.7010   20.1960 C   0  0  0  0  0  0  0  0  0  0  0  0
  -30.3640  -12.4260   19.1720 C   0  0  0  0  0  2  0  0  0  0  0  0
  -29.4050  -12.5390   17.9690 C   0  0  0  0  0  2  0  0  0  0  0  0
  -27.9420  -12.3980   18.4270 C   0  0  0  0  0  2  0  0  0  0  0  0
  -27.6090  -13.2940   19.6540 C   0  0  0  0  0  3  0  0  0  0  0  0
  -28.6910  -13.2260   20.7540 C   0  0  0  0  0  2  0  0  0  0  0  0
  -29.9950  -13.4830   20.1350 N   0  0  0  0  0  0  0  0  0  0  0  0
  -31.8900  -14.7940   19.7940 O   0  0  0  0  0  0  0  0  0  0  0  0
  -25.2470  -13.9060   20.4480 C   0  0  0  0  0  0  0  0  0  0  0  0
  -24.1790  -13.1440   20.8400 C   0  0  0  0  0  0  0  0  0  0  0  0
  -24.6240  -11.7860   20.7880 C   0  0  0  0  0  0  0  0  0  0  0  0
  -26.2740  -13.0150   20.1800 N   0  0  0  0  0  0  0  0  0  0  0  0
  -25.9090  -11.7330   20.4490 N   0  0  0  0  0  0  0  0  0  0  0  0
  -23.8860  -10.5330   20.9920 C   0  0  0  0  0  0  0  0  0  0  0  0
  -24.3210   -9.5570   21.9160 C   0  0  0  0  0  3  0  0  0  0  0  0
  -23.5820   -8.3700   22.1060 C   0  0  0  0  0  3  0  0  0  0  0  0
  -22.3930   -8.1480   21.3750 C   0  0  0  0  0  0  0  0  0  0  0  0
  -21.9740   -9.1130   20.4440 C   0  0  0  0  0  3  0  0  0  0  0  0
  -22.7120  -10.2940   20.2510 C   0  0  0  0  0  3  0  0  0  0  0  0
  -21.6250   -7.0140   21.4750 O   0  0  0  0  0  0  0  0  0  0  0  0
  -21.5840   -6.2690   22.6270 C   0  0  0  0  0  0  0  0  0  0  0  0
  -21.1560   -6.8220   23.8520 C   0  0  0  0  0  3  0  0  0  0  0  0
  -21.0600   -6.0080   24.9990 C   0  0  0  0  0  3  0  0  0  0  0  0
  -21.3840   -4.6400   24.9190 C   0  0  0  0  0  0  0  0  0  0  0  0
  -21.8020   -4.0850   23.6980 C   0  0  0  0  0  3  0  0  0  0  0  0
  -21.8990   -4.8970   22.5540 C   0  0  0  0  0  0  0  0  0  0  0  0
  -22.2850   -4.3520   21.3760 F   0  0  0  0  0  0  0  0  0  0  0  0
  -21.2850   -3.8570   26.0190 F   0  0  0  0  0  0  0  0  0  0  0  0
  -22.7980  -13.6380   21.1500 C   0  0  0  0  0  0  0  0  0  0  0  0
  -22.0850  -12.9510   22.0330 N   0  0  0  0  0  0  0  0  0  0  0  0
  -22.3580  -14.6720   20.6460 O   0  0  0  0  0  0  0  0  0  0  0  0
  -22.4490  -12.1120   22.4580 H   0  0  0  0  0  0  0  0  0  0  0  0
  -21.1590  -13.2700   22.2850 H   0  0  0  0  0  0  0  0  0  0  0  0
  -25.4300  -15.2750   20.2710 N   0  0  0  0  0  0  0  0  0  0  0  0
  -24.6940  -15.9540   20.4280 H   0  0  0  0  0  0  0  0  0  0  0  0
  -26.2940  -15.6970   19.9520 H   0  0  0  0  0  0  0  0  0  0  0  0
  -27.9750  -24.8920   20.0950 C   0  0  0  0  0  2  0  0  0  0  0  0
  -28.3170  -26.3310   20.3640 O   0  0  0  0  0  0  0  0  0  0  0  0
  -24.6310  -31.8810   23.2680 C   0  0  0  0  0  0  0  0  0  0  0  0
  -27.2410  -27.2590   20.2550 C   0  0  0  0  0  0  0  0  0  0  0  0
  -23.4300  -30.4880   21.6200 C   0  0  0  0  0  3  0  0  0  0  0  0
  -24.8860  -28.9290   20.2070 C   0  0  0  0  0  0  0  0  0  0  0  0
  -25.9750  -30.7800   21.4590 C   0  0  0  0  0  2  0  0  0  0  0  0
  -26.0560  -29.3960   20.8150 C   0  0  0  0  0  0  0  0  0  0  0  0
  -27.2330  -28.5750   20.8320 C   0  0  0  0  0  3  0  0  0  0  0  0
  -26.0410  -26.8760   19.5970 C   0  0  0  0  0  3  0  0  0  0  0  0
  -24.8830  -27.6730   19.5910 C   0  0  0  0  0  3  0  0  0  0  0  0
  -23.6540  -29.8130   20.2400 C   0  0  0  0  0  2  0  0  0  0  0  0
  -24.6970  -31.0680   22.1730 N   0  0  0  0  0  0  0  0  0  0  0  0
  -23.5460  -32.1710   23.7960 O   0  0  0  0  0  0  0  0  0  0  0  0
  -22.7500  -29.4810   22.5760 C   0  0  0  0  0  0  0  0  0  0  0  0
  -21.4220  -29.3130   22.4430 N   0  0  0  0  0  0  0  0  0  0  0  0
  -23.4180  -28.8510   23.4010 O   0  0  0  0  0  0  0  0  0  0  0  0
  -20.9400  -29.8750   21.7560 H   0  0  0  0  0  0  0  0  0  0  0  0
  -18.0320  -28.1380   22.9340 C   0  0  0  0  0  0  0  0  0  0  0  0
  -20.5940  -28.3810   23.2100 C   0  0  0  0  0  3  0  0  0  0  0  0
  -20.6840  -26.9450   22.6410 C   0  0  0  0  0  2  0  0  0  0  0  0
  -19.5840  -26.6310   21.6220 C   0  0  0  0  0  2  0  0  0  0  0  0
  -18.2010  -26.7870   22.2620 C   0  0  0  0  0  2  0  0  0  0  0  0
  -19.1560  -28.8930   23.3660 C   0  0  0  0  0  0  0  0  0  0  0  0
  -18.9440  -30.1590   23.9550 C   0  0  0  0  0  3  0  0  0  0  0  0
  -17.6420  -30.6690   24.1170 C   0  0  0  0  0  3  0  0  0  0  0  0
  -16.5340  -29.9120   23.6980 C   0  0  0  0  0  3  0  0  0  0  0  0
  -16.7290  -28.6480   23.1140 C   0  0  0  0  0  3  0  0  0  0  0  0
  -25.9150  -32.5060   23.8940 C   0  0  0  0  0  3  0  0  0  0  0  0
  -26.4200  -31.7330   25.1760 C   0  0  1  0  0  0  0  0  0  0  0  0
  -25.3190  -31.5140   26.2380 C   0  0  0  0  0  1  0  0  0  0  0  0
  -26.9970  -30.3470   24.7980 C   0  0  0  0  0  1  0  0  0  0  0  0
  -27.5680  -32.5220   25.8450 C   0  0  0  0  0  1  0  0  0  0  0  0
  -25.6130  -33.9080   24.2190 N   0  0  0  0  0  0  0  0  0  0  0  0
  -25.9370  -34.9550   23.4480 C   0  0  0  0  0  0  0  0  0  0  0  0
  -26.5920  -34.8410   22.4070 O   0  0  0  0  0  0  0  0  0  0  0  0
  -25.0310  -34.0670   25.0290 H   0  0  0  0  0  0  0  0  0  0  0  0
  -24.2070  -36.7530   23.1140 C   0  0  0  0  0  1  0  0  0  0  0  0
  -25.4630  -36.3470   23.9010 C   0  0  0  0  0  3  0  0  0  0  0  0
  -27.6130  -37.2440   24.6870 C   0  0  0  0  0  1  0  0  0  0  0  0
  -26.4960  -37.3970   23.7570 N   0  0  0  0  0  0  0  0  0  0  0  0
  -26.0930  -38.3190   23.8970 H   0  0  0  0  0  0  0  0  0  0  0  0
  1  4  2  0
  1  3  1  0
  2  7  1  0
  3  2  2  0
  4  5  1  0
  5  7  2  0
  6  4  1  0
  9  5  1  0
  9  8  1  0
 10 12  1  0
 10  9  1  0
 10 11  1  0
 11 13  1  0
 11  8  1  0
 14 13  1  0
 15 20  1  0
 16 17  1  0
 16 15  1  0
 18 17  1  0
 18 25  1  0
 18 19  1  0
 20 14  1  0
 20 19  1  0
 21 14  2  0
 22 23  2  0
 23 42  1  0
 24 23  1  0
 24 27  1  0
 25 22  1  0
 25 26  1  0
 26 24  2  0
 27 28  1  0
 28 29  2  0
 30 33  1  0
 30 29  1  0
 31 30  2  0
 32 31  1  0
 32 27  2  0
 33 34  1  0
 34 35  1  0
 35 36  2  0
 37 36  1  0
 37 41  1  0
 38 37  2  0
 39 34  2  0
 39 38  1  0
 40 39  1  0
 42 43  1  0
 43 46  1  0
 43 45  1  0
 44 42  2  0
 47 48  1  0
 47 22  1  0
 49 47  1  0
 50 51  1  0
 50  3  1  0
 52 63  2  0
 53 51  1  0
 53 58  1  0
 54 62  1  0
 54 64  1  0
 55 61  1  0
 55 57  1  0
 56 62  1  0
 57 58  2  0
 57 56  1  0
 59 53  2  0
 60 59  1  0
 60 55  2  0
 61 54  1  0
 62 52  1  0
 64 66  2  0
 65 64  1  0
 67 65  1  0
 68 77  2  0
 68 73  1  0
 69 65  1  0
 69 73  1  0
 70 69  1  0
 71 72  1  0
 71 70  1  0
 72 68  1  0
 73 74  2  0
 74 75  1  0
 76 75  2  0
 77 76  1  0
 78 52  1  0
 78 83  1  0
 78 79  1  0
 79 82  1  1
 79 80  1  0
 81 79  1  0
 83 86  1  0
 84 88  1  0
 84 83  1  0
 85 84  2  0
 88 87  1  0
 90 91  1  0
 90 88  1  0
 90 89  1  0
M  ISO  4  13 100  14 100  50 101  51 101
M  END
>  <TORSDO>  (18) 
F 19

>  <SCORE>  (18) 
-14.141

>  <name>  (18) 
17

>  <ligand_id>  (18) 
17

>  <original_smiles>  (18) 
[H]c1nc(C2([H])C([H])([H])C([H])(OC(=O)N3C([H])([H])C([H])([H])C([H])([H])C([H])(n4nc(-c5c([H])c([H])c(Oc6c([H])c([H])c(F)c([H])c6F)c([H])c5[H])c(C(=O)N([H])[H])c4N([H])[H])C3([H])[H])C2([H])C([H])([H])[H])c(C([H])([H])[H])c([H])c1C([H])([H])Oc1c([H])c([H])c2c(c1[H])C([H])([H])N(C(=O)C([H])(N([H])C(=O)C([H])(N([H])C([H])([H])[H])C([H])([H])[H])C(C([H])([H])[H])(C([H])([H])[H])C([H])([H])[H])C([H])(C(=O)N([H])C1([H])c3c([H])c([H])c([H])c([H])c3C([H])([H])C([H])([H])C1([H])[H])C2([H])[H]

>  <smiles>  (18) 
[H]c1nc(C2([H])C([H])([H])C([H])(OC(=O)N3C([H])([H])C([H])([H])C([H])([H])C([H])(n4nc(-c5c([H])c([H])c(Oc6c([H])c([H])c(F)c([H])c6F)c([H])c5[H])c(C(=O)N([H])[H])c4N([H])[H])C3([H])[H])C2([H])C([H])([H])[H])c(C([H])([H])[H])c([H])c1C([H])([H])Oc1c([H])c([H])c2c(c1[H])C([H])([H])N(C(=O)C([H])(N([H])C(=O)C([H])(N([H])C([H])([H])[H])C([H])([H])[H])C(C([H])([H])[H])(C([H])([H])[H])C([H])([H])[H])C([H])(C(=O)N([H])C1([H])c3c([H])c([H])c([H])c([H])c3C([H])([H])C([H])([H])C1([H])[H])C2([H])[H]

$$$$
18:0:0
     RDKit          3D

 90 99  0  0  1  0  0  0  0  0999 V2000
  -28.9570  -21.3200   18.6280 C   0  0  0  0  0  3  0  0  0  0  0  0
  -28.7390  -22.7110   18.9680 C   0  0  0  0  0  3  0  0  0  0  0  0
  -29.5590  -22.2560   21.1450 C   0  0  0  0  0  3  0  0  0  0  0  0
  -29.4670  -20.3270   19.5310 C   0  0  0  0  0  0  0  0  0  0  0  0
  -29.7900  -20.8460   20.8060 C   0  0  0  0  0  0  0  0  0  0  0  0
  -29.0080  -23.2700   20.2540 C   0  0  0  0  0  0  0  0  0  0  0  0
  -29.6010  -18.7560   19.1610 C   0  0  0  0  0  2  0  0  0  0  0  0
  -30.4040  -19.8290   21.7930 C   0  0  0  0  0  2  0  0  0  0  0  0
  -30.0870  -18.2930   21.5620 C   0  0  0  0  0  2  0  0  0  0  0  0
  -30.3590  -17.6940   20.1410 C   0  0  0  0  0  3  0  0  0  0  0  0
  -30.8540  -14.9540   19.8760 C   0  0  0  0  0  0  0  0  0  0  0  0
  -30.6390  -12.6050   18.9460 C   0  0  0  0  0  2  0  0  0  0  0  0
  -29.6260  -12.5770   17.7790 C   0  0  0  0  0  2  0  0  0  0  0  0
  -28.1880  -12.3980   18.3040 C   0  0  0  0  0  2  0  0  0  0  0  0
  -27.8740  -13.3310   19.5020 C   0  0  0  0  0  3  0  0  0  0  0  0
  -29.0010  -13.3190   20.5570 C   0  0  0  0  0  2  0  0  0  0  0  0
  -30.2370  -13.7060   19.8650 N   0  0  0  0  0  0  0  0  0  0  0  0
  -32.0420  -15.0080   19.5440 O   0  0  0  0  0  0  0  0  0  0  0  0
  -30.0820  -16.1330   20.0610 N   0  0  0  0  0  0  0  0  0  0  0  0
  -29.1150  -15.9060   20.2350 H   0  0  0  0  0  0  0  0  0  0  0  0
  -25.5700  -13.9590   20.4220 C   0  0  0  0  0  0  0  0  0  0  0  0
  -24.5080  -13.2050   20.8420 C   0  0  0  0  0  0  0  0  0  0  0  0
  -24.9260  -11.8420   20.7380 C   0  0  0  0  0  0  0  0  0  0  0  0
  -26.5650  -13.0570   20.0840 N   0  0  0  0  0  0  0  0  0  0  0  0
  -26.1920  -11.7760   20.3410 N   0  0  0  0  0  0  0  0  0  0  0  0
  -24.1730  -10.5970   20.9400 C   0  0  0  0  0  0  0  0  0  0  0  0
  -24.6040   -9.6110   21.8550 C   0  0  0  0  0  3  0  0  0  0  0  0
  -23.8500   -8.4330   22.0450 C   0  0  0  0  0  3  0  0  0  0  0  0
  -22.6520   -8.2320   21.3200 C   0  0  0  0  0  0  0  0  0  0  0  0
  -22.2400   -9.2050   20.3920 C   0  0  0  0  0  3  0  0  0  0  0  0
  -22.9930  -10.3750   20.2010 C   0  0  0  0  0  3  0  0  0  0  0  0
  -21.8690   -7.1070   21.4200 O   0  0  0  0  0  0  0  0  0  0  0  0
  -21.7830   -6.3930   22.5880 C   0  0  0  0  0  0  0  0  0  0  0  0
  -21.3290   -6.9800   23.7890 C   0  0  0  0  0  3  0  0  0  0  0  0
  -21.1880   -6.1940   24.9500 C   0  0  0  0  0  3  0  0  0  0  0  0
  -21.4920   -4.8190   24.9090 C   0  0  0  0  0  0  0  0  0  0  0  0
  -21.9390   -4.2310   23.7130 C   0  0  0  0  0  3  0  0  0  0  0  0
  -22.0810   -5.0160   22.5550 C   0  0  0  0  0  0  0  0  0  0  0  0
  -22.4910   -4.4390   21.3990 F   0  0  0  0  0  0  0  0  0  0  0  0
  -21.3500   -4.0600   26.0220 F   0  0  0  0  0  0  0  0  0  0  0  0
  -23.1480  -13.7160   21.2200 C   0  0  0  0  0  0  0  0  0  0  0  0
  -22.4620  -13.0230   22.1210 N   0  0  0  0  0  0  0  0  0  0  0  0
  -22.7060  -14.7640   20.7500 O   0  0  0  0  0  0  0  0  0  0  0  0
  -22.8350  -12.1750   22.5230 H   0  0  0  0  0  0  0  0  0  0  0  0
  -21.5500  -13.3440   22.4150 H   0  0  0  0  0  0  0  0  0  0  0  0
  -25.7630  -15.3300   20.2720 N   0  0  0  0  0  0  0  0  0  0  0  0
  -25.0200  -15.9970   20.4480 H   0  0  0  0  0  0  0  0  0  0  0  0
  -26.5800  -15.7530   19.8550 H   0  0  0  0  0  0  0  0  0  0  0  0
  -28.4540  -24.7460   20.7700 C   0  0  0  0  0  2  0  0  0  0  0  0
  -28.7520  -26.1890   20.2730 O   0  0  0  0  0  0  0  0  0  0  0  0
  -24.8240  -31.7310   23.2090 C   0  0  0  0  0  0  0  0  0  0  0  0
  -27.6740  -27.1480   20.2290 C   0  0  0  0  0  0  0  0  0  0  0  0
  -23.7280  -30.3000   21.5290 C   0  0  0  0  0  3  0  0  0  0  0  0
  -25.2800  -28.7960   20.1380 C   0  0  0  0  0  0  0  0  0  0  0  0
  -26.2730  -30.6690   21.4410 C   0  0  0  0  0  2  0  0  0  0  0  0
  -26.4230  -29.2840   20.7860 C   0  0  0  0  0  0  0  0  0  0  0  0
  -27.6240  -28.4770   20.8150 C   0  0  0  0  0  3  0  0  0  0  0  0
  -26.5080  -26.7690   19.5310 C   0  0  0  0  0  3  0  0  0  0  0  0
  -25.3360  -27.5510   19.4940 C   0  0  0  0  0  3  0  0  0  0  0  0
  -24.0140  -29.6400   20.1550 C   0  0  0  0  0  2  0  0  0  0  0  0
  -24.9590  -30.9230   22.1150 N   0  0  0  0  0  0  0  0  0  0  0  0
  -23.7130  -31.9690   23.7070 O   0  0  0  0  0  0  0  0  0  0  0  0
  -23.0640  -29.2600   22.4660 C   0  0  0  0  0  0  0  0  0  0  0  0
  -21.7480  -29.0350   22.2980 N   0  0  0  0  0  0  0  0  0  0  0  0
  -23.7350  -28.6580   23.3080 O   0  0  0  0  0  0  0  0  0  0  0  0
  -21.2610  -29.5740   21.5950 H   0  0  0  0  0  0  0  0  0  0  0  0
  -18.4060  -27.6970   22.6930 C   0  0  0  0  0  0  0  0  0  0  0  0
  -20.9420  -28.0620   23.0400 C   0  0  0  0  0  3  0  0  0  0  0  0
  -21.1200  -26.6380   22.4650 C   0  0  0  0  0  2  0  0  0  0  0  0
  -20.0640  -26.2760   21.4150 C   0  0  0  0  0  2  0  0  0  0  0  0
  -18.6590  -26.3600   22.0160 C   0  0  0  0  0  2  0  0  0  0  0  0
  -19.4780  -28.5030   23.1590 C   0  0  0  0  0  0  0  0  0  0  0  0
  -19.1880  -29.7520   23.7510 C   0  0  0  0  0  3  0  0  0  0  0  0
  -17.8580  -30.1960   23.8810 C   0  0  0  0  0  3  0  0  0  0  0  0
  -16.8000  -29.3870   23.4310 C   0  0  0  0  0  3  0  0  0  0  0  0
  -17.0740  -28.1390   22.8430 C   0  0  0  0  0  3  0  0  0  0  0  0
  -26.0580  -32.4130   23.8750 C   0  0  0  0  0  3  0  0  0  0  0  0
  -25.6850  -33.8000   24.1950 N   0  0  0  0  0  0  0  0  0  0  0  0
  -25.9900  -34.8670   23.4430 C   0  0  0  0  0  0  0  0  0  0  0  0
  -26.6820  -34.7890   22.4250 O   0  0  0  0  0  0  0  0  0  0  0  0
  -25.0680  -33.9310   24.9840 H   0  0  0  0  0  0  0  0  0  0  0  0
  -24.1930  -36.5900   23.0690 C   0  0  0  0  0  1  0  0  0  0  0  0
  -25.4420  -36.2360   23.8920 C   0  0  0  0  0  3  0  0  0  0  0  0
  -27.5290  -37.2150   24.7410 C   0  0  0  0  0  1  0  0  0  0  0  0
  -26.4320  -37.3310   23.7830 N   0  0  0  0  0  0  0  0  0  0  0  0
  -25.9870  -38.2340   23.9220 H   0  0  0  0  0  0  0  0  0  0  0  0
  -26.5540  -31.6650   25.1740 C   0  0  1  0  0  0  0  0  0  0  0  0
  -25.4320  -31.3920   26.2040 C   0  0  0  0  0  1  0  0  0  0  0  0
  -27.1980  -30.3060   24.8150 C   0  0  0  0  0  1  0  0  0  0  0  0
  -27.6520  -32.4990   25.8740 C   0  0  0  0  0  1  0  0  0  0  0  0
  1  2  2  0
  1  4  1  0
  2  6  1  0
  4  5  2  0
  5  3  1  0
  5  8  1  0
  6 49  1  0
  6  3  2  0
  7  4  1  0
  7 10  1  0
  9  8  1  0
 10 19  1  0
 10  9  1  0
 11 19  1  0
 12 17  1  0
 13 14  1  0
 13 12  1  0
 15 14  1  0
 15 24  1  0
 15 16  1  0
 17 11  1  0
 17 16  1  0
 18 11  2  0
 19 20  1  0
 21 22  2  0
 22 41  1  0
 23 22  1  0
 23 26  1  0
 24 25  1  0
 24 21  1  0
 25 23  2  0
 26 27  1  0
 27 28  2  0
 29 32  1  0
 29 28  1  0
 30 29  2  0
 31 30  1  0
 31 26  2  0
 32 33  1  0
 33 34  1  0
 34 35  2  0
 36 35  1  0
 36 40  1  0
 37 36  2  0
 38 33  2  0
 38 37  1  0
 39 38  1  0
 41 42  1  0
 42 45  1  0
 42 44  1  0
 43 41  2  0
 46 21  1  0
 46 47  1  0
 48 46  1  0
 50 49  1  0
 51 62  2  0
 52 50  1  0
 52 57  1  0
 53 61  1  0
 53 63  1  0
 54 60  1  0
 54 56  1  0
 55 61  1  0
 56 57  2  0
 56 55  1  0
 58 52  2  0
 59 58  1  0
 59 54  2  0
 60 53  1  0
 61 51  1  0
 63 65  2  0
 64 63  1  0
 66 64  1  0
 67 76  2  0
 67 72  1  0
 68 64  1  0
 68 72  1  0
 69 68  1  0
 70 71  1  0
 70 69  1  0
 71 67  1  0
 72 73  2  0
 73 74  1  0
 75 74  2  0
 76 75  1  0
 77 51  1  0
 77 78  1  0
 77 87  1  0
 78 81  1  0
 79 83  1  0
 79 78  1  0
 80 79  2  0
 83 82  1  0
 85 83  1  0
 85 86  1  0
 85 84  1  0
 87 90  1  1
 87 88  1  0
 89 87  1  0
M  ISO  4  11 100  19 100  49 101  50 101
M  END
>  <TORSDO>  (19) 
F 17

>  <SCORE>  (19) 
-14.240

>  <name>  (19) 
18

>  <ligand_id>  (19) 
18

>  <original_smiles>  (19) 
[H]c1c([H])c([H])c2c(c1[H])C([H])([H])C([H])([H])C([H])([H])C2([H])N([H])C(=O)C1([H])N(C(=O)C([H])(N([H])C(=O)C([H])(N([H])C([H])([H])[H])C([H])([H])[H])C(C([H])([H])[H])(C([H])([H])[H])C([H])([H])[H])C([H])([H])c2c([H])c(OC([H])([H])c3c([H])c([H])c4c(c3[H])C([H])([H])C([H])([H])C([H])(N([H])C(=O)N3C([H])([H])C([H])([H])C([H])([H])C([H])(n5nc(-c6c([H])c([H])c(Oc7c([H])c([H])c(F)c([H])c7F)c([H])c6[H])c(C(=O)N([H])[H])c5N([H])[H])C3([H])[H])C4([H])[H])c([H])c([H])c2C1([H])[H]

>  <smiles>  (19) 
[H]c1c([H])c([H])c2c(c1[H])C([H])([H])C([H])([H])C([H])([H])C2([H])N([H])C(=O)C1([H])N(C(=O)C([H])(N([H])C(=O)C([H])(N([H])C([H])([H])[H])C([H])([H])[H])C(C([H])([H])[H])(C([H])([H])[H])C([H])([H])[H])C([H])([H])c2c([H])c(OC([H])([H])c3c([H])c([H])c4c(c3[H])C([H])([H])C([H])([H])C([H])(N([H])C(=O)N3C([H])([H])C([H])([H])C([H])([H])C([H])(n5nc(-c6c([H])c([H])c(Oc7c([H])c([H])c(F)c([H])c7F)c([H])c6[H])c(C(=O)N([H])[H])c5N([H])[H])C3([H])[H])C4([H])[H])c([H])c([H])c2C1([H])[H]

$$$$
19:0:0
     RDKit          3D

 95104  0  0  1  0  0  0  0  0999 V2000
  -29.4590  -21.4280   20.2210 C   0  0  0  0  0  2  0  0  0  0  0  0
  -31.0070  -18.7120   22.6240 C   0  0  0  0  0  3  0  0  0  0  0  0
  -30.6160  -19.9360   22.0440 C   0  0  0  0  0  0  0  0  0  0  0  0
  -30.8550  -17.4680   21.9890 C   0  0  0  0  0  0  0  0  0  0  0  0
  -29.9480  -19.9740   20.7850 C   0  0  0  0  0  0  0  0  0  0  0  0
  -29.8600  -18.6680   20.0970 C   0  0  0  0  0  0  0  0  0  0  0  0
  -30.3290  -17.3920   20.6750 C   0  0  0  0  0  0  0  0  0  0  0  0
  -31.0080  -21.1840   22.8280 C   0  0  0  0  0  1  0  0  0  0  0  0
  -31.2680  -16.2350   22.7860 C   0  0  0  0  0  1  0  0  0  0  0  0
  -29.2890  -18.6470   18.6830 C   0  0  0  0  0  1  0  0  0  0  0  0
  -30.9260  -14.8930   19.9640 C   0  0  0  0  0  0  0  0  0  0  0  0
  -30.6910  -12.6040   18.9480 C   0  0  0  0  0  2  0  0  0  0  0  0
  -29.7000  -12.6450   17.7630 C   0  0  0  0  0  2  0  0  0  0  0  0
  -28.2430  -12.5070   18.2470 C   0  0  0  0  0  2  0  0  0  0  0  0
  -27.9280  -13.4280   19.4550 C   0  0  0  0  0  3  0  0  0  0  0  0
  -29.0190  -13.3210   20.5400 C   0  0  0  0  0  2  0  0  0  0  0  0
  -30.2940  -13.6690   19.8990 N   0  0  0  0  0  0  0  0  0  0  0  0
  -32.1170  -14.9760   19.6430 O   0  0  0  0  0  0  0  0  0  0  0  0
  -30.1160  -16.0220   20.1130 N   0  0  0  0  0  0  0  0  0  0  0  0
  -29.1430  -15.7650   20.0800 H   0  0  0  0  0  0  0  0  0  0  0  0
  -25.6060  -14.1090   20.3010 C   0  0  0  0  0  0  0  0  0  0  0  0
  -24.5210  -13.3720   20.6950 C   0  0  0  0  0  0  0  0  0  0  0  0
  -24.9230  -12.0060   20.6170 C   0  0  0  0  0  0  0  0  0  0  0  0
  -26.5970  -13.1890   19.9990 N   0  0  0  0  0  0  0  0  0  0  0  0
  -26.1980  -11.9180   20.2540 N   0  0  0  0  0  0  0  0  0  0  0  0
  -24.1510  -10.7700   20.8100 C   0  0  0  0  0  0  0  0  0  0  0  0
  -24.5540   -9.7860   21.7390 C   0  0  0  0  0  3  0  0  0  0  0  0
  -23.7830   -8.6180   21.9250 C   0  0  0  0  0  3  0  0  0  0  0  0
  -22.5960   -8.4270   21.1790 C   0  0  0  0  0  0  0  0  0  0  0  0
  -22.2110   -9.3980   20.2390 C   0  0  0  0  0  3  0  0  0  0  0  0
  -22.9840  -10.5570   20.0520 C   0  0  0  0  0  3  0  0  0  0  0  0
  -21.8000   -7.3110   21.2700 O   0  0  0  0  0  0  0  0  0  0  0  0
  -21.6910   -6.5990   22.4370 C   0  0  0  0  0  0  0  0  0  0  0  0
  -21.2500   -7.1980   23.6370 C   0  0  0  0  0  3  0  0  0  0  0  0
  -21.0880   -6.4140   24.7950 C   0  0  0  0  0  3  0  0  0  0  0  0
  -21.3550   -5.0320   24.7570 C   0  0  0  0  0  0  0  0  0  0  0  0
  -21.7890   -4.4340   23.5590 C   0  0  0  0  0  3  0  0  0  0  0  0
  -21.9540   -5.2150   22.4030 C   0  0  0  0  0  0  0  0  0  0  0  0
  -22.3520   -4.6300   21.2480 F   0  0  0  0  0  0  0  0  0  0  0  0
  -21.1910   -4.2770   25.8670 F   0  0  0  0  0  0  0  0  0  0  0  0
  -23.1590  -13.9050   21.0300 C   0  0  0  0  0  0  0  0  0  0  0  0
  -22.4430  -13.2280   21.9220 N   0  0  0  0  0  0  0  0  0  0  0  0
  -22.7410  -14.9510   20.5370 O   0  0  0  0  0  0  0  0  0  0  0  0
  -22.8000  -12.3810   22.3410 H   0  0  0  0  0  0  0  0  0  0  0  0
  -21.5290  -13.5620   22.1930 H   0  0  0  0  0  0  0  0  0  0  0  0
  -25.8190  -15.4760   20.1520 N   0  0  0  0  0  0  0  0  0  0  0  0
  -25.0850  -16.1500   20.3400 H   0  0  0  0  0  0  0  0  0  0  0  0
  -26.6640  -15.9030   19.7990 H   0  0  0  0  0  0  0  0  0  0  0  0
  -26.8430  -23.4470   21.4010 C   0  0  0  0  0  2  0  0  0  0  0  0
  -27.2890  -21.9850   21.4310 C   0  0  0  0  0  2  0  0  0  0  0  0
  -28.2800  -23.8880   21.1310 C   0  0  0  0  0  3  0  0  0  0  0  0
  -28.6760  -22.3740   21.1660 N   0  0  2  0  0  4  0  0  0  0  0  0
  -29.1740  -22.2840   22.0380 H   0  0  0  0  0  0  0  0  0  0  0  0
  -28.5140  -25.0100   19.9970 C   0  0  0  0  0  2  0  0  0  0  0  0
  -28.4340  -26.4890   20.3380 O   0  0  0  0  0  0  0  0  0  0  0  0
  -24.6540  -31.9510   23.2150 C   0  0  0  0  0  0  0  0  0  0  0  0
  -27.2910  -27.3210   20.2460 C   0  0  0  0  0  0  0  0  0  0  0  0
  -23.4560  -30.5110   21.6040 C   0  0  0  0  0  3  0  0  0  0  0  0
  -24.9140  -28.9450   20.1920 C   0  0  0  0  0  0  0  0  0  0  0  0
  -25.9910  -30.8440   21.3990 C   0  0  0  0  0  2  0  0  0  0  0  0
  -26.0820  -29.4500   20.7790 C   0  0  0  0  0  0  0  0  0  0  0  0
  -27.2680  -28.6530   20.7850 C   0  0  0  0  0  3  0  0  0  0  0  0
  -26.1010  -26.8720   19.6370 C   0  0  0  0  0  3  0  0  0  0  0  0
  -24.9330  -27.6680   19.6030 C   0  0  0  0  0  3  0  0  0  0  0  0
  -23.6650  -29.8080   20.2360 C   0  0  0  0  0  2  0  0  0  0  0  0
  -24.7180  -31.1270   22.1260 N   0  0  0  0  0  0  0  0  0  0  0  0
  -23.5730  -32.2170   23.7600 O   0  0  0  0  0  0  0  0  0  0  0  0
  -22.8100  -29.5090   22.5860 C   0  0  0  0  0  0  0  0  0  0  0  0
  -21.4910  -29.2940   22.4510 N   0  0  0  0  0  0  0  0  0  0  0  0
  -23.4980  -28.9220   23.4250 O   0  0  0  0  0  0  0  0  0  0  0  0
  -20.9870  -29.8240   21.7520 H   0  0  0  0  0  0  0  0  0  0  0  0
  -18.1580  -27.9690   22.9210 C   0  0  0  0  0  0  0  0  0  0  0  0
  -20.6940  -28.3510   23.2370 C   0  0  0  0  0  3  0  0  0  0  0  0
  -20.8690  -26.9040   22.7160 C   0  0  0  0  0  2  0  0  0  0  0  0
  -19.8070  -26.4960   21.6890 C   0  0  0  0  0  2  0  0  0  0  0  0
  -18.4100  -26.6000   22.3120 C   0  0  0  0  0  2  0  0  0  0  0  0
  -19.2310  -28.7970   23.3440 C   0  0  0  0  0  0  0  0  0  0  0  0
  -18.9470  -30.0740   23.8740 C   0  0  0  0  0  3  0  0  0  0  0  0
  -17.6210  -30.5250   23.9870 C   0  0  0  0  0  3  0  0  0  0  0  0
  -16.5590  -29.6950   23.5810 C   0  0  0  0  0  3  0  0  0  0  0  0
  -16.8270  -28.4190   23.0540 C   0  0  0  0  0  3  0  0  0  0  0  0
  -25.9320  -32.6080   23.8190 C   0  0  0  0  0  3  0  0  0  0  0  0
  -26.4870  -31.8420   25.0820 C   0  0  1  0  0  0  0  0  0  0  0  0
  -25.4140  -31.5480   26.1570 C   0  0  0  0  0  1  0  0  0  0  0  0
  -27.1230  -30.4930   24.6720 C   0  0  0  0  0  1  0  0  0  0  0  0
  -27.6060  -32.6710   25.7530 C   0  0  0  0  0  1  0  0  0  0  0  0
  -25.5920  -33.9950   24.1690 N   0  0  0  0  0  0  0  0  0  0  0  0
  -25.8930  -35.0670   23.4230 C   0  0  0  0  0  0  0  0  0  0  0  0
  -26.5530  -34.9930   22.3830 O   0  0  0  0  0  0  0  0  0  0  0  0
  -25.0060  -34.1260   24.9820 H   0  0  0  0  0  0  0  0  0  0  0  0
  -24.1300  -36.8340   23.1120 C   0  0  0  0  0  1  0  0  0  0  0  0
  -25.3860  -36.4390   23.9060 C   0  0  0  0  0  3  0  0  0  0  0  0
  -27.5090  -37.3570   24.7310 C   0  0  0  0  0  1  0  0  0  0  0  0
  -26.3970  -37.5150   23.7980 N   0  0  0  0  0  0  0  0  0  0  0  0
  -25.9740  -38.4250   23.9610 H   0  0  0  0  0  0  0  0  0  0  0  0
  1  5  1  0
  1 52  1  0
  3  2  1  0
  3  8  1  0
  4  2  2  0
  4  9  1  0
  5  3  2  0
  6  7  2  0
  6  5  1  0
  7  4  1  0
 10  6  1  0
 11 19  1  0
 12 17  1  0
 13 14  1  0
 13 12  1  0
 15 14  1  0
 15 24  1  0
 15 16  1  0
 17 11  1  0
 17 16  1  0
 18 11  2  0
 19  7  1  0
 20 19  1  0
 21 22  2  0
 22 41  1  0
 23 22  1  0
 23 26  1  0
 24 25  1  0
 24 21  1  0
 25 23  2  0
 26 27  1  0
 27 28  2  0
 29 32  1  0
 29 28  1  0
 30 29  2  0
 31 30  1  0
 31 26  2  0
 32 33  1  0
 33 34  1  0
 34 35  2  0
 36 35  1  0
 36 40  1  0
 37 36  2  0
 38 33  2  0
 38 37  1  0
 39 38  1  0
 41 42  1  0
 42 45  1  0
 42 44  1  0
 43 41  2  0
 46 21  1  0
 46 47  1  0
 48 46  1  0
 49 50  1  0
 51 54  1  0
 51 52  1  0
 51 49  1  0
 52 50  1  0
 52 53  1  1
 54 55  1  0
 56 67  2  0
 57 55  1  0
 57 62  1  0
 58 66  1  0
 58 68  1  0
 59 65  1  0
 59 61  1  0
 60 66  1  0
 61 62  2  0
 61 60  1  0
 63 57  2  0
 64 63  1  0
 64 59  2  0
 65 58  1  0
 66 56  1  0
 68 70  2  0
 69 68  1  0
 71 69  1  0
 72 81  2  0
 72 77  1  0
 73 69  1  0
 73 77  1  0
 74 73  1  0
 75 76  1  0
 75 74  1  0
 76 72  1  0
 77 78  2  0
 78 79  1  0
 80 79  2  0
 81 80  1  0
 82 56  1  0
 82 87  1  0
 82 83  1  0
 83 86  1  1
 83 84  1  0
 85 83  1  0
 87 90  1  0
 88 92  1  0
 88 87  1  0
 89 88  2  0
 92 91  1  0
 94 92  1  0
 94 95  1  0
 94 93  1  0
M  ISO  4  11 100  19 100  54 101  55 101
M  END
>  <TORSDO>  (20) 
F 19

>  <SCORE>  (20) 
-13.168

>  <name>  (20) 
19

>  <ligand_id>  (20) 
19

>  <original_smiles>  (20) 
[H]c1c([H])c([H])c2c(c1[H])C([H])([H])C([H])([H])C([H])([H])C2([H])N([H])C(=O)C1([H])N(C(=O)C([H])(N([H])C(=O)C([H])(N([H])C([H])([H])[H])C([H])([H])[H])C(C([H])([H])[H])(C([H])([H])[H])C([H])([H])[H])C([H])([H])c2c([H])c(OC([H])([H])C3([H])C([H])([H])C([H])([H])[N+]3([H])C([H])([H])c3c(C([H])([H])[H])c([H])c(C([H])([H])[H])c(N([H])C(=O)N4C([H])([H])C([H])([H])C([H])([H])C([H])(n5nc(-c6c([H])c([H])c(Oc7c([H])c([H])c(F)c([H])c7F)c([H])c6[H])c(C(=O)N([H])[H])c5N([H])[H])C4([H])[H])c3C([H])([H])[H])c([H])c([H])c2C1([H])[H]

>  <smiles>  (20) 
[H]c1c([H])c([H])c2c(c1[H])C([H])([H])C([H])([H])C([H])([H])C2([H])N([H])C(=O)C1([H])N(C(=O)C([H])(N([H])C(=O)C([H])(N([H])C([H])([H])[H])C([H])([H])[H])C(C([H])([H])[H])(C([H])([H])[H])C([H])([H])[H])C([H])([H])c2c([H])c(OC([H])([H])C3([H])C([H])([H])C([H])([H])[N+]3([H])C([H])([H])c3c(C([H])([H])[H])c([H])c(C([H])([H])[H])c(N([H])C(=O)N4C([H])([H])C([H])([H])C([H])([H])C([H])(n5nc(-c6c([H])c([H])c(Oc7c([H])c([H])c(F)c([H])c7F)c([H])c6[H])c(C(=O)N([H])[H])c5N([H])[H])C4([H])[H])c3C([H])([H])[H])c([H])c([H])c2C1([H])[H]

$$$$
20:0:0
     RDKit          3D

 98107  0  0  1  0  0  0  0  0999 V2000
  -27.3700  -23.3490   18.5550 C   0  0  0  0  0  3  0  0  0  0  0  0
  -29.8200  -22.1960   19.2050 C   0  0  0  0  0  3  0  0  0  0  0  0
  -27.5380  -21.9330   18.4580 C   0  0  0  0  0  0  0  0  0  0  0  0
  -29.6420  -23.6050   19.3250 C   0  0  0  0  0  0  0  0  0  0  0  0
  -28.4310  -24.2200   18.9190 C   0  0  0  0  0  0  0  0  0  0  0  0
  -28.8020  -21.3350   18.7170 C   0  0  0  0  0  0  0  0  0  0  0  0
  -26.3800  -21.0760   17.9710 C   0  0  0  0  0  1  0  0  0  0  0  0
  -30.7900  -24.4610   19.8280 C   0  0  0  0  0  1  0  0  0  0  0  0
  -28.3380  -25.7530   18.6070 C   0  0  0  0  0  2  0  0  0  0  0  0
  -28.1560  -26.7330   19.6770 O   0  0  0  0  0  0  0  0  0  0  0  0
  -24.5020  -31.8490   23.1500 C   0  0  0  0  0  0  0  0  0  0  0  0
  -27.0040  -27.5180   19.7280 C   0  0  0  0  0  0  0  0  0  0  0  0
  -23.2350  -30.5400   21.4820 C   0  0  0  0  0  3  0  0  0  0  0  0
  -24.6290  -29.0820   19.9200 C   0  0  0  0  0  0  0  0  0  0  0  0
  -25.7620  -30.8910   21.2150 C   0  0  0  0  0  2  0  0  0  0  0  0
  -25.8170  -29.5540   20.4880 C   0  0  0  0  0  0  0  0  0  0  0  0
  -27.0060  -28.7800   20.3890 C   0  0  0  0  0  3  0  0  0  0  0  0
  -25.7800  -27.0720   19.1780 C   0  0  0  0  0  3  0  0  0  0  0  0
  -24.6080  -27.8420   19.2650 C   0  0  0  0  0  3  0  0  0  0  0  0
  -23.3940  -29.9450   20.0590 C   0  0  0  0  0  2  0  0  0  0  0  0
  -24.5200  -31.1090   22.0050 N   0  0  0  0  0  0  0  0  0  0  0  0
  -23.4400  -32.0890   23.7420 O   0  0  0  0  0  0  0  0  0  0  0  0
  -22.6200  -29.4650   22.4080 C   0  0  0  0  0  0  0  0  0  0  0  0
  -21.3060  -29.2210   22.2580 N   0  0  0  0  0  0  0  0  0  0  0  0
  -23.3200  -28.8530   23.2180 O   0  0  0  0  0  0  0  0  0  0  0  0
  -20.7950  -29.7730   21.5830 H   0  0  0  0  0  0  0  0  0  0  0  0
  -17.9990  -27.8090   22.6420 C   0  0  0  0  0  0  0  0  0  0  0  0
  -20.5260  -28.2250   22.9950 C   0  0  0  0  0  3  0  0  0  0  0  0
  -20.7350  -26.8080   22.4110 C   0  0  0  0  0  2  0  0  0  0  0  0
  -19.6870  -26.4280   21.3600 C   0  0  0  0  0  2  0  0  0  0  0  0
  -18.2800  -26.4820   21.9600 C   0  0  0  0  0  2  0  0  0  0  0  0
  -19.0530  -28.6350   23.1140 C   0  0  0  0  0  0  0  0  0  0  0  0
  -18.7380  -29.8770   23.7070 C   0  0  0  0  0  3  0  0  0  0  0  0
  -17.3990  -30.2940   23.8340 C   0  0  0  0  0  3  0  0  0  0  0  0
  -16.3580  -29.4650   23.3810 C   0  0  0  0  0  3  0  0  0  0  0  0
  -16.6580  -28.2250   22.7900 C   0  0  0  0  0  3  0  0  0  0  0  0
  -25.8070  -32.4530   23.7550 C   0  0  0  0  0  3  0  0  0  0  0  0
  -26.3300  -31.6620   25.0160 C   0  0  1  0  0  0  0  0  0  0  0  0
  -25.2490  -31.4330   26.1000 C   0  0  0  0  0  1  0  0  0  0  0  0
  -26.8850  -30.2780   24.6060 C   0  0  0  0  0  1  0  0  0  0  0  0
  -27.5030  -32.4320   25.6690 C   0  0  0  0  0  1  0  0  0  0  0  0
  -25.5300  -33.8530   24.1000 N   0  0  0  0  0  0  0  0  0  0  0  0
  -25.8550  -34.9040   23.3360 C   0  0  0  0  0  0  0  0  0  0  0  0
  -26.4900  -34.7970   22.2840 O   0  0  0  0  0  0  0  0  0  0  0  0
  -24.9650  -34.0130   24.9200 H   0  0  0  0  0  0  0  0  0  0  0  0
  -24.1490  -36.7310   23.0360 C   0  0  0  0  0  1  0  0  0  0  0  0
  -25.4010  -36.2970   23.8170 C   0  0  0  0  0  3  0  0  0  0  0  0
  -27.5650  -37.1430   24.6120 C   0  0  0  0  0  1  0  0  0  0  0  0
  -26.4480  -37.3340   23.6910 N   0  0  0  0  0  0  0  0  0  0  0  0
  -26.0590  -38.2600   23.8500 H   0  0  0  0  0  0  0  0  0  0  0  0
  -29.1560  -19.8850   18.2320 C   0  0  0  0  0  2  0  0  0  0  0  0
  -28.8270  -18.7050   19.0330 O   0  0  0  0  0  0  0  0  0  0  0  0
  -31.3510  -18.2260   22.3860 C   0  0  0  0  0  3  0  0  0  0  0  0
  -30.1680  -19.5960   20.7870 C   0  0  0  0  0  3  0  0  0  0  0  0
  -31.0420  -19.4930   21.8750 C   0  0  0  0  0  0  0  0  0  0  0  0
  -30.8070  -17.0630   21.8040 C   0  0  0  0  0  0  0  0  0  0  0  0
  -29.9810  -17.1400   20.6360 C   0  0  0  0  0  0  0  0  0  0  0  0
  -29.6460  -18.4560   20.1290 C   0  0  0  0  0  0  0  0  0  0  0  0
  -31.6400  -20.7520   22.4770 C   0  0  0  0  0  1  0  0  0  0  0  0
  -31.1290  -15.7490   22.5050 C   0  0  0  0  0  1  0  0  0  0  0  0
  -30.1580  -14.8880   19.5050 C   0  0  0  0  0  0  0  0  0  0  0  0
  -30.0070  -12.5680   18.6150 C   0  0  0  0  0  2  0  0  0  0  0  0
  -28.9020  -12.4260   17.5470 C   0  0  0  0  0  2  0  0  0  0  0  0
  -27.5270  -12.1790   18.1970 C   0  0  0  0  0  2  0  0  0  0  0  0
  -27.2360  -13.1520   19.3690 C   0  0  0  0  0  3  0  0  0  0  0  0
  -28.4330  -13.2330   20.3390 C   0  0  0  0  0  2  0  0  0  0  0  0
  -29.6060  -13.6360   19.5510 N   0  0  0  0  0  0  0  0  0  0  0  0
  -31.1920  -15.1070   18.8630 O   0  0  0  0  0  0  0  0  0  0  0  0
  -29.4540  -15.9070   20.0810 N   0  0  0  0  0  0  0  0  0  0  0  0
  -28.5180  -15.6760   20.3800 H   0  0  0  0  0  0  0  0  0  0  0  0
  -25.0030  -13.6460   20.5420 C   0  0  0  0  0  0  0  0  0  0  0  0
  -24.0240  -12.8250   21.0340 C   0  0  0  0  0  0  0  0  0  0  0  0
  -24.4800  -11.4900   20.8080 C   0  0  0  0  0  0  0  0  0  0  0  0
  -25.9950  -12.8070   20.0580 N   0  0  0  0  0  0  0  0  0  0  0  0
  -25.6940  -11.5020   20.2710 N   0  0  0  0  0  0  0  0  0  0  0  0
  -23.8070  -10.2020   21.0200 C   0  0  0  0  0  0  0  0  0  0  0  0
  -24.3280   -9.2370   21.9070 C   0  0  0  0  0  3  0  0  0  0  0  0
  -23.6560   -8.0110   22.1050 C   0  0  0  0  0  3  0  0  0  0  0  0
  -22.4470   -7.7460   21.4170 C   0  0  0  0  0  0  0  0  0  0  0  0
  -21.9480   -8.6990   20.5130 C   0  0  0  0  0  3  0  0  0  0  0  0
  -22.6210   -9.9160   20.3130 C   0  0  0  0  0  3  0  0  0  0  0  0
  -21.7380   -6.5760   21.5320 O   0  0  0  0  0  0  0  0  0  0  0  0
  -21.6950   -5.8680   22.7070 C   0  0  0  0  0  0  0  0  0  0  0  0
  -21.1860   -6.4300   23.8990 C   0  0  0  0  0  3  0  0  0  0  0  0
  -21.1030   -5.6440   25.0650 C   0  0  0  0  0  3  0  0  0  0  0  0
  -21.5160   -4.2990   25.0400 C   0  0  0  0  0  0  0  0  0  0  0  0
  -22.0140   -3.7370   23.8530 C   0  0  0  0  0  3  0  0  0  0  0  0
  -22.1020   -4.5180   22.6890 C   0  0  0  0  0  0  0  0  0  0  0  0
  -22.5670   -3.9660   21.5410 F   0  0  0  0  0  0  0  0  0  0  0  0
  -21.4260   -3.5420   26.1600 F   0  0  0  0  0  0  0  0  0  0  0  0
  -22.6980  -13.2470   21.5940 C   0  0  0  0  0  0  0  0  0  0  0  0
  -22.1490  -12.4740   22.5250 N   0  0  0  0  0  0  0  0  0  0  0  0
  -22.1620  -14.2970   21.2440 O   0  0  0  0  0  0  0  0  0  0  0  0
  -22.6030  -11.6260   22.8360 H   0  0  0  0  0  0  0  0  0  0  0  0
  -21.2630  -12.7280   22.9350 H   0  0  0  0  0  0  0  0  0  0  0  0
  -25.1240  -15.0310   20.4510 N   0  0  0  0  0  0  0  0  0  0  0  0
  -24.3840  -15.6550   20.7460 H   0  0  0  0  0  0  0  0  0  0  0  0
  -25.8960  -15.5140   20.0080 H   0  0  0  0  0  0  0  0  0  0  0  0
  1  5  1  0
  2  4  1  0
  3  1  2  0
  3  6  1  0
  4  8  1  0
  5  4  2  0
  6  2  2  0
  7  3  1  0
  9  5  1  0
  9 10  1  0
 10 12  1  0
 11 22  2  0
 12 17  1  0
 13 21  1  0
 13 23  1  0
 14 20  1  0
 14 16  1  0
 15 21  1  0
 16 15  1  0
 17 16  2  0
 18 19  1  0
 18 12  2  0
 19 14  2  0
 20 13  1  0
 21 11  1  0
 23 25  2  0
 24 23  1  0
 26 24  1  0
 27 36  2  0
 27 32  1  0
 28 24  1  0
 28 32  1  0
 29 28  1  0
 30 31  1  0
 30 29  1  0
 31 27  1  0
 32 33  2  0
 33 34  1  0
 35 34  2  0
 36 35  1  0
 37 11  1  0
 37 42  1  0
 37 38  1  0
 38 41  1  1
 38 39  1  0
 40 38  1  0
 42 45  1  0
 43 47  1  0
 43 42  1  0
 44 43  2  0
 47 46  1  0
 49 47  1  0
 49 50  1  0
 49 48  1  0
 51  6  1  0
 51 52  1  0
 52 58  1  0
 54 55  2  0
 55 53  1  0
 55 59  1  0
 56 53  2  0
 56 60  1  0
 57 56  1  0
 58 57  2  0
 58 54  1  0
 61 67  1  0
 61 69  1  0
 62 67  1  0
 63 64  1  0
 63 62  1  0
 65 64  1  0
 65 74  1  0
 65 66  1  0
 67 66  1  0
 68 61  2  0
 69 70  1  0
 69 57  1  0
 71 72  2  0
 72 91  1  0
 73 76  1  0
 73 72  1  0
 74 75  1  0
 74 71  1  0
 75 73  2  0
 76 77  1  0
 77 78  2  0
 79 82  1  0
 79 78  1  0
 80 79  2  0
 81 80  1  0
 81 76  2  0
 82 83  1  0
 83 84  1  0
 84 85  2  0
 86 85  1  0
 86 90  1  0
 87 86  2  0
 88 83  2  0
 88 87  1  0
 89 88  1  0
 91 92  1  0
 92 94  1  0
 92 95  1  0
 93 91  2  0
 96 71  1  0
 96 97  1  0
 98 96  1  0
M  ISO  4   9 101  10 101  61 100  69 100
M  END
>  <TORSDO>  (21) 
F 20

>  <SCORE>  (21) 
-12.850

>  <name>  (21) 
20

>  <ligand_id>  (21) 
20

>  <original_smiles>  (21) 
[H]c1c([H])c([H])c2c(c1[H])C([H])([H])C([H])([H])C([H])([H])C2([H])N([H])C(=O)C1([H])N(C(=O)C([H])(N([H])C(=O)C([H])(N([H])C([H])([H])[H])C([H])([H])[H])C(C([H])([H])[H])(C([H])([H])[H])C([H])([H])[H])C([H])([H])c2c([H])c(OC([H])([H])c3c([H])c(C([H])([H])[H])c(C([H])([H])Oc4c([H])c(C([H])([H])[H])c([H])c(C([H])([H])[H])c4N([H])C(=O)N4C([H])([H])C([H])([H])C([H])([H])C([H])(n5nc(-c6c([H])c([H])c(Oc7c([H])c([H])c(F)c([H])c7F)c([H])c6[H])c(C(=O)N([H])[H])c5N([H])[H])C4([H])[H])c([H])c3C([H])([H])[H])c([H])c([H])c2C1([H])[H]

>  <smiles>  (21) 
[H]c1c([H])c([H])c2c(c1[H])C([H])([H])C([H])([H])C([H])([H])C2([H])N([H])C(=O)C1([H])N(C(=O)C([H])(N([H])C(=O)C([H])(N([H])C([H])([H])[H])C([H])([H])[H])C(C([H])([H])[H])(C([H])([H])[H])C([H])([H])[H])C([H])([H])c2c([H])c(OC([H])([H])c3c([H])c(C([H])([H])[H])c(C([H])([H])Oc4c([H])c(C([H])([H])[H])c([H])c(C([H])([H])[H])c4N([H])C(=O)N4C([H])([H])C([H])([H])C([H])([H])C([H])(n5nc(-c6c([H])c([H])c(Oc7c([H])c([H])c(F)c([H])c7F)c([H])c6[H])c(C(=O)N([H])[H])c5N([H])[H])C4([H])[H])c([H])c3C([H])([H])[H])c([H])c([H])c2C1([H])[H]

$$$$
21:0:0
     RDKit          3D

 94103  0  0  1  0  0  0  0  0999 V2000
  -29.6900  -21.0180   19.7100 C   0  0  0  0  0  2  0  0  0  0  0  0
  -30.1300  -21.2080   22.1440 C   0  0  0  0  0  2  0  0  0  0  0  0
  -29.6530  -22.5640   19.5950 C   0  0  0  0  0  2  0  0  0  0  0  0
  -30.1020  -22.7480   22.0290 C   0  0  0  0  0  2  0  0  0  0  0  0
  -30.6440  -20.5900   20.8380 C   0  0  0  0  0  3  0  0  0  0  0  0
  -29.2900  -23.2430   20.8780 N   0  0  1  0  0  4  0  0  0  0  0  0
  -28.3330  -22.9940   21.0880 H   0  0  0  0  0  0  0  0  0  0  0  0
  -31.9790  -17.2100   21.2680 C   0  0  0  0  0  3  0  0  0  0  0  0
  -29.9700  -18.1110   20.7210 C   0  0  0  0  0  3  0  0  0  0  0  0
  -30.6480  -16.9290   20.8650 C   0  0  0  0  0  0  0  0  0  0  0  0
  -32.1050  -18.5700   21.3190 C   0  0  0  0  0  0  0  0  0  0  0  0
  -33.3090  -19.3840   21.6830 C   0  0  0  0  0  1  0  0  0  0  0  0
  -30.8860  -19.1420   20.9420 N   0  0  0  0  0  0  0  0  0  0  0  0
  -30.7580  -14.5930   20.0840 C   0  0  0  0  0  0  0  0  0  0  0  0
  -30.3830  -12.4460   18.9310 C   0  0  0  0  0  2  0  0  0  0  0  0
  -29.3760  -12.6470   17.7820 C   0  0  0  0  0  2  0  0  0  0  0  0
  -27.9320  -12.4970   18.2950 C   0  0  0  0  0  2  0  0  0  0  0  0
  -27.6580  -13.3310   19.5750 C   0  0  0  0  0  3  0  0  0  0  0  0
  -28.7750  -13.1250   20.6220 C   0  0  0  0  0  2  0  0  0  0  0  0
  -30.0610  -13.4300   19.9770 N   0  0  0  0  0  0  0  0  0  0  0  0
  -31.8560  -14.7560   19.5420 O   0  0  0  0  0  0  0  0  0  0  0  0
  -30.1120  -15.6220   20.6710 N   0  0  0  0  0  0  0  0  0  0  0  0
  -29.1470  -15.4670   20.9180 H   0  0  0  0  0  0  0  0  0  0  0  0
  -25.3100  -13.9170   20.4470 C   0  0  0  0  0  0  0  0  0  0  0  0
  -24.2640  -13.1340   20.8580 C   0  0  0  0  0  0  0  0  0  0  0  0
  -24.7200  -11.7840   20.7590 C   0  0  0  0  0  0  0  0  0  0  0  0
  -26.3370  -13.0430   20.1280 N   0  0  0  0  0  0  0  0  0  0  0  0
  -25.9890  -11.7530   20.3720 N   0  0  0  0  0  0  0  0  0  0  0  0
  -24.0040  -10.5160   20.9560 C   0  0  0  0  0  0  0  0  0  0  0  0
  -24.4480   -9.5540   21.8890 C   0  0  0  0  0  3  0  0  0  0  0  0
  -23.7330   -8.3510   22.0730 C   0  0  0  0  0  3  0  0  0  0  0  0
  -22.5590   -8.1030   21.3220 C   0  0  0  0  0  0  0  0  0  0  0  0
  -22.1340   -9.0550   20.3790 C   0  0  0  0  0  3  0  0  0  0  0  0
  -22.8500  -10.2490   20.1930 C   0  0  0  0  0  3  0  0  0  0  0  0
  -21.8140   -6.9520   21.4150 O   0  0  0  0  0  0  0  0  0  0  0  0
  -21.7310   -6.2410   22.5860 C   0  0  0  0  0  0  0  0  0  0  0  0
  -21.1950   -6.8050   23.7640 C   0  0  0  0  0  3  0  0  0  0  0  0
  -21.0650   -6.0170   24.9260 C   0  0  0  0  0  3  0  0  0  0  0  0
  -21.4590   -4.6660   24.9080 C   0  0  0  0  0  0  0  0  0  0  0  0
  -21.9870   -4.1010   23.7340 C   0  0  0  0  0  3  0  0  0  0  0  0
  -22.1200   -4.8860   22.5750 C   0  0  0  0  0  0  0  0  0  0  0  0
  -22.6100   -4.3310   21.4400 F   0  0  0  0  0  0  0  0  0  0  0  0
  -21.3270   -3.9060   26.0210 F   0  0  0  0  0  0  0  0  0  0  0  0
  -22.8870  -13.6040   21.2290 C   0  0  0  0  0  0  0  0  0  0  0  0
  -22.2050  -12.8720   22.1040 N   0  0  0  0  0  0  0  0  0  0  0  0
  -22.4260  -14.6520   20.7800 O   0  0  0  0  0  0  0  0  0  0  0  0
  -22.5920  -12.0240   22.4900 H   0  0  0  0  0  0  0  0  0  0  0  0
  -21.2840  -13.1670   22.3950 H   0  0  0  0  0  0  0  0  0  0  0  0
  -25.4660  -15.2920   20.2970 N   0  0  0  0  0  0  0  0  0  0  0  0
  -24.7080  -15.9430   20.4670 H   0  0  0  0  0  0  0  0  0  0  0  0
  -26.2930  -15.7380   19.9180 H   0  0  0  0  0  0  0  0  0  0  0  0
  -29.3430  -24.7390   20.7840 C   0  0  0  0  0  2  0  0  0  0  0  0
  -28.1710  -25.3740   20.0030 C   0  0  0  0  0  2  0  0  0  0  0  0
  -28.2720  -26.8100   20.0430 O   0  0  0  0  0  0  0  0  0  0  0  0
  -24.5270  -31.9730   23.1850 C   0  0  0  0  0  0  0  0  0  0  0  0
  -27.0950  -27.5330   20.0360 C   0  0  0  0  0  0  0  0  0  0  0  0
  -23.2800  -30.5700   21.5740 C   0  0  0  0  0  3  0  0  0  0  0  0
  -24.6990  -29.0390   20.1080 C   0  0  0  0  0  0  0  0  0  0  0  0
  -25.7990  -30.9340   21.3090 C   0  0  0  0  0  2  0  0  0  0  0  0
  -25.8700  -29.5640   20.6650 C   0  0  0  0  0  0  0  0  0  0  0  0
  -27.0720  -28.8190   20.6240 C   0  0  0  0  0  3  0  0  0  0  0  0
  -25.9050  -27.0290   19.4610 C   0  0  0  0  0  3  0  0  0  0  0  0
  -24.7100  -27.7710   19.5020 C   0  0  0  0  0  3  0  0  0  0  0  0
  -23.4540  -29.8940   20.1880 C   0  0  0  0  0  2  0  0  0  0  0  0
  -24.5560  -31.1730   22.0810 N   0  0  0  0  0  0  0  0  0  0  0  0
  -23.4600  -32.2420   23.7530 O   0  0  0  0  0  0  0  0  0  0  0  0
  -22.6590  -29.5450   22.5490 C   0  0  0  0  0  0  0  0  0  0  0  0
  -21.3410  -29.3180   22.4180 N   0  0  0  0  0  0  0  0  0  0  0  0
  -23.3570  -28.9570   23.3790 O   0  0  0  0  0  0  0  0  0  0  0  0
  -20.8380  -29.8470   21.7200 H   0  0  0  0  0  0  0  0  0  0  0  0
  -18.0030  -28.0270   22.9160 C   0  0  0  0  0  0  0  0  0  0  0  0
  -20.5490  -28.3700   23.2010 C   0  0  0  0  0  3  0  0  0  0  0  0
  -20.7010  -26.9320   22.6520 C   0  0  0  0  0  2  0  0  0  0  0  0
  -19.6160  -26.5570   21.6360 C   0  0  0  0  0  2  0  0  0  0  0  0
  -18.2260  -26.6710   22.2680 C   0  0  0  0  0  2  0  0  0  0  0  0
  -19.0950  -28.8310   23.3390 C   0  0  0  0  0  0  0  0  0  0  0  0
  -18.8330  -30.0990   23.9050 C   0  0  0  0  0  3  0  0  0  0  0  0
  -17.5130  -30.5640   24.0500 C   0  0  0  0  0  3  0  0  0  0  0  0
  -16.4350  -29.7580   23.6440 C   0  0  0  0  0  3  0  0  0  0  0  0
  -16.6810  -28.4910   23.0830 C   0  0  0  0  0  3  0  0  0  0  0  0
  -25.8280  -32.6050   23.7710 C   0  0  0  0  0  3  0  0  0  0  0  0
  -26.3980  -31.8160   25.0130 C   0  0  1  0  0  0  0  0  0  0  0  0
  -25.3340  -31.5060   26.0940 C   0  0  0  0  0  1  0  0  0  0  0  0
  -27.0230  -30.4740   24.5680 C   0  0  0  0  0  1  0  0  0  0  0  0
  -27.5310  -32.6340   25.6780 C   0  0  0  0  0  1  0  0  0  0  0  0
  -25.5190  -33.9940   24.1330 N   0  0  0  0  0  0  0  0  0  0  0  0
  -25.8210  -35.0610   23.3800 C   0  0  0  0  0  0  0  0  0  0  0  0
  -26.4610  -34.9790   22.3290 O   0  0  0  0  0  0  0  0  0  0  0  0
  -24.9470  -34.1320   24.9530 H   0  0  0  0  0  0  0  0  0  0  0  0
  -24.0790  -36.8510   23.0920 C   0  0  0  0  0  1  0  0  0  0  0  0
  -25.3370  -36.4380   23.8740 C   0  0  0  0  0  3  0  0  0  0  0  0
  -27.4750  -37.3220   24.6920 C   0  0  0  0  0  1  0  0  0  0  0  0
  -26.3630  -37.4970   23.7620 N   0  0  0  0  0  0  0  0  0  0  0  0
  -25.9540  -38.4130   23.9250 H   0  0  0  0  0  0  0  0  0  0  0  0
  3  1  1  0
  3  6  1  0
  4  2  1  0
  5  1  1  0
  5 13  1  0
  5  2  1  0
  6  7  1  1
  6  4  1  0
  8 11  2  0
  9 10  2  0
  9 13  1  0
 10  8  1  0
 11 12  1  0
 13 11  1  0
 14 22  1  0
 15 20  1  0
 16 17  1  0
 16 15  1  0
 18 17  1  0
 18 27  1  0
 18 19  1  0
 20 14  1  0
 20 19  1  0
 21 14  2  0
 22 10  1  0
 22 23  1  0
 24 25  2  0
 25 44  1  0
 26 25  1  0
 26 29  1  0
 27 28  1  0
 27 24  1  0
 28 26  2  0
 29 30  1  0
 30 31  2  0
 32 35  1  0
 32 31  1  0
 33 32  2  0
 34 33  1  0
 34 29  2  0
 35 36  1  0
 36 37  1  0
 37 38  2  0
 39 38  1  0
 39 43  1  0
 40 39  2  0
 41 36  2  0
 41 40  1  0
 42 41  1  0
 44 45  1  0
 45 48  1  0
 45 47  1  0
 46 44  2  0
 49 24  1  0
 49 50  1  0
 51 49  1  0
 52  6  1  0
 53 54  1  0
 53 52  1  0
 55 66  2  0
 56 54  1  0
 56 61  1  0
 57 65  1  0
 57 67  1  0
 58 64  1  0
 58 60  1  0
 59 65  1  0
 60 59  1  0
 61 60  2  0
 62 63  1  0
 62 56  2  0
 63 58  2  0
 64 57  1  0
 65 55  1  0
 67 69  2  0
 68 67  1  0
 70 68  1  0
 71 80  2  0
 71 76  1  0
 72 68  1  0
 72 76  1  0
 73 72  1  0
 74 75  1  0
 74 73  1  0
 75 71  1  0
 76 77  2  0
 77 78  1  0
 79 78  2  0
 80 79  1  0
 81 55  1  0
 81 86  1  0
 81 82  1  0
 82 85  1  1
 82 83  1  0
 84 82  1  0
 86 89  1  0
 87 91  1  0
 87 86  1  0
 88 87  2  0
 91 90  1  0
 93 91  1  0
 93 94  1  0
 93 92  1  0
M  ISO  4  14 100  22 100  53 101  54 101
M  END
>  <TORSDO>  (22) 
F 19

>  <SCORE>  (22) 
-14.090

>  <name>  (22) 
21

>  <ligand_id>  (22) 
21

>  <original_smiles>  (22) 
[H]c1c([H])c([H])c2c(c1[H])C([H])([H])C([H])([H])C([H])([H])C2([H])N([H])C(=O)C1([H])N(C(=O)C([H])(N([H])C(=O)C([H])(N([H])C([H])([H])[H])C([H])([H])[H])C(C([H])([H])[H])(C([H])([H])[H])C([H])([H])[H])C([H])([H])c2c([H])c(OC([H])([H])C([H])([H])[N+]3([H])C([H])([H])C([H])([H])C([H])(n4c([H])c(N([H])C(=O)N5C([H])([H])C([H])([H])C([H])([H])C([H])(n6nc(-c7c([H])c([H])c(Oc8c([H])c([H])c(F)c([H])c8F)c([H])c7[H])c(C(=O)N([H])[H])c6N([H])[H])C5([H])[H])c([H])c4C([H])([H])[H])C([H])([H])C3([H])[H])c([H])c([H])c2C1([H])[H]

>  <smiles>  (22) 
[H]c1c([H])c([H])c2c(c1[H])C([H])([H])C([H])([H])C([H])([H])C2([H])N([H])C(=O)C1([H])N(C(=O)C([H])(N([H])C(=O)C([H])(N([H])C([H])([H])[H])C([H])([H])[H])C(C([H])([H])[H])(C([H])([H])[H])C([H])([H])[H])C([H])([H])c2c([H])c(OC([H])([H])C([H])([H])[N+]3([H])C([H])([H])C([H])([H])C([H])(n4c([H])c(N([H])C(=O)N5C([H])([H])C([H])([H])C([H])([H])C([H])(n6nc(-c7c([H])c([H])c(Oc8c([H])c([H])c(F)c([H])c8F)c([H])c7[H])c(C(=O)N([H])[H])c6N([H])[H])C5([H])[H])c([H])c4C([H])([H])[H])C([H])([H])C3([H])[H])c([H])c([H])c2C1([H])[H]

$$$$
22:0:0
     RDKit          3D

 96106  0  0  1  0  0  0  0  0999 V2000
  -31.8450  -23.2460   20.3510 C   0  0  0  0  0  3  0  0  0  0  0  0
  -30.0550  -21.8000   21.0710 C   0  0  0  0  0  3  0  0  0  0  0  0
  -30.5390  -23.1110   20.8730 C   0  0  0  0  0  0  0  0  0  0  0  0
  -32.5810  -22.0950   20.0320 C   0  0  0  0  0  0  0  0  0  0  0  0
  -30.8640  -20.6900   20.7440 C   0  0  0  0  0  0  0  0  0  0  0  0
  -32.1000  -20.8530   20.2240 N   0  0  0  0  0  0  0  0  0  0  0  0
  -35.1570  -21.6640   20.1970 C   0  0  0  0  0  2  0  0  0  0  0  0
  -34.9830  -23.1430   19.9470 C   0  0  0  0  0  2  0  0  0  0  0  0
  -33.9520  -22.1630   19.4340 C   0  0  0  0  0  3  0  0  0  0  0  0
  -29.7200  -24.1830   21.1860 O   0  0  0  0  0  0  0  0  0  0  0  0
  -30.2680  -25.5040   21.0650 C   0  0  0  0  0  2  0  0  0  0  0  0
  -29.2100  -26.6060   21.2690 C   0  0  0  0  0  2  0  0  0  0  0  0
  -28.4310  -26.7330   20.0810 O   0  0  0  0  0  0  0  0  0  0  0  0
  -24.5980  -31.8880   23.2490 C   0  0  0  0  0  0  0  0  0  0  0  0
  -27.2910  -27.4990   20.1540 C   0  0  0  0  0  0  0  0  0  0  0  0
  -23.4050  -30.4860   21.5950 C   0  0  0  0  0  3  0  0  0  0  0  0
  -24.8770  -28.9690   20.1660 C   0  0  0  0  0  0  0  0  0  0  0  0
  -25.9240  -30.8700   21.4040 C   0  0  0  0  0  2  0  0  0  0  0  0
  -26.0250  -29.5000   20.7680 C   0  0  0  0  0  0  0  0  0  0  0  0
  -27.2340  -28.7710   20.7710 C   0  0  0  0  0  3  0  0  0  0  0  0
  -26.1320  -26.9830   19.5400 C   0  0  0  0  0  3  0  0  0  0  0  0
  -24.9230  -27.7050   19.5520 C   0  0  0  0  0  3  0  0  0  0  0  0
  -23.6220  -29.8120   20.2130 C   0  0  0  0  0  2  0  0  0  0  0  0
  -24.6600  -31.0960   22.1410 N   0  0  0  0  0  0  0  0  0  0  0  0
  -23.5150  -32.1480   23.7900 O   0  0  0  0  0  0  0  0  0  0  0  0
  -22.7600  -29.4550   22.5480 C   0  0  0  0  0  0  0  0  0  0  0  0
  -21.4380  -29.2610   22.4150 N   0  0  0  0  0  0  0  0  0  0  0  0
  -23.4470  -28.8320   23.3630 O   0  0  0  0  0  0  0  0  0  0  0  0
  -20.9450  -29.8160   21.7280 H   0  0  0  0  0  0  0  0  0  0  0  0
  -18.0710  -28.0450   22.8950 C   0  0  0  0  0  0  0  0  0  0  0  0
  -20.6260  -28.3130   23.1770 C   0  0  0  0  0  3  0  0  0  0  0  0
  -20.7380  -26.8870   22.5910 C   0  0  0  0  0  2  0  0  0  0  0  0
  -19.6420  -26.5660   21.5700 C   0  0  0  0  0  2  0  0  0  0  0  0
  -18.2570  -26.7010   22.2090 C   0  0  0  0  0  2  0  0  0  0  0  0
  -19.1840  -28.8080   23.3340 C   0  0  0  0  0  0  0  0  0  0  0  0
  -18.9580  -30.0670   23.9330 C   0  0  0  0  0  3  0  0  0  0  0  0
  -17.6510  -30.5610   24.0960 C   0  0  0  0  0  3  0  0  0  0  0  0
  -16.5510  -29.7940   23.6760 C   0  0  0  0  0  3  0  0  0  0  0  0
  -16.7620  -28.5360   23.0810 C   0  0  0  0  0  3  0  0  0  0  0  0
  -25.8800  -32.5230   23.8740 C   0  0  0  0  0  3  0  0  0  0  0  0
  -25.5690  -33.9200   24.1970 N   0  0  0  0  0  0  0  0  0  0  0  0
  -25.9040  -34.9710   23.4350 C   0  0  0  0  0  0  0  0  0  0  0  0
  -26.5810  -34.8640   22.4070 O   0  0  0  0  0  0  0  0  0  0  0  0
  -24.9690  -34.0780   24.9940 H   0  0  0  0  0  0  0  0  0  0  0  0
  -24.1750  -36.7570   23.0610 C   0  0  0  0  0  1  0  0  0  0  0  0
  -25.4110  -36.3590   23.8840 C   0  0  0  0  0  3  0  0  0  0  0  0
  -27.5400  -37.2480   24.7250 C   0  0  0  0  0  1  0  0  0  0  0  0
  -26.4420  -37.4140   23.7750 N   0  0  0  0  0  0  0  0  0  0  0  0
  -26.0330  -38.3330   23.9210 H   0  0  0  0  0  0  0  0  0  0  0  0
  -26.3970  -31.7540   25.1510 C   0  0  1  0  0  0  0  0  0  0  0  0
  -25.3000  -31.5160   26.2160 C   0  0  0  0  0  1  0  0  0  0  0  0
  -26.9840  -30.3780   24.7610 C   0  0  0  0  0  1  0  0  0  0  0  0
  -27.5430  -32.5520   25.8150 C   0  0  0  0  0  1  0  0  0  0  0  0
  -30.4060  -19.3960   20.9670 O   0  0  0  0  0  0  0  0  0  0  0  0
  -30.5740  -14.5120   20.1430 C   0  0  0  0  0  0  0  0  0  0  0  0
  -30.1800  -12.3910   18.9590 C   0  0  0  0  0  2  0  0  0  0  0  0
  -29.1810  -12.6450   17.8120 C   0  0  0  0  0  2  0  0  0  0  0  0
  -27.7310  -12.5030   18.3140 C   0  0  0  0  0  2  0  0  0  0  0  0
  -27.4660  -13.3000   19.6190 C   0  0  0  0  0  3  0  0  0  0  0  0
  -28.5790  -13.0580   20.6640 C   0  0  0  0  0  2  0  0  0  0  0  0
  -29.8720  -13.3530   20.0250 N   0  0  0  0  0  0  0  0  0  0  0  0
  -31.6920  -14.6700   19.6430 O   0  0  0  0  0  0  0  0  0  0  0  0
  -31.4570  -17.2530   21.6100 C   0  0  0  0  0  2  0  0  0  0  0  0
  -30.3850  -17.6090   19.2970 C   0  0  0  0  0  2  0  0  0  0  0  0
  -30.3300  -16.2320   21.8870 C   0  0  0  0  0  2  0  0  0  0  0  0
  -29.3240  -16.5760   19.7390 C   0  0  0  0  0  2  0  0  0  0  0  0
  -31.1470  -18.2580   20.4740 C   0  0  0  0  0  3  0  0  0  0  0  0
  -29.8930  -15.5710   20.6510 N   0  0  0  0  0  0  0  0  0  0  0  0
  -25.1080  -13.8970   20.4560 C   0  0  0  0  0  0  0  0  0  0  0  0
  -24.0590  -13.1180   20.8630 C   0  0  0  0  0  0  0  0  0  0  0  0
  -24.5160  -11.7680   20.7860 C   0  0  0  0  0  0  0  0  0  0  0  0
  -26.1390  -13.0190   20.1600 N   0  0  0  0  0  0  0  0  0  0  0  0
  -25.7890  -11.7320   20.4140 N   0  0  0  0  0  0  0  0  0  0  0  0
  -23.8000  -10.5030   20.9890 C   0  0  0  0  0  0  0  0  0  0  0  0
  -24.2650   -9.5300   21.9010 C   0  0  0  0  0  3  0  0  0  0  0  0
  -23.5490   -8.3280   22.0930 C   0  0  0  0  0  3  0  0  0  0  0  0
  -22.3540   -8.0920   21.3730 C   0  0  0  0  0  0  0  0  0  0  0  0
  -21.9090   -9.0530   20.4480 C   0  0  0  0  0  3  0  0  0  0  0  0
  -22.6250  -10.2450   20.2540 C   0  0  0  0  0  3  0  0  0  0  0  0
  -21.6060   -6.9430   21.4740 O   0  0  0  0  0  0  0  0  0  0  0  0
  -21.5810   -6.2010   22.6270 C   0  0  0  0  0  0  0  0  0  0  0  0
  -21.1720   -6.7520   23.8620 C   0  0  0  0  0  3  0  0  0  0  0  0
  -21.0970   -5.9350   25.0070 C   0  0  0  0  0  3  0  0  0  0  0  0
  -21.4190   -4.5660   24.9190 C   0  0  0  0  0  0  0  0  0  0  0  0
  -21.8190   -4.0140   23.6890 C   0  0  0  0  0  3  0  0  0  0  0  0
  -21.8980   -4.8300   22.5470 C   0  0  0  0  0  0  0  0  0  0  0  0
  -22.2640   -4.2870   21.3600 F   0  0  0  0  0  0  0  0  0  0  0  0
  -21.3380   -3.7800   26.0170 F   0  0  0  0  0  0  0  0  0  0  0  0
  -22.6760  -13.5900   21.2130 C   0  0  0  0  0  0  0  0  0  0  0  0
  -21.9900  -12.8720   22.0950 N   0  0  0  0  0  0  0  0  0  0  0  0
  -22.2170  -14.6300   20.7420 O   0  0  0  0  0  0  0  0  0  0  0  0
  -22.3750  -12.0300   22.4970 H   0  0  0  0  0  0  0  0  0  0  0  0
  -21.0640  -13.1670   22.3720 H   0  0  0  0  0  0  0  0  0  0  0  0
  -25.2700  -15.2690   20.2950 N   0  0  0  0  0  0  0  0  0  0  0  0
  -24.5190  -15.9300   20.4620 H   0  0  0  0  0  0  0  0  0  0  0  0
  -26.1220  -15.7070   19.9680 H   0  0  0  0  0  0  0  0  0  0  0  0
  1  3  1  0
  3  2  2  0
  3 10  1  0
  4  6  1  0
  4  1  2  0
  5 54  1  0
  5  2  1  0
  6  5  2  0
  8  7  1  0
  9  8  1  0
  9  4  1  0
  9  7  1  0
 11 10  1  0
 11 12  1  0
 13 15  1  0
 13 12  1  0
 14 25  2  0
 15 20  1  0
 16 24  1  0
 16 26  1  0
 17 23  1  0
 17 19  1  0
 18 24  1  0
 19 20  2  0
 19 18  1  0
 21 22  1  0
 21 15  2  0
 22 17  2  0
 23 16  1  0
 24 14  1  0
 26 28  2  0
 27 26  1  0
 29 27  1  0
 30 39  2  0
 30 35  1  0
 31 27  1  0
 31 35  1  0
 32 31  1  0
 33 34  1  0
 33 32  1  0
 34 30  1  0
 35 36  2  0
 36 37  1  0
 38 37  2  0
 39 38  1  0
 40 14  1  0
 40 41  1  0
 40 50  1  0
 41 44  1  0
 42 46  1  0
 42 41  1  0
 43 42  2  0
 46 45  1  0
 48 46  1  0
 48 49  1  0
 48 47  1  0
 50 53  1  1
 50 51  1  0
 52 50  1  0
 55 68  1  0
 56 61  1  0
 57 58  1  0
 57 56  1  0
 59 58  1  0
 59 72  1  0
 59 60  1  0
 61 55  1  0
 61 60  1  0
 62 55  2  0
 63 65  1  0
 64 66  1  0
 64 67  1  0
 66 68  1  0
 67 54  1  0
 67 63  1  0
 68 65  1  0
 69 70  2  0
 70 89  1  0
 71 70  1  0
 71 74  1  0
 72 73  1  0
 72 69  1  0
 73 71  2  0
 74 75  1  0
 75 76  2  0
 77 80  1  0
 77 76  1  0
 78 77  2  0
 79 78  1  0
 79 74  2  0
 80 81  1  0
 81 82  1  0
 82 83  2  0
 84 83  1  0
 84 88  1  0
 85 84  2  0
 86 81  2  0
 86 85  1  0
 87 86  1  0
 89 90  1  0
 90 93  1  0
 90 92  1  0
 91 89  2  0
 94 69  1  0
 94 95  1  0
 96 94  1  0
M  ISO  4  12 101  13 101  55 100  68 100
M  END
>  <TORSDO>  (23) 
F 21

>  <SCORE>  (23) 
-13.676

>  <name>  (23) 
22

>  <ligand_id>  (23) 
22

>  <original_smiles>  (23) 
[H]c1c([H])c([H])c2c(c1[H])C([H])([H])C([H])([H])C([H])([H])C2([H])N([H])C(=O)C1([H])N(C(=O)C([H])(N([H])C(=O)C([H])(N([H])C([H])([H])[H])C([H])([H])[H])C(C([H])([H])[H])(C([H])([H])[H])C([H])([H])[H])C([H])([H])c2c([H])c(OC([H])([H])C([H])([H])Oc3c([H])c(OC4([H])C([H])([H])C([H])([H])N(C(=O)N5C([H])([H])C([H])([H])C([H])([H])C([H])(n6nc(-c7c([H])c([H])c(Oc8c([H])c([H])c(F)c([H])c8F)c([H])c7[H])c(C(=O)N([H])[H])c6N([H])[H])C5([H])[H])C([H])([H])C4([H])[H])nc(C4([H])C([H])([H])C4([H])[H])c3[H])c([H])c([H])c2C1([H])[H]

>  <smiles>  (23) 
[H]c1c([H])c([H])c2c(c1[H])C([H])([H])C([H])([H])C([H])([H])C2([H])N([H])C(=O)C1([H])N(C(=O)C([H])(N([H])C(=O)C([H])(N([H])C([H])([H])[H])C([H])([H])[H])C(C([H])([H])[H])(C([H])([H])[H])C([H])([H])[H])C([H])([H])c2c([H])c(OC([H])([H])C([H])([H])Oc3c([H])c(OC4([H])C([H])([H])C([H])([H])N(C(=O)N5C([H])([H])C([H])([H])C([H])([H])C([H])(n6nc(-c7c([H])c([H])c(Oc8c([H])c([H])c(F)c([H])c8F)c([H])c7[H])c(C(=O)N([H])[H])c6N([H])[H])C5([H])[H])C([H])([H])C4([H])[H])nc(C4([H])C([H])([H])C4([H])[H])c3[H])c([H])c([H])c2C1([H])[H]

$$$$
23:0:0
     RDKit          3D

 94103  0  0  1  0  0  0  0  0999 V2000
  -29.8640  -22.9980   20.3780 C   0  0  0  0  0  3  0  0  0  0  0  0
  -27.9940  -22.7320   18.9440 C   0  0  0  0  0  3  0  0  0  0  0  0
  -28.8730  -23.6580   19.5830 C   0  0  0  0  0  0  0  0  0  0  0  0
  -30.0040  -21.5600   20.4800 C   0  0  0  0  0  0  0  0  0  0  0  0
  -28.1220  -21.2940   19.0310 C   0  0  0  0  0  0  0  0  0  0  0  0
  -29.1500  -20.6390   19.7860 C   0  0  0  0  0  0  0  0  0  0  0  0
  -31.1480  -21.0130   21.3150 C   0  0  0  0  0  1  0  0  0  0  0  0
  -27.1280  -20.4470   18.2520 C   0  0  0  0  0  1  0  0  0  0  0  0
  -30.8130  -14.8570   19.5160 C   0  0  0  0  0  0  0  0  0  0  0  0
  -30.3970  -12.5910   18.5250 C   0  0  0  0  0  2  0  0  0  0  0  0
  -29.3180  -12.6570   17.4260 C   0  0  0  0  0  2  0  0  0  0  0  0
  -27.9230  -12.4730   18.0490 C   0  0  0  0  0  2  0  0  0  0  0  0
  -27.7080  -13.3630   19.3040 C   0  0  0  0  0  3  0  0  0  0  0  0
  -28.9060  -13.3030   20.2730 C   0  0  0  0  0  2  0  0  0  0  0  0
  -30.0930  -13.6740   19.4980 N   0  0  0  0  0  0  0  0  0  0  0  0
  -31.9680  -14.8150   19.0820 O   0  0  0  0  0  0  0  0  0  0  0  0
  -29.9130  -18.5440   18.5670 C   0  0  0  0  0  2  0  0  0  0  0  0
  -30.8150  -17.2740   18.8380 C   0  0  0  0  0  2  0  0  0  0  0  0
  -29.2620  -16.6900   20.6020 C   0  0  0  0  0  2  0  0  0  0  0  0
  -29.3660  -18.2650   20.9400 C   0  0  0  0  0  3  0  0  0  0  0  0
  -28.3020  -18.6550   21.9800 C   0  0  0  0  0  1  0  0  0  0  0  0
  -29.3370  -19.1810   19.7650 N   0  0  0  0  0  0  0  0  0  0  0  0
  -30.1930  -16.1260   19.5720 N   0  0  0  0  0  0  0  0  0  0  0  0
  -25.4840  -13.9450   20.4270 C   0  0  0  0  0  0  0  0  0  0  0  0
  -24.4560  -13.1710   20.8920 C   0  0  0  0  0  0  0  0  0  0  0  0
  -24.8580  -11.8150   20.6890 C   0  0  0  0  0  0  0  0  0  0  0  0
  -26.4460  -13.0630   19.9710 N   0  0  0  0  0  0  0  0  0  0  0  0
  -26.0890  -11.7710   20.1920 N   0  0  0  0  0  0  0  0  0  0  0  0
  -24.1170  -10.5610   20.8860 C   0  0  0  0  0  0  0  0  0  0  0  0
  -24.5770   -9.5620   21.7710 C   0  0  0  0  0  3  0  0  0  0  0  0
  -23.8350   -8.3760   21.9580 C   0  0  0  0  0  3  0  0  0  0  0  0
  -22.6190   -8.1800   21.2610 C   0  0  0  0  0  0  0  0  0  0  0  0
  -22.1770   -9.1700   20.3650 C   0  0  0  0  0  3  0  0  0  0  0  0
  -22.9200  -10.3470   20.1750 C   0  0  0  0  0  3  0  0  0  0  0  0
  -21.8460   -7.0500   21.3620 O   0  0  0  0  0  0  0  0  0  0  0  0
  -21.7500   -6.3450   22.5350 C   0  0  0  0  0  0  0  0  0  0  0  0
  -21.2940   -6.9460   23.7290 C   0  0  0  0  0  3  0  0  0  0  0  0
  -21.1420   -6.1690   24.8950 C   0  0  0  0  0  3  0  0  0  0  0  0
  -21.4390   -4.7930   24.8690 C   0  0  0  0  0  0  0  0  0  0  0  0
  -21.8890   -4.1920   23.6800 C   0  0  0  0  0  3  0  0  0  0  0  0
  -22.0410   -4.9660   22.5160 C   0  0  0  0  0  0  0  0  0  0  0  0
  -22.4540   -4.3770   21.3670 F   0  0  0  0  0  0  0  0  0  0  0  0
  -21.2850   -4.0440   25.9860 F   0  0  0  0  0  0  0  0  0  0  0  0
  -23.1320  -13.6640   21.3980 C   0  0  0  0  0  0  0  0  0  0  0  0
  -22.5230  -12.9360   22.3290 N   0  0  0  0  0  0  0  0  0  0  0  0
  -22.6530  -14.7270   21.0070 O   0  0  0  0  0  0  0  0  0  0  0  0
  -22.9260  -12.0740   22.6650 H   0  0  0  0  0  0  0  0  0  0  0  0
  -21.6420  -13.2490   22.7110 H   0  0  0  0  0  0  0  0  0  0  0  0
  -25.6670  -15.3210   20.3320 N   0  0  0  0  0  0  0  0  0  0  0  0
  -24.9420  -15.9760   20.6030 H   0  0  0  0  0  0  0  0  0  0  0  0
  -26.4610  -15.7670   19.8930 H   0  0  0  0  0  0  0  0  0  0  0  0
  -28.8120  -25.4400   17.6420 C   0  0  0  0  0  1  0  0  0  0  0  0
  -28.9760  -25.2190   19.1580 C   0  0  0  0  0  3  0  0  0  0  0  0
  -28.6270  -26.4340   19.9900 O   0  0  0  0  0  0  0  0  0  0  0  0
  -24.5850  -31.6760   22.9820 C   0  0  0  0  0  0  0  0  0  0  0  0
  -27.4690  -27.2520   19.8890 C   0  0  0  0  0  0  0  0  0  0  0  0
  -23.4840  -30.2530   21.2920 C   0  0  0  0  0  3  0  0  0  0  0  0
  -25.0330  -28.7980   19.8590 C   0  0  0  0  0  0  0  0  0  0  0  0
  -26.0100  -30.6840   21.1660 C   0  0  0  0  0  2  0  0  0  0  0  0
  -26.1710  -29.3210   20.4890 C   0  0  0  0  0  0  0  0  0  0  0  0
  -27.3860  -28.5600   20.4900 C   0  0  0  0  0  3  0  0  0  0  0  0
  -26.2910  -26.7840   19.2680 C   0  0  0  0  0  3  0  0  0  0  0  0
  -25.1000  -27.5410   19.2380 C   0  0  0  0  0  3  0  0  0  0  0  0
  -23.7540  -29.6150   19.9040 C   0  0  0  0  0  2  0  0  0  0  0  0
  -24.7110  -30.8900   21.8690 N   0  0  0  0  0  0  0  0  0  0  0  0
  -23.4790  -31.8910   23.4990 O   0  0  0  0  0  0  0  0  0  0  0  0
  -22.8480  -29.1900   22.2190 C   0  0  0  0  0  0  0  0  0  0  0  0
  -21.5310  -28.9650   22.0750 N   0  0  0  0  0  0  0  0  0  0  0  0
  -23.5430  -28.5730   23.0310 O   0  0  0  0  0  0  0  0  0  0  0  0
  -21.0280  -29.5180   21.3950 H   0  0  0  0  0  0  0  0  0  0  0  0
  -18.1950  -27.6430   22.5500 C   0  0  0  0  0  0  0  0  0  0  0  0
  -20.7450  -27.9730   22.8120 C   0  0  0  0  0  3  0  0  0  0  0  0
  -20.8880  -26.5680   22.1820 C   0  0  0  0  0  2  0  0  0  0  0  0
  -19.7890  -26.2500   21.1620 C   0  0  0  0  0  2  0  0  0  0  0  0
  -18.4080  -26.3280   21.8170 C   0  0  0  0  0  2  0  0  0  0  0  0
  -19.2920  -28.4230   23.0020 C   0  0  0  0  0  0  0  0  0  0  0  0
  -19.0390  -29.6530   23.6450 C   0  0  0  0  0  3  0  0  0  0  0  0
  -17.7210  -30.1070   23.8390 C   0  0  0  0  0  3  0  0  0  0  0  0
  -16.6370  -29.3250   23.4020 C   0  0  0  0  0  3  0  0  0  0  0  0
  -16.8750  -28.0930   22.7650 C   0  0  0  0  0  3  0  0  0  0  0  0
  -25.8210  -32.3600   23.6430 C   0  0  0  0  0  3  0  0  0  0  0  0
  -25.4230  -33.7200   24.0340 N   0  0  0  0  0  0  0  0  0  0  0  0
  -25.6870  -34.8250   23.3230 C   0  0  0  0  0  0  0  0  0  0  0  0
  -26.3630  -34.8100   22.2900 O   0  0  0  0  0  0  0  0  0  0  0  0
  -24.8280  -33.8020   24.8460 H   0  0  0  0  0  0  0  0  0  0  0  0
  -23.8490  -36.5200   23.0460 C   0  0  0  0  0  1  0  0  0  0  0  0
  -25.1150  -36.1610   23.8400 C   0  0  0  0  0  3  0  0  0  0  0  0
  -27.1880  -37.1440   24.7140 C   0  0  0  0  0  1  0  0  0  0  0  0
  -26.0800  -37.2810   23.7740 N   0  0  0  0  0  0  0  0  0  0  0  0
  -25.6170  -38.1650   23.9570 H   0  0  0  0  0  0  0  0  0  0  0  0
  -26.3730  -31.5680   24.8920 C   0  0  1  0  0  0  0  0  0  0  0  0
  -25.2860  -31.2170   25.9350 C   0  0  0  0  0  1  0  0  0  0  0  0
  -27.0480  -30.2480   24.4530 C   0  0  0  0  0  1  0  0  0  0  0  0
  -27.4660  -32.4060   25.5980 C   0  0  0  0  0  1  0  0  0  0  0  0
  1  4  1  0
  2  5  2  0
  2  3  1  0
  3  1  2  0
  4  7  1  0
  5  6  1  0
  6  4  2  0
  8  5  1  0
  9 23  1  0
 10 15  1  0
 11 12  1  0
 11 10  1  0
 13 12  1  0
 13 27  1  0
 13 14  1  0
 15  9  1  0
 15 14  1  0
 16  9  2  0
 17 18  1  0
 17 22  1  0
 18 23  1  0
 19 20  1  0
 20 21  1  0
 22  6  1  0
 22 20  1  0
 23 19  1  0
 24 25  2  0
 25 44  1  0
 26 29  1  0
 26 25  1  0
 27 28  1  0
 27 24  1  0
 28 26  2  0
 29 30  1  0
 30 31  2  0
 32 35  1  0
 32 31  1  0
 33 32  2  0
 34 33  1  0
 34 29  2  0
 35 36  1  0
 36 37  1  0
 37 38  2  0
 39 38  1  0
 39 43  1  0
 40 39  2  0
 41 36  2  0
 41 40  1  0
 42 41  1  0
 44 45  1  0
 45 47  1  0
 45 48  1  0
 46 44  2  0
 49 24  1  0
 49 50  1  0
 51 49  1  0
 53 52  1  0
 53  3  1  0
 53 54  1  0
 55 66  2  0
 56 54  1  0
 56 61  1  0
 57 65  1  0
 57 67  1  0
 58 64  1  0
 58 60  1  0
 59 65  1  0
 60 61  2  0
 60 59  1  0
 62 56  2  0
 63 62  1  0
 63 58  2  0
 64 57  1  0
 65 55  1  0
 67 69  2  0
 68 67  1  0
 70 68  1  0
 71 80  2  0
 71 76  1  0
 72 68  1  0
 72 76  1  0
 73 72  1  0
 74 75  1  0
 74 73  1  0
 75 71  1  0
 76 77  2  0
 77 78  1  0
 79 78  2  0
 80 79  1  0
 81 55  1  0
 81 82  1  0
 81 91  1  0
 82 85  1  0
 83 87  1  0
 83 82  1  0
 84 83  2  0
 87 86  1  0
 89 87  1  0
 89 90  1  0
 89 88  1  0
 91 94  1  1
 91 92  1  0
 93 91  1  0
M  ISO  4   9 100  23 100  53 101  54 101
M  END
>  <TORSDO>  (24) 
F 17

>  <SCORE>  (24) 
-10.884

>  <name>  (24) 
23

>  <ligand_id>  (24) 
23

>  <original_smiles>  (24) 
[H]c1c([H])c([H])c2c(c1[H])C([H])([H])C([H])([H])C([H])([H])C2([H])N([H])C(=O)C1([H])N(C(=O)C([H])(N([H])C(=O)C([H])(N([H])C([H])([H])[H])C([H])([H])[H])C(C([H])([H])[H])(C([H])([H])[H])C([H])([H])[H])C([H])([H])c2c([H])c(OC([H])(c3c([H])c(C([H])([H])[H])c(N4C([H])([H])C([H])([H])N(C(=O)N5C([H])([H])C([H])([H])C([H])([H])C([H])(n6nc(-c7c([H])c([H])c(Oc8c([H])c([H])c(F)c([H])c8F)c([H])c7[H])c(C(=O)N([H])[H])c6N([H])[H])C5([H])[H])C([H])([H])C4([H])C([H])([H])[H])c(C([H])([H])[H])c3[H])C([H])([H])[H])c([H])c([H])c2C1([H])[H]

>  <smiles>  (24) 
[H]c1c([H])c([H])c2c(c1[H])C([H])([H])C([H])([H])C([H])([H])C2([H])N([H])C(=O)C1([H])N(C(=O)C([H])(N([H])C(=O)C([H])(N([H])C([H])([H])[H])C([H])([H])[H])C(C([H])([H])[H])(C([H])([H])[H])C([H])([H])[H])C([H])([H])c2c([H])c(OC([H])(c3c([H])c(C([H])([H])[H])c(N4C([H])([H])C([H])([H])N(C(=O)N5C([H])([H])C([H])([H])C([H])([H])C([H])(n6nc(-c7c([H])c([H])c(Oc8c([H])c([H])c(F)c([H])c8F)c([H])c7[H])c(C(=O)N([H])[H])c6N([H])[H])C5([H])[H])C([H])([H])C4([H])C([H])([H])[H])c(C([H])([H])[H])c3[H])C([H])([H])[H])c([H])c([H])c2C1([H])[H]

$$$$
24:0:0
     RDKit          3D

 93102  0  0  1  0  0  0  0  0999 V2000
  -29.7380  -21.8460   21.4450 C   0  0  0  0  0  3  0  0  0  0  0  0
  -30.0100  -21.3520   19.0970 C   0  0  0  0  0  3  0  0  0  0  0  0
  -30.0110  -19.4920   20.7260 C   0  0  0  0  0  0  0  0  0  0  0  0
  -29.8190  -22.3060   20.1190 C   0  0  0  0  0  0  0  0  0  0  0  0
  -29.8470  -20.4720   21.7530 C   0  0  0  0  0  0  0  0  0  0  0  0
  -30.1320  -19.9660   19.3810 C   0  0  0  0  0  0  0  0  0  0  0  0
  -29.8370  -20.1010   23.2330 C   0  0  0  0  0  1  0  0  0  0  0  0
  -30.4710  -19.0620   18.2020 C   0  0  0  0  0  1  0  0  0  0  0  0
  -30.9940  -14.6620   20.0330 C   0  0  0  0  0  0  0  0  0  0  0  0
  -30.6090  -12.4870   18.9420 C   0  0  0  0  0  2  0  0  0  0  0  0
  -29.6080  -12.6610   17.7840 C   0  0  0  0  0  2  0  0  0  0  0  0
  -28.1610  -12.5480   18.2980 C   0  0  0  0  0  2  0  0  0  0  0  0
  -27.8930  -13.3950   19.5730 C   0  0  0  0  0  3  0  0  0  0  0  0
  -29.0120  -13.2110   20.6220 C   0  0  0  0  0  2  0  0  0  0  0  0
  -30.2970  -13.4950   19.9640 N   0  0  0  0  0  0  0  0  0  0  0  0
  -32.0410  -14.8510   19.4060 O   0  0  0  0  0  0  0  0  0  0  0  0
  -31.5290  -17.6290   21.6830 C   0  0  0  0  0  2  0  0  0  0  0  0
  -31.3870  -16.1230   21.8930 C   0  0  0  0  0  2  0  0  0  0  0  0
  -29.8000  -16.8050   20.2430 C   0  0  0  0  0  2  0  0  0  0  0  0
  -30.1590  -18.0020   21.1520 C   0  0  0  0  0  3  0  0  0  0  0  0
  -30.4960  -15.6290   20.8310 N   0  0  0  0  0  0  0  0  0  0  0  0
  -25.5590  -13.9900   20.4760 C   0  0  0  0  0  0  0  0  0  0  0  0
  -24.5060  -13.2090   20.8780 C   0  0  0  0  0  0  0  0  0  0  0  0
  -24.9460  -11.8560   20.7460 C   0  0  0  0  0  0  0  0  0  0  0  0
  -26.5720  -13.1110   20.1300 N   0  0  0  0  0  0  0  0  0  0  0  0
  -26.2100  -11.8210   20.3490 N   0  0  0  0  0  0  0  0  0  0  0  0
  -24.2150  -10.5930   20.9220 C   0  0  0  0  0  0  0  0  0  0  0  0
  -24.5580   -9.6800   21.9420 C   0  0  0  0  0  3  0  0  0  0  0  0
  -23.8280   -8.4820   22.1020 C   0  0  0  0  0  3  0  0  0  0  0  0
  -22.7460   -8.1890   21.2410 C   0  0  0  0  0  0  0  0  0  0  0  0
  -22.4240   -9.0930   20.2120 C   0  0  0  0  0  3  0  0  0  0  0  0
  -23.1520  -10.2820   20.0510 C   0  0  0  0  0  3  0  0  0  0  0  0
  -21.9970   -7.0370   21.3050 O   0  0  0  0  0  0  0  0  0  0  0  0
  -21.6600   -6.4650   22.5050 C   0  0  0  0  0  0  0  0  0  0  0  0
  -20.8840   -7.1510   23.4640 C   0  0  0  0  0  3  0  0  0  0  0  0
  -20.4990   -6.5030   24.6550 C   0  0  0  0  0  3  0  0  0  0  0  0
  -20.8790   -5.1670   24.8850 C   0  0  0  0  0  0  0  0  0  0  0  0
  -21.6470   -4.4800   23.9290 C   0  0  0  0  0  3  0  0  0  0  0  0
  -22.0330   -5.1250   22.7400 C   0  0  0  0  0  0  0  0  0  0  0  0
  -22.7550   -4.4510   21.8140 F   0  0  0  0  0  0  0  0  0  0  0  0
  -20.5020   -4.5410   26.0240 F   0  0  0  0  0  0  0  0  0  0  0  0
  -23.1400  -13.6860   21.2760 C   0  0  0  0  0  0  0  0  0  0  0  0
  -22.4820  -12.9720   22.1840 N   0  0  0  0  0  0  0  0  0  0  0  0
  -22.6680  -14.7260   20.8170 O   0  0  0  0  0  0  0  0  0  0  0  0
  -22.8830  -12.1260   22.5670 H   0  0  0  0  0  0  0  0  0  0  0  0
  -21.5690  -13.2680   22.4970 H   0  0  0  0  0  0  0  0  0  0  0  0
  -25.7300  -15.3640   20.3600 N   0  0  0  0  0  0  0  0  0  0  0  0
  -24.9910  -16.0240   20.5760 H   0  0  0  0  0  0  0  0  0  0  0  0
  -26.5630  -15.8110   19.9970 H   0  0  0  0  0  0  0  0  0  0  0  0
  -29.8280  -23.8130   19.8240 C   0  0  0  0  0  2  0  0  0  0  0  0
  -28.5610  -24.3950   19.1470 C   0  0  0  0  0  2  0  0  0  0  0  0
  -28.7090  -25.8630   18.6480 C   0  0  0  0  0  2  0  0  0  0  0  0
  -28.5150  -26.8990   19.6330 O   0  0  0  0  0  0  0  0  0  0  0  0
  -24.5140  -31.6380   23.1830 C   0  0  0  0  0  0  0  0  0  0  0  0
  -27.2900  -27.5440   19.7180 C   0  0  0  0  0  0  0  0  0  0  0  0
  -23.3310  -30.2820   21.4860 C   0  0  0  0  0  3  0  0  0  0  0  0
  -24.8180  -28.9230   19.9220 C   0  0  0  0  0  0  0  0  0  0  0  0
  -25.8300  -30.7850   21.2460 C   0  0  0  0  0  2  0  0  0  0  0  0
  -25.9670  -29.4660   20.5080 C   0  0  0  0  0  0  0  0  0  0  0  0
  -27.2030  -28.7800   20.4070 C   0  0  0  0  0  3  0  0  0  0  0  0
  -26.1090  -27.0070   19.1560 C   0  0  0  0  0  3  0  0  0  0  0  0
  -24.8820  -27.6910   19.2510 C   0  0  0  0  0  3  0  0  0  0  0  0
  -23.5350  -29.7110   20.0580 C   0  0  0  0  0  2  0  0  0  0  0  0
  -24.5770  -30.9140   22.0300 N   0  0  0  0  0  0  0  0  0  0  0  0
  -23.4360  -31.8110   23.7710 O   0  0  0  0  0  0  0  0  0  0  0  0
  -22.7650  -29.1640   22.3920 C   0  0  0  0  0  0  0  0  0  0  0  0
  -21.4720  -28.8450   22.2170 N   0  0  0  0  0  0  0  0  0  0  0  0
  -23.4890  -28.5880   23.2090 O   0  0  0  0  0  0  0  0  0  0  0  0
  -20.9430  -29.3640   21.5310 H   0  0  0  0  0  0  0  0  0  0  0  0
  -18.2550  -27.2300   22.5170 C   0  0  0  0  0  0  0  0  0  0  0  0
  -20.7410  -27.8010   22.9350 C   0  0  0  0  0  3  0  0  0  0  0  0
  -21.0570  -26.4030   22.3530 C   0  0  0  0  0  2  0  0  0  0  0  0
  -20.0610  -25.9620   21.2760 C   0  0  0  0  0  2  0  0  0  0  0  0
  -18.6380  -25.9230   21.8420 C   0  0  0  0  0  2  0  0  0  0  0  0
  -19.2430  -28.1190   23.0160 C   0  0  0  0  0  0  0  0  0  0  0  0
  -18.8370  -29.3370   23.6040 C   0  0  0  0  0  3  0  0  0  0  0  0
  -17.4720  -29.6690   23.6990 C   0  0  0  0  0  3  0  0  0  0  0  0
  -16.4980  -28.7780   23.2180 C   0  0  0  0  0  3  0  0  0  0  0  0
  -16.8890  -27.5600   22.6330 C   0  0  0  0  0  3  0  0  0  0  0  0
  -25.7830  -32.2970   23.8030 C   0  0  0  0  0  3  0  0  0  0  0  0
  -26.3070  -31.5470   25.0890 C   0  0  1  0  0  0  0  0  0  0  0  0
  -25.2050  -31.2700   26.1360 C   0  0  0  0  0  1  0  0  0  0  0  0
  -26.9490  -30.1920   24.7100 C   0  0  0  0  0  1  0  0  0  0  0  0
  -27.4140  -32.3850   25.7700 C   0  0  0  0  0  1  0  0  0  0  0  0
  -25.4490  -33.6920   24.1160 N   0  0  0  0  0  0  0  0  0  0  0  0
  -25.7710  -34.7420   23.3480 C   0  0  0  0  0  0  0  0  0  0  0  0
  -26.4530  -34.6400   22.3250 O   0  0  0  0  0  0  0  0  0  0  0  0
  -24.8460  -33.8450   24.9110 H   0  0  0  0  0  0  0  0  0  0  0  0
  -24.0160  -36.4980   22.9530 C   0  0  0  0  0  1  0  0  0  0  0  0
  -25.2540  -36.1260   23.7840 C   0  0  0  0  0  3  0  0  0  0  0  0
  -27.3580  -37.0610   24.6340 C   0  0  0  0  0  1  0  0  0  0  0  0
  -26.2650  -37.2000   23.6770 N   0  0  0  0  0  0  0  0  0  0  0  0
  -25.8380  -38.1110   23.8180 H   0  0  0  0  0  0  0  0  0  0  0  0
  1  5  1  0
  2  6  2  0
  2  4  1  0
  3  5  2  0
  4  1  2  0
  5  7  1  0
  6  3  1  0
  8  6  1  0
  9 21  1  0
 10 15  1  0
 11 12  1  0
 11 10  1  0
 13 12  1  0
 13 25  1  0
 13 14  1  0
 15  9  1  0
 15 14  1  0
 16  9  2  0
 17 18  1  0
 19 21  1  0
 19 20  1  0
 20  3  1  0
 20 17  1  0
 21 18  1  0
 22 23  2  0
 23 42  1  0
 24 23  1  0
 24 27  1  0
 25 26  1  0
 25 22  1  0
 26 24  2  0
 27 28  1  0
 28 29  2  0
 30 33  1  0
 30 29  1  0
 31 30  2  0
 32 31  1  0
 32 27  2  0
 33 34  1  0
 34 39  2  0
 34 35  1  0
 35 36  2  0
 36 37  1  0
 37 41  1  0
 38 37  2  0
 39 38  1  0
 40 39  1  0
 42 43  1  0
 43 46  1  0
 43 45  1  0
 44 42  2  0
 47 22  1  0
 47 48  1  0
 49 47  1  0
 50  4  1  0
 51 50  1  0
 52 51  1  0
 52 53  1  0
 53 55  1  0
 54 65  2  0
 55 60  1  0
 56 64  1  0
 56 66  1  0
 57 63  1  0
 57 59  1  0
 58 64  1  0
 59 58  1  0
 60 59  2  0
 61 62  1  0
 61 55  2  0
 62 57  2  0
 63 56  1  0
 64 54  1  0
 66 68  2  0
 67 66  1  0
 69 67  1  0
 70 79  2  0
 70 75  1  0
 71 67  1  0
 71 75  1  0
 72 71  1  0
 73 74  1  0
 73 72  1  0
 74 70  1  0
 75 76  2  0
 76 77  1  0
 78 77  2  0
 79 78  1  0
 80 54  1  0
 80 85  1  0
 80 81  1  0
 81 84  1  1
 81 82  1  0
 83 81  1  0
 85 88  1  0
 86 90  1  0
 86 85  1  0
 87 86  2  0
 90 89  1  0
 92 90  1  0
 92 93  1  0
 92 91  1  0
M  ISO  4   9 100  21 100  52 101  53 101
M  END
>  <TORSDO>  (25) 
F 19

>  <SCORE>  (25) 
-11.596

>  <name>  (25) 
24

>  <ligand_id>  (25) 
24

>  <original_smiles>  (25) 
[H]c1c([H])c([H])c2c(c1[H])C([H])([H])C([H])([H])C([H])([H])C2([H])N([H])C(=O)C1([H])N(C(=O)C([H])(N([H])C(=O)C([H])(N([H])C([H])([H])[H])C([H])([H])[H])C(C([H])([H])[H])(C([H])([H])[H])C([H])([H])[H])C([H])([H])c2c([H])c(OC([H])([H])C([H])([H])C([H])([H])c3c([H])c(C([H])([H])[H])c(C4([H])C([H])([H])N(C(=O)N5C([H])([H])C([H])([H])C([H])([H])C([H])(n6nc(-c7c([H])c([H])c(Oc8c([H])c([H])c(F)c([H])c8F)c([H])c7[H])c(C(=O)N([H])[H])c6N([H])[H])C5([H])[H])C([H])([H])C4([H])[H])c(C([H])([H])[H])c3[H])c([H])c([H])c2C1([H])[H]

>  <smiles>  (25) 
[H]c1c([H])c([H])c2c(c1[H])C([H])([H])C([H])([H])C([H])([H])C2([H])N([H])C(=O)C1([H])N(C(=O)C([H])(N([H])C(=O)C([H])(N([H])C([H])([H])[H])C([H])([H])[H])C(C([H])([H])[H])(C([H])([H])[H])C([H])([H])[H])C([H])([H])c2c([H])c(OC([H])([H])C([H])([H])C([H])([H])c3c([H])c(C([H])([H])[H])c(C4([H])C([H])([H])N(C(=O)N5C([H])([H])C([H])([H])C([H])([H])C([H])(n6nc(-c7c([H])c([H])c(Oc8c([H])c([H])c(F)c([H])c8F)c([H])c7[H])c(C(=O)N([H])[H])c6N([H])[H])C5([H])[H])C([H])([H])C4([H])[H])c(C([H])([H])[H])c3[H])c([H])c([H])c2C1([H])[H]

$$$$
25:0:0
     RDKit          3D

100110  0  0  1  0  0  0  0  0999 V2000
  -30.4080  -20.1200   22.4920 C   0  0  0  0  0  3  0  0  0  0  0  0
  -29.3160  -18.5590   20.4480 C   0  0  0  0  0  3  0  0  0  0  0  0
  -29.4390  -20.6950   21.6390 C   0  0  0  0  0  0  0  0  0  0  0  0
  -30.4340  -18.0790   21.1620 C   0  0  0  0  0  0  0  0  0  0  0  0
  -30.9230  -18.8340   22.2550 C   0  0  0  0  0  0  0  0  0  0  0  0
  -28.8310  -19.8770   20.6510 C   0  0  0  0  0  0  0  0  0  0  0  0
  -32.0490  -18.3320   23.1480 C   0  0  0  0  0  1  0  0  0  0  0  0
  -31.3250  -14.4720   20.5960 C   0  0  0  0  0  0  0  0  0  0  0  0
  -31.0830  -12.1240   19.9730 C   0  0  0  0  0  2  0  0  0  0  0  0
  -30.3060  -12.0520   18.6450 C   0  0  0  0  0  2  0  0  0  0  0  0
  -28.7930  -11.9870   18.9250 C   0  0  0  0  0  2  0  0  0  0  0  0
  -28.3080  -13.0780   19.9190 C   0  0  0  0  0  3  0  0  0  0  0  0
  -29.2300  -13.1840   21.1560 C   0  0  0  0  0  2  0  0  0  0  0  0
  -30.6120  -13.3220   20.6800 N   0  0  0  0  0  0  0  0  0  0  0  0
  -32.5460  -14.4800   20.4240 O   0  0  0  0  0  0  0  0  0  0  0  0
  -31.5570  -17.0230   19.1250 C   0  0  0  0  0  2  0  0  0  0  0  0
  -30.4800  -15.9730   18.9210 C   0  0  0  0  0  2  0  0  0  0  0  0
  -31.2650  -16.9140   20.6190 C   0  0  0  0  0  3  0  0  0  0  0  0
  -30.6200  -15.6020   20.3500 N   0  0  0  0  0  0  0  0  0  0  0  0
  -25.8820  -13.7890   20.3910 C   0  0  0  0  0  0  0  0  0  0  0  0
  -24.7610  -13.0680   20.7030 C   0  0  0  0  0  0  0  0  0  0  0  0
  -25.1780  -11.7040   20.7800 C   0  0  0  0  0  0  0  0  0  0  0  0
  -26.9120  -12.8670   20.2990 N   0  0  0  0  0  0  0  0  0  0  0  0
  -26.4880  -11.6110   20.5910 N   0  0  0  0  0  0  0  0  0  0  0  0
  -24.3960  -10.4740   20.9660 C   0  0  0  0  0  0  0  0  0  0  0  0
  -24.7420   -9.5160   21.9430 C   0  0  0  0  0  3  0  0  0  0  0  0
  -23.9620   -8.3530   22.1130 C   0  0  0  0  0  3  0  0  0  0  0  0
  -22.8210   -8.1390   21.3050 C   0  0  0  0  0  0  0  0  0  0  0  0
  -22.4940   -9.0850   20.3160 C   0  0  0  0  0  3  0  0  0  0  0  0
  -23.2740  -10.2400   20.1450 C   0  0  0  0  0  3  0  0  0  0  0  0
  -22.0180   -7.0270   21.3820 O   0  0  0  0  0  0  0  0  0  0  0  0
  -21.8400   -6.3490   22.5610 C   0  0  0  0  0  0  0  0  0  0  0  0
  -21.3370   -6.9850   23.7170 C   0  0  0  0  0  3  0  0  0  0  0  0
  -21.1030   -6.2350   24.8880 C   0  0  0  0  0  3  0  0  0  0  0  0
  -21.3640   -4.8510   24.9020 C   0  0  0  0  0  0  0  0  0  0  0  0
  -21.8620   -4.2170   23.7510 C   0  0  0  0  0  3  0  0  0  0  0  0
  -22.0960   -4.9620   22.5830 C   0  0  0  0  0  0  0  0  0  0  0  0
  -22.5550   -4.3410   21.4700 F   0  0  0  0  0  0  0  0  0  0  0  0
  -21.1330   -4.1300   26.0230 F   0  0  0  0  0  0  0  0  0  0  0  0
  -23.3630  -13.6000   20.8270 C   0  0  0  0  0  0  0  0  0  0  0  0
  -22.5490  -12.9940   21.6830 N   0  0  0  0  0  0  0  0  0  0  0  0
  -22.9990  -14.5900   20.1940 O   0  0  0  0  0  0  0  0  0  0  0  0
  -22.8540  -12.1920   22.2140 H   0  0  0  0  0  0  0  0  0  0  0  0
  -21.6060  -13.3380   21.8080 H   0  0  0  0  0  0  0  0  0  0  0  0
  -26.1060  -15.1420   20.1550 N   0  0  0  0  0  0  0  0  0  0  0  0
  -25.3480  -15.8130   20.1390 H   0  0  0  0  0  0  0  0  0  0  0  0
  -26.9930  -15.5290   19.8630 H   0  0  0  0  0  0  0  0  0  0  0  0
  -30.0550  -23.0010   22.6590 C   0  0  0  0  0  2  0  0  0  0  0  0
  -29.2760  -22.8140   20.2690 C   0  0  0  0  0  2  0  0  0  0  0  0
  -29.8860  -24.5250   22.5500 C   0  0  0  0  0  2  0  0  0  0  0  0
  -29.1560  -24.3510   20.2360 C   0  0  0  0  0  2  0  0  0  0  0  0
  -29.1380  -22.2060   21.6900 C   0  0  0  0  0  3  0  0  0  0  0  0
  -30.1410  -24.9690   21.1570 N   0  0  1  0  0  4  0  0  0  0  0  0
  -31.0450  -24.5940   20.9050 H   0  0  0  0  0  0  0  0  0  0  0  0
  -30.2700  -26.4450   21.0280 C   0  0  0  0  0  2  0  0  0  0  0  0
  -30.8150  -26.8850   19.6470 C   0  0  0  0  0  2  0  0  0  0  0  0
  -29.8110  -26.8250   18.6360 O   0  0  0  0  0  0  0  0  0  0  0  0
  -25.4120  -30.1980   23.1540 C   0  0  0  0  0  0  0  0  0  0  0  0
  -28.5750  -27.3630   18.9150 C   0  0  0  0  0  0  0  0  0  0  0  0
  -24.3590  -29.1460   21.1760 C   0  0  0  0  0  3  0  0  0  0  0  0
  -25.9670  -28.3500   19.3640 C   0  0  0  0  0  0  0  0  0  0  0  0
  -26.7720  -29.9760   21.0810 C   0  0  0  0  0  2  0  0  0  0  0  0
  -27.0460  -28.8740   20.0830 C   0  0  0  0  0  0  0  0  0  0  0  0
  -28.3510  -28.3830   19.8710 C   0  0  0  0  0  3  0  0  0  0  0  0
  -27.4790  -26.8570   18.1840 C   0  0  0  0  0  3  0  0  0  0  0  0
  -26.1750  -27.3340   18.4140 C   0  0  0  0  0  3  0  0  0  0  0  0
  -24.6030  -28.9330   19.6580 C   0  0  0  0  0  2  0  0  0  0  0  0
  -25.5340  -29.7700   21.8660 N   0  0  0  0  0  0  0  0  0  0  0  0
  -24.3320  -30.1210   23.7550 O   0  0  0  0  0  0  0  0  0  0  0  0
  -23.9330  -27.7970   21.7980 C   0  0  0  0  0  0  0  0  0  0  0  0
  -22.6610  -27.4190   21.5860 N   0  0  0  0  0  0  0  0  0  0  0  0
  -24.7390  -27.1040   22.4230 O   0  0  0  0  0  0  0  0  0  0  0  0
  -22.0630  -28.0450   21.0650 H   0  0  0  0  0  0  0  0  0  0  0  0
  -19.6090  -25.4940   21.5190 C   0  0  0  0  0  0  0  0  0  0  0  0
  -22.0470  -26.1740   22.0400 C   0  0  0  0  0  3  0  0  0  0  0  0
  -22.4630  -24.9880   21.1400 C   0  0  0  0  0  2  0  0  0  0  0  0
  -21.4780  -24.7230   19.9960 C   0  0  0  0  0  2  0  0  0  0  0  0
  -20.0820  -24.4220   20.5490 C   0  0  0  0  0  2  0  0  0  0  0  0
  -20.5310  -26.3270   22.2050 C   0  0  0  0  0  0  0  0  0  0  0  0
  -20.0390  -27.3320   23.0670 C   0  0  0  0  0  3  0  0  0  0  0  0
  -18.6550  -27.5100   23.2490 C   0  0  0  0  0  3  0  0  0  0  0  0
  -17.7460  -26.6730   22.5770 C   0  0  0  0  0  3  0  0  0  0  0  0
  -18.2240  -25.6650   21.7210 C   0  0  0  0  0  3  0  0  0  0  0  0
  -26.6170  -30.8240   23.9250 C   0  0  0  0  0  3  0  0  0  0  0  0
  -26.1580  -32.0940   24.5030 N   0  0  0  0  0  0  0  0  0  0  0  0
  -26.4440  -33.3030   24.0000 C   0  0  0  0  0  0  0  0  0  0  0  0
  -27.1940  -33.4680   23.0340 O   0  0  0  0  0  0  0  0  0  0  0  0
  -25.5030  -32.0350   25.2690 H   0  0  0  0  0  0  0  0  0  0  0  0
  -24.6170  -35.0190   23.8210 C   0  0  0  0  0  1  0  0  0  0  0  0
  -25.7940  -34.5240   24.6780 C   0  0  0  0  0  3  0  0  0  0  0  0
  -27.7510  -35.3250   25.9280 C   0  0  0  0  0  1  0  0  0  0  0  0
  -26.7390  -35.6360   24.9210 N   0  0  0  0  0  0  0  0  0  0  0  0
  -26.2400  -36.4700   25.2220 H   0  0  0  0  0  0  0  0  0  0  0  0
  -27.2030  -29.8750   25.0420 C   0  0  1  0  0  0  0  0  0  0  0  0
  -26.1310  -29.3310   26.0130 C   0  0  0  0  0  1  0  0  0  0  0  0
  -27.9190  -28.6620   24.3980 C   0  0  0  0  0  1  0  0  0  0  0  0
  -28.2640  -30.6320   25.8740 C   0  0  0  0  0  1  0  0  0  0  0  0
  -27.8360  -20.4370   19.8790 O   0  0  0  0  0  0  0  0  0  0  0  0
  -27.0150  -20.9780   17.6910 C   0  0  0  0  0  1  0  0  0  0  0  0
  -27.5880  -19.8830   18.5910 C   0  0  0  0  0  2  0  0  0  0  0  0
  2  6  2  0
  2  4  1  0
  3  1  2  0
  4  5  2  0
  5  1  1  0
  5  7  1  0
  6  3  1  0
  8 14  1  0
  9 14  1  0
 10 11  1  0
 10  9  1  0
 12 11  1  0
 12 23  1  0
 12 13  1  0
 14 13  1  0
 15  8  2  0
 16 18  1  0
 17 16  1  0
 17 19  1  0
 18  4  1  0
 19  8  1  0
 19 18  1  0
 20 21  2  0
 21 22  1  0
 21 40  1  0
 22 25  1  0
 23 20  1  0
 23 24  1  0
 24 22  2  0
 25 26  1  0
 26 27  2  0
 28 31  1  0
 28 27  1  0
 29 28  2  0
 30 29  1  0
 30 25  2  0
 31 32  1  0
 32 37  2  0
 32 33  1  0
 33 34  2  0
 34 35  1  0
 35 39  1  0
 36 35  2  0
 37 36  1  0
 38 37  1  0
 40 41  1  0
 41 44  1  0
 41 43  1  0
 42 40  2  0
 45 20  1  0
 46 45  1  0
 47 45  1  0
 49 52  1  0
 50 48  1  0
 51 49  1  0
 51 53  1  0
 52  3  1  0
 52 48  1  0
 53 50  1  0
 53 54  1  6
 55 53  1  0
 56 55  1  0
 57 59  1  0
 57 56  1  0
 58 69  2  0
 59 64  1  0
 60 70  1  0
 60 68  1  0
 61 67  1  0
 61 63  1  0
 62 68  1  0
 63 62  1  0
 64 63  2  0
 65 66  1  0
 65 59  2  0
 66 61  2  0
 67 60  1  0
 68 58  1  0
 70 72  2  0
 71 70  1  0
 73 71  1  0
 74 83  2  0
 74 79  1  0
 75 71  1  0
 75 79  1  0
 76 75  1  0
 77 78  1  0
 77 76  1  0
 78 74  1  0
 79 80  2  0
 80 81  1  0
 82 81  2  0
 83 82  1  0
 84 58  1  0
 84 85  1  0
 84 94  1  0
 85 88  1  0
 86 85  1  0
 86 90  1  0
 87 86  2  0
 90 89  1  0
 90 92  1  0
 92 93  1  0
 92 91  1  0
 94 97  1  1
 94 95  1  0
 96 94  1  0
 98  6  1  0
 99100  1  0
100 98  1  0
M  ISO  4   8 100  19 100  56 101  57 101
M  END
>  <TORSDO>  (26) 
F 21

>  <SCORE>  (26) 
-8.606

>  <name>  (26) 
25

>  <ligand_id>  (26) 
25

>  <original_smiles>  (26) 
[H]c1c([H])c([H])c2c(c1[H])C([H])([H])C([H])([H])C([H])([H])C2([H])N([H])C(=O)C1([H])N(C(=O)C([H])(N([H])C(=O)C([H])(N([H])C([H])([H])[H])C([H])([H])[H])C(C([H])([H])[H])(C([H])([H])[H])C([H])([H])[H])C([H])([H])c2c([H])c(OC([H])([H])C([H])([H])[N+]3([H])C([H])([H])C([H])([H])C([H])(c4c([H])c(C([H])([H])[H])c(C5([H])N(C(=O)N6C([H])([H])C([H])([H])C([H])([H])C([H])(n7nc(-c8c([H])c([H])c(Oc9c([H])c([H])c(F)c([H])c9F)c([H])c8[H])c(C(=O)N([H])[H])c7N([H])[H])C6([H])[H])C([H])([H])C5([H])[H])c([H])c4OC([H])([H])C([H])([H])[H])C([H])([H])C3([H])[H])c([H])c([H])c2C1([H])[H]

>  <smiles>  (26) 
[H]c1c([H])c([H])c2c(c1[H])C([H])([H])C([H])([H])C([H])([H])C2([H])N([H])C(=O)C1([H])N(C(=O)C([H])(N([H])C(=O)C([H])(N([H])C([H])([H])[H])C([H])([H])[H])C(C([H])([H])[H])(C([H])([H])[H])C([H])([H])[H])C([H])([H])c2c([H])c(OC([H])([H])C([H])([H])[N+]3([H])C([H])([H])C([H])([H])C([H])(c4c([H])c(C([H])([H])[H])c(C5([H])N(C(=O)N6C([H])([H])C([H])([H])C([H])([H])C([H])(n7nc(-c8c([H])c([H])c(Oc9c([H])c([H])c(F)c([H])c9F)c([H])c8[H])c(C(=O)N([H])[H])c7N([H])[H])C6([H])[H])C([H])([H])C5([H])[H])c([H])c4OC([H])([H])C([H])([H])[H])C([H])([H])C3([H])[H])c([H])c([H])c2C1([H])[H]

$$$$
26:0:0
     RDKit          3D

 93102  0  0  1  0  0  0  0  0999 V2000
  -29.5500  -19.9070   18.7850 C   0  0  0  0  0  3  0  0  0  0  0  0
  -29.9410  -18.7440   18.1040 C   0  0  0  0  0  0  0  0  0  0  0  0
  -30.0070  -17.5050   18.8050 C   0  0  0  0  0  0  0  0  0  0  0  0
  -29.7280  -17.4350   20.2060 C   0  0  0  0  0  0  0  0  0  0  0  0
  -29.1920  -19.8450   20.1330 C   0  0  0  0  0  0  0  0  0  0  0  0
  -30.2670  -16.2390   17.9930 C   0  0  0  0  0  1  0  0  0  0  0  0
  -29.2760  -18.6210   20.8090 N   0  0  0  0  0  0  0  0  0  0  0  0
  -30.5930  -14.9790   20.8190 C   0  0  0  0  0  0  0  0  0  0  0  0
  -30.5820  -12.6080   19.9980 C   0  0  0  0  0  2  0  0  0  0  0  0
  -29.7700  -12.5280   18.6830 C   0  0  0  0  0  2  0  0  0  0  0  0
  -28.2610  -12.3920   18.9660 C   0  0  0  0  0  2  0  0  0  0  0  0
  -27.7570  -13.3270   20.1000 C   0  0  0  0  0  3  0  0  0  0  0  0
  -28.7070  -13.3430   21.3150 C   0  0  0  0  0  2  0  0  0  0  0  0
  -30.0340  -13.7150   20.8200 N   0  0  0  0  0  0  0  0  0  0  0  0
  -31.8060  -15.0880   20.6080 O   0  0  0  0  0  0  0  0  0  0  0  0
  -29.7410  -16.0900   20.8860 N   0  0  0  0  0  0  0  0  0  0  0  0
  -28.8680  -15.8790   21.3380 H   0  0  0  0  0  0  0  0  0  0  0  0
  -25.3160  -13.8900   20.6330 C   0  0  0  0  0  0  0  0  0  0  0  0
  -24.2380  -13.1070   20.9390 C   0  0  0  0  0  0  0  0  0  0  0  0
  -24.7220  -11.7630   20.9710 C   0  0  0  0  0  0  0  0  0  0  0  0
  -26.3860  -13.0240   20.4940 N   0  0  0  0  0  0  0  0  0  0  0  0
  -26.0320  -11.7400   20.7630 N   0  0  0  0  0  0  0  0  0  0  0  0
  -24.0010  -10.4930   21.1260 C   0  0  0  0  0  0  0  0  0  0  0  0
  -24.3820   -9.5440   22.1010 C   0  0  0  0  0  3  0  0  0  0  0  0
  -23.6620   -8.3380   22.2450 C   0  0  0  0  0  3  0  0  0  0  0  0
  -22.5480   -8.0720   21.4150 C   0  0  0  0  0  0  0  0  0  0  0  0
  -22.1870   -9.0090   20.4330 C   0  0  0  0  0  3  0  0  0  0  0  0
  -22.9060  -10.2080   20.2860 C   0  0  0  0  0  3  0  0  0  0  0  0
  -21.8010   -6.9190   21.4690 O   0  0  0  0  0  0  0  0  0  0  0  0
  -21.6870   -6.1880   22.6230 C   0  0  0  0  0  0  0  0  0  0  0  0
  -21.1610   -6.7480   23.8100 C   0  0  0  0  0  3  0  0  0  0  0  0
  -20.9950   -5.9410   24.9530 C   0  0  0  0  0  3  0  0  0  0  0  0
  -21.3430   -4.5760   24.9110 C   0  0  0  0  0  0  0  0  0  0  0  0
  -21.8600   -4.0180   23.7290 C   0  0  0  0  0  3  0  0  0  0  0  0
  -22.0280   -4.8210   22.5890 C   0  0  0  0  0  0  0  0  0  0  0  0
  -22.5040   -4.2720   21.4460 F   0  0  0  0  0  0  0  0  0  0  0  0
  -21.1780   -3.8000   26.0080 F   0  0  0  0  0  0  0  0  0  0  0  0
  -22.8160  -13.5650   21.0900 C   0  0  0  0  0  0  0  0  0  0  0  0
  -22.0340  -12.8750   21.9110 N   0  0  0  0  0  0  0  0  0  0  0  0
  -22.4050  -14.5720   20.5140 O   0  0  0  0  0  0  0  0  0  0  0  0
  -22.3750  -12.0610   22.4000 H   0  0  0  0  0  0  0  0  0  0  0  0
  -21.0770  -13.1650   22.0560 H   0  0  0  0  0  0  0  0  0  0  0  0
  -25.4750  -15.2590   20.4380 N   0  0  0  0  0  0  0  0  0  0  0  0
  -24.6910  -15.9020   20.4600 H   0  0  0  0  0  0  0  0  0  0  0  0
  -26.3360  -15.7000   20.1450 H   0  0  0  0  0  0  0  0  0  0  0  0
  -31.5310  -18.5850   16.0030 C   0  0  0  0  0  2  0  0  0  0  0  0
  -30.9690  -19.9880   16.0080 C   0  0  0  0  0  2  0  0  0  0  0  0
  -30.1780  -18.8540   16.6200 C   0  0  0  0  0  3  0  0  0  0  0  0
  -28.6130  -20.9930   20.7590 O   0  0  0  0  0  0  0  0  0  0  0  0
  -29.0790  -22.4100   20.5270 C   0  0  0  0  0  2  0  0  0  0  0  0
  -28.1310  -23.6800   20.0960 C   0  0  0  0  0  2  0  0  0  0  0  0
  -28.3160  -25.1660   20.7640 C   0  0  0  0  0  2  0  0  0  0  0  0
  -28.2740  -26.5180   20.0890 O   0  0  0  0  0  0  0  0  0  0  0  0
  -24.5940  -31.9730   23.2610 C   0  0  0  0  0  0  0  0  0  0  0  0
  -27.1580  -27.3810   20.1580 C   0  0  0  0  0  0  0  0  0  0  0  0
  -23.3700  -30.5810   21.6270 C   0  0  0  0  0  3  0  0  0  0  0  0
  -24.8040  -29.0300   20.1740 C   0  0  0  0  0  0  0  0  0  0  0  0
  -25.9090  -30.8910   21.4170 C   0  0  0  0  0  2  0  0  0  0  0  0
  -25.9820  -29.5080   20.7630 C   0  0  0  0  0  0  0  0  0  0  0  0
  -27.1650  -28.6990   20.7350 C   0  0  0  0  0  3  0  0  0  0  0  0
  -25.9590  -26.9670   19.5480 C   0  0  0  0  0  3  0  0  0  0  0  0
  -24.7990  -27.7700   19.5520 C   0  0  0  0  0  3  0  0  0  0  0  0
  -23.5700  -29.9110   20.2400 C   0  0  0  0  0  2  0  0  0  0  0  0
  -24.6430  -31.1690   22.1570 N   0  0  0  0  0  0  0  0  0  0  0  0
  -23.5180  -32.2470   23.8110 O   0  0  0  0  0  0  0  0  0  0  0  0
  -22.7200  -29.5610   22.5920 C   0  0  0  0  0  0  0  0  0  0  0  0
  -21.3960  -29.3690   22.4690 N   0  0  0  0  0  0  0  0  0  0  0  0
  -23.4070  -28.9460   23.4130 O   0  0  0  0  0  0  0  0  0  0  0  0
  -20.9000  -29.9190   21.7810 H   0  0  0  0  0  0  0  0  0  0  0  0
  -18.0400  -28.1090   22.9710 C   0  0  0  0  0  0  0  0  0  0  0  0
  -20.5920  -28.4200   23.2440 C   0  0  0  0  0  3  0  0  0  0  0  0
  -20.7210  -26.9870   22.6760 C   0  0  0  0  0  2  0  0  0  0  0  0
  -19.6280  -26.6380   21.6600 C   0  0  0  0  0  2  0  0  0  0  0  0
  -18.2430  -26.7600   22.3000 C   0  0  0  0  0  2  0  0  0  0  0  0
  -19.1430  -28.8940   23.4000 C   0  0  0  0  0  0  0  0  0  0  0  0
  -18.8980  -30.1550   23.9850 C   0  0  0  0  0  3  0  0  0  0  0  0
  -17.5840  -30.6320   24.1470 C   0  0  0  0  0  3  0  0  0  0  0  0
  -16.4960  -29.8440   23.7330 C   0  0  0  0  0  3  0  0  0  0  0  0
  -16.7240  -28.5850   23.1510 C   0  0  0  0  0  3  0  0  0  0  0  0
  -25.8850  -32.6020   23.8700 C   0  0  0  0  0  3  0  0  0  0  0  0
  -25.5860  -34.0040   24.1910 N   0  0  0  0  0  0  0  0  0  0  0  0
  -25.9210  -35.0510   23.4250 C   0  0  0  0  0  0  0  0  0  0  0  0
  -26.5880  -34.9360   22.3930 O   0  0  0  0  0  0  0  0  0  0  0  0
  -24.9940  -34.1670   24.9920 H   0  0  0  0  0  0  0  0  0  0  0  0
  -24.2180  -36.8650   23.0550 C   0  0  0  0  0  1  0  0  0  0  0  0
  -25.4460  -36.4460   23.8760 C   0  0  0  0  0  3  0  0  0  0  0  0
  -27.5830  -37.3100   24.7260 C   0  0  0  0  0  1  0  0  0  0  0  0
  -26.4930  -37.4880   23.7700 N   0  0  0  0  0  0  0  0  0  0  0  0
  -26.0940  -38.4130   23.9130 H   0  0  0  0  0  0  0  0  0  0  0  0
  -26.4040  -31.8370   25.1500 C   0  0  1  0  0  0  0  0  0  0  0  0
  -25.3160  -31.6150   26.2260 C   0  0  0  0  0  1  0  0  0  0  0  0
  -26.9770  -30.4520   24.7690 C   0  0  0  0  0  1  0  0  0  0  0  0
  -27.5640  -32.6320   25.7960 C   0  0  0  0  0  1  0  0  0  0  0  0
  1  5  1  0
  2  1  2  0
  2  3  1  0
  3  4  2  0
  4  7  1  0
  4 16  1  0
  5 49  1  0
  5  7  2  0
  6  3  1  0
  8 14  1  0
  8 16  1  0
  9 14  1  0
 10 11  1  0
 10  9  1  0
 12 11  1  0
 12 21  1  0
 12 13  1  0
 14 13  1  0
 15  8  2  0
 16 17  1  0
 18 19  2  0
 19 20  1  0
 19 38  1  0
 20 23  1  0
 21 18  1  0
 21 22  1  0
 22 20  2  0
 23 24  1  0
 24 25  2  0
 26 29  1  0
 26 25  1  0
 27 26  2  0
 28 27  1  0
 28 23  2  0
 29 30  1  0
 30 31  1  0
 31 32  2  0
 33 32  1  0
 33 37  1  0
 34 33  2  0
 35 30  2  0
 35 34  1  0
 36 35  1  0
 38 39  1  0
 39 42  1  0
 39 41  1  0
 40 38  2  0
 43 44  1  0
 43 18  1  0
 45 43  1  0
 46 47  1  0
 46 48  1  0
 47 48  1  0
 48  2  1  0
 50 49  1  0
 51 50  1  0
 51 52  1  0
 53 55  1  0
 53 52  1  0
 54 65  2  0
 55 60  1  0
 56 64  1  0
 56 66  1  0
 57 63  1  0
 57 59  1  0
 58 64  1  0
 59 58  1  0
 60 59  2  0
 61 62  1  0
 61 55  2  0
 62 57  2  0
 63 56  1  0
 64 54  1  0
 66 68  2  0
 67 66  1  0
 69 67  1  0
 70 79  2  0
 70 75  1  0
 71 67  1  0
 71 75  1  0
 72 71  1  0
 73 74  1  0
 73 72  1  0
 74 70  1  0
 75 76  2  0
 76 77  1  0
 78 77  2  0
 79 78  1  0
 80 54  1  0
 80 81  1  0
 80 90  1  0
 81 84  1  0
 82 86  1  0
 82 81  1  0
 83 82  2  0
 86 85  1  0
 88 86  1  0
 88 89  1  0
 88 87  1  0
 90 93  1  1
 90 91  1  0
 92 90  1  0
M  ISO  4   8 100  16 100  52 101  53 101
M  END
>  <TORSDO>  (27) 
F 21

>  <SCORE>  (27) 
-12.837

>  <name>  (27) 
26

>  <ligand_id>  (27) 
26

>  <original_smiles>  (27) 
[H]c1c([H])c([H])c2c(c1[H])C([H])([H])C([H])([H])C([H])([H])C2([H])N([H])C(=O)C1([H])N(C(=O)C([H])(N([H])C(=O)C([H])(N([H])C([H])([H])[H])C([H])([H])[H])C(C([H])([H])[H])(C([H])([H])[H])C([H])([H])[H])C([H])([H])c2c([H])c(OC([H])([H])C([H])([H])C([H])([H])Oc3nc(N([H])C(=O)N4C([H])([H])C([H])([H])C([H])([H])C([H])(n5nc(-c6c([H])c([H])c(Oc7c([H])c([H])c(F)c([H])c7F)c([H])c6[H])c(C(=O)N([H])[H])c5N([H])[H])C4([H])[H])c(C([H])([H])[H])c(C4([H])C([H])([H])C4([H])[H])c3[H])c([H])c([H])c2C1([H])[H]

>  <smiles>  (27) 
[H]c1c([H])c([H])c2c(c1[H])C([H])([H])C([H])([H])C([H])([H])C2([H])N([H])C(=O)C1([H])N(C(=O)C([H])(N([H])C(=O)C([H])(N([H])C([H])([H])[H])C([H])([H])[H])C(C([H])([H])[H])(C([H])([H])[H])C([H])([H])[H])C([H])([H])c2c([H])c(OC([H])([H])C([H])([H])C([H])([H])Oc3nc(N([H])C(=O)N4C([H])([H])C([H])([H])C([H])([H])C([H])(n5nc(-c6c([H])c([H])c(Oc7c([H])c([H])c(F)c([H])c7F)c([H])c6[H])c(C(=O)N([H])[H])c5N([H])[H])C4([H])[H])c(C([H])([H])[H])c(C4([H])C([H])([H])C4([H])[H])c3[H])c([H])c([H])c2C1([H])[H]

$$$$
27:0:0
     RDKit          3D

 98107  0  0  1  0  0  0  0  0999 V2000
  -29.2620  -21.8340   19.0930 C   0  0  0  0  0  2  0  0  0  0  0  0
  -31.1210  -22.1190   20.6930 C   0  0  0  0  0  2  0  0  0  0  0  0
  -29.4700  -23.2680   18.5720 C   0  0  0  0  0  2  0  0  0  0  0  0
  -31.3650  -23.5470   20.1540 C   0  0  0  0  0  2  0  0  0  0  0  0
  -30.5870  -21.2150   19.5700 C   0  0  0  0  0  3  0  0  0  0  0  0
  -30.1430  -24.1640   19.5600 N   0  0  1  0  0  4  0  0  0  0  0  0
  -29.5050  -24.3150   20.3300 H   0  0  0  0  0  0  0  0  0  0  0  0
  -30.5970  -19.2580   21.2210 C   0  0  0  0  0  3  0  0  0  0  0  0
  -30.4500  -19.7150   19.8920 C   0  0  0  0  0  0  0  0  0  0  0  0
  -30.1250  -18.7730   18.8740 C   0  0  0  0  0  0  0  0  0  0  0  0
  -29.9540  -17.4010   19.2100 C   0  0  0  0  0  0  0  0  0  0  0  0
  -30.2010  -16.9470   20.5370 C   0  0  0  0  0  0  0  0  0  0  0  0
  -30.4620  -17.8890   21.5570 C   0  0  0  0  0  0  0  0  0  0  0  0
  -29.9220  -19.2020   17.4160 C   0  0  0  0  0  1  0  0  0  0  0  0
  -29.4320  -16.4310   18.1520 C   0  0  0  0  0  1  0  0  0  0  0  0
  -30.8700  -14.5500   20.5830 C   0  0  0  0  0  0  0  0  0  0  0  0
  -30.6630  -12.3350   19.5370 C   0  0  0  0  0  2  0  0  0  0  0  0
  -29.7460  -12.4660   18.2990 C   0  0  0  0  0  2  0  0  0  0  0  0
  -28.2560  -12.3630   18.6910 C   0  0  0  0  0  2  0  0  0  0  0  0
  -27.8780  -13.2240   19.9260 C   0  0  0  0  0  3  0  0  0  0  0  0
  -28.9110  -13.0410   21.0620 C   0  0  0  0  0  2  0  0  0  0  0  0
  -30.2450  -13.3460   20.5190 N   0  0  0  0  0  0  0  0  0  0  0  0
  -32.0240  -14.7350   20.1860 O   0  0  0  0  0  0  0  0  0  0  0  0
  -30.0690  -15.5760   20.9280 N   0  0  0  0  0  0  0  0  0  0  0  0
  -29.2220  -15.3350   21.4160 H   0  0  0  0  0  0  0  0  0  0  0  0
  -25.4650  -13.8200   20.6080 C   0  0  0  0  0  0  0  0  0  0  0  0
  -24.3940  -13.0380   20.9500 C   0  0  0  0  0  0  0  0  0  0  0  0
  -24.8610  -11.6890   20.9110 C   0  0  0  0  0  0  0  0  0  0  0  0
  -26.5160  -12.9450   20.3800 N   0  0  0  0  0  0  0  0  0  0  0  0
  -26.1550  -11.6580   20.6170 N   0  0  0  0  0  0  0  0  0  0  0  0
  -24.1360  -10.4220   21.0750 C   0  0  0  0  0  0  0  0  0  0  0  0
  -24.5270   -9.4640   22.0370 C   0  0  0  0  0  3  0  0  0  0  0  0
  -23.8030   -8.2620   22.1840 C   0  0  0  0  0  3  0  0  0  0  0  0
  -22.6710   -8.0110   21.3740 C   0  0  0  0  0  0  0  0  0  0  0  0
  -22.3020   -8.9550   20.3990 C   0  0  0  0  0  3  0  0  0  0  0  0
  -23.0280  -10.1480   20.2480 C   0  0  0  0  0  3  0  0  0  0  0  0
  -21.9200   -6.8620   21.4330 O   0  0  0  0  0  0  0  0  0  0  0  0
  -21.7670   -6.1610   22.6020 C   0  0  0  0  0  0  0  0  0  0  0  0
  -21.2070   -6.7480   23.7580 C   0  0  0  0  0  3  0  0  0  0  0  0
  -21.0070   -5.9700   24.9160 C   0  0  0  0  0  3  0  0  0  0  0  0
  -21.3550   -4.6060   24.9180 C   0  0  0  0  0  0  0  0  0  0  0  0
  -21.9060   -4.0190   23.7660 C   0  0  0  0  0  3  0  0  0  0  0  0
  -22.1090   -4.7940   22.6110 C   0  0  0  0  0  0  0  0  0  0  0  0
  -22.6240   -4.2190   21.4970 F   0  0  0  0  0  0  0  0  0  0  0  0
  -21.1560   -3.8570   26.0270 F   0  0  0  0  0  0  0  0  0  0  0  0
  -22.9900  -13.5060   21.2080 C   0  0  0  0  0  0  0  0  0  0  0  0
  -22.2570  -12.8040   22.0650 N   0  0  0  0  0  0  0  0  0  0  0  0
  -22.5500  -14.5300   20.6840 O   0  0  0  0  0  0  0  0  0  0  0  0
  -22.6150  -11.9740   22.5130 H   0  0  0  0  0  0  0  0  0  0  0  0
  -21.3180  -13.1080   22.2800 H   0  0  0  0  0  0  0  0  0  0  0  0
  -25.6260  -15.1940   20.4560 N   0  0  0  0  0  0  0  0  0  0  0  0
  -24.8570  -15.8450   20.5820 H   0  0  0  0  0  0  0  0  0  0  0  0
  -26.4900  -15.6570   20.1990 H   0  0  0  0  0  0  0  0  0  0  0  0
  -30.6030  -18.3650   23.9110 C   0  0  0  0  0  1  0  0  0  0  0  0
  -30.5470  -17.4150   22.8510 O   0  0  0  0  0  0  0  0  0  0  0  0
  -30.4350  -25.5130   18.9870 C   0  0  0  0  0  2  0  0  0  0  0  0
  -29.1780  -26.3660   18.7210 C   0  0  0  0  0  2  0  0  0  0  0  0
  -28.6380  -26.7750   19.9740 O   0  0  0  0  0  0  0  0  0  0  0  0
  -24.5820  -31.7090   23.0710 C   0  0  0  0  0  0  0  0  0  0  0  0
  -27.4360  -27.4400   19.9410 C   0  0  0  0  0  0  0  0  0  0  0  0
  -23.4440  -30.2860   21.3930 C   0  0  0  0  0  3  0  0  0  0  0  0
  -24.9720  -28.8240   19.9620 C   0  0  0  0  0  0  0  0  0  0  0  0
  -25.9530  -30.7450   21.2300 C   0  0  0  0  0  2  0  0  0  0  0  0
  -26.0980  -29.3890   20.5740 C   0  0  0  0  0  0  0  0  0  0  0  0
  -27.3270  -28.6970   20.5730 C   0  0  0  0  0  3  0  0  0  0  0  0
  -26.2910  -26.8760   19.3350 C   0  0  0  0  0  3  0  0  0  0  0  0
  -25.0610  -27.5640   19.3420 C   0  0  0  0  0  3  0  0  0  0  0  0
  -23.6930  -29.6300   20.0070 C   0  0  0  0  0  2  0  0  0  0  0  0
  -24.6760  -30.9270   21.9560 N   0  0  0  0  0  0  0  0  0  0  0  0
  -23.4860  -31.9360   23.6030 O   0  0  0  0  0  0  0  0  0  0  0  0
  -22.8200  -29.2310   22.3340 C   0  0  0  0  0  0  0  0  0  0  0  0
  -21.5000  -29.0230   22.2070 N   0  0  0  0  0  0  0  0  0  0  0  0
  -23.5210  -28.6010   23.1320 O   0  0  0  0  0  0  0  0  0  0  0  0
  -20.9970  -29.5840   21.5330 H   0  0  0  0  0  0  0  0  0  0  0  0
  -18.1510  -27.7600   22.6930 C   0  0  0  0  0  0  0  0  0  0  0  0
  -20.7040  -28.0530   22.9570 C   0  0  0  0  0  3  0  0  0  0  0  0
  -20.8280  -26.6400   22.3410 C   0  0  0  0  0  2  0  0  0  0  0  0
  -19.7250  -26.3260   21.3250 C   0  0  0  0  0  2  0  0  0  0  0  0
  -18.3450  -26.4320   21.9810 C   0  0  0  0  0  2  0  0  0  0  0  0
  -19.2580  -28.5290   23.1370 C   0  0  0  0  0  0  0  0  0  0  0  0
  -19.0240  -29.7730   23.7610 C   0  0  0  0  0  3  0  0  0  0  0  0
  -17.7130  -30.2480   23.9480 C   0  0  0  0  0  3  0  0  0  0  0  0
  -16.6180  -29.4750   23.5210 C   0  0  0  0  0  3  0  0  0  0  0  0
  -16.8370  -28.2330   22.8990 C   0  0  0  0  0  3  0  0  0  0  0  0
  -25.8390  -32.3740   23.7130 C   0  0  0  0  0  3  0  0  0  0  0  0
  -26.3920  -31.5850   24.9640 C   0  0  1  0  0  0  0  0  0  0  0  0
  -25.3130  -31.2670   26.0230 C   0  0  0  0  0  1  0  0  0  0  0  0
  -27.0320  -30.2470   24.5240 C   0  0  0  0  0  1  0  0  0  0  0  0
  -27.5090  -32.4060   25.6510 C   0  0  0  0  0  1  0  0  0  0  0  0
  -25.4710  -33.7470   24.0850 N   0  0  0  0  0  0  0  0  0  0  0  0
  -25.7470  -34.8330   23.3510 C   0  0  0  0  0  0  0  0  0  0  0  0
  -26.4100  -34.7880   22.3120 O   0  0  0  0  0  0  0  0  0  0  0  0
  -24.8790  -33.8520   24.8950 H   0  0  0  0  0  0  0  0  0  0  0  0
  -23.9280  -36.5470   23.0680 C   0  0  0  0  0  1  0  0  0  0  0  0
  -25.2000  -36.1840   23.8510 C   0  0  0  0  0  3  0  0  0  0  0  0
  -27.3010  -37.1520   24.6760 C   0  0  0  0  0  1  0  0  0  0  0  0
  -26.1780  -37.2880   23.7510 N   0  0  0  0  0  0  0  0  0  0  0  0
  -25.7300  -38.1840   23.9280 H   0  0  0  0  0  0  0  0  0  0  0  0
  1  5  1  0
  3  1  1  0
  3  6  1  0
  4  2  1  0
  5  9  1  0
  5  2  1  0
  6  4  1  0
  6  7  1  1
  8 13  1  0
  9  8  2  0
 10 11  2  0
 10  9  1  0
 11 12  1  0
 12 24  1  0
 12 13  2  0
 13 55  1  0
 14 10  1  0
 15 11  1  0
 16 24  1  0
 17 22  1  0
 18 19  1  0
 18 17  1  0
 20 19  1  0
 20 29  1  0
 20 21  1  0
 22 16  1  0
 22 21  1  0
 23 16  2  0
 24 25  1  0
 26 27  2  0
 27 46  1  0
 28 27  1  0
 28 31  1  0
 29 26  1  0
 29 30  1  0
 30 28  2  0
 31 32  1  0
 32 33  2  0
 34 37  1  0
 34 33  1  0
 35 34  2  0
 36 35  1  0
 36 31  2  0
 37 38  1  0
 38 43  2  0
 38 39  1  0
 39 40  2  0
 40 41  1  0
 41 45  1  0
 42 41  2  0
 43 42  1  0
 44 43  1  0
 46 47  1  0
 47 50  1  0
 47 49  1  0
 48 46  2  0
 51 52  1  0
 51 26  1  0
 53 51  1  0
 55 54  1  0
 56  6  1  0
 57 56  1  0
 57 58  1  0
 59 70  2  0
 60 58  1  0
 60 65  1  0
 61 69  1  0
 61 71  1  0
 62 68  1  0
 62 64  1  0
 63 69  1  0
 64 63  1  0
 65 64  2  0
 66 67  1  0
 66 60  2  0
 67 62  2  0
 68 61  1  0
 69 59  1  0
 71 73  2  0
 72 71  1  0
 74 72  1  0
 75 84  2  0
 75 80  1  0
 76 72  1  0
 76 80  1  0
 77 76  1  0
 78 79  1  0
 78 77  1  0
 79 75  1  0
 80 81  2  0
 81 82  1  0
 83 82  2  0
 84 83  1  0
 85 59  1  0
 85 90  1  0
 85 86  1  0
 86 89  1  1
 86 87  1  0
 88 86  1  0
 90 93  1  0
 91 95  1  0
 91 90  1  0
 92 91  2  0
 95 94  1  0
 97 95  1  0
 97 98  1  0
 97 96  1  0
M  ISO  4  16 100  24 100  57 101  58 101
M  END
>  <TORSDO>  (28) 
F 20

>  <SCORE>  (28) 
-12.390

>  <name>  (28) 
27

>  <ligand_id>  (28) 
27

>  <original_smiles>  (28) 
[H]c1c([H])c([H])c2c(c1[H])C([H])([H])C([H])([H])C([H])([H])C2([H])N([H])C(=O)C1([H])N(C(=O)C([H])(N([H])C(=O)C([H])(N([H])C([H])([H])[H])C([H])([H])[H])C(C([H])([H])[H])(C([H])([H])[H])C([H])([H])[H])C([H])([H])c2c([H])c(OC([H])([H])C([H])([H])[N+]3([H])C([H])([H])C([H])([H])C([H])(c4c([H])c(OC([H])([H])[H])c(N([H])C(=O)N5C([H])([H])C([H])([H])C([H])([H])C([H])(n6nc(-c7c([H])c([H])c(Oc8c([H])c([H])c(F)c([H])c8F)c([H])c7[H])c(C(=O)N([H])[H])c6N([H])[H])C5([H])[H])c(C([H])([H])[H])c4C([H])([H])[H])C([H])([H])C3([H])[H])c([H])c([H])c2C1([H])[H]

>  <smiles>  (28) 
[H]c1c([H])c([H])c2c(c1[H])C([H])([H])C([H])([H])C([H])([H])C2([H])N([H])C(=O)C1([H])N(C(=O)C([H])(N([H])C(=O)C([H])(N([H])C([H])([H])[H])C([H])([H])[H])C(C([H])([H])[H])(C([H])([H])[H])C([H])([H])[H])C([H])([H])c2c([H])c(OC([H])([H])C([H])([H])[N+]3([H])C([H])([H])C([H])([H])C([H])(c4c([H])c(OC([H])([H])[H])c(N([H])C(=O)N5C([H])([H])C([H])([H])C([H])([H])C([H])(n6nc(-c7c([H])c([H])c(Oc8c([H])c([H])c(F)c([H])c8F)c([H])c7[H])c(C(=O)N([H])[H])c6N([H])[H])C5([H])[H])c(C([H])([H])[H])c4C([H])([H])[H])C([H])([H])C3([H])[H])c([H])c([H])c2C1([H])[H]

$$$$
28:0:0
     RDKit          3D

 98107  0  0  1  0  0  0  0  0999 V2000
  -29.7530  -23.9600   19.8080 C   0  0  0  0  0  3  0  0  0  0  0  0
  -29.7740  -23.7260   22.2160 C   0  0  0  0  0  3  0  0  0  0  0  0
  -30.4840  -21.8250   20.8190 C   0  0  0  0  0  0  0  0  0  0  0  0
  -29.5340  -24.5270   21.0790 C   0  0  0  0  0  0  0  0  0  0  0  0
  -30.2120  -22.6270   19.6710 C   0  0  0  0  0  0  0  0  0  0  0  0
  -30.2390  -22.3850   22.1050 C   0  0  0  0  0  0  0  0  0  0  0  0
  -30.4190  -22.0900   18.2620 C   0  0  0  0  0  1  0  0  0  0  0  0
  -30.0960  -19.2540   21.1190 C   0  0  0  0  0  2  0  0  0  0  0  0
  -32.1440  -18.8600   22.2940 C   0  0  0  0  0  2  0  0  0  0  0  0
  -31.0520  -20.3840   20.6810 C   0  0  0  0  0  3  0  0  0  0  0  0
  -32.3770  -20.1200   21.4360 C   0  0  0  0  0  3  0  0  0  0  0  0
  -30.9500  -18.0860   21.6930 C   0  0  1  0  0  0  0  0  0  0  0  0
  -30.1660  -17.3520   22.8060 C   0  0  0  0  0  1  0  0  0  0  0  0
  -33.4360  -19.8950   20.5160 O   0  0  0  0  0  0  0  0  0  0  0  0
  -34.2300  -19.7320   21.0170 H   0  0  0  0  0  0  0  0  0  0  0  0
  -31.4420  -17.0940   20.5800 C   0  0  0  0  0  2  0  0  0  0  0  0
  -31.6140  -14.6330   20.1730 C   0  0  0  0  0  0  0  0  0  0  0  0
  -31.1350  -12.5310   18.9760 C   0  0  0  0  0  2  0  0  0  0  0  0
  -30.2010  -12.8410   17.7890 C   0  0  0  0  0  2  0  0  0  0  0  0
  -28.7240  -12.8090   18.2310 C   0  0  0  0  0  2  0  0  0  0  0  0
  -28.4640  -13.6250   19.5270 C   0  0  0  0  0  3  0  0  0  0  0  0
  -29.5150  -13.2990   20.6140 C   0  0  0  0  0  2  0  0  0  0  0  0
  -30.8530  -13.5130   20.0370 N   0  0  0  0  0  0  0  0  0  0  0  0
  -32.7320  -14.7470   19.6600 O   0  0  0  0  0  0  0  0  0  0  0  0
  -31.0130  -15.6910   20.7470 N   0  0  0  0  0  0  0  0  0  0  0  0
  -30.1040  -15.5330   21.1540 H   0  0  0  0  0  0  0  0  0  0  0  0
  -26.1120  -14.3760   20.2510 C   0  0  0  0  0  0  0  0  0  0  0  0
  -24.9990  -13.6710   20.6250 C   0  0  0  0  0  0  0  0  0  0  0  0
  -25.3730  -12.2930   20.5850 C   0  0  0  0  0  0  0  0  0  0  0  0
  -27.0990  -13.4330   20.0120 N   0  0  0  0  0  0  0  0  0  0  0  0
  -26.6570  -12.1740   20.2690 N   0  0  0  0  0  0  0  0  0  0  0  0
  -24.5700  -11.0780   20.7760 C   0  0  0  0  0  0  0  0  0  0  0  0
  -24.9300  -10.0950   21.7250 C   0  0  0  0  0  3  0  0  0  0  0  0
  -24.1320   -8.9450   21.9030 C   0  0  0  0  0  3  0  0  0  0  0  0
  -22.9580   -8.7700   21.1320 C   0  0  0  0  0  0  0  0  0  0  0  0
  -22.6160   -9.7400   20.1730 C   0  0  0  0  0  3  0  0  0  0  0  0
  -23.4140  -10.8810   19.9940 C   0  0  0  0  0  3  0  0  0  0  0  0
  -22.1350   -7.6730   21.2190 O   0  0  0  0  0  0  0  0  0  0  0  0
  -21.9780   -6.9810   22.3930 C   0  0  0  0  0  0  0  0  0  0  0  0
  -21.5470   -7.6160   23.5780 C   0  0  0  0  0  3  0  0  0  0  0  0
  -21.3310   -6.8560   24.7450 C   0  0  0  0  0  3  0  0  0  0  0  0
  -21.5360   -5.4640   24.7280 C   0  0  0  0  0  0  0  0  0  0  0  0
  -21.9600   -4.8290   23.5470 C   0  0  0  0  0  3  0  0  0  0  0  0
  -22.1770   -5.5860   22.3820 C   0  0  0  0  0  0  0  0  0  0  0  0
  -22.5650   -4.9660   21.2410 F   0  0  0  0  0  0  0  0  0  0  0  0
  -21.3210   -4.7310   25.8460 F   0  0  0  0  0  0  0  0  0  0  0  0
  -23.6360  -14.2340   20.9060 C   0  0  0  0  0  0  0  0  0  0  0  0
  -22.8830  -13.6010   21.8000 N   0  0  0  0  0  0  0  0  0  0  0  0
  -23.2470  -15.2700   20.3690 O   0  0  0  0  0  0  0  0  0  0  0  0
  -23.2100  -12.7640   22.2580 H   0  0  0  0  0  0  0  0  0  0  0  0
  -21.9690  -13.9620   22.0300 H   0  0  0  0  0  0  0  0  0  0  0  0
  -26.3600  -15.7340   20.0750 N   0  0  0  0  0  0  0  0  0  0  0  0
  -25.6360  -16.4340   20.1950 H   0  0  0  0  0  0  0  0  0  0  0  0
  -27.2280  -16.1190   19.7260 H   0  0  0  0  0  0  0  0  0  0  0  0
  -30.3540  -22.1460   24.5090 C   0  0  0  0  0  1  0  0  0  0  0  0
  -30.4810  -21.5870   23.2060 O   0  0  0  0  0  0  0  0  0  0  0  0
  -29.1050  -25.9950   21.2520 C   0  0  0  0  0  2  0  0  0  0  0  0
  -28.7860  -26.6870   20.0330 O   0  0  0  0  0  0  0  0  0  0  0  0
  -24.8370  -31.7050   23.2640 C   0  0  0  0  0  0  0  0  0  0  0  0
  -27.6280  -27.4310   20.0780 C   0  0  0  0  0  0  0  0  0  0  0  0
  -23.6830  -30.3220   21.5710 C   0  0  0  0  0  3  0  0  0  0  0  0
  -25.1920  -28.8690   20.1100 C   0  0  0  0  0  0  0  0  0  0  0  0
  -26.1980  -30.7560   21.4020 C   0  0  0  0  0  2  0  0  0  0  0  0
  -26.3300  -29.4040   20.7300 C   0  0  0  0  0  0  0  0  0  0  0  0
  -27.5520  -28.6920   20.7170 C   0  0  0  0  0  3  0  0  0  0  0  0
  -26.4800  -26.9140   19.4480 C   0  0  0  0  0  3  0  0  0  0  0  0
  -25.2630  -27.6190   19.4680 C   0  0  0  0  0  3  0  0  0  0  0  0
  -23.9200  -29.6890   20.1720 C   0  0  0  0  0  2  0  0  0  0  0  0
  -24.9240  -30.9390   22.1390 N   0  0  0  0  0  0  0  0  0  0  0  0
  -23.7450  -31.9300   23.8040 O   0  0  0  0  0  0  0  0  0  0  0  0
  -23.0520  -29.2540   22.4940 C   0  0  0  0  0  0  0  0  0  0  0  0
  -21.7400  -29.0220   22.3350 N   0  0  0  0  0  0  0  0  0  0  0  0
  -23.7440  -28.6370   23.3100 O   0  0  0  0  0  0  0  0  0  0  0  0
  -21.2400  -29.5760   21.6530 H   0  0  0  0  0  0  0  0  0  0  0  0
  -18.4180  -27.6500   22.6950 C   0  0  0  0  0  0  0  0  0  0  0  0
  -20.9470  -28.0360   23.0680 C   0  0  0  0  0  3  0  0  0  0  0  0
  -21.1450  -26.6190   22.4850 C   0  0  0  0  0  2  0  0  0  0  0  0
  -20.1000  -26.2500   21.4260 C   0  0  0  0  0  2  0  0  0  0  0  0
  -18.6900  -26.3180   22.0180 C   0  0  0  0  0  2  0  0  0  0  0  0
  -19.4790  -28.4640   23.1750 C   0  0  0  0  0  0  0  0  0  0  0  0
  -19.1720  -29.7100   23.7650 C   0  0  0  0  0  3  0  0  0  0  0  0
  -17.8370  -30.1410   23.8840 C   0  0  0  0  0  3  0  0  0  0  0  0
  -16.7910  -29.3240   23.4220 C   0  0  0  0  0  3  0  0  0  0  0  0
  -17.0830  -28.0800   22.8320 C   0  0  0  0  0  3  0  0  0  0  0  0
  -26.1020  -32.3500   23.9120 C   0  0  0  0  0  3  0  0  0  0  0  0
  -25.7590  -33.7310   24.2750 N   0  0  0  0  0  0  0  0  0  0  0  0
  -26.0610  -34.8070   23.5360 C   0  0  0  0  0  0  0  0  0  0  0  0
  -26.7330  -34.7420   22.5030 O   0  0  0  0  0  0  0  0  0  0  0  0
  -25.1610  -33.8520   25.0780 H   0  0  0  0  0  0  0  0  0  0  0  0
  -24.2750  -36.5490   23.2310 C   0  0  0  0  0  1  0  0  0  0  0  0
  -25.5370  -36.1710   24.0240 C   0  0  0  0  0  3  0  0  0  0  0  0
  -27.6520  -37.1040   24.8500 C   0  0  0  0  0  1  0  0  0  0  0  0
  -26.5350  -37.2580   23.9210 N   0  0  0  0  0  0  0  0  0  0  0  0
  -26.1040  -38.1630   24.0900 H   0  0  0  0  0  0  0  0  0  0  0  0
  -26.6280  -31.5580   25.1710 C   0  0  1  0  0  0  0  0  0  0  0  0
  -25.5350  -31.2740   26.2280 C   0  0  0  0  0  1  0  0  0  0  0  0
  -27.2390  -30.2010   24.7460 C   0  0  0  0  0  1  0  0  0  0  0  0
  -27.7590  -32.3580   25.8600 C   0  0  0  0  0  1  0  0  0  0  0  0
  1  4  1  0
  3  6  2  0
  4 57  1  0
  4  2  2  0
  5  1  2  0
  5  3  1  0
  6  2  1  0
  6 56  1  0
  7  5  1  0
  8 12  1  0
 10  3  1  0
 10  8  1  0
 10 11  1  0
 11 14  1  0
 11  9  1  0
 12  9  1  0
 12 13  1  1
 14 15  1  0
 16 25  1  0
 16 12  1  0
 17 25  1  0
 18 23  1  0
 19 20  1  0
 19 18  1  0
 21 20  1  0
 21 30  1  0
 21 22  1  0
 23 17  1  0
 23 22  1  0
 24 17  2  0
 25 26  1  0
 27 28  2  0
 28 47  1  0
 29 28  1  0
 29 32  1  0
 30 27  1  0
 30 31  1  0
 31 29  2  0
 32 33  1  0
 33 34  2  0
 35 38  1  0
 35 34  1  0
 36 35  2  0
 37 36  1  0
 37 32  2  0
 38 39  1  0
 39 40  1  0
 40 41  2  0
 42 41  1  0
 42 46  1  0
 43 42  2  0
 44 39  2  0
 44 43  1  0
 45 44  1  0
 47 48  1  0
 48 51  1  0
 48 50  1  0
 49 47  2  0
 52 53  1  0
 52 27  1  0
 54 52  1  0
 56 55  1  0
 58 60  1  0
 58 57  1  0
 59 70  2  0
 60 65  1  0
 61 69  1  0
 61 71  1  0
 62 68  1  0
 62 64  1  0
 63 69  1  0
 64 63  1  0
 65 64  2  0
 66 67  1  0
 66 60  2  0
 67 62  2  0
 68 61  1  0
 69 59  1  0
 71 73  2  0
 72 71  1  0
 74 72  1  0
 75 84  2  0
 75 80  1  0
 76 72  1  0
 76 80  1  0
 77 76  1  0
 78 79  1  0
 78 77  1  0
 79 75  1  0
 80 81  2  0
 81 82  1  0
 83 82  2  0
 84 83  1  0
 85 59  1  0
 85 86  1  0
 85 95  1  0
 86 89  1  0
 87 91  1  0
 87 86  1  0
 88 87  2  0
 91 90  1  0
 93 91  1  0
 93 94  1  0
 93 92  1  0
 95 98  1  1
 95 96  1  0
 97 95  1  0
M  ISO  4  17 100  25 100  57 101  58 101
M  END
>  <TORSDO>  (29) 
F 21

>  <SCORE>  (29) 
-12.282

>  <name>  (29) 
28

>  <ligand_id>  (29) 
28

>  <original_smiles>  (29) 
[H]OC1([H])C([H])([H])C(C([H])([H])[H])(C([H])([H])N([H])C(=O)N2C([H])([H])C([H])([H])C([H])([H])C([H])(n3nc(-c4c([H])c([H])c(Oc5c([H])c([H])c(F)c([H])c5F)c([H])c4[H])c(C(=O)N([H])[H])c3N([H])[H])C2([H])[H])C([H])([H])C1([H])c1c(OC([H])([H])[H])c([H])c(C([H])([H])Oc2c([H])c([H])c3c(c2[H])C([H])([H])N(C(=O)C([H])(N([H])C(=O)C([H])(N([H])C([H])([H])[H])C([H])([H])[H])C(C([H])([H])[H])(C([H])([H])[H])C([H])([H])[H])C([H])(C(=O)N([H])C2([H])c4c([H])c([H])c([H])c([H])c4C([H])([H])C([H])([H])C2([H])[H])C3([H])[H])c([H])c1C([H])([H])[H]

>  <smiles>  (29) 
[H]OC1([H])C([H])([H])C(C([H])([H])[H])(C([H])([H])N([H])C(=O)N2C([H])([H])C([H])([H])C([H])([H])C([H])(n3nc(-c4c([H])c([H])c(Oc5c([H])c([H])c(F)c([H])c5F)c([H])c4[H])c(C(=O)N([H])[H])c3N([H])[H])C2([H])[H])C([H])([H])C1([H])c1c(OC([H])([H])[H])c([H])c(C([H])([H])Oc2c([H])c([H])c3c(c2[H])C([H])([H])N(C(=O)C([H])(N([H])C(=O)C([H])(N([H])C([H])([H])[H])C([H])([H])[H])C(C([H])([H])[H])(C([H])([H])[H])C([H])([H])[H])C([H])(C(=O)N([H])C2([H])c4c([H])c([H])c([H])c([H])c4C([H])([H])C([H])([H])C2([H])[H])C3([H])[H])c([H])c1C([H])([H])[H]

$$$$
29:0:0
     RDKit          3D

100109  0  0  1  0  0  0  0  0999 V2000
  -29.3000  -19.6050   19.1260 C   0  0  0  0  0  3  0  0  0  0  0  0
  -29.0920  -20.5970   21.3190 C   0  0  0  0  0  3  0  0  0  0  0  0
  -28.5230  -20.6430   18.5740 C   0  0  0  0  0  0  0  0  0  0  0  0
  -28.3100  -21.6490   20.7980 C   0  0  0  0  0  0  0  0  0  0  0  0
  -28.0160  -21.6960   19.3970 C   0  0  0  0  0  0  0  0  0  0  0  0
  -29.5920  -19.5740   20.5000 C   0  0  0  0  0  0  0  0  0  0  0  0
  -28.2690  -20.5750   17.0720 C   0  0  0  0  0  1  0  0  0  0  0  0
  -27.8340  -22.6740   21.8180 C   0  0  0  0  0  1  0  0  0  0  0  0
  -25.8820  -23.2760   19.3570 C   0  0  0  0  0  1  0  0  0  0  0  0
  -27.2190  -22.8380   18.7180 C   0  0  0  0  0  3  0  0  0  0  0  0
  -28.0930  -23.9840   18.3600 N   0  0  0  0  0  4  0  0  0  0  0  0
  -28.8590  -23.6210   17.8150 H   0  0  0  0  0  0  0  0  0  0  0  0
  -27.5620  -24.5850   17.7500 H   0  0  0  0  0  0  0  0  0  0  0  0
  -28.6620  -24.7820   19.4770 C   0  0  0  0  0  2  0  0  0  0  0  0
  -29.2040  -26.1420   18.9880 C   0  0  0  0  0  2  0  0  0  0  0  0
  -29.0290  -27.1760   19.9590 O   0  0  0  0  0  0  0  0  0  0  0  0
  -24.9860  -31.7360   23.6210 C   0  0  0  0  0  0  0  0  0  0  0  0
  -27.8140  -27.8300   20.0200 C   0  0  0  0  0  0  0  0  0  0  0  0
  -23.8560  -30.5570   21.7640 C   0  0  0  0  0  3  0  0  0  0  0  0
  -25.3790  -29.2610   20.1900 C   0  0  0  0  0  0  0  0  0  0  0  0
  -26.3790  -30.9760   21.7040 C   0  0  0  0  0  2  0  0  0  0  0  0
  -26.5060  -29.7100   20.8860 C   0  0  0  0  0  0  0  0  0  0  0  0
  -27.7210  -28.9930   20.8150 C   0  0  0  0  0  3  0  0  0  0  0  0
  -26.6610  -27.3960   19.3210 C   0  0  0  0  0  3  0  0  0  0  0  0
  -25.4480  -28.0960   19.4120 C   0  0  0  0  0  3  0  0  0  0  0  0
  -24.1190  -30.0840   20.3110 C   0  0  0  0  0  2  0  0  0  0  0  0
  -25.0890  -31.0980   22.4220 N   0  0  0  0  0  0  0  0  0  0  0  0
  -23.8850  -31.9150   24.1580 O   0  0  0  0  0  0  0  0  0  0  0  0
  -23.2000  -29.4000   22.5500 C   0  0  0  0  0  0  0  0  0  0  0  0
  -21.8940  -29.1870   22.3200 N   0  0  0  0  0  0  0  0  0  0  0  0
  -23.8650  -28.7040   23.3220 O   0  0  0  0  0  0  0  0  0  0  0  0
  -21.4210  -29.8060   21.6780 H   0  0  0  0  0  0  0  0  0  0  0  0
  -18.5670  -27.7820   22.4170 C   0  0  0  0  0  0  0  0  0  0  0  0
  -21.0780  -28.1330   22.9190 C   0  0  0  0  0  3  0  0  0  0  0  0
  -21.3060  -26.7790   22.2080 C   0  0  0  0  0  2  0  0  0  0  0  0
  -20.3020  -26.5120   21.0820 C   0  0  0  0  0  2  0  0  0  0  0  0
  -18.8710  -26.5200   21.6270 C   0  0  0  0  0  2  0  0  0  0  0  0
  -19.6050  -28.5460   23.0110 C   0  0  0  0  0  0  0  0  0  0  0  0
  -19.2730  -29.7290   23.7080 C   0  0  0  0  0  3  0  0  0  0  0  0
  -17.9340  -30.1490   23.8150 C   0  0  0  0  0  3  0  0  0  0  0  0
  -16.9090  -29.3810   23.2370 C   0  0  0  0  0  3  0  0  0  0  0  0
  -17.2250  -28.1990   22.5440 C   0  0  0  0  0  3  0  0  0  0  0  0
  -26.2430  -32.2930   24.3590 C   0  0  0  0  0  3  0  0  0  0  0  0
  -25.9270  -33.6600   24.7950 N   0  0  0  0  0  0  0  0  0  0  0  0
  -26.3120  -34.7720   24.1530 C   0  0  0  0  0  0  0  0  0  0  0  0
  -27.0440  -34.7520   23.1590 O   0  0  0  0  0  0  0  0  0  0  0  0
  -25.2840  -33.7500   25.5680 H   0  0  0  0  0  0  0  0  0  0  0  0
  -24.6200  -36.6080   23.8570 C   0  0  0  0  0  1  0  0  0  0  0  0
  -25.8070  -36.1200   24.7020 C   0  0  0  0  0  3  0  0  0  0  0  0
  -27.8950  -36.8990   25.7320 C   0  0  0  0  0  1  0  0  0  0  0  0
  -26.8520  -37.1650   24.7440 N   0  0  0  0  0  0  0  0  0  0  0  0
  -26.4440  -38.0740   24.9500 H   0  0  0  0  0  0  0  0  0  0  0  0
  -26.6910  -31.4040   25.5830 C   0  0  1  0  0  0  0  0  0  0  0  0
  -25.5410  -31.0740   26.5620 C   0  0  0  0  0  1  0  0  0  0  0  0
  -27.2960  -30.0660   25.0970 C   0  0  0  0  0  1  0  0  0  0  0  0
  -27.8020  -32.1290   26.3780 C   0  0  0  0  0  1  0  0  0  0  0  0
  -30.3840  -18.5900   21.1030 N   0  0  0  0  0  0  0  0  0  0  0  0
  -30.4470  -18.6050   22.1160 H   0  0  0  0  0  0  0  0  0  0  0  0
  -30.7030  -17.3190   20.4660 C   0  0  0  0  0  2  0  0  0  0  0  0
  -31.0690  -14.3390   19.7710 C   0  0  0  0  0  0  0  0  0  0  0  0
  -30.4970  -12.3000   18.5000 C   0  0  0  0  0  2  0  0  0  0  0  0
  -29.4310  -12.5480   17.4190 C   0  0  0  0  0  2  0  0  0  0  0  0
  -28.0160  -12.4320   18.0150 C   0  0  0  0  0  2  0  0  0  0  0  0
  -27.8450  -13.2830   19.3000 C   0  0  0  0  0  3  0  0  0  0  0  0
  -28.9970  -13.0060   20.2880 C   0  0  0  0  0  2  0  0  0  0  0  0
  -30.2790  -13.2490   19.6000 N   0  0  0  0  0  0  0  0  0  0  0  0
  -31.9700  -14.6590   18.9870 O   0  0  0  0  0  0  0  0  0  0  0  0
  -31.7340  -15.7190   23.1130 C   0  0  0  0  0  2  0  0  0  0  0  0
  -30.3470  -16.2660   22.8140 C   0  0  0  0  0  2  0  0  0  0  0  0
  -31.9720  -14.6710   22.0230 C   0  0  0  0  0  2  0  0  0  0  0  0
  -30.1870  -16.1130   21.2910 C   0  0  0  0  0  3  0  0  0  0  0  0
  -30.9650  -14.9050   20.9910 N   0  0  0  0  0  0  0  0  0  0  0  0
  -25.5740  -13.9730   20.3020 C   0  0  0  0  0  0  0  0  0  0  0  0
  -24.5140  -13.2370   20.7610 C   0  0  0  0  0  0  0  0  0  0  0  0
  -24.8990  -11.8670   20.6230 C   0  0  0  0  0  0  0  0  0  0  0  0
  -26.5390  -13.0550   19.9180 N   0  0  0  0  0  0  0  0  0  0  0  0
  -26.1410  -11.7800   20.1640 N   0  0  0  0  0  0  0  0  0  0  0  0
  -24.1360  -10.6330   20.8470 C   0  0  0  0  0  0  0  0  0  0  0  0
  -24.5820   -9.6430   21.7510 C   0  0  0  0  0  3  0  0  0  0  0  0
  -23.8230   -8.4730   21.9630 C   0  0  0  0  0  3  0  0  0  0  0  0
  -22.6030   -8.2830   21.2730 C   0  0  0  0  0  0  0  0  0  0  0  0
  -22.1730   -9.2610   20.3580 C   0  0  0  0  0  3  0  0  0  0  0  0
  -22.9330  -10.4240   20.1430 C   0  0  0  0  0  3  0  0  0  0  0  0
  -21.8120   -7.1660   21.3950 O   0  0  0  0  0  0  0  0  0  0  0  0
  -21.7390   -6.4620   22.5700 C   0  0  0  0  0  0  0  0  0  0  0  0
  -21.3530   -7.0730   23.7830 C   0  0  0  0  0  3  0  0  0  0  0  0
  -21.2240   -6.2980   24.9520 C   0  0  0  0  0  3  0  0  0  0  0  0
  -21.4710   -4.9130   24.9100 C   0  0  0  0  0  0  0  0  0  0  0  0
  -21.8520   -4.3010   23.7020 C   0  0  0  0  0  3  0  0  0  0  0  0
  -21.9820   -5.0740   22.5350 C   0  0  0  0  0  0  0  0  0  0  0  0
  -22.3280   -4.4780   21.3690 F   0  0  0  0  0  0  0  0  0  0  0  0
  -21.3420   -4.1660   26.0310 F   0  0  0  0  0  0  0  0  0  0  0  0
  -23.1840  -13.7640   21.2140 C   0  0  0  0  0  0  0  0  0  0  0  0
  -22.5410  -13.0810   22.1540 N   0  0  0  0  0  0  0  0  0  0  0  0
  -22.7280  -14.8170   20.7680 O   0  0  0  0  0  0  0  0  0  0  0  0
  -22.9210  -12.2250   22.5330 H   0  0  0  0  0  0  0  0  0  0  0  0
  -21.6550  -13.4170   22.5040 H   0  0  0  0  0  0  0  0  0  0  0  0
  -25.7950  -15.3410   20.1650 N   0  0  0  0  0  0  0  0  0  0  0  0
  -25.0970  -16.0350   20.4090 H   0  0  0  0  0  0  0  0  0  0  0  0
  -26.6480  -15.7490   19.8040 H   0  0  0  0  0  0  0  0  0  0  0  0
  1  6  1  0
  3  1  2  0
  3  5  1  0
  4  2  1  0
  4  8  1  0
  5  4  2  0
  6 57  1  0
  6  2  2  0
  7  3  1  0
 10  9  1  0
 10  5  1  0
 11 10  1  0
 11 14  1  0
 12 11  1  0
 13 11  1  0
 15 14  1  0
 15 16  1  0
 16 18  1  0
 17 28  2  0
 18 23  1  0
 19 27  1  0
 19 29  1  0
 20 26  1  0
 20 22  1  0
 21 27  1  0
 22 21  1  0
 23 22  2  0
 24 25  1  0
 24 18  2  0
 25 20  2  0
 26 19  1  0
 27 17  1  0
 29 31  2  0
 30 29  1  0
 32 30  1  0
 33 42  2  0
 33 38  1  0
 34 30  1  0
 34 38  1  0
 35 34  1  0
 36 37  1  0
 36 35  1  0
 37 33  1  0
 38 39  2  0
 39 40  1  0
 41 40  2  0
 42 41  1  0
 43 17  1  0
 43 44  1  0
 43 53  1  0
 44 47  1  0
 45 49  1  0
 45 44  1  0
 46 45  2  0
 49 48  1  0
 49 51  1  0
 51 52  1  0
 51 50  1  0
 53 56  1  1
 53 54  1  0
 55 53  1  0
 57 58  1  0
 59 57  1  0
 60 72  1  0
 61 66  1  0
 62 63  1  0
 62 61  1  0
 64 63  1  0
 64 76  1  0
 64 65  1  0
 66 60  1  0
 66 65  1  0
 67 60  2  0
 69 68  1  0
 70 68  1  0
 71 59  1  0
 71 69  1  0
 72 71  1  0
 72 70  1  0
 73 74  2  0
 74 93  1  0
 75 74  1  0
 75 78  1  0
 76 77  1  0
 76 73  1  0
 77 75  2  0
 78 79  1  0
 79 80  2  0
 81 84  1  0
 81 80  1  0
 82 81  2  0
 83 82  1  0
 83 78  2  0
 84 85  1  0
 85 86  1  0
 86 87  2  0
 88 87  1  0
 88 92  1  0
 89 88  2  0
 90 85  2  0
 90 89  1  0
 91 90  1  0
 93 94  1  0
 94 97  1  0
 94 96  1  0
 95 93  2  0
 98 73  1  0
 98 99  1  0
100 98  1  0
M  ISO  4  15 101  16 101  60 100  72 100
M  END
>  <TORSDO>  (30) 
F 22

>  <SCORE>  (30) 
-8.261

>  <name>  (30) 
29

>  <ligand_id>  (30) 
29

>  <original_smiles>  (30) 
[H]c1c([H])c([H])c2c(c1[H])C([H])([H])C([H])([H])C([H])([H])C2([H])N([H])C(=O)C1([H])N(C(=O)C([H])(N([H])C(=O)C([H])(N([H])C([H])([H])[H])C([H])([H])[H])C(C([H])([H])[H])(C([H])([H])[H])C([H])([H])[H])C([H])([H])c2c([H])c(OC([H])([H])C([H])([H])[N+]([H])([H])C([H])(c3c(C([H])([H])[H])c([H])c(N([H])C([H])([H])C4([H])N(C(=O)N5C([H])([H])C([H])([H])C([H])([H])C([H])(n6nc(-c7c([H])c([H])c(Oc8c([H])c([H])c(F)c([H])c8F)c([H])c7[H])c(C(=O)N([H])[H])c6N([H])[H])C5([H])[H])C([H])([H])C([H])([H])C4([H])[H])c([H])c3C([H])([H])[H])C([H])([H])[H])c([H])c([H])c2C1([H])[H]

>  <smiles>  (30) 
[H]c1c([H])c([H])c2c(c1[H])C([H])([H])C([H])([H])C([H])([H])C2([H])N([H])C(=O)C1([H])N(C(=O)C([H])(N([H])C(=O)C([H])(N([H])C([H])([H])[H])C([H])([H])[H])C(C([H])([H])[H])(C([H])([H])[H])C([H])([H])[H])C([H])([H])c2c([H])c(OC([H])([H])C([H])([H])[N+]([H])([H])C([H])(c3c(C([H])([H])[H])c([H])c(N([H])C([H])([H])C4([H])N(C(=O)N5C([H])([H])C([H])([H])C([H])([H])C([H])(n6nc(-c7c([H])c([H])c(Oc8c([H])c([H])c(F)c([H])c8F)c([H])c7[H])c(C(=O)N([H])[H])c6N([H])[H])C5([H])[H])C([H])([H])C([H])([H])C4([H])[H])c([H])c3C([H])([H])[H])C([H])([H])[H])c([H])c([H])c2C1([H])[H]

$$$$
30:0:0
     RDKit          3D

 99107  0  0  1  0  0  0  0  0999 V2000
  -24.6070  -19.1510   20.0830 C   0  0  0  0  0  2  0  0  0  0  0  0
  -26.0540  -17.9510   18.7160 C   0  0  0  0  0  2  0  0  0  0  0  0
  -25.0050  -20.5520   19.2530 C   0  0  0  0  0  2  0  0  0  0  0  0
  -26.5040  -19.3470   17.9420 C   0  0  0  0  0  2  0  0  0  0  0  0
  -24.5980  -17.6810   19.3830 C   0  0  0  0  0  3  0  0  0  0  0  0
  -26.4020  -20.7290   18.6140 N   0  0  1  0  0  4  0  0  0  0  0  0
  -27.0670  -20.7140   19.3740 H   0  0  0  0  0  0  0  0  0  0  0  0
  -25.3380  -15.8970   21.3990 C   0  0  0  0  0  2  0  0  0  0  0  0
  -25.7590  -13.0300   21.6640 C   0  0  0  0  0  2  0  0  0  0  0  0
  -24.2400  -16.1640   20.1770 C   0  0  0  0  0  3  0  0  0  0  0  0
  -26.1710  -14.5870   21.9910 C   0  0  0  0  0  3  0  0  0  0  0  0
  -23.3130  -14.9700   19.3450 C   0  0  0  0  0  0  0  0  0  0  0  0
  -23.4900  -13.2370   19.4900 C   0  0  0  0  0  3  0  0  0  0  0  0
  -22.3660  -15.4520   18.2680 C   0  0  0  0  0  1  0  0  0  0  0  0
  -22.6330  -11.0270   18.6350 C   0  0  0  0  0  1  0  0  0  0  0  0
  -22.6220  -12.4470   18.7290 O   0  0  0  0  0  0  0  0  0  0  0  0
  -27.7360  -14.8230   22.0900 C   0  0  0  0  0  2  0  0  0  0  0  0
  -28.9280  -13.7700   21.6660 C   0  0  0  0  0  2  0  0  0  0  0  0
  -30.3860  -12.5920   19.7290 C   0  0  0  0  0  0  0  0  0  0  0  0
  -30.5530  -10.1340   19.1310 C   0  0  0  0  0  2  0  0  0  0  0  0
  -29.5340   -9.7090   18.0220 C   0  0  0  0  0  2  0  0  0  0  0  0
  -28.0870   -9.6020   18.5140 C   0  0  0  0  0  2  0  0  0  0  0  0
  -27.8840  -10.8290   19.3280 C   0  0  0  0  0  3  0  0  0  0  0  0
  -28.8220  -10.8750   20.5170 C   0  0  0  0  0  2  0  0  0  0  0  0
  -30.0600  -11.2870   19.9260 N   0  0  0  0  0  0  0  0  0  0  0  0
  -31.3230  -12.8560   18.9480 O   0  0  0  0  0  0  0  0  0  0  0  0
  -29.4950  -13.5350   20.2530 N   0  0  0  0  0  0  0  0  0  0  0  0
  -29.5610  -14.4040   19.7430 H   0  0  0  0  0  0  0  0  0  0  0  0
  -26.0920  -12.5530   20.1490 C   0  0  0  0  0  3  0  0  0  0  0  0
  -24.1330  -11.9640   21.3010 C   0  0  0  0  0  2  0  0  0  0  0  0
  -24.3190  -10.1730   21.0700 C   0  0  0  0  0  0  0  0  0  0  0  0
  -26.6100  -11.0150   19.7360 N   0  0  0  0  0  0  0  0  0  0  0  0
  -25.6580   -9.7880   20.2590 N   0  0  0  0  0  0  0  0  0  0  0  0
  -23.5810   -8.9250   21.4030 C   0  0  0  0  0  0  0  0  0  0  0  0
  -24.1300   -7.9160   22.2430 C   0  0  0  0  0  3  0  0  0  0  0  0
  -23.4030   -6.7330   22.5340 C   0  0  0  0  0  3  0  0  0  0  0  0
  -22.1230   -6.5360   21.9610 C   0  0  0  0  0  0  0  0  0  0  0  0
  -21.6310   -7.4940   21.0560 C   0  0  0  0  0  3  0  0  0  0  0  0
  -22.3510   -8.6690   20.7780 C   0  0  0  0  0  3  0  0  0  0  0  0
  -21.3240   -5.4380   22.1850 O   0  0  0  0  0  0  0  0  0  0  0  0
  -21.3730   -4.7170   23.3540 C   0  0  0  0  0  0  0  0  0  0  0  0
  -21.0520   -5.2860   24.6070 C   0  0  0  0  0  3  0  0  0  0  0  0
  -21.0570   -4.4840   25.7660 C   0  0  0  0  0  3  0  0  0  0  0  0
  -21.3750   -3.1150   25.6770 C   0  0  0  0  0  0  0  0  0  0  0  0
  -21.6830   -2.5450   24.4300 C   0  0  0  0  0  3  0  0  0  0  0  0
  -21.6780   -3.3430   23.2720 C   0  0  0  0  0  0  0  0  0  0  0  0
  -21.9520   -2.7820   22.0700 F   0  0  0  0  0  0  0  0  0  0  0  0
  -21.3770   -2.3420   26.7890 F   0  0  0  0  0  0  0  0  0  0  0  0
  -22.7260  -12.3570   21.6140 C   0  0  0  0  0  0  0  0  0  0  0  0
  -22.0760  -11.4860   22.3740 N   0  0  0  0  0  0  0  0  0  0  0  0
  -22.1330  -13.2680   21.0680 O   0  0  0  0  0  0  0  0  0  0  0  0
  -22.5550  -10.7090   22.8030 H   0  0  0  0  0  0  0  0  0  0  0  0
  -21.0970  -11.6340   22.5750 H   0  0  0  0  0  0  0  0  0  0  0  0
  -26.8480  -13.5690   19.6110 N   0  0  0  0  0  0  0  0  0  0  0  0
  -26.5010  -14.5130   19.6840 H   0  0  0  0  0  0  0  0  0  0  0  0
  -27.6130  -13.4510   18.9650 H   0  0  0  0  0  0  0  0  0  0  0  0
  -26.8110  -22.0450   17.6810 C   0  0  0  0  0  3  0  0  0  0  0  0
  -27.5470  -23.6020   18.0840 C   0  0  0  0  0  3  0  0  0  0  0  0
  -27.8020  -25.0470   17.3480 O   0  0  0  0  0  0  0  0  0  0  0  0
  -25.5300  -30.0820   22.3010 C   0  0  0  0  0  0  0  0  0  0  0  0
  -27.1030  -26.2540   17.7160 C   0  0  0  0  0  0  0  0  0  0  0  0
  -24.0240  -29.2470   20.5550 C   0  0  0  0  0  3  0  0  0  0  0  0
  -25.1090  -28.1670   18.5050 C   0  0  0  0  0  0  0  0  0  0  0  0
  -26.5470  -29.4580   20.0630 C   0  0  0  0  0  2  0  0  0  0  0  0
  -26.4000  -28.3140   19.0300 C   0  0  0  0  0  0  0  0  0  0  0  0
  -27.4240  -27.3670   18.6200 C   0  0  0  0  0  3  0  0  0  0  0  0
  -25.8440  -26.3020   17.1280 C   0  0  0  0  0  3  0  0  0  0  0  0
  -24.8530  -27.2000   17.5300 C   0  0  0  0  0  3  0  0  0  0  0  0
  -23.9910  -29.0500   19.0210 C   0  0  0  0  0  2  0  0  0  0  0  0
  -25.4000  -29.6060   21.0260 N   0  0  0  0  0  0  0  0  0  0  0  0
  -24.5470  -30.2170   23.0480 O   0  0  0  0  0  0  0  0  0  0  0  0
  -23.4500  -27.9900   21.2630 C   0  0  0  0  0  0  0  0  0  0  0  0
  -22.1260  -27.7750   21.1600 N   0  0  0  0  0  0  0  0  0  0  0  0
  -24.1960  -27.2250   21.8790 O   0  0  0  0  0  0  0  0  0  0  0  0
  -21.5730  -28.4530   20.6530 H   0  0  0  0  0  0  0  0  0  0  0  0
  -18.8750  -26.1860   21.3410 C   0  0  0  0  0  0  0  0  0  0  0  0
  -21.3920  -26.6360   21.7230 C   0  0  0  0  0  3  0  0  0  0  0  0
  -21.6420  -25.3500   20.9020 C   0  0  0  0  0  2  0  0  0  0  0  0
  -20.5890  -25.1150   19.8150 C   0  0  0  0  0  2  0  0  0  0  0  0
  -19.1920  -25.0070   20.4340 C   0  0  0  0  0  2  0  0  0  0  0  0
  -19.9080  -26.9590   21.9340 C   0  0  0  0  0  0  0  0  0  0  0  0
  -19.5580  -28.0630   22.7410 C   0  0  0  0  0  3  0  0  0  0  0  0
  -18.2080  -28.3950   22.9600 C   0  0  0  0  0  3  0  0  0  0  0  0
  -17.1900  -27.6180   22.3820 C   0  0  0  0  0  3  0  0  0  0  0  0
  -17.5230  -26.5140   21.5800 C   0  0  0  0  0  3  0  0  0  0  0  0
  -26.9130  -30.5060   22.8760 C   0  0  0  0  0  3  0  0  0  0  0  0
  -26.6790  -31.5730   23.8630 N   0  0  0  0  0  0  0  0  0  0  0  0
  -26.9360  -32.8730   23.6660 C   0  0  0  0  0  0  0  0  0  0  0  0
  -27.4680  -33.2970   22.6360 O   0  0  0  0  0  0  0  0  0  0  0  0
  -26.1970  -31.3060   24.7080 H   0  0  0  0  0  0  0  0  0  0  0  0
  -25.2410  -34.5800   24.4120 C   0  0  0  0  0  1  0  0  0  0  0  0
  -26.5460  -33.8580   24.7880 C   0  0  0  0  0  3  0  0  0  0  0  0
  -28.7820  -34.2750   25.7160 C   0  0  0  0  0  1  0  0  0  0  0  0
  -27.5970  -34.8550   25.0880 N   0  0  0  0  0  0  0  0  0  0  0  0
  -27.2390  -35.5840   25.6990 H   0  0  0  0  0  0  0  0  0  0  0  0
  -27.7000  -29.3110   23.5410 C   0  0  1  0  0  0  0  0  0  0  0  0
  -26.8750  -28.5270   24.5880 C   0  0  0  0  0  1  0  0  0  0  0  0
  -28.1810  -28.3030   22.4740 C   0  0  0  0  0  1  0  0  0  0  0  0
  -28.9710  -29.8470   24.2410 C   0  0  0  0  0  1  0  0  0  0  0  0
  2  5  1  0
  3  1  1  0
  4  6  1  0
  4  2  1  0
  5  1  1  0
  5 10  1  0
  6  3  1  0
  6  7  1  1
  9 11  1  0
 10  8  1  0
 11  8  1  0
 11 17  1  0
 12 13  2  0
 12 10  1  0
 14 12  1  0
 15 16  1  0
 16 13  1  0
 18 17  1  0
 19 25  1  0
 19 27  1  0
 20 25  1  0
 21 22  1  0
 21 20  1  0
 23 22  1  0
 23 32  1  0
 23 24  1  0
 25 24  1  0
 26 19  2  0
 27 18  1  0
 28 27  1  0
 29 54  1  0
 29  9  1  0
 30 49  1  0
 31 30  1  0
 31 34  1  0
 32 29  1  0
 32 33  1  0
 33 31  2  0
 34 35  1  0
 35 36  2  0
 37 40  1  0
 37 36  1  0
 38 37  2  0
 39 38  1  0
 39 34  2  0
 40 41  1  0
 41 42  1  0
 42 43  2  0
 44 43  1  0
 44 48  1  0
 45 44  2  0
 46 41  2  0
 46 45  1  0
 47 46  1  0
 49 50  1  0
 50 53  1  0
 50 52  1  0
 51 49  2  0
 54 55  1  0
 56 54  1  0
 57 58  2  0
 57  6  1  0
 59 61  1  0
 59 58  1  0
 60 71  2  0
 61 66  1  0
 62 70  1  0
 62 72  1  0
 63 69  1  0
 63 65  1  0
 64 70  1  0
 65 64  1  0
 66 65  2  0
 67 68  1  0
 67 61  2  0
 68 63  2  0
 69 62  1  0
 70 60  1  0
 72 74  2  0
 73 72  1  0
 75 73  1  0
 76 85  2  0
 76 81  1  0
 77 73  1  0
 77 81  1  0
 78 77  1  0
 79 80  1  0
 79 78  1  0
 80 76  1  0
 81 82  2  0
 82 83  1  0
 84 83  2  0
 85 84  1  0
 86 60  1  0
 86 96  1  0
 86 87  1  0
 87 90  1  0
 88 87  1  0
 88 92  1  0
 89 88  2  0
 92 91  1  0
 92 94  1  0
 94 95  1  0
 94 93  1  0
 96 99  1  1
 96 97  1  0
 98 96  1  0
M  ISO  4  19 100  27 100  58 101  59 101
M  END
>  <TORSDO>  (31) 
F 22

>  <SCORE>  (31) 
14.463

>  <name>  (31) 
30

>  <ligand_id>  (31) 
30

>  <original_smiles>  (31) 
[H]c1c([H])c([H])c2c(c1[H])C([H])([H])C([H])([H])C([H])([H])C2([H])N([H])C(=O)C1([H])N(C(=O)C([H])(N([H])C(=O)C([H])(N([H])C([H])([H])[H])C([H])([H])[H])C(C([H])([H])[H])(C([H])([H])[H])C([H])([H])[H])C([H])([H])c2c([H])c(OC([H])([H])C([H])([H])[N+]3([H])C([H])([H])C([H])([H])C([H])(c4c([H])c(C([H])([H])C([H])([H])N([H])C(=O)N5C([H])([H])C([H])([H])C([H])([H])C([H])(n6nc(-c7c([H])c([H])c(Oc8c([H])c([H])c(F)c([H])c8F)c([H])c7[H])c(C(=O)N([H])[H])c6N([H])[H])C5([H])[H])c([H])c(OC([H])([H])[H])c4C([H])([H])[H])C([H])([H])C3([H])[H])c([H])c([H])c2C1([H])[H]

>  <smiles>  (31) 
[H]c1c([H])c([H])c2c(c1[H])C([H])([H])C([H])([H])C([H])([H])C2([H])N([H])C(=O)C1([H])N(C(=O)C([H])(N([H])C(=O)C([H])(N([H])C([H])([H])[H])C([H])([H])[H])C(C([H])([H])[H])(C([H])([H])[H])C([H])([H])[H])C([H])([H])c2c([H])c(OC([H])([H])C([H])([H])[N+]3([H])C([H])([H])C([H])([H])C([H])(c4c([H])c(C([H])([H])C([H])([H])N([H])C(=O)N5C([H])([H])C([H])([H])C([H])([H])C([H])(n6nc(-c7c([H])c([H])c(Oc8c([H])c([H])c(F)c([H])c8F)c([H])c7[H])c(C(=O)N([H])[H])c6N([H])[H])C5([H])[H])c([H])c(OC([H])([H])[H])c4C([H])([H])[H])C([H])([H])C3([H])[H])c([H])c([H])c2C1([H])[H]

$$$$
31:0:0
     RDKit          3D

 94102  0  0  1  0  0  0  0  0999 V2000
  -29.8380  -21.5910   20.9440 C   0  0  0  0  0  3  0  0  0  0  0  0
  -29.4080  -20.9360   18.6610 C   0  0  0  0  0  3  0  0  0  0  0  0
  -30.2780  -20.2740   21.2360 C   0  0  0  0  0  0  0  0  0  0  0  0
  -29.8200  -19.6080   18.9290 C   0  0  0  0  0  0  0  0  0  0  0  0
  -30.2770  -19.2580   20.2340 C   0  0  0  0  0  0  0  0  0  0  0  0
  -29.4050  -21.9440   19.6460 C   0  0  0  0  0  0  0  0  0  0  0  0
  -30.7610  -19.9780   22.6480 C   0  0  0  0  0  1  0  0  0  0  0  0
  -30.7290  -18.9690   16.6430 C   0  0  0  0  0  1  0  0  0  0  0  0
  -28.3170  -18.4420   17.2460 C   0  0  0  0  0  1  0  0  0  0  0  0
  -29.7550  -18.6000   17.7730 C   0  0  0  0  0  3  0  0  0  0  0  0
  -30.7710  -17.8260   20.5630 C   0  0  0  0  0  2  0  0  0  0  0  0
  -29.6130  -16.8170   20.7790 C   0  0  0  0  0  2  0  0  0  0  0  0
  -30.6610  -14.5250   20.4850 C   0  0  0  0  0  0  0  0  0  0  0  0
  -30.4120  -12.3810   19.2820 C   0  0  0  0  0  2  0  0  0  0  0  0
  -29.4700  -12.6220   18.0810 C   0  0  0  0  0  2  0  0  0  0  0  0
  -27.9900  -12.4840   18.4950 C   0  0  0  0  0  2  0  0  0  0  0  0
  -27.6550  -13.2810   19.7830 C   0  0  0  0  0  3  0  0  0  0  0  0
  -28.7000  -12.9920   20.8860 C   0  0  0  0  0  2  0  0  0  0  0  0
  -30.0370  -13.3210   20.3520 N   0  0  0  0  0  0  0  0  0  0  0  0
  -31.7200  -14.8040   19.9180 O   0  0  0  0  0  0  0  0  0  0  0  0
  -29.9500  -15.4350   21.1740 N   0  0  0  0  0  0  0  0  0  0  0  0
  -29.2400  -15.0070   21.7490 H   0  0  0  0  0  0  0  0  0  0  0  0
  -25.2440  -13.8930   20.4550 C   0  0  0  0  0  0  0  0  0  0  0  0
  -24.1720  -13.1230   20.8190 C   0  0  0  0  0  0  0  0  0  0  0  0
  -24.6340  -11.7720   20.8000 C   0  0  0  0  0  0  0  0  0  0  0  0
  -26.2930  -13.0120   20.2430 N   0  0  0  0  0  0  0  0  0  0  0  0
  -25.9270  -11.7300   20.5020 N   0  0  0  0  0  0  0  0  0  0  0  0
  -23.9070  -10.5090   20.9930 C   0  0  0  0  0  0  0  0  0  0  0  0
  -24.3280   -9.5540   21.9450 C   0  0  0  0  0  3  0  0  0  0  0  0
  -23.6030   -8.3570   22.1250 C   0  0  0  0  0  3  0  0  0  0  0  0
  -22.4440   -8.1050   21.3530 C   0  0  0  0  0  0  0  0  0  0  0  0
  -22.0440   -9.0490   20.3910 C   0  0  0  0  0  3  0  0  0  0  0  0
  -22.7690  -10.2380   20.2090 C   0  0  0  0  0  3  0  0  0  0  0  0
  -21.6930   -6.9590   21.4410 O   0  0  0  0  0  0  0  0  0  0  0  0
  -21.6170   -6.2350   22.6030 C   0  0  0  0  0  0  0  0  0  0  0  0
  -21.1490   -6.8060   23.8080 C   0  0  0  0  0  3  0  0  0  0  0  0
  -21.0220   -6.0070   24.9620 C   0  0  0  0  0  3  0  0  0  0  0  0
  -21.3510   -4.6400   24.9120 C   0  0  0  0  0  0  0  0  0  0  0  0
  -21.8100   -4.0690   23.7130 C   0  0  0  0  0  3  0  0  0  0  0  0
  -21.9400   -4.8640   22.5610 C   0  0  0  0  0  0  0  0  0  0  0  0
  -22.3630   -4.3040   21.4020 F   0  0  0  0  0  0  0  0  0  0  0  0
  -21.2230   -3.8710   26.0190 F   0  0  0  0  0  0  0  0  0  0  0  0
  -22.7700  -13.6000   21.0780 C   0  0  0  0  0  0  0  0  0  0  0  0
  -22.0370  -12.9040   21.9410 N   0  0  0  0  0  0  0  0  0  0  0  0
  -22.3350  -14.6220   20.5520 O   0  0  0  0  0  0  0  0  0  0  0  0
  -22.4010  -12.0760   22.3870 H   0  0  0  0  0  0  0  0  0  0  0  0
  -21.0960  -13.2030   22.1590 H   0  0  0  0  0  0  0  0  0  0  0  0
  -25.4130  -15.2620   20.2670 N   0  0  0  0  0  0  0  0  0  0  0  0
  -24.6540  -15.9270   20.3650 H   0  0  0  0  0  0  0  0  0  0  0  0
  -26.2770  -15.6890   19.9610 H   0  0  0  0  0  0  0  0  0  0  0  0
  -28.9860  -23.2040   19.2450 O   0  0  0  0  0  0  0  0  0  0  0  0
  -28.8560  -24.2900   20.1760 C   0  0  0  0  0  2  0  0  0  0  0  0
  -28.7080  -25.6170   19.3790 C   0  0  0  0  0  2  0  0  0  0  0  0
  -28.4750  -26.7860   20.1930 O   0  0  0  0  0  0  0  0  0  0  0  0
  -24.5940  -31.9330   23.2400 C   0  0  0  0  0  0  0  0  0  0  0  0
  -27.2680  -27.4710   20.1690 C   0  0  0  0  0  0  0  0  0  0  0  0
  -23.3970  -30.5180   21.6030 C   0  0  0  0  0  3  0  0  0  0  0  0
  -24.8570  -28.9770   20.1850 C   0  0  0  0  0  0  0  0  0  0  0  0
  -25.9230  -30.8790   21.4080 C   0  0  0  0  0  2  0  0  0  0  0  0
  -26.0120  -29.5030   20.7740 C   0  0  0  0  0  0  0  0  0  0  0  0
  -27.2130  -28.7540   20.7670 C   0  0  0  0  0  3  0  0  0  0  0  0
  -26.0820  -26.9540   19.5950 C   0  0  0  0  0  3  0  0  0  0  0  0
  -24.8890  -27.7010   19.5950 C   0  0  0  0  0  3  0  0  0  0  0  0
  -23.6090  -29.8320   20.2260 C   0  0  0  0  0  2  0  0  0  0  0  0
  -24.6560  -31.1270   22.1410 N   0  0  0  0  0  0  0  0  0  0  0  0
  -23.5110  -32.2040   23.7760 O   0  0  0  0  0  0  0  0  0  0  0  0
  -22.7480  -29.4990   22.5670 C   0  0  0  0  0  0  0  0  0  0  0  0
  -21.4260  -29.3030   22.4300 N   0  0  0  0  0  0  0  0  0  0  0  0
  -23.4310  -28.8880   23.3930 O   0  0  0  0  0  0  0  0  0  0  0  0
  -20.9390  -29.8520   21.7350 H   0  0  0  0  0  0  0  0  0  0  0  0
  -18.0580  -28.0750   22.8980 C   0  0  0  0  0  0  0  0  0  0  0  0
  -20.6090  -28.3630   23.1970 C   0  0  0  0  0  3  0  0  0  0  0  0
  -20.7330  -26.9290   22.6350 C   0  0  0  0  0  2  0  0  0  0  0  0
  -19.6470  -26.5860   21.6100 C   0  0  0  0  0  2  0  0  0  0  0  0
  -18.2560  -26.7220   22.2380 C   0  0  0  0  0  2  0  0  0  0  0  0
  -19.1640  -28.8540   23.3340 C   0  0  0  0  0  0  0  0  0  0  0  0
  -18.9250  -30.1200   23.9080 C   0  0  0  0  0  3  0  0  0  0  0  0
  -17.6130  -30.6110   24.0530 C   0  0  0  0  0  3  0  0  0  0  0  0
  -16.5220  -29.8290   23.6340 C   0  0  0  0  0  3  0  0  0  0  0  0
  -16.7450  -28.5640   23.0630 C   0  0  0  0  0  3  0  0  0  0  0  0
  -25.8770  -32.5690   23.8620 C   0  0  0  0  0  3  0  0  0  0  0  0
  -25.5650  -33.9670   24.1860 N   0  0  0  0  0  0  0  0  0  0  0  0
  -25.9010  -35.0180   23.4250 C   0  0  0  0  0  0  0  0  0  0  0  0
  -26.5780  -34.9130   22.3980 O   0  0  0  0  0  0  0  0  0  0  0  0
  -24.9640  -34.1230   24.9810 H   0  0  0  0  0  0  0  0  0  0  0  0
  -24.1740  -36.8070   23.0480 C   0  0  0  0  0  1  0  0  0  0  0  0
  -25.4070  -36.4070   23.8750 C   0  0  0  0  0  3  0  0  0  0  0  0
  -27.5310  -37.2930   24.7280 C   0  0  0  0  0  1  0  0  0  0  0  0
  -26.4400  -37.4600   23.7710 N   0  0  0  0  0  0  0  0  0  0  0  0
  -26.0320  -38.3810   23.9110 H   0  0  0  0  0  0  0  0  0  0  0  0
  -26.3960  -31.8030   25.1400 C   0  0  1  0  0  0  0  0  0  0  0  0
  -25.3020  -31.5680   26.2090 C   0  0  0  0  0  1  0  0  0  0  0  0
  -26.9830  -30.4270   24.7510 C   0  0  0  0  0  1  0  0  0  0  0  0
  -27.5460  -32.6010   25.7990 C   0  0  0  0  0  1  0  0  0  0  0  0
  1  3  1  0
  2  4  2  0
  2  6  1  0
  3  7  1  0
  4  5  1  0
  5 11  1  0
  5  3  2  0
  6  1  2  0
  8 10  1  0
  9 10  1  0
 10  4  1  0
 11 12  1  0
 12 21  1  0
 13 21  1  0
 14 19  1  0
 15 16  1  0
 15 14  1  0
 17 16  1  0
 17 26  1  0
 17 18  1  0
 19 13  1  0
 19 18  1  0
 20 13  2  0
 21 22  1  0
 23 24  2  0
 24 43  1  0
 25 24  1  0
 25 28  1  0
 26 23  1  0
 26 27  1  0
 27 25  2  0
 28 29  1  0
 29 30  2  0
 31 34  1  0
 31 30  1  0
 32 31  2  0
 33 32  1  0
 33 28  2  0
 34 35  1  0
 35 36  1  0
 36 37  2  0
 38 37  1  0
 38 42  1  0
 39 38  2  0
 40 35  2  0
 40 39  1  0
 41 40  1  0
 43 44  1  0
 44 47  1  0
 44 46  1  0
 45 43  2  0
 48 49  1  0
 48 23  1  0
 50 48  1  0
 51  6  1  0
 51 52  1  0
 53 52  1  0
 53 54  1  0
 55 66  2  0
 56 54  1  0
 56 61  1  0
 57 65  1  0
 57 67  1  0
 58 64  1  0
 58 60  1  0
 59 65  1  0
 60 59  1  0
 61 60  2  0
 62 56  2  0
 63 62  1  0
 63 58  2  0
 64 57  1  0
 65 55  1  0
 67 69  2  0
 68 67  1  0
 70 68  1  0
 71 80  2  0
 71 76  1  0
 72 68  1  0
 72 76  1  0
 73 72  1  0
 74 75  1  0
 74 73  1  0
 75 71  1  0
 76 77  2  0
 77 78  1  0
 79 78  2  0
 80 79  1  0
 81 55  1  0
 81 82  1  0
 81 91  1  0
 82 85  1  0
 83 87  1  0
 83 82  1  0
 84 83  2  0
 87 86  1  0
 89 87  1  0
 89 90  1  0
 89 88  1  0
 91 94  1  1
 91 92  1  0
 93 91  1  0
M  ISO  4  13 100  21 100  53 101  54 101
M  END
>  <TORSDO>  (32) 
F 22

>  <SCORE>  (32) 
-13.407

>  <name>  (32) 
31

>  <ligand_id>  (32) 
31

>  <original_smiles>  (32) 
[H]c1c([H])c([H])c2c(c1[H])C([H])([H])C([H])([H])C([H])([H])C2([H])N([H])C(=O)C1([H])N(C(=O)C([H])(N([H])C(=O)C([H])(N([H])C([H])([H])[H])C([H])([H])[H])C(C([H])([H])[H])(C([H])([H])[H])C([H])([H])[H])C([H])([H])c2c([H])c(OC([H])([H])C([H])([H])Oc3c([H])c(C([H])([H])[H])c(C([H])([H])C([H])([H])N([H])C(=O)N4C([H])([H])C([H])([H])C([H])([H])C([H])(n5nc(-c6c([H])c([H])c(Oc7c([H])c([H])c(F)c([H])c7F)c([H])c6[H])c(C(=O)N([H])[H])c5N([H])[H])C4([H])[H])c(C([H])(C([H])([H])[H])C([H])([H])[H])c3[H])c([H])c([H])c2C1([H])[H]

>  <smiles>  (32) 
[H]c1c([H])c([H])c2c(c1[H])C([H])([H])C([H])([H])C([H])([H])C2([H])N([H])C(=O)C1([H])N(C(=O)C([H])(N([H])C(=O)C([H])(N([H])C([H])([H])[H])C([H])([H])[H])C(C([H])([H])[H])(C([H])([H])[H])C([H])([H])[H])C([H])([H])c2c([H])c(OC([H])([H])C([H])([H])Oc3c([H])c(C([H])([H])[H])c(C([H])([H])C([H])([H])N([H])C(=O)N4C([H])([H])C([H])([H])C([H])([H])C([H])(n5nc(-c6c([H])c([H])c(Oc7c([H])c([H])c(F)c([H])c7F)c([H])c6[H])c(C(=O)N([H])[H])c5N([H])[H])C4([H])[H])c(C([H])(C([H])([H])[H])C([H])([H])[H])c3[H])c([H])c([H])c2C1([H])[H]

$$$$
32:0:0
     RDKit          3D

 95104  0  0  1  0  0  0  0  0999 V2000
  -28.0140  -21.9030   20.2150 C   0  0  0  0  0  3  0  0  0  0  0  0
  -28.3180  -20.6230   20.5900 C   0  0  0  0  0  0  0  0  0  0  0  0
  -29.6320  -20.6990   21.1500 C   0  0  0  0  0  0  0  0  0  0  0  0
  -30.0500  -22.0040   21.1880 C   0  0  0  0  0  0  0  0  0  0  0  0
  -27.4230  -19.4260   20.4020 C   0  0  0  0  0  1  0  0  0  0  0  0
  -31.3250  -22.6040   21.6910 C   0  0  0  0  0  1  0  0  0  0  0  0
  -29.0540  -22.7530   20.5640 N   0  0  0  0  0  0  0  0  0  0  0  0
  -30.4280  -19.6360   21.6090 N   0  0  0  0  0  0  0  0  0  0  0  0
  -31.3650  -19.8680   21.9320 H   0  0  0  0  0  0  0  0  0  0  0  0
  -31.4020  -14.4070   19.8870 C   0  0  0  0  0  0  0  0  0  0  0  0
  -30.9460  -12.2300   18.8170 C   0  0  0  0  0  2  0  0  0  0  0  0
  -29.9580  -12.4550   17.6530 C   0  0  0  0  0  2  0  0  0  0  0  0
  -28.4940  -12.4280   18.1460 C   0  0  0  0  0  2  0  0  0  0  0  0
  -28.2750  -13.3150   19.4020 C   0  0  0  0  0  3  0  0  0  0  0  0
  -29.3620  -13.0190   20.4580 C   0  0  0  0  0  2  0  0  0  0  0  0
  -30.6750  -13.2580   19.8360 N   0  0  0  0  0  0  0  0  0  0  0  0
  -32.4820  -14.5350   19.3000 O   0  0  0  0  0  0  0  0  0  0  0  0
  -30.8250  -17.2330   22.0950 C   0  0  0  0  0  2  0  0  0  0  0  0
  -30.7360  -17.9810   19.7360 C   0  0  0  0  0  2  0  0  0  0  0  0
  -30.3640  -15.8220   21.6770 C   0  0  0  0  0  2  0  0  0  0  0  0
  -30.3780  -16.5510   19.2860 C   0  0  0  0  0  2  0  0  0  0  0  0
  -30.1980  -18.2680   21.1540 C   0  0  0  0  0  3  0  0  0  0  0  0
  -30.7050  -15.5080   20.2730 N   0  0  0  0  0  0  0  0  0  0  0  0
  -25.9860  -14.1220   20.2630 C   0  0  0  0  0  0  0  0  0  0  0  0
  -24.8730  -13.4400   20.6710 C   0  0  0  0  0  0  0  0  0  0  0  0
  -25.2000  -12.0540   20.5690 C   0  0  0  0  0  0  0  0  0  0  0  0
  -26.9300  -13.1560   19.9480 N   0  0  0  0  0  0  0  0  0  0  0  0
  -26.4610  -11.9050   20.1830 N   0  0  0  0  0  0  0  0  0  0  0  0
  -24.3730  -10.8580   20.7700 C   0  0  0  0  0  0  0  0  0  0  0  0
  -24.7280   -9.8650   21.7070 C   0  0  0  0  0  3  0  0  0  0  0  0
  -23.9100   -8.7300   21.8940 C   0  0  0  0  0  3  0  0  0  0  0  0
  -22.7220   -8.5830   21.1390 C   0  0  0  0  0  0  0  0  0  0  0  0
  -22.3840   -9.5650   20.1930 C   0  0  0  0  0  3  0  0  0  0  0  0
  -23.2020  -10.6910   20.0050 C   0  0  0  0  0  3  0  0  0  0  0  0
  -21.8760   -7.5050   21.2370 O   0  0  0  0  0  0  0  0  0  0  0  0
  -21.7130   -6.8170   22.4130 C   0  0  0  0  0  0  0  0  0  0  0  0
  -21.2890   -7.4590   23.5970 C   0  0  0  0  0  3  0  0  0  0  0  0
  -21.0700   -6.7030   24.7660 C   0  0  0  0  0  3  0  0  0  0  0  0
  -21.2680   -5.3090   24.7520 C   0  0  0  0  0  0  0  0  0  0  0  0
  -21.6850   -4.6690   23.5720 C   0  0  0  0  0  3  0  0  0  0  0  0
  -21.9070   -5.4220   22.4060 C   0  0  0  0  0  0  0  0  0  0  0  0
  -22.2880   -4.7980   21.2630 F   0  0  0  0  0  0  0  0  0  0  0  0
  -21.0490   -4.5810   25.8710 F   0  0  0  0  0  0  0  0  0  0  0  0
  -23.5440  -14.0320   21.0430 C   0  0  0  0  0  0  0  0  0  0  0  0
  -22.8220  -13.3950   21.9610 N   0  0  0  0  0  0  0  0  0  0  0  0
  -23.1590  -15.0940   20.5570 O   0  0  0  0  0  0  0  0  0  0  0  0
  -23.1420  -12.5330   22.3780 H   0  0  0  0  0  0  0  0  0  0  0  0
  -21.9340  -13.7820   22.2500 H   0  0  0  0  0  0  0  0  0  0  0  0
  -26.2630  -15.4780   20.1190 N   0  0  0  0  0  0  0  0  0  0  0  0
  -25.5730  -16.1890   20.3290 H   0  0  0  0  0  0  0  0  0  0  0  0
  -27.1330  -15.8650   19.7830 H   0  0  0  0  0  0  0  0  0  0  0  0
  -29.0860  -24.1690   20.2260 C   0  0  0  0  0  2  0  0  0  0  0  0
  -28.7170  -25.1180   21.3830 C   0  0  0  0  0  2  0  0  0  0  0  0
  -29.0200  -26.5750   21.0060 C   0  0  0  0  0  2  0  0  0  0  0  0
  -28.3220  -26.8870   19.8020 O   0  0  0  0  0  0  0  0  0  0  0  0
  -24.6160  -31.9250   23.1960 C   0  0  0  0  0  0  0  0  0  0  0  0
  -27.1570  -27.6000   19.9350 C   0  0  0  0  0  0  0  0  0  0  0  0
  -23.3440  -30.5670   21.5630 C   0  0  0  0  0  3  0  0  0  0  0  0
  -24.7450  -29.0530   20.0640 C   0  0  0  0  0  0  0  0  0  0  0  0
  -25.8460  -30.9540   21.2610 C   0  0  0  0  0  2  0  0  0  0  0  0
  -25.9170  -29.5870   20.6160 C   0  0  0  0  0  0  0  0  0  0  0  0
  -27.1230  -28.8630   20.5610 C   0  0  0  0  0  3  0  0  0  0  0  0
  -25.9760  -27.0740   19.3680 C   0  0  0  0  0  3  0  0  0  0  0  0
  -24.7630  -27.7910   19.4430 C   0  0  0  0  0  3  0  0  0  0  0  0
  -23.4980  -29.9020   20.1670 C   0  0  0  0  0  2  0  0  0  0  0  0
  -24.6260  -31.1590   22.0690 N   0  0  0  0  0  0  0  0  0  0  0  0
  -23.5560  -32.1830   23.7840 O   0  0  0  0  0  0  0  0  0  0  0  0
  -22.7270  -29.5260   22.5240 C   0  0  0  0  0  0  0  0  0  0  0  0
  -21.4020  -29.3310   22.4190 N   0  0  0  0  0  0  0  0  0  0  0  0
  -23.4350  -28.8950   23.3150 O   0  0  0  0  0  0  0  0  0  0  0  0
  -20.8920  -29.8890   21.7470 H   0  0  0  0  0  0  0  0  0  0  0  0
  -18.0610  -28.0800   22.9290 C   0  0  0  0  0  0  0  0  0  0  0  0
  -20.6120  -28.3760   23.1920 C   0  0  0  0  0  3  0  0  0  0  0  0
  -20.7370  -26.9530   22.6040 C   0  0  0  0  0  2  0  0  0  0  0  0
  -19.6380  -26.6210   21.5910 C   0  0  0  0  0  2  0  0  0  0  0  0
  -18.2540  -26.7410   22.2390 C   0  0  0  0  0  2  0  0  0  0  0  0
  -19.1690  -28.8560   23.3620 C   0  0  0  0  0  0  0  0  0  0  0  0
  -18.9330  -30.1100   23.9640 C   0  0  0  0  0  3  0  0  0  0  0  0
  -17.6220  -30.5920   24.1360 C   0  0  0  0  0  3  0  0  0  0  0  0
  -16.5280  -29.8130   23.7220 C   0  0  0  0  0  3  0  0  0  0  0  0
  -16.7480  -28.5590   23.1230 C   0  0  0  0  0  3  0  0  0  0  0  0
  -25.9260  -32.5340   23.7840 C   0  0  0  0  0  3  0  0  0  0  0  0
  -26.4880  -31.7270   25.0170 C   0  0  1  0  0  0  0  0  0  0  0  0
  -25.4380  -31.4640   26.1210 C   0  0  0  0  0  1  0  0  0  0  0  0
  -27.0510  -30.3580   24.5610 C   0  0  0  0  0  1  0  0  0  0  0  0
  -27.6730  -32.4990   25.6480 C   0  0  0  0  0  1  0  0  0  0  0  0
  -25.6420  -33.9280   24.1540 N   0  0  0  0  0  0  0  0  0  0  0  0
  -25.9670  -34.9890   23.4090 C   0  0  0  0  0  0  0  0  0  0  0  0
  -26.6120  -34.9030   22.3590 O   0  0  0  0  0  0  0  0  0  0  0  0
  -25.0520  -34.0680   24.9610 H   0  0  0  0  0  0  0  0  0  0  0  0
  -24.2400  -36.8000   23.1380 C   0  0  0  0  0  1  0  0  0  0  0  0
  -25.5040  -36.3750   23.9040 C   0  0  0  0  0  3  0  0  0  0  0  0
  -27.6700  -37.2280   24.6780 C   0  0  0  0  0  1  0  0  0  0  0  0
  -26.5410  -37.4220   23.7740 N   0  0  0  0  0  0  0  0  0  0  0  0
  -26.1470  -38.3420   23.9510 H   0  0  0  0  0  0  0  0  0  0  0  0
  1  7  1  0
  1  2  2  0
  2  3  1  0
  3  4  2  0
  3  8  1  0
  4  6  1  0
  5  2  1  0
  7  4  1  0
  8  9  1  0
 10 23  1  0
 11 16  1  0
 12 13  1  0
 12 11  1  0
 14 13  1  0
 14 27  1  0
 14 15  1  0
 16 10  1  0
 16 15  1  0
 17 10  2  0
 19 22  1  0
 20 18  1  0
 21 19  1  0
 21 23  1  0
 22  8  1  0
 22 18  1  0
 23 20  1  0
 24 25  2  0
 25 44  1  0
 26 25  1  0
 26 29  1  0
 27 28  1  0
 27 24  1  0
 28 26  2  0
 29 30  1  0
 30 31  2  0
 32 35  1  0
 32 31  1  0
 33 32  2  0
 34 33  1  0
 34 29  2  0
 35 36  1  0
 36 37  1  0
 37 38  2  0
 39 38  1  0
 39 43  1  0
 40 39  2  0
 41 36  2  0
 41 40  1  0
 42 41  1  0
 44 45  1  0
 45 48  1  0
 45 47  1  0
 46 44  2  0
 49 24  1  0
 49 50  1  0
 51 49  1  0
 52  7  1  0
 52 53  1  0
 54 53  1  0
 55 57  1  0
 55 54  1  0
 56 67  2  0
 57 62  1  0
 58 66  1  0
 58 68  1  0
 59 65  1  0
 59 61  1  0
 60 66  1  0
 61 60  1  0
 62 61  2  0
 63 64  1  0
 63 57  2  0
 64 59  2  0
 65 58  1  0
 66 56  1  0
 68 70  2  0
 69 68  1  0
 71 69  1  0
 72 81  2  0
 72 77  1  0
 73 69  1  0
 73 77  1  0
 74 73  1  0
 75 76  1  0
 75 74  1  0
 76 72  1  0
 77 78  2  0
 78 79  1  0
 80 79  2  0
 81 80  1  0
 82 56  1  0
 82 87  1  0
 82 83  1  0
 83 86  1  1
 83 84  1  0
 85 83  1  0
 87 90  1  0
 88 92  1  0
 88 87  1  0
 89 88  2  0
 92 91  1  0
 94 92  1  0
 94 95  1  0
 94 93  1  0
M  ISO  4  10 100  23 100  54 101  55 101
M  END
>  <TORSDO>  (33) 
F 20

>  <SCORE>  (33) 
-13.155

>  <name>  (33) 
32

>  <ligand_id>  (33) 
32

>  <original_smiles>  (33) 
[H]c1c([H])c([H])c2c(c1[H])C([H])([H])C([H])([H])C([H])([H])C2([H])N([H])C(=O)C1([H])N(C(=O)C([H])(N([H])C(=O)C([H])(N([H])C([H])([H])[H])C([H])([H])[H])C(C([H])([H])[H])(C([H])([H])[H])C([H])([H])[H])C([H])([H])c2c([H])c(OC([H])([H])C([H])([H])C([H])([H])n3c([H])c(C([H])([H])[H])c(N([H])C4([H])C([H])([H])C([H])([H])N(C(=O)N5C([H])([H])C([H])([H])C([H])([H])C([H])(n6nc(-c7c([H])c([H])c(Oc8c([H])c([H])c(F)c([H])c8F)c([H])c7[H])c(C(=O)N([H])[H])c6N([H])[H])C5([H])[H])C([H])([H])C4([H])[H])c3C([H])([H])[H])c([H])c([H])c2C1([H])[H]

>  <smiles>  (33) 
[H]c1c([H])c([H])c2c(c1[H])C([H])([H])C([H])([H])C([H])([H])C2([H])N([H])C(=O)C1([H])N(C(=O)C([H])(N([H])C(=O)C([H])(N([H])C([H])([H])[H])C([H])([H])[H])C(C([H])([H])[H])(C([H])([H])[H])C([H])([H])[H])C([H])([H])c2c([H])c(OC([H])([H])C([H])([H])C([H])([H])n3c([H])c(C([H])([H])[H])c(N([H])C4([H])C([H])([H])C([H])([H])N(C(=O)N5C([H])([H])C([H])([H])C([H])([H])C([H])(n6nc(-c7c([H])c([H])c(Oc8c([H])c([H])c(F)c([H])c8F)c([H])c7[H])c(C(=O)N([H])[H])c6N([H])[H])C5([H])[H])C([H])([H])C4([H])[H])c3C([H])([H])[H])c([H])c([H])c2C1([H])[H]

$$$$
33:0:0
     RDKit          3D

 96106  0  0  1  0  0  0  0  0999 V2000
  -30.6170  -21.3710   22.5990 C   0  0  0  0  0  3  0  0  0  0  0  0
  -28.6930  -21.1420   21.1440 C   0  0  0  0  0  3  0  0  0  0  0  0
  -29.5640  -21.9620   21.8800 C   0  0  0  0  0  0  0  0  0  0  0  0
  -30.1650  -19.2220   21.5040 C   0  0  0  0  0  0  0  0  0  0  0  0
  -30.9180  -20.0040   22.4270 C   0  0  0  0  0  0  0  0  0  0  0  0
  -28.9720  -19.7780   20.9580 C   0  0  0  0  0  0  0  0  0  0  0  0
  -32.1160  -19.4440   23.1780 C   0  0  0  0  0  1  0  0  0  0  0  0
  -28.0040  -19.0230   20.0600 C   0  0  0  0  0  1  0  0  0  0  0  0
  -30.8880  -14.6910   20.0540 C   0  0  0  0  0  0  0  0  0  0  0  0
  -30.5530  -12.5290   18.9600 C   0  0  0  0  0  2  0  0  0  0  0  0
  -29.5520  -12.7380   17.8070 C   0  0  0  0  0  2  0  0  0  0  0  0
  -28.1030  -12.5910   18.3090 C   0  0  0  0  0  2  0  0  0  0  0  0
  -27.8150  -13.4210   19.5910 C   0  0  0  0  0  3  0  0  0  0  0  0
  -28.9330  -13.2300   20.6430 C   0  0  0  0  0  2  0  0  0  0  0  0
  -30.2220  -13.5130   19.9960 N   0  0  0  0  0  0  0  0  0  0  0  0
  -32.0400  -14.8430   19.6340 O   0  0  0  0  0  0  0  0  0  0  0  0
  -30.8470  -17.8970   19.4230 C   0  0  0  0  0  2  0  0  0  0  0  0
  -30.0530  -16.6620   19.0100 C   0  0  0  0  0  2  0  0  0  0  0  0
  -30.1110  -16.5920   21.3760 C   0  0  0  0  0  2  0  0  0  0  0  0
  -30.7640  -17.9180   20.9540 C   0  0  0  0  0  3  0  0  0  0  0  0
  -30.0800  -15.7610   20.1660 N   0  0  0  0  0  0  0  0  0  0  0  0
  -25.4590  -13.9860   20.4620 C   0  0  0  0  0  0  0  0  0  0  0  0
  -24.4160  -13.1910   20.8600 C   0  0  0  0  0  0  0  0  0  0  0  0
  -24.8810  -11.8460   20.7440 C   0  0  0  0  0  0  0  0  0  0  0  0
  -26.4930  -13.1210   20.1390 N   0  0  0  0  0  0  0  0  0  0  0  0
  -26.1520  -11.8270   20.3640 N   0  0  0  0  0  0  0  0  0  0  0  0
  -24.1730  -10.5720   20.9230 C   0  0  0  0  0  0  0  0  0  0  0  0
  -24.5890   -9.6250   21.8840 C   0  0  0  0  0  3  0  0  0  0  0  0
  -23.8810   -8.4150   22.0490 C   0  0  0  0  0  3  0  0  0  0  0  0
  -22.7420   -8.1430   21.2530 C   0  0  0  0  0  0  0  0  0  0  0  0
  -22.3470   -9.0800   20.2810 C   0  0  0  0  0  3  0  0  0  0  0  0
  -23.0560  -10.2810   20.1130 C   0  0  0  0  0  3  0  0  0  0  0  0
  -22.0080   -6.9850   21.3240 O   0  0  0  0  0  0  0  0  0  0  0  0
  -21.7870   -6.3470   22.5180 C   0  0  0  0  0  0  0  0  0  0  0  0
  -21.1160   -6.9770   23.5880 C   0  0  0  0  0  3  0  0  0  0  0  0
  -20.8480   -6.2600   24.7710 C   0  0  0  0  0  3  0  0  0  0  0  0
  -21.2460   -4.9140   24.8830 C   0  0  0  0  0  0  0  0  0  0  0  0
  -21.9100   -4.2820   23.8170 C   0  0  0  0  0  3  0  0  0  0  0  0
  -22.1760   -4.9970   22.6360 C   0  0  0  0  0  0  0  0  0  0  0  0
  -22.7970   -4.3780   21.6030 F   0  0  0  0  0  0  0  0  0  0  0  0
  -20.9860   -4.2220   26.0170 F   0  0  0  0  0  0  0  0  0  0  0  0
  -23.0360  -13.6460   21.2380 C   0  0  0  0  0  0  0  0  0  0  0  0
  -22.3820  -12.9230   22.1410 N   0  0  0  0  0  0  0  0  0  0  0  0
  -22.5500  -14.6760   20.7730 O   0  0  0  0  0  0  0  0  0  0  0  0
  -22.7900  -12.0870   22.5330 H   0  0  0  0  0  0  0  0  0  0  0  0
  -21.4610  -13.2070   22.4450 H   0  0  0  0  0  0  0  0  0  0  0  0
  -25.6080  -15.3630   20.3310 N   0  0  0  0  0  0  0  0  0  0  0  0
  -24.8460  -16.0120   20.4950 H   0  0  0  0  0  0  0  0  0  0  0  0
  -26.4400  -15.8130   19.9710 H   0  0  0  0  0  0  0  0  0  0  0  0
  -28.1210  -24.0790   22.0870 C   0  0  0  0  0  2  0  0  0  0  0  0
  -29.8830  -23.7890   20.2560 C   0  0  0  0  0  2  0  0  0  0  0  0
  -28.0290  -25.5650   21.7050 C   0  0  0  0  0  2  0  0  0  0  0  0
  -29.7670  -25.2730   19.9180 C   0  0  0  0  0  2  0  0  0  0  0  0
  -29.4940  -23.4710   21.7180 C   0  0  0  0  0  3  0  0  0  0  0  0
  -28.3500  -25.7730   20.2080 C   0  0  0  0  0  3  0  0  0  0  0  0
  -28.3490  -27.1440   19.8500 O   0  0  0  0  0  0  0  0  0  0  0  0
  -24.5590  -31.9660   23.3460 C   0  0  0  0  0  0  0  0  0  0  0  0
  -27.1520  -27.8060   19.9080 C   0  0  0  0  0  0  0  0  0  0  0  0
  -23.3190  -30.6830   21.6290 C   0  0  0  0  0  3  0  0  0  0  0  0
  -24.7450  -29.2560   20.0730 C   0  0  0  0  0  0  0  0  0  0  0  0
  -25.8330  -31.0760   21.4050 C   0  0  0  0  0  2  0  0  0  0  0  0
  -25.9090  -29.7570   20.6690 C   0  0  0  0  0  0  0  0  0  0  0  0
  -27.1160  -29.0410   20.5790 C   0  0  0  0  0  3  0  0  0  0  0  0
  -25.9740  -27.3010   19.3130 C   0  0  0  0  0  3  0  0  0  0  0  0
  -24.7690  -28.0250   19.3930 C   0  0  0  0  0  3  0  0  0  0  0  0
  -23.4980  -30.0990   20.2020 C   0  0  0  0  0  2  0  0  0  0  0  0
  -24.5890  -31.2510   22.1870 N   0  0  0  0  0  0  0  0  0  0  0  0
  -23.4890  -32.1960   23.9270 O   0  0  0  0  0  0  0  0  0  0  0  0
  -22.6900  -29.5950   22.5280 C   0  0  0  0  0  0  0  0  0  0  0  0
  -21.3730  -29.3860   22.3770 N   0  0  0  0  0  0  0  0  0  0  0  0
  -23.3850  -28.9430   23.3120 O   0  0  0  0  0  0  0  0  0  0  0  0
  -20.8750  -29.9680   21.7170 H   0  0  0  0  0  0  0  0  0  0  0  0
  -18.0210  -28.1090   22.7880 C   0  0  0  0  0  0  0  0  0  0  0  0
  -20.5720  -28.3880   23.0850 C   0  0  0  0  0  3  0  0  0  0  0  0
  -20.7010  -26.9980   22.4200 C   0  0  0  0  0  2  0  0  0  0  0  0
  -19.6070  -26.7220   21.3850 C   0  0  0  0  0  2  0  0  0  0  0  0
  -18.2210  -26.8060   22.0320 C   0  0  0  0  0  2  0  0  0  0  0  0
  -19.1260  -28.8600   23.2690 C   0  0  0  0  0  0  0  0  0  0  0  0
  -18.8870  -30.0830   23.9320 C   0  0  0  0  0  3  0  0  0  0  0  0
  -17.5740  -30.5530   24.1240 C   0  0  0  0  0  3  0  0  0  0  0  0
  -16.4830  -29.7970   23.6620 C   0  0  0  0  0  3  0  0  0  0  0  0
  -16.7070  -28.5770   22.9990 C   0  0  0  0  0  3  0  0  0  0  0  0
  -25.8600  -32.5500   23.9830 C   0  0  0  0  0  3  0  0  0  0  0  0
  -25.6000  -33.9600   24.3010 N   0  0  0  0  0  0  0  0  0  0  0  0
  -25.9390  -34.9920   23.5170 C   0  0  0  0  0  0  0  0  0  0  0  0
  -26.5770  -34.8550   22.4690 O   0  0  0  0  0  0  0  0  0  0  0  0
  -25.0360  -34.1430   25.1180 H   0  0  0  0  0  0  0  0  0  0  0  0
  -24.2340  -36.8100   23.1980 C   0  0  0  0  0  1  0  0  0  0  0  0
  -25.5000  -36.3980   23.9650 C   0  0  0  0  0  3  0  0  0  0  0  0
  -27.6780  -37.2600   24.7010 C   0  0  0  0  0  1  0  0  0  0  0  0
  -26.5470  -37.4280   23.7920 N   0  0  0  0  0  0  0  0  0  0  0  0
  -26.1630  -38.3580   23.9310 H   0  0  0  0  0  0  0  0  0  0  0  0
  -26.3300  -31.7630   25.2660 C   0  0  1  0  0  0  0  0  0  0  0  0
  -25.2110  -31.5500   26.3120 C   0  0  0  0  0  1  0  0  0  0  0  0
  -26.8860  -30.3730   24.8790 C   0  0  0  0  0  1  0  0  0  0  0  0
  -27.4870  -32.5270   25.9540 C   0  0  0  0  0  1  0  0  0  0  0  0
  2  3  1  0
  3  1  2  0
  4  5  2  0
  5  1  1  0
  5  7  1  0
  6  2  2  0
  6  4  1  0
  8  6  1  0
  9 21  1  0
 10 15  1  0
 11 12  1  0
 11 10  1  0
 13 12  1  0
 13 25  1  0
 13 14  1  0
 15  9  1  0
 15 14  1  0
 16  9  2  0
 17 20  1  0
 18 17  1  0
 18 21  1  0
 20 19  1  0
 20  4  1  0
 21 19  1  0
 22 23  2  0
 23 42  1  0
 24 23  1  0
 24 27  1  0
 25 26  1  0
 25 22  1  0
 26 24  2  0
 27 28  1  0
 28 29  2  0
 30 33  1  0
 30 29  1  0
 31 30  2  0
 32 31  1  0
 32 27  2  0
 33 34  1  0
 34 39  2  0
 34 35  1  0
 35 36  2  0
 36 37  1  0
 37 41  1  0
 38 37  2  0
 39 38  1  0
 40 39  1  0
 42 43  1  0
 43 46  1  0
 43 45  1  0
 44 42  2  0
 47 22  1  0
 47 48  1  0
 49 47  1  0
 51 54  1  0
 52 50  1  0
 53 55  1  0
 53 51  1  0
 54  3  1  0
 54 50  1  0
 55 56  1  0
 55 52  1  0
 56 58  1  0
 57 68  2  0
 58 63  1  0
 59 67  1  0
 59 69  1  0
 60 66  1  0
 60 62  1  0
 61 67  1  0
 62 61  1  0
 63 62  2  0
 64 65  1  0
 64 58  2  0
 65 60  2  0
 66 59  1  0
 67 57  1  0
 69 71  2  0
 70 69  1  0
 72 70  1  0
 73 82  2  0
 73 78  1  0
 74 70  1  0
 74 78  1  0
 75 74  1  0
 76 77  1  0
 76 75  1  0
 77 73  1  0
 78 79  2  0
 79 80  1  0
 81 80  2  0
 82 81  1  0
 83 57  1  0
 83 84  1  0
 83 93  1  0
 84 87  1  0
 85 89  1  0
 85 84  1  0
 86 85  2  0
 89 88  1  0
 91 92  1  0
 91 89  1  0
 91 90  1  0
 93 96  1  1
 93 94  1  0
 95 93  1  0
M  ISO  4   9 100  21 100  55 101  56 101
M  END
>  <TORSDO>  (34) 
F 17

>  <SCORE>  (34) 
-14.702

>  <name>  (34) 
33

>  <ligand_id>  (34) 
33

>  <original_smiles>  (34) 
[H]c1c([H])c([H])c2c(c1[H])C([H])([H])C([H])([H])C([H])([H])C2([H])N([H])C(=O)C1([H])N(C(=O)C([H])(N([H])C(=O)C([H])(N([H])C([H])([H])[H])C([H])([H])[H])C(C([H])([H])[H])(C([H])([H])[H])C([H])([H])[H])C([H])([H])c2c([H])c(OC3([H])C([H])([H])C([H])([H])C([H])(c4c([H])c(C([H])([H])[H])c(C5([H])C([H])([H])N(C(=O)N6C([H])([H])C([H])([H])C([H])([H])C([H])(n7nc(-c8c([H])c([H])c(Oc9c([H])c([H])c(F)c([H])c9F)c([H])c8[H])c(C(=O)N([H])[H])c7N([H])[H])C6([H])[H])C([H])([H])C5([H])[H])c(C([H])([H])[H])c4[H])C([H])([H])C3([H])[H])c([H])c([H])c2C1([H])[H]

>  <smiles>  (34) 
[H]c1c([H])c([H])c2c(c1[H])C([H])([H])C([H])([H])C([H])([H])C2([H])N([H])C(=O)C1([H])N(C(=O)C([H])(N([H])C(=O)C([H])(N([H])C([H])([H])[H])C([H])([H])[H])C(C([H])([H])[H])(C([H])([H])[H])C([H])([H])[H])C([H])([H])c2c([H])c(OC3([H])C([H])([H])C([H])([H])C([H])(c4c([H])c(C([H])([H])[H])c(C5([H])C([H])([H])N(C(=O)N6C([H])([H])C([H])([H])C([H])([H])C([H])(n7nc(-c8c([H])c([H])c(Oc9c([H])c([H])c(F)c([H])c9F)c([H])c8[H])c(C(=O)N([H])[H])c7N([H])[H])C6([H])[H])C([H])([H])C5([H])[H])c(C([H])([H])[H])c4[H])C([H])([H])C3([H])[H])c([H])c([H])c2C1([H])[H]

$$$$
34:0:0
     RDKit          3D

 93101  0  0  1  0  0  0  0  0999 V2000
  -30.2580  -22.8590   19.2260 C   0  0  0  0  0  3  0  0  0  0  0  0
  -30.7200  -21.5130   19.5470 C   0  0  0  0  0  0  0  0  0  0  0  0
  -29.4270  -23.6830   20.0660 C   0  0  0  0  0  0  0  0  0  0  0  0
  -29.1540  -23.0310   21.3120 C   0  0  0  0  0  0  0  0  0  0  0  0
  -29.5780  -21.6630   21.6290 C   0  0  0  0  0  0  0  0  0  0  0  0
  -30.3090  -20.7920   20.7200 C   0  0  0  0  0  0  0  0  0  0  0  0
  -31.7370  -20.8610   18.6220 C   0  0  0  0  0  1  0  0  0  0  0  0
  -28.3130  -23.8230   22.3140 C   0  0  0  0  0  1  0  0  0  0  0  0
  -29.2240  -21.1440   23.0290 C   0  0  0  0  0  1  0  0  0  0  0  0
  -28.6210  -25.0270   19.5380 C   0  0  0  0  0  2  0  0  0  0  0  0
  -28.7260  -26.5030   19.9950 O   0  0  0  0  0  0  0  0  0  0  0  0
  -24.8050  -31.7800   23.2490 C   0  0  0  0  0  0  0  0  0  0  0  0
  -27.6240  -27.4350   19.9190 C   0  0  0  0  0  0  0  0  0  0  0  0
  -23.6750  -30.4550   21.5060 C   0  0  0  0  0  3  0  0  0  0  0  0
  -25.2040  -29.0570   19.9860 C   0  0  0  0  0  0  0  0  0  0  0  0
  -26.2100  -30.8600   21.3700 C   0  0  0  0  0  2  0  0  0  0  0  0
  -26.3560  -29.5200   20.6310 C   0  0  0  0  0  0  0  0  0  0  0  0
  -27.5580  -28.7190   20.5940 C   0  0  0  0  0  3  0  0  0  0  0  0
  -26.4470  -27.0960   19.2060 C   0  0  0  0  0  3  0  0  0  0  0  0
  -25.2570  -27.8550   19.2660 C   0  0  0  0  0  3  0  0  0  0  0  0
  -23.9350  -29.8880   20.0850 C   0  0  0  0  0  2  0  0  0  0  0  0
  -24.9160  -31.0480   22.1000 N   0  0  0  0  0  0  0  0  0  0  0  0
  -23.7050  -31.9740   23.7900 O   0  0  0  0  0  0  0  0  0  0  0  0
  -23.0380  -29.3500   22.3850 C   0  0  0  0  0  0  0  0  0  0  0  0
  -21.7210  -29.1260   22.2340 N   0  0  0  0  0  0  0  0  0  0  0  0
  -23.7330  -28.6970   23.1680 O   0  0  0  0  0  0  0  0  0  0  0  0
  -21.2100  -29.7150   21.5920 H   0  0  0  0  0  0  0  0  0  0  0  0
  -18.3990  -27.7260   22.6020 C   0  0  0  0  0  0  0  0  0  0  0  0
  -20.9380  -28.0970   22.9260 C   0  0  0  0  0  3  0  0  0  0  0  0
  -21.1180  -26.7120   22.2610 C   0  0  0  0  0  2  0  0  0  0  0  0
  -20.0470  -26.4010   21.2110 C   0  0  0  0  0  2  0  0  0  0  0  0
  -18.6500  -26.4380   21.8390 C   0  0  0  0  0  2  0  0  0  0  0  0
  -19.4720  -28.5140   23.0980 C   0  0  0  0  0  0  0  0  0  0  0  0
  -19.1820  -29.7220   23.7680 C   0  0  0  0  0  3  0  0  0  0  0  0
  -17.8500  -30.1430   23.9500 C   0  0  0  0  0  3  0  0  0  0  0  0
  -16.7920  -29.3510   23.4730 C   0  0  0  0  0  3  0  0  0  0  0  0
  -17.0660  -28.1440   22.8050 C   0  0  0  0  0  3  0  0  0  0  0  0
  -26.0510  -32.4240   23.9280 C   0  0  0  0  0  3  0  0  0  0  0  0
  -26.5700  -31.6030   25.1710 C   0  0  1  0  0  0  0  0  0  0  0  0
  -25.4670  -31.2730   26.2040 C   0  0  0  0  0  1  0  0  0  0  0  0
  -27.2070  -30.2680   24.7200 C   0  0  0  0  0  1  0  0  0  0  0  0
  -27.6800  -32.3970   25.8970 C   0  0  0  0  0  1  0  0  0  0  0  0
  -25.6850  -33.7920   24.3300 N   0  0  0  0  0  0  0  0  0  0  0  0
  -26.0190  -34.9000   23.6550 C   0  0  0  0  0  0  0  0  0  0  0  0
  -26.7330  -34.8800   22.6490 O   0  0  0  0  0  0  0  0  0  0  0  0
  -25.0530  -33.8760   25.1130 H   0  0  0  0  0  0  0  0  0  0  0  0
  -24.2630  -36.6750   23.3380 C   0  0  0  0  0  1  0  0  0  0  0  0
  -25.4750  -36.2430   24.1790 C   0  0  0  0  0  3  0  0  0  0  0  0
  -27.5400  -37.1240   25.1750 C   0  0  0  0  0  1  0  0  0  0  0  0
  -26.4840  -37.3270   24.1860 N   0  0  0  0  0  0  0  0  0  0  0  0
  -26.0450  -38.2250   24.3700 H   0  0  0  0  0  0  0  0  0  0  0  0
  -30.7070  -19.2240   21.1030 C   0  0  0  0  0  3  0  0  0  0  0  0
  -31.8570  -19.2400   21.9230 O   0  0  0  0  0  0  0  0  0  0  0  0
  -32.5840  -19.4850   21.3590 H   0  0  0  0  0  0  0  0  0  0  0  0
  -31.0290  -17.9370   20.1000 C   0  0  0  0  0  2  0  0  0  0  0  0
  -31.4420  -15.2660   20.2260 C   0  0  0  0  0  0  0  0  0  0  0  0
  -31.2200  -12.9100   19.3370 C   0  0  0  0  0  2  0  0  0  0  0  0
  -30.2960  -12.8980   18.0950 C   0  0  0  0  0  2  0  0  0  0  0  0
  -28.8250  -12.7420   18.5230 C   0  0  0  0  0  2  0  0  0  0  0  0
  -28.4480  -13.7100   19.6770 C   0  0  0  0  0  3  0  0  0  0  0  0
  -29.4940  -13.7010   20.8150 C   0  0  0  0  0  2  0  0  0  0  0  0
  -30.7950  -14.0330   20.2230 N   0  0  0  0  0  0  0  0  0  0  0  0
  -32.6020  -15.3160   19.8100 O   0  0  0  0  0  0  0  0  0  0  0  0
  -30.7390  -16.4510   20.5080 N   0  0  0  0  0  0  0  0  0  0  0  0
  -29.8210  -16.2950   20.8970 H   0  0  0  0  0  0  0  0  0  0  0  0
  -26.1070  -14.3920   20.4680 C   0  0  0  0  0  0  0  0  0  0  0  0
  -25.0000  -13.6650   20.8140 C   0  0  0  0  0  0  0  0  0  0  0  0
  -25.3790  -12.2900   20.7040 C   0  0  0  0  0  0  0  0  0  0  0  0
  -27.0930  -13.4670   20.1670 N   0  0  0  0  0  0  0  0  0  0  0  0
  -26.6620  -12.1930   20.3700 N   0  0  0  0  0  0  0  0  0  0  0  0
  -24.5790  -11.0660   20.8380 C   0  0  0  0  0  0  0  0  0  0  0  0
  -24.9250  -10.0570   21.7640 C   0  0  0  0  0  3  0  0  0  0  0  0
  -24.1330   -8.8950   21.8840 C   0  0  0  0  0  3  0  0  0  0  0  0
  -22.9800   -8.7350   21.0800 C   0  0  0  0  0  0  0  0  0  0  0  0
  -22.6530   -9.7340   20.1460 C   0  0  0  0  0  3  0  0  0  0  0  0
  -23.4440  -10.8860   20.0210 C   0  0  0  0  0  3  0  0  0  0  0  0
  -22.1640   -7.6300   21.1140 O   0  0  0  0  0  0  0  0  0  0  0  0
  -21.9550   -6.9210   22.2710 C   0  0  0  0  0  0  0  0  0  0  0  0
  -21.3930   -7.5170   23.4200 C   0  0  0  0  0  3  0  0  0  0  0  0
  -21.1370   -6.7350   24.5640 C   0  0  0  0  0  3  0  0  0  0  0  0
  -21.4300   -5.3590   24.5560 C   0  0  0  0  0  0  0  0  0  0  0  0
  -21.9850   -4.7620   23.4110 C   0  0  0  0  0  3  0  0  0  0  0  0
  -22.2450   -5.5420   22.2700 C   0  0  0  0  0  0  0  0  0  0  0  0
  -22.7610   -4.9580   21.1620 F   0  0  0  0  0  0  0  0  0  0  0  0
  -21.1750   -4.6050   25.6520 F   0  0  0  0  0  0  0  0  0  0  0  0
  -23.6390  -14.2110   21.1300 C   0  0  0  0  0  0  0  0  0  0  0  0
  -22.8760  -13.5310   21.9770 N   0  0  0  0  0  0  0  0  0  0  0  0
  -23.2550  -15.2810   20.6560 O   0  0  0  0  0  0  0  0  0  0  0  0
  -23.1900  -12.6680   22.3960 H   0  0  0  0  0  0  0  0  0  0  0  0
  -21.9610  -13.8890   22.2150 H   0  0  0  0  0  0  0  0  0  0  0  0
  -26.3600  -15.7570   20.3580 N   0  0  0  0  0  0  0  0  0  0  0  0
  -25.6450  -16.4630   20.4940 H   0  0  0  0  0  0  0  0  0  0  0  0
  -27.2310  -16.1370   20.0080 H   0  0  0  0  0  0  0  0  0  0  0  0
  1  2  2  0
  1  3  1  0
  2  6  1  0
  3  4  2  0
  4  5  1  0
  4  8  1  0
  5  9  1  0
  6 52  1  0
  6  5  2  0
  7  2  1  0
 10 11  1  0
 10  3  1  0
 12 23  2  0
 13 11  1  0
 13 18  1  0
 14 22  1  0
 14 24  1  0
 15 21  1  0
 15 17  1  0
 16 22  1  0
 17 16  1  0
 18 17  2  0
 19 20  1  0
 19 13  2  0
 20 15  2  0
 21 14  1  0
 22 12  1  0
 24 26  2  0
 25 24  1  0
 27 25  1  0
 28 37  2  0
 28 33  1  0
 29 25  1  0
 29 33  1  0
 30 29  1  0
 31 32  1  0
 31 30  1  0
 32 28  1  0
 33 34  2  0
 34 35  1  0
 36 35  2  0
 37 36  1  0
 38 12  1  0
 38 43  1  0
 38 39  1  0
 39 42  1  1
 39 40  1  0
 41 39  1  0
 43 46  1  0
 44 48  1  0
 44 43  1  0
 45 44  2  0
 48 47  1  0
 48 50  1  0
 50 51  1  0
 50 49  1  0
 52 55  1  0
 52 53  1  0
 54 53  1  0
 55 64  1  0
 56 64  1  0
 57 62  1  0
 58 59  1  0
 58 57  1  0
 60 59  1  0
 60 69  1  0
 60 61  1  0
 62 56  1  0
 62 61  1  0
 63 56  2  0
 64 65  1  0
 66 67  2  0
 67 86  1  0
 68 67  1  0
 68 71  1  0
 69 70  1  0
 69 66  1  0
 70 68  2  0
 71 72  1  0
 72 73  2  0
 74 77  1  0
 74 73  1  0
 75 74  2  0
 76 75  1  0
 76 71  2  0
 77 78  1  0
 78 79  1  0
 79 80  2  0
 81 80  1  0
 81 85  1  0
 82 81  2  0
 83 78  2  0
 83 82  1  0
 84 83  1  0
 86 87  1  0
 87 90  1  0
 87 89  1  0
 88 86  2  0
 91 66  1  0
 91 92  1  0
 93 91  1  0
M  ISO  4  10 101  11 101  56 100  64 100
M  END
>  <TORSDO>  (35) 
F 20

>  <SCORE>  (35) 
-11.658

>  <name>  (35) 
34

>  <ligand_id>  (35) 
34

>  <original_smiles>  (35) 
[H]OC([H])(c1c(C([H])([H])[H])c([H])c(C([H])([H])Oc2c([H])c([H])c3c(c2[H])C([H])([H])N(C(=O)C([H])(N([H])C(=O)C([H])(N([H])C([H])([H])[H])C([H])([H])[H])C(C([H])([H])[H])(C([H])([H])[H])C([H])([H])[H])C([H])(C(=O)N([H])C2([H])c4c([H])c([H])c([H])c([H])c4C([H])([H])C([H])([H])C2([H])[H])C3([H])[H])c(C([H])([H])[H])c1C([H])([H])[H])C([H])([H])N([H])C(=O)N1C([H])([H])C([H])([H])C([H])([H])C([H])(n2nc(-c3c([H])c([H])c(Oc4c([H])c([H])c(F)c([H])c4F)c([H])c3[H])c(C(=O)N([H])[H])c2N([H])[H])C1([H])[H]

>  <smiles>  (35) 
[H]OC([H])(c1c(C([H])([H])[H])c([H])c(C([H])([H])Oc2c([H])c([H])c3c(c2[H])C([H])([H])N(C(=O)C([H])(N([H])C(=O)C([H])(N([H])C([H])([H])[H])C([H])([H])[H])C(C([H])([H])[H])(C([H])([H])[H])C([H])([H])[H])C([H])(C(=O)N([H])C2([H])c4c([H])c([H])c([H])c([H])c4C([H])([H])C([H])([H])C2([H])[H])C3([H])[H])c(C([H])([H])[H])c1C([H])([H])[H])C([H])([H])N([H])C(=O)N1C([H])([H])C([H])([H])C([H])([H])C([H])(n2nc(-c3c([H])c([H])c(Oc4c([H])c([H])c(F)c([H])c4F)c([H])c3[H])c(C(=O)N([H])[H])c2N([H])[H])C1([H])[H]

$$$$
35:0:0
     RDKit          3D

 95104  0  0  1  0  0  0  0  0999 V2000
  -28.7230  -22.2870   20.0390 C   0  0  0  0  0  0  0  0  0  0  0  0
  -28.8490  -23.6520   20.5560 C   0  0  0  0  0  0  0  0  0  0  0  0
  -29.4160  -21.1470   20.6350 C   0  0  0  0  0  0  0  0  0  0  0  0
  -29.7350  -23.7870   21.6480 C   0  0  0  0  0  0  0  0  0  0  0  0
  -30.2900  -21.4920   21.6980 C   0  0  0  0  0  0  0  0  0  0  0  0
  -29.9510  -25.1040   22.3710 C   0  0  0  0  0  1  0  0  0  0  0  0
  -31.0920  -20.4620   22.4680 C   0  0  0  0  0  1  0  0  0  0  0  0
  -30.4430  -22.7520   22.1600 N   0  0  0  0  0  0  0  0  0  0  0  0
  -26.4480  -22.3560   18.6910 C   0  0  0  0  0  2  0  0  0  0  0  0
  -26.8980  -20.9210   18.7300 C   0  0  0  0  0  2  0  0  0  0  0  0
  -27.9280  -22.0330   18.7770 C   0  0  2  0  0  0  0  0  0  0  0  0
  -28.8220  -22.2600   17.5690 C   0  0  0  0  0  1  0  0  0  0  0  0
  -27.9610  -24.8840   20.0290 C   0  0  0  0  0  2  0  0  0  0  0  0
  -28.2500  -26.3470   20.2680 O   0  0  0  0  0  0  0  0  0  0  0  0
  -24.5700  -31.8680   23.2290 C   0  0  0  0  0  0  0  0  0  0  0  0
  -27.1700  -27.2670   20.1750 C   0  0  0  0  0  0  0  0  0  0  0  0
  -23.3710  -30.4840   21.5770 C   0  0  0  0  0  3  0  0  0  0  0  0
  -24.8210  -28.9370   20.1400 C   0  0  0  0  0  0  0  0  0  0  0  0
  -25.9150  -30.7840   21.4030 C   0  0  0  0  0  2  0  0  0  0  0  0
  -25.9930  -29.4020   20.7540 C   0  0  0  0  0  0  0  0  0  0  0  0
  -27.1670  -28.5810   20.7610 C   0  0  0  0  0  3  0  0  0  0  0  0
  -25.9760  -26.8840   19.5140 C   0  0  0  0  0  3  0  0  0  0  0  0
  -24.8190  -27.6870   19.5060 C   0  0  0  0  0  3  0  0  0  0  0  0
  -23.5870  -29.8200   20.1910 C   0  0  0  0  0  2  0  0  0  0  0  0
  -24.6390  -31.0640   22.1260 N   0  0  0  0  0  0  0  0  0  0  0  0
  -23.4850  -32.1420   23.7630 O   0  0  0  0  0  0  0  0  0  0  0  0
  -22.7010  -29.4630   22.5290 C   0  0  0  0  0  0  0  0  0  0  0  0
  -21.3720  -29.3000   22.4080 N   0  0  0  0  0  0  0  0  0  0  0  0
  -23.3770  -28.8220   23.3370 O   0  0  0  0  0  0  0  0  0  0  0  0
  -20.8850  -29.8730   21.7340 H   0  0  0  0  0  0  0  0  0  0  0  0
  -17.9840  -28.1310   22.9190 C   0  0  0  0  0  0  0  0  0  0  0  0
  -20.5470  -28.3620   23.1720 C   0  0  0  0  0  3  0  0  0  0  0  0
  -20.6290  -26.9350   22.5810 C   0  0  0  0  0  2  0  0  0  0  0  0
  -19.5150  -26.6350   21.5730 C   0  0  0  0  0  2  0  0  0  0  0  0
  -18.1390  -26.7910   22.2250 C   0  0  0  0  0  2  0  0  0  0  0  0
  -19.1140  -28.8780   23.3490 C   0  0  0  0  0  0  0  0  0  0  0  0
  -18.9100  -30.1370   23.9560 C   0  0  0  0  0  3  0  0  0  0  0  0
  -17.6130  -30.6480   24.1380 C   0  0  0  0  0  3  0  0  0  0  0  0
  -16.4970  -29.9000   23.7230 C   0  0  0  0  0  3  0  0  0  0  0  0
  -16.6840  -28.6430   23.1180 C   0  0  0  0  0  3  0  0  0  0  0  0
  -25.8510  -32.4960   23.8590 C   0  0  0  0  0  3  0  0  0  0  0  0
  -25.5480  -33.8970   24.1890 N   0  0  0  0  0  0  0  0  0  0  0  0
  -25.8950  -34.9500   23.4360 C   0  0  0  0  0  0  0  0  0  0  0  0
  -26.5730  -34.8440   22.4120 O   0  0  0  0  0  0  0  0  0  0  0  0
  -24.9570  -34.0580   24.9920 H   0  0  0  0  0  0  0  0  0  0  0  0
  -24.1910  -36.7580   23.0560 C   0  0  0  0  0  1  0  0  0  0  0  0
  -25.4120  -36.3410   23.8920 C   0  0  0  0  0  3  0  0  0  0  0  0
  -27.5350  -37.2000   24.7750 C   0  0  0  0  0  1  0  0  0  0  0  0
  -26.4550  -37.3840   23.8080 N   0  0  0  0  0  0  0  0  0  0  0  0
  -26.0520  -38.3050   23.9530 H   0  0  0  0  0  0  0  0  0  0  0  0
  -26.3560  -31.7240   25.1390 C   0  0  1  0  0  0  0  0  0  0  0  0
  -25.2570  -31.4960   26.2020 C   0  0  0  0  0  1  0  0  0  0  0  0
  -26.9380  -30.3460   24.7500 C   0  0  0  0  0  1  0  0  0  0  0  0
  -27.5050  -32.5160   25.8080 C   0  0  0  0  0  1  0  0  0  0  0  0
  -29.1280  -19.7920   20.2670 O   0  0  0  0  0  0  0  0  0  0  0  0
  -30.0860  -18.6630   20.0420 C   0  0  0  0  0  2  0  0  0  0  0  0
  -30.0880  -17.3380   20.9860 C   0  0  0  0  0  2  0  0  0  0  0  0
  -30.5730  -14.8080   20.2330 C   0  0  0  0  0  0  0  0  0  0  0  0
  -30.3530  -12.5660   19.1370 C   0  0  0  0  0  2  0  0  0  0  0  0
  -29.3700  -12.6630   17.9490 C   0  0  0  0  0  2  0  0  0  0  0  0
  -27.9160  -12.4730   18.4260 C   0  0  0  0  0  2  0  0  0  0  0  0
  -27.5780  -13.3310   19.6730 C   0  0  0  0  0  3  0  0  0  0  0  0
  -28.6720  -13.2120   20.7540 C   0  0  0  0  0  2  0  0  0  0  0  0
  -29.9450  -13.5890   20.1260 N   0  0  0  0  0  0  0  0  0  0  0  0
  -31.7630  -14.9280   19.9360 O   0  0  0  0  0  0  0  0  0  0  0  0
  -29.7840  -15.9170   20.4910 N   0  0  0  0  0  0  0  0  0  0  0  0
  -28.8060  -15.6800   20.5520 H   0  0  0  0  0  0  0  0  0  0  0  0
  -25.2010  -13.9020   20.4540 C   0  0  0  0  0  0  0  0  0  0  0  0
  -24.1500  -13.1180   20.8410 C   0  0  0  0  0  0  0  0  0  0  0  0
  -24.6230  -11.7700   20.7950 C   0  0  0  0  0  0  0  0  0  0  0  0
  -26.2490  -13.0320   20.1940 N   0  0  0  0  0  0  0  0  0  0  0  0
  -25.9080  -11.7440   20.4620 N   0  0  0  0  0  0  0  0  0  0  0  0
  -23.9090  -10.5030   20.9930 C   0  0  0  0  0  0  0  0  0  0  0  0
  -24.3600   -9.5390   21.9220 C   0  0  0  0  0  3  0  0  0  0  0  0
  -23.6460   -8.3350   22.1080 C   0  0  0  0  0  3  0  0  0  0  0  0
  -22.4660   -8.0880   21.3690 C   0  0  0  0  0  0  0  0  0  0  0  0
  -22.0350   -9.0390   20.4270 C   0  0  0  0  0  3  0  0  0  0  0  0
  -22.7500  -10.2340   20.2390 C   0  0  0  0  0  3  0  0  0  0  0  0
  -21.7220   -6.9360   21.4640 O   0  0  0  0  0  0  0  0  0  0  0  0
  -21.6850   -6.2000   22.6190 C   0  0  0  0  0  0  0  0  0  0  0  0
  -21.2480   -6.7530   23.8440 C   0  0  0  0  0  3  0  0  0  0  0  0
  -21.1610   -5.9410   24.9920 C   0  0  0  0  0  3  0  0  0  0  0  0
  -21.4970   -4.5760   24.9170 C   0  0  0  0  0  0  0  0  0  0  0  0
  -21.9260   -4.0220   23.6990 C   0  0  0  0  0  3  0  0  0  0  0  0
  -22.0160   -4.8310   22.5520 C   0  0  0  0  0  0  0  0  0  0  0  0
  -22.4100   -4.2860   21.3760 F   0  0  0  0  0  0  0  0  0  0  0  0
  -21.4050   -3.7940   26.0190 F   0  0  0  0  0  0  0  0  0  0  0  0
  -22.7560  -13.5830   21.1450 C   0  0  0  0  0  0  0  0  0  0  0  0
  -22.0520  -12.8720   22.0210 N   0  0  0  0  0  0  0  0  0  0  0  0
  -22.3000  -14.6090   20.6410 O   0  0  0  0  0  0  0  0  0  0  0  0
  -22.4370  -12.0390   22.4410 H   0  0  0  0  0  0  0  0  0  0  0  0
  -21.1190  -13.1640   22.2740 H   0  0  0  0  0  0  0  0  0  0  0  0
  -25.3510  -15.2730   20.2760 N   0  0  0  0  0  0  0  0  0  0  0  0
  -24.5740  -15.9160   20.3880 H   0  0  0  0  0  0  0  0  0  0  0  0
  -26.1800  -15.7190   19.9080 H   0  0  0  0  0  0  0  0  0  0  0  0
  1  2  2  0
  1  3  1  0
  2  4  1  0
  3  5  2  0
  4  8  2  0
  4  6  1  0
  5  8  1  0
  5  7  1  0
  9 10  1  0
  9 11  1  0
 10 11  1  0
 11  1  1  0
 11 12  1  6
 13 14  1  0
 13  2  1  0
 15 26  2  0
 16 14  1  0
 16 21  1  0
 17 25  1  0
 17 27  1  0
 18 24  1  0
 18 20  1  0
 19 25  1  0
 20 21  2  0
 20 19  1  0
 22 16  2  0
 23 22  1  0
 23 18  2  0
 24 17  1  0
 25 15  1  0
 27 29  2  0
 28 27  1  0
 30 28  1  0
 31 40  2  0
 31 36  1  0
 32 28  1  0
 32 36  1  0
 33 32  1  0
 34 35  1  0
 34 33  1  0
 35 31  1  0
 36 37  2  0
 37 38  1  0
 39 38  2  0
 40 39  1  0
 41 15  1  0
 41 42  1  0
 41 51  1  0
 42 45  1  0
 43 47  1  0
 43 42  1  0
 44 43  2  0
 47 46  1  0
 49 47  1  0
 49 50  1  0
 49 48  1  0
 51 54  1  1
 51 52  1  0
 53 51  1  0
 55  3  1  0
 56 55  1  0
 56 57  1  0
 58 66  1  0
 59 64  1  0
 60 61  1  0
 60 59  1  0
 62 61  1  0
 62 71  1  0
 62 63  1  0
 64 58  1  0
 64 63  1  0
 65 58  2  0
 66 67  1  0
 66 57  1  0
 68 69  2  0
 69 88  1  0
 70 69  1  0
 70 73  1  0
 71 68  1  0
 71 72  1  0
 72 70  2  0
 73 74  1  0
 74 75  2  0
 76 79  1  0
 76 75  1  0
 77 76  2  0
 78 77  1  0
 78 73  2  0
 79 80  1  0
 80 81  1  0
 81 82  2  0
 83 82  1  0
 83 87  1  0
 84 83  2  0
 85 80  2  0
 85 84  1  0
 86 85  1  0
 88 89  1  0
 89 92  1  0
 89 91  1  0
 90 88  2  0
 93 94  1  0
 93 68  1  0
 95 93  1  0
M  ISO  4  13 101  14 101  58 100  66 100
M  END
>  <TORSDO>  (36) 
F 21

>  <SCORE>  (36) 
-13.966

>  <name>  (36) 
35

>  <ligand_id>  (36) 
35

>  <original_smiles>  (36) 
[H]c1c([H])c([H])c2c(c1[H])C([H])([H])C([H])([H])C([H])([H])C2([H])N([H])C(=O)C1([H])N(C(=O)C([H])(N([H])C(=O)C([H])(N([H])C([H])([H])[H])C([H])([H])[H])C(C([H])([H])[H])(C([H])([H])[H])C([H])([H])[H])C([H])([H])c2c([H])c(OC([H])([H])c3c(C([H])([H])[H])nc(C([H])([H])[H])c(OC([H])([H])C([H])([H])N([H])C(=O)N4C([H])([H])C([H])([H])C([H])([H])C([H])(n5nc(-c6c([H])c([H])c(Oc7c([H])c([H])c(F)c([H])c7F)c([H])c6[H])c(C(=O)N([H])[H])c5N([H])[H])C4([H])[H])c3C3(C([H])([H])[H])C([H])([H])C3([H])[H])c([H])c([H])c2C1([H])[H]

>  <smiles>  (36) 
[H]c1c([H])c([H])c2c(c1[H])C([H])([H])C([H])([H])C([H])([H])C2([H])N([H])C(=O)C1([H])N(C(=O)C([H])(N([H])C(=O)C([H])(N([H])C([H])([H])[H])C([H])([H])[H])C(C([H])([H])[H])(C([H])([H])[H])C([H])([H])[H])C([H])([H])c2c([H])c(OC([H])([H])c3c(C([H])([H])[H])nc(C([H])([H])[H])c(OC([H])([H])C([H])([H])N([H])C(=O)N4C([H])([H])C([H])([H])C([H])([H])C([H])(n5nc(-c6c([H])c([H])c(Oc7c([H])c([H])c(F)c([H])c7F)c([H])c6[H])c(C(=O)N([H])[H])c5N([H])[H])C4([H])[H])c3C3(C([H])([H])[H])C([H])([H])C3([H])[H])c([H])c([H])c2C1([H])[H]

$$$$
36:0:0
     RDKit          3D

 98107  0  0  1  0  0  0  0  0999 V2000
  -30.1620  -20.9450   21.8480 C   0  0  0  0  0  3  0  0  0  0  0  0
  -30.0080  -20.6230   19.4600 C   0  0  0  0  0  3  0  0  0  0  0  0
  -29.8660  -21.4840   20.5760 C   0  0  0  0  0  0  0  0  0  0  0  0
  -30.8070  -18.7720   20.8830 C   0  0  0  0  0  0  0  0  0  0  0  0
  -30.6220  -19.6170   22.0110 C   0  0  0  0  0  0  0  0  0  0  0  0
  -30.4470  -19.2700   19.6030 C   0  0  0  0  0  0  0  0  0  0  0  0
  -28.5700  -23.4020   19.2520 C   0  0  0  0  0  2  0  0  0  0  0  0
  -30.6250  -23.9570   20.6230 C   0  0  0  0  0  2  0  0  0  0  0  0
  -28.6070  -24.9340   18.9460 C   0  0  0  0  0  2  0  0  0  0  0  0
  -30.1670  -25.4310   20.8430 C   0  0  0  0  0  2  0  0  0  0  0  0
  -29.4430  -22.9760   20.4740 C   0  0  0  0  0  3  0  0  0  0  0  0
  -28.7910  -25.7960   20.2210 C   0  0  0  0  0  3  0  0  0  0  0  0
  -28.7570  -27.2360   20.0230 O   0  0  0  0  0  0  0  0  0  0  0  0
  -24.7480  -32.0490   23.5010 C   0  0  0  0  0  0  0  0  0  0  0  0
  -27.5450  -27.9120   20.0990 C   0  0  0  0  0  0  0  0  0  0  0  0
  -23.5900  -30.7260   21.7640 C   0  0  0  0  0  3  0  0  0  0  0  0
  -25.0940  -29.3450   20.2340 C   0  0  0  0  0  0  0  0  0  0  0  0
  -26.1030  -31.1860   21.5900 C   0  0  0  0  0  2  0  0  0  0  0  0
  -26.2400  -29.8710   20.8420 C   0  0  0  0  0  0  0  0  0  0  0  0
  -27.4700  -29.1690   20.7570 C   0  0  0  0  0  3  0  0  0  0  0  0
  -26.3660  -27.3990   19.5150 C   0  0  0  0  0  3  0  0  0  0  0  0
  -25.1510  -28.1070   19.5720 C   0  0  0  0  0  3  0  0  0  0  0  0
  -23.8210  -30.1560   20.3400 C   0  0  0  0  0  2  0  0  0  0  0  0
  -24.8330  -31.3310   22.3450 N   0  0  0  0  0  0  0  0  0  0  0  0
  -23.6580  -32.2420   24.0590 O   0  0  0  0  0  0  0  0  0  0  0  0
  -22.9780  -29.6160   22.6490 C   0  0  0  0  0  0  0  0  0  0  0  0
  -21.6750  -29.3460   22.4550 N   0  0  0  0  0  0  0  0  0  0  0  0
  -23.6710  -29.0020   23.4640 O   0  0  0  0  0  0  0  0  0  0  0  0
  -21.1730  -29.8980   21.7740 H   0  0  0  0  0  0  0  0  0  0  0  0
  -18.4070  -27.8140   22.6770 C   0  0  0  0  0  0  0  0  0  0  0  0
  -20.9000  -28.3160   23.1470 C   0  0  0  0  0  3  0  0  0  0  0  0
  -21.1870  -26.9170   22.5560 C   0  0  0  0  0  2  0  0  0  0  0  0
  -20.2030  -26.5140   21.4550 C   0  0  0  0  0  2  0  0  0  0  0  0
  -18.7670  -26.5050   21.9930 C   0  0  0  0  0  2  0  0  0  0  0  0
  -19.4120  -28.6700   23.2020 C   0  0  0  0  0  0  0  0  0  0  0  0
  -19.0270  -29.8900   23.8010 C   0  0  0  0  0  3  0  0  0  0  0  0
  -17.6720  -30.2590   23.8800 C   0  0  0  0  0  3  0  0  0  0  0  0
  -16.6800  -29.4040   23.3710 C   0  0  0  0  0  3  0  0  0  0  0  0
  -17.0480  -28.1820   22.7760 C   0  0  0  0  0  3  0  0  0  0  0  0
  -26.0100  -32.6820   24.1650 C   0  0  0  0  0  3  0  0  0  0  0  0
  -25.6830  -34.0750   24.4970 N   0  0  0  0  0  0  0  0  0  0  0  0
  -26.0720  -35.1390   23.7820 C   0  0  0  0  0  0  0  0  0  0  0  0
  -26.8120  -35.0490   22.7980 O   0  0  0  0  0  0  0  0  0  0  0  0
  -25.0280  -34.2180   25.2510 H   0  0  0  0  0  0  0  0  0  0  0  0
  -24.3850  -36.9510   23.3290 C   0  0  0  0  0  1  0  0  0  0  0  0
  -25.5560  -36.5210   24.2280 C   0  0  0  0  0  3  0  0  0  0  0  0
  -27.6220  -37.3700   25.2410 C   0  0  0  0  0  1  0  0  0  0  0  0
  -26.5990  -37.5690   24.2180 N   0  0  0  0  0  0  0  0  0  0  0  0
  -26.1900  -38.4890   24.3560 H   0  0  0  0  0  0  0  0  0  0  0  0
  -26.4930  -31.9030   25.4510 C   0  0  1  0  0  0  0  0  0  0  0  0
  -25.3640  -31.6300   26.4710 C   0  0  0  0  0  1  0  0  0  0  0  0
  -27.1210  -30.5440   25.0630 C   0  0  0  0  0  1  0  0  0  0  0  0
  -27.6010  -32.7120   26.1650 C   0  0  0  0  0  1  0  0  0  0  0  0
  -31.5830  -17.4360   21.0180 C   0  0  0  0  0  2  0  0  0  0  0  0
  -31.5280  -15.0750   20.1740 C   0  0  0  0  0  0  0  0  0  0  0  0
  -31.1980  -12.8270   19.1890 C   0  0  0  0  0  2  0  0  0  0  0  0
  -30.2690  -12.9130   17.9620 C   0  0  0  0  0  2  0  0  0  0  0  0
  -28.7920  -12.8170   18.3940 C   0  0  0  0  0  2  0  0  0  0  0  0
  -28.4500  -13.7710   19.5680 C   0  0  0  0  0  3  0  0  0  0  0  0
  -29.4940  -13.6640   20.7020 C   0  0  0  0  0  2  0  0  0  0  0  0
  -30.8200  -13.9090   20.1150 N   0  0  0  0  0  0  0  0  0  0  0  0
  -32.6540  -15.1720   19.6840 O   0  0  0  0  0  0  0  0  0  0  0  0
  -30.9120  -16.1460   20.7230 N   0  0  0  0  0  0  0  0  0  0  0  0
  -29.9700  -16.0140   21.0620 H   0  0  0  0  0  0  0  0  0  0  0  0
  -26.0960  -14.4720   20.3340 C   0  0  0  0  0  0  0  0  0  0  0  0
  -24.9950  -13.7420   20.6890 C   0  0  0  0  0  0  0  0  0  0  0  0
  -25.3900  -12.3710   20.6160 C   0  0  0  0  0  0  0  0  0  0  0  0
  -27.0920  -13.5480   20.0600 N   0  0  0  0  0  0  0  0  0  0  0  0
  -26.6720  -12.2770   20.2900 N   0  0  0  0  0  0  0  0  0  0  0  0
  -24.6030  -11.1410   20.7770 C   0  0  0  0  0  0  0  0  0  0  0  0
  -24.9720  -10.1450   21.7070 C   0  0  0  0  0  3  0  0  0  0  0  0
  -24.1880   -8.9800   21.8580 C   0  0  0  0  0  3  0  0  0  0  0  0
  -23.0210   -8.8040   21.0770 C   0  0  0  0  0  0  0  0  0  0  0  0
  -22.6710   -9.7890   20.1380 C   0  0  0  0  0  3  0  0  0  0  0  0
  -23.4540  -10.9440   19.9850 C   0  0  0  0  0  3  0  0  0  0  0  0
  -22.2130   -7.6940   21.1370 O   0  0  0  0  0  0  0  0  0  0  0  0
  -22.0310   -6.9980   22.3050 C   0  0  0  0  0  0  0  0  0  0  0  0
  -21.5140   -7.6150   23.4660 C   0  0  0  0  0  3  0  0  0  0  0  0
  -21.2740   -6.8480   24.6230 C   0  0  0  0  0  3  0  0  0  0  0  0
  -21.5460   -5.4660   24.6220 C   0  0  0  0  0  0  0  0  0  0  0  0
  -22.0570   -4.8510   23.4670 C   0  0  0  0  0  3  0  0  0  0  0  0
  -22.2970   -5.6140   22.3110 C   0  0  0  0  0  0  0  0  0  0  0  0
  -22.7690   -5.0120   21.1930 F   0  0  0  0  0  0  0  0  0  0  0  0
  -21.3100   -4.7280   25.7320 F   0  0  0  0  0  0  0  0  0  0  0  0
  -23.6280  -14.2790   20.9970 C   0  0  0  0  0  0  0  0  0  0  0  0
  -22.8820  -13.6000   21.8620 N   0  0  0  0  0  0  0  0  0  0  0  0
  -23.2310  -15.3340   20.5050 O   0  0  0  0  0  0  0  0  0  0  0  0
  -23.2170  -12.7450   22.2790 H   0  0  0  0  0  0  0  0  0  0  0  0
  -21.9650  -13.9430   22.1120 H   0  0  0  0  0  0  0  0  0  0  0  0
  -26.3300  -15.8370   20.1960 N   0  0  0  0  0  0  0  0  0  0  0  0
  -25.6010  -16.5270   20.3430 H   0  0  0  0  0  0  0  0  0  0  0  0
  -27.2010  -16.2420   19.8750 H   0  0  0  0  0  0  0  0  0  0  0  0
  -30.9560  -19.2190   23.2830 O   0  0  0  0  0  0  0  0  0  0  0  0
  -31.2890  -17.3150   24.7150 C   0  0  0  0  0  1  0  0  0  0  0  0
  -30.3390  -18.0160   23.7350 C   0  0  0  0  0  2  0  0  0  0  0  0
  -30.5890  -18.3980   18.5420 O   0  0  0  0  0  0  0  0  0  0  0  0
  -30.1920  -17.6360   16.3090 C   0  0  0  0  0  1  0  0  0  0  0  0
  -30.2940  -18.8540   17.2280 C   0  0  0  0  0  2  0  0  0  0  0  0
  1  5  1  0
  2  6  2  0
  2  3  1  0
  3  1  2  0
  4 54  1  0
  4  5  2  0
  5 93  1  0
  6  4  1  0
  7 11  1  0
  8 10  1  0
  9  7  1  0
  9 12  1  0
 11  3  1  0
 11  8  1  0
 12 13  1  0
 12 10  1  0
 13 15  1  0
 14 25  2  0
 15 20  1  0
 16 24  1  0
 16 26  1  0
 17 23  1  0
 17 19  1  0
 18 24  1  0
 19 18  1  0
 20 19  2  0
 21 22  1  0
 21 15  2  0
 22 17  2  0
 23 16  1  0
 24 14  1  0
 26 28  2  0
 27 26  1  0
 29 27  1  0
 30 39  2  0
 30 35  1  0
 31 27  1  0
 31 35  1  0
 32 31  1  0
 33 34  1  0
 33 32  1  0
 34 30  1  0
 35 36  2  0
 36 37  1  0
 38 37  2  0
 39 38  1  0
 40 14  1  0
 40 41  1  0
 40 50  1  0
 41 44  1  0
 42 46  1  0
 42 41  1  0
 43 42  2  0
 46 45  1  0
 48 46  1  0
 48 49  1  0
 48 47  1  0
 50 53  1  1
 50 51  1  0
 52 50  1  0
 55 63  1  0
 56 61  1  0
 57 58  1  0
 57 56  1  0
 59 58  1  0
 59 68  1  0
 59 60  1  0
 61 55  1  0
 61 60  1  0
 62 55  2  0
 63 54  1  0
 63 64  1  0
 65 66  2  0
 66 85  1  0
 67 66  1  0
 67 70  1  0
 68 69  1  0
 68 65  1  0
 69 67  2  0
 70 71  1  0
 71 72  2  0
 73 76  1  0
 73 72  1  0
 74 73  2  0
 75 74  1  0
 75 70  2  0
 76 77  1  0
 77 82  2  0
 77 78  1  0
 78 79  2  0
 80 79  1  0
 80 84  1  0
 81 80  2  0
 82 81  1  0
 83 82  1  0
 85 86  1  0
 86 89  1  0
 86 88  1  0
 87 85  2  0
 90 65  1  0
 90 91  1  0
 92 90  1  0
 93 95  1  0
 95 94  1  0
 96  6  1  0
 97 98  1  0
 98 96  1  0
M  ISO  4  12 101  13 101  55 100  63 100
M  END
>  <TORSDO>  (37) 
F 22

>  <SCORE>  (37) 
-7.758

>  <name>  (37) 
36

>  <ligand_id>  (37) 
36

>  <original_smiles>  (37) 
[H]c1c([H])c([H])c2c(c1[H])C([H])([H])C([H])([H])C([H])([H])C2([H])N([H])C(=O)C1([H])N(C(=O)C([H])(N([H])C(=O)C([H])(N([H])C([H])([H])[H])C([H])([H])[H])C(C([H])([H])[H])(C([H])([H])[H])C([H])([H])[H])C([H])([H])c2c([H])c(OC3([H])C([H])([H])C([H])([H])C([H])(c4c([H])c(OC([H])([H])C([H])([H])[H])c(C([H])([H])N([H])C(=O)N5C([H])([H])C([H])([H])C([H])([H])C([H])(n6nc(-c7c([H])c([H])c(Oc8c([H])c([H])c(F)c([H])c8F)c([H])c7[H])c(C(=O)N([H])[H])c6N([H])[H])C5([H])[H])c(OC([H])([H])C([H])([H])[H])c4[H])C([H])([H])C3([H])[H])c([H])c([H])c2C1([H])[H]

>  <smiles>  (37) 
[H]c1c([H])c([H])c2c(c1[H])C([H])([H])C([H])([H])C([H])([H])C2([H])N([H])C(=O)C1([H])N(C(=O)C([H])(N([H])C(=O)C([H])(N([H])C([H])([H])[H])C([H])([H])[H])C(C([H])([H])[H])(C([H])([H])[H])C([H])([H])[H])C([H])([H])c2c([H])c(OC3([H])C([H])([H])C([H])([H])C([H])(c4c([H])c(OC([H])([H])C([H])([H])[H])c(C([H])([H])N([H])C(=O)N5C([H])([H])C([H])([H])C([H])([H])C([H])(n6nc(-c7c([H])c([H])c(Oc8c([H])c([H])c(F)c([H])c8F)c([H])c7[H])c(C(=O)N([H])[H])c6N([H])[H])C5([H])[H])c(OC([H])([H])C([H])([H])[H])c4[H])C([H])([H])C3([H])[H])c([H])c([H])c2C1([H])[H]

$$$$
37:0:0
     RDKit          3D

 99110  0  0  1  0  0  0  0  0999 V2000
  -30.1220  -19.9890   19.1610 C   0  0  0  0  0  0  0  0  0  0  0  0
  -30.4700  -19.2530   17.9960 C   0  0  0  0  0  0  0  0  0  0  0  0
  -30.7420  -21.3030   19.2470 C   0  0  0  0  0  0  0  0  0  0  0  0
  -31.6030  -19.5980   17.2770 C   0  0  0  0  0  0  0  0  0  0  0  0
  -32.0170  -21.4090   18.6000 C   0  0  0  0  0  0  0  0  0  0  0  0
  -29.8100  -18.0640   17.3260 C   0  0  0  0  0  2  0  0  0  0  0  0
  -31.8870  -18.6690   16.1300 C   0  0  0  0  0  2  0  0  0  0  0  0
  -30.8720  -17.5350   16.3340 C   0  0  0  0  0  2  0  0  0  0  0  0
  -33.0850  -22.4100   19.0270 C   0  0  0  0  0  1  0  0  0  0  0  0
  -32.4370  -20.5800   17.6220 N   0  0  0  0  0  0  0  0  0  0  0  0
  -30.8760  -14.8890   20.4050 C   0  0  0  0  0  0  0  0  0  0  0  0
  -30.5760  -12.6560   19.3490 C   0  0  0  0  0  2  0  0  0  0  0  0
  -29.6400  -12.7320   18.1290 C   0  0  0  0  0  2  0  0  0  0  0  0
  -28.1780  -12.5200   18.5690 C   0  0  0  0  0  2  0  0  0  0  0  0
  -27.7960  -13.3930   19.7930 C   0  0  0  0  0  3  0  0  0  0  0  0
  -28.8730  -13.3550   20.9070 C   0  0  0  0  0  2  0  0  0  0  0  0
  -30.1530  -13.7210   20.2880 N   0  0  0  0  0  0  0  0  0  0  0  0
  -32.0840  -14.8480   20.1380 O   0  0  0  0  0  0  0  0  0  0  0  0
  -28.4940  -18.1050   20.2510 C   0  0  0  0  0  3  0  0  0  0  0  0
  -30.6450  -18.6400   21.3030 C   0  0  0  0  0  2  0  0  0  0  0  0
  -28.8950  -16.5690   20.3900 C   0  0  0  0  0  3  0  0  0  0  0  0
  -31.2370  -17.2910   20.8070 C   0  0  0  0  0  2  0  0  0  0  0  0
  -29.5440  -19.2410   20.4090 C   0  0  0  0  0  3  0  0  0  0  0  0
  -30.3010  -16.1410   20.6510 N   0  0  0  0  0  0  0  0  0  0  0  0
  -25.4230  -13.9990   20.5300 C   0  0  0  0  0  0  0  0  0  0  0  0
  -24.3550  -13.2230   20.8920 C   0  0  0  0  0  0  0  0  0  0  0  0
  -24.8220  -11.8730   20.8550 C   0  0  0  0  0  0  0  0  0  0  0  0
  -26.4620  -13.1140   20.2930 N   0  0  0  0  0  0  0  0  0  0  0  0
  -26.1110  -11.8340   20.5490 N   0  0  0  0  0  0  0  0  0  0  0  0
  -24.1010  -10.6090   21.0230 C   0  0  0  0  0  0  0  0  0  0  0  0
  -24.5220   -9.6430   21.9610 C   0  0  0  0  0  3  0  0  0  0  0  0
  -23.8020   -8.4400   22.1190 C   0  0  0  0  0  3  0  0  0  0  0  0
  -22.6490   -8.2000   21.3350 C   0  0  0  0  0  0  0  0  0  0  0  0
  -22.2480   -9.1540   20.3850 C   0  0  0  0  0  3  0  0  0  0  0  0
  -22.9690  -10.3490   20.2250 C   0  0  0  0  0  3  0  0  0  0  0  0
  -21.8990   -7.0510   21.4030 O   0  0  0  0  0  0  0  0  0  0  0  0
  -21.8140   -6.3190   22.5570 C   0  0  0  0  0  0  0  0  0  0  0  0
  -21.2860   -6.8610   23.7500 C   0  0  0  0  0  3  0  0  0  0  0  0
  -21.1550   -6.0500   24.8940 C   0  0  0  0  0  3  0  0  0  0  0  0
  -21.5380   -4.6970   24.8460 C   0  0  0  0  0  0  0  0  0  0  0  0
  -22.0600   -4.1540   23.6600 C   0  0  0  0  0  3  0  0  0  0  0  0
  -22.1960   -4.9630   22.5180 C   0  0  0  0  0  0  0  0  0  0  0  0
  -22.6760   -4.4290   21.3690 F   0  0  0  0  0  0  0  0  0  0  0  0
  -21.4010   -3.9130   25.9410 F   0  0  0  0  0  0  0  0  0  0  0  0
  -22.9580  -13.7000   21.1610 C   0  0  0  0  0  0  0  0  0  0  0  0
  -22.2220  -12.9960   22.0140 N   0  0  0  0  0  0  0  0  0  0  0  0
  -22.5250  -14.7330   20.6530 O   0  0  0  0  0  0  0  0  0  0  0  0
  -22.5820  -12.1630   22.4510 H   0  0  0  0  0  0  0  0  0  0  0  0
  -21.2870  -13.3040   22.2330 H   0  0  0  0  0  0  0  0  0  0  0  0
  -25.5830  -15.3700   20.3590 N   0  0  0  0  0  0  0  0  0  0  0  0
  -24.8090  -16.0160   20.4640 H   0  0  0  0  0  0  0  0  0  0  0  0
  -26.4440  -15.8220   20.0840 H   0  0  0  0  0  0  0  0  0  0  0  0
  -28.7730  -22.7630   20.5250 C   0  0  0  0  0  2  0  0  0  0  0  0
  -30.0810  -23.7410   18.7090 C   0  0  0  0  0  2  0  0  0  0  0  0
  -28.3990  -24.2340   20.9890 C   0  0  0  0  0  2  0  0  0  0  0  0
  -29.9040  -25.1760   19.2550 C   0  0  0  0  0  2  0  0  0  0  0  0
  -30.1720  -22.6610   19.8360 C   0  0  0  0  0  3  0  0  0  0  0  0
  -28.5230  -25.3560   19.9000 C   0  0  0  0  0  3  0  0  0  0  0  0
  -28.4200  -26.7480   20.3630 O   0  0  0  0  0  0  0  0  0  0  0  0
  -24.5480  -32.0290   23.2910 C   0  0  0  0  0  0  0  0  0  0  0  0
  -27.2380  -27.4940   20.3050 C   0  0  0  0  0  0  0  0  0  0  0  0
  -23.3660  -30.5980   21.6600 C   0  0  0  0  0  3  0  0  0  0  0  0
  -24.8420  -29.0490   20.2650 C   0  0  0  0  0  0  0  0  0  0  0  0
  -25.8980  -30.9570   21.4790 C   0  0  0  0  0  2  0  0  0  0  0  0
  -25.9990  -29.5720   20.8550 C   0  0  0  0  0  0  0  0  0  0  0  0
  -27.1960  -28.8050   20.8670 C   0  0  0  0  0  3  0  0  0  0  0  0
  -26.0500  -27.0050   19.7150 C   0  0  0  0  0  3  0  0  0  0  0  0
  -24.8700  -27.7700   19.6890 C   0  0  0  0  0  3  0  0  0  0  0  0
  -23.5940  -29.9050   20.2900 C   0  0  0  0  0  2  0  0  0  0  0  0
  -24.6230  -31.2120   22.2000 N   0  0  0  0  0  0  0  0  0  0  0  0
  -23.4600  -32.3000   23.8170 O   0  0  0  0  0  0  0  0  0  0  0  0
  -22.7120  -29.5870   22.6290 C   0  0  0  0  0  0  0  0  0  0  0  0
  -21.3930  -29.3790   22.4830 N   0  0  0  0  0  0  0  0  0  0  0  0
  -23.3910  -28.9890   23.4690 O   0  0  0  0  0  0  0  0  0  0  0  0
  -20.9040  -29.9120   21.7770 H   0  0  0  0  0  0  0  0  0  0  0  0
  -18.0280  -28.1470   22.9610 C   0  0  0  0  0  0  0  0  0  0  0  0
  -20.5800  -28.4420   23.2580 C   0  0  0  0  0  3  0  0  0  0  0  0
  -20.7070  -27.0040   22.7030 C   0  0  0  0  0  2  0  0  0  0  0  0
  -19.6210  -26.6540   21.6810 C   0  0  0  0  0  2  0  0  0  0  0  0
  -18.2300  -26.7910   22.3070 C   0  0  0  0  0  2  0  0  0  0  0  0
  -19.1320  -28.9280   23.3940 C   0  0  0  0  0  0  0  0  0  0  0  0
  -18.8910  -30.1980   23.9630 C   0  0  0  0  0  3  0  0  0  0  0  0
  -17.5770  -30.6830   24.1080 C   0  0  0  0  0  3  0  0  0  0  0  0
  -16.4880  -29.9000   23.6920 C   0  0  0  0  0  3  0  0  0  0  0  0
  -16.7140  -28.6330   23.1240 C   0  0  0  0  0  3  0  0  0  0  0  0
  -25.8230  -32.6790   23.9130 C   0  0  0  0  0  3  0  0  0  0  0  0
  -25.5050  -34.0820   24.2130 N   0  0  0  0  0  0  0  0  0  0  0  0
  -25.8630  -35.1240   23.4510 C   0  0  0  0  0  0  0  0  0  0  0  0
  -26.5670  -35.0050   22.4440 O   0  0  0  0  0  0  0  0  0  0  0  0
  -24.8820  -34.2480   24.9910 H   0  0  0  0  0  0  0  0  0  0  0  0
  -24.1730  -36.9280   22.9870 C   0  0  0  0  0  1  0  0  0  0  0  0
  -25.3620  -36.5180   23.8710 C   0  0  0  0  0  3  0  0  0  0  0  0
  -27.4470  -37.3970   24.8250 C   0  0  0  0  0  1  0  0  0  0  0  0
  -26.4090  -37.5630   23.8110 N   0  0  0  0  0  0  0  0  0  0  0  0
  -26.0020  -38.4870   23.9220 H   0  0  0  0  0  0  0  0  0  0  0  0
  -26.3310  -31.9340   25.2080 C   0  0  1  0  0  0  0  0  0  0  0  0
  -25.2240  -31.6920   26.2600 C   0  0  0  0  0  1  0  0  0  0  0  0
  -26.9460  -30.5620   24.8440 C   0  0  0  0  0  1  0  0  0  0  0  0
  -27.4560  -32.7590   25.8780 C   0  0  0  0  0  1  0  0  0  0  0  0
  1  3  1  0
  2  1  2  0
  4 10  2  0
  4  2  1  0
  5  9  1  0
  5  3  2  0
  6  2  1  0
  7  8  1  0
  7  4  1  0
  8  6  1  0
 10  5  1  0
 11 24  1  0
 12 17  1  0
 13 14  1  0
 13 12  1  0
 15 14  1  0
 15 28  1  0
 15 16  1  0
 17 11  1  0
 17 16  1  0
 18 11  2  0
 19 21  2  0
 19 23  1  0
 21 24  1  0
 22 20  1  0
 23  1  1  0
 23 20  1  0
 24 22  1  0
 25 26  2  0
 26 45  1  0
 27 26  1  0
 27 30  1  0
 28 25  1  0
 28 29  1  0
 29 27  2  0
 30 31  1  0
 31 32  2  0
 33 36  1  0
 33 32  1  0
 34 33  2  0
 35 34  1  0
 35 30  2  0
 36 37  1  0
 37 38  1  0
 38 39  2  0
 40 39  1  0
 40 44  1  0
 41 40  2  0
 42 37  2  0
 42 41  1  0
 43 42  1  0
 45 46  1  0
 46 49  1  0
 46 48  1  0
 47 45  2  0
 50 51  1  0
 50 25  1  0
 52 50  1  0
 53 55  1  0
 54 56  1  0
 54 57  1  0
 56 58  1  0
 57  3  1  0
 57 53  1  0
 58 59  1  0
 58 55  1  0
 60 71  2  0
 61 59  1  0
 61 66  1  0
 62 70  1  0
 62 72  1  0
 63 69  1  0
 63 65  1  0
 64 70  1  0
 65 66  2  0
 65 64  1  0
 67 61  2  0
 68 67  1  0
 68 63  2  0
 69 62  1  0
 70 60  1  0
 72 74  2  0
 73 72  1  0
 75 73  1  0
 76 85  2  0
 76 81  1  0
 77 73  1  0
 77 81  1  0
 78 77  1  0
 79 80  1  0
 79 78  1  0
 80 76  1  0
 81 82  2  0
 82 83  1  0
 84 83  2  0
 85 84  1  0
 86 60  1  0
 86 87  1  0
 86 96  1  0
 87 90  1  0
 88 92  1  0
 88 87  1  0
 89 88  2  0
 92 91  1  0
 94 92  1  0
 94 95  1  0
 94 93  1  0
 96 99  1  1
 96 97  1  0
 98 96  1  0
M  ISO  4  11 100  24 100  58 101  59 101
M  END
>  <TORSDO>  (38) 
F 17

>  <SCORE>  (38) 
-15.076

>  <name>  (38) 
37

>  <ligand_id>  (38) 
37

>  <original_smiles>  (38) 
[H]c1c([H])c([H])c2c(c1[H])C([H])([H])C([H])([H])C([H])([H])C2([H])N([H])C(=O)C1([H])N(C(=O)C([H])(N([H])C(=O)C([H])(N([H])C([H])([H])[H])C([H])([H])[H])C(C([H])([H])[H])(C([H])([H])[H])C([H])([H])[H])C([H])([H])c2c([H])c(OC3([H])C([H])([H])C([H])([H])C([H])(c4c(C([H])([H])[H])nc5c(c4C4([H])C([H])([H])C([H])([H])N(C(=O)N6C([H])([H])C([H])([H])C([H])([H])C([H])(n7nc(-c8c([H])c([H])c(Oc9c([H])c([H])c(F)c([H])c9F)c([H])c8[H])c(C(=O)N([H])[H])c7N([H])[H])C6([H])[H])C([H])([H])C4([H])[H])C([H])([H])C([H])([H])C5([H])[H])C([H])([H])C3([H])[H])c([H])c([H])c2C1([H])[H]

>  <smiles>  (38) 
[H]c1c([H])c([H])c2c(c1[H])C([H])([H])C([H])([H])C([H])([H])C2([H])N([H])C(=O)C1([H])N(C(=O)C([H])(N([H])C(=O)C([H])(N([H])C([H])([H])[H])C([H])([H])[H])C(C([H])([H])[H])(C([H])([H])[H])C([H])([H])[H])C([H])([H])c2c([H])c(OC3([H])C([H])([H])C([H])([H])C([H])(c4c(C([H])([H])[H])nc5c(c4C4([H])C([H])([H])C([H])([H])N(C(=O)N6C([H])([H])C([H])([H])C([H])([H])C([H])(n7nc(-c8c([H])c([H])c(Oc9c([H])c([H])c(F)c([H])c9F)c([H])c8[H])c(C(=O)N([H])[H])c7N([H])[H])C6([H])[H])C([H])([H])C4([H])[H])C([H])([H])C([H])([H])C5([H])[H])C([H])([H])C3([H])[H])c([H])c([H])c2C1([H])[H]

$$$$
38:0:0
     RDKit          3D

 93102  0  0  1  0  0  0  0  0999 V2000
  -30.5290  -14.9690   20.4140 C   0  0  0  0  0  0  0  0  0  0  0  0
  -30.4080  -12.6430   19.4260 C   0  0  0  0  0  2  0  0  0  0  0  0
  -29.4740  -12.6570   18.1930 C   0  0  0  0  0  2  0  0  0  0  0  0
  -28.0020  -12.4690   18.6120 C   0  0  0  0  0  2  0  0  0  0  0  0
  -27.6070  -13.3700   19.8110 C   0  0  0  0  0  3  0  0  0  0  0  0
  -28.6570  -13.3150   20.9400 C   0  0  0  0  0  2  0  0  0  0  0  0
  -29.9440  -13.7100   20.3510 N   0  0  0  0  0  0  0  0  0  0  0  0
  -31.7340  -15.0640   20.1500 O   0  0  0  0  0  0  0  0  0  0  0  0
  -28.7710  -18.3110   19.6900 C   0  0  0  0  0  3  0  0  0  0  0  0
  -28.6580  -19.7540   19.6420 C   0  0  0  0  0  0  0  0  0  0  0  0
  -29.4870  -20.6270   20.4240 C   0  0  0  0  0  0  0  0  0  0  0  0
  -30.3700  -19.8280   21.2570 C   0  0  0  0  0  0  0  0  0  0  0  0
  -29.7320  -17.5980   20.4740 C   0  0  0  0  0  0  0  0  0  0  0  0
  -27.6160  -20.3500   18.7130 C   0  0  0  0  0  1  0  0  0  0  0  0
  -30.4950  -18.4360   21.2440 N   0  0  0  0  0  0  0  0  0  0  0  0
  -29.6680  -16.0820   20.5350 N   0  0  0  0  0  0  0  0  0  0  0  0
  -28.7170  -15.7580   20.5940 H   0  0  0  0  0  0  0  0  0  0  0  0
  -25.2200  -13.9740   20.5180 C   0  0  0  0  0  0  0  0  0  0  0  0
  -24.1470  -13.2080   20.8810 C   0  0  0  0  0  0  0  0  0  0  0  0
  -24.6030  -11.8550   20.8600 C   0  0  0  0  0  0  0  0  0  0  0  0
  -26.2600  -13.0870   20.2930 N   0  0  0  0  0  0  0  0  0  0  0  0
  -25.8960  -11.8060   20.5640 N   0  0  0  0  0  0  0  0  0  0  0  0
  -23.8660  -10.5970   21.0490 C   0  0  0  0  0  0  0  0  0  0  0  0
  -24.2870   -9.6260   21.9840 C   0  0  0  0  0  3  0  0  0  0  0  0
  -23.5490   -8.4350   22.1590 C   0  0  0  0  0  3  0  0  0  0  0  0
  -22.3760   -8.2080   21.4000 C   0  0  0  0  0  0  0  0  0  0  0  0
  -21.9750   -9.1680   20.4540 C   0  0  0  0  0  3  0  0  0  0  0  0
  -22.7130  -10.3500   20.2760 C   0  0  0  0  0  3  0  0  0  0  0  0
  -21.6120   -7.0700   21.4850 O   0  0  0  0  0  0  0  0  0  0  0  0
  -21.5540   -6.3250   22.6350 C   0  0  0  0  0  0  0  0  0  0  0  0
  -21.1280   -6.8800   23.8610 C   0  0  0  0  0  3  0  0  0  0  0  0
  -21.0180   -6.0620   25.0040 C   0  0  0  0  0  3  0  0  0  0  0  0
  -21.3240   -4.6900   24.9210 C   0  0  0  0  0  0  0  0  0  0  0  0
  -21.7420   -4.1350   23.6990 C   0  0  0  0  0  3  0  0  0  0  0  0
  -21.8550   -4.9500   22.5590 C   0  0  0  0  0  0  0  0  0  0  0  0
  -22.2390   -4.4060   21.3790 F   0  0  0  0  0  0  0  0  0  0  0  0
  -21.2100   -3.9020   26.0160 F   0  0  0  0  0  0  0  0  0  0  0  0
  -22.7500  -13.6950   21.1330 C   0  0  0  0  0  0  0  0  0  0  0  0
  -22.0100  -13.0110   21.9980 N   0  0  0  0  0  0  0  0  0  0  0  0
  -22.3240  -14.7170   20.5970 O   0  0  0  0  0  0  0  0  0  0  0  0
  -22.3680  -12.1840   22.4540 H   0  0  0  0  0  0  0  0  0  0  0  0
  -21.0720  -13.3190   22.2090 H   0  0  0  0  0  0  0  0  0  0  0  0
  -25.3910  -15.3430   20.3330 N   0  0  0  0  0  0  0  0  0  0  0  0
  -24.6130  -15.9900   20.4210 H   0  0  0  0  0  0  0  0  0  0  0  0
  -26.2150  -15.7770   19.9430 H   0  0  0  0  0  0  0  0  0  0  0  0
  -31.3100  -19.8790   23.7060 C   0  0  0  0  0  2  0  0  0  0  0  0
  -30.6900  -21.2230   23.4530 C   0  0  0  0  0  2  0  0  0  0  0  0
  -31.2700  -20.4370   22.2930 C   0  0  0  0  0  3  0  0  0  0  0  0
  -30.9160  -22.9090   20.5080 C   0  0  0  0  0  1  0  0  0  0  0  0
  -29.5470  -22.2800   20.2000 C   0  0  0  0  0  3  0  0  0  0  0  0
  -28.3450  -23.4000   20.4790 C   0  0  0  0  0  2  0  0  0  0  0  0
  -28.4710  -24.9930   21.0050 C   0  0  0  0  0  2  0  0  0  0  0  0
  -28.4930  -26.3590   20.2990 O   0  0  0  0  0  0  0  0  0  0  0  0
  -24.6620  -31.9180   23.2600 C   0  0  0  0  0  0  0  0  0  0  0  0
  -27.3860  -27.2640   20.3180 C   0  0  0  0  0  0  0  0  0  0  0  0
  -23.5140  -30.4870   21.6090 C   0  0  0  0  0  3  0  0  0  0  0  0
  -25.0150  -28.9230   20.2330 C   0  0  0  0  0  0  0  0  0  0  0  0
  -26.0600  -30.8110   21.4800 C   0  0  0  0  0  2  0  0  0  0  0  0
  -26.1740  -29.4150   20.8490 C   0  0  0  0  0  0  0  0  0  0  0  0
  -27.3650  -28.6030   20.8700 C   0  0  0  0  0  3  0  0  0  0  0  0
  -26.1990  -26.8510   19.6800 C   0  0  0  0  0  3  0  0  0  0  0  0
  -25.0380  -27.6520   19.6350 C   0  0  0  0  0  3  0  0  0  0  0  0
  -23.7710  -29.7970   20.2430 C   0  0  0  0  0  2  0  0  0  0  0  0
  -24.7640  -31.0940   22.1720 N   0  0  0  0  0  0  0  0  0  0  0  0
  -23.5620  -32.1860   23.7670 O   0  0  0  0  0  0  0  0  0  0  0  0
  -22.8350  -29.4770   22.5680 C   0  0  0  0  0  0  0  0  0  0  0  0
  -21.5100  -29.3010   22.4330 N   0  0  0  0  0  0  0  0  0  0  0  0
  -23.5050  -28.8540   23.3950 O   0  0  0  0  0  0  0  0  0  0  0  0
  -21.0250  -29.8570   21.7430 H   0  0  0  0  0  0  0  0  0  0  0  0
  -18.1270  -28.1030   22.9280 C   0  0  0  0  0  0  0  0  0  0  0  0
  -20.6870  -28.3590   23.1970 C   0  0  0  0  0  3  0  0  0  0  0  0
  -20.7850  -26.9300   22.6130 C   0  0  0  0  0  2  0  0  0  0  0  0
  -19.6830  -26.6160   21.5960 C   0  0  0  0  0  2  0  0  0  0  0  0
  -18.3030  -26.7590   22.2410 C   0  0  0  0  0  2  0  0  0  0  0  0
  -19.2480  -28.8610   23.3620 C   0  0  0  0  0  0  0  0  0  0  0  0
  -19.0300  -30.1190   23.9660 C   0  0  0  0  0  3  0  0  0  0  0  0
  -17.7260  -30.6190   24.1370 C   0  0  0  0  0  3  0  0  0  0  0  0
  -16.6200  -29.8580   23.7180 C   0  0  0  0  0  3  0  0  0  0  0  0
  -16.8220  -28.6010   23.1200 C   0  0  0  0  0  3  0  0  0  0  0  0
  -25.9190  -32.5780   23.9060 C   0  0  0  0  0  3  0  0  0  0  0  0
  -26.4180  -31.8260   25.2010 C   0  0  1  0  0  0  0  0  0  0  0  0
  -25.3070  -31.5830   26.2490 C   0  0  0  0  0  1  0  0  0  0  0  0
  -27.0260  -30.4520   24.8380 C   0  0  0  0  0  1  0  0  0  0  0  0
  -27.5430  -32.6430   25.8800 C   0  0  0  0  0  1  0  0  0  0  0  0
  -25.5780  -33.9730   24.2220 N   0  0  0  0  0  0  0  0  0  0  0  0
  -25.8940  -35.0270   23.4570 C   0  0  0  0  0  0  0  0  0  0  0  0
  -26.5670  -34.9280   22.4280 O   0  0  0  0  0  0  0  0  0  0  0  0
  -24.9790  -34.1230   25.0200 H   0  0  0  0  0  0  0  0  0  0  0  0
  -24.1250  -36.7820   23.1030 C   0  0  0  0  0  1  0  0  0  0  0  0
  -25.3820  -36.4110   23.9050 C   0  0  0  0  0  3  0  0  0  0  0  0
  -27.5050  -37.3520   24.7070 C   0  0  0  0  0  1  0  0  0  0  0  0
  -26.3920  -37.4840   23.7710 N   0  0  0  0  0  0  0  0  0  0  0  0
  -25.9660  -38.3970   23.9110 H   0  0  0  0  0  0  0  0  0  0  0  0
  1 16  1  0
  2  7  1  0
  3  4  1  0
  3  2  1  0
  5  4  1  0
  5 21  1  0
  5  6  1  0
  7  1  1  0
  7  6  1  0
  8  1  2  0
  9 13  1  0
 10  9  2  0
 10 11  1  0
 11 12  2  0
 12 48  1  0
 13 16  1  0
 13 15  2  0
 14 10  1  0
 15 12  1  0
 16 17  1  0
 18 19  2  0
 19 38  1  0
 20 19  1  0
 20 23  1  0
 21 18  1  0
 21 22  1  0
 22 20  2  0
 23 24  1  0
 24 25  2  0
 26 29  1  0
 26 25  1  0
 27 26  2  0
 28 27  1  0
 28 23  2  0
 29 30  1  0
 30 31  1  0
 31 32  2  0
 33 32  1  0
 33 37  1  0
 34 33  2  0
 35 30  2  0
 35 34  1  0
 36 35  1  0
 38 39  1  0
 39 42  1  0
 39 41  1  0
 40 38  2  0
 43 44  1  0
 43 18  1  0
 45 43  1  0
 47 46  1  0
 48 47  1  0
 48 46  1  0
 50 11  1  0
 50 51  1  0
 50 49  1  0
 51 52  1  0
 53 55  1  0
 53 52  1  0
 54 65  2  0
 55 60  1  0
 56 64  1  0
 56 66  1  0
 57 63  1  0
 57 59  1  0
 58 64  1  0
 59 60  2  0
 59 58  1  0
 61 55  2  0
 62 61  1  0
 62 57  2  0
 63 56  1  0
 64 54  1  0
 66 68  2  0
 67 66  1  0
 69 67  1  0
 70 79  2  0
 70 75  1  0
 71 67  1  0
 71 75  1  0
 72 71  1  0
 73 74  1  0
 73 72  1  0
 74 70  1  0
 75 76  2  0
 76 77  1  0
 78 77  2  0
 79 78  1  0
 80 54  1  0
 80 85  1  0
 80 81  1  0
 81 84  1  1
 81 82  1  0
 83 81  1  0
 85 88  1  0
 86 90  1  0
 86 85  1  0
 87 86  2  0
 90 89  1  0
 92 90  1  0
 92 93  1  0
 92 91  1  0
M  ISO  4   1 100  16 100  52 101  53 101
M  END
>  <TORSDO>  (39) 
F 19

>  <SCORE>  (39) 
-14.857

>  <name>  (39) 
38

>  <ligand_id>  (39) 
38

>  <original_smiles>  (39) 
[H]c1c([H])c([H])c2c(c1[H])C([H])([H])C([H])([H])C([H])([H])C2([H])N([H])C(=O)C1([H])N(C(=O)C([H])(N([H])C(=O)C([H])(N([H])C([H])([H])[H])C([H])([H])[H])C(C([H])([H])[H])(C([H])([H])[H])C([H])([H])[H])C([H])([H])c2c([H])c(OC([H])([H])C([H])([H])C([H])(c3c(C4([H])C([H])([H])C4([H])[H])nc(N([H])C(=O)N4C([H])([H])C([H])([H])C([H])([H])C([H])(n5nc(-c6c([H])c([H])c(Oc7c([H])c([H])c(F)c([H])c7F)c([H])c6[H])c(C(=O)N([H])[H])c5N([H])[H])C4([H])[H])c([H])c3C([H])([H])[H])C([H])([H])[H])c([H])c([H])c2C1([H])[H]

>  <smiles>  (39) 
[H]c1c([H])c([H])c2c(c1[H])C([H])([H])C([H])([H])C([H])([H])C2([H])N([H])C(=O)C1([H])N(C(=O)C([H])(N([H])C(=O)C([H])(N([H])C([H])([H])[H])C([H])([H])[H])C(C([H])([H])[H])(C([H])([H])[H])C([H])([H])[H])C([H])([H])c2c([H])c(OC([H])([H])C([H])([H])C([H])(c3c(C4([H])C([H])([H])C4([H])[H])nc(N([H])C(=O)N4C([H])([H])C([H])([H])C([H])([H])C([H])(n5nc(-c6c([H])c([H])c(Oc7c([H])c([H])c(F)c([H])c7F)c([H])c6[H])c(C(=O)N([H])[H])c5N([H])[H])C4([H])[H])c([H])c3C([H])([H])[H])C([H])([H])[H])c([H])c([H])c2C1([H])[H]

$$$$
39:0:0
     RDKit          3D

 94103  0  0  1  0  0  0  0  0999 V2000
  -29.3570  -23.6150   18.7590 C   0  0  0  0  0  3  0  0  0  0  0  0
  -29.8980  -22.5170   18.0540 C   0  0  0  0  0  0  0  0  0  0  0  0
  -28.7380  -23.4780   20.0040 C   0  0  0  0  0  0  0  0  0  0  0  0
  -28.7110  -22.0870   20.5340 C   0  0  0  0  0  0  0  0  0  0  0  0
  -29.8450  -21.1780   18.5590 C   0  0  0  0  0  0  0  0  0  0  0  0
  -29.2730  -20.8940   19.8470 C   0  0  0  0  0  0  0  0  0  0  0  0
  -30.5250  -22.8490   16.7050 C   0  0  0  0  0  1  0  0  0  0  0  0
  -28.0520  -21.8570   21.8820 C   0  0  0  0  0  1  0  0  0  0  0  0
  -30.6260  -14.9780   20.1210 C   0  0  0  0  0  0  0  0  0  0  0  0
  -30.3310  -12.6660   19.1390 C   0  0  0  0  0  2  0  0  0  0  0  0
  -29.3750  -12.6460   17.9280 C   0  0  0  0  0  2  0  0  0  0  0  0
  -27.9290  -12.4280   18.4060 C   0  0  0  0  0  2  0  0  0  0  0  0
  -27.5640  -13.3540   19.5940 C   0  0  0  0  0  3  0  0  0  0  0  0
  -28.6520  -13.4030   20.6890 C   0  0  0  0  0  2  0  0  0  0  0  0
  -29.9050  -13.7870   20.0330 N   0  0  0  0  0  0  0  0  0  0  0  0
  -31.8250  -14.8920   19.8290 O   0  0  0  0  0  0  0  0  0  0  0  0
  -30.5370  -18.9120   20.9510 C   0  0  0  0  0  3  0  0  0  0  0  0
  -28.4730  -18.3760   19.8230 C   0  0  0  0  0  3  0  0  0  0  0  0
  -31.0390  -17.4740   20.4250 C   0  0  0  0  0  3  0  0  0  0  0  0
  -28.7150  -16.8750   20.3920 C   0  0  0  0  0  3  0  0  0  0  0  0
  -29.2990  -19.4970   20.3710 N   0  0  0  0  0  0  0  0  0  0  0  0
  -30.1000  -16.2950   20.3440 N   0  0  0  0  0  0  0  0  0  0  0  0
  -25.2180  -13.9440   20.4190 C   0  0  0  0  0  0  0  0  0  0  0  0
  -24.1630  -13.1720   20.8160 C   0  0  0  0  0  0  0  0  0  0  0  0
  -24.6210  -11.8200   20.7610 C   0  0  0  0  0  0  0  0  0  0  0  0
  -26.2470  -13.0620   20.1380 N   0  0  0  0  0  0  0  0  0  0  0  0
  -25.9010  -11.7800   20.4130 N   0  0  0  0  0  0  0  0  0  0  0  0
  -23.8940  -10.5610   20.9590 C   0  0  0  0  0  0  0  0  0  0  0  0
  -24.3290   -9.5970   21.8950 C   0  0  0  0  0  3  0  0  0  0  0  0
  -23.6030   -8.4010   22.0830 C   0  0  0  0  0  3  0  0  0  0  0  0
  -22.4250   -8.1620   21.3350 C   0  0  0  0  0  0  0  0  0  0  0  0
  -22.0080   -9.1160   20.3890 C   0  0  0  0  0  3  0  0  0  0  0  0
  -22.7350  -10.3020   20.1990 C   0  0  0  0  0  3  0  0  0  0  0  0
  -21.6670   -7.0210   21.4330 O   0  0  0  0  0  0  0  0  0  0  0  0
  -21.6010   -6.2990   22.5970 C   0  0  0  0  0  0  0  0  0  0  0  0
  -21.1380   -6.8690   23.8030 C   0  0  0  0  0  3  0  0  0  0  0  0
  -21.0220   -6.0710   24.9590 C   0  0  0  0  0  3  0  0  0  0  0  0
  -21.3590   -4.7050   24.9090 C   0  0  0  0  0  0  0  0  0  0  0  0
  -21.8140   -4.1350   23.7080 C   0  0  0  0  0  3  0  0  0  0  0  0
  -21.9320   -4.9300   22.5540 C   0  0  0  0  0  0  0  0  0  0  0  0
  -22.3520   -4.3710   21.3940 F   0  0  0  0  0  0  0  0  0  0  0  0
  -21.2410   -3.9370   26.0170 F   0  0  0  0  0  0  0  0  0  0  0  0
  -22.7770  -13.6560   21.1260 C   0  0  0  0  0  0  0  0  0  0  0  0
  -22.0670  -12.9580   22.0050 N   0  0  0  0  0  0  0  0  0  0  0  0
  -22.3320  -14.6880   20.6250 O   0  0  0  0  0  0  0  0  0  0  0  0
  -22.4430  -12.1230   22.4300 H   0  0  0  0  0  0  0  0  0  0  0  0
  -21.1400  -13.2650   22.2600 H   0  0  0  0  0  0  0  0  0  0  0  0
  -25.3800  -15.3150   20.2480 N   0  0  0  0  0  0  0  0  0  0  0  0
  -24.6150  -15.9650   20.3920 H   0  0  0  0  0  0  0  0  0  0  0  0
  -26.2170  -15.7560   19.8930 H   0  0  0  0  0  0  0  0  0  0  0  0
  -29.5170  -19.6600   16.5010 C   0  0  0  0  0  1  0  0  0  0  0  0
  -30.4230  -20.0570   17.6810 C   0  0  0  0  0  2  0  0  0  0  0  0
  -28.0760  -24.8320   20.6440 C   0  0  0  0  0  2  0  0  0  0  0  0
  -28.3430  -26.2800   20.1690 O   0  0  0  0  0  0  0  0  0  0  0  0
  -24.6970  -31.8940   23.2280 C   0  0  0  0  0  0  0  0  0  0  0  0
  -27.2810  -27.2420   20.1620 C   0  0  0  0  0  0  0  0  0  0  0  0
  -23.4940  -30.5020   21.5880 C   0  0  0  0  0  3  0  0  0  0  0  0
  -24.9420  -28.9490   20.1460 C   0  0  0  0  0  0  0  0  0  0  0  0
  -26.0430  -30.7950   21.4050 C   0  0  0  0  0  2  0  0  0  0  0  0
  -26.1220  -29.4090   20.7460 C   0  0  0  0  0  0  0  0  0  0  0  0
  -27.2980  -28.5720   20.7350 C   0  0  0  0  0  3  0  0  0  0  0  0
  -26.0810  -26.8760   19.5200 C   0  0  0  0  0  3  0  0  0  0  0  0
  -24.9320  -27.6950   19.5160 C   0  0  0  0  0  3  0  0  0  0  0  0
  -23.7090  -29.8350   20.2040 C   0  0  0  0  0  2  0  0  0  0  0  0
  -24.7640  -31.0850   22.1280 N   0  0  0  0  0  0  0  0  0  0  0  0
  -23.6150  -32.1680   23.7660 O   0  0  0  0  0  0  0  0  0  0  0  0
  -22.8310  -29.4830   22.5470 C   0  0  0  0  0  0  0  0  0  0  0  0
  -21.5040  -29.3000   22.4240 N   0  0  0  0  0  0  0  0  0  0  0  0
  -23.5130  -28.8580   23.3640 O   0  0  0  0  0  0  0  0  0  0  0  0
  -21.0110  -29.8550   21.7380 H   0  0  0  0  0  0  0  0  0  0  0  0
  -18.1350  -28.0760   22.9380 C   0  0  0  0  0  0  0  0  0  0  0  0
  -20.6930  -28.3540   23.1950 C   0  0  0  0  0  3  0  0  0  0  0  0
  -20.8020  -26.9260   22.6130 C   0  0  0  0  0  2  0  0  0  0  0  0
  -19.6970  -26.6000   21.6030 C   0  0  0  0  0  2  0  0  0  0  0  0
  -18.3190  -26.7320   22.2540 C   0  0  0  0  0  2  0  0  0  0  0  0
  -19.2500  -28.8440   23.3660 C   0  0  0  0  0  0  0  0  0  0  0  0
  -19.0240  -30.1020   23.9680 C   0  0  0  0  0  3  0  0  0  0  0  0
  -17.7160  -30.5910   24.1450 C   0  0  0  0  0  3  0  0  0  0  0  0
  -16.6160  -29.8190   23.7320 C   0  0  0  0  0  3  0  0  0  0  0  0
  -16.8270  -28.5630   23.1350 C   0  0  0  0  0  3  0  0  0  0  0  0
  -25.9770  -32.5330   23.8510 C   0  0  0  0  0  3  0  0  0  0  0  0
  -25.6610  -33.9290   24.1860 N   0  0  0  0  0  0  0  0  0  0  0  0
  -25.9780  -34.9870   23.4260 C   0  0  0  0  0  0  0  0  0  0  0  0
  -26.6330  -34.8910   22.3860 O   0  0  0  0  0  0  0  0  0  0  0  0
  -25.0790  -34.0780   24.9970 H   0  0  0  0  0  0  0  0  0  0  0  0
  -24.2350  -36.7730   23.1030 C   0  0  0  0  0  1  0  0  0  0  0  0
  -25.4900  -36.3720   23.8950 C   0  0  0  0  0  3  0  0  0  0  0  0
  -27.6310  -37.2700   24.6980 C   0  0  0  0  0  1  0  0  0  0  0  0
  -26.5150  -37.4320   23.7690 N   0  0  0  0  0  0  0  0  0  0  0  0
  -26.1060  -38.3490   23.9230 H   0  0  0  0  0  0  0  0  0  0  0  0
  -26.4950  -31.7630   25.1280 C   0  0  1  0  0  0  0  0  0  0  0  0
  -25.4040  -31.5240   26.1970 C   0  0  0  0  0  1  0  0  0  0  0  0
  -27.0810  -30.3870   24.7410 C   0  0  0  0  0  1  0  0  0  0  0  0
  -27.6470  -32.5600   25.7870 C   0  0  0  0  0  1  0  0  0  0  0  0
  1  3  1  0
  2  5  1  0
  2  1  2  0
  3  4  2  0
  3 53  1  0
  4  8  1  0
  5  6  2  0
  6 21  1  0
  6  4  1  0
  7  2  1  0
  9 22  1  0
 10 15  1  0
 11 12  1  0
 11 10  1  0
 13 12  1  0
 13 26  1  0
 13 14  1  0
 15  9  1  0
 15 14  1  0
 16  9  2  0
 18 21  1  0
 18 20  2  0
 19 17  2  0
 21 17  1  0
 22 20  1  0
 22 19  1  0
 23 24  2  0
 24 43  1  0
 25 24  1  0
 25 28  1  0
 26 27  1  0
 26 23  1  0
 27 25  2  0
 28 29  1  0
 29 30  2  0
 31 34  1  0
 31 30  1  0
 32 31  2  0
 33 32  1  0
 33 28  2  0
 34 35  1  0
 35 36  1  0
 36 37  2  0
 38 37  1  0
 38 42  1  0
 39 38  2  0
 40 35  2  0
 40 39  1  0
 41 40  1  0
 43 44  1  0
 44 47  1  0
 44 46  1  0
 45 43  2  0
 48 49  1  0
 48 23  1  0
 50 48  1  0
 51 52  1  0
 52  5  1  0
 54 53  1  0
 55 66  2  0
 56 54  1  0
 56 61  1  0
 57 65  1  0
 57 67  1  0
 58 64  1  0
 58 60  1  0
 59 65  1  0
 60 59  1  0
 61 60  2  0
 62 56  2  0
 63 62  1  0
 63 58  2  0
 64 57  1  0
 65 55  1  0
 67 69  2  0
 68 67  1  0
 70 68  1  0
 71 80  2  0
 71 76  1  0
 72 68  1  0
 72 76  1  0
 73 72  1  0
 74 75  1  0
 74 73  1  0
 75 71  1  0
 76 77  2  0
 77 78  1  0
 79 78  2  0
 80 79  1  0
 81 55  1  0
 81 82  1  0
 81 91  1  0
 82 85  1  0
 83 87  1  0
 83 82  1  0
 84 83  2  0
 87 86  1  0
 89 87  1  0
 89 90  1  0
 89 88  1  0
 91 94  1  1
 91 92  1  0
 93 91  1  0
M  ISO  4   9 100  22 100  53 101  54 101
M  END
>  <TORSDO>  (40) 
F 18

>  <SCORE>  (40) 
-14.867

>  <name>  (40) 
39

>  <ligand_id>  (40) 
39

>  <original_smiles>  (40) 
[H]c1c([H])c([H])c2c(c1[H])C([H])([H])C([H])([H])C([H])([H])C2([H])N([H])C(=O)C1([H])N(C(=O)C([H])(N([H])C(=O)C([H])(N([H])C([H])([H])[H])C([H])([H])[H])C(C([H])([H])[H])(C([H])([H])[H])C([H])([H])[H])C([H])([H])c2c([H])c(OC([H])([H])c3c([H])c(C([H])([H])[H])c(C([H])([H])C([H])([H])[H])c(N4C([H])([H])C([H])([H])N(C(=O)N5C([H])([H])C([H])([H])C([H])([H])C([H])(n6nc(-c7c([H])c([H])c(Oc8c([H])c([H])c(F)c([H])c8F)c([H])c7[H])c(C(=O)N([H])[H])c6N([H])[H])C5([H])[H])C([H])([H])C4([H])[H])c3C([H])([H])[H])c([H])c([H])c2C1([H])[H]

>  <smiles>  (40) 
[H]c1c([H])c([H])c2c(c1[H])C([H])([H])C([H])([H])C([H])([H])C2([H])N([H])C(=O)C1([H])N(C(=O)C([H])(N([H])C(=O)C([H])(N([H])C([H])([H])[H])C([H])([H])[H])C(C([H])([H])[H])(C([H])([H])[H])C([H])([H])[H])C([H])([H])c2c([H])c(OC([H])([H])c3c([H])c(C([H])([H])[H])c(C([H])([H])C([H])([H])[H])c(N4C([H])([H])C([H])([H])N(C(=O)N5C([H])([H])C([H])([H])C([H])([H])C([H])(n6nc(-c7c([H])c([H])c(Oc8c([H])c([H])c(F)c([H])c8F)c([H])c7[H])c(C(=O)N([H])[H])c6N([H])[H])C5([H])[H])C([H])([H])C4([H])[H])c3C([H])([H])[H])c([H])c([H])c2C1([H])[H]

$$$$
40:0:0
     RDKit          3D

 93102  0  0  1  0  0  0  0  0999 V2000
  -29.1560  -19.2630   19.7480 C   0  0  0  0  0  3  0  0  0  0  0  0
  -29.7870  -21.2030   21.6510 C   0  0  0  0  0  3  0  0  0  0  0  0
  -29.9090  -18.8290   20.8750 C   0  0  0  0  0  0  0  0  0  0  0  0
  -30.2840  -19.8680   21.7850 C   0  0  0  0  0  0  0  0  0  0  0  0
  -28.7050  -20.6250   19.5920 C   0  0  0  0  0  0  0  0  0  0  0  0
  -28.9730  -21.6250   20.5700 C   0  0  0  0  0  0  0  0  0  0  0  0
  -31.2390  -19.6000   22.9540 C   0  0  0  0  0  2  0  0  0  0  0  0
  -31.8280  -18.1810   23.0270 C   0  0  0  0  0  2  0  0  0  0  0  0
  -30.8100  -17.1440   22.5870 C   0  0  0  0  0  2  0  0  0  0  0  0
  -30.4460  -17.3450   21.1040 C   0  0  0  0  0  3  0  0  0  0  0  0
  -27.8860  -20.9960   18.3750 C   0  0  0  0  0  1  0  0  0  0  0  0
  -30.3920  -14.9460   20.2640 C   0  0  0  0  0  0  0  0  0  0  0  0
  -30.1410  -12.7200   19.1900 C   0  0  0  0  0  2  0  0  0  0  0  0
  -29.1700  -12.8300   17.9980 C   0  0  0  0  0  2  0  0  0  0  0  0
  -27.7290  -12.5800   18.4810 C   0  0  0  0  0  2  0  0  0  0  0  0
  -27.3600  -13.4270   19.7280 C   0  0  0  0  0  3  0  0  0  0  0  0
  -28.4630  -13.3690   20.8100 C   0  0  0  0  0  2  0  0  0  0  0  0
  -29.7330  -13.7440   20.1770 N   0  0  0  0  0  0  0  0  0  0  0  0
  -31.5460  -15.0430   19.8530 O   0  0  0  0  0  0  0  0  0  0  0  0
  -29.7320  -16.0770   20.6930 N   0  0  0  0  0  0  0  0  0  0  0  0
  -28.7640  -15.9770   20.9610 H   0  0  0  0  0  0  0  0  0  0  0  0
  -24.9760  -13.8930   20.5660 C   0  0  0  0  0  0  0  0  0  0  0  0
  -23.9570  -13.0620   20.9470 C   0  0  0  0  0  0  0  0  0  0  0  0
  -24.4730  -11.7330   20.8570 C   0  0  0  0  0  0  0  0  0  0  0  0
  -26.0460  -13.0670   20.2590 N   0  0  0  0  0  0  0  0  0  0  0  0
  -25.7540  -11.7610   20.4980 N   0  0  0  0  0  0  0  0  0  0  0  0
  -23.8070  -10.4380   21.0350 C   0  0  0  0  0  0  0  0  0  0  0  0
  -24.2890   -9.4760   21.9510 C   0  0  0  0  0  3  0  0  0  0  0  0
  -23.6220   -8.2430   22.1130 C   0  0  0  0  0  3  0  0  0  0  0  0
  -22.4580   -7.9610   21.3610 C   0  0  0  0  0  0  0  0  0  0  0  0
  -21.9980   -8.9100   20.4300 C   0  0  0  0  0  3  0  0  0  0  0  0
  -22.6650  -10.1350   20.2670 C   0  0  0  0  0  3  0  0  0  0  0  0
  -21.7580   -6.7820   21.4350 O   0  0  0  0  0  0  0  0  0  0  0  0
  -21.7140   -6.0400   22.5900 C   0  0  0  0  0  0  0  0  0  0  0  0
  -21.1860   -6.5640   23.7900 C   0  0  0  0  0  3  0  0  0  0  0  0
  -21.0970   -5.7450   24.9330 C   0  0  0  0  0  3  0  0  0  0  0  0
  -21.5250   -4.4040   24.8770 C   0  0  0  0  0  0  0  0  0  0  0  0
  -22.0430   -3.8820   23.6780 C   0  0  0  0  0  3  0  0  0  0  0  0
  -22.1350   -4.6970   22.5360 C   0  0  0  0  0  0  0  0  0  0  0  0
  -22.6180   -4.1810   21.3810 F   0  0  0  0  0  0  0  0  0  0  0  0
  -21.4330   -3.6160   25.9730 F   0  0  0  0  0  0  0  0  0  0  0  0
  -22.5490  -13.4720   21.2780 C   0  0  0  0  0  0  0  0  0  0  0  0
  -21.8770  -12.7320   22.1540 N   0  0  0  0  0  0  0  0  0  0  0  0
  -22.0490  -14.4870   20.7940 O   0  0  0  0  0  0  0  0  0  0  0  0
  -22.2870  -11.9160   22.5810 H   0  0  0  0  0  0  0  0  0  0  0  0
  -20.9330  -12.9940   22.4030 H   0  0  0  0  0  0  0  0  0  0  0  0
  -25.0730  -15.2750   20.4270 N   0  0  0  0  0  0  0  0  0  0  0  0
  -24.2840  -15.8900   20.6010 H   0  0  0  0  0  0  0  0  0  0  0  0
  -25.8960  -15.7630   20.0980 H   0  0  0  0  0  0  0  0  0  0  0  0
  -28.3220  -22.8840   20.6440 O   0  0  0  0  0  0  0  0  0  0  0  0
  -28.5750  -24.0520   19.7750 C   0  0  0  0  0  2  0  0  0  0  0  0
  -27.8760  -25.3780   20.3560 C   0  0  0  0  0  2  0  0  0  0  0  0
  -27.9410  -26.7160   19.7120 O   0  0  0  0  0  0  0  0  0  0  0  0
  -24.4640  -32.0310   23.2200 C   0  0  0  0  0  0  0  0  0  0  0  0
  -26.8250  -27.5590   19.8380 C   0  0  0  0  0  0  0  0  0  0  0  0
  -23.1360  -30.7030   21.6140 C   0  0  0  0  0  3  0  0  0  0  0  0
  -24.4740  -29.1760   20.0580 C   0  0  0  0  0  0  0  0  0  0  0  0
  -25.6650  -30.9930   21.2890 C   0  0  0  0  0  2  0  0  0  0  0  0
  -25.6850  -29.6400   20.5880 C   0  0  0  0  0  0  0  0  0  0  0  0
  -26.8620  -28.8450   20.4630 C   0  0  0  0  0  3  0  0  0  0  0  0
  -25.5880  -27.1410   19.3000 C   0  0  0  0  0  3  0  0  0  0  0  0
  -24.4250  -27.9300   19.4100 C   0  0  0  0  0  3  0  0  0  0  0  0
  -23.2550  -30.0610   20.2070 C   0  0  0  0  0  2  0  0  0  0  0  0
  -24.4430  -31.2600   22.0960 N   0  0  0  0  0  0  0  0  0  0  0  0
  -23.4190  -32.3070   23.8330 O   0  0  0  0  0  0  0  0  0  0  0  0
  -22.5120  -29.6700   22.5840 C   0  0  0  0  0  0  0  0  0  0  0  0
  -21.1890  -29.4580   22.4810 N   0  0  0  0  0  0  0  0  0  0  0  0
  -23.2190  -29.0590   23.3900 O   0  0  0  0  0  0  0  0  0  0  0  0
  -20.6720  -30.0050   21.8080 H   0  0  0  0  0  0  0  0  0  0  0  0
  -17.8680  -28.1190   22.9820 C   0  0  0  0  0  0  0  0  0  0  0  0
  -20.4110  -28.4950   23.2600 C   0  0  0  0  0  3  0  0  0  0  0  0
  -20.5750  -27.0600   22.7060 C   0  0  0  0  0  2  0  0  0  0  0  0
  -19.4970  -26.6780   21.6860 C   0  0  0  0  0  2  0  0  0  0  0  0
  -18.1060  -26.7710   22.3200 C   0  0  0  0  0  2  0  0  0  0  0  0
  -18.9500  -28.9340   23.4070 C   0  0  0  0  0  0  0  0  0  0  0  0
  -18.6730  -30.1920   23.9840 C   0  0  0  0  0  3  0  0  0  0  0  0
  -17.3480  -30.6410   24.1350 C   0  0  0  0  0  3  0  0  0  0  0  0
  -16.2790  -29.8230   23.7300 C   0  0  0  0  0  3  0  0  0  0  0  0
  -16.5400  -28.5630   23.1620 C   0  0  0  0  0  3  0  0  0  0  0  0
  -25.7920  -32.6220   23.7850 C   0  0  0  0  0  3  0  0  0  0  0  0
  -26.3520  -31.8280   25.0290 C   0  0  1  0  0  0  0  0  0  0  0  0
  -25.3060  -31.6140   26.1480 C   0  0  0  0  0  1  0  0  0  0  0  0
  -26.8820  -30.4380   24.6060 C   0  0  0  0  0  1  0  0  0  0  0  0
  -27.5550  -32.5870   25.6390 C   0  0  0  0  0  1  0  0  0  0  0  0
  -25.5400  -34.0240   24.1440 N   0  0  0  0  0  0  0  0  0  0  0  0
  -25.8790  -35.0780   23.3900 C   0  0  0  0  0  0  0  0  0  0  0  0
  -26.5050  -34.9700   22.3320 O   0  0  0  0  0  0  0  0  0  0  0  0
  -24.9780  -34.1850   24.9670 H   0  0  0  0  0  0  0  0  0  0  0  0
  -24.2110  -36.9410   23.1140 C   0  0  0  0  0  1  0  0  0  0  0  0
  -25.4530  -36.4720   23.8870 C   0  0  0  0  0  3  0  0  0  0  0  0
  -27.6320  -37.2650   24.6950 C   0  0  0  0  0  1  0  0  0  0  0  0
  -26.5210  -37.4890   23.7730 N   0  0  0  0  0  0  0  0  0  0  0  0
  -26.1520  -38.4200   23.9430 H   0  0  0  0  0  0  0  0  0  0  0  0
  1  3  1  0
  2  4  1  0
  3 10  1  0
  3  4  2  0
  4  7  1  0
  5  1  2  0
  5  6  1  0
  6 50  1  0
  6  2  2  0
  7  8  1  0
  9  8  1  0
 10 20  1  0
 10  9  1  0
 11  5  1  0
 12 20  1  0
 13 18  1  0
 14 15  1  0
 14 13  1  0
 16 15  1  0
 16 25  1  0
 16 17  1  0
 18 12  1  0
 18 17  1  0
 19 12  2  0
 20 21  1  0
 22 23  2  0
 23 42  1  0
 24 23  1  0
 24 27  1  0
 25 26  1  0
 25 22  1  0
 26 24  2  0
 27 28  1  0
 28 29  2  0
 30 33  1  0
 30 29  1  0
 31 30  2  0
 32 31  1  0
 32 27  2  0
 33 34  1  0
 34 35  1  0
 35 36  2  0
 37 36  1  0
 37 41  1  0
 38 37  2  0
 39 34  2  0
 39 38  1  0
 40 39  1  0
 42 43  1  0
 43 46  1  0
 43 45  1  0
 44 42  2  0
 47 22  1  0
 47 48  1  0
 49 47  1  0
 51 52  1  0
 51 50  1  0
 53 55  1  0
 53 52  1  0
 54 65  2  0
 55 60  1  0
 56 64  1  0
 56 66  1  0
 57 63  1  0
 57 59  1  0
 58 64  1  0
 59 58  1  0
 60 59  2  0
 61 62  1  0
 61 55  2  0
 62 57  2  0
 63 56  1  0
 64 54  1  0
 66 68  2  0
 67 66  1  0
 69 67  1  0
 70 79  2  0
 70 75  1  0
 71 67  1  0
 71 75  1  0
 72 71  1  0
 73 74  1  0
 73 72  1  0
 74 70  1  0
 75 76  2  0
 76 77  1  0
 78 77  2  0
 79 78  1  0
 80 54  1  0
 80 85  1  0
 80 81  1  0
 81 84  1  1
 81 82  1  0
 83 81  1  0
 85 88  1  0
 86 90  1  0
 86 85  1  0
 87 86  2  0
 90 89  1  0
 92 90  1  0
 92 93  1  0
 92 91  1  0
M  ISO  4  12 100  20 100  52 101  53 101
M  END
>  <TORSDO>  (41) 
F 19

>  <SCORE>  (41) 
-13.107

>  <name>  (41) 
40

>  <ligand_id>  (41) 
40

>  <original_smiles>  (41) 
[H]c1c([H])c([H])c2c(c1[H])C([H])([H])C([H])([H])C([H])([H])C2([H])N([H])C(=O)C1([H])N(C(=O)C([H])(N([H])C(=O)C([H])(N([H])C([H])([H])[H])C([H])([H])[H])C(C([H])([H])[H])(C([H])([H])[H])C([H])([H])[H])C([H])([H])c2c([H])c(OC([H])([H])C([H])([H])Oc3c([H])c4c(c([H])c3C([H])([H])[H])C([H])(N([H])C(=O)N3C([H])([H])C([H])([H])C([H])([H])C([H])(n5nc(-c6c([H])c([H])c(Oc7c([H])c([H])c(F)c([H])c7F)c([H])c6[H])c(C(=O)N([H])[H])c5N([H])[H])C3([H])[H])C([H])([H])C([H])([H])C4([H])[H])c([H])c([H])c2C1([H])[H]

>  <smiles>  (41) 
[H]c1c([H])c([H])c2c(c1[H])C([H])([H])C([H])([H])C([H])([H])C2([H])N([H])C(=O)C1([H])N(C(=O)C([H])(N([H])C(=O)C([H])(N([H])C([H])([H])[H])C([H])([H])[H])C(C([H])([H])[H])(C([H])([H])[H])C([H])([H])[H])C([H])([H])c2c([H])c(OC([H])([H])C([H])([H])Oc3c([H])c4c(c([H])c3C([H])([H])[H])C([H])(N([H])C(=O)N3C([H])([H])C([H])([H])C([H])([H])C([H])(n5nc(-c6c([H])c([H])c(Oc7c([H])c([H])c(F)c([H])c7F)c([H])c6[H])c(C(=O)N([H])[H])c5N([H])[H])C3([H])[H])C([H])([H])C([H])([H])C4([H])[H])c([H])c([H])c2C1([H])[H]

$$$$
41:0:0
     RDKit          3D

 96105  0  0  1  0  0  0  0  0999 V2000
  -28.7150  -20.3480   19.1480 C   0  0  0  0  0  3  0  0  0  0  0  0
  -29.2860  -21.2980   18.1300 C   0  0  0  0  0  3  0  0  0  0  0  0
  -28.3750  -21.8780   19.2090 C   0  0  0  0  0  3  0  0  0  0  0  0
  -28.8300  -21.2020   16.6940 C   0  0  0  0  0  1  0  0  0  0  0  0
  -29.9920  -18.1290   19.4860 C   0  0  0  0  0  3  0  0  0  0  0  0
  -30.4240  -18.6430   22.1840 C   0  0  0  0  0  3  0  0  0  0  0  0
  -29.5740  -19.4020   20.0160 C   0  0  0  0  0  0  0  0  0  0  0  0
  -29.7610  -19.6150   21.4040 C   0  0  0  0  0  0  0  0  0  0  0  0
  -30.8020  -17.3910   21.6590 C   0  0  0  0  0  0  0  0  0  0  0  0
  -30.5590  -17.0920   20.2980 C   0  0  0  0  0  0  0  0  0  0  0  0
  -29.1370  -20.7920   22.1420 C   0  0  0  0  0  1  0  0  0  0  0  0
  -31.3240  -16.3420   22.6290 C   0  0  0  0  0  1  0  0  0  0  0  0
  -31.3690  -14.6620   19.7950 C   0  0  0  0  0  0  0  0  0  0  0  0
  -31.0450  -12.3900   18.8550 C   0  0  0  0  0  2  0  0  0  0  0  0
  -30.0390  -12.5100   17.6880 C   0  0  0  0  0  2  0  0  0  0  0  0
  -28.5890  -12.4660   18.2080 C   0  0  0  0  0  2  0  0  0  0  0  0
  -28.3400  -13.4340   19.3940 C   0  0  0  0  0  3  0  0  0  0  0  0
  -29.4330  -13.2150   20.4720 C   0  0  0  0  0  2  0  0  0  0  0  0
  -30.7330  -13.4530   19.8200 N   0  0  0  0  0  0  0  0  0  0  0  0
  -32.5350  -14.7940   19.4030 O   0  0  0  0  0  0  0  0  0  0  0  0
  -30.4900  -15.6950   19.9280 N   0  0  0  0  0  0  0  0  0  0  0  0
  -29.5690  -15.3190   20.0810 H   0  0  0  0  0  0  0  0  0  0  0  0
  -26.0630  -14.2800   20.2480 C   0  0  0  0  0  0  0  0  0  0  0  0
  -24.9380  -13.6120   20.6500 C   0  0  0  0  0  0  0  0  0  0  0  0
  -25.2520  -12.2200   20.5660 C   0  0  0  0  0  0  0  0  0  0  0  0
  -26.9940  -13.2980   19.9410 N   0  0  0  0  0  0  0  0  0  0  0  0
  -26.5120  -12.0540   20.1940 N   0  0  0  0  0  0  0  0  0  0  0  0
  -24.4140  -11.0320   20.7620 C   0  0  0  0  0  0  0  0  0  0  0  0
  -24.7760  -10.0110   21.6680 C   0  0  0  0  0  3  0  0  0  0  0  0
  -23.9400   -8.8880   21.8510 C   0  0  0  0  0  3  0  0  0  0  0  0
  -22.7300   -8.7780   21.1250 C   0  0  0  0  0  0  0  0  0  0  0  0
  -22.3880   -9.7830   20.2020 C   0  0  0  0  0  3  0  0  0  0  0  0
  -23.2250  -10.8960   20.0170 C   0  0  0  0  0  3  0  0  0  0  0  0
  -21.8700   -7.7080   21.2270 O   0  0  0  0  0  0  0  0  0  0  0  0
  -21.7510   -6.9880   22.3890 C   0  0  0  0  0  0  0  0  0  0  0  0
  -21.3800   -7.6000   23.6070 C   0  0  0  0  0  3  0  0  0  0  0  0
  -21.1970   -6.8150   24.7620 C   0  0  0  0  0  3  0  0  0  0  0  0
  -21.3710   -5.4200   24.7020 C   0  0  0  0  0  0  0  0  0  0  0  0
  -21.7320   -4.8080   23.4900 C   0  0  0  0  0  3  0  0  0  0  0  0
  -21.9180   -5.5880   22.3360 C   0  0  0  0  0  0  0  0  0  0  0  0
  -22.2480   -4.9900   21.1640 F   0  0  0  0  0  0  0  0  0  0  0  0
  -21.1850   -4.6670   25.8110 F   0  0  0  0  0  0  0  0  0  0  0  0
  -23.6080  -14.2210   21.0000 C   0  0  0  0  0  0  0  0  0  0  0  0
  -22.8680  -13.6100   21.9140 N   0  0  0  0  0  0  0  0  0  0  0  0
  -23.2420  -15.2790   20.4900 O   0  0  0  0  0  0  0  0  0  0  0  0
  -23.1620  -12.7450   22.3450 H   0  0  0  0  0  0  0  0  0  0  0  0
  -21.9890  -14.0200   22.1970 H   0  0  0  0  0  0  0  0  0  0  0  0
  -26.3600  -15.6320   20.0940 N   0  0  0  0  0  0  0  0  0  0  0  0
  -27.2430  -16.0080   19.7740 H   0  0  0  0  0  0  0  0  0  0  0  0
  -25.6660  -16.3580   20.2350 H   0  0  0  0  0  0  0  0  0  0  0  0
  -29.1220  -22.8890   20.0240 N   0  0  0  0  0  4  0  0  0  0  0  0
  -29.3660  -22.4560   20.9000 H   0  0  0  0  0  0  0  0  0  0  0  0
  -29.9940  -23.1120   19.5670 H   0  0  0  0  0  0  0  0  0  0  0  0
  -28.4000  -24.1800   20.3390 C   0  0  0  0  0  2  0  0  0  0  0  0
  -28.5060  -25.3280   19.2740 C   0  0  0  0  0  2  0  0  0  0  0  0
  -28.3690  -26.6890   19.7830 O   0  0  0  0  0  0  0  0  0  0  0  0
  -24.5010  -31.7330   23.0590 C   0  0  0  0  0  0  0  0  0  0  0  0
  -27.1710  -27.3970   19.7880 C   0  0  0  0  0  0  0  0  0  0  0  0
  -23.2960  -30.3700   21.3850 C   0  0  0  0  0  3  0  0  0  0  0  0
  -24.7540  -28.9050   19.8800 C   0  0  0  0  0  0  0  0  0  0  0  0
  -25.8170  -30.7640   21.1700 C   0  0  0  0  0  2  0  0  0  0  0  0
  -25.9160  -29.4140   20.4750 C   0  0  0  0  0  0  0  0  0  0  0  0
  -27.1200  -28.6660   20.4260 C   0  0  0  0  0  3  0  0  0  0  0  0
  -25.9850  -26.9140   19.1900 C   0  0  0  0  0  3  0  0  0  0  0  0
  -24.7870  -27.6570   19.2350 C   0  0  0  0  0  3  0  0  0  0  0  0
  -23.4980  -29.7450   19.9770 C   0  0  0  0  0  2  0  0  0  0  0  0
  -24.5580  -30.9680   21.9300 N   0  0  0  0  0  0  0  0  0  0  0  0
  -23.4210  -31.9700   23.6200 O   0  0  0  0  0  0  0  0  0  0  0  0
  -22.6720  -29.3050   22.3170 C   0  0  0  0  0  0  0  0  0  0  0  0
  -21.3480  -29.1080   22.2060 N   0  0  0  0  0  0  0  0  0  0  0  0
  -23.3800  -28.6610   23.0980 O   0  0  0  0  0  0  0  0  0  0  0  0
  -20.8400  -29.6870   21.5520 H   0  0  0  0  0  0  0  0  0  0  0  0
  -18.0010  -27.8280   22.6980 C   0  0  0  0  0  0  0  0  0  0  0  0
  -20.5560  -28.1320   22.9560 C   0  0  0  0  0  3  0  0  0  0  0  0
  -20.6830  -26.7190   22.3410 C   0  0  0  0  0  2  0  0  0  0  0  0
  -19.5780  -26.4030   21.3280 C   0  0  0  0  0  2  0  0  0  0  0  0
  -18.1980  -26.5000   21.9870 C   0  0  0  0  0  2  0  0  0  0  0  0
  -19.1080  -28.6010   23.1400 C   0  0  0  0  0  0  0  0  0  0  0  0
  -18.8700  -29.8420   23.7700 C   0  0  0  0  0  3  0  0  0  0  0  0
  -17.5570  -30.3130   23.9590 C   0  0  0  0  0  3  0  0  0  0  0  0
  -16.4640  -29.5380   23.5320 C   0  0  0  0  0  3  0  0  0  0  0  0
  -16.6880  -28.2970   22.9080 C   0  0  0  0  0  3  0  0  0  0  0  0
  -25.7810  -32.3720   23.6780 C   0  0  0  0  0  3  0  0  0  0  0  0
  -26.3430  -31.5620   24.9110 C   0  0  1  0  0  0  0  0  0  0  0  0
  -25.2800  -31.2620   25.9920 C   0  0  0  0  0  1  0  0  0  0  0  0
  -26.9440  -30.2140   24.4520 C   0  0  0  0  0  1  0  0  0  0  0  0
  -27.4910  -32.3560   25.5780 C   0  0  0  0  0  1  0  0  0  0  0  0
  -25.4460  -33.7480   24.0680 N   0  0  0  0  0  0  0  0  0  0  0  0
  -25.7620  -34.8390   23.3550 C   0  0  0  0  0  0  0  0  0  0  0  0
  -26.4310  -34.7910   22.3180 O   0  0  0  0  0  0  0  0  0  0  0  0
  -24.8400  -33.8600   24.8680 H   0  0  0  0  0  0  0  0  0  0  0  0
  -23.9990  -36.6190   23.0930 C   0  0  0  0  0  1  0  0  0  0  0  0
  -25.2540  -36.1980   23.8760 C   0  0  0  0  0  3  0  0  0  0  0  0
  -27.3800  -37.0800   24.7280 C   0  0  0  0  0  1  0  0  0  0  0  0
  -26.2660  -37.2740   23.8020 N   0  0  0  0  0  0  0  0  0  0  0  0
  -25.8440  -38.1780   24.0010 H   0  0  0  0  0  0  0  0  0  0  0  0
  1  3  1  0
  1  7  1  0
  2  4  1  0
  2  1  1  0
  2  3  1  0
  3 51  1  0
  5  7  2  0
  5 10  1  0
  7  8  1  0
  8 11  1  0
  8  6  2  0
  9  6  1  0
  9 12  1  0
 10  9  2  0
 13 19  1  0
 13 21  1  0
 14 19  1  0
 15 16  1  0
 15 14  1  0
 17 16  1  0
 17 26  1  0
 17 18  1  0
 19 18  1  0
 20 13  2  0
 21 22  1  0
 21 10  1  0
 23 24  2  0
 24 43  1  0
 25 24  1  0
 25 28  1  0
 26 27  1  0
 26 23  1  0
 27 25  2  0
 28 29  1  0
 29 30  2  0
 31 34  1  0
 31 30  1  0
 32 31  2  0
 33 32  1  0
 33 28  2  0
 34 35  1  0
 35 36  1  0
 36 37  2  0
 38 37  1  0
 38 42  1  0
 39 38  2  0
 40 35  2  0
 40 39  1  0
 41 40  1  0
 43 44  1  0
 44 47  1  0
 44 46  1  0
 45 43  2  0
 48 50  1  0
 48 23  1  0
 49 48  1  0
 51 54  1  0
 51 52  1  0
 53 51  1  0
 55 56  1  0
 55 54  1  0
 56 58  1  0
 57 68  2  0
 58 63  1  0
 59 67  1  0
 59 69  1  0
 60 66  1  0
 60 62  1  0
 61 67  1  0
 62 61  1  0
 63 62  2  0
 64 65  1  0
 64 58  2  0
 65 60  2  0
 66 59  1  0
 67 57  1  0
 69 71  2  0
 70 69  1  0
 72 70  1  0
 73 82  2  0
 73 78  1  0
 74 70  1  0
 74 78  1  0
 75 74  1  0
 76 77  1  0
 76 75  1  0
 77 73  1  0
 78 79  2  0
 79 80  1  0
 81 80  2  0
 82 81  1  0
 83 57  1  0
 83 88  1  0
 83 84  1  0
 84 87  1  1
 84 85  1  0
 86 84  1  0
 88 91  1  0
 89 93  1  0
 89 88  1  0
 90 89  2  0
 93 92  1  0
 95 93  1  0
 95 96  1  0
 95 94  1  0
M  ISO  4  13 100  21 100  55 101  56 101
M  END
>  <TORSDO>  (42) 
F 20

>  <SCORE>  (42) 
-11.407

>  <name>  (42) 
41

>  <ligand_id>  (42) 
41

>  <original_smiles>  (42) 
[H]c1c([H])c([H])c2c(c1[H])C([H])([H])C([H])([H])C([H])([H])C2([H])N([H])C(=O)C1([H])N(C(=O)C([H])(N([H])C(=O)C([H])(N([H])C([H])([H])[H])C([H])([H])[H])C(C([H])([H])[H])(C([H])([H])[H])C([H])([H])[H])C([H])([H])c2c([H])c(OC([H])([H])C([H])([H])[N+]([H])([H])C3([H])C([H])(c4c([H])c(N([H])C(=O)N5C([H])([H])C([H])([H])C([H])([H])C([H])(n6nc(-c7c([H])c([H])c(Oc8c([H])c([H])c(F)c([H])c8F)c([H])c7[H])c(C(=O)N([H])[H])c6N([H])[H])C5([H])[H])c(C([H])([H])[H])c([H])c4C([H])([H])[H])C3([H])C([H])([H])[H])c([H])c([H])c2C1([H])[H]

>  <smiles>  (42) 
[H]c1c([H])c([H])c2c(c1[H])C([H])([H])C([H])([H])C([H])([H])C2([H])N([H])C(=O)C1([H])N(C(=O)C([H])(N([H])C(=O)C([H])(N([H])C([H])([H])[H])C([H])([H])[H])C(C([H])([H])[H])(C([H])([H])[H])C([H])([H])[H])C([H])([H])c2c([H])c(OC([H])([H])C([H])([H])[N+]([H])([H])C3([H])C([H])(c4c([H])c(N([H])C(=O)N5C([H])([H])C([H])([H])C([H])([H])C([H])(n6nc(-c7c([H])c([H])c(Oc8c([H])c([H])c(F)c([H])c8F)c([H])c7[H])c(C(=O)N([H])[H])c6N([H])[H])C5([H])[H])c(C([H])([H])[H])c([H])c4C([H])([H])[H])C3([H])C([H])([H])[H])c([H])c([H])c2C1([H])[H]

$$$$
42:0:0
     RDKit          3D

 93102  0  0  1  0  0  0  0  0999 V2000
  -30.1090  -24.2980   20.5650 C   0  0  0  0  0  3  0  0  0  0  0  0
  -28.6880  -22.5030   19.7250 C   0  0  0  0  0  3  0  0  0  0  0  0
  -28.8540  -23.8920   20.0820 C   0  0  0  0  0  0  0  0  0  0  0  0
  -31.1790  -23.3830   20.6470 C   0  0  0  0  0  0  0  0  0  0  0  0
  -29.7530  -21.5400   19.8140 C   0  0  0  0  0  0  0  0  0  0  0  0
  -31.0140  -22.0310   20.2470 C   0  0  0  0  0  0  0  0  0  0  0  0
  -32.5220  -23.8940   21.1420 C   0  0  0  0  0  1  0  0  0  0  0  0
  -32.4030  -20.9960   20.2120 Cl  0  0  0  0  0  0  0  0  0  0  0  0
  -27.7050  -24.9440   19.9780 C   0  0  0  0  0  2  0  0  0  0  0  0
  -27.9890  -26.3830   20.2070 O   0  0  0  0  0  0  0  0  0  0  0  0
  -24.5220  -31.9490   23.2470 C   0  0  0  0  0  0  0  0  0  0  0  0
  -26.8940  -27.2640   20.1810 C   0  0  0  0  0  0  0  0  0  0  0  0
  -23.2190  -30.5500   21.6880 C   0  0  0  0  0  3  0  0  0  0  0  0
  -24.5700  -28.9380   20.2400 C   0  0  0  0  0  0  0  0  0  0  0  0
  -25.7590  -30.7930   21.4030 C   0  0  0  0  0  2  0  0  0  0  0  0
  -25.7770  -29.4030   20.7800 C   0  0  0  0  0  0  0  0  0  0  0  0
  -26.9410  -28.5780   20.7430 C   0  0  0  0  0  3  0  0  0  0  0  0
  -25.6600  -26.8550   19.6210 C   0  0  0  0  0  3  0  0  0  0  0  0
  -24.5130  -27.6660   19.6570 C   0  0  0  0  0  3  0  0  0  0  0  0
  -23.3610  -29.8470   20.3140 C   0  0  0  0  0  2  0  0  0  0  0  0
  -24.5210  -31.1170   22.1670 N   0  0  0  0  0  0  0  0  0  0  0  0
  -23.4660  -32.2680   23.8150 O   0  0  0  0  0  0  0  0  0  0  0  0
  -22.5710  -29.5660   22.6930 C   0  0  0  0  0  0  0  0  0  0  0  0
  -21.2540  -29.3440   22.5560 N   0  0  0  0  0  0  0  0  0  0  0  0
  -23.2540  -29.0100   23.5570 O   0  0  0  0  0  0  0  0  0  0  0  0
  -20.7640  -29.8460   21.8280 H   0  0  0  0  0  0  0  0  0  0  0  0
  -17.9210  -28.0120   23.0050 C   0  0  0  0  0  0  0  0  0  0  0  0
  -20.4480  -28.4320   23.3670 C   0  0  0  0  0  3  0  0  0  0  0  0
  -20.6510  -26.9640   22.9220 C   0  0  0  0  0  2  0  0  0  0  0  0
  -19.6160  -26.4990   21.8930 C   0  0  0  0  0  2  0  0  0  0  0  0
  -18.1990  -26.6220   22.4570 C   0  0  0  0  0  2  0  0  0  0  0  0
  -18.9770  -28.8660   23.4170 C   0  0  0  0  0  0  0  0  0  0  0  0
  -18.6660  -30.1630   23.8860 C   0  0  0  0  0  3  0  0  0  0  0  0
  -17.3300  -30.6030   23.9520 C   0  0  0  0  0  3  0  0  0  0  0  0
  -16.2880  -29.7450   23.5560 C   0  0  0  0  0  3  0  0  0  0  0  0
  -16.5840  -28.4530   23.0860 C   0  0  0  0  0  3  0  0  0  0  0  0
  -25.8430  -32.5620   23.8030 C   0  0  0  0  0  3  0  0  0  0  0  0
  -25.5770  -33.9720   24.1230 N   0  0  0  0  0  0  0  0  0  0  0  0
  -25.8750  -35.0060   23.3250 C   0  0  0  0  0  0  0  0  0  0  0  0
  -26.4770  -34.8730   22.2560 O   0  0  0  0  0  0  0  0  0  0  0  0
  -25.0360  -34.1480   24.9570 H   0  0  0  0  0  0  0  0  0  0  0  0
  -24.1500  -36.8180   23.0530 C   0  0  0  0  0  1  0  0  0  0  0  0
  -25.4380  -36.4090   23.7860 C   0  0  0  0  0  3  0  0  0  0  0  0
  -27.6320  -37.2860   24.4590 C   0  0  0  0  0  1  0  0  0  0  0  0
  -26.4730  -37.4480   23.5830 N   0  0  0  0  0  0  0  0  0  0  0  0
  -26.0870  -38.3740   23.7400 H   0  0  0  0  0  0  0  0  0  0  0  0
  -26.3960  -31.7990   25.0700 C   0  0  1  0  0  0  0  0  0  0  0  0
  -25.3410  -31.5920   26.1810 C   0  0  0  0  0  1  0  0  0  0  0  0
  -26.9430  -30.4060   24.6780 C   0  0  0  0  0  1  0  0  0  0  0  0
  -27.5790  -32.5870   25.6780 C   0  0  0  0  0  1  0  0  0  0  0  0
  -29.6720  -20.2330   19.2830 O   0  0  0  0  0  0  0  0  0  0  0  0
  -30.6260  -14.7470   20.0580 C   0  0  0  0  0  0  0  0  0  0  0  0
  -30.4160  -12.4350   19.1600 C   0  0  0  0  0  2  0  0  0  0  0  0
  -29.4580  -12.4070   17.9560 C   0  0  0  0  0  2  0  0  0  0  0  0
  -28.0150  -12.1620   18.4380 C   0  0  0  0  0  2  0  0  0  0  0  0
  -27.6140  -13.0850   19.6200 C   0  0  0  0  0  3  0  0  0  0  0  0
  -28.7100  -13.1750   20.7070 C   0  0  0  0  0  2  0  0  0  0  0  0
  -29.9680  -13.5360   20.0430 N   0  0  0  0  0  0  0  0  0  0  0  0
  -31.8210  -14.7770   19.7540 O   0  0  0  0  0  0  0  0  0  0  0  0
  -28.8320  -17.9120   19.0000 C   0  0  0  0  0  2  0  0  0  0  0  0
  -29.9870  -18.4390   21.1310 C   0  0  0  0  0  2  0  0  0  0  0  0
  -28.7660  -16.4420   19.5800 C   0  0  0  0  0  2  0  0  0  0  0  0
  -30.7820  -17.1270   20.7660 C   0  0  0  0  0  2  0  0  0  0  0  0
  -29.1240  -19.0740   20.0020 C   0  0  0  0  0  3  0  0  0  0  0  0
  -29.9740  -15.9560   20.3080 N   0  0  0  0  0  0  0  0  0  0  0  0
  -25.2470  -13.5890   20.4500 C   0  0  0  0  0  0  0  0  0  0  0  0
  -24.2220  -12.7750   20.8470 C   0  0  0  0  0  0  0  0  0  0  0  0
  -24.7300  -11.4420   20.7840 C   0  0  0  0  0  0  0  0  0  0  0  0
  -26.3100  -12.7470   20.1680 N   0  0  0  0  0  0  0  0  0  0  0  0
  -26.0110  -11.4510   20.4320 N   0  0  0  0  0  0  0  0  0  0  0  0
  -24.0550  -10.1540   20.9790 C   0  0  0  0  0  0  0  0  0  0  0  0
  -24.4670   -9.2480   21.9810 C   0  0  0  0  0  3  0  0  0  0  0  0
  -23.7910   -8.0230   22.1580 C   0  0  0  0  0  3  0  0  0  0  0  0
  -22.6870   -7.6950   21.3350 C   0  0  0  0  0  0  0  0  0  0  0  0
  -22.2950   -8.5900   20.3250 C   0  0  0  0  0  3  0  0  0  0  0  0
  -22.9730   -9.8070   20.1450 C   0  0  0  0  0  3  0  0  0  0  0  0
  -21.9830   -6.5190   21.4240 O   0  0  0  0  0  0  0  0  0  0  0  0
  -21.8090   -5.8730   22.6230 C   0  0  0  0  0  0  0  0  0  0  0  0
  -21.1260   -6.4770   23.7020 C   0  0  0  0  0  3  0  0  0  0  0  0
  -20.9100   -5.7520   24.8910 C   0  0  0  0  0  3  0  0  0  0  0  0
  -21.3630   -4.4240   25.0000 C   0  0  0  0  0  0  0  0  0  0  0  0
  -22.0370   -3.8190   23.9230 C   0  0  0  0  0  3  0  0  0  0  0  0
  -22.2570   -4.5420   22.7370 C   0  0  0  0  0  0  0  0  0  0  0  0
  -22.8870   -3.9490   21.6960 F   0  0  0  0  0  0  0  0  0  0  0  0
  -21.1490   -3.7230   26.1380 F   0  0  0  0  0  0  0  0  0  0  0  0
  -22.8190  -13.2020   21.1680 C   0  0  0  0  0  0  0  0  0  0  0  0
  -22.1400  -12.4730   22.0450 N   0  0  0  0  0  0  0  0  0  0  0  0
  -22.3340  -14.2210   20.6770 O   0  0  0  0  0  0  0  0  0  0  0  0
  -22.5390  -11.6470   22.4660 H   0  0  0  0  0  0  0  0  0  0  0  0
  -21.2020  -12.7470   22.3040 H   0  0  0  0  0  0  0  0  0  0  0  0
  -25.3540  -14.9650   20.2780 N   0  0  0  0  0  0  0  0  0  0  0  0
  -24.5640  -15.5850   20.4200 H   0  0  0  0  0  0  0  0  0  0  0  0
  -26.1690  -15.4390   19.9130 H   0  0  0  0  0  0  0  0  0  0  0  0
  1  4  1  0
  2  5  2  0
  2  3  1  0
  3  1  2  0
  4  7  1  0
  5  6  1  0
  6  4  2  0
  8  6  1  0
  9  3  1  0
  9 10  1  0
 11 22  2  0
 12 10  1  0
 12 17  1  0
 13 21  1  0
 13 23  1  0
 14 20  1  0
 14 16  1  0
 15 21  1  0
 16 15  1  0
 17 16  2  0
 18 19  1  0
 18 12  2  0
 19 14  2  0
 20 13  1  0
 21 11  1  0
 23 25  2  0
 24 23  1  0
 26 24  1  0
 27 36  2  0
 27 32  1  0
 28 24  1  0
 28 32  1  0
 29 28  1  0
 30 31  1  0
 30 29  1  0
 31 27  1  0
 32 33  2  0
 33 34  1  0
 35 34  2  0
 36 35  1  0
 37 11  1  0
 37 38  1  0
 37 47  1  0
 38 41  1  0
 39 43  1  0
 39 38  1  0
 40 39  2  0
 43 42  1  0
 45 46  1  0
 45 43  1  0
 45 44  1  0
 47 50  1  1
 47 48  1  0
 49 47  1  0
 51  5  1  0
 52 65  1  0
 53 58  1  0
 54 55  1  0
 54 53  1  0
 56 55  1  0
 56 69  1  0
 56 57  1  0
 58 52  1  0
 58 57  1  0
 59 52  2  0
 60 62  1  0
 60 64  1  0
 62 65  1  0
 63 61  1  0
 64 51  1  0
 64 61  1  0
 65 63  1  0
 66 67  2  0
 67 86  1  0
 68 67  1  0
 68 71  1  0
 69 70  1  0
 69 66  1  0
 70 68  2  0
 71 72  1  0
 72 73  2  0
 74 77  1  0
 74 73  1  0
 75 74  2  0
 76 75  1  0
 76 71  2  0
 77 78  1  0
 78 83  2  0
 78 79  1  0
 79 80  2  0
 80 81  1  0
 81 85  1  0
 82 81  2  0
 83 82  1  0
 84 83  1  0
 86 87  1  0
 87 90  1  0
 87 89  1  0
 88 86  2  0
 91 92  1  0
 91 66  1  0
 93 91  1  0
M  ISO  4   9 101  10 101  52 100  65 100
M  END
>  <TORSDO>  (43) 
F 18

>  <SCORE>  (43) 
-13.021

>  <name>  (43) 
42

>  <ligand_id>  (43) 
42

>  <original_smiles>  (43) 
[H]c1c([H])c([H])c2c(c1[H])C([H])([H])C([H])([H])C([H])([H])C2([H])N([H])C(=O)C1([H])N(C(=O)C([H])(N([H])C(=O)C([H])(N([H])C([H])([H])[H])C([H])([H])[H])C(C([H])([H])[H])(C([H])([H])[H])C([H])([H])[H])C([H])([H])c2c([H])c(OC([H])([H])c3c([H])c(OC4([H])C([H])([H])C([H])([H])N(C(=O)N5C([H])([H])C([H])([H])C([H])([H])C([H])(n6nc(-c7c([H])c([H])c(Oc8c([H])c([H])c(F)c([H])c8F)c([H])c7[H])c(C(=O)N([H])[H])c6N([H])[H])C5([H])[H])C([H])([H])C4([H])[H])c(Cl)c(C([H])([H])[H])c3[H])c([H])c([H])c2C1([H])[H]

>  <smiles>  (43) 
[H]c1c([H])c([H])c2c(c1[H])C([H])([H])C([H])([H])C([H])([H])C2([H])N([H])C(=O)C1([H])N(C(=O)C([H])(N([H])C(=O)C([H])(N([H])C([H])([H])[H])C([H])([H])[H])C(C([H])([H])[H])(C([H])([H])[H])C([H])([H])[H])C([H])([H])c2c([H])c(OC([H])([H])c3c([H])c(OC4([H])C([H])([H])C([H])([H])N(C(=O)N5C([H])([H])C([H])([H])C([H])([H])C([H])(n6nc(-c7c([H])c([H])c(Oc8c([H])c([H])c(F)c([H])c8F)c([H])c7[H])c(C(=O)N([H])[H])c6N([H])[H])C5([H])[H])C([H])([H])C4([H])[H])c(Cl)c(C([H])([H])[H])c3[H])c([H])c([H])c2C1([H])[H]

$$$$
43:0:0
     RDKit          3D

 95104  0  0  1  0  0  0  0  0999 V2000
  -28.9750  -20.6850   20.2350 C   0  0  0  0  0  3  0  0  0  0  0  0
  -30.5450  -21.9040   21.6520 C   0  0  0  0  0  3  0  0  0  0  0  0
  -29.5400  -19.4690   20.6820 C   0  0  0  0  0  0  0  0  0  0  0  0
  -30.5630  -19.4620   21.6220 C   0  0  0  0  0  0  0  0  0  0  0  0
  -31.0900  -20.6750   22.1150 C   0  0  0  0  0  0  0  0  0  0  0  0
  -29.4760  -21.9230   20.7120 C   0  0  0  0  0  0  0  0  0  0  0  0
  -30.9850  -18.0420   21.9580 C   0  0  0  0  0  2  0  0  0  0  0  0
  -29.1860  -18.0560   20.2390 C   0  0  0  0  0  3  0  0  0  0  0  0
  -30.3650  -17.1930   20.8150 C   0  0  0  0  0  3  0  0  0  0  0  0
  -32.2390  -20.6690   23.1060 C   0  0  0  0  0  1  0  0  0  0  0  0
  -30.8090  -14.7180   20.9340 C   0  0  0  0  0  0  0  0  0  0  0  0
  -30.6530  -12.4680   19.9400 C   0  0  0  0  0  2  0  0  0  0  0  0
  -29.8090  -12.5620   18.6510 C   0  0  0  0  0  2  0  0  0  0  0  0
  -28.3070  -12.4240   18.9670 C   0  0  0  0  0  2  0  0  0  0  0  0
  -27.8500  -13.3190   20.1500 C   0  0  0  0  0  3  0  0  0  0  0  0
  -28.8210  -13.2130   21.3490 C   0  0  0  0  0  2  0  0  0  0  0  0
  -30.1750  -13.5140   20.8600 N   0  0  0  0  0  0  0  0  0  0  0  0
  -31.9860  -14.8650   20.6020 O   0  0  0  0  0  0  0  0  0  0  0  0
  -30.0210  -15.7900   21.1660 N   0  0  0  0  0  0  0  0  0  0  0  0
  -29.0630  -15.6010   21.4150 H   0  0  0  0  0  0  0  0  0  0  0  0
  -25.4020  -13.9170   20.6680 C   0  0  0  0  0  0  0  0  0  0  0  0
  -24.3150  -13.1400   20.9690 C   0  0  0  0  0  0  0  0  0  0  0  0
  -24.7880  -11.7930   20.9970 C   0  0  0  0  0  0  0  0  0  0  0  0
  -26.4680  -13.0410   20.5340 N   0  0  0  0  0  0  0  0  0  0  0  0
  -26.0990  -11.7600   20.7870 N   0  0  0  0  0  0  0  0  0  0  0  0
  -24.0600  -10.5280   21.1530 C   0  0  0  0  0  0  0  0  0  0  0  0
  -24.4380   -9.5750   22.1250 C   0  0  0  0  0  3  0  0  0  0  0  0
  -23.7120   -8.3730   22.2700 C   0  0  0  0  0  3  0  0  0  0  0  0
  -22.5940   -8.1160   21.4400 C   0  0  0  0  0  0  0  0  0  0  0  0
  -22.2360   -9.0580   20.4590 C   0  0  0  0  0  3  0  0  0  0  0  0
  -22.9640  -10.2510   20.3130 C   0  0  0  0  0  3  0  0  0  0  0  0
  -21.8440   -6.9660   21.4920 O   0  0  0  0  0  0  0  0  0  0  0  0
  -21.7250   -6.2340   22.6480 C   0  0  0  0  0  0  0  0  0  0  0  0
  -21.1660   -6.7840   23.8220 C   0  0  0  0  0  3  0  0  0  0  0  0
  -20.9990   -5.9770   24.9660 C   0  0  0  0  0  3  0  0  0  0  0  0
  -21.3810   -4.6220   24.9350 C   0  0  0  0  0  0  0  0  0  0  0  0
  -21.9330   -4.0720   23.7640 C   0  0  0  0  0  3  0  0  0  0  0  0
  -22.1020   -4.8760   22.6240 C   0  0  0  0  0  0  0  0  0  0  0  0
  -22.6150   -4.3370   21.4920 F   0  0  0  0  0  0  0  0  0  0  0  0
  -21.2150   -3.8450   26.0300 F   0  0  0  0  0  0  0  0  0  0  0  0
  -22.8980  -13.6090   21.1280 C   0  0  0  0  0  0  0  0  0  0  0  0
  -22.1090  -12.9160   21.9410 N   0  0  0  0  0  0  0  0  0  0  0  0
  -22.4950  -14.6280   20.5670 O   0  0  0  0  0  0  0  0  0  0  0  0
  -22.4440  -12.0930   22.4160 H   0  0  0  0  0  0  0  0  0  0  0  0
  -21.1550  -13.2140   22.0870 H   0  0  0  0  0  0  0  0  0  0  0  0
  -25.5670  -15.2860   20.4790 N   0  0  0  0  0  0  0  0  0  0  0  0
  -24.7790  -15.9240   20.5040 H   0  0  0  0  0  0  0  0  0  0  0  0
  -26.4300  -15.7300   20.1990 H   0  0  0  0  0  0  0  0  0  0  0  0
  -30.1420  -18.2550   17.8160 C   0  0  0  0  0  1  0  0  0  0  0  0
  -28.2890  -16.6040   18.3120 C   0  0  0  0  0  1  0  0  0  0  0  0
  -28.9260  -17.9400   18.7080 C   0  0  0  0  0  3  0  0  0  0  0  0
  -28.8800  -23.0720   20.2140 O   0  0  0  0  0  0  0  0  0  0  0  0
  -29.3070  -24.3880   20.6110 C   0  0  0  0  0  2  0  0  0  0  0  0
  -28.2490  -25.3810   20.0610 C   0  0  0  0  0  2  0  0  0  0  0  0
  -28.4130  -26.7980   20.3370 O   0  0  0  0  0  0  0  0  0  0  0  0
  -24.5850  -31.9870   23.4140 C   0  0  0  0  0  0  0  0  0  0  0  0
  -27.2600  -27.5760   20.2820 C   0  0  0  0  0  0  0  0  0  0  0  0
  -23.3960  -30.6080   21.7450 C   0  0  0  0  0  3  0  0  0  0  0  0
  -24.8630  -29.1060   20.3000 C   0  0  0  0  0  0  0  0  0  0  0  0
  -25.9250  -30.9720   21.5710 C   0  0  0  0  0  2  0  0  0  0  0  0
  -26.0200  -29.6110   20.9060 C   0  0  0  0  0  0  0  0  0  0  0  0
  -27.2200  -28.8540   20.8960 C   0  0  0  0  0  3  0  0  0  0  0  0
  -26.0820  -27.1150   19.6410 C   0  0  0  0  0  3  0  0  0  0  0  0
  -24.8910  -27.8580   19.6620 C   0  0  0  0  0  3  0  0  0  0  0  0
  -23.6160  -29.9570   20.3550 C   0  0  0  0  0  2  0  0  0  0  0  0
  -24.6530  -31.2030   22.3010 N   0  0  0  0  0  0  0  0  0  0  0  0
  -23.4990  -32.2450   23.9530 O   0  0  0  0  0  0  0  0  0  0  0  0
  -22.7440  -29.5650   22.6840 C   0  0  0  0  0  0  0  0  0  0  0  0
  -21.4250  -29.3600   22.5310 N   0  0  0  0  0  0  0  0  0  0  0  0
  -23.4230  -28.9460   23.5070 O   0  0  0  0  0  0  0  0  0  0  0  0
  -20.9360  -29.9170   21.8430 H   0  0  0  0  0  0  0  0  0  0  0  0
  -18.0660  -28.0940   22.9400 C   0  0  0  0  0  0  0  0  0  0  0  0
  -20.6100  -28.4040   23.2790 C   0  0  0  0  0  3  0  0  0  0  0  0
  -20.7560  -26.9750   22.7050 C   0  0  0  0  0  2  0  0  0  0  0  0
  -19.6890  -26.6340   21.6600 C   0  0  0  0  0  2  0  0  0  0  0  0
  -18.2880  -26.7500   22.2660 C   0  0  0  0  0  2  0  0  0  0  0  0
  -19.1570  -28.8780   23.4000 C   0  0  0  0  0  0  0  0  0  0  0  0
  -18.8970  -30.1350   23.9860 C   0  0  0  0  0  3  0  0  0  0  0  0
  -17.5780  -30.6080   24.1210 C   0  0  0  0  0  3  0  0  0  0  0  0
  -16.5010  -29.8210   23.6790 C   0  0  0  0  0  3  0  0  0  0  0  0
  -16.7460  -28.5670   23.0930 C   0  0  0  0  0  3  0  0  0  0  0  0
  -25.8640  -32.6160   24.0480 C   0  0  0  0  0  3  0  0  0  0  0  0
  -26.3640  -31.8450   25.3310 C   0  0  1  0  0  0  0  0  0  0  0  0
  -25.2540  -31.5970   26.3800 C   0  0  0  0  0  1  0  0  0  0  0  0
  -26.9620  -30.4710   24.9460 C   0  0  0  0  0  1  0  0  0  0  0  0
  -27.4960  -32.6450   26.0170 C   0  0  0  0  0  1  0  0  0  0  0  0
  -25.5560  -34.0150   24.3700 N   0  0  0  0  0  0  0  0  0  0  0  0
  -25.9060  -35.0660   23.6150 C   0  0  0  0  0  0  0  0  0  0  0  0
  -26.5960  -34.9580   22.5960 O   0  0  0  0  0  0  0  0  0  0  0  0
  -24.9450  -34.1730   25.1580 H   0  0  0  0  0  0  0  0  0  0  0  0
  -24.2060  -36.8740   23.2090 C   0  0  0  0  0  1  0  0  0  0  0  0
  -25.4150  -36.4560   24.0610 C   0  0  0  0  0  3  0  0  0  0  0  0
  -27.5220  -37.3270   24.9730 C   0  0  0  0  0  1  0  0  0  0  0  0
  -26.4580  -37.5020   23.9870 N   0  0  0  0  0  0  0  0  0  0  0  0
  -26.0530  -38.4240   24.1190 H   0  0  0  0  0  0  0  0  0  0  0  0
  1  3  2  0
  1  6  1  0
  2  5  1  0
  3  4  1  0
  4  7  1  0
  4  5  2  0
  5 10  1  0
  6  2  2  0
  8 51  1  0
  8  3  1  0
  8  9  1  0
  9 19  1  0
  9  7  1  0
 11 19  1  0
 12 17  1  0
 13 14  1  0
 13 12  1  0
 15 14  1  0
 15 24  1  0
 15 16  1  0
 17 11  1  0
 17 16  1  0
 18 11  2  0
 19 20  1  0
 21 22  2  0
 22 23  1  0
 22 41  1  0
 23 26  1  0
 24 21  1  0
 24 25  1  0
 25 23  2  0
 26 27  1  0
 27 28  2  0
 29 32  1  0
 29 28  1  0
 30 29  2  0
 31 30  1  0
 31 26  2  0
 32 33  1  0
 33 34  1  0
 34 35  2  0
 36 35  1  0
 36 40  1  0
 37 36  2  0
 38 33  2  0
 38 37  1  0
 39 38  1  0
 41 42  1  0
 42 45  1  0
 42 44  1  0
 43 41  2  0
 46 47  1  0
 46 21  1  0
 48 46  1  0
 49 51  1  0
 50 51  1  0
 52 53  1  0
 52  6  1  0
 54 55  1  0
 54 53  1  0
 56 67  2  0
 57 55  1  0
 57 62  1  0
 58 66  1  0
 58 68  1  0
 59 65  1  0
 59 61  1  0
 60 66  1  0
 61 60  1  0
 62 61  2  0
 63 64  1  0
 63 57  2  0
 64 59  2  0
 65 58  1  0
 66 56  1  0
 68 70  2  0
 69 68  1  0
 71 69  1  0
 72 81  2  0
 72 77  1  0
 73 69  1  0
 73 77  1  0
 74 73  1  0
 75 76  1  0
 75 74  1  0
 76 72  1  0
 77 78  2  0
 78 79  1  0
 80 79  2  0
 81 80  1  0
 82 56  1  0
 82 87  1  0
 82 83  1  0
 83 86  1  1
 83 84  1  0
 85 83  1  0
 87 90  1  0
 88 92  1  0
 88 87  1  0
 89 88  2  0
 92 91  1  0
 94 92  1  0
 94 95  1  0
 94 93  1  0
M  ISO  4  11 100  19 100  54 101  55 101
M  END
>  <TORSDO>  (44) 
F 20

>  <SCORE>  (44) 
-13.843

>  <name>  (44) 
43

>  <ligand_id>  (44) 
43

>  <original_smiles>  (44) 
[H]c1c([H])c([H])c2c(c1[H])C([H])([H])C([H])([H])C([H])([H])C2([H])N([H])C(=O)C1([H])N(C(=O)C([H])(N([H])C(=O)C([H])(N([H])C([H])([H])[H])C([H])([H])[H])C(C([H])([H])[H])(C([H])([H])[H])C([H])([H])[H])C([H])([H])c2c([H])c(OC([H])([H])C([H])([H])Oc3c([H])c(C([H])([H])[H])c4c(c3[H])C([H])(C([H])(C([H])([H])[H])C([H])([H])[H])C([H])(N([H])C(=O)N3C([H])([H])C([H])([H])C([H])([H])C([H])(n5nc(-c6c([H])c([H])c(Oc7c([H])c([H])c(F)c([H])c7F)c([H])c6[H])c(C(=O)N([H])[H])c5N([H])[H])C3([H])[H])C4([H])[H])c([H])c([H])c2C1([H])[H]

>  <smiles>  (44) 
[H]c1c([H])c([H])c2c(c1[H])C([H])([H])C([H])([H])C([H])([H])C2([H])N([H])C(=O)C1([H])N(C(=O)C([H])(N([H])C(=O)C([H])(N([H])C([H])([H])[H])C([H])([H])[H])C(C([H])([H])[H])(C([H])([H])[H])C([H])([H])[H])C([H])([H])c2c([H])c(OC([H])([H])C([H])([H])Oc3c([H])c(C([H])([H])[H])c4c(c3[H])C([H])(C([H])(C([H])([H])[H])C([H])([H])[H])C([H])(N([H])C(=O)N3C([H])([H])C([H])([H])C([H])([H])C([H])(n5nc(-c6c([H])c([H])c(Oc7c([H])c([H])c(F)c([H])c7F)c([H])c6[H])c(C(=O)N([H])[H])c5N([H])[H])C3([H])[H])C4([H])[H])c([H])c([H])c2C1([H])[H]

$$$$
44:0:0
     RDKit          3D

 96105  0  0  1  0  0  0  0  0999 V2000
  -28.7730  -22.6200   18.9970 C   0  0  0  0  0  3  0  0  0  0  0  0
  -29.6690  -23.3820   21.0780 C   0  0  0  0  0  3  0  0  0  0  0  0
  -29.2980  -21.2960   19.1870 C   0  0  0  0  0  0  0  0  0  0  0  0
  -28.9210  -23.6950   19.9220 C   0  0  0  0  0  0  0  0  0  0  0  0
  -30.2230  -22.0760   21.2900 C   0  0  0  0  0  0  0  0  0  0  0  0
  -30.0290  -20.9840   20.3810 C   0  0  0  0  0  0  0  0  0  0  0  0
  -27.8740  -19.2750   16.5740 C   0  0  0  0  0  2  0  0  0  0  0  0
  -27.8950  -19.2680   18.1010 C   0  0  0  0  0  2  0  0  0  0  0  0
  -28.6130  -20.6150   16.6360 C   0  0  0  0  0  2  0  0  0  0  0  0
  -29.0850  -20.2560   18.0670 C   0  0  0  0  0  3  0  0  0  0  0  0
  -31.0130  -21.8520   22.5710 C   0  0  0  0  0  2  0  0  0  0  0  0
  -30.8390  -21.5990   25.1090 C   0  0  0  0  0  1  0  0  0  0  0  0
  -30.0970  -21.5470   23.7670 C   0  0  0  0  0  2  0  0  0  0  0  0
  -28.0360  -24.9950   19.7350 C   0  0  0  0  0  2  0  0  0  0  0  0
  -28.3740  -26.3950   20.1350 O   0  0  0  0  0  0  0  0  0  0  0  0
  -24.6680  -31.8430   23.2380 C   0  0  0  0  0  0  0  0  0  0  0  0
  -27.2980  -27.3200   20.0790 C   0  0  0  0  0  0  0  0  0  0  0  0
  -23.4810  -30.4840   21.5590 C   0  0  0  0  0  3  0  0  0  0  0  0
  -24.9460  -28.9810   20.1020 C   0  0  0  0  0  0  0  0  0  0  0  0
  -26.0330  -30.7870   21.4180 C   0  0  0  0  0  2  0  0  0  0  0  0
  -26.1160  -29.4270   20.7290 C   0  0  0  0  0  0  0  0  0  0  0  0
  -27.2940  -28.6080   20.7120 C   0  0  0  0  0  3  0  0  0  0  0  0
  -26.1010  -26.9640   19.4060 C   0  0  0  0  0  3  0  0  0  0  0  0
  -24.9460  -27.7550   19.4310 C   0  0  0  0  0  3  0  0  0  0  0  0
  -23.7070  -29.8500   20.1650 C   0  0  0  0  0  2  0  0  0  0  0  0
  -24.7450  -31.0570   22.1250 N   0  0  0  0  0  0  0  0  0  0  0  0
  -23.5790  -32.1130   23.7650 O   0  0  0  0  0  0  0  0  0  0  0  0
  -22.8120  -29.4400   22.4870 C   0  0  0  0  0  0  0  0  0  0  0  0
  -21.4830  -29.2840   22.3650 N   0  0  0  0  0  0  0  0  0  0  0  0
  -23.4900  -28.7740   23.2730 O   0  0  0  0  0  0  0  0  0  0  0  0
  -20.9970  -29.8790   21.7080 H   0  0  0  0  0  0  0  0  0  0  0  0
  -18.0890  -28.1310   22.8640 C   0  0  0  0  0  0  0  0  0  0  0  0
  -20.6570  -28.3300   23.1080 C   0  0  0  0  0  3  0  0  0  0  0  0
  -20.7220  -26.9190   22.4770 C   0  0  0  0  0  2  0  0  0  0  0  0
  -19.6000  -26.6530   21.4690 C   0  0  0  0  0  2  0  0  0  0  0  0
  -18.2280  -26.8050   22.1330 C   0  0  0  0  0  2  0  0  0  0  0  0
  -19.2290  -28.8550   23.3060 C   0  0  0  0  0  0  0  0  0  0  0  0
  -19.0450  -30.1000   23.9450 C   0  0  0  0  0  3  0  0  0  0  0  0
  -17.7520  -30.6200   24.1460 C   0  0  0  0  0  3  0  0  0  0  0  0
  -16.6290  -29.8900   23.7240 C   0  0  0  0  0  3  0  0  0  0  0  0
  -16.7960  -28.6460   23.0900 C   0  0  0  0  0  3  0  0  0  0  0  0
  -25.9440  -32.4650   23.8830 C   0  0  0  0  0  3  0  0  0  0  0  0
  -25.6390  -33.8610   24.2200 N   0  0  0  0  0  0  0  0  0  0  0  0
  -25.9520  -34.9170   23.4560 C   0  0  0  0  0  0  0  0  0  0  0  0
  -26.5960  -34.8170   22.4090 O   0  0  0  0  0  0  0  0  0  0  0  0
  -25.0770  -34.0180   25.0440 H   0  0  0  0  0  0  0  0  0  0  0  0
  -24.1950  -36.6920   23.1620 C   0  0  0  0  0  1  0  0  0  0  0  0
  -25.4710  -36.3030   23.9280 C   0  0  0  0  0  3  0  0  0  0  0  0
  -27.6270  -37.2090   24.6750 C   0  0  0  0  0  1  0  0  0  0  0  0
  -26.4880  -37.3640   23.7720 N   0  0  0  0  0  0  0  0  0  0  0  0
  -26.0800  -38.2810   23.9320 H   0  0  0  0  0  0  0  0  0  0  0  0
  -26.4380  -31.6840   25.1600 C   0  0  1  0  0  0  0  0  0  0  0  0
  -25.3300  -31.4410   26.2100 C   0  0  0  0  0  1  0  0  0  0  0  0
  -27.0230  -30.3060   24.7710 C   0  0  0  0  0  1  0  0  0  0  0  0
  -27.5800  -32.4730   25.8460 C   0  0  0  0  0  1  0  0  0  0  0  0
  -30.6440  -19.7490   20.7130 O   0  0  0  0  0  0  0  0  0  0  0  0
  -30.1040  -18.4200   20.4170 C   0  0  0  0  0  3  0  0  0  0  0  0
  -30.7850  -17.2140   21.1990 C   0  0  0  0  0  3  0  0  0  0  0  0
  -31.0440  -14.7030   20.6530 C   0  0  0  0  0  0  0  0  0  0  0  0
  -30.8410  -12.4020   19.7250 C   0  0  0  0  0  2  0  0  0  0  0  0
  -29.9720  -12.4320   18.4490 C   0  0  0  0  0  2  0  0  0  0  0  0
  -28.4780  -12.3180   18.8050 C   0  0  0  0  0  2  0  0  0  0  0  0
  -28.0590  -13.2860   19.9420 C   0  0  0  0  0  3  0  0  0  0  0  0
  -29.0470  -13.2260   21.1270 C   0  0  0  0  0  2  0  0  0  0  0  0
  -30.3870  -13.5040   20.5950 N   0  0  0  0  0  0  0  0  0  0  0  0
  -32.2300  -14.8050   20.3350 O   0  0  0  0  0  0  0  0  0  0  0  0
  -30.2980  -15.8130   20.9210 N   0  0  0  0  0  0  0  0  0  0  0  0
  -29.3070  -15.6520   21.0210 H   0  0  0  0  0  0  0  0  0  0  0  0
  -25.6490  -13.9610   20.5200 C   0  0  0  0  0  0  0  0  0  0  0  0
  -24.5440  -13.2250   20.8440 C   0  0  0  0  0  0  0  0  0  0  0  0
  -24.9710  -11.8610   20.8640 C   0  0  0  0  0  0  0  0  0  0  0  0
  -26.6810  -13.0520   20.3610 N   0  0  0  0  0  0  0  0  0  0  0  0
  -26.2750  -11.7830   20.6270 N   0  0  0  0  0  0  0  0  0  0  0  0
  -24.2000  -10.6240   21.0380 C   0  0  0  0  0  0  0  0  0  0  0  0
  -24.5620   -9.6600   22.0040 C   0  0  0  0  0  3  0  0  0  0  0  0
  -23.7970   -8.4850   22.1650 C   0  0  0  0  0  3  0  0  0  0  0  0
  -22.6540   -8.2670   21.3570 C   0  0  0  0  0  0  0  0  0  0  0  0
  -22.3130   -9.2190   20.3800 C   0  0  0  0  0  3  0  0  0  0  0  0
  -23.0790  -10.3840   20.2190 C   0  0  0  0  0  3  0  0  0  0  0  0
  -21.8630   -7.1440   21.4240 O   0  0  0  0  0  0  0  0  0  0  0  0
  -21.7150   -6.4390   22.5920 C   0  0  0  0  0  0  0  0  0  0  0  0
  -21.2090   -7.0370   23.7650 C   0  0  0  0  0  3  0  0  0  0  0  0
  -21.0050   -6.2590   24.9220 C   0  0  0  0  0  3  0  0  0  0  0  0
  -21.3000   -4.8840   24.9060 C   0  0  0  0  0  0  0  0  0  0  0  0
  -21.8000   -4.2840   23.7370 C   0  0  0  0  0  3  0  0  0  0  0  0
  -22.0050   -5.0590   22.5820 C   0  0  0  0  0  0  0  0  0  0  0  0
  -22.4680   -4.4750   21.4520 F   0  0  0  0  0  0  0  0  0  0  0  0
  -21.0980   -4.1320   26.0150 F   0  0  0  0  0  0  0  0  0  0  0  0
  -23.1480  -13.7440   21.0330 C   0  0  0  0  0  0  0  0  0  0  0  0
  -22.3680  -13.1000   21.8920 N   0  0  0  0  0  0  0  0  0  0  0  0
  -22.7620  -14.7610   20.4560 O   0  0  0  0  0  0  0  0  0  0  0  0
  -22.6920  -12.2740   22.3750 H   0  0  0  0  0  0  0  0  0  0  0  0
  -21.4360  -13.4410   22.0770 H   0  0  0  0  0  0  0  0  0  0  0  0
  -25.8570  -15.3240   20.3310 N   0  0  0  0  0  0  0  0  0  0  0  0
  -25.1000  -15.9940   20.4050 H   0  0  0  0  0  0  0  0  0  0  0  0
  -26.7230  -15.7460   20.0270 H   0  0  0  0  0  0  0  0  0  0  0  0
  1  3  2  0
  1  4  1  0
  2  5  1  0
  3  6  1  0
  4  2  2  0
  5 11  1  0
  6 56  1  0
  6  5  2  0
  7  9  1  0
  7  8  1  0
  9 10  1  0
 10  8  1  0
 10  3  1  0
 11 13  1  0
 13 12  1  0
 14  4  1  0
 14 15  1  0
 16 27  2  0
 17 15  1  0
 17 22  1  0
 18 26  1  0
 18 28  1  0
 19 25  1  0
 19 21  1  0
 20 26  1  0
 21 20  1  0
 22 21  2  0
 23 24  1  0
 23 17  2  0
 24 19  2  0
 25 18  1  0
 26 16  1  0
 28 30  2  0
 29 28  1  0
 31 29  1  0
 32 41  2  0
 32 37  1  0
 33 29  1  0
 33 37  1  0
 34 33  1  0
 35 36  1  0
 35 34  1  0
 36 32  1  0
 37 38  2  0
 38 39  1  0
 40 39  2  0
 41 40  1  0
 42 16  1  0
 42 43  1  0
 42 52  1  0
 43 46  1  0
 44 48  1  0
 44 43  1  0
 45 44  2  0
 48 47  1  0
 50 48  1  0
 50 51  1  0
 50 49  1  0
 52 55  1  1
 52 53  1  0
 54 52  1  0
 57 56  1  0
 57 58  2  0
 59 67  1  0
 60 65  1  0
 61 62  1  0
 61 60  1  0
 63 62  1  0
 63 72  1  0
 63 64  1  0
 65 59  1  0
 65 64  1  0
 66 59  2  0
 67 68  1  0
 67 58  1  0
 69 70  2  0
 70 71  1  0
 70 89  1  0
 71 74  1  0
 72 69  1  0
 72 73  1  0
 73 71  2  0
 74 75  1  0
 75 76  2  0
 77 80  1  0
 77 76  1  0
 78 77  2  0
 79 78  1  0
 79 74  2  0
 80 81  1  0
 81 82  1  0
 82 83  2  0
 84 83  1  0
 84 88  1  0
 85 84  2  0
 86 81  2  0
 86 85  1  0
 87 86  1  0
 89 90  1  0
 90 93  1  0
 90 92  1  0
 91 89  2  0
 94 95  1  0
 94 69  1  0
 96 94  1  0
M  ISO  4  14 101  15 101  59 100  67 100
M  END
>  <TORSDO>  (45) 
F 23

>  <SCORE>  (45) 
-13.095

>  <name>  (45) 
44

>  <ligand_id>  (45) 
44

>  <original_smiles>  (45) 
[H]c1c([H])c([H])c2c(c1[H])C([H])([H])C([H])([H])C([H])([H])C2([H])N([H])C(=O)C1([H])N(C(=O)C([H])(N([H])C(=O)C([H])(N([H])C([H])([H])[H])C([H])([H])[H])C(C([H])([H])[H])(C([H])([H])[H])C([H])([H])[H])C([H])([H])c2c([H])c(OC([H])([H])c3c([H])c(C([H])([H])C([H])([H])C([H])([H])[H])c(OC([H])([H])C([H])([H])N([H])C(=O)N4C([H])([H])C([H])([H])C([H])([H])C([H])(n5nc(-c6c([H])c([H])c(Oc7c([H])c([H])c(F)c([H])c7F)c([H])c6[H])c(C(=O)N([H])[H])c5N([H])[H])C4([H])[H])c(C4([H])C([H])([H])C([H])([H])C4([H])[H])c3[H])c([H])c([H])c2C1([H])[H]

>  <smiles>  (45) 
[H]c1c([H])c([H])c2c(c1[H])C([H])([H])C([H])([H])C([H])([H])C2([H])N([H])C(=O)C1([H])N(C(=O)C([H])(N([H])C(=O)C([H])(N([H])C([H])([H])[H])C([H])([H])[H])C(C([H])([H])[H])(C([H])([H])[H])C([H])([H])[H])C([H])([H])c2c([H])c(OC([H])([H])c3c([H])c(C([H])([H])C([H])([H])C([H])([H])[H])c(OC([H])([H])C([H])([H])N([H])C(=O)N4C([H])([H])C([H])([H])C([H])([H])C([H])(n5nc(-c6c([H])c([H])c(Oc7c([H])c([H])c(F)c([H])c7F)c([H])c6[H])c(C(=O)N([H])[H])c5N([H])[H])C4([H])[H])c(C4([H])C([H])([H])C([H])([H])C4([H])[H])c3[H])c([H])c([H])c2C1([H])[H]

$$$$
45:0:0
     RDKit          3D

 97106  0  0  1  0  0  0  0  0999 V2000
  -28.0850  -23.1400   18.8210 C   0  0  0  0  0  3  0  0  0  0  0  0
  -30.0220  -22.2700   20.6290 C   0  0  0  0  0  3  0  0  0  0  0  0
  -28.7920  -24.1210   19.5570 C   0  0  0  0  0  0  0  0  0  0  0  0
  -28.3650  -21.7510   18.9370 C   0  0  0  0  0  0  0  0  0  0  0  0
  -29.7570  -23.6600   20.4900 C   0  0  0  0  0  0  0  0  0  0  0  0
  -29.3560  -21.2900   19.8430 C   0  0  0  0  0  0  0  0  0  0  0  0
  -30.5600  -24.6510   21.3140 C   0  0  0  0  0  1  0  0  0  0  0  0
  -26.0770  -20.8890   18.3080 C   0  0  0  0  0  1  0  0  0  0  0  0
  -27.5870  -20.7570   18.0680 C   0  0  0  0  0  3  0  0  0  0  0  0
  -29.4110  -20.5990   16.2530 C   0  0  0  0  0  1  0  0  0  0  0  0
  -27.9300  -20.8580   16.5650 C   0  0  0  0  0  2  0  0  0  0  0  0
  -28.6230  -25.6150   19.1700 C   0  0  0  0  0  2  0  0  0  0  0  0
  -28.3230  -26.5770   20.2130 O   0  0  0  0  0  0  0  0  0  0  0  0
  -24.5590  -31.8790   23.1900 C   0  0  0  0  0  0  0  0  0  0  0  0
  -27.1600  -27.3380   20.1590 C   0  0  0  0  0  0  0  0  0  0  0  0
  -23.3480  -30.4840   21.5470 C   0  0  0  0  0  3  0  0  0  0  0  0
  -24.7910  -28.9110   20.1440 C   0  0  0  0  0  0  0  0  0  0  0  0
  -25.8850  -30.7900   21.3750 C   0  0  0  0  0  2  0  0  0  0  0  0
  -25.9530  -29.4110   20.7420 C   0  0  0  0  0  0  0  0  0  0  0  0
  -27.1370  -28.6300   20.7500 C   0  0  0  0  0  3  0  0  0  0  0  0
  -25.9680  -26.8570   19.5730 C   0  0  0  0  0  3  0  0  0  0  0  0
  -24.7940  -27.6330   19.5590 C   0  0  0  0  0  3  0  0  0  0  0  0
  -23.5610  -29.7930   20.1740 C   0  0  0  0  0  2  0  0  0  0  0  0
  -24.6160  -31.0670   22.0950 N   0  0  0  0  0  0  0  0  0  0  0  0
  -23.4760  -32.1720   23.7170 O   0  0  0  0  0  0  0  0  0  0  0  0
  -22.6700  -29.4810   22.5080 C   0  0  0  0  0  0  0  0  0  0  0  0
  -21.3440  -29.3170   22.3660 N   0  0  0  0  0  0  0  0  0  0  0  0
  -23.3340  -28.8530   23.3360 O   0  0  0  0  0  0  0  0  0  0  0  0
  -20.8690  -29.8760   21.6710 H   0  0  0  0  0  0  0  0  0  0  0  0
  -17.9490  -28.1700   22.8360 C   0  0  0  0  0  0  0  0  0  0  0  0
  -20.5060  -28.3970   23.1360 C   0  0  0  0  0  3  0  0  0  0  0  0
  -20.5970  -26.9600   22.5730 C   0  0  0  0  0  2  0  0  0  0  0  0
  -19.5020  -26.6420   21.5480 C   0  0  0  0  0  2  0  0  0  0  0  0
  -18.1150  -26.8120   22.1750 C   0  0  0  0  0  2  0  0  0  0  0  0
  -19.0720  -28.9200   23.2720 C   0  0  0  0  0  0  0  0  0  0  0  0
  -18.8630  -30.1920   23.8490 C   0  0  0  0  0  3  0  0  0  0  0  0
  -17.5640  -30.7130   23.9950 C   0  0  0  0  0  3  0  0  0  0  0  0
  -16.4540  -29.9590   23.5730 C   0  0  0  0  0  3  0  0  0  0  0  0
  -16.6480  -28.6890   23.0000 C   0  0  0  0  0  3  0  0  0  0  0  0
  -25.8480  -32.4950   23.8180 C   0  0  0  0  0  3  0  0  0  0  0  0
  -25.5480  -33.8910   24.1620 N   0  0  0  0  0  0  0  0  0  0  0  0
  -25.8820  -34.9490   23.4090 C   0  0  0  0  0  0  0  0  0  0  0  0
  -26.5450  -34.8500   22.3730 O   0  0  0  0  0  0  0  0  0  0  0  0
  -24.9580  -34.0420   24.9680 H   0  0  0  0  0  0  0  0  0  0  0  0
  -24.1660  -36.7560   23.0740 C   0  0  0  0  0  1  0  0  0  0  0  0
  -25.4040  -36.3350   23.8820 C   0  0  0  0  0  3  0  0  0  0  0  0
  -27.5410  -37.1990   24.7260 C   0  0  0  0  0  1  0  0  0  0  0  0
  -26.4440  -37.3820   23.7800 N   0  0  0  0  0  0  0  0  0  0  0  0
  -26.0440  -38.3030   23.9340 H   0  0  0  0  0  0  0  0  0  0  0  0
  -26.3600  -31.7060   25.0850 C   0  0  1  0  0  0  0  0  0  0  0  0
  -25.2640  -31.4590   26.1490 C   0  0  0  0  0  1  0  0  0  0  0  0
  -26.9400  -30.3320   24.6770 C   0  0  0  0  0  1  0  0  0  0  0  0
  -27.5130  -32.4870   25.7580 C   0  0  0  0  0  1  0  0  0  0  0  0
  -29.6900  -19.9340   19.8610 O   0  0  0  0  0  0  0  0  0  0  0  0
  -29.9310  -19.2880   21.1220 C   0  0  0  0  0  2  0  0  0  0  0  0
  -30.6940  -14.4180   19.9610 C   0  0  0  0  0  0  0  0  0  0  0  0
  -30.2850  -12.3200   18.6990 C   0  0  0  0  0  2  0  0  0  0  0  0
  -29.2610  -12.5670   17.5730 C   0  0  0  0  0  2  0  0  0  0  0  0
  -27.8210  -12.4110   18.0980 C   0  0  0  0  0  2  0  0  0  0  0  0
  -27.5800  -13.2040   19.4100 C   0  0  0  0  0  3  0  0  0  0  0  0
  -28.7020  -12.9270   20.4340 C   0  0  0  0  0  2  0  0  0  0  0  0
  -29.9930  -13.2550   19.8010 N   0  0  0  0  0  0  0  0  0  0  0  0
  -31.6870  -14.6890   19.2770 O   0  0  0  0  0  0  0  0  0  0  0  0
  -31.6090  -16.1180   22.6920 C   0  0  0  0  0  2  0  0  0  0  0  0
  -31.0980  -17.5510   22.5150 C   0  0  0  0  0  2  0  0  0  0  0  0
  -30.5230  -15.1190   22.2770 C   0  0  0  0  0  2  0  0  0  0  0  0
  -29.7130  -16.6870   20.5380 C   0  0  0  0  0  2  0  0  0  0  0  0
  -30.6040  -17.8620   21.0830 C   0  0  0  0  0  3  0  0  0  0  0  0
  -30.1950  -15.3100   20.8610 N   0  0  0  0  0  0  0  0  0  0  0  0
  -25.2320  -13.8060   20.2720 C   0  0  0  0  0  0  0  0  0  0  0  0
  -24.1860  -13.0310   20.7000 C   0  0  0  0  0  0  0  0  0  0  0  0
  -24.6420  -11.6790   20.6240 C   0  0  0  0  0  0  0  0  0  0  0  0
  -26.2570  -12.9260   19.9670 N   0  0  0  0  0  0  0  0  0  0  0  0
  -25.9080  -11.6400   20.2330 N   0  0  0  0  0  0  0  0  0  0  0  0
  -23.9250  -10.4150   20.8470 C   0  0  0  0  0  0  0  0  0  0  0  0
  -24.3610   -9.4780   21.8100 C   0  0  0  0  0  3  0  0  0  0  0  0
  -23.6440   -8.2800   22.0170 C   0  0  0  0  0  3  0  0  0  0  0  0
  -22.4780   -8.0100   21.2620 C   0  0  0  0  0  0  0  0  0  0  0  0
  -22.0630   -8.9350   20.2880 C   0  0  0  0  0  3  0  0  0  0  0  0
  -22.7800  -10.1250   20.0790 C   0  0  0  0  0  3  0  0  0  0  0  0
  -21.7350   -6.8600   21.3760 O   0  0  0  0  0  0  0  0  0  0  0  0
  -21.6270   -6.1890   22.5670 C   0  0  0  0  0  0  0  0  0  0  0  0
  -21.1100   -6.8080   23.7270 C   0  0  0  0  0  3  0  0  0  0  0  0
  -20.9500   -6.0630   24.9110 C   0  0  0  0  0  3  0  0  0  0  0  0
  -21.2970   -4.6980   24.9370 C   0  0  0  0  0  0  0  0  0  0  0  0
  -21.8070   -4.0790   23.7840 C   0  0  0  0  0  3  0  0  0  0  0  0
  -21.9690   -4.8220   22.6010 C   0  0  0  0  0  0  0  0  0  0  0  0
  -22.4400   -4.2150   21.4850 F   0  0  0  0  0  0  0  0  0  0  0  0
  -21.1370   -3.9790   26.0740 F   0  0  0  0  0  0  0  0  0  0  0  0
  -22.8110  -13.5080   21.0680 C   0  0  0  0  0  0  0  0  0  0  0  0
  -22.1420  -12.8050   21.9770 N   0  0  0  0  0  0  0  0  0  0  0  0
  -22.3400  -14.5370   20.5860 O   0  0  0  0  0  0  0  0  0  0  0  0
  -22.5360  -11.9720   22.3870 H   0  0  0  0  0  0  0  0  0  0  0  0
  -21.2220  -13.1060   22.2650 H   0  0  0  0  0  0  0  0  0  0  0  0
  -25.3890  -15.1770   20.1010 N   0  0  0  0  0  0  0  0  0  0  0  0
  -24.6390  -15.8380   20.2740 H   0  0  0  0  0  0  0  0  0  0  0  0
  -26.2270  -15.6160   19.7400 H   0  0  0  0  0  0  0  0  0  0  0  0
  1  4  2  0
  1  3  1  0
  3  5  2  0
  4  6  1  0
  5  2  1  0
  5  7  1  0
  6 54  1  0
  6  2  2  0
  9  8  1  0
  9  4  1  0
 10 11  1  0
 11  9  1  0
 12  3  1  0
 12 13  1  0
 14 25  2  0
 15 13  1  0
 15 20  1  0
 16 24  1  0
 16 26  1  0
 17 23  1  0
 17 19  1  0
 18 24  1  0
 19 20  2  0
 19 18  1  0
 21 15  2  0
 22 21  1  0
 22 17  2  0
 23 16  1  0
 24 14  1  0
 26 28  2  0
 27 26  1  0
 29 27  1  0
 30 39  2  0
 30 35  1  0
 31 27  1  0
 31 35  1  0
 32 31  1  0
 33 34  1  0
 33 32  1  0
 34 30  1  0
 35 36  2  0
 36 37  1  0
 38 37  2  0
 39 38  1  0
 40 14  1  0
 40 41  1  0
 40 50  1  0
 41 44  1  0
 42 46  1  0
 42 41  1  0
 43 42  2  0
 46 45  1  0
 48 46  1  0
 48 49  1  0
 48 47  1  0
 50 53  1  1
 50 51  1  0
 52 50  1  0
 54 55  1  0
 56 69  1  0
 57 62  1  0
 58 59  1  0
 58 57  1  0
 60 59  1  0
 60 73  1  0
 60 61  1  0
 62 56  1  0
 62 61  1  0
 63 56  2  0
 65 64  1  0
 66 64  1  0
 67 69  1  0
 67 68  1  0
 68 55  1  0
 68 65  1  0
 69 66  1  0
 70 71  2  0
 71 90  1  0
 72 71  1  0
 72 75  1  0
 73 74  1  0
 73 70  1  0
 74 72  2  0
 75 76  1  0
 76 77  2  0
 78 81  1  0
 78 77  1  0
 79 78  2  0
 80 79  1  0
 80 75  2  0
 81 82  1  0
 82 87  2  0
 82 83  1  0
 83 84  2  0
 84 85  1  0
 85 89  1  0
 86 85  2  0
 87 86  1  0
 88 87  1  0
 90 91  1  0
 91 94  1  0
 91 93  1  0
 92 90  2  0
 95 70  1  0
 95 96  1  0
 97 95  1  0
M  ISO  4  12 101  13 101  56 100  69 100
M  END
>  <TORSDO>  (46) 
F 21

>  <SCORE>  (46) 
-10.800

>  <name>  (46) 
45

>  <ligand_id>  (46) 
45

>  <original_smiles>  (46) 
[H]c1c([H])c([H])c2c(c1[H])C([H])([H])C([H])([H])C([H])([H])C2([H])N([H])C(=O)C1([H])N(C(=O)C([H])(N([H])C(=O)C([H])(N([H])C([H])([H])[H])C([H])([H])[H])C(C([H])([H])[H])(C([H])([H])[H])C([H])([H])[H])C([H])([H])c2c([H])c(OC([H])([H])c3c([H])c(C([H])(C([H])([H])[H])C([H])([H])C([H])([H])[H])c(OC([H])([H])C4([H])C([H])([H])N(C(=O)N5C([H])([H])C([H])([H])C([H])([H])C([H])(n6nc(-c7c([H])c([H])c(Oc8c([H])c([H])c(F)c([H])c8F)c([H])c7[H])c(C(=O)N([H])[H])c6N([H])[H])C5([H])[H])C([H])([H])C([H])([H])C4([H])[H])c([H])c3C([H])([H])[H])c([H])c([H])c2C1([H])[H]

>  <smiles>  (46) 
[H]c1c([H])c([H])c2c(c1[H])C([H])([H])C([H])([H])C([H])([H])C2([H])N([H])C(=O)C1([H])N(C(=O)C([H])(N([H])C(=O)C([H])(N([H])C([H])([H])[H])C([H])([H])[H])C(C([H])([H])[H])(C([H])([H])[H])C([H])([H])[H])C([H])([H])c2c([H])c(OC([H])([H])c3c([H])c(C([H])(C([H])([H])[H])C([H])([H])C([H])([H])[H])c(OC([H])([H])C4([H])C([H])([H])N(C(=O)N5C([H])([H])C([H])([H])C([H])([H])C([H])(n6nc(-c7c([H])c([H])c(Oc8c([H])c([H])c(F)c([H])c8F)c([H])c7[H])c(C(=O)N([H])[H])c6N([H])[H])C5([H])[H])C([H])([H])C([H])([H])C4([H])[H])c([H])c3C([H])([H])[H])c([H])c([H])c2C1([H])[H]

$$$$
46:0:0
     RDKit          3D

 97107  0  0  1  0  0  0  0  0999 V2000
  -30.3070  -20.5510   20.4800 C   0  0  0  0  0  3  0  0  0  0  0  0
  -30.4030  -19.8760   21.7130 C   0  0  0  0  0  0  0  0  0  0  0  0
  -30.1730  -22.0740   22.7790 C   0  0  0  0  0  0  0  0  0  0  0  0
  -30.3390  -20.6640   22.9020 C   0  0  0  0  0  0  0  0  0  0  0  0
  -30.0950  -22.6330   21.4820 C   0  0  0  0  0  0  0  0  0  0  0  0
  -30.1700  -21.8870   20.3610 N   0  0  0  0  0  0  0  0  0  0  0  0
  -31.0810  -14.6190   19.7850 C   0  0  0  0  0  0  0  0  0  0  0  0
  -30.5470  -12.5650   18.5020 C   0  0  0  0  0  2  0  0  0  0  0  0
  -29.4820  -12.8450   17.4230 C   0  0  0  0  0  2  0  0  0  0  0  0
  -28.0670  -12.6770   18.0060 C   0  0  0  0  0  2  0  0  0  0  0  0
  -27.8910  -13.4430   19.3400 C   0  0  0  0  0  3  0  0  0  0  0  0
  -29.0600  -13.1280   20.3090 C   0  0  0  0  0  2  0  0  0  0  0  0
  -30.3170  -13.4890   19.6340 N   0  0  0  0  0  0  0  0  0  0  0  0
  -32.0850  -14.7860   19.0830 O   0  0  0  0  0  0  0  0  0  0  0  0
  -29.4290  -17.6130   20.9580 C   0  0  0  0  0  2  0  0  0  0  0  0
  -31.8750  -17.7830   21.1970 C   0  0  0  0  0  2  0  0  0  0  0  0
  -29.5160  -16.0840   21.1690 C   0  0  0  0  0  2  0  0  0  0  0  0
  -31.9470  -16.2530   21.4340 C   0  0  0  0  0  2  0  0  0  0  0  0
  -30.5420  -18.3380   21.7280 C   0  0  0  0  0  3  0  0  0  0  0  0
  -30.8300  -15.5050   20.8020 N   0  0  0  0  0  0  0  0  0  0  0  0
  -25.6110  -14.0740   20.3560 C   0  0  0  0  0  0  0  0  0  0  0  0
  -24.5660  -13.3070   20.7960 C   0  0  0  0  0  0  0  0  0  0  0  0
  -24.9770  -11.9490   20.6270 C   0  0  0  0  0  0  0  0  0  0  0  0
  -26.5930  -13.1810   19.9530 N   0  0  0  0  0  0  0  0  0  0  0  0
  -26.2200  -11.8960   20.1710 N   0  0  0  0  0  0  0  0  0  0  0  0
  -24.2370  -10.6950   20.8180 C   0  0  0  0  0  0  0  0  0  0  0  0
  -24.7100   -9.6850   21.6840 C   0  0  0  0  0  3  0  0  0  0  0  0
  -23.9740   -8.4940   21.8640 C   0  0  0  0  0  3  0  0  0  0  0  0
  -22.7500   -8.3070   21.1770 C   0  0  0  0  0  0  0  0  0  0  0  0
  -22.2960   -9.3060   20.2980 C   0  0  0  0  0  3  0  0  0  0  0  0
  -23.0330  -10.4880   20.1170 C   0  0  0  0  0  3  0  0  0  0  0  0
  -21.9800   -7.1730   21.2710 O   0  0  0  0  0  0  0  0  0  0  0  0
  -21.9160   -6.4400   22.4280 C   0  0  0  0  0  0  0  0  0  0  0  0
  -21.5070   -7.0140   23.6520 C   0  0  0  0  0  3  0  0  0  0  0  0
  -21.3880   -6.2090   24.8030 C   0  0  0  0  0  3  0  0  0  0  0  0
  -21.6690   -4.8310   24.7310 C   0  0  0  0  0  0  0  0  0  0  0  0
  -22.0730   -4.2570   23.5120 C   0  0  0  0  0  3  0  0  0  0  0  0
  -22.1940   -5.0590   22.3630 C   0  0  0  0  0  0  0  0  0  0  0  0
  -22.5630   -4.4970   21.1870 F   0  0  0  0  0  0  0  0  0  0  0  0
  -21.5480   -4.0550   25.8340 F   0  0  0  0  0  0  0  0  0  0  0  0
  -23.2250  -13.7990   21.2580 C   0  0  0  0  0  0  0  0  0  0  0  0
  -22.5900  -13.0750   22.1730 N   0  0  0  0  0  0  0  0  0  0  0  0
  -22.7530  -14.8570   20.8430 O   0  0  0  0  0  0  0  0  0  0  0  0
  -22.9850  -12.2160   22.5260 H   0  0  0  0  0  0  0  0  0  0  0  0
  -21.6940  -13.3830   22.5260 H   0  0  0  0  0  0  0  0  0  0  0  0
  -25.7980  -15.4490   20.2440 N   0  0  0  0  0  0  0  0  0  0  0  0
  -25.0690  -16.1150   20.4730 H   0  0  0  0  0  0  0  0  0  0  0  0
  -26.6210  -15.8840   19.8450 H   0  0  0  0  0  0  0  0  0  0  0  0
  -30.5500  -24.3790   24.1090 C   0  0  0  0  0  2  0  0  0  0  0  0
  -31.1380  -23.2720   24.9380 C   0  0  0  0  0  2  0  0  0  0  0  0
  -29.9930  -22.9680   23.9920 C   0  0  0  0  0  3  0  0  0  0  0  0
  -29.1880  -19.2670   24.7380 C   0  0  0  0  0  1  0  0  0  0  0  0
  -30.4480  -20.0200   24.2910 C   0  0  0  0  0  2  0  0  0  0  0  0
  -29.9410  -24.0020   21.3570 O   0  0  0  0  0  0  0  0  0  0  0  0
  -29.8970  -24.6540   20.0830 C   0  0  0  0  0  2  0  0  0  0  0  0
  -28.5280  -25.3420   19.9590 C   0  0  0  0  0  2  0  0  0  0  0  0
  -28.5470  -26.7070   20.4000 O   0  0  0  0  0  0  0  0  0  0  0  0
  -24.5800  -31.8950   23.2270 C   0  0  0  0  0  0  0  0  0  0  0  0
  -27.3660  -27.4210   20.3140 C   0  0  0  0  0  0  0  0  0  0  0  0
  -23.4420  -30.4500   21.5740 C   0  0  0  0  0  3  0  0  0  0  0  0
  -24.9570  -28.9100   20.2230 C   0  0  0  0  0  0  0  0  0  0  0  0
  -25.9710  -30.8300   21.4560 C   0  0  0  0  0  2  0  0  0  0  0  0
  -26.0910  -29.4500   20.8430 C   0  0  0  0  0  0  0  0  0  0  0  0
  -27.2950  -28.7100   20.8890 C   0  0  0  0  0  3  0  0  0  0  0  0
  -26.2110  -26.9070   19.6740 C   0  0  0  0  0  3  0  0  0  0  0  0
  -25.0130  -27.6380   19.6350 C   0  0  0  0  0  3  0  0  0  0  0  0
  -23.7000  -29.7490   20.2140 C   0  0  0  0  0  2  0  0  0  0  0  0
  -24.6810  -31.0750   22.1440 N   0  0  0  0  0  0  0  0  0  0  0  0
  -23.4790  -32.1670   23.7250 O   0  0  0  0  0  0  0  0  0  0  0  0
  -22.7710  -29.4390   22.5310 C   0  0  0  0  0  0  0  0  0  0  0  0
  -21.4520  -29.2450   22.3690 N   0  0  0  0  0  0  0  0  0  0  0  0
  -23.4350  -28.8290   23.3730 O   0  0  0  0  0  0  0  0  0  0  0  0
  -20.9750  -29.7920   21.6650 H   0  0  0  0  0  0  0  0  0  0  0  0
  -18.0740  -28.0370   22.7880 C   0  0  0  0  0  0  0  0  0  0  0  0
  -20.6210  -28.3140   23.1310 C   0  0  0  0  0  3  0  0  0  0  0  0
  -20.7460  -26.8740   22.5790 C   0  0  0  0  0  2  0  0  0  0  0  0
  -19.6760  -26.5300   21.5380 C   0  0  0  0  0  2  0  0  0  0  0  0
  -18.2750  -26.6800   22.1370 C   0  0  0  0  0  2  0  0  0  0  0  0
  -19.1760  -28.8120   23.2390 C   0  0  0  0  0  0  0  0  0  0  0  0
  -18.9340  -30.0840   23.8010 C   0  0  0  0  0  3  0  0  0  0  0  0
  -17.6230  -30.5830   23.9180 C   0  0  0  0  0  3  0  0  0  0  0  0
  -16.5360  -29.8060   23.4860 C   0  0  0  0  0  3  0  0  0  0  0  0
  -16.7610  -28.5360   22.9270 C   0  0  0  0  0  3  0  0  0  0  0  0
  -25.8390  -32.5510   23.8760 C   0  0  0  0  0  3  0  0  0  0  0  0
  -25.5080  -33.9520   24.1620 N   0  0  0  0  0  0  0  0  0  0  0  0
  -25.8460  -34.9880   23.3810 C   0  0  0  0  0  0  0  0  0  0  0  0
  -26.5410  -34.8680   22.3700 O   0  0  0  0  0  0  0  0  0  0  0  0
  -24.8880  -34.1200   24.9390 H   0  0  0  0  0  0  0  0  0  0  0  0
  -24.0950  -36.7440   22.9510 C   0  0  0  0  0  1  0  0  0  0  0  0
  -25.3290  -36.3810   23.7920 C   0  0  0  0  0  3  0  0  0  0  0  0
  -27.4420  -37.3170   24.6230 C   0  0  0  0  0  1  0  0  0  0  0  0
  -26.3440  -37.4500   23.6690 N   0  0  0  0  0  0  0  0  0  0  0  0
  -25.9200  -38.3630   23.8050 H   0  0  0  0  0  0  0  0  0  0  0  0
  -26.3210  -31.8120   25.1850 C   0  0  1  0  0  0  0  0  0  0  0  0
  -25.1960  -31.5870   26.2210 C   0  0  0  0  0  1  0  0  0  0  0  0
  -26.9290  -30.4320   24.8420 C   0  0  0  0  0  1  0  0  0  0  0  0
  -27.4430  -32.6320   25.8660 C   0  0  0  0  0  1  0  0  0  0  0  0
  1  2  2  0
  2  4  1  0
  3  4  2  0
  3 51  1  0
  4 53  1  0
  5  3  1  0
  6  1  1  0
  6  5  2  0
  7 20  1  0
  8 13  1  0
  9 10  1  0
  9  8  1  0
 11 10  1  0
 11 24  1  0
 11 12  1  0
 13  7  1  0
 13 12  1  0
 14  7  2  0
 15 17  1  0
 15 19  1  0
 16 18  1  0
 16 19  1  0
 19  2  1  0
 20 17  1  0
 20 18  1  0
 21 22  2  0
 22 41  1  0
 23 22  1  0
 23 26  1  0
 24 25  1  0
 24 21  1  0
 25 23  2  0
 26 27  1  0
 27 28  2  0
 29 32  1  0
 29 28  1  0
 30 29  2  0
 31 30  1  0
 31 26  2  0
 32 33  1  0
 33 34  1  0
 34 35  2  0
 36 35  1  0
 36 40  1  0
 37 36  2  0
 38 33  2  0
 38 37  1  0
 39 38  1  0
 41 42  1  0
 42 44  1  0
 42 45  1  0
 43 41  2  0
 46 21  1  0
 46 47  1  0
 48 46  1  0
 49 50  1  0
 51 49  1  0
 51 50  1  0
 53 52  1  0
 54  5  1  0
 55 54  1  0
 56 55  1  0
 56 57  1  0
 58 69  2  0
 59 57  1  0
 59 64  1  0
 60 68  1  0
 60 70  1  0
 61 63  1  0
 62 68  1  0
 63 64  2  0
 63 62  1  0
 65 59  2  0
 66 65  1  0
 66 61  2  0
 67 61  1  0
 67 60  1  0
 68 58  1  0
 70 72  2  0
 71 70  1  0
 73 71  1  0
 74 83  2  0
 74 79  1  0
 75 71  1  0
 75 79  1  0
 76 75  1  0
 77 78  1  0
 77 76  1  0
 78 74  1  0
 79 80  2  0
 80 81  1  0
 82 81  2  0
 83 82  1  0
 84 58  1  0
 84 85  1  0
 84 94  1  0
 85 88  1  0
 86 90  1  0
 86 85  1  0
 87 86  2  0
 90 89  1  0
 92 90  1  0
 92 93  1  0
 92 91  1  0
 94 97  1  1
 94 95  1  0
 96 94  1  0
M  ISO  4   7 100  20 100  56 101  57 101
M  END
>  <TORSDO>  (47) 
F 21

>  <SCORE>  (47) 
-5.708

>  <name>  (47) 
46

>  <ligand_id>  (47) 
46

>  <original_smiles>  (47) 
[H]c1nc(OC([H])([H])C([H])([H])Oc2c([H])c([H])c3c(c2[H])C([H])([H])N(C(=O)C([H])(N([H])C(=O)C([H])(N([H])C([H])([H])[H])C([H])([H])[H])C(C([H])([H])[H])(C([H])([H])[H])C([H])([H])[H])C([H])(C(=O)N([H])C2([H])c4c([H])c([H])c([H])c([H])c4C([H])([H])C([H])([H])C2([H])[H])C3([H])[H])c(C2([H])C([H])([H])C2([H])[H])c(C([H])([H])C([H])([H])[H])c1C1([H])C([H])([H])C([H])([H])N(C(=O)N2C([H])([H])C([H])([H])C([H])([H])C([H])(n3nc(-c4c([H])c([H])c(Oc5c([H])c([H])c(F)c([H])c5F)c([H])c4[H])c(C(=O)N([H])[H])c3N([H])[H])C2([H])[H])C([H])([H])C1([H])[H]

>  <smiles>  (47) 
[H]c1nc(OC([H])([H])C([H])([H])Oc2c([H])c([H])c3c(c2[H])C([H])([H])N(C(=O)C([H])(N([H])C(=O)C([H])(N([H])C([H])([H])[H])C([H])([H])[H])C(C([H])([H])[H])(C([H])([H])[H])C([H])([H])[H])C([H])(C(=O)N([H])C2([H])c4c([H])c([H])c([H])c([H])c4C([H])([H])C([H])([H])C2([H])[H])C3([H])[H])c(C2([H])C([H])([H])C2([H])[H])c(C([H])([H])C([H])([H])[H])c1C1([H])C([H])([H])C([H])([H])N(C(=O)N2C([H])([H])C([H])([H])C([H])([H])C([H])(n3nc(-c4c([H])c([H])c(Oc5c([H])c([H])c(F)c([H])c5F)c([H])c4[H])c(C(=O)N([H])[H])c3N([H])[H])C2([H])[H])C([H])([H])C1([H])[H]

$$$$
47:0:0
     RDKit          3D

 97107  0  0  1  0  0  0  0  0999 V2000
  -30.1080  -20.2660   20.7210 C   0  0  0  0  0  3  0  0  0  0  0  0
  -29.8980  -21.6630   20.8460 C   0  0  0  0  0  3  0  0  0  0  0  0
  -27.7060  -21.4160   19.8600 C   0  0  0  0  0  3  0  0  0  0  0  0
  -29.1350  -19.4280   20.1210 C   0  0  0  0  0  0  0  0  0  0  0  0
  -27.9220  -20.0330   19.6790 C   0  0  0  0  0  0  0  0  0  0  0  0
  -28.6900  -22.2600   20.4050 C   0  0  0  0  0  0  0  0  0  0  0  0
  -29.6920  -17.7460   18.3190 C   0  0  0  0  0  2  0  0  0  0  0  0
  -29.4260  -17.9420   19.8130 C   0  0  0  0  0  3  0  0  0  0  0  0
  -31.0340  -17.0660   18.5930 C   0  0  0  0  0  3  0  0  0  0  0  0
  -30.6880  -17.0590   20.1120 C   0  0  0  0  0  3  0  0  0  0  0  0
  -31.0830  -14.5780   20.3290 C   0  0  0  0  0  0  0  0  0  0  0  0
  -30.7150  -12.4360   19.1860 C   0  0  0  0  0  2  0  0  0  0  0  0
  -29.7800  -12.7040   17.9860 C   0  0  0  0  0  2  0  0  0  0  0  0
  -28.3050  -12.6080   18.4160 C   0  0  0  0  0  2  0  0  0  0  0  0
  -27.9950  -13.4290   19.6930 C   0  0  0  0  0  3  0  0  0  0  0  0
  -29.0450  -13.1630   20.7970 C   0  0  0  0  0  2  0  0  0  0  0  0
  -30.3770  -13.4160   20.2270 N   0  0  0  0  0  0  0  0  0  0  0  0
  -32.2560  -14.6840   19.9630 O   0  0  0  0  0  0  0  0  0  0  0  0
  -30.3390  -15.6790   20.5540 N   0  0  0  0  0  0  0  0  0  0  0  0
  -29.3810  -15.5040   20.8250 H   0  0  0  0  0  0  0  0  0  0  0  0
  -25.6080  -14.1020   20.3770 C   0  0  0  0  0  0  0  0  0  0  0  0
  -24.5200  -13.3590   20.7520 C   0  0  0  0  0  0  0  0  0  0  0  0
  -24.9480  -11.9960   20.7350 C   0  0  0  0  0  0  0  0  0  0  0  0
  -26.6340  -13.1920   20.1660 N   0  0  0  0  0  0  0  0  0  0  0  0
  -26.2380  -11.9210   20.4360 N   0  0  0  0  0  0  0  0  0  0  0  0
  -24.1890  -10.7520   20.9250 C   0  0  0  0  0  0  0  0  0  0  0  0
  -24.5730   -9.7850   21.8770 C   0  0  0  0  0  3  0  0  0  0  0  0
  -23.8130   -8.6090   22.0530 C   0  0  0  0  0  3  0  0  0  0  0  0
  -22.6530   -8.3920   21.2730 C   0  0  0  0  0  0  0  0  0  0  0  0
  -22.2860   -9.3480   20.3100 C   0  0  0  0  0  3  0  0  0  0  0  0
  -23.0480  -10.5130   20.1330 C   0  0  0  0  0  3  0  0  0  0  0  0
  -21.8690   -7.2660   21.3590 O   0  0  0  0  0  0  0  0  0  0  0  0
  -21.7500   -6.5570   22.5290 C   0  0  0  0  0  0  0  0  0  0  0  0
  -21.2710   -7.1550   23.7150 C   0  0  0  0  0  3  0  0  0  0  0  0
  -21.0970   -6.3720   24.8770 C   0  0  0  0  0  3  0  0  0  0  0  0
  -21.3910   -4.9950   24.8510 C   0  0  0  0  0  0  0  0  0  0  0  0
  -21.8640   -4.4000   23.6680 C   0  0  0  0  0  3  0  0  0  0  0  0
  -22.0380   -5.1790   22.5080 C   0  0  0  0  0  0  0  0  0  0  0  0
  -22.4730   -4.5950   21.3670 F   0  0  0  0  0  0  0  0  0  0  0  0
  -21.2210   -4.2410   25.9610 F   0  0  0  0  0  0  0  0  0  0  0  0
  -23.1340  -13.8730   21.0160 C   0  0  0  0  0  0  0  0  0  0  0  0
  -22.3890  -13.2220   21.9020 N   0  0  0  0  0  0  0  0  0  0  0  0
  -22.7140  -14.8920   20.4660 O   0  0  0  0  0  0  0  0  0  0  0  0
  -22.7320  -12.3950   22.3690 H   0  0  0  0  0  0  0  0  0  0  0  0
  -21.4630  -13.5580   22.1210 H   0  0  0  0  0  0  0  0  0  0  0  0
  -25.8110  -15.4610   20.1740 N   0  0  0  0  0  0  0  0  0  0  0  0
  -25.0430  -16.1230   20.1990 H   0  0  0  0  0  0  0  0  0  0  0  0
  -26.6440  -15.8360   19.7380 H   0  0  0  0  0  0  0  0  0  0  0  0
  -33.4170  -16.9300   17.4350 C   0  0  0  0  0  2  0  0  0  0  0  0
  -32.4980  -17.7740   16.5740 C   0  0  0  0  0  2  0  0  0  0  0  0
  -32.2930  -17.7350   18.0690 C   0  0  0  0  0  3  0  0  0  0  0  0
  -26.8510  -19.5800   17.4220 C   0  0  0  0  0  1  0  0  0  0  0  0
  -26.8350  -19.2710   18.9260 C   0  0  0  0  0  2  0  0  0  0  0  0
  -28.3830  -23.6100   20.4390 O   0  0  0  0  0  0  0  0  0  0  0  0
  -29.4050  -24.5800   20.6800 C   0  0  0  0  0  2  0  0  0  0  0  0
  -28.7710  -25.9580   21.0130 C   0  0  0  0  0  2  0  0  0  0  0  0
  -28.5230  -26.7550   19.8470 O   0  0  0  0  0  0  0  0  0  0  0  0
  -24.5730  -31.7290   23.1090 C   0  0  0  0  0  0  0  0  0  0  0  0
  -27.3600  -27.4850   19.8960 C   0  0  0  0  0  0  0  0  0  0  0  0
  -23.4180  -30.3600   21.4010 C   0  0  0  0  0  3  0  0  0  0  0  0
  -24.9290  -28.9190   19.9350 C   0  0  0  0  0  0  0  0  0  0  0  0
  -25.9330  -30.7960   21.2430 C   0  0  0  0  0  2  0  0  0  0  0  0
  -26.0650  -29.4500   20.5610 C   0  0  0  0  0  0  0  0  0  0  0  0
  -27.2840  -28.7330   20.5530 C   0  0  0  0  0  3  0  0  0  0  0  0
  -26.2130  -26.9640   19.2660 C   0  0  0  0  0  3  0  0  0  0  0  0
  -24.9950  -27.6700   19.2890 C   0  0  0  0  0  3  0  0  0  0  0  0
  -23.6590  -29.7410   19.9980 C   0  0  0  0  0  2  0  0  0  0  0  0
  -24.6600  -30.9740   21.9780 N   0  0  0  0  0  0  0  0  0  0  0  0
  -23.4810  -31.9570   23.6450 O   0  0  0  0  0  0  0  0  0  0  0  0
  -22.7870  -29.2840   22.3150 C   0  0  0  0  0  0  0  0  0  0  0  0
  -21.4680  -29.0820   22.1730 N   0  0  0  0  0  0  0  0  0  0  0  0
  -23.4810  -28.6360   23.1010 O   0  0  0  0  0  0  0  0  0  0  0  0
  -20.9680  -29.6610   21.5140 H   0  0  0  0  0  0  0  0  0  0  0  0
  -18.1100  -27.8340   22.6290 C   0  0  0  0  0  0  0  0  0  0  0  0
  -20.6670  -28.0960   22.8960 C   0  0  0  0  0  3  0  0  0  0  0  0
  -20.7780  -26.7000   22.2400 C   0  0  0  0  0  2  0  0  0  0  0  0
  -19.6700  -26.4250   21.2190 C   0  0  0  0  0  2  0  0  0  0  0  0
  -18.2910  -26.5250   21.8790 C   0  0  0  0  0  2  0  0  0  0  0  0
  -19.2260  -28.5800   23.0930 C   0  0  0  0  0  0  0  0  0  0  0  0
  -19.0040  -29.8070   23.7530 C   0  0  0  0  0  3  0  0  0  0  0  0
  -17.6980  -30.2890   23.9540 C   0  0  0  0  0  3  0  0  0  0  0  0
  -16.5960  -29.5400   23.5090 C   0  0  0  0  0  3  0  0  0  0  0  0
  -16.8030  -28.3130   22.8530 C   0  0  0  0  0  3  0  0  0  0  0  0
  -25.8380  -32.3670   23.7650 C   0  0  0  0  0  3  0  0  0  0  0  0
  -25.5000  -33.7510   24.1230 N   0  0  0  0  0  0  0  0  0  0  0  0
  -25.8240  -34.8260   23.3920 C   0  0  0  0  0  0  0  0  0  0  0  0
  -26.5140  -34.7580   22.3700 O   0  0  0  0  0  0  0  0  0  0  0  0
  -24.8900  -33.8750   24.9160 H   0  0  0  0  0  0  0  0  0  0  0  0
  -24.0600  -36.5830   23.0520 C   0  0  0  0  0  1  0  0  0  0  0  0
  -25.3010  -36.1920   23.8700 C   0  0  0  0  0  3  0  0  0  0  0  0
  -27.4050  -37.1050   24.7450 C   0  0  0  0  0  1  0  0  0  0  0  0
  -26.3100  -37.2700   23.7930 N   0  0  0  0  0  0  0  0  0  0  0  0
  -25.8810  -38.1760   23.9580 H   0  0  0  0  0  0  0  0  0  0  0  0
  -26.3480  -31.5720   25.0280 C   0  0  1  0  0  0  0  0  0  0  0  0
  -25.2410  -31.2820   26.0670 C   0  0  0  0  0  1  0  0  0  0  0  0
  -26.9710  -30.2190   24.6080 C   0  0  0  0  0  1  0  0  0  0  0  0
  -27.4710  -32.3700   25.7360 C   0  0  0  0  0  1  0  0  0  0  0  0
  1  2  1  0
  3  6  1  0
  4  1  2  0
  5  3  2  0
  5  4  1  0
  6 54  1  0
  6  2  2  0
  7  9  1  0
  7  8  1  0
  8 10  1  0
  8  4  1  0
  9 51  1  0
  9 10  1  0
 10 19  1  0
 11 19  1  0
 12 17  1  0
 13 14  1  0
 13 12  1  0
 15 14  1  0
 15 24  1  0
 15 16  1  0
 17 11  1  0
 17 16  1  0
 18 11  2  0
 19 20  1  0
 21 22  2  0
 22 41  1  0
 23 22  1  0
 23 26  1  0
 24 21  1  0
 24 25  1  0
 25 23  2  0
 26 27  1  0
 27 28  2  0
 29 32  1  0
 29 28  1  0
 30 29  2  0
 31 30  1  0
 31 26  2  0
 32 33  1  0
 33 34  1  0
 34 35  2  0
 36 35  1  0
 36 40  1  0
 37 36  2  0
 38 33  2  0
 38 37  1  0
 39 38  1  0
 41 42  1  0
 42 45  1  0
 42 44  1  0
 43 41  2  0
 46 47  1  0
 46 21  1  0
 48 46  1  0
 49 51  1  0
 50 49  1  0
 50 51  1  0
 52 53  1  0
 53  5  1  0
 54 55  1  0
 55 56  1  0
 57 59  1  0
 57 56  1  0
 58 69  2  0
 59 64  1  0
 60 68  1  0
 60 70  1  0
 61 67  1  0
 61 63  1  0
 62 68  1  0
 63 62  1  0
 64 63  2  0
 65 66  1  0
 65 59  2  0
 66 61  2  0
 67 60  1  0
 68 58  1  0
 70 72  2  0
 71 70  1  0
 73 71  1  0
 74 83  2  0
 74 79  1  0
 75 71  1  0
 75 79  1  0
 76 75  1  0
 77 78  1  0
 77 76  1  0
 78 74  1  0
 79 80  2  0
 80 81  1  0
 82 81  2  0
 83 82  1  0
 84 58  1  0
 84 85  1  0
 84 94  1  0
 85 88  1  0
 86 90  1  0
 86 85  1  0
 87 86  2  0
 90 89  1  0
 92 90  1  0
 92 93  1  0
 92 91  1  0
 94 97  1  1
 94 95  1  0
 96 94  1  0
M  ISO  4  11 100  19 100  56 101  57 101
M  END
>  <TORSDO>  (48) 
F 22

>  <SCORE>  (48) 
-12.859

>  <name>  (48) 
47

>  <ligand_id>  (48) 
47

>  <original_smiles>  (48) 
[H]c1c([H])c([H])c2c(c1[H])C([H])([H])C([H])([H])C([H])([H])C2([H])N([H])C(=O)C1([H])N(C(=O)C([H])(N([H])C(=O)C([H])(N([H])C([H])([H])[H])C([H])([H])[H])C(C([H])([H])[H])(C([H])([H])[H])C([H])([H])[H])C([H])([H])c2c([H])c(OC([H])([H])C([H])([H])Oc3c([H])c([H])c(C4([H])C([H])([H])C([H])(C5([H])C([H])([H])C5([H])[H])C4([H])N([H])C(=O)N4C([H])([H])C([H])([H])C([H])([H])C([H])(n5nc(-c6c([H])c([H])c(Oc7c([H])c([H])c(F)c([H])c7F)c([H])c6[H])c(C(=O)N([H])[H])c5N([H])[H])C4([H])[H])c(C([H])([H])C([H])([H])[H])c3[H])c([H])c([H])c2C1([H])[H]

>  <smiles>  (48) 
[H]c1c([H])c([H])c2c(c1[H])C([H])([H])C([H])([H])C([H])([H])C2([H])N([H])C(=O)C1([H])N(C(=O)C([H])(N([H])C(=O)C([H])(N([H])C([H])([H])[H])C([H])([H])[H])C(C([H])([H])[H])(C([H])([H])[H])C([H])([H])[H])C([H])([H])c2c([H])c(OC([H])([H])C([H])([H])Oc3c([H])c([H])c(C4([H])C([H])([H])C([H])(C5([H])C([H])([H])C5([H])[H])C4([H])N([H])C(=O)N4C([H])([H])C([H])([H])C([H])([H])C([H])(n5nc(-c6c([H])c([H])c(Oc7c([H])c([H])c(F)c([H])c7F)c([H])c6[H])c(C(=O)N([H])[H])c5N([H])[H])C4([H])[H])c(C([H])([H])C([H])([H])[H])c3[H])c([H])c([H])c2C1([H])[H]

$$$$
48:0:0
     RDKit          3D

 99102  0  0  1  0  0  0  0  0999 V2000
  -24.3470  -11.5730   21.1470 C   0  0  0  0  0  3  0  0  0  0  0  0
  -25.0210  -10.9890   22.7660 C   0  0  0  0  0  3  0  0  0  0  0  0
  -27.8490  -12.1890   23.0330 C   0  0  0  0  0  2  0  0  0  0  0  0
  -25.4100  -12.5390   20.0460 C   0  0  0  0  0  3  0  0  0  0  0  0
  -27.9270  -12.9080   21.7010 C   0  0  0  0  0  3  0  0  0  0  0  0
  -26.6650  -11.1870   23.4760 C   0  0  0  0  0  3  0  0  0  0  0  0
  -25.2380  -13.8920   18.8420 C   0  0  0  0  0  2  0  0  0  0  0  0
  -28.8340  -15.0020   21.6140 C   0  0  0  0  0 15  0  0  0  0  0  0
  -26.3390  -15.5010   18.6820 C   0  0  0  0  0  1  0  0  0  0  0  0
  -28.6360  -17.3060   21.0500 C   0  0  0  0  0 15  0  0  0  0  0  0
  -27.7520  -16.6740   19.4120 C   0  0  0  0  0  2  0  0  0  0  0  0
  -27.6920  -17.8180   18.4550 N   0  0  0  0  0  4  0  0  0  0  0  0
  -26.8440  -18.3450   18.5670 H   0  0  0  0  0  0  0  0  0  0  0  0
  -27.7000  -17.5210   17.4930 H   0  0  0  0  0  0  0  0  0  0  0  0
  -28.4770  -18.4390   18.5270 H   0  0  0  0  0  0  0  0  0  0  0  0
  -27.6750  -10.1310   23.7640 N   0  0  0  0  0  0  0  0  0  0  0  0
  -27.4470   -9.1910   23.4010 H   0  0  0  0  0  0  0  0  0  0  0  0
  -29.1340  -10.1630   24.4540 C   0  0  0  0  0  2  0  0  0  0  0  0
  -30.7040  -10.7830   23.9520 C   0  0  0  0  0  2  0  0  0  0  0  0
  -32.2230  -10.9900   21.4680 C   0  0  0  0  0  0  0  0  0  0  0  0
  -32.0380   -9.9210   19.1670 C   0  0  0  0  0  2  0  0  0  0  0  0
  -31.3230  -10.5070   17.9050 C   0  0  0  0  0  2  0  0  0  0  0  0
  -29.8610  -11.0300   18.0180 C   0  0  0  0  0  2  0  0  0  0  0  0
  -29.7020  -11.9680   19.2600 C   0  0  0  0  0  3  0  0  0  0  0  0
  -30.1550  -10.8150   20.3600 C   0  0  0  0  0  2  0  0  0  0  0  0
  -31.5680  -10.5830   20.3840 N   0  0  0  0  0  0  0  0  0  0  0  0
  -33.3720  -11.4870   21.2880 O   0  0  0  0  0  0  0  0  0  0  0  0
  -31.4150  -10.5190   22.5810 N   0  0  0  0  0  0  0  0  0  0  0  0
  -30.7460   -9.8930   22.1630 H   0  0  0  0  0  0  0  0  0  0  0  0
  -27.2130  -14.1940   20.4150 C   0  0  0  0  0  3  0  0  0  0  0  0
  -26.3350  -13.3030   21.5740 C   0  0  2  0  0  0  0  0  0  0  0  0
  -26.9860  -11.0450   20.8930 C   0  0  0  0  0  2  0  0  0  0  0  0
  -28.2740  -12.7200   19.2760 N   0  0  0  0  0  2  0  0  0  0  0  0
  -27.8770  -11.1570   19.7040 N   0  0  0  0  0  2  0  0  0  0  0  0
  -25.9190   -9.5670   20.6650 C   0  0  0  0  0  0  0  0  0  0  0  0
  -25.9220   -8.3720   21.4890 C   0  0  0  0  0  3  0  0  0  0  0  0
  -24.8450   -7.4300   21.7240 C   0  0  0  0  0  3  0  0  0  0  0  0
  -23.5290   -7.5940   21.2150 C   0  0  0  0  0  0  0  0  0  0  0  0
  -23.4190   -8.7180   20.3770 C   0  0  0  0  0  3  0  0  0  0  0  0
  -24.5540   -9.5510   20.0520 C   0  0  0  0  0  3  0  0  0  0  0  0
  -22.4180   -6.7470   21.3940 O   0  0  0  0  0  0  0  0  0  0  0  0
  -22.1290   -6.0460   22.5620 C   0  0  0  0  0  0  0  0  0  0  0  0
  -21.5960   -6.7190   23.6800 C   0  0  0  0  0  3  0  0  0  0  0  0
  -21.2850   -6.0160   24.8680 C   0  0  0  0  0  3  0  0  0  0  0  0
  -21.4670   -4.6230   24.9390 C   0  0  0  0  0  0  0  0  0  0  0  0
  -21.9710   -3.9320   23.8230 C   0  0  0  0  0  3  0  0  0  0  0  0
  -22.2770   -4.6350   22.6330 C   0  0  0  0  0  0  0  0  0  0  0  0
  -22.7260   -3.9360   21.5620 F   0  0  0  0  0  0  0  0  0  0  0  0
  -21.1950   -3.9460   26.0850 F   0  0  0  0  0  0  0  0  0  0  0  0
  -24.9310  -14.0290   21.8400 C   0  0  0  0  0  0  0  0  0  0  0  0
  -23.9440  -13.5220   22.6110 N   0  0  0  0  0  0  0  0  0  0  0  0
  -24.5210  -14.7790   20.9590 O   0  0  0  0  0  0  0  0  0  0  0  0
  -24.0370  -12.5990   23.0130 H   0  0  0  0  0  0  0  0  0  0  0  0
  -23.0930  -14.0390   22.7750 H   0  0  0  0  0  0  0  0  0  0  0  0
  -27.2170  -15.4950   20.6540 N   0  0  0  0  0  2  0  0  0  0  0  0
  -26.6030  -15.8490   21.3640 H   0  0  0  0  0  0  0  0  0  0  0  0
  -27.1620  -16.0680   19.8280 H   0  0  0  0  0  0  0  0  0  0  0  0
  -29.2670  -19.8430   21.6150 C   0  0  0  0  0 15  0  0  0  0  0  0
  -30.0830  -22.0550   21.6830 O   0  0  0  0  0  1  0  0  0  0  0  0
  -28.4250  -30.3990   23.8320 C   0  0  0  0  0  0  0  0  0  0  0  0
  -29.8860  -23.9060   21.5720 C   0  0  0  0  0  0  0  0  0  0  0  0
  -27.3360  -29.0490   22.1240 C   0  0  0  0  0  3  0  0  0  0  0  0
  -28.6040  -26.9610   21.0500 C   0  0  0  0  0  0  0  0  0  0  0  0
  -29.8210  -28.4580   22.5650 C   0  0  0  0  0  2  0  0  0  0  0  0
  -29.6450  -26.9000   21.9670 C   0  0  0  0  0  0  0  0  0  0  0  0
  -30.2750  -25.4320   22.1670 C   0  0  0  0  0  3  0  0  0  0  0  0
  -29.0550  -24.4730   20.5360 C   0  0  0  0  0  3  0  0  0  0  0  0
  -28.4460  -25.7780   20.3080 C   0  0  0  0  0  3  0  0  0  0  0  0
  -27.6900  -28.2060   20.8550 C   0  0  0  0  0  2  0  0  0  0  0  0
  -28.5780  -29.3660   22.8900 N   0  0  0  0  0  0  0  0  0  0  0  0
  -27.3160  -30.9130   24.0920 O   0  0  0  0  0  0  0  0  0  0  0  0
  -26.3060  -28.3030   23.0200 C   0  0  0  0  0  0  0  0  0  0  0  0
  -25.1960  -27.7870   22.4580 N   0  0  0  0  0  0  0  0  0  0  0  0
  -26.5280  -28.1890   24.2290 O   0  0  0  0  0  0  0  0  0  0  0  0
  -25.0470  -27.9260   21.4690 H   0  0  0  0  0  0  0  0  0  0  0  0
  -22.0440  -25.9920   22.1360 C   0  0  0  0  0  0  0  0  0  0  0  0
  -24.2160  -26.9510   23.1660 C   0  0  0  0  0  3  0  0  0  0  0  0
  -24.6970  -25.4830   23.2320 C   0  0  0  0  0  2  0  0  0  0  0  0
  -24.1700  -24.6220   22.0770 C   0  0  0  0  0  2  0  0  0  0  0  0
  -22.6400  -24.5960   22.0930 C   0  0  0  0  0  2  0  0  0  0  0  0
  -22.7910  -27.0990   22.6210 C   0  0  0  0  0  0  0  0  0  0  0  0
  -22.1960  -28.3800   22.6120 C   0  0  0  0  0  3  0  0  0  0  0  0
  -20.8860  -28.5630   22.1280 C   0  0  0  0  0  3  0  0  0  0  0  0
  -20.1500  -27.4610   21.6560 C   0  0  0  0  0  3  0  0  0  0  0  0
  -20.7280  -26.1790   21.6660 C   0  0  0  0  0  3  0  0  0  0  0  0
  -29.6080  -31.0100   24.6500 C   0  0  0  0  0  3  0  0  0  0  0  0
  -29.4810  -32.4950   24.6900 N   0  0  0  0  0  0  0  0  0  0  0  0
  -30.1150  -33.3720   23.8960 C   0  0  0  0  0  0  0  0  0  0  0  0
  -30.9080  -33.0130   23.0230 O   0  0  0  0  0  0  0  0  0  0  0  0
  -28.7920  -32.8580   25.3310 H   0  0  0  0  0  0  0  0  0  0  0  0
  -28.8590  -35.3740   23.0020 C   0  0  0  0  0  1  0  0  0  0  0  0
  -29.8310  -34.8820   24.0880 C   0  0  0  0  0  3  0  0  0  0  0  0
  -31.8740  -35.5830   25.2670 C   0  0  0  0  0  1  0  0  0  0  0  0
  -31.0480  -35.7320   24.0700 N   0  0  0  0  0  0  0  0  0  0  0  0
  -30.7980  -36.7130   23.9820 H   0  0  0  0  0  0  0  0  0  0  0  0
  -29.6620  -30.4790   26.1380 C   0  0  1  0  0  0  0  0  0  0  0  0
  -28.2840  -30.4520   26.8450 C   0  0  0  0  0  1  0  0  0  0  0  0
  -30.2210  -29.0470   26.2040 C   0  0  0  0  0  1  0  0  0  0  0  0
  -30.6240  -31.3490   26.9810 C   0  0  0  0  0  1  0  0  0  0  0  0
  1  2  2  0
  2  6  1  0
  3  6  1  0
  4  7  1  0
  4  1  1  0
  4 31  1  0
  5  3  1  0
  6 16  1  0
  9  7  1  0
 11 57  1  0
 12 15  1  0
 12 13  1  0
 12 11  1  0
 14 12  1  0
 16 18  1  0
 17 16  1  0
 19 18  1  0
 20 28  1  0
 21 26  1  0
 22 23  1  0
 22 21  1  0
 23 24  1  0
 24 33  1  0
 24 25  1  0
 25 26  1  0
 26 20  1  0
 27 20  2  0
 28 19  1  0
 29 28  1  0
 30 55  1  0
 30 31  1  0
 30  5  1  0
 31  5  1  0
 31 50  1  1
 33 34  1  0
 34 32  1  0
 35 32  1  0
 35 36  1  0
 36 37  2  0
 38 41  1  0
 38 37  1  0
 39 38  2  0
 40 39  1  0
 40 35  2  0
 41 42  1  0
 42 47  2  0
 42 43  1  0
 43 44  2  0
 44 45  1  0
 45 49  1  0
 46 45  2  0
 47 46  1  0
 48 47  1  0
 50 51  1  0
 51 54  1  0
 51 53  1  0
 52 50  2  0
 55 56  1  0
 60 71  2  0
 61 59  1  0
 61 66  1  0
 62 70  1  0
 62 72  1  0
 63 65  1  0
 64 70  1  0
 65 66  2  0
 65 64  1  0
 67 61  2  0
 68 67  1  0
 68 63  2  0
 69 63  1  0
 69 62  1  0
 70 60  1  0
 72 74  2  0
 73 72  1  0
 75 73  1  0
 76 81  1  0
 77 73  1  0
 77 78  1  0
 79 80  1  0
 79 78  1  0
 80 76  1  0
 81 77  1  0
 82 81  2  0
 83 82  1  0
 84 85  1  0
 84 83  2  0
 85 76  2  0
 86 60  1  0
 86 87  1  0
 86 96  1  0
 87 90  1  0
 88 92  1  0
 88 87  1  0
 89 88  2  0
 92 91  1  0
 94 92  1  0
 94 93  1  0
 95 94  1  0
 96 98  1  6
 96 97  1  0
 96 99  1  0
M  ISO  4  20 100  28 100  58 101  59 101
M  END
>  <TORSDO>  (49) 
F 21

>  <SCORE>  (49) 
7.622

>  <name>  (49) 
48

>  <ligand_id>  (49) 
48

>  <original_smiles>  (49) 
[H]c1c([H])c([H])c2c(c1[H])C([H])([H])C([H])([H])C([H])([H])C2([H])N([H])C(=O)C1([H])N(C(=O)C([H])(N([H])C(=O)C([H])(N([H])C([H])([H])[H])C([H])([H])[H])C(C([H])([H])[H])(C([H])([H])[H])C([H])([H])[H])C([H])([H])c2c([H])c(OC([H])([H])C3([H])C([H])([H])c4c([H])c(N([H])C([H])([H])C([H])([H])N([H])C(=O)N5C([H])([H])C([H])([H])C([H])([H])C([H])(n6nc(-c7c([H])c([H])c(Oc8c([H])c([H])c(F)c([H])c8F)c([H])c7[H])c(C(=O)N([H])[H])c6N([H])[H])C5([H])[H])c([H])c([H])c4C([H])([H])C([H])([H])C3([H])[N+]([H])([H])[H])c([H])c([H])c2C1([H])[H]

>  <smiles>  (49) 
[H]c1c([H])c([H])c2c(c1[H])C([H])([H])C([H])([H])C([H])([H])C2([H])N([H])C(=O)C1([H])N(C(=O)C([H])(N([H])C(=O)C([H])(N([H])C([H])([H])[H])C([H])([H])[H])C(C([H])([H])[H])(C([H])([H])[H])C([H])([H])[H])C([H])([H])c2c([H])c(OC([H])([H])C3([H])C([H])([H])c4c([H])c(N([H])C([H])([H])C([H])([H])N([H])C(=O)N5C([H])([H])C([H])([H])C([H])([H])C([H])(n6nc(-c7c([H])c([H])c(Oc8c([H])c([H])c(F)c([H])c8F)c([H])c7[H])c(C(=O)N([H])[H])c6N([H])[H])C5([H])[H])c([H])c([H])c4C([H])([H])C([H])([H])C3([H])[N+]([H])([H])[H])c([H])c([H])c2C1([H])[H]

$$$$
49:0:0
     RDKit          3D

 97106  0  0  1  0  0  0  0  0999 V2000
  -29.4650  -21.7720   21.0890 C   0  0  0  0  0  3  0  0  0  0  0  0
  -28.8260  -24.0320   20.4500 C   0  0  0  0  0  3  0  0  0  0  0  0
  -30.2300  -22.7000   18.9690 C   0  0  0  0  0  3  0  0  0  0  0  0
  -28.7900  -22.9750   21.3810 C   0  0  0  0  0  0  0  0  0  0  0  0
  -30.1910  -21.6120   19.8840 C   0  0  0  0  0  0  0  0  0  0  0  0
  -29.5520  -23.9180   19.2510 C   0  0  0  0  0  0  0  0  0  0  0  0
  -31.1040  -18.4200   18.1340 C   0  0  0  0  0  2  0  0  0  0  0  0
  -32.6990  -18.8110   20.1260 C   0  0  0  0  0  2  0  0  0  0  0  0
  -30.1400  -19.4250   18.8000 C   0  0  0  0  0  2  0  0  0  0  0  0
  -31.6310  -19.7690   20.6830 C   0  0  0  0  0  2  0  0  0  0  0  0
  -32.1790  -17.8040   19.0720 C   0  0  0  0  0  3  0  0  0  0  0  0
  -30.8740  -20.4030   19.6010 N   0  0  0  0  0  0  0  0  0  0  0  0
  -32.5580  -15.3650   19.5400 C   0  0  0  0  0  0  0  0  0  0  0  0
  -32.4970  -12.8980   19.5100 C   0  0  0  0  0  2  0  0  0  0  0  0
  -31.6290  -12.4230   18.3270 C   0  0  0  0  0  2  0  0  0  0  0  0
  -30.1480  -12.3430   18.7450 C   0  0  0  0  0  2  0  0  0  0  0  0
  -29.6560  -13.6290   19.4610 C   0  0  0  0  0  3  0  0  0  0  0  0
  -30.6470  -14.0670   20.5640 C   0  0  0  0  0  2  0  0  0  0  0  0
  -31.9770  -14.2040   19.9510 N   0  0  0  0  0  0  0  0  0  0  0  0
  -33.6740  -15.3890   19.0130 O   0  0  0  0  0  0  0  0  0  0  0  0
  -31.8060  -16.4830   19.6290 N   0  0  0  0  0  0  0  0  0  0  0  0
  -30.8970  -16.3890   20.0550 H   0  0  0  0  0  0  0  0  0  0  0  0
  -27.3570  -14.4280   20.2930 C   0  0  0  0  0  0  0  0  0  0  0  0
  -26.2360  -13.7440   20.6790 C   0  0  0  0  0  0  0  0  0  0  0  0
  -26.5640  -12.3570   20.5760 C   0  0  0  0  0  0  0  0  0  0  0  0
  -28.3040  -13.4630   19.9850 N   0  0  0  0  0  0  0  0  0  0  0  0
  -27.8310  -12.2100   20.2110 N   0  0  0  0  0  0  0  0  0  0  0  0
  -25.7290  -11.1610   20.7490 C   0  0  0  0  0  0  0  0  0  0  0  0
  -25.9640  -10.2410   21.7930 C   0  0  0  0  0  3  0  0  0  0  0  0
  -25.1350   -9.1090   21.9510 C   0  0  0  0  0  3  0  0  0  0  0  0
  -24.0570   -8.8900   21.0600 C   0  0  0  0  0  0  0  0  0  0  0  0
  -23.8430   -9.7980   20.0080 C   0  0  0  0  0  3  0  0  0  0  0  0
  -24.6700  -10.9200   19.8500 C   0  0  0  0  0  3  0  0  0  0  0  0
  -23.2170   -7.8050   21.1190 O   0  0  0  0  0  0  0  0  0  0  0  0
  -22.6780   -7.3750   22.3050 C   0  0  0  0  0  0  0  0  0  0  0  0
  -21.8680   -8.2130   23.1020 C   0  0  0  0  0  3  0  0  0  0  0  0
  -21.2780   -7.7090   24.2780 C   0  0  0  0  0  3  0  0  0  0  0  0
  -21.4880   -6.3700   24.6550 C   0  0  0  0  0  0  0  0  0  0  0  0
  -22.2900   -5.5320   23.8600 C   0  0  0  0  0  3  0  0  0  0  0  0
  -22.8810   -6.0330   22.6860 C   0  0  0  0  0  0  0  0  0  0  0  0
  -23.6350   -5.2170   21.9120 F   0  0  0  0  0  0  0  0  0  0  0  0
  -20.9150   -5.8820   25.7810 F   0  0  0  0  0  0  0  0  0  0  0  0
  -24.9030  -14.3380   21.0310 C   0  0  0  0  0  0  0  0  0  0  0  0
  -24.1650  -13.6990   21.9330 N   0  0  0  0  0  0  0  0  0  0  0  0
  -24.5270  -15.4030   20.5410 O   0  0  0  0  0  0  0  0  0  0  0  0
  -24.4820  -12.8360   22.3490 H   0  0  0  0  0  0  0  0  0  0  0  0
  -23.2730  -14.0800   22.2120 H   0  0  0  0  0  0  0  0  0  0  0  0
  -27.6460  -15.7820   20.1600 N   0  0  0  0  0  0  0  0  0  0  0  0
  -26.9500  -16.5010   20.3210 H   0  0  0  0  0  0  0  0  0  0  0  0
  -28.5200  -16.1500   19.8040 H   0  0  0  0  0  0  0  0  0  0  0  0
  -28.5240  -22.1430   23.7530 C   0  0  0  0  0  1  0  0  0  0  0  0
  -26.5150  -23.0600   22.4970 C   0  0  0  0  0  1  0  0  0  0  0  0
  -28.0370  -23.1440   22.6940 C   0  0  0  0  0  3  0  0  0  0  0  0
  -29.5250  -25.0100   18.4060 O   0  0  0  0  0  0  0  0  0  0  0  0
  -30.7640  -25.4510   17.8490 C   0  0  0  0  0  2  0  0  0  0  0  0
  -30.9160  -26.9870   18.0110 C   0  0  0  0  0  2  0  0  0  0  0  0
  -30.0810  -27.7250   17.1090 O   0  0  0  0  0  0  0  0  0  0  0  0
  -25.0530  -27.4580   22.1790 C   0  0  0  0  0  0  0  0  0  0  0  0
  -28.7520  -27.7910   17.4550 C   0  0  0  0  0  0  0  0  0  0  0  0
  -24.2560  -27.3810   19.8370 C   0  0  0  0  0  3  0  0  0  0  0  0
  -25.9980  -27.9330   18.0560 C   0  0  0  0  0  0  0  0  0  0  0  0
  -26.4410  -28.5680   20.4320 C   0  0  0  0  0  2  0  0  0  0  0  0
  -26.9450  -28.2050   19.0510 C   0  0  0  0  0  0  0  0  0  0  0  0
  -28.3270  -28.1340   18.7580 C   0  0  0  0  0  3  0  0  0  0  0  0
  -27.7910  -27.5340   16.4600 C   0  0  0  0  0  3  0  0  0  0  0  0
  -26.4160  -27.5930   16.7550 C   0  0  0  0  0  3  0  0  0  0  0  0
  -24.5410  -28.0210   18.4520 C   0  0  0  0  0  2  0  0  0  0  0  0
  -25.2680  -27.7750   20.8700 N   0  0  0  0  0  0  0  0  0  0  0  0
  -24.0150  -26.8850   22.5370 O   0  0  0  0  0  0  0  0  0  0  0  0
  -24.1300  -25.8500   19.6590 C   0  0  0  0  0  0  0  0  0  0  0  0
  -23.0100  -25.4070   19.0660 N   0  0  0  0  0  0  0  0  0  0  0  0
  -25.0340  -25.0950   20.0240 O   0  0  0  0  0  0  0  0  0  0  0  0
  -22.3130  -26.0910   18.8070 H   0  0  0  0  0  0  0  0  0  0  0  0
  -20.5190  -23.2470   17.5870 C   0  0  0  0  0  0  0  0  0  0  0  0
  -22.6920  -24.0140   18.7580 C   0  0  0  0  0  3  0  0  0  0  0  0
  -23.4250  -23.5450   17.4800 C   0  0  0  0  0  2  0  0  0  0  0  0
  -22.5890  -23.7130   16.2080 C   0  0  0  0  0  2  0  0  0  0  0  0
  -21.2820  -22.9210   16.3140 C   0  0  0  0  0  2  0  0  0  0  0  0
  -21.1780  -23.7740   18.7290 C   0  0  0  0  0  0  0  0  0  0  0  0
  -20.4170  -24.0910   19.8750 C   0  0  0  0  0  3  0  0  0  0  0  0
  -19.0250  -23.8880   19.8920 C   0  0  0  0  0  3  0  0  0  0  0  0
  -18.3790  -23.3510   18.7650 C   0  0  0  0  0  3  0  0  0  0  0  0
  -19.1260  -23.0270   17.6190 C   0  0  0  0  0  3  0  0  0  0  0  0
  -26.0880  -27.8210   23.2890 C   0  0  0  0  0  3  0  0  0  0  0  0
  -25.4800  -28.8520   24.1410 N   0  0  0  0  0  0  0  0  0  0  0  0
  -25.7230  -30.1660   24.0370 C   0  0  0  0  0  0  0  0  0  0  0  0
  -26.5500  -30.6340   23.2490 O   0  0  0  0  0  0  0  0  0  0  0  0
  -24.7520  -28.5460   24.7700 H   0  0  0  0  0  0  0  0  0  0  0  0
  -23.7680  -31.7440   24.1560 C   0  0  0  0  0  1  0  0  0  0  0  0
  -24.9200  -31.1100   24.9520 C   0  0  0  0  0  3  0  0  0  0  0  0
  -26.7030  -31.6680   26.5460 C   0  0  0  0  0  1  0  0  0  0  0  0
  -25.7450  -32.1740   25.5660 N   0  0  0  0  0  0  0  0  0  0  0  0
  -25.1580  -32.8640   26.0250 H   0  0  0  0  0  0  0  0  0  0  0  0
  -26.5390  -26.5790   24.1510 C   0  0  1  0  0  0  0  0  0  0  0  0
  -25.3610  -25.7300   24.6820 C   0  0  0  0  0  1  0  0  0  0  0  0
  -27.4580  -25.6490   23.3250 C   0  0  0  0  0  1  0  0  0  0  0  0
  -27.3700  -27.0570   25.3650 C   0  0  0  0  0  1  0  0  0  0  0  0
  1  4  1  0
  2  4  2  0
  3  6  2  0
  3  5  1  0
  4 53  1  0
  5  1  2  0
  6  2  1  0
  7  9  1  0
  7 11  1  0
  8 10  1  0
  9 12  1  0
 11 21  1  0
 11  8  1  0
 12  5  1  0
 12 10  1  0
 13 21  1  0
 13 19  1  0
 14 19  1  0
 15 16  1  0
 15 14  1  0
 17 16  1  0
 17 26  1  0
 17 18  1  0
 19 18  1  0
 20 13  2  0
 21 22  1  0
 23 24  2  0
 24 43  1  0
 25 24  1  0
 25 28  1  0
 26 27  1  0
 26 23  1  0
 27 25  2  0
 28 29  1  0
 29 30  2  0
 31 34  1  0
 31 30  1  0
 32 31  2  0
 33 32  1  0
 33 28  2  0
 34 35  1  0
 35 40  2  0
 35 36  1  0
 36 37  2  0
 37 38  1  0
 38 42  1  0
 39 38  2  0
 40 39  1  0
 41 40  1  0
 43 44  1  0
 44 47  1  0
 44 46  1  0
 45 43  2  0
 48 23  1  0
 48 49  1  0
 50 48  1  0
 52 53  1  0
 53 51  1  0
 54  6  1  0
 55 56  1  0
 55 54  1  0
 57 59  1  0
 57 56  1  0
 58 69  2  0
 59 64  1  0
 60 70  1  0
 60 68  1  0
 61 67  1  0
 61 63  1  0
 62 68  1  0
 63 62  1  0
 64 63  2  0
 65 66  1  0
 65 59  2  0
 66 61  2  0
 67 60  1  0
 68 58  1  0
 70 72  2  0
 71 70  1  0
 73 71  1  0
 74 83  2  0
 74 79  1  0
 75 71  1  0
 76 75  1  0
 77 78  1  0
 77 76  1  0
 78 74  1  0
 79 75  1  0
 79 80  2  0
 80 81  1  0
 82 81  2  0
 83 82  1  0
 84 58  1  0
 84 85  1  0
 84 94  1  0
 85 88  1  0
 86 85  1  0
 86 90  1  0
 87 86  2  0
 90 89  1  0
 90 92  1  0
 92 93  1  0
 92 91  1  0
 94 95  1  1
 94 97  1  0
 96 94  1  0
M  ISO  4  13 100  21 100  56 101  57 101
M  END
>  <TORSDO>  (50) 
F 21

>  <SCORE>  (50) 
-4.438

>  <name>  (50) 
49

>  <ligand_id>  (50) 
49

>  <original_smiles>  (50) 
[H]c1c([H])c([H])c2c(c1[H])C([H])([H])C([H])([H])C([H])([H])C2([H])N([H])C(=O)C1([H])N(C(=O)C([H])(N([H])C(=O)C([H])(N([H])C([H])([H])[H])C([H])([H])[H])C(C([H])([H])[H])(C([H])([H])[H])C([H])([H])[H])C([H])([H])c2c([H])c(OC([H])([H])C([H])([H])Oc3c([H])c(N4C([H])([H])C([H])([H])C([H])(N([H])C(=O)N5C([H])([H])C([H])([H])C([H])([H])C([H])(n6nc(-c7c([H])c([H])c(Oc8c([H])c([H])c(F)c([H])c8F)c([H])c7[H])c(C(=O)N([H])[H])c6N([H])[H])C5([H])[H])C([H])([H])C4([H])[H])c([H])c(C([H])(C([H])([H])[H])C([H])([H])[H])c3[H])c([H])c([H])c2C1([H])[H]

>  <smiles>  (50) 
[H]c1c([H])c([H])c2c(c1[H])C([H])([H])C([H])([H])C([H])([H])C2([H])N([H])C(=O)C1([H])N(C(=O)C([H])(N([H])C(=O)C([H])(N([H])C([H])([H])[H])C([H])([H])[H])C(C([H])([H])[H])(C([H])([H])[H])C([H])([H])[H])C([H])([H])c2c([H])c(OC([H])([H])C([H])([H])Oc3c([H])c(N4C([H])([H])C([H])([H])C([H])(N([H])C(=O)N5C([H])([H])C([H])([H])C([H])([H])C([H])(n6nc(-c7c([H])c([H])c(Oc8c([H])c([H])c(F)c([H])c8F)c([H])c7[H])c(C(=O)N([H])[H])c6N([H])[H])C5([H])[H])C([H])([H])C4([H])[H])c([H])c(C([H])(C([H])([H])[H])C([H])([H])[H])c3[H])c([H])c([H])c2C1([H])[H]

$$$$
50:0:0
     RDKit          3D

 95104  0  0  1  0  0  0  0  0999 V2000
  -27.5680  -21.2280   19.4100 C   0  0  0  0  0  2  0  0  0  0  0  0
  -28.7930  -21.0180   20.3060 C   0  0  0  0  0  3  0  0  0  0  0  0
  -28.3030  -23.6230   20.0660 C   0  0  0  0  0  3  0  0  0  0  0  0
  -29.4640  -22.4790   20.0830 C   0  0  0  0  0  3  0  0  0  0  0  0
  -27.1360  -22.7410   19.5090 C   0  0  0  0  0  3  0  0  0  0  0  0
  -30.8180  -15.0430   19.9850 C   0  0  0  0  0  0  0  0  0  0  0  0
  -30.5800  -12.7290   19.0290 C   0  0  0  0  0  2  0  0  0  0  0  0
  -29.5890  -12.7190   17.8470 C   0  0  0  0  0  2  0  0  0  0  0  0
  -28.1520  -12.5120   18.3600 C   0  0  0  0  0  2  0  0  0  0  0  0
  -27.8110  -13.4320   19.5620 C   0  0  0  0  0  3  0  0  0  0  0  0
  -28.9240  -13.4340   20.6300 C   0  0  0  0  0  2  0  0  0  0  0  0
  -30.1610  -13.8230   19.9470 N   0  0  0  0  0  0  0  0  0  0  0  0
  -32.0040  -15.0510   19.6350 O   0  0  0  0  0  0  0  0  0  0  0  0
  -29.7570  -18.7410   18.9350 C   0  0  0  0  0  2  0  0  0  0  0  0
  -28.9300  -18.3840   21.1420 C   0  0  0  0  0  2  0  0  0  0  0  0
  -30.5630  -17.3610   19.0440 C   0  0  0  0  0  2  0  0  0  0  0  0
  -29.7050  -16.9830   21.2500 C   0  0  0  0  0  2  0  0  0  0  0  0
  -29.5600  -19.5340   20.2670 C   0  0  0  0  0  3  0  0  0  0  0  0
  -30.1100  -16.2750   19.9920 N   0  0  0  0  0  0  0  0  0  0  0  0
  -25.4850  -13.9920   20.4680 C   0  0  0  0  0  0  0  0  0  0  0  0
  -24.4410  -13.2050   20.8690 C   0  0  0  0  0  0  0  0  0  0  0  0
  -24.8950  -11.8550   20.7560 C   0  0  0  0  0  0  0  0  0  0  0  0
  -26.5060  -13.1210   20.1300 N   0  0  0  0  0  0  0  0  0  0  0  0
  -26.1650  -11.8290   20.3690 N   0  0  0  0  0  0  0  0  0  0  0  0
  -24.1750  -10.5880   20.9370 C   0  0  0  0  0  0  0  0  0  0  0  0
  -24.5910   -9.6300   21.8890 C   0  0  0  0  0  3  0  0  0  0  0  0
  -23.8690   -8.4290   22.0590 C   0  0  0  0  0  3  0  0  0  0  0  0
  -22.7180   -8.1760   21.2750 C   0  0  0  0  0  0  0  0  0  0  0  0
  -22.3220   -9.1230   20.3140 C   0  0  0  0  0  3  0  0  0  0  0  0
  -23.0440  -10.3140   20.1430 C   0  0  0  0  0  3  0  0  0  0  0  0
  -21.9700   -7.0260   21.3540 O   0  0  0  0  0  0  0  0  0  0  0  0
  -21.8110   -6.3490   22.5350 C   0  0  0  0  0  0  0  0  0  0  0  0
  -21.2180   -6.9510   23.6670 C   0  0  0  0  0  3  0  0  0  0  0  0
  -21.0120   -6.1980   24.8390 C   0  0  0  0  0  3  0  0  0  0  0  0
  -21.3880   -4.8420   24.8810 C   0  0  0  0  0  0  0  0  0  0  0  0
  -21.9750   -4.2390   23.7540 C   0  0  0  0  0  3  0  0  0  0  0  0
  -22.1820   -4.9900   22.5840 C   0  0  0  0  0  0  0  0  0  0  0  0
  -22.7280   -4.3970   21.4940 F   0  0  0  0  0  0  0  0  0  0  0  0
  -21.1840   -4.1150   26.0050 F   0  0  0  0  0  0  0  0  0  0  0  0
  -23.0650  -13.6750   21.2420 C   0  0  0  0  0  0  0  0  0  0  0  0
  -22.3860  -12.9440   22.1200 N   0  0  0  0  0  0  0  0  0  0  0  0
  -22.6040  -14.7230   20.7920 O   0  0  0  0  0  0  0  0  0  0  0  0
  -22.7720  -12.0940   22.5020 H   0  0  0  0  0  0  0  0  0  0  0  0
  -21.4670  -13.2400   22.4140 H   0  0  0  0  0  0  0  0  0  0  0  0
  -25.6490  -15.3670   20.3390 N   0  0  0  0  0  0  0  0  0  0  0  0
  -24.9040  -16.0280   20.5300 H   0  0  0  0  0  0  0  0  0  0  0  0
  -26.4950  -15.8120   20.0010 H   0  0  0  0  0  0  0  0  0  0  0  0
  -31.2820  -24.0390   20.7740 C   0  0  0  0  0  1  0  0  0  0  0  0
  -30.2400  -22.6110   22.4790 C   0  0  0  0  0  1  0  0  0  0  0  0
  -30.5780  -22.7620   21.0400 N   0  0  1  0  0  4  0  0  0  0  0  0
  -31.2690  -22.0490   20.8580 H   0  0  0  0  0  0  0  0  0  0  0  0
  -24.7650  -22.7780   19.7750 C   0  0  0  0  0  1  0  0  0  0  0  0
  -26.0360  -22.8860   20.4030 O   0  0  0  0  0  0  0  0  0  0  0  0
  -28.4320  -25.0950   19.3060 C   0  0  0  0  0  2  0  0  0  0  0  0
  -28.3450  -26.4940   19.9070 O   0  0  0  0  0  0  0  0  0  0  0  0
  -24.5450  -31.8310   23.0940 C   0  0  0  0  0  0  0  0  0  0  0  0
  -27.2190  -27.3650   19.8550 C   0  0  0  0  0  0  0  0  0  0  0  0
  -23.3590  -30.4570   21.4240 C   0  0  0  0  0  3  0  0  0  0  0  0
  -24.8260  -28.9810   19.9230 C   0  0  0  0  0  0  0  0  0  0  0  0
  -25.8940  -30.8220   21.2260 C   0  0  0  0  0  2  0  0  0  0  0  0
  -25.9970  -29.4630   20.5250 C   0  0  0  0  0  0  0  0  0  0  0  0
  -27.1910  -28.6660   20.4770 C   0  0  0  0  0  3  0  0  0  0  0  0
  -26.0190  -26.9570   19.2330 C   0  0  0  0  0  3  0  0  0  0  0  0
  -24.8460  -27.7400   19.2670 C   0  0  0  0  0  3  0  0  0  0  0  0
  -23.5720  -29.8310   20.0190 C   0  0  0  0  0  2  0  0  0  0  0  0
  -24.6190  -31.0560   21.9710 N   0  0  0  0  0  0  0  0  0  0  0  0
  -23.4600  -32.0640   23.6490 O   0  0  0  0  0  0  0  0  0  0  0  0
  -22.7300  -29.3950   22.3600 C   0  0  0  0  0  0  0  0  0  0  0  0
  -21.4040  -29.2060   22.2600 N   0  0  0  0  0  0  0  0  0  0  0  0
  -23.4370  -28.7450   23.1340 O   0  0  0  0  0  0  0  0  0  0  0  0
  -20.8910  -29.7850   21.6090 H   0  0  0  0  0  0  0  0  0  0  0  0
  -18.0500  -27.9550   22.8170 C   0  0  0  0  0  0  0  0  0  0  0  0
  -20.6150  -28.2250   23.0100 C   0  0  0  0  0  3  0  0  0  0  0  0
  -20.7070  -26.8240   22.3610 C   0  0  0  0  0  2  0  0  0  0  0  0
  -19.5730  -26.5420   21.3700 C   0  0  0  0  0  2  0  0  0  0  0  0
  -18.2130  -26.6430   22.0680 C   0  0  0  0  0  2  0  0  0  0  0  0
  -19.1780  -28.7060   23.2440 C   0  0  0  0  0  0  0  0  0  0  0  0
  -18.9710  -29.9350   23.9070 C   0  0  0  0  0  3  0  0  0  0  0  0
  -17.6690  -30.4140   24.1460 C   0  0  0  0  0  3  0  0  0  0  0  0
  -16.5570  -29.6600   23.7330 C   0  0  0  0  0  3  0  0  0  0  0  0
  -16.7480  -28.4340   23.0740 C   0  0  0  0  0  3  0  0  0  0  0  0
  -25.8160  -32.4770   23.7260 C   0  0  0  0  0  3  0  0  0  0  0  0
  -26.3650  -31.6790   24.9720 C   0  0  1  0  0  0  0  0  0  0  0  0
  -25.2900  -31.3790   26.0450 C   0  0  0  0  0  1  0  0  0  0  0  0
  -26.9770  -30.3300   24.5320 C   0  0  0  0  0  1  0  0  0  0  0  0
  -27.5050  -32.4800   25.6460 C   0  0  0  0  0  1  0  0  0  0  0  0
  -25.4700  -33.8530   24.1110 N   0  0  0  0  0  0  0  0  0  0  0  0
  -25.7820  -34.9460   23.4010 C   0  0  0  0  0  0  0  0  0  0  0  0
  -26.4590  -34.9020   22.3690 O   0  0  0  0  0  0  0  0  0  0  0  0
  -24.8650  -33.9580   24.9100 H   0  0  0  0  0  0  0  0  0  0  0  0
  -24.0290  -36.7270   23.1030 C   0  0  0  0  0  1  0  0  0  0  0  0
  -25.2640  -36.3040   23.9150 C   0  0  0  0  0  3  0  0  0  0  0  0
  -27.3610  -37.1900   24.8340 C   0  0  0  0  0  1  0  0  0  0  0  0
  -26.2800  -37.3780   23.8710 N   0  0  0  0  0  0  0  0  0  0  0  0
  -25.8540  -38.2840   24.0460 H   0  0  0  0  0  0  0  0  0  0  0  0
  1  5  1  0
  2  1  1  0
  3 54  1  0
  3  4  1  0
  4  2  1  0
  4 50  1  0
  5  3  1  0
  5 53  1  0
  6 19  1  0
  7 12  1  0
  8  9  1  0
  8  7  1  0
 10  9  1  0
 10 23  1  0
 10 11  1  0
 12  6  1  0
 12 11  1  0
 13  6  2  0
 14 16  1  0
 15 17  1  0
 16 19  1  0
 18 14  1  0
 18  2  1  0
 18 15  1  0
 19 17  1  0
 20 21  2  0
 21 40  1  0
 22 21  1  0
 22 25  1  0
 23 24  1  0
 23 20  1  0
 24 22  2  0
 25 26  1  0
 26 27  2  0
 28 31  1  0
 28 27  1  0
 29 28  2  0
 30 29  1  0
 30 25  2  0
 31 32  1  0
 32 37  2  0
 32 33  1  0
 33 34  2  0
 34 35  1  0
 35 39  1  0
 36 35  2  0
 37 36  1  0
 38 37  1  0
 40 41  1  0
 41 44  1  0
 41 43  1  0
 42 40  2  0
 45 20  1  0
 45 46  1  0
 47 45  1  0
 48 50  1  0
 50 49  1  0
 50 51  1  6
 52 53  1  0
 54 55  1  0
 56 67  2  0
 57 55  1  0
 57 62  1  0
 58 66  1  0
 58 68  1  0
 59 65  1  0
 59 61  1  0
 60 66  1  0
 61 60  1  0
 62 61  2  0
 63 64  1  0
 63 57  2  0
 64 59  2  0
 65 58  1  0
 66 56  1  0
 68 70  2  0
 69 68  1  0
 71 69  1  0
 72 81  2  0
 72 77  1  0
 73 69  1  0
 73 77  1  0
 74 73  1  0
 75 76  1  0
 75 74  1  0
 76 72  1  0
 77 78  2  0
 78 79  1  0
 80 79  2  0
 81 80  1  0
 82 56  1  0
 82 87  1  0
 82 83  1  0
 83 86  1  1
 83 84  1  0
 85 83  1  0
 87 90  1  0
 88 92  1  0
 88 87  1  0
 89 88  2  0
 92 91  1  0
 94 92  1  0
 94 95  1  0
 94 93  1  0
M  ISO  4   6 100  19 100  54 101  55 101
M  END
>  <TORSDO>  (51) 
F 19

>  <SCORE>  (51) 
-13.821

>  <name>  (51) 
50

>  <ligand_id>  (51) 
50

>  <original_smiles>  (51) 
[H]c1c([H])c([H])c2c(c1[H])C([H])([H])C([H])([H])C([H])([H])C2([H])N([H])C(=O)C1([H])N(C(=O)C([H])(N([H])C(=O)C([H])(N([H])C([H])([H])[H])C([H])([H])[H])C(C([H])([H])[H])(C([H])([H])[H])C([H])([H])[H])C([H])([H])c2c([H])c(OC([H])([H])C3([H])C([H])(OC([H])([H])[H])C([H])([H])C([H])(C4([H])C([H])([H])C([H])([H])N(C(=O)N5C([H])([H])C([H])([H])C([H])([H])C([H])(n6nc(-c7c([H])c([H])c(Oc8c([H])c([H])c(F)c([H])c8F)c([H])c7[H])c(C(=O)N([H])[H])c6N([H])[H])C5([H])[H])C([H])([H])C4([H])[H])C3([H])[N+]([H])(C([H])([H])[H])C([H])([H])[H])c([H])c([H])c2C1([H])[H]

>  <smiles>  (51) 
[H]c1c([H])c([H])c2c(c1[H])C([H])([H])C([H])([H])C([H])([H])C2([H])N([H])C(=O)C1([H])N(C(=O)C([H])(N([H])C(=O)C([H])(N([H])C([H])([H])[H])C([H])([H])[H])C(C([H])([H])[H])(C([H])([H])[H])C([H])([H])[H])C([H])([H])c2c([H])c(OC([H])([H])C3([H])C([H])(OC([H])([H])[H])C([H])([H])C([H])(C4([H])C([H])([H])C([H])([H])N(C(=O)N5C([H])([H])C([H])([H])C([H])([H])C([H])(n6nc(-c7c([H])c([H])c(Oc8c([H])c([H])c(F)c([H])c8F)c([H])c7[H])c(C(=O)N([H])[H])c6N([H])[H])C5([H])[H])C([H])([H])C4([H])[H])C3([H])[N+]([H])(C([H])([H])[H])C([H])([H])[H])c([H])c([H])c2C1([H])[H]

$$$$
51:0:0
     RDKit          3D

 97107  0  0  1  0  0  0  0  0999 V2000
  -29.9540  -20.3410   20.8520 C   0  0  0  0  0  0  0  0  0  0  0  0
  -30.2710  -19.1950   20.0870 C   0  0  0  0  0  0  0  0  0  0  0  0
  -29.4270  -21.2760   20.0230 C   0  0  0  0  0  0  0  0  0  0  0  0
  -29.8430  -19.3700   18.7800 C   0  0  0  0  0  0  0  0  0  0  0  0
  -30.1850  -20.5330   22.3430 C   0  0  0  0  0  2  0  0  0  0  0  0
  -29.1050  -22.6590   20.5470 C   0  0  0  0  0  2  0  0  0  0  0  0
  -28.7580  -22.6390   22.0400 C   0  0  0  0  0  2  0  0  0  0  0  0
  -29.8750  -21.9600   22.8540 C   0  0  0  0  0  3  0  0  0  0  0  0
  -30.9820  -18.0100   20.7110 C   0  0  0  0  0  1  0  0  0  0  0  0
  -29.5560  -21.9750   24.3560 C   0  0  0  0  0  1  0  0  0  0  0  0
  -29.3140  -20.7810   18.7020 N   0  0  0  0  0  0  0  0  0  0  0  0
  -27.1880  -22.1530   17.7210 C   0  0  0  0  0  2  0  0  0  0  0  0
  -29.4810  -23.1930   17.5410 C   0  0  0  0  0  2  0  0  0  0  0  0
  -26.5950  -23.5260   17.0940 C   0  0  0  0  0  2  0  0  0  0  0  0
  -28.7670  -24.5110   16.9610 C   0  0  0  0  0  2  0  0  0  0  0  0
  -28.7420  -21.7750   17.6150 C   0  0  0  0  0  3  0  0  0  0  0  0
  -27.3080  -24.9060   17.4200 C   0  0  0  0  0  3  0  0  0  0  0  0
  -26.8310  -26.2610   16.8330 O   0  0  0  0  0  0  0  0  0  0  0  0
  -25.4730  -29.9740   23.0290 C   0  0  0  0  0  0  0  0  0  0  0  0
  -26.0940  -27.2580   17.5520 C   0  0  0  0  0  0  0  0  0  0  0  0
  -23.7310  -30.0060   21.2830 C   0  0  0  0  0  3  0  0  0  0  0  0
  -24.4440  -29.1830   18.9590 C   0  0  0  0  0  0  0  0  0  0  0  0
  -26.2040  -29.7580   20.6270 C   0  0  0  0  0  2  0  0  0  0  0  0
  -25.7620  -28.9690   19.3860 C   0  0  0  0  0  0  0  0  0  0  0  0
  -26.5920  -28.0330   18.6720 C   0  0  0  0  0  3  0  0  0  0  0  0
  -24.7760  -27.5590   17.1540 C   0  0  0  0  0  3  0  0  0  0  0  0
  -23.9640  -28.4940   17.8330 C   0  0  0  0  0  3  0  0  0  0  0  0
  -23.5820  -30.1560   19.7470 C   0  0  0  0  0  2  0  0  0  0  0  0
  -25.1670  -29.8950   21.6980 N   0  0  0  0  0  0  0  0  0  0  0  0
  -24.5970  -30.1550   23.8860 O   0  0  0  0  0  0  0  0  0  0  0  0
  -22.8630  -28.8160   21.7650 C   0  0  0  0  0  0  0  0  0  0  0  0
  -21.5290  -28.9890   21.7500 N   0  0  0  0  0  0  0  0  0  0  0  0
  -23.3900  -27.7580   22.1180 O   0  0  0  0  0  0  0  0  0  0  0  0
  -21.1700  -29.8860   21.4600 H   0  0  0  0  0  0  0  0  0  0  0  0
  -17.9750  -28.3650   22.0560 C   0  0  0  0  0  0  0  0  0  0  0  0
  -20.5320  -27.9790   22.1120 C   0  0  0  0  0  3  0  0  0  0  0  0
  -20.3010  -26.9820   20.9530 C   0  0  0  0  0  2  0  0  0  0  0  0
  -19.1390  -27.3800   20.0380 C   0  0  0  0  0  2  0  0  0  0  0  0
  -17.8360  -27.4730   20.8350 C   0  0  0  0  0  2  0  0  0  0  0  0
  -19.2420  -28.6150   22.6470 C   0  0  0  0  0  0  0  0  0  0  0  0
  -19.3190  -29.4770   23.7630 C   0  0  0  0  0  3  0  0  0  0  0  0
  -18.1620  -30.0830   24.2850 C   0  0  0  0  0  3  0  0  0  0  0  0
  -16.9080  -29.8210   23.7050 C   0  0  0  0  0  3  0  0  0  0  0  0
  -16.8170  -28.9600   22.5970 C   0  0  0  0  0  3  0  0  0  0  0  0
  -26.9440  -29.8610   23.5360 C   0  0  0  0  0  3  0  0  0  0  0  0
  -27.0720  -30.7100   24.7300 N   0  0  0  0  0  0  0  0  0  0  0  0
  -27.6850  -31.9020   24.7590 C   0  0  0  0  0  0  0  0  0  0  0  0
  -28.2670  -32.3760   23.7800 O   0  0  0  0  0  0  0  0  0  0  0  0
  -26.5680  -30.4120   25.5520 H   0  0  0  0  0  0  0  0  0  0  0  0
  -26.6130  -33.8230   25.9810 C   0  0  0  0  0  1  0  0  0  0  0  0
  -27.6490  -32.6910   26.0820 C   0  0  0  0  0  3  0  0  0  0  0  0
  -29.9270  -32.2390   26.8800 C   0  0  0  0  0  1  0  0  0  0  0  0
  -28.9610  -33.2550   26.4680 N   0  0  0  0  0  0  0  0  0  0  0  0
  -28.8570  -33.9210   27.2290 H   0  0  0  0  0  0  0  0  0  0  0  0
  -27.3740  -28.3790   23.8680 C   0  0  1  0  0  0  0  0  0  0  0  0
  -26.3880  -27.6390   24.8020 C   0  0  0  0  0  1  0  0  0  0  0  0
  -27.5120  -27.5440   22.5740 C   0  0  0  0  0  1  0  0  0  0  0  0
  -28.7650  -28.3750   24.5440 C   0  0  0  0  0  1  0  0  0  0  0  0
  -30.0510  -18.1410   17.7400 C   0  0  0  0  0  2  0  0  0  0  0  0
  -31.2960  -15.6770   18.0920 C   0  0  0  0  0  0  0  0  0  0  0  0
  -31.5340  -13.1730   17.8120 C   0  0  0  0  0  2  0  0  0  0  0  0
  -30.3540  -12.6180   16.9780 C   0  0  0  0  0  2  0  0  0  0  0  0
  -29.1360  -12.3220   17.8750 C   0  0  0  0  0  2  0  0  0  0  0  0
  -28.8350  -13.4760   18.8660 C   0  0  0  0  0  3  0  0  0  0  0  0
  -30.1120  -13.9690   19.5810 C   0  0  0  0  0  2  0  0  0  0  0  0
  -31.0540  -14.3830   18.5340 N   0  0  0  0  0  0  0  0  0  0  0  0
  -32.3090  -15.8780   17.4120 O   0  0  0  0  0  0  0  0  0  0  0  0
  -30.2990  -16.6670   18.2520 N   0  0  0  0  0  0  0  0  0  0  0  0
  -29.5230  -16.3290   18.7960 H   0  0  0  0  0  0  0  0  0  0  0  0
  -27.2090  -13.9170   20.7930 C   0  0  0  0  0  0  0  0  0  0  0  0
  -26.2050  -13.1650   21.3390 C   0  0  0  0  0  0  0  0  0  0  0  0
  -26.2130  -11.9220   20.6370 C   0  0  0  0  0  0  0  0  0  0  0  0
  -27.7760  -13.1290   19.8050 N   0  0  0  0  0  0  0  0  0  0  0  0
  -27.2090  -11.8950   19.7580 N   0  0  0  0  0  0  0  0  0  0  0  0
  -25.2940  -10.7790   20.7130 C   0  0  0  0  0  0  0  0  0  0  0  0
  -25.5970   -9.6370   21.4860 C   0  0  0  0  0  3  0  0  0  0  0  0
  -24.6870   -8.5600   21.5580 C   0  0  0  0  0  3  0  0  0  0  0  0
  -23.4610   -8.6170   20.8550 C   0  0  0  0  0  0  0  0  0  0  0  0
  -23.1740   -9.7470   20.0680 C   0  0  0  0  0  3  0  0  0  0  0  0
  -24.0830  -10.8160   19.9940 C   0  0  0  0  0  3  0  0  0  0  0  0
  -22.5270   -7.6090   20.8480 O   0  0  0  0  0  0  0  0  0  0  0  0
  -21.9540   -7.1490   22.0060 C   0  0  0  0  0  0  0  0  0  0  0  0
  -21.2090   -7.9960   22.8540 C   0  0  0  0  0  3  0  0  0  0  0  0
  -20.5770   -7.4680   23.9990 C   0  0  0  0  0  3  0  0  0  0  0  0
  -20.6810   -6.0950   24.2910 C   0  0  0  0  0  0  0  0  0  0  0  0
  -21.4200   -5.2490   23.4440 C   0  0  0  0  0  3  0  0  0  0  0  0
  -22.0510   -5.7750   22.3030 C   0  0  0  0  0  0  0  0  0  0  0  0
  -22.7420   -4.9520   21.4790 F   0  0  0  0  0  0  0  0  0  0  0  0
  -20.0700   -5.5850   25.3850 F   0  0  0  0  0  0  0  0  0  0  0  0
  -25.2260  -13.6150   22.3850 C   0  0  0  0  0  0  0  0  0  0  0  0
  -24.7610  -12.6940   23.2230 N   0  0  0  0  0  0  0  0  0  0  0  0
  -24.9070  -14.7970   22.4950 O   0  0  0  0  0  0  0  0  0  0  0  0
  -25.0370  -11.7270   23.1440 H   0  0  0  0  0  0  0  0  0  0  0  0
  -24.1170  -12.9600   23.9540 H   0  0  0  0  0  0  0  0  0  0  0  0
  -27.6690  -15.2090   21.0310 N   0  0  0  0  0  0  0  0  0  0  0  0
  -27.2310  -15.8120   21.7200 H   0  0  0  0  0  0  0  0  0  0  0  0
  -28.3800  -15.6820   20.4900 H   0  0  0  0  0  0  0  0  0  0  0  0
  1  5  1  0
  2  9  1  0
  2  1  1  0
  3  6  1  0
  3  1  2  0
  4  2  2  0
  5  8  1  0
  6  7  1  0
  7  8  1  0
  8 10  1  0
 11  4  1  0
 11  3  1  0
 14 17  1  0
 14 12  1  0
 15 17  1  0
 15 13  1  0
 16 13  1  0
 16 12  1  0
 16 11  1  0
 17 18  1  0
 18 20  1  0
 19 30  2  0
 20 25  1  0
 21 29  1  0
 21 31  1  0
 22 24  1  0
 22 28  1  0
 23 29  1  0
 24 23  1  0
 25 24  2  0
 26 20  2  0
 26 27  1  0
 27 22  2  0
 28 21  1  0
 29 19  1  0
 31 33  2  0
 32 31  1  0
 34 32  1  0
 35 44  2  0
 35 40  1  0
 36 32  1  0
 36 40  1  0
 37 36  1  0
 38 39  1  0
 38 37  1  0
 39 35  1  0
 40 41  2  0
 41 42  1  0
 43 42  2  0
 44 43  1  0
 45 19  1  0
 45 55  1  0
 45 46  1  0
 46 47  1  0
 46 49  1  0
 47 51  1  0
 48 47  2  0
 51 50  1  0
 51 53  1  0
 53 52  1  0
 53 54  1  0
 55 58  1  1
 55 56  1  0
 57 55  1  0
 59 68  1  0
 59  4  1  0
 60 68  1  0
 60 66  1  0
 61 66  1  0
 62 61  1  0
 62 63  1  0
 64 63  1  0
 64 65  1  0
 64 73  1  0
 66 65  1  0
 67 60  2  0
 68 69  1  0
 70 95  1  0
 70 71  2  0
 71 90  1  0
 72 75  1  0
 72 71  1  0
 73 70  1  0
 74 73  1  0
 74 72  2  0
 75 76  1  0
 76 77  2  0
 78 77  1  0
 79 78  2  0
 80 79  1  0
 80 75  2  0
 81 78  1  0
 81 82  1  0
 82 87  2  0
 82 83  1  0
 83 84  2  0
 84 85  1  0
 85 89  1  0
 86 85  2  0
 87 86  1  0
 88 87  1  0
 90 92  2  0
 90 91  1  0
 91 94  1  0
 93 91  1  0
 95 96  1  0
 97 95  1  0
M  ISO  4  17 101  18 101  60 100  68 100
M  END
>  <TORSDO>  (52) 
F 18

>  <SCORE>  (52) 
-3.923

>  <name>  (52) 
51

>  <ligand_id>  (52) 
51

>  <original_smiles>  (52) 
[H]c1c([H])c([H])c2c(c1[H])C([H])([H])C([H])([H])C([H])([H])C2([H])N([H])C(=O)C1([H])N(C(=O)C([H])(N([H])C(=O)C([H])(N([H])C([H])([H])[H])C([H])([H])[H])C(C([H])([H])[H])(C([H])([H])[H])C([H])([H])[H])C([H])([H])c2c([H])c(OC3([H])C([H])([H])C([H])([H])C([H])(n4c(C([H])([H])N([H])C(=O)N5C([H])([H])C([H])([H])C([H])([H])C([H])(n6nc(-c7c([H])c([H])c(Oc8c([H])c([H])c(F)c([H])c8F)c([H])c7[H])c(C(=O)N([H])[H])c6N([H])[H])C5([H])[H])c(C([H])([H])[H])c5c4C([H])([H])C([H])([H])C([H])(C([H])([H])[H])C5([H])[H])C([H])([H])C3([H])[H])c([H])c([H])c2C1([H])[H]

>  <smiles>  (52) 
[H]c1c([H])c([H])c2c(c1[H])C([H])([H])C([H])([H])C([H])([H])C2([H])N([H])C(=O)C1([H])N(C(=O)C([H])(N([H])C(=O)C([H])(N([H])C([H])([H])[H])C([H])([H])[H])C(C([H])([H])[H])(C([H])([H])[H])C([H])([H])[H])C([H])([H])c2c([H])c(OC3([H])C([H])([H])C([H])([H])C([H])(n4c(C([H])([H])N([H])C(=O)N5C([H])([H])C([H])([H])C([H])([H])C([H])(n6nc(-c7c([H])c([H])c(Oc8c([H])c([H])c(F)c([H])c8F)c([H])c7[H])c(C(=O)N([H])[H])c6N([H])[H])C5([H])[H])c(C([H])([H])[H])c5c4C([H])([H])C([H])([H])C([H])(C([H])([H])[H])C5([H])[H])C([H])([H])C3([H])[H])c([H])c([H])c2C1([H])[H]

$$$$
52:0:0
     RDKit          3D

 96105  0  0  1  0  0  0  0  0999 V2000
  -28.9940  -18.1260   19.3120 C   0  0  0  0  0  3  0  0  0  0  0  0
  -30.3530  -18.5720   21.1990 C   0  0  0  0  0  3  0  0  0  0  0  0
  -28.6390  -19.5250   19.2240 C   0  0  0  0  0  0  0  0  0  0  0  0
  -29.0940  -20.5250   20.1590 C   0  0  0  0  0  0  0  0  0  0  0  0
  -29.8420  -17.5660   20.3120 C   0  0  0  0  0  0  0  0  0  0  0  0
  -30.0140  -19.9910   21.1220 C   0  0  0  0  0  0  0  0  0  0  0  0
  -27.6580  -19.9000   18.1240 C   0  0  0  0  0  1  0  0  0  0  0  0
  -30.7250  -14.9990   20.2050 C   0  0  0  0  0  0  0  0  0  0  0  0
  -30.6100  -12.6800   19.2200 C   0  0  0  0  0  2  0  0  0  0  0  0
  -29.6480  -12.6980   18.0080 C   0  0  0  0  0  2  0  0  0  0  0  0
  -28.1900  -12.4860   18.4640 C   0  0  0  0  0  2  0  0  0  0  0  0
  -27.8140  -13.3810   19.6740 C   0  0  0  0  0  3  0  0  0  0  0  0
  -28.8900  -13.3310   20.7810 C   0  0  0  0  0  2  0  0  0  0  0  0
  -30.1660  -13.7320   20.1700 N   0  0  0  0  0  0  0  0  0  0  0  0
  -31.8900  -15.1520   19.8210 O   0  0  0  0  0  0  0  0  0  0  0  0
  -29.8940  -16.0710   20.5600 N   0  0  0  0  0  0  0  0  0  0  0  0
  -29.0130  -15.7100   20.8950 H   0  0  0  0  0  0  0  0  0  0  0  0
  -25.4550  -13.9550   20.4990 C   0  0  0  0  0  0  0  0  0  0  0  0
  -24.3920  -13.1730   20.8580 C   0  0  0  0  0  0  0  0  0  0  0  0
  -24.8410  -11.8200   20.7510 C   0  0  0  0  0  0  0  0  0  0  0  0
  -26.4820  -13.0790   20.1880 N   0  0  0  0  0  0  0  0  0  0  0  0
  -26.1230  -11.7870   20.4040 N   0  0  0  0  0  0  0  0  0  0  0  0
  -24.1070  -10.5570   20.8980 C   0  0  0  0  0  0  0  0  0  0  0  0
  -24.5330   -9.5540   21.7980 C   0  0  0  0  0  3  0  0  0  0  0  0
  -23.7980   -8.3570   21.9370 C   0  0  0  0  0  3  0  0  0  0  0  0
  -22.6230   -8.1520   21.1740 C   0  0  0  0  0  0  0  0  0  0  0  0
  -22.2160   -9.1430   20.2630 C   0  0  0  0  0  3  0  0  0  0  0  0
  -22.9520  -10.3320   20.1230 C   0  0  0  0  0  3  0  0  0  0  0  0
  -21.8640   -7.0090   21.2220 O   0  0  0  0  0  0  0  0  0  0  0  0
  -21.7730   -6.2530   22.3630 C   0  0  0  0  0  0  0  0  0  0  0  0
  -21.2870   -6.7880   23.5750 C   0  0  0  0  0  3  0  0  0  0  0  0
  -21.1430   -5.9580   24.7040 C   0  0  0  0  0  3  0  0  0  0  0  0
  -21.4780   -4.5930   24.6220 C   0  0  0  0  0  0  0  0  0  0  0  0
  -21.9560   -4.0560   23.4140 C   0  0  0  0  0  3  0  0  0  0  0  0
  -22.1000   -4.8840   22.2870 C   0  0  0  0  0  0  0  0  0  0  0  0
  -22.5430   -4.3570   21.1200 F   0  0  0  0  0  0  0  0  0  0  0  0
  -21.3320   -3.7930   25.7050 F   0  0  0  0  0  0  0  0  0  0  0  0
  -23.0080  -13.6490   21.1890 C   0  0  0  0  0  0  0  0  0  0  0  0
  -22.2960  -12.9210   22.0400 N   0  0  0  0  0  0  0  0  0  0  0  0
  -22.5650  -14.7030   20.7330 O   0  0  0  0  0  0  0  0  0  0  0  0
  -22.6660  -12.0680   22.4310 H   0  0  0  0  0  0  0  0  0  0  0  0
  -21.3700  -13.2220   22.3080 H   0  0  0  0  0  0  0  0  0  0  0  0
  -25.6280  -15.3330   20.3860 N   0  0  0  0  0  0  0  0  0  0  0  0
  -24.8690  -15.9830   20.5530 H   0  0  0  0  0  0  0  0  0  0  0  0
  -26.4640  -15.7810   20.0370 H   0  0  0  0  0  0  0  0  0  0  0  0
  -28.3430  -21.9740   20.3590 C   0  0  0  0  0  3  0  0  0  0  0  0
  -29.4330  -24.3880   21.1790 C   0  0  0  0  0  2  0  0  0  0  0  0
  -28.9250  -23.4900   20.0770 C   0  0  0  0  0  3  0  0  0  0  0  0
  -28.1990  -24.9230   20.4700 C   0  0  0  0  0  3  0  0  0  0  0  0
  -28.5030  -26.3960   20.1560 O   0  0  0  0  0  0  0  0  0  0  0  0
  -24.7930  -31.8760   23.3250 C   0  0  0  0  0  0  0  0  0  0  0  0
  -27.4330  -27.3420   20.1460 C   0  0  0  0  0  0  0  0  0  0  0  0
  -23.6140  -30.5380   21.6220 C   0  0  0  0  0  3  0  0  0  0  0  0
  -25.0830  -29.0260   20.1580 C   0  0  0  0  0  0  0  0  0  0  0  0
  -26.1610  -30.8370   21.4860 C   0  0  0  0  0  2  0  0  0  0  0  0
  -26.2510  -29.4730   20.7900 C   0  0  0  0  0  0  0  0  0  0  0  0
  -27.4310  -28.6450   20.7680 C   0  0  0  0  0  3  0  0  0  0  0  0
  -26.2390  -26.9800   19.4850 C   0  0  0  0  0  3  0  0  0  0  0  0
  -25.0850  -27.7890   19.4960 C   0  0  0  0  0  3  0  0  0  0  0  0
  -23.8480  -29.9090   20.2230 C   0  0  0  0  0  2  0  0  0  0  0  0
  -24.8750  -31.1040   22.2000 N   0  0  0  0  0  0  0  0  0  0  0  0
  -23.7010  -32.1340   23.8520 O   0  0  0  0  0  0  0  0  0  0  0  0
  -22.9330  -29.4920   22.5390 C   0  0  0  0  0  0  0  0  0  0  0  0
  -21.6070  -29.3210   22.3970 N   0  0  0  0  0  0  0  0  0  0  0  0
  -23.6010  -28.8410   23.3470 O   0  0  0  0  0  0  0  0  0  0  0  0
  -21.1240  -29.9050   21.7270 H   0  0  0  0  0  0  0  0  0  0  0  0
  -18.2260  -28.1040   22.8370 C   0  0  0  0  0  0  0  0  0  0  0  0
  -20.7840  -28.3470   23.1180 C   0  0  0  0  0  3  0  0  0  0  0  0
  -20.8850  -26.9450   22.4760 C   0  0  0  0  0  2  0  0  0  0  0  0
  -19.7840  -26.6670   21.4490 C   0  0  0  0  0  2  0  0  0  0  0  0
  -18.4010  -26.7860   22.0960 C   0  0  0  0  0  2  0  0  0  0  0  0
  -19.3470  -28.8440   23.3010 C   0  0  0  0  0  0  0  0  0  0  0  0
  -19.1280  -30.0770   23.9520 C   0  0  0  0  0  3  0  0  0  0  0  0
  -17.8250  -30.5720   24.1410 C   0  0  0  0  0  3  0  0  0  0  0  0
  -16.7190  -29.8310   23.6890 C   0  0  0  0  0  3  0  0  0  0  0  0
  -16.9200  -28.5980   23.0450 C   0  0  0  0  0  3  0  0  0  0  0  0
  -26.0630  -32.4910   23.9880 C   0  0  0  0  0  3  0  0  0  0  0  0
  -25.7460  -33.8800   24.3560 N   0  0  0  0  0  0  0  0  0  0  0  0
  -26.0610  -34.9560   23.6220 C   0  0  0  0  0  0  0  0  0  0  0  0
  -26.7170  -34.8840   22.5800 O   0  0  0  0  0  0  0  0  0  0  0  0
  -25.1630  -34.0090   25.1690 H   0  0  0  0  0  0  0  0  0  0  0  0
  -24.3070  -36.7430   23.3520 C   0  0  0  0  0  1  0  0  0  0  0  0
  -25.5700  -36.3280   24.1240 C   0  0  0  0  0  3  0  0  0  0  0  0
  -27.7090  -37.2250   24.9310 C   0  0  0  0  0  1  0  0  0  0  0  0
  -26.5870  -37.3950   24.0120 N   0  0  0  0  0  0  0  0  0  0  0  0
  -26.1730  -38.3060   24.1870 H   0  0  0  0  0  0  0  0  0  0  0  0
  -26.5550  -31.6820   25.2530 C   0  0  1  0  0  0  0  0  0  0  0  0
  -25.4490  -31.4250   26.3010 C   0  0  0  0  0  1  0  0  0  0  0  0
  -27.1440  -30.3140   24.8370 C   0  0  0  0  0  1  0  0  0  0  0  0
  -27.6950  -32.4570   25.9540 C   0  0  0  0  0  1  0  0  0  0  0  0
  -27.5970  -21.8820   21.7160 C   0  0  0  0  0  2  0  0  0  0  0  0
  -26.4230  -22.6760   21.7640 O   0  0  0  0  0  0  0  0  0  0  0  0
  -25.9720  -22.4750   22.5790 H   0  0  0  0  0  0  0  0  0  0  0  0
  -30.4960  -20.9340   22.0030 O   0  0  0  0  0  0  0  0  0  0  0  0
  -31.2890  -21.7700   24.0630 C   0  0  0  0  0  1  0  0  0  0  0  0
  -31.1110  -20.5130   23.2080 C   0  0  0  0  0  2  0  0  0  0  0  0
  1  5  1  0
  3  1  2  0
  3  4  1  0
  4 46  1  0
  4  6  2  0
  5 16  1  0
  5  2  2  0
  6  2  1  0
  6 94  1  0
  7  3  1  0
  8 16  1  0
  9 14  1  0
 10 11  1  0
 10  9  1  0
 12 11  1  0
 12 21  1  0
 12 13  1  0
 14  8  1  0
 14 13  1  0
 15  8  2  0
 16 17  1  0
 18 19  2  0
 19 38  1  0
 20 19  1  0
 20 23  1  0
 21 22  1  0
 21 18  1  0
 22 20  2  0
 23 24  1  0
 24 25  2  0
 26 29  1  0
 26 25  1  0
 27 26  2  0
 28 27  1  0
 28 23  2  0
 29 30  1  0
 30 31  1  0
 31 32  2  0
 33 32  1  0
 33 37  1  0
 34 33  2  0
 35 30  2  0
 35 34  1  0
 36 35  1  0
 38 39  1  0
 39 42  1  0
 39 41  1  0
 40 38  2  0
 43 18  1  0
 43 44  1  0
 45 43  1  0
 46 91  1  0
 48 46  1  0
 48 49  1  0
 48 47  1  0
 49 50  1  0
 49 47  1  0
 51 62  2  0
 52 50  1  0
 52 57  1  0
 53 61  1  0
 53 63  1  0
 54 60  1  0
 54 56  1  0
 55 61  1  0
 56 55  1  0
 57 56  2  0
 58 59  1  0
 58 52  2  0
 59 54  2  0
 60 53  1  0
 61 51  1  0
 63 65  2  0
 64 63  1  0
 66 64  1  0
 67 76  2  0
 67 72  1  0
 68 64  1  0
 68 72  1  0
 69 68  1  0
 70 71  1  0
 70 69  1  0
 71 67  1  0
 72 73  2  0
 73 74  1  0
 75 74  2  0
 76 75  1  0
 77 51  1  0
 77 78  1  0
 77 87  1  0
 78 81  1  0
 79 83  1  0
 79 78  1  0
 80 79  2  0
 83 82  1  0
 85 83  1  0
 85 86  1  0
 85 84  1  0
 87 90  1  1
 87 88  1  0
 89 87  1  0
 91 92  1  0
 92 93  1  0
 94 96  1  0
 96 95  1  0
M  ISO  4   8 100  16 100  49 101  50 101
M  END
>  <TORSDO>  (53) 
F 22

>  <SCORE>  (53) 
-13.562

>  <name>  (53) 
52

>  <ligand_id>  (53) 
52

>  <original_smiles>  (53) 
[H]OC([H])([H])C([H])(c1c(OC([H])([H])C([H])([H])[H])c([H])c(N([H])C(=O)N2C([H])([H])C([H])([H])C([H])([H])C([H])(n3nc(-c4c([H])c([H])c(Oc5c([H])c([H])c(F)c([H])c5F)c([H])c4[H])c(C(=O)N([H])[H])c3N([H])[H])C2([H])[H])c([H])c1C([H])([H])[H])C1([H])C([H])([H])C1([H])Oc1c([H])c([H])c2c(c1[H])C([H])([H])N(C(=O)C([H])(N([H])C(=O)C([H])(N([H])C([H])([H])[H])C([H])([H])[H])C(C([H])([H])[H])(C([H])([H])[H])C([H])([H])[H])C([H])(C(=O)N([H])C1([H])c3c([H])c([H])c([H])c([H])c3C([H])([H])C([H])([H])C1([H])[H])C2([H])[H]

>  <smiles>  (53) 
[H]OC([H])([H])C([H])(c1c(OC([H])([H])C([H])([H])[H])c([H])c(N([H])C(=O)N2C([H])([H])C([H])([H])C([H])([H])C([H])(n3nc(-c4c([H])c([H])c(Oc5c([H])c([H])c(F)c([H])c5F)c([H])c4[H])c(C(=O)N([H])[H])c3N([H])[H])C2([H])[H])c([H])c1C([H])([H])[H])C1([H])C([H])([H])C1([H])Oc1c([H])c([H])c2c(c1[H])C([H])([H])N(C(=O)C([H])(N([H])C(=O)C([H])(N([H])C([H])([H])[H])C([H])([H])[H])C(C([H])([H])[H])(C([H])([H])[H])C([H])([H])[H])C([H])(C(=O)N([H])C1([H])c3c([H])c([H])c([H])c([H])c3C([H])([H])C([H])([H])C1([H])[H])C2([H])[H]

$$$$
53:0:0
     RDKit          3D

 95104  0  0  1  0  0  0  0  0999 V2000
  -29.1640  -20.6510   20.1310 C   0  0  0  0  0  3  0  0  0  0  0  0
  -29.7990  -22.1110   21.9670 C   0  0  0  0  0  3  0  0  0  0  0  0
  -29.5680  -19.4950   20.8590 C   0  0  0  0  0  0  0  0  0  0  0  0
  -30.0920  -19.6830   22.1640 C   0  0  0  0  0  0  0  0  0  0  0  0
  -29.2510  -21.9620   20.6770 C   0  0  0  0  0  0  0  0  0  0  0  0
  -30.2410  -20.9860   22.7080 C   0  0  0  0  0  0  0  0  0  0  0  0
  -30.5010  -18.4760   23.0010 C   0  0  0  0  0  1  0  0  0  0  0  0
  -29.9650  -17.7110   18.9540 C   0  0  0  0  0  2  0  0  0  0  0  0
  -29.3650  -18.0880   20.2830 C   0  0  0  0  0  3  0  0  0  0  0  0
  -30.4320  -16.9720   20.1920 C   0  0  0  0  0  3  0  0  0  0  0  0
  -30.8020  -14.4970   19.9700 C   0  0  0  0  0  0  0  0  0  0  0  0
  -30.4540  -12.2980   18.9040 C   0  0  0  0  0  2  0  0  0  0  0  0
  -29.4580  -12.4850   17.7400 C   0  0  0  0  0  2  0  0  0  0  0  0
  -28.0040  -12.3640   18.2420 C   0  0  0  0  0  2  0  0  0  0  0  0
  -27.7320  -13.2300   19.5020 C   0  0  0  0  0  3  0  0  0  0  0  0
  -28.8380  -13.0290   20.5640 C   0  0  0  0  0  2  0  0  0  0  0  0
  -30.1320  -13.3110   19.9230 N   0  0  0  0  0  0  0  0  0  0  0  0
  -31.9420  -14.6350   19.5160 O   0  0  0  0  0  0  0  0  0  0  0  0
  -30.0570  -15.5730   20.3220 N   0  0  0  0  0  0  0  0  0  0  0  0
  -29.1300  -15.3770   20.6640 H   0  0  0  0  0  0  0  0  0  0  0  0
  -25.3920  -13.8860   20.3450 C   0  0  0  0  0  0  0  0  0  0  0  0
  -24.3270  -13.1360   20.7650 C   0  0  0  0  0  0  0  0  0  0  0  0
  -24.7510  -11.7740   20.6970 C   0  0  0  0  0  0  0  0  0  0  0  0
  -26.4000  -12.9820   20.0500 N   0  0  0  0  0  0  0  0  0  0  0  0
  -26.0220  -11.7060   20.3200 N   0  0  0  0  0  0  0  0  0  0  0  0
  -24.0040  -10.5290   20.9120 C   0  0  0  0  0  0  0  0  0  0  0  0
  -24.4560   -9.5420   21.8160 C   0  0  0  0  0  3  0  0  0  0  0  0
  -23.7100   -8.3610   22.0190 C   0  0  0  0  0  3  0  0  0  0  0  0
  -22.4990   -8.1570   21.3190 C   0  0  0  0  0  0  0  0  0  0  0  0
  -22.0640   -9.1320   20.4030 C   0  0  0  0  0  3  0  0  0  0  0  0
  -22.8100  -10.3040   20.1970 C   0  0  0  0  0  3  0  0  0  0  0  0
  -21.7220   -7.0300   21.4330 O   0  0  0  0  0  0  0  0  0  0  0  0
  -21.6990   -6.2840   22.5850 C   0  0  0  0  0  0  0  0  0  0  0  0
  -21.3470   -6.8480   23.8300 C   0  0  0  0  0  3  0  0  0  0  0  0
  -21.2690   -6.0320   24.9750 C   0  0  0  0  0  3  0  0  0  0  0  0
  -21.5330   -4.6530   24.8770 C   0  0  0  0  0  0  0  0  0  0  0  0
  -21.8800   -4.0880   23.6370 C   0  0  0  0  0  3  0  0  0  0  0  0
  -21.9600   -4.9020   22.4940 C   0  0  0  0  0  0  0  0  0  0  0  0
  -22.2720   -4.3500   21.2970 F   0  0  0  0  0  0  0  0  0  0  0  0
  -21.4520   -3.8660   25.9760 F   0  0  0  0  0  0  0  0  0  0  0  0
  -22.9570  -13.6450   21.1140 C   0  0  0  0  0  0  0  0  0  0  0  0
  -22.2600  -12.9630   22.0160 N   0  0  0  0  0  0  0  0  0  0  0  0
  -22.5170  -14.6830   20.6210 O   0  0  0  0  0  0  0  0  0  0  0  0
  -22.6300  -12.1250   22.4390 H   0  0  0  0  0  0  0  0  0  0  0  0
  -21.3440  -13.2880   22.2900 H   0  0  0  0  0  0  0  0  0  0  0  0
  -25.5810  -15.2530   20.1700 N   0  0  0  0  0  0  0  0  0  0  0  0
  -24.8300  -15.9200   20.3070 H   0  0  0  0  0  0  0  0  0  0  0  0
  -26.4050  -15.6700   19.7550 H   0  0  0  0  0  0  0  0  0  0  0  0
  -28.8560  -23.0640   19.9290 O   0  0  0  0  0  0  0  0  0  0  0  0
  -27.9570  -24.0330   20.5230 C   0  0  0  0  0  2  0  0  0  0  0  0
  -28.5740  -25.3690   21.0620 C   0  0  0  0  0  2  0  0  0  0  0  0
  -28.5100  -26.5500   20.2190 O   0  0  0  0  0  0  0  0  0  0  0  0
  -24.5890  -31.7730   23.1870 C   0  0  0  0  0  0  0  0  0  0  0  0
  -27.3380  -27.2870   20.2340 C   0  0  0  0  0  0  0  0  0  0  0  0
  -23.4330  -30.3350   21.5430 C   0  0  0  0  0  3  0  0  0  0  0  0
  -24.9320  -28.7910   20.1710 C   0  0  0  0  0  0  0  0  0  0  0  0
  -25.9610  -30.7130   21.3890 C   0  0  0  0  0  2  0  0  0  0  0  0
  -26.0760  -29.3300   20.7750 C   0  0  0  0  0  0  0  0  0  0  0  0
  -27.2830  -28.5860   20.8010 C   0  0  0  0  0  3  0  0  0  0  0  0
  -26.1790  -26.7740   19.6170 C   0  0  0  0  0  3  0  0  0  0  0  0
  -24.9800  -27.5140   19.5870 C   0  0  0  0  0  3  0  0  0  0  0  0
  -23.6790  -29.6400   20.1770 C   0  0  0  0  0  2  0  0  0  0  0  0
  -24.6780  -30.9580   22.0970 N   0  0  0  0  0  0  0  0  0  0  0  0
  -23.4940  -32.0390   23.7010 O   0  0  0  0  0  0  0  0  0  0  0  0
  -22.7750  -29.3180   22.5030 C   0  0  0  0  0  0  0  0  0  0  0  0
  -21.4550  -29.1160   22.3520 N   0  0  0  0  0  0  0  0  0  0  0  0
  -23.4480  -28.7150   23.3420 O   0  0  0  0  0  0  0  0  0  0  0  0
  -20.9710  -29.6540   21.6460 H   0  0  0  0  0  0  0  0  0  0  0  0
  -18.0940  -27.8620   22.7800 C   0  0  0  0  0  0  0  0  0  0  0  0
  -20.6370  -28.1780   23.1200 C   0  0  0  0  0  3  0  0  0  0  0  0
  -20.7840  -26.7380   22.5760 C   0  0  0  0  0  2  0  0  0  0  0  0
  -19.7180  -26.3730   21.5380 C   0  0  0  0  0  2  0  0  0  0  0  0
  -18.3160  -26.5030   22.1380 C   0  0  0  0  0  2  0  0  0  0  0  0
  -19.1830  -28.6550   23.2270 C   0  0  0  0  0  0  0  0  0  0  0  0
  -18.9220  -29.9260   23.7840 C   0  0  0  0  0  3  0  0  0  0  0  0
  -17.6040  -30.4040   23.9030 C   0  0  0  0  0  3  0  0  0  0  0  0
  -16.5280  -29.6090   23.4730 C   0  0  0  0  0  3  0  0  0  0  0  0
  -16.7730  -28.3400   22.9170 C   0  0  0  0  0  3  0  0  0  0  0  0
  -25.8540  -32.4290   23.8230 C   0  0  0  0  0  3  0  0  0  0  0  0
  -25.5150  -33.8210   24.1470 N   0  0  0  0  0  0  0  0  0  0  0  0
  -25.8310  -34.8770   23.3850 C   0  0  0  0  0  0  0  0  0  0  0  0
  -26.5100  -34.7830   22.3580 O   0  0  0  0  0  0  0  0  0  0  0  0
  -24.9120  -33.9670   24.9420 H   0  0  0  0  0  0  0  0  0  0  0  0
  -24.0610  -36.6270   23.0220 C   0  0  0  0  0  1  0  0  0  0  0  0
  -25.3130  -36.2560   23.8340 C   0  0  0  0  0  3  0  0  0  0  0  0
  -27.4310  -37.1920   24.6510 C   0  0  0  0  0  1  0  0  0  0  0  0
  -26.3200  -37.3320   23.7130 N   0  0  0  0  0  0  0  0  0  0  0  0
  -25.8930  -38.2430   23.8600 H   0  0  0  0  0  0  0  0  0  0  0  0
  -26.3710  -31.6680   25.1060 C   0  0  1  0  0  0  0  0  0  0  0  0
  -25.2700  -31.4150   26.1640 C   0  0  0  0  0  1  0  0  0  0  0  0
  -26.9810  -30.3000   24.7210 C   0  0  0  0  0  1  0  0  0  0  0  0
  -27.5010  -32.4840   25.7780 C   0  0  0  0  0  1  0  0  0  0  0  0
  -30.8180  -21.0890   23.9560 O   0  0  0  0  0  0  0  0  0  0  0  0
  -32.0420  -22.1790   25.6950 C   0  0  0  0  0  1  0  0  0  0  0  0
  -31.2050  -22.3740   24.4290 C   0  0  0  0  0  2  0  0  0  0  0  0
  1  5  2  0
  1  3  1  0
  2  6  2  0
  3  4  2  0
  4  6  1  0
  4  7  1  0
  5  2  1  0
  6 93  1  0
  8 10  1  0
  8  9  1  0
  9  3  1  0
 10  9  1  0
 10 19  1  0
 11 19  1  0
 12 17  1  0
 13 14  1  0
 13 12  1  0
 15 14  1  0
 15 24  1  0
 15 16  1  0
 17 11  1  0
 17 16  1  0
 18 11  2  0
 19 20  1  0
 21 22  2  0
 22 41  1  0
 23 22  1  0
 23 26  1  0
 24 25  1  0
 24 21  1  0
 25 23  2  0
 26 27  1  0
 27 28  2  0
 29 32  1  0
 29 28  1  0
 30 29  2  0
 31 30  1  0
 31 26  2  0
 32 33  1  0
 33 34  1  0
 34 35  2  0
 36 35  1  0
 36 40  1  0
 37 36  2  0
 38 33  2  0
 38 37  1  0
 39 38  1  0
 41 42  1  0
 42 45  1  0
 42 44  1  0
 43 41  2  0
 46 47  1  0
 46 21  1  0
 48 46  1  0
 49 50  1  0
 49  5  1  0
 50 51  1  0
 52 54  1  0
 52 51  1  0
 53 64  2  0
 54 59  1  0
 55 63  1  0
 55 65  1  0
 56 62  1  0
 56 58  1  0
 57 63  1  0
 58 59  2  0
 58 57  1  0
 60 54  2  0
 61 60  1  0
 61 56  2  0
 62 55  1  0
 63 53  1  0
 65 67  2  0
 66 65  1  0
 68 66  1  0
 69 78  2  0
 69 74  1  0
 70 66  1  0
 70 74  1  0
 71 70  1  0
 72 73  1  0
 72 71  1  0
 73 69  1  0
 74 75  2  0
 75 76  1  0
 77 76  2  0
 78 77  1  0
 79 53  1  0
 79 80  1  0
 79 89  1  0
 80 83  1  0
 81 85  1  0
 81 80  1  0
 82 81  2  0
 85 84  1  0
 87 85  1  0
 87 88  1  0
 87 86  1  0
 89 92  1  1
 89 90  1  0
 91 89  1  0
 93 95  1  0
 95 94  1  0
M  ISO  4  11 100  19 100  51 101  52 101
M  END
>  <TORSDO>  (54) 
F 22

>  <SCORE>  (54) 
-10.966

>  <name>  (54) 
53

>  <ligand_id>  (54) 
53

>  <original_smiles>  (54) 
[H]c1c([H])c([H])c2c(c1[H])C([H])([H])C([H])([H])C([H])([H])C2([H])N([H])C(=O)C1([H])N(C(=O)C([H])(N([H])C(=O)C([H])(N([H])C([H])([H])[H])C([H])([H])[H])C(C([H])([H])[H])(C([H])([H])[H])C([H])([H])[H])C([H])([H])c2c([H])c(OC([H])([H])C([H])([H])Oc3c([H])c(OC([H])([H])C([H])([H])[H])c(C([H])([H])[H])c(C4([H])C([H])([H])C4([H])N([H])C(=O)N4C([H])([H])C([H])([H])C([H])([H])C([H])(n5nc(-c6c([H])c([H])c(Oc7c([H])c([H])c(F)c([H])c7F)c([H])c6[H])c(C(=O)N([H])[H])c5N([H])[H])C4([H])[H])c3[H])c([H])c([H])c2C1([H])[H]

>  <smiles>  (54) 
[H]c1c([H])c([H])c2c(c1[H])C([H])([H])C([H])([H])C([H])([H])C2([H])N([H])C(=O)C1([H])N(C(=O)C([H])(N([H])C(=O)C([H])(N([H])C([H])([H])[H])C([H])([H])[H])C(C([H])([H])[H])(C([H])([H])[H])C([H])([H])[H])C([H])([H])c2c([H])c(OC([H])([H])C([H])([H])Oc3c([H])c(OC([H])([H])C([H])([H])[H])c(C([H])([H])[H])c(C4([H])C([H])([H])C4([H])N([H])C(=O)N4C([H])([H])C([H])([H])C([H])([H])C([H])(n5nc(-c6c([H])c([H])c(Oc7c([H])c([H])c(F)c([H])c7F)c([H])c6[H])c(C(=O)N([H])[H])c5N([H])[H])C4([H])[H])c3[H])c([H])c([H])c2C1([H])[H]

$$$$
54:0:0
     RDKit          3D

 97106  0  0  1  0  0  0  0  0999 V2000
  -31.2860  -19.3590   19.2980 C   0  0  0  0  0  3  0  0  0  0  0  0
  -31.1320  -17.9750   19.6080 C   0  0  0  0  0  3  0  0  0  0  0  0
  -29.0830  -18.5210   20.7270 C   0  0  0  0  0  3  0  0  0  0  0  0
  -30.3510  -20.3630   19.6800 C   0  0  0  0  0  0  0  0  0  0  0  0
  -30.0170  -17.4740   20.3250 C   0  0  0  0  0  0  0  0  0  0  0  0
  -29.2340  -19.9510   20.4500 C   0  0  0  0  0  0  0  0  0  0  0  0
  -30.5740  -21.8200   19.2660 C   0  0  0  0  0  0  0  0  0  0  0  0
  -29.0100  -23.4580   20.2200 C   0  0  0  0  0  3  0  0  0  0  0  0
  -28.4560  -22.3280   21.2240 C   0  0  0  0  0  3  0  0  0  0  0  0
  -29.4900  -22.6310   19.0680 N   0  0  0  0  0  0  0  0  0  0  0  0
  -31.7210  -22.2240   19.0520 O   0  0  0  0  0  0  0  0  0  0  0  0
  -28.2550  -20.8910   20.8510 O   0  0  0  0  0  0  0  0  0  0  0  0
  -30.5960  -14.8500   20.3400 C   0  0  0  0  0  0  0  0  0  0  0  0
  -30.4170  -12.5380   19.3710 C   0  0  0  0  0  2  0  0  0  0  0  0
  -29.4760  -12.5860   18.1460 C   0  0  0  0  0  2  0  0  0  0  0  0
  -28.0090  -12.4050   18.5800 C   0  0  0  0  0  2  0  0  0  0  0  0
  -27.6340  -13.2980   19.7910 C   0  0  0  0  0  3  0  0  0  0  0  0
  -28.6970  -13.2390   20.9090 C   0  0  0  0  0  2  0  0  0  0  0  0
  -29.9850  -13.6080   20.3080 N   0  0  0  0  0  0  0  0  0  0  0  0
  -31.7820  -14.9250   20.0030 O   0  0  0  0  0  0  0  0  0  0  0  0
  -29.8210  -15.9960   20.5860 N   0  0  0  0  0  0  0  0  0  0  0  0
  -28.9020  -15.7600   20.9330 H   0  0  0  0  0  0  0  0  0  0  0  0
  -25.2560  -13.8910   20.5420 C   0  0  0  0  0  0  0  0  0  0  0  0
  -24.1880  -13.1210   20.9130 C   0  0  0  0  0  0  0  0  0  0  0  0
  -24.6430  -11.7670   20.8660 C   0  0  0  0  0  0  0  0  0  0  0  0
  -26.2920  -13.0080   20.2900 N   0  0  0  0  0  0  0  0  0  0  0  0
  -25.9310  -11.7240   20.5480 N   0  0  0  0  0  0  0  0  0  0  0  0
  -23.9090  -10.5070   21.0470 C   0  0  0  0  0  0  0  0  0  0  0  0
  -24.3210   -9.5390   21.9890 C   0  0  0  0  0  3  0  0  0  0  0  0
  -23.5870   -8.3460   22.1600 C   0  0  0  0  0  3  0  0  0  0  0  0
  -22.4250   -8.1110   21.3880 C   0  0  0  0  0  0  0  0  0  0  0  0
  -22.0290   -9.0680   20.4350 C   0  0  0  0  0  3  0  0  0  0  0  0
  -22.7650  -10.2530   20.2630 C   0  0  0  0  0  3  0  0  0  0  0  0
  -21.6630   -6.9700   21.4670 O   0  0  0  0  0  0  0  0  0  0  0  0
  -21.5770   -6.2420   22.6260 C   0  0  0  0  0  0  0  0  0  0  0  0
  -21.0510   -6.7920   23.8150 C   0  0  0  0  0  3  0  0  0  0  0  0
  -20.9170   -5.9870   24.9650 C   0  0  0  0  0  3  0  0  0  0  0  0
  -21.2980   -4.6320   24.9240 C   0  0  0  0  0  0  0  0  0  0  0  0
  -21.8150   -4.0810   23.7380 C   0  0  0  0  0  3  0  0  0  0  0  0
  -21.9510   -4.8840   22.5920 C   0  0  0  0  0  0  0  0  0  0  0  0
  -22.4320   -4.3410   21.4470 F   0  0  0  0  0  0  0  0  0  0  0  0
  -21.1610   -3.8570   26.0240 F   0  0  0  0  0  0  0  0  0  0  0  0
  -22.7960  -13.6050   21.1950 C   0  0  0  0  0  0  0  0  0  0  0  0
  -22.0660  -12.9080   22.0590 N   0  0  0  0  0  0  0  0  0  0  0  0
  -22.3630  -14.6380   20.6840 O   0  0  0  0  0  0  0  0  0  0  0  0
  -22.4280  -12.0720   22.4930 H   0  0  0  0  0  0  0  0  0  0  0  0
  -21.1330  -13.2180   22.2910 H   0  0  0  0  0  0  0  0  0  0  0  0
  -25.4270  -15.2630   20.3730 N   0  0  0  0  0  0  0  0  0  0  0  0
  -24.6580  -15.9150   20.4810 H   0  0  0  0  0  0  0  0  0  0  0  0
  -26.2640  -15.6960   20.0050 H   0  0  0  0  0  0  0  0  0  0  0  0
  -28.7700  -21.4270   16.9560 C   0  0  0  0  0  1  0  0  0  0  0  0
  -29.5750  -23.8180   16.8780 C   0  0  0  0  0  1  0  0  0  0  0  0
  -28.8550  -22.7580   17.7350 C   0  0  0  0  0  3  0  0  0  0  0  0
  -30.5490  -22.0490   22.7650 C   0  0  0  0  0  1  0  0  0  0  0  0
  -29.0640  -22.4300   22.6400 C   0  0  0  0  0  2  0  0  0  0  0  0
  -28.0760  -24.8160   19.9390 C   0  0  0  0  0  2  0  0  0  0  0  0
  -28.3520  -26.2780   20.2940 O   0  0  0  0  0  0  0  0  0  0  0  0
  -24.6750  -31.8580   23.2970 C   0  0  0  0  0  0  0  0  0  0  0  0
  -27.2860  -27.2310   20.2250 C   0  0  0  0  0  0  0  0  0  0  0  0
  -23.4910  -30.4870   21.6270 C   0  0  0  0  0  3  0  0  0  0  0  0
  -24.9510  -28.9410   20.1980 C   0  0  0  0  0  0  0  0  0  0  0  0
  -26.0440  -30.7630   21.4930 C   0  0  0  0  0  2  0  0  0  0  0  0
  -26.1230  -29.3860   20.8250 C   0  0  0  0  0  0  0  0  0  0  0  0
  -27.2920  -28.5450   20.8260 C   0  0  0  0  0  3  0  0  0  0  0  0
  -26.0850  -26.8780   19.5620 C   0  0  0  0  0  3  0  0  0  0  0  0
  -24.9420  -27.6980   19.5560 C   0  0  0  0  0  3  0  0  0  0  0  0
  -23.7240  -29.8320   20.2400 C   0  0  0  0  0  2  0  0  0  0  0  0
  -24.7560  -31.0540   22.1950 N   0  0  0  0  0  0  0  0  0  0  0  0
  -23.5840  -32.1390   23.8140 O   0  0  0  0  0  0  0  0  0  0  0  0
  -22.8030  -29.4640   22.5640 C   0  0  0  0  0  0  0  0  0  0  0  0
  -21.4760  -29.2990   22.4180 N   0  0  0  0  0  0  0  0  0  0  0  0
  -23.4630  -28.8250   23.3870 O   0  0  0  0  0  0  0  0  0  0  0  0
  -21.0020  -29.8690   21.7320 H   0  0  0  0  0  0  0  0  0  0  0  0
  -18.0770  -28.1480   22.8960 C   0  0  0  0  0  0  0  0  0  0  0  0
  -20.6390  -28.3570   23.1670 C   0  0  0  0  0  3  0  0  0  0  0  0
  -20.7160  -26.9380   22.5570 C   0  0  0  0  0  2  0  0  0  0  0  0
  -19.6070  -26.6590   21.5380 C   0  0  0  0  0  2  0  0  0  0  0  0
  -18.2290  -26.8120   22.1880 C   0  0  0  0  0  2  0  0  0  0  0  0
  -19.2080  -28.8810   23.3420 C   0  0  0  0  0  0  0  0  0  0  0  0
  -19.0120  -30.1320   23.9650 C   0  0  0  0  0  3  0  0  0  0  0  0
  -17.7150  -30.6490   24.1480 C   0  0  0  0  0  3  0  0  0  0  0  0
  -16.5970  -29.9130   23.7170 C   0  0  0  0  0  3  0  0  0  0  0  0
  -16.7800  -28.6640   23.0970 C   0  0  0  0  0  3  0  0  0  0  0  0
  -25.9490  -32.4800   23.9460 C   0  0  0  0  0  3  0  0  0  0  0  0
  -26.4360  -31.6980   25.2280 C   0  0  1  0  0  0  0  0  0  0  0  0
  -25.3200  -31.4520   26.2700 C   0  0  0  0  0  1  0  0  0  0  0  0
  -27.0280  -30.3240   24.8410 C   0  0  0  0  0  1  0  0  0  0  0  0
  -27.5710  -32.4880   25.9210 C   0  0  0  0  0  1  0  0  0  0  0  0
  -25.6400  -33.8790   24.2830 N   0  0  0  0  0  0  0  0  0  0  0  0
  -25.9370  -34.9330   23.5130 C   0  0  0  0  0  0  0  0  0  0  0  0
  -26.5670  -34.8330   22.4570 O   0  0  0  0  0  0  0  0  0  0  0  0
  -25.0750  -34.0290   25.1060 H   0  0  0  0  0  0  0  0  0  0  0  0
  -24.1660  -36.7030   23.2490 C   0  0  0  0  0  1  0  0  0  0  0  0
  -25.4580  -36.3200   23.9870 C   0  0  0  0  0  3  0  0  0  0  0  0
  -27.6180  -37.2520   24.6950 C   0  0  0  0  0  1  0  0  0  0  0  0
  -26.4670  -37.3860   23.8040 N   0  0  0  0  0  0  0  0  0  0  0  0
  -26.0550  -38.3030   23.9550 H   0  0  0  0  0  0  0  0  0  0  0  0
  1  2  2  0
  1  4  1  0
  2  5  1  0
  4  6  2  0
  5 21  1  0
  5  3  2  0
  6  3  1  0
  6 12  1  0
  7  4  1  0
  8 56  1  0
  8  9  1  0
  9 55  1  0
 10  7  1  0
 10  8  1  0
 11  7  2  0
 12  9  1  0
 13 21  1  0
 14 19  1  0
 15 16  1  0
 15 14  1  0
 17 16  1  0
 17 26  1  0
 17 18  1  0
 19 13  1  0
 19 18  1  0
 20 13  2  0
 21 22  1  0
 23 24  2  0
 24 43  1  0
 25 24  1  0
 25 28  1  0
 26 23  1  0
 26 27  1  0
 27 25  2  0
 28 29  1  0
 29 30  2  0
 31 34  1  0
 31 30  1  0
 32 31  2  0
 33 32  1  0
 33 28  2  0
 34 35  1  0
 35 36  1  0
 36 37  2  0
 38 37  1  0
 38 42  1  0
 39 38  2  0
 40 35  2  0
 40 39  1  0
 41 40  1  0
 43 44  1  0
 44 47  1  0
 44 46  1  0
 45 43  2  0
 48 49  1  0
 48 23  1  0
 50 48  1  0
 51 53  1  0
 52 53  1  0
 53 10  1  0
 55 54  1  0
 56 57  1  0
 58 69  2  0
 59 57  1  0
 59 64  1  0
 60 68  1  0
 60 70  1  0
 61 67  1  0
 61 63  1  0
 62 68  1  0
 63 64  2  0
 63 62  1  0
 65 59  2  0
 66 65  1  0
 66 61  2  0
 67 60  1  0
 68 58  1  0
 70 72  2  0
 71 70  1  0
 73 71  1  0
 74 83  2  0
 74 79  1  0
 75 71  1  0
 75 79  1  0
 76 75  1  0
 77 78  1  0
 77 76  1  0
 78 74  1  0
 79 80  2  0
 80 81  1  0
 82 81  2  0
 83 82  1  0
 84 58  1  0
 84 89  1  0
 84 85  1  0
 85 88  1  1
 85 86  1  0
 87 85  1  0
 89 92  1  0
 90 94  1  0
 90 89  1  0
 91 90  2  0
 94 93  1  0
 96 97  1  0
 96 94  1  0
 96 95  1  0
M  ISO  4  13 100  21 100  56 101  57 101
M  END
>  <TORSDO>  (55) 
F 19

>  <SCORE>  (55) 
-14.610

>  <name>  (55) 
54

>  <ligand_id>  (55) 
54

>  <original_smiles>  (55) 
[H]c1c([H])c([H])c2c(c1[H])C([H])([H])C([H])([H])C([H])([H])C2([H])N([H])C(=O)C1([H])N(C(=O)C([H])(N([H])C(=O)C([H])(N([H])C([H])([H])[H])C([H])([H])[H])C(C([H])([H])[H])(C([H])([H])[H])C([H])([H])[H])C([H])([H])c2c([H])c(OC([H])([H])C3([H])N(C([H])(C([H])([H])[H])C([H])([H])[H])C(=O)c4c([H])c([H])c(N([H])C(=O)N5C([H])([H])C([H])([H])C([H])([H])C([H])(n6nc(-c7c([H])c([H])c(Oc8c([H])c([H])c(F)c([H])c8F)c([H])c7[H])c(C(=O)N([H])[H])c6N([H])[H])C5([H])[H])c([H])c4OC3([H])C([H])([H])C([H])([H])[H])c([H])c([H])c2C1([H])[H]

>  <smiles>  (55) 
[H]c1c([H])c([H])c2c(c1[H])C([H])([H])C([H])([H])C([H])([H])C2([H])N([H])C(=O)C1([H])N(C(=O)C([H])(N([H])C(=O)C([H])(N([H])C([H])([H])[H])C([H])([H])[H])C(C([H])([H])[H])(C([H])([H])[H])C([H])([H])[H])C([H])([H])c2c([H])c(OC([H])([H])C3([H])N(C([H])(C([H])([H])[H])C([H])([H])[H])C(=O)c4c([H])c([H])c(N([H])C(=O)N5C([H])([H])C([H])([H])C([H])([H])C([H])(n6nc(-c7c([H])c([H])c(Oc8c([H])c([H])c(F)c([H])c8F)c([H])c7[H])c(C(=O)N([H])[H])c6N([H])[H])C5([H])[H])c([H])c4OC3([H])C([H])([H])C([H])([H])[H])c([H])c([H])c2C1([H])[H]

$$$$
55:0:0
     RDKit          3D

 94103  0  0  1  0  0  0  0  0999 V2000
  -28.5440  -20.5800   19.5430 C   0  0  0  0  0  3  0  0  0  0  0  0
  -29.4680  -20.9190   21.7420 C   0  0  0  0  0  3  0  0  0  0  0  0
  -28.4030  -22.8180   20.5700 C   0  0  0  0  0  0  0  0  0  0  0  0
  -28.1620  -21.9360   19.4780 C   0  0  0  0  0  0  0  0  0  0  0  0
  -29.1790  -20.0370   20.6710 C   0  0  0  0  0  0  0  0  0  0  0  0
  -29.1150  -22.3010   21.6920 C   0  0  0  0  0  0  0  0  0  0  0  0
  -27.4780  -22.3980   18.1970 C   0  0  0  0  0  1  0  0  0  0  0  0
  -27.2610  -24.9560   21.7260 C   0  0  0  0  0  2  0  0  0  0  0  0
  -27.8450  -24.2520   20.5160 C   0  0  0  0  0  3  0  0  0  0  0  0
  -28.5060  -25.5210   21.0450 C   0  0  0  0  0  3  0  0  0  0  0  0
  -28.4140  -26.6660   20.1560 O   0  0  0  0  0  0  0  0  0  0  0  0
  -24.6250  -31.8620   23.2540 C   0  0  0  0  0  0  0  0  0  0  0  0
  -27.2640  -27.4270   20.1690 C   0  0  0  0  0  0  0  0  0  0  0  0
  -23.4240  -30.4740   21.5980 C   0  0  0  0  0  3  0  0  0  0  0  0
  -24.8820  -28.9490   20.1660 C   0  0  0  0  0  0  0  0  0  0  0  0
  -25.9530  -30.8280   21.4150 C   0  0  0  0  0  2  0  0  0  0  0  0
  -26.0390  -29.4600   20.7710 C   0  0  0  0  0  0  0  0  0  0  0  0
  -27.2350  -28.7040   20.7750 C   0  0  0  0  0  3  0  0  0  0  0  0
  -26.1020  -26.9500   19.5250 C   0  0  0  0  0  3  0  0  0  0  0  0
  -24.9080  -27.6920   19.5420 C   0  0  0  0  0  3  0  0  0  0  0  0
  -23.6390  -29.8070   20.2140 C   0  0  0  0  0  2  0  0  0  0  0  0
  -24.6860  -31.0690   22.1470 N   0  0  0  0  0  0  0  0  0  0  0  0
  -23.5430  -32.1320   23.7910 O   0  0  0  0  0  0  0  0  0  0  0  0
  -22.7700  -29.4420   22.5470 C   0  0  0  0  0  0  0  0  0  0  0  0
  -21.4430  -29.2750   22.4240 N   0  0  0  0  0  0  0  0  0  0  0  0
  -23.4510  -28.8010   23.3510 O   0  0  0  0  0  0  0  0  0  0  0  0
  -20.9570  -29.8450   21.7480 H   0  0  0  0  0  0  0  0  0  0  0  0
  -18.0600  -28.1110   22.9250 C   0  0  0  0  0  0  0  0  0  0  0  0
  -20.6210  -28.3370   23.1870 C   0  0  0  0  0  3  0  0  0  0  0  0
  -20.7050  -26.9130   22.5910 C   0  0  0  0  0  2  0  0  0  0  0  0
  -19.5940  -26.6160   21.5790 C   0  0  0  0  0  2  0  0  0  0  0  0
  -18.2170  -26.7690   22.2320 C   0  0  0  0  0  2  0  0  0  0  0  0
  -19.1890  -28.8540   23.3590 C   0  0  0  0  0  0  0  0  0  0  0  0
  -18.9880  -30.1130   23.9690 C   0  0  0  0  0  3  0  0  0  0  0  0
  -17.6900  -30.6280   24.1460 C   0  0  0  0  0  3  0  0  0  0  0  0
  -16.5750  -29.8810   23.7310 C   0  0  0  0  0  3  0  0  0  0  0  0
  -16.7600  -28.6250   23.1250 C   0  0  0  0  0  3  0  0  0  0  0  0
  -25.9100  -32.4870   23.8820 C   0  0  0  0  0  3  0  0  0  0  0  0
  -25.6030  -33.8850   24.2090 N   0  0  0  0  0  0  0  0  0  0  0  0
  -25.9320  -34.9340   23.4440 C   0  0  0  0  0  0  0  0  0  0  0  0
  -26.5980  -34.8270   22.4090 O   0  0  0  0  0  0  0  0  0  0  0  0
  -25.0110  -34.0440   25.0110 H   0  0  0  0  0  0  0  0  0  0  0  0
  -24.2000  -36.7250   23.0970 C   0  0  0  0  0  1  0  0  0  0  0  0
  -25.4490  -36.3240   23.8980 C   0  0  0  0  0  3  0  0  0  0  0  0
  -27.5890  -37.2160   24.7090 C   0  0  0  0  0  1  0  0  0  0  0  0
  -26.4800  -37.3770   23.7710 N   0  0  0  0  0  0  0  0  0  0  0  0
  -26.0730  -38.2980   23.9160 H   0  0  0  0  0  0  0  0  0  0  0  0
  -26.4190  -31.7110   25.1580 C   0  0  1  0  0  0  0  0  0  0  0  0
  -25.3190  -31.4680   26.2170 C   0  0  0  0  0  1  0  0  0  0  0  0
  -27.0050  -30.3350   24.7630 C   0  0  0  0  0  1  0  0  0  0  0  0
  -27.5670  -32.5030   25.8290 C   0  0  0  0  0  1  0  0  0  0  0  0
  -30.1880  -22.7220   23.8260 C   0  0  0  0  0  1  0  0  0  0  0  0
  -29.4380  -23.1800   22.7060 O   0  0  0  0  0  0  0  0  0  0  0  0
  -29.4790  -18.6820   20.6050 O   0  0  0  0  0  0  0  0  0  0  0  0
  -30.0500  -17.9930   21.7240 C   0  0  0  0  0  2  0  0  0  0  0  0
  -30.9060  -16.7890   21.2560 C   0  0  0  0  0  2  0  0  0  0  0  0
  -30.7810  -14.4800   20.3790 C   0  0  0  0  0  0  0  0  0  0  0  0
  -30.4080  -12.3470   19.1980 C   0  0  0  0  0  2  0  0  0  0  0  0
  -29.4650  -12.5620   18.0000 C   0  0  0  0  0  2  0  0  0  0  0  0
  -27.9960  -12.4310   18.4410 C   0  0  0  0  0  2  0  0  0  0  0  0
  -27.6740  -13.2660   19.7090 C   0  0  0  0  0  3  0  0  0  0  0  0
  -28.7360  -13.0540   20.8130 C   0  0  0  0  0  2  0  0  0  0  0  0
  -30.0560  -13.3380   20.2300 N   0  0  0  0  0  0  0  0  0  0  0  0
  -31.8960  -14.6250   19.8730 O   0  0  0  0  0  0  0  0  0  0  0  0
  -30.1990  -15.5130   21.0190 N   0  0  0  0  0  0  0  0  0  0  0  0
  -29.2650  -15.3960   21.3830 H   0  0  0  0  0  0  0  0  0  0  0  0
  -25.2780  -13.8740   20.4200 C   0  0  0  0  0  0  0  0  0  0  0  0
  -24.2120  -13.1030   20.7970 C   0  0  0  0  0  0  0  0  0  0  0  0
  -24.6740  -11.7520   20.7800 C   0  0  0  0  0  0  0  0  0  0  0  0
  -26.3240  -12.9920   20.1970 N   0  0  0  0  0  0  0  0  0  0  0  0
  -25.9640  -11.7110   20.4710 N   0  0  0  0  0  0  0  0  0  0  0  0
  -23.9500  -10.4910   20.9820 C   0  0  0  0  0  0  0  0  0  0  0  0
  -24.3820   -9.5330   21.9260 C   0  0  0  0  0  3  0  0  0  0  0  0
  -23.6570   -8.3370   22.1160 C   0  0  0  0  0  3  0  0  0  0  0  0
  -22.4860   -8.0890   21.3610 C   0  0  0  0  0  0  0  0  0  0  0  0
  -22.0730   -9.0350   20.4060 C   0  0  0  0  0  3  0  0  0  0  0  0
  -22.7980  -10.2230   20.2140 C   0  0  0  0  0  3  0  0  0  0  0  0
  -21.7320   -6.9450   21.4590 O   0  0  0  0  0  0  0  0  0  0  0  0
  -21.6750   -6.2160   22.6210 C   0  0  0  0  0  0  0  0  0  0  0  0
  -21.2300   -6.7850   23.8340 C   0  0  0  0  0  3  0  0  0  0  0  0
  -21.1230   -5.9840   24.9890 C   0  0  0  0  0  3  0  0  0  0  0  0
  -21.4490   -4.6160   24.9300 C   0  0  0  0  0  0  0  0  0  0  0  0
  -21.8880   -4.0480   23.7210 C   0  0  0  0  0  3  0  0  0  0  0  0
  -21.9980   -4.8470   22.5700 C   0  0  0  0  0  0  0  0  0  0  0  0
  -22.4000   -4.2890   21.4020 F   0  0  0  0  0  0  0  0  0  0  0  0
  -21.3390   -3.8430   26.0370 F   0  0  0  0  0  0  0  0  0  0  0  0
  -22.8150  -13.5820   21.0680 C   0  0  0  0  0  0  0  0  0  0  0  0
  -22.0880  -12.8910   21.9390 N   0  0  0  0  0  0  0  0  0  0  0  0
  -22.3760  -14.6040   20.5420 O   0  0  0  0  0  0  0  0  0  0  0  0
  -22.4570  -12.0640   22.3870 H   0  0  0  0  0  0  0  0  0  0  0  0
  -21.1510  -13.1920   22.1640 H   0  0  0  0  0  0  0  0  0  0  0  0
  -25.4440  -15.2420   20.2270 N   0  0  0  0  0  0  0  0  0  0  0  0
  -24.6810  -15.9020   20.3280 H   0  0  0  0  0  0  0  0  0  0  0  0
  -26.2970  -15.6720   19.8930 H   0  0  0  0  0  0  0  0  0  0  0  0
  1  5  1  0
  3  6  2  0
  4  1  2  0
  4  3  1  0
  5  2  2  0
  6  2  1  0
  6 53  1  0
  7  4  1  0
  9  3  1  0
  9 10  1  0
  9  8  1  0
 10 11  1  0
 10  8  1  0
 11 13  1  0
 12 23  2  0
 13 18  1  0
 14 22  1  0
 14 24  1  0
 15 21  1  0
 15 17  1  0
 16 22  1  0
 17 18  2  0
 17 16  1  0
 19 20  1  0
 19 13  2  0
 20 15  2  0
 21 14  1  0
 22 12  1  0
 24 26  2  0
 25 24  1  0
 27 25  1  0
 28 37  2  0
 28 33  1  0
 29 25  1  0
 29 33  1  0
 30 29  1  0
 31 32  1  0
 31 30  1  0
 32 28  1  0
 33 34  2  0
 34 35  1  0
 36 35  2  0
 37 36  1  0
 38 12  1  0
 38 39  1  0
 38 48  1  0
 39 42  1  0
 40 44  1  0
 40 39  1  0
 41 40  2  0
 44 43  1  0
 46 44  1  0
 46 47  1  0
 46 45  1  0
 48 51  1  1
 48 49  1  0
 50 48  1  0
 53 52  1  0
 54  5  1  0
 54 55  1  0
 56 55  1  0
 57 65  1  0
 58 63  1  0
 59 60  1  0
 59 58  1  0
 61 60  1  0
 61 70  1  0
 61 62  1  0
 63 57  1  0
 63 62  1  0
 64 57  2  0
 65 56  1  0
 65 66  1  0
 67 68  2  0
 68 87  1  0
 69 68  1  0
 69 72  1  0
 70 67  1  0
 70 71  1  0
 71 69  2  0
 72 73  1  0
 73 74  2  0
 75 78  1  0
 75 74  1  0
 76 75  2  0
 77 76  1  0
 77 72  2  0
 78 79  1  0
 79 80  1  0
 80 81  2  0
 82 81  1  0
 82 86  1  0
 83 82  2  0
 84 79  2  0
 84 83  1  0
 85 84  1  0
 87 88  1  0
 88 91  1  0
 88 90  1  0
 89 87  2  0
 92 93  1  0
 92 67  1  0
 94 92  1  0
M  ISO  4  10 101  11 101  57 100  65 100
M  END
>  <TORSDO>  (56) 
F 21

>  <SCORE>  (56) 
-13.695

>  <name>  (56) 
55

>  <ligand_id>  (56) 
55

>  <original_smiles>  (56) 
[H]c1c([H])c([H])c2c(c1[H])C([H])([H])C([H])([H])C([H])([H])C2([H])N([H])C(=O)C1([H])N(C(=O)C([H])(N([H])C(=O)C([H])(N([H])C([H])([H])[H])C([H])([H])[H])C(C([H])([H])[H])(C([H])([H])[H])C([H])([H])[H])C([H])([H])c2c([H])c(OC3([H])C([H])([H])C3([H])c3c(OC([H])([H])[H])c([H])c(OC([H])([H])C([H])([H])N([H])C(=O)N4C([H])([H])C([H])([H])C([H])([H])C([H])(n5nc(-c6c([H])c([H])c(Oc7c([H])c([H])c(F)c([H])c7F)c([H])c6[H])c(C(=O)N([H])[H])c5N([H])[H])C4([H])[H])c([H])c3C([H])([H])[H])c([H])c([H])c2C1([H])[H]

>  <smiles>  (56) 
[H]c1c([H])c([H])c2c(c1[H])C([H])([H])C([H])([H])C([H])([H])C2([H])N([H])C(=O)C1([H])N(C(=O)C([H])(N([H])C(=O)C([H])(N([H])C([H])([H])[H])C([H])([H])[H])C(C([H])([H])[H])(C([H])([H])[H])C([H])([H])[H])C([H])([H])c2c([H])c(OC3([H])C([H])([H])C3([H])c3c(OC([H])([H])[H])c([H])c(OC([H])([H])C([H])([H])N([H])C(=O)N4C([H])([H])C([H])([H])C([H])([H])C([H])(n5nc(-c6c([H])c([H])c(Oc7c([H])c([H])c(F)c([H])c7F)c([H])c6[H])c(C(=O)N([H])[H])c5N([H])[H])C4([H])[H])c([H])c3C([H])([H])[H])c([H])c([H])c2C1([H])[H]

$$$$
56:0:0
     RDKit          3D

 94103  0  0  1  0  0  0  0  0999 V2000
  -29.1850  -23.5740   19.4750 C   0  0  0  0  0  3  0  0  0  0  0  0
  -29.4260  -22.1870   19.2380 C   0  0  0  0  0  0  0  0  0  0  0  0
  -29.1100  -24.1210   20.7730 C   0  0  0  0  0  0  0  0  0  0  0  0
  -29.3110  -23.1940   21.8560 C   0  0  0  0  0  0  0  0  0  0  0  0
  -29.5810  -21.7980   21.6310 C   0  0  0  0  0  0  0  0  0  0  0  0
  -29.6120  -21.2590   20.3170 C   0  0  0  0  0  0  0  0  0  0  0  0
  -29.4520  -21.7430   17.7810 C   0  0  0  0  0  1  0  0  0  0  0  0
  -29.1950  -23.6720   23.3000 C   0  0  0  0  0  1  0  0  0  0  0  0
  -29.8050  -20.8220   22.7950 C   0  0  0  0  0  1  0  0  0  0  0  0
  -28.7770  -25.6480   21.0290 C   0  0  0  0  0  2  0  0  0  0  0  0
  -28.8320  -26.6930   19.9810 O   0  0  0  0  0  0  0  0  0  0  0  0
  -24.8440  -31.7870   23.1760 C   0  0  0  0  0  0  0  0  0  0  0  0
  -27.7080  -27.5260   19.9490 C   0  0  0  0  0  0  0  0  0  0  0  0
  -23.7170  -30.3860   21.4830 C   0  0  0  0  0  3  0  0  0  0  0  0
  -25.2510  -28.9870   19.9910 C   0  0  0  0  0  0  0  0  0  0  0  0
  -26.2270  -30.8770   21.2940 C   0  0  0  0  0  2  0  0  0  0  0  0
  -26.3920  -29.5320   20.5970 C   0  0  0  0  0  0  0  0  0  0  0  0
  -27.6300  -28.8170   20.5560 C   0  0  0  0  0  3  0  0  0  0  0  0
  -26.5450  -27.0290   19.3250 C   0  0  0  0  0  3  0  0  0  0  0  0
  -25.3280  -27.7390   19.3470 C   0  0  0  0  0  3  0  0  0  0  0  0
  -23.9600  -29.7780   20.0770 C   0  0  0  0  0  2  0  0  0  0  0  0
  -24.9480  -31.0300   22.0430 N   0  0  0  0  0  0  0  0  0  0  0  0
  -23.7500  -31.9720   23.7290 O   0  0  0  0  0  0  0  0  0  0  0  0
  -23.1190  -29.2940   22.4010 C   0  0  0  0  0  0  0  0  0  0  0  0
  -21.8090  -29.0300   22.2600 N   0  0  0  0  0  0  0  0  0  0  0  0
  -23.8360  -28.6870   23.2020 O   0  0  0  0  0  0  0  0  0  0  0  0
  -21.2850  -29.5720   21.5870 H   0  0  0  0  0  0  0  0  0  0  0  0
  -18.5330  -27.5570   22.6610 C   0  0  0  0  0  0  0  0  0  0  0  0
  -21.0560  -28.0130   22.9930 C   0  0  0  0  0  3  0  0  0  0  0  0
  -21.2840  -26.6070   22.3890 C   0  0  0  0  0  2  0  0  0  0  0  0
  -20.2310  -26.2210   21.3460 C   0  0  0  0  0  2  0  0  0  0  0  0
  -18.8300  -26.2420   21.9620 C   0  0  0  0  0  2  0  0  0  0  0  0
  -19.5780  -28.3960   23.1320 C   0  0  0  0  0  0  0  0  0  0  0  0
  -19.2460  -29.6260   23.7410 C   0  0  0  0  0  3  0  0  0  0  0  0
  -17.9020  -30.0120   23.8960 C   0  0  0  0  0  3  0  0  0  0  0  0
  -16.8710  -29.1690   23.4460 C   0  0  0  0  0  3  0  0  0  0  0  0
  -17.1880  -27.9450   22.8310 C   0  0  0  0  0  3  0  0  0  0  0  0
  -26.0900  -32.4740   23.8170 C   0  0  0  0  0  3  0  0  0  0  0  0
  -25.7060  -33.8450   24.1830 N   0  0  0  0  0  0  0  0  0  0  0  0
  -25.9860  -34.9350   23.4550 C   0  0  0  0  0  0  0  0  0  0  0  0
  -26.6610  -34.8920   22.4230 O   0  0  0  0  0  0  0  0  0  0  0  0
  -25.1120  -33.9490   24.9920 H   0  0  0  0  0  0  0  0  0  0  0  0
  -24.1630  -36.6390   23.1460 C   0  0  0  0  0  1  0  0  0  0  0  0
  -25.4280  -36.2840   23.9460 C   0  0  0  0  0  3  0  0  0  0  0  0
  -27.5100  -37.2650   24.7950 C   0  0  0  0  0  1  0  0  0  0  0  0
  -26.4010  -37.3950   23.8570 N   0  0  0  0  0  0  0  0  0  0  0  0
  -25.9450  -38.2860   24.0320 H   0  0  0  0  0  0  0  0  0  0  0  0
  -26.6440  -31.7020   25.0760 C   0  0  1  0  0  0  0  0  0  0  0  0
  -25.5670  -31.3770   26.1380 C   0  0  0  0  0  1  0  0  0  0  0  0
  -27.3040  -30.3690   24.6540 C   0  0  0  0  0  1  0  0  0  0  0  0
  -27.7480  -32.5400   25.7610 C   0  0  0  0  0  1  0  0  0  0  0  0
  -29.6300  -19.6970   20.1010 C   0  0  0  0  0  2  0  0  0  0  0  0
  -30.6720  -18.8730   20.7290 O   0  0  0  0  0  0  0  0  0  0  0  0
  -31.3020  -17.1630   22.3330 C   0  0  0  0  0  1  0  0  0  0  0  0
  -30.3860  -17.4730   21.1380 C   0  0  0  0  0  3  0  0  0  0  0  0
  -29.3070  -16.4910   18.9450 C   0  0  0  0  0  2  0  0  0  0  0  0
  -30.7330  -16.7900   18.6340 C   0  0  0  0  0  2  0  0  0  0  0  0
  -30.3510  -16.3250   20.0460 C   0  0  1  0  0  0  0  0  0  0  0  0
  -30.9950  -14.9060   20.3060 C   0  0  0  0  0  0  0  0  0  0  0  0
  -30.6220  -12.6160   19.4040 C   0  0  0  0  0  2  0  0  0  0  0  0
  -29.7170  -12.7380   18.1610 C   0  0  0  0  0  2  0  0  0  0  0  0
  -28.2480  -12.6110   18.5980 C   0  0  0  0  0  2  0  0  0  0  0  0
  -27.8960  -13.5190   19.8120 C   0  0  0  0  0  3  0  0  0  0  0  0
  -28.9630  -13.5020   20.9320 C   0  0  0  0  0  2  0  0  0  0  0  0
  -30.2720  -13.7340   20.3140 N   0  0  0  0  0  0  0  0  0  0  0  0
  -32.2180  -14.8360   20.1690 O   0  0  0  0  0  0  0  0  0  0  0  0
  -25.5370  -14.1650   20.5380 C   0  0  0  0  0  0  0  0  0  0  0  0
  -24.4450  -13.4160   20.8500 C   0  0  0  0  0  0  0  0  0  0  0  0
  -24.8650  -12.0480   20.7910 C   0  0  0  0  0  0  0  0  0  0  0  0
  -26.5540  -13.2580   20.2990 N   0  0  0  0  0  0  0  0  0  0  0  0
  -26.1610  -11.9790   20.5150 N   0  0  0  0  0  0  0  0  0  0  0  0
  -24.0940  -10.8080   20.9180 C   0  0  0  0  0  0  0  0  0  0  0  0
  -24.4760   -9.7960   21.8260 C   0  0  0  0  0  3  0  0  0  0  0  0
  -23.7110   -8.6180   21.9470 C   0  0  0  0  0  3  0  0  0  0  0  0
  -22.5410   -8.4480   21.1650 C   0  0  0  0  0  0  0  0  0  0  0  0
  -22.1800   -9.4480   20.2460 C   0  0  0  0  0  3  0  0  0  0  0  0
  -22.9500  -10.6150   20.1200 C   0  0  0  0  0  3  0  0  0  0  0  0
  -21.7400   -7.3330   21.2070 O   0  0  0  0  0  0  0  0  0  0  0  0
  -21.6290   -6.5750   22.3430 C   0  0  0  0  0  0  0  0  0  0  0  0
  -21.1780   -7.1190   23.5670 C   0  0  0  0  0  3  0  0  0  0  0  0
  -21.0060   -6.2810   24.6870 C   0  0  0  0  0  3  0  0  0  0  0  0
  -21.2890   -4.9040   24.5860 C   0  0  0  0  0  0  0  0  0  0  0  0
  -21.7370   -4.3630   23.3690 C   0  0  0  0  0  3  0  0  0  0  0  0
  -21.9060   -5.1970   22.2500 C   0  0  0  0  0  0  0  0  0  0  0  0
  -22.3080   -4.6670   21.0710 F   0  0  0  0  0  0  0  0  0  0  0  0
  -21.1210   -4.0970   25.6590 F   0  0  0  0  0  0  0  0  0  0  0  0
  -23.0580  -13.9250   21.1080 C   0  0  0  0  0  0  0  0  0  0  0  0
  -22.2970  -13.2370   21.9470 N   0  0  0  0  0  0  0  0  0  0  0  0
  -22.6610  -14.9740   20.6000 O   0  0  0  0  0  0  0  0  0  0  0  0
  -22.6270  -12.3880   22.3820 H   0  0  0  0  0  0  0  0  0  0  0  0
  -21.3680  -13.5700   22.1650 H   0  0  0  0  0  0  0  0  0  0  0  0
  -25.7420  -15.5430   20.4210 N   0  0  0  0  0  0  0  0  0  0  0  0
  -24.9910  -16.2080   20.5790 H   0  0  0  0  0  0  0  0  0  0  0  0
  -26.6380  -15.9830   20.2650 H   0  0  0  0  0  0  0  0  0  0  0  0
  1  3  1  0
  2  1  2  0
  2  6  1  0
  3 10  1  0
  3  4  2  0
  4  8  1  0
  5  4  1  0
  5  9  1  0
  6  5  2  0
  7  2  1  0
 11 10  1  0
 12 23  2  0
 13 11  1  0
 13 18  1  0
 14 22  1  0
 14 24  1  0
 15 21  1  0
 15 17  1  0
 16 22  1  0
 17 16  1  0
 18 17  2  0
 19 20  1  0
 19 13  2  0
 20 15  2  0
 21 14  1  0
 22 12  1  0
 24 26  2  0
 25 24  1  0
 27 25  1  0
 28 37  2  0
 28 33  1  0
 29 25  1  0
 29 33  1  0
 30 29  1  0
 31 32  1  0
 31 30  1  0
 32 28  1  0
 33 34  2  0
 34 35  1  0
 36 35  2  0
 37 36  1  0
 38 12  1  0
 38 39  1  0
 38 48  1  0
 39 42  1  0
 40 44  1  0
 40 39  1  0
 41 40  2  0
 44 43  1  0
 46 44  1  0
 46 47  1  0
 46 45  1  0
 48 51  1  1
 48 49  1  0
 50 48  1  0
 52  6  1  0
 52 53  1  0
 53 55  1  0
 55 54  1  0
 56 58  1  0
 57 56  1  0
 57 58  1  0
 58 59  1  0
 58 55  1  1
 59 65  1  0
 60 65  1  0
 61 62  1  0
 61 60  1  0
 63 62  1  0
 63 70  1  0
 63 64  1  0
 65 64  1  0
 66 59  2  0
 67 68  2  0
 68 87  1  0
 69 68  1  0
 69 72  1  0
 70 71  1  0
 70 67  1  0
 71 69  2  0
 72 73  1  0
 73 74  2  0
 75 78  1  0
 75 74  1  0
 76 75  2  0
 77 76  1  0
 77 72  2  0
 78 79  1  0
 79 80  1  0
 80 81  2  0
 82 81  1  0
 82 86  1  0
 83 82  2  0
 84 79  2  0
 84 83  1  0
 85 84  1  0
 87 88  1  0
 88 91  1  0
 88 90  1  0
 89 87  2  0
 92 67  1  0
 92 93  1  0
 94 92  1  0
M  ISO  4  10 101  11 101  58 100  59 100
M  END
>  <TORSDO>  (57) 
F 21

>  <SCORE>  (57) 
-11.986

>  <name>  (57) 
56

>  <ligand_id>  (57) 
56

>  <original_smiles>  (57) 
[H]c1c([H])c([H])c2c(c1[H])C([H])([H])C([H])([H])C([H])([H])C2([H])N([H])C(=O)C1([H])N(C(=O)C([H])(N([H])C(=O)C([H])(N([H])C([H])([H])[H])C([H])([H])[H])C(C([H])([H])[H])(C([H])([H])[H])C([H])([H])[H])C([H])([H])c2c([H])c(OC([H])([H])c3c([H])c(C([H])([H])[H])c(C([H])([H])OC([H])(C([H])([H])[H])C4(C(=O)N5C([H])([H])C([H])([H])C([H])([H])C([H])(n6nc(-c7c([H])c([H])c(Oc8c([H])c([H])c(F)c([H])c8F)c([H])c7[H])c(C(=O)N([H])[H])c6N([H])[H])C5([H])[H])C([H])([H])C4([H])[H])c(C([H])([H])[H])c3C([H])([H])[H])c([H])c([H])c2C1([H])[H]

>  <smiles>  (57) 
[H]c1c([H])c([H])c2c(c1[H])C([H])([H])C([H])([H])C([H])([H])C2([H])N([H])C(=O)C1([H])N(C(=O)C([H])(N([H])C(=O)C([H])(N([H])C([H])([H])[H])C([H])([H])[H])C(C([H])([H])[H])(C([H])([H])[H])C([H])([H])[H])C([H])([H])c2c([H])c(OC([H])([H])c3c([H])c(C([H])([H])[H])c(C([H])([H])OC([H])(C([H])([H])[H])C4(C(=O)N5C([H])([H])C([H])([H])C([H])([H])C([H])(n6nc(-c7c([H])c([H])c(Oc8c([H])c([H])c(F)c([H])c8F)c([H])c7[H])c(C(=O)N([H])[H])c6N([H])[H])C5([H])[H])C([H])([H])C4([H])[H])c(C([H])([H])[H])c3C([H])([H])[H])c([H])c([H])c2C1([H])[H]

$$$$
57:0:0
     RDKit          3D

102112  0  0  1  0  0  0  0  0999 V2000
  -29.0410  -21.5360   18.6220 C   0  0  0  0  0  3  0  0  0  0  0  0
  -31.2290  -20.0450   17.7220 C   0  0  0  0  0  3  0  0  0  0  0  0
  -30.1860  -22.2010   18.1290 C   0  0  0  0  0  0  0  0  0  0  0  0
  -28.9900  -20.1360   18.6960 C   0  0  0  0  0  0  0  0  0  0  0  0
  -31.2760  -21.4480   17.6380 C   0  0  0  0  0  0  0  0  0  0  0  0
  -30.1090  -19.3860   18.2860 C   0  0  0  0  0  0  0  0  0  0  0  0
  -32.5200  -22.1090   17.0680 C   0  0  0  0  0  1  0  0  0  0  0  0
  -30.5040  -24.0010   19.7810 C   0  0  0  0  0  2  0  0  0  0  0  0
  -28.9910  -24.3990   17.6940 C   0  0  0  0  0  2  0  0  0  0  0  0
  -30.2810  -25.4580   20.1610 C   0  0  0  0  0  2  0  0  0  0  0  0
  -28.8560  -25.8510   18.1520 C   0  0  0  0  0  2  0  0  0  0  0  0
  -30.2500  -23.7120   18.2810 C   0  0  0  0  0  3  0  0  0  0  0  0
  -28.8960  -25.8930   19.6890 C   0  0  0  0  0  3  0  0  0  0  0  0
  -28.7210  -27.1950   20.1900 O   0  0  0  0  0  0  0  0  0  0  0  0
  -24.6760  -31.9900   23.3820 C   0  0  0  0  0  0  0  0  0  0  0  0
  -27.4730  -27.7630   20.1990 C   0  0  0  0  0  0  0  0  0  0  0  0
  -23.5150  -30.6040   21.6900 C   0  0  0  0  0  3  0  0  0  0  0  0
  -25.0180  -29.1450   20.2420 C   0  0  0  0  0  0  0  0  0  0  0  0
  -26.0220  -31.0520   21.5150 C   0  0  0  0  0  2  0  0  0  0  0  0
  -26.1480  -29.7030   20.8480 C   0  0  0  0  0  0  0  0  0  0  0  0
  -27.3740  -29.0150   20.8290 C   0  0  0  0  0  3  0  0  0  0  0  0
  -26.3170  -27.1900   19.6130 C   0  0  0  0  0  3  0  0  0  0  0  0
  -25.0920  -27.8840   19.6270 C   0  0  0  0  0  3  0  0  0  0  0  0
  -23.7490  -29.9620   20.2960 C   0  0  0  0  0  2  0  0  0  0  0  0
  -24.7550  -31.2280   22.2570 N   0  0  0  0  0  0  0  0  0  0  0  0
  -23.5860  -32.2190   23.9230 O   0  0  0  0  0  0  0  0  0  0  0  0
  -22.8890  -29.5400   22.6170 C   0  0  0  0  0  0  0  0  0  0  0  0
  -21.5720  -29.3230   22.4690 N   0  0  0  0  0  0  0  0  0  0  0  0
  -23.5820  -28.9130   23.4220 O   0  0  0  0  0  0  0  0  0  0  0  0
  -21.0730  -29.8880   21.7940 H   0  0  0  0  0  0  0  0  0  0  0  0
  -18.2300  -28.0200   22.8770 C   0  0  0  0  0  0  0  0  0  0  0  0
  -20.7730  -28.3450   23.2030 C   0  0  0  0  0  3  0  0  0  0  0  0
  -20.9280  -26.9320   22.5960 C   0  0  0  0  0  2  0  0  0  0  0  0
  -19.8540  -26.6000   21.5550 C   0  0  0  0  0  2  0  0  0  0  0  0
  -18.4580  -26.6910   22.1770 C   0  0  0  0  0  2  0  0  0  0  0  0
  -19.3180  -28.8040   23.3450 C   0  0  0  0  0  0  0  0  0  0  0  0
  -19.0530  -30.0480   23.9570 C   0  0  0  0  0  3  0  0  0  0  0  0
  -17.7320  -30.5090   24.1060 C   0  0  0  0  0  3  0  0  0  0  0  0
  -16.6580  -29.7240   23.6540 C   0  0  0  0  0  3  0  0  0  0  0  0
  -16.9080  -28.4800   23.0470 C   0  0  0  0  0  3  0  0  0  0  0  0
  -25.9440  -32.6330   24.0280 C   0  0  0  0  0  3  0  0  0  0  0  0
  -25.6300  -34.0400   24.3100 N   0  0  0  0  0  0  0  0  0  0  0  0
  -26.0150  -35.0710   23.5460 C   0  0  0  0  0  0  0  0  0  0  0  0
  -26.7430  -34.9400   22.5580 O   0  0  0  0  0  0  0  0  0  0  0  0
  -24.9880  -34.2170   25.0690 H   0  0  0  0  0  0  0  0  0  0  0  0
  -24.3240  -36.8650   23.0500 C   0  0  0  0  0  1  0  0  0  0  0  0
  -25.5120  -36.4720   23.9430 C   0  0  0  0  0  3  0  0  0  0  0  0
  -27.5990  -37.3640   24.8800 C   0  0  0  0  0  1  0  0  0  0  0  0
  -26.5580  -37.5150   23.8670 N   0  0  0  0  0  0  0  0  0  0  0  0
  -26.1510  -38.4410   23.9680 H   0  0  0  0  0  0  0  0  0  0  0  0
  -26.4200  -31.8930   25.3380 C   0  0  1  0  0  0  0  0  0  0  0  0
  -25.2910  -31.6660   26.3700 C   0  0  0  0  0  1  0  0  0  0  0  0
  -27.0250  -30.5120   24.9920 C   0  0  0  0  0  1  0  0  0  0  0  0
  -27.5410  -32.7080   26.0240 C   0  0  0  0  0  1  0  0  0  0  0  0
  -27.7490  -19.4650   19.2780 C   0  0  0  0  0  2  0  0  0  0  0  0
  -25.3360  -19.1130   19.0730 C   0  0  0  0  0  1  0  0  0  0  0  0
  -26.5740  -19.5210   18.3720 N   0  0  2  0  0  4  0  0  0  0  0  0
  -26.4530  -20.4920   18.1260 H   0  0  0  0  0  0  0  0  0  0  0  0
  -26.0480  -19.3550   15.9140 C   0  0  0  0  0  2  0  0  0  0  0  0
  -27.5480  -19.4820   16.0370 C   0  0  0  0  0  2  0  0  0  0  0  0
  -26.7620  -18.7590   17.1120 C   0  0  0  0  0  3  0  0  0  0  0  0
  -30.0570  -18.0330   18.4760 O   0  0  0  0  0  0  0  0  0  0  0  0
  -31.2900  -17.3810   18.7150 C   0  0  0  0  0  2  0  0  0  0  0  0
  -30.9440  -15.9190   18.8930 C   0  0  0  0  0  2  0  0  0  0  0  0
  -31.0450  -14.6480   20.9410 C   0  0  0  0  0  0  0  0  0  0  0  0
  -30.7590  -12.4580   19.9690 C   0  0  0  0  0  2  0  0  0  0  0  0
  -29.9510  -12.6480   18.6640 C   0  0  0  0  0  2  0  0  0  0  0  0
  -28.4340  -12.6600   18.9400 C   0  0  0  0  0  2  0  0  0  0  0  0
  -28.0060  -13.5280   20.1550 C   0  0  0  0  0  3  0  0  0  0  0  0
  -28.9530  -13.3280   21.3660 C   0  0  0  0  0  2  0  0  0  0  0  0
  -30.3420  -13.4960   20.9170 N   0  0  0  0  0  0  0  0  0  0  0  0
  -32.2710  -14.7270   20.9940 O   0  0  0  0  0  0  0  0  0  0  0  0
  -30.4090  -15.5730   20.2190 N   0  0  0  0  0  0  0  0  0  0  0  0
  -29.4050  -15.4960   20.2530 H   0  0  0  0  0  0  0  0  0  0  0  0
  -25.5650  -14.1990   20.6220 C   0  0  0  0  0  0  0  0  0  0  0  0
  -24.4470  -13.4510   20.8780 C   0  0  0  0  0  0  0  0  0  0  0  0
  -24.8800  -12.0910   20.9080 C   0  0  0  0  0  0  0  0  0  0  0  0
  -26.6090  -13.2930   20.5090 N   0  0  0  0  0  0  0  0  0  0  0  0
  -26.1950  -12.0230   20.7460 N   0  0  0  0  0  0  0  0  0  0  0  0
  -24.1150  -10.8440   21.0240 C   0  0  0  0  0  0  0  0  0  0  0  0
  -24.4520   -9.8570   21.9760 C   0  0  0  0  0  3  0  0  0  0  0  0
  -23.6890   -8.6740   22.0820 C   0  0  0  0  0  3  0  0  0  0  0  0
  -22.5740   -8.4710   21.2340 C   0  0  0  0  0  0  0  0  0  0  0  0
  -22.2570   -9.4460   20.2720 C   0  0  0  0  0  3  0  0  0  0  0  0
  -23.0210  -10.6210   20.1650 C   0  0  0  0  0  3  0  0  0  0  0  0
  -21.7910   -7.3420   21.2490 O   0  0  0  0  0  0  0  0  0  0  0  0
  -21.6330   -6.5910   22.3850 C   0  0  0  0  0  0  0  0  0  0  0  0
  -21.1050   -7.1390   23.5740 C   0  0  0  0  0  3  0  0  0  0  0  0
  -20.8950   -6.3140   24.6970 C   0  0  0  0  0  3  0  0  0  0  0  0
  -21.2040   -4.9430   24.6310 C   0  0  0  0  0  0  0  0  0  0  0  0
  -21.7260   -4.3930   23.4470 C   0  0  0  0  0  3  0  0  0  0  0  0
  -21.9370   -5.2160   22.3260 C   0  0  0  0  0  0  0  0  0  0  0  0
  -22.4210   -4.6780   21.1810 F   0  0  0  0  0  0  0  0  0  0  0  0
  -20.9960   -4.1480   25.7080 F   0  0  0  0  0  0  0  0  0  0  0  0
  -23.0390  -13.9580   20.9920 C   0  0  0  0  0  0  0  0  0  0  0  0
  -22.2150  -13.3020   21.8000 N   0  0  0  0  0  0  0  0  0  0  0  0
  -22.6760  -14.9740   20.4010 O   0  0  0  0  0  0  0  0  0  0  0  0
  -22.5170  -12.4790   22.3020 H   0  0  0  0  0  0  0  0  0  0  0  0
  -21.2660  -13.6280   21.9220 H   0  0  0  0  0  0  0  0  0  0  0  0
  -25.7740  -15.5650   20.4600 N   0  0  0  0  0  0  0  0  0  0  0  0
  -25.0150  -16.2300   20.5580 H   0  0  0  0  0  0  0  0  0  0  0  0
  -26.6750  -15.9980   20.3170 H   0  0  0  0  0  0  0  0  0  0  0  0
  1  4  1  0
  2  6  1  0
  3  1  2  0
  4 55  1  0
  5  2  2  0
  5  3  1  0
  6 62  1  0
  6  4  2  0
  7  5  1  0
  8 10  1  0
  9 11  1  0
  9 12  1  0
 11 13  1  0
 12  3  1  0
 12  8  1  0
 13 10  1  0
 13 14  1  0
 14 16  1  0
 15 26  2  0
 16 21  1  0
 17 25  1  0
 17 27  1  0
 18 24  1  0
 18 20  1  0
 19 25  1  0
 20 19  1  0
 21 20  2  0
 22 23  1  0
 22 16  2  0
 23 18  2  0
 24 17  1  0
 25 15  1  0
 27 29  2  0
 28 27  1  0
 30 28  1  0
 31 40  2  0
 31 36  1  0
 32 28  1  0
 32 36  1  0
 33 32  1  0
 34 35  1  0
 34 33  1  0
 35 31  1  0
 36 37  2  0
 37 38  1  0
 39 38  2  0
 40 39  1  0
 41 15  1  0
 41 42  1  0
 41 51  1  0
 42 45  1  0
 43 47  1  0
 43 42  1  0
 44 43  2  0
 47 46  1  0
 49 47  1  0
 49 50  1  0
 49 48  1  0
 51 54  1  1
 51 52  1  0
 53 51  1  0
 57 56  1  0
 57 55  1  0
 57 58  1  6
 59 60  1  0
 59 61  1  0
 60 61  1  0
 61 57  1  0
 62 63  1  0
 63 64  1  0
 64 73  1  0
 65 72  2  0
 66 71  1  0
 67 68  1  0
 67 66  1  0
 69 68  1  0
 69 78  1  0
 69 70  1  0
 71 65  1  0
 71 70  1  0
 73 74  1  0
 73 65  1  0
 75 76  2  0
 76 77  1  0
 76 95  1  0
 77 80  1  0
 78 75  1  0
 78 79  1  0
 79 77  2  0
 80 81  1  0
 81 82  2  0
 83 86  1  0
 83 82  1  0
 84 83  2  0
 85 84  1  0
 85 80  2  0
 86 87  1  0
 87 88  1  0
 88 89  2  0
 90 89  1  0
 90 94  1  0
 91 90  2  0
 92 87  2  0
 92 91  1  0
 93 92  1  0
 95 96  1  0
 96 99  1  0
 96 98  1  0
 97 95  2  0
100101  1  0
100 75  1  0
102100  1  0
M  ISO  4  13 101  14 101  65 100  73 100
M  END
>  <TORSDO>  (58) 
F 23

>  <SCORE>  (58) 
-9.942

>  <name>  (58) 
57

>  <ligand_id>  (58) 
57

>  <original_smiles>  (58) 
[H]c1c([H])c([H])c2c(c1[H])C([H])([H])C([H])([H])C([H])([H])C2([H])N([H])C(=O)C1([H])N(C(=O)C([H])(N([H])C(=O)C([H])(N([H])C([H])([H])[H])C([H])([H])[H])C(C([H])([H])[H])(C([H])([H])[H])C([H])([H])[H])C([H])([H])c2c([H])c(OC3([H])C([H])([H])C([H])([H])C([H])(c4c([H])c(C([H])([H])[N+]([H])(C([H])([H])[H])C5([H])C([H])([H])C5([H])[H])c(OC([H])([H])C([H])([H])N([H])C(=O)N5C([H])([H])C([H])([H])C([H])([H])C([H])(n6nc(-c7c([H])c([H])c(Oc8c([H])c([H])c(F)c([H])c8F)c([H])c7[H])c(C(=O)N([H])[H])c6N([H])[H])C5([H])[H])c([H])c4C([H])([H])[H])C([H])([H])C3([H])[H])c([H])c([H])c2C1([H])[H]

>  <smiles>  (58) 
[H]c1c([H])c([H])c2c(c1[H])C([H])([H])C([H])([H])C([H])([H])C2([H])N([H])C(=O)C1([H])N(C(=O)C([H])(N([H])C(=O)C([H])(N([H])C([H])([H])[H])C([H])([H])[H])C(C([H])([H])[H])(C([H])([H])[H])C([H])([H])[H])C([H])([H])c2c([H])c(OC3([H])C([H])([H])C([H])([H])C([H])(c4c([H])c(C([H])([H])[N+]([H])(C([H])([H])[H])C5([H])C([H])([H])C5([H])[H])c(OC([H])([H])C([H])([H])N([H])C(=O)N5C([H])([H])C([H])([H])C([H])([H])C([H])(n6nc(-c7c([H])c([H])c(Oc8c([H])c([H])c(F)c([H])c8F)c([H])c7[H])c(C(=O)N([H])[H])c6N([H])[H])C5([H])[H])c([H])c4C([H])([H])[H])C([H])([H])C3([H])[H])c([H])c([H])c2C1([H])[H]

$$$$
58:0:0
     RDKit          3D

100109  0  0  1  0  0  0  0  0999 V2000
  -31.3870  -22.4130   21.6120 C   0  0  0  0  0  3  0  0  0  0  0  0
  -29.9480  -20.6150   20.8570 C   0  0  0  0  0  3  0  0  0  0  0  0
  -32.3840  -20.4450   20.5140 C   0  0  0  0  0  0  0  0  0  0  0  0
  -32.5320  -21.6920   21.2030 C   0  0  0  0  0  0  0  0  0  0  0  0
  -30.0830  -21.9100   21.4260 C   0  0  0  0  0  0  0  0  0  0  0  0
  -31.0740  -19.8830   20.3920 C   0  0  0  0  0  0  0  0  0  0  0  0
  -33.8710  -22.3080   21.6000 C   0  0  0  0  0  1  0  0  0  0  0  0
  -34.3170  -20.0110   18.5920 C   0  0  0  0  0  2  0  0  0  0  0  0
  -34.9470  -19.5450   20.6080 C   0  0  0  0  0  2  0  0  0  0  0  0
  -33.5810  -19.6630   19.9040 C   0  0  0  0  0  3  0  0  0  0  0  0
  -35.6480  -19.5700   19.2360 C   0  0  0  0  0  3  0  0  0  0  0  0
  -36.7660  -20.5370   19.0920 N   0  0  0  0  0  4  0  0  0  0  0  0
  -36.4510  -21.4850   19.1850 H   0  0  0  0  0  0  0  0  0  0  0  0
  -37.2120  -20.4550   18.1910 H   0  0  0  0  0  0  0  0  0  0  0  0
  -37.4880  -20.3660   19.7730 H   0  0  0  0  0  0  0  0  0  0  0  0
  -28.9420  -22.6260   21.7740 O   0  0  0  0  0  0  0  0  0  0  0  0
  -28.9890  -24.0720   21.8180 C   0  0  0  0  0  2  0  0  0  0  0  0
  -27.7400  -24.7030   21.1570 C   0  0  0  0  0  2  0  0  0  0  0  0
  -27.9540  -26.0920   20.8300 O   0  0  0  0  0  0  0  0  0  0  0  0
  -24.5680  -31.8130   23.3370 C   0  0  0  0  0  0  0  0  0  0  0  0
  -26.8410  -26.9040   20.7100 C   0  0  0  0  0  0  0  0  0  0  0  0
  -23.2490  -30.3680   21.8210 C   0  0  0  0  0  3  0  0  0  0  0  0
  -24.5770  -28.5960   20.5470 C   0  0  0  0  0  0  0  0  0  0  0  0
  -25.7930  -30.5050   21.6110 C   0  0  0  0  0  2  0  0  0  0  0  0
  -25.7700  -29.0800   21.0940 C   0  0  0  0  0  0  0  0  0  0  0  0
  -26.9080  -28.2430   21.1650 C   0  0  0  0  0  3  0  0  0  0  0  0
  -25.6390  -26.4500   20.1230 C   0  0  0  0  0  3  0  0  0  0  0  0
  -24.5110  -27.2830   20.0490 C   0  0  0  0  0  3  0  0  0  0  0  0
  -23.4000  -29.5490   20.5100 C   0  0  0  0  0  2  0  0  0  0  0  0
  -24.5550  -30.9130   22.3130 N   0  0  0  0  0  0  0  0  0  0  0  0
  -23.5140  -32.2220   23.8400 O   0  0  0  0  0  0  0  0  0  0  0  0
  -22.5060  -29.5020   22.8640 C   0  0  0  0  0  0  0  0  0  0  0  0
  -21.1970  -29.3000   22.6540 N   0  0  0  0  0  0  0  0  0  0  0  0
  -23.1110  -29.0090   23.8180 O   0  0  0  0  0  0  0  0  0  0  0  0
  -20.7730  -29.7440   21.8520 H   0  0  0  0  0  0  0  0  0  0  0  0
  -17.7740  -28.2090   23.0260 C   0  0  0  0  0  0  0  0  0  0  0  0
  -20.3030  -28.4910   23.4790 C   0  0  0  0  0  3  0  0  0  0  0  0
  -20.4310  -26.9890   23.1260 C   0  0  0  0  0  2  0  0  0  0  0  0
  -19.4100  -26.5290   22.0810 C   0  0  0  0  0  2  0  0  0  0  0  0
  -17.9820  -26.7750   22.5710 C   0  0  0  0  0  2  0  0  0  0  0  0
  -18.8650  -29.0230   23.4310 C   0  0  0  0  0  0  0  0  0  0  0  0
  -18.6180  -30.3640   23.7980 C   0  0  0  0  0  3  0  0  0  0  0  0
  -17.3120  -30.8890   23.7690 C   0  0  0  0  0  3  0  0  0  0  0  0
  -16.2340  -30.0720   23.3850 C   0  0  0  0  0  3  0  0  0  0  0  0
  -16.4660  -28.7350   23.0180 C   0  0  0  0  0  3  0  0  0  0  0  0
  -25.9010  -32.3870   23.9080 C   0  0  0  0  0  3  0  0  0  0  0  0
  -25.6700  -33.7970   24.2480 N   0  0  0  0  0  0  0  0  0  0  0  0
  -26.0330  -34.8340   23.4790 C   0  0  0  0  0  0  0  0  0  0  0  0
  -26.6630  -34.7010   22.4260 O   0  0  0  0  0  0  0  0  0  0  0  0
  -25.1330  -33.9740   25.0820 H   0  0  0  0  0  0  0  0  0  0  0  0
  -24.3790  -36.6980   23.1730 C   0  0  0  0  0  1  0  0  0  0  0  0
  -25.6220  -36.2410   23.9550 C   0  0  0  0  0  3  0  0  0  0  0  0
  -27.8160  -37.0200   24.7280 C   0  0  0  0  0  1  0  0  0  0  0  0
  -26.6970  -37.2450   23.8190 N   0  0  0  0  0  0  0  0  0  0  0  0
  -26.3410  -38.1810   23.9970 H   0  0  0  0  0  0  0  0  0  0  0  0
  -26.4330  -31.5920   25.1630 C   0  0  1  0  0  0  0  0  0  0  0  0
  -25.3550  -31.3190   26.2380 C   0  0  0  0  0  1  0  0  0  0  0  0
  -27.0230  -30.2320   24.7240 C   0  0  0  0  0  1  0  0  0  0  0  0
  -27.5790  -32.3850   25.8320 C   0  0  0  0  0  1  0  0  0  0  0  0
  -30.9640  -18.6620   19.7320 O   0  0  0  0  0  0  0  0  0  0  0  0
  -29.8990  -17.7140   19.9340 C   0  0  0  0  0  2  0  0  0  0  0  0
  -30.5990  -16.4680   20.5680 C   0  0  0  0  0  2  0  0  0  0  0  0
  -30.4710  -14.1100   19.6870 C   0  0  0  0  0  0  0  0  0  0  0  0
  -30.1960  -11.7670   18.9190 C   0  0  0  0  0  2  0  0  0  0  0  0
  -29.1880  -11.7340   17.7570 C   0  0  0  0  0  2  0  0  0  0  0  0
  -27.7520  -11.5980   18.3010 C   0  0  0  0  0  2  0  0  0  0  0  0
  -27.4420  -12.6150   19.4340 C   0  0  0  0  0  3  0  0  0  0  0  0
  -28.5730  -12.6240   20.4870 C   0  0  0  0  0  2  0  0  0  0  0  0
  -29.8450  -12.9020   19.7920 N   0  0  0  0  0  0  0  0  0  0  0  0
  -31.4530  -14.2840   18.9570 O   0  0  0  0  0  0  0  0  0  0  0  0
  -29.9690  -15.1270   20.4090 N   0  0  0  0  0  0  0  0  0  0  0  0
  -29.2230  -14.8860   21.0520 H   0  0  0  0  0  0  0  0  0  0  0  0
  -25.1330  -13.2460   20.3770 C   0  0  0  0  0  0  0  0  0  0  0  0
  -24.0960  -12.4840   20.8540 C   0  0  0  0  0  0  0  0  0  0  0  0
  -24.5380  -11.1280   20.7830 C   0  0  0  0  0  0  0  0  0  0  0  0
  -26.1390  -12.3520   20.0450 N   0  0  0  0  0  0  0  0  0  0  0  0
  -25.7920  -11.0760   20.3500 N   0  0  0  0  0  0  0  0  0  0  0  0
  -23.8220   -9.8690   21.0430 C   0  0  0  0  0  0  0  0  0  0  0  0
  -24.2920   -8.9440   22.0000 C   0  0  0  0  0  3  0  0  0  0  0  0
  -23.5820   -7.7480   22.2490 C   0  0  0  0  0  3  0  0  0  0  0  0
  -22.3880   -7.4670   21.5390 C   0  0  0  0  0  0  0  0  0  0  0  0
  -21.9390   -8.3830   20.5740 C   0  0  0  0  0  3  0  0  0  0  0  0
  -22.6490   -9.5690   20.3230 C   0  0  0  0  0  3  0  0  0  0  0  0
  -21.6380   -6.3240   21.7000 O   0  0  0  0  0  0  0  0  0  0  0  0
  -21.5870   -5.6570   22.8970 C   0  0  0  0  0  0  0  0  0  0  0  0
  -21.0970   -6.2710   24.0700 C   0  0  0  0  0  3  0  0  0  0  0  0
  -20.9960   -5.5290   25.2630 C   0  0  0  0  0  3  0  0  0  0  0  0
  -21.3720   -4.1710   25.2830 C   0  0  0  0  0  0  0  0  0  0  0  0
  -21.8560   -3.5570   24.1130 C   0  0  0  0  0  3  0  0  0  0  0  0
  -21.9600   -4.2980   22.9260 C   0  0  0  0  0  0  0  0  0  0  0  0
  -22.4050   -3.6940   21.7960 F   0  0  0  0  0  0  0  0  0  0  0  0
  -21.2660   -3.4560   26.4280 F   0  0  0  0  0  0  0  0  0  0  0  0
  -22.7390  -12.9760   21.2610 C   0  0  0  0  0  0  0  0  0  0  0  0
  -22.0860  -12.2940   22.1970 N   0  0  0  0  0  0  0  0  0  0  0  0
  -22.2620  -13.9980   20.7740 O   0  0  0  0  0  0  0  0  0  0  0  0
  -22.4750  -11.4700   22.6270 H   0  0  0  0  0  0  0  0  0  0  0  0
  -21.1790  -12.6170   22.5030 H   0  0  0  0  0  0  0  0  0  0  0  0
  -25.3070  -14.6130   20.1750 N   0  0  0  0  0  0  0  0  0  0  0  0
  -24.5930  -15.3130   20.3480 H   0  0  0  0  0  0  0  0  0  0  0  0
  -26.1560  -14.9920   19.7680 H   0  0  0  0  0  0  0  0  0  0  0  0
  2  5  2  0
  3  4  1  0
  4  7  1  0
  4  1  2  0
  5  1  1  0
  5 16  1  0
  6  3  2  0
  6  2  1  0
  8 11  1  0
  8 10  1  0
 10  3  1  0
 10  9  1  0
 11 12  1  0
 11  9  1  0
 12 13  1  0
 12 15  1  0
 14 12  1  0
 16 17  1  0
 18 17  1  0
 19 18  1  0
 20 31  2  0
 21 19  1  0
 21 26  1  0
 22 30  1  0
 22 32  1  0
 23 25  1  0
 24 30  1  0
 25 26  2  0
 25 24  1  0
 27 21  2  0
 28 27  1  0
 28 23  2  0
 29 23  1  0
 29 22  1  0
 30 20  1  0
 32 34  2  0
 33 32  1  0
 35 33  1  0
 36 41  1  0
 37 33  1  0
 38 37  1  0
 39 40  1  0
 39 38  1  0
 40 36  1  0
 41 37  1  0
 41 42  2  0
 43 42  1  0
 44 43  2  0
 45 36  2  0
 45 44  1  0
 46 20  1  0
 46 47  1  0
 46 56  1  0
 47 50  1  0
 48 52  1  0
 48 47  1  0
 49 48  2  0
 52 51  1  0
 54 52  1  0
 54 55  1  0
 54 53  1  0
 56 59  1  1
 56 57  1  0
 58 56  1  0
 60 61  1  0
 60  6  1  0
 61 62  1  0
 63 69  1  0
 63 71  1  0
 64 69  1  0
 65 66  1  0
 65 64  1  0
 67 66  1  0
 67 76  1  0
 67 68  1  0
 69 68  1  0
 70 63  2  0
 71 62  1  0
 71 72  1  0
 73 74  2  0
 74 93  1  0
 75 74  1  0
 75 78  1  0
 76 77  1  0
 76 73  1  0
 77 75  2  0
 78 79  1  0
 79 80  2  0
 81 84  1  0
 81 80  1  0
 82 81  2  0
 83 82  1  0
 83 78  2  0
 84 85  1  0
 85 90  2  0
 85 86  1  0
 86 87  2  0
 87 88  1  0
 88 92  1  0
 89 88  2  0
 90 89  1  0
 91 90  1  0
 93 94  1  0
 94 97  1  0
 94 96  1  0
 95 93  2  0
 98 99  1  0
 98 73  1  0
100 98  1  0
M  ISO  4  18 101  19 101  63 100  71 100
M  END
>  <TORSDO>  (59) 
F 24

>  <SCORE>  (59) 
-10.191

>  <name>  (59) 
58

>  <ligand_id>  (59) 
58

>  <original_smiles>  (59) 
[H]c1c([H])c([H])c2c(c1[H])C([H])([H])C([H])([H])C([H])([H])C2([H])N([H])C(=O)C1([H])N(C(=O)C([H])(N([H])C(=O)C([H])(N([H])C([H])([H])[H])C([H])([H])[H])C(C([H])([H])[H])(C([H])([H])[H])C([H])([H])[H])C([H])([H])c2c([H])c(OC([H])([H])C([H])([H])Oc3c([H])c(OC([H])([H])C([H])([H])N([H])C(=O)N4C([H])([H])C([H])([H])C([H])([H])C([H])(n5nc(-c6c([H])c([H])c(Oc7c([H])c([H])c(F)c([H])c7F)c([H])c6[H])c(C(=O)N([H])[H])c5N([H])[H])C4([H])[H])c(C4([H])C([H])([H])C([H])([N+]([H])([H])[H])C4([H])[H])c(C([H])([H])[H])c3[H])c([H])c([H])c2C1([H])[H]

>  <smiles>  (59) 
[H]c1c([H])c([H])c2c(c1[H])C([H])([H])C([H])([H])C([H])([H])C2([H])N([H])C(=O)C1([H])N(C(=O)C([H])(N([H])C(=O)C([H])(N([H])C([H])([H])[H])C([H])([H])[H])C(C([H])([H])[H])(C([H])([H])[H])C([H])([H])[H])C([H])([H])c2c([H])c(OC([H])([H])C([H])([H])Oc3c([H])c(OC([H])([H])C([H])([H])N([H])C(=O)N4C([H])([H])C([H])([H])C([H])([H])C([H])(n5nc(-c6c([H])c([H])c(Oc7c([H])c([H])c(F)c([H])c7F)c([H])c6[H])c(C(=O)N([H])[H])c5N([H])[H])C4([H])[H])c(C4([H])C([H])([H])C([H])([N+]([H])([H])[H])C4([H])[H])c(C([H])([H])[H])c3[H])c([H])c([H])c2C1([H])[H]

$$$$
59:0:0
     RDKit          3D

 96106  0  0  1  0  0  0  0  0999 V2000
  -28.9880  -21.1630   18.8110 C   0  0  0  0  0  3  0  0  0  0  0  0
  -29.9020  -19.2950   20.6760 C   0  0  0  0  0  3  0  0  0  0  0  0
  -29.5640  -21.5940   20.0270 C   0  0  0  0  0  0  0  0  0  0  0  0
  -29.3670  -18.8660   19.4440 C   0  0  0  0  0  0  0  0  0  0  0  0
  -30.0150  -20.6540   20.9770 C   0  0  0  0  0  0  0  0  0  0  0  0
  -28.8930  -19.8000   18.5050 C   0  0  0  0  0  0  0  0  0  0  0  0
  -30.6020  -21.0570   22.3200 C   0  0  0  0  0  1  0  0  0  0  0  0
  -28.2710  -19.3630   17.1910 C   0  0  0  0  0  1  0  0  0  0  0  0
  -28.1370  -23.4470   20.7300 C   0  0  0  0  0  2  0  0  0  0  0  0
  -30.1640  -23.9090   19.1930 C   0  0  0  0  0  2  0  0  0  0  0  0
  -28.0480  -24.9290   21.0150 C   0  0  0  0  0  2  0  0  0  0  0  0
  -30.0140  -25.3970   19.4940 C   0  0  0  0  0  2  0  0  0  0  0  0
  -29.5730  -23.0660   20.3410 C   0  0  0  0  0  3  0  0  0  0  0  0
  -28.5420  -25.7000   19.7790 C   0  0  0  0  0  3  0  0  0  0  0  0
  -28.4600  -27.0700   20.0480 O   0  0  0  0  0  0  0  0  0  0  0  0
  -24.5130  -31.9360   23.2430 C   0  0  0  0  0  0  0  0  0  0  0  0
  -27.2230  -27.6580   20.0610 C   0  0  0  0  0  0  0  0  0  0  0  0
  -23.3170  -30.5460   21.5790 C   0  0  0  0  0  3  0  0  0  0  0  0
  -24.7860  -29.0590   20.1280 C   0  0  0  0  0  0  0  0  0  0  0  0
  -25.8300  -30.9600   21.3760 C   0  0  0  0  0  2  0  0  0  0  0  0
  -25.9310  -29.6070   20.7180 C   0  0  0  0  0  0  0  0  0  0  0  0
  -27.1480  -28.9100   20.6870 C   0  0  0  0  0  3  0  0  0  0  0  0
  -26.0570  -27.0980   19.4800 C   0  0  0  0  0  3  0  0  0  0  0  0
  -24.8370  -27.7970   19.5140 C   0  0  0  0  0  3  0  0  0  0  0  0
  -23.5280  -29.8910   20.1890 C   0  0  0  0  0  2  0  0  0  0  0  0
  -24.5710  -31.1590   22.1260 N   0  0  0  0  0  0  0  0  0  0  0  0
  -23.4310  -32.1860   23.7890 O   0  0  0  0  0  0  0  0  0  0  0  0
  -22.6900  -29.4960   22.5200 C   0  0  0  0  0  0  0  0  0  0  0  0
  -21.3640  -29.3110   22.4010 N   0  0  0  0  0  0  0  0  0  0  0  0
  -23.3850  -28.8530   23.3090 O   0  0  0  0  0  0  0  0  0  0  0  0
  -20.8680  -29.8800   21.7310 H   0  0  0  0  0  0  0  0  0  0  0  0
  -17.9980  -28.1080   22.9010 C   0  0  0  0  0  0  0  0  0  0  0  0
  -20.5570  -28.3550   23.1570 C   0  0  0  0  0  3  0  0  0  0  0  0
  -20.6540  -26.9380   22.5450 C   0  0  0  0  0  2  0  0  0  0  0  0
  -19.5420  -26.6410   21.5340 C   0  0  0  0  0  2  0  0  0  0  0  0
  -18.1660  -26.7730   22.1940 C   0  0  0  0  0  2  0  0  0  0  0  0
  -19.1210  -28.8580   23.3390 C   0  0  0  0  0  0  0  0  0  0  0  0
  -18.9110  -30.1080   23.9580 C   0  0  0  0  0  3  0  0  0  0  0  0
  -17.6100  -30.6110   24.1440 C   0  0  0  0  0  3  0  0  0  0  0  0
  -16.5010  -29.8570   23.7250 C   0  0  0  0  0  3  0  0  0  0  0  0
  -16.6950  -28.6080   23.1090 C   0  0  0  0  0  3  0  0  0  0  0  0
  -25.7960  -32.5650   23.8700 C   0  0  0  0  0  3  0  0  0  0  0  0
  -25.4920  -33.9690   24.1720 N   0  0  0  0  0  0  0  0  0  0  0  0
  -25.8620  -35.0070   23.4080 C   0  0  0  0  0  0  0  0  0  0  0  0
  -26.5660  -34.8830   22.4020 O   0  0  0  0  0  0  0  0  0  0  0  0
  -24.8700  -34.1420   24.9460 H   0  0  0  0  0  0  0  0  0  0  0  0
  -24.1910  -36.8250   22.9350 C   0  0  0  0  0  1  0  0  0  0  0  0
  -25.3700  -36.4050   23.8270 C   0  0  0  0  0  3  0  0  0  0  0  0
  -27.4570  -37.2600   24.7980 C   0  0  0  0  0  1  0  0  0  0  0  0
  -26.4270  -37.4380   23.7770 N   0  0  0  0  0  0  0  0  0  0  0  0
  -26.0290  -38.3660   23.8860 H   0  0  0  0  0  0  0  0  0  0  0  0
  -26.2990  -31.8080   25.1590 C   0  0  1  0  0  0  0  0  0  0  0  0
  -25.1940  -31.5860   26.2180 C   0  0  0  0  0  1  0  0  0  0  0  0
  -26.8850  -30.4250   24.7870 C   0  0  0  0  0  1  0  0  0  0  0  0
  -27.4450  -32.6100   25.8230 C   0  0  0  0  0  1  0  0  0  0  0  0
  -30.3080  -16.6920   18.2830 C   0  0  0  0  0  2  0  0  0  0  0  0
  -29.3450  -17.4160   19.1890 C   0  0  0  0  0  3  0  0  0  0  0  0
  -30.4920  -16.6630   19.7830 C   0  0  0  0  0  3  0  0  0  0  0  0
  -30.9440  -14.5340   20.7630 C   0  0  0  0  0  0  0  0  0  0  0  0
  -30.6820  -12.3570   19.7440 C   0  0  0  0  0  2  0  0  0  0  0  0
  -29.8260  -12.5700   18.4780 C   0  0  0  0  0  2  0  0  0  0  0  0
  -28.3210  -12.4780   18.8110 C   0  0  0  0  0  2  0  0  0  0  0  0
  -27.9100  -13.3480   20.0280 C   0  0  0  0  0  3  0  0  0  0  0  0
  -28.8970  -13.1570   21.2100 C   0  0  0  0  0  2  0  0  0  0  0  0
  -30.2720  -13.3670   20.7200 N   0  0  0  0  0  0  0  0  0  0  0  0
  -32.1490  -14.6780   20.5450 O   0  0  0  0  0  0  0  0  0  0  0  0
  -30.1220  -15.5440   20.5510 N   0  0  0  0  0  0  0  0  0  0  0  0
  -29.1390  -15.3610   20.6790 H   0  0  0  0  0  0  0  0  0  0  0  0
  -25.4710  -13.9750   20.5820 C   0  0  0  0  0  0  0  0  0  0  0  0
  -24.3830  -13.2070   20.8970 C   0  0  0  0  0  0  0  0  0  0  0  0
  -24.8460  -11.8560   20.9160 C   0  0  0  0  0  0  0  0  0  0  0  0
  -26.5290  -13.0900   20.4300 N   0  0  0  0  0  0  0  0  0  0  0  0
  -26.1510  -11.8130   20.6880 N   0  0  0  0  0  0  0  0  0  0  0  0
  -24.1120  -10.5940   21.0810 C   0  0  0  0  0  0  0  0  0  0  0  0
  -24.4870   -9.6460   22.0580 C   0  0  0  0  0  3  0  0  0  0  0  0
  -23.7570   -8.4460   22.2090 C   0  0  0  0  0  3  0  0  0  0  0  0
  -22.6380   -8.1890   21.3820 C   0  0  0  0  0  0  0  0  0  0  0  0
  -22.2830   -9.1260   20.3950 C   0  0  0  0  0  3  0  0  0  0  0  0
  -23.0140  -10.3170   20.2430 C   0  0  0  0  0  3  0  0  0  0  0  0
  -21.8850   -7.0410   21.4390 O   0  0  0  0  0  0  0  0  0  0  0  0
  -21.7470   -6.3290   22.6030 C   0  0  0  0  0  0  0  0  0  0  0  0
  -21.1690   -6.8980   23.7610 C   0  0  0  0  0  3  0  0  0  0  0  0
  -20.9840   -6.1090   24.9130 C   0  0  0  0  0  3  0  0  0  0  0  0
  -21.3650   -4.7550   24.9090 C   0  0  0  0  0  0  0  0  0  0  0  0
  -21.9370   -4.1860   23.7580 C   0  0  0  0  0  3  0  0  0  0  0  0
  -22.1230   -4.9720   22.6070 C   0  0  0  0  0  0  0  0  0  0  0  0
  -22.6540   -4.4150   21.4920 F   0  0  0  0  0  0  0  0  0  0  0  0
  -21.1800   -3.9940   26.0140 F   0  0  0  0  0  0  0  0  0  0  0  0
  -22.9700  -13.6830   21.0770 C   0  0  0  0  0  0  0  0  0  0  0  0
  -22.1890  -12.9920   21.9000 N   0  0  0  0  0  0  0  0  0  0  0  0
  -22.5650  -14.7050   20.5230 O   0  0  0  0  0  0  0  0  0  0  0  0
  -22.5260  -12.1650   22.3710 H   0  0  0  0  0  0  0  0  0  0  0  0
  -21.2380  -13.2930   22.0600 H   0  0  0  0  0  0  0  0  0  0  0  0
  -25.6440  -15.3420   20.3900 N   0  0  0  0  0  0  0  0  0  0  0  0
  -24.8680  -15.9940   20.4370 H   0  0  0  0  0  0  0  0  0  0  0  0
  -26.5070  -15.7810   20.0990 H   0  0  0  0  0  0  0  0  0  0  0  0
  1  3  1  0
  2  5  1  0
  3  5  2  0
  4  2  2  0
  5  7  1  0
  6  1  2  0
  6  4  1  0
  8  6  1  0
  9 11  1  0
 10 12  1  0
 10 13  1  0
 12 14  1  0
 13  3  1  0
 13  9  1  0
 14 15  1  0
 14 11  1  0
 15 17  1  0
 16 27  2  0
 17 22  1  0
 18 26  1  0
 18 28  1  0
 19 25  1  0
 19 21  1  0
 20 26  1  0
 21 20  1  0
 22 21  2  0
 23 24  1  0
 23 17  2  0
 24 19  2  0
 25 18  1  0
 26 16  1  0
 28 30  2  0
 29 28  1  0
 31 29  1  0
 32 41  2  0
 32 37  1  0
 33 29  1  0
 33 37  1  0
 34 33  1  0
 35 36  1  0
 35 34  1  0
 36 32  1  0
 37 38  2  0
 38 39  1  0
 40 39  2  0
 41 40  1  0
 42 16  1  0
 42 43  1  0
 42 52  1  0
 43 46  1  0
 44 48  1  0
 44 43  1  0
 45 44  2  0
 48 47  1  0
 50 48  1  0
 50 51  1  0
 50 49  1  0
 52 55  1  1
 52 53  1  0
 54 52  1  0
 56 57  1  0
 56 58  1  0
 57  4  1  0
 57 58  1  0
 58 67  1  0
 60 65  1  0
 61 62  1  0
 61 60  1  0
 63 62  1  0
 63 72  1  0
 63 64  1  0
 65 59  1  0
 65 64  1  0
 66 59  2  0
 67 68  1  0
 67 59  1  0
 69 70  2  0
 70 71  1  0
 70 89  1  0
 71 74  1  0
 72 69  1  0
 72 73  1  0
 73 71  2  0
 74 75  1  0
 75 76  2  0
 77 80  1  0
 77 76  1  0
 78 77  2  0
 79 78  1  0
 79 74  2  0
 80 81  1  0
 81 86  2  0
 81 82  1  0
 82 83  2  0
 84 83  1  0
 84 88  1  0
 85 84  2  0
 86 85  1  0
 87 86  1  0
 89 90  1  0
 90 93  1  0
 90 92  1  0
 91 89  2  0
 94 95  1  0
 94 69  1  0
 96 94  1  0
M  ISO  4  14 101  15 101  59 100  67 100
M  END
>  <TORSDO>  (60) 
F 18

>  <SCORE>  (60) 
-14.678

>  <name>  (60) 
59

>  <ligand_id>  (60) 
59

>  <original_smiles>  (60) 
[H]c1c([H])c([H])c2c(c1[H])C([H])([H])C([H])([H])C([H])([H])C2([H])N([H])C(=O)C1([H])N(C(=O)C([H])(N([H])C(=O)C([H])(N([H])C([H])([H])[H])C([H])([H])[H])C(C([H])([H])[H])(C([H])([H])[H])C([H])([H])[H])C([H])([H])c2c([H])c(OC3([H])C([H])([H])C([H])([H])C([H])(c4c([H])c(C([H])([H])[H])c(C5([H])C([H])([H])C5([H])N([H])C(=O)N5C([H])([H])C([H])([H])C([H])([H])C([H])(n6nc(-c7c([H])c([H])c(Oc8c([H])c([H])c(F)c([H])c8F)c([H])c7[H])c(C(=O)N([H])[H])c6N([H])[H])C5([H])[H])c([H])c4C([H])([H])[H])C([H])([H])C3([H])[H])c([H])c([H])c2C1([H])[H]

>  <smiles>  (60) 
[H]c1c([H])c([H])c2c(c1[H])C([H])([H])C([H])([H])C([H])([H])C2([H])N([H])C(=O)C1([H])N(C(=O)C([H])(N([H])C(=O)C([H])(N([H])C([H])([H])[H])C([H])([H])[H])C(C([H])([H])[H])(C([H])([H])[H])C([H])([H])[H])C([H])([H])c2c([H])c(OC3([H])C([H])([H])C([H])([H])C([H])(c4c([H])c(C([H])([H])[H])c(C5([H])C([H])([H])C5([H])N([H])C(=O)N5C([H])([H])C([H])([H])C([H])([H])C([H])(n6nc(-c7c([H])c([H])c(Oc8c([H])c([H])c(F)c([H])c8F)c([H])c7[H])c(C(=O)N([H])[H])c6N([H])[H])C5([H])[H])c([H])c4C([H])([H])[H])C([H])([H])C3([H])[H])c([H])c([H])c2C1([H])[H]

$$$$
60:0:0
     RDKit          3D

 97107  0  0  1  0  0  0  0  0999 V2000
  -30.5200  -24.2260   18.8660 C   0  0  0  0  0  3  0  0  0  0  0  0
  -29.9040  -22.9650   20.8530 C   0  0  0  0  0  0  0  0  0  0  0  0
  -29.7170  -24.1080   20.0140 C   0  0  0  0  0  0  0  0  0  0  0  0
  -31.4180  -23.1960   18.5460 C   0  0  0  0  0  0  0  0  0  0  0  0
  -30.8110  -21.9490   20.4210 C   0  0  0  0  0  0  0  0  0  0  0  0
  -32.2630  -23.2610   17.2930 C   0  0  0  0  0  1  0  0  0  0  0  0
  -31.5440  -22.0810   19.2900 N   0  0  0  0  0  0  0  0  0  0  0  0
  -28.9870  -23.9400   23.1310 C   0  0  0  0  0  2  0  0  0  0  0  0
  -29.8090  -22.7290   23.4790 C   0  0  0  0  0  2  0  0  0  0  0  0
  -29.1190  -22.8060   22.1320 C   0  0  0  0  0  3  0  0  0  0  0  0
  -32.4570  -20.6100   21.8070 C   0  0  0  0  0  1  0  0  0  0  0  0
  -31.0500  -20.6210   21.1870 C   0  0  0  0  0  3  0  0  0  0  0  0
  -30.9410  -19.4460   20.3510 O   0  0  0  0  0  0  0  0  0  0  0  0
  -31.3870  -14.4790   20.0360 C   0  0  0  0  0  0  0  0  0  0  0  0
  -30.9280  -12.3090   18.9650 C   0  0  0  0  0  2  0  0  0  0  0  0
  -29.9780  -12.5390   17.7730 C   0  0  0  0  0  2  0  0  0  0  0  0
  -28.5080  -12.4860   18.2350 C   0  0  0  0  0  2  0  0  0  0  0  0
  -28.2370  -13.3570   19.4920 C   0  0  0  0  0  3  0  0  0  0  0  0
  -29.3130  -13.1410   20.5820 C   0  0  0  0  0  2  0  0  0  0  0  0
  -30.6290  -13.3490   19.9620 N   0  0  0  0  0  0  0  0  0  0  0  0
  -32.5450  -14.5280   19.6090 O   0  0  0  0  0  0  0  0  0  0  0  0
  -29.5420  -17.6690   19.4380 C   0  0  0  0  0  2  0  0  0  0  0  0
  -30.2140  -17.5650   21.8490 C   0  0  0  0  0  2  0  0  0  0  0  0
  -30.5650  -16.5460   19.1660 C   0  0  0  0  0  2  0  0  0  0  0  0
  -31.1960  -16.4220   21.4780 C   0  0  0  0  0  2  0  0  0  0  0  0
  -29.8870  -18.5190   20.6740 C   0  0  0  0  0  3  0  0  0  0  0  0
  -30.7330  -15.6380   20.3180 N   0  0  0  0  0  0  0  0  0  0  0  0
  -25.8920  -14.0750   20.2680 C   0  0  0  0  0  0  0  0  0  0  0  0
  -24.7960  -13.3560   20.6640 C   0  0  0  0  0  0  0  0  0  0  0  0
  -25.1880  -11.9840   20.6210 C   0  0  0  0  0  0  0  0  0  0  0  0
  -26.8860  -13.1440   20.0100 N   0  0  0  0  0  0  0  0  0  0  0  0
  -26.4670  -11.8810   20.2790 N   0  0  0  0  0  0  0  0  0  0  0  0
  -24.4040  -10.7590   20.8300 C   0  0  0  0  0  0  0  0  0  0  0  0
  -24.7740   -9.8000   21.7980 C   0  0  0  0  0  3  0  0  0  0  0  0
  -23.9930   -8.6400   21.9930 C   0  0  0  0  0  3  0  0  0  0  0  0
  -22.8260   -8.4310   21.2180 C   0  0  0  0  0  0  0  0  0  0  0  0
  -22.4750   -9.3790   20.2410 C   0  0  0  0  0  3  0  0  0  0  0  0
  -23.2570  -10.5300   20.0440 C   0  0  0  0  0  3  0  0  0  0  0  0
  -22.0220   -7.3230   21.3210 O   0  0  0  0  0  0  0  0  0  0  0  0
  -21.8600   -6.6570   22.5100 C   0  0  0  0  0  0  0  0  0  0  0  0
  -21.3650   -7.3030   23.6630 C   0  0  0  0  0  3  0  0  0  0  0  0
  -21.1480   -6.5650   24.8440 C   0  0  0  0  0  3  0  0  0  0  0  0
  -21.4170   -5.1830   24.8710 C   0  0  0  0  0  0  0  0  0  0  0  0
  -21.9040   -4.5380   23.7220 C   0  0  0  0  0  3  0  0  0  0  0  0
  -22.1220   -5.2730   22.5430 C   0  0  0  0  0  0  0  0  0  0  0  0
  -22.5720   -4.6420   21.4310 F   0  0  0  0  0  0  0  0  0  0  0  0
  -21.2010   -4.4720   26.0030 F   0  0  0  0  0  0  0  0  0  0  0  0
  -23.4330  -13.9040   20.9740 C   0  0  0  0  0  0  0  0  0  0  0  0
  -22.7020  -13.2570   21.8760 N   0  0  0  0  0  0  0  0  0  0  0  0
  -23.0270  -14.9410   20.4520 O   0  0  0  0  0  0  0  0  0  0  0  0
  -23.0450  -12.4190   22.3200 H   0  0  0  0  0  0  0  0  0  0  0  0
  -21.7880  -13.6080   22.1250 H   0  0  0  0  0  0  0  0  0  0  0  0
  -26.1230  -15.4360   20.0880 N   0  0  0  0  0  0  0  0  0  0  0  0
  -25.3970  -16.1320   20.2160 H   0  0  0  0  0  0  0  0  0  0  0  0
  -26.9930  -15.8250   19.7510 H   0  0  0  0  0  0  0  0  0  0  0  0
  -28.5240  -25.0670   20.1560 C   0  0  0  0  0  2  0  0  0  0  0  0
  -28.7560  -26.4910   20.3360 O   0  0  0  0  0  0  0  0  0  0  0  0
  -24.8220  -31.7230   23.2570 C   0  0  0  0  0  0  0  0  0  0  0  0
  -27.6030  -27.2740   20.2600 C   0  0  0  0  0  0  0  0  0  0  0  0
  -23.6820  -30.2930   21.6000 C   0  0  0  0  0  3  0  0  0  0  0  0
  -25.1940  -28.7880   20.2110 C   0  0  0  0  0  0  0  0  0  0  0  0
  -26.2130  -30.6850   21.4620 C   0  0  0  0  0  2  0  0  0  0  0  0
  -26.3370  -29.3140   20.8250 C   0  0  0  0  0  0  0  0  0  0  0  0
  -27.5460  -28.5680   20.8450 C   0  0  0  0  0  3  0  0  0  0  0  0
  -26.4300  -26.7920   19.6240 C   0  0  0  0  0  3  0  0  0  0  0  0
  -25.2370  -27.5280   19.6060 C   0  0  0  0  0  3  0  0  0  0  0  0
  -23.9360  -29.6240   20.2270 C   0  0  0  0  0  2  0  0  0  0  0  0
  -24.9230  -30.9160   22.1640 N   0  0  0  0  0  0  0  0  0  0  0  0
  -23.7220  -31.9780   23.7680 O   0  0  0  0  0  0  0  0  0  0  0  0
  -23.0290  -29.2590   22.5470 C   0  0  0  0  0  0  0  0  0  0  0  0
  -21.7150  -29.0350   22.3770 N   0  0  0  0  0  0  0  0  0  0  0  0
  -23.7020  -28.6630   23.3910 O   0  0  0  0  0  0  0  0  0  0  0  0
  -21.2330  -29.5680   21.6670 H   0  0  0  0  0  0  0  0  0  0  0  0
  -18.3680  -27.7220   22.7530 C   0  0  0  0  0  0  0  0  0  0  0  0
  -20.8990  -28.0830   23.1300 C   0  0  0  0  0  3  0  0  0  0  0  0
  -21.0810  -26.6440   22.5910 C   0  0  0  0  0  2  0  0  0  0  0  0
  -20.0380  -26.2590   21.5370 C   0  0  0  0  0  2  0  0  0  0  0  0
  -18.6250  -26.3650   22.1170 C   0  0  0  0  0  2  0  0  0  0  0  0
  -19.4360  -28.5340   23.2140 C   0  0  0  0  0  0  0  0  0  0  0  0
  -19.1460  -29.8010   23.7650 C   0  0  0  0  0  3  0  0  0  0  0  0
  -17.8170  -30.2570   23.8610 C   0  0  0  0  0  3  0  0  0  0  0  0
  -16.7620  -29.4410   23.4180 C   0  0  0  0  0  3  0  0  0  0  0  0
  -17.0380  -28.1760   22.8690 C   0  0  0  0  0  3  0  0  0  0  0  0
  -26.0810  -32.3830   23.9000 C   0  0  0  0  0  3  0  0  0  0  0  0
  -26.5820  -31.6320   25.1930 C   0  0  1  0  0  0  0  0  0  0  0  0
  -25.4700  -31.3790   26.2380 C   0  0  0  0  0  1  0  0  0  0  0  0
  -27.2010  -30.2620   24.8250 C   0  0  0  0  0  1  0  0  0  0  0  0
  -27.7020  -32.4530   25.8740 C   0  0  0  0  0  1  0  0  0  0  0  0
  -25.7360  -33.7780   24.2100 N   0  0  0  0  0  0  0  0  0  0  0  0
  -26.0640  -34.8280   23.4460 C   0  0  0  0  0  0  0  0  0  0  0  0
  -26.7590  -34.7290   22.4310 O   0  0  0  0  0  0  0  0  0  0  0  0
  -25.1230  -33.9280   24.9960 H   0  0  0  0  0  0  0  0  0  0  0  0
  -24.3090  -36.5810   23.0330 C   0  0  0  0  0  1  0  0  0  0  0  0
  -25.5400  -36.2110   23.8780 C   0  0  0  0  0  3  0  0  0  0  0  0
  -27.6320  -37.1500   24.7520 C   0  0  0  0  0  1  0  0  0  0  0  0
  -26.5540  -37.2830   23.7770 N   0  0  0  0  0  0  0  0  0  0  0  0
  -26.1260  -38.1970   23.8970 H   0  0  0  0  0  0  0  0  0  0  0  0
  1  3  1  0
  2 10  1  0
  3 56  1  0
  3  2  2  0
  4  1  2  0
  4  7  1  0
  5  2  1  0
  5 12  1  0
  6  4  1  0
  7  5  2  0
  8  9  1  0
 10  8  1  0
 10  9  1  0
 12 11  1  0
 13 12  1  0
 14 27  1  0
 15 20  1  0
 16 17  1  0
 16 15  1  0
 18 17  1  0
 18 31  1  0
 18 19  1  0
 20 14  1  0
 20 19  1  0
 21 14  2  0
 22 26  1  0
 24 22  1  0
 24 27  1  0
 25 23  1  0
 26 13  1  0
 26 23  1  0
 27 25  1  0
 28 29  2  0
 29 48  1  0
 30 29  1  0
 30 33  1  0
 31 28  1  0
 31 32  1  0
 32 30  2  0
 33 34  1  0
 34 35  2  0
 36 39  1  0
 36 35  1  0
 37 36  2  0
 38 37  1  0
 38 33  2  0
 39 40  1  0
 40 45  2  0
 40 41  1  0
 41 42  2  0
 42 43  1  0
 43 47  1  0
 44 43  2  0
 45 44  1  0
 46 45  1  0
 48 49  1  0
 49 52  1  0
 49 51  1  0
 50 48  2  0
 53 54  1  0
 53 28  1  0
 55 53  1  0
 56 57  1  0
 58 69  2  0
 59 57  1  0
 59 64  1  0
 60 68  1  0
 60 70  1  0
 61 67  1  0
 61 63  1  0
 62 68  1  0
 63 64  2  0
 63 62  1  0
 65 59  2  0
 66 65  1  0
 66 61  2  0
 67 60  1  0
 68 58  1  0
 70 72  2  0
 71 70  1  0
 73 71  1  0
 74 83  2  0
 74 79  1  0
 75 71  1  0
 75 79  1  0
 76 75  1  0
 77 78  1  0
 77 76  1  0
 78 74  1  0
 79 80  2  0
 80 81  1  0
 82 81  2  0
 83 82  1  0
 84 58  1  0
 84 89  1  0
 84 85  1  0
 85 88  1  1
 85 86  1  0
 87 85  1  0
 89 92  1  0
 90 94  1  0
 90 89  1  0
 91 90  2  0
 94 93  1  0
 96 94  1  0
 96 97  1  0
 96 95  1  0
M  ISO  4  14 100  27 100  56 101  57 101
M  END
>  <TORSDO>  (61) 
F 20

>  <SCORE>  (61) 
-13.237

>  <name>  (61) 
60

>  <ligand_id>  (61) 
60

>  <original_smiles>  (61) 
[H]c1c([H])c([H])c2c(c1[H])C([H])([H])C([H])([H])C([H])([H])C2([H])N([H])C(=O)C1([H])N(C(=O)C([H])(N([H])C(=O)C([H])(N([H])C([H])([H])[H])C([H])([H])[H])C(C([H])([H])[H])(C([H])([H])[H])C([H])([H])[H])C([H])([H])c2c([H])c(OC([H])([H])c3c([H])c(C([H])([H])[H])nc(C([H])(OC4([H])C([H])([H])C([H])([H])N(C(=O)N5C([H])([H])C([H])([H])C([H])([H])C([H])(n6nc(-c7c([H])c([H])c(Oc8c([H])c([H])c(F)c([H])c8F)c([H])c7[H])c(C(=O)N([H])[H])c6N([H])[H])C5([H])[H])C([H])([H])C4([H])[H])C([H])([H])[H])c3C3([H])C([H])([H])C3([H])[H])c([H])c([H])c2C1([H])[H]

>  <smiles>  (61) 
[H]c1c([H])c([H])c2c(c1[H])C([H])([H])C([H])([H])C([H])([H])C2([H])N([H])C(=O)C1([H])N(C(=O)C([H])(N([H])C(=O)C([H])(N([H])C([H])([H])[H])C([H])([H])[H])C(C([H])([H])[H])(C([H])([H])[H])C([H])([H])[H])C([H])([H])c2c([H])c(OC([H])([H])c3c([H])c(C([H])([H])[H])nc(C([H])(OC4([H])C([H])([H])C([H])([H])N(C(=O)N5C([H])([H])C([H])([H])C([H])([H])C([H])(n6nc(-c7c([H])c([H])c(Oc8c([H])c([H])c(F)c([H])c8F)c([H])c7[H])c(C(=O)N([H])[H])c6N([H])[H])C5([H])[H])C([H])([H])C4([H])[H])C([H])([H])[H])c3C3([H])C([H])([H])C3([H])[H])c([H])c([H])c2C1([H])[H]

$$$$
61:0:0
     RDKit          3D

 92101  0  0  1  0  0  0  0  0999 V2000
  -26.9770  -23.6760   21.6350 C   0  0  0  0  0  3  0  0  0  0  0  0
  -27.6350  -22.4770   21.2720 C   0  0  0  0  0  0  0  0  0  0  0  0
  -28.8760  -23.8490   19.7430 C   0  0  0  0  0  0  0  0  0  0  0  0
  -28.6340  -22.4750   20.2550 C   0  0  0  0  0  0  0  0  0  0  0  0
  -28.1450  -25.0650   20.1760 C   0  0  0  0  0  0  0  0  0  0  0  0
  -27.2320  -21.2550   22.0720 C   0  0  0  0  0  1  0  0  0  0  0  0
  -29.9920  -24.0370   18.7390 C   0  0  0  0  0  1  0  0  0  0  0  0
  -27.2050  -24.8980   21.1200 N   0  0  0  0  0  0  0  0  0  0  0  0
  -28.3240  -26.4660   19.7760 O   0  0  0  0  0  0  0  0  0  0  0  0
  -24.7270  -31.9380   23.1650 C   0  0  0  0  0  0  0  0  0  0  0  0
  -27.2730  -27.4490   19.8260 C   0  0  0  0  0  0  0  0  0  0  0  0
  -23.5000  -30.6160   21.4860 C   0  0  0  0  0  3  0  0  0  0  0  0
  -24.9290  -29.1500   19.9360 C   0  0  0  0  0  0  0  0  0  0  0  0
  -26.0430  -30.9330   21.2680 C   0  0  0  0  0  2  0  0  0  0  0  0
  -26.1170  -29.5800   20.5440 C   0  0  0  0  0  0  0  0  0  0  0  0
  -27.2920  -28.7440   20.4790 C   0  0  0  0  0  3  0  0  0  0  0  0
  -26.0680  -27.1310   19.1640 C   0  0  0  0  0  3  0  0  0  0  0  0
  -24.9150  -27.9380   19.2320 C   0  0  0  0  0  3  0  0  0  0  0  0
  -23.6910  -30.0250   20.0650 C   0  0  0  0  0  2  0  0  0  0  0  0
  -24.7780  -31.1800   22.0290 N   0  0  0  0  0  0  0  0  0  0  0  0
  -23.6520  -32.1780   23.7360 O   0  0  0  0  0  0  0  0  0  0  0  0
  -22.8670  -29.5430   22.4060 C   0  0  0  0  0  0  0  0  0  0  0  0
  -21.5450  -29.3330   22.2780 N   0  0  0  0  0  0  0  0  0  0  0  0
  -23.5650  -28.9050   23.1980 O   0  0  0  0  0  0  0  0  0  0  0  0
  -21.0390  -29.8980   21.6110 H   0  0  0  0  0  0  0  0  0  0  0  0
  -18.2050  -28.0190   22.7530 C   0  0  0  0  0  0  0  0  0  0  0  0
  -20.7580  -28.3430   23.0150 C   0  0  0  0  0  3  0  0  0  0  0  0
  -20.8950  -26.9400   22.3810 C   0  0  0  0  0  2  0  0  0  0  0  0
  -19.7960  -26.6270   21.3620 C   0  0  0  0  0  2  0  0  0  0  0  0
  -18.4140  -26.7060   22.0190 C   0  0  0  0  0  2  0  0  0  0  0  0
  -19.3040  -28.7950   23.2070 C   0  0  0  0  0  0  0  0  0  0  0  0
  -19.0530  -30.0250   23.8550 C   0  0  0  0  0  3  0  0  0  0  0  0
  -17.7350  -30.4790   24.0510 C   0  0  0  0  0  3  0  0  0  0  0  0
  -16.6500  -29.7000   23.6130 C   0  0  0  0  0  3  0  0  0  0  0  0
  -16.8860  -28.4720   22.9700 C   0  0  0  0  0  3  0  0  0  0  0  0
  -26.0160  -32.5550   23.7910 C   0  0  0  0  0  3  0  0  0  0  0  0
  -25.7020  -33.9370   24.1850 N   0  0  0  0  0  0  0  0  0  0  0  0
  -26.0130  -35.0240   23.4650 C   0  0  0  0  0  0  0  0  0  0  0  0
  -26.6630  -34.9690   22.4180 O   0  0  0  0  0  0  0  0  0  0  0  0
  -25.1240  -34.0540   25.0030 H   0  0  0  0  0  0  0  0  0  0  0  0
  -24.2660  -36.8190   23.2210 C   0  0  0  0  0  1  0  0  0  0  0  0
  -25.5260  -36.3890   23.9900 C   0  0  0  0  0  3  0  0  0  0  0  0
  -27.6670  -37.2560   24.8200 C   0  0  0  0  0  1  0  0  0  0  0  0
  -26.5490  -37.4540   23.9030 N   0  0  0  0  0  0  0  0  0  0  0  0
  -26.1390  -38.3640   24.0940 H   0  0  0  0  0  0  0  0  0  0  0  0
  -26.5540  -31.7380   25.0300 C   0  0  1  0  0  0  0  0  0  0  0  0
  -25.4750  -31.4510   26.1010 C   0  0  0  0  0  1  0  0  0  0  0  0
  -27.1420  -30.3810   24.5810 C   0  0  0  0  0  1  0  0  0  0  0  0
  -27.7080  -32.5140   25.7060 C   0  0  0  0  0  1  0  0  0  0  0  0
  -29.3700  -21.2840   19.7930 O   0  0  0  0  0  0  0  0  0  0  0  0
  -30.9610  -15.2750   19.9100 C   0  0  0  0  0  0  0  0  0  0  0  0
  -30.8090  -12.9280   18.9720 C   0  0  0  0  0  2  0  0  0  0  0  0
  -29.8160  -12.8660   17.7900 C   0  0  0  0  0  2  0  0  0  0  0  0
  -28.3770  -12.6390   18.2950 C   0  0  0  0  0  2  0  0  0  0  0  0
  -28.0220  -13.5470   19.5030 C   0  0  0  0  0  3  0  0  0  0  0  0
  -29.1400  -13.5920   20.5660 C   0  0  0  0  0  2  0  0  0  0  0  0
  -30.3620  -14.0200   19.8820 N   0  0  0  0  0  0  0  0  0  0  0  0
  -32.1450  -15.3340   19.5530 O   0  0  0  0  0  0  0  0  0  0  0  0
  -29.1440  -18.7390   18.8970 C   0  0  0  0  0  2  0  0  0  0  0  0
  -30.4280  -19.0550   20.9070 C   0  0  0  0  0  2  0  0  0  0  0  0
  -30.0140  -17.3670   18.8190 C   0  0  0  0  0  2  0  0  0  0  0  0
  -30.3200  -17.4570   21.1800 C   0  0  0  0  0  2  0  0  0  0  0  0
  -29.2660  -19.7600   20.1120 C   0  0  0  0  0  3  0  0  0  0  0  0
  -30.2020  -16.4830   20.0240 N   0  0  0  0  0  0  0  0  0  0  0  0
  -25.6940  -14.0670   20.4230 C   0  0  0  0  0  0  0  0  0  0  0  0
  -24.6620  -13.2690   20.8270 C   0  0  0  0  0  0  0  0  0  0  0  0
  -25.1290  -11.9230   20.7050 C   0  0  0  0  0  0  0  0  0  0  0  0
  -26.7250  -13.2120   20.0770 N   0  0  0  0  0  0  0  0  0  0  0  0
  -26.3980  -11.9140   20.3110 N   0  0  0  0  0  0  0  0  0  0  0  0
  -24.4210  -10.6470   20.8870 C   0  0  0  0  0  0  0  0  0  0  0  0
  -24.8260   -9.7160   21.8680 C   0  0  0  0  0  3  0  0  0  0  0  0
  -24.1220   -8.5040   22.0400 C   0  0  0  0  0  3  0  0  0  0  0  0
  -22.9990   -8.2150   21.2300 C   0  0  0  0  0  0  0  0  0  0  0  0
  -22.6110   -9.1360   20.2420 C   0  0  0  0  0  3  0  0  0  0  0  0
  -23.3140  -10.3400   20.0680 C   0  0  0  0  0  3  0  0  0  0  0  0
  -22.2690   -7.0540   21.3080 O   0  0  0  0  0  0  0  0  0  0  0  0
  -22.0380   -6.4260   22.5060 C   0  0  0  0  0  0  0  0  0  0  0  0
  -21.3800   -7.0760   23.5740 C   0  0  0  0  0  3  0  0  0  0  0  0
  -21.1040   -6.3710   24.7630 C   0  0  0  0  0  3  0  0  0  0  0  0
  -21.4740   -5.0190   24.8820 C   0  0  0  0  0  0  0  0  0  0  0  0
  -22.1250   -4.3680   23.8190 C   0  0  0  0  0  3  0  0  0  0  0  0
  -22.4030   -5.0710   22.6330 C   0  0  0  0  0  0  0  0  0  0  0  0
  -23.0110   -4.4350   21.6020 F   0  0  0  0  0  0  0  0  0  0  0  0
  -21.2010   -4.3390   26.0200 F   0  0  0  0  0  0  0  0  0  0  0  0
  -23.2830  -13.7210   21.2080 C   0  0  0  0  0  0  0  0  0  0  0  0
  -22.6180  -12.9880   22.0940 N   0  0  0  0  0  0  0  0  0  0  0  0
  -22.8040  -14.7610   20.7550 O   0  0  0  0  0  0  0  0  0  0  0  0
  -23.0170  -12.1460   22.4830 H   0  0  0  0  0  0  0  0  0  0  0  0
  -21.6920  -13.2700   22.3840 H   0  0  0  0  0  0  0  0  0  0  0  0
  -25.8400  -15.4470   20.2960 N   0  0  0  0  0  0  0  0  0  0  0  0
  -25.0880  -16.0960   20.4920 H   0  0  0  0  0  0  0  0  0  0  0  0
  -26.6810  -15.9020   19.9630 H   0  0  0  0  0  0  0  0  0  0  0  0
  2  1  2  0
  2  6  1  0
  3  5  1  0
  3  4  2  0
  4  2  1  0
  5  8  2  0
  7  3  1  0
  8  1  1  0
  9 11  1  0
  9  5  1  0
 10 21  2  0
 11 16  1  0
 12 20  1  0
 12 22  1  0
 13 19  1  0
 13 15  1  0
 14 20  1  0
 15 14  1  0
 16 15  2  0
 17 18  1  0
 17 11  2  0
 18 13  2  0
 19 12  1  0
 20 10  1  0
 22 24  2  0
 23 22  1  0
 25 23  1  0
 26 35  2  0
 26 31  1  0
 27 23  1  0
 27 31  1  0
 28 27  1  0
 29 30  1  0
 29 28  1  0
 30 26  1  0
 31 32  2  0
 32 33  1  0
 34 33  2  0
 35 34  1  0
 36 10  1  0
 36 37  1  0
 36 46  1  0
 37 40  1  0
 38 42  1  0
 38 37  1  0
 39 38  2  0
 42 41  1  0
 44 42  1  0
 44 45  1  0
 44 43  1  0
 46 49  1  1
 46 47  1  0
 48 46  1  0
 50  4  1  0
 51 64  1  0
 52 57  1  0
 53 54  1  0
 53 52  1  0
 55 54  1  0
 55 68  1  0
 55 56  1  0
 57 51  1  0
 57 56  1  0
 58 51  2  0
 59 63  1  0
 60 62  1  0
 61 59  1  0
 61 64  1  0
 63 50  1  0
 63 60  1  0
 64 62  1  0
 65 66  2  0
 66 85  1  0
 67 66  1  0
 67 70  1  0
 68 69  1  0
 68 65  1  0
 69 67  2  0
 70 71  1  0
 71 72  2  0
 73 76  1  0
 73 72  1  0
 74 73  2  0
 75 74  1  0
 75 70  2  0
 76 77  1  0
 77 82  2  0
 77 78  1  0
 78 79  2  0
 79 80  1  0
 80 84  1  0
 81 80  2  0
 82 81  1  0
 83 82  1  0
 85 86  1  0
 86 89  1  0
 86 88  1  0
 87 85  2  0
 90 65  1  0
 90 91  1  0
 92 90  1  0
M  ISO  4   5 101   9 101  51 100  64 100
M  END
>  <TORSDO>  (62) 
F 17

>  <SCORE>  (62) 
-12.030

>  <name>  (62) 
61

>  <ligand_id>  (62) 
61

>  <original_smiles>  (62) 
[H]c1nc(Oc2c([H])c([H])c3c(c2[H])C([H])([H])N(C(=O)C([H])(N([H])C(=O)C([H])(N([H])C([H])([H])[H])C([H])([H])[H])C(C([H])([H])[H])(C([H])([H])[H])C([H])([H])[H])C([H])(C(=O)N([H])C2([H])c4c([H])c([H])c([H])c([H])c4C([H])([H])C([H])([H])C2([H])[H])C3([H])[H])c(C([H])([H])[H])c(OC2([H])C([H])([H])C([H])([H])N(C(=O)N3C([H])([H])C([H])([H])C([H])([H])C([H])(n4nc(-c5c([H])c([H])c(Oc6c([H])c([H])c(F)c([H])c6F)c([H])c5[H])c(C(=O)N([H])[H])c4N([H])[H])C3([H])[H])C([H])([H])C2([H])[H])c1C([H])([H])[H]

>  <smiles>  (62) 
[H]c1nc(Oc2c([H])c([H])c3c(c2[H])C([H])([H])N(C(=O)C([H])(N([H])C(=O)C([H])(N([H])C([H])([H])[H])C([H])([H])[H])C(C([H])([H])[H])(C([H])([H])[H])C([H])([H])[H])C([H])(C(=O)N([H])C2([H])c4c([H])c([H])c([H])c([H])c4C([H])([H])C([H])([H])C2([H])[H])C3([H])[H])c(C([H])([H])[H])c(OC2([H])C([H])([H])C([H])([H])N(C(=O)N3C([H])([H])C([H])([H])C([H])([H])C([H])(n4nc(-c5c([H])c([H])c(Oc6c([H])c([H])c(F)c([H])c6F)c([H])c5[H])c(C(=O)N([H])[H])c4N([H])[H])C3([H])[H])C([H])([H])C2([H])[H])c1C([H])([H])[H]

$$$$
62:0:0
     RDKit          3D

 97107  0  0  1  0  0  0  0  0999 V2000
  -29.4970  -21.6790   20.1730 C   0  0  0  0  0  3  0  0  0  0  0  0
  -29.7740  -20.3430   20.5120 C   0  0  0  0  0  3  0  0  0  0  0  0
  -30.4740  -22.3990   22.2730 C   0  0  0  0  0  3  0  0  0  0  0  0
  -29.8480  -22.7180   21.0510 C   0  0  0  0  0  0  0  0  0  0  0  0
  -30.4010  -20.0030   21.7340 C   0  0  0  0  0  0  0  0  0  0  0  0
  -30.7570  -21.0540   22.6330 C   0  0  0  0  0  0  0  0  0  0  0  0
  -30.9630  -16.5770   23.1470 C   0  0  0  0  0  2  0  0  0  0  0  0
  -31.0980  -18.0940   23.2860 C   0  0  0  0  0  2  0  0  0  0  0  0
  -30.5450  -17.5860   21.0000 C   0  0  0  0  0  2  0  0  0  0  0  0
  -31.1470  -16.3290   21.6470 C   0  0  0  0  0  3  0  0  0  0  0  0
  -30.6520  -18.6340   22.0090 N   0  0  0  0  0  0  0  0  0  0  0  0
  -30.8200  -14.3660   20.1560 C   0  0  0  0  0  0  0  0  0  0  0  0
  -30.3390  -12.3120   18.8720 C   0  0  0  0  0  2  0  0  0  0  0  0
  -29.3280  -12.5710   17.7400 C   0  0  0  0  0  2  0  0  0  0  0  0
  -27.8830  -12.4490   18.2590 C   0  0  0  0  0  2  0  0  0  0  0  0
  -27.6460  -13.2710   19.5530 C   0  0  0  0  0  3  0  0  0  0  0  0
  -28.7530  -12.9860   20.5910 C   0  0  0  0  0  2  0  0  0  0  0  0
  -30.0640  -13.2540   19.9670 N   0  0  0  0  0  0  0  0  0  0  0  0
  -31.7850  -14.6610   19.4450 O   0  0  0  0  0  0  0  0  0  0  0  0
  -30.4740  -15.1090   21.2120 N   0  0  0  0  0  0  0  0  0  0  0  0
  -29.6860  -14.7900   21.7540 H   0  0  0  0  0  0  0  0  0  0  0  0
  -25.3140  -13.9270   20.4310 C   0  0  0  0  0  0  0  0  0  0  0  0
  -24.2460  -13.1750   20.8400 C   0  0  0  0  0  0  0  0  0  0  0  0
  -24.6610  -11.8110   20.7310 C   0  0  0  0  0  0  0  0  0  0  0  0
  -26.3140  -13.0240   20.1040 N   0  0  0  0  0  0  0  0  0  0  0  0
  -25.9260  -11.7440   20.3390 N   0  0  0  0  0  0  0  0  0  0  0  0
  -23.9070  -10.5650   20.9240 C   0  0  0  0  0  0  0  0  0  0  0  0
  -24.3430   -9.5720   21.8290 C   0  0  0  0  0  3  0  0  0  0  0  0
  -23.5930   -8.3910   22.0090 C   0  0  0  0  0  3  0  0  0  0  0  0
  -22.3930   -8.1930   21.2840 C   0  0  0  0  0  0  0  0  0  0  0  0
  -21.9770   -9.1750   20.3690 C   0  0  0  0  0  3  0  0  0  0  0  0
  -22.7270  -10.3480   20.1860 C   0  0  0  0  0  3  0  0  0  0  0  0
  -21.6130   -7.0650   21.3760 O   0  0  0  0  0  0  0  0  0  0  0  0
  -21.5460   -6.3280   22.5310 C   0  0  0  0  0  0  0  0  0  0  0  0
  -21.1250   -6.8960   23.7530 C   0  0  0  0  0  3  0  0  0  0  0  0
  -21.0040   -6.0860   24.9000 C   0  0  0  0  0  3  0  0  0  0  0  0
  -21.2930   -4.7100   24.8250 C   0  0  0  0  0  0  0  0  0  0  0  0
  -21.7070   -4.1420   23.6070 C   0  0  0  0  0  3  0  0  0  0  0  0
  -21.8300   -4.9490   22.4630 C   0  0  0  0  0  0  0  0  0  0  0  0
  -22.2080   -4.3940   21.2860 F   0  0  0  0  0  0  0  0  0  0  0  0
  -21.1700   -3.9300   25.9250 F   0  0  0  0  0  0  0  0  0  0  0  0
  -22.8860  -13.6820   21.2210 C   0  0  0  0  0  0  0  0  0  0  0  0
  -22.1940  -12.9770   22.1080 N   0  0  0  0  0  0  0  0  0  0  0  0
  -22.4480  -14.7400   20.7680 O   0  0  0  0  0  0  0  0  0  0  0  0
  -22.5610  -12.1200   22.4960 H   0  0  0  0  0  0  0  0  0  0  0  0
  -21.2840  -13.2980   22.4060 H   0  0  0  0  0  0  0  0  0  0  0  0
  -25.5120  -15.2980   20.2920 N   0  0  0  0  0  0  0  0  0  0  0  0
  -24.7770  -15.9730   20.4750 H   0  0  0  0  0  0  0  0  0  0  0  0
  -26.3620  -15.7230   19.9400 H   0  0  0  0  0  0  0  0  0  0  0  0
  -30.8280  -25.0560   20.6210 C   0  0  0  0  0  2  0  0  0  0  0  0
  -30.4060  -26.4340   21.1550 C   0  0  0  0  0  2  0  0  0  0  0  0
  -28.5890  -24.9080   21.5860 C   0  0  0  0  0  2  0  0  0  0  0  0
  -29.5720  -24.1690   20.6670 C   0  0  0  0  0  3  0  0  0  0  0  0
  -28.8840  -26.3890   21.3250 C   0  0  0  0  0  3  0  0  0  0  0  0
  -28.2830  -26.7540   20.0860 O   0  0  0  0  0  0  0  0  0  0  0  0
  -24.5150  -31.9400   23.2210 C   0  0  0  0  0  0  0  0  0  0  0  0
  -27.1250  -27.4870   20.1630 C   0  0  0  0  0  0  0  0  0  0  0  0
  -23.2850  -30.5200   21.6070 C   0  0  0  0  0  3  0  0  0  0  0  0
  -24.7210  -28.9620   20.1870 C   0  0  0  0  0  0  0  0  0  0  0  0
  -25.8030  -30.8820   21.3720 C   0  0  0  0  0  2  0  0  0  0  0  0
  -25.8800  -29.5020   20.7580 C   0  0  0  0  0  0  0  0  0  0  0  0
  -27.0860  -28.7700   20.7500 C   0  0  0  0  0  3  0  0  0  0  0  0
  -25.9560  -26.9560   19.5820 C   0  0  0  0  0  3  0  0  0  0  0  0
  -24.7500  -27.6840   19.6000 C   0  0  0  0  0  3  0  0  0  0  0  0
  -23.4760  -29.8200   20.2350 C   0  0  0  0  0  2  0  0  0  0  0  0
  -24.5530  -31.1290   22.1250 N   0  0  0  0  0  0  0  0  0  0  0  0
  -23.4420  -32.2200   23.7720 O   0  0  0  0  0  0  0  0  0  0  0  0
  -22.6450  -29.5120   22.5890 C   0  0  0  0  0  0  0  0  0  0  0  0
  -21.3260  -29.3040   22.4540 N   0  0  0  0  0  0  0  0  0  0  0  0
  -23.3330  -28.9180   23.4230 O   0  0  0  0  0  0  0  0  0  0  0  0
  -20.8320  -29.8350   21.7490 H   0  0  0  0  0  0  0  0  0  0  0  0
  -17.9770  -28.0290   22.9070 C   0  0  0  0  0  0  0  0  0  0  0  0
  -20.5170  -28.3720   23.2390 C   0  0  0  0  0  3  0  0  0  0  0  0
  -20.6770  -26.9240   22.7210 C   0  0  0  0  0  2  0  0  0  0  0  0
  -19.6150  -26.5310   21.6900 C   0  0  0  0  0  2  0  0  0  0  0  0
  -18.2110  -26.6600   22.2900 C   0  0  0  0  0  2  0  0  0  0  0  0
  -19.0610  -28.8390   23.3370 C   0  0  0  0  0  0  0  0  0  0  0  0
  -18.7900  -30.1190   23.8700 C   0  0  0  0  0  3  0  0  0  0  0  0
  -17.4680  -30.5880   23.9800 C   0  0  0  0  0  3  0  0  0  0  0  0
  -16.3980  -29.7750   23.5670 C   0  0  0  0  0  3  0  0  0  0  0  0
  -16.6540  -28.4980   23.0360 C   0  0  0  0  0  3  0  0  0  0  0  0
  -25.8130  -32.5720   23.8160 C   0  0  0  0  0  3  0  0  0  0  0  0
  -26.3650  -31.7920   25.0720 C   0  0  1  0  0  0  0  0  0  0  0  0
  -25.2980  -31.5340   26.1610 C   0  0  0  0  0  1  0  0  0  0  0  0
  -26.9500  -30.4240   24.6500 C   0  0  0  0  0  1  0  0  0  0  0  0
  -27.5240  -32.5890   25.7160 C   0  0  0  0  0  1  0  0  0  0  0  0
  -25.5060  -33.9660   24.1610 N   0  0  0  0  0  0  0  0  0  0  0  0
  -25.8240  -35.0240   23.4030 C   0  0  0  0  0  0  0  0  0  0  0  0
  -26.4790  -34.9290   22.3620 O   0  0  0  0  0  0  0  0  0  0  0  0
  -24.9220  -34.1130   24.9720 H   0  0  0  0  0  0  0  0  0  0  0  0
  -24.0900  -36.8150   23.0760 C   0  0  0  0  0  1  0  0  0  0  0  0
  -25.3380  -36.4060   23.8760 C   0  0  0  0  0  3  0  0  0  0  0  0
  -27.4780  -37.2860   24.6990 C   0  0  0  0  0  1  0  0  0  0  0  0
  -26.3670  -37.4630   23.7660 N   0  0  0  0  0  0  0  0  0  0  0  0
  -25.9610  -38.3800   23.9270 H   0  0  0  0  0  0  0  0  0  0  0  0
  -31.6740  -21.7760   24.7530 C   0  0  0  0  0  1  0  0  0  0  0  0
  -31.3880  -20.7400   23.8220 O   0  0  0  0  0  0  0  0  0  0  0  0
  1  2  2  0
  1  4  1  0
  2  5  1  0
  3  6  1  0
  4  3  2  0
  5 11  1  0
  5  6  2  0
  6 97  1  0
  7  8  1  0
  9 10  1  0
  9 11  1  0
 10 20  1  0
 10  7  1  0
 11  8  1  0
 12 20  1  0
 13 18  1  0
 14 15  1  0
 14 13  1  0
 16 15  1  0
 16 25  1  0
 16 17  1  0
 18 12  1  0
 18 17  1  0
 19 12  2  0
 20 21  1  0
 22 23  2  0
 23 42  1  0
 24 23  1  0
 24 27  1  0
 25 26  1  0
 25 22  1  0
 26 24  2  0
 27 28  1  0
 28 29  2  0
 30 33  1  0
 30 29  1  0
 31 30  2  0
 32 31  1  0
 32 27  2  0
 33 34  1  0
 34 35  1  0
 35 36  2  0
 37 36  1  0
 37 41  1  0
 38 37  2  0
 39 34  2  0
 39 38  1  0
 40 39  1  0
 42 43  1  0
 43 46  1  0
 43 45  1  0
 44 42  2  0
 47 22  1  0
 47 48  1  0
 49 47  1  0
 50 53  1  0
 50 51  1  0
 51 54  1  0
 53  4  1  0
 53 52  1  0
 54 55  1  0
 54 52  1  0
 55 57  1  0
 56 67  2  0
 57 62  1  0
 58 66  1  0
 58 68  1  0
 59 65  1  0
 59 61  1  0
 60 66  1  0
 61 60  1  0
 62 61  2  0
 63 64  1  0
 63 57  2  0
 64 59  2  0
 65 58  1  0
 66 56  1  0
 68 70  2  0
 69 68  1  0
 71 69  1  0
 72 81  2  0
 72 77  1  0
 73 69  1  0
 73 77  1  0
 74 73  1  0
 75 76  1  0
 75 74  1  0
 76 72  1  0
 77 78  2  0
 78 79  1  0
 80 79  2  0
 81 80  1  0
 82 56  1  0
 82 87  1  0
 82 83  1  0
 83 86  1  1
 83 84  1  0
 85 83  1  0
 87 90  1  0
 88 92  1  0
 88 87  1  0
 89 88  2  0
 92 91  1  0
 94 92  1  0
 94 95  1  0
 94 93  1  0
 97 96  1  0
M  ISO  4  12 100  20 100  54 101  55 101
M  END
>  <TORSDO>  (63) 
F 19

>  <SCORE>  (63) 
-13.408

>  <name>  (63) 
62

>  <ligand_id>  (63) 
62

>  <original_smiles>  (63) 
[H]c1c([H])c([H])c2c(c1[H])C([H])([H])C([H])([H])C([H])([H])C2([H])N([H])C(=O)C1([H])N(C(=O)C([H])(N([H])C(=O)C([H])(N([H])C([H])([H])[H])C([H])([H])[H])C(C([H])([H])[H])(C([H])([H])[H])C([H])([H])[H])C([H])([H])c2c([H])c(OC3([H])C([H])([H])C([H])([H])C([H])(c4c([H])c([H])c(N5C([H])([H])C([H])([H])C([H])(N([H])C(=O)N6C([H])([H])C([H])([H])C([H])([H])C([H])(n7nc(-c8c([H])c([H])c(Oc9c([H])c([H])c(F)c([H])c9F)c([H])c8[H])c(C(=O)N([H])[H])c7N([H])[H])C6([H])[H])C5([H])[H])c(OC([H])([H])[H])c4[H])C3([H])[H])c([H])c([H])c2C1([H])[H]

>  <smiles>  (63) 
[H]c1c([H])c([H])c2c(c1[H])C([H])([H])C([H])([H])C([H])([H])C2([H])N([H])C(=O)C1([H])N(C(=O)C([H])(N([H])C(=O)C([H])(N([H])C([H])([H])[H])C([H])([H])[H])C(C([H])([H])[H])(C([H])([H])[H])C([H])([H])[H])C([H])([H])c2c([H])c(OC3([H])C([H])([H])C([H])([H])C([H])(c4c([H])c([H])c(N5C([H])([H])C([H])([H])C([H])(N([H])C(=O)N6C([H])([H])C([H])([H])C([H])([H])C([H])(n7nc(-c8c([H])c([H])c(Oc9c([H])c([H])c(F)c([H])c9F)c([H])c8[H])c(C(=O)N([H])[H])c7N([H])[H])C6([H])[H])C5([H])[H])c(OC([H])([H])[H])c4[H])C3([H])[H])c([H])c([H])c2C1([H])[H]

$$$$
63:0:0
     RDKit          3D

 93102  0  0  1  0  0  0  0  0999 V2000
  -31.8460  -19.3170   19.3880 C   0  0  0  0  0  3  0  0  0  0  0  0
  -31.3600  -21.9860   18.9220 C   0  0  0  0  0  3  0  0  0  0  0  0
  -30.5740  -19.8120   19.7810 C   0  0  0  0  0  0  0  0  0  0  0  0
  -32.8410  -20.0810   18.7730 C   0  0  0  0  0  0  0  0  0  0  0  0
  -32.5660  -21.4200   18.4750 C   0  0  0  0  0  0  0  0  0  0  0  0
  -30.3310  -21.2860   19.6310 C   0  0  0  0  0  0  0  0  0  0  0  0
  -34.1810  -19.4310   18.4690 C   0  0  0  0  0  1  0  0  0  0  0  0
  -33.5570  -22.2920   17.7220 C   0  0  0  0  0  1  0  0  0  0  0  0
  -30.6540  -14.7830   20.0760 C   0  0  0  0  0  0  0  0  0  0  0  0
  -30.3730  -12.5550   18.9580 C   0  0  0  0  0  2  0  0  0  0  0  0
  -29.3610  -12.6780   17.7960 C   0  0  0  0  0  2  0  0  0  0  0  0
  -27.9170  -12.5070   18.3040 C   0  0  0  0  0  2  0  0  0  0  0  0
  -27.6290  -13.3300   19.5870 C   0  0  0  0  0  3  0  0  0  0  0  0
  -28.7510  -13.1750   20.6340 C   0  0  0  0  0  2  0  0  0  0  0  0
  -30.0050  -13.5660   19.9800 N   0  0  0  0  0  0  0  0  0  0  0  0
  -31.8040  -14.8800   19.6370 O   0  0  0  0  0  0  0  0  0  0  0  0
  -30.2790  -18.0500   21.6970 C   0  0  0  0  0  2  0  0  0  0  0  0
  -30.0210  -16.5130   21.7770 C   0  0  0  0  0  2  0  0  0  0  0  0
  -29.7110  -17.1720   19.5570 C   0  0  0  0  0  2  0  0  0  0  0  0
  -29.7260  -18.5840   20.3650 C   0  0  0  0  0  3  0  0  0  0  0  0
  -29.9300  -15.9390   20.4220 N   0  0  0  0  0  0  0  0  0  0  0  0
  -25.2930  -13.9070   20.4640 C   0  0  0  0  0  0  0  0  0  0  0  0
  -24.2440  -13.1240   20.8700 C   0  0  0  0  0  0  0  0  0  0  0  0
  -24.6970  -11.7720   20.7730 C   0  0  0  0  0  0  0  0  0  0  0  0
  -26.3160  -13.0310   20.1450 N   0  0  0  0  0  0  0  0  0  0  0  0
  -25.9690  -11.7420   20.3900 N   0  0  0  0  0  0  0  0  0  0  0  0
  -23.9770  -10.5060   20.9670 C   0  0  0  0  0  0  0  0  0  0  0  0
  -24.4270   -9.5350   21.8890 C   0  0  0  0  0  3  0  0  0  0  0  0
  -23.7080   -8.3330   22.0700 C   0  0  0  0  0  3  0  0  0  0  0  0
  -22.5230   -8.0960   21.3310 C   0  0  0  0  0  0  0  0  0  0  0  0
  -22.0940   -9.0550   20.3960 C   0  0  0  0  0  3  0  0  0  0  0  0
  -22.8140  -10.2470   20.2120 C   0  0  0  0  0  3  0  0  0  0  0  0
  -21.7740   -6.9480   21.4240 O   0  0  0  0  0  0  0  0  0  0  0  0
  -21.7110   -6.2220   22.5860 C   0  0  0  0  0  0  0  0  0  0  0  0
  -21.2290   -6.7790   23.7900 C   0  0  0  0  0  3  0  0  0  0  0  0
  -21.1180   -5.9770   24.9440 C   0  0  0  0  0  3  0  0  0  0  0  0
  -21.4770   -4.6160   24.8920 C   0  0  0  0  0  0  0  0  0  0  0  0
  -21.9490   -4.0570   23.6920 C   0  0  0  0  0  3  0  0  0  0  0  0
  -22.0640   -4.8570   22.5420 C   0  0  0  0  0  0  0  0  0  0  0  0
  -22.5030   -4.3100   21.3830 F   0  0  0  0  0  0  0  0  0  0  0  0
  -21.3620   -3.8430   25.9970 F   0  0  0  0  0  0  0  0  0  0  0  0
  -22.8660  -13.5970   21.2310 C   0  0  0  0  0  0  0  0  0  0  0  0
  -22.1780  -12.8710   22.1080 N   0  0  0  0  0  0  0  0  0  0  0  0
  -22.4070  -14.6390   20.7690 O   0  0  0  0  0  0  0  0  0  0  0  0
  -22.5670  -12.0270   22.5070 H   0  0  0  0  0  0  0  0  0  0  0  0
  -21.2520  -13.1650   22.3860 H   0  0  0  0  0  0  0  0  0  0  0  0
  -25.4580  -15.2790   20.3220 N   0  0  0  0  0  0  0  0  0  0  0  0
  -24.7100  -15.9390   20.5020 H   0  0  0  0  0  0  0  0  0  0  0  0
  -26.3080  -15.7230   19.9930 H   0  0  0  0  0  0  0  0  0  0  0  0
  -29.2490  -22.1290   20.0910 O   0  0  0  0  0  0  0  0  0  0  0  0
  -29.3110  -23.6600   19.9370 C   0  0  0  0  0  3  0  0  0  0  0  0
  -28.1790  -24.7590   20.3860 C   0  0  0  0  0  3  0  0  0  0  0  0
  -28.3890  -26.2780   20.2880 O   0  0  0  0  0  0  0  0  0  0  0  0
  -24.6210  -31.8480   23.2460 C   0  0  0  0  0  0  0  0  0  0  0  0
  -27.2870  -27.1870   20.2580 C   0  0  0  0  0  0  0  0  0  0  0  0
  -23.4550  -30.4300   21.5980 C   0  0  0  0  0  3  0  0  0  0  0  0
  -24.9350  -28.8670   20.2070 C   0  0  0  0  0  0  0  0  0  0  0  0
  -26.0040  -30.7310   21.4630 C   0  0  0  0  0  2  0  0  0  0  0  0
  -26.1000  -29.3400   20.8240 C   0  0  0  0  0  0  0  0  0  0  0  0
  -27.2790  -28.5140   20.8320 C   0  0  0  0  0  3  0  0  0  0  0  0
  -26.0940  -26.7990   19.6090 C   0  0  0  0  0  3  0  0  0  0  0  0
  -24.9420  -27.6080   19.5890 C   0  0  0  0  0  3  0  0  0  0  0  0
  -23.7010  -29.7480   20.2280 C   0  0  0  0  0  2  0  0  0  0  0  0
  -24.7130  -31.0260   22.1560 N   0  0  0  0  0  0  0  0  0  0  0  0
  -23.5240  -32.1250   23.7540 O   0  0  0  0  0  0  0  0  0  0  0  0
  -22.7750  -29.4200   22.5560 C   0  0  0  0  0  0  0  0  0  0  0  0
  -21.4480  -29.2520   22.4240 N   0  0  0  0  0  0  0  0  0  0  0  0
  -23.4440  -28.7890   23.3800 O   0  0  0  0  0  0  0  0  0  0  0  0
  -20.9720  -29.8100   21.7290 H   0  0  0  0  0  0  0  0  0  0  0  0
  -18.0520  -28.1030   22.9340 C   0  0  0  0  0  0  0  0  0  0  0  0
  -20.6170  -28.3190   23.1900 C   0  0  0  0  0  3  0  0  0  0  0  0
  -20.6920  -26.8940   22.5960 C   0  0  0  0  0  2  0  0  0  0  0  0
  -19.5770  -26.6020   21.5870 C   0  0  0  0  0  2  0  0  0  0  0  0
  -18.2020  -26.7610   22.2420 C   0  0  0  0  0  2  0  0  0  0  0  0
  -19.1860  -28.8430   23.3650 C   0  0  0  0  0  0  0  0  0  0  0  0
  -18.9880  -30.1020   23.9720 C   0  0  0  0  0  3  0  0  0  0  0  0
  -17.6900  -30.6180   24.1570 C   0  0  0  0  0  3  0  0  0  0  0  0
  -16.5730  -29.8730   23.7420 C   0  0  0  0  0  3  0  0  0  0  0  0
  -16.7550  -28.6190   23.1340 C   0  0  0  0  0  3  0  0  0  0  0  0
  -25.8860  -32.4950   23.8890 C   0  0  0  0  0  3  0  0  0  0  0  0
  -26.3710  -31.7470   25.1930 C   0  0  1  0  0  0  0  0  0  0  0  0
  -25.2500  -31.5220   26.2360 C   0  0  0  0  0  1  0  0  0  0  0  0
  -26.9680  -30.3650   24.8410 C   0  0  0  0  0  1  0  0  0  0  0  0
  -27.5050  -32.5550   25.8660 C   0  0  0  0  0  1  0  0  0  0  0  0
  -25.5660  -33.8970   24.1910 N   0  0  0  0  0  0  0  0  0  0  0  0
  -25.9180  -34.9410   23.4290 C   0  0  0  0  0  0  0  0  0  0  0  0
  -26.6140  -34.8220   22.4160 O   0  0  0  0  0  0  0  0  0  0  0  0
  -24.9500  -34.0610   24.9720 H   0  0  0  0  0  0  0  0  0  0  0  0
  -24.2130  -36.7410   22.9930 C   0  0  0  0  0  1  0  0  0  0  0  0
  -25.4210  -36.3380   23.8540 C   0  0  0  0  0  3  0  0  0  0  0  0
  -27.5240  -37.2230   24.7600 C   0  0  0  0  0  1  0  0  0  0  0  0
  -26.4620  -37.3860   23.7710 N   0  0  0  0  0  0  0  0  0  0  0  0
  -26.0560  -38.3110   23.8910 H   0  0  0  0  0  0  0  0  0  0  0  0
  1  3  1  0
  2  6  1  0
  4  1  2  0
  5  4  1  0
  5  2  2  0
  6  3  2  0
  6 50  1  0
  7  4  1  0
  8  5  1  0
  9 21  1  0
 10 15  1  0
 11 12  1  0
 11 10  1  0
 13 12  1  0
 13 25  1  0
 13 14  1  0
 15  9  1  0
 15 14  1  0
 16  9  2  0
 17 18  1  0
 19 20  1  0
 19 21  1  0
 20  3  1  0
 20 17  1  0
 21 18  1  0
 22 23  2  0
 23 42  1  0
 24 23  1  0
 24 27  1  0
 25 26  1  0
 25 22  1  0
 26 24  2  0
 27 28  1  0
 28 29  2  0
 30 33  1  0
 30 29  1  0
 31 30  2  0
 32 31  1  0
 32 27  2  0
 33 34  1  0
 34 35  1  0
 35 36  2  0
 37 36  1  0
 37 41  1  0
 38 37  2  0
 39 34  2  0
 39 38  1  0
 40 39  1  0
 42 43  1  0
 43 46  1  0
 43 45  1  0
 44 42  2  0
 47 22  1  0
 47 48  1  0
 49 47  1  0
 51 50  1  0
 51 52  2  0
 53 52  1  0
 54 65  2  0
 55 53  1  0
 55 60  1  0
 56 64  1  0
 56 66  1  0
 57 63  1  0
 57 59  1  0
 58 64  1  0
 59 60  2  0
 59 58  1  0
 61 55  2  0
 62 61  1  0
 62 57  2  0
 63 56  1  0
 64 54  1  0
 66 68  2  0
 67 66  1  0
 69 67  1  0
 70 79  2  0
 70 75  1  0
 71 67  1  0
 71 75  1  0
 72 71  1  0
 73 74  1  0
 73 72  1  0
 74 70  1  0
 75 76  2  0
 76 77  1  0
 78 77  2  0
 79 78  1  0
 80 54  1  0
 80 85  1  0
 80 81  1  0
 81 84  1  1
 81 82  1  0
 83 81  1  0
 85 88  1  0
 86 90  1  0
 86 85  1  0
 87 86  2  0
 90 89  1  0
 92 90  1  0
 92 93  1  0
 92 91  1  0
M  ISO  4   9 100  21 100  52 101  53 101
M  END
>  <TORSDO>  (64) 
F 19

>  <SCORE>  (64) 
-14.129

>  <name>  (64) 
63

>  <ligand_id>  (64) 
63

>  <original_smiles>  (64) 
[H]c1c([H])c([H])c2c(c1[H])C([H])([H])C([H])([H])C([H])([H])C2([H])N([H])C(=O)C1([H])N(C(=O)C([H])(N([H])C(=O)C([H])(N([H])C([H])([H])[H])C([H])([H])[H])C(C([H])([H])[H])(C([H])([H])[H])C([H])([H])[H])C([H])([H])c2c([H])c(OC([H])([H])C([H])([H])Oc3c([H])c(C([H])([H])[H])c(C([H])([H])[H])c([H])c3C3([H])C([H])([H])N(C(=O)N4C([H])([H])C([H])([H])C([H])([H])C([H])(n5nc(-c6c([H])c([H])c(Oc7c([H])c([H])c(F)c([H])c7F)c([H])c6[H])c(C(=O)N([H])[H])c5N([H])[H])C4([H])[H])C([H])([H])C3([H])[H])c([H])c([H])c2C1([H])[H]

>  <smiles>  (64) 
[H]c1c([H])c([H])c2c(c1[H])C([H])([H])C([H])([H])C([H])([H])C2([H])N([H])C(=O)C1([H])N(C(=O)C([H])(N([H])C(=O)C([H])(N([H])C([H])([H])[H])C([H])([H])[H])C(C([H])([H])[H])(C([H])([H])[H])C([H])([H])[H])C([H])([H])c2c([H])c(OC([H])([H])C([H])([H])Oc3c([H])c(C([H])([H])[H])c(C([H])([H])[H])c([H])c3C3([H])C([H])([H])N(C(=O)N4C([H])([H])C([H])([H])C([H])([H])C([H])(n5nc(-c6c([H])c([H])c(Oc7c([H])c([H])c(F)c([H])c7F)c([H])c6[H])c(C(=O)N([H])[H])c5N([H])[H])C4([H])[H])C([H])([H])C3([H])[H])c([H])c([H])c2C1([H])[H]

$$$$
64:0:0
     RDKit          3D

 96105  0  0  1  0  0  0  0  0999 V2000
  -28.7660  -22.9700   20.1190 C   0  0  0  0  0  3  0  0  0  0  0  0
  -30.8390  -23.9650   20.8760 C   0  0  0  0  0  3  0  0  0  0  0  0
  -29.3180  -21.6680   20.2160 C   0  0  0  0  0  0  0  0  0  0  0  0
  -29.5260  -24.1350   20.3900 C   0  0  0  0  0  0  0  0  0  0  0  0
  -31.3990  -22.6650   21.0070 C   0  0  0  0  0  0  0  0  0  0  0  0
  -30.6700  -21.5100   20.6210 C   0  0  0  0  0  0  0  0  0  0  0  0
  -32.8100  -22.5050   21.5430 C   0  0  0  0  0  1  0  0  0  0  0  0
  -27.4460  -18.9280   18.2830 C   0  0  0  0  0  2  0  0  0  0  0  0
  -26.3790  -19.4210   19.2770 C   0  0  0  0  0  2  0  0  0  0  0  0
  -28.6880  -19.8070   18.5210 C   0  0  0  0  0  2  0  0  0  0  0  0
  -26.9390  -20.7200   19.8620 C   0  0  0  0  0  2  0  0  0  0  0  0
  -28.4460  -20.4540   19.8910 C   0  0  0  0  0  3  0  0  0  0  0  0
  -29.0060  -25.4920   19.8700 C   0  0  0  0  0  2  0  0  0  0  0  0
  -29.0540  -26.7150   20.6690 O   0  0  0  0  0  0  0  0  0  0  0  0
  -25.0810  -31.8440   23.7620 C   0  0  0  0  0  0  0  0  0  0  0  0
  -27.9450  -27.5710   20.5630 C   0  0  0  0  0  0  0  0  0  0  0  0
  -24.0050  -30.5720   21.9420 C   0  0  0  0  0  3  0  0  0  0  0  0
  -25.5650  -29.1500   20.5160 C   0  0  0  0  0  0  0  0  0  0  0  0
  -26.5490  -30.9100   21.9750 C   0  0  0  0  0  2  0  0  0  0  0  0
  -26.6820  -29.5890   21.2390 C   0  0  0  0  0  0  0  0  0  0  0  0
  -27.8660  -28.8010   21.2770 C   0  0  0  0  0  3  0  0  0  0  0  0
  -26.8210  -27.2300   19.7670 C   0  0  0  0  0  3  0  0  0  0  0  0
  -25.6340  -27.9670   19.7790 C   0  0  0  0  0  3  0  0  0  0  0  0
  -24.3210  -30.0080   20.5350 C   0  0  0  0  0  2  0  0  0  0  0  0
  -25.2240  -31.1200   22.6160 N   0  0  0  0  0  0  0  0  0  0  0  0
  -23.9610  -32.0810   24.2360 O   0  0  0  0  0  0  0  0  0  0  0  0
  -23.2900  -29.4770   22.7690 C   0  0  0  0  0  0  0  0  0  0  0  0
  -21.9790  -29.3070   22.5330 N   0  0  0  0  0  0  0  0  0  0  0  0
  -23.9140  -28.7910   23.5810 O   0  0  0  0  0  0  0  0  0  0  0  0
  -21.5360  -29.9160   21.8600 H   0  0  0  0  0  0  0  0  0  0  0  0
  -18.5750  -28.1120   22.7320 C   0  0  0  0  0  0  0  0  0  0  0  0
  -21.1130  -28.3180   23.1760 C   0  0  0  0  0  3  0  0  0  0  0  0
  -21.2400  -26.9380   22.4910 C   0  0  0  0  0  2  0  0  0  0  0  0
  -20.1990  -26.7100   21.3910 C   0  0  0  0  0  2  0  0  0  0  0  0
  -18.7830  -26.8170   21.9620 C   0  0  0  0  0  2  0  0  0  0  0  0
  -19.6700  -28.8230   23.2870 C   0  0  0  0  0  0  0  0  0  0  0  0
  -19.4250  -30.0370   23.9660 C   0  0  0  0  0  3  0  0  0  0  0  0
  -18.1170  -30.5380   24.0960 C   0  0  0  0  0  3  0  0  0  0  0  0
  -17.0330  -29.8220   23.5570 C   0  0  0  0  0  3  0  0  0  0  0  0
  -17.2630  -28.6100   22.8800 C   0  0  0  0  0  3  0  0  0  0  0  0
  -26.3150  -32.4280   24.5150 C   0  0  0  0  0  3  0  0  0  0  0  0
  -25.9940  -33.8140   24.8800 N   0  0  0  0  0  0  0  0  0  0  0  0
  -26.4370  -34.8960   24.2240 C   0  0  0  0  0  0  0  0  0  0  0  0
  -27.2320  -34.8310   23.2830 O   0  0  0  0  0  0  0  0  0  0  0  0
  -25.3080  -33.9410   25.6100 H   0  0  0  0  0  0  0  0  0  0  0  0
  -24.8080  -36.7500   23.7420 C   0  0  0  0  0  1  0  0  0  0  0  0
  -25.9150  -36.2680   24.6930 C   0  0  0  0  0  3  0  0  0  0  0  0
  -27.9400  -37.0360   25.8470 C   0  0  0  0  0  1  0  0  0  0  0  0
  -26.9720  -37.2980   24.7870 N   0  0  0  0  0  0  0  0  0  0  0  0
  -26.5640  -38.2150   24.9500 H   0  0  0  0  0  0  0  0  0  0  0  0
  -26.7160  -31.5930   25.7920 C   0  0  1  0  0  0  0  0  0  0  0  0
  -25.5320  -31.2910   26.7380 C   0  0  0  0  0  1  0  0  0  0  0  0
  -27.3510  -30.2420   25.3870 C   0  0  0  0  0  1  0  0  0  0  0  0
  -27.7840  -32.3600   26.6050 C   0  0  0  0  0  1  0  0  0  0  0  0
  -31.2680  -20.2610   20.7120 O   0  0  0  0  0  0  0  0  0  0  0  0
  -31.1310  -19.4140   19.5590 C   0  0  0  0  0  2  0  0  0  0  0  0
  -31.7860  -18.0120   19.7210 C   0  0  0  0  0  2  0  0  0  0  0  0
  -31.5830  -17.2970   21.0890 C   0  0  0  0  0  2  0  0  0  0  0  0
  -31.9250  -14.8400   20.5240 C   0  0  0  0  0  0  0  0  0  0  0  0
  -31.6490  -12.5980   19.5230 C   0  0  0  0  0  2  0  0  0  0  0  0
  -30.7990  -12.7320   18.2420 C   0  0  0  0  0  2  0  0  0  0  0  0
  -29.2910  -12.6700   18.5730 C   0  0  0  0  0  2  0  0  0  0  0  0
  -28.9010  -13.6210   19.7370 C   0  0  0  0  0  3  0  0  0  0  0  0
  -29.8640  -13.4490   20.9340 C   0  0  0  0  0  2  0  0  0  0  0  0
  -31.2380  -13.6670   20.4450 N   0  0  0  0  0  0  0  0  0  0  0  0
  -33.0690  -14.9850   20.0800 O   0  0  0  0  0  0  0  0  0  0  0  0
  -31.2130  -15.8720   21.0000 N   0  0  0  0  0  0  0  0  0  0  0  0
  -30.2910  -15.6260   21.3340 H   0  0  0  0  0  0  0  0  0  0  0  0
  -26.5080  -14.3870   20.3020 C   0  0  0  0  0  0  0  0  0  0  0  0
  -25.3740  -13.6880   20.6200 C   0  0  0  0  0  0  0  0  0  0  0  0
  -25.7540  -12.3110   20.6340 C   0  0  0  0  0  0  0  0  0  0  0  0
  -27.5080  -13.4410   20.1400 N   0  0  0  0  0  0  0  0  0  0  0  0
  -27.0530  -12.1870   20.3950 N   0  0  0  0  0  0  0  0  0  0  0  0
  -24.9470  -11.0970   20.8050 C   0  0  0  0  0  0  0  0  0  0  0  0
  -25.2250  -10.1650   21.8290 C   0  0  0  0  0  3  0  0  0  0  0  0
  -24.4260   -9.0110   21.9830 C   0  0  0  0  0  3  0  0  0  0  0  0
  -23.3330   -8.7830   21.1110 C   0  0  0  0  0  0  0  0  0  0  0  0
  -23.0740   -9.7050   20.0810 C   0  0  0  0  0  3  0  0  0  0  0  0
  -23.8740  -10.8490   19.9260 C   0  0  0  0  0  3  0  0  0  0  0  0
  -22.5200   -7.6780   21.1660 O   0  0  0  0  0  0  0  0  0  0  0  0
  -22.1850   -7.0900   22.3600 C   0  0  0  0  0  0  0  0  0  0  0  0
  -21.5620   -7.8160   23.3990 C   0  0  0  0  0  3  0  0  0  0  0  0
  -21.1690   -7.1560   24.5800 C   0  0  0  0  0  3  0  0  0  0  0  0
  -21.3890   -5.7730   24.7220 C   0  0  0  0  0  0  0  0  0  0  0  0
  -22.0070   -5.0490   23.6870 C   0  0  0  0  0  3  0  0  0  0  0  0
  -22.4000   -5.7050   22.5080 C   0  0  0  0  0  0  0  0  0  0  0  0
  -22.9750   -4.9990   21.5060 F   0  0  0  0  0  0  0  0  0  0  0  0
  -21.0070   -5.1370   25.8530 F   0  0  0  0  0  0  0  0  0  0  0  0
  -23.9960  -14.2540   20.8060 C   0  0  0  0  0  0  0  0  0  0  0  0
  -23.1870  -13.6330   21.6550 N   0  0  0  0  0  0  0  0  0  0  0  0
  -23.6430  -15.2840   20.2330 O   0  0  0  0  0  0  0  0  0  0  0  0
  -23.4850  -12.8040   22.1460 H   0  0  0  0  0  0  0  0  0  0  0  0
  -22.2570  -13.9930   21.8160 H   0  0  0  0  0  0  0  0  0  0  0  0
  -26.7630  -15.7420   20.1200 N   0  0  0  0  0  0  0  0  0  0  0  0
  -26.0260  -16.4340   20.2010 H   0  0  0  0  0  0  0  0  0  0  0  0
  -27.6490  -16.1350   19.8280 H   0  0  0  0  0  0  0  0  0  0  0  0
  1  3  2  0
  1  4  1  0
  2  5  1  0
  3  6  1  0
  4  2  2  0
  5  7  1  0
  6 55  1  0
  6  5  2  0
  8 10  1  0
  8  9  1  0
  9 11  1  0
 10 12  1  0
 11 12  1  0
 12  3  1  0
 13  4  1  0
 13 14  1  0
 15 26  2  0
 16 14  1  0
 16 21  1  0
 17 25  1  0
 17 27  1  0
 18 24  1  0
 18 20  1  0
 19 25  1  0
 20 21  2  0
 20 19  1  0
 22 23  1  0
 22 16  2  0
 23 18  2  0
 24 17  1  0
 25 15  1  0
 27 29  2  0
 28 27  1  0
 30 28  1  0
 31 40  2  0
 31 36  1  0
 32 28  1  0
 32 36  1  0
 33 32  1  0
 34 35  1  0
 34 33  1  0
 35 31  1  0
 36 37  2  0
 37 38  1  0
 39 38  2  0
 40 39  1  0
 41 15  1  0
 41 42  1  0
 41 51  1  0
 42 45  1  0
 43 47  1  0
 43 42  1  0
 44 43  2  0
 47 46  1  0
 47 49  1  0
 49 50  1  0
 49 48  1  0
 51 54  1  1
 51 52  1  0
 53 51  1  0
 56 57  1  0
 56 55  1  0
 57 58  1  0
 59 67  1  0
 60 65  1  0
 61 62  1  0
 61 60  1  0
 63 62  1  0
 63 72  1  0
 63 64  1  0
 65 59  1  0
 65 64  1  0
 66 59  2  0
 67 58  1  0
 67 68  1  0
 69 70  2  0
 70 71  1  0
 70 89  1  0
 71 74  1  0
 72 69  1  0
 72 73  1  0
 73 71  2  0
 74 75  1  0
 75 76  2  0
 77 80  1  0
 77 76  1  0
 78 77  2  0
 79 78  1  0
 79 74  2  0
 80 81  1  0
 81 86  2  0
 81 82  1  0
 82 83  2  0
 83 84  1  0
 84 88  1  0
 85 84  2  0
 86 85  1  0
 87 86  1  0
 89 90  1  0
 90 93  1  0
 90 92  1  0
 91 89  2  0
 94 95  1  0
 94 69  1  0
 96 94  1  0
M  ISO  4  13 101  14 101  59 100  67 100
M  END
>  <TORSDO>  (65) 
F 22

>  <SCORE>  (65) 
-9.386

>  <name>  (65) 
64

>  <ligand_id>  (65) 
64

>  <original_smiles>  (65) 
[H]c1c([H])c([H])c2c(c1[H])C([H])([H])C([H])([H])C([H])([H])C2([H])N([H])C(=O)C1([H])N(C(=O)C([H])(N([H])C(=O)C([H])(N([H])C([H])([H])[H])C([H])([H])[H])C(C([H])([H])[H])(C([H])([H])[H])C([H])([H])[H])C([H])([H])c2c([H])c(OC([H])([H])c3c([H])c(C([H])([H])[H])c(OC([H])([H])C([H])([H])C([H])([H])N([H])C(=O)N4C([H])([H])C([H])([H])C([H])([H])C([H])(n5nc(-c6c([H])c([H])c(Oc7c([H])c([H])c(F)c([H])c7F)c([H])c6[H])c(C(=O)N([H])[H])c5N([H])[H])C4([H])[H])c(C4([H])C([H])([H])C([H])([H])C([H])([H])C4([H])[H])c3[H])c([H])c([H])c2C1([H])[H]

>  <smiles>  (65) 
[H]c1c([H])c([H])c2c(c1[H])C([H])([H])C([H])([H])C([H])([H])C2([H])N([H])C(=O)C1([H])N(C(=O)C([H])(N([H])C(=O)C([H])(N([H])C([H])([H])[H])C([H])([H])[H])C(C([H])([H])[H])(C([H])([H])[H])C([H])([H])[H])C([H])([H])c2c([H])c(OC([H])([H])c3c([H])c(C([H])([H])[H])c(OC([H])([H])C([H])([H])C([H])([H])N([H])C(=O)N4C([H])([H])C([H])([H])C([H])([H])C([H])(n5nc(-c6c([H])c([H])c(Oc7c([H])c([H])c(F)c([H])c7F)c([H])c6[H])c(C(=O)N([H])[H])c5N([H])[H])C4([H])[H])c(C4([H])C([H])([H])C([H])([H])C([H])([H])C4([H])[H])c3[H])c([H])c([H])c2C1([H])[H]

$$$$
65:0:0
     RDKit          3D

 92101  0  0  1  0  0  0  0  0999 V2000
  -29.0570  -23.1780   21.6000 C   0  0  0  0  0  0  0  0  0  0  0  0
  -28.6220  -23.4510   20.2640 C   0  0  0  0  0  0  0  0  0  0  0  0
  -29.4200  -21.8460   21.7280 C   0  0  0  0  0  0  0  0  0  0  0  0
  -28.7690  -22.1750   19.6460 C   0  0  0  0  0  0  0  0  0  0  0  0
  -29.0840  -24.1770   22.7310 C   0  0  0  0  0  1  0  0  0  0  0  0
  -29.9390  -21.1640   22.9620 C   0  0  0  0  0  1  0  0  0  0  0  0
  -28.4600  -21.8130   18.2290 C   0  0  0  0  0  1  0  0  0  0  0  0
  -29.2630  -21.1400   20.5270 N   0  0  0  0  0  0  0  0  0  0  0  0
  -30.6920  -15.0600   19.9220 C   0  0  0  0  0  0  0  0  0  0  0  0
  -30.4200  -12.7490   18.9430 C   0  0  0  0  0  2  0  0  0  0  0  0
  -29.4160  -12.7280   17.7720 C   0  0  0  0  0  2  0  0  0  0  0  0
  -27.9860  -12.5170   18.3000 C   0  0  0  0  0  2  0  0  0  0  0  0
  -27.6580  -13.4250   19.5160 C   0  0  0  0  0  3  0  0  0  0  0  0
  -28.7880  -13.4330   20.5670 C   0  0  0  0  0  2  0  0  0  0  0  0
  -30.0080  -13.8480   19.8650 N   0  0  0  0  0  0  0  0  0  0  0  0
  -31.8810  -15.0170   19.5830 O   0  0  0  0  0  0  0  0  0  0  0  0
  -30.0810  -18.9450   19.0440 C   0  0  0  0  0  2  0  0  0  0  0  0
  -28.6740  -18.4700   20.9110 C   0  0  0  0  0  2  0  0  0  0  0  0
  -30.7320  -17.4790   19.1710 C   0  0  0  0  0  2  0  0  0  0  0  0
  -29.2330  -16.9520   21.0260 C   0  0  0  0  0  2  0  0  0  0  0  0
  -29.6450  -19.5990   20.3880 C   0  0  0  0  0  3  0  0  0  0  0  0
  -30.0530  -16.3430   19.9170 N   0  0  0  0  0  0  0  0  0  0  0  0
  -25.3380  -13.9720   20.4400 C   0  0  0  0  0  0  0  0  0  0  0  0
  -24.3010  -13.1830   20.8510 C   0  0  0  0  0  0  0  0  0  0  0  0
  -24.7600  -11.8340   20.7410 C   0  0  0  0  0  0  0  0  0  0  0  0
  -26.3610  -13.1050   20.0990 N   0  0  0  0  0  0  0  0  0  0  0  0
  -26.0280  -11.8120   20.3440 N   0  0  0  0  0  0  0  0  0  0  0  0
  -24.0450  -10.5650   20.9300 C   0  0  0  0  0  0  0  0  0  0  0  0
  -24.4830   -9.6030   21.8660 C   0  0  0  0  0  3  0  0  0  0  0  0
  -23.7660   -8.4000   22.0460 C   0  0  0  0  0  3  0  0  0  0  0  0
  -22.5960   -8.1510   21.2890 C   0  0  0  0  0  0  0  0  0  0  0  0
  -22.1780   -9.1020   20.3420 C   0  0  0  0  0  3  0  0  0  0  0  0
  -22.8960  -10.2960   20.1610 C   0  0  0  0  0  3  0  0  0  0  0  0
  -21.8500   -7.0010   21.3780 O   0  0  0  0  0  0  0  0  0  0  0  0
  -21.7250   -6.3130   22.5590 C   0  0  0  0  0  0  0  0  0  0  0  0
  -21.1870   -6.9140   23.7180 C   0  0  0  0  0  3  0  0  0  0  0  0
  -21.0110   -6.1510   24.8890 C   0  0  0  0  0  3  0  0  0  0  0  0
  -21.3620   -4.7880   24.9020 C   0  0  0  0  0  0  0  0  0  0  0  0
  -21.8940   -4.1870   23.7490 C   0  0  0  0  0  3  0  0  0  0  0  0
  -22.0710   -4.9470   22.5790 C   0  0  0  0  0  0  0  0  0  0  0  0
  -22.5640   -4.3570   21.4630 F   0  0  0  0  0  0  0  0  0  0  0  0
  -21.1870   -4.0540   26.0250 F   0  0  0  0  0  0  0  0  0  0  0  0
  -22.9260  -13.6490   21.2300 C   0  0  0  0  0  0  0  0  0  0  0  0
  -22.2560  -12.9230   22.1190 N   0  0  0  0  0  0  0  0  0  0  0  0
  -22.4560  -14.6900   20.7740 O   0  0  0  0  0  0  0  0  0  0  0  0
  -22.6510  -12.0800   22.5070 H   0  0  0  0  0  0  0  0  0  0  0  0
  -21.3350  -13.2160   22.4150 H   0  0  0  0  0  0  0  0  0  0  0  0
  -25.4920  -15.3490   20.3020 N   0  0  0  0  0  0  0  0  0  0  0  0
  -24.7360  -15.9980   20.4850 H   0  0  0  0  0  0  0  0  0  0  0  0
  -26.3190  -15.7980   19.9300 H   0  0  0  0  0  0  0  0  0  0  0  0
  -27.9470  -24.8490   19.7080 C   0  0  0  0  0  2  0  0  0  0  0  0
  -28.1660  -26.3010   20.2010 O   0  0  0  0  0  0  0  0  0  0  0  0
  -24.5520  -31.9350   23.2250 C   0  0  0  0  0  0  0  0  0  0  0  0
  -27.1230  -27.2910   20.1060 C   0  0  0  0  0  0  0  0  0  0  0  0
  -23.3420  -30.5490   21.5880 C   0  0  0  0  0  3  0  0  0  0  0  0
  -24.7830  -29.0140   20.1210 C   0  0  0  0  0  0  0  0  0  0  0  0
  -25.8920  -30.8390   21.3960 C   0  0  0  0  0  2  0  0  0  0  0  0
  -25.9650  -29.4580   20.7260 C   0  0  0  0  0  0  0  0  0  0  0  0
  -27.1330  -28.6090   20.7130 C   0  0  0  0  0  3  0  0  0  0  0  0
  -25.9230  -26.9680   19.4290 C   0  0  0  0  0  3  0  0  0  0  0  0
  -24.7730  -27.7820   19.4580 C   0  0  0  0  0  3  0  0  0  0  0  0
  -23.5490  -29.8960   20.1960 C   0  0  0  0  0  2  0  0  0  0  0  0
  -24.6160  -31.1290   22.1230 N   0  0  0  0  0  0  0  0  0  0  0  0
  -23.4700  -32.2050   23.7690 O   0  0  0  0  0  0  0  0  0  0  0  0
  -22.6870  -29.5210   22.5460 C   0  0  0  0  0  0  0  0  0  0  0  0
  -21.3670  -29.3070   22.4050 N   0  0  0  0  0  0  0  0  0  0  0  0
  -23.3680  -28.9190   23.3790 O   0  0  0  0  0  0  0  0  0  0  0  0
  -20.8730  -29.8440   21.7050 H   0  0  0  0  0  0  0  0  0  0  0  0
  -18.0240  -27.9810   22.8430 C   0  0  0  0  0  0  0  0  0  0  0  0
  -20.5640  -28.3500   23.1700 C   0  0  0  0  0  3  0  0  0  0  0  0
  -20.7370  -26.9150   22.6230 C   0  0  0  0  0  2  0  0  0  0  0  0
  -19.6750  -26.5310   21.5890 C   0  0  0  0  0  2  0  0  0  0  0  0
  -18.2720  -26.6310   22.1940 C   0  0  0  0  0  2  0  0  0  0  0  0
  -19.1010  -28.7960   23.2860 C   0  0  0  0  0  0  0  0  0  0  0  0
  -18.8150  -30.0590   23.8510 C   0  0  0  0  0  3  0  0  0  0  0  0
  -17.4870  -30.5070   23.9780 C   0  0  0  0  0  3  0  0  0  0  0  0
  -16.4260  -29.6900   23.5520 C   0  0  0  0  0  3  0  0  0  0  0  0
  -16.6940  -28.4290   22.9910 C   0  0  0  0  0  3  0  0  0  0  0  0
  -25.8320  -32.5750   23.8420 C   0  0  0  0  0  3  0  0  0  0  0  0
  -25.5240  -33.9780   24.1600 N   0  0  0  0  0  0  0  0  0  0  0  0
  -25.8250  -35.0230   23.3780 C   0  0  0  0  0  0  0  0  0  0  0  0
  -26.4620  -34.9080   22.3280 O   0  0  0  0  0  0  0  0  0  0  0  0
  -24.9570  -34.1400   24.9810 H   0  0  0  0  0  0  0  0  0  0  0  0
  -24.0680  -36.7980   23.0740 C   0  0  0  0  0  1  0  0  0  0  0  0
  -25.3480  -36.4170   23.8340 C   0  0  0  0  0  3  0  0  0  0  0  0
  -27.5060  -37.3360   24.5610 C   0  0  0  0  0  1  0  0  0  0  0  0
  -26.3650  -37.4770   23.6580 N   0  0  0  0  0  0  0  0  0  0  0  0
  -25.9580  -38.3970   23.8010 H   0  0  0  0  0  0  0  0  0  0  0  0
  -26.3420  -31.8200   25.1300 C   0  0  1  0  0  0  0  0  0  0  0  0
  -25.2410  -31.5880   26.1920 C   0  0  0  0  0  1  0  0  0  0  0  0
  -26.9330  -30.4400   24.7600 C   0  0  0  0  0  1  0  0  0  0  0  0
  -27.4870  -32.6250   25.7910 C   0  0  0  0  0  1  0  0  0  0  0  0
  1  3  2  0
  1  5  1  0
  2  1  1  0
  3  6  1  0
  4  2  2  0
  4  8  1  0
  7  4  1  0
  8  3  1  0
 10 15  1  0
 11 12  1  0
 11 10  1  0
 13 12  1  0
 13 26  1  0
 13 14  1  0
 15  9  1  0
 15 14  1  0
 16  9  2  0
 17 19  1  0
 18 20  1  0
 19 22  1  0
 21 17  1  0
 21  8  1  0
 21 18  1  0
 22  9  1  0
 22 20  1  0
 23 24  2  0
 24 43  1  0
 25 24  1  0
 25 28  1  0
 26 27  1  0
 26 23  1  0
 27 25  2  0
 28 29  1  0
 29 30  2  0
 31 34  1  0
 31 30  1  0
 32 31  2  0
 33 32  1  0
 33 28  2  0
 34 35  1  0
 35 40  2  0
 35 36  1  0
 36 37  2  0
 37 38  1  0
 38 42  1  0
 39 38  2  0
 40 39  1  0
 41 40  1  0
 43 44  1  0
 44 47  1  0
 44 46  1  0
 45 43  2  0
 48 23  1  0
 48 49  1  0
 50 48  1  0
 51 52  1  0
 51  2  1  0
 53 64  2  0
 54 52  1  0
 54 59  1  0
 55 63  1  0
 55 65  1  0
 56 62  1  0
 56 58  1  0
 57 63  1  0
 58 57  1  0
 59 58  2  0
 60 61  1  0
 60 54  2  0
 61 56  2  0
 62 55  1  0
 63 53  1  0
 65 67  2  0
 66 65  1  0
 68 66  1  0
 69 78  2  0
 69 74  1  0
 70 66  1  0
 70 74  1  0
 71 70  1  0
 72 73  1  0
 72 71  1  0
 73 69  1  0
 74 75  2  0
 75 76  1  0
 77 76  2  0
 78 77  1  0
 79 53  1  0
 79 80  1  0
 79 89  1  0
 80 83  1  0
 81 85  1  0
 81 80  1  0
 82 81  2  0
 85 84  1  0
 87 88  1  0
 87 85  1  0
 87 86  1  0
 89 92  1  1
 89 90  1  0
 91 89  1  0
M  ISO  4   9 100  22 100  51 101  52 101
M  END
>  <TORSDO>  (66) 
F 17

>  <SCORE>  (66) 
-14.866

>  <name>  (66) 
65

>  <ligand_id>  (66) 
65

>  <original_smiles>  (66) 
[H]c1c([H])c([H])c2c(c1[H])C([H])([H])C([H])([H])C([H])([H])C2([H])N([H])C(=O)C1([H])N(C(=O)C([H])(N([H])C(=O)C([H])(N([H])C([H])([H])[H])C([H])([H])[H])C(C([H])([H])[H])(C([H])([H])[H])C([H])([H])[H])C([H])([H])c2c([H])c(OC([H])([H])c3c(C([H])([H])[H])c(C([H])([H])[H])n(C4([H])C([H])([H])C([H])([H])N(C(=O)N5C([H])([H])C([H])([H])C([H])([H])C([H])(n6nc(-c7c([H])c([H])c(Oc8c([H])c([H])c(F)c([H])c8F)c([H])c7[H])c(C(=O)N([H])[H])c6N([H])[H])C5([H])[H])C([H])([H])C4([H])[H])c3C([H])([H])[H])c([H])c([H])c2C1([H])[H]

>  <smiles>  (66) 
[H]c1c([H])c([H])c2c(c1[H])C([H])([H])C([H])([H])C([H])([H])C2([H])N([H])C(=O)C1([H])N(C(=O)C([H])(N([H])C(=O)C([H])(N([H])C([H])([H])[H])C([H])([H])[H])C(C([H])([H])[H])(C([H])([H])[H])C([H])([H])[H])C([H])([H])c2c([H])c(OC([H])([H])c3c(C([H])([H])[H])c(C([H])([H])[H])n(C4([H])C([H])([H])C([H])([H])N(C(=O)N5C([H])([H])C([H])([H])C([H])([H])C([H])(n6nc(-c7c([H])c([H])c(Oc8c([H])c([H])c(F)c([H])c8F)c([H])c7[H])c(C(=O)N([H])[H])c6N([H])[H])C5([H])[H])C([H])([H])C4([H])[H])c3C([H])([H])[H])c([H])c([H])c2C1([H])[H]

$$$$
66:0:0
     RDKit          3D

 93102  0  0  1  0  0  0  0  0999 V2000
  -28.8200  -23.5110   19.9950 C   0  0  0  0  0  3  0  0  0  0  0  0
  -30.7520  -22.5640   18.2750 C   0  0  0  0  0  3  0  0  0  0  0  0
  -29.3430  -22.1960   20.2020 C   0  0  0  0  0  0  0  0  0  0  0  0
  -29.1990  -24.3730   18.9340 C   0  0  0  0  0  0  0  0  0  0  0  0
  -30.2060  -23.8700   18.0720 C   0  0  0  0  0  0  0  0  0  0  0  0
  -30.3250  -21.6710   19.3010 C   0  0  0  0  0  0  0  0  0  0  0  0
  -30.6540  -24.6990   16.8790 C   0  0  0  0  0  1  0  0  0  0  0  0
  -28.1410  -22.1100   22.5510 C   0  0  0  0  0  2  0  0  0  0  0  0
  -29.4570  -21.3910   22.7130 C   0  0  0  0  0  2  0  0  0  0  0  0
  -28.7820  -21.4170   21.3610 C   0  0  0  0  0  3  0  0  0  0  0  0
  -28.2970  -25.6150   18.6050 C   0  0  0  0  0  2  0  0  0  0  0  0
  -28.4560  -26.9550   19.2180 O   0  0  0  0  0  0  0  0  0  0  0  0
  -24.6910  -31.6920   23.1770 C   0  0  0  0  0  0  0  0  0  0  0  0
  -27.3000  -27.7590   19.3340 C   0  0  0  0  0  0  0  0  0  0  0  0
  -23.4400  -30.4490   21.4530 C   0  0  0  0  0  3  0  0  0  0  0  0
  -24.8560  -29.2120   19.7280 C   0  0  0  0  0  0  0  0  0  0  0  0
  -25.9420  -30.9410   21.1470 C   0  0  0  0  0  2  0  0  0  0  0  0
  -26.0410  -29.6710   20.3150 C   0  0  0  0  0  0  0  0  0  0  0  0
  -27.2590  -28.9470   20.1280 C   0  0  0  0  0  3  0  0  0  0  0  0
  -26.0830  -27.3950   18.6960 C   0  0  0  0  0  3  0  0  0  0  0  0
  -24.8790  -28.0760   18.9150 C   0  0  0  0  0  3  0  0  0  0  0  0
  -23.5830  -29.9890   19.9820 C   0  0  0  0  0  2  0  0  0  0  0  0
  -24.7130  -31.0370   21.9810 N   0  0  0  0  0  0  0  0  0  0  0  0
  -23.6370  -31.8270   23.8170 O   0  0  0  0  0  0  0  0  0  0  0  0
  -22.9140  -29.2680   22.3040 C   0  0  0  0  0  0  0  0  0  0  0  0
  -21.6250  -28.9300   22.1400 N   0  0  0  0  0  0  0  0  0  0  0  0
  -23.6640  -28.6650   23.0770 O   0  0  0  0  0  0  0  0  0  0  0  0
  -21.0720  -29.4750   21.4930 H   0  0  0  0  0  0  0  0  0  0  0  0
  -18.4680  -27.1770   22.3670 C   0  0  0  0  0  0  0  0  0  0  0  0
  -20.9300  -27.8330   22.8150 C   0  0  0  0  0  3  0  0  0  0  0  0
  -21.2990  -26.4680   22.1900 C   0  0  0  0  0  2  0  0  0  0  0  0
  -20.3270  -26.0240   21.0940 C   0  0  0  0  0  2  0  0  0  0  0  0
  -18.9040  -25.9110   21.6480 C   0  0  0  0  0  2  0  0  0  0  0  0
  -19.4190  -28.0870   22.9010 C   0  0  0  0  0  0  0  0  0  0  0  0
  -18.9610  -29.2650   23.5290 C   0  0  0  0  0  3  0  0  0  0  0  0
  -17.5840  -29.5380   23.6320 C   0  0  0  0  0  3  0  0  0  0  0  0
  -16.6470  -28.6260   23.1170 C   0  0  0  0  0  3  0  0  0  0  0  0
  -17.0880  -27.4480   22.4890 C   0  0  0  0  0  3  0  0  0  0  0  0
  -25.9810  -32.3210   23.7820 C   0  0  0  0  0  3  0  0  0  0  0  0
  -25.6580  -33.6990   24.1770 N   0  0  0  0  0  0  0  0  0  0  0  0
  -25.9410  -34.7870   23.4470 C   0  0  0  0  0  0  0  0  0  0  0  0
  -26.5750  -34.7370   22.3900 O   0  0  0  0  0  0  0  0  0  0  0  0
  -25.1010  -33.8110   25.0110 H   0  0  0  0  0  0  0  0  0  0  0  0
  -24.1570  -36.5450   23.2380 C   0  0  0  0  0  1  0  0  0  0  0  0
  -25.4440  -36.1440   23.9780 C   0  0  0  0  0  3  0  0  0  0  0  0
  -27.5880  -37.0560   24.7560 C   0  0  0  0  0  1  0  0  0  0  0  0
  -26.4450  -37.2260   23.8600 N   0  0  0  0  0  0  0  0  0  0  0  0
  -26.0250  -38.1280   24.0590 H   0  0  0  0  0  0  0  0  0  0  0  0
  -26.5510  -31.5100   25.0100 C   0  0  1  0  0  0  0  0  0  0  0  0
  -25.4960  -31.2140   26.1020 C   0  0  0  0  0  1  0  0  0  0  0  0
  -27.1450  -30.1580   24.5480 C   0  0  0  0  0  1  0  0  0  0  0  0
  -27.7110  -32.2990   25.6660 C   0  0  0  0  0  1  0  0  0  0  0  0
  -30.9320  -20.3880   19.3040 O   0  0  0  0  0  0  0  0  0  0  0  0
  -30.4380  -19.1770   19.9760 C   0  0  0  0  0  2  0  0  0  0  0  0
  -31.2770  -17.8630   19.6310 C   0  0  0  0  0  2  0  0  0  0  0  0
  -31.4300  -15.3220   19.7970 C   0  0  0  0  0  0  0  0  0  0  0  0
  -31.1440  -12.9710   19.0440 C   0  0  0  0  0  2  0  0  0  0  0  0
  -30.1770  -12.9190   17.8430 C   0  0  0  0  0  2  0  0  0  0  0  0
  -28.7240  -12.7840   18.3330 C   0  0  0  0  0  2  0  0  0  0  0  0
  -28.3790  -13.7970   19.4550 C   0  0  0  0  0  3  0  0  0  0  0  0
  -29.4730  -13.8750   20.5450 C   0  0  0  0  0  2  0  0  0  0  0  0
  -30.7580  -14.1280   19.8800 N   0  0  0  0  0  0  0  0  0  0  0  0
  -32.5740  -15.3690   19.3460 O   0  0  0  0  0  0  0  0  0  0  0  0
  -30.7550  -16.4950   20.0160 N   0  0  0  0  0  0  0  0  0  0  0  0
  -29.8160  -16.4330   20.3750 H   0  0  0  0  0  0  0  0  0  0  0  0
  -26.0770  -14.4420   20.3830 C   0  0  0  0  0  0  0  0  0  0  0  0
  -24.9990  -13.6950   20.7710 C   0  0  0  0  0  0  0  0  0  0  0  0
  -25.3900  -12.3300   20.6180 C   0  0  0  0  0  0  0  0  0  0  0  0
  -27.0570  -13.5370   20.0170 N   0  0  0  0  0  0  0  0  0  0  0  0
  -26.6540  -12.2540   20.2200 N   0  0  0  0  0  0  0  0  0  0  0  0
  -24.6130  -11.0910   20.7690 C   0  0  0  0  0  0  0  0  0  0  0  0
  -24.9750  -10.1020   21.7100 C   0  0  0  0  0  3  0  0  0  0  0  0
  -24.1990   -8.9310   21.8510 C   0  0  0  0  0  3  0  0  0  0  0  0
  -23.0470   -8.7400   21.0510 C   0  0  0  0  0  0  0  0  0  0  0  0
  -22.7060   -9.7170   20.1000 C   0  0  0  0  0  3  0  0  0  0  0  0
  -23.4810  -10.8800   19.9570 C   0  0  0  0  0  3  0  0  0  0  0  0
  -22.2480   -7.6240   21.1020 O   0  0  0  0  0  0  0  0  0  0  0  0
  -21.9690   -6.9910   22.2880 C   0  0  0  0  0  0  0  0  0  0  0  0
  -21.3260   -7.6570   23.3540 C   0  0  0  0  0  3  0  0  0  0  0  0
  -20.9970   -6.9510   24.5270 C   0  0  0  0  0  3  0  0  0  0  0  0
  -21.3000   -5.5800   24.6340 C   0  0  0  0  0  0  0  0  0  0  0  0
  -21.9360   -4.9140   23.5700 C   0  0  0  0  0  3  0  0  0  0  0  0
  -22.2670   -5.6180   22.4000 C   0  0  0  0  0  0  0  0  0  0  0  0
  -22.8590   -4.9670   21.3700 F   0  0  0  0  0  0  0  0  0  0  0  0
  -20.9770   -4.8990   25.7590 F   0  0  0  0  0  0  0  0  0  0  0  0
  -23.6490  -14.2150   21.1720 C   0  0  0  0  0  0  0  0  0  0  0  0
  -22.9570  -13.5020   22.0550 N   0  0  0  0  0  0  0  0  0  0  0  0
  -23.2210  -15.2850   20.7420 O   0  0  0  0  0  0  0  0  0  0  0  0
  -23.3210  -12.6320   22.4150 H   0  0  0  0  0  0  0  0  0  0  0  0
  -22.0550  -13.8260   22.3720 H   0  0  0  0  0  0  0  0  0  0  0  0
  -26.2990  -15.8150   20.2880 N   0  0  0  0  0  0  0  0  0  0  0  0
  -25.5760  -16.4970   20.4860 H   0  0  0  0  0  0  0  0  0  0  0  0
  -27.1500  -16.2310   19.9330 H   0  0  0  0  0  0  0  0  0  0  0  0
  1  3  1  0
  2  6  1  0
  3 10  1  0
  4  1  2  0
  5  2  2  0
  5  4  1  0
  6 53  1  0
  6  3  2  0
  7  5  1  0
  8  9  1  0
 10  8  1  0
 10  9  1  0
 11  4  1  0
 11 12  1  0
 12 14  1  0
 13 24  2  0
 14 19  1  0
 15 23  1  0
 15 25  1  0
 16 22  1  0
 16 18  1  0
 17 23  1  0
 18 17  1  0
 19 18  2  0
 20 21  1  0
 20 14  2  0
 21 16  2  0
 22 15  1  0
 23 13  1  0
 25 27  2  0
 26 25  1  0
 28 26  1  0
 29 38  2  0
 29 34  1  0
 30 26  1  0
 30 34  1  0
 31 30  1  0
 32 33  1  0
 32 31  1  0
 33 29  1  0
 34 35  2  0
 35 36  1  0
 37 36  2  0
 38 37  1  0
 39 13  1  0
 39 40  1  0
 39 49  1  0
 40 43  1  0
 41 45  1  0
 41 40  1  0
 42 41  2  0
 45 44  1  0
 47 45  1  0
 47 48  1  0
 47 46  1  0
 49 52  1  1
 49 50  1  0
 51 49  1  0
 53 54  1  0
 55 54  1  0
 55 64  1  0
 56 62  1  0
 56 64  1  0
 57 62  1  0
 58 59  1  0
 58 57  1  0
 60 59  1  0
 60 69  1  0
 60 61  1  0
 62 61  1  0
 63 56  2  0
 64 65  1  0
 66 67  2  0
 67 86  1  0
 68 71  1  0
 68 67  1  0
 69 70  1  0
 69 66  1  0
 70 68  2  0
 71 72  1  0
 72 73  2  0
 74 77  1  0
 74 73  1  0
 75 74  2  0
 76 75  1  0
 76 71  2  0
 77 78  1  0
 78 83  2  0
 78 79  1  0
 79 80  2  0
 80 81  1  0
 81 85  1  0
 82 81  2  0
 83 82  1  0
 84 83  1  0
 86 87  1  0
 87 90  1  0
 87 89  1  0
 88 86  2  0
 91 66  1  0
 91 92  1  0
 93 91  1  0
M  ISO  4  11 101  12 101  56 100  64 100
M  END
>  <TORSDO>  (67) 
F 21

>  <SCORE>  (67) 
-10.573

>  <name>  (67) 
66

>  <ligand_id>  (67) 
66

>  <original_smiles>  (67) 
[H]c1c([H])c([H])c2c(c1[H])C([H])([H])C([H])([H])C([H])([H])C2([H])N([H])C(=O)C1([H])N(C(=O)C([H])(N([H])C(=O)C([H])(N([H])C([H])([H])[H])C([H])([H])[H])C(C([H])([H])[H])(C([H])([H])[H])C([H])([H])[H])C([H])([H])c2c([H])c(OC([H])([H])c3c([H])c(C4([H])C([H])([H])C4([H])[H])c(OC([H])([H])C([H])([H])N([H])C(=O)N4C([H])([H])C([H])([H])C([H])([H])C([H])(n5nc(-c6c([H])c([H])c(Oc7c([H])c([H])c(F)c([H])c7F)c([H])c6[H])c(C(=O)N([H])[H])c5N([H])[H])C4([H])[H])c([H])c3C([H])([H])[H])c([H])c([H])c2C1([H])[H]

>  <smiles>  (67) 
[H]c1c([H])c([H])c2c(c1[H])C([H])([H])C([H])([H])C([H])([H])C2([H])N([H])C(=O)C1([H])N(C(=O)C([H])(N([H])C(=O)C([H])(N([H])C([H])([H])[H])C([H])([H])[H])C(C([H])([H])[H])(C([H])([H])[H])C([H])([H])[H])C([H])([H])c2c([H])c(OC([H])([H])c3c([H])c(C4([H])C([H])([H])C4([H])[H])c(OC([H])([H])C([H])([H])N([H])C(=O)N4C([H])([H])C([H])([H])C([H])([H])C([H])(n5nc(-c6c([H])c([H])c(Oc7c([H])c([H])c(F)c([H])c7F)c([H])c6[H])c(C(=O)N([H])[H])c5N([H])[H])C4([H])[H])c([H])c3C([H])([H])[H])c([H])c([H])c2C1([H])[H]

$$$$
67:0:0
     RDKit          3D

 94103  0  0  1  0  0  0  0  0999 V2000
  -28.7670  -22.5440   20.7310 C   0  0  0  0  0  2  0  0  0  0  0  0
  -28.7390  -23.8170   20.0570 C   0  0  0  0  0  0  0  0  0  0  0  0
  -29.2540  -23.8100   18.7340 C   0  0  0  0  0  0  0  0  0  0  0  0
  -29.3040  -21.3620   20.1200 C   0  0  0  0  0  0  0  0  0  0  0  0
  -29.7730  -22.6070   18.1980 C   0  0  0  0  0  0  0  0  0  0  0  0
  -29.2390  -25.0720   17.8790 C   0  0  0  0  0  1  0  0  0  0  0  0
  -29.7960  -21.4320   18.8690 N   0  0  0  0  0  4  0  0  0  0  0  0
  -30.8010  -21.3950   16.3800 C   0  0  0  0  0  1  0  0  0  0  0  0
  -30.2790  -22.6100   16.9140 O   0  0  0  0  0  0  0  0  0  0  0  0
  -28.0980  -25.0940   20.7370 C   0  0  0  0  0  2  0  0  0  0  0  0
  -28.3210  -26.4690   20.2130 O   0  0  0  0  0  0  0  0  0  0  0  0
  -24.5960  -31.8790   23.2370 C   0  0  0  0  0  0  0  0  0  0  0  0
  -27.2120  -27.3260   20.1920 C   0  0  0  0  0  0  0  0  0  0  0  0
  -23.3930  -30.4770   21.5990 C   0  0  0  0  0  3  0  0  0  0  0  0
  -24.8450  -28.9280   20.1730 C   0  0  0  0  0  0  0  0  0  0  0  0
  -25.9290  -30.8040   21.4110 C   0  0  0  0  0  2  0  0  0  0  0  0
  -26.0130  -29.4240   20.7670 C   0  0  0  0  0  0  0  0  0  0  0  0
  -27.2030  -28.6360   20.7640 C   0  0  0  0  0  3  0  0  0  0  0  0
  -26.0270  -26.8850   19.5670 C   0  0  0  0  0  3  0  0  0  0  0  0
  -24.8530  -27.6630   19.5620 C   0  0  0  0  0  3  0  0  0  0  0  0
  -23.6060  -29.7970   20.2200 C   0  0  0  0  0  2  0  0  0  0  0  0
  -24.6590  -31.0710   22.1390 N   0  0  0  0  0  0  0  0  0  0  0  0
  -23.5130  -32.1550   23.7730 O   0  0  0  0  0  0  0  0  0  0  0  0
  -22.7320  -29.4610   22.5610 C   0  0  0  0  0  0  0  0  0  0  0  0
  -21.4050  -29.2860   22.4380 N   0  0  0  0  0  0  0  0  0  0  0  0
  -23.4120  -28.8340   23.3760 O   0  0  0  0  0  0  0  0  0  0  0  0
  -20.9150  -29.8450   21.7530 H   0  0  0  0  0  0  0  0  0  0  0  0
  -18.0270  -28.1000   22.9510 C   0  0  0  0  0  0  0  0  0  0  0  0
  -20.5870  -28.3490   23.2110 C   0  0  0  0  0  3  0  0  0  0  0  0
  -20.6820  -26.9190   22.6320 C   0  0  0  0  0  2  0  0  0  0  0  0
  -19.5750  -26.6020   21.6220 C   0  0  0  0  0  2  0  0  0  0  0  0
  -18.1960  -26.7500   22.2720 C   0  0  0  0  0  2  0  0  0  0  0  0
  -19.1500  -28.8570   23.3780 C   0  0  0  0  0  0  0  0  0  0  0  0
  -18.9380  -30.1200   23.9730 C   0  0  0  0  0  3  0  0  0  0  0  0
  -17.6350  -30.6240   24.1450 C   0  0  0  0  0  3  0  0  0  0  0  0
  -16.5270  -29.8640   23.7350 C   0  0  0  0  0  3  0  0  0  0  0  0
  -16.7230  -28.6020   23.1440 C   0  0  0  0  0  3  0  0  0  0  0  0
  -25.8780  -32.5130   23.8590 C   0  0  0  0  0  3  0  0  0  0  0  0
  -26.3930  -31.7470   25.1380 C   0  0  1  0  0  0  0  0  0  0  0  0
  -25.3000  -31.5150   26.2070 C   0  0  0  0  0  1  0  0  0  0  0  0
  -26.9750  -30.3670   24.7530 C   0  0  0  0  0  1  0  0  0  0  0  0
  -27.5440  -32.5430   25.7970 C   0  0  0  0  0  1  0  0  0  0  0  0
  -25.5690  -33.9140   24.1840 N   0  0  0  0  0  0  0  0  0  0  0  0
  -25.9040  -34.9640   23.4240 C   0  0  0  0  0  0  0  0  0  0  0  0
  -26.5760  -34.8580   22.3950 O   0  0  0  0  0  0  0  0  0  0  0  0
  -24.9730  -34.0700   24.9840 H   0  0  0  0  0  0  0  0  0  0  0  0
  -24.1820  -36.7620   23.0590 C   0  0  0  0  0  1  0  0  0  0  0  0
  -25.4170  -36.3540   23.8780 C   0  0  0  0  0  3  0  0  0  0  0  0
  -27.5500  -37.2350   24.7180 C   0  0  0  0  0  1  0  0  0  0  0  0
  -26.4530  -37.4050   23.7690 N   0  0  0  0  0  0  0  0  0  0  0  0
  -26.0480  -38.3260   23.9160 H   0  0  0  0  0  0  0  0  0  0  0  0
  -29.3320  -20.0930   20.7550 O   0  0  0  0  0  0  0  0  0  0  0  0
  -30.6360  -14.6940   20.3340 C   0  0  0  0  0  0  0  0  0  0  0  0
  -30.3690  -12.4530   19.2820 C   0  0  0  0  0  2  0  0  0  0  0  0
  -29.4150  -12.5530   18.0740 C   0  0  0  0  0  2  0  0  0  0  0  0
  -27.9520  -12.3800   18.5260 C   0  0  0  0  0  2  0  0  0  0  0  0
  -27.5970  -13.2560   19.7560 C   0  0  0  0  0  3  0  0  0  0  0  0
  -28.6740  -13.1670   20.8590 C   0  0  0  0  0  2  0  0  0  0  0  0
  -29.9660  -13.4980   20.2450 N   0  0  0  0  0  0  0  0  0  0  0  0
  -31.8250  -14.7720   20.0080 O   0  0  0  0  0  0  0  0  0  0  0  0
  -30.8930  -18.1320   21.3590 C   0  0  0  0  0  2  0  0  0  0  0  0
  -29.5430  -17.9770   19.2290 C   0  0  0  0  0  2  0  0  0  0  0  0
  -30.2820  -16.7500   21.7760 C   0  0  0  0  0  2  0  0  0  0  0  0
  -29.0330  -16.5770   19.7350 C   0  0  0  0  0  2  0  0  0  0  0  0
  -30.1660  -18.9700   20.2600 C   0  0  0  0  0  3  0  0  0  0  0  0
  -29.9310  -15.8410   20.6610 N   0  0  0  0  0  0  0  0  0  0  0  0
  -25.2200  -13.8520   20.5100 C   0  0  0  0  0  0  0  0  0  0  0  0
  -24.1570  -13.0780   20.8880 C   0  0  0  0  0  0  0  0  0  0  0  0
  -24.6210  -11.7270   20.8510 C   0  0  0  0  0  0  0  0  0  0  0  0
  -26.2610  -12.9720   20.2640 N   0  0  0  0  0  0  0  0  0  0  0  0
  -25.9080  -11.6890   20.5320 N   0  0  0  0  0  0  0  0  0  0  0  0
  -23.8980  -10.4650   21.0440 C   0  0  0  0  0  0  0  0  0  0  0  0
  -24.3430   -9.4940   21.9670 C   0  0  0  0  0  3  0  0  0  0  0  0
  -23.6200   -8.2950   22.1490 C   0  0  0  0  0  3  0  0  0  0  0  0
  -22.4380   -8.0600   21.4060 C   0  0  0  0  0  0  0  0  0  0  0  0
  -22.0130   -9.0200   20.4720 C   0  0  0  0  0  3  0  0  0  0  0  0
  -22.7360  -10.2090   20.2880 C   0  0  0  0  0  3  0  0  0  0  0  0
  -21.6850   -6.9150   21.4990 O   0  0  0  0  0  0  0  0  0  0  0  0
  -21.6540   -6.1650   22.6470 C   0  0  0  0  0  0  0  0  0  0  0  0
  -21.2420   -6.7110   23.8830 C   0  0  0  0  0  3  0  0  0  0  0  0
  -21.1590   -5.8870   25.0230 C   0  0  0  0  0  3  0  0  0  0  0  0
  -21.4760   -4.5180   24.9290 C   0  0  0  0  0  0  0  0  0  0  0  0
  -21.8800   -3.9720   23.6980 C   0  0  0  0  0  3  0  0  0  0  0  0
  -21.9660   -4.7930   22.5610 C   0  0  0  0  0  0  0  0  0  0  0  0
  -22.3360   -4.2580   21.3720 F   0  0  0  0  0  0  0  0  0  0  0  0
  -21.3880   -3.7250   26.0220 F   0  0  0  0  0  0  0  0  0  0  0  0
  -22.7620  -13.5550   21.1710 C   0  0  0  0  0  0  0  0  0  0  0  0
  -22.0420  -12.8560   22.0410 N   0  0  0  0  0  0  0  0  0  0  0  0
  -22.3200  -14.5810   20.6570 O   0  0  0  0  0  0  0  0  0  0  0  0
  -22.4120  -12.0250   22.4790 H   0  0  0  0  0  0  0  0  0  0  0  0
  -21.1060  -13.1570   22.2740 H   0  0  0  0  0  0  0  0  0  0  0  0
  -25.3810  -15.2230   20.3330 N   0  0  0  0  0  0  0  0  0  0  0  0
  -24.6180  -15.8790   20.4570 H   0  0  0  0  0  0  0  0  0  0  0  0
  -26.2340  -15.6630   20.0110 H   0  0  0  0  0  0  0  0  0  0  0  0
  2  1  1  0
  2 10  1  0
  3  2  2  0
  4  1  1  0
  4 52  1  0
  5  3  1  0
  5  7  2  0
  6  3  1  0
  7  4  2  0
  8  9  1  0
  9  5  1  0
 11 10  1  0
 12 23  2  0
 13 11  1  0
 13 18  1  0
 14 22  1  0
 14 24  1  0
 15 21  1  0
 15 17  1  0
 16 22  1  0
 17 16  1  0
 18 17  2  0
 19 13  2  0
 20 19  1  0
 20 15  2  0
 21 14  1  0
 22 12  1  0
 24 26  2  0
 25 24  1  0
 27 25  1  0
 28 37  2  0
 28 33  1  0
 29 25  1  0
 29 33  1  0
 30 29  1  0
 31 32  1  0
 31 30  1  0
 32 28  1  0
 33 34  2  0
 34 35  1  0
 36 35  2  0
 37 36  1  0
 38 12  1  0
 38 43  1  0
 38 39  1  0
 39 42  1  1
 39 40  1  0
 41 39  1  0
 43 46  1  0
 44 48  1  0
 44 43  1  0
 45 44  2  0
 48 47  1  0
 50 48  1  0
 50 51  1  0
 50 49  1  0
 53 66  1  0
 54 59  1  0
 55 56  1  0
 55 54  1  0
 57 56  1  0
 57 70  1  0
 57 58  1  0
 59 53  1  0
 59 58  1  0
 60 53  2  0
 61 63  1  0
 62 64  1  0
 62 65  1  0
 64 66  1  0
 65 52  1  0
 65 61  1  0
 66 63  1  0
 67 68  2  0
 68 87  1  0
 69 68  1  0
 69 72  1  0
 70 67  1  0
 70 71  1  0
 71 69  2  0
 72 73  1  0
 73 74  2  0
 75 78  1  0
 75 74  1  0
 76 75  2  0
 77 76  1  0
 77 72  2  0
 78 79  1  0
 79 80  1  0
 80 81  2  0
 82 81  1  0
 82 86  1  0
 83 82  2  0
 84 79  2  0
 84 83  1  0
 85 84  1  0
 87 88  1  0
 88 91  1  0
 88 90  1  0
 89 87  2  0
 92 93  1  0
 92 67  1  0
 94 92  1  0
M  ISO  4  10 101  11 101  53 100  66 100
M  END
>  <TORSDO>  (68) 
F 19

>  <SCORE>  (68) 
-14.609

>  <name>  (68) 
67

>  <ligand_id>  (68) 
67

>  <original_smiles>  (68) 
[H]c1c([H])c([H])c2c(c1[H])C([H])([H])C([H])([H])C([H])([H])C2([H])N([H])C(=O)C1([H])N(C(=O)C([H])(N([H])C(=O)C([H])(N([H])C([H])([H])[H])C([H])([H])[H])C(C([H])([H])[H])(C([H])([H])[H])C([H])([H])[H])C([H])([H])c2c([H])c(OC([H])([H])c3c([H])c(OC4([H])C([H])([H])C([H])([H])N(C(=O)N5C([H])([H])C([H])([H])C([H])([H])C([H])(n6nc(-c7c([H])c([H])c(Oc8c([H])c([H])c(F)c([H])c8F)c([H])c7[H])c(C(=O)N([H])[H])c6N([H])[H])C5([H])[H])C([H])([H])C4([H])[H])nc(OC([H])([H])[H])c3C([H])([H])[H])c([H])c([H])c2C1([H])[H]

>  <smiles>  (68) 
[H]c1c([H])c([H])c2c(c1[H])C([H])([H])C([H])([H])C([H])([H])C2([H])N([H])C(=O)C1([H])N(C(=O)C([H])(N([H])C(=O)C([H])(N([H])C([H])([H])[H])C([H])([H])[H])C(C([H])([H])[H])(C([H])([H])[H])C([H])([H])[H])C([H])([H])c2c([H])c(OC([H])([H])c3c([H])c(OC4([H])C([H])([H])C([H])([H])N(C(=O)N5C([H])([H])C([H])([H])C([H])([H])C([H])(n6nc(-c7c([H])c([H])c(Oc8c([H])c([H])c(F)c([H])c8F)c([H])c7[H])c(C(=O)N([H])[H])c6N([H])[H])C5([H])[H])C([H])([H])C4([H])[H])nc(OC([H])([H])[H])c3C([H])([H])[H])c([H])c([H])c2C1([H])[H]

$$$$
68:0:0
     RDKit          3D

 95104  0  0  1  0  0  0  0  0999 V2000
  -29.5010  -23.1450   20.6700 C   0  0  0  0  0  3  0  0  0  0  0  0
  -28.4120  -24.7890   18.6760 C   0  0  0  0  0  3  0  0  0  0  0  0
  -29.4120  -22.6280   19.3540 C   0  0  0  0  0  0  0  0  0  0  0  0
  -29.0950  -24.4760   20.9730 C   0  0  0  0  0  0  0  0  0  0  0  0
  -28.7970  -23.4590   18.3690 C   0  0  0  0  0  0  0  0  0  0  0  0
  -28.5840  -25.3330   19.9650 C   0  0  0  0  0  0  0  0  0  0  0  0
  -29.3010  -25.0180   22.3740 C   0  0  0  0  0  1  0  0  0  0  0  0
  -28.6260  -22.9970   16.9290 C   0  0  0  0  0  1  0  0  0  0  0  0
  -31.6370  -21.9180   18.5760 C   0  0  0  0  0  1  0  0  0  0  0  0
  -30.2270  -21.3760   18.9130 C   0  0  0  0  0  3  0  0  0  0  0  0
  -31.1780  -18.9870   19.0320 C   0  0  0  0  0  2  0  0  0  0  0  0
  -29.0310  -19.4040   20.2950 C   0  0  0  0  0  2  0  0  0  0  0  0
  -30.6720  -17.5290   19.0970 C   0  0  0  0  0  2  0  0  0  0  0  0
  -29.2560  -18.0710   21.0990 C   0  0  0  0  0  2  0  0  0  0  0  0
  -30.3430  -20.0680   19.8020 C   0  0  0  0  0  3  0  0  0  0  0  0
  -30.3410  -17.0950   20.5340 C   0  0  0  0  0  3  0  0  0  0  0  0
  -30.7200  -14.5790   20.2770 C   0  0  0  0  0  0  0  0  0  0  0  0
  -30.4170  -12.4100   19.1390 C   0  0  0  0  0  2  0  0  0  0  0  0
  -29.4600  -12.6220   17.9470 C   0  0  0  0  0  2  0  0  0  0  0  0
  -27.9920  -12.4800   18.3970 C   0  0  0  0  0  2  0  0  0  0  0  0
  -27.6720  -13.3050   19.6720 C   0  0  0  0  0  3  0  0  0  0  0  0
  -28.7440  -13.0870   20.7630 C   0  0  0  0  0  2  0  0  0  0  0  0
  -30.0540  -13.3950   20.1710 N   0  0  0  0  0  0  0  0  0  0  0  0
  -31.8830  -14.7140   19.8880 O   0  0  0  0  0  0  0  0  0  0  0  0
  -29.9650  -15.6560   20.6190 N   0  0  0  0  0  0  0  0  0  0  0  0
  -29.0190  -15.4510   20.9010 H   0  0  0  0  0  0  0  0  0  0  0  0
  -25.2830  -13.9100   20.4060 C   0  0  0  0  0  0  0  0  0  0  0  0
  -24.2210  -13.1390   20.7920 C   0  0  0  0  0  0  0  0  0  0  0  0
  -24.6840  -11.7870   20.7650 C   0  0  0  0  0  0  0  0  0  0  0  0
  -26.3260  -13.0280   20.1690 N   0  0  0  0  0  0  0  0  0  0  0  0
  -25.9710  -11.7470   20.4440 N   0  0  0  0  0  0  0  0  0  0  0  0
  -23.9630  -10.5250   20.9700 C   0  0  0  0  0  0  0  0  0  0  0  0
  -24.4040   -9.5650   21.9080 C   0  0  0  0  0  3  0  0  0  0  0  0
  -23.6820   -8.3680   22.1010 C   0  0  0  0  0  3  0  0  0  0  0  0
  -22.5050   -8.1200   21.3550 C   0  0  0  0  0  0  0  0  0  0  0  0
  -22.0820   -9.0690   20.4070 C   0  0  0  0  0  3  0  0  0  0  0  0
  -22.8050  -10.2580   20.2130 C   0  0  0  0  0  3  0  0  0  0  0  0
  -21.7560   -6.9730   21.4570 O   0  0  0  0  0  0  0  0  0  0  0  0
  -21.7140   -6.2400   22.6150 C   0  0  0  0  0  0  0  0  0  0  0  0
  -21.2920   -6.8040   23.8390 C   0  0  0  0  0  3  0  0  0  0  0  0
  -21.1980   -5.9980   24.9910 C   0  0  0  0  0  3  0  0  0  0  0  0
  -21.5150   -4.6280   24.9200 C   0  0  0  0  0  0  0  0  0  0  0  0
  -21.9310   -4.0640   23.7010 C   0  0  0  0  0  3  0  0  0  0  0  0
  -22.0270   -4.8680   22.5520 C   0  0  0  0  0  0  0  0  0  0  0  0
  -22.4070   -4.3140   21.3750 F   0  0  0  0  0  0  0  0  0  0  0  0
  -21.4180   -3.8510   26.0250 F   0  0  0  0  0  0  0  0  0  0  0  0
  -22.8260  -13.6150   21.0740 C   0  0  0  0  0  0  0  0  0  0  0  0
  -22.1050  -12.9240   21.9500 N   0  0  0  0  0  0  0  0  0  0  0  0
  -22.3810  -14.6370   20.5500 O   0  0  0  0  0  0  0  0  0  0  0  0
  -22.4760  -12.0980   22.3970 H   0  0  0  0  0  0  0  0  0  0  0  0
  -21.1700  -13.2270   22.1810 H   0  0  0  0  0  0  0  0  0  0  0  0
  -25.4450  -15.2790   20.2180 N   0  0  0  0  0  0  0  0  0  0  0  0
  -24.6790  -15.9330   20.3320 H   0  0  0  0  0  0  0  0  0  0  0  0
  -26.2840  -15.7150   19.8570 H   0  0  0  0  0  0  0  0  0  0  0  0
  -28.4550  -26.7030   20.1940 O   0  0  0  0  0  0  0  0  0  0  0  0
  -24.5930  -31.8840   23.2390 C   0  0  0  0  0  0  0  0  0  0  0  0
  -27.2560  -27.4010   20.1920 C   0  0  0  0  0  0  0  0  0  0  0  0
  -23.3970  -30.4750   21.5970 C   0  0  0  0  0  3  0  0  0  0  0  0
  -24.8580  -28.9280   20.1850 C   0  0  0  0  0  0  0  0  0  0  0  0
  -25.9250  -30.8270   21.4110 C   0  0  0  0  0  2  0  0  0  0  0  0
  -26.0130  -29.4500   20.7770 C   0  0  0  0  0  0  0  0  0  0  0  0
  -27.2110  -28.6940   20.7750 C   0  0  0  0  0  3  0  0  0  0  0  0
  -26.0750  -26.8960   19.6040 C   0  0  0  0  0  3  0  0  0  0  0  0
  -24.8860  -27.6510   19.5950 C   0  0  0  0  0  3  0  0  0  0  0  0
  -23.6140  -29.7900   20.2210 C   0  0  0  0  0  2  0  0  0  0  0  0
  -24.6570  -31.0790   22.1410 N   0  0  0  0  0  0  0  0  0  0  0  0
  -23.5090  -32.1560   23.7740 O   0  0  0  0  0  0  0  0  0  0  0  0
  -22.7420  -29.4560   22.5590 C   0  0  0  0  0  0  0  0  0  0  0  0
  -21.4170  -29.2750   22.4290 N   0  0  0  0  0  0  0  0  0  0  0  0
  -23.4230  -28.8320   23.3770 O   0  0  0  0  0  0  0  0  0  0  0  0
  -20.9300  -29.8310   21.7410 H   0  0  0  0  0  0  0  0  0  0  0  0
  -18.0400  -28.0890   22.9260 C   0  0  0  0  0  0  0  0  0  0  0  0
  -20.5990  -28.3390   23.1980 C   0  0  0  0  0  3  0  0  0  0  0  0
  -20.6970  -26.9080   22.6180 C   0  0  0  0  0  2  0  0  0  0  0  0
  -19.5930  -26.5920   21.6040 C   0  0  0  0  0  2  0  0  0  0  0  0
  -18.2120  -26.7390   22.2490 C   0  0  0  0  0  2  0  0  0  0  0  0
  -19.1610  -28.8460   23.3580 C   0  0  0  0  0  0  0  0  0  0  0  0
  -18.9470  -30.1100   23.9510 C   0  0  0  0  0  3  0  0  0  0  0  0
  -17.6440  -30.6150   24.1180 C   0  0  0  0  0  3  0  0  0  0  0  0
  -16.5380  -29.8550   23.7030 C   0  0  0  0  0  3  0  0  0  0  0  0
  -16.7360  -28.5930   23.1130 C   0  0  0  0  0  3  0  0  0  0  0  0
  -25.8760  -32.5190   23.8640 C   0  0  0  0  0  3  0  0  0  0  0  0
  -25.5630  -33.9180   24.1860 N   0  0  0  0  0  0  0  0  0  0  0  0
  -25.8990  -34.9670   23.4250 C   0  0  0  0  0  0  0  0  0  0  0  0
  -26.5750  -34.8600   22.3980 O   0  0  0  0  0  0  0  0  0  0  0  0
  -24.9650  -34.0760   24.9840 H   0  0  0  0  0  0  0  0  0  0  0  0
  -24.1740  -36.7570   23.0490 C   0  0  0  0  0  1  0  0  0  0  0  0
  -25.4080  -36.3570   23.8720 C   0  0  0  0  0  3  0  0  0  0  0  0
  -27.5340  -37.2470   24.7190 C   0  0  0  0  0  1  0  0  0  0  0  0
  -26.4400  -37.4100   23.7650 N   0  0  0  0  0  0  0  0  0  0  0  0
  -26.0330  -38.3310   23.9050 H   0  0  0  0  0  0  0  0  0  0  0  0
  -26.3890  -31.7530   25.1450 C   0  0  1  0  0  0  0  0  0  0  0  0
  -25.2930  -31.5180   26.2110 C   0  0  0  0  0  1  0  0  0  0  0  0
  -26.9760  -30.3760   24.7590 C   0  0  0  0  0  1  0  0  0  0  0  0
  -27.5360  -32.5530   25.8080 C   0  0  0  0  0  1  0  0  0  0  0  0
  1  4  1  0
  2  6  1  0
  3  1  2  0
  4  7  1  0
  5  2  2  0
  5  3  1  0
  6 55  1  0
  6  4  2  0
  8  5  1  0
 10  9  1  0
 10  3  1  0
 11 13  1  0
 11 15  1  0
 12 14  1  0
 13 16  1  0
 15 10  1  0
 15 12  1  0
 16 25  1  0
 16 14  1  0
 17 25  1  0
 18 23  1  0
 19 20  1  0
 19 18  1  0
 21 20  1  0
 21 30  1  0
 21 22  1  0
 23 17  1  0
 23 22  1  0
 24 17  2  0
 25 26  1  0
 27 28  2  0
 28 47  1  0
 29 28  1  0
 29 32  1  0
 30 27  1  0
 30 31  1  0
 31 29  2  0
 32 33  1  0
 33 34  2  0
 35 38  1  0
 35 34  1  0
 36 35  2  0
 37 36  1  0
 37 32  2  0
 38 39  1  0
 39 40  1  0
 40 41  2  0
 42 41  1  0
 42 46  1  0
 43 42  2  0
 44 39  2  0
 44 43  1  0
 45 44  1  0
 47 48  1  0
 48 51  1  0
 48 50  1  0
 49 47  2  0
 52 53  1  0
 52 27  1  0
 54 52  1  0
 56 67  2  0
 57 55  1  0
 57 62  1  0
 58 66  1  0
 58 68  1  0
 59 65  1  0
 59 61  1  0
 60 66  1  0
 61 60  1  0
 62 61  2  0
 63 57  2  0
 64 63  1  0
 64 59  2  0
 65 58  1  0
 66 56  1  0
 68 70  2  0
 69 68  1  0
 71 69  1  0
 72 81  2  0
 72 77  1  0
 73 69  1  0
 73 77  1  0
 74 73  1  0
 75 76  1  0
 75 74  1  0
 76 72  1  0
 77 78  2  0
 78 79  1  0
 80 79  2  0
 81 80  1  0
 82 56  1  0
 82 83  1  0
 82 92  1  0
 83 86  1  0
 84 88  1  0
 84 83  1  0
 85 84  2  0
 88 87  1  0
 90 88  1  0
 90 91  1  0
 90 89  1  0
 92 95  1  1
 92 93  1  0
 94 92  1  0
M  ISO  4   6 101  17 100  25 100  55 101
M  END
>  <TORSDO>  (69) 
F 18

>  <SCORE>  (69) 
-14.496

>  <name>  (69) 
68

>  <ligand_id>  (69) 
68

>  <original_smiles>  (69) 
[H]c1c([H])c([H])c2c(c1[H])C([H])([H])C([H])([H])C([H])([H])C2([H])N([H])C(=O)C1([H])N(C(=O)C([H])(N([H])C(=O)C([H])(N([H])C([H])([H])[H])C([H])([H])[H])C(C([H])([H])[H])(C([H])([H])[H])C([H])([H])[H])C([H])([H])c2c([H])c(Oc3c([H])c(C([H])([H])[H])c(C([H])(C([H])([H])[H])C4([H])C([H])([H])C([H])([H])C([H])(N([H])C(=O)N5C([H])([H])C([H])([H])C([H])([H])C([H])(n6nc(-c7c([H])c([H])c(Oc8c([H])c([H])c(F)c([H])c8F)c([H])c7[H])c(C(=O)N([H])[H])c6N([H])[H])C5([H])[H])C([H])([H])C4([H])[H])c([H])c3C([H])([H])[H])c([H])c([H])c2C1([H])[H]

>  <smiles>  (69) 
[H]c1c([H])c([H])c2c(c1[H])C([H])([H])C([H])([H])C([H])([H])C2([H])N([H])C(=O)C1([H])N(C(=O)C([H])(N([H])C(=O)C([H])(N([H])C([H])([H])[H])C([H])([H])[H])C(C([H])([H])[H])(C([H])([H])[H])C([H])([H])[H])C([H])([H])c2c([H])c(Oc3c([H])c(C([H])([H])[H])c(C([H])(C([H])([H])[H])C4([H])C([H])([H])C([H])([H])C([H])(N([H])C(=O)N5C([H])([H])C([H])([H])C([H])([H])C([H])(n6nc(-c7c([H])c([H])c(Oc8c([H])c([H])c(F)c([H])c8F)c([H])c7[H])c(C(=O)N([H])[H])c6N([H])[H])C5([H])[H])C([H])([H])C4([H])[H])c([H])c3C([H])([H])[H])c([H])c([H])c2C1([H])[H]

$$$$
69:0:0
     RDKit          3D

 96105  0  0  1  0  0  0  0  0999 V2000
  -27.5530  -23.7480   21.0540 C   0  0  0  0  0  3  0  0  0  0  0  0
  -29.6540  -22.3160   19.8910 C   0  0  0  0  0  3  0  0  0  0  0  0
  -27.4070  -22.3640   20.7900 C   0  0  0  0  0  0  0  0  0  0  0  0
  -29.7970  -23.7100   20.1610 C   0  0  0  0  0  0  0  0  0  0  0  0
  -28.7420  -24.4510   20.7660 C   0  0  0  0  0  0  0  0  0  0  0  0
  -28.4680  -21.6040   20.2050 C   0  0  0  0  0  0  0  0  0  0  0  0
  -26.0790  -21.7270   21.1740 C   0  0  0  0  0  1  0  0  0  0  0  0
  -31.1170  -24.3840   19.8300 C   0  0  0  0  0  1  0  0  0  0  0  0
  -28.8900  -25.9110   21.2870 C   0  0  0  0  0  2  0  0  0  0  0  0
  -28.8140  -27.0080   20.3410 O   0  0  0  0  0  0  0  0  0  0  0  0
  -24.6420  -32.0180   23.3690 C   0  0  0  0  0  0  0  0  0  0  0  0
  -27.6430  -27.7470   20.3430 C   0  0  0  0  0  0  0  0  0  0  0  0
  -23.6020  -30.6260   21.6120 C   0  0  0  0  0  3  0  0  0  0  0  0
  -25.2050  -29.1890   20.2390 C   0  0  0  0  0  0  0  0  0  0  0  0
  -26.1220  -31.0810   21.5880 C   0  0  0  0  0  2  0  0  0  0  0  0
  -26.3040  -29.7300   20.9150 C   0  0  0  0  0  0  0  0  0  0  0  0
  -27.5290  -29.0160   20.9680 C   0  0  0  0  0  3  0  0  0  0  0  0
  -26.5300  -27.2290   19.6530 C   0  0  0  0  0  3  0  0  0  0  0  0
  -25.3130  -27.9360   19.6050 C   0  0  0  0  0  3  0  0  0  0  0  0
  -23.9280  -30.0010   20.2300 C   0  0  0  0  0  2  0  0  0  0  0  0
  -24.8020  -31.2580   22.2480 N   0  0  0  0  0  0  0  0  0  0  0  0
  -23.5180  -32.2280   23.8500 O   0  0  0  0  0  0  0  0  0  0  0  0
  -22.9350  -29.5510   22.5010 C   0  0  0  0  0  0  0  0  0  0  0  0
  -21.6230  -29.3330   22.3040 N   0  0  0  0  0  0  0  0  0  0  0  0
  -23.5970  -28.9120   23.3250 O   0  0  0  0  0  0  0  0  0  0  0  0
  -21.1500  -29.9010   21.6150 H   0  0  0  0  0  0  0  0  0  0  0  0
  -18.2650  -28.0300   22.6090 C   0  0  0  0  0  0  0  0  0  0  0  0
  -20.8030  -28.3400   22.9960 C   0  0  0  0  0  3  0  0  0  0  0  0
  -20.9680  -26.9400   22.3610 C   0  0  0  0  0  2  0  0  0  0  0  0
  -19.9160  -26.6380   21.2890 C   0  0  0  0  0  2  0  0  0  0  0  0
  -18.5050  -26.7200   21.8790 C   0  0  0  0  0  2  0  0  0  0  0  0
  -19.3450  -28.7980   23.1180 C   0  0  0  0  0  0  0  0  0  0  0  0
  -19.0670  -30.0260   23.7580 C   0  0  0  0  0  3  0  0  0  0  0  0
  -17.7450  -30.4860   23.8920 C   0  0  0  0  0  3  0  0  0  0  0  0
  -16.6790  -29.7140   23.3990 C   0  0  0  0  0  3  0  0  0  0  0  0
  -16.9400  -28.4880   22.7620 C   0  0  0  0  0  3  0  0  0  0  0  0
  -25.8590  -32.6840   24.0860 C   0  0  0  0  0  3  0  0  0  0  0  0
  -26.2790  -31.9440   25.4140 C   0  0  1  0  0  0  0  0  0  0  0  0
  -25.0980  -31.6790   26.3780 C   0  0  0  0  0  1  0  0  0  0  0  0
  -26.9420  -30.5840   25.0950 C   0  0  0  0  0  1  0  0  0  0  0  0
  -27.3340  -32.7830   26.1720 C   0  0  0  0  0  1  0  0  0  0  0  0
  -25.5020  -34.0810   24.3650 N   0  0  0  0  0  0  0  0  0  0  0  0
  -25.8730  -35.1260   23.6130 C   0  0  0  0  0  0  0  0  0  0  0  0
  -26.6230  -35.0170   22.6390 O   0  0  0  0  0  0  0  0  0  0  0  0
  -24.8480  -34.2370   25.1180 H   0  0  0  0  0  0  0  0  0  0  0  0
  -24.1470  -36.8780   23.0940 C   0  0  0  0  0  1  0  0  0  0  0  0
  -25.3290  -36.5130   24.0070 C   0  0  0  0  0  3  0  0  0  0  0  0
  -27.3780  -37.4510   24.9810 C   0  0  0  0  0  1  0  0  0  0  0  0
  -26.3470  -37.5840   23.9540 N   0  0  0  0  0  0  0  0  0  0  0  0
  -25.9170  -38.4980   24.0550 H   0  0  0  0  0  0  0  0  0  0  0  0
  -28.2900  -20.0730   19.8970 C   0  0  0  0  0  3  0  0  0  0  0  0
  -31.2580  -14.9420   20.0260 C   0  0  0  0  0  0  0  0  0  0  0  0
  -30.9620  -12.6470   19.1510 C   0  0  0  0  0  2  0  0  0  0  0  0
  -30.0170  -12.6880   17.9320 C   0  0  0  0  0  2  0  0  0  0  0  0
  -28.5470  -12.5890   18.3820 C   0  0  0  0  0  2  0  0  0  0  0  0
  -28.2050  -13.5620   19.5410 C   0  0  0  0  0  3  0  0  0  0  0  0
  -29.2670  -13.5070   20.6590 C   0  0  0  0  0  2  0  0  0  0  0  0
  -30.5720  -13.7610   20.0380 N   0  0  0  0  0  0  0  0  0  0  0  0
  -32.4360  -14.9810   19.6520 O   0  0  0  0  0  0  0  0  0  0  0  0
  -29.7690  -18.1950   18.7590 C   0  0  0  0  0  2  0  0  0  0  0  0
  -29.2090  -17.9690   21.1500 C   0  0  0  0  0  2  0  0  0  0  0  0
  -30.8420  -17.0910   18.9610 C   0  0  0  0  0  2  0  0  0  0  0  0
  -30.2780  -16.8370   21.2790 C   0  0  0  0  0  2  0  0  0  0  0  0
  -29.4770  -19.0240   20.0320 C   0  0  0  0  0  3  0  0  0  0  0  0
  -30.5200  -16.1030   20.0200 N   0  0  0  0  0  0  0  0  0  0  0  0
  -25.8650  -14.2470   20.3460 C   0  0  0  0  0  0  0  0  0  0  0  0
  -24.7730  -13.5130   20.7250 C   0  0  0  0  0  0  0  0  0  0  0  0
  -25.1740  -12.1440   20.6480 C   0  0  0  0  0  0  0  0  0  0  0  0
  -26.8600  -13.3280   20.0600 N   0  0  0  0  0  0  0  0  0  0  0  0
  -26.4520  -12.0560   20.3040 N   0  0  0  0  0  0  0  0  0  0  0  0
  -24.3960  -10.9100   20.8300 C   0  0  0  0  0  0  0  0  0  0  0  0
  -24.7660   -9.9380   21.7840 C   0  0  0  0  0  3  0  0  0  0  0  0
  -23.9920   -8.7690   21.9530 C   0  0  0  0  0  3  0  0  0  0  0  0
  -22.8340   -8.5650   21.1640 C   0  0  0  0  0  0  0  0  0  0  0  0
  -22.4840   -9.5250   20.1990 C   0  0  0  0  0  3  0  0  0  0  0  0
  -23.2580  -10.6850   20.0300 C   0  0  0  0  0  3  0  0  0  0  0  0
  -22.0360   -7.4490   21.2400 O   0  0  0  0  0  0  0  0  0  0  0  0
  -21.8590   -6.7700   22.4190 C   0  0  0  0  0  0  0  0  0  0  0  0
  -21.3500   -7.4030   23.5750 C   0  0  0  0  0  3  0  0  0  0  0  0
  -21.1180   -6.6510   24.7450 C   0  0  0  0  0  3  0  0  0  0  0  0
  -21.3830   -5.2690   24.7580 C   0  0  0  0  0  0  0  0  0  0  0  0
  -21.8820   -4.6360   23.6050 C   0  0  0  0  0  3  0  0  0  0  0  0
  -22.1160   -5.3850   22.4390 C   0  0  0  0  0  0  0  0  0  0  0  0
  -22.5790   -4.7660   21.3260 F   0  0  0  0  0  0  0  0  0  0  0  0
  -21.1520   -4.5450   25.8780 F   0  0  0  0  0  0  0  0  0  0  0  0
  -23.4080  -14.0440   21.0500 C   0  0  0  0  0  0  0  0  0  0  0  0
  -22.6790  -13.3670   21.9300 N   0  0  0  0  0  0  0  0  0  0  0  0
  -22.9970  -15.0940   20.5570 O   0  0  0  0  0  0  0  0  0  0  0  0
  -23.0260  -12.5150   22.3490 H   0  0  0  0  0  0  0  0  0  0  0  0
  -21.7630  -13.7040   22.1890 H   0  0  0  0  0  0  0  0  0  0  0  0
  -26.0860  -15.6130   20.1970 N   0  0  0  0  0  0  0  0  0  0  0  0
  -25.3570  -16.3020   20.3490 H   0  0  0  0  0  0  0  0  0  0  0  0
  -26.9570  -16.0220   19.8820 H   0  0  0  0  0  0  0  0  0  0  0  0
  -27.4680  -19.7600   18.7600 O   0  0  0  0  0  0  0  0  0  0  0  0
  -28.6200  -20.8060   16.8220 C   0  0  0  0  0  1  0  0  0  0  0  0
  -27.3540  -20.6910   17.6800 C   0  0  0  0  0  2  0  0  0  0  0  0
  2  4  2  0
  2  6  1  0
  3  1  1  0
  3  7  1  0
  4  5  1  0
  5  1  2  0
  5  9  1  0
  6  3  2  0
  8  4  1  0
 10 12  1  0
 10  9  1  0
 11 22  2  0
 12 17  1  0
 13 21  1  0
 13 23  1  0
 14 16  1  0
 15 21  1  0
 16 17  2  0
 16 15  1  0
 18 12  2  0
 19 18  1  0
 19 14  2  0
 20 14  1  0
 20 13  1  0
 21 11  1  0
 23 25  2  0
 24 23  1  0
 26 24  1  0
 27 36  2  0
 27 32  1  0
 28 24  1  0
 28 32  1  0
 29 28  1  0
 30 31  1  0
 30 29  1  0
 31 27  1  0
 32 33  2  0
 33 34  1  0
 35 34  2  0
 36 35  1  0
 37 11  1  0
 37 42  1  0
 37 38  1  0
 38 41  1  1
 38 39  1  0
 40 38  1  0
 42 45  1  0
 43 47  1  0
 43 42  1  0
 44 43  2  0
 47 46  1  0
 49 47  1  0
 49 50  1  0
 49 48  1  0
 51 94  1  0
 51  6  1  0
 52 58  1  0
 53 58  1  0
 54 55  1  0
 54 53  1  0
 56 55  1  0
 56 69  1  0
 56 57  1  0
 58 57  1  0
 59 52  2  0
 60 62  1  0
 60 64  1  0
 61 63  1  0
 62 65  1  0
 64 51  1  0
 64 61  1  0
 65 52  1  0
 65 63  1  0
 66 67  2  0
 67 86  1  0
 68 67  1  0
 68 71  1  0
 69 70  1  0
 69 66  1  0
 70 68  2  0
 71 72  1  0
 72 73  2  0
 74 77  1  0
 74 73  1  0
 75 74  2  0
 76 75  1  0
 76 71  2  0
 77 78  1  0
 78 83  2  0
 78 79  1  0
 79 80  2  0
 80 81  1  0
 81 85  1  0
 82 81  2  0
 83 82  1  0
 84 83  1  0
 86 87  1  0
 87 90  1  0
 87 89  1  0
 88 86  2  0
 91 66  1  0
 91 92  1  0
 93 91  1  0
 95 96  1  0
 96 94  1  0
M  ISO  4   9 101  10 101  52 100  65 100
M  END
>  <TORSDO>  (70) 
F 20

>  <SCORE>  (70) 
-11.232

>  <name>  (70) 
69

>  <ligand_id>  (70) 
69

>  <original_smiles>  (70) 
[H]c1c([H])c([H])c2c(c1[H])C([H])([H])C([H])([H])C([H])([H])C2([H])N([H])C(=O)C1([H])N(C(=O)C([H])(N([H])C(=O)C([H])(N([H])C([H])([H])[H])C([H])([H])[H])C(C([H])([H])[H])(C([H])([H])[H])C([H])([H])[H])C([H])([H])c2c([H])c(OC([H])([H])c3c([H])c(C([H])([H])[H])c(C([H])(OC([H])([H])C([H])([H])[H])C4([H])C([H])([H])C([H])([H])N(C(=O)N5C([H])([H])C([H])([H])C([H])([H])C([H])(n6nc(-c7c([H])c([H])c(Oc8c([H])c([H])c(F)c([H])c8F)c([H])c7[H])c(C(=O)N([H])[H])c6N([H])[H])C5([H])[H])C([H])([H])C4([H])[H])c([H])c3C([H])([H])[H])c([H])c([H])c2C1([H])[H]

>  <smiles>  (70) 
[H]c1c([H])c([H])c2c(c1[H])C([H])([H])C([H])([H])C([H])([H])C2([H])N([H])C(=O)C1([H])N(C(=O)C([H])(N([H])C(=O)C([H])(N([H])C([H])([H])[H])C([H])([H])[H])C(C([H])([H])[H])(C([H])([H])[H])C([H])([H])[H])C([H])([H])c2c([H])c(OC([H])([H])c3c([H])c(C([H])([H])[H])c(C([H])(OC([H])([H])C([H])([H])[H])C4([H])C([H])([H])C([H])([H])N(C(=O)N5C([H])([H])C([H])([H])C([H])([H])C([H])(n6nc(-c7c([H])c([H])c(Oc8c([H])c([H])c(F)c([H])c8F)c([H])c7[H])c(C(=O)N([H])[H])c6N([H])[H])C5([H])[H])C([H])([H])C4([H])[H])c([H])c3C([H])([H])[H])c([H])c([H])c2C1([H])[H]

$$$$
70:0:0
     RDKit          3D

 95105  0  0  1  0  0  0  0  0999 V2000
  -29.1310  -23.4690   19.5720 C   0  0  0  0  0  3  0  0  0  0  0  0
  -29.3330  -23.2620   21.9580 C   0  0  0  0  0  3  0  0  0  0  0  0
  -29.4810  -22.0860   19.4280 C   0  0  0  0  0  0  0  0  0  0  0  0
  -29.0610  -24.0920   20.8430 C   0  0  0  0  0  0  0  0  0  0  0  0
  -29.6680  -21.8870   21.8350 C   0  0  0  0  0  0  0  0  0  0  0  0
  -29.7410  -21.2600   20.5640 C   0  0  0  0  0  0  0  0  0  0  0  0
  -29.9820  -21.1070   23.0960 C   0  0  0  0  0  1  0  0  0  0  0  0
  -30.8620  -20.9000   17.5370 C   0  0  0  0  0  2  0  0  0  0  0  0
  -30.3390  -22.1850   16.9430 C   0  0  0  0  0  2  0  0  0  0  0  0
  -29.5710  -21.4980   18.0510 C   0  0  0  0  0  3  0  0  0  0  0  0
  -28.6400  -25.5730   21.1300 C   0  0  0  0  0  2  0  0  0  0  0  0
  -28.7690  -26.6350   20.1310 O   0  0  0  0  0  0  0  0  0  0  0  0
  -24.7490  -31.7560   23.1950 C   0  0  0  0  0  0  0  0  0  0  0  0
  -27.6410  -27.4510   20.0820 C   0  0  0  0  0  0  0  0  0  0  0  0
  -23.6390  -30.3270   21.5130 C   0  0  0  0  0  3  0  0  0  0  0  0
  -25.1900  -28.8930   20.0720 C   0  0  0  0  0  0  0  0  0  0  0  0
  -26.1550  -30.8010   21.3620 C   0  0  0  0  0  2  0  0  0  0  0  0
  -26.3190  -29.4450   20.6910 C   0  0  0  0  0  0  0  0  0  0  0  0
  -27.5530  -28.7350   20.6910 C   0  0  0  0  0  3  0  0  0  0  0  0
  -26.4960  -26.9370   19.4400 C   0  0  0  0  0  3  0  0  0  0  0  0
  -25.2770  -27.6420   19.4380 C   0  0  0  0  0  3  0  0  0  0  0  0
  -23.9030  -29.6900   20.1230 C   0  0  0  0  0  2  0  0  0  0  0  0
  -24.8650  -30.9770   22.0820 N   0  0  0  0  0  0  0  0  0  0  0  0
  -23.6470  -31.9640   23.7240 O   0  0  0  0  0  0  0  0  0  0  0  0
  -23.0250  -29.2580   22.4470 C   0  0  0  0  0  0  0  0  0  0  0  0
  -21.7180  -28.9930   22.2810 N   0  0  0  0  0  0  0  0  0  0  0  0
  -23.7220  -28.6690   23.2770 O   0  0  0  0  0  0  0  0  0  0  0  0
  -21.2120  -29.5230   21.5840 H   0  0  0  0  0  0  0  0  0  0  0  0
  -18.4260  -27.5400   22.6400 C   0  0  0  0  0  0  0  0  0  0  0  0
  -20.9420  -27.9970   23.0200 C   0  0  0  0  0  3  0  0  0  0  0  0
  -21.1800  -26.5760   22.4550 C   0  0  0  0  0  2  0  0  0  0  0  0
  -20.1520  -26.1680   21.3960 C   0  0  0  0  0  2  0  0  0  0  0  0
  -18.7360  -26.2070   21.9790 C   0  0  0  0  0  2  0  0  0  0  0  0
  -19.4620  -28.3870   23.1150 C   0  0  0  0  0  0  0  0  0  0  0  0
  -19.1210  -29.6300   23.6900 C   0  0  0  0  0  3  0  0  0  0  0  0
  -17.7750  -30.0280   23.7980 C   0  0  0  0  0  3  0  0  0  0  0  0
  -16.7530  -29.1790   23.3390 C   0  0  0  0  0  3  0  0  0  0  0  0
  -17.0780  -27.9370   22.7670 C   0  0  0  0  0  3  0  0  0  0  0  0
  -25.9920  -32.4420   23.8450 C   0  0  0  0  0  3  0  0  0  0  0  0
  -26.5150  -31.6890   25.1300 C   0  0  1  0  0  0  0  0  0  0  0  0
  -25.4130  -31.4010   26.1750 C   0  0  0  0  0  1  0  0  0  0  0  0
  -27.1640  -30.3380   24.7450 C   0  0  0  0  0  1  0  0  0  0  0  0
  -27.6180  -32.5290   25.8170 C   0  0  0  0  0  1  0  0  0  0  0  0
  -25.6140  -33.8240   24.1730 N   0  0  0  0  0  0  0  0  0  0  0  0
  -25.9130  -34.8930   23.4210 C   0  0  0  0  0  0  0  0  0  0  0  0
  -26.6060  -34.8210   22.4030 O   0  0  0  0  0  0  0  0  0  0  0  0
  -24.9980  -33.9500   24.9620 H   0  0  0  0  0  0  0  0  0  0  0  0
  -24.1100  -36.6040   23.0450 C   0  0  0  0  0  1  0  0  0  0  0  0
  -25.3570  -36.2570   23.8730 C   0  0  0  0  0  3  0  0  0  0  0  0
  -27.4380  -37.2370   24.7310 C   0  0  0  0  0  1  0  0  0  0  0  0
  -26.3420  -37.3560   23.7740 N   0  0  0  0  0  0  0  0  0  0  0  0
  -25.8930  -38.2560   23.9170 H   0  0  0  0  0  0  0  0  0  0  0  0
  -30.1850  -19.9300   20.4270 O   0  0  0  0  0  0  0  0  0  0  0  0
  -30.9570  -14.7100   20.0260 C   0  0  0  0  0  0  0  0  0  0  0  0
  -30.6070  -12.4970   18.9730 C   0  0  0  0  0  2  0  0  0  0  0  0
  -29.6290  -12.6570   17.7920 C   0  0  0  0  0  2  0  0  0  0  0  0
  -28.1730  -12.5200   18.2780 C   0  0  0  0  0  2  0  0  0  0  0  0
  -27.8750  -13.3880   19.5310 C   0  0  0  0  0  3  0  0  0  0  0  0
  -28.9750  -13.2460   20.6060 C   0  0  0  0  0  2  0  0  0  0  0  0
  -30.2610  -13.5350   19.9620 N   0  0  0  0  0  0  0  0  0  0  0  0
  -32.1270  -14.7730   19.6350 O   0  0  0  0  0  0  0  0  0  0  0  0
  -29.2390  -17.9940   19.1500 C   0  0  0  0  0  2  0  0  0  0  0  0
  -29.3960  -17.8100   21.6320 C   0  0  0  0  0  2  0  0  0  0  0  0
  -30.3080  -16.8600   19.0790 C   0  0  0  0  0  2  0  0  0  0  0  0
  -30.4290  -16.6510   21.4350 C   0  0  0  0  0  2  0  0  0  0  0  0
  -29.2360  -18.8260   20.4580 C   0  0  0  0  0  3  0  0  0  0  0  0
  -30.2420  -15.8760   20.1910 N   0  0  0  0  0  0  0  0  0  0  0  0
  -25.5250  -14.0010   20.3620 C   0  0  0  0  0  0  0  0  0  0  0  0
  -24.4630  -13.2350   20.7610 C   0  0  0  0  0  0  0  0  0  0  0  0
  -24.9070  -11.8780   20.6900 C   0  0  0  0  0  0  0  0  0  0  0  0
  -26.5460  -13.1130   20.0720 N   0  0  0  0  0  0  0  0  0  0  0  0
  -26.1840  -11.8300   20.3320 N   0  0  0  0  0  0  0  0  0  0  0  0
  -24.1730  -10.6220   20.8890 C   0  0  0  0  0  0  0  0  0  0  0  0
  -24.5870   -9.6660   21.8430 C   0  0  0  0  0  3  0  0  0  0  0  0
  -23.8530   -8.4750   22.0290 C   0  0  0  0  0  3  0  0  0  0  0  0
  -22.6890   -8.2310   21.2630 C   0  0  0  0  0  0  0  0  0  0  0  0
  -22.2940   -9.1750   20.2980 C   0  0  0  0  0  3  0  0  0  0  0  0
  -23.0290  -10.3570   20.1100 C   0  0  0  0  0  3  0  0  0  0  0  0
  -21.9260   -7.0930   21.3570 O   0  0  0  0  0  0  0  0  0  0  0  0
  -21.7910   -6.4140   22.5420 C   0  0  0  0  0  0  0  0  0  0  0  0
  -21.2800   -7.0330   23.7020 C   0  0  0  0  0  3  0  0  0  0  0  0
  -21.0930   -6.2810   24.8790 C   0  0  0  0  0  3  0  0  0  0  0  0
  -21.4050   -4.9080   24.8940 C   0  0  0  0  0  0  0  0  0  0  0  0
  -21.9090   -4.2880   23.7380 C   0  0  0  0  0  3  0  0  0  0  0  0
  -22.0980   -5.0390   22.5640 C   0  0  0  0  0  0  0  0  0  0  0  0
  -22.5630   -4.4300   21.4460 F   0  0  0  0  0  0  0  0  0  0  0  0
  -21.2190   -4.1840   26.0210 F   0  0  0  0  0  0  0  0  0  0  0  0
  -23.0840  -13.7250   21.0950 C   0  0  0  0  0  0  0  0  0  0  0  0
  -22.3880  -13.0320   21.9900 N   0  0  0  0  0  0  0  0  0  0  0  0
  -22.6340  -14.7560   20.5980 O   0  0  0  0  0  0  0  0  0  0  0  0
  -22.7660  -12.1960   22.4130 H   0  0  0  0  0  0  0  0  0  0  0  0
  -21.4650  -13.3420   22.2560 H   0  0  0  0  0  0  0  0  0  0  0  0
  -25.7020  -15.3730   20.1990 N   0  0  0  0  0  0  0  0  0  0  0  0
  -24.9570  -16.0410   20.3580 H   0  0  0  0  0  0  0  0  0  0  0  0
  -26.5590  -15.8010   19.8740 H   0  0  0  0  0  0  0  0  0  0  0  0
  1  4  1  0
  3  1  2  0
  3  6  1  0
  4 11  1  0
  4  2  2  0
  5  2  1  0
  5  7  1  0
  6  5  2  0
  8 10  1  0
  9  8  1  0
  9 10  1  0
 10  3  1  0
 12 11  1  0
 13 24  2  0
 14 12  1  0
 14 19  1  0
 15 23  1  0
 15 25  1  0
 16 22  1  0
 16 18  1  0
 17 23  1  0
 18 17  1  0
 19 18  2  0
 20 14  2  0
 21 20  1  0
 21 16  2  0
 22 15  1  0
 23 13  1  0
 25 27  2  0
 26 25  1  0
 28 26  1  0
 29 38  2  0
 29 34  1  0
 30 26  1  0
 30 34  1  0
 31 30  1  0
 32 33  1  0
 32 31  1  0
 33 29  1  0
 34 35  2  0
 35 36  1  0
 37 36  2  0
 38 37  1  0
 39 13  1  0
 39 44  1  0
 39 40  1  0
 40 43  1  1
 40 41  1  0
 42 40  1  0
 44 47  1  0
 45 49  1  0
 45 44  1  0
 46 45  2  0
 49 48  1  0
 51 49  1  0
 51 52  1  0
 51 50  1  0
 53  6  1  0
 54 67  1  0
 55 60  1  0
 56 57  1  0
 56 55  1  0
 58 57  1  0
 58 71  1  0
 58 59  1  0
 60 54  1  0
 60 59  1  0
 61 54  2  0
 62 66  1  0
 64 62  1  0
 64 67  1  0
 65 63  1  0
 66 53  1  0
 66 63  1  0
 67 65  1  0
 68 69  2  0
 69 88  1  0
 70 69  1  0
 70 73  1  0
 71 72  1  0
 71 68  1  0
 72 70  2  0
 73 74  1  0
 74 75  2  0
 76 79  1  0
 76 75  1  0
 77 76  2  0
 78 77  1  0
 78 73  2  0
 79 80  1  0
 80 85  2  0
 80 81  1  0
 81 82  2  0
 82 83  1  0
 83 87  1  0
 84 83  2  0
 85 84  1  0
 86 85  1  0
 88 89  1  0
 89 92  1  0
 89 91  1  0
 90 88  2  0
 93 94  1  0
 93 68  1  0
 95 93  1  0
M  ISO  4  11 101  12 101  54 100  67 100
M  END
>  <TORSDO>  (71) 
F 19

>  <SCORE>  (71) 
-13.577

>  <name>  (71) 
70

>  <ligand_id>  (71) 
70

>  <original_smiles>  (71) 
[H]c1c([H])c([H])c2c(c1[H])C([H])([H])C([H])([H])C([H])([H])C2([H])N([H])C(=O)C1([H])N(C(=O)C([H])(N([H])C(=O)C([H])(N([H])C([H])([H])[H])C([H])([H])[H])C(C([H])([H])[H])(C([H])([H])[H])C([H])([H])[H])C([H])([H])c2c([H])c(OC([H])([H])c3c([H])c(C([H])([H])[H])c(OC4([H])C([H])([H])C([H])([H])N(C(=O)N5C([H])([H])C([H])([H])C([H])([H])C([H])(n6nc(-c7c([H])c([H])c(Oc8c([H])c([H])c(F)c([H])c8F)c([H])c7[H])c(C(=O)N([H])[H])c6N([H])[H])C5([H])[H])C([H])([H])C4([H])[H])c(C4([H])C([H])([H])C4([H])[H])c3[H])c([H])c([H])c2C1([H])[H]

>  <smiles>  (71) 
[H]c1c([H])c([H])c2c(c1[H])C([H])([H])C([H])([H])C([H])([H])C2([H])N([H])C(=O)C1([H])N(C(=O)C([H])(N([H])C(=O)C([H])(N([H])C([H])([H])[H])C([H])([H])[H])C(C([H])([H])[H])(C([H])([H])[H])C([H])([H])[H])C([H])([H])c2c([H])c(OC([H])([H])c3c([H])c(C([H])([H])[H])c(OC4([H])C([H])([H])C([H])([H])N(C(=O)N5C([H])([H])C([H])([H])C([H])([H])C([H])(n6nc(-c7c([H])c([H])c(Oc8c([H])c([H])c(F)c([H])c8F)c([H])c7[H])c(C(=O)N([H])[H])c6N([H])[H])C5([H])[H])C([H])([H])C4([H])[H])c(C4([H])C([H])([H])C4([H])[H])c3[H])c([H])c([H])c2C1([H])[H]

$$$$
71:0:0
     RDKit          3D

 96105  0  0  1  0  0  0  0  0999 V2000
  -29.9300  -22.1680   19.9550 C   0  0  0  0  0  3  0  0  0  0  0  0
  -30.1030  -20.7940   20.2010 C   0  0  0  0  0  3  0  0  0  0  0  0
  -30.5140  -22.6520   22.2570 C   0  0  0  0  0  3  0  0  0  0  0  0
  -30.7090  -21.2720   22.5120 C   0  0  0  0  0  0  0  0  0  0  0  0
  -30.1210  -23.1130   20.9770 C   0  0  0  0  0  0  0  0  0  0  0  0
  -30.4900  -20.3230   21.4800 C   0  0  0  0  0  0  0  0  0  0  0  0
  -30.5640  -21.5090   25.0650 C   0  0  0  0  0  1  0  0  0  0  0  0
  -32.7740  -21.0030   23.9220 C   0  0  0  0  0  1  0  0  0  0  0  0
  -31.2500  -20.8210   23.8720 C   0  0  0  0  0  3  0  0  0  0  0  0
  -30.6750  -18.9800   21.7660 O   0  0  0  0  0  0  0  0  0  0  0  0
  -30.5450  -14.3900   20.0170 C   0  0  0  0  0  0  0  0  0  0  0  0
  -30.0330  -12.3430   18.7390 C   0  0  0  0  0  2  0  0  0  0  0  0
  -29.0050  -12.6340   17.6310 C   0  0  0  0  0  2  0  0  0  0  0  0
  -27.5760  -12.4540   18.1750 C   0  0  0  0  0  2  0  0  0  0  0  0
  -27.3540  -13.2280   19.4990 C   0  0  0  0  0  3  0  0  0  0  0  0
  -28.4980  -12.9710   20.5100 C   0  0  0  0  0  2  0  0  0  0  0  0
  -29.7820  -13.2730   19.8540 N   0  0  0  0  0  0  0  0  0  0  0  0
  -31.5350  -14.6060   19.3090 O   0  0  0  0  0  0  0  0  0  0  0  0
  -31.9710  -17.0310   21.1640 C   0  0  0  0  0  2  0  0  0  0  0  0
  -29.6250  -17.4240   20.1700 C   0  0  0  0  0  2  0  0  0  0  0  0
  -31.3560  -15.7920   21.8630 C   0  0  0  0  0  2  0  0  0  0  0  0
  -29.1770  -16.1920   20.9870 C   0  0  0  0  0  2  0  0  0  0  0  0
  -30.9330  -18.0750   20.6930 C   0  0  0  0  0  3  0  0  0  0  0  0
  -30.2650  -15.2080   21.0640 N   0  0  0  0  0  0  0  0  0  0  0  0
  -25.0130  -13.8010   20.4060 C   0  0  0  0  0  0  0  0  0  0  0  0
  -23.9870  -13.0110   20.8500 C   0  0  0  0  0  0  0  0  0  0  0  0
  -24.4590  -11.6650   20.7640 C   0  0  0  0  0  0  0  0  0  0  0  0
  -26.0450  -12.9340   20.0800 N   0  0  0  0  0  0  0  0  0  0  0  0
  -25.7190  -11.6440   20.3520 N   0  0  0  0  0  0  0  0  0  0  0  0
  -23.7650  -10.3930   20.9940 C   0  0  0  0  0  0  0  0  0  0  0  0
  -24.2650   -9.4320   21.9010 C   0  0  0  0  0  3  0  0  0  0  0  0
  -23.5710   -8.2220   22.1190 C   0  0  0  0  0  3  0  0  0  0  0  0
  -22.3610   -7.9650   21.4290 C   0  0  0  0  0  0  0  0  0  0  0  0
  -21.8790   -8.9140   20.5110 C   0  0  0  0  0  3  0  0  0  0  0  0
  -22.5760  -10.1160   20.2920 C   0  0  0  0  0  3  0  0  0  0  0  0
  -21.6320   -6.8080   21.5580 O   0  0  0  0  0  0  0  0  0  0  0  0
  -21.6440   -6.0740   22.7180 C   0  0  0  0  0  0  0  0  0  0  0  0
  -21.2660   -6.6350   23.9570 C   0  0  0  0  0  3  0  0  0  0  0  0
  -21.2290   -5.8270   25.1110 C   0  0  0  0  0  3  0  0  0  0  0  0
  -21.5560   -4.4600   25.0270 C   0  0  0  0  0  0  0  0  0  0  0  0
  -21.9240   -3.8990   23.7910 C   0  0  0  0  0  3  0  0  0  0  0  0
  -21.9660   -4.7040   22.6390 C   0  0  0  0  0  0  0  0  0  0  0  0
  -22.3010   -4.1540   21.4470 F   0  0  0  0  0  0  0  0  0  0  0  0
  -21.5120   -3.6810   26.1330 F   0  0  0  0  0  0  0  0  0  0  0  0
  -22.6110  -13.4680   21.2410 C   0  0  0  0  0  0  0  0  0  0  0  0
  -21.9690  -12.7580   22.1630 N   0  0  0  0  0  0  0  0  0  0  0  0
  -22.1170  -14.4890   20.7650 O   0  0  0  0  0  0  0  0  0  0  0  0
  -22.3810  -11.9320   22.5680 H   0  0  0  0  0  0  0  0  0  0  0  0
  -21.0500  -13.0480   22.4670 H   0  0  0  0  0  0  0  0  0  0  0  0
  -25.1500  -15.1730   20.2340 N   0  0  0  0  0  0  0  0  0  0  0  0
  -24.3940  -15.8230   20.4170 H   0  0  0  0  0  0  0  0  0  0  0  0
  -25.9690  -15.6220   19.8420 H   0  0  0  0  0  0  0  0  0  0  0  0
  -29.9420  -24.4400   20.6410 O   0  0  0  0  0  0  0  0  0  0  0  0
  -29.6690  -25.3750   21.6820 C   0  0  0  0  0  2  0  0  0  0  0  0
  -29.4420  -26.7770   21.0870 C   0  0  0  0  0  2  0  0  0  0  0  0
  -28.4310  -26.7070   20.0790 O   0  0  0  0  0  0  0  0  0  0  0  0
  -24.6290  -31.9040   23.2270 C   0  0  0  0  0  0  0  0  0  0  0  0
  -27.2970  -27.4840   20.1680 C   0  0  0  0  0  0  0  0  0  0  0  0
  -23.4170  -30.4840   21.6000 C   0  0  0  0  0  3  0  0  0  0  0  0
  -24.8740  -28.9460   20.1810 C   0  0  0  0  0  0  0  0  0  0  0  0
  -25.9330  -30.8670   21.3790 C   0  0  0  0  0  2  0  0  0  0  0  0
  -26.0280  -29.4910   20.7580 C   0  0  0  0  0  0  0  0  0  0  0  0
  -27.2410  -28.7710   20.7530 C   0  0  0  0  0  3  0  0  0  0  0  0
  -26.1270  -26.9520   19.5860 C   0  0  0  0  0  3  0  0  0  0  0  0
  -24.9170  -27.6700   19.5930 C   0  0  0  0  0  3  0  0  0  0  0  0
  -23.6220  -29.7930   20.2250 C   0  0  0  0  0  2  0  0  0  0  0  0
  -24.6790  -31.0990   22.1280 N   0  0  0  0  0  0  0  0  0  0  0  0
  -23.5500  -32.1720   23.7740 O   0  0  0  0  0  0  0  0  0  0  0  0
  -22.7820  -29.4640   22.5720 C   0  0  0  0  0  0  0  0  0  0  0  0
  -21.4590  -29.2700   22.4540 N   0  0  0  0  0  0  0  0  0  0  0  0
  -23.4760  -28.8490   23.3870 O   0  0  0  0  0  0  0  0  0  0  0  0
  -20.9600  -29.8190   21.7670 H   0  0  0  0  0  0  0  0  0  0  0  0
  -18.0950  -28.0650   22.9760 C   0  0  0  0  0  0  0  0  0  0  0  0
  -20.6520  -28.3330   23.2350 C   0  0  0  0  0  3  0  0  0  0  0  0
  -20.7590  -26.9000   22.6650 C   0  0  0  0  0  2  0  0  0  0  0  0
  -19.6540  -26.5670   21.6580 C   0  0  0  0  0  2  0  0  0  0  0  0
  -18.2740  -26.7120   22.3070 C   0  0  0  0  0  2  0  0  0  0  0  0
  -19.2130  -28.8330   23.3970 C   0  0  0  0  0  0  0  0  0  0  0  0
  -18.9920  -30.1000   23.9790 C   0  0  0  0  0  3  0  0  0  0  0  0
  -17.6870  -30.5980   24.1470 C   0  0  0  0  0  3  0  0  0  0  0  0
  -16.5840  -29.8260   23.7460 C   0  0  0  0  0  3  0  0  0  0  0  0
  -16.7890  -28.5620   23.1650 C   0  0  0  0  0  3  0  0  0  0  0  0
  -25.9180  -32.5430   23.8320 C   0  0  0  0  0  3  0  0  0  0  0  0
  -25.6080  -33.9410   24.1550 N   0  0  0  0  0  0  0  0  0  0  0  0
  -25.9200  -34.9870   23.3790 C   0  0  0  0  0  0  0  0  0  0  0  0
  -26.5710  -34.8790   22.3360 O   0  0  0  0  0  0  0  0  0  0  0  0
  -25.0320  -34.0990   24.9700 H   0  0  0  0  0  0  0  0  0  0  0  0
  -24.1630  -36.7540   23.0430 C   0  0  0  0  0  1  0  0  0  0  0  0
  -25.4290  -36.3750   23.8310 C   0  0  0  0  0  3  0  0  0  0  0  0
  -27.5790  -37.2850   24.5910 C   0  0  0  0  0  1  0  0  0  0  0  0
  -26.4450  -37.4400   23.6830 N   0  0  0  0  0  0  0  0  0  0  0  0
  -26.0340  -38.3550   23.8470 H   0  0  0  0  0  0  0  0  0  0  0  0
  -26.4510  -31.7790   25.1050 C   0  0  1  0  0  0  0  0  0  0  0  0
  -25.3720  -31.5430   26.1870 C   0  0  0  0  0  1  0  0  0  0  0  0
  -27.0360  -30.4040   24.7090 C   0  0  0  0  0  1  0  0  0  0  0  0
  -27.6060  -32.5830   25.7510 C   0  0  0  0  0  1  0  0  0  0  0  0
  1  2  2  0
  1  5  1  0
  2  6  1  0
  3  4  1  0
  4  9  1  0
  5  3  2  0
  6 10  1  0
  6  4  2  0
  9  8  1  0
  9  7  1  0
 11 24  1  0
 12 17  1  0
 13 14  1  0
 13 12  1  0
 15 14  1  0
 15 28  1  0
 15 16  1  0
 17 11  1  0
 17 16  1  0
 18 11  2  0
 19 21  1  0
 20 23  1  0
 20 22  1  0
 22 24  1  0
 23 19  1  0
 23 10  1  0
 24 21  1  0
 25 26  2  0
 26 45  1  0
 27 26  1  0
 27 30  1  0
 28 29  1  0
 28 25  1  0
 29 27  2  0
 30 31  1  0
 31 32  2  0
 33 36  1  0
 33 32  1  0
 34 33  2  0
 35 34  1  0
 35 30  2  0
 36 37  1  0
 37 38  1  0
 38 39  2  0
 40 39  1  0
 40 44  1  0
 41 40  2  0
 42 37  2  0
 42 41  1  0
 43 42  1  0
 45 46  1  0
 46 49  1  0
 46 48  1  0
 47 45  2  0
 50 25  1  0
 50 51  1  0
 52 50  1  0
 53  5  1  0
 53 54  1  0
 55 54  1  0
 56 58  1  0
 56 55  1  0
 57 68  2  0
 58 63  1  0
 59 67  1  0
 59 69  1  0
 60 66  1  0
 60 62  1  0
 61 67  1  0
 62 61  1  0
 63 62  2  0
 64 65  1  0
 64 58  2  0
 65 60  2  0
 66 59  1  0
 67 57  1  0
 69 71  2  0
 70 69  1  0
 72 70  1  0
 73 82  2  0
 73 78  1  0
 74 70  1  0
 74 78  1  0
 75 74  1  0
 76 77  1  0
 76 75  1  0
 77 73  1  0
 78 79  2  0
 79 80  1  0
 81 80  2  0
 82 81  1  0
 83 57  1  0
 83 84  1  0
 83 93  1  0
 84 87  1  0
 85 89  1  0
 85 84  1  0
 86 85  2  0
 89 88  1  0
 91 89  1  0
 91 92  1  0
 91 90  1  0
 93 96  1  1
 93 94  1  0
 95 93  1  0
M  ISO  4  11 100  24 100  55 101  56 101
M  END
>  <TORSDO>  (72) 
F 21

>  <SCORE>  (72) 
-13.304

>  <name>  (72) 
71

>  <ligand_id>  (72) 
71

>  <original_smiles>  (72) 
[H]c1c([H])c([H])c2c(c1[H])C([H])([H])C([H])([H])C([H])([H])C2([H])N([H])C(=O)C1([H])N(C(=O)C([H])(N([H])C(=O)C([H])(N([H])C([H])([H])[H])C([H])([H])[H])C(C([H])([H])[H])(C([H])([H])[H])C([H])([H])[H])C([H])([H])c2c([H])c(OC([H])([H])C([H])([H])Oc3c([H])c([H])c(OC4([H])C([H])([H])C([H])([H])N(C(=O)N5C([H])([H])C([H])([H])C([H])([H])C([H])(n6nc(-c7c([H])c([H])c(Oc8c([H])c([H])c(F)c([H])c8F)c([H])c7[H])c(C(=O)N([H])[H])c6N([H])[H])C5([H])[H])C([H])([H])C4([H])[H])c(C([H])(C([H])([H])[H])C([H])([H])[H])c3[H])c([H])c([H])c2C1([H])[H]

>  <smiles>  (72) 
[H]c1c([H])c([H])c2c(c1[H])C([H])([H])C([H])([H])C([H])([H])C2([H])N([H])C(=O)C1([H])N(C(=O)C([H])(N([H])C(=O)C([H])(N([H])C([H])([H])[H])C([H])([H])[H])C(C([H])([H])[H])(C([H])([H])[H])C([H])([H])[H])C([H])([H])c2c([H])c(OC([H])([H])C([H])([H])Oc3c([H])c([H])c(OC4([H])C([H])([H])C([H])([H])N(C(=O)N5C([H])([H])C([H])([H])C([H])([H])C([H])(n6nc(-c7c([H])c([H])c(Oc8c([H])c([H])c(F)c([H])c8F)c([H])c7[H])c(C(=O)N([H])[H])c6N([H])[H])C5([H])[H])C([H])([H])C4([H])[H])c(C([H])(C([H])([H])[H])C([H])([H])[H])c3[H])c([H])c([H])c2C1([H])[H]

$$$$
72:0:0
     RDKit          3D

 95104  0  0  1  0  0  0  0  0999 V2000
  -27.1840  -23.2830   19.5440 C   0  0  0  0  0  3  0  0  0  0  0  0
  -26.8890  -22.0260   18.9830 C   0  0  0  0  0  0  0  0  0  0  0  0
  -28.4740  -23.6420   19.9680 C   0  0  0  0  0  0  0  0  0  0  0  0
  -27.8790  -21.0210   18.8530 C   0  0  0  0  0  0  0  0  0  0  0  0
  -29.4800  -22.5690   19.8850 C   0  0  0  0  0  0  0  0  0  0  0  0
  -29.2090  -21.2310   19.3280 C   0  0  0  0  0  0  0  0  0  0  0  0
  -25.4670  -21.7850   18.4910 C   0  0  0  0  0  1  0  0  0  0  0  0
  -27.4840  -19.7370   18.1180 C   0  0  0  0  0  1  0  0  0  0  0  0
  -30.8900  -22.8640   20.3770 C   0  0  0  0  0  1  0  0  0  0  0  0
  -30.1940  -20.2030   19.0030 N   0  0  0  0  0  0  0  0  0  0  0  0
  -30.0870  -19.9410   18.0290 H   0  0  0  0  0  0  0  0  0  0  0  0
  -30.7620  -19.0140   19.7800 C   0  0  0  0  0  2  0  0  0  0  0  0
  -31.3470  -15.0430   19.7090 C   0  0  0  0  0  0  0  0  0  0  0  0
  -31.0310  -12.6800   18.8810 C   0  0  0  0  0  2  0  0  0  0  0  0
  -30.0560  -12.6320   17.6820 C   0  0  0  0  0  2  0  0  0  0  0  0
  -28.6070  -12.4830   18.1750 C   0  0  0  0  0  2  0  0  0  0  0  0
  -28.2730  -13.4980   19.2980 C   0  0  0  0  0  3  0  0  0  0  0  0
  -29.3660  -13.5250   20.3880 C   0  0  0  0  0  2  0  0  0  0  0  0
  -30.6600  -13.8330   19.7500 N   0  0  0  0  0  0  0  0  0  0  0  0
  -32.4240  -15.0910   19.1060 O   0  0  0  0  0  0  0  0  0  0  0  0
  -29.0730  -17.0710   21.6050 C   0  0  0  0  0  2  0  0  0  0  0  0
  -28.8250  -17.4470   20.1380 C   0  0  0  0  0  2  0  0  0  0  0  0
  -30.4510  -16.3940   21.6120 C   0  0  0  0  0  2  0  0  0  0  0  0
  -30.2120  -17.4900   19.5070 C   0  0  0  0  0  3  0  0  0  0  0  0
  -30.7810  -16.2310   20.2000 N   0  0  0  0  0  0  0  0  0  0  0  0
  -25.9580  -14.1880   20.1760 C   0  0  0  0  0  0  0  0  0  0  0  0
  -24.8850  -13.4640   20.6090 C   0  0  0  0  0  0  0  0  0  0  0  0
  -25.2810  -12.0930   20.5360 C   0  0  0  0  0  0  0  0  0  0  0  0
  -26.9460  -13.2660   19.8660 N   0  0  0  0  0  0  0  0  0  0  0  0
  -26.5450  -11.9990   20.1450 N   0  0  0  0  0  0  0  0  0  0  0  0
  -24.5040  -10.8690   20.7620 C   0  0  0  0  0  0  0  0  0  0  0  0
  -24.8750   -9.9300   21.7490 C   0  0  0  0  0  3  0  0  0  0  0  0
  -24.0990   -8.7710   21.9590 C   0  0  0  0  0  3  0  0  0  0  0  0
  -22.9370   -8.5440   21.1820 C   0  0  0  0  0  0  0  0  0  0  0  0
  -22.5830   -9.4740   20.1870 C   0  0  0  0  0  3  0  0  0  0  0  0
  -23.3610  -10.6240   19.9760 C   0  0  0  0  0  3  0  0  0  0  0  0
  -22.1360   -7.4350   21.2990 O   0  0  0  0  0  0  0  0  0  0  0  0
  -21.9400   -6.8130   22.5040 C   0  0  0  0  0  0  0  0  0  0  0  0
  -21.4150   -7.5000   23.6210 C   0  0  0  0  0  3  0  0  0  0  0  0
  -21.1650   -6.8050   24.8210 C   0  0  0  0  0  3  0  0  0  0  0  0
  -21.4260   -5.4240   24.9030 C   0  0  0  0  0  0  0  0  0  0  0  0
  -21.9430   -4.7380   23.7900 C   0  0  0  0  0  3  0  0  0  0  0  0
  -22.1950   -5.4290   22.5930 C   0  0  0  0  0  0  0  0  0  0  0  0
  -22.6730   -4.7600   21.5170 F   0  0  0  0  0  0  0  0  0  0  0  0
  -21.1780   -4.7530   26.0520 F   0  0  0  0  0  0  0  0  0  0  0  0
  -23.5360  -14.0090   20.9770 C   0  0  0  0  0  0  0  0  0  0  0  0
  -22.8410  -13.3510   21.8980 N   0  0  0  0  0  0  0  0  0  0  0  0
  -23.1120  -15.0530   20.4830 O   0  0  0  0  0  0  0  0  0  0  0  0
  -23.2020  -12.5000   22.3050 H   0  0  0  0  0  0  0  0  0  0  0  0
  -21.9410  -13.6980   22.1930 H   0  0  0  0  0  0  0  0  0  0  0  0
  -26.1560  -15.5490   19.9980 N   0  0  0  0  0  0  0  0  0  0  0  0
  -25.4390  -16.2370   20.1950 H   0  0  0  0  0  0  0  0  0  0  0  0
  -27.0000  -15.9500   19.6200 H   0  0  0  0  0  0  0  0  0  0  0  0
  -28.6130  -25.1040   20.6490 C   0  0  0  0  0  2  0  0  0  0  0  0
  -28.5160  -26.4280   19.9190 O   0  0  0  0  0  0  0  0  0  0  0  0
  -24.6590  -31.7610   23.1540 C   0  0  0  0  0  0  0  0  0  0  0  0
  -27.3860  -27.2840   20.0070 C   0  0  0  0  0  0  0  0  0  0  0  0
  -23.5030  -30.3900   21.4600 C   0  0  0  0  0  3  0  0  0  0  0  0
  -25.0030  -28.9020   20.0070 C   0  0  0  0  0  0  0  0  0  0  0  0
  -26.0420  -30.7440   21.3210 C   0  0  0  0  0  2  0  0  0  0  0  0
  -26.1580  -29.3770   20.6430 C   0  0  0  0  0  0  0  0  0  0  0  0
  -27.3530  -28.5810   20.6340 C   0  0  0  0  0  3  0  0  0  0  0  0
  -26.2160  -26.8970   19.3240 C   0  0  0  0  0  3  0  0  0  0  0  0
  -25.0360  -27.6710   19.3340 C   0  0  0  0  0  3  0  0  0  0  0  0
  -23.7510  -29.7610   20.0630 C   0  0  0  0  0  2  0  0  0  0  0  0
  -24.7530  -30.9850   22.0350 N   0  0  0  0  0  0  0  0  0  0  0  0
  -23.5650  -32.0020   23.6830 O   0  0  0  0  0  0  0  0  0  0  0  0
  -22.8470  -29.3340   22.3810 C   0  0  0  0  0  0  0  0  0  0  0  0
  -21.5230  -29.1440   22.2430 N   0  0  0  0  0  0  0  0  0  0  0  0
  -23.5280  -28.6910   23.1830 O   0  0  0  0  0  0  0  0  0  0  0  0
  -21.0290  -29.7120   21.5690 H   0  0  0  0  0  0  0  0  0  0  0  0
  -18.1630  -27.8740   22.6810 C   0  0  0  0  0  0  0  0  0  0  0  0
  -20.7140  -28.1680   22.9780 C   0  0  0  0  0  3  0  0  0  0  0  0
  -20.8450  -26.7580   22.3610 C   0  0  0  0  0  2  0  0  0  0  0  0
  -19.7550  -26.4500   21.3270 C   0  0  0  0  0  2  0  0  0  0  0  0
  -18.3680  -26.5490   21.9650 C   0  0  0  0  0  2  0  0  0  0  0  0
  -19.2640  -28.6420   23.1430 C   0  0  0  0  0  0  0  0  0  0  0  0
  -19.0190  -29.8810   23.7750 C   0  0  0  0  0  3  0  0  0  0  0  0
  -17.7030  -30.3510   23.9490 C   0  0  0  0  0  3  0  0  0  0  0  0
  -16.6170  -29.5820   23.5010 C   0  0  0  0  0  3  0  0  0  0  0  0
  -16.8460  -28.3450   22.8720 C   0  0  0  0  0  3  0  0  0  0  0  0
  -25.9210  -32.4020   23.8090 C   0  0  0  0  0  3  0  0  0  0  0  0
  -26.4210  -31.6200   25.0850 C   0  0  1  0  0  0  0  0  0  0  0  0
  -25.3120  -31.3600   26.1310 C   0  0  0  0  0  1  0  0  0  0  0  0
  -27.0250  -30.2510   24.6900 C   0  0  0  0  0  1  0  0  0  0  0  0
  -27.5540  -32.4160   25.7780 C   0  0  0  0  0  1  0  0  0  0  0  0
  -25.5880  -33.7920   24.1520 N   0  0  0  0  0  0  0  0  0  0  0  0
  -25.9190  -34.8610   23.4140 C   0  0  0  0  0  0  0  0  0  0  0  0
  -26.6040  -34.7790   22.3910 O   0  0  0  0  0  0  0  0  0  0  0  0
  -24.9770  -33.9280   24.9460 H   0  0  0  0  0  0  0  0  0  0  0  0
  -24.1690  -36.6380   23.0680 C   0  0  0  0  0  1  0  0  0  0  0  0
  -25.4080  -36.2370   23.8850 C   0  0  0  0  0  3  0  0  0  0  0  0
  -27.5200  -37.1400   24.7510 C   0  0  0  0  0  1  0  0  0  0  0  0
  -26.4270  -37.3050   23.7980 N   0  0  0  0  0  0  0  0  0  0  0  0
  -26.0070  -38.2170   23.9520 H   0  0  0  0  0  0  0  0  0  0  0  0
  1  3  1  0
  2  1  2  0
  3 54  1  0
  4  2  1  0
  4  6  2  0
  5  3  2  0
  5  9  1  0
  6  5  1  0
  7  2  1  0
  8  4  1  0
 10  6  1  0
 10 12  1  0
 11 10  1  0
 13 19  1  0
 13 25  1  0
 14 19  1  0
 15 16  1  0
 15 14  1  0
 17 16  1  0
 17 29  1  0
 17 18  1  0
 19 18  1  0
 20 13  2  0
 21 23  1  0
 22 21  1  0
 24 12  1  0
 24 22  1  0
 24 25  1  0
 25 23  1  0
 26 27  2  0
 27 46  1  0
 28 27  1  0
 28 31  1  0
 29 30  1  0
 29 26  1  0
 30 28  2  0
 31 32  1  0
 32 33  2  0
 34 37  1  0
 34 33  1  0
 35 34  2  0
 36 35  1  0
 36 31  2  0
 37 38  1  0
 38 43  2  0
 38 39  1  0
 39 40  2  0
 40 41  1  0
 41 45  1  0
 42 41  2  0
 43 42  1  0
 44 43  1  0
 46 47  1  0
 47 50  1  0
 47 49  1  0
 48 46  2  0
 51 26  1  0
 51 52  1  0
 53 51  1  0
 55 57  1  0
 55 54  1  0
 56 67  2  0
 57 62  1  0
 58 66  1  0
 58 68  1  0
 59 65  1  0
 59 61  1  0
 60 66  1  0
 61 60  1  0
 62 61  2  0
 63 64  1  0
 63 57  2  0
 64 59  2  0
 65 58  1  0
 66 56  1  0
 68 70  2  0
 69 68  1  0
 71 69  1  0
 72 81  2  0
 72 77  1  0
 73 69  1  0
 73 77  1  0
 74 73  1  0
 75 76  1  0
 75 74  1  0
 76 72  1  0
 77 78  2  0
 78 79  1  0
 80 79  2  0
 81 80  1  0
 82 56  1  0
 82 87  1  0
 82 83  1  0
 83 86  1  1
 83 84  1  0
 85 83  1  0
 87 90  1  0
 88 92  1  0
 88 87  1  0
 89 88  2  0
 92 91  1  0
 94 92  1  0
 94 95  1  0
 94 93  1  0
M  ISO  4  13 100  25 100  54 101  55 101
M  END
>  <TORSDO>  (73) 
F 19

>  <SCORE>  (73) 
-13.268

>  <name>  (73) 
72

>  <ligand_id>  (73) 
72

>  <original_smiles>  (73) 
[H]c1c([H])c([H])c2c(c1[H])C([H])([H])C([H])([H])C([H])([H])C2([H])N([H])C(=O)C1([H])N(C(=O)C([H])(N([H])C(=O)C([H])(N([H])C([H])([H])[H])C([H])([H])[H])C(C([H])([H])[H])(C([H])([H])[H])C([H])([H])[H])C([H])([H])c2c([H])c(OC([H])([H])c3c([H])c(C([H])([H])[H])c(C([H])([H])[H])c(N([H])C([H])([H])C4([H])N(C(=O)N5C([H])([H])C([H])([H])C([H])([H])C([H])(n6nc(-c7c([H])c([H])c(Oc8c([H])c([H])c(F)c([H])c8F)c([H])c7[H])c(C(=O)N([H])[H])c6N([H])[H])C5([H])[H])C([H])([H])C([H])([H])C4([H])[H])c3C([H])([H])[H])c([H])c([H])c2C1([H])[H]

>  <smiles>  (73) 
[H]c1c([H])c([H])c2c(c1[H])C([H])([H])C([H])([H])C([H])([H])C2([H])N([H])C(=O)C1([H])N(C(=O)C([H])(N([H])C(=O)C([H])(N([H])C([H])([H])[H])C([H])([H])[H])C(C([H])([H])[H])(C([H])([H])[H])C([H])([H])[H])C([H])([H])c2c([H])c(OC([H])([H])c3c([H])c(C([H])([H])[H])c(C([H])([H])[H])c(N([H])C([H])([H])C4([H])N(C(=O)N5C([H])([H])C([H])([H])C([H])([H])C([H])(n6nc(-c7c([H])c([H])c(Oc8c([H])c([H])c(F)c([H])c8F)c([H])c7[H])c(C(=O)N([H])[H])c6N([H])[H])C5([H])[H])C([H])([H])C([H])([H])C4([H])[H])c3C([H])([H])[H])c([H])c([H])c2C1([H])[H]

$$$$
73:0:0
     RDKit          3D

 91100  0  0  1  0  0  0  0  0999 V2000
  -29.3140  -19.1060   21.3890 C   0  0  0  0  0  3  0  0  0  0  0  0
  -28.8890  -20.4650   21.5320 C   0  0  0  0  0  3  0  0  0  0  0  0
  -29.6080  -21.0000   19.2860 C   0  0  0  0  0  3  0  0  0  0  0  0
  -29.9020  -18.6840   20.1780 C   0  0  0  0  0  0  0  0  0  0  0  0
  -30.0160  -19.6380   19.1530 C   0  0  0  0  0  0  0  0  0  0  0  0
  -29.0400  -21.4530   20.5110 C   0  0  0  0  0  0  0  0  0  0  0  0
  -30.6820  -19.0320   17.9440 C   0  0  0  0  0  2  0  0  0  0  0  0
  -30.8310  -17.5260   18.2870 C   0  0  0  0  0  2  0  0  0  0  0  0
  -30.6290  -17.3520   19.8180 C   0  0  0  0  0  3  0  0  0  0  0  0
  -30.8520  -14.8210   19.9930 C   0  0  0  0  0  0  0  0  0  0  0  0
  -30.5520  -12.5850   18.9670 C   0  0  0  0  0  2  0  0  0  0  0  0
  -29.5660  -12.7160   17.7880 C   0  0  0  0  0  2  0  0  0  0  0  0
  -28.1150  -12.5530   18.2790 C   0  0  0  0  0  2  0  0  0  0  0  0
  -27.8060  -13.4120   19.5350 C   0  0  0  0  0  3  0  0  0  0  0  0
  -28.9160  -13.2960   20.6040 C   0  0  0  0  0  2  0  0  0  0  0  0
  -30.1890  -13.6230   19.9540 N   0  0  0  0  0  0  0  0  0  0  0  0
  -32.0270  -14.8940   19.6280 O   0  0  0  0  0  0  0  0  0  0  0  0
  -30.1250  -15.9740   20.1820 N   0  0  0  0  0  0  0  0  0  0  0  0
  -29.1540  -15.8830   20.4370 H   0  0  0  0  0  0  0  0  0  0  0  0
  -25.4510  -13.9850   20.3780 C   0  0  0  0  0  0  0  0  0  0  0  0
  -24.4060  -13.2020   20.7890 C   0  0  0  0  0  0  0  0  0  0  0  0
  -24.8740  -11.8540   20.7260 C   0  0  0  0  0  0  0  0  0  0  0  0
  -26.4880  -13.1140   20.0860 N   0  0  0  0  0  0  0  0  0  0  0  0
  -26.1500  -11.8260   20.3580 N   0  0  0  0  0  0  0  0  0  0  0  0
  -24.1650  -10.5860   20.9400 C   0  0  0  0  0  0  0  0  0  0  0  0
  -24.6090   -9.6410   21.8930 C   0  0  0  0  0  3  0  0  0  0  0  0
  -23.8980   -8.4380   22.0920 C   0  0  0  0  0  3  0  0  0  0  0  0
  -22.7290   -8.1710   21.3410 C   0  0  0  0  0  0  0  0  0  0  0  0
  -22.3040   -9.1030   20.3780 C   0  0  0  0  0  3  0  0  0  0  0  0
  -23.0160  -10.2980   20.1760 C   0  0  0  0  0  3  0  0  0  0  0  0
  -21.9900   -7.0170   21.4490 O   0  0  0  0  0  0  0  0  0  0  0  0
  -21.9140   -6.3190   22.6260 C   0  0  0  0  0  0  0  0  0  0  0  0
  -21.3890   -6.8960   23.8030 C   0  0  0  0  0  3  0  0  0  0  0  0
  -21.2670   -6.1200   24.9740 C   0  0  0  0  0  3  0  0  0  0  0  0
  -21.6570   -4.7680   24.9670 C   0  0  0  0  0  0  0  0  0  0  0  0
  -22.1740   -4.1900   23.7940 C   0  0  0  0  0  3  0  0  0  0  0  0
  -22.2990   -4.9620   22.6270 C   0  0  0  0  0  0  0  0  0  0  0  0
  -22.7780   -4.3950   21.4940 F   0  0  0  0  0  0  0  0  0  0  0  0
  -21.5320   -4.0190   26.0880 F   0  0  0  0  0  0  0  0  0  0  0  0
  -23.0210  -13.6690   21.1270 C   0  0  0  0  0  0  0  0  0  0  0  0
  -22.3350  -12.9600   22.0160 N   0  0  0  0  0  0  0  0  0  0  0  0
  -22.5560  -14.6970   20.6360 O   0  0  0  0  0  0  0  0  0  0  0  0
  -22.7250  -12.1280   22.4320 H   0  0  0  0  0  0  0  0  0  0  0  0
  -21.4060  -13.2530   22.2830 H   0  0  0  0  0  0  0  0  0  0  0  0
  -25.6000  -15.3570   20.2010 N   0  0  0  0  0  0  0  0  0  0  0  0
  -24.8360  -16.0080   20.3440 H   0  0  0  0  0  0  0  0  0  0  0  0
  -26.4300  -15.8000   19.8270 H   0  0  0  0  0  0  0  0  0  0  0  0
  -28.6210  -22.7700   20.7980 O   0  0  0  0  0  0  0  0  0  0  0  0
  -28.8360  -23.9360   19.9330 C   0  0  0  0  0  2  0  0  0  0  0  0
  -28.2740  -25.2810   20.5910 C   0  0  0  0  0  2  0  0  0  0  0  0
  -28.4430  -26.6130   19.9600 O   0  0  0  0  0  0  0  0  0  0  0  0
  -24.6420  -31.8400   23.1850 C   0  0  0  0  0  0  0  0  0  0  0  0
  -27.3230  -27.4530   19.9690 C   0  0  0  0  0  0  0  0  0  0  0  0
  -23.4590  -30.4840   21.4930 C   0  0  0  0  0  3  0  0  0  0  0  0
  -24.9350  -29.0130   20.0100 C   0  0  0  0  0  0  0  0  0  0  0  0
  -25.9910  -30.8570   21.3200 C   0  0  0  0  0  2  0  0  0  0  0  0
  -26.0950  -29.5050   20.6240 C   0  0  0  0  0  0  0  0  0  0  0  0
  -27.2960  -28.7380   20.5920 C   0  0  0  0  0  3  0  0  0  0  0  0
  -26.1460  -27.0110   19.3320 C   0  0  0  0  0  3  0  0  0  0  0  0
  -24.9620  -27.7710   19.3550 C   0  0  0  0  0  3  0  0  0  0  0  0
  -23.6820  -29.8600   20.0900 C   0  0  0  0  0  2  0  0  0  0  0  0
  -24.7170  -31.0770   22.0560 N   0  0  0  0  0  0  0  0  0  0  0  0
  -23.5550  -32.0780   23.7320 O   0  0  0  0  0  0  0  0  0  0  0  0
  -22.8150  -29.4220   22.4170 C   0  0  0  0  0  0  0  0  0  0  0  0
  -21.4960  -29.2160   22.2730 N   0  0  0  0  0  0  0  0  0  0  0  0
  -23.5040  -28.7870   23.2200 O   0  0  0  0  0  0  0  0  0  0  0  0
  -20.9990  -29.7780   21.5960 H   0  0  0  0  0  0  0  0  0  0  0  0
  -18.1420  -27.9320   22.7160 C   0  0  0  0  0  0  0  0  0  0  0  0
  -20.6930  -28.2360   23.0080 C   0  0  0  0  0  3  0  0  0  0  0  0
  -20.8280  -26.8270   22.3840 C   0  0  0  0  0  2  0  0  0  0  0  0
  -19.7390  -26.5160   21.3540 C   0  0  0  0  0  2  0  0  0  0  0  0
  -18.3520  -26.6120   21.9950 C   0  0  0  0  0  2  0  0  0  0  0  0
  -19.2430  -28.7030   23.1780 C   0  0  0  0  0  0  0  0  0  0  0  0
  -18.9940  -29.9400   23.8110 C   0  0  0  0  0  3  0  0  0  0  0  0
  -17.6780  -30.4070   23.9870 C   0  0  0  0  0  3  0  0  0  0  0  0
  -16.5920  -29.6340   23.5440 C   0  0  0  0  0  3  0  0  0  0  0  0
  -16.8250  -28.3980   22.9150 C   0  0  0  0  0  3  0  0  0  0  0  0
  -25.9170  -32.4710   23.8290 C   0  0  0  0  0  3  0  0  0  0  0  0
  -26.4260  -31.6820   25.0960 C   0  0  1  0  0  0  0  0  0  0  0  0
  -25.3240  -31.4120   26.1480 C   0  0  0  0  0  1  0  0  0  0  0  0
  -27.0270  -30.3160   24.6880 C   0  0  0  0  0  1  0  0  0  0  0  0
  -27.5640  -32.4730   25.7830 C   0  0  0  0  0  1  0  0  0  0  0  0
  -25.5960  -33.8610   24.1800 N   0  0  0  0  0  0  0  0  0  0  0  0
  -25.9320  -34.9300   23.4450 C   0  0  0  0  0  0  0  0  0  0  0  0
  -26.6150  -34.8480   22.4200 O   0  0  0  0  0  0  0  0  0  0  0  0
  -24.9930  -33.9970   24.9780 H   0  0  0  0  0  0  0  0  0  0  0  0
  -24.2100  -36.7270   23.0880 C   0  0  0  0  0  1  0  0  0  0  0  0
  -25.4310  -36.3080   23.9210 C   0  0  0  0  0  3  0  0  0  0  0  0
  -27.5360  -37.1830   24.8300 C   0  0  0  0  0  1  0  0  0  0  0  0
  -26.4620  -37.3650   23.8560 N   0  0  0  0  0  0  0  0  0  0  0  0
  -26.0480  -38.2800   24.0090 H   0  0  0  0  0  0  0  0  0  0  0  0
  1  2  1  0
  3  6  1  0
  4  1  2  0
  5  3  2  0
  5  4  1  0
  6 48  1  0
  6  2  2  0
  7  8  1  0
  7  5  1  0
  8  9  1  0
  9  4  1  0
  9 18  1  0
 10 18  1  0
 11 16  1  0
 12 13  1  0
 12 11  1  0
 14 13  1  0
 14 23  1  0
 14 15  1  0
 16 10  1  0
 16 15  1  0
 17 10  2  0
 18 19  1  0
 20 21  2  0
 21 40  1  0
 22 21  1  0
 22 25  1  0
 23 24  1  0
 23 20  1  0
 24 22  2  0
 25 26  1  0
 26 27  2  0
 28 31  1  0
 28 27  1  0
 29 28  2  0
 30 29  1  0
 30 25  2  0
 31 32  1  0
 32 37  2  0
 32 33  1  0
 33 34  2  0
 35 34  1  0
 35 39  1  0
 36 35  2  0
 37 36  1  0
 38 37  1  0
 40 41  1  0
 41 44  1  0
 41 43  1  0
 42 40  2  0
 45 46  1  0
 45 20  1  0
 47 45  1  0
 49 50  1  0
 49 48  1  0
 51 53  1  0
 51 50  1  0
 52 63  2  0
 53 58  1  0
 54 62  1  0
 54 64  1  0
 55 61  1  0
 55 57  1  0
 56 62  1  0
 57 56  1  0
 58 57  2  0
 59 60  1  0
 59 53  2  0
 60 55  2  0
 61 54  1  0
 62 52  1  0
 64 66  2  0
 65 64  1  0
 67 65  1  0
 68 77  2  0
 68 73  1  0
 69 65  1  0
 69 73  1  0
 70 69  1  0
 71 72  1  0
 71 70  1  0
 72 68  1  0
 73 74  2  0
 74 75  1  0
 76 75  2  0
 77 76  1  0
 78 52  1  0
 78 83  1  0
 78 79  1  0
 79 82  1  1
 79 80  1  0
 81 79  1  0
 83 86  1  0
 84 88  1  0
 84 83  1  0
 85 84  2  0
 88 87  1  0
 90 88  1  0
 90 91  1  0
 90 89  1  0
M  ISO  4  10 100  18 100  50 101  51 101
M  END
>  <TORSDO>  (74) 
F 19

>  <SCORE>  (74) 
-13.104

>  <name>  (74) 
73

>  <ligand_id>  (74) 
73

>  <original_smiles>  (74) 
[H]c1c([H])c([H])c2c(c1[H])C([H])([H])C([H])([H])C([H])([H])C2([H])N([H])C(=O)C1([H])N(C(=O)C([H])(N([H])C(=O)C([H])(N([H])C([H])([H])[H])C([H])([H])[H])C(C([H])([H])[H])(C([H])([H])[H])C([H])([H])[H])C([H])([H])c2c([H])c(OC([H])([H])C([H])([H])Oc3c([H])c([H])c4c(c3[H])C([H])([H])C([H])([H])C4([H])N([H])C(=O)N3C([H])([H])C([H])([H])C([H])([H])C([H])(n4nc(-c5c([H])c([H])c(Oc6c([H])c([H])c(F)c([H])c6F)c([H])c5[H])c(C(=O)N([H])[H])c4N([H])[H])C3([H])[H])c([H])c([H])c2C1([H])[H]

>  <smiles>  (74) 
[H]c1c([H])c([H])c2c(c1[H])C([H])([H])C([H])([H])C([H])([H])C2([H])N([H])C(=O)C1([H])N(C(=O)C([H])(N([H])C(=O)C([H])(N([H])C([H])([H])[H])C([H])([H])[H])C(C([H])([H])[H])(C([H])([H])[H])C([H])([H])[H])C([H])([H])c2c([H])c(OC([H])([H])C([H])([H])Oc3c([H])c([H])c4c(c3[H])C([H])([H])C([H])([H])C4([H])N([H])C(=O)N3C([H])([H])C([H])([H])C([H])([H])C([H])(n4nc(-c5c([H])c([H])c(Oc6c([H])c([H])c(F)c([H])c6F)c([H])c5[H])c(C(=O)N([H])[H])c4N([H])[H])C3([H])[H])c([H])c([H])c2C1([H])[H]

$$$$
74:0:0
     RDKit          3D

 94102  0  0  1  0  0  0  0  0999 V2000
  -29.5960  -23.3260   21.6100 C   0  0  0  0  0  3  0  0  0  0  0  0
  -28.6830  -23.8170   20.6470 C   0  0  0  0  0  0  0  0  0  0  0  0
  -30.0680  -21.9840   21.6110 C   0  0  0  0  0  0  0  0  0  0  0  0
  -28.3010  -22.8950   19.6230 C   0  0  0  0  0  0  0  0  0  0  0  0
  -28.7390  -21.5170   19.6390 C   0  0  0  0  0  0  0  0  0  0  0  0
  -29.6280  -21.0310   20.6490 C   0  0  0  0  0  0  0  0  0  0  0  0
  -31.0500  -21.5810   22.7020 C   0  0  0  0  0  1  0  0  0  0  0  0
  -27.3920  -23.3910   18.5060 C   0  0  0  0  0  1  0  0  0  0  0  0
  -28.2610  -20.5410   18.5670 C   0  0  0  0  0  1  0  0  0  0  0  0
  -30.1730  -19.7020   20.7280 N   0  0  0  0  0  0  0  0  0  0  0  0
  -30.9410  -19.6350   21.3880 H   0  0  0  0  0  0  0  0  0  0  0  0
  -29.5230  -18.3740   20.5130 C   0  0  0  0  0  2  0  0  0  0  0  0
  -30.8680  -17.2630   22.4060 C   0  0  0  0  0  1  0  0  0  0  0  0
  -30.4420  -17.1410   20.9330 C   0  0  0  0  0  3  0  0  0  0  0  0
  -30.5980  -14.6350   20.3610 C   0  0  0  0  0  0  0  0  0  0  0  0
  -30.3110  -12.4160   19.2810 C   0  0  0  0  0  2  0  0  0  0  0  0
  -29.3630  -12.5490   18.0710 C   0  0  0  0  0  2  0  0  0  0  0  0
  -27.8950  -12.4000   18.5130 C   0  0  0  0  0  2  0  0  0  0  0  0
  -27.5500  -13.2690   19.7530 C   0  0  0  0  0  3  0  0  0  0  0  0
  -28.6170  -13.1310   20.8610 C   0  0  0  0  0  2  0  0  0  0  0  0
  -29.9210  -13.4490   20.2620 N   0  0  0  0  0  0  0  0  0  0  0  0
  -31.7680  -14.7290   19.9850 O   0  0  0  0  0  0  0  0  0  0  0  0
  -29.8930  -15.7530   20.7220 N   0  0  0  0  0  0  0  0  0  0  0  0
  -28.9150  -15.6170   20.9250 H   0  0  0  0  0  0  0  0  0  0  0  0
  -25.1630  -13.8690   20.4830 C   0  0  0  0  0  0  0  0  0  0  0  0
  -24.0980  -13.0970   20.8600 C   0  0  0  0  0  0  0  0  0  0  0  0
  -24.5590  -11.7460   20.8330 C   0  0  0  0  0  0  0  0  0  0  0  0
  -26.2060  -12.9870   20.2480 N   0  0  0  0  0  0  0  0  0  0  0  0
  -25.8490  -11.7060   20.5200 N   0  0  0  0  0  0  0  0  0  0  0  0
  -23.8320  -10.4850   21.0290 C   0  0  0  0  0  0  0  0  0  0  0  0
  -24.2710   -9.5150   21.9580 C   0  0  0  0  0  3  0  0  0  0  0  0
  -23.5450   -8.3190   22.1440 C   0  0  0  0  0  3  0  0  0  0  0  0
  -22.3640   -8.0840   21.3990 C   0  0  0  0  0  0  0  0  0  0  0  0
  -21.9440   -9.0410   20.4590 C   0  0  0  0  0  3  0  0  0  0  0  0
  -22.6710  -10.2280   20.2720 C   0  0  0  0  0  3  0  0  0  0  0  0
  -21.6090   -6.9400   21.4940 O   0  0  0  0  0  0  0  0  0  0  0  0
  -21.5780   -6.1910   22.6440 C   0  0  0  0  0  0  0  0  0  0  0  0
  -21.1700   -6.7390   23.8790 C   0  0  0  0  0  3  0  0  0  0  0  0
  -21.0860   -5.9170   25.0200 C   0  0  0  0  0  3  0  0  0  0  0  0
  -21.4000   -4.5470   24.9270 C   0  0  0  0  0  0  0  0  0  0  0  0
  -21.8000   -3.9990   23.6960 C   0  0  0  0  0  3  0  0  0  0  0  0
  -21.8860   -4.8190   22.5570 C   0  0  0  0  0  0  0  0  0  0  0  0
  -22.2520   -4.2800   21.3690 F   0  0  0  0  0  0  0  0  0  0  0  0
  -21.3110   -3.7560   26.0210 F   0  0  0  0  0  0  0  0  0  0  0  0
  -22.7020  -13.5760   21.1350 C   0  0  0  0  0  0  0  0  0  0  0  0
  -21.9760  -12.8820   22.0040 N   0  0  0  0  0  0  0  0  0  0  0  0
  -22.2640  -14.6020   20.6140 O   0  0  0  0  0  0  0  0  0  0  0  0
  -22.3440  -12.0520   22.4470 H   0  0  0  0  0  0  0  0  0  0  0  0
  -21.0390  -13.1840   22.2310 H   0  0  0  0  0  0  0  0  0  0  0  0
  -25.3270  -15.2380   20.2980 N   0  0  0  0  0  0  0  0  0  0  0  0
  -24.5590  -15.8920   20.4070 H   0  0  0  0  0  0  0  0  0  0  0  0
  -26.1690  -15.6730   19.9460 H   0  0  0  0  0  0  0  0  0  0  0  0
  -27.9490  -25.1870   20.9210 C   0  0  0  0  0  2  0  0  0  0  0  0
  -28.2810  -26.4540   20.2320 O   0  0  0  0  0  0  0  0  0  0  0  0
  -24.5970  -31.8930   23.2410 C   0  0  0  0  0  0  0  0  0  0  0  0
  -27.2040  -27.3500   20.1800 C   0  0  0  0  0  0  0  0  0  0  0  0
  -23.3920  -30.4940   21.6040 C   0  0  0  0  0  3  0  0  0  0  0  0
  -24.8430  -28.9550   20.1700 C   0  0  0  0  0  0  0  0  0  0  0  0
  -25.9310  -30.8190   21.4160 C   0  0  0  0  0  2  0  0  0  0  0  0
  -26.0140  -29.4440   20.7680 C   0  0  0  0  0  0  0  0  0  0  0  0
  -27.2020  -28.6520   20.7660 C   0  0  0  0  0  3  0  0  0  0  0  0
  -26.0180  -26.9240   19.5420 C   0  0  0  0  0  3  0  0  0  0  0  0
  -24.8470  -27.7000   19.5460 C   0  0  0  0  0  3  0  0  0  0  0  0
  -23.6040  -29.8230   20.2220 C   0  0  0  0  0  2  0  0  0  0  0  0
  -24.6590  -31.0850   22.1440 N   0  0  0  0  0  0  0  0  0  0  0  0
  -23.5140  -32.1700   23.7760 O   0  0  0  0  0  0  0  0  0  0  0  0
  -22.7340  -29.4730   22.5630 C   0  0  0  0  0  0  0  0  0  0  0  0
  -21.4070  -29.2980   22.4410 N   0  0  0  0  0  0  0  0  0  0  0  0
  -23.4150  -28.8440   23.3750 O   0  0  0  0  0  0  0  0  0  0  0  0
  -20.9160  -29.8590   21.7580 H   0  0  0  0  0  0  0  0  0  0  0  0
  -18.0280  -28.1110   22.9540 C   0  0  0  0  0  0  0  0  0  0  0  0
  -20.5890  -28.3620   23.2130 C   0  0  0  0  0  3  0  0  0  0  0  0
  -20.6830  -26.9310   22.6340 C   0  0  0  0  0  2  0  0  0  0  0  0
  -19.5750  -26.6140   21.6250 C   0  0  0  0  0  2  0  0  0  0  0  0
  -18.1970  -26.7630   22.2750 C   0  0  0  0  0  2  0  0  0  0  0  0
  -19.1520  -28.8690   23.3800 C   0  0  0  0  0  0  0  0  0  0  0  0
  -18.9410  -30.1320   23.9750 C   0  0  0  0  0  3  0  0  0  0  0  0
  -17.6380  -30.6380   24.1470 C   0  0  0  0  0  3  0  0  0  0  0  0
  -16.5290  -29.8780   23.7390 C   0  0  0  0  0  3  0  0  0  0  0  0
  -16.7250  -28.6170   23.1480 C   0  0  0  0  0  3  0  0  0  0  0  0
  -25.8800  -32.5270   23.8600 C   0  0  0  0  0  3  0  0  0  0  0  0
  -26.3950  -31.7610   25.1410 C   0  0  1  0  0  0  0  0  0  0  0  0
  -25.2990  -31.5290   26.2080 C   0  0  0  0  0  1  0  0  0  0  0  0
  -26.9770  -30.3810   24.7560 C   0  0  0  0  0  1  0  0  0  0  0  0
  -27.5450  -32.5570   25.7990 C   0  0  0  0  0  1  0  0  0  0  0  0
  -25.5730  -33.9270   24.1820 N   0  0  0  0  0  0  0  0  0  0  0  0
  -25.9110  -34.9750   23.4210 C   0  0  0  0  0  0  0  0  0  0  0  0
  -26.5840  -34.8660   22.3930 O   0  0  0  0  0  0  0  0  0  0  0  0
  -24.9740  -34.0850   24.9800 H   0  0  0  0  0  0  0  0  0  0  0  0
  -24.1920  -36.7750   23.0490 C   0  0  0  0  0  1  0  0  0  0  0  0
  -25.4260  -36.3680   23.8710 C   0  0  0  0  0  3  0  0  0  0  0  0
  -27.5580  -37.2440   24.7150 C   0  0  0  0  0  1  0  0  0  0  0  0
  -26.4630  -37.4160   23.7640 N   0  0  0  0  0  0  0  0  0  0  0  0
  -26.0610  -38.3370   23.9070 H   0  0  0  0  0  0  0  0  0  0  0  0
  1  3  1  0
  2 53  1  0
  2  1  2  0
  3  7  1  0
  4  5  2  0
  4  2  1  0
  5  6  1  0
  6 10  1  0
  6  3  2  0
  8  4  1  0
  9  5  1  0
 10 11  1  0
 12 10  1  0
 12 14  1  0
 14 13  1  0
 15 23  1  0
 16 21  1  0
 17 18  1  0
 17 16  1  0
 19 18  1  0
 19 28  1  0
 19 20  1  0
 21 15  1  0
 21 20  1  0
 22 15  2  0
 23 24  1  0
 23 14  1  0
 25 26  2  0
 26 45  1  0
 27 26  1  0
 27 30  1  0
 28 25  1  0
 28 29  1  0
 29 27  2  0
 30 31  1  0
 31 32  2  0
 33 36  1  0
 33 32  1  0
 34 33  2  0
 35 34  1  0
 35 30  2  0
 36 37  1  0
 37 38  1  0
 38 39  2  0
 40 39  1  0
 40 44  1  0
 41 40  2  0
 42 37  2  0
 42 41  1  0
 43 42  1  0
 45 46  1  0
 46 49  1  0
 46 48  1  0
 47 45  2  0
 50 51  1  0
 50 25  1  0
 52 50  1  0
 54 53  1  0
 55 66  2  0
 56 54  1  0
 56 61  1  0
 57 65  1  0
 57 67  1  0
 58 64  1  0
 58 60  1  0
 59 65  1  0
 60 59  1  0
 61 60  2  0
 62 63  1  0
 62 56  2  0
 63 58  2  0
 64 57  1  0
 65 55  1  0
 67 69  2  0
 68 67  1  0
 70 68  1  0
 71 80  2  0
 71 76  1  0
 72 68  1  0
 72 76  1  0
 73 72  1  0
 74 75  1  0
 74 73  1  0
 75 71  1  0
 76 77  2  0
 77 78  1  0
 79 78  2  0
 80 79  1  0
 81 55  1  0
 81 86  1  0
 81 82  1  0
 82 85  1  1
 82 83  1  0
 84 82  1  0
 86 89  1  0
 87 91  1  0
 87 86  1  0
 88 87  2  0
 91 90  1  0
 93 91  1  0
 93 94  1  0
 93 92  1  0
M  ISO  4  15 100  23 100  53 101  54 101
M  END
>  <TORSDO>  (75) 
F 20

>  <SCORE>  (75) 
-14.165

>  <name>  (75) 
74

>  <ligand_id>  (75) 
74

>  <original_smiles>  (75) 
[H]c1c([H])c([H])c2c(c1[H])C([H])([H])C([H])([H])C([H])([H])C2([H])N([H])C(=O)C1([H])N(C(=O)C([H])(N([H])C(=O)C([H])(N([H])C([H])([H])[H])C([H])([H])[H])C(C([H])([H])[H])(C([H])([H])[H])C([H])([H])[H])C([H])([H])c2c([H])c(OC([H])([H])c3c([H])c(C([H])([H])[H])c(N([H])C([H])([H])C([H])(N([H])C(=O)N4C([H])([H])C([H])([H])C([H])([H])C([H])(n5nc(-c6c([H])c([H])c(Oc7c([H])c([H])c(F)c([H])c7F)c([H])c6[H])c(C(=O)N([H])[H])c5N([H])[H])C4([H])[H])C([H])([H])[H])c(C([H])([H])[H])c3C([H])([H])[H])c([H])c([H])c2C1([H])[H]

>  <smiles>  (75) 
[H]c1c([H])c([H])c2c(c1[H])C([H])([H])C([H])([H])C([H])([H])C2([H])N([H])C(=O)C1([H])N(C(=O)C([H])(N([H])C(=O)C([H])(N([H])C([H])([H])[H])C([H])([H])[H])C(C([H])([H])[H])(C([H])([H])[H])C([H])([H])[H])C([H])([H])c2c([H])c(OC([H])([H])c3c([H])c(C([H])([H])[H])c(N([H])C([H])([H])C([H])(N([H])C(=O)N4C([H])([H])C([H])([H])C([H])([H])C([H])(n5nc(-c6c([H])c([H])c(Oc7c([H])c([H])c(F)c([H])c7F)c([H])c6[H])c(C(=O)N([H])[H])c5N([H])[H])C4([H])[H])C([H])([H])[H])c(C([H])([H])[H])c3C([H])([H])[H])c([H])c([H])c2C1([H])[H]

$$$$
75:0:0
     RDKit          3D

 94101  0  0  1  0  0  0  0  0999 V2000
  -28.3070  -13.1150   20.8280 C   0  0  0  0  0  2  0  0  0  0  0  0
  -28.2590  -15.8910   20.1280 C   0  0  0  0  0  3  0  0  0  0  0  0
  -29.1210  -14.4670   18.0320 C   0  0  0  0  0  1  0  0  0  0  0  0
  -28.2440  -14.7340   21.1620 C   0  0  0  0  0  3  0  0  0  0  0  0
  -28.8670  -12.5830   19.3030 C   0  0  0  0  0  3  0  0  0  0  0  0
  -28.6890  -16.0170   18.6560 C   0  0  0  0  0  0  0  0  0  0  0  0
  -29.1230  -11.0410   19.2960 C   0  0  0  0  0  1  0  0  0  0  0  0
  -29.6430  -16.6300   22.9310 C   0  0  0  0  0  2  0  0  0  0  0  0
  -31.1830  -16.7140   22.7140 C   0  0  0  0  0  2  0  0  0  0  0  0
  -29.4620  -15.2680   22.1890 C   0  0  0  0  0  3  0  0  0  0  0  0
  -31.1550  -15.4230   21.9020 C   0  0  0  0  0  3  0  0  0  0  0  0
  -31.9050  -14.4200   19.3260 C   0  0  1  0  0  0  0  0  0  0  0  0
  -30.9360  -12.0730   18.0490 C   0  0  0  0  0  3  0  0  0  0  0  0
  -29.3650  -11.6750   17.1790 C   0  0  0  0  0  3  0  0  0  0  0  0
  -27.6400  -12.2420   17.5210 C   0  0  0  0  0  2  0  0  0  0  0  0
  -27.2650  -13.5380   18.8920 C   0  0  0  0  0  3  0  0  0  0  0  0
  -30.2180  -13.8400   20.0950 C   0  0  0  0  0  2  0  0  0  0  0  0
  -31.2560  -13.1880   19.2840 N   0  0  0  0  0  0  0  0  0  0  0  0
  -32.4660  -14.6750   18.2760 O   0  0  0  0  0  1  0  0  0  0  0  0
  -31.9450  -15.3410   20.4880 N   0  0  0  0  0  0  0  0  0  0  0  0
  -32.5070  -16.1560   20.3210 H   0  0  0  0  0  0  0  0  0  0  0  0
  -25.3940  -13.6810   20.2900 C   0  0  0  0  0  0  0  0  0  0  0  0
  -24.4870  -12.8460   20.8260 C   0  0  0  0  0  0  0  0  0  0  0  0
  -24.8220  -11.4960   20.4730 C   0  0  0  0  0  0  0  0  0  0  0  0
  -26.1630  -12.8840   19.5760 N   0  0  0  0  0  0  0  0  0  0  0  0
  -25.8880  -11.5270   19.6920 N   0  0  0  0  0  0  0  0  0  0  0  0
  -24.1080  -10.2500   20.7720 C   0  0  0  0  0  0  0  0  0  0  0  0
  -24.5700   -9.2880   21.7090 C   0  0  0  0  0  3  0  0  0  0  0  0
  -23.7610   -8.1640   22.0300 C   0  0  0  0  0  3  0  0  0  0  0  0
  -22.4900   -7.9950   21.4210 C   0  0  0  0  0  0  0  0  0  0  0  0
  -22.0640   -8.9340   20.4640 C   0  0  0  0  0  3  0  0  0  0  0  0
  -22.8550  -10.0560   20.1550 C   0  0  0  0  0  3  0  0  0  0  0  0
  -21.6420   -6.9370   21.6400 O   0  0  0  0  0  0  0  0  0  0  0  0
  -21.6600   -6.2280   22.8040 C   0  0  0  0  0  0  0  0  0  0  0  0
  -21.3460   -6.8230   24.0470 C   0  0  0  0  0  3  0  0  0  0  0  0
  -21.3030   -6.0310   25.2090 C   0  0  0  0  0  3  0  0  0  0  0  0
  -21.5760   -4.6570   25.1350 C   0  0  0  0  0  0  0  0  0  0  0  0
  -21.8920   -4.0610   23.9010 C   0  0  0  0  0  3  0  0  0  0  0  0
  -21.9330   -4.8450   22.7350 C   0  0  0  0  0  0  0  0  0  0  0  0
  -22.2070   -4.2690   21.5420 F   0  0  0  0  0  0  0  0  0  0  0  0
  -21.5310   -3.8950   26.2520 F   0  0  0  0  0  0  0  0  0  0  0  0
  -23.2950  -13.3590   21.5220 C   0  0  0  0  0  0  0  0  0  0  0  0
  -22.8850  -12.6570   22.5550 N   0  0  0  0  0  0  0  0  0  0  0  0
  -22.8010  -14.4300   21.1730 O   0  0  0  0  0  0  0  0  0  0  0  0
  -23.3400  -11.7990   22.8200 H   0  0  0  0  0  0  0  0  0  0  0  0
  -22.0960  -12.9710   23.1070 H   0  0  0  0  0  0  0  0  0  0  0  0
  -25.6100  -15.0470   20.3370 N   0  0  0  0  0  0  0  0  0  0  0  0
  -24.9950  -15.6590   20.8630 H   0  0  0  0  0  0  0  0  0  0  0  0
  -26.4850  -15.4810   20.0410 H   0  0  0  0  0  0  0  0  0  0  0  0
  -28.6590  -17.5790   18.0510 O   0  0  0  0  0  0  0  0  0  0  0  0
  -28.0290  -19.2930   18.3050 C   0  0  0  0  0  1  0  0  0  0  0  0
  -28.3620  -21.2800   17.9920 C   0  0  0  0  0 15  0  0  0  0  0  0
  -27.6820  -23.1990   18.2450 C   0  0  0  0  0  1  0  0  0  0  0  0
  -28.0940  -24.9770   18.4480 O   0  0  0  0  0  0  0  0  0  0  0  0
  -25.2420  -30.7480   23.0850 C   0  0  0  0  0  0  0  0  0  0  0  0
  -27.3150  -26.3300   18.7910 C   0  0  0  0  0  0  0  0  0  0  0  0
  -23.9740  -29.9250   21.1520 C   0  0  0  0  0  3  0  0  0  0  0  0
  -25.2930  -28.5890   19.3330 C   0  0  0  0  0  0  0  0  0  0  0  0
  -26.5610  -29.8410   21.0490 C   0  0  0  0  0  2  0  0  0  0  0  0
  -26.5110  -28.6220   20.0270 C   0  0  0  0  0  0  0  0  0  0  0  0
  -27.5100  -27.5330   19.7300 C   0  0  0  0  0  3  0  0  0  0  0  0
  -26.1000  -26.5600   18.1070 C   0  0  0  0  0  3  0  0  0  0  0  0
  -25.1420  -27.5900   18.3530 C   0  0  0  0  0  3  0  0  0  0  0  0
  -24.1810  -29.6020   19.6420 C   0  0  0  0  0  2  0  0  0  0  0  0
  -25.2880  -30.1930   21.8200 N   0  0  0  0  0  0  0  0  0  0  0  0
  -24.1630  -30.9880   23.6600 O   0  0  0  0  0  0  0  0  0  0  0  0
  -23.1700  -28.7860   21.8370 C   0  0  0  0  0  0  0  0  0  0  0  0
  -21.8260  -28.8090   21.7430 N   0  0  0  0  0  0  0  0  0  0  0  0
  -23.7690  -27.8850   22.4280 O   0  0  0  0  0  0  0  0  0  0  0  0
  -21.3940  -29.5850   21.2600 H   0  0  0  0  0  0  0  0  0  0  0  0
  -18.3370  -27.8370   22.0810 C   0  0  0  0  0  0  0  0  0  0  0  0
  -20.9190  -27.7720   22.2560 C   0  0  0  0  0  3  0  0  0  0  0  0
  -20.8450  -26.5710   21.2830 C   0  0  0  0  0  2  0  0  0  0  0  0
  -19.6880  -26.6740   20.2850 C   0  0  0  0  0  2  0  0  0  0  0  0
  -18.3490  -26.7470   21.0230 C   0  0  0  0  0  2  0  0  0  0  0  0
  -19.5430  -28.3310   22.6480 C   0  0  0  0  0  0  0  0  0  0  0  0
  -19.4740  -29.3640   23.6080 C   0  0  0  0  0  3  0  0  0  0  0  0
  -18.2340  -29.9020   23.9990 C   0  0  0  0  0  3  0  0  0  0  0  0
  -17.0430  -29.4040   23.4420 C   0  0  0  0  0  3  0  0  0  0  0  0
  -17.0960  -28.3700   22.4890 C   0  0  0  0  0  3  0  0  0  0  0  0
  -26.5320  -31.1180   23.8710 C   0  0  0  0  0  3  0  0  0  0  0  0
  -26.3000  -32.3990   24.5710 N   0  0  0  0  0  0  0  0  0  0  0  0
  -26.8170  -33.5840   24.2150 C   0  0  0  0  0  0  0  0  0  0  0  0
  -27.5950  -33.7070   23.2670 O   0  0  0  0  0  0  0  0  0  0  0  0
  -25.6240  -32.3820   25.3210 H   0  0  0  0  0  0  0  0  0  0  0  0
  -25.3940  -35.6670   24.2510 C   0  0  0  0  0  1  0  0  0  0  0  0
  -26.4140  -34.8290   25.0390 C   0  0  0  0  0  3  0  0  0  0  0  0
  -28.4430  -35.0630   26.4050 C   0  0  0  0  0  1  0  0  0  0  0  0
  -27.5610  -35.6830   25.4220 N   0  0  0  0  0  0  0  0  0  0  0  0
  -27.2370  -36.5700   25.8010 H   0  0  0  0  0  0  0  0  0  0  0  0
  -26.9550  -30.0130   24.9210 C   0  0  1  0  0  0  0  0  0  0  0  0
  -25.8160  -29.6020   25.8850 C   0  0  0  0  0  1  0  0  0  0  0  0
  -27.4480  -28.7330   24.2150 C   0  0  0  0  0  1  0  0  0  0  0  0
  -28.1420  -30.5250   25.7710 C   0  0  0  0  0  1  0  0  0  0  0  0
  1  4  1  0
  3  6  1  0
  4  2  1  0
  4 10  1  0
  5  7  1  0
  5  1  1  0
  6  2  2  0
  9  8  1  0
 10  8  1  0
 11 10  1  0
 11  9  1  0
 12 19  1  6
 12 17  1  0
 12 20  1  0
 13 18  1  0
 14 15  1  0
 14 13  2  0
 16 15  1  0
 16  5  1  0
 16 25  1  0
 18 12  1  0
 18 17  1  0
 20 11  1  0
 21 20  1  0
 22 47  1  0
 22 23  2  0
 23 42  1  0
 24 27  1  0
 24 23  1  0
 25 26  1  0
 25 22  1  0
 26 24  2  0
 27 28  1  0
 28 29  2  0
 30 33  1  0
 30 29  1  0
 31 30  2  0
 32 31  1  0
 32 27  2  0
 33 34  1  0
 34 35  1  0
 35 36  2  0
 37 36  1  0
 37 41  1  0
 38 37  2  0
 39 34  2  0
 39 38  1  0
 40 39  1  0
 42 43  1  0
 43 45  1  0
 43 46  1  0
 44 42  2  0
 47 48  1  0
 49 47  1  0
 50 51  1  0
 50  6  1  0
 53 54  1  0
 54 56  1  0
 55 66  2  0
 56 61  1  0
 57 65  1  0
 57 67  1  0
 58 64  1  0
 58 60  1  0
 59 65  1  0
 60 59  1  0
 61 60  2  0
 62 63  1  0
 62 56  2  0
 63 58  2  0
 64 57  1  0
 65 55  1  0
 67 69  2  0
 68 67  1  0
 70 68  1  0
 71 80  2  0
 71 76  1  0
 72 68  1  0
 72 76  1  0
 73 72  1  0
 74 75  1  0
 74 73  1  0
 75 71  1  0
 76 77  2  0
 77 78  1  0
 79 78  2  0
 80 79  1  0
 81 55  1  0
 81 82  1  0
 81 91  1  0
 82 85  1  0
 83 82  1  0
 83 87  1  0
 84 83  2  0
 87 86  1  0
 87 89  1  0
 89 90  1  0
 89 88  1  0
 91 94  1  1
 91 92  1  0
 93 91  1  0
M  ISO  4  12 100  20 100  53 101  54 101
M  END
>  <TORSDO>  (76) 
F 21

>  <SCORE>  (76) 
-5.663

>  <name>  (76) 
75

>  <ligand_id>  (76) 
75

>  <original_smiles>  (76) 
[H]c1c([H])c([H])c2c(c1[H])C([H])([H])C([H])([H])C([H])([H])C2([H])N([H])C(=O)C1([H])N(C(=O)C([H])(N([H])C(=O)C([H])(N([H])C([H])([H])[H])C([H])([H])[H])C(C([H])([H])[H])(C([H])([H])[H])C([H])([H])[H])C([H])([H])c2c([H])c(OC([H])([H])C([H])([H])C([H])([H])Oc3c([H])c(C([H])([H])[H])c([H])c(C4([H])C([H])([H])C([H])([H])C4([H])N([H])C(=O)N4C([H])([H])C([H])([H])C([H])([H])C([H])(n5nc(-c6c([H])c([H])c(Oc7c([H])c([H])c(F)c([H])c7F)c([H])c6[H])c(C(=O)N([H])[H])c5N([H])[H])C4([H])[H])c3[H])c([H])c([H])c2C1([H])[H]

>  <smiles>  (76) 
[H]c1c([H])c([H])c2c(c1[H])C([H])([H])C([H])([H])C([H])([H])C2([H])N([H])C(=O)C1([H])N(C(=O)C([H])(N([H])C(=O)C([H])(N([H])C([H])([H])[H])C([H])([H])[H])C(C([H])([H])[H])(C([H])([H])[H])C([H])([H])[H])C([H])([H])c2c([H])c(OC([H])([H])C([H])([H])C([H])([H])Oc3c([H])c(C([H])([H])[H])c([H])c(C4([H])C([H])([H])C([H])([H])C4([H])N([H])C(=O)N4C([H])([H])C([H])([H])C([H])([H])C([H])(n5nc(-c6c([H])c([H])c(Oc7c([H])c([H])c(F)c([H])c7F)c([H])c6[H])c(C(=O)N([H])[H])c5N([H])[H])C4([H])[H])c3[H])c([H])c([H])c2C1([H])[H]

$$$$
76:0:0
     RDKit          3D

 98108  0  0  1  0  0  0  0  0999 V2000
  -30.1290  -22.2170   19.2370 C   0  0  0  0  0  0  0  0  0  0  0  0
  -29.7680  -23.5650   19.5880 C   0  0  0  0  0  0  0  0  0  0  0  0
  -29.2960  -21.1000   19.5860 C   0  0  0  0  0  0  0  0  0  0  0  0
  -28.0180  -21.4170   20.1330 C   0  0  0  0  0  0  0  0  0  0  0  0
  -27.6680  -22.7610   20.4970 C   0  0  0  0  0  0  0  0  0  0  0  0
  -28.5210  -23.8730   20.1990 C   0  0  0  0  0  0  0  0  0  0  0  0
  -30.7480  -24.7130   19.3440 C   0  0  0  0  0  1  0  0  0  0  0  0
  -26.9760  -20.3090   20.2740 C   0  0  0  0  0  1  0  0  0  0  0  0
  -26.3670  -23.0080   21.2640 C   0  0  0  0  0  1  0  0  0  0  0  0
  -31.6740  -22.7300   17.1530 C   0  0  0  0  0  2  0  0  0  0  0  0
  -31.4160  -21.2530   17.1200 C   0  0  0  0  0  2  0  0  0  0  0  0
  -31.4050  -21.9880   18.4510 C   0  0  0  0  0  3  0  0  0  0  0  0
  -29.7570  -19.6130   19.2630 C   0  0  0  0  0  2  0  0  0  0  0  0
  -31.7240  -18.0390   21.9560 C   0  0  0  0  0  2  0  0  0  0  0  0
  -30.5100  -18.9230   21.6660 C   0  0  0  0  0  2  0  0  0  0  0  0
  -32.1440  -17.5060   20.5940 C   0  0  0  0  0  2  0  0  0  0  0  0
  -29.8920  -18.4330   20.3350 C   0  0  0  0  0  3  0  0  0  0  0  0
  -30.8160  -17.2150   19.8740 C   0  0  0  0  0  3  0  0  0  0  0  0
  -31.0230  -14.6640   19.8150 C   0  0  0  0  0  0  0  0  0  0  0  0
  -30.6810  -12.3920   18.8870 C   0  0  0  0  0  2  0  0  0  0  0  0
  -29.6850  -12.4780   17.7110 C   0  0  0  0  0  2  0  0  0  0  0  0
  -28.2400  -12.3520   18.2270 C   0  0  0  0  0  2  0  0  0  0  0  0
  -27.9500  -13.2850   19.4340 C   0  0  0  0  0  3  0  0  0  0  0  0
  -29.0650  -13.2030   20.5020 C   0  0  0  0  0  2  0  0  0  0  0  0
  -30.3440  -13.4750   19.8350 N   0  0  0  0  0  0  0  0  0  0  0  0
  -32.1520  -14.7340   19.3240 O   0  0  0  0  0  0  0  0  0  0  0  0
  -30.3530  -15.8070   20.1630 N   0  0  0  0  0  0  0  0  0  0  0  0
  -29.4260  -15.6930   20.5430 H   0  0  0  0  0  0  0  0  0  0  0  0
  -25.6350  -13.9340   20.3370 C   0  0  0  0  0  0  0  0  0  0  0  0
  -24.5710  -13.1840   20.7570 C   0  0  0  0  0  0  0  0  0  0  0  0
  -24.9830  -11.8190   20.6510 C   0  0  0  0  0  0  0  0  0  0  0  0
  -26.6310  -13.0290   20.0030 N   0  0  0  0  0  0  0  0  0  0  0  0
  -26.2470  -11.7490   20.2530 N   0  0  0  0  0  0  0  0  0  0  0  0
  -24.2280  -10.5760   20.8530 C   0  0  0  0  0  0  0  0  0  0  0  0
  -24.6250   -9.6160   21.8110 C   0  0  0  0  0  3  0  0  0  0  0  0
  -23.8720   -8.4380   21.9990 C   0  0  0  0  0  3  0  0  0  0  0  0
  -22.7070   -8.2090   21.2280 C   0  0  0  0  0  0  0  0  0  0  0  0
  -22.3290   -9.1560   20.2590 C   0  0  0  0  0  3  0  0  0  0  0  0
  -23.0820  -10.3270   20.0690 C   0  0  0  0  0  3  0  0  0  0  0  0
  -21.9280   -7.0820   21.3230 O   0  0  0  0  0  0  0  0  0  0  0  0
  -21.7670   -6.4170   22.5120 C   0  0  0  0  0  0  0  0  0  0  0  0
  -21.2250   -7.0490   23.6520 C   0  0  0  0  0  3  0  0  0  0  0  0
  -21.0130   -6.3090   24.8330 C   0  0  0  0  0  3  0  0  0  0  0  0
  -21.3310   -4.9380   24.8730 C   0  0  0  0  0  0  0  0  0  0  0  0
  -21.8660   -4.3060   23.7370 C   0  0  0  0  0  3  0  0  0  0  0  0
  -22.0800   -5.0420   22.5590 C   0  0  0  0  0  0  0  0  0  0  0  0
  -22.5750   -4.4240   21.4600 F   0  0  0  0  0  0  0  0  0  0  0  0
  -21.1210   -4.2260   26.0040 F   0  0  0  0  0  0  0  0  0  0  0  0
  -23.2120  -13.6960   21.1380 C   0  0  0  0  0  0  0  0  0  0  0  0
  -22.5260  -13.0020   22.0390 N   0  0  0  0  0  0  0  0  0  0  0  0
  -22.7730  -14.7480   20.6760 O   0  0  0  0  0  0  0  0  0  0  0  0
  -22.8960  -12.1490   22.4340 H   0  0  0  0  0  0  0  0  0  0  0  0
  -21.6180  -13.3280   22.3390 H   0  0  0  0  0  0  0  0  0  0  0  0
  -25.8320  -15.3040   20.1890 N   0  0  0  0  0  0  0  0  0  0  0  0
  -25.0920  -15.9740   20.3670 H   0  0  0  0  0  0  0  0  0  0  0  0
  -26.6640  -15.7270   19.7990 H   0  0  0  0  0  0  0  0  0  0  0  0
  -28.1310  -25.3370   20.6620 C   0  0  0  0  0  2  0  0  0  0  0  0
  -28.2590  -26.4980   19.7710 O   0  0  0  0  0  0  0  0  0  0  0  0
  -24.5490  -31.7430   23.0290 C   0  0  0  0  0  0  0  0  0  0  0  0
  -27.1570  -27.3500   19.7820 C   0  0  0  0  0  0  0  0  0  0  0  0
  -23.3330  -30.3910   21.3560 C   0  0  0  0  0  3  0  0  0  0  0  0
  -24.7770  -28.9030   19.8580 C   0  0  0  0  0  0  0  0  0  0  0  0
  -25.8630  -30.7480   21.1480 C   0  0  0  0  0  2  0  0  0  0  0  0
  -25.9480  -29.3940   20.4550 C   0  0  0  0  0  0  0  0  0  0  0  0
  -27.1450  -28.6280   20.4100 C   0  0  0  0  0  3  0  0  0  0  0  0
  -25.9730  -26.8970   19.1680 C   0  0  0  0  0  3  0  0  0  0  0  0
  -24.7900  -27.6590   19.2080 C   0  0  0  0  0  3  0  0  0  0  0  0
  -23.5320  -29.7600   19.9520 C   0  0  0  0  0  2  0  0  0  0  0  0
  -24.6010  -30.9750   21.9020 N   0  0  0  0  0  0  0  0  0  0  0  0
  -23.4710  -31.9940   23.5870 O   0  0  0  0  0  0  0  0  0  0  0  0
  -22.6930  -29.3380   22.2890 C   0  0  0  0  0  0  0  0  0  0  0  0
  -21.3640  -29.1650   22.1810 N   0  0  0  0  0  0  0  0  0  0  0  0
  -23.3870  -28.6800   23.0680 O   0  0  0  0  0  0  0  0  0  0  0  0
  -20.8630  -29.7480   21.5230 H   0  0  0  0  0  0  0  0  0  0  0  0
  -17.9900  -27.9890   22.7360 C   0  0  0  0  0  0  0  0  0  0  0  0
  -20.5590  -28.2000   22.9310 C   0  0  0  0  0  3  0  0  0  0  0  0
  -20.6210  -26.7990   22.2780 C   0  0  0  0  0  2  0  0  0  0  0  0
  -19.4800  -26.5440   21.2880 C   0  0  0  0  0  2  0  0  0  0  0  0
  -18.1230  -26.6740   21.9860 C   0  0  0  0  0  2  0  0  0  0  0  0
  -19.1340  -28.7130   23.1660 C   0  0  0  0  0  0  0  0  0  0  0  0
  -18.9550  -29.9470   23.8280 C   0  0  0  0  0  3  0  0  0  0  0  0
  -17.6640  -30.4560   24.0640 C   0  0  0  0  0  3  0  0  0  0  0  0
  -16.5350  -29.7280   23.6510 C   0  0  0  0  0  3  0  0  0  0  0  0
  -16.6990  -28.4960   22.9930 C   0  0  0  0  0  3  0  0  0  0  0  0
  -25.8380  -32.3610   23.6540 C   0  0  0  0  0  3  0  0  0  0  0  0
  -26.3880  -31.5370   24.8830 C   0  0  1  0  0  0  0  0  0  0  0  0
  -25.3190  -31.2280   25.9560 C   0  0  0  0  0  1  0  0  0  0  0  0
  -26.9860  -30.1900   24.4130 C   0  0  0  0  0  1  0  0  0  0  0  0
  -27.5380  -32.3170   25.5640 C   0  0  0  0  0  1  0  0  0  0  0  0
  -25.5170  -33.7370   24.0560 N   0  0  0  0  0  0  0  0  0  0  0  0
  -25.8190  -34.8290   23.3410 C   0  0  0  0  0  0  0  0  0  0  0  0
  -26.4670  -34.7840   22.2910 O   0  0  0  0  0  0  0  0  0  0  0  0
  -24.9370  -33.8450   24.8760 H   0  0  0  0  0  0  0  0  0  0  0  0
  -24.0540  -36.6060   23.1200 C   0  0  0  0  0  1  0  0  0  0  0  0
  -25.3270  -36.1880   23.8730 C   0  0  0  0  0  3  0  0  0  0  0  0
  -27.4680  -37.0780   24.6820 C   0  0  0  0  0  1  0  0  0  0  0  0
  -26.3390  -37.2620   23.7740 N   0  0  0  0  0  0  0  0  0  0  0  0
  -25.9220  -38.1680   23.9670 H   0  0  0  0  0  0  0  0  0  0  0  0
  1  3  2  0
  1  2  1  0
  2  6  2  0
  3  4  1  0
  4  8  1  0
  4  5  2  0
  5  9  1  0
  6  5  1  0
  6 57  1  0
  7  2  1  0
 10 12  1  0
 11 10  1  0
 11 12  1  0
 12  1  1  0
 13  3  1  0
 15 14  1  0
 16 14  1  0
 17 13  1  0
 17 15  1  0
 18 27  1  0
 18 17  1  0
 18 16  1  0
 19 25  1  0
 19 27  1  0
 20 25  1  0
 21 22  1  0
 21 20  1  0
 23 22  1  0
 23 32  1  0
 23 24  1  0
 25 24  1  0
 26 19  2  0
 27 28  1  0
 29 30  2  0
 30 49  1  0
 31 30  1  0
 31 34  1  0
 32 33  1  0
 32 29  1  0
 33 31  2  0
 34 35  1  0
 35 36  2  0
 37 40  1  0
 37 36  1  0
 38 37  2  0
 39 38  1  0
 39 34  2  0
 40 41  1  0
 41 46  2  0
 41 42  1  0
 42 43  2  0
 43 44  1  0
 44 48  1  0
 45 44  2  0
 46 45  1  0
 47 46  1  0
 49 50  1  0
 50 53  1  0
 50 52  1  0
 51 49  2  0
 54 29  1  0
 54 55  1  0
 56 54  1  0
 58 60  1  0
 58 57  1  0
 59 70  2  0
 60 65  1  0
 61 69  1  0
 61 71  1  0
 62 68  1  0
 62 64  1  0
 63 69  1  0
 64 63  1  0
 65 64  2  0
 66 67  1  0
 66 60  2  0
 67 62  2  0
 68 61  1  0
 69 59  1  0
 71 73  2  0
 72 71  1  0
 74 72  1  0
 75 84  2  0
 75 80  1  0
 76 72  1  0
 76 80  1  0
 77 76  1  0
 78 79  1  0
 78 77  1  0
 79 75  1  0
 80 81  2  0
 81 82  1  0
 83 82  2  0
 84 83  1  0
 85 59  1  0
 85 90  1  0
 85 86  1  0
 86 89  1  1
 86 87  1  0
 88 86  1  0
 90 93  1  0
 91 95  1  0
 91 90  1  0
 92 91  2  0
 95 94  1  0
 97 95  1  0
 97 98  1  0
 97 96  1  0
M  ISO  4  19 100  27 100  57 101  58 101
M  END
>  <TORSDO>  (77) 
F 20

>  <SCORE>  (77) 
-12.496

>  <name>  (77) 
76

>  <ligand_id>  (77) 
76

>  <original_smiles>  (77) 
[H]c1c([H])c([H])c2c(c1[H])C([H])([H])C([H])([H])C([H])([H])C2([H])N([H])C(=O)C1([H])N(C(=O)C([H])(N([H])C(=O)C([H])(N([H])C([H])([H])[H])C([H])([H])[H])C(C([H])([H])[H])(C([H])([H])[H])C([H])([H])[H])C([H])([H])c2c([H])c(OC([H])([H])c3c(C([H])([H])[H])c(C([H])([H])[H])c(C([H])([H])C4([H])C([H])([H])C([H])([H])C([H])([H])C4([H])N([H])C(=O)N4C([H])([H])C([H])([H])C([H])([H])C([H])(n5nc(-c6c([H])c([H])c(Oc7c([H])c([H])c(F)c([H])c7F)c([H])c6[H])c(C(=O)N([H])[H])c5N([H])[H])C4([H])[H])c(C4([H])C([H])([H])C4([H])[H])c3C([H])([H])[H])c([H])c([H])c2C1([H])[H]

>  <smiles>  (77) 
[H]c1c([H])c([H])c2c(c1[H])C([H])([H])C([H])([H])C([H])([H])C2([H])N([H])C(=O)C1([H])N(C(=O)C([H])(N([H])C(=O)C([H])(N([H])C([H])([H])[H])C([H])([H])[H])C(C([H])([H])[H])(C([H])([H])[H])C([H])([H])[H])C([H])([H])c2c([H])c(OC([H])([H])c3c(C([H])([H])[H])c(C([H])([H])[H])c(C([H])([H])C4([H])C([H])([H])C([H])([H])C([H])([H])C4([H])N([H])C(=O)N4C([H])([H])C([H])([H])C([H])([H])C([H])(n5nc(-c6c([H])c([H])c(Oc7c([H])c([H])c(F)c([H])c7F)c([H])c6[H])c(C(=O)N([H])[H])c5N([H])[H])C4([H])[H])c(C4([H])C([H])([H])C4([H])[H])c3C([H])([H])[H])c([H])c([H])c2C1([H])[H]

$$$$
77:0:0
     RDKit          3D

100110  0  0  1  0  0  0  0  0999 V2000
  -28.5110  -20.0140   19.6470 C   0  0  0  0  0  3  0  0  0  0  0  0
  -29.3010  -21.1640   19.7250 C   0  0  0  0  0  0  0  0  0  0  0  0
  -30.5570  -21.1000   20.3900 C   0  0  0  0  0  0  0  0  0  0  0  0
  -30.1600  -18.6850   20.8440 C   0  0  0  0  0  0  0  0  0  0  0  0
  -28.8680  -18.8020   20.2640 C   0  0  0  0  0  0  0  0  0  0  0  0
  -30.9960  -19.8510   20.9270 C   0  0  0  0  0  0  0  0  0  0  0  0
  -31.4370  -22.3470   20.4610 C   0  0  0  0  0  1  0  0  0  0  0  0
  -29.5830  -23.2810   18.2360 C   0  0  0  0  0  2  0  0  0  0  0  0
  -27.7800  -23.1000   20.2060 C   0  0  0  0  0  2  0  0  0  0  0  0
  -29.4170  -24.8040   18.3320 C   0  0  0  0  0  2  0  0  0  0  0  0
  -27.7820  -24.6280   20.2260 C   0  0  0  0  0  2  0  0  0  0  0  0
  -28.6630  -22.4240   19.1370 C   0  0  0  0  0  3  0  0  0  0  0  0
  -28.0490  -25.2640   18.8440 C   0  0  0  0  0  3  0  0  0  0  0  0
  -28.1670  -26.6890   18.9440 O   0  0  0  0  0  0  0  0  0  0  0  0
  -24.8380  -31.3240   23.1740 C   0  0  0  0  0  0  0  0  0  0  0  0
  -27.0280  -27.4320   19.1460 C   0  0  0  0  0  0  0  0  0  0  0  0
  -23.4390  -30.2610   21.4350 C   0  0  0  0  0  3  0  0  0  0  0  0
  -24.7020  -28.9590   19.6490 C   0  0  0  0  0  0  0  0  0  0  0  0
  -25.9640  -30.5640   21.0980 C   0  0  0  0  0  2  0  0  0  0  0  0
  -25.9280  -29.3350   20.2170 C   0  0  0  0  0  0  0  0  0  0  0  0
  -27.0890  -28.5750   19.9700 C   0  0  0  0  0  3  0  0  0  0  0  0
  -25.7880  -27.0960   18.5500 C   0  0  0  0  0  3  0  0  0  0  0  0
  -24.6280  -27.8360   18.8150 C   0  0  0  0  0  3  0  0  0  0  0  0
  -23.5080  -29.8280   19.9500 C   0  0  0  0  0  2  0  0  0  0  0  0
  -24.7680  -30.7170   21.9580 N   0  0  0  0  0  0  0  0  0  0  0  0
  -23.8170  -31.5340   23.8440 O   0  0  0  0  0  0  0  0  0  0  0  0
  -22.8280  -29.1050   22.2550 C   0  0  0  0  0  0  0  0  0  0  0  0
  -21.4960  -28.9520   22.1800 N   0  0  0  0  0  0  0  0  0  0  0  0
  -23.5470  -28.3540   22.9200 O   0  0  0  0  0  0  0  0  0  0  0  0
  -20.9750  -29.6130   21.6200 H   0  0  0  0  0  0  0  0  0  0  0  0
  -18.1500  -27.6820   22.6160 C   0  0  0  0  0  0  0  0  0  0  0  0
  -20.7110  -27.9170   22.8470 C   0  0  0  0  0  3  0  0  0  0  0  0
  -20.7950  -26.5760   22.0750 C   0  0  0  0  0  2  0  0  0  0  0  0
  -19.6580  -26.3810   21.0670 C   0  0  0  0  0  2  0  0  0  0  0  0
  -18.3020  -26.4320   21.7690 C   0  0  0  0  0  2  0  0  0  0  0  0
  -19.2780  -28.3890   23.1060 C   0  0  0  0  0  0  0  0  0  0  0  0
  -19.0740  -29.5690   23.8540 C   0  0  0  0  0  3  0  0  0  0  0  0
  -17.7740  -30.0470   24.1100 C   0  0  0  0  0  3  0  0  0  0  0  0
  -16.6610  -29.3360   23.6350 C   0  0  0  0  0  3  0  0  0  0  0  0
  -16.8510  -28.1530   22.8960 C   0  0  0  0  0  3  0  0  0  0  0  0
  -26.2000  -31.7970   23.7700 C   0  0  0  0  0  3  0  0  0  0  0  0
  -25.9960  -33.1500   24.3000 N   0  0  0  0  0  0  0  0  0  0  0  0
  -26.3830  -34.2750   23.6850 C   0  0  0  0  0  0  0  0  0  0  0  0
  -27.0190  -34.2750   22.6280 O   0  0  0  0  0  0  0  0  0  0  0  0
  -25.4260  -33.2240   25.1300 H   0  0  0  0  0  0  0  0  0  0  0  0
  -24.7840  -36.2170   23.6120 C   0  0  0  0  0  1  0  0  0  0  0  0
  -25.9950  -35.6110   24.3410 C   0  0  0  0  0  3  0  0  0  0  0  0
  -28.1850  -36.2180   25.2730 C   0  0  0  0  0  1  0  0  0  0  0  0
  -27.1000  -36.5940   24.3710 N   0  0  0  0  0  0  0  0  0  0  0  0
  -26.7600  -37.5120   24.6470 H   0  0  0  0  0  0  0  0  0  0  0  0
  -26.7590  -30.8310   24.8860 C   0  0  1  0  0  0  0  0  0  0  0  0
  -25.7330  -30.5070   25.9940 C   0  0  0  0  0  1  0  0  0  0  0  0
  -27.2300  -29.4900   24.2760 C   0  0  0  0  0  1  0  0  0  0  0  0
  -28.0050  -31.4670   25.5470 C   0  0  0  0  0  1  0  0  0  0  0  0
  -26.5540  -18.0820   20.2990 C   0  0  0  0  0  1  0  0  0  0  0  0
  -27.9620  -17.7620   20.2770 O   0  0  0  0  0  0  0  0  0  0  0  0
  -30.6890  -17.3670   21.4740 C   0  0  0  0  0  2  0  0  0  0  0  0
  -30.2980  -15.9420   20.9400 C   0  0  0  0  0  2  0  0  0  0  0  0
  -31.6220  -14.1350   19.6560 C   0  0  0  0  0  0  0  0  0  0  0  0
  -31.1700  -11.7670   19.0980 C   0  0  0  0  0  2  0  0  0  0  0  0
  -30.2180  -11.6900   17.8880 C   0  0  0  0  0  2  0  0  0  0  0  0
  -28.7530  -11.6990   18.3640 C   0  0  0  0  0  2  0  0  0  0  0  0
  -28.4770  -12.8490   19.3640 C   0  0  0  0  0  3  0  0  0  0  0  0
  -29.5460  -12.8740   20.4760 C   0  0  0  0  0  2  0  0  0  0  0  0
  -30.8600  -13.0080   19.8390 N   0  0  0  0  0  0  0  0  0  0  0  0
  -32.7070  -14.0810   19.0760 O   0  0  0  0  0  0  0  0  0  0  0  0
  -31.1030  -15.3710   19.8490 N   0  0  0  0  0  0  0  0  0  0  0  0
  -31.6580  -16.0720   19.3800 H   0  0  0  0  0  0  0  0  0  0  0  0
  -26.2560  -13.7800   20.2630 C   0  0  0  0  0  0  0  0  0  0  0  0
  -25.1010  -13.1620   20.6710 C   0  0  0  0  0  0  0  0  0  0  0  0
  -25.3480  -11.7610   20.5500 C   0  0  0  0  0  0  0  0  0  0  0  0
  -27.1290  -12.7670   19.9160 N   0  0  0  0  0  0  0  0  0  0  0  0
  -26.5930  -11.5440   20.1500 N   0  0  0  0  0  0  0  0  0  0  0  0
  -24.4470  -10.6200   20.7360 C   0  0  0  0  0  0  0  0  0  0  0  0
  -24.7040   -9.6250   21.7070 C   0  0  0  0  0  3  0  0  0  0  0  0
  -23.8080   -8.5470   21.8820 C   0  0  0  0  0  3  0  0  0  0  0  0
  -22.6430   -8.4540   21.0780 C   0  0  0  0  0  0  0  0  0  0  0  0
  -22.4040   -9.4390   20.1020 C   0  0  0  0  0  3  0  0  0  0  0  0
  -23.2980  -10.5070   19.9290 C   0  0  0  0  0  3  0  0  0  0  0  0
  -21.7290   -7.4330   21.1620 O   0  0  0  0  0  0  0  0  0  0  0  0
  -21.3680   -6.8830   22.3680 C   0  0  0  0  0  0  0  0  0  0  0  0
  -20.7990   -7.6570   23.4020 C   0  0  0  0  0  3  0  0  0  0  0  0
  -20.3760   -7.0320   24.5950 C   0  0  0  0  0  3  0  0  0  0  0  0
  -20.5200   -5.6400   24.7500 C   0  0  0  0  0  0  0  0  0  0  0  0
  -21.0770   -4.8690   23.7140 C   0  0  0  0  0  3  0  0  0  0  0  0
  -21.4970   -5.4890   22.5250 C   0  0  0  0  0  0  0  0  0  0  0  0
  -22.0170   -4.7370   21.5240 F   0  0  0  0  0  0  0  0  0  0  0  0
  -20.1100   -5.0410   25.8920 F   0  0  0  0  0  0  0  0  0  0  0  0
  -23.8260  -13.8310   21.0690 C   0  0  0  0  0  0  0  0  0  0  0  0
  -23.0820  -13.2300   21.9920 N   0  0  0  0  0  0  0  0  0  0  0  0
  -23.4960  -14.9160   20.5950 O   0  0  0  0  0  0  0  0  0  0  0  0
  -23.3670  -12.3410   22.3810 H   0  0  0  0  0  0  0  0  0  0  0  0
  -22.2210  -13.6540   22.3030 H   0  0  0  0  0  0  0  0  0  0  0  0
  -26.6280  -15.1080   20.1470 N   0  0  0  0  0  0  0  0  0  0  0  0
  -26.0220  -15.8770   20.4150 H   0  0  0  0  0  0  0  0  0  0  0  0
  -27.5480  -15.4170   19.8580 H   0  0  0  0  0  0  0  0  0  0  0  0
  -32.2590  -19.7050   21.4760 O   0  0  0  0  0  0  0  0  0  0  0  0
  -34.0030  -20.2400   23.0510 C   0  0  0  0  0  2  0  0  0  0  0  0
  -34.0010  -21.3550   22.0290 C   0  0  0  0  0  2  0  0  0  0  0  0
  -32.7050  -20.6770   22.4190 C   0  0  0  0  0  3  0  0  0  0  0  0
  1  2  2  0
  1  5  1  0
  2  3  1  0
  3  7  1  0
  3  6  2  0
  4  6  1  0
  4 57  1  0
  5 56  1  0
  5  4  2  0
  6 97  1  0
  8 10  1  0
  8 12  1  0
  9 11  1  0
 10 13  1  0
 12  2  1  0
 12  9  1  0
 13 14  1  0
 13 11  1  0
 14 16  1  0
 15 26  2  0
 16 21  1  0
 17 25  1  0
 17 27  1  0
 18 24  1  0
 18 20  1  0
 19 25  1  0
 20 19  1  0
 21 20  2  0
 22 23  1  0
 22 16  2  0
 23 18  2  0
 24 17  1  0
 25 15  1  0
 27 29  2  0
 28 27  1  0
 30 28  1  0
 31 40  2  0
 31 36  1  0
 32 28  1  0
 32 36  1  0
 33 32  1  0
 34 35  1  0
 34 33  1  0
 35 31  1  0
 36 37  2  0
 37 38  1  0
 39 38  2  0
 40 39  1  0
 41 15  1  0
 41 42  1  0
 41 51  1  0
 42 45  1  0
 43 42  1  0
 43 47  1  0
 44 43  2  0
 47 46  1  0
 47 49  1  0
 49 50  1  0
 49 48  1  0
 51 54  1  1
 51 52  1  0
 53 51  1  0
 56 55  1  0
 58 57  1  0
 59 65  1  0
 59 67  1  0
 60 65  1  0
 61 62  1  0
 61 60  1  0
 63 62  1  0
 63 72  1  0
 63 64  1  0
 65 64  1  0
 66 59  2  0
 67 58  1  0
 68 67  1  0
 69 70  2  0
 70 89  1  0
 71 70  1  0
 71 74  1  0
 72 73  1  0
 72 69  1  0
 73 71  2  0
 74 75  1  0
 75 76  2  0
 77 80  1  0
 77 76  1  0
 78 77  2  0
 79 78  1  0
 79 74  2  0
 80 81  1  0
 81 86  2  0
 81 82  1  0
 82 83  2  0
 83 84  1  0
 84 88  1  0
 85 84  2  0
 86 85  1  0
 87 86  1  0
 89 90  1  0
 90 93  1  0
 90 92  1  0
 91 89  2  0
 94 69  1  0
 94 95  1  0
 96 94  1  0
 97100  1  0
 99100  1  0
 99 98  1  0
100 98  1  0
M  ISO  4  13 101  14 101  59 100  67 100
M  END
>  <TORSDO>  (78) 
F 22

>  <SCORE>  (78) 
-10.749

>  <name>  (78) 
77

>  <ligand_id>  (78) 
77

>  <original_smiles>  (78) 
[H]c1c([H])c([H])c2c(c1[H])C([H])([H])C([H])([H])C([H])([H])C2([H])N([H])C(=O)C1([H])N(C(=O)C([H])(N([H])C(=O)C([H])(N([H])C([H])([H])[H])C([H])([H])[H])C(C([H])([H])[H])(C([H])([H])[H])C([H])([H])[H])C([H])([H])c2c([H])c(OC3([H])C([H])([H])C([H])([H])C([H])(c4c([H])c(OC([H])([H])[H])c(C([H])([H])C([H])([H])N([H])C(=O)N5C([H])([H])C([H])([H])C([H])([H])C([H])(n6nc(-c7c([H])c([H])c(Oc8c([H])c([H])c(F)c([H])c8F)c([H])c7[H])c(C(=O)N([H])[H])c6N([H])[H])C5([H])[H])c(OC5([H])C([H])([H])C5([H])[H])c4C([H])([H])[H])C([H])([H])C3([H])[H])c([H])c([H])c2C1([H])[H]

>  <smiles>  (78) 
[H]c1c([H])c([H])c2c(c1[H])C([H])([H])C([H])([H])C([H])([H])C2([H])N([H])C(=O)C1([H])N(C(=O)C([H])(N([H])C(=O)C([H])(N([H])C([H])([H])[H])C([H])([H])[H])C(C([H])([H])[H])(C([H])([H])[H])C([H])([H])[H])C([H])([H])c2c([H])c(OC3([H])C([H])([H])C([H])([H])C([H])(c4c([H])c(OC([H])([H])[H])c(C([H])([H])C([H])([H])N([H])C(=O)N5C([H])([H])C([H])([H])C([H])([H])C([H])(n6nc(-c7c([H])c([H])c(Oc8c([H])c([H])c(F)c([H])c8F)c([H])c7[H])c(C(=O)N([H])[H])c6N([H])[H])C5([H])[H])c(OC5([H])C([H])([H])C5([H])[H])c4C([H])([H])[H])C([H])([H])C3([H])[H])c([H])c([H])c2C1([H])[H]

$$$$
78:0:0
     RDKit          3D

 96106  0  0  1  0  0  0  0  0999 V2000
  -30.8230  -21.8240   22.3580 C   0  0  0  0  0  3  0  0  0  0  0  0
  -30.2310  -19.9850   20.4210 C   0  0  0  0  0  3  0  0  0  0  0  0
  -30.8120  -20.4690   22.7290 C   0  0  0  0  0  0  0  0  0  0  0  0
  -30.5220  -19.5180   21.7190 C   0  0  0  0  0  0  0  0  0  0  0  0
  -30.4810  -22.1880   21.0520 C   0  0  0  0  0  0  0  0  0  0  0  0
  -30.1960  -21.2900   20.0890 N   0  0  0  0  0  0  0  0  0  0  0  0
  -30.7910  -14.4790   20.1480 C   0  0  0  0  0  0  0  0  0  0  0  0
  -30.3830  -12.4290   18.8200 C   0  0  0  0  0  2  0  0  0  0  0  0
  -29.3820  -12.6770   17.6740 C   0  0  0  0  0  2  0  0  0  0  0  0
  -27.9250  -12.5430   18.1630 C   0  0  0  0  0  2  0  0  0  0  0  0
  -27.6670  -13.3420   19.4640 C   0  0  0  0  0  3  0  0  0  0  0  0
  -28.7550  -12.9960   20.5090 C   0  0  0  0  0  2  0  0  0  0  0  0
  -30.0640  -13.3460   19.9290 N   0  0  0  0  0  0  0  0  0  0  0  0
  -31.8010  -14.7430   19.4800 O   0  0  0  0  0  0  0  0  0  0  0  0
  -29.3260  -17.3730   21.1930 C   0  0  0  0  0  2  0  0  0  0  0  0
  -31.7670  -17.2680   21.8100 C   0  0  0  0  0  2  0  0  0  0  0  0
  -29.2220  -15.8810   21.5120 C   0  0  0  0  0  2  0  0  0  0  0  0
  -31.5800  -15.7620   22.0990 C   0  0  0  0  0  2  0  0  0  0  0  0
  -30.4410  -18.0250   22.0200 C   0  0  0  0  0  3  0  0  0  0  0  0
  -30.5040  -15.1880   21.2730 N   0  0  0  0  0  0  0  0  0  0  0  0
  -25.3180  -14.0150   20.2800 C   0  0  0  0  0  0  0  0  0  0  0  0
  -24.2420  -13.2640   20.6730 C   0  0  0  0  0  0  0  0  0  0  0  0
  -24.6590  -11.9020   20.5840 C   0  0  0  0  0  0  0  0  0  0  0  0
  -26.3240  -13.1080   19.9840 N   0  0  0  0  0  0  0  0  0  0  0  0
  -25.9320  -11.8310   20.2200 N   0  0  0  0  0  0  0  0  0  0  0  0
  -23.9060  -10.6560   20.7690 C   0  0  0  0  0  0  0  0  0  0  0  0
  -24.2640   -9.7180   21.7610 C   0  0  0  0  0  3  0  0  0  0  0  0
  -23.5150   -8.5350   21.9320 C   0  0  0  0  0  3  0  0  0  0  0  0
  -22.3910   -8.2820   21.1090 C   0  0  0  0  0  0  0  0  0  0  0  0
  -22.0520   -9.2090   20.1070 C   0  0  0  0  0  3  0  0  0  0  0  0
  -22.8020  -10.3840   19.9360 C   0  0  0  0  0  3  0  0  0  0  0  0
  -21.6220   -7.1470   21.1840 O   0  0  0  0  0  0  0  0  0  0  0  0
  -21.3720   -6.5240   22.3810 C   0  0  0  0  0  0  0  0  0  0  0  0
  -20.7470   -7.1970   23.4540 C   0  0  0  0  0  3  0  0  0  0  0  0
  -20.4440   -6.5000   24.6400 C   0  0  0  0  0  3  0  0  0  0  0  0
  -20.7590   -5.1320   24.7540 C   0  0  0  0  0  0  0  0  0  0  0  0
  -21.3750   -4.4580   23.6850 C   0  0  0  0  0  3  0  0  0  0  0  0
  -21.6780   -5.1530   22.5000 C   0  0  0  0  0  0  0  0  0  0  0  0
  -22.2550   -4.4950   21.4650 F   0  0  0  0  0  0  0  0  0  0  0  0
  -20.4600   -4.4600   25.8900 F   0  0  0  0  0  0  0  0  0  0  0  0
  -22.8720  -13.7740   21.0160 C   0  0  0  0  0  0  0  0  0  0  0  0
  -22.1730  -13.0900   21.9170 N   0  0  0  0  0  0  0  0  0  0  0  0
  -22.4300  -14.8100   20.5210 O   0  0  0  0  0  0  0  0  0  0  0  0
  -22.5440  -12.2520   22.3390 H   0  0  0  0  0  0  0  0  0  0  0  0
  -21.2540  -13.4120   22.1880 H   0  0  0  0  0  0  0  0  0  0  0  0
  -25.5150  -15.3850   20.1340 N   0  0  0  0  0  0  0  0  0  0  0  0
  -24.7690  -16.0530   20.2920 H   0  0  0  0  0  0  0  0  0  0  0  0
  -26.3600  -15.8100   19.7730 H   0  0  0  0  0  0  0  0  0  0  0  0
  -29.9290  -19.7990   25.1130 C   0  0  0  0  0  2  0  0  0  0  0  0
  -30.7170  -21.0750   25.2790 C   0  0  0  0  0  2  0  0  0  0  0  0
  -31.0670  -20.1100   24.1650 C   0  0  0  0  0  3  0  0  0  0  0  0
  -30.4030  -23.5250   20.7530 O   0  0  0  0  0  0  0  0  0  0  0  0
  -30.1380  -23.8980   19.4060 C   0  0  0  0  0  2  0  0  0  0  0  0
  -29.8090  -25.3920   19.4220 C   0  0  0  0  0  2  0  0  0  0  0  0
  -28.3680  -25.6720   19.8690 C   0  0  0  0  0  2  0  0  0  0  0  0
  -28.2690  -27.0660   20.1020 O   0  0  0  0  0  0  0  0  0  0  0  0
  -24.4930  -32.0700   23.3950 C   0  0  0  0  0  0  0  0  0  0  0  0
  -27.0370  -27.6690   20.1950 C   0  0  0  0  0  0  0  0  0  0  0  0
  -23.2180  -30.6480   21.8210 C   0  0  0  0  0  3  0  0  0  0  0  0
  -24.6120  -29.1090   20.3430 C   0  0  0  0  0  0  0  0  0  0  0  0
  -25.7190  -31.0390   21.4880 C   0  0  0  0  0  2  0  0  0  0  0  0
  -25.7870  -29.6630   20.8610 C   0  0  0  0  0  0  0  0  0  0  0  0
  -26.9980  -28.9480   20.7860 C   0  0  0  0  0  3  0  0  0  0  0  0
  -25.8370  -27.1090   19.6940 C   0  0  0  0  0  3  0  0  0  0  0  0
  -24.6280  -27.8280   19.7650 C   0  0  0  0  0  3  0  0  0  0  0  0
  -23.3620  -29.9540   20.4390 C   0  0  0  0  0  2  0  0  0  0  0  0
  -24.4980  -31.2670   22.2940 N   0  0  0  0  0  0  0  0  0  0  0  0
  -23.4380  -32.3350   23.9870 O   0  0  0  0  0  0  0  0  0  0  0  0
  -22.6260  -29.6280   22.8190 C   0  0  0  0  0  0  0  0  0  0  0  0
  -21.3410  -29.2850   22.6290 N   0  0  0  0  0  0  0  0  0  0  0  0
  -23.3220  -29.1440   23.7160 O   0  0  0  0  0  0  0  0  0  0  0  0
  -20.8370  -29.7330   21.8770 H   0  0  0  0  0  0  0  0  0  0  0  0
  -18.1470  -27.6280   22.9160 C   0  0  0  0  0  0  0  0  0  0  0  0
  -20.5860  -28.3140   23.4210 C   0  0  0  0  0  3  0  0  0  0  0  0
  -20.9660  -26.8670   23.0350 C   0  0  0  0  0  2  0  0  0  0  0  0
  -20.0550  -26.2700   21.9580 C   0  0  0  0  0  2  0  0  0  0  0  0
  -18.5980  -26.2610   22.4330 C   0  0  0  0  0  2  0  0  0  0  0  0
  -19.0810  -28.5970   23.3650 C   0  0  0  0  0  0  0  0  0  0  0  0
  -18.6110  -29.8660   23.7690 C   0  0  0  0  0  3  0  0  0  0  0  0
  -17.2380  -30.1700   23.7350 C   0  0  0  0  0  3  0  0  0  0  0  0
  -16.3150  -29.2000   23.3040 C   0  0  0  0  0  3  0  0  0  0  0  0
  -16.7700  -27.9330   22.9000 C   0  0  0  0  0  3  0  0  0  0  0  0
  -25.8040  -32.7120   23.9460 C   0  0  0  0  0  3  0  0  0  0  0  0
  -25.5230  -34.1280   24.2190 N   0  0  0  0  0  0  0  0  0  0  0  0
  -25.8380  -35.1380   23.3960 C   0  0  0  0  0  0  0  0  0  0  0  0
  -26.4700  -34.9770   22.3480 O   0  0  0  0  0  0  0  0  0  0  0  0
  -24.9590  -34.3280   25.0310 H   0  0  0  0  0  0  0  0  0  0  0  0
  -24.1070  -36.9220   23.0210 C   0  0  0  0  0  1  0  0  0  0  0  0
  -25.3790  -36.5510   23.8000 C   0  0  0  0  0  3  0  0  0  0  0  0
  -27.5550  -37.4570   24.4870 C   0  0  0  0  0  1  0  0  0  0  0  0
  -26.4120  -37.5880   23.5880 N   0  0  0  0  0  0  0  0  0  0  0  0
  -26.0200  -38.5180   23.7100 H   0  0  0  0  0  0  0  0  0  0  0  0
  -26.3560  -31.9920   25.2370 C   0  0  1  0  0  0  0  0  0  0  0  0
  -25.2810  -31.7540   26.3230 C   0  0  0  0  0  1  0  0  0  0  0  0
  -26.9710  -30.6200   24.8730 C   0  0  0  0  0  1  0  0  0  0  0  0
  -27.4910  -32.8340   25.8660 C   0  0  0  0  0  1  0  0  0  0  0  0
  1  3  2  0
  2  4  2  0
  3 51  1  0
  4  3  1  0
  5  1  1  0
  6  2  1  0
  6  5  2  0
  7 20  1  0
  8 13  1  0
  9 10  1  0
  9  8  1  0
 11 10  1  0
 11 24  1  0
 11 12  1  0
 13  7  1  0
 13 12  1  0
 14  7  2  0
 15 17  1  0
 15 19  1  0
 16 19  1  0
 16 18  1  0
 19  4  1  0
 20 17  1  0
 20 18  1  0
 21 22  2  0
 22 41  1  0
 23 22  1  0
 23 26  1  0
 24 25  1  0
 24 21  1  0
 25 23  2  0
 26 27  1  0
 27 28  2  0
 29 32  1  0
 29 28  1  0
 30 29  2  0
 31 30  1  0
 31 26  2  0
 32 33  1  0
 33 38  2  0
 33 34  1  0
 34 35  2  0
 35 36  1  0
 36 40  1  0
 37 36  2  0
 38 37  1  0
 39 38  1  0
 41 42  1  0
 42 45  1  0
 42 44  1  0
 43 41  2  0
 46 21  1  0
 46 47  1  0
 48 46  1  0
 49 50  1  0
 51 49  1  0
 51 50  1  0
 52  5  1  0
 53 54  1  0
 53 52  1  0
 54 55  1  0
 55 56  1  0
 56 58  1  0
 57 68  2  0
 58 63  1  0
 59 67  1  0
 59 69  1  0
 60 66  1  0
 60 62  1  0
 61 67  1  0
 62 61  1  0
 63 62  2  0
 64 65  1  0
 64 58  2  0
 65 60  2  0
 66 59  1  0
 67 57  1  0
 69 71  2  0
 70 69  1  0
 72 70  1  0
 73 78  1  0
 74 70  1  0
 75 74  1  0
 76 77  1  0
 76 75  1  0
 77 73  1  0
 78 74  1  0
 78 79  2  0
 80 79  1  0
 81 80  2  0
 82 73  2  0
 82 81  1  0
 83 57  1  0
 83 84  1  0
 83 93  1  0
 84 87  1  0
 85 89  1  0
 85 84  1  0
 86 85  2  0
 89 88  1  0
 91 92  1  0
 91 89  1  0
 91 90  1  0
 93 96  1  1
 93 94  1  0
 95 93  1  0
M  ISO  4   7 100  20 100  55 101  56 101
M  END
>  <TORSDO>  (79) 
F 21

>  <SCORE>  (79) 
-9.663

>  <name>  (79) 
78

>  <ligand_id>  (79) 
78

>  <original_smiles>  (79) 
[H]c1nc(OC([H])([H])C([H])([H])C([H])([H])Oc2c([H])c([H])c3c(c2[H])C([H])([H])N(C(=O)C([H])(N([H])C(=O)C([H])(N([H])C([H])([H])[H])C([H])([H])[H])C(C([H])([H])[H])(C([H])([H])[H])C([H])([H])[H])C([H])(C(=O)N([H])C2([H])c4c([H])c([H])c([H])c([H])c4C([H])([H])C([H])([H])C2([H])[H])C3([H])[H])c([H])c(C2([H])C([H])([H])C2([H])[H])c1C1([H])C([H])([H])C([H])([H])N(C(=O)N2C([H])([H])C([H])([H])C([H])([H])C([H])(n3nc(-c4c([H])c([H])c(Oc5c([H])c([H])c(F)c([H])c5F)c([H])c4[H])c(C(=O)N([H])[H])c3N([H])[H])C2([H])[H])C([H])([H])C1([H])[H]

>  <smiles>  (79) 
[H]c1nc(OC([H])([H])C([H])([H])C([H])([H])Oc2c([H])c([H])c3c(c2[H])C([H])([H])N(C(=O)C([H])(N([H])C(=O)C([H])(N([H])C([H])([H])[H])C([H])([H])[H])C(C([H])([H])[H])(C([H])([H])[H])C([H])([H])[H])C([H])(C(=O)N([H])C2([H])c4c([H])c([H])c([H])c([H])c4C([H])([H])C([H])([H])C2([H])[H])C3([H])[H])c([H])c(C2([H])C([H])([H])C2([H])[H])c1C1([H])C([H])([H])C([H])([H])N(C(=O)N2C([H])([H])C([H])([H])C([H])([H])C([H])(n3nc(-c4c([H])c([H])c(Oc5c([H])c([H])c(F)c([H])c5F)c([H])c4[H])c(C(=O)N([H])[H])c3N([H])[H])C2([H])[H])C([H])([H])C1([H])[H]

$$$$
79:0:0
     RDKit          3D

 96105  0  0  1  0  0  0  0  0999 V2000
  -28.0790  -21.6010   20.4570 C   0  0  0  0  0  3  0  0  0  0  0  0
  -30.4910  -21.6690   20.2750 C   0  0  0  0  0  3  0  0  0  0  0  0
  -29.3540  -19.4990   20.3610 C   0  0  0  0  0  0  0  0  0  0  0  0
  -28.1140  -20.1900   20.4360 C   0  0  0  0  0  0  0  0  0  0  0  0
  -29.2720  -22.3580   20.4370 C   0  0  0  0  0  0  0  0  0  0  0  0
  -30.5450  -20.2600   20.1950 C   0  0  0  0  0  0  0  0  0  0  0  0
  -29.1330  -17.2890   21.7960 C   0  0  0  0  0  2  0  0  0  0  0  0
  -30.5200  -17.2800   21.2130 C   0  0  0  0  0  2  0  0  0  0  0  0
  -29.3990  -17.9910   20.4780 C   0  0  0  0  0  3  0  0  0  0  0  0
  -26.3060  -19.0080   19.1030 C   0  0  0  0  0  1  0  0  0  0  0  0
  -26.7800  -19.4520   20.4900 C   0  0  0  0  0  2  0  0  0  0  0  0
  -29.3370  -23.7330   20.5700 O   0  0  0  0  0  0  0  0  0  0  0  0
  -28.1410  -24.5100   20.7150 C   0  0  0  0  0  2  0  0  0  0  0  0
  -28.4990  -25.9290   21.2120 C   0  0  0  0  0  2  0  0  0  0  0  0
  -28.2820  -26.9650   20.2530 O   0  0  0  0  0  0  0  0  0  0  0  0
  -24.5150  -32.0890   23.5050 C   0  0  0  0  0  0  0  0  0  0  0  0
  -27.1060  -27.6650   20.3660 C   0  0  0  0  0  0  0  0  0  0  0  0
  -23.2800  -30.6960   21.8760 C   0  0  0  0  0  3  0  0  0  0  0  0
  -24.7100  -29.1560   20.4310 C   0  0  0  0  0  0  0  0  0  0  0  0
  -25.8030  -31.0530   21.6400 C   0  0  0  0  0  2  0  0  0  0  0  0
  -25.8770  -29.6810   21.0010 C   0  0  0  0  0  0  0  0  0  0  0  0
  -27.0800  -28.9430   20.9680 C   0  0  0  0  0  3  0  0  0  0  0  0
  -25.9280  -27.1480   19.7940 C   0  0  0  0  0  3  0  0  0  0  0  0
  -24.7290  -27.8850   19.8270 C   0  0  0  0  0  3  0  0  0  0  0  0
  -23.4680  -30.0170   20.4940 C   0  0  0  0  0  2  0  0  0  0  0  0
  -24.5520  -31.2930   22.3990 N   0  0  0  0  0  0  0  0  0  0  0  0
  -23.4430  -32.3600   24.0630 O   0  0  0  0  0  0  0  0  0  0  0  0
  -22.6430  -29.6720   22.8420 C   0  0  0  0  0  0  0  0  0  0  0  0
  -21.3500  -29.3740   22.6300 N   0  0  0  0  0  0  0  0  0  0  0  0
  -23.3110  -29.1450   23.7350 O   0  0  0  0  0  0  0  0  0  0  0  0
  -20.8690  -29.8560   21.8820 H   0  0  0  0  0  0  0  0  0  0  0  0
  -18.0940  -27.8220   22.8460 C   0  0  0  0  0  0  0  0  0  0  0  0
  -20.5530  -28.4100   23.3870 C   0  0  0  0  0  3  0  0  0  0  0  0
  -20.8860  -26.9590   22.9680 C   0  0  0  0  0  2  0  0  0  0  0  0
  -19.9640  -26.4220   21.8690 C   0  0  0  0  0  2  0  0  0  0  0  0
  -18.5050  -26.4520   22.3310 C   0  0  0  0  0  2  0  0  0  0  0  0
  -19.0600  -28.7470   23.3280 C   0  0  0  0  0  0  0  0  0  0  0  0
  -18.6320  -30.0190   23.7620 C   0  0  0  0  0  3  0  0  0  0  0  0
  -17.2690  -30.3730   23.7250 C   0  0  0  0  0  3  0  0  0  0  0  0
  -16.3170  -29.4470   23.2660 C   0  0  0  0  0  3  0  0  0  0  0  0
  -16.7290  -28.1750   22.8310 C   0  0  0  0  0  3  0  0  0  0  0  0
  -25.8110  -32.7150   24.1060 C   0  0  0  0  0  3  0  0  0  0  0  0
  -25.5380  -34.1350   24.3650 N   0  0  0  0  0  0  0  0  0  0  0  0
  -25.9440  -35.1430   23.5830 C   0  0  0  0  0  0  0  0  0  0  0  0
  -26.6600  -34.9740   22.5910 O   0  0  0  0  0  0  0  0  0  0  0  0
  -24.9140  -34.3420   25.1300 H   0  0  0  0  0  0  0  0  0  0  0  0
  -24.3070  -36.9800   23.0630 C   0  0  0  0  0  1  0  0  0  0  0  0
  -25.4840  -36.5640   23.9600 C   0  0  0  0  0  3  0  0  0  0  0  0
  -27.6080  -37.3950   24.8690 C   0  0  0  0  0  1  0  0  0  0  0  0
  -26.5600  -37.5740   23.8690 N   0  0  0  0  0  0  0  0  0  0  0  0
  -26.1830  -38.5130   23.9680 H   0  0  0  0  0  0  0  0  0  0  0  0
  -26.2990  -31.9910   25.4200 C   0  0  1  0  0  0  0  0  0  0  0  0
  -25.1800  -31.7860   26.4680 C   0  0  0  0  0  1  0  0  0  0  0  0
  -26.8960  -30.6040   25.0850 C   0  0  0  0  0  1  0  0  0  0  0  0
  -27.4300  -32.8120   26.0820 C   0  0  0  0  0  1  0  0  0  0  0  0
  -31.7850  -19.6820   20.0310 O   0  0  0  0  0  0  0  0  0  0  0  0
  -31.8240  -18.4550   19.2970 C   0  0  0  0  0  2  0  0  0  0  0  0
  -32.7940  -17.4790   19.9920 C   0  0  0  0  0  2  0  0  0  0  0  0
  -32.7480  -15.0100   19.5180 C   0  0  0  0  0  0  0  0  0  0  0  0
  -32.3020  -12.6230   19.0610 C   0  0  0  0  0  2  0  0  0  0  0  0
  -31.3780  -12.4660   17.8380 C   0  0  0  0  0  2  0  0  0  0  0  0
  -29.8960  -12.5690   18.2510 C   0  0  0  0  0  2  0  0  0  0  0  0
  -29.6110  -13.8060   19.1450 C   0  0  0  0  0  3  0  0  0  0  0  0
  -30.6330  -13.8800   20.3000 C   0  0  0  0  0  2  0  0  0  0  0  0
  -31.9870  -13.9020   19.7140 N   0  0  0  0  0  0  0  0  0  0  0  0
  -33.8020  -15.0140   18.8770 O   0  0  0  0  0  0  0  0  0  0  0  0
  -32.2510  -16.1240   20.0680 N   0  0  0  0  0  0  0  0  0  0  0  0
  -31.3920  -16.0090   20.5860 H   0  0  0  0  0  0  0  0  0  0  0  0
  -27.3830  -14.8700   19.8790 C   0  0  0  0  0  0  0  0  0  0  0  0
  -26.1910  -14.3190   20.2710 C   0  0  0  0  0  0  0  0  0  0  0  0
  -26.3840  -12.9030   20.2410 C   0  0  0  0  0  0  0  0  0  0  0  0
  -28.2350  -13.8030   19.6400 N   0  0  0  0  0  0  0  0  0  0  0  0
  -27.6360  -12.6150   19.9110 N   0  0  0  0  0  0  0  0  0  0  0  0
  -25.4330  -11.8040   20.4520 C   0  0  0  0  0  0  0  0  0  0  0  0
  -25.6490  -10.8210   21.4440 C   0  0  0  0  0  3  0  0  0  0  0  0
  -24.7100   -9.7840   21.6390 C   0  0  0  0  0  3  0  0  0  0  0  0
  -23.5430   -9.7250   20.8430 C   0  0  0  0  0  0  0  0  0  0  0  0
  -23.3440  -10.6930   19.8430 C   0  0  0  0  0  3  0  0  0  0  0  0
  -24.2800  -11.7210   19.6450 C   0  0  0  0  0  3  0  0  0  0  0  0
  -22.5900   -8.7390   20.9450 O   0  0  0  0  0  0  0  0  0  0  0  0
  -22.2660   -8.1730   22.1510 C   0  0  0  0  0  0  0  0  0  0  0  0
  -21.8120   -8.9490   23.2400 C   0  0  0  0  0  3  0  0  0  0  0  0
  -21.4240   -8.3180   24.4390 C   0  0  0  0  0  3  0  0  0  0  0  0
  -21.4810   -6.9150   24.5490 C   0  0  0  0  0  0  0  0  0  0  0  0
  -21.9270   -6.1410   23.4640 C   0  0  0  0  0  3  0  0  0  0  0  0
  -22.3160   -6.7690   22.2670 C   0  0  0  0  0  0  0  0  0  0  0  0
  -22.7260   -6.0170   21.2170 F   0  0  0  0  0  0  0  0  0  0  0  0
  -21.1000   -6.3090   25.6980 F   0  0  0  0  0  0  0  0  0  0  0  0
  -24.9170  -15.0550   20.5640 C   0  0  0  0  0  0  0  0  0  0  0  0
  -24.0910  -14.5210   21.4570 N   0  0  0  0  0  0  0  0  0  0  0  0
  -24.6680  -16.1390   20.0360 O   0  0  0  0  0  0  0  0  0  0  0  0
  -24.3070  -13.6420   21.9040 H   0  0  0  0  0  0  0  0  0  0  0  0
  -23.2330  -14.9970   21.6960 H   0  0  0  0  0  0  0  0  0  0  0  0
  -27.8060  -16.1810   19.6870 N   0  0  0  0  0  0  0  0  0  0  0  0
  -27.1770  -16.9700   19.7890 H   0  0  0  0  0  0  0  0  0  0  0  0
  -28.7160  -16.4400   19.3300 H   0  0  0  0  0  0  0  0  0  0  0  0
  2  5  2  0
  3  4  1  0
  3  9  1  0
  4  1  2  0
  4 11  1  0
  5  1  1  0
  5 12  1  0
  6  2  1  0
  6  3  2  0
  8  7  1  0
  9  8  1  0
  9  7  1  0
 10 11  1  0
 12 13  1  0
 13 14  1  0
 15 17  1  0
 15 14  1  0
 16 27  2  0
 17 22  1  0
 18 26  1  0
 18 28  1  0
 19 25  1  0
 19 21  1  0
 20 26  1  0
 21 20  1  0
 22 21  2  0
 23 24  1  0
 23 17  2  0
 24 19  2  0
 25 18  1  0
 26 16  1  0
 28 30  2  0
 29 28  1  0
 31 29  1  0
 32 37  1  0
 33 29  1  0
 34 33  1  0
 35 36  1  0
 35 34  1  0
 36 32  1  0
 37 33  1  0
 37 38  2  0
 39 38  1  0
 40 39  2  0
 41 32  2  0
 41 40  1  0
 42 16  1  0
 42 43  1  0
 42 52  1  0
 43 46  1  0
 44 48  1  0
 44 43  1  0
 45 44  2  0
 48 47  1  0
 50 48  1  0
 50 51  1  0
 50 49  1  0
 52 55  1  1
 52 53  1  0
 54 52  1  0
 56  6  1  0
 57 58  1  0
 57 56  1  0
 58 67  1  0
 59 65  1  0
 59 67  1  0
 60 65  1  0
 61 62  1  0
 61 60  1  0
 63 62  1  0
 63 72  1  0
 63 64  1  0
 65 64  1  0
 66 59  2  0
 67 68  1  0
 69 70  2  0
 70 89  1  0
 71 70  1  0
 71 74  1  0
 72 69  1  0
 72 73  1  0
 73 71  2  0
 74 75  1  0
 75 76  2  0
 77 80  1  0
 77 76  1  0
 78 77  2  0
 79 78  1  0
 79 74  2  0
 80 81  1  0
 81 86  2  0
 81 82  1  0
 82 83  2  0
 83 84  1  0
 84 88  1  0
 85 84  2  0
 86 85  1  0
 87 86  1  0
 89 90  1  0
 90 93  1  0
 90 92  1  0
 91 89  2  0
 94 95  1  0
 94 69  1  0
 96 94  1  0
M  ISO  4  14 101  15 101  59 100  67 100
M  END
>  <TORSDO>  (80) 
F 24

>  <SCORE>  (80) 
-7.542

>  <name>  (80) 
79

>  <ligand_id>  (80) 
79

>  <original_smiles>  (80) 
[H]c1c([H])c([H])c2c(c1[H])C([H])([H])C([H])([H])C([H])([H])C2([H])N([H])C(=O)C1([H])N(C(=O)C([H])(N([H])C(=O)C([H])(N([H])C([H])([H])[H])C([H])([H])[H])C(C([H])([H])[H])(C([H])([H])[H])C([H])([H])[H])C([H])([H])c2c([H])c(OC([H])([H])C([H])([H])Oc3c([H])c(OC([H])([H])C([H])([H])N([H])C(=O)N4C([H])([H])C([H])([H])C([H])([H])C([H])(n5nc(-c6c([H])c([H])c(Oc7c([H])c([H])c(F)c([H])c7F)c([H])c6[H])c(C(=O)N([H])[H])c5N([H])[H])C4([H])[H])c(C4([H])C([H])([H])C4([H])[H])c(C([H])([H])C([H])([H])[H])c3[H])c([H])c([H])c2C1([H])[H]

>  <smiles>  (80) 
[H]c1c([H])c([H])c2c(c1[H])C([H])([H])C([H])([H])C([H])([H])C2([H])N([H])C(=O)C1([H])N(C(=O)C([H])(N([H])C(=O)C([H])(N([H])C([H])([H])[H])C([H])([H])[H])C(C([H])([H])[H])(C([H])([H])[H])C([H])([H])[H])C([H])([H])c2c([H])c(OC([H])([H])C([H])([H])Oc3c([H])c(OC([H])([H])C([H])([H])N([H])C(=O)N4C([H])([H])C([H])([H])C([H])([H])C([H])(n5nc(-c6c([H])c([H])c(Oc7c([H])c([H])c(F)c([H])c7F)c([H])c6[H])c(C(=O)N([H])[H])c5N([H])[H])C4([H])[H])c(C4([H])C([H])([H])C4([H])[H])c(C([H])([H])C([H])([H])[H])c3[H])c([H])c([H])c2C1([H])[H]

$$$$
80:0:0
     RDKit          3D

 91 99  0  0  1  0  0  0  0  0999 V2000
  -30.2310  -20.1200   22.5670 C   0  0  0  0  0  3  0  0  0  0  0  0
  -29.8390  -21.2920   21.8940 C   0  0  0  0  0  2  0  0  0  0  0  0
  -30.3270  -18.8770   21.8890 C   0  0  0  0  0  0  0  0  0  0  0  0
  -30.0040  -18.8420   20.5130 C   0  0  0  0  0  3  0  0  0  0  0  0
  -29.5060  -21.2440   20.5310 C   0  0  0  0  0  0  0  0  0  0  0  0
  -29.5930  -20.0170   19.8680 N   0  0  0  0  0  0  0  0  0  0  0  0
  -31.1440  -17.7610   23.8650 C   0  0  0  0  0  1  0  0  0  0  0  0
  -30.7530  -17.7130   22.4980 O   0  0  0  0  0  0  0  0  0  0  0  0
  -30.2540  -17.4950   19.6830 C   0  0  0  0  0  2  0  0  0  0  0  0
  -30.8250  -14.9380   19.9850 C   0  0  0  0  0  0  0  0  0  0  0  0
  -30.5930  -12.6520   19.0000 C   0  0  0  0  0  2  0  0  0  0  0  0
  -29.6050  -12.7230   17.8150 C   0  0  0  0  0  2  0  0  0  0  0  0
  -28.1570  -12.5420   18.3070 C   0  0  0  0  0  2  0  0  0  0  0  0
  -27.8310  -13.4230   19.5420 C   0  0  0  0  0  3  0  0  0  0  0  0
  -28.9390  -13.3430   20.6180 C   0  0  0  0  0  2  0  0  0  0  0  0
  -30.2070  -13.7030   19.9720 N   0  0  0  0  0  0  0  0  0  0  0  0
  -31.9810  -15.0410   19.5650 O   0  0  0  0  0  0  0  0  0  0  0  0
  -30.0580  -16.0690   20.2250 N   0  0  0  0  0  0  0  0  0  0  0  0
  -29.1470  -15.8960   20.6190 H   0  0  0  0  0  0  0  0  0  0  0  0
  -25.4790  -13.9980   20.3860 C   0  0  0  0  0  0  0  0  0  0  0  0
  -24.4320  -13.2170   20.7940 C   0  0  0  0  0  0  0  0  0  0  0  0
  -24.8950  -11.8670   20.7230 C   0  0  0  0  0  0  0  0  0  0  0  0
  -26.5120  -13.1230   20.0890 N   0  0  0  0  0  0  0  0  0  0  0  0
  -26.1700  -11.8360   20.3540 N   0  0  0  0  0  0  0  0  0  0  0  0
  -24.1770  -10.6010   20.9280 C   0  0  0  0  0  0  0  0  0  0  0  0
  -24.6070   -9.6560   21.8850 C   0  0  0  0  0  3  0  0  0  0  0  0
  -23.8900   -8.4560   22.0780 C   0  0  0  0  0  3  0  0  0  0  0  0
  -22.7280   -8.1920   21.3130 C   0  0  0  0  0  0  0  0  0  0  0  0
  -22.3170   -9.1270   20.3460 C   0  0  0  0  0  3  0  0  0  0  0  0
  -23.0360  -10.3180   20.1520 C   0  0  0  0  0  3  0  0  0  0  0  0
  -21.9820   -7.0430   21.4130 O   0  0  0  0  0  0  0  0  0  0  0  0
  -21.8650   -6.3620   22.5980 C   0  0  0  0  0  0  0  0  0  0  0  0
  -21.3050   -6.9600   23.7480 C   0  0  0  0  0  3  0  0  0  0  0  0
  -21.1400   -6.2020   24.9250 C   0  0  0  0  0  3  0  0  0  0  0  0
  -21.5230   -4.8490   24.9530 C   0  0  0  0  0  0  0  0  0  0  0  0
  -22.0760   -4.2510   23.8070 C   0  0  0  0  0  3  0  0  0  0  0  0
  -22.2430   -5.0040   22.6320 C   0  0  0  0  0  0  0  0  0  0  0  0
  -22.7570   -4.4180   21.5240 F   0  0  0  0  0  0  0  0  0  0  0  0
  -21.3580   -4.1190   26.0800 F   0  0  0  0  0  0  0  0  0  0  0  0
  -23.0490  -13.6890   21.1360 C   0  0  0  0  0  0  0  0  0  0  0  0
  -22.3670  -12.9880   22.0340 N   0  0  0  0  0  0  0  0  0  0  0  0
  -22.5830  -14.7160   20.6400 O   0  0  0  0  0  0  0  0  0  0  0  0
  -22.7560  -12.1580   22.4550 H   0  0  0  0  0  0  0  0  0  0  0  0
  -21.4410  -13.2870   22.3060 H   0  0  0  0  0  0  0  0  0  0  0  0
  -25.6320  -15.3710   20.2180 N   0  0  0  0  0  0  0  0  0  0  0  0
  -24.8650  -16.0180   20.3660 H   0  0  0  0  0  0  0  0  0  0  0  0
  -26.4520  -15.8150   19.8240 H   0  0  0  0  0  0  0  0  0  0  0  0
  -29.0630  -22.4050   19.8180 O   0  0  0  0  0  0  0  0  0  0  0  0
  -29.1260  -23.8070   20.3760 C   0  0  0  0  0  3  0  0  0  0  0  0
  -28.2510  -25.0110   19.7130 C   0  0  0  0  0  3  0  0  0  0  0  0
  -28.4300  -26.4830   20.0400 O   0  0  0  0  0  0  0  0  0  0  0  0
  -24.7180  -31.8890   23.1850 C   0  0  0  0  0  0  0  0  0  0  0  0
  -27.3280  -27.3790   19.9900 C   0  0  0  0  0  0  0  0  0  0  0  0
  -23.5080  -30.5130   21.5340 C   0  0  0  0  0  3  0  0  0  0  0  0
  -24.9550  -29.0140   20.0440 C   0  0  0  0  0  0  0  0  0  0  0  0
  -26.0460  -30.8510   21.3250 C   0  0  0  0  0  2  0  0  0  0  0  0
  -26.1310  -29.4850   20.6420 C   0  0  0  0  0  0  0  0  0  0  0  0
  -27.3170  -28.6790   20.6060 C   0  0  0  0  0  3  0  0  0  0  0  0
  -26.1310  -26.9940   19.3420 C   0  0  0  0  0  3  0  0  0  0  0  0
  -24.9620  -27.7780   19.3810 C   0  0  0  0  0  3  0  0  0  0  0  0
  -23.7100  -29.8760   20.1350 C   0  0  0  0  0  2  0  0  0  0  0  0
  -24.7770  -31.1030   22.0700 N   0  0  0  0  0  0  0  0  0  0  0  0
  -23.6390  -32.1420   23.7410 O   0  0  0  0  0  0  0  0  0  0  0  0
  -22.8710  -29.4670   22.4810 C   0  0  0  0  0  0  0  0  0  0  0  0
  -21.5480  -29.2630   22.3610 N   0  0  0  0  0  0  0  0  0  0  0  0
  -23.5680  -28.8430   23.2860 O   0  0  0  0  0  0  0  0  0  0  0  0
  -21.0430  -29.8200   21.6860 H   0  0  0  0  0  0  0  0  0  0  0  0
  -18.1960  -28.0000   22.8840 C   0  0  0  0  0  0  0  0  0  0  0  0
  -20.7550  -28.2960   23.1220 C   0  0  0  0  0  3  0  0  0  0  0  0
  -20.8700  -26.8800   22.5120 C   0  0  0  0  0  2  0  0  0  0  0  0
  -19.7590  -26.5620   21.5070 C   0  0  0  0  0  2  0  0  0  0  0  0
  -18.3850  -26.6700   22.1740 C   0  0  0  0  0  2  0  0  0  0  0  0
  -19.3100  -28.7700   23.3150 C   0  0  0  0  0  0  0  0  0  0  0  0
  -19.0790  -30.0150   23.9400 C   0  0  0  0  0  3  0  0  0  0  0  0
  -17.7690  -30.4900   24.1390 C   0  0  0  0  0  3  0  0  0  0  0  0
  -16.6710  -29.7160   23.7250 C   0  0  0  0  0  3  0  0  0  0  0  0
  -16.8860  -28.4730   23.1020 C   0  0  0  0  0  3  0  0  0  0  0  0
  -26.0000  -32.5270   23.8020 C   0  0  0  0  0  3  0  0  0  0  0  0
  -25.6800  -33.9190   24.1550 N   0  0  0  0  0  0  0  0  0  0  0  0
  -25.9970  -34.9870   23.4120 C   0  0  0  0  0  0  0  0  0  0  0  0
  -26.6600  -34.9050   22.3730 O   0  0  0  0  0  0  0  0  0  0  0  0
  -25.0910  -34.0550   24.9630 H   0  0  0  0  0  0  0  0  0  0  0  0
  -24.2630  -36.7810   23.0890 C   0  0  0  0  0  1  0  0  0  0  0  0
  -25.5030  -36.3640   23.8950 C   0  0  0  0  0  3  0  0  0  0  0  0
  -27.6250  -37.2500   24.7580 C   0  0  0  0  0  1  0  0  0  0  0  0
  -26.5320  -37.4240   23.8060 N   0  0  0  0  0  0  0  0  0  0  0  0
  -26.1190  -38.3400   23.9610 H   0  0  0  0  0  0  0  0  0  0  0  0
  -26.5360  -31.7470   25.0660 C   0  0  1  0  0  0  0  0  0  0  0  0
  -25.4500  -31.4650   26.1300 C   0  0  0  0  0  1  0  0  0  0  0  0
  -27.1510  -30.3890   24.6510 C   0  0  0  0  0  1  0  0  0  0  0  0
  -27.6680  -32.5560   25.7390 C   0  0  0  0  0  1  0  0  0  0  0  0
  2  1  1  0
  3  8  1  0
  3  1  2  0
  4  9  1  0
  4  3  1  0
  5  2  1  0
  6  4  1  0
  6  5  2  0
  8  7  1  0
  9 18  1  0
 10 18  1  0
 11 16  1  0
 12 13  1  0
 12 11  1  0
 14 13  1  0
 14 23  1  0
 14 15  1  0
 16 10  1  0
 16 15  1  0
 17 10  2  0
 18 19  1  0
 20 21  2  0
 21 40  1  0
 22 21  1  0
 22 25  1  0
 23 24  1  0
 23 20  1  0
 24 22  2  0
 25 26  1  0
 26 27  2  0
 28 31  1  0
 28 27  1  0
 29 28  2  0
 30 29  1  0
 30 25  2  0
 31 32  1  0
 32 37  2  0
 32 33  1  0
 33 34  2  0
 34 35  1  0
 35 39  1  0
 36 35  2  0
 37 36  1  0
 38 37  1  0
 40 41  1  0
 41 44  1  0
 41 43  1  0
 42 40  2  0
 45 46  1  0
 45 20  1  0
 47 45  1  0
 48 49  1  0
 48  5  1  0
 50 51  1  0
 50 49  2  0
 52 63  2  0
 53 51  1  0
 53 58  1  0
 54 62  1  0
 54 64  1  0
 55 61  1  0
 55 57  1  0
 56 62  1  0
 57 56  1  0
 58 57  2  0
 59 60  1  0
 59 53  2  0
 60 55  2  0
 61 54  1  0
 62 52  1  0
 64 66  2  0
 65 64  1  0
 67 65  1  0
 68 77  2  0
 68 73  1  0
 69 65  1  0
 69 73  1  0
 70 69  1  0
 71 72  1  0
 71 70  1  0
 72 68  1  0
 73 74  2  0
 74 75  1  0
 76 75  2  0
 77 76  1  0
 78 52  1  0
 78 79  1  0
 78 88  1  0
 79 82  1  0
 80 84  1  0
 80 79  1  0
 81 80  2  0
 84 83  1  0
 86 84  1  0
 86 87  1  0
 86 85  1  0
 88 91  1  1
 88 89  1  0
 90 88  1  0
M  ISO  4  10 100  18 100  50 101  51 101
M  END
>  <TORSDO>  (81) 
F 21

>  <SCORE>  (81) 
-11.847

>  <name>  (81) 
80

>  <ligand_id>  (81) 
80

>  <original_smiles>  (81) 
[H]c1c(OC([H])([H])C([H])([H])Oc2c([H])c([H])c3c(c2[H])C([H])([H])N(C(=O)C([H])(N([H])C(=O)C([H])(N([H])C([H])([H])[H])C([H])([H])[H])C(C([H])([H])[H])(C([H])([H])[H])C([H])([H])[H])C([H])(C(=O)N([H])C2([H])c4c([H])c([H])c([H])c([H])c4C([H])([H])C([H])([H])C2([H])[H])C3([H])[H])nc(C([H])([H])N([H])C(=O)N2C([H])([H])C([H])([H])C([H])([H])C([H])(n3nc(-c4c([H])c([H])c(Oc5c([H])c([H])c(F)c([H])c5F)c([H])c4[H])c(C(=O)N([H])[H])c3N([H])[H])C2([H])[H])c(OC([H])([H])[H])c1[H]

>  <smiles>  (81) 
[H]c1c(OC([H])([H])C([H])([H])Oc2c([H])c([H])c3c(c2[H])C([H])([H])N(C(=O)C([H])(N([H])C(=O)C([H])(N([H])C([H])([H])[H])C([H])([H])[H])C(C([H])([H])[H])(C([H])([H])[H])C([H])([H])[H])C([H])(C(=O)N([H])C2([H])c4c([H])c([H])c([H])c([H])c4C([H])([H])C([H])([H])C2([H])[H])C3([H])[H])nc(C([H])([H])N([H])C(=O)N2C([H])([H])C([H])([H])C([H])([H])C([H])(n3nc(-c4c([H])c([H])c(Oc5c([H])c([H])c(F)c([H])c5F)c([H])c4[H])c(C(=O)N([H])[H])c3N([H])[H])C2([H])[H])c(OC([H])([H])[H])c1[H]

$$$$
81:0:0
     RDKit          3D

 98104  0  0  1  0  0  0  0  0999 V2000
  -25.3040  -21.8100   19.4540 C   0  0  0  0  0  3  0  0  0  0  0  0
  -27.1840  -23.2850   19.5130 C   0  0  0  0  0  3  0  0  0  0  0  0
  -24.2100  -22.9140   19.2860 C   0  0  0  0  0  0  0  0  0  0  0  0
  -24.8150  -24.1810   19.5010 C   0  0  0  0  0  0  0  0  0  0  0  0
  -26.3100  -24.4440   19.4010 C   0  0  0  0  0  0  0  0  0  0  0  0
  -26.8450  -21.9020   19.6350 C   0  0  0  0  0  0  0  0  0  0  0  0
  -22.3860  -22.9200   19.0710 C   0  0  0  0  0  2  0  0  0  0  0  0
  -23.7100  -24.8780   20.3380 C   0  0  0  0  0  2  0  0  0  0  0  0
  -22.2760  -25.1190   19.6710 C   0  0  0  0  0  2  0  0  0  0  0  0
  -20.9360  -24.2240   18.9570 C   0  0  0  0  0  2  0  0  0  0  0  0
  -19.2120  -26.4770   15.7830 C   0  0  0  0  0  2  0  0  0  0  0  0
  -19.4770  -25.2160   15.0510 C   0  0  0  0  0  2  0  0  0  0  0  0
  -19.2770  -25.1500   16.6550 C   0  0  0  0  0  3  0  0  0  0  0  0
  -17.9550  -24.6800   16.2170 O   0  0  0  0  0  0  0  0  0  0  0  0
  -17.3440  -24.9820   16.8820 H   0  0  0  0  0  0  0  0  0  0  0  0
  -27.3370  -25.6900   18.9880 C   0  0  0  0  0  2  0  0  0  0  0  0
  -28.0800  -26.8770   19.6000 O   0  0  0  0  0  0  0  0  0  0  0  0
  -24.9530  -30.4360   24.5400 C   0  0  0  0  0  0  0  0  0  0  0  0
  -27.5130  -28.1150   19.6990 C   0  0  0  0  0  0  0  0  0  0  0  0
  -24.0110  -30.5210   22.2940 C   0  0  0  0  0  3  0  0  0  0  0  0
  -25.5330  -29.9590   20.3280 C   0  0  0  0  0  0  0  0  0  0  0  0
  -26.5250  -30.5070   22.5690 C   0  0  0  0  0  2  0  0  0  0  0  0
  -26.6040  -29.7900   21.2180 C   0  0  0  0  0  0  0  0  0  0  0  0
  -27.6470  -28.8910   20.8880 C   0  0  0  0  0  3  0  0  0  0  0  0
  -26.5710  -28.4650   18.7340 C   0  0  0  0  0  3  0  0  0  0  0  0
  -25.5440  -29.3470   19.0690 C   0  0  0  0  0  3  0  0  0  0  0  0
  -24.3870  -30.8150   20.8140 C   0  0  0  0  0  2  0  0  0  0  0  0
  -25.1830  -30.4850   23.1980 N   0  0  0  0  0  0  0  0  0  0  0  0
  -23.8040  -30.4600   25.0100 O   0  0  0  0  0  0  0  0  0  0  0  0
  -23.2460  -29.2100   22.4200 C   0  0  0  0  0  0  0  0  0  0  0  0
  -21.9680  -29.3800   22.6570 N   0  0  0  0  0  0  0  0  0  0  0  0
  -23.7980  -28.0980   22.3250 O   0  0  0  0  0  0  0  0  0  0  0  0
  -21.6080  -30.3130   22.7480 H   0  0  0  0  0  0  0  0  0  0  0  0
  -18.2360  -27.9300   22.0170 C   0  0  0  0  0  0  0  0  0  0  0  0
  -21.0840  -28.4600   22.0980 C   0  0  0  0  0  2  0  0  0  0  0  0
  -21.4760  -28.4280   20.1160 C   0  0  0  0  0 15  0  0  0  0  0  0
  -19.8300  -27.8190   19.0270 C   0  0  0  0  0 15  0  0  0  0  0  0
  -18.2560  -27.3820   20.2390 C   0  0  0  0  0  1  0  0  0  0  0  0
  -19.4920  -28.3910   22.8000 C   0  0  0  0  0  0  0  0  0  0  0  0
  -19.3430  -29.2790   23.9300 C   0  0  0  0  0  3  0  0  0  0  0  0
  -18.1350  -29.8950   24.3150 C   0  0  0  0  0  3  0  0  0  0  0  0
  -16.9920  -29.6040   23.5610 C   0  0  0  0  0  3  0  0  0  0  0  0
  -17.0420  -28.6570   22.4850 C   0  0  0  0  0  3  0  0  0  0  0  0
  -26.1370  -30.3740   25.5470 C   0  0  0  0  0  3  0  0  0  0  0  0
  -26.4370  -31.7650   25.8890 N   0  0  0  0  0  0  0  0  0  0  0  0
  -27.4990  -32.4390   25.4300 C   0  0  0  0  0  0  0  0  0  0  0  0
  -28.3770  -31.9100   24.7390 O   0  0  0  0  0  0  0  0  0  0  0  0
  -25.7440  -32.2590   26.4340 H   0  0  0  0  0  0  0  0  0  0  0  0
  -27.2950  -34.7910   24.5850 C   0  0  0  0  0  1  0  0  0  0  0  0
  -27.6110  -33.9220   25.8140 C   0  0  0  0  0  3  0  0  0  0  0  0
  -29.2160  -33.6560   27.6500 C   0  0  0  0  0  1  0  0  0  0  0  0
  -28.9370  -34.2800   26.3600 N   0  0  0  0  0  0  0  0  0  0  0  0
  -29.0230  -35.2860   26.4750 H   0  0  0  0  0  0  0  0  0  0  0  0
  -25.8110  -29.5310   26.8360 C   0  0  1  0  0  0  0  0  0  0  0  0
  -24.4610  -29.8910   27.4980 C   0  0  0  0  0  1  0  0  0  0  0  0
  -25.7930  -28.0190   26.5120 C   0  0  0  0  0  1  0  0  0  0  0  0
  -26.9320  -29.7420   27.8780 C   0  0  0  0  0  1  0  0  0  0  0  0
  -27.9330  -20.8290   20.0180 O   0  0  0  0  0  0  0  0  0  0  0  0
  -29.0990  -19.7890   19.3410 C   0  0  0  0  0  2  0  0  0  0  0  0
  -30.4680  -18.6140   19.8070 C   0  0  0  0  0  2  0  0  0  0  0  0
  -32.0420  -15.9120   19.6240 C   0  0  0  0  0  0  0  0  0  0  0  0
  -32.3970  -13.3290   19.1520 C   0  0  0  0  0  2  0  0  0  0  0  0
  -31.5350  -12.8390   17.9490 C   0  0  0  0  0  2  0  0  0  0  0  0
  -30.0390  -12.7060   18.3250 C   0  0  0  0  0  2  0  0  0  0  0  0
  -29.5900  -13.8910   19.2140 C   0  0  0  0  0  3  0  0  0  0  0  0
  -30.5210  -14.0770   20.4080 C   0  0  0  0  0  2  0  0  0  0  0  0
  -31.7370  -14.5360   19.7820 N   0  0  0  0  0  0  0  0  0  0  0  0
  -33.2720  -16.0500   19.3720 O   0  0  0  0  0  0  0  0  0  0  0  0
  -30.9420  -16.9620   19.6370 N   0  0  0  0  0  0  0  0  0  0  0  0
  -30.0880  -16.4430   19.7520 H   0  0  0  0  0  0  0  0  0  0  0  0
  -27.3690  -14.8540   19.9270 C   0  0  0  0  0  0  0  0  0  0  0  0
  -26.2070  -14.2510   20.3220 C   0  0  0  0  0  0  0  0  0  0  0  0
  -26.4660  -12.8430   20.3300 C   0  0  0  0  0  0  0  0  0  0  0  0
  -28.2410  -13.8110   19.6880 N   0  0  0  0  0  0  0  0  0  0  0  0
  -27.7290  -12.5990   20.0010 N   0  0  0  0  0  0  0  0  0  0  0  0
  -25.5690  -11.7070   20.5430 C   0  0  0  0  0  0  0  0  0  0  0  0
  -25.8930  -10.6730   21.4450 C   0  0  0  0  0  3  0  0  0  0  0  0
  -25.0030   -9.5970   21.6350 C   0  0  0  0  0  3  0  0  0  0  0  0
  -23.7780   -9.5570   20.9300 C   0  0  0  0  0  0  0  0  0  0  0  0
  -23.4740  -10.5820   20.0190 C   0  0  0  0  0  3  0  0  0  0  0  0
  -24.3610  -11.6510   19.8250 C   0  0  0  0  0  3  0  0  0  0  0  0
  -22.8570   -8.5490   21.0430 O   0  0  0  0  0  0  0  0  0  0  0  0
  -22.4860   -8.0500   22.2660 C   0  0  0  0  0  0  0  0  0  0  0  0
  -21.8600   -8.8560   23.2420 C   0  0  0  0  0  3  0  0  0  0  0  0
  -21.4340   -8.2870   24.4590 C   0  0  0  0  0  3  0  0  0  0  0  0
  -21.6190   -6.9110   24.6930 C   0  0  0  0  0  0  0  0  0  0  0  0
  -22.2310   -6.1020   23.7180 C   0  0  0  0  0  3  0  0  0  0  0  0
  -22.6590   -6.6720   22.5070 C   0  0  0  0  0  0  0  0  0  0  0  0
  -23.2350   -5.8850   21.5660 F   0  0  0  0  0  0  0  0  0  0  0  0
  -21.1960   -6.3620   25.8570 F   0  0  0  0  0  0  0  0  0  0  0  0
  -24.9010  -14.9450   20.5690 C   0  0  0  0  0  0  0  0  0  0  0  0
  -24.0760  -14.4010   21.4560 N   0  0  0  0  0  0  0  0  0  0  0  0
  -24.6250  -16.0050   20.0100 O   0  0  0  0  0  0  0  0  0  0  0  0
  -24.3070  -13.5430   21.9310 H   0  0  0  0  0  0  0  0  0  0  0  0
  -23.2010  -14.8530   21.6700 H   0  0  0  0  0  0  0  0  0  0  0  0
  -27.7360  -16.1800   19.7130 N   0  0  0  0  0  0  0  0  0  0  0  0
  -26.9890  -16.8680   19.7360 H   0  0  0  0  0  0  0  0  0  0  0  0
  -28.4610  -16.4100   19.0460 H   0  0  0  0  0  0  0  0  0  0  0  0
  1  6  1  0
  2  6  2  0
  3  1  2  0
  3  4  1  0
  4  8  1  0
  5  4  2  0
  5  2  1  0
  6 58  1  0
  7  3  1  0
  9  8  1  0
 10  7  1  0
 10  9  1  0
 11 13  1  0
 12 11  1  0
 12 13  1  0
 14 13  1  0
 14 15  1  0
 16  5  1  0
 16 17  1  0
 17 19  1  0
 18 29  2  0
 19 24  1  0
 20 30  1  0
 20 28  1  0
 21 27  1  0
 21 23  1  0
 22 28  1  0
 23 22  1  0
 24 23  2  0
 25 26  1  0
 25 19  2  0
 26 21  2  0
 27 20  1  0
 28 18  1  0
 30 31  1  0
 31 33  1  0
 32 30  2  0
 34 43  2  0
 34 39  1  0
 35 31  1  0
 35 39  1  0
 38 34  1  0
 39 40  2  0
 40 41  1  0
 42 41  2  0
 43 42  1  0
 44 18  1  0
 44 45  1  0
 44 54  1  0
 45 48  1  0
 46 50  1  0
 46 45  1  0
 47 46  2  0
 50 49  1  0
 50 52  1  0
 52 53  1  0
 52 51  1  0
 54 55  1  1
 54 57  1  0
 56 54  1  0
 59 60  1  0
 59 58  1  0
 61 69  1  0
 61 67  1  0
 62 67  1  0
 63 64  1  0
 63 62  1  0
 65 64  1  0
 65 74  1  0
 65 66  1  0
 67 66  1  0
 68 61  2  0
 69 70  1  0
 69 60  1  0
 71 72  2  0
 72 73  1  0
 72 91  1  0
 73 76  1  0
 74 71  1  0
 74 75  1  0
 75 73  2  0
 76 77  1  0
 77 78  2  0
 79 82  1  0
 79 78  1  0
 80 79  2  0
 81 80  1  0
 81 76  2  0
 82 83  1  0
 83 88  2  0
 83 84  1  0
 84 85  2  0
 85 86  1  0
 86 90  1  0
 87 86  2  0
 88 87  1  0
 89 88  1  0
 91 92  1  0
 92 95  1  0
 92 94  1  0
 93 91  2  0
 96 97  1  0
 96 71  1  0
 98 96  1  0
M  ISO  4  16 101  17 101  61 100  69 100
M  END
>  <TORSDO>  (82) 
F 22

>  <SCORE>  (82) 
-9.011

>  <name>  (82) 
81

>  <ligand_id>  (82) 
81

>  <original_smiles>  (82) 
[H]OC1(C2([H])C([H])([H])c3c([H])c(OC([H])([H])C([H])([H])N([H])C(=O)N4C([H])([H])C([H])([H])C([H])([H])C([H])(n5nc(-c6c([H])c([H])c(Oc7c([H])c([H])c(F)c([H])c7F)c([H])c6[H])c(C(=O)N([H])[H])c5N([H])[H])C4([H])[H])c([H])c(C([H])([H])Oc4c([H])c([H])c5c(c4[H])C([H])([H])N(C(=O)C([H])(N([H])C(=O)C([H])(N([H])C([H])([H])[H])C([H])([H])[H])C(C([H])([H])[H])(C([H])([H])[H])C([H])([H])[H])C([H])(C(=O)N([H])C4([H])c6c([H])c([H])c([H])c([H])c6C([H])([H])C([H])([H])C4([H])[H])C5([H])[H])c3C([H])([H])C2([H])[H])C([H])([H])C1([H])[H]

>  <smiles>  (82) 
[H]OC1(C2([H])C([H])([H])c3c([H])c(OC([H])([H])C([H])([H])N([H])C(=O)N4C([H])([H])C([H])([H])C([H])([H])C([H])(n5nc(-c6c([H])c([H])c(Oc7c([H])c([H])c(F)c([H])c7F)c([H])c6[H])c(C(=O)N([H])[H])c5N([H])[H])C4([H])[H])c([H])c(C([H])([H])Oc4c([H])c([H])c5c(c4[H])C([H])([H])N(C(=O)C([H])(N([H])C(=O)C([H])(N([H])C([H])([H])[H])C([H])([H])[H])C(C([H])([H])[H])(C([H])([H])[H])C([H])([H])[H])C([H])(C(=O)N([H])C4([H])c6c([H])c([H])c([H])c([H])c6C([H])([H])C([H])([H])C4([H])[H])C5([H])[H])c3C([H])([H])C2([H])[H])C([H])([H])C1([H])[H]

$$$$
82:0:0
     RDKit          3D

 97106  0  0  1  0  0  0  0  0999 V2000
  -28.3290  -22.7520   19.8420 C   0  0  0  0  0  3  0  0  0  0  0  0
  -30.3260  -24.1150   19.6910 C   0  0  0  0  0  3  0  0  0  0  0  0
  -28.9320  -24.0230   19.8760 C   0  0  0  0  0  0  0  0  0  0  0  0
  -29.0600  -21.5770   19.6030 C   0  0  0  0  0  0  0  0  0  0  0  0
  -30.4650  -21.6540   19.4250 C   0  0  0  0  0  0  0  0  0  0  0  0
  -31.0940  -22.9360   19.4550 C   0  0  0  0  0  0  0  0  0  0  0  0
  -28.2780  -20.2760   19.4740 C   0  0  0  0  0  1  0  0  0  0  0  0
  -33.0700  -24.2170   18.9110 C   0  0  0  0  0  1  0  0  0  0  0  0
  -32.4530  -22.9680   19.2130 O   0  0  0  0  0  0  0  0  0  0  0  0
  -31.2960  -20.3930   19.1260 C   0  0  0  0  0  2  0  0  0  0  0  0
  -31.8380  -19.6440   20.3700 C   0  0  0  0  0  2  0  0  0  0  0  0
  -31.0510  -17.0300   22.7390 C   0  0  0  0  0  2  0  0  0  0  0  0
  -31.2480  -18.5350   22.5120 C   0  0  0  0  0  2  0  0  0  0  0  0
  -30.4620  -17.5310   20.4900 C   0  0  0  0  0  2  0  0  0  0  0  0
  -31.1680  -16.4400   21.3240 C   0  0  0  0  0  3  0  0  0  0  0  0
  -30.8310  -18.8340   21.1160 N   0  0  2  0  0  4  0  0  0  0  0  0
  -29.9990  -19.4020   21.1800 H   0  0  0  0  0  0  0  0  0  0  0  0
  -30.7710  -14.4470   19.9130 C   0  0  0  0  0  0  0  0  0  0  0  0
  -30.1630  -12.5020   18.5060 C   0  0  0  0  0  2  0  0  0  0  0  0
  -29.1140  -12.8280   17.4250 C   0  0  0  0  0  2  0  0  0  0  0  0
  -27.6890  -12.6870   17.9940 C   0  0  0  0  0  2  0  0  0  0  0  0
  -27.5100  -13.4200   19.3480 C   0  0  0  0  0  3  0  0  0  0  0  0
  -28.6630  -13.1020   20.3280 C   0  0  0  0  0  2  0  0  0  0  0  0
  -29.9530  -13.3830   19.6670 N   0  0  0  0  0  0  0  0  0  0  0  0
  -31.5960  -14.8490   19.0850 O   0  0  0  0  0  0  0  0  0  0  0  0
  -30.9330  -14.1790   22.3090 C   0  0  0  0  0  1  0  0  0  0  0  0
  -30.6810  -15.0400   21.1370 N   0  0  0  0  0  0  0  0  0  0  0  0
  -25.1910  -13.9950   20.3210 C   0  0  0  0  0  0  0  0  0  0  0  0
  -24.1590  -13.2060   20.7520 C   0  0  0  0  0  0  0  0  0  0  0  0
  -24.6040  -11.8570   20.6050 C   0  0  0  0  0  0  0  0  0  0  0  0
  -26.2030  -13.1250   19.9420 N   0  0  0  0  0  0  0  0  0  0  0  0
  -25.8560  -11.8310   20.1710 N   0  0  0  0  0  0  0  0  0  0  0  0
  -23.8890  -10.5890   20.7970 C   0  0  0  0  0  0  0  0  0  0  0  0
  -24.4030   -9.5680   21.6270 C   0  0  0  0  0  3  0  0  0  0  0  0
  -23.6840   -8.3670   21.8150 C   0  0  0  0  0  3  0  0  0  0  0  0
  -22.4380   -8.1780   21.1720 C   0  0  0  0  0  0  0  0  0  0  0  0
  -21.9390   -9.1900   20.3340 C   0  0  0  0  0  3  0  0  0  0  0  0
  -22.6580  -10.3820   20.1450 C   0  0  0  0  0  3  0  0  0  0  0  0
  -21.6840   -7.0320   21.2730 O   0  0  0  0  0  0  0  0  0  0  0  0
  -21.7580   -6.2160   22.3730 C   0  0  0  0  0  0  0  0  0  0  0  0
  -21.5150   -6.7020   23.6760 C   0  0  0  0  0  3  0  0  0  0  0  0
  -21.5310   -5.8160   24.7720 C   0  0  0  0  0  3  0  0  0  0  0  0
  -21.7810   -4.4460   24.5680 C   0  0  0  0  0  0  0  0  0  0  0  0
  -22.0210   -3.9610   23.2710 C   0  0  0  0  0  3  0  0  0  0  0  0
  -22.0050   -4.8420   22.1760 C   0  0  0  0  0  0  0  0  0  0  0  0
  -22.2130   -4.3640   20.9250 F   0  0  0  0  0  0  0  0  0  0  0  0
  -21.7910   -3.5940   25.6200 F   0  0  0  0  0  0  0  0  0  0  0  0
  -22.8000  -13.6730   21.1860 C   0  0  0  0  0  0  0  0  0  0  0  0
  -22.1660  -12.9510   22.1040 N   0  0  0  0  0  0  0  0  0  0  0  0
  -22.3130  -14.7160   20.7490 O   0  0  0  0  0  0  0  0  0  0  0  0
  -22.5710  -12.1070   22.4800 H   0  0  0  0  0  0  0  0  0  0  0  0
  -21.2660  -13.2540   22.4450 H   0  0  0  0  0  0  0  0  0  0  0  0
  -25.3430  -15.3730   20.2000 N   0  0  0  0  0  0  0  0  0  0  0  0
  -24.5930  -16.0130   20.4450 H   0  0  0  0  0  0  0  0  0  0  0  0
  -26.1550  -15.8440   19.8230 H   0  0  0  0  0  0  0  0  0  0  0  0
  -27.9460  -25.1900   19.9240 C   0  0  0  0  0  2  0  0  0  0  0  0
  -28.2980  -26.5740   20.1850 O   0  0  0  0  0  0  0  0  0  0  0  0
  -24.6140  -31.9220   23.2710 C   0  0  0  0  0  0  0  0  0  0  0  0
  -27.1710  -27.4080   20.1640 C   0  0  0  0  0  0  0  0  0  0  0  0
  -23.3840  -30.5380   21.6440 C   0  0  0  0  0  3  0  0  0  0  0  0
  -24.8040  -29.0000   20.2060 C   0  0  0  0  0  0  0  0  0  0  0  0
  -25.9220  -30.8530   21.4310 C   0  0  0  0  0  2  0  0  0  0  0  0
  -25.9850  -29.4810   20.7850 C   0  0  0  0  0  0  0  0  0  0  0  0
  -27.1720  -28.6950   20.7630 C   0  0  0  0  0  3  0  0  0  0  0  0
  -25.9510  -26.9770   19.5710 C   0  0  0  0  0  3  0  0  0  0  0  0
  -24.7840  -27.7450   19.6010 C   0  0  0  0  0  3  0  0  0  0  0  0
  -23.5750  -29.8770   20.2600 C   0  0  0  0  0  2  0  0  0  0  0  0
  -24.6610  -31.1180   22.1740 N   0  0  0  0  0  0  0  0  0  0  0  0
  -23.5380  -32.2040   23.8160 O   0  0  0  0  0  0  0  0  0  0  0  0
  -22.7260  -29.5150   22.6010 C   0  0  0  0  0  0  0  0  0  0  0  0
  -21.3990  -29.3420   22.4730 N   0  0  0  0  0  0  0  0  0  0  0  0
  -23.4040  -28.8830   23.4150 O   0  0  0  0  0  0  0  0  0  0  0  0
  -20.9100  -29.9040   21.7880 H   0  0  0  0  0  0  0  0  0  0  0  0
  -18.0190  -28.1550   22.9620 C   0  0  0  0  0  0  0  0  0  0  0  0
  -20.5770  -28.4100   23.2450 C   0  0  0  0  0  3  0  0  0  0  0  0
  -20.6780  -26.9750   22.6810 C   0  0  0  0  0  2  0  0  0  0  0  0
  -19.5810  -26.6470   21.6630 C   0  0  0  0  0  2  0  0  0  0  0  0
  -18.1960  -26.8000   22.2990 C   0  0  0  0  0  2  0  0  0  0  0  0
  -19.1380  -28.9180   23.3920 C   0  0  0  0  0  0  0  0  0  0  0  0
  -18.9180  -30.1880   23.9680 C   0  0  0  0  0  3  0  0  0  0  0  0
  -17.6140  -30.6950   24.1220 C   0  0  0  0  0  3  0  0  0  0  0  0
  -16.5090  -29.9290   23.7090 C   0  0  0  0  0  3  0  0  0  0  0  0
  -16.7130  -28.6630   23.1340 C   0  0  0  0  0  3  0  0  0  0  0  0
  -25.9090  -32.5390   23.8820 C   0  0  0  0  0  3  0  0  0  0  0  0
  -25.6130  -33.9350   24.2270 N   0  0  0  0  0  0  0  0  0  0  0  0
  -25.9260  -34.9890   23.4620 C   0  0  0  0  0  0  0  0  0  0  0  0
  -26.5750  -34.8890   22.4170 O   0  0  0  0  0  0  0  0  0  0  0  0
  -25.0440  -34.0880   25.0460 H   0  0  0  0  0  0  0  0  0  0  0  0
  -24.1900  -36.7820   23.1550 C   0  0  0  0  0  1  0  0  0  0  0  0
  -25.4520  -36.3770   23.9340 C   0  0  0  0  0  3  0  0  0  0  0  0
  -27.6110  -37.2580   24.7050 C   0  0  0  0  0  1  0  0  0  0  0  0
  -26.4810  -37.4310   23.7940 N   0  0  0  0  0  0  0  0  0  0  0  0
  -26.0810  -38.3520   23.9570 H   0  0  0  0  0  0  0  0  0  0  0  0
  -26.4340  -31.7500   25.1430 C   0  0  1  0  0  0  0  0  0  0  0  0
  -25.3500  -31.5090   26.2200 C   0  0  0  0  0  1  0  0  0  0  0  0
  -27.0010  -30.3730   24.7270 C   0  0  0  0  0  1  0  0  0  0  0  0
  -27.5980  -32.5280   25.8000 C   0  0  0  0  0  1  0  0  0  0  0  0
  1  3  1  0
  2  3  2  0
  3 56  1  0
  4  1  2  0
  5  6  2  0
  5  4  1  0
  6  2  1  0
  7  4  1  0
  8  9  1  0
  9  6  1  0
 10  5  1  0
 10 11  1  0
 11 16  1  0
 13 12  1  0
 14 16  1  0
 14 15  1  0
 15 27  1  0
 15 12  1  0
 16 17  1  1
 16 13  1  0
 18 27  1  0
 19 24  1  0
 20 21  1  0
 20 19  1  0
 22 21  1  0
 22 31  1  0
 22 23  1  0
 24 18  1  0
 24 23  1  0
 25 18  2  0
 27 26  1  0
 28 29  2  0
 29 48  1  0
 30 29  1  0
 30 33  1  0
 31 32  1  0
 31 28  1  0
 32 30  2  0
 33 34  1  0
 34 35  2  0
 36 39  1  0
 36 35  1  0
 37 36  2  0
 38 37  1  0
 38 33  2  0
 39 40  1  0
 40 41  1  0
 41 42  2  0
 43 42  1  0
 43 47  1  0
 44 43  2  0
 45 40  2  0
 45 44  1  0
 46 45  1  0
 48 49  1  0
 49 52  1  0
 49 51  1  0
 50 48  2  0
 53 28  1  0
 53 54  1  0
 55 53  1  0
 56 57  1  0
 58 69  2  0
 59 57  1  0
 59 64  1  0
 60 68  1  0
 60 70  1  0
 61 67  1  0
 61 63  1  0
 62 68  1  0
 63 62  1  0
 64 63  2  0
 65 66  1  0
 65 59  2  0
 66 61  2  0
 67 60  1  0
 68 58  1  0
 70 72  2  0
 71 70  1  0
 73 71  1  0
 74 83  2  0
 74 79  1  0
 75 71  1  0
 75 79  1  0
 76 75  1  0
 77 78  1  0
 77 76  1  0
 78 74  1  0
 79 80  2  0
 80 81  1  0
 82 81  2  0
 83 82  1  0
 84 58  1  0
 84 85  1  0
 84 94  1  0
 85 88  1  0
 86 90  1  0
 86 85  1  0
 87 86  2  0
 90 89  1  0
 92 90  1  0
 92 93  1  0
 92 91  1  0
 94 97  1  1
 94 95  1  0
 96 94  1  0
M  ISO  4  18 100  27 100  56 101  57 101
M  END
>  <TORSDO>  (83) 
F 21

>  <SCORE>  (83) 
-11.613

>  <name>  (83) 
82

>  <ligand_id>  (83) 
82

>  <original_smiles>  (83) 
[H]c1c([H])c([H])c2c(c1[H])C([H])([H])C([H])([H])C([H])([H])C2([H])N([H])C(=O)C1([H])N(C(=O)C([H])(N([H])C(=O)C([H])(N([H])C([H])([H])[H])C([H])([H])[H])C(C([H])([H])[H])(C([H])([H])[H])C([H])([H])[H])C([H])([H])c2c([H])c(OC([H])([H])c3c([H])c(OC([H])([H])[H])c(C([H])([H])C([H])([H])[N+]4([H])C([H])([H])C([H])([H])C([H])(N(C(=O)N5C([H])([H])C([H])([H])C([H])([H])C([H])(n6nc(-c7c([H])c([H])c(Oc8c([H])c([H])c(F)c([H])c8F)c([H])c7[H])c(C(=O)N([H])[H])c6N([H])[H])C5([H])[H])C([H])([H])[H])C4([H])[H])c(C([H])([H])[H])c3[H])c([H])c([H])c2C1([H])[H]

>  <smiles>  (83) 
[H]c1c([H])c([H])c2c(c1[H])C([H])([H])C([H])([H])C([H])([H])C2([H])N([H])C(=O)C1([H])N(C(=O)C([H])(N([H])C(=O)C([H])(N([H])C([H])([H])[H])C([H])([H])[H])C(C([H])([H])[H])(C([H])([H])[H])C([H])([H])[H])C([H])([H])c2c([H])c(OC([H])([H])c3c([H])c(OC([H])([H])[H])c(C([H])([H])C([H])([H])[N+]4([H])C([H])([H])C([H])([H])C([H])(N(C(=O)N5C([H])([H])C([H])([H])C([H])([H])C([H])(n6nc(-c7c([H])c([H])c(Oc8c([H])c([H])c(F)c([H])c8F)c([H])c7[H])c(C(=O)N([H])[H])c6N([H])[H])C5([H])[H])C([H])([H])[H])C4([H])[H])c(C([H])([H])[H])c3[H])c([H])c([H])c2C1([H])[H]

$$$$
83:0:0
     RDKit          3D

100109  0  0  1  0  0  0  0  0999 V2000
  -30.5600  -24.1510   18.9830 C   0  0  0  0  0  3  0  0  0  0  0  0
  -31.2690  -21.7990   18.8400 C   0  0  0  0  0  3  0  0  0  0  0  0
  -29.8570  -22.5460   20.6820 C   0  0  0  0  0  0  0  0  0  0  0  0
  -29.8370  -23.9190   20.1680 C   0  0  0  0  0  0  0  0  0  0  0  0
  -31.2800  -23.1250   18.3280 C   0  0  0  0  0  0  0  0  0  0  0  0
  -30.5720  -21.4570   20.0180 C   0  0  0  0  0  0  0  0  0  0  0  0
  -30.7620  -20.6910   24.9330 C   0  0  0  0  0  0  0  0  0  0  0  0
  -28.5290  -20.7790   21.9860 C   0  0  0  0  0  3  0  0  0  0  0  0
  -29.0410  -20.1010   23.2610 C   0  0  0  0  0  3  0  0  0  0  0  0
  -29.9750  -22.3300   23.2330 C   0  0  0  0  0  2  0  0  0  0  0  0
  -29.1020  -22.2040   21.9750 C   0  0  0  0  0  3  0  0  0  0  0  0
  -31.7210  -21.7380   25.4900 C   0  0  0  0  0  1  0  0  0  0  0  0
  -29.9620  -21.0330   23.9030 N   0  0  0  0  0  0  0  0  0  0  0  0
  -30.7500  -19.5660   25.4410 O   0  0  0  0  0  0  0  0  0  0  0  0
  -29.0770  -25.1480   20.8500 C   0  0  0  0  0  2  0  0  0  0  0  0
  -29.3210  -26.5920   20.4750 O   0  0  0  0  0  0  0  0  0  0  0  0
  -25.2300  -31.8410   23.4320 C   0  0  0  0  0  0  0  0  0  0  0  0
  -28.1890  -27.4410   20.4150 C   0  0  0  0  0  0  0  0  0  0  0  0
  -24.1570  -30.3760   21.7600 C   0  0  0  0  0  3  0  0  0  0  0  0
  -25.7370  -28.9370   20.3500 C   0  0  0  0  0  0  0  0  0  0  0  0
  -26.6780  -30.8530   21.6350 C   0  0  0  0  0  2  0  0  0  0  0  0
  -26.8640  -29.4840   20.9790 C   0  0  0  0  0  0  0  0  0  0  0  0
  -28.0950  -28.7480   21.0010 C   0  0  0  0  0  3  0  0  0  0  0  0
  -27.0420  -26.9760   19.7320 C   0  0  0  0  0  3  0  0  0  0  0  0
  -25.8300  -27.6910   19.7130 C   0  0  0  0  0  3  0  0  0  0  0  0
  -24.4450  -29.7310   20.3800 C   0  0  0  0  0  2  0  0  0  0  0  0
  -25.3720  -31.0430   22.3330 N   0  0  0  0  0  0  0  0  0  0  0  0
  -24.1190  -32.0430   23.9420 O   0  0  0  0  0  0  0  0  0  0  0  0
  -23.5440  -29.3110   22.7000 C   0  0  0  0  0  0  0  0  0  0  0  0
  -22.2510  -28.9960   22.5010 N   0  0  0  0  0  0  0  0  0  0  0  0
  -24.2310  -28.7680   23.5690 O   0  0  0  0  0  0  0  0  0  0  0  0
  -21.7500  -29.4920   21.7780 H   0  0  0  0  0  0  0  0  0  0  0  0
  -19.0170  -27.3920   22.7590 C   0  0  0  0  0  0  0  0  0  0  0  0
  -21.4860  -27.9900   23.2410 C   0  0  0  0  0  3  0  0  0  0  0  0
  -21.8200  -26.5620   22.7500 C   0  0  0  0  0  2  0  0  0  0  0  0
  -20.8680  -26.0630   21.6580 C   0  0  0  0  0  2  0  0  0  0  0  0
  -19.4230  -26.0530   22.1660 C   0  0  0  0  0  2  0  0  0  0  0  0
  -19.9860  -28.3070   23.2470 C   0  0  0  0  0  0  0  0  0  0  0  0
  -19.5560  -29.5530   23.7540 C   0  0  0  0  0  3  0  0  0  0  0  0
  -18.1900  -29.8890   23.7790 C   0  0  0  0  0  3  0  0  0  0  0  0
  -17.2330  -28.9720   23.3100 C   0  0  0  0  0  3  0  0  0  0  0  0
  -17.6460  -27.7250   22.8060 C   0  0  0  0  0  3  0  0  0  0  0  0
  -26.4530  -32.5570   24.0830 C   0  0  0  0  0  3  0  0  0  0  0  0
  -26.0750  -33.9570   24.3240 N   0  0  0  0  0  0  0  0  0  0  0  0
  -26.4270  -34.9850   23.5420 C   0  0  0  0  0  0  0  0  0  0  0  0
  -27.1730  -34.8610   22.5660 O   0  0  0  0  0  0  0  0  0  0  0  0
  -25.4220  -34.1250   25.0750 H   0  0  0  0  0  0  0  0  0  0  0  0
  -24.6770  -36.7020   22.9820 C   0  0  0  0  0  1  0  0  0  0  0  0
  -25.8660  -36.3750   23.8990 C   0  0  0  0  0  3  0  0  0  0  0  0
  -27.9140  -37.3570   24.8350 C   0  0  0  0  0  1  0  0  0  0  0  0
  -26.8740  -37.4560   23.8130 N   0  0  0  0  0  0  0  0  0  0  0  0
  -26.4330  -38.3680   23.9000 H   0  0  0  0  0  0  0  0  0  0  0  0
  -26.9280  -31.8720   25.4240 C   0  0  1  0  0  0  0  0  0  0  0  0
  -25.7870  -31.6400   26.4420 C   0  0  0  0  0  1  0  0  0  0  0  0
  -27.5890  -30.5040   25.1360 C   0  0  0  0  0  1  0  0  0  0  0  0
  -28.0090  -32.7470   26.1020 C   0  0  0  0  0  1  0  0  0  0  0  0
  -31.9860  -23.5040   17.2040 O   0  0  0  0  0  0  0  0  0  0  0  0
  -33.7280  -23.2780   15.5540 C   0  0  0  0  0  1  0  0  0  0  0  0
  -32.9470  -22.5940   16.6780 C   0  0  0  0  0  2  0  0  0  0  0  0
  -30.6640  -20.1370   20.5630 O   0  0  0  0  0  0  0  0  0  0  0  0
  -30.8100  -18.8630   19.7920 C   0  0  0  0  0  2  0  0  0  0  0  0
  -31.3560  -17.5460   20.5630 C   0  0  0  0  0  2  0  0  0  0  0  0
  -31.6240  -14.9670   19.9420 C   0  0  0  0  0  0  0  0  0  0  0  0
  -31.2450  -12.7270   18.8920 C   0  0  0  0  0  2  0  0  0  0  0  0
  -30.2840  -12.8720   17.6910 C   0  0  0  0  0  2  0  0  0  0  0  0
  -28.8130  -12.8140   18.1520 C   0  0  0  0  0  2  0  0  0  0  0  0
  -28.5330  -13.7250   19.3750 C   0  0  0  0  0  3  0  0  0  0  0  0
  -29.6000  -13.5390   20.4740 C   0  0  0  0  0  2  0  0  0  0  0  0
  -30.9090  -13.7970   19.8570 N   0  0  0  0  0  0  0  0  0  0  0  0
  -32.8180  -14.9970   19.6360 O   0  0  0  0  0  0  0  0  0  0  0  0
  -30.9160  -16.1290   20.1900 N   0  0  0  0  0  0  0  0  0  0  0  0
  -29.9270  -15.9650   20.2990 H   0  0  0  0  0  0  0  0  0  0  0  0
  -26.2140  -14.5120   20.1440 C   0  0  0  0  0  0  0  0  0  0  0  0
  -25.0960  -13.8270   20.5300 C   0  0  0  0  0  0  0  0  0  0  0  0
  -25.4450  -12.4420   20.4870 C   0  0  0  0  0  0  0  0  0  0  0  0
  -27.1790  -13.5510   19.8890 N   0  0  0  0  0  0  0  0  0  0  0  0
  -26.7230  -12.3000   20.1570 N   0  0  0  0  0  0  0  0  0  0  0  0
  -24.6200  -11.2430   20.6820 C   0  0  0  0  0  0  0  0  0  0  0  0
  -24.9990  -10.2220   21.5810 C   0  0  0  0  0  3  0  0  0  0  0  0
  -24.1780   -9.0880   21.7640 C   0  0  0  0  0  3  0  0  0  0  0  0
  -22.9630   -8.9690   21.0480 C   0  0  0  0  0  0  0  0  0  0  0  0
  -22.6010   -9.9780   20.1370 C   0  0  0  0  0  3  0  0  0  0  0  0
  -23.4230  -11.1020   19.9530 C   0  0  0  0  0  3  0  0  0  0  0  0
  -22.1150   -7.8930   21.1430 O   0  0  0  0  0  0  0  0  0  0  0  0
  -22.0200   -7.1490   22.2940 C   0  0  0  0  0  0  0  0  0  0  0  0
  -21.7050   -7.7390   23.5380 C   0  0  0  0  0  3  0  0  0  0  0  0
  -21.5490   -6.9280   24.6800 C   0  0  0  0  0  3  0  0  0  0  0  0
  -21.7000   -5.5330   24.5800 C   0  0  0  0  0  0  0  0  0  0  0  0
  -22.0090   -4.9440   23.3420 C   0  0  0  0  0  3  0  0  0  0  0  0
  -22.1650   -5.7500   22.2010 C   0  0  0  0  0  0  0  0  0  0  0  0
  -22.4420   -5.1760   21.0040 F   0  0  0  0  0  0  0  0  0  0  0  0
  -21.5430   -4.7530   25.6760 F   0  0  0  0  0  0  0  0  0  0  0  0
  -23.7470  -14.4170   20.8250 C   0  0  0  0  0  0  0  0  0  0  0  0
  -22.9850  -13.7940   21.7180 N   0  0  0  0  0  0  0  0  0  0  0  0
  -23.3780  -15.4640   20.2950 O   0  0  0  0  0  0  0  0  0  0  0  0
  -23.2930  -12.9440   22.1670 H   0  0  0  0  0  0  0  0  0  0  0  0
  -22.0810  -14.1760   21.9570 H   0  0  0  0  0  0  0  0  0  0  0  0
  -26.4840  -15.8670   19.9610 N   0  0  0  0  0  0  0  0  0  0  0  0
  -25.7610  -16.5710   20.0740 H   0  0  0  0  0  0  0  0  0  0  0  0
  -27.3370  -16.2390   19.5670 H   0  0  0  0  0  0  0  0  0  0  0  0
  1  4  1  0
  2  6  2  0
  4  3  2  0
  4 15  1  0
  5  2  1  0
  5  1  2  0
  6 60  1  0
  6  3  1  0
  7 14  2  0
  7 12  1  0
  8  9  2  0
  9 13  1  0
 10 13  1  0
 11  3  1  0
 11  8  1  0
 11 10  1  0
 13  7  1  0
 16 15  1  0
 17 28  2  0
 18 16  1  0
 18 23  1  0
 19 27  1  0
 19 29  1  0
 20 26  1  0
 20 22  1  0
 21 27  1  0
 22 23  2  0
 22 21  1  0
 24 18  2  0
 25 24  1  0
 25 20  2  0
 26 19  1  0
 27 17  1  0
 29 31  2  0
 30 29  1  0
 32 30  1  0
 33 42  2  0
 33 38  1  0
 34 30  1  0
 34 38  1  0
 35 34  1  0
 36 37  1  0
 36 35  1  0
 37 33  1  0
 38 39  2  0
 39 40  1  0
 41 40  2  0
 42 41  1  0
 43 17  1  0
 43 44  1  0
 43 53  1  0
 44 47  1  0
 45 49  1  0
 45 44  1  0
 46 45  2  0
 49 48  1  0
 51 49  1  0
 51 52  1  0
 51 50  1  0
 53 56  1  1
 53 54  1  0
 55 53  1  0
 57  5  1  0
 58 59  1  0
 59 57  1  0
 61 62  1  0
 61 60  1  0
 63 71  1  0
 64 69  1  0
 65 66  1  0
 65 64  1  0
 67 66  1  0
 67 76  1  0
 67 68  1  0
 69 63  1  0
 69 68  1  0
 70 63  2  0
 71 72  1  0
 71 62  1  0
 73 74  2  0
 74 93  1  0
 75 74  1  0
 75 78  1  0
 76 73  1  0
 76 77  1  0
 77 75  2  0
 78 79  1  0
 79 80  2  0
 81 84  1  0
 81 80  1  0
 82 81  2  0
 83 82  1  0
 83 78  2  0
 84 85  1  0
 85 86  1  0
 86 87  2  0
 88 87  1  0
 88 92  1  0
 89 88  2  0
 90 85  2  0
 90 89  1  0
 91 90  1  0
 93 94  1  0
 94 97  1  0
 94 96  1  0
 95 93  2  0
 98 99  1  0
 98 73  1  0
100 98  1  0
M  ISO  4  15 101  16 101  63 100  71 100
M  END
>  <TORSDO>  (84) 
F 23

>  <SCORE>  (84) 
-5.575

>  <name>  (84) 
83

>  <ligand_id>  (84) 
83

>  <original_smiles>  (84) 
[H]c1c([H])c([H])c2c(c1[H])C([H])([H])C([H])([H])C([H])([H])C2([H])N([H])C(=O)C1([H])N(C(=O)C([H])(N([H])C(=O)C([H])(N([H])C([H])([H])[H])C([H])([H])[H])C(C([H])([H])[H])(C([H])([H])[H])C([H])([H])[H])C([H])([H])c2c([H])c(OC([H])([H])c3c([H])c(OC([H])([H])C([H])([H])[H])c([H])c(OC([H])([H])C([H])([H])N([H])C(=O)N4C([H])([H])C([H])([H])C([H])([H])C([H])(n5nc(-c6c([H])c([H])c(Oc7c([H])c([H])c(F)c([H])c7F)c([H])c6[H])c(C(=O)N([H])[H])c5N([H])[H])C4([H])[H])c3C3([H])C([H])([H])N(C(=O)C([H])([H])[H])C([H])([H])C3([H])[H])c([H])c([H])c2C1([H])[H]

>  <smiles>  (84) 
[H]c1c([H])c([H])c2c(c1[H])C([H])([H])C([H])([H])C([H])([H])C2([H])N([H])C(=O)C1([H])N(C(=O)C([H])(N([H])C(=O)C([H])(N([H])C([H])([H])[H])C([H])([H])[H])C(C([H])([H])[H])(C([H])([H])[H])C([H])([H])[H])C([H])([H])c2c([H])c(OC([H])([H])c3c([H])c(OC([H])([H])C([H])([H])[H])c([H])c(OC([H])([H])C([H])([H])N([H])C(=O)N4C([H])([H])C([H])([H])C([H])([H])C([H])(n5nc(-c6c([H])c([H])c(Oc7c([H])c([H])c(F)c([H])c7F)c([H])c6[H])c(C(=O)N([H])[H])c5N([H])[H])C4([H])[H])c3C3([H])C([H])([H])N(C(=O)C([H])([H])[H])C([H])([H])C3([H])[H])c([H])c([H])c2C1([H])[H]

$$$$
84:0:0
     RDKit          3D

 98107  0  0  1  0  0  0  0  0999 V2000
  -30.4870  -20.9710   19.7800 C   0  0  0  0  0  3  0  0  0  0  0  0
  -28.8520  -18.7250   19.4020 C   0  0  0  0  0  3  0  0  0  0  0  0
  -29.0890  -21.1940   19.7420 C   0  0  0  0  0  0  0  0  0  0  0  0
  -30.2450  -18.5050   19.4930 C   0  0  0  0  0  0  0  0  0  0  0  0
  -31.0550  -19.6630   19.6780 C   0  0  0  0  0  0  0  0  0  0  0  0
  -28.2710  -20.0320   19.5450 C   0  0  0  0  0  0  0  0  0  0  0  0
  -28.3150  -23.7230   18.9310 C   0  0  0  0  0  2  0  0  0  0  0  0
  -28.6190  -24.8560   21.0730 C   0  0  0  0  0  2  0  0  0  0  0  0
  -28.4790  -22.6220   20.0670 C   0  0  0  0  0  3  0  0  0  0  0  0
  -29.1810  -23.4120   21.2180 C   0  0  0  0  0  3  0  0  0  0  0  0
  -28.6820  -25.1180   19.5690 C   0  0  0  0  0  3  0  0  0  0  0  0
  -29.9990  -21.6120   22.8740 C   0  0  0  0  0  1  0  0  0  0  0  0
  -29.4290  -23.8830   23.7360 C   0  0  0  0  0  1  0  0  0  0  0  0
  -29.0790  -22.8310   22.6620 C   0  0  0  0  0  3  0  0  0  0  0  0
  -28.3780  -26.4820   19.0810 O   0  0  0  0  0  0  0  0  0  0  0  0
  -24.7160  -31.4630   22.7960 C   0  0  0  0  0  0  0  0  0  0  0  0
  -27.1980  -27.1990   19.2770 C   0  0  0  0  0  0  0  0  0  0  0  0
  -23.4440  -30.2150   21.0830 C   0  0  0  0  0  3  0  0  0  0  0  0
  -24.8320  -28.7830   19.4840 C   0  0  0  0  0  0  0  0  0  0  0  0
  -25.9700  -30.5560   20.8230 C   0  0  0  0  0  2  0  0  0  0  0  0
  -26.0180  -29.2360   20.0700 C   0  0  0  0  0  0  0  0  0  0  0  0
  -27.2040  -28.4580   19.9510 C   0  0  0  0  0  3  0  0  0  0  0  0
  -25.9890  -26.7810   18.6870 C   0  0  0  0  0  3  0  0  0  0  0  0
  -24.8140  -27.5600   18.7860 C   0  0  0  0  0  3  0  0  0  0  0  0
  -23.6020  -29.6540   19.6450 C   0  0  0  0  0  2  0  0  0  0  0  0
  -24.7320  -30.7610   21.6250 N   0  0  0  0  0  0  0  0  0  0  0  0
  -23.6570  -31.6860   23.4010 O   0  0  0  0  0  0  0  0  0  0  0  0
  -22.8180  -29.1210   21.9780 C   0  0  0  0  0  0  0  0  0  0  0  0
  -21.4800  -28.9990   21.9410 N   0  0  0  0  0  0  0  0  0  0  0  0
  -23.5310  -28.3860   22.6650 O   0  0  0  0  0  0  0  0  0  0  0  0
  -20.9610  -29.6420   21.3600 H   0  0  0  0  0  0  0  0  0  0  0  0
  -18.1040  -27.8930   22.6090 C   0  0  0  0  0  0  0  0  0  0  0  0
  -20.6860  -28.0040   22.6650 C   0  0  0  0  0  3  0  0  0  0  0  0
  -20.6600  -26.6550   21.9090 C   0  0  0  0  0  2  0  0  0  0  0  0
  -19.4560  -26.5120   20.9710 C   0  0  0  0  0  2  0  0  0  0  0  0
  -18.1470  -26.6360   21.7560 C   0  0  0  0  0  2  0  0  0  0  0  0
  -19.2970  -28.5460   23.0200 C   0  0  0  0  0  0  0  0  0  0  0  0
  -19.2010  -29.7330   23.7780 C   0  0  0  0  0  3  0  0  0  0  0  0
  -17.9460  -30.2630   24.1310 C   0  0  0  0  0  3  0  0  0  0  0  0
  -16.7680  -29.6060   23.7340 C   0  0  0  0  0  3  0  0  0  0  0  0
  -16.8500  -28.4240   22.9760 C   0  0  0  0  0  3  0  0  0  0  0  0
  -26.0260  -32.0370   23.4210 C   0  0  0  0  0  3  0  0  0  0  0  0
  -25.7260  -33.3790   23.9340 N   0  0  0  0  0  0  0  0  0  0  0  0
  -26.0510  -34.5230   23.3160 C   0  0  0  0  0  0  0  0  0  0  0  0
  -26.7070  -34.5550   22.2720 O   0  0  0  0  0  0  0  0  0  0  0  0
  -25.1480  -33.4290   24.7610 H   0  0  0  0  0  0  0  0  0  0  0  0
  -24.3260  -36.3490   23.2180 C   0  0  0  0  0  1  0  0  0  0  0  0
  -25.5720  -35.8390   23.9580 C   0  0  0  0  0  3  0  0  0  0  0  0
  -27.7100  -36.6070   24.8890 C   0  0  0  0  0  1  0  0  0  0  0  0
  -26.6080  -36.8970   23.9770 N   0  0  0  0  0  0  0  0  0  0  0  0
  -26.2020  -37.7880   24.2470 H   0  0  0  0  0  0  0  0  0  0  0  0
  -26.6200  -31.1280   24.5680 C   0  0  1  0  0  0  0  0  0  0  0  0
  -25.5950  -30.7620   25.6650 C   0  0  0  0  0  1  0  0  0  0  0  0
  -27.1800  -29.8130   23.9810 C   0  0  0  0  0  1  0  0  0  0  0  0
  -27.8060  -31.8500   25.2490 C   0  0  0  0  0  1  0  0  0  0  0  0
  -33.1630  -20.3520   20.5760 C   0  0  0  0  0  1  0  0  0  0  0  0
  -32.4130  -19.4530   19.7650 O   0  0  0  0  0  0  0  0  0  0  0  0
  -26.0620  -19.1120   19.2390 C   0  0  0  0  0  1  0  0  0  0  0  0
  -26.9020  -20.2200   19.5550 O   0  0  0  0  0  0  0  0  0  0  0  0
  -30.9530  -17.0970   19.4260 C   0  0  0  0  0  2  0  0  0  0  0  0
  -31.1000  -14.6220   19.8120 C   0  0  0  0  0  0  0  0  0  0  0  0
  -30.7550  -12.3310   18.9370 C   0  0  0  0  0  2  0  0  0  0  0  0
  -29.7430  -12.3950   17.7760 C   0  0  0  0  0  2  0  0  0  0  0  0
  -28.3020  -12.2810   18.3110 C   0  0  0  0  0  2  0  0  0  0  0  0
  -28.0300  -13.2260   19.5130 C   0  0  0  0  0  3  0  0  0  0  0  0
  -29.1610  -13.1640   20.5620 C   0  0  0  0  0  2  0  0  0  0  0  0
  -30.4240  -13.4320   19.8660 N   0  0  0  0  0  0  0  0  0  0  0  0
  -32.2670  -14.6600   19.4160 O   0  0  0  0  0  0  0  0  0  0  0  0
  -30.3960  -15.7920   19.9330 N   0  0  0  0  0  0  0  0  0  0  0  0
  -29.4270  -15.7470   20.2070 H   0  0  0  0  0  0  0  0  0  0  0  0
  -25.7500  -13.8820   20.4850 C   0  0  0  0  0  0  0  0  0  0  0  0
  -24.6830  -13.1380   20.9070 C   0  0  0  0  0  0  0  0  0  0  0  0
  -25.0720  -11.7710   20.7610 C   0  0  0  0  0  0  0  0  0  0  0  0
  -26.7220  -12.9720   20.1080 N   0  0  0  0  0  0  0  0  0  0  0  0
  -26.3270  -11.6930   20.3360 N   0  0  0  0  0  0  0  0  0  0  0  0
  -24.3010  -10.5330   20.9450 C   0  0  0  0  0  0  0  0  0  0  0  0
  -24.7110   -9.5390   21.8590 C   0  0  0  0  0  3  0  0  0  0  0  0
  -23.9450   -8.3670   22.0320 C   0  0  0  0  0  3  0  0  0  0  0  0
  -22.7530   -8.1840   21.2910 C   0  0  0  0  0  0  0  0  0  0  0  0
  -22.3630   -9.1640   20.3640 C   0  0  0  0  0  3  0  0  0  0  0  0
  -23.1290  -10.3280   20.1900 C   0  0  0  0  0  3  0  0  0  0  0  0
  -21.9590   -7.0650   21.3760 O   0  0  0  0  0  0  0  0  0  0  0  0
  -21.8060   -6.3770   22.5520 C   0  0  0  0  0  0  0  0  0  0  0  0
  -21.2910   -6.9900   23.7150 C   0  0  0  0  0  3  0  0  0  0  0  0
  -21.0880   -6.2290   24.8820 C   0  0  0  0  0  3  0  0  0  0  0  0
  -21.3880   -4.8520   24.8870 C   0  0  0  0  0  0  0  0  0  0  0  0
  -21.8980   -4.2390   23.7290 C   0  0  0  0  0  3  0  0  0  0  0  0
  -22.1030   -4.9990   22.5640 C   0  0  0  0  0  0  0  0  0  0  0  0
  -22.5740   -4.3970   21.4440 F   0  0  0  0  0  0  0  0  0  0  0  0
  -21.1850   -4.1180   26.0050 F   0  0  0  0  0  0  0  0  0  0  0  0
  -23.3410  -13.6620   21.3290 C   0  0  0  0  0  0  0  0  0  0  0  0
  -22.6640  -12.9580   22.2300 N   0  0  0  0  0  0  0  0  0  0  0  0
  -22.9040  -14.7280   20.8930 O   0  0  0  0  0  0  0  0  0  0  0  0
  -23.0340  -12.0950   22.5980 H   0  0  0  0  0  0  0  0  0  0  0  0
  -21.7650  -13.2870   22.5530 H   0  0  0  0  0  0  0  0  0  0  0  0
  -25.9670  -15.2520   20.3650 N   0  0  0  0  0  0  0  0  0  0  0  0
  -25.2350  -15.9270   20.5580 H   0  0  0  0  0  0  0  0  0  0  0  0
  -26.7720  -15.6560   19.9030 H   0  0  0  0  0  0  0  0  0  0  0  0
  2  4  2  0
  2  6  1  0
  3  1  1  0
  4  5  1  0
  5 57  1  0
  5  1  2  0
  6 59  1  0
  6  3  2  0
  7 11  1  0
  7  9  1  0
  8 10  1  0
  9  3  1  0
  9 10  1  0
 10 14  1  0
 11 15  1  0
 11  8  1  0
 14 12  1  0
 14 13  1  0
 15 17  1  0
 16 27  2  0
 17 22  1  0
 18 26  1  0
 18 28  1  0
 19 25  1  0
 19 21  1  0
 20 26  1  0
 21 20  1  0
 22 21  2  0
 23 24  1  0
 23 17  2  0
 24 19  2  0
 25 18  1  0
 26 16  1  0
 28 30  2  0
 29 28  1  0
 31 29  1  0
 32 41  2  0
 32 37  1  0
 33 29  1  0
 33 37  1  0
 34 33  1  0
 35 36  1  0
 35 34  1  0
 36 32  1  0
 37 38  2  0
 38 39  1  0
 40 39  2  0
 41 40  1  0
 42 16  1  0
 42 43  1  0
 42 52  1  0
 43 46  1  0
 44 43  1  0
 44 48  1  0
 45 44  2  0
 48 47  1  0
 48 50  1  0
 50 51  1  0
 50 49  1  0
 52 55  1  1
 52 53  1  0
 54 52  1  0
 57 56  1  0
 58 59  1  0
 60  4  1  0
 60 69  1  0
 61 67  1  0
 61 69  1  0
 62 67  1  0
 63 64  1  0
 63 62  1  0
 65 64  1  0
 65 74  1  0
 65 66  1  0
 67 66  1  0
 68 61  2  0
 69 70  1  0
 71 72  2  0
 72 91  1  0
 73 72  1  0
 73 76  1  0
 74 75  1  0
 74 71  1  0
 75 73  2  0
 76 77  1  0
 77 78  2  0
 79 82  1  0
 79 78  1  0
 80 79  2  0
 81 80  1  0
 81 76  2  0
 82 83  1  0
 83 88  2  0
 83 84  1  0
 84 85  2  0
 85 86  1  0
 86 90  1  0
 87 86  2  0
 88 87  1  0
 89 88  1  0
 91 92  1  0
 92 95  1  0
 92 94  1  0
 93 91  2  0
 96 71  1  0
 96 97  1  0
 98 96  1  0
M  ISO  4  11 101  15 101  61 100  69 100
M  END
>  <TORSDO>  (85) 
F 21

>  <SCORE>  (85) 
-11.386

>  <name>  (85) 
84

>  <ligand_id>  (85) 
84

>  <original_smiles>  (85) 
[H]c1c([H])c([H])c2c(c1[H])C([H])([H])C([H])([H])C([H])([H])C2([H])N([H])C(=O)C1([H])N(C(=O)C([H])(N([H])C(=O)C([H])(N([H])C([H])([H])[H])C([H])([H])[H])C(C([H])([H])[H])(C([H])([H])[H])C([H])([H])[H])C([H])([H])c2c([H])c(OC3([H])C([H])([H])C([H])(c4c([H])c(OC([H])([H])[H])c(C([H])([H])N([H])C(=O)N5C([H])([H])C([H])([H])C([H])([H])C([H])(n6nc(-c7c([H])c([H])c(Oc8c([H])c([H])c(F)c([H])c8F)c([H])c7[H])c(C(=O)N([H])[H])c6N([H])[H])C5([H])[H])c([H])c4OC([H])([H])[H])C([H])(C([H])(C([H])([H])[H])C([H])([H])[H])C3([H])[H])c([H])c([H])c2C1([H])[H]

>  <smiles>  (85) 
[H]c1c([H])c([H])c2c(c1[H])C([H])([H])C([H])([H])C([H])([H])C2([H])N([H])C(=O)C1([H])N(C(=O)C([H])(N([H])C(=O)C([H])(N([H])C([H])([H])[H])C([H])([H])[H])C(C([H])([H])[H])(C([H])([H])[H])C([H])([H])[H])C([H])([H])c2c([H])c(OC3([H])C([H])([H])C([H])(c4c([H])c(OC([H])([H])[H])c(C([H])([H])N([H])C(=O)N5C([H])([H])C([H])([H])C([H])([H])C([H])(n6nc(-c7c([H])c([H])c(Oc8c([H])c([H])c(F)c([H])c8F)c([H])c7[H])c(C(=O)N([H])[H])c6N([H])[H])C5([H])[H])c([H])c4OC([H])([H])[H])C([H])(C([H])(C([H])([H])[H])C([H])([H])[H])C3([H])[H])c([H])c([H])c2C1([H])[H]

$$$$
85:0:0
     RDKit          3D

 89 98  0  0  1  0  0  0  0  0999 V2000
  -27.2200  -22.3900   21.4180 C   0  0  0  0  0  2  0  0  0  0  0  0
  -28.5300  -22.7740   22.0390 C   0  0  0  0  0  2  0  0  0  0  0  0
  -28.4270  -22.6420   20.5320 C   0  0  1  0  0  0  0  0  0  0  0  0
  -30.3770  -15.4470   20.0040 C   0  0  0  0  0  0  0  0  0  0  0  0
  -30.3620  -12.9720   19.1690 C   0  0  0  0  0  2  0  0  0  0  0  0
  -29.4120  -12.7250   17.9680 C   0  0  0  0  0  2  0  0  0  0  0  0
  -27.9840  -12.4310   18.4570 C   0  0  0  0  0  2  0  0  0  0  0  0
  -27.5530  -13.4040   19.5810 C   0  0  0  0  0  3  0  0  0  0  0  0
  -28.6300  -13.5900   20.6720 C   0  0  0  0  0  2  0  0  0  0  0  0
  -29.8300  -14.1200   20.0020 N   0  0  0  0  0  0  0  0  0  0  0  0
  -31.5860  -15.4230   19.7130 O   0  0  0  0  0  0  0  0  0  0  0  0
  -30.1180  -21.1440   18.9810 C   0  0  0  0  0  3  0  0  0  0  0  0
  -28.9780  -19.5920   20.3780 C   0  0  0  0  0  3  0  0  0  0  0  0
  -30.8070  -19.9910   18.5200 C   0  0  0  0  0  3  0  0  0  0  0  0
  -29.1180  -21.0920   19.9710 C   0  0  0  0  0  0  0  0  0  0  0  0
  -29.7380  -18.3330   19.8730 C   0  0  0  0  0  0  0  0  0  0  0  0
  -30.6420  -18.6970   18.9310 N   0  0  0  0  0  0  0  0  0  0  0  0
  -29.6170  -16.7310   20.1980 N   0  0  0  0  0  0  0  0  0  0  0  0
  -28.7090  -16.5160   20.5790 H   0  0  0  0  0  0  0  0  0  0  0  0
  -25.2090  -13.9400   20.4210 C   0  0  0  0  0  0  0  0  0  0  0  0
  -24.1640  -13.1540   20.8200 C   0  0  0  0  0  0  0  0  0  0  0  0
  -24.6370  -11.8070   20.7640 C   0  0  0  0  0  0  0  0  0  0  0  0
  -26.2460  -13.0730   20.1340 N   0  0  0  0  0  0  0  0  0  0  0  0
  -25.9180  -11.7830   20.4110 N   0  0  0  0  0  0  0  0  0  0  0  0
  -23.9230  -10.5390   20.9670 C   0  0  0  0  0  0  0  0  0  0  0  0
  -24.3780   -9.5760   21.8940 C   0  0  0  0  0  3  0  0  0  0  0  0
  -23.6630   -8.3750   22.0900 C   0  0  0  0  0  3  0  0  0  0  0  0
  -22.4760   -8.1300   21.3580 C   0  0  0  0  0  0  0  0  0  0  0  0
  -22.0380   -9.0820   20.4210 C   0  0  0  0  0  3  0  0  0  0  0  0
  -22.7560  -10.2730   20.2230 C   0  0  0  0  0  3  0  0  0  0  0  0
  -21.7290   -6.9810   21.4640 O   0  0  0  0  0  0  0  0  0  0  0  0
  -21.6950   -6.2460   22.6220 C   0  0  0  0  0  0  0  0  0  0  0  0
  -21.2670   -6.8030   23.8460 C   0  0  0  0  0  3  0  0  0  0  0  0
  -21.1840   -5.9940   24.9960 C   0  0  0  0  0  3  0  0  0  0  0  0
  -21.5190   -4.6280   24.9230 C   0  0  0  0  0  0  0  0  0  0  0  0
  -21.9410   -4.0720   23.7030 C   0  0  0  0  0  3  0  0  0  0  0  0
  -22.0260   -4.8780   22.5560 C   0  0  0  0  0  0  0  0  0  0  0  0
  -22.4140   -4.3310   21.3770 F   0  0  0  0  0  0  0  0  0  0  0  0
  -21.4310   -3.8490   26.0270 F   0  0  0  0  0  0  0  0  0  0  0  0
  -22.7740  -13.6210   21.1330 C   0  0  0  0  0  0  0  0  0  0  0  0
  -22.0760  -12.9150   22.0150 N   0  0  0  0  0  0  0  0  0  0  0  0
  -22.3160  -14.6470   20.6300 O   0  0  0  0  0  0  0  0  0  0  0  0
  -22.4620  -12.0860   22.4420 H   0  0  0  0  0  0  0  0  0  0  0  0
  -21.1420  -13.2090   22.2690 H   0  0  0  0  0  0  0  0  0  0  0  0
  -25.3570  -15.3120   20.2470 N   0  0  0  0  0  0  0  0  0  0  0  0
  -24.5910  -15.9610   20.3890 H   0  0  0  0  0  0  0  0  0  0  0  0
  -26.1750  -15.7520   19.8430 H   0  0  0  0  0  0  0  0  0  0  0  0
  -28.3040  -24.2720   19.7670 C   0  0  0  0  0  2  0  0  0  0  0  0
  -28.2000  -25.8770   20.2550 O   0  0  0  0  0  0  0  0  0  0  0  0
  -24.6280  -31.8840   23.1740 C   0  0  0  0  0  0  0  0  0  0  0  0
  -27.1800  -26.9770   20.1370 C   0  0  0  0  0  0  0  0  0  0  0  0
  -23.4320  -30.4890   21.5380 C   0  0  0  0  0  3  0  0  0  0  0  0
  -24.8780  -28.8780   20.1030 C   0  0  0  0  0  0  0  0  0  0  0  0
  -25.9960  -30.6900   21.3870 C   0  0  0  0  0  2  0  0  0  0  0  0
  -26.0660  -29.2760   20.7280 C   0  0  0  0  0  0  0  0  0  0  0  0
  -27.2020  -28.3440   20.7260 C   0  0  0  0  0  3  0  0  0  0  0  0
  -25.9640  -26.7410   19.4580 C   0  0  0  0  0  3  0  0  0  0  0  0
  -24.8540  -27.6330   19.4500 C   0  0  0  0  0  3  0  0  0  0  0  0
  -23.6590  -29.8020   20.1610 C   0  0  0  0  0  2  0  0  0  0  0  0
  -24.7090  -31.0490   22.0870 N   0  0  0  0  0  0  0  0  0  0  0  0
  -23.5400  -32.1730   23.6990 O   0  0  0  0  0  0  0  0  0  0  0  0
  -22.7390  -29.4970   22.5060 C   0  0  0  0  0  0  0  0  0  0  0  0
  -21.4050  -29.3430   22.3940 N   0  0  0  0  0  0  0  0  0  0  0  0
  -23.4070  -28.8640   23.3260 O   0  0  0  0  0  0  0  0  0  0  0  0
  -20.9180  -29.9030   21.7080 H   0  0  0  0  0  0  0  0  0  0  0  0
  -18.0220  -28.1410   22.9270 C   0  0  0  0  0  0  0  0  0  0  0  0
  -20.5850  -28.4040   23.1690 C   0  0  0  0  0  3  0  0  0  0  0  0
  -20.6790  -26.9750   22.5870 C   0  0  0  0  0  2  0  0  0  0  0  0
  -19.5690  -26.6590   21.5810 C   0  0  0  0  0  2  0  0  0  0  0  0
  -18.1940  -26.7970   22.2370 C   0  0  0  0  0  2  0  0  0  0  0  0
  -19.1450  -28.9020   23.3490 C   0  0  0  0  0  0  0  0  0  0  0  0
  -18.9280  -30.1580   23.9590 C   0  0  0  0  0  3  0  0  0  0  0  0
  -17.6240  -30.6520   24.1470 C   0  0  0  0  0  3  0  0  0  0  0  0
  -16.5170  -29.8900   23.7350 C   0  0  0  0  0  3  0  0  0  0  0  0
  -16.7180  -28.6350   23.1320 C   0  0  0  0  0  3  0  0  0  0  0  0
  -25.8980  -32.5310   23.8080 C   0  0  0  0  0  3  0  0  0  0  0  0
  -25.5770  -33.9310   24.1470 N   0  0  0  0  0  0  0  0  0  0  0  0
  -25.9080  -34.9960   23.4050 C   0  0  0  0  0  0  0  0  0  0  0  0
  -26.5730  -34.9050   22.3700 O   0  0  0  0  0  0  0  0  0  0  0  0
  -24.9830  -34.0750   24.9500 H   0  0  0  0  0  0  0  0  0  0  0  0
  -24.1770  -36.7980   23.0840 C   0  0  0  0  0  1  0  0  0  0  0  0
  -25.4250  -36.3830   23.8810 C   0  0  0  0  0  3  0  0  0  0  0  0
  -27.5640  -37.2610   24.7100 C   0  0  0  0  0  1  0  0  0  0  0  0
  -26.4570  -37.4380   23.7730 N   0  0  0  0  0  0  0  0  0  0  0  0
  -26.0530  -38.3580   23.9310 H   0  0  0  0  0  0  0  0  0  0  0  0
  -26.4050  -31.7680   25.0930 C   0  0  1  0  0  0  0  0  0  0  0  0
  -25.3070  -31.5360   26.1570 C   0  0  0  0  0  1  0  0  0  0  0  0
  -26.9870  -30.3880   24.7170 C   0  0  0  0  0  1  0  0  0  0  0  0
  -27.5570  -32.5620   25.7550 C   0  0  0  0  0  1  0  0  0  0  0  0
  1  2  1  0
  3  1  1  0
  3  2  1  0
  4 18  1  0
  5 10  1  0
  6  7  1  0
  6  5  1  0
  8  7  1  0
  8 23  1  0
  8  9  1  0
 10  4  1  0
 10  9  1  0
 11  4  2  0
 12 15  1  0
 14 17  1  0
 14 12  2  0
 15 13  2  0
 15  3  1  0
 16 18  1  0
 16 13  1  0
 17 16  2  0
 18 19  1  0
 20 21  2  0
 21 40  1  0
 22 21  1  0
 22 25  1  0
 23 24  1  0
 23 20  1  0
 24 22  2  0
 25 26  1  0
 26 27  2  0
 28 31  1  0
 28 27  1  0
 29 28  2  0
 30 29  1  0
 30 25  2  0
 31 32  1  0
 32 33  1  0
 33 34  2  0
 35 34  1  0
 35 39  1  0
 36 35  2  0
 37 32  2  0
 37 36  1  0
 38 37  1  0
 40 41  1  0
 41 44  1  0
 41 43  1  0
 42 40  2  0
 45 46  1  0
 45 20  1  0
 47 45  1  0
 48 49  1  0
  3 48  1  6
 50 61  2  0
 51 49  1  0
 51 56  1  0
 52 60  1  0
 52 62  1  0
 53 59  1  0
 53 55  1  0
 54 60  1  0
 55 54  1  0
 56 55  2  0
 57 51  2  0
 58 57  1  0
 58 53  2  0
 59 52  1  0
 60 50  1  0
 62 64  2  0
 63 62  1  0
 65 63  1  0
 66 75  2  0
 66 71  1  0
 67 63  1  0
 67 71  1  0
 68 67  1  0
 69 70  1  0
 69 68  1  0
 70 66  1  0
 71 72  2  0
 72 73  1  0
 74 73  2  0
 75 74  1  0
 76 50  1  0
 76 77  1  0
 76 86  1  0
 77 80  1  0
 78 82  1  0
 78 77  1  0
 79 78  2  0
 82 81  1  0
 84 82  1  0
 84 85  1  0
 84 83  1  0
 86 89  1  1
 86 87  1  0
 88 86  1  0
M  ISO  4   4 100  18 100  48 101  49 101
M  END
>  <TORSDO>  (86) 
F 17

>  <SCORE>  (86) 
-16.688

>  <name>  (86) 
85

>  <ligand_id>  (86) 
85

>  <original_smiles>  (86) 
[H]c1nc(N([H])C(=O)N2C([H])([H])C([H])([H])C([H])([H])C([H])(n3nc(-c4c([H])c([H])c(Oc5c([H])c([H])c(F)c([H])c5F)c([H])c4[H])c(C(=O)N([H])[H])c3N([H])[H])C2([H])[H])c([H])c(C2(C([H])([H])Oc3c([H])c([H])c4c(c3[H])C([H])([H])N(C(=O)C([H])(N([H])C(=O)C([H])(N([H])C([H])([H])[H])C([H])([H])[H])C(C([H])([H])[H])(C([H])([H])[H])C([H])([H])[H])C([H])(C(=O)N([H])C3([H])c5c([H])c([H])c([H])c([H])c5C([H])([H])C([H])([H])C3([H])[H])C4([H])[H])C([H])([H])C2([H])[H])c1[H]

>  <smiles>  (86) 
[H]c1nc(N([H])C(=O)N2C([H])([H])C([H])([H])C([H])([H])C([H])(n3nc(-c4c([H])c([H])c(Oc5c([H])c([H])c(F)c([H])c5F)c([H])c4[H])c(C(=O)N([H])[H])c3N([H])[H])C2([H])[H])c([H])c(C2(C([H])([H])Oc3c([H])c([H])c4c(c3[H])C([H])([H])N(C(=O)C([H])(N([H])C(=O)C([H])(N([H])C([H])([H])[H])C([H])([H])[H])C(C([H])([H])[H])(C([H])([H])[H])C([H])([H])[H])C([H])(C(=O)N([H])C3([H])c5c([H])c([H])c([H])c([H])c5C([H])([H])C([H])([H])C3([H])[H])C4([H])[H])C([H])([H])C2([H])[H])c1[H]

$$$$
86:0:0
     RDKit          3D

 99109  0  0  1  0  0  0  0  0999 V2000
  -28.4170  -22.9180   21.3280 C   0  0  0  0  0  3  0  0  0  0  0  0
  -29.3590  -25.1520   21.1070 C   0  0  0  0  0  0  0  0  0  0  0  0
  -28.2290  -24.3230   21.2850 C   0  0  0  0  0  0  0  0  0  0  0  0
  -30.6240  -24.5410   20.9800 C   0  0  0  0  0  0  0  0  0  0  0  0
  -29.7200  -22.4080   21.1610 C   0  0  0  0  0  0  0  0  0  0  0  0
  -31.8980  -25.3480   20.8060 C   0  0  0  0  0  1  0  0  0  0  0  0
  -30.7910  -23.2020   20.9990 N   0  0  0  0  0  0  0  0  0  0  0  0
  -30.0420  -21.0530   21.1060 N   0  0  0  0  0  0  0  0  0  0  0  0
  -31.0240  -20.8330   20.9840 H   0  0  0  0  0  0  0  0  0  0  0  0
  -29.1860  -26.6670   21.0390 C   0  0  0  0  0  2  0  0  0  0  0  0
  -28.6300  -27.0590   19.7850 O   0  0  0  0  0  0  0  0  0  0  0  0
  -24.7150  -31.7950   23.3690 C   0  0  0  0  0  0  0  0  0  0  0  0
  -27.4650  -27.7770   19.8740 C   0  0  0  0  0  0  0  0  0  0  0  0
  -23.5420  -30.5440   21.5830 C   0  0  0  0  0  3  0  0  0  0  0  0
  -25.0340  -29.1900   20.0210 C   0  0  0  0  0  0  0  0  0  0  0  0
  -26.0540  -30.9860   21.4330 C   0  0  0  0  0  2  0  0  0  0  0  0
  -26.1710  -29.6870   20.6690 C   0  0  0  0  0  0  0  0  0  0  0  0
  -27.3920  -28.9840   20.6000 C   0  0  0  0  0  3  0  0  0  0  0  0
  -26.3200  -27.2910   19.2140 C   0  0  0  0  0  3  0  0  0  0  0  0
  -25.1000  -27.9880   19.2920 C   0  0  0  0  0  3  0  0  0  0  0  0
  -23.7690  -30.0080   20.1440 C   0  0  0  0  0  2  0  0  0  0  0  0
  -24.7880  -31.1170   22.1880 N   0  0  0  0  0  0  0  0  0  0  0  0
  -23.6270  -31.9870   23.9310 O   0  0  0  0  0  0  0  0  0  0  0  0
  -22.9100  -29.4190   22.4320 C   0  0  0  0  0  0  0  0  0  0  0  0
  -21.5940  -29.2120   22.2640 N   0  0  0  0  0  0  0  0  0  0  0  0
  -23.6010  -28.7390   23.1970 O   0  0  0  0  0  0  0  0  0  0  0  0
  -21.0970  -29.8150   21.6230 H   0  0  0  0  0  0  0  0  0  0  0  0
  -18.2510  -27.8800   22.5770 C   0  0  0  0  0  0  0  0  0  0  0  0
  -20.7940  -28.1820   22.9260 C   0  0  0  0  0  3  0  0  0  0  0  0
  -20.9510  -26.8150   22.2210 C   0  0  0  0  0  2  0  0  0  0  0  0
  -19.8780  -26.5580   21.1590 C   0  0  0  0  0  2  0  0  0  0  0  0
  -18.4800  -26.6050   21.7830 C   0  0  0  0  0  2  0  0  0  0  0  0
  -19.3380  -28.6290   23.1010 C   0  0  0  0  0  0  0  0  0  0  0  0
  -19.0710  -29.8260   23.8000 C   0  0  0  0  0  3  0  0  0  0  0  0
  -17.7490  -30.2730   23.9840 C   0  0  0  0  0  3  0  0  0  0  0  0
  -16.6760  -29.5200   23.4770 C   0  0  0  0  0  3  0  0  0  0  0  0
  -16.9280  -28.3250   22.7800 C   0  0  0  0  0  3  0  0  0  0  0  0
  -25.9870  -32.3820   24.0580 C   0  0  0  0  0  3  0  0  0  0  0  0
  -26.4850  -31.5220   25.2850 C   0  0  1  0  0  0  0  0  0  0  0  0
  -25.3710  -31.1960   26.3090 C   0  0  0  0  0  1  0  0  0  0  0  0
  -27.0880  -30.1820   24.8020 C   0  0  0  0  0  1  0  0  0  0  0  0
  -27.6140  -32.2750   26.0290 C   0  0  0  0  0  1  0  0  0  0  0  0
  -25.6690  -33.7530   24.4760 N   0  0  0  0  0  0  0  0  0  0  0  0
  -26.0340  -34.8550   23.8070 C   0  0  0  0  0  0  0  0  0  0  0  0
  -26.7460  -34.8220   22.7990 O   0  0  0  0  0  0  0  0  0  0  0  0
  -25.0420  -33.8550   25.2620 H   0  0  0  0  0  0  0  0  0  0  0  0
  -24.3270  -36.6790   23.5090 C   0  0  0  0  0  1  0  0  0  0  0  0
  -25.5300  -36.2100   24.3430 C   0  0  0  0  0  3  0  0  0  0  0  0
  -27.6320  -37.0190   25.3250 C   0  0  0  0  0  1  0  0  0  0  0  0
  -26.5680  -37.2640   24.3530 N   0  0  0  0  0  0  0  0  0  0  0  0
  -26.1570  -38.1710   24.5570 H   0  0  0  0  0  0  0  0  0  0  0  0
  -29.1740  -19.9600   21.5350 C   0  0  0  0  0  2  0  0  0  0  0  0
  -30.9090  -14.7270   19.7660 C   0  0  0  0  0  0  0  0  0  0  0  0
  -30.4980  -12.5610   18.6700 C   0  0  0  0  0  2  0  0  0  0  0  0
  -29.4450  -12.7330   17.5580 C   0  0  0  0  0  2  0  0  0  0  0  0
  -28.0260  -12.5660   18.1330 C   0  0  0  0  0  2  0  0  0  0  0  0
  -27.7930  -13.4150   19.4110 C   0  0  0  0  0  3  0  0  0  0  0  0
  -28.9560  -13.2520   20.4140 C   0  0  0  0  0  2  0  0  0  0  0  0
  -30.2090  -13.5610   19.7110 N   0  0  0  0  0  0  0  0  0  0  0  0
  -31.9890  -14.8670   19.1780 O   0  0  0  0  0  0  0  0  0  0  0  0
  -29.4830  -18.1990   19.7050 C   0  0  0  0  0  2  0  0  0  0  0  0
  -29.4980  -17.4100   22.0400 C   0  0  0  0  0  2  0  0  0  0  0  0
  -30.3260  -16.9900   19.2830 C   0  0  0  0  0  2  0  0  0  0  0  0
  -30.3590  -16.1890   21.6290 C   0  0  0  0  0  2  0  0  0  0  0  0
  -29.8250  -18.6120   21.1400 C   0  0  0  0  0  3  0  0  0  0  0  0
  -30.2390  -15.8280   20.1980 N   0  0  0  0  0  0  0  0  0  0  0  0
  -25.4970  -13.9730   20.4270 C   0  0  0  0  0  0  0  0  0  0  0  0
  -24.4770  -13.1750   20.8730 C   0  0  0  0  0  0  0  0  0  0  0  0
  -24.9290  -11.8290   20.7140 C   0  0  0  0  0  0  0  0  0  0  0  0
  -26.5050  -13.1090   20.0290 N   0  0  0  0  0  0  0  0  0  0  0  0
  -26.1740  -11.8120   20.2570 N   0  0  0  0  0  0  0  0  0  0  0  0
  -24.2260  -10.5550   20.9150 C   0  0  0  0  0  0  0  0  0  0  0  0
  -24.6670   -9.6100   21.8690 C   0  0  0  0  0  3  0  0  0  0  0  0
  -23.9640   -8.4010   22.0550 C   0  0  0  0  0  3  0  0  0  0  0  0
  -22.8040   -8.1280   21.2910 C   0  0  0  0  0  0  0  0  0  0  0  0
  -22.3840   -9.0610   20.3270 C   0  0  0  0  0  3  0  0  0  0  0  0
  -23.0880  -10.2620   20.1380 C   0  0  0  0  0  3  0  0  0  0  0  0
  -22.0730   -6.9700   21.3860 O   0  0  0  0  0  0  0  0  0  0  0  0
  -21.8900   -6.3300   22.5860 C   0  0  0  0  0  0  0  0  0  0  0  0
  -21.2910   -6.9760   23.6910 C   0  0  0  0  0  3  0  0  0  0  0  0
  -21.0590   -6.2610   24.8830 C   0  0  0  0  0  3  0  0  0  0  0  0
  -21.4150   -4.9020   24.9700 C   0  0  0  0  0  0  0  0  0  0  0  0
  -22.0070   -4.2570   23.8690 C   0  0  0  0  0  3  0  0  0  0  0  0
  -22.2410   -4.9690   22.6800 C   0  0  0  0  0  0  0  0  0  0  0  0
  -22.7920   -4.3370   21.6160 F   0  0  0  0  0  0  0  0  0  0  0  0
  -21.1860   -4.2120   26.1120 F   0  0  0  0  0  0  0  0  0  0  0  0
  -23.1210  -13.6310   21.3310 C   0  0  0  0  0  0  0  0  0  0  0  0
  -22.5120  -12.9020   22.2600 N   0  0  0  0  0  0  0  0  0  0  0  0
  -22.6150  -14.6670   20.9020 O   0  0  0  0  0  0  0  0  0  0  0  0
  -22.9370  -12.0630   22.6270 H   0  0  0  0  0  0  0  0  0  0  0  0
  -21.6090  -13.1870   22.6100 H   0  0  0  0  0  0  0  0  0  0  0  0
  -25.6480  -15.3500   20.3100 N   0  0  0  0  0  0  0  0  0  0  0  0
  -24.9110  -16.0030   20.5520 H   0  0  0  0  0  0  0  0  0  0  0  0
  -26.4750  -15.8040   19.9430 H   0  0  0  0  0  0  0  0  0  0  0  0
  -27.0070  -24.9560   21.3850 O   0  0  0  0  0  0  0  0  0  0  0  0
  -24.6540  -25.0180   20.9240 C   0  0  0  0  0  2  0  0  0  0  0  0
  -24.7850  -24.6420   22.3850 C   0  0  0  0  0  3  0  0  0  0  0  0
  -25.8220  -24.1800   21.3880 C   0  0  0  0  0  3  0  0  0  0  0  0
  -23.8130  -23.6660   23.0090 C   0  0  0  0  0  1  0  0  0  0  0  0
  2  3  2  0
  3  1  1  0
  3 95  1  0
  4  7  2  0
  4  2  1  0
  5  1  2  0
  6  4  1  0
  7  5  1  0
  8  5  1  0
  8 52  1  0
  9  8  1  0
 10  2  1  0
 11 13  1  0
 11 10  1  0
 12 23  2  0
 13 18  1  0
 14 22  1  0
 14 24  1  0
 15 21  1  0
 15 17  1  0
 16 22  1  0
 17 16  1  0
 18 17  2  0
 19 20  1  0
 19 13  2  0
 20 15  2  0
 21 14  1  0
 22 12  1  0
 24 26  2  0
 25 24  1  0
 27 25  1  0
 28 37  2  0
 28 33  1  0
 29 25  1  0
 29 33  1  0
 30 29  1  0
 31 32  1  0
 31 30  1  0
 32 28  1  0
 33 34  2  0
 34 35  1  0
 36 35  2  0
 37 36  1  0
 38 12  1  0
 38 43  1  0
 38 39  1  0
 39 42  1  1
 39 40  1  0
 41 39  1  0
 43 46  1  0
 44 48  1  0
 44 43  1  0
 45 44  2  0
 48 47  1  0
 48 50  1  0
 50 51  1  0
 50 49  1  0
 53 66  1  0
 54 59  1  0
 55 56  1  0
 55 54  1  0
 57 56  1  0
 57 70  1  0
 57 58  1  0
 59 53  1  0
 59 58  1  0
 60 53  2  0
 61 65  1  0
 63 61  1  0
 63 66  1  0
 64 62  1  0
 65 52  1  0
 65 62  1  0
 66 64  1  0
 67 68  2  0
 68 87  1  0
 69 68  1  0
 69 72  1  0
 70 71  1  0
 70 67  1  0
 71 69  2  0
 72 73  1  0
 73 74  2  0
 75 78  1  0
 75 74  1  0
 76 75  2  0
 77 76  1  0
 77 72  2  0
 78 79  1  0
 79 84  2  0
 79 80  1  0
 80 81  2  0
 81 82  1  0
 82 86  1  0
 83 82  2  0
 84 83  1  0
 85 84  1  0
 87 88  1  0
 88 91  1  0
 88 90  1  0
 89 87  2  0
 92 67  1  0
 92 93  1  0
 94 92  1  0
 96 98  1  0
 96 97  1  0
 97 99  1  0
 98 95  1  0
 98 97  1  0
M  ISO  4  10 101  11 101  53 100  66 100
M  END
>  <TORSDO>  (87) 
F 20

>  <SCORE>  (87) 
-12.070

>  <name>  (87) 
86

>  <ligand_id>  (87) 
86

>  <original_smiles>  (87) 
[H]c1c([H])c([H])c2c(c1[H])C([H])([H])C([H])([H])C([H])([H])C2([H])N([H])C(=O)C1([H])N(C(=O)C([H])(N([H])C(=O)C([H])(N([H])C([H])([H])[H])C([H])([H])[H])C(C([H])([H])[H])(C([H])([H])[H])C([H])([H])[H])C([H])([H])c2c([H])c(OC([H])([H])c3c(C([H])([H])[H])nc(N([H])C([H])([H])C4([H])C([H])([H])C([H])([H])N(C(=O)N5C([H])([H])C([H])([H])C([H])([H])C([H])(n6nc(-c7c([H])c([H])c(Oc8c([H])c([H])c(F)c([H])c8F)c([H])c7[H])c(C(=O)N([H])[H])c6N([H])[H])C5([H])[H])C([H])([H])C4([H])[H])c([H])c3OC3([H])C([H])([H])C3([H])C([H])([H])[H])c([H])c([H])c2C1([H])[H]

>  <smiles>  (87) 
[H]c1c([H])c([H])c2c(c1[H])C([H])([H])C([H])([H])C([H])([H])C2([H])N([H])C(=O)C1([H])N(C(=O)C([H])(N([H])C(=O)C([H])(N([H])C([H])([H])[H])C([H])([H])[H])C(C([H])([H])[H])(C([H])([H])[H])C([H])([H])[H])C([H])([H])c2c([H])c(OC([H])([H])c3c(C([H])([H])[H])nc(N([H])C([H])([H])C4([H])C([H])([H])C([H])([H])N(C(=O)N5C([H])([H])C([H])([H])C([H])([H])C([H])(n6nc(-c7c([H])c([H])c(Oc8c([H])c([H])c(F)c([H])c8F)c([H])c7[H])c(C(=O)N([H])[H])c6N([H])[H])C5([H])[H])C([H])([H])C4([H])[H])c([H])c3OC3([H])C([H])([H])C3([H])C([H])([H])[H])c([H])c([H])c2C1([H])[H]

$$$$
87:0:0
     RDKit          3D

 94104  0  0  1  0  0  0  0  0999 V2000
  -27.9240  -20.9080   19.8540 C   0  0  0  0  0  3  0  0  0  0  0  0
  -28.3580  -19.5170   19.8160 C   0  0  0  0  0  3  0  0  0  0  0  0
  -30.5390  -20.2320   20.3200 C   0  0  0  0  0  3  0  0  0  0  0  0
  -28.7670  -22.0460   20.1380 C   0  0  0  0  0  0  0  0  0  0  0  0
  -30.1270  -21.6230   20.3530 C   0  0  0  0  0  0  0  0  0  0  0  0
  -29.7030  -19.0970   20.0680 C   0  0  0  0  0  0  0  0  0  0  0  0
  -27.0940  -24.4540   22.1220 C   0  0  0  0  0  2  0  0  0  0  0  0
  -26.7390  -23.4780   21.0060 C   0  0  0  0  0  2  0  0  0  0  0  0
  -28.5350  -24.0050   21.9070 C   0  0  0  0  0  2  0  0  0  0  0  0
  -28.1890  -23.5700   20.4600 C   0  0  1  0  0  0  0  0  0  0  0  0
  -28.3220  -24.8360   19.3950 C   0  0  0  0  0  2  0  0  0  0  0  0
  -28.2900  -26.3360   19.7630 O   0  0  0  0  0  0  0  0  0  0  0  0
  -24.6190  -31.7340   23.0440 C   0  0  0  0  0  0  0  0  0  0  0  0
  -27.1720  -27.2290   19.7400 C   0  0  0  0  0  0  0  0  0  0  0  0
  -23.3830  -30.3850   21.3890 C   0  0  0  0  0  3  0  0  0  0  0  0
  -24.8040  -28.8940   19.8530 C   0  0  0  0  0  0  0  0  0  0  0  0
  -25.9200  -30.7110   21.1460 C   0  0  0  0  0  2  0  0  0  0  0  0
  -25.9910  -29.3510   20.4390 C   0  0  0  0  0  0  0  0  0  0  0  0
  -27.1720  -28.5320   20.3660 C   0  0  0  0  0  3  0  0  0  0  0  0
  -25.9570  -26.8520   19.1280 C   0  0  0  0  0  3  0  0  0  0  0  0
  -24.7970  -27.6570   19.1850 C   0  0  0  0  0  3  0  0  0  0  0  0
  -23.5640  -29.7620   19.9770 C   0  0  0  0  0  2  0  0  0  0  0  0
  -24.6620  -30.9640   21.9160 N   0  0  0  0  0  0  0  0  0  0  0  0
  -23.5480  -31.9790   23.6200 O   0  0  0  0  0  0  0  0  0  0  0  0
  -22.7540  -29.3300   22.3320 C   0  0  0  0  0  0  0  0  0  0  0  0
  -21.4310  -29.1230   22.2220 N   0  0  0  0  0  0  0  0  0  0  0  0
  -23.4600  -28.7010   23.1250 O   0  0  0  0  0  0  0  0  0  0  0  0
  -20.9180  -29.6840   21.5580 H   0  0  0  0  0  0  0  0  0  0  0  0
  -18.1010  -27.7890   22.7160 C   0  0  0  0  0  0  0  0  0  0  0  0
  -20.6490  -28.1400   22.9770 C   0  0  0  0  0  3  0  0  0  0  0  0
  -20.8020  -26.7250   22.3730 C   0  0  0  0  0  2  0  0  0  0  0  0
  -19.7080  -26.3810   21.3580 C   0  0  0  0  0  2  0  0  0  0  0  0
  -18.3250  -26.4620   22.0100 C   0  0  0  0  0  2  0  0  0  0  0  0
  -19.1920  -28.5850   23.1550 C   0  0  0  0  0  0  0  0  0  0  0  0
  -18.9290  -29.8250   23.7740 C   0  0  0  0  0  3  0  0  0  0  0  0
  -17.6070  -30.2710   23.9590 C   0  0  0  0  0  3  0  0  0  0  0  0
  -16.5290  -29.4740   23.5350 C   0  0  0  0  0  3  0  0  0  0  0  0
  -16.7780  -28.2330   22.9190 C   0  0  0  0  0  3  0  0  0  0  0  0
  -25.9080  -32.3630   23.6550 C   0  0  0  0  0  3  0  0  0  0  0  0
  -26.4670  -31.5560   24.8920 C   0  0  1  0  0  0  0  0  0  0  0  0
  -25.4070  -31.2800   25.9850 C   0  0  0  0  0  1  0  0  0  0  0  0
  -27.0450  -30.1940   24.4440 C   0  0  0  0  0  1  0  0  0  0  0  0
  -27.6330  -32.3360   25.5430 C   0  0  0  0  0  1  0  0  0  0  0  0
  -25.5920  -33.7450   24.0460 N   0  0  0  0  0  0  0  0  0  0  0  0
  -25.9080  -34.8330   23.3310 C   0  0  0  0  0  0  0  0  0  0  0  0
  -26.5650  -34.7780   22.2880 O   0  0  0  0  0  0  0  0  0  0  0  0
  -25.0060  -33.8610   24.8600 H   0  0  0  0  0  0  0  0  0  0  0  0
  -24.1740  -36.6390   23.0680 C   0  0  0  0  0  1  0  0  0  0  0  0
  -25.4200  -36.1980   23.8540 C   0  0  0  0  0  3  0  0  0  0  0  0
  -27.5500  -37.0550   24.7260 C   0  0  0  0  0  1  0  0  0  0  0  0
  -26.4500  -37.2580   23.7870 N   0  0  0  0  0  0  0  0  0  0  0  0
  -26.0410  -38.1700   23.9710 H   0  0  0  0  0  0  0  0  0  0  0  0
  -31.6220  -23.6800   19.6740 C   0  0  0  0  0  2  0  0  0  0  0  0
  -32.5640  -22.5580   20.0290 C   0  0  0  0  0  2  0  0  0  0  0  0
  -31.1970  -22.6300   20.6740 C   0  0  0  0  0  3  0  0  0  0  0  0
  -30.3790  -17.6070   19.8840 C   0  0  0  0  0  2  0  0  0  0  0  0
  -30.6070  -14.9660   20.0640 C   0  0  0  0  0  0  0  0  0  0  0  0
  -30.4340  -12.6170   19.1710 C   0  0  0  0  0  2  0  0  0  0  0  0
  -29.4720  -12.5770   17.9620 C   0  0  0  0  0  2  0  0  0  0  0  0
  -28.0200  -12.3820   18.4360 C   0  0  0  0  0  2  0  0  0  0  0  0
  -27.6480  -13.3200   19.6140 C   0  0  0  0  0  3  0  0  0  0  0  0
  -28.7310  -13.3430   20.7120 C   0  0  0  0  0  2  0  0  0  0  0  0
  -29.9890  -13.7230   20.0610 N   0  0  0  0  0  0  0  0  0  0  0  0
  -31.7990  -15.0120   19.7420 O   0  0  0  0  0  0  0  0  0  0  0  0
  -29.8690  -16.1660   20.1930 N   0  0  0  0  0  0  0  0  0  0  0  0
  -28.8910  -16.0730   20.4180 H   0  0  0  0  0  0  0  0  0  0  0  0
  -25.2950  -13.9040   20.4350 C   0  0  0  0  0  0  0  0  0  0  0  0
  -24.2410  -13.1290   20.8340 C   0  0  0  0  0  0  0  0  0  0  0  0
  -24.6990  -11.7780   20.7800 C   0  0  0  0  0  0  0  0  0  0  0  0
  -26.3260  -13.0240   20.1540 N   0  0  0  0  0  0  0  0  0  0  0  0
  -25.9790  -11.7390   20.4280 N   0  0  0  0  0  0  0  0  0  0  0  0
  -23.9740  -10.5160   20.9830 C   0  0  0  0  0  0  0  0  0  0  0  0
  -24.4200   -9.5490   21.9110 C   0  0  0  0  0  3  0  0  0  0  0  0
  -23.6940   -8.3540   22.1030 C   0  0  0  0  0  3  0  0  0  0  0  0
  -22.5090   -8.1160   21.3660 C   0  0  0  0  0  0  0  0  0  0  0  0
  -22.0830   -9.0710   20.4260 C   0  0  0  0  0  3  0  0  0  0  0  0
  -22.8090  -10.2580   20.2330 C   0  0  0  0  0  3  0  0  0  0  0  0
  -21.7530   -6.9730   21.4680 O   0  0  0  0  0  0  0  0  0  0  0  0
  -21.7170   -6.2360   22.6240 C   0  0  0  0  0  0  0  0  0  0  0  0
  -21.2700   -6.7860   23.8450 C   0  0  0  0  0  3  0  0  0  0  0  0
  -21.1820   -5.9730   24.9930 C   0  0  0  0  0  3  0  0  0  0  0  0
  -21.5300   -4.6110   24.9210 C   0  0  0  0  0  0  0  0  0  0  0  0
  -21.9690   -4.0600   23.7040 C   0  0  0  0  0  3  0  0  0  0  0  0
  -22.0580   -4.8690   22.5580 C   0  0  0  0  0  0  0  0  0  0  0  0
  -22.4610   -4.3280   21.3840 F   0  0  0  0  0  0  0  0  0  0  0  0
  -21.4380   -3.8290   26.0210 F   0  0  0  0  0  0  0  0  0  0  0  0
  -22.8540  -13.6090   21.1510 C   0  0  0  0  0  0  0  0  0  0  0  0
  -22.1490  -12.9090   22.0320 N   0  0  0  0  0  0  0  0  0  0  0  0
  -22.4060  -14.6400   20.6500 O   0  0  0  0  0  0  0  0  0  0  0  0
  -22.5250  -12.0770   22.4590 H   0  0  0  0  0  0  0  0  0  0  0  0
  -21.2190  -13.2130   22.2830 H   0  0  0  0  0  0  0  0  0  0  0  0
  -25.4550  -15.2750   20.2610 N   0  0  0  0  0  0  0  0  0  0  0  0
  -24.6890  -15.9260   20.3990 H   0  0  0  0  0  0  0  0  0  0  0  0
  -26.2800  -15.7130   19.8740 H   0  0  0  0  0  0  0  0  0  0  0  0
  1  4  1  0
  2  1  2  0
  2  6  1  0
  3  5  1  0
  4  5  2  0
  4 10  1  0
  5 55  1  0
  6  3  2  0
  8  7  1  0
  9  7  1  0
 10  8  1  0
 10  9  1  0
 11 12  1  0
 10 11  1  6
 13 24  2  0
 14 12  1  0
 14 19  1  0
 15 23  1  0
 15 25  1  0
 16 22  1  0
 16 18  1  0
 17 23  1  0
 18 17  1  0
 19 18  2  0
 20 21  1  0
 20 14  2  0
 21 16  2  0
 22 15  1  0
 23 13  1  0
 25 27  2  0
 26 25  1  0
 28 26  1  0
 29 38  2  0
 29 34  1  0
 30 26  1  0
 30 34  1  0
 31 30  1  0
 32 33  1  0
 32 31  1  0
 33 29  1  0
 34 35  2  0
 35 36  1  0
 37 36  2  0
 38 37  1  0
 39 13  1  0
 39 44  1  0
 39 40  1  0
 40 43  1  1
 40 41  1  0
 42 40  1  0
 44 47  1  0
 45 49  1  0
 45 44  1  0
 46 45  2  0
 49 48  1  0
 51 49  1  0
 51 52  1  0
 51 50  1  0
 53 54  1  0
 53 55  1  0
 54 55  1  0
 56  6  1  0
 56 65  1  0
 57 65  1  0
 58 63  1  0
 59 60  1  0
 59 58  1  0
 61 60  1  0
 61 70  1  0
 61 62  1  0
 63 57  1  0
 63 62  1  0
 64 57  2  0
 65 66  1  0
 67 68  2  0
 68 87  1  0
 69 68  1  0
 69 72  1  0
 70 71  1  0
 70 67  1  0
 71 69  2  0
 72 73  1  0
 73 74  2  0
 75 78  1  0
 75 74  1  0
 76 75  2  0
 77 76  1  0
 77 72  2  0
 78 79  1  0
 79 80  1  0
 80 81  2  0
 82 81  1  0
 82 86  1  0
 83 82  2  0
 84 79  2  0
 84 83  1  0
 85 84  1  0
 87 88  1  0
 88 91  1  0
 88 90  1  0
 89 87  2  0
 92 93  1  0
 92 67  1  0
 94 92  1  0
M  ISO  4  11 101  12 101  57 100  65 100
M  END
>  <TORSDO>  (88) 
F 20

>  <SCORE>  (88) 
-13.735

>  <name>  (88) 
87

>  <ligand_id>  (88) 
87

>  <original_smiles>  (88) 
[H]c1c([H])c([H])c2c(c1[H])C([H])([H])C([H])([H])C([H])([H])C2([H])N([H])C(=O)C1([H])N(C(=O)C([H])(N([H])C(=O)C([H])(N([H])C([H])([H])[H])C([H])([H])[H])C(C([H])([H])[H])(C([H])([H])[H])C([H])([H])[H])C([H])([H])c2c([H])c(OC([H])([H])C3(c4c([H])c([H])c(C([H])([H])N([H])C(=O)N5C([H])([H])C([H])([H])C([H])([H])C([H])(n6nc(-c7c([H])c([H])c(Oc8c([H])c([H])c(F)c([H])c8F)c([H])c7[H])c(C(=O)N([H])[H])c6N([H])[H])C5([H])[H])c([H])c4C4([H])C([H])([H])C4([H])[H])C([H])([H])C([H])([H])C3([H])[H])c([H])c([H])c2C1([H])[H]

>  <smiles>  (88) 
[H]c1c([H])c([H])c2c(c1[H])C([H])([H])C([H])([H])C([H])([H])C2([H])N([H])C(=O)C1([H])N(C(=O)C([H])(N([H])C(=O)C([H])(N([H])C([H])([H])[H])C([H])([H])[H])C(C([H])([H])[H])(C([H])([H])[H])C([H])([H])[H])C([H])([H])c2c([H])c(OC([H])([H])C3(c4c([H])c([H])c(C([H])([H])N([H])C(=O)N5C([H])([H])C([H])([H])C([H])([H])C([H])(n6nc(-c7c([H])c([H])c(Oc8c([H])c([H])c(F)c([H])c8F)c([H])c7[H])c(C(=O)N([H])[H])c6N([H])[H])C5([H])[H])c([H])c4C4([H])C([H])([H])C4([H])[H])C([H])([H])C([H])([H])C3([H])[H])c([H])c([H])c2C1([H])[H]

$$$$
88:0:0
     RDKit          3D

 94103  0  0  1  0  0  0  0  0999 V2000
  -29.2930  -20.6930   20.1280 C   0  0  0  0  0  3  0  0  0  0  0  0
  -29.9130  -22.1680   21.9570 C   0  0  0  0  0  3  0  0  0  0  0  0
  -29.7480  -19.5470   20.8430 C   0  0  0  0  0  0  0  0  0  0  0  0
  -30.3070  -19.7520   22.1330 C   0  0  0  0  0  0  0  0  0  0  0  0
  -29.3510  -22.0040   20.6760 C   0  0  0  0  0  0  0  0  0  0  0  0
  -30.4070  -21.0560   22.6860 C   0  0  0  0  0  0  0  0  0  0  0  0
  -30.7950  -18.5550   22.9390 C   0  0  0  0  0  1  0  0  0  0  0  0
  -30.1200  -17.7490   18.9460 C   0  0  0  0  0  2  0  0  0  0  0  0
  -29.5440  -18.1340   20.2840 C   0  0  0  0  0  3  0  0  0  0  0  0
  -30.6050  -17.0110   20.1780 C   0  0  0  0  0  3  0  0  0  0  0  0
  -30.9690  -14.5330   19.9690 C   0  0  0  0  0  0  0  0  0  0  0  0
  -30.6290  -12.3150   18.9350 C   0  0  0  0  0  2  0  0  0  0  0  0
  -29.6360  -12.4760   17.7630 C   0  0  0  0  0  2  0  0  0  0  0  0
  -28.1810  -12.3650   18.2600 C   0  0  0  0  0  2  0  0  0  0  0  0
  -27.9020  -13.2550   19.5010 C   0  0  0  0  0  3  0  0  0  0  0  0
  -29.0020  -13.0740   20.5720 C   0  0  0  0  0  2  0  0  0  0  0  0
  -30.2990  -13.3470   19.9340 N   0  0  0  0  0  0  0  0  0  0  0  0
  -32.1090  -14.6640   19.5130 O   0  0  0  0  0  0  0  0  0  0  0  0
  -30.2280  -15.6130   20.3140 N   0  0  0  0  0  0  0  0  0  0  0  0
  -29.2990  -15.4200   20.6560 H   0  0  0  0  0  0  0  0  0  0  0  0
  -25.5630  -13.9290   20.3350 C   0  0  0  0  0  0  0  0  0  0  0  0
  -24.4920  -13.1880   20.7570 C   0  0  0  0  0  0  0  0  0  0  0  0
  -24.9100  -11.8230   20.6960 C   0  0  0  0  0  0  0  0  0  0  0  0
  -26.5680  -13.0170   20.0470 N   0  0  0  0  0  0  0  0  0  0  0  0
  -26.1800  -11.7450   20.3220 N   0  0  0  0  0  0  0  0  0  0  0  0
  -24.1540  -10.5820   20.9160 C   0  0  0  0  0  0  0  0  0  0  0  0
  -24.5830   -9.6130   21.8490 C   0  0  0  0  0  3  0  0  0  0  0  0
  -23.8310   -8.4360   22.0550 C   0  0  0  0  0  3  0  0  0  0  0  0
  -22.6360   -8.2220   21.3290 C   0  0  0  0  0  0  0  0  0  0  0  0
  -22.2260   -9.1790   20.3840 C   0  0  0  0  0  3  0  0  0  0  0  0
  -22.9780  -10.3460   20.1760 C   0  0  0  0  0  3  0  0  0  0  0  0
  -21.8540   -7.0980   21.4450 O   0  0  0  0  0  0  0  0  0  0  0  0
  -21.7770   -6.3920   22.6190 C   0  0  0  0  0  0  0  0  0  0  0  0
  -21.3420   -6.9900   23.8210 C   0  0  0  0  0  3  0  0  0  0  0  0
  -21.2110   -6.2130   24.9880 C   0  0  0  0  0  3  0  0  0  0  0  0
  -21.5060   -4.8360   24.9540 C   0  0  0  0  0  0  0  0  0  0  0  0
  -21.9370   -4.2370   23.7570 C   0  0  0  0  0  3  0  0  0  0  0  0
  -22.0690   -5.0130   22.5920 C   0  0  0  0  0  0  0  0  0  0  0  0
  -22.4630   -4.4270   21.4370 F   0  0  0  0  0  0  0  0  0  0  0  0
  -21.3740   -4.0860   26.0730 F   0  0  0  0  0  0  0  0  0  0  0  0
  -23.1250  -13.7060   21.1000 C   0  0  0  0  0  0  0  0  0  0  0  0
  -22.4270  -13.0380   22.0110 N   0  0  0  0  0  0  0  0  0  0  0  0
  -22.6880  -14.7390   20.5940 O   0  0  0  0  0  0  0  0  0  0  0  0
  -22.7940  -12.2030   22.4440 H   0  0  0  0  0  0  0  0  0  0  0  0
  -21.5120  -13.3700   22.2830 H   0  0  0  0  0  0  0  0  0  0  0  0
  -25.7600  -15.2950   20.1540 N   0  0  0  0  0  0  0  0  0  0  0  0
  -25.0110  -15.9660   20.2850 H   0  0  0  0  0  0  0  0  0  0  0  0
  -26.5870  -15.7050   19.7390 H   0  0  0  0  0  0  0  0  0  0  0  0
  -31.1340  -22.4720   24.5000 C   0  0  0  0  0  1  0  0  0  0  0  0
  -30.9880  -21.1750   23.9330 O   0  0  0  0  0  0  0  0  0  0  0  0
  -28.9040  -23.0920   19.9350 O   0  0  0  0  0  0  0  0  0  0  0  0
  -27.9880  -24.0370   20.5410 C   0  0  0  0  0  2  0  0  0  0  0  0
  -28.5900  -25.3520   21.1410 C   0  0  0  0  0  2  0  0  0  0  0  0
  -28.5640  -26.5520   20.3240 O   0  0  0  0  0  0  0  0  0  0  0  0
  -24.6280  -31.8160   23.1870 C   0  0  0  0  0  0  0  0  0  0  0  0
  -27.3950  -27.2950   20.3100 C   0  0  0  0  0  0  0  0  0  0  0  0
  -23.4950  -30.3870   21.5190 C   0  0  0  0  0  3  0  0  0  0  0  0
  -25.0080  -28.8220   20.1880 C   0  0  0  0  0  0  0  0  0  0  0  0
  -26.0290  -30.7370   21.4240 C   0  0  0  0  0  2  0  0  0  0  0  0
  -26.1430  -29.3520   20.8160 C   0  0  0  0  0  0  0  0  0  0  0  0
  -27.3420  -28.5970   20.8690 C   0  0  0  0  0  3  0  0  0  0  0  0
  -26.2440  -26.7880   19.6740 C   0  0  0  0  0  3  0  0  0  0  0  0
  -25.0550  -27.5410   19.6140 C   0  0  0  0  0  3  0  0  0  0  0  0
  -23.7650  -29.6850   20.1620 C   0  0  0  0  0  2  0  0  0  0  0  0
  -24.7330  -30.9980   22.1010 N   0  0  0  0  0  0  0  0  0  0  0  0
  -23.5240  -32.0960   23.6750 O   0  0  0  0  0  0  0  0  0  0  0  0
  -22.8020  -29.3810   22.4670 C   0  0  0  0  0  0  0  0  0  0  0  0
  -21.4800  -29.2110   22.3020 N   0  0  0  0  0  0  0  0  0  0  0  0
  -23.4540  -28.7550   23.3080 O   0  0  0  0  0  0  0  0  0  0  0  0
  -21.0170  -29.7650   21.5950 H   0  0  0  0  0  0  0  0  0  0  0  0
  -18.0770  -28.0680   22.7150 C   0  0  0  0  0  0  0  0  0  0  0  0
  -20.6300  -28.2900   23.0540 C   0  0  0  0  0  3  0  0  0  0  0  0
  -20.7270  -26.8550   22.4860 C   0  0  0  0  0  2  0  0  0  0  0  0
  -19.6490  -26.5450   21.4430 C   0  0  0  0  0  2  0  0  0  0  0  0
  -18.2520  -26.7140   22.0480 C   0  0  0  0  0  2  0  0  0  0  0  0
  -19.1950  -28.8150   23.1720 C   0  0  0  0  0  0  0  0  0  0  0  0
  -18.9790  -30.0840   23.7530 C   0  0  0  0  0  3  0  0  0  0  0  0
  -17.6780  -30.6040   23.8830 C   0  0  0  0  0  3  0  0  0  0  0  0
  -16.5750  -29.8540   23.4420 C   0  0  0  0  0  3  0  0  0  0  0  0
  -16.7750  -28.5880   22.8630 C   0  0  0  0  0  3  0  0  0  0  0  0
  -25.8850  -32.4590   23.8520 C   0  0  0  0  0  3  0  0  0  0  0  0
  -25.5510  -33.8520   24.1760 N   0  0  0  0  0  0  0  0  0  0  0  0
  -25.8930  -34.9100   23.4270 C   0  0  0  0  0  0  0  0  0  0  0  0
  -26.5920  -34.8150   22.4140 O   0  0  0  0  0  0  0  0  0  0  0  0
  -24.9320  -33.9990   24.9600 H   0  0  0  0  0  0  0  0  0  0  0  0
  -24.1530  -36.6820   23.0250 C   0  0  0  0  0  1  0  0  0  0  0  0
  -25.3750  -36.2910   23.8710 C   0  0  0  0  0  3  0  0  0  0  0  0
  -27.4740  -37.2010   24.7650 C   0  0  0  0  0  1  0  0  0  0  0  0
  -26.3970  -37.3560   23.7890 N   0  0  0  0  0  0  0  0  0  0  0  0
  -25.9750  -38.2710   23.9260 H   0  0  0  0  0  0  0  0  0  0  0  0
  -26.3700  -31.6880   25.1410 C   0  0  1  0  0  0  0  0  0  0  0  0
  -25.2460  -31.4340   26.1730 C   0  0  0  0  0  1  0  0  0  0  0  0
  -26.9830  -30.3200   24.7610 C   0  0  0  0  0  1  0  0  0  0  0  0
  -27.4890  -32.4940   25.8420 C   0  0  0  0  0  1  0  0  0  0  0  0
  1  5  2  0
  1  3  1  0
  2  6  2  0
  3  4  2  0
  4  6  1  0
  4  7  1  0
  5  2  1  0
  6 50  1  0
  8 10  1  0
  8  9  1  0
  9  3  1  0
 10  9  1  0
 10 19  1  0
 11 19  1  0
 12 17  1  0
 13 14  1  0
 13 12  1  0
 15 14  1  0
 15 24  1  0
 15 16  1  0
 17 11  1  0
 17 16  1  0
 18 11  2  0
 19 20  1  0
 21 22  2  0
 22 41  1  0
 23 22  1  0
 23 26  1  0
 24 25  1  0
 24 21  1  0
 25 23  2  0
 26 27  1  0
 27 28  2  0
 29 32  1  0
 29 28  1  0
 30 29  2  0
 31 30  1  0
 31 26  2  0
 32 33  1  0
 33 34  1  0
 34 35  2  0
 36 35  1  0
 36 40  1  0
 37 36  2  0
 38 33  2  0
 38 37  1  0
 39 38  1  0
 41 42  1  0
 42 45  1  0
 42 44  1  0
 43 41  2  0
 46 47  1  0
 46 21  1  0
 48 46  1  0
 50 49  1  0
 51 52  1  0
 51  5  1  0
 52 53  1  0
 54 53  1  0
 55 66  2  0
 56 54  1  0
 56 61  1  0
 57 65  1  0
 57 67  1  0
 58 60  1  0
 59 65  1  0
 60 61  2  0
 60 59  1  0
 62 56  2  0
 63 62  1  0
 63 58  2  0
 64 58  1  0
 64 57  1  0
 65 55  1  0
 67 69  2  0
 68 67  1  0
 70 68  1  0
 71 80  2  0
 71 76  1  0
 72 68  1  0
 72 76  1  0
 73 72  1  0
 74 75  1  0
 74 73  1  0
 75 71  1  0
 76 77  2  0
 77 78  1  0
 79 78  2  0
 80 79  1  0
 81 55  1  0
 81 82  1  0
 81 91  1  0
 82 85  1  0
 83 87  1  0
 83 82  1  0
 84 83  2  0
 87 86  1  0
 89 87  1  0
 89 90  1  0
 89 88  1  0
 91 94  1  1
 91 92  1  0
 93 91  1  0
M  ISO  4  11 100  19 100  53 101  54 101
M  END
>  <TORSDO>  (89) 
F 21

>  <SCORE>  (89) 
-12.635

>  <name>  (89) 
88

>  <ligand_id>  (89) 
88

>  <original_smiles>  (89) 
[H]c1c([H])c([H])c2c(c1[H])C([H])([H])C([H])([H])C([H])([H])C2([H])N([H])C(=O)C1([H])N(C(=O)C([H])(N([H])C(=O)C([H])(N([H])C([H])([H])[H])C([H])([H])[H])C(C([H])([H])[H])(C([H])([H])[H])C([H])([H])[H])C([H])([H])c2c([H])c(OC([H])([H])C([H])([H])Oc3c([H])c(OC([H])([H])[H])c(C([H])([H])[H])c(C4([H])C([H])([H])C4([H])N([H])C(=O)N4C([H])([H])C([H])([H])C([H])([H])C([H])(n5nc(-c6c([H])c([H])c(Oc7c([H])c([H])c(F)c([H])c7F)c([H])c6[H])c(C(=O)N([H])[H])c5N([H])[H])C4([H])[H])c3[H])c([H])c([H])c2C1([H])[H]

>  <smiles>  (89) 
[H]c1c([H])c([H])c2c(c1[H])C([H])([H])C([H])([H])C([H])([H])C2([H])N([H])C(=O)C1([H])N(C(=O)C([H])(N([H])C(=O)C([H])(N([H])C([H])([H])[H])C([H])([H])[H])C(C([H])([H])[H])(C([H])([H])[H])C([H])([H])[H])C([H])([H])c2c([H])c(OC([H])([H])C([H])([H])Oc3c([H])c(OC([H])([H])[H])c(C([H])([H])[H])c(C4([H])C([H])([H])C4([H])N([H])C(=O)N4C([H])([H])C([H])([H])C([H])([H])C([H])(n5nc(-c6c([H])c([H])c(Oc7c([H])c([H])c(F)c([H])c7F)c([H])c6[H])c(C(=O)N([H])[H])c5N([H])[H])C4([H])[H])c3[H])c([H])c([H])c2C1([H])[H]

$$$$
89:0:0
     RDKit          3D

 98108  0  0  1  0  0  0  0  0999 V2000
  -29.1720  -21.4070   21.4960 C   0  0  0  0  0  3  0  0  0  0  0  0
  -29.2900  -23.1780   19.3550 C   0  0  0  0  0  3  0  0  0  0  0  0
  -29.6070  -20.8410   20.2700 C   0  0  0  0  0  0  0  0  0  0  0  0
  -29.6630  -21.7880   19.1770 C   0  0  0  0  0  0  0  0  0  0  0  0
  -28.8100  -22.7820   21.6610 C   0  0  0  0  0  0  0  0  0  0  0  0
  -28.8580  -23.7330   20.5900 C   0  0  0  0  0  0  0  0  0  0  0  0
  -28.3320  -23.2110   23.0400 C   0  0  0  0  0  1  0  0  0  0  0  0
  -30.9540  -14.8590   20.3330 C   0  0  0  0  0  0  0  0  0  0  0  0
  -30.6550  -12.5740   19.3590 C   0  0  0  0  0  2  0  0  0  0  0  0
  -29.7340  -12.5820   18.1250 C   0  0  0  0  0  2  0  0  0  0  0  0
  -28.2710  -12.3870   18.5580 C   0  0  0  0  0  2  0  0  0  0  0  0
  -27.8750  -13.3280   19.7220 C   0  0  0  0  0  3  0  0  0  0  0  0
  -28.9300  -13.3650   20.8540 C   0  0  0  0  0  2  0  0  0  0  0  0
  -30.2280  -13.6860   20.2480 N   0  0  0  0  0  0  0  0  0  0  0  0
  -32.1550  -14.8090   20.0530 O   0  0  0  0  0  0  0  0  0  0  0  0
  -30.7710  -18.6530   21.3820 C   0  0  0  0  0  2  0  0  0  0  0  0
  -28.8730  -18.2370   19.9980 C   0  0  0  0  0  2  0  0  0  0  0  0
  -31.3100  -17.1840   21.1340 C   0  0  0  0  0  2  0  0  0  0  0  0
  -29.3230  -16.7290   19.7610 C   0  0  0  0  0  2  0  0  0  0  0  0
  -30.0100  -19.2790   20.1820 C   0  0  0  0  0  3  0  0  0  0  0  0
  -30.3840  -16.1150   20.6220 N   0  0  0  0  0  0  0  0  0  0  0  0
  -25.5020  -13.9440   20.4630 C   0  0  0  0  0  0  0  0  0  0  0  0
  -24.4290  -13.1800   20.8310 C   0  0  0  0  0  0  0  0  0  0  0  0
  -24.8850  -11.8250   20.8090 C   0  0  0  0  0  0  0  0  0  0  0  0
  -26.5380  -13.0550   20.2270 N   0  0  0  0  0  0  0  0  0  0  0  0
  -26.1760  -11.7770   20.5050 N   0  0  0  0  0  0  0  0  0  0  0  0
  -24.1530  -10.5690   21.0010 C   0  0  0  0  0  0  0  0  0  0  0  0
  -24.5680   -9.6110   21.9520 C   0  0  0  0  0  3  0  0  0  0  0  0
  -23.8360   -8.4170   22.1280 C   0  0  0  0  0  3  0  0  0  0  0  0
  -22.6760   -8.1720   21.3530 C   0  0  0  0  0  0  0  0  0  0  0  0
  -22.2820   -9.1200   20.3910 C   0  0  0  0  0  3  0  0  0  0  0  0
  -23.0150  -10.3060   20.2130 C   0  0  0  0  0  3  0  0  0  0  0  0
  -21.9190   -7.0290   21.4390 O   0  0  0  0  0  0  0  0  0  0  0  0
  -21.8340   -6.3090   22.6040 C   0  0  0  0  0  0  0  0  0  0  0  0
  -21.3040   -6.8670   23.7880 C   0  0  0  0  0  3  0  0  0  0  0  0
  -21.1720   -6.0700   24.9430 C   0  0  0  0  0  3  0  0  0  0  0  0
  -21.5580   -4.7160   24.9130 C   0  0  0  0  0  0  0  0  0  0  0  0
  -22.0790   -4.1580   23.7330 C   0  0  0  0  0  3  0  0  0  0  0  0
  -22.2150   -4.9530   22.5810 C   0  0  0  0  0  0  0  0  0  0  0  0
  -22.6990   -4.4040   21.4400 F   0  0  0  0  0  0  0  0  0  0  0  0
  -21.4220   -3.9470   26.0190 F   0  0  0  0  0  0  0  0  0  0  0  0
  -23.0340  -13.6650   21.0900 C   0  0  0  0  0  0  0  0  0  0  0  0
  -22.3020  -12.9870   21.9680 N   0  0  0  0  0  0  0  0  0  0  0  0
  -22.6010  -14.6820   20.5510 O   0  0  0  0  0  0  0  0  0  0  0  0
  -22.6640  -12.1630   22.4240 H   0  0  0  0  0  0  0  0  0  0  0  0
  -21.3660  -13.2960   22.1850 H   0  0  0  0  0  0  0  0  0  0  0  0
  -25.6770  -15.3130   20.2850 N   0  0  0  0  0  0  0  0  0  0  0  0
  -24.9180  -15.9770   20.4000 H   0  0  0  0  0  0  0  0  0  0  0  0
  -26.5390  -15.7460   19.9870 H   0  0  0  0  0  0  0  0  0  0  0  0
  -30.6100  -22.3650   16.7760 C   0  0  0  0  0  2  0  0  0  0  0  0
  -30.5870  -21.5890   15.4520 C   0  0  0  0  0  2  0  0  0  0  0  0
  -28.9970  -20.6290   16.9620 C   0  0  0  0  0  2  0  0  0  0  0  0
  -30.0960  -21.3210   17.7750 C   0  0  0  0  0  3  0  0  0  0  0  0
  -29.5010  -20.5930   15.5750 N   0  0  0  0  0  4  0  0  0  0  0  0
  -29.8640  -19.6790   15.3600 H   0  0  0  0  0  0  0  0  0  0  0  0
  -28.7540  -20.7920   14.9300 H   0  0  0  0  0  0  0  0  0  0  0  0
  -28.2760  -25.2150   20.8060 C   0  0  0  0  0  2  0  0  0  0  0  0
  -28.4950  -26.4100   19.9340 O   0  0  0  0  0  0  0  0  0  0  0  0
  -24.5910  -31.7070   23.0390 C   0  0  0  0  0  0  0  0  0  0  0  0
  -27.4050  -27.3070   19.9020 C   0  0  0  0  0  0  0  0  0  0  0  0
  -23.4670  -30.3200   21.3370 C   0  0  0  0  0  3  0  0  0  0  0  0
  -24.9970  -28.8640   19.8870 C   0  0  0  0  0  0  0  0  0  0  0  0
  -25.9980  -30.7240   21.2090 C   0  0  0  0  0  2  0  0  0  0  0  0
  -26.1400  -29.3660   20.5250 C   0  0  0  0  0  0  0  0  0  0  0  0
  -27.3500  -28.5990   20.5230 C   0  0  0  0  0  3  0  0  0  0  0  0
  -26.2440  -26.8770   19.2250 C   0  0  0  0  0  3  0  0  0  0  0  0
  -25.0540  -27.6290   19.2250 C   0  0  0  0  0  3  0  0  0  0  0  0
  -23.7290  -29.6960   19.9400 C   0  0  0  0  0  2  0  0  0  0  0  0
  -24.7030  -30.9340   21.9200 N   0  0  0  0  0  0  0  0  0  0  0  0
  -23.4890  -31.9320   23.5620 O   0  0  0  0  0  0  0  0  0  0  0  0
  -22.8180  -29.2550   22.2550 C   0  0  0  0  0  0  0  0  0  0  0  0
  -21.4910  -29.0730   22.1340 N   0  0  0  0  0  0  0  0  0  0  0  0
  -23.5080  -28.5980   23.0370 O   0  0  0  0  0  0  0  0  0  0  0  0
  -20.9930  -29.6580   21.4780 H   0  0  0  0  0  0  0  0  0  0  0  0
  -18.1150  -27.9040   22.7060 C   0  0  0  0  0  0  0  0  0  0  0  0
  -20.6890  -28.0930   22.8680 C   0  0  0  0  0  3  0  0  0  0  0  0
  -20.7300  -26.7100   22.1740 C   0  0  0  0  0  2  0  0  0  0  0  0
  -19.5730  -26.4920   21.1940 C   0  0  0  0  0  2  0  0  0  0  0  0
  -18.2270  -26.6110   21.9160 C   0  0  0  0  0  2  0  0  0  0  0  0
  -19.2700  -28.6070   23.1380 C   0  0  0  0  0  0  0  0  0  0  0  0
  -19.1090  -29.8230   23.8390 C   0  0  0  0  0  3  0  0  0  0  0  0
  -17.8250  -30.3310   24.1130 C   0  0  0  0  0  3  0  0  0  0  0  0
  -16.6840  -29.6240   23.6940 C   0  0  0  0  0  3  0  0  0  0  0  0
  -16.8310  -28.4130   22.9960 C   0  0  0  0  0  3  0  0  0  0  0  0
  -25.8380  -32.3670   23.7050 C   0  0  0  0  0  3  0  0  0  0  0  0
  -25.4750  -33.7430   24.0730 N   0  0  0  0  0  0  0  0  0  0  0  0
  -25.7790  -34.8310   23.3510 C   0  0  0  0  0  0  0  0  0  0  0  0
  -26.4680  -34.7820   22.3290 O   0  0  0  0  0  0  0  0  0  0  0  0
  -24.8680  -33.8530   24.8720 H   0  0  0  0  0  0  0  0  0  0  0  0
  -24.0130  -36.5880   23.0050 C   0  0  0  0  0  1  0  0  0  0  0  0
  -25.2380  -36.1870   23.8430 C   0  0  0  0  0  3  0  0  0  0  0  0
  -27.3080  -37.1080   24.7910 C   0  0  0  0  0  1  0  0  0  0  0  0
  -26.2430  -37.2740   23.8050 N   0  0  0  0  0  0  0  0  0  0  0  0
  -25.8030  -38.1770   23.9610 H   0  0  0  0  0  0  0  0  0  0  0  0
  -26.3530  -31.5740   24.9690 C   0  0  1  0  0  0  0  0  0  0  0  0
  -25.2460  -31.2680   26.0060 C   0  0  0  0  0  1  0  0  0  0  0  0
  -26.9920  -30.2310   24.5470 C   0  0  0  0  0  1  0  0  0  0  0  0
  -27.4620  -32.3870   25.6760 C   0  0  0  0  0  1  0  0  0  0  0  0
  1  5  1  0
  2  6  1  0
  3  1  2  0
  4  2  2  0
  4  3  1  0
  5  7  1  0
  6 57  1  0
  6  5  2  0
  8 21  1  0
  9 14  1  0
 10 11  1  0
 10  9  1  0
 12 11  1  0
 12 25  1  0
 12 13  1  0
 14  8  1  0
 14 13  1  0
 15  8  2  0
 17 20  1  0
 18 16  1  0
 19 17  1  0
 19 21  1  0
 20  3  1  0
 20 16  1  0
 21 18  1  0
 22 23  2  0
 23 42  1  0
 24 23  1  0
 24 27  1  0
 25 22  1  0
 25 26  1  0
 26 24  2  0
 27 28  1  0
 28 29  2  0
 30 33  1  0
 30 29  1  0
 31 30  2  0
 32 31  1  0
 32 27  2  0
 33 34  1  0
 34 35  1  0
 35 36  2  0
 37 36  1  0
 37 41  1  0
 38 37  2  0
 39 34  2  0
 39 38  1  0
 40 39  1  0
 42 43  1  0
 43 46  1  0
 43 45  1  0
 44 42  2  0
 47 48  1  0
 47 22  1  0
 49 47  1  0
 50 53  1  0
 51 54  1  0
 51 50  1  0
 52 53  1  0
 53  4  1  0
 54 52  1  0
 55 54  1  0
 56 54  1  0
 58 57  1  0
 59 70  2  0
 60 58  1  0
 60 65  1  0
 61 69  1  0
 61 71  1  0
 62 68  1  0
 62 64  1  0
 63 69  1  0
 64 63  1  0
 65 64  2  0
 66 60  2  0
 67 66  1  0
 67 62  2  0
 68 61  1  0
 69 59  1  0
 71 73  2  0
 72 71  1  0
 74 72  1  0
 75 84  2  0
 75 80  1  0
 76 72  1  0
 76 80  1  0
 77 76  1  0
 78 79  1  0
 78 77  1  0
 79 75  1  0
 80 81  2  0
 81 82  1  0
 83 82  2  0
 84 83  1  0
 85 59  1  0
 85 86  1  0
 85 95  1  0
 86 89  1  0
 87 91  1  0
 87 86  1  0
 88 87  2  0
 91 90  1  0
 93 91  1  0
 93 94  1  0
 93 92  1  0
 95 98  1  1
 95 96  1  0
 97 95  1  0
M  ISO  4   8 100  21 100  57 101  58 101
M  END
>  <TORSDO>  (90) 
F 18

>  <SCORE>  (90) 
-13.960

>  <name>  (90) 
89

>  <ligand_id>  (90) 
89

>  <original_smiles>  (90) 
[H]c1c([H])c([H])c2c(c1[H])C([H])([H])C([H])([H])C([H])([H])C2([H])N([H])C(=O)C1([H])N(C(=O)C([H])(N([H])C(=O)C([H])(N([H])C([H])([H])[H])C([H])([H])[H])C(C([H])([H])[H])(C([H])([H])[H])C([H])([H])[H])C([H])([H])c2c([H])c(OC([H])([H])c3c([H])c(C4([H])C([H])([H])C([H])([H])[N+]([H])([H])C4([H])[H])c(C4([H])C([H])([H])C([H])([H])N(C(=O)N5C([H])([H])C([H])([H])C([H])([H])C([H])(n6nc(-c7c([H])c([H])c(Oc8c([H])c([H])c(F)c([H])c8F)c([H])c7[H])c(C(=O)N([H])[H])c6N([H])[H])C5([H])[H])C([H])([H])C4([H])[H])c([H])c3C([H])([H])[H])c([H])c([H])c2C1([H])[H]

>  <smiles>  (90) 
[H]c1c([H])c([H])c2c(c1[H])C([H])([H])C([H])([H])C([H])([H])C2([H])N([H])C(=O)C1([H])N(C(=O)C([H])(N([H])C(=O)C([H])(N([H])C([H])([H])[H])C([H])([H])[H])C(C([H])([H])[H])(C([H])([H])[H])C([H])([H])[H])C([H])([H])c2c([H])c(OC([H])([H])c3c([H])c(C4([H])C([H])([H])C([H])([H])[N+]([H])([H])C4([H])[H])c(C4([H])C([H])([H])C([H])([H])N(C(=O)N5C([H])([H])C([H])([H])C([H])([H])C([H])(n6nc(-c7c([H])c([H])c(Oc8c([H])c([H])c(F)c([H])c8F)c([H])c7[H])c(C(=O)N([H])[H])c6N([H])[H])C5([H])[H])C([H])([H])C4([H])[H])c([H])c3C([H])([H])[H])c([H])c([H])c2C1([H])[H]

$$$$
90:0:0
     RDKit          3D

102111  0  0  1  0  0  0  0  0999 V2000
  -29.9270  -18.0490   20.9950 C   0  0  0  0  0  3  0  0  0  0  0  0
  -28.2910  -19.9810   20.7290 C   0  0  0  0  0  3  0  0  0  0  0  0
  -30.5300  -20.2940   19.8480 C   0  0  0  0  0  3  0  0  0  0  0  0
  -27.9600  -21.2960   20.3500 C   0  0  0  0  0  3  0  0  0  0  0  0
  -30.1990  -21.6240   19.4840 C   0  0  0  0  0  3  0  0  0  0  0  0
  -29.5880  -19.4670   20.5050 C   0  0  0  0  0  0  0  0  0  0  0  0
  -28.9080  -22.1450   19.7480 C   0  0  0  0  0  0  0  0  0  0  0  0
  -28.4710  -23.4150   19.4230 O   0  0  0  0  0  0  0  0  0  0  0  0
  -29.3550  -24.5410   19.4780 C   0  0  0  0  0  2  0  0  0  0  0  0
  -28.7710  -25.5830   20.4620 C   0  0  0  0  0  2  0  0  0  0  0  0
  -28.8210  -26.9380   19.9790 O   0  0  0  0  0  0  0  0  0  0  0  0
  -24.5940  -31.7110   23.1580 C   0  0  0  0  0  0  0  0  0  0  0  0
  -27.6130  -27.6020   19.9690 C   0  0  0  0  0  0  0  0  0  0  0  0
  -23.5320  -30.3250   21.4050 C   0  0  0  0  0  3  0  0  0  0  0  0
  -25.1280  -28.9490   19.9630 C   0  0  0  0  0  0  0  0  0  0  0  0
  -26.0350  -30.8450   21.3180 C   0  0  0  0  0  2  0  0  0  0  0  0
  -26.2300  -29.5170   20.6160 C   0  0  0  0  0  0  0  0  0  0  0  0
  -27.4780  -28.8540   20.6120 C   0  0  0  0  0  3  0  0  0  0  0  0
  -26.4950  -27.0430   19.3120 C   0  0  0  0  0  3  0  0  0  0  0  0
  -25.2550  -27.7100   19.3080 C   0  0  0  0  0  3  0  0  0  0  0  0
  -23.8310  -29.7270   20.0030 C   0  0  0  0  0  2  0  0  0  0  0  0
  -24.7360  -30.9740   22.0210 N   0  0  0  0  0  0  0  0  0  0  0  0
  -23.4810  -31.8910   23.6710 O   0  0  0  0  0  0  0  0  0  0  0  0
  -22.9130  -29.2200   22.2910 C   0  0  0  0  0  0  0  0  0  0  0  0
  -21.5950  -29.0050   22.1450 N   0  0  0  0  0  0  0  0  0  0  0  0
  -23.6140  -28.5620   23.0640 O   0  0  0  0  0  0  0  0  0  0  0  0
  -21.0900  -29.5930   21.4970 H   0  0  0  0  0  0  0  0  0  0  0  0
  -18.2510  -27.7100   22.5810 C   0  0  0  0  0  0  0  0  0  0  0  0
  -20.8080  -27.9910   22.8440 C   0  0  0  0  0  3  0  0  0  0  0  0
  -20.9270  -26.6160   22.1480 C   0  0  0  0  0  2  0  0  0  0  0  0
  -19.8180  -26.3590   21.1230 C   0  0  0  0  0  2  0  0  0  0  0  0
  -18.4420  -26.4250   21.7940 C   0  0  0  0  0  2  0  0  0  0  0  0
  -19.3630  -28.4550   23.0590 C   0  0  0  0  0  0  0  0  0  0  0  0
  -19.1290  -29.6610   23.7550 C   0  0  0  0  0  3  0  0  0  0  0  0
  -17.8180  -30.1230   23.9770 C   0  0  0  0  0  3  0  0  0  0  0  0
  -16.7230  -29.3740   23.5140 C   0  0  0  0  0  3  0  0  0  0  0  0
  -16.9400  -28.1700   22.8210 C   0  0  0  0  0  3  0  0  0  0  0  0
  -25.8180  -32.3840   23.8550 C   0  0  0  0  0  3  0  0  0  0  0  0
  -26.2820  -31.6290   25.1620 C   0  0  1  0  0  0  0  0  0  0  0  0
  -25.1390  -31.3740   26.1710 C   0  0  0  0  0  1  0  0  0  0  0  0
  -26.9130  -30.2620   24.8060 C   0  0  0  0  0  1  0  0  0  0  0  0
  -27.3790  -32.4500   25.8800 C   0  0  0  0  0  1  0  0  0  0  0  0
  -25.4450  -33.7710   24.1610 N   0  0  0  0  0  0  0  0  0  0  0  0
  -25.7750  -34.8300   23.4100 C   0  0  0  0  0  0  0  0  0  0  0  0
  -26.4990  -34.7460   22.4150 O   0  0  0  0  0  0  0  0  0  0  0  0
  -24.8090  -33.9080   24.9330 H   0  0  0  0  0  0  0  0  0  0  0  0
  -23.9890  -36.5450   22.9730 C   0  0  0  0  0  1  0  0  0  0  0  0
  -25.2160  -36.2030   23.8340 C   0  0  0  0  0  3  0  0  0  0  0  0
  -27.2790  -37.1870   24.7310 C   0  0  0  0  0  1  0  0  0  0  0  0
  -26.2090  -37.2970   23.7440 N   0  0  0  0  0  0  0  0  0  0  0  0
  -25.7600  -38.2000   23.8610 H   0  0  0  0  0  0  0  0  0  0  0  0
  -30.9920  -16.8670   23.0940 C   0  0  0  0  0  2  0  0  0  0  0  0
  -30.9650  -17.8800   24.2210 C   0  0  0  0  0  2  0  0  0  0  0  0
  -30.9960  -18.0380   22.1120 C   0  0  0  0  0  3  0  0  0  0  0  0
  -30.6970  -18.9410   23.2450 N   0  0  2  0  0  4  0  0  0  0  0  0
  -29.7130  -19.1650   23.2670 H   0  0  0  0  0  0  0  0  0  0  0  0
  -31.5450  -20.1590   23.4530 C   0  0  0  0  0  3  0  0  0  0  0  0
  -29.8110  -22.0830   23.4420 C   0  0  0  0  0  1  0  0  0  0  0  0
  -31.7890  -22.1580   25.0200 C   0  0  0  0  0  1  0  0  0  0  0  0
  -30.8010  -21.2430   24.2760 C   0  0  0  0  0  3  0  0  0  0  0  0
  -32.0340  -20.7640   22.2190 N   0  0  0  0  0  0  0  0  0  0  0  0
  -31.2890  -20.8650   21.5400 H   0  0  0  0  0  0  0  0  0  0  0  0
  -32.7110  -20.1570   21.7770 H   0  0  0  0  0  0  0  0  0  0  0  0
  -30.2880  -17.0700   19.8460 C   0  0  0  0  0  2  0  0  0  0  0  0
  -30.8530  -14.6220   19.7500 C   0  0  0  0  0  0  0  0  0  0  0  0
  -30.4530  -12.4510   18.6680 C   0  0  0  0  0  2  0  0  0  0  0  0
  -29.4220  -12.6780   17.5410 C   0  0  0  0  0  2  0  0  0  0  0  0
  -27.9830  -12.5710   18.0840 C   0  0  0  0  0  2  0  0  0  0  0  0
  -27.7620  -13.4180   19.3660 C   0  0  0  0  0  3  0  0  0  0  0  0
  -28.8970  -13.1700   20.3890 C   0  0  0  0  0  2  0  0  0  0  0  0
  -30.1820  -13.4420   19.7190 N   0  0  0  0  0  0  0  0  0  0  0  0
  -31.9430  -14.7990   19.2000 O   0  0  0  0  0  0  0  0  0  0  0  0
  -30.1330  -15.6530   20.2230 N   0  0  0  0  0  0  0  0  0  0  0  0
  -29.2570  -15.3950   20.6510 H   0  0  0  0  0  0  0  0  0  0  0  0
  -25.4800  -14.0860   20.3550 C   0  0  0  0  0  0  0  0  0  0  0  0
  -24.4050  -13.3410   20.7590 C   0  0  0  0  0  0  0  0  0  0  0  0
  -24.7760  -11.9750   20.5640 C   0  0  0  0  0  0  0  0  0  0  0  0
  -26.4430  -13.1750   19.9470 N   0  0  0  0  0  0  0  0  0  0  0  0
  -26.0270  -11.8960   20.1280 N   0  0  0  0  0  0  0  0  0  0  0  0
  -23.9940  -10.7410   20.7130 C   0  0  0  0  0  0  0  0  0  0  0  0
  -24.4490   -9.6720   21.5160 C   0  0  0  0  0  3  0  0  0  0  0  0
  -23.6710   -8.5020   21.6560 C   0  0  0  0  0  3  0  0  0  0  0  0
  -22.4240   -8.3960   20.9960 C   0  0  0  0  0  0  0  0  0  0  0  0
  -21.9860   -9.4540   20.1810 C   0  0  0  0  0  3  0  0  0  0  0  0
  -22.7640  -10.6150   20.0370 C   0  0  0  0  0  3  0  0  0  0  0  0
  -21.6120   -7.2880   21.0560 O   0  0  0  0  0  0  0  0  0  0  0  0
  -21.6250   -6.4430   22.1370 C   0  0  0  0  0  0  0  0  0  0  0  0
  -21.3150   -6.8950   23.4390 C   0  0  0  0  0  3  0  0  0  0  0  0
  -21.2720   -5.9800   24.5100 C   0  0  0  0  0  3  0  0  0  0  0  0
  -21.5290   -4.6140   24.2810 C   0  0  0  0  0  0  0  0  0  0  0  0
  -21.8320   -4.1630   22.9850 C   0  0  0  0  0  3  0  0  0  0  0  0
  -21.8770   -5.0740   21.9160 C   0  0  0  0  0  0  0  0  0  0  0  0
  -22.1500   -4.6310   20.6650 F   0  0  0  0  0  0  0  0  0  0  0  0
  -21.4790   -3.7340   25.3070 F   0  0  0  0  0  0  0  0  0  0  0  0
  -23.0700  -13.8640   21.2080 C   0  0  0  0  0  0  0  0  0  0  0  0
  -22.3940  -13.1400   22.0930 N   0  0  0  0  0  0  0  0  0  0  0  0
  -22.6410  -14.9470   20.8120 O   0  0  0  0  0  0  0  0  0  0  0  0
  -22.7540  -12.2610   22.4350 H   0  0  0  0  0  0  0  0  0  0  0  0
  -21.5030  -13.4700   22.4340 H   0  0  0  0  0  0  0  0  0  0  0  0
  -25.7120  -15.4570   20.2800 N   0  0  0  0  0  0  0  0  0  0  0  0
  -24.9940  -16.1360   20.5080 H   0  0  0  0  0  0  0  0  0  0  0  0
  -26.5400  -15.8780   19.8800 H   0  0  0  0  0  0  0  0  0  0  0  0
  1 64  1  0
  3  6  2  0
  4  2  2  0
  5  7  2  0
  5  3  1  0
  6  2  1  0
  6  1  1  0
  7  4  1  0
  8  9  1  0
  8  7  1  0
  9 10  1  0
 11 10  1  0
 12 23  2  0
 13 11  1  0
 13 18  1  0
 14 22  1  0
 14 24  1  0
 15 21  1  0
 15 17  1  0
 16 22  1  0
 17 16  1  0
 18 17  2  0
 19 13  2  0
 20 19  1  0
 20 15  2  0
 21 14  1  0
 22 12  1  0
 24 26  2  0
 25 24  1  0
 27 25  1  0
 28 37  2  0
 28 33  1  0
 29 25  1  0
 29 33  1  0
 30 29  1  0
 31 32  1  0
 31 30  1  0
 32 28  1  0
 33 34  2  0
 34 35  1  0
 36 35  2  0
 37 36  1  0
 38 12  1  0
 38 43  1  0
 38 39  1  0
 39 42  1  1
 39 40  1  0
 41 39  1  0
 43 46  1  0
 44 48  1  0
 44 43  1  0
 45 44  2  0
 48 47  1  0
 50 48  1  0
 50 51  1  0
 50 49  1  0
 52 53  1  0
 54  1  1  0
 54 52  1  0
 54 55  1  0
 55 56  1  6
 55 57  1  0
 55 53  1  0
 57 60  1  0
 58 60  1  0
 60 59  1  0
 61 57  1  0
 62 61  1  0
 63 61  1  0
 64 73  1  0
 65 73  1  0
 66 71  1  0
 67 68  1  0
 67 66  1  0
 69 68  1  0
 69 78  1  0
 69 70  1  0
 71 65  1  0
 71 70  1  0
 72 65  2  0
 73 74  1  0
 75 76  2  0
 76 95  1  0
 77 80  1  0
 77 76  1  0
 78 79  1  0
 78 75  1  0
 79 77  2  0
 80 81  1  0
 81 82  2  0
 83 86  1  0
 83 82  1  0
 84 83  2  0
 85 84  1  0
 85 80  2  0
 86 87  1  0
 87 88  1  0
 88 89  2  0
 90 89  1  0
 90 94  1  0
 91 90  2  0
 92 87  2  0
 92 91  1  0
 93 92  1  0
 95 96  1  0
 96 99  1  0
 96 98  1  0
 97 95  2  0
100 75  1  0
100101  1  0
102100  1  0
M  ISO  4  10 101  11 101  65 100  73 100
M  END
>  <TORSDO>  (91) 
F 25

>  <SCORE>  (91) 
-10.150

>  <name>  (91) 
90

>  <ligand_id>  (91) 
90

>  <original_smiles>  (91) 
[H]c1c([H])c([H])c2c(c1[H])C([H])([H])C([H])([H])C([H])([H])C2([H])N([H])C(=O)C1([H])N(C(=O)C([H])(N([H])C(=O)C([H])(N([H])C([H])([H])[H])C([H])([H])[H])C(C([H])([H])[H])(C([H])([H])[H])C([H])([H])[H])C([H])([H])c2c([H])c(OC([H])([H])C([H])([H])Oc3c([H])c([H])c(C([H])(C([H])([H])N([H])C(=O)N4C([H])([H])C([H])([H])C([H])([H])C([H])(n5nc(-c6c([H])c([H])c(Oc7c([H])c([H])c(F)c([H])c7F)c([H])c6[H])c(C(=O)N([H])[H])c5N([H])[H])C4([H])[H])C4([H])C([H])([H])C([H])([H])[N+]4([H])C([H])(N([H])[H])C([H])(C([H])([H])[H])C([H])([H])[H])c([H])c3[H])c([H])c([H])c2C1([H])[H]

>  <smiles>  (91) 
[H]c1c([H])c([H])c2c(c1[H])C([H])([H])C([H])([H])C([H])([H])C2([H])N([H])C(=O)C1([H])N(C(=O)C([H])(N([H])C(=O)C([H])(N([H])C([H])([H])[H])C([H])([H])[H])C(C([H])([H])[H])(C([H])([H])[H])C([H])([H])[H])C([H])([H])c2c([H])c(OC([H])([H])C([H])([H])Oc3c([H])c([H])c(C([H])(C([H])([H])N([H])C(=O)N4C([H])([H])C([H])([H])C([H])([H])C([H])(n5nc(-c6c([H])c([H])c(Oc7c([H])c([H])c(F)c([H])c7F)c([H])c6[H])c(C(=O)N([H])[H])c5N([H])[H])C4([H])[H])C4([H])C([H])([H])C([H])([H])[N+]4([H])C([H])(N([H])[H])C([H])(C([H])([H])[H])C([H])([H])[H])c([H])c3[H])c([H])c([H])c2C1([H])[H]

$$$$
91:0:0
     RDKit          3D

 95105  0  0  1  0  0  0  0  0999 V2000
  -30.1800  -20.4980   19.2250 C   0  0  0  0  0  3  0  0  0  0  0  0
  -29.8320  -21.8490   18.9530 C   0  0  0  0  0  3  0  0  0  0  0  0
  -28.1120  -20.2100   20.4310 C   0  0  0  0  0  3  0  0  0  0  0  0
  -29.3230  -19.6560   19.9710 C   0  0  0  0  0  0  0  0  0  0  0  0
  -28.6120  -22.4050   19.4230 C   0  0  0  0  0  0  0  0  0  0  0  0
  -27.7600  -21.5570   20.1910 C   0  0  0  0  0  0  0  0  0  0  0  0
  -30.8880  -15.1390   19.5390 C   0  0  0  0  0  0  0  0  0  0  0  0
  -30.6080  -12.8010   18.7910 C   0  0  0  0  0  2  0  0  0  0  0  0
  -29.6100  -12.7550   17.6180 C   0  0  0  0  0  2  0  0  0  0  0  0
  -28.1710  -12.6100   18.1480 C   0  0  0  0  0  2  0  0  0  0  0  0
  -27.8440  -13.6290   19.2740 C   0  0  0  0  0  3  0  0  0  0  0  0
  -28.9650  -13.6850   20.3400 C   0  0  0  0  0  2  0  0  0  0  0  0
  -30.2390  -13.9420   19.6530 N   0  0  0  0  0  0  0  0  0  0  0  0
  -31.9580  -15.2360   18.9330 O   0  0  0  0  0  0  0  0  0  0  0  0
  -29.1510  -16.9600   19.5960 C   0  0  0  0  0  2  0  0  0  0  0  0
  -29.6670  -18.1940   20.3460 C   0  0  0  0  0  3  0  0  0  0  0  0
  -31.0400  -17.5490   20.1610 C   0  0  0  0  0  3  0  0  0  0  0  0
  -30.3350  -16.2420   20.1120 N   0  0  0  0  0  0  0  0  0  0  0  0
  -25.5670  -14.2640   20.2830 C   0  0  0  0  0  0  0  0  0  0  0  0
  -24.5040  -13.5070   20.6960 C   0  0  0  0  0  0  0  0  0  0  0  0
  -24.8900  -12.1460   20.4950 C   0  0  0  0  0  0  0  0  0  0  0  0
  -26.5360  -13.3660   19.8670 N   0  0  0  0  0  0  0  0  0  0  0  0
  -26.1380  -12.0810   20.0510 N   0  0  0  0  0  0  0  0  0  0  0  0
  -24.1210  -10.9040   20.6450 C   0  0  0  0  0  0  0  0  0  0  0  0
  -24.6260   -9.8080   21.3770 C   0  0  0  0  0  3  0  0  0  0  0  0
  -23.8600   -8.6310   21.5240 C   0  0  0  0  0  3  0  0  0  0  0  0
  -22.5750   -8.5430   20.9380 C   0  0  0  0  0  0  0  0  0  0  0  0
  -22.0880   -9.6280   20.1900 C   0  0  0  0  0  3  0  0  0  0  0  0
  -22.8530  -10.7970   20.0390 C   0  0  0  0  0  3  0  0  0  0  0  0
  -21.7720   -7.4300   21.0080 O   0  0  0  0  0  0  0  0  0  0  0  0
  -21.9160   -6.4960   22.0010 C   0  0  0  0  0  0  0  0  0  0  0  0
  -21.8130   -6.8380   23.3670 C   0  0  0  0  0  3  0  0  0  0  0  0
  -21.9000   -5.8330   24.3520 C   0  0  0  0  0  3  0  0  0  0  0  0
  -22.0820   -4.4900   23.9740 C   0  0  0  0  0  0  0  0  0  0  0  0
  -22.1810   -4.1480   22.6140 C   0  0  0  0  0  3  0  0  0  0  0  0
  -22.0960   -5.1480   21.6300 C   0  0  0  0  0  0  0  0  0  0  0  0
  -22.1690   -4.8110   20.3190 F   0  0  0  0  0  0  0  0  0  0  0  0
  -22.1590   -3.5230   24.9180 F   0  0  0  0  0  0  0  0  0  0  0  0
  -23.1700  -14.0160   21.1560 C   0  0  0  0  0  0  0  0  0  0  0  0
  -22.5010  -13.2730   22.0310 N   0  0  0  0  0  0  0  0  0  0  0  0
  -22.7330  -15.1010   20.7750 O   0  0  0  0  0  0  0  0  0  0  0  0
  -22.8720  -12.3940   22.3590 H   0  0  0  0  0  0  0  0  0  0  0  0
  -21.6070  -13.5880   22.3780 H   0  0  0  0  0  0  0  0  0  0  0  0
  -25.7770  -15.6380   20.2070 N   0  0  0  0  0  0  0  0  0  0  0  0
  -25.0490  -16.3020   20.4440 H   0  0  0  0  0  0  0  0  0  0  0  0
  -26.5880  -16.0740   19.7880 H   0  0  0  0  0  0  0  0  0  0  0  0
  -33.4460  -18.1630   21.0150 C   0  0  0  0  0  2  0  0  0  0  0  0
  -32.4750  -18.9080   21.8910 C   0  0  0  0  0  2  0  0  0  0  0  0
  -32.0710  -17.5860   21.2760 C   0  0  0  0  0  3  0  0  0  0  0  0
  -26.4180  -23.3210   21.1060 C   0  0  0  0  0  1  0  0  0  0  0  0
  -26.5550  -21.9560   20.7250 O   0  0  0  0  0  0  0  0  0  0  0  0
  -28.1610  -23.6980   19.1690 O   0  0  0  0  0  0  0  0  0  0  0  0
  -28.7920  -24.6380   18.2770 C   0  0  0  0  0  2  0  0  0  0  0  0
  -27.6990  -25.6270   17.7760 C   0  0  0  0  0  2  0  0  0  0  0  0
  -27.8920  -27.0520   17.9890 O   0  0  0  0  0  0  0  0  0  0  0  0
  -24.5100  -31.1910   22.7340 C   0  0  0  0  0  0  0  0  0  0  0  0
  -26.7390  -27.7680   18.2940 C   0  0  0  0  0  0  0  0  0  0  0  0
  -23.0970  -30.1600   20.9900 C   0  0  0  0  0  3  0  0  0  0  0  0
  -24.3460  -29.1160   19.0270 C   0  0  0  0  0  0  0  0  0  0  0  0
  -25.5590  -30.7050   20.5240 C   0  0  0  0  0  2  0  0  0  0  0  0
  -25.5760  -29.5400   19.5510 C   0  0  0  0  0  0  0  0  0  0  0  0
  -26.7750  -28.8770   19.1800 C   0  0  0  0  0  3  0  0  0  0  0  0
  -25.4830  -27.3900   17.7600 C   0  0  0  0  0  3  0  0  0  0  0  0
  -24.2970  -28.0430   18.1290 C   0  0  0  0  0  3  0  0  0  0  0  0
  -23.1070  -29.8590   19.4690 C   0  0  0  0  0  2  0  0  0  0  0  0
  -24.4160  -30.6870   21.4720 N   0  0  0  0  0  0  0  0  0  0  0  0
  -23.5190  -31.2570   23.4750 O   0  0  0  0  0  0  0  0  0  0  0  0
  -22.6290  -28.8940   21.7450 C   0  0  0  0  0  0  0  0  0  0  0  0
  -21.3190  -28.6020   21.6730 N   0  0  0  0  0  0  0  0  0  0  0  0
  -23.4350  -28.1890   22.3560 O   0  0  0  0  0  0  0  0  0  0  0  0
  -20.7220  -29.2340   21.1590 H   0  0  0  0  0  0  0  0  0  0  0  0
  -18.1440  -26.9180   22.0350 C   0  0  0  0  0  0  0  0  0  0  0  0
  -20.6630  -27.4440   22.2780 C   0  0  0  0  0  3  0  0  0  0  0  0
  -20.9060  -26.1660   21.4400 C   0  0  0  0  0  2  0  0  0  0  0  0
  -19.7990  -25.8970   20.4170 C   0  0  0  0  0  2  0  0  0  0  0  0
  -18.4450  -25.7460   21.1150 C   0  0  0  0  0  2  0  0  0  0  0  0
  -19.1830  -27.7230   22.5690 C   0  0  0  0  0  0  0  0  0  0  0  0
  -18.8470  -28.8200   23.3910 C   0  0  0  0  0  3  0  0  0  0  0  0
  -17.5010  -29.1130   23.6850 C   0  0  0  0  0  3  0  0  0  0  0  0
  -16.4770  -28.3030   23.1670 C   0  0  0  0  0  3  0  0  0  0  0  0
  -16.7980  -27.2060   22.3470 C   0  0  0  0  0  3  0  0  0  0  0  0
  -25.8610  -31.7320   23.2980 C   0  0  0  0  0  3  0  0  0  0  0  0
  -25.5880  -33.0340   23.9210 N   0  0  0  0  0  0  0  0  0  0  0  0
  -25.8580  -34.2200   23.3560 C   0  0  0  0  0  0  0  0  0  0  0  0
  -26.4380  -34.3270   22.2710 O   0  0  0  0  0  0  0  0  0  0  0  0
  -25.0630  -33.0210   24.7830 H   0  0  0  0  0  0  0  0  0  0  0  0
  -24.1080  -36.0190   23.5140 C   0  0  0  0  0  1  0  0  0  0  0  0
  -25.4170  -35.4850   24.1170 C   0  0  0  0  0  3  0  0  0  0  0  0
  -27.6190  -36.2240   24.9110 C   0  0  0  0  0  1  0  0  0  0  0  0
  -26.4370  -36.5560   24.1190 N   0  0  0  0  0  0  0  0  0  0  0  0
  -26.0480  -37.4220   24.4800 H   0  0  0  0  0  0  0  0  0  0  0  0
  -26.5420  -30.7500   24.3290 C   0  0  1  0  0  0  0  0  0  0  0  0
  -25.5970  -30.2910   25.4630 C   0  0  0  0  0  1  0  0  0  0  0  0
  -27.0700  -29.4850   23.6130 C   0  0  0  0  0  1  0  0  0  0  0  0
  -27.7680  -31.4360   24.9750 C   0  0  0  0  0  1  0  0  0  0  0  0
  1  4  1  0
  2  1  2  0
  2  5  1  0
  4  3  2  0
  5  6  2  0
  6  3  1  0
  6 51  1  0
  7 13  1  0
  7 18  1  0
  8 13  1  0
  9 10  1  0
  9  8  1  0
 11 10  1  0
 11 22  1  0
 11 12  1  0
 13 12  1  0
 14  7  2  0
 15 18  1  0
 15 16  1  0
 16  4  1  0
 17 16  1  0
 17 49  1  0
 18 17  1  0
 19 20  2  0
 20 39  1  0
 21 24  1  0
 21 20  1  0
 22 23  1  0
 22 19  1  0
 23 21  2  0
 24 25  1  0
 25 26  2  0
 27 30  1  0
 27 26  1  0
 28 27  2  0
 29 28  1  0
 29 24  2  0
 30 31  1  0
 31 32  1  0
 32 33  2  0
 34 33  1  0
 34 38  1  0
 35 34  2  0
 36 31  2  0
 36 35  1  0
 37 36  1  0
 39 40  1  0
 40 42  1  0
 40 43  1  0
 41 39  2  0
 44 19  1  0
 44 45  1  0
 46 44  1  0
 47 49  1  0
 47 48  1  0
 49 48  1  0
 51 50  1  0
 52  5  1  0
 53 52  1  0
 54 55  1  0
 54 53  1  0
 55 57  1  0
 56 67  2  0
 57 62  1  0
 58 66  1  0
 58 68  1  0
 59 65  1  0
 59 61  1  0
 60 66  1  0
 61 60  1  0
 62 61  2  0
 63 64  1  0
 63 57  2  0
 64 59  2  0
 65 58  1  0
 66 56  1  0
 68 70  2  0
 69 68  1  0
 71 69  1  0
 72 81  2  0
 72 77  1  0
 73 69  1  0
 73 77  1  0
 74 73  1  0
 75 76  1  0
 75 74  1  0
 76 72  1  0
 77 78  2  0
 78 79  1  0
 80 79  2  0
 81 80  1  0
 82 56  1  0
 82 83  1  0
 82 92  1  0
 83 86  1  0
 84 83  1  0
 84 88  1  0
 85 84  2  0
 88 87  1  0
 88 90  1  0
 90 91  1  0
 90 89  1  0
 92 95  1  1
 92 93  1  0
 94 92  1  0
M  ISO  4   7 100  18 100  54 101  55 101
M  END
>  <TORSDO>  (92) 
F 21

>  <SCORE>  (92) 
-8.947

>  <name>  (92) 
91

>  <ligand_id>  (92) 
91

>  <original_smiles>  (92) 
[H]c1c([H])c([H])c2c(c1[H])C([H])([H])C([H])([H])C([H])([H])C2([H])N([H])C(=O)C1([H])N(C(=O)C([H])(N([H])C(=O)C([H])(N([H])C([H])([H])[H])C([H])([H])[H])C(C([H])([H])[H])(C([H])([H])[H])C([H])([H])[H])C([H])([H])c2c([H])c(OC([H])([H])C([H])([H])Oc3c([H])c([H])c(C4([H])C([H])([H])N(C(=O)N5C([H])([H])C([H])([H])C([H])([H])C([H])(n6nc(-c7c([H])c([H])c(Oc8c([H])c([H])c(F)c([H])c8F)c([H])c7[H])c(C(=O)N([H])[H])c6N([H])[H])C5([H])[H])C4([H])C4([H])C([H])([H])C4([H])[H])c([H])c3OC([H])([H])[H])c([H])c([H])c2C1([H])[H]

>  <smiles>  (92) 
[H]c1c([H])c([H])c2c(c1[H])C([H])([H])C([H])([H])C([H])([H])C2([H])N([H])C(=O)C1([H])N(C(=O)C([H])(N([H])C(=O)C([H])(N([H])C([H])([H])[H])C([H])([H])[H])C(C([H])([H])[H])(C([H])([H])[H])C([H])([H])[H])C([H])([H])c2c([H])c(OC([H])([H])C([H])([H])Oc3c([H])c([H])c(C4([H])C([H])([H])N(C(=O)N5C([H])([H])C([H])([H])C([H])([H])C([H])(n6nc(-c7c([H])c([H])c(Oc8c([H])c([H])c(F)c([H])c8F)c([H])c7[H])c(C(=O)N([H])[H])c6N([H])[H])C5([H])[H])C4([H])C4([H])C([H])([H])C4([H])[H])c([H])c3OC([H])([H])[H])c([H])c([H])c2C1([H])[H]

$$$$
92:0:0
     RDKit          3D

 96105  0  0  1  0  0  0  0  0999 V2000
  -31.6390  -22.6810   19.8910 C   0  0  0  0  0  2  0  0  0  0  0  0
  -30.1160  -22.9240   21.9150 C   0  0  0  0  0  2  0  0  0  0  0  0
  -31.8280  -24.2060   19.9160 C   0  0  0  0  0  2  0  0  0  0  0  0
  -30.4010  -24.4340   21.8910 C   0  0  0  0  0  2  0  0  0  0  0  0
  -31.2550  -22.1060   21.2730 C   0  0  0  0  0  3  0  0  0  0  0  0
  -30.6510  -24.9000   20.5010 N   0  0  1  0  0  4  0  0  0  0  0  0
  -29.8450  -24.6300   19.9500 H   0  0  0  0  0  0  0  0  0  0  0  0
  -31.2590  -18.2390   21.4580 C   0  0  0  0  0  3  0  0  0  0  0  0
  -29.4090  -19.1250   20.1850 C   0  0  0  0  0  3  0  0  0  0  0  0
  -30.1200  -18.0120   20.6590 C   0  0  0  0  0  0  0  0  0  0  0  0
  -31.6520  -19.5740   21.7150 C   0  0  0  0  0  0  0  0  0  0  0  0
  -30.8840  -20.6270   21.1580 C   0  0  0  0  0  0  0  0  0  0  0  0
  -32.8960  -19.8480   22.5460 C   0  0  0  0  0  1  0  0  0  0  0  0
  -29.7770  -20.3940   20.4240 N   0  0  0  0  0  0  0  0  0  0  0  0
  -29.6670  -16.6410   20.1690 C   0  0  0  0  0  2  0  0  0  0  0  0
  -30.6540  -14.4480   20.5090 C   0  0  0  0  0  0  0  0  0  0  0  0
  -30.3470  -12.3010   19.3560 C   0  0  0  0  0  2  0  0  0  0  0  0
  -29.4240  -12.5400   18.1420 C   0  0  0  0  0  2  0  0  0  0  0  0
  -27.9450  -12.4100   18.5510 C   0  0  0  0  0  2  0  0  0  0  0  0
  -27.6000  -13.2450   19.8130 C   0  0  0  0  0  3  0  0  0  0  0  0
  -28.6360  -12.9980   20.9370 C   0  0  0  0  0  2  0  0  0  0  0  0
  -29.9830  -13.2700   20.4010 N   0  0  0  0  0  0  0  0  0  0  0  0
  -31.7590  -14.6560   19.9990 O   0  0  0  0  0  0  0  0  0  0  0  0
  -29.9240  -15.4610   20.9950 N   0  0  0  0  0  0  0  0  0  0  0  0
  -29.1280  -15.1600   21.5380 H   0  0  0  0  0  0  0  0  0  0  0  0
  -25.1850  -13.8720   20.4550 C   0  0  0  0  0  0  0  0  0  0  0  0
  -24.1090  -13.1070   20.8180 C   0  0  0  0  0  0  0  0  0  0  0  0
  -24.5680  -11.7540   20.8160 C   0  0  0  0  0  0  0  0  0  0  0  0
  -26.2350  -12.9850   20.2630 N   0  0  0  0  0  0  0  0  0  0  0  0
  -25.8630  -11.7080   20.5350 N   0  0  0  0  0  0  0  0  0  0  0  0
  -23.8370  -10.4960   21.0120 C   0  0  0  0  0  0  0  0  0  0  0  0
  -24.2620   -9.5350   21.9540 C   0  0  0  0  0  3  0  0  0  0  0  0
  -23.5330   -8.3410   22.1390 C   0  0  0  0  0  3  0  0  0  0  0  0
  -22.3640   -8.0990   21.3800 C   0  0  0  0  0  0  0  0  0  0  0  0
  -21.9560   -9.0490   20.4260 C   0  0  0  0  0  3  0  0  0  0  0  0
  -22.6860  -10.2350   20.2410 C   0  0  0  0  0  3  0  0  0  0  0  0
  -21.6050   -6.9570   21.4740 O   0  0  0  0  0  0  0  0  0  0  0  0
  -21.5580   -6.2180   22.6270 C   0  0  0  0  0  0  0  0  0  0  0  0
  -21.1490   -6.7800   23.8570 C   0  0  0  0  0  3  0  0  0  0  0  0
  -21.0500   -5.9670   25.0030 C   0  0  0  0  0  3  0  0  0  0  0  0
  -21.3460   -4.5940   24.9220 C   0  0  0  0  0  0  0  0  0  0  0  0
  -21.7460   -4.0310   23.6960 C   0  0  0  0  0  3  0  0  0  0  0  0
  -21.8490   -4.8400   22.5530 C   0  0  0  0  0  0  0  0  0  0  0  0
  -22.2150   -4.2890   21.3700 F   0  0  0  0  0  0  0  0  0  0  0  0
  -21.2410   -3.8100   26.0210 F   0  0  0  0  0  0  0  0  0  0  0  0
  -22.7080  -13.5890   21.0600 C   0  0  0  0  0  0  0  0  0  0  0  0
  -21.9660  -12.9070   21.9250 N   0  0  0  0  0  0  0  0  0  0  0  0
  -22.2800  -14.6070   20.5170 O   0  0  0  0  0  0  0  0  0  0  0  0
  -22.3270  -12.0840   22.3860 H   0  0  0  0  0  0  0  0  0  0  0  0
  -21.0240  -13.2110   22.1310 H   0  0  0  0  0  0  0  0  0  0  0  0
  -25.3550  -15.2380   20.2570 N   0  0  0  0  0  0  0  0  0  0  0  0
  -24.5820  -15.8920   20.3370 H   0  0  0  0  0  0  0  0  0  0  0  0
  -26.2090  -15.6730   19.9350 H   0  0  0  0  0  0  0  0  0  0  0  0
  -30.7730  -26.3760   20.3560 C   0  0  0  0  0  2  0  0  0  0  0  0
  -29.5230  -27.1760   20.7570 C   0  0  0  0  0  2  0  0  0  0  0  0
  -28.3820  -26.7310   20.0210 O   0  0  0  0  0  0  0  0  0  0  0  0
  -24.5530  -31.8680   23.1950 C   0  0  0  0  0  0  0  0  0  0  0  0
  -27.2280  -27.4860   20.1000 C   0  0  0  0  0  0  0  0  0  0  0  0
  -23.3380  -30.4700   21.5480 C   0  0  0  0  0  3  0  0  0  0  0  0
  -24.7960  -28.9390   20.1190 C   0  0  0  0  0  0  0  0  0  0  0  0
  -25.8510  -30.8550   21.3310 C   0  0  0  0  0  2  0  0  0  0  0  0
  -25.9420  -29.4810   20.7090 C   0  0  0  0  0  0  0  0  0  0  0  0
  -27.1510  -28.7600   20.7170 C   0  0  0  0  0  3  0  0  0  0  0  0
  -26.0640  -26.9530   19.5070 C   0  0  0  0  0  3  0  0  0  0  0  0
  -24.8480  -27.6670   19.5190 C   0  0  0  0  0  3  0  0  0  0  0  0
  -23.5430  -29.7830   20.1670 C   0  0  0  0  0  2  0  0  0  0  0  0
  -24.5980  -31.0790   22.0850 N   0  0  0  0  0  0  0  0  0  0  0  0
  -23.4760  -32.1330   23.7470 O   0  0  0  0  0  0  0  0  0  0  0  0
  -22.7000  -29.4430   22.5110 C   0  0  0  0  0  0  0  0  0  0  0  0
  -21.3720  -29.2700   22.4030 N   0  0  0  0  0  0  0  0  0  0  0  0
  -23.3940  -28.8070   23.3080 O   0  0  0  0  0  0  0  0  0  0  0  0
  -20.8740  -29.8340   21.7280 H   0  0  0  0  0  0  0  0  0  0  0  0
  -18.0000  -28.0960   22.9340 C   0  0  0  0  0  0  0  0  0  0  0  0
  -20.5630  -28.3290   23.1750 C   0  0  0  0  0  3  0  0  0  0  0  0
  -20.6480  -26.9040   22.5830 C   0  0  0  0  0  2  0  0  0  0  0  0
  -19.5310  -26.6010   21.5790 C   0  0  0  0  0  2  0  0  0  0  0  0
  -18.1590  -26.7530   22.2420 C   0  0  0  0  0  2  0  0  0  0  0  0
  -19.1300  -28.8440   23.3570 C   0  0  0  0  0  0  0  0  0  0  0  0
  -18.9290  -30.1060   23.9590 C   0  0  0  0  0  3  0  0  0  0  0  0
  -17.6310  -30.6160   24.1460 C   0  0  0  0  0  3  0  0  0  0  0  0
  -16.5150  -29.8650   23.7380 C   0  0  0  0  0  3  0  0  0  0  0  0
  -16.7010  -28.6070   23.1360 C   0  0  0  0  0  3  0  0  0  0  0  0
  -25.8440  -32.4970   23.8100 C   0  0  0  0  0  3  0  0  0  0  0  0
  -26.3810  -31.7130   25.0690 C   0  0  1  0  0  0  0  0  0  0  0  0
  -25.3020  -31.4650   26.1480 C   0  0  0  0  0  1  0  0  0  0  0  0
  -26.9610  -30.3420   24.6480 C   0  0  0  0  0  1  0  0  0  0  0  0
  -27.5370  -32.5030   25.7260 C   0  0  0  0  0  1  0  0  0  0  0  0
  -25.5370  -33.8900   24.1540 N   0  0  0  0  0  0  0  0  0  0  0  0
  -25.8690  -34.9500   23.4030 C   0  0  0  0  0  0  0  0  0  0  0  0
  -26.5370  -34.8550   22.3700 O   0  0  0  0  0  0  0  0  0  0  0  0
  -24.9470  -34.0380   24.9620 H   0  0  0  0  0  0  0  0  0  0  0  0
  -24.1410  -36.7440   23.0630 C   0  0  0  0  0  1  0  0  0  0  0  0
  -25.3810  -36.3320   23.8740 C   0  0  0  0  0  3  0  0  0  0  0  0
  -27.5170  -37.2090   24.7120 C   0  0  0  0  0  1  0  0  0  0  0  0
  -26.4130  -37.3870   23.7710 N   0  0  0  0  0  0  0  0  0  0  0  0
  -26.0070  -38.3050   23.9290 H   0  0  0  0  0  0  0  0  0  0  0  0
  1  3  1  0
  1  5  1  0
  3  6  1  0
  4  2  1  0
  5 12  1  0
  5  2  1  0
  6  4  1  0
  6  7  1  6
  8 11  1  0
  9 14  2  0
  9 10  1  0
 10  8  2  0
 11 13  1  0
 12 11  2  0
 14 12  1  0
 15 10  1  0
 15 24  1  0
 16 24  1  0
 17 22  1  0
 18 19  1  0
 18 17  1  0
 20 19  1  0
 20 29  1  0
 20 21  1  0
 22 16  1  0
 22 21  1  0
 23 16  2  0
 24 25  1  0
 26 27  2  0
 27 46  1  0
 28 27  1  0
 28 31  1  0
 29 26  1  0
 29 30  1  0
 30 28  2  0
 31 32  1  0
 32 33  2  0
 34 37  1  0
 34 33  1  0
 35 34  2  0
 36 35  1  0
 36 31  2  0
 37 38  1  0
 38 39  1  0
 39 40  2  0
 41 40  1  0
 41 45  1  0
 42 41  2  0
 43 38  2  0
 43 42  1  0
 44 43  1  0
 46 47  1  0
 47 50  1  0
 47 49  1  0
 48 46  2  0
 51 52  1  0
 51 26  1  0
 53 51  1  0
 54  6  1  0
 54 55  1  0
 56 58  1  0
 56 55  1  0
 57 68  2  0
 58 63  1  0
 59 67  1  0
 59 69  1  0
 60 66  1  0
 60 62  1  0
 61 67  1  0
 62 63  2  0
 62 61  1  0
 64 65  1  0
 64 58  2  0
 65 60  2  0
 66 59  1  0
 67 57  1  0
 69 71  2  0
 70 69  1  0
 72 70  1  0
 73 82  2  0
 73 78  1  0
 74 70  1  0
 74 78  1  0
 75 74  1  0
 76 77  1  0
 76 75  1  0
 77 73  1  0
 78 79  2  0
 79 80  1  0
 81 80  2  0
 82 81  1  0
 83 57  1  0
 83 88  1  0
 83 84  1  0
 84 87  1  1
 84 85  1  0
 86 84  1  0
 88 91  1  0
 89 93  1  0
 89 88  1  0
 90 89  2  0
 93 92  1  0
 95 93  1  0
 95 96  1  0
 95 94  1  0
M  ISO  4  16 100  24 100  55 101  56 101
M  END
>  <TORSDO>  (93) 
F 20

>  <SCORE>  (93) 
-14.228

>  <name>  (93) 
92

>  <ligand_id>  (93) 
92

>  <original_smiles>  (93) 
[H]c1nc(C2([H])C([H])([H])C([H])([H])[N+]([H])(C([H])([H])C([H])([H])Oc3c([H])c([H])c4c(c3[H])C([H])([H])N(C(=O)C([H])(N([H])C(=O)C([H])(N([H])C([H])([H])[H])C([H])([H])[H])C(C([H])([H])[H])(C([H])([H])[H])C([H])([H])[H])C([H])(C(=O)N([H])C3([H])c5c([H])c([H])c([H])c([H])c5C([H])([H])C([H])([H])C3([H])[H])C4([H])[H])C([H])([H])C2([H])[H])c(C([H])([H])[H])c([H])c1C([H])([H])N([H])C(=O)N1C([H])([H])C([H])([H])C([H])([H])C([H])(n2nc(-c3c([H])c([H])c(Oc4c([H])c([H])c(F)c([H])c4F)c([H])c3[H])c(C(=O)N([H])[H])c2N([H])[H])C1([H])[H]

>  <smiles>  (93) 
[H]c1nc(C2([H])C([H])([H])C([H])([H])[N+]([H])(C([H])([H])C([H])([H])Oc3c([H])c([H])c4c(c3[H])C([H])([H])N(C(=O)C([H])(N([H])C(=O)C([H])(N([H])C([H])([H])[H])C([H])([H])[H])C(C([H])([H])[H])(C([H])([H])[H])C([H])([H])[H])C([H])(C(=O)N([H])C3([H])c5c([H])c([H])c([H])c([H])c5C([H])([H])C([H])([H])C3([H])[H])C4([H])[H])C([H])([H])C2([H])[H])c(C([H])([H])[H])c([H])c1C([H])([H])N([H])C(=O)N1C([H])([H])C([H])([H])C([H])([H])C([H])(n2nc(-c3c([H])c([H])c(Oc4c([H])c([H])c(F)c([H])c4F)c([H])c3[H])c(C(=O)N([H])[H])c2N([H])[H])C1([H])[H]

$$$$
93:0:0
     RDKit          3D

 98107  0  0  1  0  0  0  0  0999 V2000
  -29.9870  -20.5900   20.7360 C   0  0  0  0  0  3  0  0  0  0  0  0
  -30.1660  -18.9520   18.4630 C   0  0  0  0  0  3  0  0  0  0  0  0
  -30.1480  -19.1650   20.8580 C   0  0  0  0  0  0  0  0  0  0  0  0
  -30.2020  -18.2990   19.7210 C   0  0  0  0  0  0  0  0  0  0  0  0
  -29.9820  -20.3660   18.3410 C   0  0  0  0  0  0  0  0  0  0  0  0
  -29.8600  -21.2310   19.4710 C   0  0  0  0  0  0  0  0  0  0  0  0
  -30.1430  -18.5200   22.2350 C   0  0  0  0  0  2  0  0  0  0  0  0
  -29.2730  -17.2440   22.3090 C   0  0  0  0  0  2  0  0  0  0  0  0
  -29.8280  -16.7610   19.8540 C   0  0  0  0  0  3  0  0  0  0  0  0
  -28.7000  -16.7840   20.9420 C   0  0  0  0  0  3  0  0  0  0  0  0
  -31.3120  -14.5940   19.4170 C   0  0  0  0  0  0  0  0  0  0  0  0
  -31.0330  -12.2760   18.5130 C   0  0  0  0  0  2  0  0  0  0  0  0
  -29.9940  -12.3250   17.3660 C   0  0  0  0  0  2  0  0  0  0  0  0
  -28.5640  -12.1860   17.9230 C   0  0  0  0  0  2  0  0  0  0  0  0
  -28.3100  -13.1310   19.1250 C   0  0  0  0  0  3  0  0  0  0  0  0
  -29.4540  -13.0270   20.1630 C   0  0  0  0  0  2  0  0  0  0  0  0
  -30.7160  -13.3540   19.4810 N   0  0  0  0  0  0  0  0  0  0  0  0
  -32.3300  -14.7600   18.7370 O   0  0  0  0  0  0  0  0  0  0  0  0
  -30.7900  -15.6190   20.1690 N   0  0  0  0  0  0  0  0  0  0  0  0
  -30.6980  -15.3130   21.1230 H   0  0  0  0  0  0  0  0  0  0  0  0
  -26.0340  -13.8120   20.1050 C   0  0  0  0  0  0  0  0  0  0  0  0
  -24.9750  -13.0800   20.5670 C   0  0  0  0  0  0  0  0  0  0  0  0
  -25.3680  -11.7110   20.4590 C   0  0  0  0  0  0  0  0  0  0  0  0
  -27.0020  -12.8940   19.7310 N   0  0  0  0  0  0  0  0  0  0  0  0
  -26.6120  -11.6240   20.0040 N   0  0  0  0  0  0  0  0  0  0  0  0
  -24.6100  -10.4780   20.7010 C   0  0  0  0  0  0  0  0  0  0  0  0
  -25.0250   -9.5330   21.6650 C   0  0  0  0  0  3  0  0  0  0  0  0
  -24.2650   -8.3630   21.8920 C   0  0  0  0  0  3  0  0  0  0  0  0
  -23.0810   -8.1330   21.1540 C   0  0  0  0  0  0  0  0  0  0  0  0
  -22.6850   -9.0650   20.1790 C   0  0  0  0  0  3  0  0  0  0  0  0
  -23.4460  -10.2250   19.9490 C   0  0  0  0  0  3  0  0  0  0  0  0
  -22.2940   -7.0150   21.2890 O   0  0  0  0  0  0  0  0  0  0  0  0
  -22.1150   -6.4040   22.5040 C   0  0  0  0  0  0  0  0  0  0  0  0
  -21.5790   -7.0940   23.6140 C   0  0  0  0  0  3  0  0  0  0  0  0
  -21.3490   -6.4120   24.8250 C   0  0  0  0  0  3  0  0  0  0  0  0
  -21.6410   -5.0370   24.9260 C   0  0  0  0  0  0  0  0  0  0  0  0
  -22.1680   -4.3470   23.8200 C   0  0  0  0  0  3  0  0  0  0  0  0
  -22.4020   -5.0280   22.6120 C   0  0  0  0  0  0  0  0  0  0  0  0
  -22.8920   -4.3530   21.5440 F   0  0  0  0  0  0  0  0  0  0  0  0
  -21.4120   -4.3790   26.0850 F   0  0  0  0  0  0  0  0  0  0  0  0
  -23.6350  -13.6140   20.9890 C   0  0  0  0  0  0  0  0  0  0  0  0
  -22.9800  -12.9470   21.9330 N   0  0  0  0  0  0  0  0  0  0  0  0
  -23.1860  -14.6580   20.5180 O   0  0  0  0  0  0  0  0  0  0  0  0
  -23.3460  -12.0910   22.3240 H   0  0  0  0  0  0  0  0  0  0  0  0
  -22.0920  -13.2940   22.2640 H   0  0  0  0  0  0  0  0  0  0  0  0
  -26.2610  -15.1800   19.9640 N   0  0  0  0  0  0  0  0  0  0  0  0
  -25.3870  -15.6950   20.0390 H   0  0  0  0  0  0  0  0  0  0  0  0
  -26.6990  -15.4120   19.0780 H   0  0  0  0  0  0  0  0  0  0  0  0
  -27.9140  -15.5410   21.0820 N   0  0  0  0  0  4  0  0  0  0  0  0
  -27.2750  -15.6390   21.8530 H   0  0  0  0  0  0  0  0  0  0  0  0
  -28.4680  -14.7240   21.2440 H   0  0  0  0  0  0  0  0  0  0  0  0
  -27.3390  -15.3970   20.2480 H   0  0  0  0  0  0  0  0  0  0  0  0
  -28.5500  -21.0900   16.6330 C   0  0  0  0  0  1  0  0  0  0  0  0
  -29.8890  -20.8900   17.0780 O   0  0  0  0  0  0  0  0  0  0  0  0
  -29.6100  -22.6080   19.2230 O   0  0  0  0  0  0  0  0  0  0  0  0
  -29.3810  -23.6710   20.2210 C   0  0  0  0  0  2  0  0  0  0  0  0
  -28.5790  -24.9400   19.6320 C   0  0  0  0  0  2  0  0  0  0  0  0
  -28.6100  -26.3170   20.2260 O   0  0  0  0  0  0  0  0  0  0  0  0
  -24.7600  -31.7370   23.1250 C   0  0  0  0  0  0  0  0  0  0  0  0
  -27.4860  -27.1720   20.1270 C   0  0  0  0  0  0  0  0  0  0  0  0
  -23.5980  -30.2880   21.5020 C   0  0  0  0  0  3  0  0  0  0  0  0
  -25.0890  -28.7610   20.0920 C   0  0  0  0  0  0  0  0  0  0  0  0
  -26.1350  -30.6470   21.3360 C   0  0  0  0  0  2  0  0  0  0  0  0
  -26.2450  -29.2630   20.7020 C   0  0  0  0  0  0  0  0  0  0  0  0
  -27.4400  -28.4780   20.7190 C   0  0  0  0  0  3  0  0  0  0  0  0
  -26.3140  -26.7540   19.4520 C   0  0  0  0  0  3  0  0  0  0  0  0
  -25.1310  -27.5150   19.4540 C   0  0  0  0  0  3  0  0  0  0  0  0
  -23.8330  -29.6090   20.1280 C   0  0  0  0  0  2  0  0  0  0  0  0
  -24.8500  -30.9100   22.0430 N   0  0  0  0  0  0  0  0  0  0  0  0
  -23.6670  -31.9980   23.6490 O   0  0  0  0  0  0  0  0  0  0  0  0
  -22.9500  -29.2680   22.4700 C   0  0  0  0  0  0  0  0  0  0  0  0
  -21.6330  -29.0420   22.3260 N   0  0  0  0  0  0  0  0  0  0  0  0
  -23.6350  -28.6830   23.3130 O   0  0  0  0  0  0  0  0  0  0  0  0
  -21.1350  -29.5610   21.6150 H   0  0  0  0  0  0  0  0  0  0  0  0
  -18.2870  -27.7540   22.8050 C   0  0  0  0  0  0  0  0  0  0  0  0
  -20.8320  -28.0950   23.1040 C   0  0  0  0  0  3  0  0  0  0  0  0
  -20.9840  -26.6580   22.5530 C   0  0  0  0  0  2  0  0  0  0  0  0
  -19.9080  -26.2850   21.5330 C   0  0  0  0  0  2  0  0  0  0  0  0
  -18.5120  -26.4000   22.1530 C   0  0  0  0  0  2  0  0  0  0  0  0
  -19.3750  -28.5590   23.2350 C   0  0  0  0  0  0  0  0  0  0  0  0
  -19.1100  -29.8250   23.8030 C   0  0  0  0  0  3  0  0  0  0  0  0
  -17.7880  -30.2900   23.9410 C   0  0  0  0  0  3  0  0  0  0  0  0
  -16.7130  -29.4830   23.5300 C   0  0  0  0  0  3  0  0  0  0  0  0
  -16.9630  -28.2160   22.9700 C   0  0  0  0  0  3  0  0  0  0  0  0
  -26.0250  -32.4080   23.7420 C   0  0  0  0  0  3  0  0  0  0  0  0
  -25.6600  -33.7800   24.1250 N   0  0  0  0  0  0  0  0  0  0  0  0
  -25.9100  -34.8690   23.3860 C   0  0  0  0  0  0  0  0  0  0  0  0
  -26.5400  -34.8290   22.3280 O   0  0  0  0  0  0  0  0  0  0  0  0
  -25.0950  -33.8850   24.9550 H   0  0  0  0  0  0  0  0  0  0  0  0
  -24.0760  -36.5770   23.1640 C   0  0  0  0  0  1  0  0  0  0  0  0
  -25.3740  -36.2180   23.9050 C   0  0  0  0  0  3  0  0  0  0  0  0
  -27.4950  -37.1940   24.6650 C   0  0  0  0  0  1  0  0  0  0  0  0
  -26.3440  -37.3260   23.7760 N   0  0  0  0  0  0  0  0  0  0  0  0
  -25.8990  -38.2220   23.9650 H   0  0  0  0  0  0  0  0  0  0  0  0
  -26.6020  -31.6210   24.9830 C   0  0  1  0  0  0  0  0  0  0  0  0
  -25.5320  -31.2660   26.0430 C   0  0  0  0  0  1  0  0  0  0  0  0
  -27.2740  -30.3040   24.5350 C   0  0  0  0  0  1  0  0  0  0  0  0
  -27.7040  -32.4610   25.6730 C   0  0  0  0  0  1  0  0  0  0  0  0
  1  3  1  0
  2  4  1  0
  3  7  1  0
  4  9  1  0
  4  3  2  0
  5  2  2  0
  5  6  1  0
  6  1  2  0
  7  8  1  0
  9 19  1  0
  9 10  1  0
 10 49  1  0
 10  8  1  0
 11 17  1  0
 11 19  1  0
 12 17  1  0
 13 14  1  0
 13 12  1  0
 15 14  1  0
 15 24  1  0
 15 16  1  0
 17 16  1  0
 18 11  2  0
 19 20  1  0
 21 22  2  0
 22 41  1  0
 23 22  1  0
 23 26  1  0
 24 25  1  0
 24 21  1  0
 25 23  2  0
 26 27  1  0
 27 28  2  0
 29 32  1  0
 29 28  1  0
 30 29  2  0
 31 30  1  0
 31 26  2  0
 32 33  1  0
 33 38  2  0
 33 34  1  0
 34 35  2  0
 35 36  1  0
 36 40  1  0
 37 36  2  0
 38 37  1  0
 39 38  1  0
 41 42  1  0
 42 45  1  0
 42 44  1  0
 43 41  2  0
 46 47  1  0
 46 21  1  0
 48 46  1  0
 49 51  1  0
 49 50  1  0
 52 49  1  0
 53 54  1  0
 54  5  1  0
 55  6  1  0
 55 56  1  0
 57 56  1  0
 57 58  1  0
 59 70  2  0
 60 58  1  0
 60 65  1  0
 61 69  1  0
 61 71  1  0
 62 68  1  0
 62 64  1  0
 63 69  1  0
 64 65  2  0
 64 63  1  0
 66 67  1  0
 66 60  2  0
 67 62  2  0
 68 61  1  0
 69 59  1  0
 71 73  2  0
 72 71  1  0
 74 72  1  0
 75 84  2  0
 75 80  1  0
 76 72  1  0
 76 80  1  0
 77 76  1  0
 78 79  1  0
 78 77  1  0
 79 75  1  0
 80 81  2  0
 81 82  1  0
 83 82  2  0
 84 83  1  0
 85 59  1  0
 85 86  1  0
 85 95  1  0
 86 89  1  0
 87 91  1  0
 87 86  1  0
 88 87  2  0
 91 90  1  0
 93 91  1  0
 93 94  1  0
 93 92  1  0
 95 98  1  1
 95 96  1  0
 97 95  1  0
M  ISO  4  11 100  19 100  57 101  58 101
M  END
>  <TORSDO>  (94) 
F 21

>  <SCORE>  (94) 
-9.658

>  <name>  (94) 
93

>  <ligand_id>  (94) 
93

>  <original_smiles>  (94) 
[H]c1c([H])c([H])c2c(c1[H])C([H])([H])C([H])([H])C([H])([H])C2([H])N([H])C(=O)C1([H])N(C(=O)C([H])(N([H])C(=O)C([H])(N([H])C([H])([H])[H])C([H])([H])[H])C(C([H])([H])[H])(C([H])([H])[H])C([H])([H])[H])C([H])([H])c2c([H])c(OC([H])([H])C([H])([H])Oc3c([H])c4c(c([H])c3OC([H])([H])[H])C([H])(N([H])C(=O)N3C([H])([H])C([H])([H])C([H])([H])C([H])(n5nc(-c6c([H])c([H])c(Oc7c([H])c([H])c(F)c([H])c7F)c([H])c6[H])c(C(=O)N([H])[H])c5N([H])[H])C3([H])[H])C([H])([N+]([H])([H])[H])C([H])([H])C4([H])[H])c([H])c([H])c2C1([H])[H]

>  <smiles>  (94) 
[H]c1c([H])c([H])c2c(c1[H])C([H])([H])C([H])([H])C([H])([H])C2([H])N([H])C(=O)C1([H])N(C(=O)C([H])(N([H])C(=O)C([H])(N([H])C([H])([H])[H])C([H])([H])[H])C(C([H])([H])[H])(C([H])([H])[H])C([H])([H])[H])C([H])([H])c2c([H])c(OC([H])([H])C([H])([H])Oc3c([H])c4c(c([H])c3OC([H])([H])[H])C([H])(N([H])C(=O)N3C([H])([H])C([H])([H])C([H])([H])C([H])(n5nc(-c6c([H])c([H])c(Oc7c([H])c([H])c(F)c([H])c7F)c([H])c6[H])c(C(=O)N([H])[H])c5N([H])[H])C3([H])[H])C([H])([N+]([H])([H])[H])C([H])([H])C4([H])[H])c([H])c([H])c2C1([H])[H]

$$$$
94:0:0
     RDKit          3D

 95104  0  0  1  0  0  0  0  0999 V2000
  -29.6840  -22.3190   19.7400 C   0  0  0  0  0  3  0  0  0  0  0  0
  -27.4760  -23.9730   20.2040 C   0  0  0  0  0  3  0  0  0  0  0  0
  -29.8600  -23.7230   19.9050 C   0  0  0  0  0  0  0  0  0  0  0  0
  -28.4060  -21.7110   19.8280 C   0  0  0  0  0  0  0  0  0  0  0  0
  -28.7490  -24.5740   20.1650 C   0  0  0  0  0  0  0  0  0  0  0  0
  -27.2880  -22.5720   20.0360 C   0  0  0  0  0  0  0  0  0  0  0  0
  -31.2610  -24.3020   19.8370 C   0  0  0  0  0  1  0  0  0  0  0  0
  -27.4310  -20.0100   18.2410 C   0  0  0  0  0  1  0  0  0  0  0  0
  -28.1680  -20.1820   19.5810 C   0  0  0  0  0  3  0  0  0  0  0  0
  -31.1680  -15.0390   19.9970 C   0  0  0  0  0  0  0  0  0  0  0  0
  -30.8870  -12.7530   19.0900 C   0  0  0  0  0  2  0  0  0  0  0  0
  -29.9490  -12.8230   17.8670 C   0  0  0  0  0  2  0  0  0  0  0  0
  -28.4780  -12.7060   18.3130 C   0  0  0  0  0  2  0  0  0  0  0  0
  -28.1310  -13.6570   19.4910 C   0  0  0  0  0  3  0  0  0  0  0  0
  -29.1900  -13.5710   20.6080 C   0  0  0  0  0  2  0  0  0  0  0  0
  -30.4930  -13.8510   19.9950 N   0  0  0  0  0  0  0  0  0  0  0  0
  -32.3570  -15.0800   19.6600 O   0  0  0  0  0  0  0  0  0  0  0  0
  -29.7370  -18.2620   18.5870 C   0  0  0  0  0  2  0  0  0  0  0  0
  -28.9650  -18.0540   20.9080 C   0  0  0  0  0  2  0  0  0  0  0  0
  -30.8170  -17.1890   18.8970 C   0  0  0  0  0  2  0  0  0  0  0  0
  -30.0320  -16.9340   21.1500 C   0  0  0  0  0  2  0  0  0  0  0  0
  -29.3330  -19.1110   19.8210 C   0  0  0  0  0  3  0  0  0  0  0  0
  -30.4210  -16.1950   19.9270 N   0  0  0  0  0  0  0  0  0  0  0  0
  -25.7680  -14.3210   20.2450 C   0  0  0  0  0  0  0  0  0  0  0  0
  -24.6890  -13.5770   20.6370 C   0  0  0  0  0  0  0  0  0  0  0  0
  -25.1170  -12.2140   20.6090 C   0  0  0  0  0  0  0  0  0  0  0  0
  -26.7860  -13.4130   20.0010 N   0  0  0  0  0  0  0  0  0  0  0  0
  -26.4010  -12.1420   20.2790 N   0  0  0  0  0  0  0  0  0  0  0  0
  -24.3630  -10.9720   20.8180 C   0  0  0  0  0  0  0  0  0  0  0  0
  -24.7310  -10.0420   21.8160 C   0  0  0  0  0  3  0  0  0  0  0  0
  -23.9790   -8.8640   22.0100 C   0  0  0  0  0  3  0  0  0  0  0  0
  -22.8440   -8.6060   21.2030 C   0  0  0  0  0  0  0  0  0  0  0  0
  -22.4970   -9.5230   20.1950 C   0  0  0  0  0  3  0  0  0  0  0  0
  -23.2490  -10.6930   20.0010 C   0  0  0  0  0  3  0  0  0  0  0  0
  -22.0680   -7.4770   21.3030 O   0  0  0  0  0  0  0  0  0  0  0  0
  -21.8940   -6.8280   22.4980 C   0  0  0  0  0  0  0  0  0  0  0  0
  -21.3400   -7.4750   23.6250 C   0  0  0  0  0  3  0  0  0  0  0  0
  -21.1140   -6.7500   24.8130 C   0  0  0  0  0  3  0  0  0  0  0  0
  -21.4300   -5.3810   24.8740 C   0  0  0  0  0  0  0  0  0  0  0  0
  -21.9770   -4.7330   23.7520 C   0  0  0  0  0  3  0  0  0  0  0  0
  -22.2050   -5.4540   22.5670 C   0  0  0  0  0  0  0  0  0  0  0  0
  -22.7120   -4.8210   21.4810 F   0  0  0  0  0  0  0  0  0  0  0  0
  -21.2060   -4.6820   26.0110 F   0  0  0  0  0  0  0  0  0  0  0  0
  -23.3090  -14.0910   20.9300 C   0  0  0  0  0  0  0  0  0  0  0  0
  -22.5820  -13.4230   21.8180 N   0  0  0  0  0  0  0  0  0  0  0  0
  -22.8850  -15.1190   20.4040 O   0  0  0  0  0  0  0  0  0  0  0  0
  -22.9380  -12.5890   22.2620 H   0  0  0  0  0  0  0  0  0  0  0  0
  -21.6570  -13.7490   22.0580 H   0  0  0  0  0  0  0  0  0  0  0  0
  -25.9660  -15.6850   20.0520 N   0  0  0  0  0  0  0  0  0  0  0  0
  -25.2190  -16.3620   20.1650 H   0  0  0  0  0  0  0  0  0  0  0  0
  -26.8290  -16.0920   19.7180 H   0  0  0  0  0  0  0  0  0  0  0  0
  -24.8940  -22.8420   19.9470 C   0  0  0  0  0  1  0  0  0  0  0  0
  -26.0330  -21.9970   20.0670 O   0  0  0  0  0  0  0  0  0  0  0  0
  -28.8830  -26.0720   20.5600 C   0  0  0  0  0  2  0  0  0  0  0  0
  -28.6270  -27.0780   19.5550 O   0  0  0  0  0  0  0  0  0  0  0  0
  -24.6060  -31.8160   23.1780 C   0  0  0  0  0  0  0  0  0  0  0  0
  -27.4460  -27.7870   19.6880 C   0  0  0  0  0  0  0  0  0  0  0  0
  -23.4660  -30.5160   21.4090 C   0  0  0  0  0  3  0  0  0  0  0  0
  -24.9900  -29.1890   19.8460 C   0  0  0  0  0  0  0  0  0  0  0  0
  -25.9730  -31.0070   21.2520 C   0  0  0  0  0  2  0  0  0  0  0  0
  -26.1250  -29.7040   20.4850 C   0  0  0  0  0  0  0  0  0  0  0  0
  -27.3600  -29.0100   20.4020 C   0  0  0  0  0  3  0  0  0  0  0  0
  -26.2950  -27.2910   19.0500 C   0  0  0  0  0  3  0  0  0  0  0  0
  -25.0690  -27.9830   19.1270 C   0  0  0  0  0  3  0  0  0  0  0  0
  -23.7050  -29.9800   19.9720 C   0  0  0  0  0  2  0  0  0  0  0  0
  -24.7000  -31.1260   22.0050 N   0  0  0  0  0  0  0  0  0  0  0  0
  -23.5150  -31.9830   23.7390 O   0  0  0  0  0  0  0  0  0  0  0  0
  -22.8670  -29.3810   22.2710 C   0  0  0  0  0  0  0  0  0  0  0  0
  -21.5480  -29.1650   22.1460 N   0  0  0  0  0  0  0  0  0  0  0  0
  -23.5870  -28.7000   23.0070 O   0  0  0  0  0  0  0  0  0  0  0  0
  -21.0280  -29.7730   21.5310 H   0  0  0  0  0  0  0  0  0  0  0  0
  -18.2160  -27.8400   22.6170 C   0  0  0  0  0  0  0  0  0  0  0  0
  -20.7770  -28.1220   22.8250 C   0  0  0  0  0  3  0  0  0  0  0  0
  -20.8850  -26.7750   22.0720 C   0  0  0  0  0  2  0  0  0  0  0  0
  -19.7500  -26.5530   21.0680 C   0  0  0  0  0  2  0  0  0  0  0  0
  -18.3920  -26.5860   21.7740 C   0  0  0  0  0  2  0  0  0  0  0  0
  -19.3370  -28.5690   23.0960 C   0  0  0  0  0  0  0  0  0  0  0  0
  -19.1190  -29.7470   23.8430 C   0  0  0  0  0  3  0  0  0  0  0  0
  -17.8140  -30.1950   24.1160 C   0  0  0  0  0  3  0  0  0  0  0  0
  -16.7080  -29.4600   23.6550 C   0  0  0  0  0  3  0  0  0  0  0  0
  -16.9110  -28.2840   22.9100 C   0  0  0  0  0  3  0  0  0  0  0  0
  -25.8610  -32.4490   23.8560 C   0  0  0  0  0  3  0  0  0  0  0  0
  -26.3750  -31.6290   25.1030 C   0  0  1  0  0  0  0  0  0  0  0  0
  -25.2680  -31.3110   26.1360 C   0  0  0  0  0  1  0  0  0  0  0  0
  -27.0000  -30.2870   24.6550 C   0  0  0  0  0  1  0  0  0  0  0  0
  -27.4910  -32.4180   25.8260 C   0  0  0  0  0  1  0  0  0  0  0  0
  -25.5110  -33.8210   24.2470 N   0  0  0  0  0  0  0  0  0  0  0  0
  -25.8580  -34.9200   23.5630 C   0  0  0  0  0  0  0  0  0  0  0  0
  -26.5760  -34.8840   22.5600 O   0  0  0  0  0  0  0  0  0  0  0  0
  -24.8790  -33.9200   25.0280 H   0  0  0  0  0  0  0  0  0  0  0  0
  -24.1120  -36.6960   23.2250 C   0  0  0  0  0  1  0  0  0  0  0  0
  -25.3230  -36.2720   24.0710 C   0  0  0  0  0  3  0  0  0  0  0  0
  -27.4010  -37.1470   25.0470 C   0  0  0  0  0  1  0  0  0  0  0  0
  -26.3390  -37.3460   24.0630 N   0  0  0  0  0  0  0  0  0  0  0  0
  -25.9100  -38.2510   24.2390 H   0  0  0  0  0  0  0  0  0  0  0  0
  1  4  2  0
  1  3  1  0
  3  5  2  0
  4  6  1  0
  5  2  1  0
  5 54  1  0
  6 53  1  0
  6  2  2  0
  7  3  1  0
  9  8  1  0
  9  4  1  0
 11 16  1  0
 12 13  1  0
 12 11  1  0
 14 13  1  0
 14 27  1  0
 14 15  1  0
 16 10  1  0
 16 15  1  0
 17 10  2  0
 18 20  1  0
 18 22  1  0
 19 21  1  0
 20 23  1  0
 22  9  1  0
 22 19  1  0
 23 10  1  0
 23 21  1  0
 24 25  2  0
 25 44  1  0
 26 25  1  0
 26 29  1  0
 27 24  1  0
 27 28  1  0
 28 26  2  0
 29 30  1  0
 30 31  2  0
 32 35  1  0
 32 31  1  0
 33 32  2  0
 34 33  1  0
 34 29  2  0
 35 36  1  0
 36 41  2  0
 36 37  1  0
 37 38  2  0
 38 39  1  0
 39 43  1  0
 40 39  2  0
 41 40  1  0
 42 41  1  0
 44 45  1  0
 45 48  1  0
 45 47  1  0
 46 44  2  0
 49 50  1  0
 49 24  1  0
 51 49  1  0
 52 53  1  0
 55 57  1  0
 55 54  1  0
 56 67  2  0
 57 62  1  0
 58 66  1  0
 58 68  1  0
 59 65  1  0
 59 61  1  0
 60 66  1  0
 61 60  1  0
 62 61  2  0
 63 64  1  0
 63 57  2  0
 64 59  2  0
 65 58  1  0
 66 56  1  0
 68 70  2  0
 69 68  1  0
 71 69  1  0
 72 81  2  0
 72 77  1  0
 73 69  1  0
 73 77  1  0
 74 73  1  0
 75 76  1  0
 75 74  1  0
 76 72  1  0
 77 78  2  0
 78 79  1  0
 80 79  2  0
 81 80  1  0
 82 56  1  0
 82 87  1  0
 82 83  1  0
 83 86  1  1
 83 84  1  0
 85 83  1  0
 87 90  1  0
 88 92  1  0
 88 87  1  0
 89 88  2  0
 92 91  1  0
 94 92  1  0
 94 95  1  0
 94 93  1  0
M  ISO  4  10 100  23 100  54 101  55 101
M  END
>  <TORSDO>  (95) 
F 19

>  <SCORE>  (95) 
-12.764

>  <name>  (95) 
94

>  <ligand_id>  (95) 
94

>  <original_smiles>  (95) 
[H]c1c([H])c([H])c2c(c1[H])C([H])([H])C([H])([H])C([H])([H])C2([H])N([H])C(=O)C1([H])N(C(=O)C([H])(N([H])C(=O)C([H])(N([H])C([H])([H])[H])C([H])([H])[H])C(C([H])([H])[H])(C([H])([H])[H])C([H])([H])[H])C([H])([H])c2c([H])c(OC([H])([H])c3c([H])c(OC([H])([H])[H])c(C([H])(C([H])([H])[H])C4([H])C([H])([H])C([H])([H])N(C(=O)N5C([H])([H])C([H])([H])C([H])([H])C([H])(n6nc(-c7c([H])c([H])c(Oc8c([H])c([H])c(F)c([H])c8F)c([H])c7[H])c(C(=O)N([H])[H])c6N([H])[H])C5([H])[H])C([H])([H])C4([H])[H])c([H])c3C([H])([H])[H])c([H])c([H])c2C1([H])[H]

>  <smiles>  (95) 
[H]c1c([H])c([H])c2c(c1[H])C([H])([H])C([H])([H])C([H])([H])C2([H])N([H])C(=O)C1([H])N(C(=O)C([H])(N([H])C(=O)C([H])(N([H])C([H])([H])[H])C([H])([H])[H])C(C([H])([H])[H])(C([H])([H])[H])C([H])([H])[H])C([H])([H])c2c([H])c(OC([H])([H])c3c([H])c(OC([H])([H])[H])c(C([H])(C([H])([H])[H])C4([H])C([H])([H])C([H])([H])N(C(=O)N5C([H])([H])C([H])([H])C([H])([H])C([H])(n6nc(-c7c([H])c([H])c(Oc8c([H])c([H])c(F)c([H])c8F)c([H])c7[H])c(C(=O)N([H])[H])c6N([H])[H])C5([H])[H])C([H])([H])C4([H])[H])c([H])c3C([H])([H])[H])c([H])c([H])c2C1([H])[H]

$$$$
95:0:0
     RDKit          3D

 92102  0  0  1  0  0  0  0  0999 V2000
  -28.9940  -21.4840   19.1770 C   0  0  0  0  0  3  0  0  0  0  0  0
  -30.0110  -21.4940   21.3150 C   0  0  0  0  0  3  0  0  0  0  0  0
  -29.2110  -20.0570   19.0810 C   0  0  0  0  0  0  0  0  0  0  0  0
  -29.8650  -19.2780   20.1050 C   0  0  0  0  0  0  0  0  0  0  0  0
  -29.4150  -22.2790   20.2790 C   0  0  0  0  0  0  0  0  0  0  0  0
  -30.2300  -20.0680   21.2400 C   0  0  0  0  0  0  0  0  0  0  0  0
  -30.9360  -19.3850   22.3970 C   0  0  0  0  0  1  0  0  0  0  0  0
  -29.7380  -18.8830   16.7870 C   0  0  0  0  0  2  0  0  0  0  0  0
  -28.8420  -20.0520   16.4640 C   0  0  0  0  0  2  0  0  0  0  0  0
  -28.7510  -19.3800   17.8190 C   0  0  0  0  0  3  0  0  0  0  0  0
  -29.1990  -16.7690   19.4750 C   0  0  0  0  0  2  0  0  0  0  0  0
  -30.2900  -17.7310   19.8710 C   0  0  0  0  0  3  0  0  0  0  0  0
  -30.0750  -16.2920   20.6080 C   0  0  0  0  0  3  0  0  0  0  0  0
  -30.8730  -14.9560   20.2660 C   0  0  0  0  0  0  0  0  0  0  0  0
  -30.6530  -12.6860   19.2200 C   0  0  0  0  0  2  0  0  0  0  0  0
  -29.7030  -12.8000   18.0050 C   0  0  0  0  0  2  0  0  0  0  0  0
  -28.2370  -12.6240   18.4440 C   0  0  0  0  0  2  0  0  0  0  0  0
  -27.8840  -13.4820   19.6880 C   0  0  0  0  0  3  0  0  0  0  0  0
  -28.9550  -13.3670   20.7930 C   0  0  0  0  0  2  0  0  0  0  0  0
  -30.2510  -13.7220   20.2050 N   0  0  0  0  0  0  0  0  0  0  0  0
  -32.0500  -15.0290   19.8980 O   0  0  0  0  0  0  0  0  0  0  0  0
  -25.5090  -14.0760   20.4480 C   0  0  0  0  0  0  0  0  0  0  0  0
  -24.4430  -13.3050   20.8210 C   0  0  0  0  0  0  0  0  0  0  0  0
  -24.8990  -11.9520   20.7740 C   0  0  0  0  0  0  0  0  0  0  0  0
  -26.5450  -13.1940   20.1910 N   0  0  0  0  0  0  0  0  0  0  0  0
  -26.1870  -11.9100   20.4530 N   0  0  0  0  0  0  0  0  0  0  0  0
  -24.1670  -10.6920   20.9620 C   0  0  0  0  0  0  0  0  0  0  0  0
  -24.5710   -9.7370   21.9210 C   0  0  0  0  0  3  0  0  0  0  0  0
  -23.8400   -8.5430   22.0950 C   0  0  0  0  0  3  0  0  0  0  0  0
  -22.6890   -8.2940   21.3100 C   0  0  0  0  0  0  0  0  0  0  0  0
  -22.3030   -9.2370   20.3410 C   0  0  0  0  0  3  0  0  0  0  0  0
  -23.0360  -10.4230   20.1650 C   0  0  0  0  0  3  0  0  0  0  0  0
  -21.9310   -7.1510   21.3920 O   0  0  0  0  0  0  0  0  0  0  0  0
  -21.7980   -6.4580   22.5680 C   0  0  0  0  0  0  0  0  0  0  0  0
  -21.2580   -7.0540   23.7280 C   0  0  0  0  0  3  0  0  0  0  0  0
  -21.0760   -6.2860   24.8950 C   0  0  0  0  0  3  0  0  0  0  0  0
  -21.4250   -4.9220   24.9020 C   0  0  0  0  0  0  0  0  0  0  0  0
  -21.9570   -4.3250   23.7470 C   0  0  0  0  0  3  0  0  0  0  0  0
  -22.1410   -5.0900   22.5820 C   0  0  0  0  0  0  0  0  0  0  0  0
  -22.6360   -4.5050   21.4650 F   0  0  0  0  0  0  0  0  0  0  0  0
  -21.2420   -4.1820   26.0210 F   0  0  0  0  0  0  0  0  0  0  0  0
  -23.0510  -13.7880   21.1080 C   0  0  0  0  0  0  0  0  0  0  0  0
  -22.3320  -13.0950   21.9840 N   0  0  0  0  0  0  0  0  0  0  0  0
  -22.6110  -14.8130   20.5900 O   0  0  0  0  0  0  0  0  0  0  0  0
  -22.7000  -12.2660   22.4240 H   0  0  0  0  0  0  0  0  0  0  0  0
  -21.3980  -13.4020   22.2200 H   0  0  0  0  0  0  0  0  0  0  0  0
  -25.6800  -15.4470   20.2830 N   0  0  0  0  0  0  0  0  0  0  0  0
  -24.9210  -16.1070   20.4160 H   0  0  0  0  0  0  0  0  0  0  0  0
  -26.5370  -15.8850   19.9720 H   0  0  0  0  0  0  0  0  0  0  0  0
  -29.4630  -23.8990   20.2980 C   0  0  0  0  0  3  0  0  0  0  0  0
  -28.2550  -24.9410   19.9600 C   0  0  0  0  0  3  0  0  0  0  0  0
  -28.4430  -26.4410   20.1330 O   0  0  0  0  0  0  0  0  0  0  0  0
  -24.6250  -31.8420   23.1910 C   0  0  0  0  0  0  0  0  0  0  0  0
  -27.3340  -27.3280   20.0740 C   0  0  0  0  0  0  0  0  0  0  0  0
  -23.4630  -30.4560   21.5130 C   0  0  0  0  0  3  0  0  0  0  0  0
  -24.9530  -28.9540   20.0650 C   0  0  0  0  0  0  0  0  0  0  0  0
  -26.0030  -30.8050   21.3630 C   0  0  0  0  0  2  0  0  0  0  0  0
  -26.1130  -29.4360   20.6860 C   0  0  0  0  0  0  0  0  0  0  0  0
  -27.3060  -28.6380   20.6760 C   0  0  0  0  0  3  0  0  0  0  0  0
  -26.1490  -26.9230   19.4220 C   0  0  0  0  0  3  0  0  0  0  0  0
  -24.9780  -27.7080   19.4210 C   0  0  0  0  0  3  0  0  0  0  0  0
  -23.7030  -29.8130   20.1220 C   0  0  0  0  0  2  0  0  0  0  0  0
  -24.7160  -31.0530   22.0790 N   0  0  0  0  0  0  0  0  0  0  0  0
  -23.5320  -32.0910   23.7200 O   0  0  0  0  0  0  0  0  0  0  0  0
  -22.8060  -29.4120   22.4480 C   0  0  0  0  0  0  0  0  0  0  0  0
  -21.4860  -29.2020   22.2960 N   0  0  0  0  0  0  0  0  0  0  0  0
  -23.4850  -28.7920   23.2710 O   0  0  0  0  0  0  0  0  0  0  0  0
  -20.9970  -29.7550   21.6070 H   0  0  0  0  0  0  0  0  0  0  0  0
  -18.1370  -27.8970   22.7110 C   0  0  0  0  0  0  0  0  0  0  0  0
  -20.6790  -28.2320   23.0390 C   0  0  0  0  0  3  0  0  0  0  0  0
  -20.8370  -26.8110   22.4520 C   0  0  0  0  0  2  0  0  0  0  0  0
  -19.7690  -26.4650   21.4100 C   0  0  0  0  0  2  0  0  0  0  0  0
  -18.3690  -26.5610   22.0260 C   0  0  0  0  0  2  0  0  0  0  0  0
  -19.2210  -28.6880   23.1730 C   0  0  0  0  0  0  0  0  0  0  0  0
  -18.9500  -29.9360   23.7740 C   0  0  0  0  0  3  0  0  0  0  0  0
  -17.6270  -30.3950   23.9170 C   0  0  0  0  0  3  0  0  0  0  0  0
  -16.5560  -29.6000   23.4710 C   0  0  0  0  0  3  0  0  0  0  0  0
  -16.8110  -28.3530   22.8740 C   0  0  0  0  0  3  0  0  0  0  0  0
  -25.8890  -32.4880   23.8380 C   0  0  0  0  0  3  0  0  0  0  0  0
  -26.4000  -31.7070   25.1120 C   0  0  1  0  0  0  0  0  0  0  0  0
  -25.2970  -31.4390   26.1620 C   0  0  0  0  0  1  0  0  0  0  0  0
  -27.0100  -30.3430   24.7120 C   0  0  0  0  0  1  0  0  0  0  0  0
  -27.5290  -32.5100   25.8000 C   0  0  0  0  0  1  0  0  0  0  0  0
  -25.5520  -33.8760   24.1860 N   0  0  0  0  0  0  0  0  0  0  0  0
  -25.8450  -34.9440   23.4330 C   0  0  0  0  0  0  0  0  0  0  0  0
  -26.4960  -34.8650   22.3870 O   0  0  0  0  0  0  0  0  0  0  0  0
  -24.9700  -34.0080   25.0000 H   0  0  0  0  0  0  0  0  0  0  0  0
  -24.0560  -36.6920   23.1500 C   0  0  0  0  0  1  0  0  0  0  0  0
  -25.3360  -36.3170   23.9150 C   0  0  0  0  0  3  0  0  0  0  0  0
  -27.4700  -37.2630   24.6790 C   0  0  0  0  0  1  0  0  0  0  0  0
  -26.3350  -37.3990   23.7710 N   0  0  0  0  0  0  0  0  0  0  0  0
  -25.9070  -38.3070   23.9300 H   0  0  0  0  0  0  0  0  0  0  0  0
  1  5  1  0
  3  1  2  0
  3  4  1  0
  4  6  2  0
  5 50  1  0
  5  2  2  0
  6  2  1  0
  6  7  1  0
  8 10  1  0
  9  8  1  0
  9 10  1  0
 10  3  1  0
 11 12  1  0
 11 13  1  0
 12  4  1  0
 12 13  1  0
 13 14  1  0
 15 20  1  0
 16 17  1  0
 16 15  1  0
 18 17  1  0
 18 25  1  0
 18 19  1  0
 20 14  1  0
 20 19  1  0
 21 14  2  0
 22 23  2  0
 23 42  1  0
 24 23  1  0
 24 27  1  0
 25 22  1  0
 25 26  1  0
 26 24  2  0
 27 28  1  0
 28 29  2  0
 30 33  1  0
 30 29  1  0
 31 30  2  0
 32 31  1  0
 32 27  2  0
 33 34  1  0
 34 39  2  0
 34 35  1  0
 35 36  2  0
 36 37  1  0
 37 41  1  0
 38 37  2  0
 39 38  1  0
 40 39  1  0
 42 43  1  0
 43 46  1  0
 43 45  1  0
 44 42  2  0
 47 48  1  0
 47 22  1  0
 49 47  1  0
 51 52  1  0
 51 50  2  0
 53 64  2  0
 54 52  1  0
 54 59  1  0
 55 63  1  0
 55 65  1  0
 56 62  1  0
 56 58  1  0
 57 63  1  0
 58 57  1  0
 59 58  2  0
 60 54  2  0
 61 60  1  0
 61 56  2  0
 62 55  1  0
 63 53  1  0
 65 67  2  0
 66 65  1  0
 68 66  1  0
 69 78  2  0
 69 74  1  0
 70 66  1  0
 70 74  1  0
 71 70  1  0
 72 73  1  0
 72 71  1  0
 73 69  1  0
 74 75  2  0
 75 76  1  0
 77 76  2  0
 78 77  1  0
 79 53  1  0
 79 84  1  0
 79 80  1  0
 80 83  1  1
 80 81  1  0
 82 80  1  0
 84 87  1  0
 85 89  1  0
 85 84  1  0
 86 85  2  0
 89 88  1  0
 91 89  1  0
 91 92  1  0
 91 90  1  0
M  ISO  4  13 100  14 100  51 101  52 101
M  END
>  <TORSDO>  (96) 
F 20

>  <SCORE>  (96) 
-13.913

>  <name>  (96) 
95

>  <ligand_id>  (96) 
95

>  <original_smiles>  (96) 
[H]c1c([H])c([H])c2c(c1[H])C([H])([H])C([H])([H])C([H])([H])C2([H])N([H])C(=O)C1([H])N(C(=O)C([H])(N([H])C(=O)C([H])(N([H])C([H])([H])[H])C([H])([H])[H])C(C([H])([H])[H])(C([H])([H])[H])C([H])([H])[H])C([H])([H])c2c([H])c(OC([H])([H])C([H])([H])c3c([H])c(C([H])([H])[H])c(C4([H])C([H])([H])C4([H])C(=O)N4C([H])([H])C([H])([H])C([H])([H])C([H])(n5nc(-c6c([H])c([H])c(Oc7c([H])c([H])c(F)c([H])c7F)c([H])c6[H])c(C(=O)N([H])[H])c5N([H])[H])C4([H])[H])c(C4([H])C([H])([H])C4([H])[H])c3[H])c([H])c([H])c2C1([H])[H]

>  <smiles>  (96) 
[H]c1c([H])c([H])c2c(c1[H])C([H])([H])C([H])([H])C([H])([H])C2([H])N([H])C(=O)C1([H])N(C(=O)C([H])(N([H])C(=O)C([H])(N([H])C([H])([H])[H])C([H])([H])[H])C(C([H])([H])[H])(C([H])([H])[H])C([H])([H])[H])C([H])([H])c2c([H])c(OC([H])([H])C([H])([H])c3c([H])c(C([H])([H])[H])c(C4([H])C([H])([H])C4([H])C(=O)N4C([H])([H])C([H])([H])C([H])([H])C([H])(n5nc(-c6c([H])c([H])c(Oc7c([H])c([H])c(F)c([H])c7F)c([H])c6[H])c(C(=O)N([H])[H])c5N([H])[H])C4([H])[H])c(C4([H])C([H])([H])C4([H])[H])c3[H])c([H])c([H])c2C1([H])[H]

$$$$
96:0:0
     RDKit          3D

100109  0  0  1  0  0  0  0  0999 V2000
  -30.2060  -18.9510   21.3810 C   0  0  0  0  0  3  0  0  0  0  0  0
  -32.1370  -20.4030   21.3050 C   0  0  0  0  0  3  0  0  0  0  0  0
  -30.8230  -20.1640   21.7700 C   0  0  0  0  0  0  0  0  0  0  0  0
  -30.7920  -18.0880   20.4270 C   0  0  0  0  0  0  0  0  0  0  0  0
  -32.7790  -19.5300   20.4050 C   0  0  0  0  0  0  0  0  0  0  0  0
  -32.0790  -18.3930   19.9150 C   0  0  0  0  0  0  0  0  0  0  0  0
  -30.7450  -22.5480   22.9220 C   0  0  0  0  0  2  0  0  0  0  0  0
  -28.6040  -21.4270   22.1530 C   0  0  0  0  0  2  0  0  0  0  0  0
  -29.7990  -23.7640   22.7830 C   0  0  0  0  0  2  0  0  0  0  0  0
  -28.5470  -22.4940   21.0410 C   0  0  0  0  0  2  0  0  0  0  0  0
  -30.0500  -21.1710   22.6580 C   0  0  0  0  0  3  0  0  0  0  0  0
  -29.2070  -23.7820   21.4160 N   0  0  1  0  0  4  0  0  0  0  0  0
  -29.9980  -23.8390   20.7910 H   0  0  0  0  0  0  0  0  0  0  0  0
  -28.3880  -24.9840   21.0890 C   0  0  0  0  0  2  0  0  0  0  0  0
  -29.2050  -26.2990   21.0490 C   0  0  0  0  0  2  0  0  0  0  0  0
  -28.8470  -27.1060   19.9280 O   0  0  0  0  0  0  0  0  0  0  0  0
  -24.6370  -31.7960   23.2690 C   0  0  0  0  0  0  0  0  0  0  0  0
  -27.6370  -27.7460   20.0100 C   0  0  0  0  0  0  0  0  0  0  0  0
  -23.5670  -30.4450   21.4930 C   0  0  0  0  0  3  0  0  0  0  0  0
  -25.1560  -29.0850   20.0330 C   0  0  0  0  0  0  0  0  0  0  0  0
  -26.0700  -30.9610   21.4130 C   0  0  0  0  0  2  0  0  0  0  0  0
  -26.2570  -29.6390   20.6990 C   0  0  0  0  0  0  0  0  0  0  0  0
  -27.5020  -28.9740   20.6920 C   0  0  0  0  0  3  0  0  0  0  0  0
  -26.5270  -27.2010   19.3350 C   0  0  0  0  0  3  0  0  0  0  0  0
  -25.2830  -27.8600   19.3530 C   0  0  0  0  0  3  0  0  0  0  0  0
  -23.8630  -29.8670   20.0820 C   0  0  0  0  0  2  0  0  0  0  0  0
  -24.7730  -31.0780   22.1180 N   0  0  0  0  0  0  0  0  0  0  0  0
  -23.5250  -31.9710   23.7850 O   0  0  0  0  0  0  0  0  0  0  0  0
  -22.9440  -29.3270   22.3590 C   0  0  0  0  0  0  0  0  0  0  0  0
  -21.6320  -29.1030   22.1900 N   0  0  0  0  0  0  0  0  0  0  0  0
  -23.6410  -28.6680   23.1350 O   0  0  0  0  0  0  0  0  0  0  0  0
  -21.1340  -29.6920   21.5390 H   0  0  0  0  0  0  0  0  0  0  0  0
  -18.2900  -27.7830   22.5640 C   0  0  0  0  0  0  0  0  0  0  0  0
  -20.8390  -28.0770   22.8660 C   0  0  0  0  0  3  0  0  0  0  0  0
  -20.9790  -26.7090   22.1580 C   0  0  0  0  0  2  0  0  0  0  0  0
  -19.8870  -26.4560   21.1160 C   0  0  0  0  0  2  0  0  0  0  0  0
  -18.5010  -26.5050   21.7670 C   0  0  0  0  0  2  0  0  0  0  0  0
  -19.3890  -28.5280   23.0670 C   0  0  0  0  0  0  0  0  0  0  0  0
  -19.1390  -29.7260   23.7710 C   0  0  0  0  0  3  0  0  0  0  0  0
  -17.8230  -30.1790   23.9760 C   0  0  0  0  0  3  0  0  0  0  0  0
  -16.7380  -29.4290   23.4920 C   0  0  0  0  0  3  0  0  0  0  0  0
  -16.9720  -28.2320   22.7910 C   0  0  0  0  0  3  0  0  0  0  0  0
  -25.8660  -32.4490   23.9770 C   0  0  0  0  0  3  0  0  0  0  0  0
  -25.4920  -33.8250   24.3290 N   0  0  0  0  0  0  0  0  0  0  0  0
  -25.8180  -34.9090   23.6110 C   0  0  0  0  0  0  0  0  0  0  0  0
  -26.5350  -34.8570   22.6090 O   0  0  0  0  0  0  0  0  0  0  0  0
  -24.8580  -33.9360   25.1060 H   0  0  0  0  0  0  0  0  0  0  0  0
  -24.0390  -36.6410   23.2270 C   0  0  0  0  0  1  0  0  0  0  0  0
  -25.2590  -36.2650   24.0810 C   0  0  0  0  0  3  0  0  0  0  0  0
  -27.3150  -37.2100   25.0320 C   0  0  0  0  0  1  0  0  0  0  0  0
  -26.2540  -37.3570   24.0390 N   0  0  0  0  0  0  0  0  0  0  0  0
  -25.8080  -38.2590   24.1840 H   0  0  0  0  0  0  0  0  0  0  0  0
  -26.3450  -31.6540   25.2520 C   0  0  1  0  0  0  0  0  0  0  0  0
  -25.2080  -31.3440   26.2530 C   0  0  0  0  0  1  0  0  0  0  0  0
  -26.9950  -30.3110   24.8430 C   0  0  0  0  0  1  0  0  0  0  0  0
  -27.4330  -32.4630   25.9960 C   0  0  0  0  0  1  0  0  0  0  0  0
  -28.5160  -17.3220   19.5750 C   0  0  0  0  0  1  0  0  0  0  0  0
  -29.9790  -16.9200   19.8550 C   0  0  0  0  0  3  0  0  0  0  0  0
  -30.8080  -14.6430   20.3390 C   0  0  0  0  0  0  0  0  0  0  0  0
  -30.5390  -12.4490   19.2780 C   0  0  0  0  0  2  0  0  0  0  0  0
  -29.5960  -12.6520   18.0740 C   0  0  0  0  0  2  0  0  0  0  0  0
  -28.1260  -12.4940   18.5090 C   0  0  0  0  0  2  0  0  0  0  0  0
  -27.7830  -13.3430   19.7610 C   0  0  0  0  0  3  0  0  0  0  0  0
  -28.8450  -13.1540   20.8710 C   0  0  0  0  0  2  0  0  0  0  0  0
  -30.1710  -13.4440   20.2970 N   0  0  0  0  0  0  0  0  0  0  0  0
  -31.9400  -14.8200   19.8840 O   0  0  0  0  0  0  0  0  0  0  0  0
  -30.0080  -15.6760   20.6370 N   0  0  0  0  0  0  0  0  0  0  0  0
  -29.1420  -15.4180   21.0850 H   0  0  0  0  0  0  0  0  0  0  0  0
  -25.3880  -13.9510   20.4870 C   0  0  0  0  0  0  0  0  0  0  0  0
  -24.3250  -13.1750   20.8630 C   0  0  0  0  0  0  0  0  0  0  0  0
  -24.7900  -11.8240   20.8220 C   0  0  0  0  0  0  0  0  0  0  0  0
  -26.4340  -13.0710   20.2470 N   0  0  0  0  0  0  0  0  0  0  0  0
  -26.0760  -11.7880   20.5030 N   0  0  0  0  0  0  0  0  0  0  0  0
  -24.0690  -10.5590   21.0110 C   0  0  0  0  0  0  0  0  0  0  0  0
  -24.5010   -9.5990   21.9530 C   0  0  0  0  0  3  0  0  0  0  0  0
  -23.7810   -8.3970   22.1280 C   0  0  0  0  0  3  0  0  0  0  0  0
  -22.6180   -8.1480   21.3620 C   0  0  0  0  0  0  0  0  0  0  0  0
  -22.2070   -9.0970   20.4100 C   0  0  0  0  0  3  0  0  0  0  0  0
  -22.9270  -10.2910   20.2320 C   0  0  0  0  0  3  0  0  0  0  0  0
  -21.8710   -6.9990   21.4470 O   0  0  0  0  0  0  0  0  0  0  0  0
  -21.8000   -6.2700   22.6080 C   0  0  0  0  0  0  0  0  0  0  0  0
  -21.3050   -6.8270   23.8080 C   0  0  0  0  0  3  0  0  0  0  0  0
  -21.1830   -6.0230   24.9590 C   0  0  0  0  0  3  0  0  0  0  0  0
  -21.5480   -4.6640   24.9120 C   0  0  0  0  0  0  0  0  0  0  0  0
  -22.0360   -4.1070   23.7160 C   0  0  0  0  0  3  0  0  0  0  0  0
  -22.1590   -4.9080   22.5670 C   0  0  0  0  0  0  0  0  0  0  0  0
  -22.6100   -4.3620   21.4120 F   0  0  0  0  0  0  0  0  0  0  0  0
  -21.4250   -3.8900   26.0150 F   0  0  0  0  0  0  0  0  0  0  0  0
  -22.9290  -13.6470   21.1540 C   0  0  0  0  0  0  0  0  0  0  0  0
  -22.2130  -12.9440   22.0250 N   0  0  0  0  0  0  0  0  0  0  0  0
  -22.4830  -14.6740   20.6450 O   0  0  0  0  0  0  0  0  0  0  0  0
  -22.5880  -12.1150   22.4600 H   0  0  0  0  0  0  0  0  0  0  0  0
  -21.2780  -13.2420   22.2640 H   0  0  0  0  0  0  0  0  0  0  0  0
  -25.5430  -15.3230   20.3150 N   0  0  0  0  0  0  0  0  0  0  0  0
  -24.7620  -15.9620   20.4170 H   0  0  0  0  0  0  0  0  0  0  0  0
  -26.3840  -15.7730   19.9800 H   0  0  0  0  0  0  0  0  0  0  0  0
  -35.0250  -18.8570   19.9120 C   0  0  0  0  0  1  0  0  0  0  0  0
  -34.0510  -19.8880   20.0150 O   0  0  0  0  0  0  0  0  0  0  0  0
  -32.4870  -18.1260   17.6190 C   0  0  0  0  0  1  0  0  0  0  0  0
  -32.6190  -17.5990   18.9350 O   0  0  0  0  0  0  0  0  0  0  0  0
  1  3  1  0
  2  3  2  0
  4  1  2  0
  5  2  1  0
  6  5  2  0
  6  4  1  0
  8 11  1  0
  9  7  1  0
 10 12  1  0
 10  8  1  0
 11  3  1  0
 11  7  1  0
 12  9  1  0
 12 13  1  6
 14 12  1  0
 15 14  1  0
 16 18  1  0
 16 15  1  0
 17 28  2  0
 18 23  1  0
 19 27  1  0
 19 29  1  0
 20 26  1  0
 20 22  1  0
 21 27  1  0
 22 21  1  0
 23 22  2  0
 24 25  1  0
 24 18  2  0
 25 20  2  0
 26 19  1  0
 27 17  1  0
 29 31  2  0
 30 29  1  0
 32 30  1  0
 33 42  2  0
 33 38  1  0
 34 30  1  0
 34 38  1  0
 35 34  1  0
 36 37  1  0
 36 35  1  0
 37 33  1  0
 38 39  2  0
 39 40  1  0
 41 40  2  0
 42 41  1  0
 43 17  1  0
 43 44  1  0
 43 53  1  0
 44 47  1  0
 45 49  1  0
 45 44  1  0
 46 45  2  0
 49 48  1  0
 51 49  1  0
 51 52  1  0
 51 50  1  0
 53 56  1  1
 53 54  1  0
 55 53  1  0
 58 57  1  0
 58  4  1  0
 58 67  1  0
 59 67  1  0
 60 65  1  0
 61 62  1  0
 61 60  1  0
 63 62  1  0
 63 72  1  0
 63 64  1  0
 65 59  1  0
 65 64  1  0
 66 59  2  0
 67 68  1  0
 69 70  2  0
 70 89  1  0
 71 70  1  0
 71 74  1  0
 72 69  1  0
 72 73  1  0
 73 71  2  0
 74 75  1  0
 75 76  2  0
 77 80  1  0
 77 76  1  0
 78 77  2  0
 79 78  1  0
 79 74  2  0
 80 81  1  0
 81 82  1  0
 82 83  2  0
 84 83  1  0
 84 88  1  0
 85 84  2  0
 86 81  2  0
 86 85  1  0
 87 86  1  0
 89 90  1  0
 90 93  1  0
 90 92  1  0
 91 89  2  0
 94 95  1  0
 94 69  1  0
 96 94  1  0
 97 98  1  0
 98  5  1  0
 99100  1  0
100  6  1  0
M  ISO  4  15 101  16 101  59 100  67 100
M  END
>  <TORSDO>  (97) 
F 22

>  <SCORE>  (97) 
-12.841

>  <name>  (97) 
96

>  <ligand_id>  (97) 
96

>  <original_smiles>  (97) 
[H]c1c([H])c([H])c2c(c1[H])C([H])([H])C([H])([H])C([H])([H])C2([H])N([H])C(=O)C1([H])N(C(=O)C([H])(N([H])C(=O)C([H])(N([H])C([H])([H])[H])C([H])([H])[H])C(C([H])([H])[H])(C([H])([H])[H])C([H])([H])[H])C([H])([H])c2c([H])c(OC([H])([H])C([H])([H])[N+]3([H])C([H])([H])C([H])([H])C([H])(c4c([H])c(OC([H])([H])[H])c(OC([H])([H])[H])c(C([H])(N([H])C(=O)N5C([H])([H])C([H])([H])C([H])([H])C([H])(n6nc(-c7c([H])c([H])c(Oc8c([H])c([H])c(F)c([H])c8F)c([H])c7[H])c(C(=O)N([H])[H])c6N([H])[H])C5([H])[H])C([H])([H])[H])c4[H])C([H])([H])C3([H])[H])c([H])c([H])c2C1([H])[H]

>  <smiles>  (97) 
[H]c1c([H])c([H])c2c(c1[H])C([H])([H])C([H])([H])C([H])([H])C2([H])N([H])C(=O)C1([H])N(C(=O)C([H])(N([H])C(=O)C([H])(N([H])C([H])([H])[H])C([H])([H])[H])C(C([H])([H])[H])(C([H])([H])[H])C([H])([H])[H])C([H])([H])c2c([H])c(OC([H])([H])C([H])([H])[N+]3([H])C([H])([H])C([H])([H])C([H])(c4c([H])c(OC([H])([H])[H])c(OC([H])([H])[H])c(C([H])(N([H])C(=O)N5C([H])([H])C([H])([H])C([H])([H])C([H])(n6nc(-c7c([H])c([H])c(Oc8c([H])c([H])c(F)c([H])c8F)c([H])c7[H])c(C(=O)N([H])[H])c6N([H])[H])C5([H])[H])C([H])([H])[H])c4[H])C([H])([H])C3([H])[H])c([H])c([H])c2C1([H])[H]

$$$$
