0:0:0
     RDKit          3D

 98107  0  0  1  0  0  0  0  0999 V2000
  -31.2550  -22.0150   17.7900 C   0  0  0  0  0  3  0  0  0  0  0  0
  -30.0060  -21.7090   19.8330 C   0  0  0  0  0  3  0  0  0  0  0  0
  -31.1670  -19.8160   18.8200 C   0  0  0  0  0  3  0  0  0  0  0  0
  -30.5090  -22.6090   18.8430 C   0  0  0  0  0  0  0  0  0  0  0  0
  -31.5830  -20.6500   17.7720 C   0  0  0  0  0  0  0  0  0  0  0  0
  -30.3590  -20.3260   19.8570 C   0  0  0  0  0  0  0  0  0  0  0  0
  -32.3720  -20.0800   16.6090 C   0  0  0  0  0  1  0  0  0  0  0  0
  -30.1270  -25.7440   17.2840 C   0  0  0  0  0  2  0  0  0  0  0  0
  -31.2700  -24.9960   17.9630 C   0  0  0  0  0  2  0  0  0  0  0  0
  -29.2740  -24.5190   17.6030 C   0  0  0  0  0  2  0  0  0  0  0  0
  -30.2230  -24.1600   18.7840 C   0  0  1  0  0  0  0  0  0  0  0  0
  -30.6060  -24.2980   21.4410 C   0  0  0  0  0  1  0  0  0  0  0  0
  -29.9660  -24.8980   20.1730 C   0  0  0  0  0  3  0  0  0  0  0  0
  -28.5350  -25.4780   20.4270 C   0  0  0  0  0  2  0  0  0  0  0  0
  -28.5030  -26.8790   20.0870 O   0  0  0  0  0  0  0  0  0  0  0  0
  -24.5400  -31.9360   23.1770 C   0  0  0  0  0  0  0  0  0  0  0  0
  -27.2980  -27.5500   20.1070 C   0  0  0  0  0  0  0  0  0  0  0  0
  -23.3810  -30.5370   21.4960 C   0  0  0  0  0  3  0  0  0  0  0  0
  -24.8800  -29.0250   20.0890 C   0  0  0  0  0  0  0  0  0  0  0  0
  -25.9050  -30.9270   21.3490 C   0  0  0  0  0  2  0  0  0  0  0  0
  -26.0200  -29.5610   20.7000 C   0  0  0  0  0  0  0  0  0  0  0  0
  -27.2320  -28.8340   20.6980 C   0  0  0  0  0  3  0  0  0  0  0  0
  -26.1400  -27.0240   19.4960 C   0  0  0  0  0  3  0  0  0  0  0  0
  -24.9350  -27.7560   19.4840 C   0  0  0  0  0  3  0  0  0  0  0  0
  -23.6240  -29.8690   20.1160 C   0  0  0  0  0  2  0  0  0  0  0  0
  -24.6260  -31.1480   22.0660 N   0  0  0  0  0  0  0  0  0  0  0  0
  -23.4460  -32.1890   23.6990 O   0  0  0  0  0  0  0  0  0  0  0  0
  -22.7230  -29.5010   22.4360 C   0  0  0  0  0  0  0  0  0  0  0  0
  -21.4030  -29.3070   22.2810 N   0  0  0  0  0  0  0  0  0  0  0  0
  -23.3980  -28.8730   23.2560 O   0  0  0  0  0  0  0  0  0  0  0  0
  -20.9210  -29.8640   21.5900 H   0  0  0  0  0  0  0  0  0  0  0  0
  -18.0300  -28.0820   22.7070 C   0  0  0  0  0  0  0  0  0  0  0  0
  -20.5810  -28.3530   23.0240 C   0  0  0  0  0  3  0  0  0  0  0  0
  -20.7040  -26.9320   22.4270 C   0  0  0  0  0  2  0  0  0  0  0  0
  -19.6200  -26.6180   21.3910 C   0  0  0  0  0  2  0  0  0  0  0  0
  -18.2270  -26.7440   22.0150 C   0  0  0  0  0  2  0  0  0  0  0  0
  -19.1370  -28.8440   23.1670 C   0  0  0  0  0  0  0  0  0  0  0  0
  -18.9010  -30.0980   23.7740 C   0  0  0  0  0  3  0  0  0  0  0  0
  -17.5900  -30.5890   23.9250 C   0  0  0  0  0  3  0  0  0  0  0  0
  -16.4990  -29.8230   23.4830 C   0  0  0  0  0  3  0  0  0  0  0  0
  -16.7190  -28.5720   22.8800 C   0  0  0  0  0  3  0  0  0  0  0  0
  -25.8070  -32.5720   23.8290 C   0  0  0  0  0  3  0  0  0  0  0  0
  -25.4850  -33.9700   24.1480 N   0  0  0  0  0  0  0  0  0  0  0  0
  -25.8440  -35.0220   23.3990 C   0  0  0  0  0  0  0  0  0  0  0  0
  -26.5500  -34.9190   22.3930 O   0  0  0  0  0  0  0  0  0  0  0  0
  -24.8640  -34.1250   24.9280 H   0  0  0  0  0  0  0  0  0  0  0  0
  -24.1430  -36.8220   22.9640 C   0  0  0  0  0  1  0  0  0  0  0  0
  -25.3380  -36.4100   23.8380 C   0  0  0  0  0  3  0  0  0  0  0  0
  -27.4260  -37.2860   24.7870 C   0  0  0  0  0  1  0  0  0  0  0  0
  -26.3790  -37.4590   23.7830 N   0  0  0  0  0  0  0  0  0  0  0  0
  -25.9690  -38.3820   23.9090 H   0  0  0  0  0  0  0  0  0  0  0  0
  -26.2980  -31.8060   25.1180 C   0  0  1  0  0  0  0  0  0  0  0  0
  -25.1810  -31.5620   26.1590 C   0  0  0  0  0  1  0  0  0  0  0  0
  -26.8970  -30.4310   24.7390 C   0  0  0  0  0  1  0  0  0  0  0  0
  -27.4270  -32.6070   25.8080 C   0  0  0  0  0  1  0  0  0  0  0  0
  -29.8970  -19.4820   20.8930 N   0  0  0  0  0  0  0  0  0  0  0  0
  -29.3500  -19.8980   21.6420 H   0  0  0  0  0  0  0  0  0  0  0  0
  -30.4000  -18.1120   21.1180 C   0  0  0  0  0  2  0  0  0  0  0  0
  -29.3390  -16.9930   19.0290 C   0  0  0  0  0  1  0  0  0  0  0  0
  -29.4530  -17.0120   20.5670 C   0  0  0  0  0  3  0  0  0  0  0  0
  -30.5410  -14.7030   20.7430 C   0  0  0  0  0  0  0  0  0  0  0  0
  -30.4110  -12.5320   19.5880 C   0  0  0  0  0  2  0  0  0  0  0  0
  -29.5020  -12.7350   18.3550 C   0  0  0  0  0  2  0  0  0  0  0  0
  -28.0130  -12.5570   18.7230 C   0  0  0  0  0  2  0  0  0  0  0  0
  -27.6110  -13.3560   19.9900 C   0  0  0  0  0  3  0  0  0  0  0  0
  -28.6300  -13.1110   21.1300 C   0  0  0  0  0  2  0  0  0  0  0  0
  -29.9700  -13.4730   20.6290 N   0  0  0  0  0  0  0  0  0  0  0  0
  -31.6710  -14.9670   20.3230 O   0  0  0  0  0  0  0  0  0  0  0  0
  -29.6670  -15.6590   21.1220 N   0  0  0  0  0  0  0  0  0  0  0  0
  -28.8460  -15.2780   21.5670 H   0  0  0  0  0  0  0  0  0  0  0  0
  -25.1680  -13.9120   20.5890 C   0  0  0  0  0  0  0  0  0  0  0  0
  -24.1040  -13.1160   20.9190 C   0  0  0  0  0  0  0  0  0  0  0  0
  -24.6000  -11.7760   20.9140 C   0  0  0  0  0  0  0  0  0  0  0  0
  -26.2450  -13.0550   20.4090 N   0  0  0  0  0  0  0  0  0  0  0  0
  -25.9020  -11.7670   20.6590 N   0  0  0  0  0  0  0  0  0  0  0  0
  -23.9000  -10.4970   21.0820 C   0  0  0  0  0  0  0  0  0  0  0  0
  -24.3030   -9.5560   22.0550 C   0  0  0  0  0  3  0  0  0  0  0  0
  -23.6010   -8.3420   22.2100 C   0  0  0  0  0  3  0  0  0  0  0  0
  -22.4850   -8.0580   21.3890 C   0  0  0  0  0  0  0  0  0  0  0  0
  -22.1010   -8.9870   20.4060 C   0  0  0  0  0  3  0  0  0  0  0  0
  -22.8040  -10.1950   20.2500 C   0  0  0  0  0  3  0  0  0  0  0  0
  -21.7600   -6.8930   21.4510 O   0  0  0  0  0  0  0  0  0  0  0  0
  -21.6440   -6.1780   22.6170 C   0  0  0  0  0  0  0  0  0  0  0  0
  -21.0840   -6.7410   23.7840 C   0  0  0  0  0  3  0  0  0  0  0  0
  -20.9200   -5.9490   24.9380 C   0  0  0  0  0  3  0  0  0  0  0  0
  -21.3050   -4.5950   24.9240 C   0  0  0  0  0  0  0  0  0  0  0  0
  -21.8570   -4.0320   23.7610 C   0  0  0  0  0  3  0  0  0  0  0  0
  -22.0230   -4.8210   22.6080 C   0  0  0  0  0  0  0  0  0  0  0  0
  -22.5360   -4.2680   21.4830 F   0  0  0  0  0  0  0  0  0  0  0  0
  -21.1410   -3.8300   26.0290 F   0  0  0  0  0  0  0  0  0  0  0  0
  -22.6850  -13.5590   21.1330 C   0  0  0  0  0  0  0  0  0  0  0  0
  -21.9390  -12.8400   21.9630 N   0  0  0  0  0  0  0  0  0  0  0  0
  -22.2450  -14.5760   20.6010 O   0  0  0  0  0  0  0  0  0  0  0  0
  -22.3060  -12.0180   22.4190 H   0  0  0  0  0  0  0  0  0  0  0  0
  -20.9870  -13.1200   22.1490 H   0  0  0  0  0  0  0  0  0  0  0  0
  -25.3030  -15.2850   20.4130 N   0  0  0  0  0  0  0  0  0  0  0  0
  -24.5100  -15.9140   20.4830 H   0  0  0  0  0  0  0  0  0  0  0  0
  -26.1530  -15.7480   20.1160 H   0  0  0  0  0  0  0  0  0  0  0  0
  1  4  1  0
  2  6  1  0
  3  6  2  0
  4  2  2  0
  5  1  2  0
  5  3  1  0
  6 56  1  0
  7  5  1  0
  8 10  1  0
  8  9  1  0
  9 11  1  0
 10 11  1  0
 11  4  1  0
 11 13  1  1
 13 14  1  0
 13 12  1  0
 15 17  1  0
 15 14  1  0
 16 27  2  0
 17 22  1  0
 18 26  1  0
 18 28  1  0
 19 25  1  0
 19 21  1  0
 20 26  1  0
 21 20  1  0
 22 21  2  0
 23 17  2  0
 24 23  1  0
 24 19  2  0
 25 18  1  0
 26 16  1  0
 28 30  2  0
 29 28  1  0
 31 29  1  0
 32 41  2  0
 32 37  1  0
 33 29  1  0
 33 37  1  0
 34 33  1  0
 35 36  1  0
 35 34  1  0
 36 32  1  0
 37 38  2  0
 38 39  1  0
 40 39  2  0
 41 40  1  0
 42 16  1  0
 42 43  1  0
 42 52  1  0
 43 46  1  0
 44 48  1  0
 44 43  1  0
 45 44  2  0
 48 47  1  0
 50 48  1  0
 50 51  1  0
 50 49  1  0
 52 55  1  1
 52 53  1  0
 54 52  1  0
 56 58  1  0
 56 57  1  0
 60 59  1  0
 60 58  1  0
 60 69  1  0
 61 69  1  0
 62 67  1  0
 63 64  1  0
 63 62  1  0
 65 64  1  0
 65 74  1  0
 65 66  1  0
 67 61  1  0
 67 66  1  0
 68 61  2  0
 69 70  1  0
 71 72  2  0
 72 91  1  0
 73 72  1  0
 73 76  1  0
 74 71  1  0
 74 75  1  0
 75 73  2  0
 76 77  1  0
 77 78  2  0
 79 82  1  0
 79 78  1  0
 80 79  2  0
 81 80  1  0
 81 76  2  0
 82 83  1  0
 83 84  1  0
 84 85  2  0
 86 85  1  0
 86 90  1  0
 87 86  2  0
 88 83  2  0
 88 87  1  0
 89 88  1  0
 91 92  1  0
 92 95  1  0
 92 94  1  0
 93 91  2  0
 96 97  1  0
 96 71  1  0
 98 96  1  0
M  ISO  4  14 101  15 101  61 100  69 100
M  END
>  <TORSDO>  (1) 
F 22

>  <SCORE>  (1) 
-13.327

>  <name>  (1) 
0

>  <ligand_id>  (1) 
0

>  <original_smiles>  (1) 
[H]c1c([H])c([H])c2c(c1[H])C([H])([H])C([H])([H])C([H])([H])C2([H])N([H])C(=O)C1([H])N(C(=O)C([H])(N([H])C(=O)C([H])(N([H])C([H])([H])[H])C([H])([H])[H])C(C([H])([H])[H])(C([H])([H])[H])C([H])([H])[H])C([H])([H])c2c([H])c(OC([H])([H])C([H])(C([H])([H])[H])C3(c4c([H])c(N([H])C([H])([H])C([H])(N([H])C(=O)N5C([H])([H])C([H])([H])C([H])([H])C([H])(n6nc(-c7c([H])c([H])c(Oc8c([H])c([H])c(F)c([H])c8F)c([H])c7[H])c(C(=O)N([H])[H])c6N([H])[H])C5([H])[H])C([H])([H])[H])c([H])c(C([H])([H])[H])c4[H])C([H])([H])C([H])([H])C3([H])[H])c([H])c([H])c2C1([H])[H]

>  <smiles>  (1) 
[H]c1c([H])c([H])c2c(c1[H])C([H])([H])C([H])([H])C([H])([H])C2([H])N([H])C(=O)C1([H])N(C(=O)C([H])(N([H])C(=O)C([H])(N([H])C([H])([H])[H])C([H])([H])[H])C(C([H])([H])[H])(C([H])([H])[H])C([H])([H])[H])C([H])([H])c2c([H])c(OC([H])([H])C([H])(C([H])([H])[H])C3(c4c([H])c(N([H])C([H])([H])C([H])(N([H])C(=O)N5C([H])([H])C([H])([H])C([H])([H])C([H])(n6nc(-c7c([H])c([H])c(Oc8c([H])c([H])c(F)c([H])c8F)c([H])c7[H])c(C(=O)N([H])[H])c6N([H])[H])C5([H])[H])C([H])([H])[H])c([H])c(C([H])([H])[H])c4[H])C([H])([H])C([H])([H])C3([H])[H])c([H])c([H])c2C1([H])[H]

$$$$
1:0:0
     RDKit          3D

 91100  0  0  1  0  0  0  0  0999 V2000
  -30.9750  -15.3740   19.5480 C   0  0  0  0  0  0  0  0  0  0  0  0
  -31.0350  -12.7820   19.2490 C   0  0  0  0  0  2  0  0  0  0  0  0
  -30.1380  -12.2510   18.0990 C   0  0  0  0  0  2  0  0  0  0  0  0
  -28.6950  -12.0310   18.5850 C   0  0  0  0  0  2  0  0  0  0  0  0
  -28.1970  -13.2140   19.4530 C   0  0  0  0  0  3  0  0  0  0  0  0
  -29.2320  -13.6090   20.5300 C   0  0  0  0  0  2  0  0  0  0  0  0
  -30.4360  -14.0640   19.7990 N   0  0  0  0  0  0  0  0  0  0  0  0
  -32.1860  -15.3030   19.2750 O   0  0  0  0  0  0  0  0  0  0  0  0
  -28.1220  -17.1050   18.4740 C   0  0  0  0  0  2  0  0  0  0  0  0
  -29.1690  -17.5240   17.4300 C   0  0  0  0  0  2  0  0  0  0  0  0
  -28.8960  -18.2990   20.7500 C   0  0  0  0  0  3  0  0  0  0  0  0
  -29.7660  -19.5330   20.2500 C   0  0  0  0  0  3  0  0  0  0  0  0
  -28.8900  -16.9950   19.8310 C   0  0  0  0  0  3  0  0  0  0  0  0
  -30.2540  -18.0190   18.3640 C   0  0  0  0  0  3  0  0  0  0  0  0
  -29.6240  -19.6600   18.7200 C   0  0  0  0  0  3  0  0  0  0  0  0
  -27.4550  -18.7090   21.1120 C   0  0  0  0  0  1  0  0  0  0  0  0
  -29.5960  -20.8120   21.0810 C   0  0  0  0  0  1  0  0  0  0  0  0
  -30.2310  -16.6770   19.3520 N   0  0  0  0  0  0  0  0  0  0  0  0
  -25.8950  -13.9260   20.3000 C   0  0  0  0  0  0  0  0  0  0  0  0
  -24.7880  -13.2240   20.6730 C   0  0  0  0  0  0  0  0  0  0  0  0
  -25.1510  -11.8450   20.5870 C   0  0  0  0  0  0  0  0  0  0  0  0
  -26.8650  -12.9850   19.9970 N   0  0  0  0  0  0  0  0  0  0  0  0
  -26.4270  -11.7220   20.2380 N   0  0  0  0  0  0  0  0  0  0  0  0
  -24.3330  -10.6400   20.7680 C   0  0  0  0  0  0  0  0  0  0  0  0
  -24.7280   -9.6010   21.6370 C   0  0  0  0  0  3  0  0  0  0  0  0
  -23.9100   -8.4640   21.8110 C   0  0  0  0  0  3  0  0  0  0  0  0
  -22.6820   -8.3610   21.1150 C   0  0  0  0  0  0  0  0  0  0  0  0
  -22.3050   -9.3880   20.2330 C   0  0  0  0  0  3  0  0  0  0  0  0
  -23.1240  -10.5160   20.0560 C   0  0  0  0  0  3  0  0  0  0  0  0
  -21.8360   -7.2850   21.2060 O   0  0  0  0  0  0  0  0  0  0  0  0
  -21.8120   -6.4790   22.3140 C   0  0  0  0  0  0  0  0  0  0  0  0
  -21.5230   -6.9870   23.6000 C   0  0  0  0  0  3  0  0  0  0  0  0
  -21.4430   -6.1120   24.7020 C   0  0  0  0  0  3  0  0  0  0  0  0
  -21.6390   -4.7300   24.5180 C   0  0  0  0  0  0  0  0  0  0  0  0
  -21.9200   -4.2220   23.2390 C   0  0  0  0  0  3  0  0  0  0  0  0
  -22.0040   -5.0940   22.1400 C   0  0  0  0  0  0  0  0  0  0  0  0
  -22.2570   -4.5970   20.9040 F   0  0  0  0  0  0  0  0  0  0  0  0
  -21.5520   -3.8870   25.5740 F   0  0  0  0  0  0  0  0  0  0  0  0
  -23.4430  -13.8020   20.9970 C   0  0  0  0  0  0  0  0  0  0  0  0
  -22.7030  -13.1660   21.8970 N   0  0  0  0  0  0  0  0  0  0  0  0
  -23.0620  -14.8570   20.4880 O   0  0  0  0  0  0  0  0  0  0  0  0
  -23.0200  -12.3140   22.3350 H   0  0  0  0  0  0  0  0  0  0  0  0
  -21.7990  -13.5370   22.1560 H   0  0  0  0  0  0  0  0  0  0  0  0
  -26.1350  -15.2870   20.1820 N   0  0  0  0  0  0  0  0  0  0  0  0
  -25.4170  -15.9710   20.3910 H   0  0  0  0  0  0  0  0  0  0  0  0
  -27.0260  -15.7080   19.9580 H   0  0  0  0  0  0  0  0  0  0  0  0
  -29.6620  -21.1160   17.9160 O   0  0  0  0  0  0  0  0  0  0  0  0
  -29.2380  -22.7210   18.2600 C   0  0  0  0  0  0  0  0  0  0  0  0
  -29.0510  -23.0320   19.4370 O   0  0  0  0  0  0  0  0  0  0  0  0
  -28.9250  -24.0390   17.1440 C   0  0  0  0  0  2  0  0  0  0  0  0
  -28.8380  -25.6750   17.4010 O   0  0  0  0  0  0  0  0  0  0  0  0
  -25.0130  -30.2170   22.0390 C   0  0  0  0  0  0  0  0  0  0  0  0
  -27.6980  -26.6150   17.6380 C   0  0  0  0  0  0  0  0  0  0  0  0
  -23.7840  -29.1110   20.2140 C   0  0  0  0  0  3  0  0  0  0  0  0
  -25.2120  -28.1150   18.2930 C   0  0  0  0  0  0  0  0  0  0  0  0
  -26.2740  -29.6970   19.8900 C   0  0  0  0  0  2  0  0  0  0  0  0
  -26.4140  -28.5130   18.8880 C   0  0  0  0  0  0  0  0  0  0  0  0
  -27.6410  -27.7850   18.5470 C   0  0  0  0  0  3  0  0  0  0  0  0
  -26.4470  -26.3770   17.0260 C   0  0  0  0  0  3  0  0  0  0  0  0
  -25.2490  -27.0760   17.3440 C   0  0  0  0  0  3  0  0  0  0  0  0
  -23.9140  -28.8190   18.6920 C   0  0  0  0  0  2  0  0  0  0  0  0
  -25.0490  -29.6920   20.7710 N   0  0  0  0  0  0  0  0  0  0  0  0
  -23.9730  -30.2210   22.7160 O   0  0  0  0  0  0  0  0  0  0  0  0
  -23.3250  -27.8280   20.9550 C   0  0  0  0  0  0  0  0  0  0  0  0
  -22.0110  -27.5360   20.9380 N   0  0  0  0  0  0  0  0  0  0  0  0
  -24.1530  -27.1040   21.5130 O   0  0  0  0  0  0  0  0  0  0  0  0
  -21.3880  -28.1820   20.4750 H   0  0  0  0  0  0  0  0  0  0  0  0
  -18.8560  -25.8280   21.4840 C   0  0  0  0  0  0  0  0  0  0  0  0
  -21.3920  -26.3410   21.5200 C   0  0  0  0  0  3  0  0  0  0  0  0
  -21.5420  -25.1240   20.5770 C   0  0  0  0  0  2  0  0  0  0  0  0
  -20.3430  -24.9310   19.6440 C   0  0  0  0  0  2  0  0  0  0  0  0
  -19.0590  -24.7300   20.4530 C   0  0  0  0  0  2  0  0  0  0  0  0
  -19.9480  -26.5940   21.9720 C   0  0  0  0  0  0  0  0  0  0  0  0
  -19.6970  -27.6220   22.9080 C   0  0  0  0  0  3  0  0  0  0  0  0
  -18.3880  -27.8890   23.3520 C   0  0  0  0  0  3  0  0  0  0  0  0
  -17.3130  -27.1190   22.8750 C   0  0  0  0  0  3  0  0  0  0  0  0
  -17.5480  -26.0900   21.9460 C   0  0  0  0  0  3  0  0  0  0  0  0
  -26.2760  -30.8520   22.6980 C   0  0  0  0  0  3  0  0  0  0  0  0
  -25.8300  -31.9600   23.5620 N   0  0  0  0  0  0  0  0  0  0  0  0
  -25.9870  -33.2610   23.2870 C   0  0  0  0  0  0  0  0  0  0  0  0
  -26.5860  -33.6610   22.2850 O   0  0  0  0  0  0  0  0  0  0  0  0
  -25.2820  -31.7050   24.3720 H   0  0  0  0  0  0  0  0  0  0  0  0
  -24.0730  -34.8410   23.7150 C   0  0  0  0  0  1  0  0  0  0  0  0
  -25.3900  -34.2830   24.2770 C   0  0  0  0  0  3  0  0  0  0  0  0
  -27.4650  -34.9960   25.3840 C   0  0  0  0  0  1  0  0  0  0  0  0
  -26.3050  -35.4020   24.5950 N   0  0  0  0  0  0  0  0  0  0  0  0
  -25.8170  -36.1350   25.1030 H   0  0  0  0  0  0  0  0  0  0  0  0
  -27.1220  -29.8170   23.5390 C   0  0  1  0  0  0  0  0  0  0  0  0
  -26.2920  -29.0320   24.5810 C   0  0  0  0  0  1  0  0  0  0  0  0
  -27.8100  -28.7870   22.6160 C   0  0  0  0  0  1  0  0  0  0  0  0
  -28.2550  -30.5560   24.2920 C   0  0  0  0  0  1  0  0  0  0  0  0
  1  7  1  0
  2  7  1  0
  3  4  1  0
  3  2  1  0
  5  4  1  0
  5 22  1  0
  5  6  1  0
  7  6  1  0
  8  1  2  0
 10  9  1  0
 11 16  1  0
 12 11  1  0
 12 17  1  0
 13  9  1  0
 13 11  1  0
 14 10  1  0
 14 15  1  0
 14 18  1  0
 15 47  1  0
 15 12  1  0
 18  1  1  0
 18 13  1  0
 19 20  2  0
 20 39  1  0
 21 20  1  0
 21 24  1  0
 22 23  1  0
 22 19  1  0
 23 21  2  0
 24 25  1  0
 25 26  2  0
 27 30  1  0
 27 26  1  0
 28 27  2  0
 29 28  1  0
 29 24  2  0
 30 31  1  0
 31 32  1  0
 32 33  2  0
 34 33  1  0
 34 38  1  0
 35 34  2  0
 36 31  2  0
 36 35  1  0
 37 36  1  0
 39 40  1  0
 40 43  1  0
 40 42  1  0
 41 39  2  0
 44 19  1  0
 44 45  1  0
 46 44  1  0
 47 48  1  0
 48 49  2  0
 50 51  1  0
 50 48  1  0
 51 53  1  0
 52 63  2  0
 53 58  1  0
 54 62  1  0
 54 64  1  0
 55 61  1  0
 55 57  1  0
 56 62  1  0
 57 56  1  0
 58 57  2  0
 59 60  1  0
 59 53  2  0
 60 55  2  0
 61 54  1  0
 62 52  1  0
 64 66  2  0
 65 64  1  0
 67 65  1  0
 68 77  2  0
 68 73  1  0
 69 65  1  0
 69 73  1  0
 70 69  1  0
 71 72  1  0
 71 70  1  0
 72 68  1  0
 73 74  2  0
 74 75  1  0
 76 75  2  0
 77 76  1  0
 78 52  1  0
 78 88  1  0
 78 79  1  0
 79 82  1  0
 80 79  1  0
 80 84  1  0
 81 80  2  0
 84 83  1  0
 84 86  1  0
 86 87  1  0
 86 85  1  0
 88 91  1  1
 88 89  1  0
 90 88  1  0
M  ISO  4   1 100  18 100  50 101  51 101
M  END
>  <TORSDO>  (2) 
F 18

>  <SCORE>  (2) 
-8.990

>  <name>  (2) 
1

>  <ligand_id>  (2) 
1

>  <original_smiles>  (2) 
[H]c1c([H])c([H])c2c(c1[H])C([H])([H])C([H])([H])C([H])([H])C2([H])N([H])C(=O)C1([H])N(C(=O)C([H])(N([H])C(=O)C([H])(N([H])C([H])([H])[H])C([H])([H])[H])C(C([H])([H])[H])(C([H])([H])[H])C([H])([H])[H])C([H])([H])c2c([H])c(OC([H])([H])C(=O)OC3([H])C4([H])N(C(=O)N5C([H])([H])C([H])([H])C([H])([H])C([H])(n6nc(-c7c([H])c([H])c(Oc8c([H])c([H])c(F)c([H])c8F)c([H])c7[H])c(C(=O)N([H])[H])c6N([H])[H])C5([H])[H])C([H])(C([H])([H])C4([H])[H])C([H])(C([H])([H])[H])C3([H])C([H])([H])[H])c([H])c([H])c2C1([H])[H]

>  <smiles>  (2) 
[H]c1c([H])c([H])c2c(c1[H])C([H])([H])C([H])([H])C([H])([H])C2([H])N([H])C(=O)C1([H])N(C(=O)C([H])(N([H])C(=O)C([H])(N([H])C([H])([H])[H])C([H])([H])[H])C(C([H])([H])[H])(C([H])([H])[H])C([H])([H])[H])C([H])([H])c2c([H])c(OC([H])([H])C(=O)OC3([H])C4([H])N(C(=O)N5C([H])([H])C([H])([H])C([H])([H])C([H])(n6nc(-c7c([H])c([H])c(Oc8c([H])c([H])c(F)c([H])c8F)c([H])c7[H])c(C(=O)N([H])[H])c6N([H])[H])C5([H])[H])C([H])(C([H])([H])C4([H])[H])C([H])(C([H])([H])[H])C3([H])C([H])([H])[H])c([H])c([H])c2C1([H])[H]

$$$$
2:0:0
     RDKit          3D

 96106  0  0  1  0  0  0  0  0999 V2000
  -30.7170  -22.1660   19.6680 C   0  0  0  0  0  0  0  0  0  0  0  0
  -30.1740  -23.5020   19.6400 C   0  0  0  0  0  0  0  0  0  0  0  0
  -28.8670  -23.7570   20.1360 C   0  0  0  0  0  0  0  0  0  0  0  0
  -28.2110  -22.6110   20.6960 C   0  0  0  0  0  0  0  0  0  0  0  0
  -29.9580  -21.0990   20.2360 C   0  0  0  0  0  0  0  0  0  0  0  0
  -30.9690  -24.6540   19.0390 C   0  0  0  0  0  1  0  0  0  0  0  0
  -26.8060  -22.6810   21.2690 C   0  0  0  0  0  1  0  0  0  0  0  0
  -28.7370  -21.3500   20.7450 N   0  0  0  0  0  0  0  0  0  0  0  0
  -30.4910  -19.7710   20.3180 N   0  0  0  0  0  0  0  0  0  0  0  0
  -31.4380  -19.7070   19.9630 H   0  0  0  0  0  0  0  0  0  0  0  0
  -30.8310  -14.7810   20.0490 C   0  0  0  0  0  0  0  0  0  0  0  0
  -30.4810  -12.5860   18.9260 C   0  0  0  0  0  2  0  0  0  0  0  0
  -29.4670  -12.7390   17.7730 C   0  0  0  0  0  2  0  0  0  0  0  0
  -28.0260  -12.5660   18.2920 C   0  0  0  0  0  2  0  0  0  0  0  0
  -27.7490  -13.3910   19.5780 C   0  0  0  0  0  3  0  0  0  0  0  0
  -28.8800  -13.2170   20.6150 C   0  0  0  0  0  2  0  0  0  0  0  0
  -30.1370  -13.5950   19.9540 N   0  0  0  0  0  0  0  0  0  0  0  0
  -31.9700  -14.8510   19.5790 O   0  0  0  0  0  0  0  0  0  0  0  0
  -29.5490  -17.8500   21.7180 C   0  0  0  0  0  2  0  0  0  0  0  0
  -29.3930  -16.3230   21.4890 C   0  0  0  0  0  2  0  0  0  0  0  0
  -30.5280  -17.2700   19.6500 C   0  0  0  0  0  2  0  0  0  0  0  0
  -29.7670  -18.4620   20.3320 C   0  0  0  0  0  3  0  0  0  0  0  0
  -30.1460  -15.9640   20.2780 N   0  0  0  0  0  0  0  0  0  0  0  0
  -25.4110  -13.9550   20.4760 C   0  0  0  0  0  0  0  0  0  0  0  0
  -24.3690  -13.1650   20.8810 C   0  0  0  0  0  0  0  0  0  0  0  0
  -24.8250  -11.8170   20.7630 C   0  0  0  0  0  0  0  0  0  0  0  0
  -26.4360  -13.0860   20.1400 N   0  0  0  0  0  0  0  0  0  0  0  0
  -26.0930  -11.7920   20.3710 N   0  0  0  0  0  0  0  0  0  0  0  0
  -24.1070  -10.5480   20.9450 C   0  0  0  0  0  0  0  0  0  0  0  0
  -24.5350   -9.5860   21.8870 C   0  0  0  0  0  3  0  0  0  0  0  0
  -23.8160   -8.3830   22.0580 C   0  0  0  0  0  3  0  0  0  0  0  0
  -22.6580   -8.1320   21.2860 C   0  0  0  0  0  0  0  0  0  0  0  0
  -22.2490   -9.0820   20.3330 C   0  0  0  0  0  3  0  0  0  0  0  0
  -22.9690  -10.2770   20.1610 C   0  0  0  0  0  3  0  0  0  0  0  0
  -21.9120   -6.9800   21.3650 O   0  0  0  0  0  0  0  0  0  0  0  0
  -21.7610   -6.3010   22.5470 C   0  0  0  0  0  0  0  0  0  0  0  0
  -21.1890   -6.9060   23.6870 C   0  0  0  0  0  3  0  0  0  0  0  0
  -20.9900   -6.1510   24.8600 C   0  0  0  0  0  3  0  0  0  0  0  0
  -21.3500   -4.7910   24.8930 C   0  0  0  0  0  0  0  0  0  0  0  0
  -21.9150   -4.1850   23.7570 C   0  0  0  0  0  3  0  0  0  0  0  0
  -22.1170   -4.9370   22.5870 C   0  0  0  0  0  0  0  0  0  0  0  0
  -22.6420   -4.3430   21.4880 F   0  0  0  0  0  0  0  0  0  0  0  0
  -21.1520   -4.0630   26.0170 F   0  0  0  0  0  0  0  0  0  0  0  0
  -22.9940  -13.6320   21.2630 C   0  0  0  0  0  0  0  0  0  0  0  0
  -22.3300  -12.9100   22.1590 N   0  0  0  0  0  0  0  0  0  0  0  0
  -22.5190  -14.6690   20.8020 O   0  0  0  0  0  0  0  0  0  0  0  0
  -22.7280  -12.0720   22.5540 H   0  0  0  0  0  0  0  0  0  0  0  0
  -21.4110  -13.2030   22.4580 H   0  0  0  0  0  0  0  0  0  0  0  0
  -25.5670  -15.3310   20.3440 N   0  0  0  0  0  0  0  0  0  0  0  0
  -24.8080  -15.9790   20.5290 H   0  0  0  0  0  0  0  0  0  0  0  0
  -26.3930  -15.7820   19.9740 H   0  0  0  0  0  0  0  0  0  0  0  0
  -32.4440  -22.2390   17.6610 C   0  0  0  0  0  2  0  0  0  0  0  0
  -32.3280  -20.7950   18.0650 C   0  0  0  0  0  2  0  0  0  0  0  0
  -32.0890  -21.8870   19.0930 C   0  0  0  0  0  3  0  0  0  0  0  0
  -28.0490  -25.0810   19.8210 C   0  0  0  0  0  2  0  0  0  0  0  0
  -28.4020  -26.4830   20.1950 O   0  0  0  0  0  0  0  0  0  0  0  0
  -24.6570  -31.8810   23.2630 C   0  0  0  0  0  0  0  0  0  0  0  0
  -27.3270  -27.4030   20.1120 C   0  0  0  0  0  0  0  0  0  0  0  0
  -23.4860  -30.5190   21.5760 C   0  0  0  0  0  3  0  0  0  0  0  0
  -24.9630  -29.0340   20.1190 C   0  0  0  0  0  0  0  0  0  0  0  0
  -26.0300  -30.8500   21.4390 C   0  0  0  0  0  2  0  0  0  0  0  0
  -26.1260  -29.4930   20.7530 C   0  0  0  0  0  0  0  0  0  0  0  0
  -27.3100  -28.6870   20.7480 C   0  0  0  0  0  3  0  0  0  0  0  0
  -26.1430  -27.0380   19.4180 C   0  0  0  0  0  3  0  0  0  0  0  0
  -24.9770  -27.8120   19.4430 C   0  0  0  0  0  3  0  0  0  0  0  0
  -23.7210  -29.8950   20.1790 C   0  0  0  0  0  2  0  0  0  0  0  0
  -24.7430  -31.0980   22.1490 N   0  0  0  0  0  0  0  0  0  0  0  0
  -23.5650  -32.1380   23.7880 O   0  0  0  0  0  0  0  0  0  0  0  0
  -22.8200  -29.4670   22.4960 C   0  0  0  0  0  0  0  0  0  0  0  0
  -21.4970  -29.2810   22.3480 N   0  0  0  0  0  0  0  0  0  0  0  0
  -23.4940  -28.8230   23.3050 O   0  0  0  0  0  0  0  0  0  0  0  0
  -21.0130  -29.8530   21.6710 H   0  0  0  0  0  0  0  0  0  0  0  0
  -18.1160  -28.0760   22.8070 C   0  0  0  0  0  0  0  0  0  0  0  0
  -20.6760  -28.3200   23.0860 C   0  0  0  0  0  3  0  0  0  0  0  0
  -20.7740  -26.9090   22.4610 C   0  0  0  0  0  2  0  0  0  0  0  0
  -19.6710  -26.6240   21.4370 C   0  0  0  0  0  2  0  0  0  0  0  0
  -18.2890  -26.7500   22.0860 C   0  0  0  0  0  2  0  0  0  0  0  0
  -19.2360  -28.8200   23.2630 C   0  0  0  0  0  0  0  0  0  0  0  0
  -19.0210  -30.0630   23.8970 C   0  0  0  0  0  3  0  0  0  0  0  0
  -17.7160  -30.5610   24.0800 C   0  0  0  0  0  3  0  0  0  0  0  0
  -16.6110  -29.8130   23.6400 C   0  0  0  0  0  3  0  0  0  0  0  0
  -16.8120  -28.5720   23.0090 C   0  0  0  0  0  3  0  0  0  0  0  0
  -25.9280  -32.5080   23.9150 C   0  0  0  0  0  3  0  0  0  0  0  0
  -25.6150  -33.9080   24.2360 N   0  0  0  0  0  0  0  0  0  0  0  0
  -25.9330  -34.9560   23.4650 C   0  0  0  0  0  0  0  0  0  0  0  0
  -26.5930  -34.8470   22.4270 O   0  0  0  0  0  0  0  0  0  0  0  0
  -25.0280  -34.0660   25.0420 H   0  0  0  0  0  0  0  0  0  0  0  0
  -24.1800  -36.7280   23.1330 C   0  0  0  0  0  1  0  0  0  0  0  0
  -25.4460  -36.3460   23.9170 C   0  0  0  0  0  3  0  0  0  0  0  0
  -27.5860  -37.2680   24.6900 C   0  0  0  0  0  1  0  0  0  0  0  0
  -26.4660  -37.4060   23.7640 N   0  0  0  0  0  0  0  0  0  0  0  0
  -26.0530  -38.3250   23.9010 H   0  0  0  0  0  0  0  0  0  0  0  0
  -26.4080  -31.7350   25.2040 C   0  0  1  0  0  0  0  0  0  0  0  0
  -25.2850  -31.4960   26.2400 C   0  0  0  0  0  1  0  0  0  0  0  0
  -27.0020  -30.3580   24.8290 C   0  0  0  0  0  1  0  0  0  0  0  0
  -27.5400  -32.5290   25.8980 C   0  0  0  0  0  1  0  0  0  0  0  0
  1  5  1  0
  2  1  2  0
  2  3  1  0
  3  4  2  0
  4  8  1  0
  4  7  1  0
  5  9  1  0
  5  8  2  0
  6  2  1  0
 10  9  1  0
 11 23  1  0
 12 17  1  0
 13 14  1  0
 13 12  1  0
 15 14  1  0
 15 27  1  0
 15 16  1  0
 17 11  1  0
 17 16  1  0
 18 11  2  0
 20 19  1  0
 21 23  1  0
 21 22  1  0
 22  9  1  0
 22 19  1  0
 23 20  1  0
 24 25  2  0
 25 44  1  0
 26 25  1  0
 26 29  1  0
 27 28  1  0
 27 24  1  0
 28 26  2  0
 29 30  1  0
 30 31  2  0
 32 35  1  0
 32 31  1  0
 33 32  2  0
 34 33  1  0
 34 29  2  0
 35 36  1  0
 36 41  2  0
 36 37  1  0
 37 38  2  0
 38 39  1  0
 39 43  1  0
 40 39  2  0
 41 40  1  0
 42 41  1  0
 44 45  1  0
 45 48  1  0
 45 47  1  0
 46 44  2  0
 49 24  1  0
 49 50  1  0
 51 49  1  0
 52 53  1  0
 52 54  1  0
 53 54  1  0
 54  1  1  0
 55  3  1  0
 55 56  1  0
 57 68  2  0
 58 56  1  0
 58 63  1  0
 59 67  1  0
 59 69  1  0
 60 66  1  0
 60 62  1  0
 61 67  1  0
 62 61  1  0
 63 62  2  0
 64 65  1  0
 64 58  2  0
 65 60  2  0
 66 59  1  0
 67 57  1  0
 69 71  2  0
 70 69  1  0
 72 70  1  0
 73 82  2  0
 73 78  1  0
 74 70  1  0
 74 78  1  0
 75 74  1  0
 76 77  1  0
 76 75  1  0
 77 73  1  0
 78 79  2  0
 79 80  1  0
 81 80  2  0
 82 81  1  0
 83 57  1  0
 83 84  1  0
 83 93  1  0
 84 87  1  0
 85 89  1  0
 85 84  1  0
 86 85  2  0
 89 88  1  0
 91 92  1  0
 91 89  1  0
 91 90  1  0
 93 96  1  1
 93 94  1  0
 95 93  1  0
M  ISO  4  11 100  23 100  55 101  56 101
M  END
>  <TORSDO>  (3) 
F 18

>  <SCORE>  (3) 
-14.027

>  <name>  (3) 
2

>  <ligand_id>  (3) 
2

>  <original_smiles>  (3) 
[H]c1c([H])c([H])c2c(c1[H])C([H])([H])C([H])([H])C([H])([H])C2([H])N([H])C(=O)C1([H])N(C(=O)C([H])(N([H])C(=O)C([H])(N([H])C([H])([H])[H])C([H])([H])[H])C(C([H])([H])[H])(C([H])([H])[H])C([H])([H])[H])C([H])([H])c2c([H])c(OC([H])([H])c3c(C([H])([H])[H])nc(N([H])C4([H])C([H])([H])N(C(=O)N5C([H])([H])C([H])([H])C([H])([H])C([H])(n6nc(-c7c([H])c([H])c(Oc8c([H])c([H])c(F)c([H])c8F)c([H])c7[H])c(C(=O)N([H])[H])c6N([H])[H])C5([H])[H])C([H])([H])C4([H])[H])c(C4([H])C([H])([H])C4([H])[H])c3C([H])([H])[H])c([H])c([H])c2C1([H])[H]

>  <smiles>  (3) 
[H]c1c([H])c([H])c2c(c1[H])C([H])([H])C([H])([H])C([H])([H])C2([H])N([H])C(=O)C1([H])N(C(=O)C([H])(N([H])C(=O)C([H])(N([H])C([H])([H])[H])C([H])([H])[H])C(C([H])([H])[H])(C([H])([H])[H])C([H])([H])[H])C([H])([H])c2c([H])c(OC([H])([H])c3c(C([H])([H])[H])nc(N([H])C4([H])C([H])([H])N(C(=O)N5C([H])([H])C([H])([H])C([H])([H])C([H])(n6nc(-c7c([H])c([H])c(Oc8c([H])c([H])c(F)c([H])c8F)c([H])c7[H])c(C(=O)N([H])[H])c6N([H])[H])C5([H])[H])C([H])([H])C4([H])[H])c(C4([H])C([H])([H])C4([H])[H])c3C([H])([H])[H])c([H])c([H])c2C1([H])[H]

$$$$
3:0:0
     RDKit          3D

 99109  0  0  1  0  0  0  0  0999 V2000
  -29.5420  -23.8350   22.1680 C   0  0  0  0  0  3  0  0  0  0  0  0
  -29.7410  -22.7140   19.6110 C   0  0  0  0  0  3  0  0  0  0  0  0
  -29.1930  -24.6190   21.0460 C   0  0  0  0  0  0  0  0  0  0  0  0
  -30.1250  -21.9460   20.7330 C   0  0  0  0  0  0  0  0  0  0  0  0
  -29.9980  -22.4990   22.0290 C   0  0  0  0  0  0  0  0  0  0  0  0
  -29.2710  -24.0370   19.7600 C   0  0  0  0  0  0  0  0  0  0  0  0
  -28.9030  -24.7320   18.6560 F   0  0  0  0  0  0  0  0  0  0  0  0
  -30.0940  -22.1940   24.4120 C   0  0  0  0  0  1  0  0  0  0  0  0
  -30.3430  -21.7030   23.1000 O   0  0  0  0  0  0  0  0  0  0  0  0
  -30.7370  -20.5570   20.5400 C   0  0  0  0  0  2  0  0  0  0  0  0
  -30.8900  -14.6600   20.0640 C   0  0  0  0  0  0  0  0  0  0  0  0
  -30.4630  -12.5650   18.8330 C   0  0  0  0  0  2  0  0  0  0  0  0
  -29.4400  -12.8370   17.7120 C   0  0  0  0  0  2  0  0  0  0  0  0
  -27.9980  -12.6970   18.2400 C   0  0  0  0  0  2  0  0  0  0  0  0
  -27.7660  -13.4540   19.5750 C   0  0  0  0  0  3  0  0  0  0  0  0
  -28.9010  -13.1740   20.5820 C   0  0  0  0  0  2  0  0  0  0  0  0
  -30.1790  -13.5040   19.9300 N   0  0  0  0  0  0  0  0  0  0  0  0
  -31.9540  -14.8510   19.4680 O   0  0  0  0  0  0  0  0  0  0  0  0
  -28.8720  -19.0000   19.6700 C   0  0  0  0  0  2  0  0  0  0  0  0
  -30.4210  -15.8500   22.1340 C   0  0  0  0  0  2  0  0  0  0  0  0
  -30.5810  -18.0540   21.1620 C   0  0  0  0  0  3  0  0  0  0  0  0
  -29.8010  -19.3590   20.8500 C   0  0  0  0  0  3  0  0  0  0  0  0
  -28.8610  -17.4670   19.5520 C   0  0  0  0  0  3  0  0  0  0  0  0
  -30.2400  -17.0380   20.0740 C   0  0  0  0  0  3  0  0  0  0  0  0
  -30.1740  -17.3280   22.4430 C   0  0  0  0  0  3  0  0  0  0  0  0
  -28.5700  -17.0020   18.1160 C   0  0  0  0  0  1  0  0  0  0  0  0
  -30.2590  -15.6870   20.6830 N   0  0  0  0  0  0  0  0  0  0  0  0
  -25.4340  -14.0390   20.4830 C   0  0  0  0  0  0  0  0  0  0  0  0
  -24.3910  -13.2540   20.8960 C   0  0  0  0  0  0  0  0  0  0  0  0
  -24.8400  -11.9030   20.7700 C   0  0  0  0  0  0  0  0  0  0  0  0
  -26.4530  -13.1640   20.1390 N   0  0  0  0  0  0  0  0  0  0  0  0
  -26.1030  -11.8730   20.3650 N   0  0  0  0  0  0  0  0  0  0  0  0
  -24.1240  -10.6350   20.9570 C   0  0  0  0  0  0  0  0  0  0  0  0
  -24.5520   -9.6790   21.9050 C   0  0  0  0  0  3  0  0  0  0  0  0
  -23.8360   -8.4760   22.0780 C   0  0  0  0  0  3  0  0  0  0  0  0
  -22.6800   -8.2190   21.3040 C   0  0  0  0  0  0  0  0  0  0  0  0
  -22.2720   -9.1650   20.3470 C   0  0  0  0  0  3  0  0  0  0  0  0
  -22.9880  -10.3610   20.1710 C   0  0  0  0  0  3  0  0  0  0  0  0
  -21.9360   -7.0670   21.3860 O   0  0  0  0  0  0  0  0  0  0  0  0
  -21.7950   -6.3850   22.5680 C   0  0  0  0  0  0  0  0  0  0  0  0
  -21.2300   -6.9870   23.7130 C   0  0  0  0  0  3  0  0  0  0  0  0
  -21.0400   -6.2300   24.8860 C   0  0  0  0  0  3  0  0  0  0  0  0
  -21.4040   -4.8700   24.9130 C   0  0  0  0  0  0  0  0  0  0  0  0
  -21.9620   -4.2670   23.7720 C   0  0  0  0  0  3  0  0  0  0  0  0
  -22.1550   -5.0220   22.6030 C   0  0  0  0  0  0  0  0  0  0  0  0
  -22.6720   -4.4320   21.4980 F   0  0  0  0  0  0  0  0  0  0  0  0
  -21.2140   -4.1400   26.0370 F   0  0  0  0  0  0  0  0  0  0  0  0
  -23.0220  -13.7220   21.2960 C   0  0  0  0  0  0  0  0  0  0  0  0
  -22.3850  -13.0230   22.2300 N   0  0  0  0  0  0  0  0  0  0  0  0
  -22.5290  -14.7410   20.8160 O   0  0  0  0  0  0  0  0  0  0  0  0
  -22.8000  -12.1990   22.6370 H   0  0  0  0  0  0  0  0  0  0  0  0
  -21.4710  -13.3190   22.5410 H   0  0  0  0  0  0  0  0  0  0  0  0
  -25.5920  -15.4150   20.3540 N   0  0  0  0  0  0  0  0  0  0  0  0
  -24.8400  -16.0670   20.5470 H   0  0  0  0  0  0  0  0  0  0  0  0
  -26.4170  -15.8620   19.9740 H   0  0  0  0  0  0  0  0  0  0  0  0
  -30.9290  -17.7710   23.5540 O   0  0  0  0  0  0  0  0  0  0  0  0
  -31.8530  -17.7090   23.3300 H   0  0  0  0  0  0  0  0  0  0  0  0
  -28.6930  -26.0420   21.3070 C   0  0  0  0  0  2  0  0  0  0  0  0
  -28.6280  -26.9100   20.1710 O   0  0  0  0  0  0  0  0  0  0  0  0
  -24.5620  -31.9130   23.1960 C   0  0  0  0  0  0  0  0  0  0  0  0
  -27.4620  -27.6340   20.1380 C   0  0  0  0  0  0  0  0  0  0  0  0
  -23.4550  -30.4800   21.5110 C   0  0  0  0  0  3  0  0  0  0  0  0
  -25.0070  -29.0190   20.1080 C   0  0  0  0  0  0  0  0  0  0  0  0
  -25.9650  -30.9500   21.3780 C   0  0  0  0  0  2  0  0  0  0  0  0
  -26.1260  -29.5900   20.7300 C   0  0  0  0  0  0  0  0  0  0  0  0
  -27.3590  -28.9030   20.7470 C   0  0  0  0  0  3  0  0  0  0  0  0
  -26.3360  -27.0710   19.5090 C   0  0  0  0  0  3  0  0  0  0  0  0
  -25.1060  -27.7570   19.4950 C   0  0  0  0  0  3  0  0  0  0  0  0
  -23.7250  -29.8200   20.1320 C   0  0  0  0  0  2  0  0  0  0  0  0
  -24.6770  -31.1280   22.0890 N   0  0  0  0  0  0  0  0  0  0  0  0
  -23.4590  -32.1350   23.7140 O   0  0  0  0  0  0  0  0  0  0  0  0
  -22.8230  -29.4240   22.4460 C   0  0  0  0  0  0  0  0  0  0  0  0
  -21.5100  -29.1910   22.2840 N   0  0  0  0  0  0  0  0  0  0  0  0
  -23.5110  -28.8180   23.2720 O   0  0  0  0  0  0  0  0  0  0  0  0
  -21.0160  -29.7350   21.5910 H   0  0  0  0  0  0  0  0  0  0  0  0
  -18.1680  -27.8900   22.7120 C   0  0  0  0  0  0  0  0  0  0  0  0
  -20.7120  -28.2140   23.0250 C   0  0  0  0  0  3  0  0  0  0  0  0
  -20.8630  -26.7990   22.4200 C   0  0  0  0  0  2  0  0  0  0  0  0
  -19.7850  -26.4670   21.3840 C   0  0  0  0  0  2  0  0  0  0  0  0
  -18.3910  -26.5610   22.0120 C   0  0  0  0  0  2  0  0  0  0  0  0
  -19.2570  -28.6740   23.1730 C   0  0  0  0  0  0  0  0  0  0  0  0
  -18.9950  -29.9190   23.7860 C   0  0  0  0  0  3  0  0  0  0  0  0
  -17.6750  -30.3800   23.9430 C   0  0  0  0  0  3  0  0  0  0  0  0
  -16.5990  -29.5930   23.4990 C   0  0  0  0  0  3  0  0  0  0  0  0
  -16.8460  -28.3500   22.8900 C   0  0  0  0  0  3  0  0  0  0  0  0
  -25.8070  -32.5890   23.8530 C   0  0  0  0  0  3  0  0  0  0  0  0
  -26.3080  -31.8410   25.1500 C   0  0  1  0  0  0  0  0  0  0  0  0
  -25.1900  -31.5650   26.1810 C   0  0  0  0  0  1  0  0  0  0  0  0
  -26.9540  -30.4850   24.7820 C   0  0  0  0  0  1  0  0  0  0  0  0
  -27.4060  -32.6790   25.8480 C   0  0  0  0  0  1  0  0  0  0  0  0
  -25.4450  -33.9780   24.1610 N   0  0  0  0  0  0  0  0  0  0  0  0
  -25.7810  -35.0350   23.4080 C   0  0  0  0  0  0  0  0  0  0  0  0
  -26.4960  -34.9440   22.4060 O   0  0  0  0  0  0  0  0  0  0  0  0
  -24.8150  -34.1220   24.9360 H   0  0  0  0  0  0  0  0  0  0  0  0
  -24.0300  -36.7810   22.9500 C   0  0  0  0  0  1  0  0  0  0  0  0
  -25.2330  -36.4110   23.8320 C   0  0  0  0  0  3  0  0  0  0  0  0
  -27.2920  -37.3530   24.7830 C   0  0  0  0  0  1  0  0  0  0  0  0
  -26.2430  -37.4900   23.7750 N   0  0  0  0  0  0  0  0  0  0  0  0
  -25.8060  -38.3990   23.8960 H   0  0  0  0  0  0  0  0  0  0  0  0
  2  6  2  0
  2  4  1  0
  3 58  1  0
  3  1  2  0
  4  5  2  0
  5  1  1  0
  5  9  1  0
  6  3  1  0
  7  6  1  0
  9  8  1  0
 10  4  1  0
 10 22  1  0
 11 27  1  0
 12 17  1  0
 13 14  1  0
 13 12  1  0
 15 14  1  0
 15 31  1  0
 15 16  1  0
 17 11  1  0
 17 16  1  0
 18 11  2  0
 19 22  1  0
 20 25  1  0
 21 25  1  0
 22 21  1  0
 23 19  1  0
 23 24  1  0
 24 27  1  0
 24 21  1  0
 25 56  1  0
 26 23  1  0
 27 20  1  0
 28 29  2  0
 29 48  1  0
 30 29  1  0
 30 33  1  0
 31 32  1  0
 31 28  1  0
 32 30  2  0
 33 34  1  0
 34 35  2  0
 36 39  1  0
 36 35  1  0
 37 36  2  0
 38 37  1  0
 38 33  2  0
 39 40  1  0
 40 45  2  0
 40 41  1  0
 41 42  2  0
 42 43  1  0
 43 47  1  0
 44 43  2  0
 45 44  1  0
 46 45  1  0
 48 49  1  0
 49 52  1  0
 49 51  1  0
 50 48  2  0
 53 28  1  0
 53 54  1  0
 55 53  1  0
 57 56  1  0
 59 58  1  0
 60 71  2  0
 60 86  1  0
 61 59  1  0
 61 66  1  0
 62 70  1  0
 62 72  1  0
 63 69  1  0
 63 65  1  0
 64 70  1  0
 65 66  2  0
 65 64  1  0
 67 61  2  0
 68 67  1  0
 68 63  2  0
 69 62  1  0
 70 60  1  0
 72 74  2  0
 73 72  1  0
 73 77  1  0
 75 73  1  0
 76 85  2  0
 76 81  1  0
 77 81  1  0
 78 77  1  0
 79 80  1  0
 79 78  1  0
 80 76  1  0
 81 82  2  0
 82 83  1  0
 84 83  2  0
 85 84  1  0
 86 91  1  0
 86 87  1  0
 87 90  1  1
 87 88  1  0
 89 87  1  0
 91 94  1  0
 92 96  1  0
 92 91  1  0
 93 92  2  0
 95 96  1  0
 98 96  1  0
 98 99  1  0
 98 97  1  0
M  ISO  4  11 100  27 100  58 101  59 101
M  END
>  <TORSDO>  (4) 
F 20

>  <SCORE>  (4) 
-13.715

>  <name>  (4) 
3

>  <ligand_id>  (4) 
3

>  <original_smiles>  (4) 
[H]OC1([H])C([H])([H])N(C(=O)N2C([H])([H])C([H])([H])C([H])([H])C([H])(n3nc(-c4c([H])c([H])c(Oc5c([H])c([H])c(F)c([H])c5F)c([H])c4[H])c(C(=O)N([H])[H])c3N([H])[H])C2([H])[H])C2([H])C([H])(C([H])([H])[H])C([H])([H])C([H])(C([H])([H])c3c([H])c(F)c(C([H])([H])Oc4c([H])c([H])c5c(c4[H])C([H])([H])N(C(=O)C([H])(N([H])C(=O)C([H])(N([H])C([H])([H])[H])C([H])([H])[H])C(C([H])([H])[H])(C([H])([H])[H])C([H])([H])[H])C([H])(C(=O)N([H])C4([H])c6c([H])c([H])c([H])c([H])c6C([H])([H])C([H])([H])C4([H])[H])C5([H])[H])c([H])c3OC([H])([H])[H])C12[H]

>  <smiles>  (4) 
[H]OC1([H])C([H])([H])N(C(=O)N2C([H])([H])C([H])([H])C([H])([H])C([H])(n3nc(-c4c([H])c([H])c(Oc5c([H])c([H])c(F)c([H])c5F)c([H])c4[H])c(C(=O)N([H])[H])c3N([H])[H])C2([H])[H])C2([H])C([H])(C([H])([H])[H])C([H])([H])C([H])(C([H])([H])c3c([H])c(F)c(C([H])([H])Oc4c([H])c([H])c5c(c4[H])C([H])([H])N(C(=O)C([H])(N([H])C(=O)C([H])(N([H])C([H])([H])[H])C([H])([H])[H])C(C([H])([H])[H])(C([H])([H])[H])C([H])([H])[H])C([H])(C(=O)N([H])C4([H])c6c([H])c([H])c([H])c([H])c6C([H])([H])C([H])([H])C4([H])[H])C5([H])[H])c([H])c3OC([H])([H])[H])C12[H]

$$$$
4:0:0
     RDKit          3D

 94103  0  0  1  0  0  0  0  0999 V2000
  -29.4680  -23.3180   19.1570 C   0  0  0  0  0  0  0  0  0  0  0  0
  -28.9620  -23.1210   21.5010 C   0  0  0  0  0  0  0  0  0  0  0  0
  -29.0190  -23.9800   20.3450 C   0  0  0  0  0  0  0  0  0  0  0  0
  -29.7920  -21.8980   19.1290 C   0  0  0  0  0  0  0  0  0  0  0  0
  -29.3500  -21.7250   21.4880 C   0  0  0  0  0  0  0  0  0  0  0  0
  -29.7470  -21.0440   20.2890 C   0  0  0  0  0  0  0  0  0  0  0  0
  -29.5820  -24.1520   17.8860 C   0  0  0  0  0  1  0  0  0  0  0  0
  -28.4610  -23.7170   22.8250 C   0  0  0  0  0  1  0  0  0  0  0  0
  -30.1980  -21.2720   17.7950 C   0  0  0  0  0  1  0  0  0  0  0  0
  -29.3270  -20.9640   22.8160 C   0  0  0  0  0  1  0  0  0  0  0  0
  -31.3740  -15.2660   20.2720 C   0  0  0  0  0  0  0  0  0  0  0  0
  -31.1120  -12.9440   19.3710 C   0  0  0  0  0  2  0  0  0  0  0  0
  -30.2120  -12.9180   18.1210 C   0  0  0  0  0  2  0  0  0  0  0  0
  -28.7400  -12.7380   18.5340 C   0  0  0  0  0  2  0  0  0  0  0  0
  -28.3260  -13.6940   19.6830 C   0  0  0  0  0  3  0  0  0  0  0  0
  -29.3670  -13.7390   20.8260 C   0  0  0  0  0  2  0  0  0  0  0  0
  -30.6600  -14.0790   20.2210 N   0  0  0  0  0  0  0  0  0  0  0  0
  -32.5810  -15.1980   20.0190 O   0  0  0  0  0  0  0  0  0  0  0  0
  -31.2170  -19.1110   21.0160 C   0  0  0  0  0  2  0  0  0  0  0  0
  -29.0370  -18.5710   20.1640 C   0  0  0  0  0  2  0  0  0  0  0  0
  -31.7580  -17.7110   20.5500 C   0  0  0  0  0  2  0  0  0  0  0  0
  -29.4710  -17.0320   20.0110 C   0  0  0  0  0  2  0  0  0  0  0  0
  -30.0880  -19.6150   20.2250 N   0  0  0  0  0  0  0  0  0  0  0  0
  -30.8130  -16.5500   20.4600 N   0  0  0  0  0  0  0  0  0  0  0  0
  -25.9460  -14.3020   20.4060 C   0  0  0  0  0  0  0  0  0  0  0  0
  -24.8690  -13.5370   20.7590 C   0  0  0  0  0  0  0  0  0  0  0  0
  -25.3190  -12.1810   20.7170 C   0  0  0  0  0  0  0  0  0  0  0  0
  -26.9810  -13.4130   20.1680 N   0  0  0  0  0  0  0  0  0  0  0  0
  -26.6120  -12.1320   20.4220 N   0  0  0  0  0  0  0  0  0  0  0  0
  -24.5760  -10.9240   20.8810 C   0  0  0  0  0  0  0  0  0  0  0  0
  -24.9190   -9.9900   21.8840 C   0  0  0  0  0  3  0  0  0  0  0  0
  -24.1760   -8.7990   22.0340 C   0  0  0  0  0  3  0  0  0  0  0  0
  -23.0780   -8.5350   21.1830 C   0  0  0  0  0  0  0  0  0  0  0  0
  -22.7550   -9.4570   20.1720 C   0  0  0  0  0  3  0  0  0  0  0  0
  -23.4980  -10.6400   20.0190 C   0  0  0  0  0  3  0  0  0  0  0  0
  -22.3140   -7.3940   21.2410 O   0  0  0  0  0  0  0  0  0  0  0  0
  -22.0220   -6.7830   22.4340 C   0  0  0  0  0  0  0  0  0  0  0  0
  -21.3170   -7.4500   23.4610 C   0  0  0  0  0  3  0  0  0  0  0  0
  -20.9780   -6.7630   24.6430 C   0  0  0  0  0  3  0  0  0  0  0  0
  -21.3340   -5.4090   24.7970 C   0  0  0  0  0  0  0  0  0  0  0  0
  -22.0300   -4.7420   23.7750 C   0  0  0  0  0  3  0  0  0  0  0  0
  -22.3710   -5.4270   22.5950 C   0  0  0  0  0  0  0  0  0  0  0  0
  -23.0240   -4.7730   21.6050 F   0  0  0  0  0  0  0  0  0  0  0  0
  -21.0000   -4.7470   25.9290 F   0  0  0  0  0  0  0  0  0  0  0  0
  -23.4760  -14.0280   21.0180 C   0  0  0  0  0  0  0  0  0  0  0  0
  -22.7380  -13.3500   21.8890 N   0  0  0  0  0  0  0  0  0  0  0  0
  -23.0500  -15.0510   20.4820 O   0  0  0  0  0  0  0  0  0  0  0  0
  -23.0930  -12.5230   22.3440 H   0  0  0  0  0  0  0  0  0  0  0  0
  -21.8020  -13.6640   22.1040 H   0  0  0  0  0  0  0  0  0  0  0  0
  -26.1220  -15.6720   20.2390 N   0  0  0  0  0  0  0  0  0  0  0  0
  -25.3550  -16.3270   20.3450 H   0  0  0  0  0  0  0  0  0  0  0  0
  -26.9630  -16.1010   19.8780 H   0  0  0  0  0  0  0  0  0  0  0  0
  -28.4880  -25.5060   20.4930 C   0  0  0  0  0  2  0  0  0  0  0  0
  -28.6270  -26.6840   19.5600 O   0  0  0  0  0  0  0  0  0  0  0  0
  -24.6530  -31.6900   23.0420 C   0  0  0  0  0  0  0  0  0  0  0  0
  -27.5200  -27.5660   19.5840 C   0  0  0  0  0  0  0  0  0  0  0  0
  -23.5230  -30.3380   21.3170 C   0  0  0  0  0  3  0  0  0  0  0  0
  -25.0550  -29.0320   19.7330 C   0  0  0  0  0  0  0  0  0  0  0  0
  -26.0320  -30.8570   21.1190 C   0  0  0  0  0  2  0  0  0  0  0  0
  -26.2030  -29.5440   20.3540 C   0  0  0  0  0  0  0  0  0  0  0  0
  -27.4420  -28.8250   20.2710 C   0  0  0  0  0  3  0  0  0  0  0  0
  -26.3530  -27.1400   18.9140 C   0  0  0  0  0  3  0  0  0  0  0  0
  -25.1360  -27.8400   18.9990 C   0  0  0  0  0  3  0  0  0  0  0  0
  -23.7560  -29.8000   19.8820 C   0  0  0  0  0  2  0  0  0  0  0  0
  -24.7540  -30.9770   21.8830 N   0  0  0  0  0  0  0  0  0  0  0  0
  -23.5650  -31.8370   23.6180 O   0  0  0  0  0  0  0  0  0  0  0  0
  -22.9660  -29.1970   22.2030 C   0  0  0  0  0  0  0  0  0  0  0  0
  -21.6540  -28.9220   22.0880 N   0  0  0  0  0  0  0  0  0  0  0  0
  -23.7100  -28.5650   22.9570 O   0  0  0  0  0  0  0  0  0  0  0  0
  -21.1060  -29.4890   21.4540 H   0  0  0  0  0  0  0  0  0  0  0  0
  -18.3980  -27.4060   22.5400 C   0  0  0  0  0  0  0  0  0  0  0  0
  -20.9310  -27.8630   22.7950 C   0  0  0  0  0  3  0  0  0  0  0  0
  -21.1420  -26.4930   22.1120 C   0  0  0  0  0  2  0  0  0  0  0  0
  -20.0520  -26.1530   21.0900 C   0  0  0  0  0  2  0  0  0  0  0  0
  -18.6760  -26.1310   21.7610 C   0  0  0  0  0  2  0  0  0  0  0  0
  -19.4570  -28.2280   23.0120 C   0  0  0  0  0  0  0  0  0  0  0  0
  -19.1430  -29.4170   23.7020 C   0  0  0  0  0  3  0  0  0  0  0  0
  -17.8030  -29.7900   23.9240 C   0  0  0  0  0  3  0  0  0  0  0  0
  -16.7600  -28.9660   23.4680 C   0  0  0  0  0  3  0  0  0  0  0  0
  -17.0590  -27.7750   22.7820 C   0  0  0  0  0  3  0  0  0  0  0  0
  -25.8970  -32.3740   23.6900 C   0  0  0  0  0  3  0  0  0  0  0  0
  -25.5040  -33.7390   24.0720 N   0  0  0  0  0  0  0  0  0  0  0  0
  -25.7870  -34.8400   23.3640 C   0  0  0  0  0  0  0  0  0  0  0  0
  -26.4750  -34.8180   22.3390 O   0  0  0  0  0  0  0  0  0  0  0  0
  -24.8900  -33.8250   24.8690 H   0  0  0  0  0  0  0  0  0  0  0  0
  -23.9760  -36.5600   23.0540 C   0  0  0  0  0  1  0  0  0  0  0  0
  -25.2190  -36.1800   23.8740 C   0  0  0  0  0  3  0  0  0  0  0  0
  -27.2820  -37.1360   24.8010 C   0  0  0  0  0  1  0  0  0  0  0  0
  -26.1980  -37.2890   23.8350 N   0  0  0  0  0  0  0  0  0  0  0  0
  -25.7400  -38.1800   24.0100 H   0  0  0  0  0  0  0  0  0  0  0  0
  -26.4570  -31.5880   24.9390 C   0  0  1  0  0  0  0  0  0  0  0  0
  -25.3810  -31.2560   25.9990 C   0  0  0  0  0  1  0  0  0  0  0  0
  -27.1130  -30.2570   24.5050 C   0  0  0  0  0  1  0  0  0  0  0  0
  -27.5630  -32.4220   25.6280 C   0  0  0  0  0  1  0  0  0  0  0  0
  1  3  1  0
  2  8  1  0
  3 53  1  0
  3  2  2  0
  4  1  2  0
  4  6  1  0
  5  2  1  0
  5 10  1  0
  6  5  2  0
  7  1  1  0
  9  4  1  0
 11 24  1  0
 12 17  1  0
 13 14  1  0
 13 12  1  0
 15 14  1  0
 15 28  1  0
 15 16  1  0
 17 11  1  0
 17 16  1  0
 18 11  2  0
 20 23  1  0
 21 19  1  0
 22 20  1  0
 22 24  1  0
 23  6  1  0
 23 19  1  0
 24 21  1  0
 25 26  2  0
 26 45  1  0
 27 26  1  0
 27 30  1  0
 28 25  1  0
 28 29  1  0
 29 27  2  0
 30 31  1  0
 31 32  2  0
 33 36  1  0
 33 32  1  0
 34 33  2  0
 35 34  1  0
 35 30  2  0
 36 37  1  0
 37 42  2  0
 37 38  1  0
 38 39  2  0
 39 40  1  0
 40 44  1  0
 41 40  2  0
 42 41  1  0
 43 42  1  0
 45 46  1  0
 46 49  1  0
 46 48  1  0
 47 45  2  0
 50 51  1  0
 50 25  1  0
 52 50  1  0
 54 56  1  0
 54 53  1  0
 55 66  2  0
 56 61  1  0
 57 65  1  0
 57 67  1  0
 58 64  1  0
 58 60  1  0
 59 65  1  0
 60 59  1  0
 61 60  2  0
 62 63  1  0
 62 56  2  0
 63 58  2  0
 64 57  1  0
 65 55  1  0
 67 69  2  0
 68 67  1  0
 70 68  1  0
 71 80  2  0
 71 76  1  0
 72 68  1  0
 72 76  1  0
 73 72  1  0
 74 75  1  0
 74 73  1  0
 75 71  1  0
 76 77  2  0
 77 78  1  0
 79 78  2  0
 80 79  1  0
 81 55  1  0
 81 82  1  0
 81 91  1  0
 82 85  1  0
 83 87  1  0
 83 82  1  0
 84 83  2  0
 87 86  1  0
 89 87  1  0
 89 90  1  0
 89 88  1  0
 91 94  1  1
 91 92  1  0
 93 91  1  0
M  ISO  4  11 100  24 100  53 101  54 101
M  END
>  <TORSDO>  (5) 
F 17

>  <SCORE>  (5) 
-12.470

>  <name>  (5) 
4

>  <ligand_id>  (5) 
4

>  <original_smiles>  (5) 
[H]c1c([H])c([H])c2c(c1[H])C([H])([H])C([H])([H])C([H])([H])C2([H])N([H])C(=O)C1([H])N(C(=O)C([H])(N([H])C(=O)C([H])(N([H])C([H])([H])[H])C([H])([H])[H])C(C([H])([H])[H])(C([H])([H])[H])C([H])([H])[H])C([H])([H])c2c([H])c(OC([H])([H])c3c(C([H])([H])[H])c(C([H])([H])[H])c(N4C([H])([H])C([H])([H])N(C(=O)N5C([H])([H])C([H])([H])C([H])([H])C([H])(n6nc(-c7c([H])c([H])c(Oc8c([H])c([H])c(F)c([H])c8F)c([H])c7[H])c(C(=O)N([H])[H])c6N([H])[H])C5([H])[H])C([H])([H])C4([H])[H])c(C([H])([H])[H])c3C([H])([H])[H])c([H])c([H])c2C1([H])[H]

>  <smiles>  (5) 
[H]c1c([H])c([H])c2c(c1[H])C([H])([H])C([H])([H])C([H])([H])C2([H])N([H])C(=O)C1([H])N(C(=O)C([H])(N([H])C(=O)C([H])(N([H])C([H])([H])[H])C([H])([H])[H])C(C([H])([H])[H])(C([H])([H])[H])C([H])([H])[H])C([H])([H])c2c([H])c(OC([H])([H])c3c(C([H])([H])[H])c(C([H])([H])[H])c(N4C([H])([H])C([H])([H])N(C(=O)N5C([H])([H])C([H])([H])C([H])([H])C([H])(n6nc(-c7c([H])c([H])c(Oc8c([H])c([H])c(F)c([H])c8F)c([H])c7[H])c(C(=O)N([H])[H])c6N([H])[H])C5([H])[H])C([H])([H])C4([H])[H])c(C([H])([H])[H])c3C([H])([H])[H])c([H])c([H])c2C1([H])[H]

$$$$
5:0:0
     RDKit          3D

 97106  0  0  1  0  0  0  0  0999 V2000
  -29.7190  -23.6210   18.7810 C   0  0  0  0  0  3  0  0  0  0  0  0
  -29.3800  -23.1810   21.1160 C   0  0  0  0  0  3  0  0  0  0  0  0
  -30.3540  -21.3830   19.6960 C   0  0  0  0  0  0  0  0  0  0  0  0
  -29.2210  -24.0730   20.0220 C   0  0  0  0  0  0  0  0  0  0  0  0
  -30.2760  -22.3180   18.6150 C   0  0  0  0  0  0  0  0  0  0  0  0
  -29.9410  -21.8660   20.9730 C   0  0  0  0  0  0  0  0  0  0  0  0
  -30.7590  -21.9490   17.2210 C   0  0  0  0  0  1  0  0  0  0  0  0
  -32.4220  -19.7550   19.7030 C   0  0  0  0  0  2  0  0  0  0  0  0
  -30.3150  -18.6550   20.2060 C   0  0  0  0  0  2  0  0  0  0  0  0
  -30.9160  -19.9160   19.4750 C   0  0  0  0  0  3  0  0  0  0  0  0
  -32.6870  -18.2300   19.7100 C   0  0  0  0  0  3  0  0  0  0  0  0
  -31.4890  -17.6390   20.4920 C   0  0  0  0  0  3  0  0  0  0  0  0
  -31.9550  -15.0390   20.1790 C   0  0  0  0  0  0  0  0  0  0  0  0
  -31.7300  -12.6640   19.4670 C   0  0  0  0  0  2  0  0  0  0  0  0
  -30.8330  -12.5870   18.2140 C   0  0  0  0  0  2  0  0  0  0  0  0
  -29.3450  -12.5100   18.6080 C   0  0  0  0  0  2  0  0  0  0  0  0
  -28.9500  -13.5760   19.6650 C   0  0  0  0  0  3  0  0  0  0  0  0
  -29.9650  -13.6120   20.8300 C   0  0  0  0  0  2  0  0  0  0  0  0
  -31.2990  -13.8390   20.2500 N   0  0  0  0  0  0  0  0  0  0  0  0
  -33.1290  -15.1030   19.8100 O   0  0  0  0  0  0  0  0  0  0  0  0
  -31.1950  -16.1590   20.3830 N   0  0  0  0  0  0  0  0  0  0  0  0
  -30.2370  -15.9270   20.5980 H   0  0  0  0  0  0  0  0  0  0  0  0
  -26.5990  -14.3400   20.3660 C   0  0  0  0  0  0  0  0  0  0  0  0
  -25.4770  -13.6420   20.7230 C   0  0  0  0  0  0  0  0  0  0  0  0
  -25.8420  -12.2620   20.6890 C   0  0  0  0  0  0  0  0  0  0  0  0
  -27.5810  -13.3890   20.1370 N   0  0  0  0  0  0  0  0  0  0  0  0
  -27.1290  -12.1330   20.3920 N   0  0  0  0  0  0  0  0  0  0  0  0
  -25.0270  -11.0540   20.8660 C   0  0  0  0  0  0  0  0  0  0  0  0
  -25.3170  -10.1080   21.8740 C   0  0  0  0  0  3  0  0  0  0  0  0
  -24.5070   -8.9630   22.0370 C   0  0  0  0  0  3  0  0  0  0  0  0
  -23.3920   -8.7560   21.1900 C   0  0  0  0  0  0  0  0  0  0  0  0
  -23.1220   -9.6880   20.1730 C   0  0  0  0  0  3  0  0  0  0  0  0
  -23.9310  -10.8240   20.0090 C   0  0  0  0  0  3  0  0  0  0  0  0
  -22.5660   -7.6600   21.2580 O   0  0  0  0  0  0  0  0  0  0  0  0
  -22.2640   -7.0580   22.4530 C   0  0  0  0  0  0  0  0  0  0  0  0
  -21.6560   -7.7670   23.5120 C   0  0  0  0  0  3  0  0  0  0  0  0
  -21.3010   -7.0930   24.6970 C   0  0  0  0  0  3  0  0  0  0  0  0
  -21.5440   -5.7110   24.8230 C   0  0  0  0  0  0  0  0  0  0  0  0
  -22.1440   -5.0030   23.7670 C   0  0  0  0  0  3  0  0  0  0  0  0
  -22.5010   -5.6750   22.5840 C   0  0  0  0  0  0  0  0  0  0  0  0
  -23.0600   -4.9830   21.5620 F   0  0  0  0  0  0  0  0  0  0  0  0
  -21.1950   -5.0620   25.9580 F   0  0  0  0  0  0  0  0  0  0  0  0
  -24.1140  -14.2150   20.9840 C   0  0  0  0  0  0  0  0  0  0  0  0
  -23.3380  -13.5800   21.8560 N   0  0  0  0  0  0  0  0  0  0  0  0
  -23.7470  -15.2620   20.4510 O   0  0  0  0  0  0  0  0  0  0  0  0
  -23.6480  -12.7340   22.3100 H   0  0  0  0  0  0  0  0  0  0  0  0
  -22.4210  -13.9460   22.0730 H   0  0  0  0  0  0  0  0  0  0  0  0
  -26.8610  -15.6960   20.1960 N   0  0  0  0  0  0  0  0  0  0  0  0
  -26.1400  -16.4020   20.2990 H   0  0  0  0  0  0  0  0  0  0  0  0
  -27.7390  -16.0750   19.8640 H   0  0  0  0  0  0  0  0  0  0  0  0
  -34.0640  -17.8780   20.3010 C   0  0  0  0  0  2  0  0  0  0  0  0
  -36.3650  -18.3810   20.1360 C   0  0  0  0  0  1  0  0  0  0  0  0
  -35.0710  -18.5790   19.5850 O   0  0  0  0  0  0  0  0  0  0  0  0
  -29.8190  -21.4720   23.3500 C   0  0  0  0  0  1  0  0  0  0  0  0
  -30.0900  -21.0000   22.0370 O   0  0  0  0  0  0  0  0  0  0  0  0
  -28.2200  -25.2770   20.1020 C   0  0  0  0  0  2  0  0  0  0  0  0
  -28.5730  -26.7020   20.3160 O   0  0  0  0  0  0  0  0  0  0  0  0
  -24.8090  -32.0350   23.4450 C   0  0  0  0  0  0  0  0  0  0  0  0
  -27.4740  -27.5890   20.2610 C   0  0  0  0  0  0  0  0  0  0  0  0
  -23.6270  -30.6710   21.7680 C   0  0  0  0  0  3  0  0  0  0  0  0
  -25.0960  -29.1930   20.2970 C   0  0  0  0  0  0  0  0  0  0  0  0
  -26.1670  -31.0190   21.6040 C   0  0  0  0  0  2  0  0  0  0  0  0
  -26.2620  -29.6640   20.9150 C   0  0  0  0  0  0  0  0  0  0  0  0
  -27.4540  -28.8730   20.8940 C   0  0  0  0  0  3  0  0  0  0  0  0
  -26.2790  -27.1990   19.6000 C   0  0  0  0  0  3  0  0  0  0  0  0
  -25.1070  -27.9650   19.6310 C   0  0  0  0  0  3  0  0  0  0  0  0
  -23.8500  -30.0480   20.3680 C   0  0  0  0  0  2  0  0  0  0  0  0
  -24.8860  -31.2570   22.3280 N   0  0  0  0  0  0  0  0  0  0  0  0
  -23.7220  -32.2860   23.9840 O   0  0  0  0  0  0  0  0  0  0  0  0
  -22.9760  -29.6140   22.6930 C   0  0  0  0  0  0  0  0  0  0  0  0
  -21.6710  -29.3570   22.4960 N   0  0  0  0  0  0  0  0  0  0  0  0
  -23.6450  -29.0300   23.5500 O   0  0  0  0  0  0  0  0  0  0  0  0
  -21.1880  -29.8830   21.7800 H   0  0  0  0  0  0  0  0  0  0  0  0
  -18.3680  -27.9030   22.7600 C   0  0  0  0  0  0  0  0  0  0  0  0
  -20.8660  -28.3780   23.2290 C   0  0  0  0  0  3  0  0  0  0  0  0
  -21.1290  -26.9430   22.7150 C   0  0  0  0  0  2  0  0  0  0  0  0
  -20.1450  -26.5030   21.6260 C   0  0  0  0  0  2  0  0  0  0  0  0
  -18.7070  -26.5540   22.1480 C   0  0  0  0  0  2  0  0  0  0  0  0
  -19.3830  -28.7660   23.2520 C   0  0  0  0  0  0  0  0  0  0  0  0
  -19.0150  -30.0240   23.7780 C   0  0  0  0  0  3  0  0  0  0  0  0
  -17.6650  -30.4210   23.8190 C   0  0  0  0  0  3  0  0  0  0  0  0
  -16.6640  -29.5570   23.3430 C   0  0  0  0  0  3  0  0  0  0  0  0
  -17.0160  -28.2990   22.8190 C   0  0  0  0  0  3  0  0  0  0  0  0
  -26.0840  -32.6660   24.0850 C   0  0  0  0  0  3  0  0  0  0  0  0
  -25.7630  -34.0580   24.4290 N   0  0  0  0  0  0  0  0  0  0  0  0
  -26.0800  -35.1210   23.6770 C   0  0  0  0  0  0  0  0  0  0  0  0
  -26.7440  -35.0340   22.6410 O   0  0  0  0  0  0  0  0  0  0  0  0
  -25.1740  -34.1990   25.2370 H   0  0  0  0  0  0  0  0  0  0  0  0
  -24.3240  -36.8940   23.3600 C   0  0  0  0  0  1  0  0  0  0  0  0
  -25.5810  -36.5000   24.1510 C   0  0  0  0  0  3  0  0  0  0  0  0
  -27.7170  -37.4070   24.9560 C   0  0  0  0  0  1  0  0  0  0  0  0
  -26.5990  -37.5670   24.0300 N   0  0  0  0  0  0  0  0  0  0  0  0
  -26.1840  -38.4820   24.1880 H   0  0  0  0  0  0  0  0  0  0  0  0
  -26.5920  -31.8820   25.3560 C   0  0  1  0  0  0  0  0  0  0  0  0
  -25.4880  -31.6130   26.4050 C   0  0  0  0  0  1  0  0  0  0  0  0
  -27.1970  -30.5170   24.9530 C   0  0  0  0  0  1  0  0  0  0  0  0
  -27.7240  -32.6800   26.0450 C   0  0  0  0  0  1  0  0  0  0  0  0
  1  4  1  0
  3  6  2  0
  4 56  1  0
  4  2  2  0
  5  1  2  0
  5  3  1  0
  6  2  1  0
  6 55  1  0
  7  5  1  0
  8 11  1  0
  9 12  1  0
 10  3  1  0
 10  8  1  0
 10  9  1  0
 11 51  1  0
 11 12  1  0
 12 21  1  0
 13 19  1  0
 13 21  1  0
 14 19  1  0
 15 16  1  0
 15 14  1  0
 17 16  1  0
 17 26  1  0
 17 18  1  0
 19 18  1  0
 20 13  2  0
 21 22  1  0
 23 24  2  0
 24 43  1  0
 25 24  1  0
 25 28  1  0
 26 23  1  0
 26 27  1  0
 27 25  2  0
 28 29  1  0
 29 30  2  0
 31 34  1  0
 31 30  1  0
 32 31  2  0
 33 32  1  0
 33 28  2  0
 34 35  1  0
 35 40  2  0
 35 36  1  0
 36 37  2  0
 37 38  1  0
 38 42  1  0
 39 38  2  0
 40 39  1  0
 41 40  1  0
 43 44  1  0
 44 47  1  0
 44 46  1  0
 45 43  2  0
 48 49  1  0
 48 23  1  0
 50 48  1  0
 53 52  1  0
 53 51  1  0
 55 54  1  0
 56 57  1  0
 58 69  2  0
 59 57  1  0
 59 64  1  0
 60 68  1  0
 60 70  1  0
 61 67  1  0
 61 63  1  0
 62 68  1  0
 63 62  1  0
 64 63  2  0
 65 66  1  0
 65 59  2  0
 66 61  2  0
 67 60  1  0
 68 58  1  0
 70 72  2  0
 71 70  1  0
 73 71  1  0
 74 83  2  0
 74 79  1  0
 75 71  1  0
 75 79  1  0
 76 75  1  0
 77 78  1  0
 77 76  1  0
 78 74  1  0
 79 80  2  0
 80 81  1  0
 82 81  2  0
 83 82  1  0
 84 58  1  0
 84 85  1  0
 84 94  1  0
 85 88  1  0
 86 90  1  0
 86 85  1  0
 87 86  2  0
 90 89  1  0
 92 90  1  0
 92 93  1  0
 92 91  1  0
 94 97  1  1
 94 95  1  0
 96 94  1  0
M  ISO  4  13 100  21 100  56 101  57 101
M  END
>  <TORSDO>  (6) 
F 21

>  <SCORE>  (6) 
-11.576

>  <name>  (6) 
5

>  <ligand_id>  (6) 
5

>  <original_smiles>  (6) 
[H]c1c([H])c([H])c2c(c1[H])C([H])([H])C([H])([H])C([H])([H])C2([H])N([H])C(=O)C1([H])N(C(=O)C([H])(N([H])C(=O)C([H])(N([H])C([H])([H])[H])C([H])([H])[H])C(C([H])([H])[H])(C([H])([H])[H])C([H])([H])[H])C([H])([H])c2c([H])c(OC([H])([H])c3c([H])c(OC([H])([H])[H])c(C4([H])C([H])([H])C([H])(N([H])C(=O)N5C([H])([H])C([H])([H])C([H])([H])C([H])(n6nc(-c7c([H])c([H])c(Oc8c([H])c([H])c(F)c([H])c8F)c([H])c7[H])c(C(=O)N([H])[H])c6N([H])[H])C5([H])[H])C([H])(C([H])([H])OC([H])([H])[H])C4([H])[H])c(C([H])([H])[H])c3[H])c([H])c([H])c2C1([H])[H]

>  <smiles>  (6) 
[H]c1c([H])c([H])c2c(c1[H])C([H])([H])C([H])([H])C([H])([H])C2([H])N([H])C(=O)C1([H])N(C(=O)C([H])(N([H])C(=O)C([H])(N([H])C([H])([H])[H])C([H])([H])[H])C(C([H])([H])[H])(C([H])([H])[H])C([H])([H])[H])C([H])([H])c2c([H])c(OC([H])([H])c3c([H])c(OC([H])([H])[H])c(C4([H])C([H])([H])C([H])(N([H])C(=O)N5C([H])([H])C([H])([H])C([H])([H])C([H])(n6nc(-c7c([H])c([H])c(Oc8c([H])c([H])c(F)c([H])c8F)c([H])c7[H])c(C(=O)N([H])[H])c6N([H])[H])C5([H])[H])C([H])(C([H])([H])OC([H])([H])[H])C4([H])[H])c(C([H])([H])[H])c3[H])c([H])c([H])c2C1([H])[H]

$$$$
6:0:0
     RDKit          3D

 93102  0  0  1  0  0  0  0  0999 V2000
  -28.0620  -22.7450   20.8990 C   0  0  0  0  0  3  0  0  0  0  0  0
  -29.5960  -20.9310   20.1040 C   0  0  0  0  0  0  0  0  0  0  0  0
  -28.4020  -21.3610   20.7640 C   0  0  0  0  0  0  0  0  0  0  0  0
  -28.8460  -23.8310   20.4230 C   0  0  0  0  0  0  0  0  0  0  0  0
  -30.3620  -22.0200   19.5390 C   0  0  0  0  0  0  0  0  0  0  0  0
  -30.0280  -23.4260   19.7310 C   0  0  0  0  0  0  0  0  0  0  0  0
  -27.4350  -20.3650   21.3770 C   0  0  0  0  0  1  0  0  0  0  0  0
  -31.5890  -21.6720   18.6980 C   0  0  0  0  0  1  0  0  0  0  0  0
  -30.9600  -24.5170   19.2150 C   0  0  0  0  0  1  0  0  0  0  0  0
  -31.1050  -14.9860   19.9220 C   0  0  0  0  0  0  0  0  0  0  0  0
  -30.8050  -12.7210   18.9190 C   0  0  0  0  0  2  0  0  0  0  0  0
  -29.7950  -12.7920   17.7560 C   0  0  0  0  0  2  0  0  0  0  0  0
  -28.3620  -12.6010   18.2850 C   0  0  0  0  0  2  0  0  0  0  0  0
  -28.0590  -13.4870   19.5240 C   0  0  0  0  0  3  0  0  0  0  0  0
  -29.1910  -13.4330   20.5730 C   0  0  0  0  0  2  0  0  0  0  0  0
  -30.4370  -13.7820   19.8840 N   0  0  0  0  0  0  0  0  0  0  0  0
  -32.2810  -15.0320   19.5430 O   0  0  0  0  0  0  0  0  0  0  0  0
  -30.3130  -18.5600   21.3280 C   0  0  0  0  0  2  0  0  0  0  0  0
  -29.2970  -18.3770   19.1390 C   0  0  0  0  0  2  0  0  0  0  0  0
  -31.0220  -17.1570   21.1160 C   0  0  0  0  0  2  0  0  0  0  0  0
  -29.9990  -16.9650   18.9410 C   0  0  0  0  0  2  0  0  0  0  0  0
  -30.0880  -19.3850   20.0230 C   0  0  0  0  0  3  0  0  0  0  0  0
  -30.4170  -16.1830   20.1510 N   0  0  0  0  0  0  0  0  0  0  0  0
  -25.7430  -14.0450   20.4660 C   0  0  0  0  0  0  0  0  0  0  0  0
  -24.7010  -13.2560   20.8730 C   0  0  0  0  0  0  0  0  0  0  0  0
  -25.1510  -11.9070   20.7380 C   0  0  0  0  0  0  0  0  0  0  0  0
  -26.7580  -13.1760   20.1060 N   0  0  0  0  0  0  0  0  0  0  0  0
  -26.4140  -11.8800   20.3330 N   0  0  0  0  0  0  0  0  0  0  0  0
  -24.4310  -10.6390   20.9160 C   0  0  0  0  0  0  0  0  0  0  0  0
  -24.8320   -9.6890   21.8820 C   0  0  0  0  0  3  0  0  0  0  0  0
  -24.1100   -8.4870   22.0460 C   0  0  0  0  0  3  0  0  0  0  0  0
  -22.9730   -8.2260   21.2450 C   0  0  0  0  0  0  0  0  0  0  0  0
  -22.5920   -9.1640   20.2700 C   0  0  0  0  0  3  0  0  0  0  0  0
  -23.3150  -10.3580   20.1030 C   0  0  0  0  0  3  0  0  0  0  0  0
  -22.2260   -7.0740   21.3170 O   0  0  0  0  0  0  0  0  0  0  0  0
  -22.0040   -6.4350   22.5100 C   0  0  0  0  0  0  0  0  0  0  0  0
  -21.3450   -7.0690   23.5850 C   0  0  0  0  0  3  0  0  0  0  0  0
  -21.0770   -6.3520   24.7690 C   0  0  0  0  0  3  0  0  0  0  0  0
  -21.4570   -5.0010   24.8760 C   0  0  0  0  0  0  0  0  0  0  0  0
  -22.1070   -4.3660   23.8040 C   0  0  0  0  0  3  0  0  0  0  0  0
  -22.3780   -5.0800   22.6230 C   0  0  0  0  0  0  0  0  0  0  0  0
  -22.9870   -4.4570   21.5860 F   0  0  0  0  0  0  0  0  0  0  0  0
  -21.1920   -4.3100   26.0090 F   0  0  0  0  0  0  0  0  0  0  0  0
  -23.3320  -13.7250   21.2730 C   0  0  0  0  0  0  0  0  0  0  0  0
  -22.6700  -12.9930   22.1620 N   0  0  0  0  0  0  0  0  0  0  0  0
  -22.8620  -14.7730   20.8330 O   0  0  0  0  0  0  0  0  0  0  0  0
  -23.0650  -12.1430   22.5370 H   0  0  0  0  0  0  0  0  0  0  0  0
  -21.7550  -13.2870   22.4720 H   0  0  0  0  0  0  0  0  0  0  0  0
  -25.9080  -15.4220   20.3480 N   0  0  0  0  0  0  0  0  0  0  0  0
  -25.1700  -16.0830   20.5590 H   0  0  0  0  0  0  0  0  0  0  0  0
  -26.7550  -15.8670   20.0150 H   0  0  0  0  0  0  0  0  0  0  0  0
  -28.3770  -25.3080   20.8510 C   0  0  0  0  0  2  0  0  0  0  0  0
  -28.6210  -26.5900   20.1190 O   0  0  0  0  0  0  0  0  0  0  0  0
  -24.7380  -31.9210   23.1950 C   0  0  0  0  0  0  0  0  0  0  0  0
  -27.5290  -27.4810   20.0950 C   0  0  0  0  0  0  0  0  0  0  0  0
  -23.6070  -30.5230   21.5060 C   0  0  0  0  0  3  0  0  0  0  0  0
  -25.1280  -29.0460   20.0730 C   0  0  0  0  0  0  0  0  0  0  0  0
  -26.1410  -30.9130   21.3780 C   0  0  0  0  0  2  0  0  0  0  0  0
  -26.2750  -29.5490   20.7020 C   0  0  0  0  0  0  0  0  0  0  0  0
  -27.4830  -28.7800   20.7030 C   0  0  0  0  0  3  0  0  0  0  0  0
  -26.3630  -27.0420   19.4370 C   0  0  0  0  0  3  0  0  0  0  0  0
  -25.1760  -27.7990   19.4290 C   0  0  0  0  0  3  0  0  0  0  0  0
  -23.8660  -29.8830   20.1180 C   0  0  0  0  0  2  0  0  0  0  0  0
  -24.8460  -31.1370   22.0830 N   0  0  0  0  0  0  0  0  0  0  0  0
  -23.6380  -32.1560   23.7150 O   0  0  0  0  0  0  0  0  0  0  0  0
  -22.9550  -29.4690   22.4330 C   0  0  0  0  0  0  0  0  0  0  0  0
  -21.6320  -29.2740   22.2950 N   0  0  0  0  0  0  0  0  0  0  0  0
  -23.6390  -28.8310   23.2370 O   0  0  0  0  0  0  0  0  0  0  0  0
  -21.1380  -29.8430   21.6220 H   0  0  0  0  0  0  0  0  0  0  0  0
  -18.2670  -28.0320   22.7730 C   0  0  0  0  0  0  0  0  0  0  0  0
  -20.8250  -28.3010   23.0350 C   0  0  0  0  0  3  0  0  0  0  0  0
  -20.9330  -26.8930   22.4030 C   0  0  0  0  0  2  0  0  0  0  0  0
  -19.8260  -26.6020   21.3850 C   0  0  0  0  0  2  0  0  0  0  0  0
  -18.4470  -26.7110   22.0430 C   0  0  0  0  0  2  0  0  0  0  0  0
  -19.3820  -28.7860   23.2240 C   0  0  0  0  0  0  0  0  0  0  0  0
  -19.1580  -30.0220   23.8670 C   0  0  0  0  0  3  0  0  0  0  0  0
  -17.8510  -30.5060   24.0630 C   0  0  0  0  0  3  0  0  0  0  0  0
  -16.7490  -29.7480   23.6280 C   0  0  0  0  0  3  0  0  0  0  0  0
  -16.9580  -28.5130   22.9890 C   0  0  0  0  0  3  0  0  0  0  0  0
  -25.9890  -32.5780   23.8540 C   0  0  0  0  0  3  0  0  0  0  0  0
  -25.6410  -33.9670   24.1860 N   0  0  0  0  0  0  0  0  0  0  0  0
  -25.9530  -35.0330   23.4350 C   0  0  0  0  0  0  0  0  0  0  0  0
  -26.6350  -34.9500   22.4100 O   0  0  0  0  0  0  0  0  0  0  0  0
  -25.0380  -34.1040   24.9840 H   0  0  0  0  0  0  0  0  0  0  0  0
  -24.1770  -36.7780   23.0780 C   0  0  0  0  0  1  0  0  0  0  0  0
  -25.4260  -36.4060   23.8940 C   0  0  0  0  0  3  0  0  0  0  0  0
  -27.5290  -37.3520   24.7380 C   0  0  0  0  0  1  0  0  0  0  0  0
  -26.4280  -37.4880   23.7880 N   0  0  0  0  0  0  0  0  0  0  0  0
  -25.9940  -38.3960   23.9350 H   0  0  0  0  0  0  0  0  0  0  0  0
  -26.4900  -31.8120   25.1400 C   0  0  1  0  0  0  0  0  0  0  0  0
  -25.3730  -31.5340   26.1730 C   0  0  0  0  0  1  0  0  0  0  0  0
  -27.1230  -30.4540   24.7580 C   0  0  0  0  0  1  0  0  0  0  0  0
  -27.5980  -32.6320   25.8420 C   0  0  0  0  0  1  0  0  0  0  0  0
  2  3  2  0
  3  1  1  0
  3  7  1  0
  4 52  1  0
  4  1  2  0
  5  6  2  0
  5  2  1  0
  6  4  1  0
  8  5  1  0
  9  6  1  0
 10 23  1  0
 11 16  1  0
 12 13  1  0
 12 11  1  0
 14 13  1  0
 14 27  1  0
 14 15  1  0
 16 10  1  0
 16 15  1  0
 17 10  2  0
 19 22  1  0
 20 18  1  0
 21 19  1  0
 21 23  1  0
 22  2  1  0
 22 18  1  0
 23 20  1  0
 24 25  2  0
 25 44  1  0
 26 25  1  0
 26 29  1  0
 27 28  1  0
 27 24  1  0
 28 26  2  0
 29 30  1  0
 30 31  2  0
 32 35  1  0
 32 31  1  0
 33 32  2  0
 34 33  1  0
 34 29  2  0
 35 36  1  0
 36 41  2  0
 36 37  1  0
 37 38  2  0
 38 39  1  0
 39 43  1  0
 40 39  2  0
 41 40  1  0
 42 41  1  0
 44 45  1  0
 45 48  1  0
 45 47  1  0
 46 44  2  0
 49 24  1  0
 49 50  1  0
 51 49  1  0
 53 52  1  0
 54 65  2  0
 55 53  1  0
 55 60  1  0
 56 64  1  0
 56 66  1  0
 57 63  1  0
 57 59  1  0
 58 64  1  0
 59 60  2  0
 59 58  1  0
 61 55  2  0
 62 61  1  0
 62 57  2  0
 63 56  1  0
 64 54  1  0
 66 68  2  0
 67 66  1  0
 69 67  1  0
 70 79  2  0
 70 75  1  0
 71 67  1  0
 71 75  1  0
 72 71  1  0
 73 74  1  0
 73 72  1  0
 74 70  1  0
 75 76  2  0
 76 77  1  0
 78 77  2  0
 79 78  1  0
 80 54  1  0
 80 81  1  0
 80 90  1  0
 81 84  1  0
 82 86  1  0
 82 81  1  0
 83 82  2  0
 86 85  1  0
 88 86  1  0
 88 89  1  0
 88 87  1  0
 90 93  1  1
 90 91  1  0
 92 90  1  0
M  ISO  4  10 100  23 100  52 101  53 101
M  END
>  <TORSDO>  (7) 
F 17

>  <SCORE>  (7) 
-12.642

>  <name>  (7) 
6

>  <ligand_id>  (7) 
6

>  <original_smiles>  (7) 
[H]c1c([H])c([H])c2c(c1[H])C([H])([H])C([H])([H])C([H])([H])C2([H])N([H])C(=O)C1([H])N(C(=O)C([H])(N([H])C(=O)C([H])(N([H])C([H])([H])[H])C([H])([H])[H])C(C([H])([H])[H])(C([H])([H])[H])C([H])([H])[H])C([H])([H])c2c([H])c(OC([H])([H])c3c([H])c(C([H])([H])[H])c(C4([H])C([H])([H])C([H])([H])N(C(=O)N5C([H])([H])C([H])([H])C([H])([H])C([H])(n6nc(-c7c([H])c([H])c(Oc8c([H])c([H])c(F)c([H])c8F)c([H])c7[H])c(C(=O)N([H])[H])c6N([H])[H])C5([H])[H])C([H])([H])C4([H])[H])c(C([H])([H])[H])c3C([H])([H])[H])c([H])c([H])c2C1([H])[H]

>  <smiles>  (7) 
[H]c1c([H])c([H])c2c(c1[H])C([H])([H])C([H])([H])C([H])([H])C2([H])N([H])C(=O)C1([H])N(C(=O)C([H])(N([H])C(=O)C([H])(N([H])C([H])([H])[H])C([H])([H])[H])C(C([H])([H])[H])(C([H])([H])[H])C([H])([H])[H])C([H])([H])c2c([H])c(OC([H])([H])c3c([H])c(C([H])([H])[H])c(C4([H])C([H])([H])C([H])([H])N(C(=O)N5C([H])([H])C([H])([H])C([H])([H])C([H])(n6nc(-c7c([H])c([H])c(Oc8c([H])c([H])c(F)c([H])c8F)c([H])c7[H])c(C(=O)N([H])[H])c6N([H])[H])C5([H])[H])C([H])([H])C4([H])[H])c(C([H])([H])[H])c3C([H])([H])[H])c([H])c([H])c2C1([H])[H]

$$$$
7:0:0
     RDKit          3D

 98107  0  0  1  0  0  0  0  0999 V2000
  -30.6020  -20.6160   20.2400 C   0  0  0  0  0  2  0  0  0  0  0  0
  -28.2110  -20.6690   20.9350 C   0  0  0  0  0  2  0  0  0  0  0  0
  -30.1930  -21.8800   19.3890 C   0  0  0  0  0  2  0  0  0  0  0  0
  -29.4570  -19.7300   20.8500 C   0  0  0  0  0  3  0  0  0  0  0  0
  -28.4950  -22.1800   21.1810 C   0  0  0  0  0  3  0  0  0  0  0  0
  -27.1780  -22.9060   21.5460 C   0  0  0  0  0  1  0  0  0  0  0  0
  -29.1400  -22.7860   19.9720 N   0  0  1  0  0  4  0  0  0  0  0  0
  -28.4340  -22.7480   19.2550 H   0  0  0  0  0  0  0  0  0  0  0  0
  -28.3920  -17.9170   17.9970 C   0  0  0  0  0  3  0  0  0  0  0  0
  -29.2420  -18.2830   20.2170 C   0  0  0  0  0  3  0  0  0  0  0  0
  -28.1160  -18.1330   19.3570 C   0  0  0  0  0  0  0  0  0  0  0  0
  -29.7250  -17.7750   17.5640 C   0  0  0  0  0  0  0  0  0  0  0  0
  -30.7430  -17.5520   18.5280 C   0  0  0  0  0  0  0  0  0  0  0  0
  -30.3610  -17.4250   19.8930 C   0  0  0  0  0  3  0  0  0  0  0  0
  -26.6580  -18.2690   19.8040 C   0  0  0  0  0  1  0  0  0  0  0  0
  -29.9860  -17.8180   16.0750 C   0  0  0  0  0  1  0  0  0  0  0  0
  -32.2000  -17.4540   18.1100 C   0  0  0  0  0  1  0  0  0  0  0  0
  -31.0590  -14.9140   20.0060 C   0  0  0  0  0  0  0  0  0  0  0  0
  -30.7680  -12.6720   18.9560 C   0  0  0  0  0  2  0  0  0  0  0  0
  -29.7990  -12.8010   17.7620 C   0  0  0  0  0  2  0  0  0  0  0  0
  -28.3320  -12.6980   18.2160 C   0  0  0  0  0  2  0  0  0  0  0  0
  -28.0220  -13.5640   19.4670 C   0  0  0  0  0  3  0  0  0  0  0  0
  -29.1040  -13.3950   20.5590 C   0  0  0  0  0  2  0  0  0  0  0  0
  -30.4020  -13.7110   19.9480 N   0  0  0  0  0  0  0  0  0  0  0  0
  -32.2290  -14.9940   19.6160 O   0  0  0  0  0  0  0  0  0  0  0  0
  -30.3320  -16.0270   20.3790 N   0  0  0  0  0  0  0  0  0  0  0  0
  -29.4990  -15.7970   20.8950 H   0  0  0  0  0  0  0  0  0  0  0  0
  -25.6670  -14.2160   20.2350 C   0  0  0  0  0  0  0  0  0  0  0  0
  -24.5870  -13.4730   20.6290 C   0  0  0  0  0  0  0  0  0  0  0  0
  -25.0080  -12.1110   20.5780 C   0  0  0  0  0  0  0  0  0  0  0  0
  -26.6790  -13.3080   19.9800 N   0  0  0  0  0  0  0  0  0  0  0  0
  -26.2920  -12.0360   20.2430 N   0  0  0  0  0  0  0  0  0  0  0  0
  -24.2500  -10.8690   20.7730 C   0  0  0  0  0  0  0  0  0  0  0  0
  -24.6680   -9.8820   21.6900 C   0  0  0  0  0  3  0  0  0  0  0  0
  -23.9050   -8.7080   21.8710 C   0  0  0  0  0  3  0  0  0  0  0  0
  -22.7140   -8.5120   21.1350 C   0  0  0  0  0  0  0  0  0  0  0  0
  -22.3150   -9.4900   20.2070 C   0  0  0  0  0  3  0  0  0  0  0  0
  -23.0780  -10.6550   20.0240 C   0  0  0  0  0  3  0  0  0  0  0  0
  -21.9210   -7.3950   21.2360 O   0  0  0  0  0  0  0  0  0  0  0  0
  -21.8670   -6.6520   22.3890 C   0  0  0  0  0  0  0  0  0  0  0  0
  -21.4810   -7.2150   23.6240 C   0  0  0  0  0  3  0  0  0  0  0  0
  -21.3690   -6.3980   24.7670 C   0  0  0  0  0  3  0  0  0  0  0  0
  -21.6360   -5.0190   24.6760 C   0  0  0  0  0  0  0  0  0  0  0  0
  -22.0120   -4.4540   23.4450 C   0  0  0  0  0  3  0  0  0  0  0  0
  -22.1250   -5.2670   22.3030 C   0  0  0  0  0  0  0  0  0  0  0  0
  -22.4700   -4.7150   21.1160 F   0  0  0  0  0  0  0  0  0  0  0  0
  -21.5190   -4.2330   25.7710 F   0  0  0  0  0  0  0  0  0  0  0  0
  -23.2130  -13.9930   20.9390 C   0  0  0  0  0  0  0  0  0  0  0  0
  -22.4890  -13.3310   21.8380 N   0  0  0  0  0  0  0  0  0  0  0  0
  -22.7870  -15.0190   20.4170 O   0  0  0  0  0  0  0  0  0  0  0  0
  -22.8430  -12.4990   22.2860 H   0  0  0  0  0  0  0  0  0  0  0  0
  -21.5590  -13.6540   22.0740 H   0  0  0  0  0  0  0  0  0  0  0  0
  -25.8730  -15.5730   20.0540 N   0  0  0  0  0  0  0  0  0  0  0  0
  -25.1300  -16.2490   20.1850 H   0  0  0  0  0  0  0  0  0  0  0  0
  -26.7380  -15.9880   19.7320 H   0  0  0  0  0  0  0  0  0  0  0  0
  -29.4580  -24.2770   20.0500 C   0  0  0  0  0  2  0  0  0  0  0  0
  -28.3150  -25.2300   19.5130 C   0  0  0  0  0  2  0  0  0  0  0  0
  -28.4690  -26.6810   19.6700 O   0  0  0  0  0  0  0  0  0  0  0  0
  -24.5420  -31.6750   23.0140 C   0  0  0  0  0  0  0  0  0  0  0  0
  -27.2990  -27.4470   19.6760 C   0  0  0  0  0  0  0  0  0  0  0  0
  -23.3660  -30.3160   21.3200 C   0  0  0  0  0  3  0  0  0  0  0  0
  -24.8610  -28.9170   19.7880 C   0  0  0  0  0  0  0  0  0  0  0  0
  -25.8770  -30.7730   21.1060 C   0  0  0  0  0  2  0  0  0  0  0  0
  -26.0100  -29.4390   20.3890 C   0  0  0  0  0  0  0  0  0  0  0  0
  -27.2320  -28.7130   20.3290 C   0  0  0  0  0  3  0  0  0  0  0  0
  -26.1140  -26.9700   19.0650 C   0  0  0  0  0  3  0  0  0  0  0  0
  -24.9090  -27.6850   19.1220 C   0  0  0  0  0  3  0  0  0  0  0  0
  -23.5840  -29.7180   19.9010 C   0  0  0  0  0  2  0  0  0  0  0  0
  -24.6130  -30.9340   21.8710 N   0  0  0  0  0  0  0  0  0  0  0  0
  -23.4630  -31.8710   23.5900 O   0  0  0  0  0  0  0  0  0  0  0  0
  -22.7700  -29.2220   22.2390 C   0  0  0  0  0  0  0  0  0  0  0  0
  -21.4510  -28.9970   22.1350 N   0  0  0  0  0  0  0  0  0  0  0  0
  -23.4950  -28.5730   22.9970 O   0  0  0  0  0  0  0  0  0  0  0  0
  -20.9300  -29.5650   21.4850 H   0  0  0  0  0  0  0  0  0  0  0  0
  -18.1380  -27.6460   22.6510 C   0  0  0  0  0  0  0  0  0  0  0  0
  -20.6940  -27.9820   22.8710 C   0  0  0  0  0  3  0  0  0  0  0  0
  -20.8360  -26.5920   22.2040 C   0  0  0  0  0  2  0  0  0  0  0  0
  -19.7120  -26.3020   21.1960 C   0  0  0  0  0  2  0  0  0  0  0  0
  -18.3470  -26.3470   21.8890 C   0  0  0  0  0  2  0  0  0  0  0  0
  -19.2410  -28.4200   23.0990 C   0  0  0  0  0  0  0  0  0  0  0  0
  -18.9940  -29.6360   23.7740 C   0  0  0  0  0  3  0  0  0  0  0  0
  -17.6820  -30.0800   24.0060 C   0  0  0  0  0  3  0  0  0  0  0  0
  -16.5930  -29.3010   23.5770 C   0  0  0  0  0  3  0  0  0  0  0  0
  -16.8210  -28.0860   22.9040 C   0  0  0  0  0  3  0  0  0  0  0  0
  -25.8120  -32.3290   23.6450 C   0  0  0  0  0  3  0  0  0  0  0  0
  -26.3790  -31.5230   24.8810 C   0  0  1  0  0  0  0  0  0  0  0  0
  -25.3160  -31.2050   25.9610 C   0  0  0  0  0  1  0  0  0  0  0  0
  -27.0010  -30.1830   24.4220 C   0  0  0  0  0  1  0  0  0  0  0  0
  -27.5120  -32.3310   25.5550 C   0  0  0  0  0  1  0  0  0  0  0  0
  -25.4580  -33.6970   24.0440 N   0  0  0  0  0  0  0  0  0  0  0  0
  -25.7580  -34.7960   23.3380 C   0  0  0  0  0  0  0  0  0  0  0  0
  -26.4390  -34.7660   22.3110 O   0  0  0  0  0  0  0  0  0  0  0  0
  -24.8490  -33.7880   24.8430 H   0  0  0  0  0  0  0  0  0  0  0  0
  -23.9740  -36.5480   23.0620 C   0  0  0  0  0  1  0  0  0  0  0  0
  -25.2240  -36.1460   23.8590 C   0  0  0  0  0  3  0  0  0  0  0  0
  -27.3230  -37.0600   24.7480 C   0  0  0  0  0  1  0  0  0  0  0  0
  -26.2240  -37.2360   23.8020 N   0  0  0  0  0  0  0  0  0  0  0  0
  -25.7880  -38.1350   23.9900 H   0  0  0  0  0  0  0  0  0  0  0  0
  2  5  1  0
  3  7  1  0
  3  1  1  0
  4  1  1  0
  4  2  1  0
  5  6  1  0
  7 56  1  0
  7  5  1  0
  7  8  1  6
  9 11  2  0
 10 11  1  0
 10  4  1  0
 11 15  1  0
 12  9  1  0
 12 13  2  0
 13 14  1  0
 14 10  1  0
 14 26  1  0
 16 12  1  0
 17 13  1  0
 18 26  1  0
 19 24  1  0
 20 21  1  0
 20 19  1  0
 22 21  1  0
 22 31  1  0
 22 23  1  0
 24 18  1  0
 24 23  1  0
 25 18  2  0
 26 27  1  0
 28 29  2  0
 29 48  1  0
 30 29  1  0
 30 33  1  0
 31 28  1  0
 31 32  1  0
 32 30  2  0
 33 34  1  0
 34 35  2  0
 36 39  1  0
 36 35  1  0
 37 36  2  0
 38 37  1  0
 38 33  2  0
 39 40  1  0
 40 41  1  0
 41 42  2  0
 43 42  1  0
 43 47  1  0
 44 43  2  0
 45 40  2  0
 45 44  1  0
 46 45  1  0
 48 49  1  0
 49 52  1  0
 49 51  1  0
 50 48  2  0
 53 54  1  0
 53 28  1  0
 55 53  1  0
 57 58  1  0
 57 56  1  0
 58 60  1  0
 59 70  2  0
 60 65  1  0
 61 69  1  0
 61 71  1  0
 62 68  1  0
 62 64  1  0
 63 69  1  0
 64 63  1  0
 65 64  2  0
 66 67  1  0
 66 60  2  0
 67 62  2  0
 68 61  1  0
 69 59  1  0
 71 73  2  0
 72 71  1  0
 74 72  1  0
 75 84  2  0
 75 80  1  0
 76 72  1  0
 76 80  1  0
 77 76  1  0
 78 79  1  0
 78 77  1  0
 79 75  1  0
 80 81  2  0
 81 82  1  0
 83 82  2  0
 84 83  1  0
 85 59  1  0
 85 90  1  0
 85 86  1  0
 86 89  1  1
 86 87  1  0
 88 86  1  0
 90 93  1  0
 91 95  1  0
 91 90  1  0
 92 91  2  0
 95 94  1  0
 97 95  1  0
 97 98  1  0
 97 96  1  0
M  ISO  4  18 100  26 100  57 101  58 101
M  END
>  <TORSDO>  (8) 
F 19

>  <SCORE>  (8) 
-12.885

>  <name>  (8) 
7

>  <ligand_id>  (8) 
7

>  <original_smiles>  (8) 
[H]c1c([H])c([H])c2c(c1[H])C([H])([H])C([H])([H])C([H])([H])C2([H])N([H])C(=O)C1([H])N(C(=O)C([H])(N([H])C(=O)C([H])(N([H])C([H])([H])[H])C([H])([H])[H])C(C([H])([H])[H])(C([H])([H])[H])C([H])([H])[H])C([H])([H])c2c([H])c(OC([H])([H])C([H])([H])[N+]3([H])C([H])([H])C([H])([H])C([H])(c4c(N([H])C(=O)N5C([H])([H])C([H])([H])C([H])([H])C([H])(n6nc(-c7c([H])c([H])c(Oc8c([H])c([H])c(F)c([H])c8F)c([H])c7[H])c(C(=O)N([H])[H])c6N([H])[H])C5([H])[H])c(C([H])([H])[H])c(C([H])([H])[H])c([H])c4C([H])([H])[H])C([H])([H])C3([H])C([H])([H])[H])c([H])c([H])c2C1([H])[H]

>  <smiles>  (8) 
[H]c1c([H])c([H])c2c(c1[H])C([H])([H])C([H])([H])C([H])([H])C2([H])N([H])C(=O)C1([H])N(C(=O)C([H])(N([H])C(=O)C([H])(N([H])C([H])([H])[H])C([H])([H])[H])C(C([H])([H])[H])(C([H])([H])[H])C([H])([H])[H])C([H])([H])c2c([H])c(OC([H])([H])C([H])([H])[N+]3([H])C([H])([H])C([H])([H])C([H])(c4c(N([H])C(=O)N5C([H])([H])C([H])([H])C([H])([H])C([H])(n6nc(-c7c([H])c([H])c(Oc8c([H])c([H])c(F)c([H])c8F)c([H])c7[H])c(C(=O)N([H])[H])c6N([H])[H])C5([H])[H])c(C([H])([H])[H])c(C([H])([H])[H])c([H])c4C([H])([H])[H])C([H])([H])C3([H])C([H])([H])[H])c([H])c([H])c2C1([H])[H]

$$$$
8:0:0
     RDKit          3D

 91100  0  0  1  0  0  0  0  0999 V2000
  -30.6460  -14.7680   20.4240 C   0  0  0  0  0  0  0  0  0  0  0  0
  -30.4200  -12.4690   19.4630 C   0  0  0  0  0  2  0  0  0  0  0  0
  -29.5220  -12.5220   18.2090 C   0  0  0  0  0  2  0  0  0  0  0  0
  -28.0380  -12.3850   18.6030 C   0  0  0  0  0  2  0  0  0  0  0  0
  -27.6450  -13.3100   19.7870 C   0  0  0  0  0  3  0  0  0  0  0  0
  -28.6710  -13.2460   20.9370 C   0  0  0  0  0  2  0  0  0  0  0  0
  -29.9840  -13.5600   20.3630 N   0  0  0  0  0  0  0  0  0  0  0  0
  -31.8540  -14.8090   20.1670 O   0  0  0  0  0  0  0  0  0  0  0  0
  -28.1250  -18.4910   20.3130 C   0  0  0  0  0  0  0  0  0  0  0  0
  -30.1670  -19.6570   20.4440 C   0  0  0  0  0  2  0  0  0  0  0  0
  -30.1000  -17.0440   19.4280 C   0  0  0  0  0  2  0  0  0  0  0  0
  -30.0170  -17.0450   21.4620 C   0  0  0  0  0  2  0  0  0  0  0  0
  -29.0290  -20.7130   20.0230 C   0  0  0  0  0  3  0  0  0  0  0  0
  -29.6260  -18.1580   20.4210 C   0  0  2  0  0  0  0  0  0  0  0  0
  -26.5250  -20.3000   19.7890 C   0  0  0  0  0  1  0  0  0  0  0  0
  -27.8640  -19.8120   20.1220 N   0  0  0  0  0  0  0  0  0  0  0  0
  -29.8990  -15.9500   20.4410 N   0  0  0  0  0  0  0  0  0  0  0  0
  -27.2590  -17.6140   20.3720 O   0  0  0  0  0  0  0  0  0  0  0  0
  -25.2420  -13.9400   20.4250 C   0  0  0  0  0  0  0  0  0  0  0  0
  -24.1550  -13.1870   20.7750 C   0  0  0  0  0  0  0  0  0  0  0  0
  -24.6050  -11.8310   20.7940 C   0  0  0  0  0  0  0  0  0  0  0  0
  -26.2860  -13.0470   20.2480 N   0  0  0  0  0  0  0  0  0  0  0  0
  -25.9060  -11.7730   20.5320 N   0  0  0  0  0  0  0  0  0  0  0  0
  -23.8570  -10.5840   20.9890 C   0  0  0  0  0  0  0  0  0  0  0  0
  -24.2660   -9.6150   21.9330 C   0  0  0  0  0  3  0  0  0  0  0  0
  -23.5170   -8.4320   22.1160 C   0  0  0  0  0  3  0  0  0  0  0  0
  -22.3430   -8.2120   21.3570 C   0  0  0  0  0  0  0  0  0  0  0  0
  -21.9510   -9.1680   20.4030 C   0  0  0  0  0  3  0  0  0  0  0  0
  -22.7010  -10.3420   20.2180 C   0  0  0  0  0  3  0  0  0  0  0  0
  -21.5650   -7.0820   21.4500 O   0  0  0  0  0  0  0  0  0  0  0  0
  -21.5220   -6.3320   22.5970 C   0  0  0  0  0  0  0  0  0  0  0  0
  -21.1600   -6.8940   23.8430 C   0  0  0  0  0  3  0  0  0  0  0  0
  -21.0620   -6.0710   24.9830 C   0  0  0  0  0  3  0  0  0  0  0  0
  -21.3140   -4.6900   24.8790 C   0  0  0  0  0  0  0  0  0  0  0  0
  -21.6680   -4.1300   23.6400 C   0  0  0  0  0  3  0  0  0  0  0  0
  -21.7680   -4.9480   22.5010 C   0  0  0  0  0  0  0  0  0  0  0  0
  -22.0900   -4.4000   21.3050 F   0  0  0  0  0  0  0  0  0  0  0  0
  -21.2120   -3.8980   25.9720 F   0  0  0  0  0  0  0  0  0  0  0  0
  -22.7570  -13.6880   20.9880 C   0  0  0  0  0  0  0  0  0  0  0  0
  -21.9980  -13.0310   21.8560 N   0  0  0  0  0  0  0  0  0  0  0  0
  -22.3460  -14.6990   20.4210 O   0  0  0  0  0  0  0  0  0  0  0  0
  -22.3440  -12.2150   22.3400 H   0  0  0  0  0  0  0  0  0  0  0  0
  -21.0570  -13.3480   22.0410 H   0  0  0  0  0  0  0  0  0  0  0  0
  -25.4140  -15.3030   20.2290 N   0  0  0  0  0  0  0  0  0  0  0  0
  -24.6410  -15.9500   20.3420 H   0  0  0  0  0  0  0  0  0  0  0  0
  -26.2960  -15.7940   20.0900 H   0  0  0  0  0  0  0  0  0  0  0  0
  -29.7360  -22.3120   21.9800 C   0  0  0  0  0  1  0  0  0  0  0  0
  -28.8260  -22.1890   20.7470 C   0  0  0  0  0  3  0  0  0  0  0  0
  -28.8390  -23.6040   19.9110 C   0  0  0  0  0  3  0  0  0  0  0  0
  -28.2350  -24.9810   20.5620 C   0  0  0  0  0  3  0  0  0  0  0  0
  -28.4160  -26.3730   19.9990 O   0  0  0  0  0  0  0  0  0  0  0  0
  -24.7070  -31.8280   23.1050 C   0  0  0  0  0  0  0  0  0  0  0  0
  -27.3190  -27.2660   20.0040 C   0  0  0  0  0  0  0  0  0  0  0  0
  -23.5040  -30.4320   21.4620 C   0  0  0  0  0  3  0  0  0  0  0  0
  -24.9550  -28.9000   20.0110 C   0  0  0  0  0  0  0  0  0  0  0  0
  -26.0440  -30.7600   21.2650 C   0  0  0  0  0  2  0  0  0  0  0  0
  -26.1290  -29.3830   20.6060 C   0  0  0  0  0  0  0  0  0  0  0  0
  -27.3160  -28.5780   20.5890 C   0  0  0  0  0  3  0  0  0  0  0  0
  -26.1280  -26.8550   19.3760 C   0  0  0  0  0  3  0  0  0  0  0  0
  -24.9610  -27.6460   19.3830 C   0  0  0  0  0  3  0  0  0  0  0  0
  -23.7150  -29.7720   20.0740 C   0  0  0  0  0  2  0  0  0  0  0  0
  -24.7710  -31.0250   21.9990 N   0  0  0  0  0  0  0  0  0  0  0  0
  -23.6240  -32.0900   23.6490 O   0  0  0  0  0  0  0  0  0  0  0  0
  -22.8550  -29.4030   22.4210 C   0  0  0  0  0  0  0  0  0  0  0  0
  -21.5250  -29.2380   22.3250 N   0  0  0  0  0  0  0  0  0  0  0  0
  -23.5480  -28.7610   23.2140 O   0  0  0  0  0  0  0  0  0  0  0  0
  -21.0200  -29.8090   21.6620 H   0  0  0  0  0  0  0  0  0  0  0  0
  -18.1540  -28.0520   22.8940 C   0  0  0  0  0  0  0  0  0  0  0  0
  -20.7210  -28.2900   23.1000 C   0  0  0  0  0  3  0  0  0  0  0  0
  -20.7980  -26.8690   22.4950 C   0  0  0  0  0  2  0  0  0  0  0  0
  -19.6660  -26.5720   21.5070 C   0  0  0  0  0  2  0  0  0  0  0  0
  -18.3020  -26.7160   22.1880 C   0  0  0  0  0  2  0  0  0  0  0  0
  -19.2890  -28.7990   23.3100 C   0  0  0  0  0  0  0  0  0  0  0  0
  -19.0950  -30.0510   23.9340 C   0  0  0  0  0  3  0  0  0  0  0  0
  -17.7980  -30.5560   24.1450 C   0  0  0  0  0  3  0  0  0  0  0  0
  -16.6790  -29.8060   23.7460 C   0  0  0  0  0  3  0  0  0  0  0  0
  -16.8570  -28.5560   23.1260 C   0  0  0  0  0  3  0  0  0  0  0  0
  -25.9890  -32.4690   23.7210 C   0  0  0  0  0  3  0  0  0  0  0  0
  -25.6560  -33.8480   24.1060 N   0  0  0  0  0  0  0  0  0  0  0  0
  -25.9470  -34.9350   23.3790 C   0  0  0  0  0  0  0  0  0  0  0  0
  -26.5940  -34.8830   22.3290 O   0  0  0  0  0  0  0  0  0  0  0  0
  -25.0820  -33.9620   24.9290 H   0  0  0  0  0  0  0  0  0  0  0  0
  -24.1720  -36.7010   23.1350 C   0  0  0  0  0  1  0  0  0  0  0  0
  -25.4430  -36.2950   23.8980 C   0  0  0  0  0  3  0  0  0  0  0  0
  -27.5800  -37.1990   24.7020 C   0  0  0  0  0  1  0  0  0  0  0  0
  -26.4480  -37.3760   23.7950 N   0  0  0  0  0  0  0  0  0  0  0  0
  -26.0250  -38.2790   23.9910 H   0  0  0  0  0  0  0  0  0  0  0  0
  -26.5490  -31.6690   24.9610 C   0  0  1  0  0  0  0  0  0  0  0  0
  -25.4860  -31.3810   26.0470 C   0  0  0  0  0  1  0  0  0  0  0  0
  -27.1480  -30.3160   24.5160 C   0  0  0  0  0  1  0  0  0  0  0  0
  -27.7000  -32.4650   25.6220 C   0  0  0  0  0  1  0  0  0  0  0  0
  1 17  1  0
  2  7  1  0
  3  4  1  0
  3  2  1  0
  5  4  1  0
  5 22  1  0
  5  6  1  0
  7  1  1  0
  7  6  1  0
  8  1  2  0
  9 18  2  0
  9 14  1  0
 11 17  1  0
 13 16  1  0
 13 10  1  0
 13 48  1  0
 14 11  1  6
 14 10  1  0
 14 12  1  0
 15 16  1  0
 16  9  1  0
 17 12  1  0
 19 20  2  0
 20 21  1  0
 20 39  1  0
 21 24  1  0
 22 19  1  0
 22 23  1  0
 23 21  2  0
 24 25  1  0
 25 26  2  0
 27 30  1  0
 27 26  1  0
 28 27  2  0
 29 28  1  0
 29 24  2  0
 30 31  1  0
 31 32  1  0
 32 33  2  0
 34 33  1  0
 34 38  1  0
 35 34  2  0
 36 31  2  0
 36 35  1  0
 37 36  1  0
 39 40  1  0
 40 43  1  0
 40 42  1  0
 41 39  2  0
 44 45  1  0
 44 19  1  0
 46 44  1  0
 48 47  1  0
 49 50  2  0
 49 48  1  0
 51 53  1  0
 51 50  1  0
 52 63  2  0
 53 58  1  0
 54 62  1  0
 54 64  1  0
 55 61  1  0
 55 57  1  0
 56 62  1  0
 57 56  1  0
 58 57  2  0
 59 60  1  0
 59 53  2  0
 60 55  2  0
 61 54  1  0
 62 52  1  0
 64 66  2  0
 65 64  1  0
 67 65  1  0
 68 77  2  0
 68 73  1  0
 69 65  1  0
 69 73  1  0
 70 69  1  0
 71 72  1  0
 71 70  1  0
 72 68  1  0
 73 74  2  0
 74 75  1  0
 76 75  2  0
 77 76  1  0
 78 52  1  0
 78 79  1  0
 78 88  1  0
 79 82  1  0
 80 84  1  0
 80 79  1  0
 81 80  2  0
 84 83  1  0
 86 84  1  0
 86 87  1  0
 86 85  1  0
 88 91  1  1
 88 89  1  0
 90 88  1  0
M  ISO  4   1 100  17 100  50 101  51 101
M  END
>  <TORSDO>  (9) 
F 18

>  <SCORE>  (9) 
-13.937

>  <name>  (9) 
8

>  <ligand_id>  (9) 
8

>  <original_smiles>  (9) 
[H]c1c([H])c([H])c2c(c1[H])C([H])([H])C([H])([H])C([H])([H])C2([H])N([H])C(=O)C1([H])N(C(=O)C([H])(N([H])C(=O)C([H])(N([H])C([H])([H])[H])C([H])([H])[H])C(C([H])([H])[H])(C([H])([H])[H])C([H])([H])[H])C([H])([H])c2c([H])c(OC([H])([H])C([H])([H])C([H])(C([H])([H])[H])C3([H])N(C([H])([H])[H])C(=O)C4(C([H])([H])N(C(=O)N5C([H])([H])C([H])([H])C([H])([H])C([H])(n6nc(-c7c([H])c([H])c(Oc8c([H])c([H])c(F)c([H])c8F)c([H])c7[H])c(C(=O)N([H])[H])c6N([H])[H])C5([H])[H])C4([H])[H])C3([H])[H])c([H])c([H])c2C1([H])[H]

>  <smiles>  (9) 
[H]c1c([H])c([H])c2c(c1[H])C([H])([H])C([H])([H])C([H])([H])C2([H])N([H])C(=O)C1([H])N(C(=O)C([H])(N([H])C(=O)C([H])(N([H])C([H])([H])[H])C([H])([H])[H])C(C([H])([H])[H])(C([H])([H])[H])C([H])([H])[H])C([H])([H])c2c([H])c(OC([H])([H])C([H])([H])C([H])(C([H])([H])[H])C3([H])N(C([H])([H])[H])C(=O)C4(C([H])([H])N(C(=O)N5C([H])([H])C([H])([H])C([H])([H])C([H])(n6nc(-c7c([H])c([H])c(Oc8c([H])c([H])c(F)c([H])c8F)c([H])c7[H])c(C(=O)N([H])[H])c6N([H])[H])C5([H])[H])C4([H])[H])C3([H])[H])c([H])c([H])c2C1([H])[H]

$$$$
9:0:0
     RDKit          3D

 99109  0  0  1  0  0  0  0  0999 V2000
  -31.1300  -22.5220   19.3060 C   0  0  0  0  0  2  0  0  0  0  0  0
  -30.7230  -22.7660   21.7680 C   0  0  0  0  0  2  0  0  0  0  0  0
  -31.2780  -24.0480   19.2040 C   0  0  0  0  0  2  0  0  0  0  0  0
  -30.8910  -24.2910   21.6140 C   0  0  0  0  0  2  0  0  0  0  0  0
  -31.5220  -21.9850   20.6970 C   0  0  0  0  0  3  0  0  0  0  0  0
  -30.4900  -24.7440   20.2540 N   0  0  1  0  0  4  0  0  0  0  0  0
  -29.5260  -24.4740   20.1120 H   0  0  0  0  0  0  0  0  0  0  0  0
  -30.0770  -19.8820   20.9430 C   0  0  0  0  0  3  0  0  0  0  0  0
  -32.2650  -18.2150   20.2400 C   0  0  0  0  0  3  0  0  0  0  0  0
  -29.9120  -18.5040   20.7560 C   0  0  0  0  0  0  0  0  0  0  0  0
  -31.3530  -20.4580   20.7260 C   0  0  0  0  0  0  0  0  0  0  0  0
  -30.9700  -17.6900   20.3770 C   0  0  0  0  0  0  0  0  0  0  0  0
  -32.4630  -19.6150   20.4130 C   0  0  0  0  0  0  0  0  0  0  0  0
  -28.6140  -17.7540   20.7990 C   0  0  0  0  0  2  0  0  0  0  0  0
  -28.9420  -16.4410   20.0630 C   0  0  0  0  0  2  0  0  0  0  0  0
  -30.4830  -16.3220   19.9530 C   0  0  0  0  0  3  0  0  0  0  0  0
  -31.5410  -14.1290   20.0800 C   0  0  0  0  0  0  0  0  0  0  0  0
  -31.1080  -11.8920   19.1440 C   0  0  0  0  0  2  0  0  0  0  0  0
  -30.1710  -12.0430   17.9260 C   0  0  0  0  0  2  0  0  0  0  0  0
  -28.6930  -12.0500   18.3620 C   0  0  0  0  0  2  0  0  0  0  0  0
  -28.4200  -13.0300   19.5310 C   0  0  0  0  0  3  0  0  0  0  0  0
  -29.4600  -12.8280   20.6610 C   0  0  0  0  0  2  0  0  0  0  0  0
  -30.8140  -12.9790   20.0900 N   0  0  0  0  0  0  0  0  0  0  0  0
  -32.5940  -14.2680   19.4500 O   0  0  0  0  0  0  0  0  0  0  0  0
  -30.9560  -15.1590   20.7010 N   0  0  0  0  0  0  0  0  0  0  0  0
  -30.3020  -14.8630   21.4090 H   0  0  0  0  0  0  0  0  0  0  0  0
  -26.0920  -13.8850   20.2460 C   0  0  0  0  0  0  0  0  0  0  0  0
  -24.9610  -13.2300   20.6490 C   0  0  0  0  0  0  0  0  0  0  0  0
  -25.2870  -11.8400   20.6320 C   0  0  0  0  0  0  0  0  0  0  0  0
  -27.0480  -12.9040   20.0240 N   0  0  0  0  0  0  0  0  0  0  0  0
  -26.5630  -11.6690   20.3070 N   0  0  0  0  0  0  0  0  0  0  0  0
  -24.4430  -10.6590   20.8510 C   0  0  0  0  0  0  0  0  0  0  0  0
  -24.7840   -9.6750   21.8040 C   0  0  0  0  0  3  0  0  0  0  0  0
  -23.9460   -8.5580   22.0100 C   0  0  0  0  0  3  0  0  0  0  0  0
  -22.7520   -8.4200   21.2630 C   0  0  0  0  0  0  0  0  0  0  0  0
  -22.4290   -9.3910   20.2990 C   0  0  0  0  0  3  0  0  0  0  0  0
  -23.2670  -10.5000   20.0920 C   0  0  0  0  0  3  0  0  0  0  0  0
  -21.8900   -7.3560   21.3770 O   0  0  0  0  0  0  0  0  0  0  0  0
  -21.7680   -6.6520   22.5480 C   0  0  0  0  0  0  0  0  0  0  0  0
  -21.3860   -7.2760   23.7560 C   0  0  0  0  0  3  0  0  0  0  0  0
  -21.2050   -6.5030   24.9210 C   0  0  0  0  0  3  0  0  0  0  0  0
  -21.3950   -5.1100   24.8780 C   0  0  0  0  0  0  0  0  0  0  0  0
  -21.7700   -4.4850   23.6750 C   0  0  0  0  0  3  0  0  0  0  0  0
  -21.9530   -5.2550   22.5120 C   0  0  0  0  0  0  0  0  0  0  0  0
  -22.2940   -4.6460   21.3510 F   0  0  0  0  0  0  0  0  0  0  0  0
  -21.2130   -4.3650   25.9940 F   0  0  0  0  0  0  0  0  0  0  0  0
  -23.6230  -13.8490   20.9370 C   0  0  0  0  0  0  0  0  0  0  0  0
  -22.8580  -13.2570   21.8480 N   0  0  0  0  0  0  0  0  0  0  0  0
  -23.2690  -14.8920   20.3910 O   0  0  0  0  0  0  0  0  0  0  0  0
  -23.1580  -12.4120   22.3130 H   0  0  0  0  0  0  0  0  0  0  0  0
  -21.9600  -13.6540   22.0860 H   0  0  0  0  0  0  0  0  0  0  0  0
  -26.3740  -15.2280   20.0280 N   0  0  0  0  0  0  0  0  0  0  0  0
  -25.6630  -15.9460   20.1200 H   0  0  0  0  0  0  0  0  0  0  0  0
  -27.2380  -15.5720   19.6350 H   0  0  0  0  0  0  0  0  0  0  0  0
  -34.8040  -19.4140   19.8910 C   0  0  0  0  0  1  0  0  0  0  0  0
  -33.6870  -20.2250   20.2300 O   0  0  0  0  0  0  0  0  0  0  0  0
  -30.5100  -26.2220   20.0850 C   0  0  0  0  0  2  0  0  0  0  0  0
  -29.3110  -26.9190   20.7540 C   0  0  0  0  0  2  0  0  0  0  0  0
  -28.1180  -26.5090   20.0870 O   0  0  0  0  0  0  0  0  0  0  0  0
  -24.4520  -31.8280   23.1930 C   0  0  0  0  0  0  0  0  0  0  0  0
  -26.9960  -27.3100   20.1640 C   0  0  0  0  0  0  0  0  0  0  0  0
  -23.2000  -30.4360   21.5710 C   0  0  0  0  0  3  0  0  0  0  0  0
  -24.6120  -28.8390   20.1670 C   0  0  0  0  0  0  0  0  0  0  0  0
  -25.7270  -30.7360   21.3560 C   0  0  0  0  0  2  0  0  0  0  0  0
  -25.7780  -29.3530   20.7480 C   0  0  0  0  0  0  0  0  0  0  0  0
  -26.9660  -28.5950   20.7590 C   0  0  0  0  0  3  0  0  0  0  0  0
  -25.8100  -26.8030   19.5890 C   0  0  0  0  0  3  0  0  0  0  0  0
  -24.6200  -27.5570   19.5910 C   0  0  0  0  0  3  0  0  0  0  0  0
  -23.3870  -29.7250   20.2020 C   0  0  0  0  0  2  0  0  0  0  0  0
  -24.4780  -31.0150   22.0990 N   0  0  0  0  0  0  0  0  0  0  0  0
  -23.3820  -32.1360   23.7340 O   0  0  0  0  0  0  0  0  0  0  0  0
  -22.5260  -29.4470   22.5480 C   0  0  0  0  0  0  0  0  0  0  0  0
  -21.1960  -29.3060   22.4320 N   0  0  0  0  0  0  0  0  0  0  0  0
  -23.1970  -28.8100   23.3650 O   0  0  0  0  0  0  0  0  0  0  0  0
  -20.7200  -29.8700   21.7420 H   0  0  0  0  0  0  0  0  0  0  0  0
  -17.7880  -28.2410   22.9700 C   0  0  0  0  0  0  0  0  0  0  0  0
  -20.3550  -28.4050   23.2170 C   0  0  0  0  0  3  0  0  0  0  0  0
  -20.3990  -26.9670   22.6480 C   0  0  0  0  0  2  0  0  0  0  0  0
  -19.2770  -26.6790   21.6460 C   0  0  0  0  0  2  0  0  0  0  0  0
  -17.9070  -26.8810   22.3030 C   0  0  0  0  0  2  0  0  0  0  0  0
  -18.9380  -28.9630   23.3850 C   0  0  0  0  0  0  0  0  0  0  0  0
  -18.7730  -30.2380   23.9660 C   0  0  0  0  0  3  0  0  0  0  0  0
  -17.4910  -30.7910   24.1400 C   0  0  0  0  0  3  0  0  0  0  0  0
  -16.3540  -30.0640   23.7420 C   0  0  0  0  0  3  0  0  0  0  0  0
  -16.5030  -28.7920   23.1630 C   0  0  0  0  0  3  0  0  0  0  0  0
  -25.7600  -32.4290   23.7990 C   0  0  0  0  0  3  0  0  0  0  0  0
  -26.2870  -31.6320   25.0550 C   0  0  1  0  0  0  0  0  0  0  0  0
  -25.2070  -31.3890   26.1340 C   0  0  0  0  0  1  0  0  0  0  0  0
  -26.8490  -30.2540   24.6290 C   0  0  0  0  0  1  0  0  0  0  0  0
  -27.4550  -32.4020   25.7130 C   0  0  0  0  0  1  0  0  0  0  0  0
  -25.4840  -33.8280   24.1480 N   0  0  0  0  0  0  0  0  0  0  0  0
  -25.8560  -34.8820   23.4090 C   0  0  0  0  0  0  0  0  0  0  0  0
  -26.5400  -34.7770   22.3870 O   0  0  0  0  0  0  0  0  0  0  0  0
  -24.8810  -33.9860   24.9420 H   0  0  0  0  0  0  0  0  0  0  0  0
  -24.1800  -36.7220   23.0530 C   0  0  0  0  0  1  0  0  0  0  0  0
  -25.3960  -36.2750   23.8790 C   0  0  0  0  0  3  0  0  0  0  0  0
  -27.5380  -37.0910   24.7580 C   0  0  0  0  0  1  0  0  0  0  0  0
  -26.4580  -37.3030   23.8000 N   0  0  0  0  0  0  0  0  0  0  0  0
  -26.0720  -38.2300   23.9550 H   0  0  0  0  0  0  0  0  0  0  0  0
  1  5  1  0
  3  1  1  0
  3  6  1  0
  4  2  1  0
  5 11  1  0
  5  2  1  0
  6  4  1  0
  6  7  1  6
  9 12  1  0
  9 13  2  0
 10 14  1  0
 10  8  1  0
 11  8  2  0
 12 10  2  0
 13 11  1  0
 15 14  1  0
 16 15  1  0
 16 12  1  0
 16 25  1  0
 17 23  1  0
 17 25  1  0
 18 23  1  0
 19 20  1  0
 19 18  1  0
 21 20  1  0
 21 30  1  0
 21 22  1  0
 23 22  1  0
 24 17  2  0
 25 26  1  0
 27 28  2  0
 28 47  1  0
 29 28  1  0
 29 32  1  0
 30 27  1  0
 30 31  1  0
 31 29  2  0
 32 33  1  0
 33 34  2  0
 35 38  1  0
 35 34  1  0
 36 35  2  0
 37 36  1  0
 37 32  2  0
 38 39  1  0
 39 40  1  0
 40 41  2  0
 42 41  1  0
 42 46  1  0
 43 42  2  0
 44 39  2  0
 44 43  1  0
 45 44  1  0
 47 48  1  0
 48 51  1  0
 48 50  1  0
 49 47  2  0
 52 53  1  0
 52 27  1  0
 54 52  1  0
 55 56  1  0
 56 13  1  0
 57  6  1  0
 57 58  1  0
 59 61  1  0
 59 58  1  0
 60 71  2  0
 61 66  1  0
 62 70  1  0
 62 72  1  0
 63 69  1  0
 63 65  1  0
 64 70  1  0
 65 66  2  0
 65 64  1  0
 67 68  1  0
 67 61  2  0
 68 63  2  0
 69 62  1  0
 70 60  1  0
 72 74  2  0
 73 72  1  0
 75 73  1  0
 76 85  2  0
 76 81  1  0
 77 73  1  0
 77 81  1  0
 78 77  1  0
 79 80  1  0
 79 78  1  0
 80 76  1  0
 81 82  2  0
 82 83  1  0
 84 83  2  0
 85 84  1  0
 86 60  1  0
 86 91  1  0
 86 87  1  0
 87 90  1  1
 87 88  1  0
 89 87  1  0
 91 94  1  0
 92 96  1  0
 92 91  1  0
 93 92  2  0
 96 95  1  0
 98 96  1  0
 98 99  1  0
 98 97  1  0
M  ISO  4  17 100  25 100  58 101  59 101
M  END
>  <TORSDO>  (10) 
F 20

>  <SCORE>  (10) 
-13.480

>  <name>  (10) 
9

>  <ligand_id>  (10) 
9

>  <original_smiles>  (10) 
[H]c1c([H])c([H])c2c(c1[H])C([H])([H])C([H])([H])C([H])([H])C2([H])N([H])C(=O)C1([H])N(C(=O)C([H])(N([H])C(=O)C([H])(N([H])C([H])([H])[H])C([H])([H])[H])C(C([H])([H])[H])(C([H])([H])[H])C([H])([H])[H])C([H])([H])c2c([H])c(OC([H])([H])C([H])([H])[N+]3([H])C([H])([H])C([H])([H])C([H])(c4c([H])c5c(c([H])c4OC([H])([H])[H])C([H])(N([H])C(=O)N4C([H])([H])C([H])([H])C([H])([H])C([H])(n6nc(-c7c([H])c([H])c(Oc8c([H])c([H])c(F)c([H])c8F)c([H])c7[H])c(C(=O)N([H])[H])c6N([H])[H])C4([H])[H])C([H])([H])C5([H])[H])C([H])([H])C3([H])[H])c([H])c([H])c2C1([H])[H]

>  <smiles>  (10) 
[H]c1c([H])c([H])c2c(c1[H])C([H])([H])C([H])([H])C([H])([H])C2([H])N([H])C(=O)C1([H])N(C(=O)C([H])(N([H])C(=O)C([H])(N([H])C([H])([H])[H])C([H])([H])[H])C(C([H])([H])[H])(C([H])([H])[H])C([H])([H])[H])C([H])([H])c2c([H])c(OC([H])([H])C([H])([H])[N+]3([H])C([H])([H])C([H])([H])C([H])(c4c([H])c5c(c([H])c4OC([H])([H])[H])C([H])(N([H])C(=O)N4C([H])([H])C([H])([H])C([H])([H])C([H])(n6nc(-c7c([H])c([H])c(Oc8c([H])c([H])c(F)c([H])c8F)c([H])c7[H])c(C(=O)N([H])[H])c6N([H])[H])C4([H])[H])C([H])([H])C5([H])[H])C([H])([H])C3([H])[H])c([H])c([H])c2C1([H])[H]

$$$$
10:0:0
     RDKit          3D

 97106  0  0  1  0  0  0  0  0999 V2000
  -30.1340  -21.4040   21.7070 C   0  0  0  0  0  2  0  0  0  0  0  0
  -29.7820  -20.7800   19.3180 C   0  0  0  0  0  2  0  0  0  0  0  0
  -29.3390  -22.7130   21.4540 C   0  0  0  0  0  2  0  0  0  0  0  0
  -28.9860  -22.0710   19.1050 C   0  0  0  0  0  2  0  0  0  0  0  0
  -29.6560  -20.2760   20.7670 C   0  0  0  0  0  3  0  0  0  0  0  0
  -29.4250  -23.1490   20.0290 N   0  0  1  0  0  4  0  0  0  0  0  0
  -30.4040  -23.3060   19.8290 H   0  0  0  0  0  0  0  0  0  0  0  0
  -31.7810  -17.1940   20.9000 C   0  0  0  0  0  3  0  0  0  0  0  0
  -31.6680  -18.6090   20.9120 C   0  0  0  0  0  0  0  0  0  0  0  0
  -30.3260  -18.9180   20.9220 C   0  0  0  0  0  0  0  0  0  0  0  0
  -30.5200  -16.6700   20.8670 C   0  0  0  0  0  0  0  0  0  0  0  0
  -32.8450  -19.5510   20.8560 C   0  0  0  0  0  1  0  0  0  0  0  0
  -29.5950  -17.7140   20.9870 N   0  0  0  0  0  0  0  0  0  0  0  0
  -30.7380  -14.4250   19.8940 C   0  0  0  0  0  0  0  0  0  0  0  0
  -30.2490  -12.4340   18.5210 C   0  0  0  0  0  2  0  0  0  0  0  0
  -29.2040  -12.7930   17.4460 C   0  0  0  0  0  2  0  0  0  0  0  0
  -27.7740  -12.6380   17.9960 C   0  0  0  0  0  2  0  0  0  0  0  0
  -27.5810  -13.3270   19.3750 C   0  0  0  0  0  3  0  0  0  0  0  0
  -28.7290  -12.9460   20.3390 C   0  0  0  0  0  2  0  0  0  0  0  0
  -30.0050  -13.2950   19.6920 N   0  0  0  0  0  0  0  0  0  0  0  0
  -31.7910  -14.6260   19.2840 O   0  0  0  0  0  0  0  0  0  0  0  0
  -30.1970  -15.3430   20.7300 N   0  0  0  0  0  0  0  0  0  0  0  0
  -29.3360  -15.0550   21.1670 H   0  0  0  0  0  0  0  0  0  0  0  0
  -25.2270  -13.8770   20.2630 C   0  0  0  0  0  0  0  0  0  0  0  0
  -24.2020  -13.0830   20.6960 C   0  0  0  0  0  0  0  0  0  0  0  0
  -24.6770  -11.7410   20.5910 C   0  0  0  0  0  0  0  0  0  0  0  0
  -26.2690  -13.0220   19.9410 N   0  0  0  0  0  0  0  0  0  0  0  0
  -25.9410  -11.7270   20.1900 N   0  0  0  0  0  0  0  0  0  0  0  0
  -23.9800  -10.4660   20.7960 C   0  0  0  0  0  0  0  0  0  0  0  0
  -24.4480   -9.5080   21.7220 C   0  0  0  0  0  3  0  0  0  0  0  0
  -23.7510   -8.2970   21.9130 C   0  0  0  0  0  3  0  0  0  0  0  0
  -22.5690   -8.0350   21.1790 C   0  0  0  0  0  0  0  0  0  0  0  0
  -22.1190   -8.9830   20.2410 C   0  0  0  0  0  3  0  0  0  0  0  0
  -22.8190  -10.1860   20.0490 C   0  0  0  0  0  3  0  0  0  0  0  0
  -21.8370   -6.8770   21.2830 O   0  0  0  0  0  0  0  0  0  0  0  0
  -21.7560   -6.1810   22.4620 C   0  0  0  0  0  0  0  0  0  0  0  0
  -21.3140   -6.7880   23.6580 C   0  0  0  0  0  3  0  0  0  0  0  0
  -21.1810   -6.0180   24.8300 C   0  0  0  0  0  3  0  0  0  0  0  0
  -21.4770   -4.6430   24.8070 C   0  0  0  0  0  0  0  0  0  0  0  0
  -21.9100   -4.0360   23.6170 C   0  0  0  0  0  3  0  0  0  0  0  0
  -22.0480   -4.8020   22.4470 C   0  0  0  0  0  0  0  0  0  0  0  0
  -22.4460   -4.2080   21.2970 F   0  0  0  0  0  0  0  0  0  0  0  0
  -21.3410   -3.9010   25.9310 F   0  0  0  0  0  0  0  0  0  0  0  0
  -22.8250  -13.5360   21.0880 C   0  0  0  0  0  0  0  0  0  0  0  0
  -22.1820  -12.8200   22.0040 N   0  0  0  0  0  0  0  0  0  0  0  0
  -22.3290  -14.5590   20.6180 O   0  0  0  0  0  0  0  0  0  0  0  0
  -22.5950  -11.9920   22.4050 H   0  0  0  0  0  0  0  0  0  0  0  0
  -21.2620  -13.1050   22.3090 H   0  0  0  0  0  0  0  0  0  0  0  0
  -25.3450  -15.2480   20.0940 N   0  0  0  0  0  0  0  0  0  0  0  0
  -24.5640  -15.8730   20.2610 H   0  0  0  0  0  0  0  0  0  0  0  0
  -26.1400  -15.7090   19.6730 H   0  0  0  0  0  0  0  0  0  0  0  0
  -27.5630  -16.2320   21.3920 C   0  0  0  0  0  1  0  0  0  0  0  0
  -27.4300  -18.2490   19.8650 C   0  0  0  0  0  1  0  0  0  0  0  0
  -28.1240  -17.6310   21.0890 C   0  0  0  0  0  3  0  0  0  0  0  0
  -28.7210  -24.4240   19.7090 C   0  0  0  0  0  2  0  0  0  0  0  0
  -29.3500  -25.6930   20.3240 C   0  0  0  0  0  2  0  0  0  0  0  0
  -29.0640  -26.8560   19.5460 O   0  0  0  0  0  0  0  0  0  0  0  0
  -24.7290  -31.3300   22.9990 C   0  0  0  0  0  0  0  0  0  0  0  0
  -27.8090  -27.4020   19.6650 C   0  0  0  0  0  0  0  0  0  0  0  0
  -23.6700  -29.9340   21.2510 C   0  0  0  0  0  3  0  0  0  0  0  0
  -25.2740  -28.6420   19.7490 C   0  0  0  0  0  0  0  0  0  0  0  0
  -26.1450  -30.5540   21.1040 C   0  0  0  0  0  2  0  0  0  0  0  0
  -26.3670  -29.2400   20.3830 C   0  0  0  0  0  0  0  0  0  0  0  0
  -27.6380  -28.6280   20.3410 C   0  0  0  0  0  3  0  0  0  0  0  0
  -26.7010  -26.8050   19.0270 C   0  0  0  0  0  3  0  0  0  0  0  0
  -25.4330  -27.4190   19.0710 C   0  0  0  0  0  3  0  0  0  0  0  0
  -23.9500  -29.3710   19.8320 C   0  0  0  0  0  2  0  0  0  0  0  0
  -24.8650  -30.6190   21.8440 N   0  0  0  0  0  0  0  0  0  0  0  0
  -23.6250  -31.4610   23.5470 O   0  0  0  0  0  0  0  0  0  0  0  0
  -23.1160  -28.7930   22.1330 C   0  0  0  0  0  0  0  0  0  0  0  0
  -21.8160  -28.4970   21.9800 N   0  0  0  0  0  0  0  0  0  0  0  0
  -23.8520  -28.1780   22.9090 O   0  0  0  0  0  0  0  0  0  0  0  0
  -21.2810  -29.0470   21.3230 H   0  0  0  0  0  0  0  0  0  0  0  0
  -18.5600  -26.9850   22.3720 C   0  0  0  0  0  0  0  0  0  0  0  0
  -21.0860  -27.4370   22.6740 C   0  0  0  0  0  3  0  0  0  0  0  0
  -21.3120  -26.0700   21.9880 C   0  0  0  0  0  2  0  0  0  0  0  0
  -20.2380  -25.7330   20.9490 C   0  0  0  0  0  2  0  0  0  0  0  0
  -18.8500  -25.7100   21.5960 C   0  0  0  0  0  2  0  0  0  0  0  0
  -19.6110  -27.8040   22.8630 C   0  0  0  0  0  0  0  0  0  0  0  0
  -19.2880  -28.9960   23.5480 C   0  0  0  0  0  3  0  0  0  0  0  0
  -17.9470  -29.3730   23.7460 C   0  0  0  0  0  3  0  0  0  0  0  0
  -16.9100  -28.5480   23.2730 C   0  0  0  0  0  3  0  0  0  0  0  0
  -17.2170  -27.3570   22.5920 C   0  0  0  0  0  3  0  0  0  0  0  0
  -25.9500  -32.0330   23.6730 C   0  0  0  0  0  3  0  0  0  0  0  0
  -26.5110  -31.2470   24.9210 C   0  0  1  0  0  0  0  0  0  0  0  0
  -25.4240  -30.8660   25.9530 C   0  0  0  0  0  1  0  0  0  0  0  0
  -27.2160  -29.9460   24.4700 C   0  0  0  0  0  1  0  0  0  0  0  0
  -27.5770  -32.1020   25.6460 C   0  0  0  0  0  1  0  0  0  0  0  0
  -25.5240  -33.3840   24.0620 N   0  0  0  0  0  0  0  0  0  0  0  0
  -25.7670  -34.4920   23.3490 C   0  0  0  0  0  0  0  0  0  0  0  0
  -26.4460  -34.4890   22.3180 O   0  0  0  0  0  0  0  0  0  0  0  0
  -24.9180  -33.4510   24.8650 H   0  0  0  0  0  0  0  0  0  0  0  0
  -23.8830  -36.1310   23.0600 C   0  0  0  0  0  1  0  0  0  0  0  0
  -25.1570  -35.8110   23.8570 C   0  0  0  0  0  3  0  0  0  0  0  0
  -27.2040  -36.8540   24.7240 C   0  0  0  0  0  1  0  0  0  0  0  0
  -26.0910  -36.9560   23.7840 N   0  0  0  0  0  0  0  0  0  0  0  0
  -25.6020  -37.8290   23.9670 H   0  0  0  0  0  0  0  0  0  0  0  0
  2  5  1  0
  3  1  1  0
  4  2  1  0
  4  6  1  0
  5 10  1  0
  5  1  1  0
  6  3  1  0
  6  7  1  6
  8  9  1  0
  9 10  2  0
 10 13  1  0
 11  8  2  0
 11 13  1  0
 12  9  1  0
 13 54  1  0
 14 22  1  0
 15 20  1  0
 16 17  1  0
 16 15  1  0
 18 17  1  0
 18 27  1  0
 18 19  1  0
 20 14  1  0
 20 19  1  0
 21 14  2  0
 22 11  1  0
 22 23  1  0
 24 25  2  0
 25 44  1  0
 26 25  1  0
 26 29  1  0
 27 28  1  0
 27 24  1  0
 28 26  2  0
 29 30  1  0
 30 31  2  0
 32 35  1  0
 32 31  1  0
 33 32  2  0
 34 33  1  0
 34 29  2  0
 35 36  1  0
 36 37  1  0
 37 38  2  0
 39 38  1  0
 39 43  1  0
 40 39  2  0
 41 36  2  0
 41 40  1  0
 42 41  1  0
 44 45  1  0
 45 48  1  0
 45 47  1  0
 46 44  2  0
 49 50  1  0
 49 24  1  0
 51 49  1  0
 53 54  1  0
 54 52  1  0
 55  6  1  0
 55 56  1  0
 57 59  1  0
 57 56  1  0
 58 69  2  0
 59 64  1  0
 60 68  1  0
 60 70  1  0
 61 67  1  0
 61 63  1  0
 62 68  1  0
 63 62  1  0
 64 63  2  0
 65 66  1  0
 65 59  2  0
 66 61  2  0
 67 60  1  0
 68 58  1  0
 70 72  2  0
 71 70  1  0
 73 71  1  0
 74 83  2  0
 74 79  1  0
 75 71  1  0
 75 79  1  0
 76 75  1  0
 77 78  1  0
 77 76  1  0
 78 74  1  0
 79 80  2  0
 80 81  1  0
 82 81  2  0
 83 82  1  0
 84 58  1  0
 84 89  1  0
 84 85  1  0
 85 88  1  1
 85 86  1  0
 87 85  1  0
 89 92  1  0
 90 94  1  0
 90 89  1  0
 91 90  2  0
 94 93  1  0
 96 94  1  0
 96 97  1  0
 96 95  1  0
M  ISO  4  14 100  22 100  56 101  57 101
M  END
>  <TORSDO>  (11) 
F 20

>  <SCORE>  (11) 
-10.026

>  <name>  (11) 
10

>  <ligand_id>  (11) 
10

>  <original_smiles>  (11) 
[H]c1c([H])c([H])c2c(c1[H])C([H])([H])C([H])([H])C([H])([H])C2([H])N([H])C(=O)C1([H])N(C(=O)C([H])(N([H])C(=O)C([H])(N([H])C([H])([H])[H])C([H])([H])[H])C(C([H])([H])[H])(C([H])([H])[H])C([H])([H])[H])C([H])([H])c2c([H])c(OC([H])([H])C([H])([H])[N+]3([H])C([H])([H])C([H])([H])C([H])(c4c(C([H])([H])[H])c([H])c(N([H])C(=O)N5C([H])([H])C([H])([H])C([H])([H])C([H])(n6nc(-c7c([H])c([H])c(Oc8c([H])c([H])c(F)c([H])c8F)c([H])c7[H])c(C(=O)N([H])[H])c6N([H])[H])C5([H])[H])n4C([H])(C([H])([H])[H])C([H])([H])[H])C([H])([H])C3([H])[H])c([H])c([H])c2C1([H])[H]

>  <smiles>  (11) 
[H]c1c([H])c([H])c2c(c1[H])C([H])([H])C([H])([H])C([H])([H])C2([H])N([H])C(=O)C1([H])N(C(=O)C([H])(N([H])C(=O)C([H])(N([H])C([H])([H])[H])C([H])([H])[H])C(C([H])([H])[H])(C([H])([H])[H])C([H])([H])[H])C([H])([H])c2c([H])c(OC([H])([H])C([H])([H])[N+]3([H])C([H])([H])C([H])([H])C([H])(c4c(C([H])([H])[H])c([H])c(N([H])C(=O)N5C([H])([H])C([H])([H])C([H])([H])C([H])(n6nc(-c7c([H])c([H])c(Oc8c([H])c([H])c(F)c([H])c8F)c([H])c7[H])c(C(=O)N([H])[H])c6N([H])[H])C5([H])[H])n4C([H])(C([H])([H])[H])C([H])([H])[H])C([H])([H])C3([H])[H])c([H])c([H])c2C1([H])[H]

$$$$
11:0:0
     RDKit          3D

 94103  0  0  1  0  0  0  0  0999 V2000
  -30.1120  -22.0940   20.8720 C   0  0  0  0  0  3  0  0  0  0  0  0
  -29.8500  -23.4730   20.6140 C   0  0  0  0  0  0  0  0  0  0  0  0
  -27.9670  -22.8270   19.2480 C   0  0  0  0  0  0  0  0  0  0  0  0
  -28.7830  -23.8920   19.7710 C   0  0  0  0  0  0  0  0  0  0  0  0
  -28.2000  -21.4360   19.5850 C   0  0  0  0  0  0  0  0  0  0  0  0
  -29.3340  -21.0200   20.3540 C   0  0  0  0  0  0  0  0  0  0  0  0
  -30.7890  -24.5040   21.2200 C   0  0  0  0  0  1  0  0  0  0  0  0
  -26.8290  -23.1710   18.2830 C   0  0  0  0  0  1  0  0  0  0  0  0
  -27.1830  -20.3810   19.1550 C   0  0  0  0  0  1  0  0  0  0  0  0
  -30.8880  -17.8070   21.6810 C   0  0  0  0  0  2  0  0  0  0  0  0
  -30.8240  -19.3400   21.5320 C   0  0  0  0  0  2  0  0  0  0  0  0
  -29.3500  -18.3730   19.9420 C   0  0  0  0  0  2  0  0  0  0  0  0
  -30.4140  -17.2640   20.3280 C   0  0  0  0  0  3  0  0  0  0  0  0
  -29.6950  -19.6400   20.6550 N   0  0  0  0  0  0  0  0  0  0  0  0
  -30.7140  -14.7050   20.0410 C   0  0  0  0  0  0  0  0  0  0  0  0
  -30.4060  -12.4900   18.9560 C   0  0  0  0  0  2  0  0  0  0  0  0
  -29.3970  -12.6420   17.7980 C   0  0  0  0  0  2  0  0  0  0  0  0
  -27.9530  -12.4750   18.3100 C   0  0  0  0  0  2  0  0  0  0  0  0
  -27.6680  -13.3200   19.5820 C   0  0  0  0  0  3  0  0  0  0  0  0
  -28.7910  -13.1630   20.6320 C   0  0  0  0  0  2  0  0  0  0  0  0
  -30.0600  -13.5010   19.9750 N   0  0  0  0  0  0  0  0  0  0  0  0
  -31.8650  -14.8210   19.6130 O   0  0  0  0  0  0  0  0  0  0  0  0
  -29.9850  -15.8140   20.3940 N   0  0  0  0  0  0  0  0  0  0  0  0
  -29.0380  -15.6400   20.6930 H   0  0  0  0  0  0  0  0  0  0  0  0
  -25.3290  -13.9070   20.4630 C   0  0  0  0  0  0  0  0  0  0  0  0
  -24.2830  -13.1280   20.8760 C   0  0  0  0  0  0  0  0  0  0  0  0
  -24.7350  -11.7760   20.7840 C   0  0  0  0  0  0  0  0  0  0  0  0
  -26.3520  -13.0280   20.1420 N   0  0  0  0  0  0  0  0  0  0  0  0
  -26.0050  -11.7410   20.3970 N   0  0  0  0  0  0  0  0  0  0  0  0
  -24.0140  -10.5120   20.9840 C   0  0  0  0  0  0  0  0  0  0  0  0
  -24.4680   -9.5400   21.9020 C   0  0  0  0  0  3  0  0  0  0  0  0
  -23.7480   -8.3420   22.0930 C   0  0  0  0  0  3  0  0  0  0  0  0
  -22.5570   -8.1070   21.3640 C   0  0  0  0  0  0  0  0  0  0  0  0
  -22.1210   -9.0680   20.4350 C   0  0  0  0  0  3  0  0  0  0  0  0
  -22.8440  -10.2580   20.2430 C   0  0  0  0  0  3  0  0  0  0  0  0
  -21.8060   -6.9610   21.4630 O   0  0  0  0  0  0  0  0  0  0  0  0
  -21.7570   -6.2310   22.6240 C   0  0  0  0  0  0  0  0  0  0  0  0
  -21.2900   -6.7870   23.8350 C   0  0  0  0  0  3  0  0  0  0  0  0
  -21.1900   -5.9830   24.9870 C   0  0  0  0  0  3  0  0  0  0  0  0
  -21.5450   -4.6220   24.9290 C   0  0  0  0  0  0  0  0  0  0  0  0
  -22.0050   -4.0640   23.7230 C   0  0  0  0  0  3  0  0  0  0  0  0
  -22.1060   -4.8670   22.5730 C   0  0  0  0  0  0  0  0  0  0  0  0
  -22.5290   -4.3200   21.4080 F   0  0  0  0  0  0  0  0  0  0  0  0
  -21.4420   -3.8470   26.0350 F   0  0  0  0  0  0  0  0  0  0  0  0
  -22.9060  -13.6040   21.2420 C   0  0  0  0  0  0  0  0  0  0  0  0
  -22.2240  -12.8870   22.1270 N   0  0  0  0  0  0  0  0  0  0  0  0
  -22.4470  -14.6480   20.7790 O   0  0  0  0  0  0  0  0  0  0  0  0
  -22.6080  -12.0420   22.5240 H   0  0  0  0  0  0  0  0  0  0  0  0
  -21.3040  -13.1880   22.4140 H   0  0  0  0  0  0  0  0  0  0  0  0
  -25.4880  -15.2810   20.3070 N   0  0  0  0  0  0  0  0  0  0  0  0
  -24.7260  -15.9290   20.4700 H   0  0  0  0  0  0  0  0  0  0  0  0
  -26.3050  -15.7240   19.9090 H   0  0  0  0  0  0  0  0  0  0  0  0
  -28.6710  -25.4100   19.2900 C   0  0  0  0  0  2  0  0  0  0  0  0
  -28.4360  -26.5310   20.2220 O   0  0  0  0  0  0  0  0  0  0  0  0
  -24.5970  -31.8690   23.1840 C   0  0  0  0  0  0  0  0  0  0  0  0
  -27.2940  -27.3450   20.1400 C   0  0  0  0  0  0  0  0  0  0  0  0
  -23.4250  -30.4600   21.5290 C   0  0  0  0  0  3  0  0  0  0  0  0
  -24.9060  -28.9270   20.1160 C   0  0  0  0  0  0  0  0  0  0  0  0
  -25.9620  -30.8050   21.3730 C   0  0  0  0  0  2  0  0  0  0  0  0
  -26.0630  -29.4290   20.7250 C   0  0  0  0  0  0  0  0  0  0  0  0
  -27.2540  -28.6460   20.7330 C   0  0  0  0  0  3  0  0  0  0  0  0
  -26.1050  -26.8860   19.5280 C   0  0  0  0  0  3  0  0  0  0  0  0
  -24.9290  -27.6600   19.5120 C   0  0  0  0  0  3  0  0  0  0  0  0
  -23.6600  -29.7880   20.1510 C   0  0  0  0  0  2  0  0  0  0  0  0
  -24.6800  -31.0620   22.0850 N   0  0  0  0  0  0  0  0  0  0  0  0
  -23.5050  -32.1350   23.7070 O   0  0  0  0  0  0  0  0  0  0  0  0
  -22.7630  -29.4360   22.4810 C   0  0  0  0  0  0  0  0  0  0  0  0
  -21.4350  -29.2680   22.3600 N   0  0  0  0  0  0  0  0  0  0  0  0
  -23.4420  -28.7950   23.2880 O   0  0  0  0  0  0  0  0  0  0  0  0
  -20.9460  -29.8350   21.6820 H   0  0  0  0  0  0  0  0  0  0  0  0
  -18.0470  -28.1230   22.9000 C   0  0  0  0  0  0  0  0  0  0  0  0
  -20.6150  -28.3280   23.1250 C   0  0  0  0  0  3  0  0  0  0  0  0
  -20.6770  -26.9100   22.5130 C   0  0  0  0  0  2  0  0  0  0  0  0
  -19.5500  -26.6320   21.5140 C   0  0  0  0  0  2  0  0  0  0  0  0
  -18.1840  -26.7880   22.1880 C   0  0  0  0  0  2  0  0  0  0  0  0
  -19.1880  -28.8540   23.3250 C   0  0  0  0  0  0  0  0  0  0  0  0
  -19.0050  -30.1060   23.9520 C   0  0  0  0  0  3  0  0  0  0  0  0
  -17.7130  -30.6270   24.1560 C   0  0  0  0  0  3  0  0  0  0  0  0
  -16.5870  -29.8930   23.7460 C   0  0  0  0  0  3  0  0  0  0  0  0
  -16.7540  -28.6430   23.1240 C   0  0  0  0  0  3  0  0  0  0  0  0
  -25.8660  -32.5130   23.8210 C   0  0  0  0  0  3  0  0  0  0  0  0
  -25.5430  -33.9120   24.1360 N   0  0  0  0  0  0  0  0  0  0  0  0
  -25.8910  -34.9630   23.3810 C   0  0  0  0  0  0  0  0  0  0  0  0
  -26.5860  -34.8570   22.3670 O   0  0  0  0  0  0  0  0  0  0  0  0
  -24.9290  -34.0680   24.9220 H   0  0  0  0  0  0  0  0  0  0  0  0
  -24.1790  -36.7580   22.9640 C   0  0  0  0  0  1  0  0  0  0  0  0
  -25.3880  -36.3520   23.8200 C   0  0  0  0  0  3  0  0  0  0  0  0
  -27.4870  -37.2390   24.7340 C   0  0  0  0  0  1  0  0  0  0  0  0
  -26.4250  -37.4040   23.7450 N   0  0  0  0  0  0  0  0  0  0  0  0
  -26.0140  -38.3250   23.8720 H   0  0  0  0  0  0  0  0  0  0  0  0
  -26.3660  -31.7560   25.1120 C   0  0  1  0  0  0  0  0  0  0  0  0
  -25.2570  -31.5180   26.1630 C   0  0  0  0  0  1  0  0  0  0  0  0
  -26.9670  -30.3790   24.7420 C   0  0  0  0  0  1  0  0  0  0  0  0
  -27.5000  -32.5630   25.7890 C   0  0  0  0  0  1  0  0  0  0  0  0
  2  1  1  0
  2  7  1  0
  3  5  2  0
  3  4  1  0
  4  2  2  0
  5  6  1  0
  6 14  1  0
  6  1  2  0
  8  3  1  0
  9  5  1  0
 11 10  1  0
 12 13  1  0
 12 14  1  0
 13 23  1  0
 13 10  1  0
 14 11  1  0
 15 23  1  0
 16 21  1  0
 17 18  1  0
 17 16  1  0
 19 18  1  0
 19 28  1  0
 19 20  1  0
 21 15  1  0
 21 20  1  0
 22 15  2  0
 23 24  1  0
 25 26  2  0
 26 45  1  0
 27 26  1  0
 27 30  1  0
 28 29  1  0
 28 25  1  0
 29 27  2  0
 30 31  1  0
 31 32  2  0
 33 36  1  0
 33 32  1  0
 34 33  2  0
 35 34  1  0
 35 30  2  0
 36 37  1  0
 37 38  1  0
 38 39  2  0
 40 39  1  0
 40 44  1  0
 41 40  2  0
 42 37  2  0
 42 41  1  0
 43 42  1  0
 45 46  1  0
 46 49  1  0
 46 48  1  0
 47 45  2  0
 50 25  1  0
 50 51  1  0
 52 50  1  0
 53  4  1  0
 53 54  1  0
 55 66  2  0
 56 54  1  0
 56 61  1  0
 57 65  1  0
 57 67  1  0
 58 64  1  0
 58 60  1  0
 59 65  1  0
 60 61  2  0
 60 59  1  0
 62 56  2  0
 63 62  1  0
 63 58  2  0
 64 57  1  0
 65 55  1  0
 67 69  2  0
 68 67  1  0
 70 68  1  0
 71 80  2  0
 71 76  1  0
 72 68  1  0
 72 76  1  0
 73 72  1  0
 74 75  1  0
 74 73  1  0
 75 71  1  0
 76 77  2  0
 77 78  1  0
 79 78  2  0
 80 79  1  0
 81 55  1  0
 81 82  1  0
 81 91  1  0
 82 85  1  0
 83 87  1  0
 83 82  1  0
 84 83  2  0
 87 86  1  0
 89 87  1  0
 89 90  1  0
 89 88  1  0
 91 94  1  1
 91 92  1  0
 93 91  1  0
M  ISO  4  15 100  23 100  53 101  54 101
M  END
>  <TORSDO>  (12) 
F 18

>  <SCORE>  (12) 
-14.855

>  <name>  (12) 
11

>  <ligand_id>  (12) 
11

>  <original_smiles>  (12) 
[H]c1c([H])c([H])c2c(c1[H])C([H])([H])C([H])([H])C([H])([H])C2([H])N([H])C(=O)C1([H])N(C(=O)C([H])(N([H])C(=O)C([H])(N([H])C([H])([H])[H])C([H])([H])[H])C(C([H])([H])[H])(C([H])([H])[H])C([H])([H])[H])C([H])([H])c2c([H])c(OC([H])([H])c3c(C([H])([H])[H])c([H])c(N4C([H])([H])C([H])([H])C([H])(N([H])C(=O)N5C([H])([H])C([H])([H])C([H])([H])C([H])(n6nc(-c7c([H])c([H])c(Oc8c([H])c([H])c(F)c([H])c8F)c([H])c7[H])c(C(=O)N([H])[H])c6N([H])[H])C5([H])[H])C4([H])[H])c(C([H])([H])[H])c3C([H])([H])[H])c([H])c([H])c2C1([H])[H]

>  <smiles>  (12) 
[H]c1c([H])c([H])c2c(c1[H])C([H])([H])C([H])([H])C([H])([H])C2([H])N([H])C(=O)C1([H])N(C(=O)C([H])(N([H])C(=O)C([H])(N([H])C([H])([H])[H])C([H])([H])[H])C(C([H])([H])[H])(C([H])([H])[H])C([H])([H])[H])C([H])([H])c2c([H])c(OC([H])([H])c3c(C([H])([H])[H])c([H])c(N4C([H])([H])C([H])([H])C([H])(N([H])C(=O)N5C([H])([H])C([H])([H])C([H])([H])C([H])(n6nc(-c7c([H])c([H])c(Oc8c([H])c([H])c(F)c([H])c8F)c([H])c7[H])c(C(=O)N([H])[H])c6N([H])[H])C5([H])[H])C4([H])[H])c(C([H])([H])[H])c3C([H])([H])[H])c([H])c([H])c2C1([H])[H]

$$$$
12:0:0
     RDKit          3D

 95104  0  0  1  0  0  0  0  0999 V2000
  -29.3880  -23.3880   21.1630 C   0  0  0  0  0  3  0  0  0  0  0  0
  -28.6800  -21.1940   19.5590 C   0  0  0  0  0  3  0  0  0  0  0  0
  -28.5950  -23.6390   20.0170 C   0  0  0  0  0  0  0  0  0  0  0  0
  -29.7970  -22.0610   21.5210 C   0  0  0  0  0  0  0  0  0  0  0  0
  -28.2530  -22.5050   19.2200 C   0  0  0  0  0  0  0  0  0  0  0  0
  -29.4330  -20.9320   20.7240 C   0  0  0  0  0  0  0  0  0  0  0  0
  -27.3510  -22.6460   18.0010 C   0  0  0  0  0  1  0  0  0  0  0  0
  -30.1300  -22.6280   23.9940 C   0  0  0  0  0  1  0  0  0  0  0  0
  -32.1290  -22.1970   22.4850 C   0  0  0  0  0  1  0  0  0  0  0  0
  -30.6580  -21.8580   22.7700 C   0  0  0  0  0  3  0  0  0  0  0  0
  -27.9060  -25.0030   19.6830 C   0  0  0  0  0  2  0  0  0  0  0  0
  -28.2220  -26.3330   20.2420 O   0  0  0  0  0  0  0  0  0  0  0  0
  -24.6430  -31.8110   23.3060 C   0  0  0  0  0  0  0  0  0  0  0  0
  -27.1570  -27.2580   20.1620 C   0  0  0  0  0  0  0  0  0  0  0  0
  -23.4140  -30.4660   21.6450 C   0  0  0  0  0  3  0  0  0  0  0  0
  -24.8340  -28.9350   20.1850 C   0  0  0  0  0  0  0  0  0  0  0  0
  -25.9630  -30.7320   21.4780 C   0  0  0  0  0  2  0  0  0  0  0  0
  -26.0120  -29.3690   20.8040 C   0  0  0  0  0  0  0  0  0  0  0  0
  -27.1760  -28.5400   20.7950 C   0  0  0  0  0  3  0  0  0  0  0  0
  -25.9570  -26.9160   19.4780 C   0  0  0  0  0  3  0  0  0  0  0  0
  -24.8090  -27.7130   19.5140 C   0  0  0  0  0  3  0  0  0  0  0  0
  -23.6150  -29.8280   20.2510 C   0  0  0  0  0  2  0  0  0  0  0  0
  -24.6910  -31.0190   22.1980 N   0  0  0  0  0  0  0  0  0  0  0  0
  -23.5630  -32.1030   23.8410 O   0  0  0  0  0  0  0  0  0  0  0  0
  -22.7350  -29.4360   22.5810 C   0  0  0  0  0  0  0  0  0  0  0  0
  -21.4090  -29.2720   22.4350 N   0  0  0  0  0  0  0  0  0  0  0  0
  -23.3970  -28.7960   23.4010 O   0  0  0  0  0  0  0  0  0  0  0  0
  -20.9350  -29.8410   21.7470 H   0  0  0  0  0  0  0  0  0  0  0  0
  -18.0120  -28.0970   22.8700 C   0  0  0  0  0  0  0  0  0  0  0  0
  -20.5680  -28.3360   23.1850 C   0  0  0  0  0  3  0  0  0  0  0  0
  -20.6700  -26.9060   22.6060 C   0  0  0  0  0  2  0  0  0  0  0  0
  -19.5840  -26.5960   21.5720 C   0  0  0  0  0  2  0  0  0  0  0  0
  -18.1910  -26.7490   22.1920 C   0  0  0  0  0  2  0  0  0  0  0  0
  -19.1300  -28.8490   23.3210 C   0  0  0  0  0  0  0  0  0  0  0  0
  -18.9090  -30.1110   23.9150 C   0  0  0  0  0  3  0  0  0  0  0  0
  -17.6060  -30.6210   24.0590 C   0  0  0  0  0  3  0  0  0  0  0  0
  -16.5030  -29.8660   23.6260 C   0  0  0  0  0  3  0  0  0  0  0  0
  -16.7070  -28.6050   23.0370 C   0  0  0  0  0  3  0  0  0  0  0  0
  -25.9380  -32.4060   23.9380 C   0  0  0  0  0  3  0  0  0  0  0  0
  -26.4180  -31.6230   25.2210 C   0  0  1  0  0  0  0  0  0  0  0  0
  -25.3050  -31.4150   26.2750 C   0  0  0  0  0  1  0  0  0  0  0  0
  -26.9700  -30.2270   24.8420 C   0  0  0  0  0  1  0  0  0  0  0  0
  -27.5810  -32.3870   25.8950 C   0  0  0  0  0  1  0  0  0  0  0  0
  -25.6650  -33.8130   24.2600 N   0  0  0  0  0  0  0  0  0  0  0  0
  -26.0040  -34.8510   23.4830 C   0  0  0  0  0  0  0  0  0  0  0  0
  -26.6560  -34.7260   22.4420 O   0  0  0  0  0  0  0  0  0  0  0  0
  -25.0910  -33.9880   25.0720 H   0  0  0  0  0  0  0  0  0  0  0  0
  -24.2960  -36.6670   23.1520 C   0  0  0  0  0  1  0  0  0  0  0  0
  -25.5520  -36.2540   23.9360 C   0  0  0  0  0  3  0  0  0  0  0  0
  -27.7290  -37.1070   24.6910 C   0  0  0  0  0  1  0  0  0  0  0  0
  -26.5960  -37.2910   23.7870 N   0  0  0  0  0  0  0  0  0  0  0  0
  -26.2080  -38.2140   23.9550 H   0  0  0  0  0  0  0  0  0  0  0  0
  -29.7540  -19.6260   21.1320 O   0  0  0  0  0  0  0  0  0  0  0  0
  -30.5240  -14.4800   20.2220 C   0  0  0  0  0  0  0  0  0  0  0  0
  -30.1540  -12.2730   19.1370 C   0  0  0  0  0  2  0  0  0  0  0  0
  -29.1710  -12.3920   17.9560 C   0  0  0  0  0  2  0  0  0  0  0  0
  -27.7260  -12.1940   18.4470 C   0  0  0  0  0  2  0  0  0  0  0  0
  -27.4070  -13.0610   19.6900 C   0  0  0  0  0  3  0  0  0  0  0  0
  -28.5190  -12.9810   20.7670 C   0  0  0  0  0  2  0  0  0  0  0  0
  -29.8000  -13.3130   20.1310 N   0  0  0  0  0  0  0  0  0  0  0  0
  -31.6420  -14.5430   19.7010 O   0  0  0  0  0  0  0  0  0  0  0  0
  -31.2880  -17.7660   20.6000 C   0  0  0  0  0  2  0  0  0  0  0  0
  -28.8810  -17.5700   19.8530 C   0  0  0  0  0  2  0  0  0  0  0  0
  -31.0030  -16.5480   21.5270 C   0  0  0  0  0  2  0  0  0  0  0  0
  -28.7790  -16.3020   20.7630 C   0  0  0  0  0  2  0  0  0  0  0  0
  -30.0340  -18.5730   20.1680 C   0  0  0  0  0  3  0  0  0  0  0  0
  -30.0620  -15.5790   20.9210 N   0  0  0  0  0  0  0  0  0  0  0  0
  -25.0460  -13.6330   20.5230 C   0  0  0  0  0  0  0  0  0  0  0  0
  -24.0110  -12.8480   20.9480 C   0  0  0  0  0  0  0  0  0  0  0  0
  -24.4930  -11.5040   20.9000 C   0  0  0  0  0  0  0  0  0  0  0  0
  -26.0910  -12.7670   20.2430 N   0  0  0  0  0  0  0  0  0  0  0  0
  -25.7690  -11.4810   20.5330 N   0  0  0  0  0  0  0  0  0  0  0  0
  -23.7970  -10.2310   21.1250 C   0  0  0  0  0  0  0  0  0  0  0  0
  -24.2590   -9.2970   22.0790 C   0  0  0  0  0  3  0  0  0  0  0  0
  -23.5600   -8.0890   22.2910 C   0  0  0  0  0  3  0  0  0  0  0  0
  -22.3870   -7.8080   21.5490 C   0  0  0  0  0  0  0  0  0  0  0  0
  -21.9470   -8.7300   20.5830 C   0  0  0  0  0  3  0  0  0  0  0  0
  -22.6480   -9.9300   20.3700 C   0  0  0  0  0  3  0  0  0  0  0  0
  -21.6610   -6.6490   21.6690 O   0  0  0  0  0  0  0  0  0  0  0  0
  -21.6070   -5.9510   22.8490 C   0  0  0  0  0  0  0  0  0  0  0  0
  -21.1280   -6.5360   24.0420 C   0  0  0  0  0  3  0  0  0  0  0  0
  -21.0270   -5.7630   25.2160 C   0  0  0  0  0  3  0  0  0  0  0  0
  -21.3950   -4.4030   25.1970 C   0  0  0  0  0  0  0  0  0  0  0  0
  -21.8650   -3.8170   24.0090 C   0  0  0  0  0  3  0  0  0  0  0  0
  -21.9680   -4.5890   22.8390 C   0  0  0  0  0  0  0  0  0  0  0  0
  -22.4010   -4.0150   21.6920 F   0  0  0  0  0  0  0  0  0  0  0  0
  -21.2890   -3.6570   26.3210 F   0  0  0  0  0  0  0  0  0  0  0  0
  -22.6200  -13.3030   21.2780 C   0  0  0  0  0  0  0  0  0  0  0  0
  -21.9380  -12.5950   22.1720 N   0  0  0  0  0  0  0  0  0  0  0  0
  -22.1470  -14.3230   20.7770 O   0  0  0  0  0  0  0  0  0  0  0  0
  -22.3350  -11.7710   22.5970 H   0  0  0  0  0  0  0  0  0  0  0  0
  -21.0050  -12.8800   22.4340 H   0  0  0  0  0  0  0  0  0  0  0  0
  -25.1730  -15.0050   20.3270 N   0  0  0  0  0  0  0  0  0  0  0  0
  -24.3920  -15.6360   20.4760 H   0  0  0  0  0  0  0  0  0  0  0  0
  -25.9800  -15.4580   19.9240 H   0  0  0  0  0  0  0  0  0  0  0  0
  1  4  1  0
  2  6  1  0
  3  1  2  0
  4 10  1  0
  5  2  2  0
  5  3  1  0
  6 53  1  0
  6  4  2  0
  7  5  1  0
  9 10  1  0
 10  8  1  0
 11  3  1  0
 11 12  1  0
 13 24  2  0
 14 12  1  0
 14 19  1  0
 15 23  1  0
 15 25  1  0
 16 22  1  0
 16 18  1  0
 17 23  1  0
 18 17  1  0
 19 18  2  0
 20 21  1  0
 20 14  2  0
 21 16  2  0
 22 15  1  0
 23 13  1  0
 25 27  2  0
 26 25  1  0
 28 26  1  0
 29 38  2  0
 29 34  1  0
 30 26  1  0
 30 34  1  0
 31 30  1  0
 32 33  1  0
 32 31  1  0
 33 29  1  0
 34 35  2  0
 35 36  1  0
 37 36  2  0
 38 37  1  0
 39 13  1  0
 39 44  1  0
 39 40  1  0
 40 43  1  1
 40 41  1  0
 42 40  1  0
 44 47  1  0
 45 49  1  0
 45 44  1  0
 46 45  2  0
 49 48  1  0
 51 49  1  0
 51 52  1  0
 51 50  1  0
 54 67  1  0
 55 60  1  0
 56 57  1  0
 56 55  1  0
 58 57  1  0
 58 71  1  0
 58 59  1  0
 60 54  1  0
 60 59  1  0
 61 54  2  0
 62 64  1  0
 63 66  1  0
 63 65  1  0
 65 67  1  0
 66 62  1  0
 66 53  1  0
 67 64  1  0
 68 69  2  0
 69 88  1  0
 70 69  1  0
 70 73  1  0
 71 68  1  0
 71 72  1  0
 72 70  2  0
 73 74  1  0
 74 75  2  0
 76 79  1  0
 76 75  1  0
 77 76  2  0
 78 77  1  0
 78 73  2  0
 79 80  1  0
 80 81  1  0
 81 82  2  0
 83 82  1  0
 83 87  1  0
 84 83  2  0
 85 80  2  0
 85 84  1  0
 86 85  1  0
 88 89  1  0
 89 92  1  0
 89 91  1  0
 90 88  2  0
 93 94  1  0
 93 68  1  0
 95 93  1  0
M  ISO  4  11 101  12 101  54 100  67 100
M  END
>  <TORSDO>  (13) 
F 19

>  <SCORE>  (13) 
-13.632

>  <name>  (13) 
12

>  <ligand_id>  (13) 
12

>  <original_smiles>  (13) 
[H]c1c([H])c([H])c2c(c1[H])C([H])([H])C([H])([H])C([H])([H])C2([H])N([H])C(=O)C1([H])N(C(=O)C([H])(N([H])C(=O)C([H])(N([H])C([H])([H])[H])C([H])([H])[H])C(C([H])([H])[H])(C([H])([H])[H])C([H])([H])[H])C([H])([H])c2c([H])c(OC([H])([H])c3c([H])c(C([H])(C([H])([H])[H])C([H])([H])[H])c(OC4([H])C([H])([H])C([H])([H])N(C(=O)N5C([H])([H])C([H])([H])C([H])([H])C([H])(n6nc(-c7c([H])c([H])c(Oc8c([H])c([H])c(F)c([H])c8F)c([H])c7[H])c(C(=O)N([H])[H])c6N([H])[H])C5([H])[H])C([H])([H])C4([H])[H])c([H])c3C([H])([H])[H])c([H])c([H])c2C1([H])[H]

>  <smiles>  (13) 
[H]c1c([H])c([H])c2c(c1[H])C([H])([H])C([H])([H])C([H])([H])C2([H])N([H])C(=O)C1([H])N(C(=O)C([H])(N([H])C(=O)C([H])(N([H])C([H])([H])[H])C([H])([H])[H])C(C([H])([H])[H])(C([H])([H])[H])C([H])([H])[H])C([H])([H])c2c([H])c(OC([H])([H])c3c([H])c(C([H])(C([H])([H])[H])C([H])([H])[H])c(OC4([H])C([H])([H])C([H])([H])N(C(=O)N5C([H])([H])C([H])([H])C([H])([H])C([H])(n6nc(-c7c([H])c([H])c(Oc8c([H])c([H])c(F)c([H])c8F)c([H])c7[H])c(C(=O)N([H])[H])c6N([H])[H])C5([H])[H])C([H])([H])C4([H])[H])c([H])c3C([H])([H])[H])c([H])c([H])c2C1([H])[H]

$$$$
13:0:0
     RDKit          3D

 97106  0  0  1  0  0  0  0  0999 V2000
  -29.8260  -19.1340   20.1270 C   0  0  0  0  0  3  0  0  0  0  0  0
  -33.4300  -19.1460   18.6880 C   0  0  0  0  0  3  0  0  0  0  0  0
  -33.4950  -19.9280   20.9870 C   0  0  0  0  0  3  0  0  0  0  0  0
  -34.1610  -19.6350   19.7860 C   0  0  0  0  0  0  0  0  0  0  0  0
  -32.0340  -18.9600   18.7730 C   0  0  0  0  0  0  0  0  0  0  0  0
  -31.3500  -19.2930   19.9760 C   0  0  0  0  0  0  0  0  0  0  0  0
  -32.0960  -19.7520   21.0970 C   0  0  0  0  0  0  0  0  0  0  0  0
  -35.6620  -19.8440   19.6830 C   0  0  0  0  0  1  0  0  0  0  0  0
  -31.3140  -18.3740   17.5660 C   0  0  0  0  0  1  0  0  0  0  0  0
  -32.1130  -20.4790   23.3980 C   0  0  0  0  0  1  0  0  0  0  0  0
  -31.3990  -20.0310   22.2530 O   0  0  0  0  0  0  0  0  0  0  0  0
  -29.1080  -20.6130   20.6360 C   0  0  0  0  0  2  0  0  0  0  0  0
  -30.4520  -23.8040   19.8910 C   0  0  0  0  0  2  0  0  0  0  0  0
  -30.6950  -22.3230   19.7250 C   0  0  0  0  0  2  0  0  0  0  0  0
  -29.0840  -23.5030   20.4850 C   0  0  0  0  0  3  0  0  0  0  0  0
  -29.2680  -22.0190   19.8930 N   0  0  2  0  0  4  0  0  0  0  0  0
  -28.8470  -21.9750   18.9780 H   0  0  0  0  0  0  0  0  0  0  0  0
  -27.9860  -24.6890   20.0270 C   0  0  0  0  0  2  0  0  0  0  0  0
  -28.2070  -26.2250   20.2110 O   0  0  0  0  0  0  0  0  0  0  0  0
  -24.5730  -31.8840   23.2120 C   0  0  0  0  0  0  0  0  0  0  0  0
  -27.1430  -27.1950   20.1500 C   0  0  0  0  0  0  0  0  0  0  0  0
  -23.3630  -30.4930   21.5740 C   0  0  0  0  0  3  0  0  0  0  0  0
  -24.8040  -28.9280   20.1360 C   0  0  0  0  0  0  0  0  0  0  0  0
  -25.9140  -30.7700   21.3910 C   0  0  0  0  0  2  0  0  0  0  0  0
  -25.9880  -29.3790   20.7340 C   0  0  0  0  0  0  0  0  0  0  0  0
  -27.1550  -28.5300   20.7250 C   0  0  0  0  0  3  0  0  0  0  0  0
  -25.9290  -26.8380   19.5210 C   0  0  0  0  0  3  0  0  0  0  0  0
  -24.7890  -27.6690   19.5150 C   0  0  0  0  0  3  0  0  0  0  0  0
  -23.5750  -29.8200   20.1930 C   0  0  0  0  0  2  0  0  0  0  0  0
  -24.6370  -31.0710   22.1130 N   0  0  0  0  0  0  0  0  0  0  0  0
  -23.4910  -32.1620   23.7510 O   0  0  0  0  0  0  0  0  0  0  0  0
  -22.6950  -29.4810   22.5390 C   0  0  0  0  0  0  0  0  0  0  0  0
  -21.3670  -29.3030   22.4170 N   0  0  0  0  0  0  0  0  0  0  0  0
  -23.3730  -28.8570   23.3580 O   0  0  0  0  0  0  0  0  0  0  0  0
  -20.8760  -29.8540   21.7260 H   0  0  0  0  0  0  0  0  0  0  0  0
  -17.9940  -28.0820   22.9210 C   0  0  0  0  0  0  0  0  0  0  0  0
  -20.5520  -28.3630   23.1900 C   0  0  0  0  0  3  0  0  0  0  0  0
  -20.6640  -26.9300   22.6200 C   0  0  0  0  0  2  0  0  0  0  0  0
  -19.5650  -26.5950   21.6070 C   0  0  0  0  0  2  0  0  0  0  0  0
  -18.1800  -26.7320   22.2470 C   0  0  0  0  0  2  0  0  0  0  0  0
  -19.1070  -28.8540   23.3480 C   0  0  0  0  0  0  0  0  0  0  0  0
  -18.8740  -30.1160   23.9360 C   0  0  0  0  0  3  0  0  0  0  0  0
  -17.5640  -30.6050   24.1030 C   0  0  0  0  0  3  0  0  0  0  0  0
  -16.4680  -29.8270   23.6910 C   0  0  0  0  0  3  0  0  0  0  0  0
  -16.6830  -28.5690   23.1040 C   0  0  0  0  0  3  0  0  0  0  0  0
  -25.8570  -32.5180   23.8310 C   0  0  0  0  0  3  0  0  0  0  0  0
  -25.5500  -33.9180   24.1610 N   0  0  0  0  0  0  0  0  0  0  0  0
  -25.8920  -34.9710   23.4070 C   0  0  0  0  0  0  0  0  0  0  0  0
  -26.5630  -34.8670   22.3780 O   0  0  0  0  0  0  0  0  0  0  0  0
  -24.9590  -34.0730   24.9630 H   0  0  0  0  0  0  0  0  0  0  0  0
  -24.1820  -36.7830   23.0460 C   0  0  0  0  0  1  0  0  0  0  0  0
  -25.4120  -36.3630   23.8670 C   0  0  0  0  0  3  0  0  0  0  0  0
  -27.5440  -37.2270   24.7240 C   0  0  0  0  0  1  0  0  0  0  0  0
  -26.4530  -37.4090   23.7700 N   0  0  0  0  0  0  0  0  0  0  0  0
  -26.0530  -38.3310   23.9160 H   0  0  0  0  0  0  0  0  0  0  0  0
  -26.3710  -31.7520   25.1130 C   0  0  1  0  0  0  0  0  0  0  0  0
  -25.2770  -31.5270   26.1830 C   0  0  0  0  0  1  0  0  0  0  0  0
  -26.9470  -30.3680   24.7350 C   0  0  0  0  0  1  0  0  0  0  0  0
  -27.5260  -32.5440   25.7660 C   0  0  0  0  0  1  0  0  0  0  0  0
  -29.6540  -17.6440   20.9110 C   0  0  0  0  0  2  0  0  0  0  0  0
  -29.5250  -16.1900   20.3880 O   0  0  0  0  0  0  0  0  0  0  0  0
  -30.4880  -15.0080   20.3250 C   0  0  0  0  0  0  0  0  0  0  0  0
  -30.3540  -12.6320   19.3750 C   0  0  0  0  0  2  0  0  0  0  0  0
  -29.4180  -12.6190   18.1440 C   0  0  0  0  0  2  0  0  0  0  0  0
  -27.9490  -12.4150   18.5760 C   0  0  0  0  0  2  0  0  0  0  0  0
  -27.5420  -13.3320   19.7580 C   0  0  0  0  0  3  0  0  0  0  0  0
  -28.5910  -13.3420   20.8830 C   0  0  0  0  0  2  0  0  0  0  0  0
  -29.8780  -13.7040   20.2850 N   0  0  0  0  0  0  0  0  0  0  0  0
  -31.6970  -15.1280   20.1150 O   0  0  0  0  0  0  0  0  0  0  0  0
  -25.1700  -13.9030   20.5210 C   0  0  0  0  0  0  0  0  0  0  0  0
  -24.1070  -13.1290   20.8960 C   0  0  0  0  0  0  0  0  0  0  0  0
  -24.5720  -11.7780   20.8600 C   0  0  0  0  0  0  0  0  0  0  0  0
  -26.2080  -13.0260   20.2650 N   0  0  0  0  0  0  0  0  0  0  0  0
  -25.8600  -11.7420   20.5400 N   0  0  0  0  0  0  0  0  0  0  0  0
  -23.8460  -10.5160   21.0470 C   0  0  0  0  0  0  0  0  0  0  0  0
  -24.2790   -9.5470   21.9810 C   0  0  0  0  0  3  0  0  0  0  0  0
  -23.5570   -8.3460   22.1540 C   0  0  0  0  0  3  0  0  0  0  0  0
  -22.3850   -8.1090   21.3970 C   0  0  0  0  0  0  0  0  0  0  0  0
  -21.9700   -9.0660   20.4540 C   0  0  0  0  0  3  0  0  0  0  0  0
  -22.6940  -10.2570   20.2770 C   0  0  0  0  0  3  0  0  0  0  0  0
  -21.6310   -6.9640   21.4830 O   0  0  0  0  0  0  0  0  0  0  0  0
  -21.5800   -6.2230   22.6370 C   0  0  0  0  0  0  0  0  0  0  0  0
  -21.1490   -6.7790   23.8610 C   0  0  0  0  0  3  0  0  0  0  0  0
  -21.0440   -5.9620   25.0040 C   0  0  0  0  0  3  0  0  0  0  0  0
  -21.3590   -4.5920   24.9240 C   0  0  0  0  0  0  0  0  0  0  0  0
  -21.7820   -4.0370   23.7040 C   0  0  0  0  0  3  0  0  0  0  0  0
  -21.8880   -4.8500   22.5630 C   0  0  0  0  0  0  0  0  0  0  0  0
  -22.2770   -4.3060   21.3840 F   0  0  0  0  0  0  0  0  0  0  0  0
  -21.2500   -3.8050   26.0200 F   0  0  0  0  0  0  0  0  0  0  0  0
  -22.7110  -13.6070   21.1760 C   0  0  0  0  0  0  0  0  0  0  0  0
  -21.9820  -12.9030   22.0350 N   0  0  0  0  0  0  0  0  0  0  0  0
  -22.2760  -14.6390   20.6680 O   0  0  0  0  0  0  0  0  0  0  0  0
  -22.3490  -12.0710   22.4710 H   0  0  0  0  0  0  0  0  0  0  0  0
  -21.0420  -13.1990   22.2610 H   0  0  0  0  0  0  0  0  0  0  0  0
  -25.3420  -15.2730   20.3510 N   0  0  0  0  0  0  0  0  0  0  0  0
  -24.5930  -15.9410   20.4870 H   0  0  0  0  0  0  0  0  0  0  0  0
  -26.2090  -15.7010   20.0510 H   0  0  0  0  0  0  0  0  0  0  0  0
  1 12  1  0
  1 60  1  0
  2  5  2  0
  2  4  1  0
  3  7  1  0
  4  3  2  0
  5  6  1  0
  6  1  1  0
  6  7  2  0
  7 11  1  0
  8  4  1  0
  9  5  1  0
 11 10  1  0
 13 15  1  0
 14 13  1  0
 14 16  1  0
 15 18  1  0
 16 15  1  0
 16 12  1  0
 16 17  1  6
 18 19  1  0
 20 31  2  0
 21 19  1  0
 21 26  1  0
 22 30  1  0
 22 32  1  0
 23 29  1  0
 23 25  1  0
 24 30  1  0
 25 24  1  0
 26 25  2  0
 27 21  2  0
 28 27  1  0
 28 23  2  0
 29 22  1  0
 30 20  1  0
 32 34  2  0
 33 32  1  0
 35 33  1  0
 36 45  2  0
 36 41  1  0
 37 33  1  0
 37 41  1  0
 38 37  1  0
 39 40  1  0
 39 38  1  0
 40 36  1  0
 41 42  2  0
 42 43  1  0
 44 43  2  0
 45 44  1  0
 46 20  1  0
 46 47  1  0
 46 56  1  0
 47 50  1  0
 48 52  1  0
 48 47  1  0
 49 48  2  0
 52 51  1  0
 54 52  1  0
 54 55  1  0
 54 53  1  0
 56 59  1  1
 56 57  1  0
 58 56  1  0
 61 60  1  0
 62 61  1  0
 63 68  1  0
 64 65  1  0
 64 63  1  0
 66 65  1  0
 66 73  1  0
 66 67  1  0
 68 62  1  0
 68 67  1  0
 69 62  2  0
 70 71  2  0
 71 90  1  0
 72 71  1  0
 72 75  1  0
 73 70  1  0
 73 74  1  0
 74 72  2  0
 75 76  1  0
 76 77  2  0
 78 81  1  0
 78 77  1  0
 79 78  2  0
 80 79  1  0
 80 75  2  0
 81 82  1  0
 82 83  1  0
 83 84  2  0
 85 84  1  0
 85 89  1  0
 86 85  2  0
 87 82  2  0
 87 86  1  0
 88 87  1  0
 90 91  1  0
 91 94  1  0
 91 93  1  0
 92 90  2  0
 95 96  1  0
 95 70  1  0
 97 95  1  0
M  ISO  4  18 101  19 101  61 100  62 100
M  END
>  <TORSDO>  (14) 
F 23

>  <SCORE>  (14) 
-13.863

>  <name>  (14) 
13

>  <ligand_id>  (14) 
13

>  <original_smiles>  (14) 
[H]c1c([H])c([H])c2c(c1[H])C([H])([H])C([H])([H])C([H])([H])C2([H])N([H])C(=O)C1([H])N(C(=O)C([H])(N([H])C(=O)C([H])(N([H])C([H])([H])[H])C([H])([H])[H])C(C([H])([H])[H])(C([H])([H])[H])C([H])([H])[H])C([H])([H])c2c([H])c(OC([H])([H])C3([H])C([H])([H])C([H])([H])[N+]3([H])C([H])([H])C([H])(c3c(OC([H])([H])[H])c([H])c(C([H])([H])[H])c([H])c3C([H])([H])[H])C([H])([H])OC(=O)N3C([H])([H])C([H])([H])C([H])([H])C([H])(n4nc(-c5c([H])c([H])c(Oc6c([H])c([H])c(F)c([H])c6F)c([H])c5[H])c(C(=O)N([H])[H])c4N([H])[H])C3([H])[H])c([H])c([H])c2C1([H])[H]

>  <smiles>  (14) 
[H]c1c([H])c([H])c2c(c1[H])C([H])([H])C([H])([H])C([H])([H])C2([H])N([H])C(=O)C1([H])N(C(=O)C([H])(N([H])C(=O)C([H])(N([H])C([H])([H])[H])C([H])([H])[H])C(C([H])([H])[H])(C([H])([H])[H])C([H])([H])[H])C([H])([H])c2c([H])c(OC([H])([H])C3([H])C([H])([H])C([H])([H])[N+]3([H])C([H])([H])C([H])(c3c(OC([H])([H])[H])c([H])c(C([H])([H])[H])c([H])c3C([H])([H])[H])C([H])([H])OC(=O)N3C([H])([H])C([H])([H])C([H])([H])C([H])(n4nc(-c5c([H])c([H])c(Oc6c([H])c([H])c(F)c([H])c6F)c([H])c5[H])c(C(=O)N([H])[H])c4N([H])[H])C3([H])[H])c([H])c([H])c2C1([H])[H]

$$$$
14:0:0
     RDKit          3D

 97107  0  0  1  0  0  0  0  0999 V2000
  -30.8640  -14.8330   19.9770 C   0  0  0  0  0  0  0  0  0  0  0  0
  -30.6260  -12.5620   18.9960 C   0  0  0  0  0  2  0  0  0  0  0  0
  -29.6530  -12.5870   17.7990 C   0  0  0  0  0  2  0  0  0  0  0  0
  -28.1990  -12.4040   18.2770 C   0  0  0  0  0  2  0  0  0  0  0  0
  -27.8390  -13.3380   19.4650 C   0  0  0  0  0  3  0  0  0  0  0  0
  -28.9280  -13.3050   20.5610 C   0  0  0  0  0  2  0  0  0  0  0  0
  -30.2190  -13.6260   19.9350 N   0  0  0  0  0  0  0  0  0  0  0  0
  -31.9480  -14.9870   19.3990 O   0  0  0  0  0  0  0  0  0  0  0  0
  -30.7280  -20.4880   17.2260 C   0  0  0  0  0  2  0  0  0  0  0  0
  -30.4430  -21.6900   18.1650 C   0  0  0  0  0  2  0  0  0  0  0  0
  -28.6870  -19.3100   18.0410 C   0  0  0  0  0  2  0  0  0  0  0  0
  -31.0100  -18.6490   18.9990 C   0  0  0  0  0  2  0  0  0  0  0  0
  -29.2460  -19.6430   20.4580 C   0  0  0  0  0  2  0  0  0  0  0  0
  -31.0020  -18.0750   21.4860 C   0  0  0  0  0  2  0  0  0  0  0  0
  -29.4460  -16.9270   20.0950 C   0  0  0  0  0  2  0  0  0  0  0  0
  -30.1990  -19.1390   17.7620 C   0  0  0  0  0  3  0  0  0  0  0  0
  -28.5290  -20.2920   19.2100 C   0  0  0  0  0  3  0  0  0  0  0  0
  -28.9750  -21.7180   18.6650 C   0  0  0  0  0  3  0  0  0  0  0  0
  -31.1130  -16.5480   21.7120 C   0  0  0  0  0  3  0  0  0  0  0  0
  -30.1370  -18.3380   20.2390 C   0  0  2  0  0  0  0  0  0  0  0  0
  -30.6680  -16.1280   23.1240 C   0  0  0  0  0  1  0  0  0  0  0  0
  -30.3010  -15.8610   20.6950 N   0  0  0  0  0  0  0  0  0  0  0  0
  -25.4880  -13.9140   20.3230 C   0  0  0  0  0  0  0  0  0  0  0  0
  -24.4410  -13.1320   20.7290 C   0  0  0  0  0  0  0  0  0  0  0  0
  -24.8940  -11.7820   20.6230 C   0  0  0  0  0  0  0  0  0  0  0  0
  -26.5150  -13.0420   20.0040 N   0  0  0  0  0  0  0  0  0  0  0  0
  -26.1650  -11.7500   20.2420 N   0  0  0  0  0  0  0  0  0  0  0  0
  -24.1680  -10.5160   20.8090 C   0  0  0  0  0  0  0  0  0  0  0  0
  -24.5800   -9.5640   21.7670 C   0  0  0  0  0  3  0  0  0  0  0  0
  -23.8600   -8.3620   21.9370 C   0  0  0  0  0  3  0  0  0  0  0  0
  -22.7130   -8.1050   21.1470 C   0  0  0  0  0  0  0  0  0  0  0  0
  -22.3220   -9.0490   20.1790 C   0  0  0  0  0  3  0  0  0  0  0  0
  -23.0430  -10.2410   20.0080 C   0  0  0  0  0  3  0  0  0  0  0  0
  -21.9640   -6.9570   21.2270 O   0  0  0  0  0  0  0  0  0  0  0  0
  -21.7950   -6.2850   22.4100 C   0  0  0  0  0  0  0  0  0  0  0  0
  -21.1850   -6.8930   23.5310 C   0  0  0  0  0  3  0  0  0  0  0  0
  -20.9730   -6.1440   24.7070 C   0  0  0  0  0  3  0  0  0  0  0  0
  -21.3530   -4.7910   24.7580 C   0  0  0  0  0  0  0  0  0  0  0  0
  -21.9490   -4.1830   23.6400 C   0  0  0  0  0  3  0  0  0  0  0  0
  -22.1650   -4.9260   22.4680 C   0  0  0  0  0  0  0  0  0  0  0  0
  -22.7230   -4.3310   21.3840 F   0  0  0  0  0  0  0  0  0  0  0  0
  -21.1420   -4.0690   25.8840 F   0  0  0  0  0  0  0  0  0  0  0  0
  -23.0610  -13.6060   21.0920 C   0  0  0  0  0  0  0  0  0  0  0  0
  -22.3730  -12.8890   21.9720 N   0  0  0  0  0  0  0  0  0  0  0  0
  -22.6040  -14.6510   20.6310 O   0  0  0  0  0  0  0  0  0  0  0  0
  -22.7530  -12.0450   22.3730 H   0  0  0  0  0  0  0  0  0  0  0  0
  -21.4500  -13.1940   22.2520 H   0  0  0  0  0  0  0  0  0  0  0  0
  -25.6430  -15.2900   20.1770 N   0  0  0  0  0  0  0  0  0  0  0  0
  -24.8680  -15.9250   20.3230 H   0  0  0  0  0  0  0  0  0  0  0  0
  -26.4490  -15.7400   19.7650 H   0  0  0  0  0  0  0  0  0  0  0  0
  -28.6400  -22.9290   19.5020 N   0  0  0  0  0  4  0  0  0  0  0  0
  -29.2950  -22.9950   20.2620 H   0  0  0  0  0  0  0  0  0  0  0  0
  -27.7310  -22.7720   19.9070 H   0  0  0  0  0  0  0  0  0  0  0  0
  -28.5850  -24.2520   18.7630 C   0  0  0  0  0  2  0  0  0  0  0  0
  -29.3390  -25.9020   20.5960 C   0  0  0  0  0  1  0  0  0  0  0  0
  -28.2200  -25.5260   19.6090 C   0  0  0  0  0  3  0  0  0  0  0  0
  -28.0040  -26.7060   18.7730 O   0  0  0  0  0  0  0  0  0  0  0  0
  -24.5660  -31.5050   22.8270 C   0  0  0  0  0  0  0  0  0  0  0  0
  -26.8600  -27.4620   18.9920 C   0  0  0  0  0  0  0  0  0  0  0  0
  -23.1910  -30.3310   21.1340 C   0  0  0  0  0  3  0  0  0  0  0  0
  -24.4920  -28.9780   19.3950 C   0  0  0  0  0  0  0  0  0  0  0  0
  -25.6920  -30.7080   20.7440 C   0  0  0  0  0  2  0  0  0  0  0  0
  -25.7060  -29.4240   19.9330 C   0  0  0  0  0  0  0  0  0  0  0  0
  -26.8930  -28.6820   19.7170 C   0  0  0  0  0  3  0  0  0  0  0  0
  -25.6320  -27.0430   18.4440 C   0  0  0  0  0  3  0  0  0  0  0  0
  -24.4520  -27.7920   18.6410 C   0  0  0  0  0  3  0  0  0  0  0  0
  -23.2630  -29.8210   19.6680 C   0  0  0  0  0  2  0  0  0  0  0  0
  -24.5070  -30.8600   21.6240 N   0  0  0  0  0  0  0  0  0  0  0  0
  -23.5460  -31.7020   23.5000 O   0  0  0  0  0  0  0  0  0  0  0  0
  -22.6180  -29.1980   22.0180 C   0  0  0  0  0  0  0  0  0  0  0  0
  -21.2860  -29.0260   21.9900 N   0  0  0  0  0  0  0  0  0  0  0  0
  -23.3670  -28.4770   22.6820 O   0  0  0  0  0  0  0  0  0  0  0  0
  -20.7380  -29.6700   21.4380 H   0  0  0  0  0  0  0  0  0  0  0  0
  -17.9680  -27.7460   22.6190 C   0  0  0  0  0  0  0  0  0  0  0  0
  -20.5380  -27.9880   22.7020 C   0  0  0  0  0  3  0  0  0  0  0  0
  -20.5860  -26.6430   21.9420 C   0  0  0  0  0  2  0  0  0  0  0  0
  -19.4010  -26.4420   20.9920 C   0  0  0  0  0  2  0  0  0  0  0  0
  -18.0810  -26.4930   21.7650 C   0  0  0  0  0  2  0  0  0  0  0  0
  -19.1200  -28.4570   23.0460 C   0  0  0  0  0  0  0  0  0  0  0  0
  -18.9570  -29.6330   23.8070 C   0  0  0  0  0  3  0  0  0  0  0  0
  -17.6750  -30.1000   24.1450 C   0  0  0  0  0  3  0  0  0  0  0  0
  -16.5370  -29.3840   23.7360 C   0  0  0  0  0  3  0  0  0  0  0  0
  -16.6850  -28.2070   22.9820 C   0  0  0  0  0  3  0  0  0  0  0  0
  -25.9120  -32.0490   23.4030 C   0  0  0  0  0  3  0  0  0  0  0  0
  -25.6500  -33.3850   23.9580 N   0  0  0  0  0  0  0  0  0  0  0  0
  -25.9540  -34.5380   23.3500 C   0  0  0  0  0  0  0  0  0  0  0  0
  -26.5560  -34.5880   22.2730 O   0  0  0  0  0  0  0  0  0  0  0  0
  -25.1260  -33.4210   24.8190 H   0  0  0  0  0  0  0  0  0  0  0  0
  -24.2470  -36.3860   23.3740 C   0  0  0  0  0  1  0  0  0  0  0  0
  -25.5200  -35.8440   24.0430 C   0  0  0  0  0  3  0  0  0  0  0  0
  -27.7090  -36.5670   24.8930 C   0  0  0  0  0  1  0  0  0  0  0  0
  -26.5680  -36.8890   24.0410 N   0  0  0  0  0  0  0  0  0  0  0  0
  -26.1880  -37.7800   24.3450 H   0  0  0  0  0  0  0  0  0  0  0  0
  -26.5520  -31.1080   24.4970 C   0  0  1  0  0  0  0  0  0  0  0  0
  -25.5800  -30.7220   25.6340 C   0  0  0  0  0  1  0  0  0  0  0  0
  -27.0690  -29.8010   23.8510 C   0  0  0  0  0  1  0  0  0  0  0  0
  -27.7780  -31.8020   25.1350 C   0  0  0  0  0  1  0  0  0  0  0  0
  1 22  1  0
  2  7  1  0
  3  4  1  0
  3  2  1  0
  5  4  1  0
  5 26  1  0
  5  6  1  0
  7  1  1  0
  7  6  1  0
  8  1  2  0
  9 10  1  0
 10 18  1  0
 14 19  1  0
 20 15  1  6
 15 22  1  0
 16  9  1  0
 16 11  1  0
 16 12  1  0
 17 11  1  0
 17 13  1  0
 18 17  1  0
 18 51  1  0
 19 21  1  0
 20 12  1  0
 20 13  1  0
 20 14  1  0
 22 19  1  0
 23 24  2  0
 24 43  1  0
 25 24  1  0
 25 28  1  0
 26 27  1  0
 26 23  1  0
 27 25  2  0
 28 29  1  0
 29 30  2  0
 31 34  1  0
 31 30  1  0
 32 31  2  0
 33 32  1  0
 33 28  2  0
 34 35  1  0
 35 40  2  0
 35 36  1  0
 36 37  2  0
 37 38  1  0
 38 42  1  0
 39 38  2  0
 40 39  1  0
 41 40  1  0
 43 44  1  0
 44 47  1  0
 44 46  1  0
 45 43  2  0
 48 49  1  0
 48 23  1  0
 50 48  1  0
 51 53  1  0
 51 52  1  0
 54 51  1  0
 54 56  1  0
 56 55  1  0
 57 59  1  0
 57 56  1  0
 58 69  2  0
 59 64  1  0
 60 68  1  0
 60 70  1  0
 61 67  1  0
 61 63  1  0
 62 68  1  0
 63 62  1  0
 64 63  2  0
 65 66  1  0
 65 59  2  0
 66 61  2  0
 67 60  1  0
 68 58  1  0
 70 72  2  0
 71 70  1  0
 73 71  1  0
 74 83  2  0
 74 79  1  0
 75 71  1  0
 75 79  1  0
 76 75  1  0
 77 78  1  0
 77 76  1  0
 78 74  1  0
 79 80  2  0
 80 81  1  0
 82 81  2  0
 83 82  1  0
 84 58  1  0
 84 85  1  0
 84 94  1  0
 85 88  1  0
 86 85  1  0
 86 90  1  0
 87 86  2  0
 90 89  1  0
 92 90  1  0
 92 93  1  0
 92 91  1  0
 94 97  1  1
 94 95  1  0
 96 94  1  0
M  ISO  4   1 100  22 100  56 101  57 101
M  END
>  <TORSDO>  (15) 
F 18

>  <SCORE>  (15) 
-12.037

>  <name>  (15) 
14

>  <ligand_id>  (15) 
14

>  <original_smiles>  (15) 
[H]c1c([H])c([H])c2c(c1[H])C([H])([H])C([H])([H])C([H])([H])C2([H])N([H])C(=O)C1([H])N(C(=O)C([H])(N([H])C(=O)C([H])(N([H])C([H])([H])[H])C([H])([H])[H])C(C([H])([H])[H])(C([H])([H])[H])C([H])([H])[H])C([H])([H])c2c([H])c(OC([H])(C([H])([H])[H])C([H])([H])[N+]([H])([H])C3([H])C([H])([H])C([H])([H])C4([H])C([H])([H])C3([H])C([H])([H])C3(C([H])([H])N(C(=O)N5C([H])([H])C([H])([H])C([H])([H])C([H])(n6nc(-c7c([H])c([H])c(Oc8c([H])c([H])c(F)c([H])c8F)c([H])c7[H])c(C(=O)N([H])[H])c6N([H])[H])C5([H])[H])C([H])(C([H])([H])[H])C3([H])[H])C4([H])[H])c([H])c([H])c2C1([H])[H]

>  <smiles>  (15) 
[H]c1c([H])c([H])c2c(c1[H])C([H])([H])C([H])([H])C([H])([H])C2([H])N([H])C(=O)C1([H])N(C(=O)C([H])(N([H])C(=O)C([H])(N([H])C([H])([H])[H])C([H])([H])[H])C(C([H])([H])[H])(C([H])([H])[H])C([H])([H])[H])C([H])([H])c2c([H])c(OC([H])(C([H])([H])[H])C([H])([H])[N+]([H])([H])C3([H])C([H])([H])C([H])([H])C4([H])C([H])([H])C3([H])C([H])([H])C3(C([H])([H])N(C(=O)N5C([H])([H])C([H])([H])C([H])([H])C([H])(n6nc(-c7c([H])c([H])c(Oc8c([H])c([H])c(F)c([H])c8F)c([H])c7[H])c(C(=O)N([H])[H])c6N([H])[H])C5([H])[H])C([H])(C([H])([H])[H])C3([H])[H])C4([H])[H])c([H])c([H])c2C1([H])[H]

$$$$
15:0:0
     RDKit          3D

 90 99  0  0  1  0  0  0  0  0999 V2000
  -29.3600  -22.1700   18.9340 C   0  0  0  0  0  3  0  0  0  0  0  0
  -28.7660  -20.5920   21.1240 C   0  0  0  0  0  3  0  0  0  0  0  0
  -29.7300  -20.7360   19.0330 C   0  0  0  0  0  0  0  0  0  0  0  0
  -29.4520  -19.8290   20.0980 C   0  0  0  0  0  0  0  0  0  0  0  0
  -28.3890  -22.0350   21.0430 C   0  0  0  0  0  0  0  0  0  0  0  0
  -28.6500  -22.9640   19.9340 C   0  0  0  0  0  0  0  0  0  0  0  0
  -30.5350  -19.9730   18.0010 C   0  0  0  0  0  2  0  0  0  0  0  0
  -30.6290  -18.4700   18.4560 C   0  0  0  0  0  2  0  0  0  0  0  0
  -30.1870  -18.2910   19.9370 C   0  0  0  0  0  3  0  0  0  0  0  0
  -27.6300  -22.5810   22.2390 C   0  0  0  0  0  1  0  0  0  0  0  0
  -30.5380  -15.4300   20.1020 C   0  0  0  0  0  0  0  0  0  0  0  0
  -30.4690  -12.9900   19.2600 C   0  0  0  0  0  2  0  0  0  0  0  0
  -29.5400  -12.8020   18.0350 C   0  0  0  0  0  2  0  0  0  0  0  0
  -28.0910  -12.5500   18.4880 C   0  0  0  0  0  2  0  0  0  0  0  0
  -27.6580  -13.5210   19.6160 C   0  0  0  0  0  3  0  0  0  0  0  0
  -28.7170  -13.6670   20.7300 C   0  0  0  0  0  2  0  0  0  0  0  0
  -29.9500  -14.1400   20.0840 N   0  0  0  0  0  0  0  0  0  0  0  0
  -31.7480  -15.4190   19.8400 O   0  0  0  0  0  0  0  0  0  0  0  0
  -29.8050  -16.7060   20.2010 N   0  0  0  0  0  0  0  0  0  0  0  0
  -28.8270  -16.5700   20.4120 H   0  0  0  0  0  0  0  0  0  0  0  0
  -25.2950  -14.0850   20.3940 C   0  0  0  0  0  0  0  0  0  0  0  0
  -24.2370  -13.3110   20.7780 C   0  0  0  0  0  0  0  0  0  0  0  0
  -24.7020  -11.9600   20.7470 C   0  0  0  0  0  0  0  0  0  0  0  0
  -26.3340  -13.2090   20.1400 N   0  0  0  0  0  0  0  0  0  0  0  0
  -25.9900  -11.9240   20.4210 N   0  0  0  0  0  0  0  0  0  0  0  0
  -23.9760  -10.6990   20.9490 C   0  0  0  0  0  0  0  0  0  0  0  0
  -24.3970   -9.7460   21.9020 C   0  0  0  0  0  3  0  0  0  0  0  0
  -23.6680   -8.5520   22.0920 C   0  0  0  0  0  3  0  0  0  0  0  0
  -22.5020   -8.3030   21.3290 C   0  0  0  0  0  0  0  0  0  0  0  0
  -22.0990   -9.2460   20.3660 C   0  0  0  0  0  3  0  0  0  0  0  0
  -22.8290  -10.4300   20.1750 C   0  0  0  0  0  3  0  0  0  0  0  0
  -21.7440   -7.1610   21.4270 O   0  0  0  0  0  0  0  0  0  0  0  0
  -21.6650   -6.4480   22.5980 C   0  0  0  0  0  0  0  0  0  0  0  0
  -21.1560   -7.0210   23.7850 C   0  0  0  0  0  3  0  0  0  0  0  0
  -21.0260   -6.2330   24.9460 C   0  0  0  0  0  3  0  0  0  0  0  0
  -21.3940   -4.8750   24.9210 C   0  0  0  0  0  0  0  0  0  0  0  0
  -21.8960   -4.3020   23.7380 C   0  0  0  0  0  3  0  0  0  0  0  0
  -22.0270   -5.0870   22.5790 C   0  0  0  0  0  0  0  0  0  0  0  0
  -22.4910   -4.5250   21.4370 F   0  0  0  0  0  0  0  0  0  0  0  0
  -21.2630   -4.1150   26.0330 F   0  0  0  0  0  0  0  0  0  0  0  0
  -22.8430  -13.7910   21.0580 C   0  0  0  0  0  0  0  0  0  0  0  0
  -22.1270  -13.1110   21.9460 N   0  0  0  0  0  0  0  0  0  0  0  0
  -22.3990  -14.8060   20.5230 O   0  0  0  0  0  0  0  0  0  0  0  0
  -22.5000  -12.2910   22.4010 H   0  0  0  0  0  0  0  0  0  0  0  0
  -21.1920  -13.4170   22.1750 H   0  0  0  0  0  0  0  0  0  0  0  0
  -25.4550  -15.4560   20.2090 N   0  0  0  0  0  0  0  0  0  0  0  0
  -24.6840  -16.1050   20.3230 H   0  0  0  0  0  0  0  0  0  0  0  0
  -26.2870  -15.8930   19.8360 H   0  0  0  0  0  0  0  0  0  0  0  0
  -27.9150  -24.5240   19.6730 C   0  0  0  0  0  2  0  0  0  0  0  0
  -28.2580  -26.0860   19.9860 O   0  0  0  0  0  0  0  0  0  0  0  0
  -24.6490  -31.8690   23.1750 C   0  0  0  0  0  0  0  0  0  0  0  0
  -27.2450  -27.1740   19.9530 C   0  0  0  0  0  0  0  0  0  0  0  0
  -23.4540  -30.5120   21.5040 C   0  0  0  0  0  3  0  0  0  0  0  0
  -24.9100  -28.9940   20.0040 C   0  0  0  0  0  0  0  0  0  0  0  0
  -26.0130  -30.7830   21.3280 C   0  0  0  0  0  2  0  0  0  0  0  0
  -26.1000  -29.4020   20.6220 C   0  0  0  0  0  0  0  0  0  0  0  0
  -27.2610  -28.5120   20.5770 C   0  0  0  0  0  3  0  0  0  0  0  0
  -26.0250  -26.9180   19.2840 C   0  0  0  0  0  3  0  0  0  0  0  0
  -24.8960  -27.7740   19.3140 C   0  0  0  0  0  3  0  0  0  0  0  0
  -23.6740  -29.8850   20.1010 C   0  0  0  0  0  2  0  0  0  0  0  0
  -24.7270  -31.0790   22.0570 N   0  0  0  0  0  0  0  0  0  0  0  0
  -23.5630  -32.1190   23.7220 O   0  0  0  0  0  0  0  0  0  0  0  0
  -22.7940  -29.4670   22.4410 C   0  0  0  0  0  0  0  0  0  0  0  0
  -21.4670  -29.2780   22.3250 N   0  0  0  0  0  0  0  0  0  0  0  0
  -23.4830  -28.8290   23.2420 O   0  0  0  0  0  0  0  0  0  0  0  0
  -20.9630  -29.8460   21.6580 H   0  0  0  0  0  0  0  0  0  0  0  0
  -18.1130  -27.9960   22.8390 C   0  0  0  0  0  0  0  0  0  0  0  0
  -20.6720  -28.3000   23.0740 C   0  0  0  0  0  3  0  0  0  0  0  0
  -20.7890  -26.8910   22.4480 C   0  0  0  0  0  2  0  0  0  0  0  0
  -19.6780  -26.5850   21.4390 C   0  0  0  0  0  2  0  0  0  0  0  0
  -18.3050  -26.6770   22.1100 C   0  0  0  0  0  2  0  0  0  0  0  0
  -19.2240  -28.7650   23.2790 C   0  0  0  0  0  0  0  0  0  0  0  0
  -18.9870  -29.9970   23.9250 C   0  0  0  0  0  3  0  0  0  0  0  0
  -17.6740  -30.4620   24.1350 C   0  0  0  0  0  3  0  0  0  0  0  0
  -16.5800  -29.6900   23.7080 C   0  0  0  0  0  3  0  0  0  0  0  0
  -16.8000  -28.4580   23.0670 C   0  0  0  0  0  3  0  0  0  0  0  0
  -25.9190  -32.5100   23.8110 C   0  0  0  0  0  3  0  0  0  0  0  0
  -25.6000  -33.9080   24.1470 N   0  0  0  0  0  0  0  0  0  0  0  0
  -25.9060  -34.9690   23.3860 C   0  0  0  0  0  0  0  0  0  0  0  0
  -26.5480  -34.8730   22.3390 O   0  0  0  0  0  0  0  0  0  0  0  0
  -25.0260  -34.0550   24.9630 H   0  0  0  0  0  0  0  0  0  0  0  0
  -24.1460  -36.7480   23.1030 C   0  0  0  0  0  1  0  0  0  0  0  0
  -25.4230  -36.3550   23.8620 C   0  0  0  0  0  3  0  0  0  0  0  0
  -27.5750  -37.2730   24.6120 C   0  0  0  0  0  1  0  0  0  0  0  0
  -26.4380  -37.4200   23.7070 N   0  0  0  0  0  0  0  0  0  0  0  0
  -26.0250  -38.3350   23.8640 H   0  0  0  0  0  0  0  0  0  0  0  0
  -26.4200  -31.7430   25.0980 C   0  0  1  0  0  0  0  0  0  0  0  0
  -25.3150  -31.5090   26.1550 C   0  0  0  0  0  1  0  0  0  0  0  0
  -27.0090  -30.3630   24.7240 C   0  0  0  0  0  1  0  0  0  0  0  0
  -27.5630  -32.5400   25.7690 C   0  0  0  0  0  1  0  0  0  0  0  0
  1  3  2  0
  1  6  1  0
  3  4  1  0
  4  2  2  0
  5  2  1  0
  5 10  1  0
  6  5  2  0
  7  8  1  0
  7  3  1  0
  8  9  1  0
  9  4  1  0
  9 19  1  0
 11 19  1  0
 12 17  1  0
 13 14  1  0
 13 12  1  0
 15 14  1  0
 15 24  1  0
 15 16  1  0
 17 11  1  0
 17 16  1  0
 18 11  2  0
 19 20  1  0
 21 22  2  0
 22 41  1  0
 23 22  1  0
 23 26  1  0
 24 21  1  0
 24 25  1  0
 25 23  2  0
 26 27  1  0
 27 28  2  0
 29 32  1  0
 29 28  1  0
 30 29  2  0
 31 30  1  0
 31 26  2  0
 32 33  1  0
 33 34  1  0
 34 35  2  0
 36 35  1  0
 36 40  1  0
 37 36  2  0
 38 33  2  0
 38 37  1  0
 39 38  1  0
 41 42  1  0
 42 45  1  0
 42 44  1  0
 43 41  2  0
 46 47  1  0
 46 21  1  0
 48 46  1  0
 49  6  1  0
 49 50  1  0
 51 62  2  0
 52 50  1  0
 52 57  1  0
 53 61  1  0
 53 63  1  0
 54 60  1  0
 54 56  1  0
 55 61  1  0
 56 55  1  0
 57 56  2  0
 58 59  1  0
 58 52  2  0
 59 54  2  0
 60 53  1  0
 61 51  1  0
 63 65  2  0
 64 63  1  0
 66 64  1  0
 67 76  2  0
 67 72  1  0
 68 64  1  0
 68 72  1  0
 69 68  1  0
 70 71  1  0
 70 69  1  0
 71 67  1  0
 72 73  2  0
 73 74  1  0
 75 74  2  0
 76 75  1  0
 77 51  1  0
 77 78  1  0
 77 87  1  0
 78 81  1  0
 79 83  1  0
 79 78  1  0
 80 79  2  0
 83 82  1  0
 85 83  1  0
 85 86  1  0
 85 84  1  0
 87 90  1  1
 87 88  1  0
 89 87  1  0
M  ISO  4  11 100  19 100  49 101  50 101
M  END
>  <TORSDO>  (16) 
F 17

>  <SCORE>  (16) 
-15.217

>  <name>  (16) 
15

>  <ligand_id>  (16) 
15

>  <original_smiles>  (16) 
[H]c1c([H])c([H])c2c(c1[H])C([H])([H])C([H])([H])C([H])([H])C2([H])N([H])C(=O)C1([H])N(C(=O)C([H])(N([H])C(=O)C([H])(N([H])C([H])([H])[H])C([H])([H])[H])C(C([H])([H])[H])(C([H])([H])[H])C([H])([H])[H])C([H])([H])c2c([H])c(OC([H])([H])c3c([H])c4c(c([H])c3C([H])([H])[H])C([H])(N([H])C(=O)N3C([H])([H])C([H])([H])C([H])([H])C([H])(n5nc(-c6c([H])c([H])c(Oc7c([H])c([H])c(F)c([H])c7F)c([H])c6[H])c(C(=O)N([H])[H])c5N([H])[H])C3([H])[H])C([H])([H])C4([H])[H])c([H])c([H])c2C1([H])[H]

>  <smiles>  (16) 
[H]c1c([H])c([H])c2c(c1[H])C([H])([H])C([H])([H])C([H])([H])C2([H])N([H])C(=O)C1([H])N(C(=O)C([H])(N([H])C(=O)C([H])(N([H])C([H])([H])[H])C([H])([H])[H])C(C([H])([H])[H])(C([H])([H])[H])C([H])([H])[H])C([H])([H])c2c([H])c(OC([H])([H])c3c([H])c4c(c([H])c3C([H])([H])[H])C([H])(N([H])C(=O)N3C([H])([H])C([H])([H])C([H])([H])C([H])(n5nc(-c6c([H])c([H])c(Oc7c([H])c([H])c(F)c([H])c7F)c([H])c6[H])c(C(=O)N([H])[H])c5N([H])[H])C3([H])[H])C([H])([H])C4([H])[H])c([H])c([H])c2C1([H])[H]

$$$$
16:0:0
     RDKit          3D

 90 99  0  0  1  0  0  0  0  0999 V2000
  -30.9780  -15.1550   20.2250 C   0  0  0  0  0  0  0  0  0  0  0  0
  -30.7950  -12.7660   19.3230 C   0  0  0  0  0  2  0  0  0  0  0  0
  -29.9020  -12.6960   18.0560 C   0  0  0  0  0  2  0  0  0  0  0  0
  -28.4200  -12.5200   18.4390 C   0  0  0  0  0  2  0  0  0  0  0  0
  -28.0040  -13.4830   19.5850 C   0  0  0  0  0  3  0  0  0  0  0  0
  -29.0330  -13.5280   20.7370 C   0  0  0  0  0  2  0  0  0  0  0  0
  -30.3270  -13.9110   20.1690 N   0  0  0  0  0  0  0  0  0  0  0  0
  -32.1480  -15.1600   19.8130 O   0  0  0  0  0  0  0  0  0  0  0  0
  -30.3820  -18.5490   21.8170 C   0  0  0  0  0  2  0  0  0  0  0  0
  -28.4310  -19.5430   20.4210 C   0  0  0  0  0  2  0  0  0  0  0  0
  -30.1060  -16.9840   21.8360 C   0  0  0  0  0  2  0  0  0  0  0  0
  -30.3700  -17.7470   19.6720 C   0  0  0  0  0  2  0  0  0  0  0  0
  -30.5120  -20.6950   20.1540 C   0  0  0  0  0  2  0  0  0  0  0  0
  -28.1850  -21.1200   20.2740 C   0  0  0  0  0  3  0  0  0  0  0  0
  -29.9370  -19.1550   20.4590 C   0  0  2  0  0  0  0  0  0  0  0  0
  -27.5610  -21.7720   21.5330 C   0  0  0  0  0  1  0  0  0  0  0  0
  -30.3050  -16.4120   20.4750 N   0  0  0  0  0  0  0  0  0  0  0  0
  -29.4410  -21.8040   19.8330 N   0  0  1  0  0  4  0  0  0  0  0  0
  -29.3880  -21.7600   18.8260 H   0  0  0  0  0  0  0  0  0  0  0  0
  -25.6420  -14.1240   20.3210 C   0  0  0  0  0  0  0  0  0  0  0  0
  -24.5430  -13.3810   20.6690 C   0  0  0  0  0  0  0  0  0  0  0  0
  -24.9590  -12.0150   20.6140 C   0  0  0  0  0  0  0  0  0  0  0  0
  -26.6520  -13.2130   20.0680 N   0  0  0  0  0  0  0  0  0  0  0  0
  -26.2490  -11.9360   20.3040 N   0  0  0  0  0  0  0  0  0  0  0  0
  -24.1800  -10.7790   20.7770 C   0  0  0  0  0  0  0  0  0  0  0  0
  -24.6130   -9.7420   21.6310 C   0  0  0  0  0  3  0  0  0  0  0  0
  -23.8380   -8.5740   21.7910 C   0  0  0  0  0  3  0  0  0  0  0  0
  -22.6130   -8.4330   21.0950 C   0  0  0  0  0  0  0  0  0  0  0  0
  -22.1960   -9.4600   20.2310 C   0  0  0  0  0  3  0  0  0  0  0  0
  -22.9720  -10.6200   20.0690 C   0  0  0  0  0  3  0  0  0  0  0  0
  -21.8050   -7.3250   21.1680 O   0  0  0  0  0  0  0  0  0  0  0  0
  -21.8670   -6.4560   22.2280 C   0  0  0  0  0  0  0  0  0  0  0  0
  -21.6500   -6.8820   23.5550 C   0  0  0  0  0  3  0  0  0  0  0  0
  -21.6550   -5.9420   24.6070 C   0  0  0  0  0  3  0  0  0  0  0  0
  -21.8670   -4.5790   24.3300 C   0  0  0  0  0  0  0  0  0  0  0  0
  -22.0820   -4.1520   23.0090 C   0  0  0  0  0  3  0  0  0  0  0  0
  -22.0780   -5.0890   21.9600 C   0  0  0  0  0  0  0  0  0  0  0  0
  -22.2630   -4.6660   20.6860 F   0  0  0  0  0  0  0  0  0  0  0  0
  -21.8660   -3.6770   25.3410 F   0  0  0  0  0  0  0  0  0  0  0  0
  -23.1660  -13.9100   20.9410 C   0  0  0  0  0  0  0  0  0  0  0  0
  -22.4210  -13.2500   21.8260 N   0  0  0  0  0  0  0  0  0  0  0  0
  -22.7590  -14.9380   20.4100 O   0  0  0  0  0  0  0  0  0  0  0  0
  -22.7640  -12.4180   22.2810 H   0  0  0  0  0  0  0  0  0  0  0  0
  -21.4930  -13.5820   22.0440 H   0  0  0  0  0  0  0  0  0  0  0  0
  -25.8530  -15.4900   20.1730 N   0  0  0  0  0  0  0  0  0  0  0  0
  -25.1070  -16.1680   20.2870 H   0  0  0  0  0  0  0  0  0  0  0  0
  -26.7280  -15.9120   19.8880 H   0  0  0  0  0  0  0  0  0  0  0  0
  -29.6370  -23.3970   20.1080 C   0  0  0  0  0  3  0  0  0  0  0  0
  -28.6070  -24.6850   19.6020 C   0  0  0  0  0  3  0  0  0  0  0  0
  -28.6830  -26.2410   19.9170 O   0  0  0  0  0  0  0  0  0  0  0  0
  -24.6880  -31.5970   23.0860 C   0  0  0  0  0  0  0  0  0  0  0  0
  -27.5800  -27.1930   19.8350 C   0  0  0  0  0  0  0  0  0  0  0  0
  -23.5980  -30.2550   21.3270 C   0  0  0  0  0  3  0  0  0  0  0  0
  -25.1580  -28.8400   19.8350 C   0  0  0  0  0  0  0  0  0  0  0  0
  -26.1400  -30.6440   21.2480 C   0  0  0  0  0  2  0  0  0  0  0  0
  -26.3000  -29.3010   20.5020 C   0  0  0  0  0  0  0  0  0  0  0  0
  -27.5080  -28.5000   20.4790 C   0  0  0  0  0  3  0  0  0  0  0  0
  -26.4080  -26.8490   19.1200 C   0  0  0  0  0  3  0  0  0  0  0  0
  -25.2270  -27.6300   19.1210 C   0  0  0  0  0  3  0  0  0  0  0  0
  -23.8840  -29.6740   19.9150 C   0  0  0  0  0  2  0  0  0  0  0  0
  -24.8250  -30.8580   21.9390 N   0  0  0  0  0  0  0  0  0  0  0  0
  -23.5770  -31.7900   23.6010 O   0  0  0  0  0  0  0  0  0  0  0  0
  -22.9440  -29.1620   22.2080 C   0  0  0  0  0  0  0  0  0  0  0  0
  -21.6120  -28.9970   22.0970 N   0  0  0  0  0  0  0  0  0  0  0  0
  -23.6390  -28.4610   22.9460 O   0  0  0  0  0  0  0  0  0  0  0  0
  -21.1050  -29.6210   21.4830 H   0  0  0  0  0  0  0  0  0  0  0  0
  -18.2490  -27.7210   22.5850 C   0  0  0  0  0  0  0  0  0  0  0  0
  -20.8170  -27.9820   22.7960 C   0  0  0  0  0  3  0  0  0  0  0  0
  -20.9030  -26.6120   22.0820 C   0  0  0  0  0  2  0  0  0  0  0  0
  -19.7740  -26.3820   21.0720 C   0  0  0  0  0  2  0  0  0  0  0  0
  -18.4130  -26.4490   21.7700 C   0  0  0  0  0  2  0  0  0  0  0  0
  -19.3770  -28.4480   23.0540 C   0  0  0  0  0  0  0  0  0  0  0  0
  -19.1680  -29.6360   23.7840 C   0  0  0  0  0  3  0  0  0  0  0  0
  -17.8660  -30.1050   24.0430 C   0  0  0  0  0  3  0  0  0  0  0  0
  -16.7540  -29.3790   23.5830 C   0  0  0  0  0  3  0  0  0  0  0  0
  -16.9480  -28.1850   22.8640 C   0  0  0  0  0  3  0  0  0  0  0  0
  -25.9140  -32.2510   23.7920 C   0  0  0  0  0  3  0  0  0  0  0  0
  -25.5390  -33.6300   24.1520 N   0  0  0  0  0  0  0  0  0  0  0  0
  -25.8870  -34.7220   23.4600 C   0  0  0  0  0  0  0  0  0  0  0  0
  -26.6200  -34.6760   22.4670 O   0  0  0  0  0  0  0  0  0  0  0  0
  -24.8870  -33.7370   24.9150 H   0  0  0  0  0  0  0  0  0  0  0  0
  -24.1300  -36.4890   23.0910 C   0  0  0  0  0  1  0  0  0  0  0  0
  -25.3420  -36.0820   23.9450 C   0  0  0  0  0  3  0  0  0  0  0  0
  -27.4070  -36.9950   24.9150 C   0  0  0  0  0  1  0  0  0  0  0  0
  -26.3510  -37.1640   23.9200 N   0  0  0  0  0  0  0  0  0  0  0  0
  -25.9150  -38.0690   24.0720 H   0  0  0  0  0  0  0  0  0  0  0  0
  -26.3850  -31.4630   25.0770 C   0  0  1  0  0  0  0  0  0  0  0  0
  -25.2520  -31.2040   26.1010 C   0  0  0  0  0  1  0  0  0  0  0  0
  -26.9940  -30.0940   24.6950 C   0  0  0  0  0  1  0  0  0  0  0  0
  -27.5000  -32.2580   25.7980 C   0  0  0  0  0  1  0  0  0  0  0  0
  1 17  1  0
  2  7  1  0
  3  4  1  0
  3  2  1  0
  5  4  1  0
  5 23  1  0
  5  6  1  0
  7  1  1  0
  7  6  1  0
  8  1  2  0
  9 11  1  0
 15 10  1  1
 12 17  1  0
 13 15  1  0
 14 10  1  0
 14 16  1  0
 15 12  1  0
 15  9  1  0
 17 11  1  0
 18 48  1  0
 18 13  1  0
 18 14  1  0
 18 19  1  6
 20 21  2  0
 21 40  1  0
 22 21  1  0
 22 25  1  0
 23 24  1  0
 23 20  1  0
 24 22  2  0
 25 26  1  0
 26 27  2  0
 28 31  1  0
 28 27  1  0
 29 28  2  0
 30 29  1  0
 30 25  2  0
 31 32  1  0
 32 33  1  0
 33 34  2  0
 35 34  1  0
 35 39  1  0
 36 35  2  0
 37 32  2  0
 37 36  1  0
 38 37  1  0
 40 41  1  0
 41 44  1  0
 41 43  1  0
 42 40  2  0
 45 46  1  0
 45 20  1  0
 47 45  1  0
 49 50  1  0
 49 48  2  0
 51 62  2  0
 52 50  1  0
 52 57  1  0
 53 61  1  0
 53 63  1  0
 54 60  1  0
 54 56  1  0
 55 61  1  0
 56 55  1  0
 57 56  2  0
 58 59  1  0
 58 52  2  0
 59 54  2  0
 60 53  1  0
 61 51  1  0
 63 65  2  0
 64 63  1  0
 66 64  1  0
 67 76  2  0
 67 72  1  0
 68 64  1  0
 68 72  1  0
 69 68  1  0
 70 71  1  0
 70 69  1  0
 71 67  1  0
 72 73  2  0
 73 74  1  0
 75 74  2  0
 76 75  1  0
 77 51  1  0
 77 78  1  0
 77 87  1  0
 78 81  1  0
 79 83  1  0
 79 78  1  0
 80 79  2  0
 83 82  1  0
 85 83  1  0
 85 86  1  0
 85 84  1  0
 87 90  1  1
 87 88  1  0
 89 87  1  0
M  ISO  4   1 100  17 100  49 101  50 101
M  END
>  <TORSDO>  (17) 
F 17

>  <SCORE>  (17) 
-14.523

>  <name>  (17) 
16

>  <ligand_id>  (17) 
16

>  <original_smiles>  (17) 
[H]c1c([H])c([H])c2c(c1[H])C([H])([H])C([H])([H])C([H])([H])C2([H])N([H])C(=O)C1([H])N(C(=O)C([H])(N([H])C(=O)C([H])(N([H])C([H])([H])[H])C([H])([H])[H])C(C([H])([H])[H])(C([H])([H])[H])C([H])([H])[H])C([H])([H])c2c([H])c(OC([H])([H])C([H])([H])[N+]3([H])C([H])([H])C4(C([H])([H])N(C(=O)N5C([H])([H])C([H])([H])C([H])([H])C([H])(n6nc(-c7c([H])c([H])c(Oc8c([H])c([H])c(F)c([H])c8F)c([H])c7[H])c(C(=O)N([H])[H])c6N([H])[H])C5([H])[H])C([H])([H])C4([H])[H])C([H])([H])C3([H])C([H])([H])[H])c([H])c([H])c2C1([H])[H]

>  <smiles>  (17) 
[H]c1c([H])c([H])c2c(c1[H])C([H])([H])C([H])([H])C([H])([H])C2([H])N([H])C(=O)C1([H])N(C(=O)C([H])(N([H])C(=O)C([H])(N([H])C([H])([H])[H])C([H])([H])[H])C(C([H])([H])[H])(C([H])([H])[H])C([H])([H])[H])C([H])([H])c2c([H])c(OC([H])([H])C([H])([H])[N+]3([H])C([H])([H])C4(C([H])([H])N(C(=O)N5C([H])([H])C([H])([H])C([H])([H])C([H])(n6nc(-c7c([H])c([H])c(Oc8c([H])c([H])c(F)c([H])c8F)c([H])c7[H])c(C(=O)N([H])[H])c6N([H])[H])C5([H])[H])C([H])([H])C4([H])[H])C([H])([H])C3([H])C([H])([H])[H])c([H])c([H])c2C1([H])[H]

$$$$
17:0:0
     RDKit          3D

 94103  0  0  1  0  0  0  0  0999 V2000
  -29.3470  -19.8640   20.7760 C   0  0  0  0  0  3  0  0  0  0  0  0
  -30.1940  -20.9960   18.8190 C   0  0  0  0  0  0  0  0  0  0  0  0
  -29.4590  -21.1150   20.0450 C   0  0  0  0  0  0  0  0  0  0  0  0
  -29.8680  -18.6020   20.2900 C   0  0  0  0  0  0  0  0  0  0  0  0
  -30.5490  -19.6940   18.3550 C   0  0  0  0  0  0  0  0  0  0  0  0
  -30.3970  -18.5510   19.0630 N   0  0  0  0  0  0  0  0  0  0  0  0
  -32.0610  -22.2240   17.3950 C   0  0  0  0  0  2  0  0  0  0  0  0
  -31.6550  -23.1910   18.4620 C   0  0  0  0  0  2  0  0  0  0  0  0
  -30.6460  -22.1660   17.9690 C   0  0  0  0  0  3  0  0  0  0  0  0
  -31.5550  -18.2670   16.6770 C   0  0  0  0  0  1  0  0  0  0  0  0
  -31.1100  -19.5570   17.0990 O   0  0  0  0  0  0  0  0  0  0  0  0
  -30.0830  -17.2790   21.1450 C   0  0  0  0  0  2  0  0  0  0  0  0
  -30.5670  -14.7750   20.4000 C   0  0  0  0  0  0  0  0  0  0  0  0
  -30.4000  -12.5090   19.3400 C   0  0  0  0  0  2  0  0  0  0  0  0
  -29.4460  -12.5590   18.1250 C   0  0  0  0  0  2  0  0  0  0  0  0
  -27.9790  -12.3810   18.5670 C   0  0  0  0  0  2  0  0  0  0  0  0
  -27.6040  -13.2680   19.7850 C   0  0  0  0  0  3  0  0  0  0  0  0
  -28.6690  -13.1670   20.8960 C   0  0  0  0  0  2  0  0  0  0  0  0
  -29.9550  -13.5460   20.2950 N   0  0  0  0  0  0  0  0  0  0  0  0
  -31.7610  -14.8990   20.1150 O   0  0  0  0  0  0  0  0  0  0  0  0
  -29.7610  -15.8700   20.6600 N   0  0  0  0  0  0  0  0  0  0  0  0
  -28.7830  -15.6430   20.7300 H   0  0  0  0  0  0  0  0  0  0  0  0
  -25.2160  -13.8540   20.5160 C   0  0  0  0  0  0  0  0  0  0  0  0
  -24.1540  -13.0750   20.8880 C   0  0  0  0  0  0  0  0  0  0  0  0
  -24.6240  -11.7270   20.8610 C   0  0  0  0  0  0  0  0  0  0  0  0
  -26.2630  -12.9770   20.2790 N   0  0  0  0  0  0  0  0  0  0  0  0
  -25.9140  -11.6940   20.5520 N   0  0  0  0  0  0  0  0  0  0  0  0
  -23.9040  -10.4620   21.0520 C   0  0  0  0  0  0  0  0  0  0  0  0
  -24.3470   -9.4930   21.9800 C   0  0  0  0  0  3  0  0  0  0  0  0
  -23.6270   -8.2920   22.1590 C   0  0  0  0  0  3  0  0  0  0  0  0
  -22.4490   -8.0520   21.4110 C   0  0  0  0  0  0  0  0  0  0  0  0
  -22.0260   -9.0080   20.4710 C   0  0  0  0  0  3  0  0  0  0  0  0
  -22.7470  -10.2010   20.2900 C   0  0  0  0  0  3  0  0  0  0  0  0
  -21.6990   -6.9040   21.5000 O   0  0  0  0  0  0  0  0  0  0  0  0
  -21.6670   -6.1540   22.6470 C   0  0  0  0  0  0  0  0  0  0  0  0
  -21.2640   -6.6990   23.8860 C   0  0  0  0  0  3  0  0  0  0  0  0
  -21.1810   -5.8740   25.0260 C   0  0  0  0  0  3  0  0  0  0  0  0
  -21.4910   -4.5050   24.9290 C   0  0  0  0  0  0  0  0  0  0  0  0
  -21.8870   -3.9580   23.6950 C   0  0  0  0  0  3  0  0  0  0  0  0
  -21.9730   -4.7810   22.5580 C   0  0  0  0  0  0  0  0  0  0  0  0
  -22.3350   -4.2440   21.3670 F   0  0  0  0  0  0  0  0  0  0  0  0
  -21.4040   -3.7100   26.0210 F   0  0  0  0  0  0  0  0  0  0  0  0
  -22.7540  -13.5470   21.1570 C   0  0  0  0  0  0  0  0  0  0  0  0
  -22.0280  -12.8460   22.0230 N   0  0  0  0  0  0  0  0  0  0  0  0
  -22.3130  -14.5680   20.6340 O   0  0  0  0  0  0  0  0  0  0  0  0
  -22.3980  -12.0200   22.4670 H   0  0  0  0  0  0  0  0  0  0  0  0
  -21.0870  -13.1420   22.2450 H   0  0  0  0  0  0  0  0  0  0  0  0
  -25.3710  -15.2230   20.3310 N   0  0  0  0  0  0  0  0  0  0  0  0
  -24.5920  -15.8660   20.4250 H   0  0  0  0  0  0  0  0  0  0  0  0
  -26.2000  -15.6650   19.9550 H   0  0  0  0  0  0  0  0  0  0  0  0
  -28.8820  -22.3200   20.5890 O   0  0  0  0  0  0  0  0  0  0  0  0
  -28.9310  -23.7050   20.0030 C   0  0  0  0  0  3  0  0  0  0  0  0
  -28.0810  -24.9360   20.6400 C   0  0  0  0  0  3  0  0  0  0  0  0
  -28.3090  -26.3810   20.2460 O   0  0  0  0  0  0  0  0  0  0  0  0
  -24.6150  -31.8900   23.2390 C   0  0  0  0  0  0  0  0  0  0  0  0
  -27.2110  -27.2740   20.2120 C   0  0  0  0  0  0  0  0  0  0  0  0
  -23.4140  -30.4870   21.6040 C   0  0  0  0  0  3  0  0  0  0  0  0
  -24.8620  -28.9270   20.1820 C   0  0  0  0  0  0  0  0  0  0  0  0
  -25.9560  -30.7930   21.4220 C   0  0  0  0  0  2  0  0  0  0  0  0
  -26.0360  -29.4100   20.7770 C   0  0  0  0  0  0  0  0  0  0  0  0
  -27.2170  -28.5980   20.7710 C   0  0  0  0  0  3  0  0  0  0  0  0
  -26.0200  -26.8650   19.5800 C   0  0  0  0  0  3  0  0  0  0  0  0
  -24.8590  -27.6650   19.5690 C   0  0  0  0  0  3  0  0  0  0  0  0
  -23.6270  -29.8060   20.2280 C   0  0  0  0  0  2  0  0  0  0  0  0
  -24.6820  -31.0740   22.1450 N   0  0  0  0  0  0  0  0  0  0  0  0
  -23.5300  -32.1720   23.7690 O   0  0  0  0  0  0  0  0  0  0  0  0
  -22.7440  -29.4780   22.5680 C   0  0  0  0  0  0  0  0  0  0  0  0
  -21.4170  -29.3050   22.4410 N   0  0  0  0  0  0  0  0  0  0  0  0
  -23.4180  -28.8520   23.3900 O   0  0  0  0  0  0  0  0  0  0  0  0
  -20.9300  -29.8600   21.7510 H   0  0  0  0  0  0  0  0  0  0  0  0
  -18.0370  -28.1080   22.9440 C   0  0  0  0  0  0  0  0  0  0  0  0
  -20.5970  -28.3700   23.2150 C   0  0  0  0  0  3  0  0  0  0  0  0
  -20.7000  -26.9370   22.6440 C   0  0  0  0  0  2  0  0  0  0  0  0
  -19.6000  -26.6080   21.6300 C   0  0  0  0  0  2  0  0  0  0  0  0
  -18.2170  -26.7560   22.2720 C   0  0  0  0  0  2  0  0  0  0  0  0
  -19.1560  -28.8710   23.3720 C   0  0  0  0  0  0  0  0  0  0  0  0
  -18.9380  -30.1350   23.9640 C   0  0  0  0  0  3  0  0  0  0  0  0
  -17.6340  -30.6400   24.1240 C   0  0  0  0  0  3  0  0  0  0  0  0
  -16.5300  -29.8750   23.7140 C   0  0  0  0  0  3  0  0  0  0  0  0
  -16.7310  -28.6100   23.1320 C   0  0  0  0  0  3  0  0  0  0  0  0
  -25.8950  -32.5260   23.8610 C   0  0  0  0  0  3  0  0  0  0  0  0
  -25.5800  -33.9260   24.1850 N   0  0  0  0  0  0  0  0  0  0  0  0
  -25.9130  -34.9800   23.4280 C   0  0  0  0  0  0  0  0  0  0  0  0
  -26.5880  -34.8780   22.4000 O   0  0  0  0  0  0  0  0  0  0  0  0
  -24.9700  -34.0770   24.9760 H   0  0  0  0  0  0  0  0  0  0  0  0
  -24.1860  -36.7790   23.0780 C   0  0  0  0  0  1  0  0  0  0  0  0
  -25.4260  -36.3690   23.8870 C   0  0  0  0  0  3  0  0  0  0  0  0
  -27.5620  -37.2520   24.7170 C   0  0  0  0  0  1  0  0  0  0  0  0
  -26.4580  -37.4220   23.7750 N   0  0  0  0  0  0  0  0  0  0  0  0
  -26.0500  -38.3400   23.9280 H   0  0  0  0  0  0  0  0  0  0  0  0
  -26.4080  -31.7630   25.1440 C   0  0  1  0  0  0  0  0  0  0  0  0
  -25.3120  -31.5350   26.2100 C   0  0  0  0  0  1  0  0  0  0  0  0
  -26.9900  -30.3810   24.7660 C   0  0  0  0  0  1  0  0  0  0  0  0
  -27.5550  -32.5620   25.8030 C   0  0  0  0  0  1  0  0  0  0  0  0
  2  3  2  0
  3 51  1  0
  3  1  1  0
  4  1  2  0
  4 12  1  0
  5  2  1  0
  5  6  2  0
  6  4  1  0
  7  9  1  0
  7  8  1  0
  9  8  1  0
  9  2  1  0
 10 11  1  0
 11  5  1  0
 13 21  1  0
 14 19  1  0
 15 16  1  0
 15 14  1  0
 17 16  1  0
 17 26  1  0
 17 18  1  0
 19 13  1  0
 19 18  1  0
 20 13  2  0
 21 22  1  0
 21 12  1  0
 23 24  2  0
 24 43  1  0
 25 24  1  0
 25 28  1  0
 26 23  1  0
 26 27  1  0
 27 25  2  0
 28 29  1  0
 29 30  2  0
 31 34  1  0
 31 30  1  0
 32 31  2  0
 33 32  1  0
 33 28  2  0
 34 35  1  0
 35 36  1  0
 36 37  2  0
 38 37  1  0
 38 42  1  0
 39 38  2  0
 40 35  2  0
 40 39  1  0
 41 40  1  0
 43 44  1  0
 44 47  1  0
 44 46  1  0
 45 43  2  0
 48 49  1  0
 48 23  1  0
 50 48  1  0
 52 51  1  0
 52 53  2  0
 54 53  1  0
 55 66  2  0
 56 54  1  0
 56 61  1  0
 57 65  1  0
 57 67  1  0
 58 64  1  0
 58 60  1  0
 59 65  1  0
 60 59  1  0
 61 60  2  0
 62 56  2  0
 63 62  1  0
 63 58  2  0
 64 57  1  0
 65 55  1  0
 67 69  2  0
 68 67  1  0
 70 68  1  0
 71 80  2  0
 71 76  1  0
 72 68  1  0
 72 76  1  0
 73 72  1  0
 74 75  1  0
 74 73  1  0
 75 71  1  0
 76 77  2  0
 77 78  1  0
 79 78  2  0
 80 79  1  0
 81 55  1  0
 81 82  1  0
 81 91  1  0
 82 85  1  0
 83 87  1  0
 83 82  1  0
 84 83  2  0
 87 86  1  0
 89 87  1  0
 89 90  1  0
 89 88  1  0
 91 94  1  1
 91 92  1  0
 93 91  1  0
M  ISO  4  13 100  21 100  53 101  54 101
M  END
>  <TORSDO>  (18) 
F 22

>  <SCORE>  (18) 
-13.271

>  <name>  (18) 
17

>  <ligand_id>  (18) 
17

>  <original_smiles>  (18) 
[H]c1c([H])c([H])c2c(c1[H])C([H])([H])C([H])([H])C([H])([H])C2([H])N([H])C(=O)C1([H])N(C(=O)C([H])(N([H])C(=O)C([H])(N([H])C([H])([H])[H])C([H])([H])[H])C(C([H])([H])[H])(C([H])([H])[H])C([H])([H])[H])C([H])([H])c2c([H])c(OC([H])([H])C([H])([H])Oc3c([H])c(C([H])([H])N([H])C(=O)N4C([H])([H])C([H])([H])C([H])([H])C([H])(n5nc(-c6c([H])c([H])c(Oc7c([H])c([H])c(F)c([H])c7F)c([H])c6[H])c(C(=O)N([H])[H])c5N([H])[H])C4([H])[H])nc(OC([H])([H])[H])c3C3([H])C([H])([H])C3([H])[H])c([H])c([H])c2C1([H])[H]

>  <smiles>  (18) 
[H]c1c([H])c([H])c2c(c1[H])C([H])([H])C([H])([H])C([H])([H])C2([H])N([H])C(=O)C1([H])N(C(=O)C([H])(N([H])C(=O)C([H])(N([H])C([H])([H])[H])C([H])([H])[H])C(C([H])([H])[H])(C([H])([H])[H])C([H])([H])[H])C([H])([H])c2c([H])c(OC([H])([H])C([H])([H])Oc3c([H])c(C([H])([H])N([H])C(=O)N4C([H])([H])C([H])([H])C([H])([H])C([H])(n5nc(-c6c([H])c([H])c(Oc7c([H])c([H])c(F)c([H])c7F)c([H])c6[H])c(C(=O)N([H])[H])c5N([H])[H])C4([H])[H])nc(OC([H])([H])[H])c3C3([H])C([H])([H])C3([H])[H])c([H])c([H])c2C1([H])[H]

$$$$
18:0:0
     RDKit          3D

 96106  0  0  1  0  0  0  0  0999 V2000
  -29.8460  -21.6450   19.9030 C   0  0  0  0  0  3  0  0  0  0  0  0
  -28.8580  -22.3230   21.9910 C   0  0  0  0  0  3  0  0  0  0  0  0
  -29.5550  -22.9250   19.3560 C   0  0  0  0  0  0  0  0  0  0  0  0
  -28.8910  -23.9390   20.1170 C   0  0  0  0  0  0  0  0  0  0  0  0
  -28.5520  -23.6070   21.4580 C   0  0  0  0  0  0  0  0  0  0  0  0
  -29.4800  -21.3080   21.2240 C   0  0  0  0  0  0  0  0  0  0  0  0
  -29.9240  -23.1600   17.9000 C   0  0  0  0  0  2  0  0  0  0  0  0
  -28.9690  -24.1240   17.1940 C   0  0  0  0  0  2  0  0  0  0  0  0
  -28.8490  -25.4310   17.9790 C   0  0  0  0  0  2  0  0  0  0  0  0
  -28.3130  -25.2090   19.4050 C   0  0  0  0  0  3  0  0  0  0  0  0
  -27.7860  -24.5880   22.3290 C   0  0  0  0  0  1  0  0  0  0  0  0
  -29.6870  -20.0300   21.8160 N   0  0  0  0  0  0  0  0  0  0  0  0
  -29.4250  -19.9430   22.7940 H   0  0  0  0  0  0  0  0  0  0  0  0
  -30.8110  -14.6110   20.0660 C   0  0  0  0  0  0  0  0  0  0  0  0
  -30.3880  -12.4400   18.9320 C   0  0  0  0  0  2  0  0  0  0  0  0
  -29.3840  -12.6020   17.7740 C   0  0  0  0  0  2  0  0  0  0  0  0
  -27.9470  -12.4200   18.2910 C   0  0  0  0  0  2  0  0  0  0  0  0
  -27.6650  -13.2840   19.5450 C   0  0  0  0  0  3  0  0  0  0  0  0
  -28.7860  -13.1600   20.6050 C   0  0  0  0  0  2  0  0  0  0  0  0
  -30.0700  -13.4620   19.9580 N   0  0  0  0  0  0  0  0  0  0  0  0
  -31.9210  -14.6790   19.5260 O   0  0  0  0  0  0  0  0  0  0  0  0
  -28.8830  -17.9100   20.7340 C   0  0  0  0  0  2  0  0  0  0  0  0
  -30.8650  -17.8580   22.1200 C   0  0  0  0  0  2  0  0  0  0  0  0
  -29.2100  -16.4910   20.1630 C   0  0  0  0  0  2  0  0  0  0  0  0
  -31.3400  -16.5270   21.4750 C   0  0  0  0  0  2  0  0  0  0  0  0
  -30.0880  -18.7670   21.1510 C   0  0  0  0  0  3  0  0  0  0  0  0
  -30.3280  -15.7050   20.7570 N   0  0  0  0  0  0  0  0  0  0  0  0
  -25.3370  -13.9000   20.4420 C   0  0  0  0  0  0  0  0  0  0  0  0
  -24.2850  -13.1310   20.8580 C   0  0  0  0  0  0  0  0  0  0  0  0
  -24.7260  -11.7760   20.7630 C   0  0  0  0  0  0  0  0  0  0  0  0
  -26.3500  -13.0130   20.1130 N   0  0  0  0  0  0  0  0  0  0  0  0
  -25.9920  -11.7300   20.3700 N   0  0  0  0  0  0  0  0  0  0  0  0
  -23.9970  -10.5190   20.9650 C   0  0  0  0  0  0  0  0  0  0  0  0
  -24.4460   -9.5450   21.8840 C   0  0  0  0  0  3  0  0  0  0  0  0
  -23.7180   -8.3500   22.0710 C   0  0  0  0  0  3  0  0  0  0  0  0
  -22.5270   -8.1220   21.3420 C   0  0  0  0  0  0  0  0  0  0  0  0
  -22.0970   -9.0840   20.4120 C   0  0  0  0  0  3  0  0  0  0  0  0
  -22.8270  -10.2700   20.2210 C   0  0  0  0  0  3  0  0  0  0  0  0
  -21.7700   -6.9810   21.4400 O   0  0  0  0  0  0  0  0  0  0  0  0
  -21.7130   -6.2520   22.6010 C   0  0  0  0  0  0  0  0  0  0  0  0
  -21.2620   -6.8170   23.8140 C   0  0  0  0  0  3  0  0  0  0  0  0
  -21.1540   -6.0150   24.9680 C   0  0  0  0  0  3  0  0  0  0  0  0
  -21.4890   -4.6480   24.9100 C   0  0  0  0  0  0  0  0  0  0  0  0
  -21.9340   -4.0830   23.7020 C   0  0  0  0  0  3  0  0  0  0  0  0
  -22.0430   -4.8830   22.5510 C   0  0  0  0  0  0  0  0  0  0  0  0
  -22.4530   -4.3290   21.3850 F   0  0  0  0  0  0  0  0  0  0  0  0
  -21.3780   -3.8750   26.0150 F   0  0  0  0  0  0  0  0  0  0  0  0
  -22.9150  -13.6190   21.2300 C   0  0  0  0  0  0  0  0  0  0  0  0
  -22.2310  -12.9060   22.1180 N   0  0  0  0  0  0  0  0  0  0  0  0
  -22.4620  -14.6660   20.7700 O   0  0  0  0  0  0  0  0  0  0  0  0
  -22.6110  -12.0570   22.5110 H   0  0  0  0  0  0  0  0  0  0  0  0
  -21.3150  -13.2150   22.4120 H   0  0  0  0  0  0  0  0  0  0  0  0
  -25.5070  -15.2730   20.2950 N   0  0  0  0  0  0  0  0  0  0  0  0
  -24.7570  -15.9290   20.4800 H   0  0  0  0  0  0  0  0  0  0  0  0
  -26.3410  -15.7180   19.9330 H   0  0  0  0  0  0  0  0  0  0  0  0
  -28.3240  -26.5190   20.0740 O   0  0  0  0  0  0  0  0  0  0  0  0
  -24.6240  -31.8500   23.1700 C   0  0  0  0  0  0  0  0  0  0  0  0
  -27.1910  -27.3480   20.0120 C   0  0  0  0  0  0  0  0  0  0  0  0
  -23.3950  -30.4650   21.5390 C   0  0  0  0  0  3  0  0  0  0  0  0
  -24.8230  -28.9490   20.0730 C   0  0  0  0  0  0  0  0  0  0  0  0
  -25.9320  -30.7920   21.3240 C   0  0  0  0  0  2  0  0  0  0  0  0
  -25.9990  -29.4240   20.6630 C   0  0  0  0  0  0  0  0  0  0  0  0
  -27.1800  -28.6290   20.6410 C   0  0  0  0  0  3  0  0  0  0  0  0
  -25.9880  -26.9410   19.3790 C   0  0  0  0  0  3  0  0  0  0  0  0
  -24.8170  -27.7080   19.4310 C   0  0  0  0  0  3  0  0  0  0  0  0
  -23.5860  -29.8160   20.1460 C   0  0  0  0  0  2  0  0  0  0  0  0
  -24.6700  -31.0510   22.0650 N   0  0  0  0  0  0  0  0  0  0  0  0
  -23.5480  -32.1210   23.7220 O   0  0  0  0  0  0  0  0  0  0  0  0
  -22.7560  -29.4300   22.4940 C   0  0  0  0  0  0  0  0  0  0  0  0
  -21.4390  -29.2130   22.3530 N   0  0  0  0  0  0  0  0  0  0  0  0
  -23.4450  -28.8280   23.3240 O   0  0  0  0  0  0  0  0  0  0  0  0
  -20.9420  -29.7510   21.6570 H   0  0  0  0  0  0  0  0  0  0  0  0
  -18.1010  -27.8840   22.7750 C   0  0  0  0  0  0  0  0  0  0  0  0
  -20.6360  -28.2610   23.1210 C   0  0  0  0  0  3  0  0  0  0  0  0
  -20.8190  -26.8190   22.5900 C   0  0  0  0  0  2  0  0  0  0  0  0
  -19.7660  -26.4220   21.5500 C   0  0  0  0  0  2  0  0  0  0  0  0
  -18.3580  -26.5240   22.1450 C   0  0  0  0  0  2  0  0  0  0  0  0
  -19.1710  -28.7060   23.2190 C   0  0  0  0  0  0  0  0  0  0  0  0
  -18.8790  -29.9740   23.7650 C   0  0  0  0  0  3  0  0  0  0  0  0
  -17.5490  -30.4220   23.8770 C   0  0  0  0  0  3  0  0  0  0  0  0
  -16.4930  -29.5970   23.4520 C   0  0  0  0  0  3  0  0  0  0  0  0
  -16.7700  -28.3320   22.9050 C   0  0  0  0  0  3  0  0  0  0  0  0
  -25.9160  -32.4790   23.7730 C   0  0  0  0  0  3  0  0  0  0  0  0
  -25.6040  -33.8690   24.1280 N   0  0  0  0  0  0  0  0  0  0  0  0
  -25.9080  -34.9360   23.3770 C   0  0  0  0  0  0  0  0  0  0  0  0
  -26.5520  -34.8540   22.3270 O   0  0  0  0  0  0  0  0  0  0  0  0
  -25.0270  -34.0080   24.9450 H   0  0  0  0  0  0  0  0  0  0  0  0
  -24.1590  -36.7240   23.0900 C   0  0  0  0  0  1  0  0  0  0  0  0
  -25.4190  -36.3120   23.8680 C   0  0  0  0  0  3  0  0  0  0  0  0
  -27.5640  -37.2020   24.6680 C   0  0  0  0  0  1  0  0  0  0  0  0
  -26.4400  -37.3780   23.7530 N   0  0  0  0  0  0  0  0  0  0  0  0
  -26.0260  -38.2880   23.9310 H   0  0  0  0  0  0  0  0  0  0  0  0
  -26.4670  -31.6930   25.0250 C   0  0  1  0  0  0  0  0  0  0  0  0
  -25.3990  -31.4300   26.1130 C   0  0  0  0  0  1  0  0  0  0  0  0
  -27.0570  -30.3250   24.6040 C   0  0  0  0  0  1  0  0  0  0  0  0
  -27.6220  -32.4900   25.6750 C   0  0  0  0  0  1  0  0  0  0  0  0
  1  6  1  0
  3  1  2  0
  3  4  1  0
  4  5  2  0
  5  2  1  0
  5 11  1  0
  6 12  1  0
  6  2  2  0
  7  3  1  0
  8  7  1  0
  8  9  1  0
  9 10  1  0
 10 56  1  0
 10  4  1  0
 12 13  1  0
 14 27  1  0
 15 20  1  0
 16 17  1  0
 16 15  1  0
 18 17  1  0
 18 31  1  0
 18 19  1  0
 20 14  1  0
 20 19  1  0
 21 14  2  0
 22 26  1  0
 24 22  1  0
 24 27  1  0
 25 23  1  0
 26 12  1  0
 26 23  1  0
 27 25  1  0
 28 29  2  0
 29 48  1  0
 30 29  1  0
 30 33  1  0
 31 32  1  0
 31 28  1  0
 32 30  2  0
 33 34  1  0
 34 35  2  0
 36 39  1  0
 36 35  1  0
 37 36  2  0
 38 37  1  0
 38 33  2  0
 39 40  1  0
 40 41  1  0
 41 42  2  0
 43 42  1  0
 43 47  1  0
 44 43  2  0
 45 40  2  0
 45 44  1  0
 46 45  1  0
 48 49  1  0
 49 52  1  0
 49 51  1  0
 50 48  2  0
 53 28  1  0
 53 54  1  0
 55 53  1  0
 57 68  2  0
 58 56  1  0
 58 63  1  0
 59 67  1  0
 59 69  1  0
 60 66  1  0
 60 62  1  0
 61 67  1  0
 62 61  1  0
 63 62  2  0
 64 65  1  0
 64 58  2  0
 65 60  2  0
 66 59  1  0
 67 57  1  0
 69 71  2  0
 70 69  1  0
 72 70  1  0
 73 82  2  0
 73 78  1  0
 74 70  1  0
 74 78  1  0
 75 74  1  0
 76 77  1  0
 76 75  1  0
 77 73  1  0
 78 79  2  0
 79 80  1  0
 81 80  2  0
 82 81  1  0
 83 57  1  0
 83 84  1  0
 83 93  1  0
 84 87  1  0
 85 89  1  0
 85 84  1  0
 86 85  2  0
 89 88  1  0
 91 89  1  0
 91 92  1  0
 91 90  1  0
 93 96  1  1
 93 94  1  0
 95 93  1  0
M  ISO  4  10 101  14 100  27 100  56 101
M  END
>  <TORSDO>  (19) 
F 17

>  <SCORE>  (19) 
-15.068

>  <name>  (19) 
18

>  <ligand_id>  (19) 
18

>  <original_smiles>  (19) 
[H]c1c([H])c([H])c2c(c1[H])C([H])([H])C([H])([H])C([H])([H])C2([H])N([H])C(=O)C1([H])N(C(=O)C([H])(N([H])C(=O)C([H])(N([H])C([H])([H])[H])C([H])([H])[H])C(C([H])([H])[H])(C([H])([H])[H])C([H])([H])[H])C([H])([H])c2c([H])c(OC3([H])c4c(C([H])([H])[H])c([H])c(N([H])C5([H])C([H])([H])C([H])([H])N(C(=O)N6C([H])([H])C([H])([H])C([H])([H])C([H])(n7nc(-c8c([H])c([H])c(Oc9c([H])c([H])c(F)c([H])c9F)c([H])c8[H])c(C(=O)N([H])[H])c7N([H])[H])C6([H])[H])C([H])([H])C5([H])[H])c([H])c4C([H])([H])C([H])([H])C3([H])[H])c([H])c([H])c2C1([H])[H]

>  <smiles>  (19) 
[H]c1c([H])c([H])c2c(c1[H])C([H])([H])C([H])([H])C([H])([H])C2([H])N([H])C(=O)C1([H])N(C(=O)C([H])(N([H])C(=O)C([H])(N([H])C([H])([H])[H])C([H])([H])[H])C(C([H])([H])[H])(C([H])([H])[H])C([H])([H])[H])C([H])([H])c2c([H])c(OC3([H])c4c(C([H])([H])[H])c([H])c(N([H])C5([H])C([H])([H])C([H])([H])N(C(=O)N6C([H])([H])C([H])([H])C([H])([H])C([H])(n7nc(-c8c([H])c([H])c(Oc9c([H])c([H])c(F)c([H])c9F)c([H])c8[H])c(C(=O)N([H])[H])c7N([H])[H])C6([H])[H])C([H])([H])C5([H])[H])c([H])c4C([H])([H])C([H])([H])C3([H])[H])c([H])c([H])c2C1([H])[H]

$$$$
19:0:0
     RDKit          3D

 96105  0  0  1  0  0  0  0  0999 V2000
  -29.3650  -23.4570   21.2080 C   0  0  0  0  0  3  0  0  0  0  0  0
  -28.7960  -21.2610   19.5540 C   0  0  0  0  0  3  0  0  0  0  0  0
  -28.6280  -23.7000   20.0260 C   0  0  0  0  0  0  0  0  0  0  0  0
  -29.7890  -22.1380   21.5760 C   0  0  0  0  0  0  0  0  0  0  0  0
  -28.3510  -22.5630   19.2060 C   0  0  0  0  0  0  0  0  0  0  0  0
  -29.4950  -21.0050   20.7550 C   0  0  0  0  0  0  0  0  0  0  0  0
  -27.4940  -22.6900   17.9540 C   0  0  0  0  0  1  0  0  0  0  0  0
  -29.7700  -22.4280   24.1070 C   0  0  0  0  0  1  0  0  0  0  0  0
  -30.5650  -21.9600   22.8790 C   0  0  0  0  0  3  0  0  0  0  0  0
  -31.7990  -22.6530   22.8510 O   0  0  0  0  0  0  0  0  0  0  0  0
  -31.6110  -23.5690   22.6770 H   0  0  0  0  0  0  0  0  0  0  0  0
  -27.9170  -25.0510   19.6860 C   0  0  0  0  0  2  0  0  0  0  0  0
  -28.2250  -26.3840   20.2410 O   0  0  0  0  0  0  0  0  0  0  0  0
  -24.6330  -31.8590   23.3000 C   0  0  0  0  0  0  0  0  0  0  0  0
  -27.1560  -27.3030   20.1630 C   0  0  0  0  0  0  0  0  0  0  0  0
  -23.4040  -30.5030   21.6490 C   0  0  0  0  0  3  0  0  0  0  0  0
  -24.8250  -28.9700   20.1890 C   0  0  0  0  0  0  0  0  0  0  0  0
  -25.9510  -30.7760   21.4720 C   0  0  0  0  0  2  0  0  0  0  0  0
  -26.0030  -29.4100   20.8040 C   0  0  0  0  0  0  0  0  0  0  0  0
  -27.1690  -28.5850   20.7960 C   0  0  0  0  0  3  0  0  0  0  0  0
  -25.9580  -26.9570   19.4790 C   0  0  0  0  0  3  0  0  0  0  0  0
  -24.8050  -27.7480   19.5180 C   0  0  0  0  0  3  0  0  0  0  0  0
  -23.6020  -29.8570   20.2570 C   0  0  0  0  0  2  0  0  0  0  0  0
  -24.6810  -31.0630   22.1950 N   0  0  0  0  0  0  0  0  0  0  0  0
  -23.5560  -32.1500   23.8390 O   0  0  0  0  0  0  0  0  0  0  0  0
  -22.7320  -29.4740   22.5930 C   0  0  0  0  0  0  0  0  0  0  0  0
  -21.4040  -29.3160   22.4640 N   0  0  0  0  0  0  0  0  0  0  0  0
  -23.4030  -28.8290   23.4030 O   0  0  0  0  0  0  0  0  0  0  0  0
  -20.9240  -29.8920   21.7860 H   0  0  0  0  0  0  0  0  0  0  0  0
  -18.0100  -28.1510   22.9350 C   0  0  0  0  0  0  0  0  0  0  0  0
  -20.5690  -28.3820   23.2220 C   0  0  0  0  0  3  0  0  0  0  0  0
  -20.6600  -26.9520   22.6410 C   0  0  0  0  0  2  0  0  0  0  0  0
  -19.5610  -26.6460   21.6190 C   0  0  0  0  0  2  0  0  0  0  0  0
  -18.1760  -26.8030   22.2550 C   0  0  0  0  0  2  0  0  0  0  0  0
  -19.1340  -28.9000   23.3750 C   0  0  0  0  0  0  0  0  0  0  0  0
  -18.9260  -30.1630   23.9720 C   0  0  0  0  0  3  0  0  0  0  0  0
  -17.6250  -30.6780   24.1300 C   0  0  0  0  0  3  0  0  0  0  0  0
  -16.5140  -29.9260   23.7110 C   0  0  0  0  0  3  0  0  0  0  0  0
  -16.7080  -28.6640   23.1180 C   0  0  0  0  0  3  0  0  0  0  0  0
  -25.9300  -32.4630   23.9240 C   0  0  0  0  0  3  0  0  0  0  0  0
  -26.4250  -31.6800   25.2030 C   0  0  1  0  0  0  0  0  0  0  0  0
  -25.3210  -31.4670   26.2640 C   0  0  0  0  0  1  0  0  0  0  0  0
  -26.9810  -30.2890   24.8180 C   0  0  0  0  0  1  0  0  0  0  0  0
  -27.5880  -32.4510   25.8690 C   0  0  0  0  0  1  0  0  0  0  0  0
  -25.6510  -33.8680   24.2490 N   0  0  0  0  0  0  0  0  0  0  0  0
  -25.9820  -34.9090   23.4740 C   0  0  0  0  0  0  0  0  0  0  0  0
  -26.6310  -34.7880   22.4310 O   0  0  0  0  0  0  0  0  0  0  0  0
  -25.0770  -34.0370   25.0640 H   0  0  0  0  0  0  0  0  0  0  0  0
  -24.2620  -36.7170   23.1540 C   0  0  0  0  0  1  0  0  0  0  0  0
  -25.5250  -36.3080   23.9310 C   0  0  0  0  0  3  0  0  0  0  0  0
  -27.6980  -37.1760   24.6780 C   0  0  0  0  0  1  0  0  0  0  0  0
  -26.5630  -37.3500   23.7750 N   0  0  0  0  0  0  0  0  0  0  0  0
  -26.1710  -38.2730   23.9380 H   0  0  0  0  0  0  0  0  0  0  0  0
  -29.8250  -19.7030   21.1680 O   0  0  0  0  0  0  0  0  0  0  0  0
  -30.5880  -14.5540   20.2200 C   0  0  0  0  0  0  0  0  0  0  0  0
  -30.2170  -12.3490   19.1290 C   0  0  0  0  0  2  0  0  0  0  0  0
  -29.2380  -12.4670   17.9430 C   0  0  0  0  0  2  0  0  0  0  0  0
  -27.7920  -12.2700   18.4300 C   0  0  0  0  0  2  0  0  0  0  0  0
  -27.4670  -13.1440   19.6670 C   0  0  0  0  0  3  0  0  0  0  0  0
  -28.5740  -13.0630   20.7500 C   0  0  0  0  0  2  0  0  0  0  0  0
  -29.8610  -13.3910   20.1200 N   0  0  0  0  0  0  0  0  0  0  0  0
  -31.7110  -14.6150   19.7130 O   0  0  0  0  0  0  0  0  0  0  0  0
  -31.3750  -17.8380   20.6790 C   0  0  0  0  0  2  0  0  0  0  0  0
  -29.0110  -17.6710   19.8170 C   0  0  0  0  0  2  0  0  0  0  0  0
  -31.0440  -16.6020   21.5700 C   0  0  0  0  0  2  0  0  0  0  0  0
  -28.8520  -16.3950   20.7070 C   0  0  0  0  0  2  0  0  0  0  0  0
  -30.1500  -18.6620   20.2040 C   0  0  0  0  0  3  0  0  0  0  0  0
  -30.1170  -15.6520   20.9150 N   0  0  0  0  0  0  0  0  0  0  0  0
  -25.1120  -13.7290   20.5010 C   0  0  0  0  0  0  0  0  0  0  0  0
  -24.0680  -12.9480   20.9130 C   0  0  0  0  0  0  0  0  0  0  0  0
  -24.5370  -11.6010   20.8510 C   0  0  0  0  0  0  0  0  0  0  0  0
  -26.1490  -12.8560   20.2130 N   0  0  0  0  0  0  0  0  0  0  0  0
  -25.8120  -11.5700   20.4870 N   0  0  0  0  0  0  0  0  0  0  0  0
  -23.8290  -10.3320   21.0580 C   0  0  0  0  0  0  0  0  0  0  0  0
  -24.2930   -9.3710   21.9830 C   0  0  0  0  0  3  0  0  0  0  0  0
  -23.5820   -8.1690   22.1800 C   0  0  0  0  0  3  0  0  0  0  0  0
  -22.3950   -7.9180   21.4510 C   0  0  0  0  0  0  0  0  0  0  0  0
  -21.9540   -8.8660   20.5110 C   0  0  0  0  0  3  0  0  0  0  0  0
  -22.6650  -10.0610   20.3140 C   0  0  0  0  0  3  0  0  0  0  0  0
  -21.6570   -6.7640   21.5550 O   0  0  0  0  0  0  0  0  0  0  0  0
  -21.6280   -6.0300   22.7150 C   0  0  0  0  0  0  0  0  0  0  0  0
  -21.2000   -6.5860   23.9380 C   0  0  0  0  0  3  0  0  0  0  0  0
  -21.1210   -5.7770   25.0890 C   0  0  0  0  0  3  0  0  0  0  0  0
  -21.4630   -4.4130   25.0170 C   0  0  0  0  0  0  0  0  0  0  0  0
  -21.8830   -3.8550   23.7960 C   0  0  0  0  0  3  0  0  0  0  0  0
  -21.9630   -4.6630   22.6480 C   0  0  0  0  0  0  0  0  0  0  0  0
  -22.3490   -4.1190   21.4690 F   0  0  0  0  0  0  0  0  0  0  0  0
  -21.3800   -3.6320   26.1180 F   0  0  0  0  0  0  0  0  0  0  0  0
  -22.6790  -13.4150   21.2440 C   0  0  0  0  0  0  0  0  0  0  0  0
  -21.9900  -12.7040   22.1310 N   0  0  0  0  0  0  0  0  0  0  0  0
  -22.2150  -14.4410   20.7500 O   0  0  0  0  0  0  0  0  0  0  0  0
  -22.3790  -11.8730   22.5520 H   0  0  0  0  0  0  0  0  0  0  0  0
  -21.0580  -12.9940   22.3930 H   0  0  0  0  0  0  0  0  0  0  0  0
  -25.2510  -15.1020   20.3230 N   0  0  0  0  0  0  0  0  0  0  0  0
  -24.4750  -15.7360   20.4770 H   0  0  0  0  0  0  0  0  0  0  0  0
  -26.0670  -15.5550   19.9380 H   0  0  0  0  0  0  0  0  0  0  0  0
  1  4  1  0
  2  6  1  0
  3  1  2  0
  4  9  1  0
  5  2  2  0
  5  3  1  0
  6 54  1  0
  6  4  2  0
  7  5  1  0
  9  8  1  0
 10  9  1  0
 11 10  1  0
 12  3  1  0
 12 13  1  0
 14 25  2  0
 15 13  1  0
 15 20  1  0
 16 24  1  0
 16 26  1  0
 17 23  1  0
 17 19  1  0
 18 24  1  0
 19 18  1  0
 20 19  2  0
 21 22  1  0
 21 15  2  0
 22 17  2  0
 23 16  1  0
 24 14  1  0
 26 28  2  0
 27 26  1  0
 29 27  1  0
 30 39  2  0
 30 35  1  0
 31 27  1  0
 31 35  1  0
 32 31  1  0
 33 34  1  0
 33 32  1  0
 34 30  1  0
 35 36  2  0
 36 37  1  0
 38 37  2  0
 39 38  1  0
 40 14  1  0
 40 45  1  0
 40 41  1  0
 41 44  1  1
 41 42  1  0
 43 41  1  0
 45 48  1  0
 46 50  1  0
 46 45  1  0
 47 46  2  0
 50 49  1  0
 52 50  1  0
 52 53  1  0
 52 51  1  0
 55 68  1  0
 56 61  1  0
 57 58  1  0
 57 56  1  0
 59 58  1  0
 59 72  1  0
 59 60  1  0
 61 55  1  0
 61 60  1  0
 62 55  2  0
 63 65  1  0
 64 67  1  0
 64 66  1  0
 66 68  1  0
 67 63  1  0
 67 54  1  0
 68 65  1  0
 69 70  2  0
 70 89  1  0
 71 70  1  0
 71 74  1  0
 72 73  1  0
 72 69  1  0
 73 71  2  0
 74 75  1  0
 75 76  2  0
 77 80  1  0
 77 76  1  0
 78 77  2  0
 79 78  1  0
 79 74  2  0
 80 81  1  0
 81 82  1  0
 82 83  2  0
 84 83  1  0
 84 88  1  0
 85 84  2  0
 86 81  2  0
 86 85  1  0
 87 86  1  0
 89 90  1  0
 90 93  1  0
 90 92  1  0
 91 89  2  0
 94 95  1  0
 94 69  1  0
 96 94  1  0
M  ISO  4  12 101  13 101  55 100  68 100
M  END
>  <TORSDO>  (20) 
F 20

>  <SCORE>  (20) 
-14.001

>  <name>  (20) 
19

>  <ligand_id>  (20) 
19

>  <original_smiles>  (20) 
[H]OC([H])(c1c([H])c(C([H])([H])Oc2c([H])c([H])c3c(c2[H])C([H])([H])N(C(=O)C([H])(N([H])C(=O)C([H])(N([H])C([H])([H])[H])C([H])([H])[H])C(C([H])([H])[H])(C([H])([H])[H])C([H])([H])[H])C([H])(C(=O)N([H])C2([H])c4c([H])c([H])c([H])c([H])c4C([H])([H])C([H])([H])C2([H])[H])C3([H])[H])c(C([H])([H])[H])c([H])c1OC1([H])C([H])([H])C([H])([H])N(C(=O)N2C([H])([H])C([H])([H])C([H])([H])C([H])(n3nc(-c4c([H])c([H])c(Oc5c([H])c([H])c(F)c([H])c5F)c([H])c4[H])c(C(=O)N([H])[H])c3N([H])[H])C2([H])[H])C([H])([H])C1([H])[H])C([H])([H])[H]

>  <smiles>  (20) 
[H]OC([H])(c1c([H])c(C([H])([H])Oc2c([H])c([H])c3c(c2[H])C([H])([H])N(C(=O)C([H])(N([H])C(=O)C([H])(N([H])C([H])([H])[H])C([H])([H])[H])C(C([H])([H])[H])(C([H])([H])[H])C([H])([H])[H])C([H])(C(=O)N([H])C2([H])c4c([H])c([H])c([H])c([H])c4C([H])([H])C([H])([H])C2([H])[H])C3([H])[H])c(C([H])([H])[H])c([H])c1OC1([H])C([H])([H])C([H])([H])N(C(=O)N2C([H])([H])C([H])([H])C([H])([H])C([H])(n3nc(-c4c([H])c([H])c(Oc5c([H])c([H])c(F)c([H])c5F)c([H])c4[H])c(C(=O)N([H])[H])c3N([H])[H])C2([H])[H])C([H])([H])C1([H])[H])C([H])([H])[H]

$$$$
20:0:0
     RDKit          3D

 95104  0  0  1  0  0  0  0  0999 V2000
  -30.7480  -19.6200   18.6250 C   0  0  0  0  0  3  0  0  0  0  0  0
  -32.2380  -21.5080   18.6870 C   0  0  0  0  0  3  0  0  0  0  0  0
  -30.1700  -20.0100   19.8550 C   0  0  0  0  0  0  0  0  0  0  0  0
  -31.7670  -20.3690   18.0260 C   0  0  0  0  0  0  0  0  0  0  0  0
  -31.5570  -22.0170   19.8060 C   0  0  0  0  0  0  0  0  0  0  0  0
  -30.3120  -21.4420   20.2290 C   0  0  0  0  0  0  0  0  0  0  0  0
  -32.4630  -19.8670   16.7790 C   0  0  0  0  0  1  0  0  0  0  0  0
  -32.2930  -23.1380   20.5290 C   0  0  0  0  0  1  0  0  0  0  0  0
  -30.6410  -14.8220   20.3790 C   0  0  0  0  0  0  0  0  0  0  0  0
  -30.3750  -12.5420   19.3350 C   0  0  0  0  0  2  0  0  0  0  0  0
  -29.4250  -12.5320   18.1180 C   0  0  0  0  0  2  0  0  0  0  0  0
  -27.9700  -12.3240   18.5710 C   0  0  0  0  0  2  0  0  0  0  0  0
  -27.5880  -13.2440   19.7550 C   0  0  0  0  0  3  0  0  0  0  0  0
  -28.6590  -13.2400   20.8750 C   0  0  0  0  0  2  0  0  0  0  0  0
  -29.9360  -13.6290   20.2610 N   0  0  0  0  0  0  0  0  0  0  0  0
  -31.8320  -14.8070   20.0500 O   0  0  0  0  0  0  0  0  0  0  0  0
  -28.5020  -17.9630   20.3370 C   0  0  0  0  0  2  0  0  0  0  0  0
  -28.6630  -16.5060   20.8700 C   0  0  0  0  0  2  0  0  0  0  0  0
  -30.7770  -17.4220   20.6570 C   0  0  0  0  0  2  0  0  0  0  0  0
  -29.7830  -18.7080   20.7150 C   0  0  0  0  0  3  0  0  0  0  0  0
  -30.0550  -16.0810   20.6630 N   0  0  0  0  0  0  0  0  0  0  0  0
  -25.2130  -13.8480   20.5150 C   0  0  0  0  0  0  0  0  0  0  0  0
  -24.1520  -13.0780   20.8980 C   0  0  0  0  0  0  0  0  0  0  0  0
  -24.6140  -11.7270   20.8630 C   0  0  0  0  0  0  0  0  0  0  0  0
  -26.2530  -12.9660   20.2670 N   0  0  0  0  0  0  0  0  0  0  0  0
  -25.9000  -11.6870   20.5430 N   0  0  0  0  0  0  0  0  0  0  0  0
  -23.8880  -10.4670   21.0560 C   0  0  0  0  0  0  0  0  0  0  0  0
  -24.3340   -9.4930   21.9750 C   0  0  0  0  0  3  0  0  0  0  0  0
  -23.6080   -8.2960   22.1540 C   0  0  0  0  0  3  0  0  0  0  0  0
  -22.4230   -8.0670   21.4160 C   0  0  0  0  0  0  0  0  0  0  0  0
  -21.9970   -9.0300   20.4840 C   0  0  0  0  0  3  0  0  0  0  0  0
  -22.7230  -10.2200   20.3030 C   0  0  0  0  0  3  0  0  0  0  0  0
  -21.6690   -6.9230   21.5070 O   0  0  0  0  0  0  0  0  0  0  0  0
  -21.6400   -6.1680   22.6530 C   0  0  0  0  0  0  0  0  0  0  0  0
  -21.2440   -6.7090   23.8940 C   0  0  0  0  0  3  0  0  0  0  0  0
  -21.1650   -5.8800   25.0310 C   0  0  0  0  0  3  0  0  0  0  0  0
  -21.4740   -4.5110   24.9270 C   0  0  0  0  0  0  0  0  0  0  0  0
  -21.8660   -3.9700   23.6890 C   0  0  0  0  0  3  0  0  0  0  0  0
  -21.9470   -4.7960   22.5550 C   0  0  0  0  0  0  0  0  0  0  0  0
  -22.3060   -4.2660   21.3610 F   0  0  0  0  0  0  0  0  0  0  0  0
  -21.3930   -3.7100   26.0140 F   0  0  0  0  0  0  0  0  0  0  0  0
  -22.7580  -13.5580   21.1790 C   0  0  0  0  0  0  0  0  0  0  0  0
  -22.0370  -12.8630   22.0490 N   0  0  0  0  0  0  0  0  0  0  0  0
  -22.3180  -14.5860   20.6610 O   0  0  0  0  0  0  0  0  0  0  0  0
  -22.4090  -12.0320   22.4860 H   0  0  0  0  0  0  0  0  0  0  0  0
  -21.1020  -13.1630   22.2810 H   0  0  0  0  0  0  0  0  0  0  0  0
  -25.3640  -15.2180   20.3320 N   0  0  0  0  0  0  0  0  0  0  0  0
  -24.5930  -15.8610   20.4650 H   0  0  0  0  0  0  0  0  0  0  0  0
  -26.1960  -15.6690   19.9740 H   0  0  0  0  0  0  0  0  0  0  0  0
  -29.2710  -22.3450   20.7320 N   0  0  0  0  0  0  0  0  0  0  0  0
  -28.3710  -21.9190   20.9390 H   0  0  0  0  0  0  0  0  0  0  0  0
  -29.4580  -24.2750   22.3270 C   0  0  0  0  0  1  0  0  0  0  0  0
  -29.3130  -23.8870   20.8430 C   0  0  0  0  0  3  0  0  0  0  0  0
  -28.1580  -24.8570   20.2160 C   0  0  0  0  0  2  0  0  0  0  0  0
  -28.3330  -26.3610   20.2720 O   0  0  0  0  0  0  0  0  0  0  0  0
  -24.6040  -31.8440   23.2110 C   0  0  0  0  0  0  0  0  0  0  0  0
  -27.2240  -27.2430   20.1800 C   0  0  0  0  0  0  0  0  0  0  0  0
  -23.4060  -30.4520   21.5610 C   0  0  0  0  0  3  0  0  0  0  0  0
  -24.8650  -28.8970   20.1350 C   0  0  0  0  0  0  0  0  0  0  0  0
  -25.9490  -30.7590   21.3910 C   0  0  0  0  0  2  0  0  0  0  0  0
  -26.0330  -29.3780   20.7390 C   0  0  0  0  0  0  0  0  0  0  0  0
  -27.2130  -28.5660   20.7430 C   0  0  0  0  0  3  0  0  0  0  0  0
  -26.0320  -26.8310   19.5410 C   0  0  0  0  0  3  0  0  0  0  0  0
  -24.8710  -27.6330   19.5230 C   0  0  0  0  0  3  0  0  0  0  0  0
  -23.6270  -29.7760   20.1800 C   0  0  0  0  0  2  0  0  0  0  0  0
  -24.6710  -31.0380   22.1110 N   0  0  0  0  0  0  0  0  0  0  0  0
  -23.5180  -32.1230   23.7420 O   0  0  0  0  0  0  0  0  0  0  0  0
  -22.7350  -29.4380   22.5190 C   0  0  0  0  0  0  0  0  0  0  0  0
  -21.4050  -29.2740   22.3970 N   0  0  0  0  0  0  0  0  0  0  0  0
  -23.4080  -28.8020   23.3330 O   0  0  0  0  0  0  0  0  0  0  0  0
  -20.9210  -29.8340   21.7100 H   0  0  0  0  0  0  0  0  0  0  0  0
  -18.0170  -28.1110   22.9110 C   0  0  0  0  0  0  0  0  0  0  0  0
  -20.5810  -28.3390   23.1650 C   0  0  0  0  0  3  0  0  0  0  0  0
  -20.6630  -26.9130   22.5730 C   0  0  0  0  0  2  0  0  0  0  0  0
  -19.5490  -26.6140   21.5650 C   0  0  0  0  0  2  0  0  0  0  0  0
  -18.1730  -26.7680   22.2180 C   0  0  0  0  0  2  0  0  0  0  0  0
  -19.1480  -28.8560   23.3400 C   0  0  0  0  0  0  0  0  0  0  0  0
  -18.9450  -30.1150   23.9480 C   0  0  0  0  0  3  0  0  0  0  0  0
  -17.6470  -30.6270   24.1310 C   0  0  0  0  0  3  0  0  0  0  0  0
  -16.5320  -29.8780   23.7160 C   0  0  0  0  0  3  0  0  0  0  0  0
  -16.7180  -28.6220   23.1120 C   0  0  0  0  0  3  0  0  0  0  0  0
  -25.8850  -32.4730   23.8410 C   0  0  0  0  0  3  0  0  0  0  0  0
  -26.3940  -31.6980   25.1180 C   0  0  1  0  0  0  0  0  0  0  0  0
  -25.2950  -31.4640   26.1810 C   0  0  0  0  0  1  0  0  0  0  0  0
  -26.9740  -30.3190   24.7310 C   0  0  0  0  0  1  0  0  0  0  0  0
  -27.5450  -32.4880   25.7860 C   0  0  0  0  0  1  0  0  0  0  0  0
  -25.5770  -33.8720   24.1760 N   0  0  0  0  0  0  0  0  0  0  0  0
  -25.9110  -34.9280   23.4210 C   0  0  0  0  0  0  0  0  0  0  0  0
  -26.5790  -34.8270   22.3890 O   0  0  0  0  0  0  0  0  0  0  0  0
  -24.9800  -34.0250   24.9750 H   0  0  0  0  0  0  0  0  0  0  0  0
  -24.1860  -36.7260   23.0790 C   0  0  0  0  0  1  0  0  0  0  0  0
  -25.4280  -36.3160   23.8850 C   0  0  0  0  0  3  0  0  0  0  0  0
  -27.5650  -37.1920   24.7160 C   0  0  0  0  0  1  0  0  0  0  0  0
  -26.4620  -37.3670   23.7750 N   0  0  0  0  0  0  0  0  0  0  0  0
  -26.0570  -38.2860   23.9280 H   0  0  0  0  0  0  0  0  0  0  0  0
  1  3  1  0
  2  5  2  0
  3  6  2  0
  4  1  2  0
  4  2  1  0
  5  6  1  0
  5  8  1  0
  6 50  1  0
  7  4  1  0
  9 21  1  0
 10 15  1  0
 11 12  1  0
 11 10  1  0
 13 12  1  0
 13 25  1  0
 13 14  1  0
 15  9  1  0
 15 14  1  0
 16  9  2  0
 17 20  1  0
 17 18  1  0
 19 21  1  0
 19 20  1  0
 20  3  1  0
 21 18  1  0
 22 23  2  0
 23 42  1  0
 24 23  1  0
 24 27  1  0
 25 22  1  0
 25 26  1  0
 26 24  2  0
 27 28  1  0
 28 29  2  0
 30 33  1  0
 30 29  1  0
 31 30  2  0
 32 31  1  0
 32 27  2  0
 33 34  1  0
 34 35  1  0
 35 36  2  0
 37 36  1  0
 37 41  1  0
 38 37  2  0
 39 34  2  0
 39 38  1  0
 40 39  1  0
 42 43  1  0
 43 46  1  0
 43 45  1  0
 44 42  2  0
 47 48  1  0
 47 22  1  0
 49 47  1  0
 50 53  1  0
 50 51  1  0
 53 52  1  0
 54 55  1  0
 54 53  1  0
 56 67  2  0
 57 55  1  0
 57 62  1  0
 58 66  1  0
 58 68  1  0
 59 65  1  0
 59 61  1  0
 60 66  1  0
 61 62  2  0
 61 60  1  0
 63 57  2  0
 64 63  1  0
 64 59  2  0
 65 58  1  0
 66 56  1  0
 68 70  2  0
 69 68  1  0
 71 69  1  0
 72 81  2  0
 72 77  1  0
 73 69  1  0
 73 77  1  0
 74 73  1  0
 75 76  1  0
 75 74  1  0
 76 72  1  0
 77 78  2  0
 78 79  1  0
 80 79  2  0
 81 80  1  0
 82 56  1  0
 82 87  1  0
 82 83  1  0
 83 86  1  1
 83 84  1  0
 85 83  1  0
 87 90  1  0
 88 92  1  0
 88 87  1  0
 89 88  2  0
 92 91  1  0
 94 92  1  0
 94 95  1  0
 94 93  1  0
M  ISO  4   9 100  21 100  54 101  55 101
M  END
>  <TORSDO>  (21) 
F 19

>  <SCORE>  (21) 
-14.274

>  <name>  (21) 
20

>  <ligand_id>  (21) 
20

>  <original_smiles>  (21) 
[H]c1c([H])c([H])c2c(c1[H])C([H])([H])C([H])([H])C([H])([H])C2([H])N([H])C(=O)C1([H])N(C(=O)C([H])(N([H])C(=O)C([H])(N([H])C([H])([H])[H])C([H])([H])[H])C(C([H])([H])[H])(C([H])([H])[H])C([H])([H])[H])C([H])([H])c2c([H])c(OC([H])([H])C([H])(N([H])c3c(C([H])([H])[H])c([H])c(C([H])([H])[H])c([H])c3C3([H])C([H])([H])N(C(=O)N4C([H])([H])C([H])([H])C([H])([H])C([H])(n5nc(-c6c([H])c([H])c(Oc7c([H])c([H])c(F)c([H])c7F)c([H])c6[H])c(C(=O)N([H])[H])c5N([H])[H])C4([H])[H])C([H])([H])C3([H])[H])C([H])([H])[H])c([H])c([H])c2C1([H])[H]

>  <smiles>  (21) 
[H]c1c([H])c([H])c2c(c1[H])C([H])([H])C([H])([H])C([H])([H])C2([H])N([H])C(=O)C1([H])N(C(=O)C([H])(N([H])C(=O)C([H])(N([H])C([H])([H])[H])C([H])([H])[H])C(C([H])([H])[H])(C([H])([H])[H])C([H])([H])[H])C([H])([H])c2c([H])c(OC([H])([H])C([H])(N([H])c3c(C([H])([H])[H])c([H])c(C([H])([H])[H])c([H])c3C3([H])C([H])([H])N(C(=O)N4C([H])([H])C([H])([H])C([H])([H])C([H])(n5nc(-c6c([H])c([H])c(Oc7c([H])c([H])c(F)c([H])c7F)c([H])c6[H])c(C(=O)N([H])[H])c5N([H])[H])C4([H])[H])C([H])([H])C3([H])[H])C([H])([H])[H])c([H])c([H])c2C1([H])[H]

$$$$
21:0:0
     RDKit          3D

 92101  0  0  1  0  0  0  0  0999 V2000
  -29.0040  -20.4720   20.4570 C   0  0  0  0  0  3  0  0  0  0  0  0
  -30.1740  -22.2770   19.2700 C   0  0  0  0  0  3  0  0  0  0  0  0
  -30.0040  -19.4270   20.0640 C   0  0  0  0  0  0  0  0  0  0  0  0
  -31.0560  -19.9890   19.3120 C   0  0  0  0  0  0  0  0  0  0  0  0
  -29.0750  -21.9330   20.0730 C   0  0  0  0  0  0  0  0  0  0  0  0
  -31.1570  -21.3350   18.8910 C   0  0  0  0  0  0  0  0  0  0  0  0
  -32.1940  -19.0520   19.0870 C   0  0  0  0  0  2  0  0  0  0  0  0
  -31.9360  -17.8600   19.9950 C   0  0  0  0  0  2  0  0  0  0  0  0
  -30.4630  -17.8590   20.5160 C   0  0  0  0  0  3  0  0  0  0  0  0
  -30.5490  -15.0640   20.3100 C   0  0  0  0  0  0  0  0  0  0  0  0
  -30.3630  -12.7160   19.3590 C   0  0  0  0  0  2  0  0  0  0  0  0
  -29.4280  -12.6310   18.1340 C   0  0  0  0  0  2  0  0  0  0  0  0
  -27.9740  -12.4100   18.5850 C   0  0  0  0  0  2  0  0  0  0  0  0
  -27.5650  -13.3450   19.7540 C   0  0  0  0  0  3  0  0  0  0  0  0
  -28.6330  -13.4200   20.8630 C   0  0  0  0  0  2  0  0  0  0  0  0
  -29.8770  -13.8430   20.2100 N   0  0  0  0  0  0  0  0  0  0  0  0
  -31.7730  -14.9630   20.2070 O   0  0  0  0  0  0  0  0  0  0  0  0
  -29.8990  -16.3610   20.3100 N   0  0  0  0  0  0  0  0  0  0  0  0
  -28.8930  -16.3080   20.2680 H   0  0  0  0  0  0  0  0  0  0  0  0
  -25.1970  -13.9020   20.5320 C   0  0  0  0  0  0  0  0  0  0  0  0
  -24.1380  -13.1190   20.9010 C   0  0  0  0  0  0  0  0  0  0  0  0
  -24.6090  -11.7710   20.8560 C   0  0  0  0  0  0  0  0  0  0  0  0
  -26.2400  -13.0310   20.2740 N   0  0  0  0  0  0  0  0  0  0  0  0
  -25.8990  -11.7430   20.5380 N   0  0  0  0  0  0  0  0  0  0  0  0
  -23.8870  -10.5040   21.0350 C   0  0  0  0  0  0  0  0  0  0  0  0
  -24.3100   -9.5390   21.9770 C   0  0  0  0  0  3  0  0  0  0  0  0
  -23.5840   -8.3410   22.1470 C   0  0  0  0  0  3  0  0  0  0  0  0
  -22.4230   -8.0970   21.3760 C   0  0  0  0  0  0  0  0  0  0  0  0
  -22.0200   -9.0500   20.4240 C   0  0  0  0  0  3  0  0  0  0  0  0
  -22.7450  -10.2410   20.2510 C   0  0  0  0  0  3  0  0  0  0  0  0
  -21.6730   -6.9490   21.4540 O   0  0  0  0  0  0  0  0  0  0  0  0
  -21.5940   -6.2170   22.6110 C   0  0  0  0  0  0  0  0  0  0  0  0
  -21.0980   -6.7730   23.8110 C   0  0  0  0  0  3  0  0  0  0  0  0
  -20.9680   -5.9670   24.9600 C   0  0  0  0  0  3  0  0  0  0  0  0
  -21.3240   -4.6060   24.9090 C   0  0  0  0  0  0  0  0  0  0  0  0
  -21.8110   -4.0490   23.7150 C   0  0  0  0  0  3  0  0  0  0  0  0
  -21.9430   -4.8510   22.5680 C   0  0  0  0  0  0  0  0  0  0  0  0
  -22.3920   -4.3040   21.4120 F   0  0  0  0  0  0  0  0  0  0  0  0
  -21.1920   -3.8290   26.0110 F   0  0  0  0  0  0  0  0  0  0  0  0
  -22.7410  -13.5890   21.1780 C   0  0  0  0  0  0  0  0  0  0  0  0
  -22.0150  -12.8820   22.0350 N   0  0  0  0  0  0  0  0  0  0  0  0
  -22.3010  -14.6190   20.6700 O   0  0  0  0  0  0  0  0  0  0  0  0
  -22.3840  -12.0490   22.4700 H   0  0  0  0  0  0  0  0  0  0  0  0
  -21.0760  -13.1790   22.2610 H   0  0  0  0  0  0  0  0  0  0  0  0
  -25.3530  -15.2760   20.3650 N   0  0  0  0  0  0  0  0  0  0  0  0
  -24.5860  -15.9270   20.4890 H   0  0  0  0  0  0  0  0  0  0  0  0
  -26.1940  -15.7220   20.0230 H   0  0  0  0  0  0  0  0  0  0  0  0
  -32.4130  -23.0140   17.6990 C   0  0  0  0  0  1  0  0  0  0  0  0
  -32.2640  -21.6680   18.1350 O   0  0  0  0  0  0  0  0  0  0  0  0
  -28.0210  -23.1930   20.3020 C   0  0  0  0  0  2  0  0  0  0  0  0
  -28.3080  -24.7860   20.8460 C   0  0  0  0  0  2  0  0  0  0  0  0
  -28.3100  -26.2210   20.2200 O   0  0  0  0  0  0  0  0  0  0  0  0
  -24.6150  -31.9230   23.2160 C   0  0  0  0  0  0  0  0  0  0  0  0
  -27.2270  -27.1750   20.2640 C   0  0  0  0  0  0  0  0  0  0  0  0
  -23.4350  -30.5120   21.5760 C   0  0  0  0  0  3  0  0  0  0  0  0
  -24.8990  -28.9180   20.1890 C   0  0  0  0  0  0  0  0  0  0  0  0
  -25.9900  -30.7790   21.4350 C   0  0  0  0  0  2  0  0  0  0  0  0
  -26.0730  -29.3760   20.8010 C   0  0  0  0  0  0  0  0  0  0  0  0
  -27.2420  -28.5240   20.8110 C   0  0  0  0  0  3  0  0  0  0  0  0
  -26.0250  -26.8110   19.6270 C   0  0  0  0  0  3  0  0  0  0  0  0
  -24.8890  -27.6500   19.5850 C   0  0  0  0  0  3  0  0  0  0  0  0
  -23.6730  -29.8190   20.2080 C   0  0  0  0  0  2  0  0  0  0  0  0
  -24.7000  -31.0940   22.1310 N   0  0  0  0  0  0  0  0  0  0  0  0
  -23.5220  -32.2090   23.7300 O   0  0  0  0  0  0  0  0  0  0  0  0
  -22.7480  -29.5130   22.5410 C   0  0  0  0  0  0  0  0  0  0  0  0
  -21.4180  -29.3540   22.4130 N   0  0  0  0  0  0  0  0  0  0  0  0
  -23.4140  -28.8810   23.3640 O   0  0  0  0  0  0  0  0  0  0  0  0
  -20.9390  -29.9130   21.7230 H   0  0  0  0  0  0  0  0  0  0  0  0
  -18.0210  -28.2130   22.9470 C   0  0  0  0  0  0  0  0  0  0  0  0
  -20.5870  -28.4240   23.1840 C   0  0  0  0  0  3  0  0  0  0  0  0
  -20.6540  -26.9970   22.5920 C   0  0  0  0  0  2  0  0  0  0  0  0
  -19.5340  -26.7080   21.5880 C   0  0  0  0  0  2  0  0  0  0  0  0
  -18.1640  -26.8700   22.2510 C   0  0  0  0  0  2  0  0  0  0  0  0
  -19.1590  -28.9510   23.3690 C   0  0  0  0  0  0  0  0  0  0  0  0
  -18.9710  -30.2080   23.9830 C   0  0  0  0  0  3  0  0  0  0  0  0
  -17.6780  -30.7300   24.1740 C   0  0  0  0  0  3  0  0  0  0  0  0
  -16.5540  -29.9890   23.7650 C   0  0  0  0  0  3  0  0  0  0  0  0
  -16.7260  -28.7330   23.1580 C   0  0  0  0  0  3  0  0  0  0  0  0
  -25.8840  -32.5670   23.8550 C   0  0  0  0  0  3  0  0  0  0  0  0
  -26.3790  -31.8100   25.1480 C   0  0  1  0  0  0  0  0  0  0  0  0
  -25.2680  -31.5790   26.2000 C   0  0  0  0  0  1  0  0  0  0  0  0
  -26.9730  -30.4300   24.7850 C   0  0  0  0  0  1  0  0  0  0  0  0
  -27.5150  -32.6140   25.8230 C   0  0  0  0  0  1  0  0  0  0  0  0
  -25.5640  -33.9680   24.1720 N   0  0  0  0  0  0  0  0  0  0  0  0
  -25.9050  -35.0210   23.4180 C   0  0  0  0  0  0  0  0  0  0  0  0
  -26.5870  -34.9150   22.3960 O   0  0  0  0  0  0  0  0  0  0  0  0
  -24.9590  -34.1240   24.9650 H   0  0  0  0  0  0  0  0  0  0  0  0
  -24.1900  -36.8230   23.0330 C   0  0  0  0  0  1  0  0  0  0  0  0
  -25.4130  -36.4130   23.8680 C   0  0  0  0  0  3  0  0  0  0  0  0
  -27.5290  -37.2950   24.7480 C   0  0  0  0  0  1  0  0  0  0  0  0
  -26.4510  -37.4620   23.7770 N   0  0  0  0  0  0  0  0  0  0  0  0
  -26.0440  -38.3830   23.9120 H   0  0  0  0  0  0  0  0  0  0  0  0
  2  5  2  0
  3  1  2  0
  3  9  1  0
  4  3  1  0
  5 50  1  0
  5  1  1  0
  6  2  1  0
  6  4  2  0
  7  4  1  0
  7  8  1  0
  8  9  1  0
  9 18  1  0
 11 16  1  0
 12 13  1  0
 12 11  1  0
 14 13  1  0
 14 23  1  0
 14 15  1  0
 16 10  1  0
 16 15  1  0
 17 10  2  0
 18 10  1  0
 19 18  1  0
 20 21  2  0
 21 40  1  0
 22 21  1  0
 22 25  1  0
 23 20  1  0
 23 24  1  0
 24 22  2  0
 25 26  1  0
 26 27  2  0
 28 31  1  0
 28 27  1  0
 29 28  2  0
 30 29  1  0
 30 25  2  0
 31 32  1  0
 32 33  1  0
 33 34  2  0
 35 34  1  0
 35 39  1  0
 36 35  2  0
 37 32  2  0
 37 36  1  0
 38 37  1  0
 40 41  1  0
 41 44  1  0
 41 43  1  0
 42 40  2  0
 45 46  1  0
 45 20  1  0
 47 45  1  0
 48 49  1  0
 49  6  1  0
 50 51  1  0
 52 54  1  0
 52 51  1  0
 53 64  2  0
 54 59  1  0
 55 63  1  0
 55 65  1  0
 56 62  1  0
 56 58  1  0
 57 63  1  0
 58 59  2  0
 58 57  1  0
 60 54  2  0
 61 60  1  0
 61 56  2  0
 62 55  1  0
 63 53  1  0
 65 67  2  0
 66 65  1  0
 68 66  1  0
 69 78  2  0
 69 74  1  0
 70 66  1  0
 70 74  1  0
 71 70  1  0
 72 73  1  0
 72 71  1  0
 73 69  1  0
 74 75  2  0
 75 76  1  0
 77 76  2  0
 78 77  1  0
 79 53  1  0
 79 84  1  0
 79 80  1  0
 80 83  1  1
 80 81  1  0
 82 80  1  0
 84 87  1  0
 85 89  1  0
 85 84  1  0
 86 85  2  0
 89 88  1  0
 91 89  1  0
 91 92  1  0
 91 90  1  0
M  ISO  4  10 100  18 100  51 101  52 101
M  END
>  <TORSDO>  (22) 
F 19

>  <SCORE>  (22) 
-15.103

>  <name>  (22) 
21

>  <ligand_id>  (22) 
21

>  <original_smiles>  (22) 
[H]c1c([H])c([H])c2c(c1[H])C([H])([H])C([H])([H])C([H])([H])C2([H])N([H])C(=O)C1([H])N(C(=O)C([H])(N([H])C(=O)C([H])(N([H])C([H])([H])[H])C([H])([H])[H])C(C([H])([H])[H])(C([H])([H])[H])C([H])([H])[H])C([H])([H])c2c([H])c(OC([H])([H])C([H])([H])c3c([H])c(OC([H])([H])[H])c4c(c3[H])C([H])(N([H])C(=O)N3C([H])([H])C([H])([H])C([H])([H])C([H])(n5nc(-c6c([H])c([H])c(Oc7c([H])c([H])c(F)c([H])c7F)c([H])c6[H])c(C(=O)N([H])[H])c5N([H])[H])C3([H])[H])C([H])([H])C4([H])[H])c([H])c([H])c2C1([H])[H]

>  <smiles>  (22) 
[H]c1c([H])c([H])c2c(c1[H])C([H])([H])C([H])([H])C([H])([H])C2([H])N([H])C(=O)C1([H])N(C(=O)C([H])(N([H])C(=O)C([H])(N([H])C([H])([H])[H])C([H])([H])[H])C(C([H])([H])[H])(C([H])([H])[H])C([H])([H])[H])C([H])([H])c2c([H])c(OC([H])([H])C([H])([H])c3c([H])c(OC([H])([H])[H])c4c(c3[H])C([H])(N([H])C(=O)N3C([H])([H])C([H])([H])C([H])([H])C([H])(n5nc(-c6c([H])c([H])c(Oc7c([H])c([H])c(F)c([H])c7F)c([H])c6[H])c(C(=O)N([H])[H])c5N([H])[H])C3([H])[H])C([H])([H])C4([H])[H])c([H])c([H])c2C1([H])[H]

$$$$
22:0:0
     RDKit          3D

 95104  0  0  1  0  0  0  0  0999 V2000
  -29.4150  -22.2050   20.8520 C   0  0  0  0  0  3  0  0  0  0  0  0
  -29.2790  -23.6070   20.6740 C   0  0  0  0  0  0  0  0  0  0  0  0
  -28.0910  -23.2080   18.5900 C   0  0  0  0  0  0  0  0  0  0  0  0
  -28.6470  -24.1440   19.5190 C   0  0  0  0  0  0  0  0  0  0  0  0
  -28.2030  -21.7900   18.7980 C   0  0  0  0  0  0  0  0  0  0  0  0
  -28.9260  -21.2660   19.9100 C   0  0  0  0  0  0  0  0  0  0  0  0
  -29.8610  -24.5220   21.7370 C   0  0  0  0  0  1  0  0  0  0  0  0
  -27.3940  -23.7420   17.3370 C   0  0  0  0  0  1  0  0  0  0  0  0
  -27.5170  -20.8270   17.8250 C   0  0  0  0  0  1  0  0  0  0  0  0
  -29.8710  -17.6690   19.0400 C   0  0  0  0  0  2  0  0  0  0  0  0
  -29.3370  -17.7790   21.4620 C   0  0  0  0  0  2  0  0  0  0  0  0
  -29.9640  -19.2230   19.0200 C   0  0  0  0  0  2  0  0  0  0  0  0
  -29.4610  -19.3280   21.4050 C   0  0  0  0  0  2  0  0  0  0  0  0
  -30.2210  -17.0500   20.4170 C   0  0  0  0  0  3  0  0  0  0  0  0
  -29.1540  -19.8600   20.0710 N   0  0  0  0  0  0  0  0  0  0  0  0
  -30.7720  -14.5650   20.0110 C   0  0  0  0  0  0  0  0  0  0  0  0
  -30.4710  -12.3830   18.8850 C   0  0  0  0  0  2  0  0  0  0  0  0
  -29.4640  -12.5860   17.7320 C   0  0  0  0  0  2  0  0  0  0  0  0
  -28.0120  -12.4430   18.2360 C   0  0  0  0  0  2  0  0  0  0  0  0
  -27.7400  -13.2680   19.5230 C   0  0  0  0  0  3  0  0  0  0  0  0
  -28.8530  -13.0330   20.5710 C   0  0  0  0  0  2  0  0  0  0  0  0
  -30.1390  -13.3590   19.9350 N   0  0  0  0  0  0  0  0  0  0  0  0
  -31.8920  -14.7620   19.5320 O   0  0  0  0  0  0  0  0  0  0  0  0
  -29.9980  -15.5790   20.4680 N   0  0  0  0  0  0  0  0  0  0  0  0
  -29.1030  -15.2840   20.8290 H   0  0  0  0  0  0  0  0  0  0  0  0
  -25.3870  -13.8810   20.3570 C   0  0  0  0  0  0  0  0  0  0  0  0
  -24.3340  -13.1100   20.7700 C   0  0  0  0  0  0  0  0  0  0  0  0
  -24.7820  -11.7570   20.7010 C   0  0  0  0  0  0  0  0  0  0  0  0
  -26.4110  -12.9950   20.0660 N   0  0  0  0  0  0  0  0  0  0  0  0
  -26.0550  -11.7120   20.3280 N   0  0  0  0  0  0  0  0  0  0  0  0
  -24.0590  -10.4970   20.9110 C   0  0  0  0  0  0  0  0  0  0  0  0
  -24.4850   -9.5510   21.8690 C   0  0  0  0  0  3  0  0  0  0  0  0
  -23.7610   -8.3540   22.0660 C   0  0  0  0  0  3  0  0  0  0  0  0
  -22.5970   -8.0960   21.3040 C   0  0  0  0  0  0  0  0  0  0  0  0
  -22.1900   -9.0320   20.3360 C   0  0  0  0  0  3  0  0  0  0  0  0
  -22.9140  -10.2180   20.1380 C   0  0  0  0  0  3  0  0  0  0  0  0
  -21.8460   -6.9510   21.4080 O   0  0  0  0  0  0  0  0  0  0  0  0
  -21.7280   -6.2740   22.5950 C   0  0  0  0  0  0  0  0  0  0  0  0
  -21.2030   -6.8860   23.7530 C   0  0  0  0  0  3  0  0  0  0  0  0
  -21.0340   -6.1350   24.9320 C   0  0  0  0  0  3  0  0  0  0  0  0
  -21.3790   -4.7700   24.9550 C   0  0  0  0  0  0  0  0  0  0  0  0
  -21.8970   -4.1560   23.7990 C   0  0  0  0  0  3  0  0  0  0  0  0
  -22.0680   -4.9060   22.6230 C   0  0  0  0  0  0  0  0  0  0  0  0
  -22.5470   -4.3050   21.5070 F   0  0  0  0  0  0  0  0  0  0  0  0
  -21.2110   -4.0440   26.0850 F   0  0  0  0  0  0  0  0  0  0  0  0
  -22.9540  -13.5930   21.1190 C   0  0  0  0  0  0  0  0  0  0  0  0
  -22.2670  -12.8910   22.0120 N   0  0  0  0  0  0  0  0  0  0  0  0
  -22.4980  -14.6290   20.6360 O   0  0  0  0  0  0  0  0  0  0  0  0
  -22.6470  -12.0500   22.4200 H   0  0  0  0  0  0  0  0  0  0  0  0
  -21.3450  -13.1990   22.2920 H   0  0  0  0  0  0  0  0  0  0  0  0
  -25.5510  -15.2520   20.1880 N   0  0  0  0  0  0  0  0  0  0  0  0
  -24.7920  -15.9060   20.3400 H   0  0  0  0  0  0  0  0  0  0  0  0
  -26.3720  -15.6880   19.7870 H   0  0  0  0  0  0  0  0  0  0  0  0
  -28.7190  -25.6760   19.1820 C   0  0  0  0  0  2  0  0  0  0  0  0
  -28.4470  -26.6640   20.2120 O   0  0  0  0  0  0  0  0  0  0  0  0
  -24.6120  -31.9100   23.2320 C   0  0  0  0  0  0  0  0  0  0  0  0
  -27.2770  -27.4150   20.1830 C   0  0  0  0  0  0  0  0  0  0  0  0
  -23.4200  -30.5020   21.5870 C   0  0  0  0  0  3  0  0  0  0  0  0
  -24.8820  -28.9520   20.1830 C   0  0  0  0  0  0  0  0  0  0  0  0
  -25.9520  -30.8430   21.4140 C   0  0  0  0  0  2  0  0  0  0  0  0
  -26.0400  -29.4680   20.7760 C   0  0  0  0  0  0  0  0  0  0  0  0
  -27.2370  -28.7050   20.7760 C   0  0  0  0  0  3  0  0  0  0  0  0
  -26.0880  -26.9140   19.6080 C   0  0  0  0  0  3  0  0  0  0  0  0
  -24.9030  -27.6730   19.6010 C   0  0  0  0  0  3  0  0  0  0  0  0
  -23.6410  -29.8190   20.2120 C   0  0  0  0  0  2  0  0  0  0  0  0
  -24.6790  -31.1030   22.1350 N   0  0  0  0  0  0  0  0  0  0  0  0
  -23.5260  -32.1840   23.7620 O   0  0  0  0  0  0  0  0  0  0  0  0
  -22.7610  -29.4860   22.5490 C   0  0  0  0  0  0  0  0  0  0  0  0
  -21.4400  -29.2920   22.4050 N   0  0  0  0  0  0  0  0  0  0  0  0
  -23.4360  -28.8750   23.3830 O   0  0  0  0  0  0  0  0  0  0  0  0
  -20.9560  -29.8330   21.7030 H   0  0  0  0  0  0  0  0  0  0  0  0
  -18.0720  -28.0650   22.8770 C   0  0  0  0  0  0  0  0  0  0  0  0
  -20.6230  -28.3550   23.1760 C   0  0  0  0  0  3  0  0  0  0  0  0
  -20.7510  -26.9180   22.6210 C   0  0  0  0  0  2  0  0  0  0  0  0
  -19.6660  -26.5690   21.5980 C   0  0  0  0  0  2  0  0  0  0  0  0
  -18.2710  -26.7100   22.2170 C   0  0  0  0  0  2  0  0  0  0  0  0
  -19.1770  -28.8430   23.3120 C   0  0  0  0  0  0  0  0  0  0  0  0
  -18.9370  -30.1110   23.8870 C   0  0  0  0  0  3  0  0  0  0  0  0
  -17.6250  -30.5990   24.0310 C   0  0  0  0  0  3  0  0  0  0  0  0
  -16.5360  -29.8190   23.6100 C   0  0  0  0  0  3  0  0  0  0  0  0
  -16.7590  -28.5530   23.0400 C   0  0  0  0  0  3  0  0  0  0  0  0
  -25.8930  -32.5500   23.8580 C   0  0  0  0  0  3  0  0  0  0  0  0
  -25.5760  -33.9470   24.1820 N   0  0  0  0  0  0  0  0  0  0  0  0
  -25.9150  -35.0000   23.4250 C   0  0  0  0  0  0  0  0  0  0  0  0
  -26.5990  -34.8960   22.4040 O   0  0  0  0  0  0  0  0  0  0  0  0
  -24.9860  -34.1040   24.9860 H   0  0  0  0  0  0  0  0  0  0  0  0
  -24.1990  -36.7940   23.0290 C   0  0  0  0  0  1  0  0  0  0  0  0
  -25.4170  -36.3860   23.8740 C   0  0  0  0  0  3  0  0  0  0  0  0
  -27.5250  -37.2690   24.7720 C   0  0  0  0  0  1  0  0  0  0  0  0
  -26.4530  -37.4390   23.7940 N   0  0  0  0  0  0  0  0  0  0  0  0
  -26.0430  -38.3590   23.9300 H   0  0  0  0  0  0  0  0  0  0  0  0
  -26.4080  -31.7860   25.1380 C   0  0  1  0  0  0  0  0  0  0  0  0
  -25.3090  -31.5370   26.1970 C   0  0  0  0  0  1  0  0  0  0  0  0
  -27.0130  -30.4160   24.7550 C   0  0  0  0  0  1  0  0  0  0  0  0
  -27.5460  -32.5930   25.8070 C   0  0  0  0  0  1  0  0  0  0  0  0
  2  1  1  0
  2  7  1  0
  3  5  2  0
  3  4  1  0
  4  2  2  0
  5  6  1  0
  6 15  1  0
  6  1  2  0
  8  3  1  0
  9  5  1  0
 10 14  1  0
 12 10  1  0
 12 15  1  0
 13 11  1  0
 14 24  1  0
 14 11  1  0
 15 13  1  0
 16 24  1  0
 17 22  1  0
 18 19  1  0
 18 17  1  0
 20 19  1  0
 20 29  1  0
 20 21  1  0
 22 16  1  0
 22 21  1  0
 23 16  2  0
 24 25  1  0
 26 27  2  0
 27 46  1  0
 28 27  1  0
 28 31  1  0
 29 30  1  0
 29 26  1  0
 30 28  2  0
 31 32  1  0
 32 33  2  0
 34 37  1  0
 34 33  1  0
 35 34  2  0
 36 35  1  0
 36 31  2  0
 37 38  1  0
 38 43  2  0
 38 39  1  0
 39 40  2  0
 40 41  1  0
 41 45  1  0
 42 41  2  0
 43 42  1  0
 44 43  1  0
 46 47  1  0
 47 50  1  0
 47 49  1  0
 48 46  2  0
 51 52  1  0
 51 26  1  0
 53 51  1  0
 54  4  1  0
 54 55  1  0
 56 67  2  0
 57 55  1  0
 57 62  1  0
 58 66  1  0
 58 68  1  0
 59 65  1  0
 59 61  1  0
 60 66  1  0
 61 60  1  0
 62 61  2  0
 63 57  2  0
 64 63  1  0
 64 59  2  0
 65 58  1  0
 66 56  1  0
 68 70  2  0
 69 68  1  0
 71 69  1  0
 72 81  2  0
 72 77  1  0
 73 69  1  0
 73 77  1  0
 74 73  1  0
 75 76  1  0
 75 74  1  0
 76 72  1  0
 77 78  2  0
 78 79  1  0
 80 79  2  0
 81 80  1  0
 82 56  1  0
 82 83  1  0
 82 92  1  0
 83 86  1  0
 84 88  1  0
 84 83  1  0
 85 84  2  0
 88 87  1  0
 90 88  1  0
 90 91  1  0
 90 89  1  0
 92 95  1  1
 92 93  1  0
 94 92  1  0
M  ISO  4  16 100  24 100  54 101  55 101
M  END
>  <TORSDO>  (23) 
F 18

>  <SCORE>  (23) 
-13.908

>  <name>  (23) 
22

>  <ligand_id>  (23) 
22

>  <original_smiles>  (23) 
[H]c1c([H])c([H])c2c(c1[H])C([H])([H])C([H])([H])C([H])([H])C2([H])N([H])C(=O)C1([H])N(C(=O)C([H])(N([H])C(=O)C([H])(N([H])C([H])([H])[H])C([H])([H])[H])C(C([H])([H])[H])(C([H])([H])[H])C([H])([H])[H])C([H])([H])c2c([H])c(OC([H])([H])c3c(C([H])([H])[H])c([H])c(N4C([H])([H])C([H])([H])C([H])(N([H])C(=O)N5C([H])([H])C([H])([H])C([H])([H])C([H])(n6nc(-c7c([H])c([H])c(Oc8c([H])c([H])c(F)c([H])c8F)c([H])c7[H])c(C(=O)N([H])[H])c6N([H])[H])C5([H])[H])C([H])([H])C4([H])[H])c(C([H])([H])[H])c3C([H])([H])[H])c([H])c([H])c2C1([H])[H]

>  <smiles>  (23) 
[H]c1c([H])c([H])c2c(c1[H])C([H])([H])C([H])([H])C([H])([H])C2([H])N([H])C(=O)C1([H])N(C(=O)C([H])(N([H])C(=O)C([H])(N([H])C([H])([H])[H])C([H])([H])[H])C(C([H])([H])[H])(C([H])([H])[H])C([H])([H])[H])C([H])([H])c2c([H])c(OC([H])([H])c3c(C([H])([H])[H])c([H])c(N4C([H])([H])C([H])([H])C([H])(N([H])C(=O)N5C([H])([H])C([H])([H])C([H])([H])C([H])(n6nc(-c7c([H])c([H])c(Oc8c([H])c([H])c(F)c([H])c8F)c([H])c7[H])c(C(=O)N([H])[H])c6N([H])[H])C5([H])[H])C([H])([H])C4([H])[H])c(C([H])([H])[H])c3C([H])([H])[H])c([H])c([H])c2C1([H])[H]

$$$$
23:0:0
     RDKit          3D

 93102  0  0  1  0  0  0  0  0999 V2000
  -29.7200  -23.0690   21.0970 C   0  0  0  0  0  0  0  0  0  0  0  0
  -28.6180  -23.3540   20.2250 C   0  0  0  0  0  0  0  0  0  0  0  0
  -29.9940  -21.7040   21.1060 C   0  0  0  0  0  0  0  0  0  0  0  0
  -28.2820  -22.0590   19.7610 C   0  0  0  0  0  0  0  0  0  0  0  0
  -30.4700  -24.1020   21.9030 C   0  0  0  0  0  1  0  0  0  0  0  0
  -31.0660  -20.9880   21.8660 C   0  0  0  0  0  1  0  0  0  0  0  0
  -29.0990  -20.9950   20.2950 N   0  0  0  0  0  0  0  0  0  0  0  0
  -30.6610  -14.9440   19.9790 C   0  0  0  0  0  0  0  0  0  0  0  0
  -30.3640  -12.6510   18.9740 C   0  0  0  0  0  2  0  0  0  0  0  0
  -29.3650  -12.6470   17.7980 C   0  0  0  0  0  2  0  0  0  0  0  0
  -27.9350  -12.4300   18.3210 C   0  0  0  0  0  2  0  0  0  0  0  0
  -27.6070  -13.3260   19.5460 C   0  0  0  0  0  3  0  0  0  0  0  0
  -28.7340  -13.3360   20.5990 C   0  0  0  0  0  2  0  0  0  0  0  0
  -29.9570  -13.7470   19.9010 N   0  0  0  0  0  0  0  0  0  0  0  0
  -31.8530  -14.8840   19.6570 O   0  0  0  0  0  0  0  0  0  0  0  0
  -29.0140  -18.3930   21.2270 C   0  0  0  0  0  2  0  0  0  0  0  0
  -30.1000  -18.7990   19.0550 C   0  0  0  0  0  2  0  0  0  0  0  0
  -28.9710  -16.8120   20.8560 C   0  0  0  0  0  2  0  0  0  0  0  0
  -30.8320  -17.4200   19.4360 C   0  0  0  0  0  2  0  0  0  0  0  0
  -29.0460  -19.4310   20.0340 C   0  0  0  0  0  3  0  0  0  0  0  0
  -30.0630  -16.2440   19.9930 N   0  0  0  0  0  0  0  0  0  0  0  0
  -25.2790  -13.8570   20.4610 C   0  0  0  0  0  0  0  0  0  0  0  0
  -24.2450  -13.0620   20.8700 C   0  0  0  0  0  0  0  0  0  0  0  0
  -24.7140  -11.7160   20.7630 C   0  0  0  0  0  0  0  0  0  0  0  0
  -26.3090  -12.9970   20.1260 N   0  0  0  0  0  0  0  0  0  0  0  0
  -25.9830  -11.7010   20.3720 N   0  0  0  0  0  0  0  0  0  0  0  0
  -24.0060  -10.4430   20.9520 C   0  0  0  0  0  0  0  0  0  0  0  0
  -24.4560   -9.4770   21.8780 C   0  0  0  0  0  3  0  0  0  0  0  0
  -23.7460   -8.2700   22.0570 C   0  0  0  0  0  3  0  0  0  0  0  0
  -22.5700   -8.0200   21.3090 C   0  0  0  0  0  0  0  0  0  0  0  0
  -22.1390   -8.9760   20.3730 C   0  0  0  0  0  3  0  0  0  0  0  0
  -22.8500  -10.1740   20.1920 C   0  0  0  0  0  3  0  0  0  0  0  0
  -21.8290   -6.8660   21.3990 O   0  0  0  0  0  0  0  0  0  0  0  0
  -21.7330   -6.1630   22.5730 C   0  0  0  0  0  0  0  0  0  0  0  0
  -21.2150   -6.7450   23.7500 C   0  0  0  0  0  3  0  0  0  0  0  0
  -21.0690   -5.9660   24.9160 C   0  0  0  0  0  3  0  0  0  0  0  0
  -21.4290   -4.6050   24.9030 C   0  0  0  0  0  0  0  0  0  0  0  0
  -21.9380   -4.0220   23.7290 C   0  0  0  0  0  3  0  0  0  0  0  0
  -22.0870   -4.7980   22.5660 C   0  0  0  0  0  0  0  0  0  0  0  0
  -22.5590   -4.2260   21.4320 F   0  0  0  0  0  0  0  0  0  0  0  0
  -21.2810   -3.8540   26.0190 F   0  0  0  0  0  0  0  0  0  0  0  0
  -22.8660  -13.5210   21.2420 C   0  0  0  0  0  0  0  0  0  0  0  0
  -22.1990  -12.7970   22.1340 N   0  0  0  0  0  0  0  0  0  0  0  0
  -22.3900  -14.5550   20.7770 O   0  0  0  0  0  0  0  0  0  0  0  0
  -22.5980  -11.9580   22.5300 H   0  0  0  0  0  0  0  0  0  0  0  0
  -21.2770  -13.0870   22.4270 H   0  0  0  0  0  0  0  0  0  0  0  0
  -25.4220  -15.2340   20.3200 N   0  0  0  0  0  0  0  0  0  0  0  0
  -24.6570  -15.8760   20.4960 H   0  0  0  0  0  0  0  0  0  0  0  0
  -26.2410  -15.6880   19.9360 H   0  0  0  0  0  0  0  0  0  0  0  0
  -27.6740  -21.4130   17.3900 C   0  0  0  0  0  1  0  0  0  0  0  0
  -27.1750  -21.7300   18.8040 C   0  0  0  0  0  2  0  0  0  0  0  0
  -27.8520  -24.7680   19.8830 C   0  0  0  0  0  2  0  0  0  0  0  0
  -28.2160  -26.2180   20.2620 O   0  0  0  0  0  0  0  0  0  0  0  0
  -24.6390  -31.8760   23.2920 C   0  0  0  0  0  0  0  0  0  0  0  0
  -27.1900  -27.2250   20.1780 C   0  0  0  0  0  0  0  0  0  0  0  0
  -23.4330  -30.5140   21.6300 C   0  0  0  0  0  3  0  0  0  0  0  0
  -24.8740  -28.9720   20.1740 C   0  0  0  0  0  0  0  0  0  0  0  0
  -25.9880  -30.7760   21.4710 C   0  0  0  0  0  2  0  0  0  0  0  0
  -26.0550  -29.4000   20.7960 C   0  0  0  0  0  0  0  0  0  0  0  0
  -27.2150  -28.5390   20.7880 C   0  0  0  0  0  3  0  0  0  0  0  0
  -25.9900  -26.9120   19.4960 C   0  0  0  0  0  3  0  0  0  0  0  0
  -24.8540  -27.7410   19.5100 C   0  0  0  0  0  3  0  0  0  0  0  0
  -23.6500  -29.8680   20.2380 C   0  0  0  0  0  2  0  0  0  0  0  0
  -24.7060  -31.0760   22.1860 N   0  0  0  0  0  0  0  0  0  0  0  0
  -23.5540  -32.1560   23.8230 O   0  0  0  0  0  0  0  0  0  0  0  0
  -22.7530  -29.4890   22.5720 C   0  0  0  0  0  0  0  0  0  0  0  0
  -21.4250  -29.3190   22.4380 N   0  0  0  0  0  0  0  0  0  0  0  0
  -23.4220  -28.8500   23.3890 O   0  0  0  0  0  0  0  0  0  0  0  0
  -20.9420  -29.8860   21.7550 H   0  0  0  0  0  0  0  0  0  0  0  0
  -18.0390  -28.1240   22.9160 C   0  0  0  0  0  0  0  0  0  0  0  0
  -20.5980  -28.3730   23.1930 C   0  0  0  0  0  3  0  0  0  0  0  0
  -20.6970  -26.9490   22.5980 C   0  0  0  0  0  2  0  0  0  0  0  0
  -19.5960  -26.6450   21.5770 C   0  0  0  0  0  2  0  0  0  0  0  0
  -18.2130  -26.7850   22.2200 C   0  0  0  0  0  2  0  0  0  0  0  0
  -19.1600  -28.8770   23.3580 C   0  0  0  0  0  0  0  0  0  0  0  0
  -18.9420  -30.1310   23.9700 C   0  0  0  0  0  3  0  0  0  0  0  0
  -17.6380  -30.6320   24.1420 C   0  0  0  0  0  3  0  0  0  0  0  0
  -16.5320  -29.8760   23.7160 C   0  0  0  0  0  3  0  0  0  0  0  0
  -16.7340  -28.6240   23.1080 C   0  0  0  0  0  3  0  0  0  0  0  0
  -25.9200  -32.4950   23.9270 C   0  0  0  0  0  3  0  0  0  0  0  0
  -25.6250  -33.8990   24.2500 N   0  0  0  0  0  0  0  0  0  0  0  0
  -25.9420  -34.9450   23.4760 C   0  0  0  0  0  0  0  0  0  0  0  0
  -26.5840  -34.8290   22.4280 O   0  0  0  0  0  0  0  0  0  0  0  0
  -25.0540  -34.0630   25.0670 H   0  0  0  0  0  0  0  0  0  0  0  0
  -24.1990  -36.7360   23.1770 C   0  0  0  0  0  1  0  0  0  0  0  0
  -25.4770  -36.3410   23.9360 C   0  0  0  0  0  3  0  0  0  0  0  0
  -27.6440  -37.2430   24.6580 C   0  0  0  0  0  1  0  0  0  0  0  0
  -26.5020  -37.3920   23.7590 N   0  0  0  0  0  0  0  0  0  0  0  0
  -26.1020  -38.3150   23.9060 H   0  0  0  0  0  0  0  0  0  0  0  0
  -26.4070  -31.7240   25.2160 C   0  0  1  0  0  0  0  0  0  0  0  0
  -25.2950  -31.5060   26.2690 C   0  0  0  0  0  1  0  0  0  0  0  0
  -26.9780  -30.3370   24.8430 C   0  0  0  0  0  1  0  0  0  0  0  0
  -27.5570  -32.5070   25.8900 C   0  0  0  0  0  1  0  0  0  0  0  0
  1  3  2  0
  1  5  1  0
  2  1  1  0
  3  6  1  0
  4  2  2  0
  4  7  1  0
  7  3  1  0
  8 21  1  0
  9 14  1  0
 10 11  1  0
 10  9  1  0
 12 11  1  0
 12 25  1  0
 12 13  1  0
 14  8  1  0
 14 13  1  0
 15  8  2  0
 17 19  1  0
 18 16  1  0
 19 21  1  0
 20 17  1  0
 20  7  1  0
 20 16  1  0
 21 18  1  0
 22 23  2  0
 23 42  1  0
 24 23  1  0
 24 27  1  0
 25 26  1  0
 25 22  1  0
 26 24  2  0
 27 28  1  0
 28 29  2  0
 30 33  1  0
 30 29  1  0
 31 30  2  0
 32 31  1  0
 32 27  2  0
 33 34  1  0
 34 35  1  0
 35 36  2  0
 37 36  1  0
 37 41  1  0
 38 37  2  0
 39 34  2  0
 39 38  1  0
 40 39  1  0
 42 43  1  0
 43 46  1  0
 43 45  1  0
 44 42  2  0
 47 22  1  0
 47 48  1  0
 49 47  1  0
 50 51  1  0
 51  4  1  0
 52  2  1  0
 52 53  1  0
 54 65  2  0
 55 53  1  0
 55 60  1  0
 56 64  1  0
 56 66  1  0
 57 63  1  0
 57 59  1  0
 58 64  1  0
 59 58  1  0
 60 59  2  0
 61 62  1  0
 61 55  2  0
 62 57  2  0
 63 56  1  0
 64 54  1  0
 66 68  2  0
 67 66  1  0
 69 67  1  0
 70 79  2  0
 70 75  1  0
 71 67  1  0
 71 75  1  0
 72 71  1  0
 73 74  1  0
 73 72  1  0
 74 70  1  0
 75 76  2  0
 76 77  1  0
 78 77  2  0
 79 78  1  0
 80 54  1  0
 80 81  1  0
 80 90  1  0
 81 84  1  0
 82 86  1  0
 82 81  1  0
 83 82  2  0
 86 85  1  0
 88 89  1  0
 88 86  1  0
 88 87  1  0
 90 93  1  1
 90 91  1  0
 92 90  1  0
M  ISO  4   8 100  21 100  52 101  53 101
M  END
>  <TORSDO>  (24) 
F 18

>  <SCORE>  (24) 
-14.232

>  <name>  (24) 
23

>  <ligand_id>  (24) 
23

>  <original_smiles>  (24) 
[H]c1c([H])c([H])c2c(c1[H])C([H])([H])C([H])([H])C([H])([H])C2([H])N([H])C(=O)C1([H])N(C(=O)C([H])(N([H])C(=O)C([H])(N([H])C([H])([H])[H])C([H])([H])[H])C(C([H])([H])[H])(C([H])([H])[H])C([H])([H])[H])C([H])([H])c2c([H])c(OC([H])([H])c3c(C([H])([H])[H])c(C([H])([H])[H])n(C4([H])C([H])([H])C([H])([H])N(C(=O)N5C([H])([H])C([H])([H])C([H])([H])C([H])(n6nc(-c7c([H])c([H])c(Oc8c([H])c([H])c(F)c([H])c8F)c([H])c7[H])c(C(=O)N([H])[H])c6N([H])[H])C5([H])[H])C([H])([H])C4([H])[H])c3C([H])([H])C([H])([H])[H])c([H])c([H])c2C1([H])[H]

>  <smiles>  (24) 
[H]c1c([H])c([H])c2c(c1[H])C([H])([H])C([H])([H])C([H])([H])C2([H])N([H])C(=O)C1([H])N(C(=O)C([H])(N([H])C(=O)C([H])(N([H])C([H])([H])[H])C([H])([H])[H])C(C([H])([H])[H])(C([H])([H])[H])C([H])([H])[H])C([H])([H])c2c([H])c(OC([H])([H])c3c(C([H])([H])[H])c(C([H])([H])[H])n(C4([H])C([H])([H])C([H])([H])N(C(=O)N5C([H])([H])C([H])([H])C([H])([H])C([H])(n6nc(-c7c([H])c([H])c(Oc8c([H])c([H])c(F)c([H])c8F)c([H])c7[H])c(C(=O)N([H])[H])c6N([H])[H])C5([H])[H])C([H])([H])C4([H])[H])c3C([H])([H])C([H])([H])[H])c([H])c([H])c2C1([H])[H]

$$$$
24:0:0
     RDKit          3D

 94103  0  0  1  0  0  0  0  0999 V2000
  -31.1750  -23.1610   21.3120 C   0  0  0  0  0  3  0  0  0  0  0  0
  -30.9280  -21.8390   20.8970 C   0  0  0  0  0  3  0  0  0  0  0  0
  -30.2660  -24.2050   21.0390 C   0  0  0  0  0  0  0  0  0  0  0  0
  -29.7450  -21.4960   20.2140 C   0  0  0  0  0  0  0  0  0  0  0  0
  -28.7820  -22.5500   19.9940 C   0  0  0  0  0  0  0  0  0  0  0  0
  -29.0470  -23.9250   20.3660 C   0  0  0  0  0  0  0  0  0  0  0  0
  -30.6430  -25.6110   21.4740 C   0  0  0  0  0  1  0  0  0  0  0  0
  -27.4580  -22.2070   19.3120 C   0  0  0  0  0  1  0  0  0  0  0  0
  -29.6600  -20.0600   19.5740 C   0  0  0  0  0  2  0  0  0  0  0  0
  -30.6620  -14.6060   20.4240 C   0  0  0  0  0  0  0  0  0  0  0  0
  -30.3690  -12.3830   19.3740 C   0  0  0  0  0  2  0  0  0  0  0  0
  -29.4370  -12.5050   18.1520 C   0  0  0  0  0  2  0  0  0  0  0  0
  -27.9630  -12.3550   18.5800 C   0  0  0  0  0  2  0  0  0  0  0  0
  -27.5960  -13.2350   19.8050 C   0  0  0  0  0  3  0  0  0  0  0  0
  -28.6580  -13.1260   20.9250 C   0  0  0  0  0  2  0  0  0  0  0  0
  -29.9690  -13.4300   20.3330 N   0  0  0  0  0  0  0  0  0  0  0  0
  -31.8520  -14.6800   20.1080 O   0  0  0  0  0  0  0  0  0  0  0  0
  -30.3870  -16.7600   21.6380 C   0  0  0  0  0  2  0  0  0  0  0  0
  -29.4870  -16.4730   19.3980 C   0  0  0  0  0  2  0  0  0  0  0  0
  -30.5660  -18.2540   21.1530 C   0  0  0  0  0  2  0  0  0  0  0  0
  -28.6450  -17.7510   19.7040 C   0  0  0  0  0  2  0  0  0  0  0  0
  -29.9540  -15.7670   20.6130 N   0  0  0  0  0  0  0  0  0  0  0  0
  -29.3880  -18.8330   20.4280 N   0  0  2  0  0  4  0  0  0  0  0  0
  -28.7430  -19.1550   21.1320 H   0  0  0  0  0  0  0  0  0  0  0  0
  -25.2010  -13.8420   20.5020 C   0  0  0  0  0  0  0  0  0  0  0  0
  -24.1280  -13.0750   20.8680 C   0  0  0  0  0  0  0  0  0  0  0  0
  -24.5910  -11.7230   20.8580 C   0  0  0  0  0  0  0  0  0  0  0  0
  -26.2470  -12.9580   20.2890 N   0  0  0  0  0  0  0  0  0  0  0  0
  -25.8850  -11.6800   20.5640 N   0  0  0  0  0  0  0  0  0  0  0  0
  -23.8630  -10.4620   21.0530 C   0  0  0  0  0  0  0  0  0  0  0  0
  -24.3050   -9.4930   21.9800 C   0  0  0  0  0  3  0  0  0  0  0  0
  -23.5780   -8.2970   22.1640 C   0  0  0  0  0  3  0  0  0  0  0  0
  -22.3950   -8.0630   21.4220 C   0  0  0  0  0  0  0  0  0  0  0  0
  -21.9720   -9.0230   20.4850 C   0  0  0  0  0  3  0  0  0  0  0  0
  -22.7010  -10.2100   20.2990 C   0  0  0  0  0  3  0  0  0  0  0  0
  -21.6380   -6.9200   21.5170 O   0  0  0  0  0  0  0  0  0  0  0  0
  -21.6210   -6.1630   22.6600 C   0  0  0  0  0  0  0  0  0  0  0  0
  -21.2550   -6.7070   23.9110 C   0  0  0  0  0  3  0  0  0  0  0  0
  -21.1810   -5.8770   25.0460 C   0  0  0  0  0  3  0  0  0  0  0  0
  -21.4650   -4.5020   24.9350 C   0  0  0  0  0  0  0  0  0  0  0  0
  -21.8270   -3.9590   23.6890 C   0  0  0  0  0  3  0  0  0  0  0  0
  -21.9020   -4.7860   22.5550 C   0  0  0  0  0  0  0  0  0  0  0  0
  -22.2290   -4.2520   21.3550 F   0  0  0  0  0  0  0  0  0  0  0  0
  -21.3890   -3.7030   26.0240 F   0  0  0  0  0  0  0  0  0  0  0  0
  -22.7270  -13.5570   21.1150 C   0  0  0  0  0  0  0  0  0  0  0  0
  -21.9880  -12.8750   21.9810 N   0  0  0  0  0  0  0  0  0  0  0  0
  -22.2970  -14.5750   20.5760 O   0  0  0  0  0  0  0  0  0  0  0  0
  -22.3490  -12.0540   22.4430 H   0  0  0  0  0  0  0  0  0  0  0  0
  -21.0490  -13.1840   22.1900 H   0  0  0  0  0  0  0  0  0  0  0  0
  -25.3710  -15.2090   20.3110 N   0  0  0  0  0  0  0  0  0  0  0  0
  -24.6060  -15.8690   20.4010 H   0  0  0  0  0  0  0  0  0  0  0  0
  -26.2230  -15.6320   19.9720 H   0  0  0  0  0  0  0  0  0  0  0  0
  -27.9950  -25.0470   20.0470 C   0  0  0  0  0  2  0  0  0  0  0  0
  -28.2850  -26.4850   20.1850 O   0  0  0  0  0  0  0  0  0  0  0  0
  -24.6280  -31.8950   23.2270 C   0  0  0  0  0  0  0  0  0  0  0  0
  -27.1740  -27.3390   20.1360 C   0  0  0  0  0  0  0  0  0  0  0  0
  -23.3970  -30.5030   21.6030 C   0  0  0  0  0  3  0  0  0  0  0  0
  -24.8190  -28.9520   20.1610 C   0  0  0  0  0  0  0  0  0  0  0  0
  -25.9350  -30.8120   21.3890 C   0  0  0  0  0  2  0  0  0  0  0  0
  -25.9990  -29.4370   20.7390 C   0  0  0  0  0  0  0  0  0  0  0  0
  -27.1810  -28.6410   20.7200 C   0  0  0  0  0  3  0  0  0  0  0  0
  -25.9670  -26.9100   19.5320 C   0  0  0  0  0  3  0  0  0  0  0  0
  -24.8020  -27.6920   19.5540 C   0  0  0  0  0  3  0  0  0  0  0  0
  -23.5910  -29.8330   20.2190 C   0  0  0  0  0  2  0  0  0  0  0  0
  -24.6730  -31.0850   22.1290 N   0  0  0  0  0  0  0  0  0  0  0  0
  -23.5530  -32.1790   23.7730 O   0  0  0  0  0  0  0  0  0  0  0  0
  -22.7430  -29.4850   22.5680 C   0  0  0  0  0  0  0  0  0  0  0  0
  -21.4160  -29.3110   22.4550 N   0  0  0  0  0  0  0  0  0  0  0  0
  -23.4280  -28.8570   23.3800 O   0  0  0  0  0  0  0  0  0  0  0  0
  -20.9210  -29.8720   21.7740 H   0  0  0  0  0  0  0  0  0  0  0  0
  -18.0410  -28.1220   22.9780 C   0  0  0  0  0  0  0  0  0  0  0  0
  -20.6000  -28.3800   23.2350 C   0  0  0  0  0  3  0  0  0  0  0  0
  -20.7000  -26.9440   22.6710 C   0  0  0  0  0  2  0  0  0  0  0  0
  -19.5940  -26.6130   21.6650 C   0  0  0  0  0  2  0  0  0  0  0  0
  -18.2140  -26.7660   22.3130 C   0  0  0  0  0  2  0  0  0  0  0  0
  -19.1620  -28.8850   23.3970 C   0  0  0  0  0  0  0  0  0  0  0  0
  -18.9480  -30.1530   23.9800 C   0  0  0  0  0  3  0  0  0  0  0  0
  -17.6450  -30.6580   24.1480 C   0  0  0  0  0  3  0  0  0  0  0  0
  -16.5380  -29.8910   23.7450 C   0  0  0  0  0  3  0  0  0  0  0  0
  -16.7370  -28.6250   23.1660 C   0  0  0  0  0  3  0  0  0  0  0  0
  -25.9220  -32.5210   23.8310 C   0  0  0  0  0  3  0  0  0  0  0  0
  -25.6170  -33.9140   24.1810 N   0  0  0  0  0  0  0  0  0  0  0  0
  -25.9260  -34.9750   23.4220 C   0  0  0  0  0  0  0  0  0  0  0  0
  -26.5700  -34.8830   22.3740 O   0  0  0  0  0  0  0  0  0  0  0  0
  -25.0440  -34.0610   24.9990 H   0  0  0  0  0  0  0  0  0  0  0  0
  -24.1800  -36.7620   23.1340 C   0  0  0  0  0  1  0  0  0  0  0  0
  -25.4450  -36.3570   23.9050 C   0  0  0  0  0  3  0  0  0  0  0  0
  -27.6010  -37.2430   24.6800 C   0  0  0  0  0  1  0  0  0  0  0  0
  -26.4700  -37.4160   23.7730 N   0  0  0  0  0  0  0  0  0  0  0  0
  -26.0630  -38.3320   23.9450 H   0  0  0  0  0  0  0  0  0  0  0  0
  -26.4610  -31.7380   25.0910 C   0  0  1  0  0  0  0  0  0  0  0  0
  -25.3880  -31.4940   26.1770 C   0  0  0  0  0  1  0  0  0  0  0  0
  -27.0350  -30.3630   24.6750 C   0  0  0  0  0  1  0  0  0  0  0  0
  -27.6230  -32.5250   25.7410 C   0  0  0  0  0  1  0  0  0  0  0  0
  2  1  2  0
  3  1  1  0
  3  7  1  0
  4  2  1  0
  5  4  2  0
  5  6  1  0
  6  3  2  0
  8  5  1  0
  9  4  1  0
  9 23  1  0
 10 22  1  0
 11 16  1  0
 12 13  1  0
 12 11  1  0
 14 13  1  0
 14 28  1  0
 14 15  1  0
 16 10  1  0
 16 15  1  0
 17 10  2  0
 19 21  1  0
 19 22  1  0
 20 18  1  0
 21 23  1  0
 22 18  1  0
 23 24  1  1
 23 20  1  0
 25 26  2  0
 26 45  1  0
 27 26  1  0
 27 30  1  0
 28 25  1  0
 28 29  1  0
 29 27  2  0
 30 31  1  0
 31 32  2  0
 33 36  1  0
 33 32  1  0
 34 33  2  0
 35 34  1  0
 35 30  2  0
 36 37  1  0
 37 38  1  0
 38 39  2  0
 40 39  1  0
 40 44  1  0
 41 40  2  0
 42 37  2  0
 42 41  1  0
 43 42  1  0
 45 46  1  0
 46 49  1  0
 46 48  1  0
 47 45  2  0
 50 51  1  0
 50 25  1  0
 52 50  1  0
 53 54  1  0
 53  6  1  0
 55 66  2  0
 56 54  1  0
 56 61  1  0
 57 65  1  0
 57 67  1  0
 58 64  1  0
 58 60  1  0
 59 65  1  0
 60 59  1  0
 61 60  2  0
 62 63  1  0
 62 56  2  0
 63 58  2  0
 64 57  1  0
 65 55  1  0
 67 69  2  0
 68 67  1  0
 70 68  1  0
 71 80  2  0
 71 76  1  0
 72 68  1  0
 72 76  1  0
 73 72  1  0
 74 75  1  0
 74 73  1  0
 75 71  1  0
 76 77  2  0
 77 78  1  0
 79 78  2  0
 80 79  1  0
 81 55  1  0
 81 82  1  0
 81 91  1  0
 82 85  1  0
 83 87  1  0
 83 82  1  0
 84 83  2  0
 87 86  1  0
 89 87  1  0
 89 90  1  0
 89 88  1  0
 91 94  1  1
 91 92  1  0
 93 91  1  0
M  ISO  4  10 100  22 100  53 101  54 101
M  END
>  <TORSDO>  (25) 
F 18

>  <SCORE>  (25) 
-15.000

>  <name>  (25) 
24

>  <ligand_id>  (25) 
24

>  <original_smiles>  (25) 
[H]c1c([H])c([H])c2c(c1[H])C([H])([H])C([H])([H])C([H])([H])C2([H])N([H])C(=O)C1([H])N(C(=O)C([H])(N([H])C(=O)C([H])(N([H])C([H])([H])[H])C([H])([H])[H])C(C([H])([H])[H])(C([H])([H])[H])C([H])([H])[H])C([H])([H])c2c([H])c(OC([H])([H])c3c(C([H])([H])[H])c([H])c([H])c(C([H])([H])[N+]4([H])C([H])([H])C([H])([H])N(C(=O)N5C([H])([H])C([H])([H])C([H])([H])C([H])(n6nc(-c7c([H])c([H])c(Oc8c([H])c([H])c(F)c([H])c8F)c([H])c7[H])c(C(=O)N([H])[H])c6N([H])[H])C5([H])[H])C([H])([H])C4([H])[H])c3C([H])([H])[H])c([H])c([H])c2C1([H])[H]

>  <smiles>  (25) 
[H]c1c([H])c([H])c2c(c1[H])C([H])([H])C([H])([H])C([H])([H])C2([H])N([H])C(=O)C1([H])N(C(=O)C([H])(N([H])C(=O)C([H])(N([H])C([H])([H])[H])C([H])([H])[H])C(C([H])([H])[H])(C([H])([H])[H])C([H])([H])[H])C([H])([H])c2c([H])c(OC([H])([H])c3c(C([H])([H])[H])c([H])c([H])c(C([H])([H])[N+]4([H])C([H])([H])C([H])([H])N(C(=O)N5C([H])([H])C([H])([H])C([H])([H])C([H])(n6nc(-c7c([H])c([H])c(Oc8c([H])c([H])c(F)c([H])c8F)c([H])c7[H])c(C(=O)N([H])[H])c6N([H])[H])C5([H])[H])C([H])([H])C4([H])[H])c3C([H])([H])[H])c([H])c([H])c2C1([H])[H]

$$$$
25:0:0
     RDKit          3D

 94103  0  0  1  0  0  0  0  0999 V2000
  -28.2970  -21.8320   20.5790 C   0  0  0  0  0  2  0  0  0  0  0  0
  -30.5950  -21.5000   20.2470 C   0  0  0  0  0  2  0  0  0  0  0  0
  -28.8480  -23.3690   20.6330 C   0  0  0  0  0  3  0  0  0  0  0  0
  -29.4330  -20.6680   20.8680 C   0  0  1  0  0  0  0  0  0  0  0  0
  -30.3300  -23.0750   20.2130 C   0  0  1  0  0  0  0  0  0  0  0  0
  -29.6150  -20.5920   22.3930 C   0  0  0  0  0  1  0  0  0  0  0  0
  -31.2960  -23.7910   21.1820 C   0  0  0  0  0  1  0  0  0  0  0  0
  -30.6140  -23.6020   18.7940 C   0  0  0  0  0  1  0  0  0  0  0  0
  -29.9080  -17.8460   21.0360 C   0  0  0  0  0  3  0  0  0  0  0  0
  -29.0080  -17.5170   18.4750 C   0  0  0  0  0  3  0  0  0  0  0  0
  -29.9840  -16.4510   20.4930 C   0  0  0  0  0  0  0  0  0  0  0  0
  -29.4000  -19.0820   20.3320 C   0  0  0  0  0  0  0  0  0  0  0  0
  -29.5880  -16.4150   19.1230 C   0  0  0  0  0  0  0  0  0  0  0  0
  -28.9150  -18.8030   19.0240 C   0  0  0  0  0  0  0  0  0  0  0  0
  -29.8640  -15.2570   18.1860 C   0  0  0  0  0  1  0  0  0  0  0  0
  -28.3370  -19.8360   18.0730 C   0  0  0  0  0  1  0  0  0  0  0  0
  -30.6900  -15.1260   21.1180 C   0  0  0  0  0  0  0  0  0  0  0  0
  -30.7810  -12.6560   20.5120 C   0  0  0  0  0  2  0  0  0  0  0  0
  -30.0310  -12.2390   19.2210 C   0  0  0  0  0  2  0  0  0  0  0  0
  -28.4980  -12.1910   19.3990 C   0  0  0  0  0  2  0  0  0  0  0  0
  -27.9120  -13.2510   20.3750 C   0  0  0  0  0  3  0  0  0  0  0  0
  -28.7990  -13.4550   21.6110 C   0  0  0  0  0  2  0  0  0  0  0  0
  -30.1260  -13.8480   21.1240 N   0  0  0  0  0  0  0  0  0  0  0  0
  -31.9180  -15.1740   21.2450 O   0  0  0  0  0  0  0  0  0  0  0  0
  -25.4560  -13.8310   20.8100 C   0  0  0  0  0  0  0  0  0  0  0  0
  -24.3600  -13.0560   21.0640 C   0  0  0  0  0  0  0  0  0  0  0  0
  -24.8370  -11.7110   21.1440 C   0  0  0  0  0  0  0  0  0  0  0  0
  -26.5280  -12.9590   20.7320 N   0  0  0  0  0  0  0  0  0  0  0  0
  -26.1560  -11.6840   21.0120 N   0  0  0  0  0  0  0  0  0  0  0  0
  -24.1100  -10.4430   21.2790 C   0  0  0  0  0  0  0  0  0  0  0  0
  -24.4690   -9.4850   22.2530 C   0  0  0  0  0  3  0  0  0  0  0  0
  -23.7390   -8.2830   22.3760 C   0  0  0  0  0  3  0  0  0  0  0  0
  -22.6400   -8.0300   21.5230 C   0  0  0  0  0  0  0  0  0  0  0  0
  -22.3040   -8.9740   20.5370 C   0  0  0  0  0  3  0  0  0  0  0  0
  -23.0330  -10.1700   20.4130 C   0  0  0  0  0  3  0  0  0  0  0  0
  -21.8900   -6.8780   21.5520 O   0  0  0  0  0  0  0  0  0  0  0  0
  -21.7880   -6.1140   22.6860 C   0  0  0  0  0  0  0  0  0  0  0  0
  -21.3040   -6.6460   23.9020 C   0  0  0  0  0  3  0  0  0  0  0  0
  -21.1490   -5.8100   25.0250 C   0  0  0  0  0  3  0  0  0  0  0  0
  -21.4670   -4.4420   24.9340 C   0  0  0  0  0  0  0  0  0  0  0  0
  -21.9430   -3.9090   23.7220 C   0  0  0  0  0  3  0  0  0  0  0  0
  -22.1000   -4.7420   22.6010 C   0  0  0  0  0  0  0  0  0  0  0  0
  -22.5380   -4.2190   21.4310 F   0  0  0  0  0  0  0  0  0  0  0  0
  -21.3110   -3.6350   26.0090 F   0  0  0  0  0  0  0  0  0  0  0  0
  -22.9330  -13.5170   21.1280 C   0  0  0  0  0  0  0  0  0  0  0  0
  -22.1070  -12.8500   21.9240 N   0  0  0  0  0  0  0  0  0  0  0  0
  -22.5540  -14.5080   20.5030 O   0  0  0  0  0  0  0  0  0  0  0  0
  -22.4230  -12.0510   22.4530 H   0  0  0  0  0  0  0  0  0  0  0  0
  -21.1430  -13.1410   22.0020 H   0  0  0  0  0  0  0  0  0  0  0  0
  -25.6380  -15.1970   20.6080 N   0  0  0  0  0  0  0  0  0  0  0  0
  -24.8690  -15.8570   20.5960 H   0  0  0  0  0  0  0  0  0  0  0  0
  -26.5340  -15.6270   20.4120 H   0  0  0  0  0  0  0  0  0  0  0  0
  -27.9990  -24.6580   19.9290 C   0  0  0  0  0  2  0  0  0  0  0  0
  -28.2440  -26.1950   19.9530 O   0  0  0  0  0  0  0  0  0  0  0  0
  -24.5110  -31.7480   22.9710 C   0  0  0  0  0  0  0  0  0  0  0  0
  -27.1600  -27.1430   19.8620 C   0  0  0  0  0  0  0  0  0  0  0  0
  -23.3160  -30.3280   21.3490 C   0  0  0  0  0  3  0  0  0  0  0  0
  -24.7780  -28.8140   19.8710 C   0  0  0  0  0  0  0  0  0  0  0  0
  -25.8550  -30.6760   21.1260 C   0  0  0  0  0  2  0  0  0  0  0  0
  -25.9550  -29.2940   20.4590 C   0  0  0  0  0  0  0  0  0  0  0  0
  -27.1460  -28.4780   20.4310 C   0  0  0  0  0  3  0  0  0  0  0  0
  -25.9590  -26.7680   19.2180 C   0  0  0  0  0  3  0  0  0  0  0  0
  -24.7950  -27.5680   19.2260 C   0  0  0  0  0  3  0  0  0  0  0  0
  -23.5230  -29.6710   19.9580 C   0  0  0  0  0  2  0  0  0  0  0  0
  -24.5830  -30.9390   21.8700 N   0  0  0  0  0  0  0  0  0  0  0  0
  -23.4300  -31.9950   23.5250 O   0  0  0  0  0  0  0  0  0  0  0  0
  -22.6920  -29.2920   22.3170 C   0  0  0  0  0  0  0  0  0  0  0  0
  -21.3650  -29.0920   22.2260 N   0  0  0  0  0  0  0  0  0  0  0  0
  -23.4020  -28.6730   23.1130 O   0  0  0  0  0  0  0  0  0  0  0  0
  -20.8480  -29.6440   21.5570 H   0  0  0  0  0  0  0  0  0  0  0  0
  -18.0300  -27.7930   22.7920 C   0  0  0  0  0  0  0  0  0  0  0  0
  -20.5860  -28.1260   23.0060 C   0  0  0  0  0  3  0  0  0  0  0  0
  -20.7160  -26.7010   22.4200 C   0  0  0  0  0  2  0  0  0  0  0  0
  -19.6020  -26.3530   21.4280 C   0  0  0  0  0  2  0  0  0  0  0  0
  -18.2300  -26.4540   22.1020 C   0  0  0  0  0  2  0  0  0  0  0  0
  -19.1360  -28.5860   23.2010 C   0  0  0  0  0  0  0  0  0  0  0  0
  -18.8930  -29.8370   23.8080 C   0  0  0  0  0  3  0  0  0  0  0  0
  -17.5770  -30.2980   24.0080 C   0  0  0  0  0  3  0  0  0  0  0  0
  -16.4870  -29.5020   23.6160 C   0  0  0  0  0  3  0  0  0  0  0  0
  -16.7140  -28.2510   23.0140 C   0  0  0  0  0  3  0  0  0  0  0  0
  -25.7830  -32.4190   23.5730 C   0  0  0  0  0  3  0  0  0  0  0  0
  -25.4180  -33.7830   23.9860 N   0  0  0  0  0  0  0  0  0  0  0  0
  -25.7240  -34.8960   23.3050 C   0  0  0  0  0  0  0  0  0  0  0  0
  -26.4080  -34.8830   22.2780 O   0  0  0  0  0  0  0  0  0  0  0  0
  -24.8100  -33.8650   24.7890 H   0  0  0  0  0  0  0  0  0  0  0  0
  -23.9490  -36.6600   23.0410 C   0  0  0  0  0  1  0  0  0  0  0  0
  -25.1880  -36.2370   23.8470 C   0  0  0  0  0  3  0  0  0  0  0  0
  -27.2820  -37.1200   24.7760 C   0  0  0  0  0  1  0  0  0  0  0  0
  -26.1920  -37.3240   23.8260 N   0  0  0  0  0  0  0  0  0  0  0  0
  -25.7570  -38.2200   24.0330 H   0  0  0  0  0  0  0  0  0  0  0  0
  -26.3840  -31.6180   24.7940 C   0  0  1  0  0  0  0  0  0  0  0  0
  -25.3490  -31.2900   25.8960 C   0  0  0  0  0  1  0  0  0  0  0  0
  -27.0050  -30.2840   24.3220 C   0  0  0  0  0  1  0  0  0  0  0  0
  -27.5300  -32.4320   25.4410 C   0  0  0  0  0  1  0  0  0  0  0  0
  1  3  1  0
  1  4  1  0
  2  4  1  0
  3 53  1  0
  4  6  1  1
  5  2  1  0
  5  3  1  0
  5  7  1  1
  8  5  1  0
 10 14  2  0
 10 13  1  0
 11  9  1  0
 11 17  1  0
 12  4  1  0
 12  9  2  0
 13 11  2  0
 14 12  1  0
 15 13  1  0
 16 14  1  0
 17 23  1  0
 17 24  2  0
 18 23  1  0
 19 20  1  0
 19 18  1  0
 21 20  1  0
 21 28  1  0
 21 22  1  0
 23 22  1  0
 25 26  2  0
 26 45  1  0
 26 27  1  0
 27 30  1  0
 28 25  1  0
 28 29  1  0
 29 27  2  0
 30 31  1  0
 31 32  2  0
 33 36  1  0
 33 32  1  0
 34 33  2  0
 35 34  1  0
 35 30  2  0
 36 37  1  0
 37 38  1  0
 38 39  2  0
 40 39  1  0
 40 44  1  0
 41 40  2  0
 42 37  2  0
 42 41  1  0
 43 42  1  0
 45 46  1  0
 46 49  1  0
 46 48  1  0
 47 45  2  0
 50 25  1  0
 51 50  1  0
 52 50  1  0
 53 54  1  0
 55 66  2  0
 56 54  1  0
 56 61  1  0
 57 65  1  0
 57 67  1  0
 58 64  1  0
 58 60  1  0
 59 65  1  0
 60 59  1  0
 61 60  2  0
 62 63  1  0
 62 56  2  0
 63 58  2  0
 64 57  1  0
 65 55  1  0
 67 69  2  0
 68 67  1  0
 70 68  1  0
 71 80  2  0
 71 76  1  0
 72 68  1  0
 72 76  1  0
 73 72  1  0
 74 75  1  0
 74 73  1  0
 75 71  1  0
 76 77  2  0
 77 78  1  0
 79 78  2  0
 80 79  1  0
 81 55  1  0
 81 82  1  0
 81 91  1  0
 82 85  1  0
 83 87  1  0
 83 82  1  0
 84 83  2  0
 87 86  1  0
 89 87  1  0
 89 90  1  0
 89 88  1  0
 91 94  1  1
 91 92  1  0
 93 91  1  0
M  ISO  4  11 100  17 100  53 101  54 101
M  END
>  <TORSDO>  (26) 
F 18

>  <SCORE>  (26) 
-13.312

>  <name>  (26) 
25

>  <ligand_id>  (26) 
25

>  <original_smiles>  (26) 
[H]c1c([H])c([H])c2c(c1[H])C([H])([H])C([H])([H])C([H])([H])C2([H])N([H])C(=O)C1([H])N(C(=O)C([H])(N([H])C(=O)C([H])(N([H])C([H])([H])[H])C([H])([H])[H])C(C([H])([H])[H])(C([H])([H])[H])C([H])([H])[H])C([H])([H])c2c([H])c(OC([H])([H])C3([H])C([H])([H])C(c4c([H])c(C(=O)N5C([H])([H])C([H])([H])C([H])([H])C([H])(n6nc(-c7c([H])c([H])c(Oc8c([H])c([H])c(F)c([H])c8F)c([H])c7[H])c(C(=O)N([H])[H])c6N([H])[H])C5([H])[H])c(C([H])([H])[H])c([H])c4C([H])([H])[H])(C([H])([H])[H])C([H])([H])C3(C([H])([H])[H])C([H])([H])[H])c([H])c([H])c2C1([H])[H]

>  <smiles>  (26) 
[H]c1c([H])c([H])c2c(c1[H])C([H])([H])C([H])([H])C([H])([H])C2([H])N([H])C(=O)C1([H])N(C(=O)C([H])(N([H])C(=O)C([H])(N([H])C([H])([H])[H])C([H])([H])[H])C(C([H])([H])[H])(C([H])([H])[H])C([H])([H])[H])C([H])([H])c2c([H])c(OC([H])([H])C3([H])C([H])([H])C(c4c([H])c(C(=O)N5C([H])([H])C([H])([H])C([H])([H])C([H])(n6nc(-c7c([H])c([H])c(Oc8c([H])c([H])c(F)c([H])c8F)c([H])c7[H])c(C(=O)N([H])[H])c6N([H])[H])C5([H])[H])c(C([H])([H])[H])c([H])c4C([H])([H])[H])(C([H])([H])[H])C([H])([H])C3(C([H])([H])[H])C([H])([H])[H])c([H])c([H])c2C1([H])[H]

$$$$
26:0:0
     RDKit          3D

 98107  0  0  1  0  0  0  0  0999 V2000
  -30.6060  -21.8670   21.4290 C   0  0  0  0  0  2  0  0  0  0  0  0
  -28.6230  -21.1550   20.0640 C   0  0  0  0  0  2  0  0  0  0  0  0
  -29.8100  -23.1160   21.8740 C   0  0  0  0  0  2  0  0  0  0  0  0
  -27.8770  -22.4210   20.5400 C   0  0  0  0  0  2  0  0  0  0  0  0
  -29.6880  -20.6740   21.0740 C   0  0  0  0  0  3  0  0  0  0  0  0
  -28.8010  -23.5440   20.8610 N   0  0  1  0  0  4  0  0  0  0  0  0
  -29.2940  -23.7650   20.0060 H   0  0  0  0  0  0  0  0  0  0  0  0
  -30.3430  -18.1210   21.0040 C   0  0  0  0  0  0  0  0  0  0  0  0
  -31.0580  -17.0810   20.3360 C   0  0  0  0  0  0  0  0  0  0  0  0
  -31.8160  -17.4400   19.1870 C   0  0  0  0  0  0  0  0  0  0  0  0
  -30.4750  -19.4620   20.5340 C   0  0  0  0  0  0  0  0  0  0  0  0
  -31.9490  -18.8100   18.8640 C   0  0  0  0  0  0  0  0  0  0  0  0
  -29.4380  -17.8100   22.1930 C   0  0  0  0  0  1  0  0  0  0  0  0
  -32.8350  -19.2960   17.7320 C   0  0  0  0  0  1  0  0  0  0  0  0
  -31.2920  -19.7800   19.5140 N   0  0  0  0  0  0  0  0  0  0  0  0
  -31.6420  -14.6390   20.3510 C   0  0  0  0  0  0  0  0  0  0  0  0
  -31.2700  -12.5190   19.1610 C   0  0  0  0  0  2  0  0  0  0  0  0
  -30.3390  -12.8160   17.9670 C   0  0  0  0  0  2  0  0  0  0  0  0
  -28.8560  -12.7610   18.3890 C   0  0  0  0  0  2  0  0  0  0  0  0
  -28.5620  -13.5450   19.6970 C   0  0  0  0  0  3  0  0  0  0  0  0
  -29.6070  -13.2170   20.7870 C   0  0  0  0  0  2  0  0  0  0  0  0
  -30.9420  -13.4790   20.2250 N   0  0  0  0  0  0  0  0  0  0  0  0
  -32.8230  -14.7430   20.0010 O   0  0  0  0  0  0  0  0  0  0  0  0
  -30.9050  -15.7070   20.7330 N   0  0  0  0  0  0  0  0  0  0  0  0
  -30.0320  -15.4800   21.1770 H   0  0  0  0  0  0  0  0  0  0  0  0
  -26.1860  -14.2260   20.4180 C   0  0  0  0  0  0  0  0  0  0  0  0
  -25.0890  -13.4850   20.7680 C   0  0  0  0  0  0  0  0  0  0  0  0
  -25.5010  -12.1180   20.7080 C   0  0  0  0  0  0  0  0  0  0  0  0
  -27.1980  -13.3120   20.1680 N   0  0  0  0  0  0  0  0  0  0  0  0
  -26.7890  -12.0380   20.4020 N   0  0  0  0  0  0  0  0  0  0  0  0
  -24.7280  -10.8800   20.8670 C   0  0  0  0  0  0  0  0  0  0  0  0
  -25.0730   -9.9140   21.8390 C   0  0  0  0  0  3  0  0  0  0  0  0
  -24.3040   -8.7380   21.9840 C   0  0  0  0  0  3  0  0  0  0  0  0
  -23.1770   -8.5210   21.1570 C   0  0  0  0  0  0  0  0  0  0  0  0
  -22.8530   -9.4740   20.1750 C   0  0  0  0  0  3  0  0  0  0  0  0
  -23.6220  -10.6400   20.0280 C   0  0  0  0  0  3  0  0  0  0  0  0
  -22.3870   -7.3980   21.2090 O   0  0  0  0  0  0  0  0  0  0  0  0
  -22.1290   -6.7550   22.3930 C   0  0  0  0  0  0  0  0  0  0  0  0
  -21.5110   -7.4130   23.4780 C   0  0  0  0  0  3  0  0  0  0  0  0
  -21.2000   -6.6960   24.6520 C   0  0  0  0  0  3  0  0  0  0  0  0
  -21.4960   -5.3230   24.7380 C   0  0  0  0  0  0  0  0  0  0  0  0
  -22.1070   -4.6650   23.6560 C   0  0  0  0  0  3  0  0  0  0  0  0
  -22.4190   -5.3780   22.4850 C   0  0  0  0  0  0  0  0  0  0  0  0
  -22.9880   -4.7350   21.4370 F   0  0  0  0  0  0  0  0  0  0  0  0
  -21.1910   -4.6320   25.8610 F   0  0  0  0  0  0  0  0  0  0  0  0
  -23.7100  -14.0070   21.0470 C   0  0  0  0  0  0  0  0  0  0  0  0
  -22.9620  -13.3310   21.9130 N   0  0  0  0  0  0  0  0  0  0  0  0
  -23.3020  -15.0470   20.5330 O   0  0  0  0  0  0  0  0  0  0  0  0
  -23.3030  -12.4870   22.3500 H   0  0  0  0  0  0  0  0  0  0  0  0
  -22.0350  -13.6610   22.1420 H   0  0  0  0  0  0  0  0  0  0  0  0
  -26.4010  -15.5930   20.2710 N   0  0  0  0  0  0  0  0  0  0  0  0
  -25.6530  -16.2680   20.3880 H   0  0  0  0  0  0  0  0  0  0  0  0
  -27.2600  -16.0100   19.9350 H   0  0  0  0  0  0  0  0  0  0  0  0
  -31.6780  -16.2700   17.1650 C   0  0  0  0  0  1  0  0  0  0  0  0
  -32.3870  -16.4860   18.3810 O   0  0  0  0  0  0  0  0  0  0  0  0
  -28.0540  -24.7810   21.2570 C   0  0  0  0  0  2  0  0  0  0  0  0
  -28.7780  -26.1200   20.9450 C   0  0  0  0  0  2  0  0  0  0  0  0
  -28.3320  -26.7280   19.7250 O   0  0  0  0  0  0  0  0  0  0  0  0
  -24.5780  -31.7760   23.1200 C   0  0  0  0  0  0  0  0  0  0  0  0
  -27.1850  -27.4840   19.8170 C   0  0  0  0  0  0  0  0  0  0  0  0
  -23.3460  -30.4350   21.4450 C   0  0  0  0  0  3  0  0  0  0  0  0
  -24.7830  -28.9650   19.9300 C   0  0  0  0  0  0  0  0  0  0  0  0
  -25.8630  -30.8190   21.2130 C   0  0  0  0  0  2  0  0  0  0  0  0
  -25.9460  -29.4730   20.5240 C   0  0  0  0  0  0  0  0  0  0  0  0
  -27.1510  -28.7380   20.4730 C   0  0  0  0  0  3  0  0  0  0  0  0
  -26.0150  -26.9950   19.2060 C   0  0  0  0  0  3  0  0  0  0  0  0
  -24.8100  -27.7230   19.2700 C   0  0  0  0  0  3  0  0  0  0  0  0
  -23.5330  -29.8110   20.0340 C   0  0  0  0  0  2  0  0  0  0  0  0
  -24.6150  -31.0240   21.9850 N   0  0  0  0  0  0  0  0  0  0  0  0
  -23.5070  -32.0190   23.6940 O   0  0  0  0  0  0  0  0  0  0  0  0
  -22.7210  -29.3700   22.3750 C   0  0  0  0  0  0  0  0  0  0  0  0
  -21.3940  -29.1940   22.2750 N   0  0  0  0  0  0  0  0  0  0  0  0
  -23.4250  -28.7100   23.1430 O   0  0  0  0  0  0  0  0  0  0  0  0
  -20.8860  -29.7800   21.6270 H   0  0  0  0  0  0  0  0  0  0  0  0
  -18.0300  -27.9900   22.8170 C   0  0  0  0  0  0  0  0  0  0  0  0
  -20.5960  -28.2220   23.0220 C   0  0  0  0  0  3  0  0  0  0  0  0
  -20.6730  -26.8210   22.3710 C   0  0  0  0  0  2  0  0  0  0  0  0
  -19.5380  -26.5560   21.3770 C   0  0  0  0  0  2  0  0  0  0  0  0
  -18.1770  -26.6750   22.0700 C   0  0  0  0  0  2  0  0  0  0  0  0
  -19.1660  -28.7240   23.2500 C   0  0  0  0  0  0  0  0  0  0  0  0
  -18.9740  -29.9580   23.9090 C   0  0  0  0  0  3  0  0  0  0  0  0
  -17.6790  -30.4570   24.1380 C   0  0  0  0  0  3  0  0  0  0  0  0
  -16.5580  -29.7180   23.7220 C   0  0  0  0  0  3  0  0  0  0  0  0
  -16.7340  -28.4870   23.0680 C   0  0  0  0  0  3  0  0  0  0  0  0
  -25.8740  -32.3880   23.7380 C   0  0  0  0  0  3  0  0  0  0  0  0
  -26.4080  -31.5830   24.9870 C   0  0  1  0  0  0  0  0  0  0  0  0
  -25.3300  -31.3260   26.0670 C   0  0  0  0  0  1  0  0  0  0  0  0
  -26.9760  -30.2130   24.5490 C   0  0  0  0  0  1  0  0  0  0  0  0
  -27.5730  -32.3540   25.6490 C   0  0  0  0  0  1  0  0  0  0  0  0
  -25.5760  -33.7790   24.1050 N   0  0  0  0  0  0  0  0  0  0  0  0
  -25.9140  -34.8460   23.3700 C   0  0  0  0  0  0  0  0  0  0  0  0
  -26.5800  -34.7640   22.3340 O   0  0  0  0  0  0  0  0  0  0  0  0
  -24.9870  -33.9170   24.9130 H   0  0  0  0  0  0  0  0  0  0  0  0
  -24.1980  -36.6570   23.0570 C   0  0  0  0  0  1  0  0  0  0  0  0
  -25.4350  -36.2260   23.8610 C   0  0  0  0  0  3  0  0  0  0  0  0
  -27.5700  -37.0780   24.7210 C   0  0  0  0  0  1  0  0  0  0  0  0
  -26.4750  -37.2730   23.7760 N   0  0  0  0  0  0  0  0  0  0  0  0
  -26.0750  -38.1930   23.9420 H   0  0  0  0  0  0  0  0  0  0  0  0
  1  3  1  0
  2  4  1  0
  2  5  1  0
  4  6  1  0
  5 11  1  0
  5  1  1  0
  6 56  1  0
  6  3  1  0
  6  7  1  6
  8 13  1  0
  9 24  1  0
  9  8  2  0
 10  9  1  0
 11  8  1  0
 12 10  2  0
 12 15  1  0
 14 12  1  0
 15 11  2  0
 16 24  1  0
 17 22  1  0
 18 19  1  0
 18 17  1  0
 20 19  1  0
 20 29  1  0
 20 21  1  0
 22 16  1  0
 22 21  1  0
 23 16  2  0
 24 25  1  0
 26 27  2  0
 27 46  1  0
 28 27  1  0
 28 31  1  0
 29 30  1  0
 29 26  1  0
 30 28  2  0
 31 32  1  0
 32 33  2  0
 34 37  1  0
 34 33  1  0
 35 34  2  0
 36 35  1  0
 36 31  2  0
 37 38  1  0
 38 43  2  0
 38 39  1  0
 39 40  2  0
 40 41  1  0
 41 45  1  0
 42 41  2  0
 43 42  1  0
 44 43  1  0
 46 47  1  0
 47 50  1  0
 47 49  1  0
 48 46  2  0
 51 52  1  0
 51 26  1  0
 53 51  1  0
 54 55  1  0
 55 10  1  0
 57 56  1  0
 58 60  1  0
 58 57  1  0
 59 70  2  0
 60 65  1  0
 61 69  1  0
 61 71  1  0
 62 68  1  0
 62 64  1  0
 63 69  1  0
 64 63  1  0
 65 64  2  0
 66 67  1  0
 66 60  2  0
 67 62  2  0
 68 61  1  0
 69 59  1  0
 71 73  2  0
 72 71  1  0
 74 72  1  0
 75 84  2  0
 75 80  1  0
 76 72  1  0
 76 80  1  0
 77 76  1  0
 78 79  1  0
 78 77  1  0
 79 75  1  0
 80 81  2  0
 81 82  1  0
 83 82  2  0
 84 83  1  0
 85 59  1  0
 85 90  1  0
 85 86  1  0
 86 89  1  1
 86 87  1  0
 88 86  1  0
 90 93  1  0
 91 95  1  0
 91 90  1  0
 92 91  2  0
 95 94  1  0
 97 95  1  0
 97 98  1  0
 97 96  1  0
M  ISO  4  16 100  24 100  57 101  58 101
M  END
>  <TORSDO>  (27) 
F 20

>  <SCORE>  (27) 
-11.948

>  <name>  (27) 
26

>  <ligand_id>  (27) 
26

>  <original_smiles>  (27) 
[H]c1c([H])c([H])c2c(c1[H])C([H])([H])C([H])([H])C([H])([H])C2([H])N([H])C(=O)C1([H])N(C(=O)C([H])(N([H])C(=O)C([H])(N([H])C([H])([H])[H])C([H])([H])[H])C(C([H])([H])[H])(C([H])([H])[H])C([H])([H])[H])C([H])([H])c2c([H])c(OC([H])([H])C([H])([H])[N+]3([H])C([H])([H])C([H])([H])C([H])(c4nc(C([H])([H])[H])c(OC([H])([H])[H])c(N([H])C(=O)N5C([H])([H])C([H])([H])C([H])([H])C([H])(n6nc(-c7c([H])c([H])c(Oc8c([H])c([H])c(F)c([H])c8F)c([H])c7[H])c(C(=O)N([H])[H])c6N([H])[H])C5([H])[H])c4C([H])([H])[H])C([H])([H])C3([H])[H])c([H])c([H])c2C1([H])[H]

>  <smiles>  (27) 
[H]c1c([H])c([H])c2c(c1[H])C([H])([H])C([H])([H])C([H])([H])C2([H])N([H])C(=O)C1([H])N(C(=O)C([H])(N([H])C(=O)C([H])(N([H])C([H])([H])[H])C([H])([H])[H])C(C([H])([H])[H])(C([H])([H])[H])C([H])([H])[H])C([H])([H])c2c([H])c(OC([H])([H])C([H])([H])[N+]3([H])C([H])([H])C([H])([H])C([H])(c4nc(C([H])([H])[H])c(OC([H])([H])[H])c(N([H])C(=O)N5C([H])([H])C([H])([H])C([H])([H])C([H])(n6nc(-c7c([H])c([H])c(Oc8c([H])c([H])c(F)c([H])c8F)c([H])c7[H])c(C(=O)N([H])[H])c6N([H])[H])C5([H])[H])c4C([H])([H])[H])C([H])([H])C3([H])[H])c([H])c([H])c2C1([H])[H]

$$$$
27:0:0
     RDKit          3D

 94103  0  0  1  0  0  0  0  0999 V2000
  -28.0230  -22.7890   21.2360 C   0  0  0  0  0  3  0  0  0  0  0  0
  -28.9720  -22.0840   20.4330 C   0  0  0  0  0  0  0  0  0  0  0  0
  -27.7580  -24.2010   21.1470 C   0  0  0  0  0  0  0  0  0  0  0  0
  -29.5840  -22.9030   19.4280 C   0  0  0  0  0  0  0  0  0  0  0  0
  -29.3040  -24.3290   19.3160 C   0  0  0  0  0  0  0  0  0  0  0  0
  -28.4080  -25.0380   20.1870 C   0  0  0  0  0  0  0  0  0  0  0  0
  -26.8120  -24.8050   22.1730 C   0  0  0  0  0  1  0  0  0  0  0  0
  -30.6010  -22.2460   18.4940 C   0  0  0  0  0  1  0  0  0  0  0  0
  -30.0570  -25.1510   18.2760 C   0  0  0  0  0  1  0  0  0  0  0  0
  -28.3600  -26.4780   20.1550 O   0  0  0  0  0  0  0  0  0  0  0  0
  -24.6210  -31.8950   23.2100 C   0  0  0  0  0  0  0  0  0  0  0  0
  -27.2230  -27.3110   20.1430 C   0  0  0  0  0  0  0  0  0  0  0  0
  -23.4140  -30.4960   21.5720 C   0  0  0  0  0  3  0  0  0  0  0  0
  -24.8580  -28.9420   20.1390 C   0  0  0  0  0  0  0  0  0  0  0  0
  -25.9510  -30.8150   21.3770 C   0  0  0  0  0  2  0  0  0  0  0  0
  -26.0290  -29.4310   20.7310 C   0  0  0  0  0  0  0  0  0  0  0  0
  -27.2120  -28.6290   20.7210 C   0  0  0  0  0  3  0  0  0  0  0  0
  -26.0340  -26.8870   19.5200 C   0  0  0  0  0  3  0  0  0  0  0  0
  -24.8620  -27.6750   19.5280 C   0  0  0  0  0  3  0  0  0  0  0  0
  -23.6210  -29.8170   20.1910 C   0  0  0  0  0  2  0  0  0  0  0  0
  -24.6800  -31.0890   22.1090 N   0  0  0  0  0  0  0  0  0  0  0  0
  -23.5400  -32.1670   23.7530 O   0  0  0  0  0  0  0  0  0  0  0  0
  -22.7570  -29.4780   22.5390 C   0  0  0  0  0  0  0  0  0  0  0  0
  -21.4310  -29.3060   22.4270 N   0  0  0  0  0  0  0  0  0  0  0  0
  -23.4450  -28.8460   23.3450 O   0  0  0  0  0  0  0  0  0  0  0  0
  -20.9330  -29.8700   21.7520 H   0  0  0  0  0  0  0  0  0  0  0  0
  -18.0590  -28.1070   22.9580 C   0  0  0  0  0  0  0  0  0  0  0  0
  -20.6190  -28.3650   23.2020 C   0  0  0  0  0  3  0  0  0  0  0  0
  -20.7140  -26.9360   22.6210 C   0  0  0  0  0  2  0  0  0  0  0  0
  -19.6040  -26.6180   21.6140 C   0  0  0  0  0  2  0  0  0  0  0  0
  -18.2280  -26.7620   22.2720 C   0  0  0  0  0  2  0  0  0  0  0  0
  -19.1820  -28.8670   23.3810 C   0  0  0  0  0  0  0  0  0  0  0  0
  -18.9690  -30.1260   23.9850 C   0  0  0  0  0  3  0  0  0  0  0  0
  -17.6650  -30.6260   24.1650 C   0  0  0  0  0  3  0  0  0  0  0  0
  -16.5570  -29.8630   23.7570 C   0  0  0  0  0  3  0  0  0  0  0  0
  -16.7550  -28.6050   23.1600 C   0  0  0  0  0  3  0  0  0  0  0  0
  -25.9030  -32.5320   23.8280 C   0  0  0  0  0  3  0  0  0  0  0  0
  -25.5900  -33.9290   24.1600 N   0  0  0  0  0  0  0  0  0  0  0  0
  -25.9350  -34.9870   23.4130 C   0  0  0  0  0  0  0  0  0  0  0  0
  -26.6120  -34.8900   22.3880 O   0  0  0  0  0  0  0  0  0  0  0  0
  -24.9770  -34.0770   24.9480 H   0  0  0  0  0  0  0  0  0  0  0  0
  -24.2170  -36.7920   23.0620 C   0  0  0  0  0  1  0  0  0  0  0  0
  -25.4500  -36.3750   23.8800 C   0  0  0  0  0  3  0  0  0  0  0  0
  -27.5820  -37.2430   24.7350 C   0  0  0  0  0  1  0  0  0  0  0  0
  -26.4890  -37.4240   23.7830 N   0  0  0  0  0  0  0  0  0  0  0  0
  -26.0860  -38.3440   23.9390 H   0  0  0  0  0  0  0  0  0  0  0  0
  -26.4280  -31.7660   25.1040 C   0  0  1  0  0  0  0  0  0  0  0  0
  -25.3370  -31.5330   26.1770 C   0  0  0  0  0  1  0  0  0  0  0  0
  -27.0120  -30.3890   24.7140 C   0  0  0  0  0  1  0  0  0  0  0  0
  -27.5820  -32.5640   25.7570 C   0  0  0  0  0  1  0  0  0  0  0  0
  -29.5170  -20.6390   20.9210 C   0  0  0  0  0  2  0  0  0  0  0  0
  -30.6710  -14.8640   19.9580 C   0  0  0  0  0  0  0  0  0  0  0  0
  -30.3810  -12.5930   18.9430 C   0  0  0  0  0  2  0  0  0  0  0  0
  -29.3750  -12.6460   17.7730 C   0  0  0  0  0  2  0  0  0  0  0  0
  -27.9370  -12.4440   18.2860 C   0  0  0  0  0  2  0  0  0  0  0  0
  -27.6250  -13.3250   19.5270 C   0  0  0  0  0  3  0  0  0  0  0  0
  -28.7510  -13.2680   20.5800 C   0  0  0  0  0  2  0  0  0  0  0  0
  -29.9930  -13.6580   19.9020 N   0  0  0  0  0  0  0  0  0  0  0  0
  -31.8470  -14.8760   19.5790 O   0  0  0  0  0  0  0  0  0  0  0  0
  -29.0230  -16.6220   20.9720 C   0  0  0  0  0  2  0  0  0  0  0  0
  -30.2630  -17.1840   18.9650 C   0  0  0  0  0  2  0  0  0  0  0  0
  -29.1140  -18.1610   21.3910 C   0  0  0  0  0  2  0  0  0  0  0  0
  -30.4080  -18.6880   19.4620 C   0  0  0  0  0  2  0  0  0  0  0  0
  -29.9780  -16.0950   19.9610 N   0  0  0  0  0  0  0  0  0  0  0  0
  -29.2960  -19.2170   20.3200 N   0  0  2  0  0  4  0  0  0  0  0  0
  -28.4530  -19.2540   19.7660 H   0  0  0  0  0  0  0  0  0  0  0  0
  -25.2950  -13.8890   20.4400 C   0  0  0  0  0  0  0  0  0  0  0  0
  -24.2540  -13.1040   20.8560 C   0  0  0  0  0  0  0  0  0  0  0  0
  -24.7120  -11.7540   20.7510 C   0  0  0  0  0  0  0  0  0  0  0  0
  -26.3180  -13.0170   20.1030 N   0  0  0  0  0  0  0  0  0  0  0  0
  -25.9800  -11.7270   20.3530 N   0  0  0  0  0  0  0  0  0  0  0  0
  -23.9950  -10.4870   20.9490 C   0  0  0  0  0  0  0  0  0  0  0  0
  -24.4580   -9.5110   21.8590 C   0  0  0  0  0  3  0  0  0  0  0  0
  -23.7410   -8.3100   22.0470 C   0  0  0  0  0  3  0  0  0  0  0  0
  -22.5480   -8.0770   21.3240 C   0  0  0  0  0  0  0  0  0  0  0  0
  -22.1040   -9.0400   20.4000 C   0  0  0  0  0  3  0  0  0  0  0  0
  -22.8210  -10.2330   20.2120 C   0  0  0  0  0  3  0  0  0  0  0  0
  -21.7960   -6.9300   21.4240 O   0  0  0  0  0  0  0  0  0  0  0  0
  -21.7390   -6.2030   22.5850 C   0  0  0  0  0  0  0  0  0  0  0  0
  -21.2950   -6.7710   23.7990 C   0  0  0  0  0  3  0  0  0  0  0  0
  -21.1880   -5.9710   24.9530 C   0  0  0  0  0  3  0  0  0  0  0  0
  -21.5130   -4.6020   24.8950 C   0  0  0  0  0  0  0  0  0  0  0  0
  -21.9510   -4.0340   23.6860 C   0  0  0  0  0  3  0  0  0  0  0  0
  -22.0600   -4.8300   22.5350 C   0  0  0  0  0  0  0  0  0  0  0  0
  -22.4610   -4.2720   21.3670 F   0  0  0  0  0  0  0  0  0  0  0  0
  -21.4000   -3.8320   26.0020 F   0  0  0  0  0  0  0  0  0  0  0  0
  -22.8790  -13.5750   21.2280 C   0  0  0  0  0  0  0  0  0  0  0  0
  -22.2040  -12.8590   22.1190 N   0  0  0  0  0  0  0  0  0  0  0  0
  -22.4100  -14.6130   20.7620 O   0  0  0  0  0  0  0  0  0  0  0  0
  -22.5960  -12.0250   22.5260 H   0  0  0  0  0  0  0  0  0  0  0  0
  -21.2790  -13.1530   22.4030 H   0  0  0  0  0  0  0  0  0  0  0  0
  -25.4440  -15.2650   20.2940 N   0  0  0  0  0  0  0  0  0  0  0  0
  -24.6770  -15.9060   20.4600 H   0  0  0  0  0  0  0  0  0  0  0  0
  -26.2440  -15.7120   19.8680 H   0  0  0  0  0  0  0  0  0  0  0  0
  2 51  1  0
  2  1  2  0
  3  1  1  0
  3  7  1  0
  4  2  1  0
  5  4  2  0
  5  6  1  0
  6  3  2  0
  8  4  1  0
  9  5  1  0
 10  6  1  0
 11 22  2  0
 12 10  1  0
 12 17  1  0
 13 21  1  0
 13 23  1  0
 14 20  1  0
 14 16  1  0
 15 21  1  0
 16 15  1  0
 17 16  2  0
 18 19  1  0
 18 12  2  0
 19 14  2  0
 20 13  1  0
 21 11  1  0
 23 25  2  0
 24 23  1  0
 26 24  1  0
 27 36  2  0
 27 32  1  0
 28 24  1  0
 28 32  1  0
 29 28  1  0
 30 31  1  0
 30 29  1  0
 31 27  1  0
 32 33  2  0
 33 34  1  0
 35 34  2  0
 36 35  1  0
 37 11  1  0
 37 38  1  0
 37 47  1  0
 38 41  1  0
 39 43  1  0
 39 38  1  0
 40 39  2  0
 43 42  1  0
 45 43  1  0
 45 46  1  0
 45 44  1  0
 47 50  1  1
 47 48  1  0
 49 47  1  0
 52 64  1  0
 53 58  1  0
 54 55  1  0
 54 53  1  0
 56 55  1  0
 56 70  1  0
 56 57  1  0
 58 52  1  0
 58 57  1  0
 59 52  2  0
 60 62  1  0
 61 63  1  0
 61 64  1  0
 63 65  1  0
 64 60  1  0
 65 51  1  0
 65 62  1  0
 65 66  1  6
 67 68  2  0
 68 87  1  0
 69 68  1  0
 69 72  1  0
 70 71  1  0
 70 67  1  0
 71 69  2  0
 72 73  1  0
 73 74  2  0
 75 78  1  0
 75 74  1  0
 76 75  2  0
 77 76  1  0
 77 72  2  0
 78 79  1  0
 79 80  1  0
 80 81  2  0
 82 81  1  0
 82 86  1  0
 83 82  2  0
 84 79  2  0
 84 83  1  0
 85 84  1  0
 87 88  1  0
 88 91  1  0
 88 90  1  0
 89 87  2  0
 92 67  1  0
 92 93  1  0
 94 92  1  0
M  ISO  4   6 101  10 101  52 100  64 100
M  END
>  <TORSDO>  (28) 
F 17

>  <SCORE>  (28) 
-14.643

>  <name>  (28) 
27

>  <ligand_id>  (28) 
27

>  <original_smiles>  (28) 
[H]c1c([H])c([H])c2c(c1[H])C([H])([H])C([H])([H])C([H])([H])C2([H])N([H])C(=O)C1([H])N(C(=O)C([H])(N([H])C(=O)C([H])(N([H])C([H])([H])[H])C([H])([H])[H])C(C([H])([H])[H])(C([H])([H])[H])C([H])([H])[H])C([H])([H])c2c([H])c(Oc3c(C([H])([H])[H])c([H])c(C([H])([H])[N+]4([H])C([H])([H])C([H])([H])N(C(=O)N5C([H])([H])C([H])([H])C([H])([H])C([H])(n6nc(-c7c([H])c([H])c(Oc8c([H])c([H])c(F)c([H])c8F)c([H])c7[H])c(C(=O)N([H])[H])c6N([H])[H])C5([H])[H])C([H])([H])C4([H])[H])c(C([H])([H])[H])c3C([H])([H])[H])c([H])c([H])c2C1([H])[H]

>  <smiles>  (28) 
[H]c1c([H])c([H])c2c(c1[H])C([H])([H])C([H])([H])C([H])([H])C2([H])N([H])C(=O)C1([H])N(C(=O)C([H])(N([H])C(=O)C([H])(N([H])C([H])([H])[H])C([H])([H])[H])C(C([H])([H])[H])(C([H])([H])[H])C([H])([H])[H])C([H])([H])c2c([H])c(Oc3c(C([H])([H])[H])c([H])c(C([H])([H])[N+]4([H])C([H])([H])C([H])([H])N(C(=O)N5C([H])([H])C([H])([H])C([H])([H])C([H])(n6nc(-c7c([H])c([H])c(Oc8c([H])c([H])c(F)c([H])c8F)c([H])c7[H])c(C(=O)N([H])[H])c6N([H])[H])C5([H])[H])C([H])([H])C4([H])[H])c(C([H])([H])[H])c3C([H])([H])[H])c([H])c([H])c2C1([H])[H]

$$$$
28:0:0
     RDKit          3D

 97106  0  0  1  0  0  0  0  0999 V2000
  -29.1760  -23.1170   19.6650 C   0  0  0  0  0  3  0  0  0  0  0  0
  -31.8460  -23.8970   19.5190 C   0  0  0  0  0  3  0  0  0  0  0  0
  -29.4880  -24.4870   19.6860 C   0  0  0  0  0  0  0  0  0  0  0  0
  -30.1600  -22.1240   19.5030 C   0  0  0  0  0  0  0  0  0  0  0  0
  -30.8430  -24.8880   19.6280 C   0  0  0  0  0  0  0  0  0  0  0  0
  -31.5210  -22.5160   19.4250 C   0  0  0  0  0  0  0  0  0  0  0  0
  -31.2440  -26.3530   19.6550 C   0  0  0  0  0  1  0  0  0  0  0  0
  -28.6410  -20.6710   18.1330 C   0  0  0  0  0  1  0  0  0  0  0  0
  -29.7180  -20.6650   19.2560 C   0  0  0  0  0  3  0  0  0  0  0  0
  -29.2210  -19.8440   20.4040 N   0  0  0  0  0  0  0  0  0  0  0  0
  -29.6660  -20.4390   21.6560 O   0  0  0  0  0  1  0  0  0  0  0  0
  -30.8270  -14.3980   20.0840 C   0  0  0  0  0  0  0  0  0  0  0  0
  -30.3930  -12.2920   18.9130 C   0  0  0  0  0  2  0  0  0  0  0  0
  -29.3960  -12.5730   17.7710 C   0  0  0  0  0  2  0  0  0  0  0  0
  -27.9440  -12.4640   18.2770 C   0  0  0  0  0  2  0  0  0  0  0  0
  -27.6970  -13.2530   19.5920 C   0  0  0  0  0  3  0  0  0  0  0  0
  -28.8140  -12.9930   20.6290 C   0  0  0  0  0  2  0  0  0  0  0  0
  -30.1040  -13.2560   19.9800 N   0  0  0  0  0  0  0  0  0  0  0  0
  -31.9880  -14.5020   19.6770 O   0  0  0  0  0  0  0  0  0  0  0  0
  -29.3100  -17.6740   19.1370 C   0  0  0  0  0  2  0  0  0  0  0  0
  -29.4240  -17.5690   21.5770 C   0  0  0  0  0  2  0  0  0  0  0  0
  -30.0480  -16.3440   19.0110 C   0  0  0  0  0  2  0  0  0  0  0  0
  -30.1920  -16.2280   21.5190 C   0  0  0  0  0  2  0  0  0  0  0  0
  -29.7790  -18.4670   20.3670 C   0  0  0  0  0  3  0  0  0  0  0  0
  -30.0840  -15.5170   20.2330 N   0  0  0  0  0  0  0  0  0  0  0  0
  -25.3500  -13.8570   20.4530 C   0  0  0  0  0  0  0  0  0  0  0  0
  -24.2990  -13.0820   20.8640 C   0  0  0  0  0  0  0  0  0  0  0  0
  -24.7490  -11.7290   20.7780 C   0  0  0  0  0  0  0  0  0  0  0  0
  -26.3740  -12.9750   20.1430 N   0  0  0  0  0  0  0  0  0  0  0  0
  -26.0190  -11.6890   20.3950 N   0  0  0  0  0  0  0  0  0  0  0  0
  -24.0260  -10.4650   20.9800 C   0  0  0  0  0  0  0  0  0  0  0  0
  -24.4790   -9.4960   21.9000 C   0  0  0  0  0  3  0  0  0  0  0  0
  -23.7590   -8.2960   22.0900 C   0  0  0  0  0  3  0  0  0  0  0  0
  -22.5700   -8.0610   21.3590 C   0  0  0  0  0  0  0  0  0  0  0  0
  -22.1360   -9.0200   20.4260 C   0  0  0  0  0  3  0  0  0  0  0  0
  -22.8580  -10.2100   20.2350 C   0  0  0  0  0  3  0  0  0  0  0  0
  -21.8170   -6.9160   21.4590 O   0  0  0  0  0  0  0  0  0  0  0  0
  -21.7540   -6.1950   22.6250 C   0  0  0  0  0  0  0  0  0  0  0  0
  -21.3160   -6.7730   23.8360 C   0  0  0  0  0  3  0  0  0  0  0  0
  -21.2020   -5.9780   24.9940 C   0  0  0  0  0  3  0  0  0  0  0  0
  -21.5150   -4.6060   24.9410 C   0  0  0  0  0  0  0  0  0  0  0  0
  -21.9450   -4.0280   23.7340 C   0  0  0  0  0  3  0  0  0  0  0  0
  -22.0620   -4.8200   22.5780 C   0  0  0  0  0  0  0  0  0  0  0  0
  -22.4570   -4.2540   21.4130 F   0  0  0  0  0  0  0  0  0  0  0  0
  -21.3980   -3.8400   26.0500 F   0  0  0  0  0  0  0  0  0  0  0  0
  -22.9220  -13.5600   21.2260 C   0  0  0  0  0  0  0  0  0  0  0  0
  -22.2430  -12.8530   22.1210 N   0  0  0  0  0  0  0  0  0  0  0  0
  -22.4590  -14.5960   20.7510 O   0  0  0  0  0  0  0  0  0  0  0  0
  -22.6290  -12.0140   22.5290 H   0  0  0  0  0  0  0  0  0  0  0  0
  -21.3220  -13.1550   22.4040 H   0  0  0  0  0  0  0  0  0  0  0  0
  -25.5170  -15.2300   20.2980 N   0  0  0  0  0  0  0  0  0  0  0  0
  -24.7730  -15.8960   20.4750 H   0  0  0  0  0  0  0  0  0  0  0  0
  -26.3720  -15.6660   19.9790 H   0  0  0  0  0  0  0  0  0  0  0  0
  -33.8050  -21.9100   18.9530 C   0  0  0  0  0  1  0  0  0  0  0  0
  -32.4660  -21.5280   19.2400 O   0  0  0  0  0  0  0  0  0  0  0  0
  -28.2860  -25.4110   19.6040 C   0  0  0  0  0  2  0  0  0  0  0  0
  -28.3960  -26.7330   20.1260 O   0  0  0  0  0  0  0  0  0  0  0  0
  -24.5950  -31.8890   23.2240 C   0  0  0  0  0  0  0  0  0  0  0  0
  -27.2160  -27.4570   20.1170 C   0  0  0  0  0  0  0  0  0  0  0  0
  -23.3790  -30.4900   21.5910 C   0  0  0  0  0  3  0  0  0  0  0  0
  -24.8220  -28.9660   20.1560 C   0  0  0  0  0  0  0  0  0  0  0  0
  -25.9070  -30.8470   21.3830 C   0  0  0  0  0  2  0  0  0  0  0  0
  -25.9850  -29.4810   20.7390 C   0  0  0  0  0  0  0  0  0  0  0  0
  -27.1850  -28.7330   20.7200 C   0  0  0  0  0  3  0  0  0  0  0  0
  -26.0210  -26.9630   19.5280 C   0  0  0  0  0  3  0  0  0  0  0  0
  -24.8320  -27.7040   19.5500 C   0  0  0  0  0  3  0  0  0  0  0  0
  -23.5790  -29.8200   20.2090 C   0  0  0  0  0  2  0  0  0  0  0  0
  -24.6470  -31.0890   22.1240 N   0  0  0  0  0  0  0  0  0  0  0  0
  -23.5150  -32.1630   23.7680 O   0  0  0  0  0  0  0  0  0  0  0  0
  -22.7350  -29.4620   22.5500 C   0  0  0  0  0  0  0  0  0  0  0  0
  -21.4130  -29.2710   22.4180 N   0  0  0  0  0  0  0  0  0  0  0  0
  -23.4220  -28.8430   23.3660 O   0  0  0  0  0  0  0  0  0  0  0  0
  -20.9220  -29.8230   21.7290 H   0  0  0  0  0  0  0  0  0  0  0  0
  -18.0450  -28.0480   22.8870 C   0  0  0  0  0  0  0  0  0  0  0  0
  -20.5970  -28.3330   23.1880 C   0  0  0  0  0  3  0  0  0  0  0  0
  -20.7210  -26.8970   22.6280 C   0  0  0  0  0  2  0  0  0  0  0  0
  -19.6340  -26.5520   21.6060 C   0  0  0  0  0  2  0  0  0  0  0  0
  -18.2430  -26.6920   22.2300 C   0  0  0  0  0  2  0  0  0  0  0  0
  -19.1510  -28.8250   23.3220 C   0  0  0  0  0  0  0  0  0  0  0  0
  -18.9130  -30.0950   23.8920 C   0  0  0  0  0  3  0  0  0  0  0  0
  -17.6020  -30.5860   24.0340 C   0  0  0  0  0  3  0  0  0  0  0  0
  -16.5100  -29.8040   23.6190 C   0  0  0  0  0  3  0  0  0  0  0  0
  -16.7330  -28.5380   23.0510 C   0  0  0  0  0  3  0  0  0  0  0  0
  -25.8850  -32.5180   23.8370 C   0  0  0  0  0  3  0  0  0  0  0  0
  -26.4120  -31.7420   25.1050 C   0  0  1  0  0  0  0  0  0  0  0  0
  -25.3280  -31.4950   26.1790 C   0  0  0  0  0  1  0  0  0  0  0  0
  -26.9950  -30.3690   24.6990 C   0  0  0  0  0  1  0  0  0  0  0  0
  -27.5660  -32.5340   25.7630 C   0  0  0  0  0  1  0  0  0  0  0  0
  -25.5780  -33.9140   24.1710 N   0  0  0  0  0  0  0  0  0  0  0  0
  -25.9090  -34.9670   23.4110 C   0  0  0  0  0  0  0  0  0  0  0  0
  -26.5770  -34.8650   22.3780 O   0  0  0  0  0  0  0  0  0  0  0  0
  -24.9840  -34.0680   24.9730 H   0  0  0  0  0  0  0  0  0  0  0  0
  -24.1820  -36.7610   23.0560 C   0  0  0  0  0  1  0  0  0  0  0  0
  -25.4190  -36.3530   23.8720 C   0  0  0  0  0  3  0  0  0  0  0  0
  -27.5530  -37.2310   24.7130 C   0  0  0  0  0  1  0  0  0  0  0  0
  -26.4540  -37.4060   23.7680 N   0  0  0  0  0  0  0  0  0  0  0  0
  -26.0480  -38.3260   23.9190 H   0  0  0  0  0  0  0  0  0  0  0  0
  1  3  1  0
  2  5  1  0
  4  1  2  0
  5  7  1  0
  5  3  2  0
  6  4  1  0
  6  2  2  0
  9  8  1  0
  9  4  1  0
  9 10  1  0
 10 11  1  0
 12 25  1  0
 13 18  1  0
 14 15  1  0
 14 13  1  0
 16 15  1  0
 16 29  1  0
 16 17  1  0
 18 12  1  0
 18 17  1  0
 19 12  2  0
 20 24  1  0
 22 20  1  0
 22 25  1  0
 23 21  1  0
 24 10  1  0
 24 21  1  0
 25 23  1  0
 26 27  2  0
 27 46  1  0
 28 27  1  0
 28 31  1  0
 29 30  1  0
 29 26  1  0
 30 28  2  0
 31 32  1  0
 32 33  2  0
 34 37  1  0
 34 33  1  0
 35 34  2  0
 36 35  1  0
 36 31  2  0
 37 38  1  0
 38 39  1  0
 39 40  2  0
 41 40  1  0
 41 45  1  0
 42 41  2  0
 43 38  2  0
 43 42  1  0
 44 43  1  0
 46 47  1  0
 47 50  1  0
 47 49  1  0
 48 46  2  0
 51 26  1  0
 51 52  1  0
 53 51  1  0
 54 55  1  0
 55  6  1  0
 56  3  1  0
 56 57  1  0
 58 69  2  0
 59 57  1  0
 59 64  1  0
 60 68  1  0
 60 70  1  0
 61 67  1  0
 61 63  1  0
 62 68  1  0
 63 62  1  0
 64 63  2  0
 65 66  1  0
 65 59  2  0
 66 61  2  0
 67 60  1  0
 68 58  1  0
 70 72  2  0
 71 70  1  0
 73 71  1  0
 74 83  2  0
 74 79  1  0
 75 71  1  0
 75 79  1  0
 76 75  1  0
 77 78  1  0
 77 76  1  0
 78 74  1  0
 79 80  2  0
 80 81  1  0
 82 81  2  0
 83 82  1  0
 84 58  1  0
 84 89  1  0
 84 85  1  0
 85 88  1  1
 85 86  1  0
 87 85  1  0
 89 92  1  0
 90 94  1  0
 90 89  1  0
 91 90  2  0
 94 93  1  0
 96 94  1  0
 96 97  1  0
 96 95  1  0
M  ISO  4  12 100  25 100  56 101  57 101
M  END
>  <TORSDO>  (29) 
F 20

>  <SCORE>  (29) 
-13.711

>  <name>  (29) 
28

>  <ligand_id>  (29) 
28

>  <original_smiles>  (29) 
[H]c1c([H])c([H])c2c(c1[H])C([H])([H])C([H])([H])C([H])([H])C2([H])N([H])C(=O)C1([H])N(C(=O)C([H])(N([H])C(=O)C([H])(N([H])C([H])([H])[H])C([H])([H])[H])C(C([H])([H])[H])(C([H])([H])[H])C([H])([H])[H])C([H])([H])c2c([H])c(OC([H])([H])c3c([H])c(C([H])(N([O-])C4([H])C([H])([H])C([H])([H])N(C(=O)N5C([H])([H])C([H])([H])C([H])([H])C([H])(n6nc(-c7c([H])c([H])c(Oc8c([H])c([H])c(F)c([H])c8F)c([H])c7[H])c(C(=O)N([H])[H])c6N([H])[H])C5([H])[H])C([H])([H])C4([H])[H])C([H])([H])[H])c(OC([H])([H])[H])c([H])c3C([H])([H])[H])c([H])c([H])c2C1([H])[H]

>  <smiles>  (29) 
[H]c1c([H])c([H])c2c(c1[H])C([H])([H])C([H])([H])C([H])([H])C2([H])N([H])C(=O)C1([H])N(C(=O)C([H])(N([H])C(=O)C([H])(N([H])C([H])([H])[H])C([H])([H])[H])C(C([H])([H])[H])(C([H])([H])[H])C([H])([H])[H])C([H])([H])c2c([H])c(OC([H])([H])c3c([H])c(C([H])(N([O-])C4([H])C([H])([H])C([H])([H])N(C(=O)N5C([H])([H])C([H])([H])C([H])([H])C([H])(n6nc(-c7c([H])c([H])c(Oc8c([H])c([H])c(F)c([H])c8F)c([H])c7[H])c(C(=O)N([H])[H])c6N([H])[H])C5([H])[H])C([H])([H])C4([H])[H])C([H])([H])[H])c(OC([H])([H])[H])c([H])c3C([H])([H])[H])c([H])c([H])c2C1([H])[H]

$$$$
29:0:0
     RDKit          3D

 94103  0  0  1  0  0  0  0  0999 V2000
  -29.6850  -20.9840   19.9050 C   0  0  0  0  0  0  0  0  0  0  0  0
  -30.0990  -21.7760   18.7760 C   0  0  0  0  0  0  0  0  0  0  0  0
  -28.9210  -21.7050   20.8830 C   0  0  0  0  0  0  0  0  0  0  0  0
  -29.7700  -23.1760   18.6350 C   0  0  0  0  0  0  0  0  0  0  0  0
  -28.6150  -23.1130   20.7480 C   0  0  0  0  0  0  0  0  0  0  0  0
  -28.9630  -23.8690   19.5850 C   0  0  0  0  0  0  0  0  0  0  0  0
  -30.8840  -21.1020   17.6470 C   0  0  0  0  0  1  0  0  0  0  0  0
  -28.3510  -20.9420   22.0760 C   0  0  0  0  0  1  0  0  0  0  0  0
  -30.2590  -23.9540   17.4160 C   0  0  0  0  0  1  0  0  0  0  0  0
  -27.8580  -23.8320   21.8640 C   0  0  0  0  0  1  0  0  0  0  0  0
  -30.9840  -15.0350   20.2350 C   0  0  0  0  0  0  0  0  0  0  0  0
  -30.7030  -12.7260   19.3450 C   0  0  0  0  0  2  0  0  0  0  0  0
  -29.7820  -12.7390   18.1080 C   0  0  0  0  0  2  0  0  0  0  0  0
  -28.3120  -12.5900   18.5410 C   0  0  0  0  0  2  0  0  0  0  0  0
  -27.9290  -13.5500   19.6990 C   0  0  0  0  0  3  0  0  0  0  0  0
  -28.9830  -13.5620   20.8280 C   0  0  0  0  0  2  0  0  0  0  0  0
  -30.2850  -13.8500   20.2140 N   0  0  0  0  0  0  0  0  0  0  0  0
  -32.1800  -15.0330   19.9280 O   0  0  0  0  0  0  0  0  0  0  0  0
  -30.3970  -18.7240   21.3670 C   0  0  0  0  0  2  0  0  0  0  0  0
  -29.1920  -18.3770   19.2940 C   0  0  0  0  0  2  0  0  0  0  0  0
  -31.0500  -17.2910   21.2240 C   0  0  0  0  0  2  0  0  0  0  0  0
  -29.8350  -16.9350   19.1620 C   0  0  0  0  0  2  0  0  0  0  0  0
  -30.0970  -19.4200   20.0060 C   0  0  0  0  0  3  0  0  0  0  0  0
  -30.3370  -16.2600   20.4010 N   0  0  0  0  0  0  0  0  0  0  0  0
  -25.5650  -14.1850   20.4560 C   0  0  0  0  0  0  0  0  0  0  0  0
  -24.4840  -13.4300   20.8180 C   0  0  0  0  0  0  0  0  0  0  0  0
  -24.9170  -12.0680   20.7640 C   0  0  0  0  0  0  0  0  0  0  0  0
  -26.5870  -13.2850   20.2000 N   0  0  0  0  0  0  0  0  0  0  0  0
  -26.2040  -12.0060   20.4490 N   0  0  0  0  0  0  0  0  0  0  0  0
  -24.1630  -10.8210   20.9390 C   0  0  0  0  0  0  0  0  0  0  0  0
  -24.5580   -9.8440   21.8790 C   0  0  0  0  0  3  0  0  0  0  0  0
  -23.8060   -8.6610   22.0430 C   0  0  0  0  0  3  0  0  0  0  0  0
  -22.6430   -8.4460   21.2640 C   0  0  0  0  0  0  0  0  0  0  0  0
  -22.2670   -9.4110   20.3130 C   0  0  0  0  0  3  0  0  0  0  0  0
  -23.0210  -10.5860   20.1480 C   0  0  0  0  0  3  0  0  0  0  0  0
  -21.8640   -7.3170   21.3370 O   0  0  0  0  0  0  0  0  0  0  0  0
  -21.7530   -6.5920   22.4960 C   0  0  0  0  0  0  0  0  0  0  0  0
  -21.2370   -7.1560   23.6820 C   0  0  0  0  0  3  0  0  0  0  0  0
  -21.0760   -6.3560   24.8320 C   0  0  0  0  0  3  0  0  0  0  0  0
  -21.4220   -4.9920   24.7940 C   0  0  0  0  0  0  0  0  0  0  0  0
  -21.9320   -4.4270   23.6120 C   0  0  0  0  0  3  0  0  0  0  0  0
  -22.0940   -5.2240   22.4660 C   0  0  0  0  0  0  0  0  0  0  0  0
  -22.5660   -4.6690   21.3230 F   0  0  0  0  0  0  0  0  0  0  0  0
  -21.2610   -4.2210   25.8950 F   0  0  0  0  0  0  0  0  0  0  0  0
  -23.1000  -13.9350   21.1040 C   0  0  0  0  0  0  0  0  0  0  0  0
  -22.3630  -13.2440   21.9660 N   0  0  0  0  0  0  0  0  0  0  0  0
  -22.6830  -14.9760   20.6000 O   0  0  0  0  0  0  0  0  0  0  0  0
  -22.7140  -12.3990   22.3950 H   0  0  0  0  0  0  0  0  0  0  0  0
  -21.4330  -13.5610   22.2020 H   0  0  0  0  0  0  0  0  0  0  0  0
  -25.7630  -15.5540   20.2990 N   0  0  0  0  0  0  0  0  0  0  0  0
  -25.0200  -16.2310   20.4320 H   0  0  0  0  0  0  0  0  0  0  0  0
  -26.6370  -15.9770   20.0120 H   0  0  0  0  0  0  0  0  0  0  0  0
  -28.1680  -25.2000   19.1870 C   0  0  0  0  0  2  0  0  0  0  0  0
  -28.4660  -26.6190   19.5800 O   0  0  0  0  0  0  0  0  0  0  0  0
  -24.5490  -31.6600   23.0620 C   0  0  0  0  0  0  0  0  0  0  0  0
  -27.3500  -27.5000   19.5820 C   0  0  0  0  0  0  0  0  0  0  0  0
  -23.4000  -30.3380   21.3290 C   0  0  0  0  0  3  0  0  0  0  0  0
  -24.9090  -29.0190   19.7460 C   0  0  0  0  0  0  0  0  0  0  0  0
  -25.9220  -30.8070   21.1450 C   0  0  0  0  0  2  0  0  0  0  0  0
  -26.0670  -29.4950   20.3760 C   0  0  0  0  0  0  0  0  0  0  0  0
  -27.2880  -28.7480   20.2920 C   0  0  0  0  0  3  0  0  0  0  0  0
  -26.1630  -27.1240   18.9000 C   0  0  0  0  0  3  0  0  0  0  0  0
  -24.9620  -27.8400   18.9980 C   0  0  0  0  0  3  0  0  0  0  0  0
  -23.6270  -29.8110   19.8910 C   0  0  0  0  0  2  0  0  0  0  0  0
  -24.6420  -30.9490   21.9010 N   0  0  0  0  0  0  0  0  0  0  0  0
  -23.4610  -31.8260   23.6310 O   0  0  0  0  0  0  0  0  0  0  0  0
  -22.8180  -29.2000   22.2020 C   0  0  0  0  0  0  0  0  0  0  0  0
  -21.4990  -28.9600   22.0880 N   0  0  0  0  0  0  0  0  0  0  0  0
  -23.5490  -28.5410   22.9470 O   0  0  0  0  0  0  0  0  0  0  0  0
  -20.9640  -29.5470   21.4640 H   0  0  0  0  0  0  0  0  0  0  0  0
  -18.2000  -27.5570   22.5790 C   0  0  0  0  0  0  0  0  0  0  0  0
  -20.7520  -27.9140   22.7900 C   0  0  0  0  0  3  0  0  0  0  0  0
  -20.8980  -26.5500   22.0770 C   0  0  0  0  0  2  0  0  0  0  0  0
  -19.7750  -26.2710   21.0730 C   0  0  0  0  0  2  0  0  0  0  0  0
  -18.4130  -26.2880   21.7720 C   0  0  0  0  0  2  0  0  0  0  0  0
  -19.2980  -28.3290   23.0440 C   0  0  0  0  0  0  0  0  0  0  0  0
  -19.0430  -29.5170   23.7630 C   0  0  0  0  0  3  0  0  0  0  0  0
  -17.7240  -29.9350   24.0200 C   0  0  0  0  0  3  0  0  0  0  0  0
  -16.6410  -29.1600   23.5690 C   0  0  0  0  0  3  0  0  0  0  0  0
  -16.8800  -27.9720   22.8550 C   0  0  0  0  0  3  0  0  0  0  0  0
  -25.8020  -32.3180   23.7160 C   0  0  0  0  0  3  0  0  0  0  0  0
  -25.4330  -33.6860   24.1050 N   0  0  0  0  0  0  0  0  0  0  0  0
  -25.6910  -34.7810   23.3770 C   0  0  0  0  0  0  0  0  0  0  0  0
  -26.3350  -34.7480   22.3250 O   0  0  0  0  0  0  0  0  0  0  0  0
  -24.8570  -33.7820   24.9280 H   0  0  0  0  0  0  0  0  0  0  0  0
  -23.8510  -36.4820   23.1570 C   0  0  0  0  0  1  0  0  0  0  0  0
  -25.1500  -36.1260   23.8990 C   0  0  0  0  0  3  0  0  0  0  0  0
  -27.2620  -37.1140   24.6700 C   0  0  0  0  0  1  0  0  0  0  0  0
  -26.1170  -37.2390   23.7710 N   0  0  0  0  0  0  0  0  0  0  0  0
  -25.6660  -38.1310   23.9550 H   0  0  0  0  0  0  0  0  0  0  0  0
  -26.3440  -31.5130   24.9610 C   0  0  1  0  0  0  0  0  0  0  0  0
  -25.2560  -31.1890   26.0120 C   0  0  0  0  0  1  0  0  0  0  0  0
  -26.9800  -30.1760   24.5160 C   0  0  0  0  0  1  0  0  0  0  0  0
  -27.4600  -32.3230   25.6600 C   0  0  0  0  0  1  0  0  0  0  0  0
  1  3  1  0
  2  1  2  0
  3  8  1  0
  4  2  1  0
  4  6  2  0
  5  3  2  0
  5 10  1  0
  6  5  1  0
  7  2  1  0
  9  4  1  0
 11 24  1  0
 12 17  1  0
 13 14  1  0
 13 12  1  0
 15 14  1  0
 15 28  1  0
 15 16  1  0
 17 11  1  0
 17 16  1  0
 18 11  2  0
 20 23  1  0
 21 19  1  0
 22 20  1  0
 22 24  1  0
 23  1  1  0
 23 19  1  0
 24 21  1  0
 25 26  2  0
 26 45  1  0
 27 26  1  0
 27 30  1  0
 28 29  1  0
 28 25  1  0
 29 27  2  0
 30 31  1  0
 31 32  2  0
 33 36  1  0
 33 32  1  0
 34 33  2  0
 35 34  1  0
 35 30  2  0
 36 37  1  0
 37 38  1  0
 38 39  2  0
 40 39  1  0
 40 44  1  0
 41 40  2  0
 42 37  2  0
 42 41  1  0
 43 42  1  0
 45 46  1  0
 46 49  1  0
 46 48  1  0
 47 45  2  0
 50 51  1  0
 50 25  1  0
 52 50  1  0
 53 54  1  0
 53  6  1  0
 54 56  1  0
 55 66  2  0
 56 61  1  0
 57 65  1  0
 57 67  1  0
 58 64  1  0
 58 60  1  0
 59 65  1  0
 60 59  1  0
 61 60  2  0
 62 63  1  0
 62 56  2  0
 63 58  2  0
 64 57  1  0
 65 55  1  0
 67 69  2  0
 68 67  1  0
 70 68  1  0
 71 80  2  0
 71 76  1  0
 72 68  1  0
 72 76  1  0
 73 72  1  0
 74 75  1  0
 74 73  1  0
 75 71  1  0
 76 77  2  0
 77 78  1  0
 79 78  2  0
 80 79  1  0
 81 55  1  0
 81 82  1  0
 81 91  1  0
 82 85  1  0
 83 87  1  0
 83 82  1  0
 84 83  2  0
 87 86  1  0
 89 87  1  0
 89 90  1  0
 89 88  1  0
 91 94  1  1
 91 92  1  0
 93 91  1  0
M  ISO  4  11 100  24 100  53 101  54 101
M  END
>  <TORSDO>  (30) 
F 17

>  <SCORE>  (30) 
-13.358

>  <name>  (30) 
29

>  <ligand_id>  (30) 
29

>  <original_smiles>  (30) 
[H]c1c([H])c([H])c2c(c1[H])C([H])([H])C([H])([H])C([H])([H])C2([H])N([H])C(=O)C1([H])N(C(=O)C([H])(N([H])C(=O)C([H])(N([H])C([H])([H])[H])C([H])([H])[H])C(C([H])([H])[H])(C([H])([H])[H])C([H])([H])[H])C([H])([H])c2c([H])c(OC([H])([H])c3c(C([H])([H])[H])c(C([H])([H])[H])c(C4([H])C([H])([H])C([H])([H])N(C(=O)N5C([H])([H])C([H])([H])C([H])([H])C([H])(n6nc(-c7c([H])c([H])c(Oc8c([H])c([H])c(F)c([H])c8F)c([H])c7[H])c(C(=O)N([H])[H])c6N([H])[H])C5([H])[H])C([H])([H])C4([H])[H])c(C([H])([H])[H])c3C([H])([H])[H])c([H])c([H])c2C1([H])[H]

>  <smiles>  (30) 
[H]c1c([H])c([H])c2c(c1[H])C([H])([H])C([H])([H])C([H])([H])C2([H])N([H])C(=O)C1([H])N(C(=O)C([H])(N([H])C(=O)C([H])(N([H])C([H])([H])[H])C([H])([H])[H])C(C([H])([H])[H])(C([H])([H])[H])C([H])([H])[H])C([H])([H])c2c([H])c(OC([H])([H])c3c(C([H])([H])[H])c(C([H])([H])[H])c(C4([H])C([H])([H])C([H])([H])N(C(=O)N5C([H])([H])C([H])([H])C([H])([H])C([H])(n6nc(-c7c([H])c([H])c(Oc8c([H])c([H])c(F)c([H])c8F)c([H])c7[H])c(C(=O)N([H])[H])c6N([H])[H])C5([H])[H])C([H])([H])C4([H])[H])c(C([H])([H])[H])c3C([H])([H])[H])c([H])c([H])c2C1([H])[H]

$$$$
30:0:0
     RDKit          3D

 99108  0  0  1  0  0  0  0  0999 V2000
  -29.4130  -23.6820   19.6610 C   0  0  0  0  0  3  0  0  0  0  0  0
  -29.1670  -20.2690   21.4200 C   0  0  0  0  0  3  0  0  0  0  0  0
  -29.7140  -21.2480   18.8750 C   0  0  0  0  0  3  0  0  0  0  0  0
  -29.4100  -19.3360   20.3830 C   0  0  0  0  0  0  0  0  0  0  0  0
  -29.1550  -21.6590   21.2030 C   0  0  0  0  0  0  0  0  0  0  0  0
  -29.6250  -19.8510   19.0750 C   0  0  0  0  0  0  0  0  0  0  0  0
  -29.4490  -22.1690   19.9170 C   0  0  0  0  0  0  0  0  0  0  0  0
  -28.7680  -22.5660   22.3660 C   0  0  0  0  0  1  0  0  0  0  0  0
  -29.6660  -18.9680   17.8380 C   0  0  0  0  0  1  0  0  0  0  0  0
  -30.7520  -14.4550   20.5750 C   0  0  0  0  0  0  0  0  0  0  0  0
  -30.4230  -12.3060   19.4150 C   0  0  0  0  0  2  0  0  0  0  0  0
  -29.4930  -12.5080   18.2020 C   0  0  0  0  0  2  0  0  0  0  0  0
  -28.0130  -12.3870   18.6190 C   0  0  0  0  0  2  0  0  0  0  0  0
  -27.6670  -13.2160   19.8860 C   0  0  0  0  0  3  0  0  0  0  0  0
  -28.7190  -12.9790   20.9930 C   0  0  0  0  0  2  0  0  0  0  0  0
  -30.0440  -13.2980   20.4360 N   0  0  0  0  0  0  0  0  0  0  0  0
  -31.8910  -14.5810   20.1150 O   0  0  0  0  0  0  0  0  0  0  0  0
  -29.4990  -17.4810   22.1930 C   0  0  0  0  0  2  0  0  0  0  0  0
  -29.6090  -15.9560   22.2050 C   0  0  0  0  0  2  0  0  0  0  0  0
  -30.2470  -16.8160   20.0900 C   0  0  0  0  0  2  0  0  0  0  0  0
  -29.2800  -17.8340   20.7200 C   0  0  0  0  0  3  0  0  0  0  0  0
  -30.0420  -15.5730   20.8570 N   0  0  0  0  0  0  0  0  0  0  0  0
  -25.2610  -13.8210   20.5710 C   0  0  0  0  0  0  0  0  0  0  0  0
  -24.1860  -13.0460   20.9170 C   0  0  0  0  0  0  0  0  0  0  0  0
  -24.6420  -11.6940   20.8730 C   0  0  0  0  0  0  0  0  0  0  0  0
  -26.3080  -12.9380   20.3470 N   0  0  0  0  0  0  0  0  0  0  0  0
  -25.9360  -11.6530   20.5820 N   0  0  0  0  0  0  0  0  0  0  0  0
  -23.9080  -10.4310   21.0370 C   0  0  0  0  0  0  0  0  0  0  0  0
  -24.3610   -9.4230   21.9150 C   0  0  0  0  0  3  0  0  0  0  0  0
  -23.6280   -8.2270   22.0740 C   0  0  0  0  0  3  0  0  0  0  0  0
  -22.4260   -8.0310   21.3540 C   0  0  0  0  0  0  0  0  0  0  0  0
  -21.9900   -9.0280   20.4630 C   0  0  0  0  0  3  0  0  0  0  0  0
  -22.7250  -10.2160   20.3010 C   0  0  0  0  0  3  0  0  0  0  0  0
  -21.6620   -6.8900   21.4240 O   0  0  0  0  0  0  0  0  0  0  0  0
  -21.6840   -6.0750   22.5270 C   0  0  0  0  0  0  0  0  0  0  0  0
  -21.4020   -6.5650   23.8220 C   0  0  0  0  0  3  0  0  0  0  0  0
  -21.3660   -5.6800   24.9170 C   0  0  0  0  0  3  0  0  0  0  0  0
  -21.6050   -4.3060   24.7210 C   0  0  0  0  0  0  0  0  0  0  0  0
  -21.8820   -3.8160   23.4320 C   0  0  0  0  0  3  0  0  0  0  0  0
  -21.9190   -4.6980   22.3390 C   0  0  0  0  0  0  0  0  0  0  0  0
  -22.1640   -4.2170   21.0960 F   0  0  0  0  0  0  0  0  0  0  0  0
  -21.5620   -3.4530   25.7720 F   0  0  0  0  0  0  0  0  0  0  0  0
  -22.7880  -13.5280   21.1840 C   0  0  0  0  0  0  0  0  0  0  0  0
  -22.0510  -12.8230   22.0380 N   0  0  0  0  0  0  0  0  0  0  0  0
  -22.3570  -14.5580   20.6720 O   0  0  0  0  0  0  0  0  0  0  0  0
  -22.4090  -11.9830   22.4670 H   0  0  0  0  0  0  0  0  0  0  0  0
  -21.1150  -13.1280   22.2630 H   0  0  0  0  0  0  0  0  0  0  0  0
  -25.4350  -15.1910   20.4060 N   0  0  0  0  0  0  0  0  0  0  0  0
  -24.6710  -15.8530   20.5000 H   0  0  0  0  0  0  0  0  0  0  0  0
  -26.2950  -15.6240   20.0960 H   0  0  0  0  0  0  0  0  0  0  0  0
  -30.4960  -24.3160   20.3190 O   0  0  0  0  0  0  0  0  0  0  0  0
  -31.2730  -23.7940   20.1470 H   0  0  0  0  0  0  0  0  0  0  0  0
  -29.3950  -24.0980   18.1670 C   0  0  0  0  0  2  0  0  0  0  0  0
  -28.9580  -25.4920   17.9450 N   0  0  0  0  0  4  0  0  0  0  0  0
  -28.6600  -25.5800   16.9880 H   0  0  0  0  0  0  0  0  0  0  0  0
  -28.1660  -25.6650   18.5470 H   0  0  0  0  0  0  0  0  0  0  0  0
  -29.9280  -26.5740   18.2400 C   0  0  0  0  0  2  0  0  0  0  0  0
  -29.5750  -27.3020   19.5550 C   0  0  0  0  0  2  0  0  0  0  0  0
  -28.3770  -26.7270   20.0760 O   0  0  0  0  0  0  0  0  0  0  0  0
  -24.6090  -31.8750   23.2160 C   0  0  0  0  0  0  0  0  0  0  0  0
  -27.2470  -27.5010   20.0860 C   0  0  0  0  0  0  0  0  0  0  0  0
  -23.3940  -30.4930   21.5610 C   0  0  0  0  0  3  0  0  0  0  0  0
  -24.8450  -28.9690   20.1190 C   0  0  0  0  0  0  0  0  0  0  0  0
  -25.9130  -30.8680   21.3490 C   0  0  0  0  0  2  0  0  0  0  0  0
  -26.0020  -29.5050   20.7000 C   0  0  0  0  0  0  0  0  0  0  0  0
  -27.2100  -28.7810   20.6790 C   0  0  0  0  0  3  0  0  0  0  0  0
  -26.0730  -26.9580   19.5270 C   0  0  0  0  0  3  0  0  0  0  0  0
  -24.8730  -27.6930   19.5290 C   0  0  0  0  0  3  0  0  0  0  0  0
  -23.6000  -29.8230   20.1740 C   0  0  0  0  0  2  0  0  0  0  0  0
  -24.6580  -31.0890   22.1040 N   0  0  0  0  0  0  0  0  0  0  0  0
  -23.5290  -32.1460   23.7590 O   0  0  0  0  0  0  0  0  0  0  0  0
  -22.7390  -29.4660   22.5120 C   0  0  0  0  0  0  0  0  0  0  0  0
  -21.4120  -29.3040   22.3860 N   0  0  0  0  0  0  0  0  0  0  0  0
  -23.4180  -28.8190   23.3130 O   0  0  0  0  0  0  0  0  0  0  0  0
  -20.9300  -29.8760   21.7070 H   0  0  0  0  0  0  0  0  0  0  0  0
  -18.0250  -28.1370   22.8530 C   0  0  0  0  0  0  0  0  0  0  0  0
  -20.5840  -28.3650   23.1390 C   0  0  0  0  0  3  0  0  0  0  0  0
  -20.6760  -26.9420   22.5450 C   0  0  0  0  0  2  0  0  0  0  0  0
  -19.5730  -26.6400   21.5240 C   0  0  0  0  0  2  0  0  0  0  0  0
  -18.1900  -26.7930   22.1630 C   0  0  0  0  0  2  0  0  0  0  0  0
  -19.1500  -28.8830   23.2950 C   0  0  0  0  0  0  0  0  0  0  0  0
  -18.9420  -30.1440   23.8970 C   0  0  0  0  0  3  0  0  0  0  0  0
  -17.6420  -30.6590   24.0570 C   0  0  0  0  0  3  0  0  0  0  0  0
  -16.5320  -29.9100   23.6310 C   0  0  0  0  0  3  0  0  0  0  0  0
  -16.7240  -28.6500   23.0370 C   0  0  0  0  0  3  0  0  0  0  0  0
  -25.8980  -32.4890   23.8430 C   0  0  0  0  0  3  0  0  0  0  0  0
  -25.5850  -33.8700   24.2340 N   0  0  0  0  0  0  0  0  0  0  0  0
  -25.9030  -34.9530   23.5140 C   0  0  0  0  0  0  0  0  0  0  0  0
  -26.5620  -34.8960   22.4710 O   0  0  0  0  0  0  0  0  0  0  0  0
  -24.9880  -33.9890   25.0390 H   0  0  0  0  0  0  0  0  0  0  0  0
  -24.1480  -36.7350   23.2630 C   0  0  0  0  0  1  0  0  0  0  0  0
  -25.4110  -36.3170   24.0330 C   0  0  0  0  0  3  0  0  0  0  0  0
  -27.5600  -37.1840   24.8450 C   0  0  0  0  0  1  0  0  0  0  0  0
  -26.4310  -37.3840   23.9410 N   0  0  0  0  0  0  0  0  0  0  0  0
  -26.0220  -38.2930   24.1420 H   0  0  0  0  0  0  0  0  0  0  0  0
  -26.4410  -31.6650   25.0720 C   0  0  1  0  0  0  0  0  0  0  0  0
  -25.3660  -31.3760   26.1470 C   0  0  0  0  0  1  0  0  0  0  0  0
  -27.0160  -30.3090   24.6000 C   0  0  0  0  0  1  0  0  0  0  0  0
  -27.6000  -32.4320   25.7470 C   0  0  0  0  0  1  0  0  0  0  0  0
  1 53  1  0
  1  7  1  0
  1 51  1  0
  3  6  2  0
  3  7  1  0
  4  2  2  0
  5  2  1  0
  5  8  1  0
  6  4  1  0
  7  5  2  0
  9  6  1  0
 10 22  1  0
 11 16  1  0
 12 13  1  0
 12 11  1  0
 14 13  1  0
 14 26  1  0
 14 15  1  0
 16 10  1  0
 16 15  1  0
 17 10  2  0
 18 19  1  0
 20 21  1  0
 20 22  1  0
 21  4  1  0
 21 18  1  0
 22 19  1  0
 23 24  2  0
 24 43  1  0
 25 24  1  0
 25 28  1  0
 26 23  1  0
 26 27  1  0
 27 25  2  0
 28 29  1  0
 29 30  2  0
 31 34  1  0
 31 30  1  0
 32 31  2  0
 33 32  1  0
 33 28  2  0
 34 35  1  0
 35 36  1  0
 36 37  2  0
 38 37  1  0
 38 42  1  0
 39 38  2  0
 40 35  2  0
 40 39  1  0
 41 40  1  0
 43 44  1  0
 44 47  1  0
 44 46  1  0
 45 43  2  0
 48 49  1  0
 48 23  1  0
 50 48  1  0
 52 51  1  0
 54 53  1  0
 54 57  1  0
 54 56  1  0
 55 54  1  0
 57 58  1  0
 58 59  1  0
 59 61  1  0
 60 71  2  0
 61 66  1  0
 62 70  1  0
 62 72  1  0
 63 69  1  0
 63 65  1  0
 64 70  1  0
 65 64  1  0
 66 65  2  0
 67 68  1  0
 67 61  2  0
 68 63  2  0
 69 62  1  0
 70 60  1  0
 72 74  2  0
 73 72  1  0
 75 73  1  0
 76 85  2  0
 76 81  1  0
 77 73  1  0
 77 81  1  0
 78 77  1  0
 79 80  1  0
 79 78  1  0
 80 76  1  0
 81 82  2  0
 82 83  1  0
 84 83  2  0
 85 84  1  0
 86 60  1  0
 86 87  1  0
 86 96  1  0
 87 90  1  0
 88 92  1  0
 88 87  1  0
 89 88  2  0
 92 91  1  0
 94 92  1  0
 94 95  1  0
 94 93  1  0
 96 99  1  1
 96 97  1  0
 98 96  1  0
M  ISO  4  10 100  22 100  58 101  59 101
M  END
>  <TORSDO>  (31) 
F 22

>  <SCORE>  (31) 
-11.567

>  <name>  (31) 
30

>  <ligand_id>  (31) 
30

>  <original_smiles>  (31) 
[H]OC([H])(c1c([H])c(C([H])([H])[H])c(C2([H])C([H])([H])N(C(=O)N3C([H])([H])C([H])([H])C([H])([H])C([H])(n4nc(-c5c([H])c([H])c(Oc6c([H])c([H])c(F)c([H])c6F)c([H])c5[H])c(C(=O)N([H])[H])c4N([H])[H])C3([H])[H])C([H])([H])C2([H])[H])c([H])c1C([H])([H])[H])C([H])([H])[N+]([H])([H])C([H])([H])C([H])([H])Oc1c([H])c([H])c2c(c1[H])C([H])([H])N(C(=O)C([H])(N([H])C(=O)C([H])(N([H])C([H])([H])[H])C([H])([H])[H])C(C([H])([H])[H])(C([H])([H])[H])C([H])([H])[H])C([H])(C(=O)N([H])C1([H])c3c([H])c([H])c([H])c([H])c3C([H])([H])C([H])([H])C1([H])[H])C2([H])[H]

>  <smiles>  (31) 
[H]OC([H])(c1c([H])c(C([H])([H])[H])c(C2([H])C([H])([H])N(C(=O)N3C([H])([H])C([H])([H])C([H])([H])C([H])(n4nc(-c5c([H])c([H])c(Oc6c([H])c([H])c(F)c([H])c6F)c([H])c5[H])c(C(=O)N([H])[H])c4N([H])[H])C3([H])[H])C([H])([H])C2([H])[H])c([H])c1C([H])([H])[H])C([H])([H])[N+]([H])([H])C([H])([H])C([H])([H])Oc1c([H])c([H])c2c(c1[H])C([H])([H])N(C(=O)C([H])(N([H])C(=O)C([H])(N([H])C([H])([H])[H])C([H])([H])[H])C(C([H])([H])[H])(C([H])([H])[H])C([H])([H])[H])C([H])(C(=O)N([H])C1([H])c3c([H])c([H])c([H])c([H])c3C([H])([H])C([H])([H])C1([H])[H])C2([H])[H]

$$$$
31:0:0
     RDKit          3D

 94104  0  0  1  0  0  0  0  0999 V2000
  -34.9300  -15.5610   18.0700 C   0  0  0  0  0  0  0  0  0  0  0  0
  -37.2490  -14.6860   17.7990 C   0  0  0  0  0  2  0  0  0  0  0  0
  -38.2230  -15.8250   17.4370 C   0  0  0  0  0  2  0  0  0  0  0  0
  -38.2880  -15.9940   15.9070 C   0  0  0  0  0  2  0  0  0  0  0  0
  -36.8840  -16.0400   15.2570 C   0  0  0  0  0  3  0  0  0  0  0  0
  -35.9320  -14.9480   15.7910 C   0  0  0  0  0  2  0  0  0  0  0  0
  -35.9240  -15.0630   17.2530 N   0  0  0  0  0  0  0  0  0  0  0  0
  -34.9250  -15.2320   19.2590 O   0  0  0  0  0  0  0  0  0  0  0  0
  -31.3850  -18.5990   15.9450 C   0  0  0  0  0  3  0  0  0  0  0  0
  -31.1680  -20.0140   18.3650 C   0  0  0  0  0  3  0  0  0  0  0  0
  -32.3370  -18.3390   16.9520 C   0  0  0  0  0  0  0  0  0  0  0  0
  -32.1800  -19.0040   18.1850 C   0  0  0  0  0  0  0  0  0  0  0  0
  -30.3440  -19.5600   16.1250 C   0  0  0  0  0  0  0  0  0  0  0  0
  -30.2400  -20.3410   17.3200 C   0  0  0  0  0  0  0  0  0  0  0  0
  -33.2530  -18.6210   19.2140 C   0  0  0  0  0  2  0  0  0  0  0  0
  -34.7880  -18.6650   17.0610 C   0  0  0  0  0  2  0  0  0  0  0  0
  -33.6990  -17.5920   16.7020 C   0  0  0  0  0  3  0  0  0  0  0  0
  -34.5290  -18.0670   18.4870 C   0  0  0  0  0  3  0  0  0  0  0  0
  -34.3260  -16.7860   17.7900 N   0  0  0  0  0  0  0  0  0  0  0  0
  -36.4540  -15.1600   12.8860 C   0  0  0  0  0  0  0  0  0  0  0  0
  -36.6750  -15.7110   11.6550 C   0  0  0  0  0  0  0  0  0  0  0  0
  -37.3010  -16.9720   11.8970 C   0  0  0  0  0  0  0  0  0  0  0  0
  -36.9410  -16.0780   13.8040 N   0  0  0  0  0  0  0  0  0  0  0  0
  -37.5110  -17.1460   13.1950 N   0  0  0  0  0  0  0  0  0  0  0  0
  -37.6630  -18.0520   10.9750 C   0  0  0  0  0  0  0  0  0  0  0  0
  -38.2910  -17.7840    9.7390 C   0  0  0  0  0  3  0  0  0  0  0  0
  -38.6130  -18.8390    8.8590 C   0  0  0  0  0  3  0  0  0  0  0  0
  -38.3030  -20.1750    9.2090 C   0  0  0  0  0  0  0  0  0  0  0  0
  -37.7010  -20.4360   10.4520 C   0  0  0  0  0  3  0  0  0  0  0  0
  -37.3860  -19.3860   11.3300 C   0  0  0  0  0  3  0  0  0  0  0  0
  -38.5990  -21.2640    8.4280 O   0  0  0  0  0  0  0  0  0  0  0  0
  -37.7320  -22.3210    8.3100 C   0  0  0  0  0  0  0  0  0  0  0  0
  -37.5020  -23.2200    9.3740 C   0  0  0  0  0  3  0  0  0  0  0  0
  -36.6530  -24.3300    9.1870 C   0  0  0  0  0  3  0  0  0  0  0  0
  -36.0440  -24.5480    7.9380 C   0  0  0  0  0  0  0  0  0  0  0  0
  -36.2770  -23.6560    6.8750 C   0  0  0  0  0  3  0  0  0  0  0  0
  -37.1190  -22.5470    7.0610 C   0  0  0  0  0  0  0  0  0  0  0  0
  -37.3570  -21.7030    6.0290 F   0  0  0  0  0  0  0  0  0  0  0  0
  -35.2350  -25.6180    7.7550 F   0  0  0  0  0  0  0  0  0  0  0  0
  -36.2390  -15.1500   10.3340 C   0  0  0  0  0  0  0  0  0  0  0  0
  -37.0030  -15.4060    9.2780 N   0  0  0  0  0  0  0  0  0  0  0  0
  -35.2380  -14.4380   10.2380 O   0  0  0  0  0  0  0  0  0  0  0  0
  -37.8340  -15.9720    9.3610 H   0  0  0  0  0  0  0  0  0  0  0  0
  -36.7540  -15.0300    8.3740 H   0  0  0  0  0  0  0  0  0  0  0  0
  -35.8560  -13.9720   13.2990 N   0  0  0  0  0  0  0  0  0  0  0  0
  -35.4410  -13.3280   12.6360 H   0  0  0  0  0  0  0  0  0  0  0  0
  -35.6680  -13.7270   14.2600 H   0  0  0  0  0  0  0  0  0  0  0  0
  -28.1470  -18.7870   15.1520 C   0  0  0  0  0  1  0  0  0  0  0  0
  -29.9430  -19.6680   13.5890 C   0  0  0  0  0  1  0  0  0  0  0  0
  -29.3250  -19.7590   14.9950 C   0  0  0  0  0  3  0  0  0  0  0  0
  -29.2130  -21.3220   17.3560 O   0  0  0  0  0  0  0  0  0  0  0  0
  -29.3530  -22.7510   17.0570 C   0  0  0  0  0  3  0  0  0  0  0  0
  -30.2370  -23.1160   15.7460 C   0  0  0  0  0  3  0  0  0  0  0  0
  -30.4850  -24.2730   14.8410 O   0  0  0  0  0  0  0  0  0  0  0  0
  -24.4500  -27.5300   17.1340 C   0  0  0  0  0  0  0  0  0  0  0  0
  -29.4090  -25.1340   14.5560 C   0  0  0  0  0  0  0  0  0  0  0  0
  -24.7920  -27.4280   14.6910 C   0  0  0  0  0  3  0  0  0  0  0  0
  -27.1370  -26.7580   13.9160 C   0  0  0  0  0  0  0  0  0  0  0  0
  -26.8060  -27.4850   16.2800 C   0  0  0  0  0  2  0  0  0  0  0  0
  -27.5930  -26.6960   15.2390 C   0  0  0  0  0  0  0  0  0  0  0  0
  -28.7380  -25.9030   15.5590 C   0  0  0  0  0  3  0  0  0  0  0  0
  -28.9320  -25.2530   13.2320 C   0  0  0  0  0  3  0  0  0  0  0  0
  -27.8130  -26.0480   12.9110 C   0  0  0  0  0  3  0  0  0  0  0  0
  -25.9120  -27.6060   13.6320 C   0  0  0  0  0  2  0  0  0  0  0  0
  -25.3270  -27.4620   16.0910 N   0  0  0  0  0  0  0  0  0  0  0  0
  -23.2270  -27.5970   16.9440 O   0  0  0  0  0  0  0  0  0  0  0  0
  -23.9950  -26.1410   14.3710 C   0  0  0  0  0  0  0  0  0  0  0  0
  -22.6740  -26.2820   14.1700 N   0  0  0  0  0  0  0  0  0  0  0  0
  -24.5670  -25.0520   14.2830 O   0  0  0  0  0  0  0  0  0  0  0  0
  -22.2760  -27.2070   14.2670 H   0  0  0  0  0  0  0  0  0  0  0  0
  -19.4170  -24.8850   14.9030 C   0  0  0  0  0  0  0  0  0  0  0  0
  -21.7390  -25.2140   13.8130 C   0  0  0  0  0  3  0  0  0  0  0  0
  -20.9670  -25.5570   12.5180 C   0  0  0  0  0  2  0  0  0  0  0  0
  -19.6250  -26.2460   12.7800 C   0  0  0  0  0  2  0  0  0  0  0  0
  -18.7210  -25.3550   13.6360 C   0  0  0  0  0  2  0  0  0  0  0  0
  -20.8340  -24.8340   14.9920 C   0  0  0  0  0  0  0  0  0  0  0  0
  -21.4280  -24.4220   16.2030 C   0  0  0  0  0  3  0  0  0  0  0  0
  -20.6360  -24.0640   17.3100 C   0  0  0  0  0  3  0  0  0  0  0  0
  -19.2340  -24.1030   17.2120 C   0  0  0  0  0  3  0  0  0  0  0  0
  -18.6270  -24.5090   16.0100 C   0  0  0  0  0  3  0  0  0  0  0  0
  -24.9420  -27.5520   18.6140 C   0  0  0  0  0  3  0  0  0  0  0  0
  -26.1090  -26.5260   18.8960 C   0  0  1  0  0  0  0  0  0  0  0  0
  -25.7790  -25.0770   18.4660 C   0  0  0  0  0  1  0  0  0  0  0  0
  -27.4010  -26.9520   18.1620 C   0  0  0  0  0  1  0  0  0  0  0  0
  -26.4410  -26.5150   20.4070 C   0  0  0  0  0  1  0  0  0  0  0  0
  -23.7840  -27.2660   19.4720 N   0  0  0  0  0  0  0  0  0  0  0  0
  -22.9030  -28.1840   19.8930 C   0  0  0  0  0  0  0  0  0  0  0  0
  -23.0240  -29.3880   19.6500 O   0  0  0  0  0  0  0  0  0  0  0  0
  -23.5920  -26.2940   19.6650 H   0  0  0  0  0  0  0  0  0  0  0  0
  -20.3990  -27.9500   19.9330 C   0  0  0  0  0  1  0  0  0  0  0  0
  -21.6970  -27.6890   20.7140 C   0  0  0  0  0  3  0  0  0  0  0  0
  -21.0440  -27.4150   23.0660 C   0  0  0  0  0  1  0  0  0  0  0  0
  -21.6040  -28.3080   22.0550 N   0  0  0  0  0  0  0  0  0  0  0  0
  -21.0350  -29.1500   22.0250 H   0  0  0  0  0  0  0  0  0  0  0  0
  1  8  2  0
  3  2  1  0
  4  3  1  0
  5 23  1  0
  5  6  1  0
  5  4  1  0
  6  7  1  0
  7  2  1  0
  7  1  1  0
  9 13  2  0
  9 11  1  0
 11 12  2  0
 12 10  1  0
 12 15  1  0
 13 14  1  0
 14 51  1  0
 14 10  2  0
 17 11  1  0
 17 16  1  0
 17 19  1  0
 18 16  1  0
 18 15  1  0
 19  1  1  0
 19 18  1  0
 20 45  1  0
 20 23  1  0
 21 22  1  0
 21 20  2  0
 22 24  2  0
 24 23  1  0
 25 30  1  0
 25 22  1  0
 26 25  2  0
 27 28  2  0
 27 26  1  0
 28 29  1  0
 29 30  2  0
 31 28  1  0
 32 31  1  0
 32 33  1  0
 34 33  2  0
 35 34  1  0
 36 37  1  0
 36 35  2  0
 37 32  2  0
 38 37  1  0
 39 35  1  0
 40 21  1  0
 41 43  1  0
 41 40  1  0
 42 40  2  0
 44 41  1  0
 45 47  1  0
 46 45  1  0
 49 50  1  0
 50 48  1  0
 50 13  1  0
 52 51  1  0
 53 52  2  0
 54 53  1  0
 56 54  1  0
 56 61  1  0
 57 67  1  0
 57 65  1  0
 58 60  1  0
 60 61  2  0
 60 59  1  0
 62 56  2  0
 63 62  1  0
 63 58  2  0
 64 58  1  0
 64 57  1  0
 65 59  1  0
 65 55  1  0
 66 55  2  0
 68 70  1  0
 68 67  1  0
 69 67  2  0
 71 76  2  0
 71 80  1  0
 72 68  1  0
 72 76  1  0
 73 74  1  0
 73 72  1  0
 74 75  1  0
 75 71  1  0
 76 77  1  0
 77 78  2  0
 79 78  1  0
 80 79  2  0
 81 55  1  0
 81 82  1  0
 81 86  1  0
 82 85  1  1
 83 82  1  0
 84 82  1  0
 86 89  1  0
 86 87  1  0
 87 91  1  0
 88 87  2  0
 91 90  1  0
 91 93  1  0
 93 92  1  0
 94 93  1  0
M  ISO  4   1 100  19 100  53 101  54 101
M  END
>  <TORSDO>  (32) 
F 19

>  <SCORE>  (32) 
-3.969

>  <name>  (32) 
31

>  <ligand_id>  (32) 
31

>  <original_smiles>  (32) 
[H]c1c([H])c([H])c2c(c1[H])C([H])([H])C([H])([H])C([H])([H])C2([H])N([H])C(=O)C1([H])N(C(=O)C([H])(N([H])C(=O)C([H])(N([H])C([H])([H])[H])C([H])([H])[H])C(C([H])([H])[H])(C([H])([H])[H])C([H])([H])[H])C([H])([H])c2c([H])c(OC([H])([H])C([H])([H])Oc3c([H])c4c(c([H])c3C([H])(C([H])([H])[H])C([H])([H])[H])C3([H])N(C(=O)N5C([H])([H])C([H])([H])C([H])([H])C([H])(n6nc(-c7c([H])c([H])c(Oc8c([H])c([H])c(F)c([H])c8F)c([H])c7[H])c(C(=O)N([H])[H])c6N([H])[H])C5([H])[H])C([H])(C4([H])[H])C3([H])[H])c([H])c([H])c2C1([H])[H]

>  <smiles>  (32) 
[H]c1c([H])c([H])c2c(c1[H])C([H])([H])C([H])([H])C([H])([H])C2([H])N([H])C(=O)C1([H])N(C(=O)C([H])(N([H])C(=O)C([H])(N([H])C([H])([H])[H])C([H])([H])[H])C(C([H])([H])[H])(C([H])([H])[H])C([H])([H])[H])C([H])([H])c2c([H])c(OC([H])([H])C([H])([H])Oc3c([H])c4c(c([H])c3C([H])(C([H])([H])[H])C([H])([H])[H])C3([H])N(C(=O)N5C([H])([H])C([H])([H])C([H])([H])C([H])(n6nc(-c7c([H])c([H])c(Oc8c([H])c([H])c(F)c([H])c8F)c([H])c7[H])c(C(=O)N([H])[H])c6N([H])[H])C5([H])[H])C([H])(C4([H])[H])C3([H])[H])c([H])c([H])c2C1([H])[H]

$$$$
32:0:0
     RDKit          3D

 92101  0  0  1  0  0  0  0  0999 V2000
  -30.6480  -14.8080   20.4650 C   0  0  0  0  0  0  0  0  0  0  0  0
  -30.4320  -12.5270   19.4720 C   0  0  0  0  0  2  0  0  0  0  0  0
  -29.5250  -12.5940   18.2230 C   0  0  0  0  0  2  0  0  0  0  0  0
  -28.0420  -12.4530   18.6170 C   0  0  0  0  0  2  0  0  0  0  0  0
  -27.6500  -13.3520   19.8190 C   0  0  0  0  0  3  0  0  0  0  0  0
  -28.6810  -13.2620   20.9660 C   0  0  0  0  0  2  0  0  0  0  0  0
  -29.9950  -13.5940   20.4030 N   0  0  0  0  0  0  0  0  0  0  0  0
  -31.8620  -14.8410   20.2410 O   0  0  0  0  0  0  0  0  0  0  0  0
  -30.9020  -18.8440   18.2630 C   0  0  0  0  0  3  0  0  0  0  0  0
  -30.6350  -17.5520   18.7530 C   0  0  0  0  0  0  0  0  0  0  0  0
  -30.5730  -19.9870   19.0040 C   0  0  0  0  0  0  0  0  0  0  0  0
  -30.1120  -17.3700   20.0680 C   0  0  0  0  0  0  0  0  0  0  0  0
  -29.8920  -19.8260   20.2260 C   0  0  0  0  0  0  0  0  0  0  0  0
  -30.8970  -16.4140   17.7780 C   0  0  0  0  0  1  0  0  0  0  0  0
  -31.0240  -21.3370   18.4650 C   0  0  0  0  0  1  0  0  0  0  0  0
  -29.7180  -18.5370   20.7410 N   0  0  0  0  0  0  0  0  0  0  0  0
  -29.8940  -15.9780   20.5790 N   0  0  0  0  0  0  0  0  0  0  0  0
  -28.9790  -15.8290   20.9710 H   0  0  0  0  0  0  0  0  0  0  0  0
  -25.2430  -13.9630   20.4660 C   0  0  0  0  0  0  0  0  0  0  0  0
  -24.1650  -13.1990   20.8200 C   0  0  0  0  0  0  0  0  0  0  0  0
  -24.6260  -11.8470   20.8330 C   0  0  0  0  0  0  0  0  0  0  0  0
  -26.2920  -13.0770   20.2790 N   0  0  0  0  0  0  0  0  0  0  0  0
  -25.9260  -11.8010   20.5670 N   0  0  0  0  0  0  0  0  0  0  0  0
  -23.8890  -10.5900   21.0260 C   0  0  0  0  0  0  0  0  0  0  0  0
  -24.3010   -9.6310   21.9780 C   0  0  0  0  0  3  0  0  0  0  0  0
  -23.5650   -8.4390   22.1570 C   0  0  0  0  0  3  0  0  0  0  0  0
  -22.4060   -8.1980   21.3840 C   0  0  0  0  0  0  0  0  0  0  0  0
  -22.0140   -9.1440   20.4200 C   0  0  0  0  0  3  0  0  0  0  0  0
  -22.7500  -10.3280   20.2400 C   0  0  0  0  0  3  0  0  0  0  0  0
  -21.6420   -7.0580   21.4720 O   0  0  0  0  0  0  0  0  0  0  0  0
  -21.5810   -6.3210   22.6280 C   0  0  0  0  0  0  0  0  0  0  0  0
  -21.1550   -6.8850   23.8500 C   0  0  0  0  0  3  0  0  0  0  0  0
  -21.0410   -6.0750   24.9970 C   0  0  0  0  0  3  0  0  0  0  0  0
  -21.3430   -4.7010   24.9230 C   0  0  0  0  0  0  0  0  0  0  0  0
  -21.7610   -4.1360   23.7060 C   0  0  0  0  0  3  0  0  0  0  0  0
  -21.8770   -4.9440   22.5610 C   0  0  0  0  0  0  0  0  0  0  0  0
  -22.2610   -4.3910   21.3850 F   0  0  0  0  0  0  0  0  0  0  0  0
  -21.2250   -3.9210   26.0230 F   0  0  0  0  0  0  0  0  0  0  0  0
  -22.7610  -13.6840   21.0320 C   0  0  0  0  0  0  0  0  0  0  0  0
  -22.0010  -13.0110   21.8900 N   0  0  0  0  0  0  0  0  0  0  0  0
  -22.3430  -14.6970   20.4710 O   0  0  0  0  0  0  0  0  0  0  0  0
  -22.3500  -12.1930   22.3680 H   0  0  0  0  0  0  0  0  0  0  0  0
  -21.0580  -13.3210   22.0740 H   0  0  0  0  0  0  0  0  0  0  0  0
  -25.4150  -15.3290   20.2630 N   0  0  0  0  0  0  0  0  0  0  0  0
  -24.6410  -15.9820   20.3300 H   0  0  0  0  0  0  0  0  0  0  0  0
  -26.2640  -15.7580   19.9170 H   0  0  0  0  0  0  0  0  0  0  0  0
  -29.4950  -20.9570   21.0010 O   0  0  0  0  0  0  0  0  0  0  0  0
  -28.7090  -22.1080   20.4440 C   0  0  0  0  0  2  0  0  0  0  0  0
  -28.6270  -24.3910   21.8950 C   0  0  0  0  0  2  0  0  0  0  0  0
  -29.0950  -23.6570   20.6580 C   0  0  0  0  0  3  0  0  0  0  0  0
  -28.0750  -24.8940   20.5830 C   0  0  0  0  0  3  0  0  0  0  0  0
  -28.3770  -26.3730   20.4520 O   0  0  0  0  0  0  0  0  0  0  0  0
  -24.6430  -31.9440   23.2740 C   0  0  0  0  0  0  0  0  0  0  0  0
  -27.2910  -27.2820   20.3550 C   0  0  0  0  0  0  0  0  0  0  0  0
  -23.4670  -30.5130   21.6450 C   0  0  0  0  0  3  0  0  0  0  0  0
  -24.9410  -28.9380   20.2650 C   0  0  0  0  0  0  0  0  0  0  0  0
  -26.0130  -30.8170   21.4980 C   0  0  0  0  0  2  0  0  0  0  0  0
  -26.1030  -29.4220   20.8780 C   0  0  0  0  0  0  0  0  0  0  0  0
  -27.2820  -28.6070   20.9120 C   0  0  0  0  0  3  0  0  0  0  0  0
  -26.1130  -26.8850   19.6810 C   0  0  0  0  0  3  0  0  0  0  0  0
  -24.9530  -27.6780   19.6520 C   0  0  0  0  0  3  0  0  0  0  0  0
  -23.7030  -29.8150   20.2800 C   0  0  0  0  0  2  0  0  0  0  0  0
  -24.7260  -31.1110   22.1940 N   0  0  0  0  0  0  0  0  0  0  0  0
  -23.5510  -32.2300   23.7870 O   0  0  0  0  0  0  0  0  0  0  0  0
  -22.7900  -29.5130   22.6140 C   0  0  0  0  0  0  0  0  0  0  0  0
  -21.4660  -29.3320   22.4750 N   0  0  0  0  0  0  0  0  0  0  0  0
  -23.4570  -28.9020   23.4540 O   0  0  0  0  0  0  0  0  0  0  0  0
  -20.9860  -29.8750   21.7700 H   0  0  0  0  0  0  0  0  0  0  0  0
  -18.0800  -28.1490   22.9660 C   0  0  0  0  0  0  0  0  0  0  0  0
  -20.6370  -28.4090   23.2530 C   0  0  0  0  0  3  0  0  0  0  0  0
  -20.7410  -26.9680   22.7010 C   0  0  0  0  0  2  0  0  0  0  0  0
  -19.6470  -26.6310   21.6830 C   0  0  0  0  0  2  0  0  0  0  0  0
  -18.2600  -26.7890   22.3120 C   0  0  0  0  0  2  0  0  0  0  0  0
  -19.1970  -28.9160   23.3930 C   0  0  0  0  0  0  0  0  0  0  0  0
  -18.9750  -30.1880   23.9640 C   0  0  0  0  0  3  0  0  0  0  0  0
  -17.6680  -30.6940   24.1120 C   0  0  0  0  0  3  0  0  0  0  0  0
  -16.5670  -29.9230   23.7010 C   0  0  0  0  0  3  0  0  0  0  0  0
  -16.7730  -28.6540   23.1330 C   0  0  0  0  0  3  0  0  0  0  0  0
  -25.9150  -32.5930   23.9010 C   0  0  0  0  0  3  0  0  0  0  0  0
  -25.5900  -33.9920   24.2170 N   0  0  0  0  0  0  0  0  0  0  0  0
  -25.9170  -35.0420   23.4520 C   0  0  0  0  0  0  0  0  0  0  0  0
  -26.5930  -34.9350   22.4250 O   0  0  0  0  0  0  0  0  0  0  0  0
  -24.9900  -34.1480   25.0130 H   0  0  0  0  0  0  0  0  0  0  0  0
  -24.1750  -36.8180   23.0770 C   0  0  0  0  0  1  0  0  0  0  0  0
  -25.4170  -36.4300   23.8960 C   0  0  0  0  0  3  0  0  0  0  0  0
  -27.5400  -37.3410   24.7290 C   0  0  0  0  0  1  0  0  0  0  0  0
  -26.4420  -37.4910   23.7800 N   0  0  0  0  0  0  0  0  0  0  0  0
  -26.0270  -38.4090   23.9150 H   0  0  0  0  0  0  0  0  0  0  0  0
  -26.4240  -31.8380   25.1900 C   0  0  1  0  0  0  0  0  0  0  0  0
  -25.3210  -31.5930   26.2450 C   0  0  0  0  0  1  0  0  0  0  0  0
  -27.0300  -30.4650   24.8180 C   0  0  0  0  0  1  0  0  0  0  0  0
  -27.5560  -32.6520   25.8600 C   0  0  0  0  0  1  0  0  0  0  0  0
  1 17  1  0
  2  7  1  0
  3  4  1  0
  3  2  1  0
  5  4  1  0
  5 22  1  0
  5  6  1  0
  7  1  1  0
  7  6  1  0
  8  1  2  0
  9 10  1  0
  9 11  2  0
 10 12  2  0
 11 13  1  0
 12 17  1  0
 12 16  1  0
 13 16  2  0
 13 47  1  0
 14 10  1  0
 15 11  1  0
 17 18  1  0
 19 20  2  0
 20 21  1  0
 20 39  1  0
 21 24  1  0
 22 19  1  0
 22 23  1  0
 23 21  2  0
 24 25  1  0
 25 26  2  0
 27 30  1  0
 27 26  1  0
 28 27  2  0
 29 28  1  0
 29 24  2  0
 30 31  1  0
 31 32  1  0
 32 33  2  0
 34 33  1  0
 34 38  1  0
 35 34  2  0
 36 31  2  0
 36 35  1  0
 37 36  1  0
 39 40  1  0
 40 43  1  0
 40 42  1  0
 41 39  2  0
 44 45  1  0
 44 19  1  0
 46 44  1  0
 48 47  1  0
 50 48  1  0
 50 49  1  0
 51 52  1  0
 51 50  1  0
 51 49  1  0
 53 64  2  0
 54 52  1  0
 54 59  1  0
 55 63  1  0
 55 65  1  0
 56 62  1  0
 56 58  1  0
 57 63  1  0
 58 59  2  0
 58 57  1  0
 60 54  2  0
 61 60  1  0
 61 56  2  0
 62 55  1  0
 63 53  1  0
 65 67  2  0
 66 65  1  0
 68 66  1  0
 69 78  2  0
 69 74  1  0
 70 66  1  0
 70 74  1  0
 71 70  1  0
 72 73  1  0
 72 71  1  0
 73 69  1  0
 74 75  2  0
 75 76  1  0
 77 76  2  0
 78 77  1  0
 79 53  1  0
 79 80  1  0
 79 89  1  0
 80 83  1  0
 81 85  1  0
 81 80  1  0
 82 81  2  0
 85 84  1  0
 87 85  1  0
 87 88  1  0
 87 86  1  0
 89 92  1  1
 89 90  1  0
 91 89  1  0
M  ISO  4   1 100  17 100  51 101  52 101
M  END
>  <TORSDO>  (33) 
F 18

>  <SCORE>  (33) 
-14.373

>  <name>  (33) 
32

>  <ligand_id>  (33) 
32

>  <original_smiles>  (33) 
[H]c1c([H])c([H])c2c(c1[H])C([H])([H])C([H])([H])C([H])([H])C2([H])N([H])C(=O)C1([H])N(C(=O)C([H])(N([H])C(=O)C([H])(N([H])C([H])([H])[H])C([H])([H])[H])C(C([H])([H])[H])(C([H])([H])[H])C([H])([H])[H])C([H])([H])c2c([H])c(OC3([H])C([H])([H])C3([H])C([H])([H])Oc3nc(N([H])C(=O)N4C([H])([H])C([H])([H])C([H])([H])C([H])(n5nc(-c6c([H])c([H])c(Oc7c([H])c([H])c(F)c([H])c7F)c([H])c6[H])c(C(=O)N([H])[H])c5N([H])[H])C4([H])[H])c(C([H])([H])[H])c([H])c3C([H])([H])[H])c([H])c([H])c2C1([H])[H]

>  <smiles>  (33) 
[H]c1c([H])c([H])c2c(c1[H])C([H])([H])C([H])([H])C([H])([H])C2([H])N([H])C(=O)C1([H])N(C(=O)C([H])(N([H])C(=O)C([H])(N([H])C([H])([H])[H])C([H])([H])[H])C(C([H])([H])[H])(C([H])([H])[H])C([H])([H])[H])C([H])([H])c2c([H])c(OC3([H])C([H])([H])C3([H])C([H])([H])Oc3nc(N([H])C(=O)N4C([H])([H])C([H])([H])C([H])([H])C([H])(n5nc(-c6c([H])c([H])c(Oc7c([H])c([H])c(F)c([H])c7F)c([H])c6[H])c(C(=O)N([H])[H])c5N([H])[H])C4([H])[H])c(C([H])([H])[H])c([H])c3C([H])([H])[H])c([H])c([H])c2C1([H])[H]

$$$$
33:0:0
     RDKit          3D

 97106  0  0  1  0  0  0  0  0999 V2000
  -30.1410  -20.2790   22.4850 C   0  0  0  0  0  3  0  0  0  0  0  0
  -29.4210  -21.3170   20.3970 C   0  0  0  0  0  3  0  0  0  0  0  0
  -29.8250  -20.1540   21.1150 C   0  0  0  0  0  0  0  0  0  0  0  0
  -30.0860  -21.5280   23.1310 C   0  0  0  0  0  0  0  0  0  0  0  0
  -29.3600  -22.5870   21.0380 C   0  0  0  0  0  0  0  0  0  0  0  0
  -29.7220  -22.6830   22.4020 C   0  0  0  0  0  0  0  0  0  0  0  0
  -30.4290  -21.6080   24.6080 C   0  0  0  0  0  1  0  0  0  0  0  0
  -31.3120  -14.5650   19.9470 C   0  0  0  0  0  0  0  0  0  0  0  0
  -30.9170  -12.2890   19.0720 C   0  0  0  0  0  2  0  0  0  0  0  0
  -29.9360  -12.3280   17.8870 C   0  0  0  0  0  2  0  0  0  0  0  0
  -28.4900  -12.2000   18.3970 C   0  0  0  0  0  2  0  0  0  0  0  0
  -28.1860  -13.1530   19.5840 C   0  0  0  0  0  3  0  0  0  0  0  0
  -29.3060  -13.0970   20.6550 C   0  0  0  0  0  2  0  0  0  0  0  0
  -30.5660  -13.4120   19.9730 N   0  0  0  0  0  0  0  0  0  0  0  0
  -32.4660  -14.4960   19.5180 O   0  0  0  0  0  0  0  0  0  0  0  0
  -31.4480  -18.3060   20.5710 C   0  0  0  0  0  2  0  0  0  0  0  0
  -29.1250  -17.6390   20.9420 C   0  0  0  0  0  2  0  0  0  0  0  0
  -31.7100  -16.9690   19.8560 C   0  0  0  0  0  2  0  0  0  0  0  0
  -29.3820  -16.2780   20.2280 C   0  0  0  0  0  2  0  0  0  0  0  0
  -30.0080  -18.7890   20.4180 C   0  0  0  0  0  3  0  0  0  0  0  0
  -30.8000  -15.8310   20.2020 N   0  0  0  0  0  0  0  0  0  0  0  0
  -25.8810  -13.8140   20.5050 C   0  0  0  0  0  0  0  0  0  0  0  0
  -24.8080  -13.0650   20.9000 C   0  0  0  0  0  0  0  0  0  0  0  0
  -25.2030  -11.7000   20.7540 C   0  0  0  0  0  0  0  0  0  0  0  0
  -26.8660  -12.9050   20.1490 N   0  0  0  0  0  0  0  0  0  0  0  0
  -26.4670  -11.6250   20.3580 N   0  0  0  0  0  0  0  0  0  0  0  0
  -24.4330  -10.4600   20.9120 C   0  0  0  0  0  0  0  0  0  0  0  0
  -24.7880   -9.4900   21.8740 C   0  0  0  0  0  3  0  0  0  0  0  0
  -24.0220   -8.3140   22.0190 C   0  0  0  0  0  3  0  0  0  0  0  0
  -22.8860   -8.1020   21.2020 C   0  0  0  0  0  0  0  0  0  0  0  0
  -22.5510   -9.0600   20.2300 C   0  0  0  0  0  3  0  0  0  0  0  0
  -23.3180  -10.2290   20.0830 C   0  0  0  0  0  3  0  0  0  0  0  0
  -22.0970   -6.9790   21.2570 O   0  0  0  0  0  0  0  0  0  0  0  0
  -21.8150   -6.3550   22.4470 C   0  0  0  0  0  0  0  0  0  0  0  0
  -21.1300   -7.0160   23.4910 C   0  0  0  0  0  3  0  0  0  0  0  0
  -20.7990   -6.3160   24.6670 C   0  0  0  0  0  3  0  0  0  0  0  0
  -21.1440   -4.9570   24.8030 C   0  0  0  0  0  0  0  0  0  0  0  0
  -21.8200   -4.2980   23.7620 C   0  0  0  0  0  3  0  0  0  0  0  0
  -22.1530   -4.9940   22.5870 C   0  0  0  0  0  0  0  0  0  0  0  0
  -22.7850   -4.3470   21.5790 F   0  0  0  0  0  0  0  0  0  0  0  0
  -20.8190   -4.2820   25.9300 F   0  0  0  0  0  0  0  0  0  0  0  0
  -23.4550  -13.5820   21.2980 C   0  0  0  0  0  0  0  0  0  0  0  0
  -22.7680  -12.8760   22.1910 N   0  0  0  0  0  0  0  0  0  0  0  0
  -23.0200  -14.6440   20.8550 O   0  0  0  0  0  0  0  0  0  0  0  0
  -23.1310  -12.0180   22.5760 H   0  0  0  0  0  0  0  0  0  0  0  0
  -21.8650  -13.2040   22.5010 H   0  0  0  0  0  0  0  0  0  0  0  0
  -26.0900  -15.1850   20.3950 N   0  0  0  0  0  0  0  0  0  0  0  0
  -25.3570  -15.8540   20.6030 H   0  0  0  0  0  0  0  0  0  0  0  0
  -26.9280  -15.6180   20.0280 H   0  0  0  0  0  0  0  0  0  0  0  0
  -30.9700  -24.5560   23.0240 C   0  0  0  0  0  1  0  0  0  0  0  0
  -29.7020  -23.9120   23.0160 O   0  0  0  0  0  0  0  0  0  0  0  0
  -28.9600  -23.8010   20.4350 N   0  0  0  0  0  0  0  0  0  0  0  0
  -28.9970  -24.6200   21.0380 H   0  0  0  0  0  0  0  0  0  0  0  0
  -29.7750  -24.4840   18.2060 C   0  0  0  0  0  1  0  0  0  0  0  0
  -28.5760  -24.0250   19.0430 C   0  0  0  0  0  3  0  0  0  0  0  0
  -27.3700  -24.9980   18.9370 C   0  0  0  0  0  2  0  0  0  0  0  0
  -27.6080  -26.3800   19.3020 O   0  0  0  0  0  0  0  0  0  0  0  0
  -24.2450  -31.5160   22.9570 C   0  0  0  0  0  0  0  0  0  0  0  0
  -26.4960  -27.2110   19.3750 C   0  0  0  0  0  0  0  0  0  0  0  0
  -22.8930  -30.3240   21.2680 C   0  0  0  0  0  3  0  0  0  0  0  0
  -24.1960  -28.8600   19.6400 C   0  0  0  0  0  0  0  0  0  0  0  0
  -25.4290  -30.5680   20.9770 C   0  0  0  0  0  2  0  0  0  0  0  0
  -25.4110  -29.2580   20.2130 C   0  0  0  0  0  0  0  0  0  0  0  0
  -26.5620  -28.4420   20.0800 C   0  0  0  0  0  3  0  0  0  0  0  0
  -25.2590  -26.8580   18.7800 C   0  0  0  0  0  3  0  0  0  0  0  0
  -24.1160  -27.6600   18.9220 C   0  0  0  0  0  3  0  0  0  0  0  0
  -23.0030  -29.7690   19.8250 C   0  0  0  0  0  2  0  0  0  0  0  0
  -24.2100  -30.8120   21.7920 N   0  0  0  0  0  0  0  0  0  0  0  0
  -23.2040  -31.7910   23.5730 O   0  0  0  0  0  0  0  0  0  0  0  0
  -22.2370  -29.2500   22.1670 C   0  0  0  0  0  0  0  0  0  0  0  0
  -20.8970  -29.1710   22.1240 N   0  0  0  0  0  0  0  0  0  0  0  0
  -22.9280  -28.4980   22.8620 O   0  0  0  0  0  0  0  0  0  0  0  0
  -20.4010  -29.8270   21.5350 H   0  0  0  0  0  0  0  0  0  0  0  0
  -17.4860  -28.1630   22.7690 C   0  0  0  0  0  0  0  0  0  0  0  0
  -20.0690  -28.2130   22.8580 C   0  0  0  0  0  3  0  0  0  0  0  0
  -20.0180  -26.8480   22.1330 C   0  0  0  0  0  2  0  0  0  0  0  0
  -18.8240  -26.7130   21.1830 C   0  0  0  0  0  2  0  0  0  0  0  0
  -17.5080  -26.8850   21.9470 C   0  0  0  0  0  2  0  0  0  0  0  0
  -18.6880  -28.7950   23.1830 C   0  0  0  0  0  0  0  0  0  0  0  0
  -18.6120  -29.9990   23.9150 C   0  0  0  0  0  3  0  0  0  0  0  0
  -17.3660  -30.5700   24.2340 C   0  0  0  0  0  3  0  0  0  0  0  0
  -16.1780  -29.9330   23.8350 C   0  0  0  0  0  3  0  0  0  0  0  0
  -16.2400  -28.7300   23.1090 C   0  0  0  0  0  3  0  0  0  0  0  0
  -25.5880  -32.0300   23.5620 C   0  0  0  0  0  3  0  0  0  0  0  0
  -26.1120  -31.1410   24.7560 C   0  0  1  0  0  0  0  0  0  0  0  0
  -25.0580  -30.9030   25.8620 C   0  0  0  0  0  1  0  0  0  0  0  0
  -26.5830  -29.7590   24.2470 C   0  0  0  0  0  1  0  0  0  0  0  0
  -27.3430  -31.8150   25.4080 C   0  0  0  0  0  1  0  0  0  0  0  0
  -25.3740  -33.4150   24.0010 N   0  0  0  0  0  0  0  0  0  0  0  0
  -25.7590  -34.4990   23.3140 C   0  0  0  0  0  0  0  0  0  0  0  0
  -26.4030  -34.4320   22.2630 O   0  0  0  0  0  0  0  0  0  0  0  0
  -24.8020  -33.5450   24.8220 H   0  0  0  0  0  0  0  0  0  0  0  0
  -24.1440  -36.4170   23.1210 C   0  0  0  0  0  1  0  0  0  0  0  0
  -25.3660  -35.8760   23.8810 C   0  0  0  0  0  3  0  0  0  0  0  0
  -27.5490  -36.5700   24.7610 C   0  0  0  0  0  1  0  0  0  0  0  0
  -26.4620  -36.8670   23.8310 N   0  0  0  0  0  0  0  0  0  0  0  0
  -26.1140  -37.8000   24.0390 H   0  0  0  0  0  0  0  0  0  0  0  0
  1  4  1  0
  2  5  2  0
  2  3  1  0
  3  1  2  0
  4  7  1  0
  5  6  1  0
  6 51  1  0
  6  4  2  0
  8 14  1  0
  8 21  1  0
  9 14  1  0
 10 11  1  0
 10  9  1  0
 12 11  1  0
 12 25  1  0
 12 13  1  0
 14 13  1  0
 15  8  2  0
 18 21  1  0
 18 16  1  0
 19 17  1  0
 20 16  1  0
 20 17  1  0
 20  3  1  0
 21 19  1  0
 22 23  2  0
 23 42  1  0
 24 23  1  0
 24 27  1  0
 25 26  1  0
 25 22  1  0
 26 24  2  0
 27 28  1  0
 28 29  2  0
 30 33  1  0
 30 29  1  0
 31 30  2  0
 32 31  1  0
 32 27  2  0
 33 34  1  0
 34 39  2  0
 34 35  1  0
 35 36  2  0
 36 37  1  0
 37 41  1  0
 38 37  2  0
 39 38  1  0
 40 39  1  0
 42 43  1  0
 43 46  1  0
 43 45  1  0
 44 42  2  0
 47 22  1  0
 47 48  1  0
 49 47  1  0
 51 50  1  0
 52 53  1  0
 52  5  1  0
 55 54  1  0
 55 52  1  0
 56 55  1  0
 56 57  1  0
 57 59  1  0
 58 69  2  0
 59 64  1  0
 60 68  1  0
 60 70  1  0
 61 67  1  0
 61 63  1  0
 62 68  1  0
 63 62  1  0
 64 63  2  0
 65 66  1  0
 65 59  2  0
 66 61  2  0
 67 60  1  0
 68 58  1  0
 70 72  2  0
 71 70  1  0
 73 71  1  0
 74 83  2  0
 74 79  1  0
 75 71  1  0
 75 79  1  0
 76 75  1  0
 77 78  1  0
 77 76  1  0
 78 74  1  0
 79 80  2  0
 80 81  1  0
 82 81  2  0
 83 82  1  0
 84 58  1  0
 84 89  1  0
 84 85  1  0
 85 88  1  1
 85 86  1  0
 87 85  1  0
 89 92  1  0
 90 94  1  0
 90 89  1  0
 91 90  2  0
 94 93  1  0
 96 94  1  0
 96 97  1  0
 96 95  1  0
M  ISO  4   8 100  21 100  56 101  57 101
M  END
>  <TORSDO>  (34) 
F 20

>  <SCORE>  (34) 
-10.734

>  <name>  (34) 
33

>  <ligand_id>  (34) 
33

>  <original_smiles>  (34) 
[H]c1c([H])c([H])c2c(c1[H])C([H])([H])C([H])([H])C([H])([H])C2([H])N([H])C(=O)C1([H])N(C(=O)C([H])(N([H])C(=O)C([H])(N([H])C([H])([H])[H])C([H])([H])[H])C(C([H])([H])[H])(C([H])([H])[H])C([H])([H])[H])C([H])([H])c2c([H])c(OC([H])([H])C([H])(N([H])c3c([H])c(C4([H])C([H])([H])C([H])([H])N(C(=O)N5C([H])([H])C([H])([H])C([H])([H])C([H])(n6nc(-c7c([H])c([H])c(Oc8c([H])c([H])c(F)c([H])c8F)c([H])c7[H])c(C(=O)N([H])[H])c6N([H])[H])C5([H])[H])C([H])([H])C4([H])[H])c([H])c(C([H])([H])[H])c3OC([H])([H])[H])C([H])([H])[H])c([H])c([H])c2C1([H])[H]

>  <smiles>  (34) 
[H]c1c([H])c([H])c2c(c1[H])C([H])([H])C([H])([H])C([H])([H])C2([H])N([H])C(=O)C1([H])N(C(=O)C([H])(N([H])C(=O)C([H])(N([H])C([H])([H])[H])C([H])([H])[H])C(C([H])([H])[H])(C([H])([H])[H])C([H])([H])[H])C([H])([H])c2c([H])c(OC([H])([H])C([H])(N([H])c3c([H])c(C4([H])C([H])([H])C([H])([H])N(C(=O)N5C([H])([H])C([H])([H])C([H])([H])C([H])(n6nc(-c7c([H])c([H])c(Oc8c([H])c([H])c(F)c([H])c8F)c([H])c7[H])c(C(=O)N([H])[H])c6N([H])[H])C5([H])[H])C([H])([H])C4([H])[H])c([H])c(C([H])([H])[H])c3OC([H])([H])[H])C([H])([H])[H])c([H])c([H])c2C1([H])[H]

$$$$
34:0:0
     RDKit          3D

 97106  0  0  1  0  0  0  0  0999 V2000
  -30.9140  -14.9600   19.4590 C   0  0  0  0  0  0  0  0  0  0  0  0
  -30.7120  -12.5570   18.8890 C   0  0  0  0  0  2  0  0  0  0  0  0
  -29.6820  -12.3620   17.7580 C   0  0  0  0  0  2  0  0  0  0  0  0
  -28.2650  -12.2120   18.3420 C   0  0  0  0  0  2  0  0  0  0  0  0
  -27.9280  -13.3170   19.3790 C   0  0  0  0  0  3  0  0  0  0  0  0
  -29.0690  -13.4990   20.4030 C   0  0  0  0  0  2  0  0  0  0  0  0
  -30.3150  -13.7490   19.6650 N   0  0  0  0  0  0  0  0  0  0  0  0
  -31.9270  -15.0610   18.7580 O   0  0  0  0  0  0  0  0  0  0  0  0
  -29.0370  -19.3710   18.4880 C   0  0  0  0  0  3  0  0  0  0  0  0
  -29.8780  -18.4160   19.1330 C   0  0  0  0  0  0  0  0  0  0  0  0
  -29.5440  -20.6600   18.1130 C   0  0  0  0  0  0  0  0  0  0  0  0
  -31.1840  -18.8220   19.4510 C   0  0  0  0  0  0  0  0  0  0  0  0
  -30.9120  -20.8940   18.4150 C   0  0  0  0  0  0  0  0  0  0  0  0
  -29.4240  -16.9670   19.4700 C   0  0  0  0  0  2  0  0  0  0  0  0
  -32.1180  -17.9050   20.2170 C   0  0  0  0  0  2  0  0  0  0  0  0
  -31.3850  -16.7790   20.9820 C   0  0  0  0  0  3  0  0  0  0  0  0
  -31.6400  -22.1530   17.9760 C   0  0  0  0  0  1  0  0  0  0  0  0
  -31.6840  -20.0210   19.0960 N   0  0  0  0  0  0  0  0  0  0  0  0
  -30.4270  -16.0590   20.1140 N   0  0  0  0  0  0  0  0  0  0  0  0
  -25.7350  -13.9690   20.5530 C   0  0  0  0  0  0  0  0  0  0  0  0
  -24.6760  -13.2240   20.9960 C   0  0  0  0  0  0  0  0  0  0  0  0
  -25.0090  -11.8630   20.7210 C   0  0  0  0  0  0  0  0  0  0  0  0
  -26.6490  -13.0640   20.0400 N   0  0  0  0  0  0  0  0  0  0  0  0
  -26.2270  -11.7830   20.1980 N   0  0  0  0  0  0  0  0  0  0  0  0
  -24.2150  -10.6370   20.8730 C   0  0  0  0  0  0  0  0  0  0  0  0
  -24.6700   -9.5550   21.6600 C   0  0  0  0  0  3  0  0  0  0  0  0
  -23.8790   -8.3950   21.8060 C   0  0  0  0  0  3  0  0  0  0  0  0
  -22.6190   -8.3110   21.1660 C   0  0  0  0  0  0  0  0  0  0  0  0
  -22.1820   -9.3810   20.3680 C   0  0  0  0  0  3  0  0  0  0  0  0
  -22.9720  -10.5330   20.2190 C   0  0  0  0  0  3  0  0  0  0  0  0
  -21.7940   -7.2130   21.2310 O   0  0  0  0  0  0  0  0  0  0  0  0
  -21.7740   -6.3890   22.3280 C   0  0  0  0  0  0  0  0  0  0  0  0
  -21.4330   -6.8650   23.6130 C   0  0  0  0  0  3  0  0  0  0  0  0
  -21.3590   -5.9710   24.6990 C   0  0  0  0  0  3  0  0  0  0  0  0
  -21.6170   -4.6010   24.5020 C   0  0  0  0  0  0  0  0  0  0  0  0
  -21.9500   -4.1230   23.2230 C   0  0  0  0  0  3  0  0  0  0  0  0
  -22.0270   -5.0160   22.1380 C   0  0  0  0  0  0  0  0  0  0  0  0
  -22.3300   -4.5480   20.9030 F   0  0  0  0  0  0  0  0  0  0  0  0
  -21.5390   -3.7400   25.5430 F   0  0  0  0  0  0  0  0  0  0  0  0
  -23.3850  -13.7540   21.5530 C   0  0  0  0  0  0  0  0  0  0  0  0
  -22.7450  -13.0020   22.4410 N   0  0  0  0  0  0  0  0  0  0  0  0
  -22.9600  -14.8640   21.2370 O   0  0  0  0  0  0  0  0  0  0  0  0
  -23.1040  -12.1020   22.7220 H   0  0  0  0  0  0  0  0  0  0  0  0
  -21.8810  -13.3360   22.8450 H   0  0  0  0  0  0  0  0  0  0  0  0
  -25.9810  -15.3400   20.5210 N   0  0  0  0  0  0  0  0  0  0  0  0
  -25.2960  -16.0110   20.8490 H   0  0  0  0  0  0  0  0  0  0  0  0
  -26.7960  -15.7770   20.1110 H   0  0  0  0  0  0  0  0  0  0  0  0
  -29.9360  -16.2030   23.0530 C   0  0  0  0  0  1  0  0  0  0  0  0
  -30.7480  -17.2700   22.3050 C   0  0  0  0  0  2  0  0  0  0  0  0
  -27.4340  -21.1610   16.6750 C   0  0  0  0  0  1  0  0  0  0  0  0
  -28.7120  -21.7260   17.3180 C   0  0  0  0  0  3  0  0  0  0  0  0
  -28.3800  -22.9600   18.1050 N   0  0  0  0  0  4  0  0  0  0  0  0
  -27.4310  -22.8990   18.4400 H   0  0  0  0  0  0  0  0  0  0  0  0
  -28.9510  -22.9320   18.9340 H   0  0  0  0  0  0  0  0  0  0  0  0
  -28.6330  -24.3170   17.4850 C   0  0  0  0  0  2  0  0  0  0  0  0
  -27.3820  -25.2310   17.3020 C   0  0  0  0  0  2  0  0  0  0  0  0
  -27.6280  -26.6620   17.4560 O   0  0  0  0  0  0  0  0  0  0  0  0
  -24.8100  -30.7500   22.6190 C   0  0  0  0  0  0  0  0  0  0  0  0
  -26.5550  -27.4470   17.8680 C   0  0  0  0  0  0  0  0  0  0  0  0
  -23.2520  -29.9900   20.8580 C   0  0  0  0  0  3  0  0  0  0  0  0
  -24.3320  -28.9690   18.7850 C   0  0  0  0  0  0  0  0  0  0  0  0
  -25.7400  -30.3240   20.3370 C   0  0  0  0  0  2  0  0  0  0  0  0
  -25.6120  -29.2330   19.2870 C   0  0  0  0  0  0  0  0  0  0  0  0
  -26.7270  -28.4870   18.8210 C   0  0  0  0  0  3  0  0  0  0  0  0
  -25.2490  -27.2200   17.3680 C   0  0  0  0  0  3  0  0  0  0  0  0
  -24.1480  -27.9650   17.8230 C   0  0  0  0  0  3  0  0  0  0  0  0
  -23.1880  -29.8010   19.3210 C   0  0  0  0  0  2  0  0  0  0  0  0
  -24.6300  -30.3490   21.3270 N   0  0  0  0  0  0  0  0  0  0  0  0
  -23.8520  -30.8560   23.3970 O   0  0  0  0  0  0  0  0  0  0  0  0
  -22.6820  -28.7250   21.5410 C   0  0  0  0  0  0  0  0  0  0  0  0
  -21.3450  -28.5890   21.5360 N   0  0  0  0  0  0  0  0  0  0  0  0
  -23.4330  -27.8830   22.0370 O   0  0  0  0  0  0  0  0  0  0  0  0
  -20.7960  -29.3260   21.1170 H   0  0  0  0  0  0  0  0  0  0  0  0
  -18.0220  -27.2320   21.9560 C   0  0  0  0  0  0  0  0  0  0  0  0
  -20.5930  -27.4620   22.0890 C   0  0  0  0  0  3  0  0  0  0  0  0
  -20.6490  -26.2390   21.1450 C   0  0  0  0  0  2  0  0  0  0  0  0
  -19.4700  -26.1740   20.1700 C   0  0  0  0  0  2  0  0  0  0  0  0
  -18.1430  -26.1160   20.9330 C   0  0  0  0  0  2  0  0  0  0  0  0
  -19.1710  -27.8740   22.4880 C   0  0  0  0  0  0  0  0  0  0  0  0
  -19.0010  -28.9280   23.4110 C   0  0  0  0  0  3  0  0  0  0  0  0
  -17.7130  -29.3410   23.8050 C   0  0  0  0  0  3  0  0  0  0  0  0
  -16.5790  -28.6910   23.2860 C   0  0  0  0  0  3  0  0  0  0  0  0
  -16.7350  -27.6360   22.3690 C   0  0  0  0  0  3  0  0  0  0  0  0
  -26.2220  -31.1170   23.1700 C   0  0  0  0  0  3  0  0  0  0  0  0
  -26.8860  -29.9530   24.0030 C   0  0  1  0  0  0  0  0  0  0  0  0
  -25.9770  -29.3920   25.1210 C   0  0  0  0  0  1  0  0  0  0  0  0
  -27.2780  -28.7780   23.0790 C   0  0  0  0  0  1  0  0  0  0  0  0
  -28.1920  -30.4570   24.6600 C   0  0  0  0  0  1  0  0  0  0  0  0
  -26.0780  -32.3270   23.9920 N   0  0  0  0  0  0  0  0  0  0  0  0
  -26.4460  -33.5560   23.6080 C   0  0  0  0  0  0  0  0  0  0  0  0
  -27.0150  -33.7790   22.5360 O   0  0  0  0  0  0  0  0  0  0  0  0
  -25.5740  -32.2270   24.8610 H   0  0  0  0  0  0  0  0  0  0  0  0
  -24.9000  -35.4880   24.0550 C   0  0  0  0  0  1  0  0  0  0  0  0
  -26.1310  -34.7220   24.5640 C   0  0  0  0  0  3  0  0  0  0  0  0
  -28.3830  -35.0760   25.4720 C   0  0  0  0  0  1  0  0  0  0  0  0
  -27.2600  -35.6590   24.7420 N   0  0  0  0  0  0  0  0  0  0  0  0
  -26.9610  -36.4930   25.2370 H   0  0  0  0  0  0  0  0  0  0  0  0
  1  7  1  0
  1 19  1  0
  2  7  1  0
  3  4  1  0
  3  2  1  0
  5  4  1  0
  5 23  1  0
  5  6  1  0
  7  6  1  0
  8  1  2  0
  9 10  1  0
 10 12  2  0
 10 14  1  0
 11 13  1  0
 11  9  2  0
 12 15  1  0
 13 18  2  0
 14 19  1  0
 15 16  1  0
 16 49  1  0
 17 13  1  0
 18 12  1  0
 19 16  1  0
 20 21  2  0
 21 40  1  0
 22 25  1  0
 22 21  1  0
 23 24  1  0
 23 20  1  0
 24 22  2  0
 25 26  1  0
 26 27  2  0
 28 31  1  0
 28 27  1  0
 29 28  2  0
 30 29  1  0
 30 25  2  0
 31 32  1  0
 32 33  1  0
 33 34  2  0
 35 34  1  0
 35 39  1  0
 36 35  2  0
 37 32  2  0
 37 36  1  0
 38 37  1  0
 40 41  1  0
 41 43  1  0
 41 44  1  0
 42 40  2  0
 45 20  1  0
 45 46  1  0
 47 45  1  0
 49 48  1  0
 51 50  1  0
 51 52  1  0
 51 11  1  0
 52 53  1  0
 52 54  1  0
 55 52  1  0
 56 57  1  0
 56 55  1  0
 57 59  1  0
 58 69  2  0
 59 64  1  0
 60 68  1  0
 60 70  1  0
 61 63  1  0
 61 67  1  0
 62 68  1  0
 63 62  1  0
 64 63  2  0
 65 66  1  0
 65 59  2  0
 66 61  2  0
 67 60  1  0
 68 58  1  0
 70 72  2  0
 71 70  1  0
 73 71  1  0
 74 83  2  0
 74 79  1  0
 75 71  1  0
 75 79  1  0
 76 75  1  0
 77 78  1  0
 77 76  1  0
 78 74  1  0
 79 80  2  0
 80 81  1  0
 82 81  2  0
 83 82  1  0
 84 58  1  0
 84 89  1  0
 84 85  1  0
 85 88  1  1
 85 86  1  0
 87 85  1  0
 89 92  1  0
 90 89  1  0
 90 94  1  0
 91 90  2  0
 94 93  1  0
 94 96  1  0
 96 97  1  0
 96 95  1  0
M  ISO  4   1 100  19 100  56 101  57 101
M  END
>  <TORSDO>  (35) 
F 20

>  <SCORE>  (35) 
-7.338

>  <name>  (35) 
34

>  <ligand_id>  (35) 
34

>  <original_smiles>  (35) 
[H]c1c([H])c([H])c2c(c1[H])C([H])([H])C([H])([H])C([H])([H])C2([H])N([H])C(=O)C1([H])N(C(=O)C([H])(N([H])C(=O)C([H])(N([H])C([H])([H])[H])C([H])([H])[H])C(C([H])([H])[H])(C([H])([H])[H])C([H])([H])[H])C([H])([H])c2c([H])c(OC([H])([H])C([H])([H])[N+]([H])([H])C([H])(c3c(C([H])([H])[H])nc4c(c3[H])C([H])([H])N(C(=O)N3C([H])([H])C([H])([H])C([H])([H])C([H])(n5nc(-c6c([H])c([H])c(Oc7c([H])c([H])c(F)c([H])c7F)c([H])c6[H])c(C(=O)N([H])[H])c5N([H])[H])C3([H])[H])C([H])(C([H])([H])C([H])([H])[H])C4([H])[H])C([H])([H])[H])c([H])c([H])c2C1([H])[H]

>  <smiles>  (35) 
[H]c1c([H])c([H])c2c(c1[H])C([H])([H])C([H])([H])C([H])([H])C2([H])N([H])C(=O)C1([H])N(C(=O)C([H])(N([H])C(=O)C([H])(N([H])C([H])([H])[H])C([H])([H])[H])C(C([H])([H])[H])(C([H])([H])[H])C([H])([H])[H])C([H])([H])c2c([H])c(OC([H])([H])C([H])([H])[N+]([H])([H])C([H])(c3c(C([H])([H])[H])nc4c(c3[H])C([H])([H])N(C(=O)N3C([H])([H])C([H])([H])C([H])([H])C([H])(n5nc(-c6c([H])c([H])c(Oc7c([H])c([H])c(F)c([H])c7F)c([H])c6[H])c(C(=O)N([H])[H])c5N([H])[H])C3([H])[H])C([H])(C([H])([H])C([H])([H])[H])C4([H])[H])C([H])([H])[H])c([H])c([H])c2C1([H])[H]

$$$$
35:0:0
     RDKit          3D

 93102  0  0  1  0  0  0  0  0999 V2000
  -32.1640  -23.7750   19.6140 C   0  0  0  0  0  3  0  0  0  0  0  0
  -31.2890  -21.5550   19.6200 C   0  0  0  0  0  3  0  0  0  0  0  0
  -32.3390  -22.4280   19.3530 C   0  0  0  0  0  0  0  0  0  0  0  0
  -30.9300  -24.2760   20.0600 C   0  0  0  0  0  0  0  0  0  0  0  0
  -29.7290  -23.4760   20.1760 C   0  0  0  0  0  0  0  0  0  0  0  0
  -29.9950  -21.9300   20.0800 C   0  0  0  0  0  0  0  0  0  0  0  0
  -33.6810  -21.8970   18.8870 C   0  0  0  0  0  1  0  0  0  0  0  0
  -31.0370  -25.7450   20.4540 C   0  0  0  0  0  1  0  0  0  0  0  0
  -29.9210  -18.4980   21.7360 C   0  0  0  0  0  2  0  0  0  0  0  0
  -29.8500  -20.0820   21.7290 C   0  0  0  0  0  2  0  0  0  0  0  0
  -29.3900  -19.2600   19.6390 C   0  0  0  0  0  2  0  0  0  0  0  0
  -30.2160  -17.9680   20.3150 C   0  0  0  0  0  3  0  0  0  0  0  0
  -29.3460  -20.6160   20.4450 N   0  0  0  0  0  0  0  0  0  0  0  0
  -30.7170  -15.1660   19.9370 C   0  0  0  0  0  0  0  0  0  0  0  0
  -30.5680  -12.8070   18.9430 C   0  0  0  0  0  2  0  0  0  0  0  0
  -29.5560  -12.7340   17.7760 C   0  0  0  0  0  2  0  0  0  0  0  0
  -28.1280  -12.4950   18.3040 C   0  0  0  0  0  2  0  0  0  0  0  0
  -27.7890  -13.4010   19.5150 C   0  0  0  0  0  3  0  0  0  0  0  0
  -28.9180  -13.4240   20.5650 C   0  0  0  0  0  2  0  0  0  0  0  0
  -30.1250  -13.8920   19.8730 N   0  0  0  0  0  0  0  0  0  0  0  0
  -31.9190  -15.2050   19.6440 O   0  0  0  0  0  0  0  0  0  0  0  0
  -29.9430  -16.3760   20.1290 N   0  0  0  0  0  0  0  0  0  0  0  0
  -28.9650  -16.1510   20.2400 H   0  0  0  0  0  0  0  0  0  0  0  0
  -25.4810  -13.9630   20.4550 C   0  0  0  0  0  0  0  0  0  0  0  0
  -24.4370  -13.1820   20.8640 C   0  0  0  0  0  0  0  0  0  0  0  0
  -24.8810  -11.8290   20.7420 C   0  0  0  0  0  0  0  0  0  0  0  0
  -26.4920  -13.0860   20.0990 N   0  0  0  0  0  0  0  0  0  0  0  0
  -26.1470  -11.7940   20.3380 N   0  0  0  0  0  0  0  0  0  0  0  0
  -24.1520  -10.5680   20.9240 C   0  0  0  0  0  0  0  0  0  0  0  0
  -24.5460   -9.6180   21.8930 C   0  0  0  0  0  3  0  0  0  0  0  0
  -23.8140   -8.4230   22.0640 C   0  0  0  0  0  3  0  0  0  0  0  0
  -22.6750   -8.1680   21.2630 C   0  0  0  0  0  0  0  0  0  0  0  0
  -22.3010   -9.1060   20.2850 C   0  0  0  0  0  3  0  0  0  0  0  0
  -23.0330  -10.2920   20.1130 C   0  0  0  0  0  3  0  0  0  0  0  0
  -21.9200   -7.0230   21.3400 O   0  0  0  0  0  0  0  0  0  0  0  0
  -21.7220   -6.3700   22.5300 C   0  0  0  0  0  0  0  0  0  0  0  0
  -21.0820   -6.9920   23.6240 C   0  0  0  0  0  3  0  0  0  0  0  0
  -20.8360   -6.2630   24.8050 C   0  0  0  0  0  3  0  0  0  0  0  0
  -21.2220   -4.9110   24.8910 C   0  0  0  0  0  0  0  0  0  0  0  0
  -21.8570   -4.2890   23.8010 C   0  0  0  0  0  3  0  0  0  0  0  0
  -22.1030   -5.0170   22.6240 C   0  0  0  0  0  0  0  0  0  0  0  0
  -22.6960   -4.4060   21.5690 F   0  0  0  0  0  0  0  0  0  0  0  0
  -20.9800   -4.2070   26.0210 F   0  0  0  0  0  0  0  0  0  0  0  0
  -23.0670  -13.6620   21.2480 C   0  0  0  0  0  0  0  0  0  0  0  0
  -22.3910  -12.9420   22.1360 N   0  0  0  0  0  0  0  0  0  0  0  0
  -22.6090  -14.7100   20.7950 O   0  0  0  0  0  0  0  0  0  0  0  0
  -22.7740  -12.0920   22.5230 H   0  0  0  0  0  0  0  0  0  0  0  0
  -21.4750  -13.2480   22.4340 H   0  0  0  0  0  0  0  0  0  0  0  0
  -25.6450  -15.3380   20.3270 N   0  0  0  0  0  0  0  0  0  0  0  0
  -24.8850  -15.9830   20.5140 H   0  0  0  0  0  0  0  0  0  0  0  0
  -26.4480  -15.7900   19.9100 H   0  0  0  0  0  0  0  0  0  0  0  0
  -28.3810  -24.4960   20.3320 C   0  0  0  0  0  2  0  0  0  0  0  0
  -28.4240  -26.1030   20.2620 O   0  0  0  0  0  0  0  0  0  0  0  0
  -24.6020  -31.8040   23.1590 C   0  0  0  0  0  0  0  0  0  0  0  0
  -27.3250  -27.0630   20.2140 C   0  0  0  0  0  0  0  0  0  0  0  0
  -23.4560  -30.3580   21.5240 C   0  0  0  0  0  3  0  0  0  0  0  0
  -24.9580  -28.7910   20.1330 C   0  0  0  0  0  0  0  0  0  0  0  0
  -26.0080  -30.6710   21.3850 C   0  0  0  0  0  2  0  0  0  0  0  0
  -26.1230  -29.2670   20.7470 C   0  0  0  0  0  0  0  0  0  0  0  0
  -27.3050  -28.4220   20.7600 C   0  0  0  0  0  3  0  0  0  0  0  0
  -26.1270  -26.6990   19.5650 C   0  0  0  0  0  3  0  0  0  0  0  0
  -24.9760  -27.5250   19.5230 C   0  0  0  0  0  3  0  0  0  0  0  0
  -23.7110  -29.6670   20.1560 C   0  0  0  0  0  2  0  0  0  0  0  0
  -24.7080  -30.9700   22.0770 N   0  0  0  0  0  0  0  0  0  0  0  0
  -23.5020  -32.0660   23.6710 O   0  0  0  0  0  0  0  0  0  0  0  0
  -22.7890  -29.3490   22.4930 C   0  0  0  0  0  0  0  0  0  0  0  0
  -21.4600  -29.1720   22.3800 N   0  0  0  0  0  0  0  0  0  0  0  0
  -23.4710  -28.7280   23.3110 O   0  0  0  0  0  0  0  0  0  0  0  0
  -20.9640  -29.7260   21.6950 H   0  0  0  0  0  0  0  0  0  0  0  0
  -18.0850  -27.9870   22.9610 C   0  0  0  0  0  0  0  0  0  0  0  0
  -20.6530  -28.2270   23.1570 C   0  0  0  0  0  3  0  0  0  0  0  0
  -20.7260  -26.8050   22.5520 C   0  0  0  0  0  2  0  0  0  0  0  0
  -19.5940  -26.5100   21.5650 C   0  0  0  0  0  2  0  0  0  0  0  0
  -18.2320  -26.6510   22.2520 C   0  0  0  0  0  2  0  0  0  0  0  0
  -19.2210  -28.7330   23.3720 C   0  0  0  0  0  0  0  0  0  0  0  0
  -19.0270  -29.9840   23.9980 C   0  0  0  0  0  3  0  0  0  0  0  0
  -17.7310  -30.4870   24.2170 C   0  0  0  0  0  3  0  0  0  0  0  0
  -16.6100  -29.7370   23.8200 C   0  0  0  0  0  3  0  0  0  0  0  0
  -16.7890  -28.4880   23.1980 C   0  0  0  0  0  3  0  0  0  0  0  0
  -25.8530  -32.4820   23.7940 C   0  0  0  0  0  3  0  0  0  0  0  0
  -25.4950  -33.8720   24.1190 N   0  0  0  0  0  0  0  0  0  0  0  0
  -25.7860  -34.9370   23.3590 C   0  0  0  0  0  0  0  0  0  0  0  0
  -26.4490  -34.8520   22.3220 O   0  0  0  0  0  0  0  0  0  0  0  0
  -24.9010  -34.0090   24.9240 H   0  0  0  0  0  0  0  0  0  0  0  0
  -24.0050  -36.6830   23.0190 C   0  0  0  0  0  1  0  0  0  0  0  0
  -25.2630  -36.3120   23.8220 C   0  0  0  0  0  3  0  0  0  0  0  0
  -27.3650  -37.2720   24.6520 C   0  0  0  0  0  1  0  0  0  0  0  0
  -26.2640  -37.3950   23.7020 N   0  0  0  0  0  0  0  0  0  0  0  0
  -25.8280  -38.3030   23.8350 H   0  0  0  0  0  0  0  0  0  0  0  0
  -26.3740  -31.7360   25.0850 C   0  0  1  0  0  0  0  0  0  0  0  0
  -25.2730  -31.4720   26.1390 C   0  0  0  0  0  1  0  0  0  0  0  0
  -27.0070  -30.3740   24.7180 C   0  0  0  0  0  1  0  0  0  0  0  0
  -27.4890  -32.5720   25.7580 C   0  0  0  0  0  1  0  0  0  0  0  0
  1  4  1  0
  2  6  2  0
  3  1  2  0
  3  2  1  0
  4  5  2  0
  4  8  1  0
  5 52  1  0
  6  5  1  0
  6 13  1  0
  7  3  1  0
 10  9  1  0
 11 12  1  0
 11 13  1  0
 12 22  1  0
 12  9  1  0
 13 10  1  0
 14 22  1  0
 15 20  1  0
 16 17  1  0
 16 15  1  0
 18 17  1  0
 18 27  1  0
 18 19  1  0
 20 14  1  0
 20 19  1  0
 21 14  2  0
 22 23  1  0
 24 25  2  0
 25 44  1  0
 26 25  1  0
 26 29  1  0
 27 28  1  0
 27 24  1  0
 28 26  2  0
 29 30  1  0
 30 31  2  0
 32 35  1  0
 32 31  1  0
 33 32  2  0
 34 33  1  0
 34 29  2  0
 35 36  1  0
 36 41  2  0
 36 37  1  0
 37 38  2  0
 38 39  1  0
 39 43  1  0
 40 39  2  0
 41 40  1  0
 42 41  1  0
 44 45  1  0
 45 48  1  0
 45 47  1  0
 46 44  2  0
 49 24  1  0
 49 50  1  0
 51 49  1  0
 53 52  1  0
 54 65  2  0
 55 53  1  0
 55 60  1  0
 56 64  1  0
 56 66  1  0
 57 63  1  0
 57 59  1  0
 58 64  1  0
 59 60  2  0
 59 58  1  0
 61 55  2  0
 62 61  1  0
 62 57  2  0
 63 56  1  0
 64 54  1  0
 66 68  2  0
 67 66  1  0
 69 67  1  0
 70 79  2  0
 70 75  1  0
 71 67  1  0
 71 75  1  0
 72 71  1  0
 73 74  1  0
 73 72  1  0
 74 70  1  0
 75 76  2  0
 76 77  1  0
 78 77  2  0
 79 78  1  0
 80 54  1  0
 80 81  1  0
 80 90  1  0
 81 84  1  0
 82 86  1  0
 82 81  1  0
 83 82  2  0
 86 85  1  0
 88 86  1  0
 88 89  1  0
 88 87  1  0
 90 93  1  1
 90 91  1  0
 92 90  1  0
M  ISO  4  14 100  22 100  52 101  53 101
M  END
>  <TORSDO>  (36) 
F 18

>  <SCORE>  (36) 
-14.232

>  <name>  (36) 
35

>  <ligand_id>  (36) 
35

>  <original_smiles>  (36) 
[H]c1c([H])c([H])c2c(c1[H])C([H])([H])C([H])([H])C([H])([H])C2([H])N([H])C(=O)C1([H])N(C(=O)C([H])(N([H])C(=O)C([H])(N([H])C([H])([H])[H])C([H])([H])[H])C(C([H])([H])[H])(C([H])([H])[H])C([H])([H])[H])C([H])([H])c2c([H])c(OC([H])([H])c3c(N4C([H])([H])C([H])([H])C([H])(N([H])C(=O)N5C([H])([H])C([H])([H])C([H])([H])C([H])(n6nc(-c7c([H])c([H])c(Oc8c([H])c([H])c(F)c([H])c8F)c([H])c7[H])c(C(=O)N([H])[H])c6N([H])[H])C5([H])[H])C4([H])[H])c([H])c(C([H])([H])[H])c([H])c3C([H])([H])[H])c([H])c([H])c2C1([H])[H]

>  <smiles>  (36) 
[H]c1c([H])c([H])c2c(c1[H])C([H])([H])C([H])([H])C([H])([H])C2([H])N([H])C(=O)C1([H])N(C(=O)C([H])(N([H])C(=O)C([H])(N([H])C([H])([H])[H])C([H])([H])[H])C(C([H])([H])[H])(C([H])([H])[H])C([H])([H])[H])C([H])([H])c2c([H])c(OC([H])([H])c3c(N4C([H])([H])C([H])([H])C([H])(N([H])C(=O)N5C([H])([H])C([H])([H])C([H])([H])C([H])(n6nc(-c7c([H])c([H])c(Oc8c([H])c([H])c(F)c([H])c8F)c([H])c7[H])c(C(=O)N([H])[H])c6N([H])[H])C5([H])[H])C4([H])[H])c([H])c(C([H])([H])[H])c([H])c3C([H])([H])[H])c([H])c([H])c2C1([H])[H]

$$$$
36:0:0
     RDKit          3D

 93102  0  0  1  0  0  0  0  0999 V2000
  -28.1880  -22.1240   20.8640 C   0  0  0  0  0  3  0  0  0  0  0  0
  -30.1950  -22.6690   19.6420 C   0  0  0  0  0  3  0  0  0  0  0  0
  -29.6920  -20.2980   20.1570 C   0  0  0  0  0  0  0  0  0  0  0  0
  -29.0430  -23.1070   20.3230 C   0  0  0  0  0  0  0  0  0  0  0  0
  -28.4870  -20.7410   20.7840 C   0  0  0  0  0  0  0  0  0  0  0  0
  -30.5120  -21.2930   19.5410 C   0  0  0  0  0  0  0  0  0  0  0  0
  -27.4800  -19.7850   21.4020 C   0  0  0  0  0  1  0  0  0  0  0  0
  -31.7730  -20.9280   18.7660 C   0  0  0  0  0  1  0  0  0  0  0  0
  -31.3110  -14.7490   19.8070 C   0  0  0  0  0  0  0  0  0  0  0  0
  -30.9240  -12.5650   18.7620 C   0  0  0  0  0  2  0  0  0  0  0  0
  -29.8830  -12.7470   17.6380 C   0  0  0  0  0  2  0  0  0  0  0  0
  -28.4500  -12.6190   18.1950 C   0  0  0  0  0  2  0  0  0  0  0  0
  -28.2130  -13.4690   19.4720 C   0  0  0  0  0  3  0  0  0  0  0  0
  -29.3670  -13.2970   20.4870 C   0  0  0  0  0  2  0  0  0  0  0  0
  -30.6280  -13.5770   19.7860 N   0  0  0  0  0  0  0  0  0  0  0  0
  -32.4500  -14.8630   19.3430 O   0  0  0  0  0  0  0  0  0  0  0  0
  -30.2980  -18.0190   21.4320 C   0  0  0  0  0  2  0  0  0  0  0  0
  -29.3840  -17.9210   19.1450 C   0  0  0  0  0  2  0  0  0  0  0  0
  -31.0660  -16.6910   21.2090 C   0  0  0  0  0  2  0  0  0  0  0  0
  -30.1950  -16.6360   18.8680 C   0  0  0  0  0  2  0  0  0  0  0  0
  -30.1570  -18.8120   20.1180 C   0  0  0  0  0  3  0  0  0  0  0  0
  -30.5840  -15.8670   20.0760 N   0  0  0  0  0  0  0  0  0  0  0  0
  -25.9210  -14.0800   20.4660 C   0  0  0  0  0  0  0  0  0  0  0  0
  -24.8700  -13.3110   20.8810 C   0  0  0  0  0  0  0  0  0  0  0  0
  -25.2790  -11.9540   20.7060 C   0  0  0  0  0  0  0  0  0  0  0  0
  -26.9090  -13.1920   20.0680 N   0  0  0  0  0  0  0  0  0  0  0  0
  -26.5310  -11.9030   20.2680 N   0  0  0  0  0  0  0  0  0  0  0  0
  -24.5330  -10.7010   20.8760 C   0  0  0  0  0  0  0  0  0  0  0  0
  -24.8890   -9.7570   21.8620 C   0  0  0  0  0  3  0  0  0  0  0  0
  -24.1450   -8.5660   22.0180 C   0  0  0  0  0  3  0  0  0  0  0  0
  -23.0290   -8.3150   21.1860 C   0  0  0  0  0  0  0  0  0  0  0  0
  -22.6910   -9.2480   20.1900 C   0  0  0  0  0  3  0  0  0  0  0  0
  -23.4360  -10.4290   20.0330 C   0  0  0  0  0  3  0  0  0  0  0  0
  -22.2620   -7.1760   21.2470 O   0  0  0  0  0  0  0  0  0  0  0  0
  -21.9330   -6.5960   22.4470 C   0  0  0  0  0  0  0  0  0  0  0  0
  -21.2060   -7.2920   23.4360 C   0  0  0  0  0  3  0  0  0  0  0  0
  -20.8270   -6.6340   24.6240 C   0  0  0  0  0  3  0  0  0  0  0  0
  -21.1660   -5.2830   24.8210 C   0  0  0  0  0  0  0  0  0  0  0  0
  -21.8880   -4.5880   23.8340 C   0  0  0  0  0  3  0  0  0  0  0  0
  -22.2670   -5.2410   22.6490 C   0  0  0  0  0  0  0  0  0  0  0  0
  -22.9420   -4.5600   21.6920 F   0  0  0  0  0  0  0  0  0  0  0  0
  -20.7980   -4.6500   25.9590 F   0  0  0  0  0  0  0  0  0  0  0  0
  -23.5240  -13.8030   21.3290 C   0  0  0  0  0  0  0  0  0  0  0  0
  -22.8690  -13.0720   22.2240 N   0  0  0  0  0  0  0  0  0  0  0  0
  -23.0650  -14.8690   20.9210 O   0  0  0  0  0  0  0  0  0  0  0  0
  -23.2530  -12.2060   22.5730 H   0  0  0  0  0  0  0  0  0  0  0  0
  -21.9720  -13.3830   22.5660 H   0  0  0  0  0  0  0  0  0  0  0  0
  -26.1160  -15.4560   20.3760 N   0  0  0  0  0  0  0  0  0  0  0  0
  -25.3930  -16.1230   20.6250 H   0  0  0  0  0  0  0  0  0  0  0  0
  -26.9620  -15.8940   20.0330 H   0  0  0  0  0  0  0  0  0  0  0  0
  -28.7330  -24.5980   20.5670 C   0  0  0  0  0  2  0  0  0  0  0  0
  -29.1790  -25.6360   19.5000 C   0  0  0  0  0  2  0  0  0  0  0  0
  -28.9720  -26.9990   19.9270 O   0  0  0  0  0  0  0  0  0  0  0  0
  -24.6600  -31.7100   23.0740 C   0  0  0  0  0  0  0  0  0  0  0  0
  -27.7180  -27.5850   19.9130 C   0  0  0  0  0  0  0  0  0  0  0  0
  -23.6040  -30.2640   21.3680 C   0  0  0  0  0  3  0  0  0  0  0  0
  -25.2020  -28.8940   19.9290 C   0  0  0  0  0  0  0  0  0  0  0  0
  -26.0970  -30.8330   21.2310 C   0  0  0  0  0  2  0  0  0  0  0  0
  -26.3020  -29.4940   20.5480 C   0  0  0  0  0  0  0  0  0  0  0  0
  -27.5610  -28.8490   20.5320 C   0  0  0  0  0  3  0  0  0  0  0  0
  -26.5900  -26.9930   19.2980 C   0  0  0  0  0  3  0  0  0  0  0  0
  -25.3420  -27.6420   19.3030 C   0  0  0  0  0  3  0  0  0  0  0  0
  -23.8910  -29.6420   19.9750 C   0  0  0  0  0  2  0  0  0  0  0  0
  -24.8030  -30.9530   21.9490 N   0  0  0  0  0  0  0  0  0  0  0  0
  -23.5510  -31.8770   23.5970 O   0  0  0  0  0  0  0  0  0  0  0  0
  -23.0230  -29.1650   22.2860 C   0  0  0  0  0  0  0  0  0  0  0  0
  -21.7230  -28.8700   22.1170 N   0  0  0  0  0  0  0  0  0  0  0  0
  -23.7390  -28.5780   23.1010 O   0  0  0  0  0  0  0  0  0  0  0  0
  -21.2000  -29.4060   21.4380 H   0  0  0  0  0  0  0  0  0  0  0  0
  -18.4520  -27.3810   22.5180 C   0  0  0  0  0  0  0  0  0  0  0  0
  -20.9760  -27.8390   22.8380 C   0  0  0  0  0  3  0  0  0  0  0  0
  -21.2010  -26.4420   22.2150 C   0  0  0  0  0  2  0  0  0  0  0  0
  -20.1440  -26.0680   21.1700 C   0  0  0  0  0  2  0  0  0  0  0  0
  -18.7470  -26.0760   21.7990 C   0  0  0  0  0  2  0  0  0  0  0  0
  -19.4990  -28.2160   22.9920 C   0  0  0  0  0  0  0  0  0  0  0  0
  -19.1710  -29.4350   23.6230 C   0  0  0  0  0  3  0  0  0  0  0  0
  -17.8280  -29.8230   23.7810 C   0  0  0  0  0  3  0  0  0  0  0  0
  -16.7960  -28.9880   23.3240 C   0  0  0  0  0  3  0  0  0  0  0  0
  -17.1080  -27.7660   22.7020 C   0  0  0  0  0  3  0  0  0  0  0  0
  -25.8790  -32.4230   23.7410 C   0  0  0  0  0  3  0  0  0  0  0  0
  -25.4570  -33.7850   24.0940 N   0  0  0  0  0  0  0  0  0  0  0  0
  -25.7090  -34.8750   23.3570 C   0  0  0  0  0  0  0  0  0  0  0  0
  -26.3950  -34.8440   22.3310 O   0  0  0  0  0  0  0  0  0  0  0  0
  -24.8480  -33.8840   24.8940 H   0  0  0  0  0  0  0  0  0  0  0  0
  -23.8400  -36.5230   23.0170 C   0  0  0  0  0  1  0  0  0  0  0  0
  -25.1050  -36.2110   23.8320 C   0  0  0  0  0  3  0  0  0  0  0  0
  -27.1490  -37.2570   24.6990 C   0  0  0  0  0  1  0  0  0  0  0  0
  -26.0470  -37.3470   23.7450 N   0  0  0  0  0  0  0  0  0  0  0  0
  -25.5640  -38.2270   23.8990 H   0  0  0  0  0  0  0  0  0  0  0  0
  -26.4370  -31.6640   25.0100 C   0  0  1  0  0  0  0  0  0  0  0  0
  -25.3460  -31.2830   26.0380 C   0  0  0  0  0  1  0  0  0  0  0  0
  -27.1600  -30.3620   24.5940 C   0  0  0  0  0  1  0  0  0  0  0  0
  -27.4850  -32.5480   25.7280 C   0  0  0  0  0  1  0  0  0  0  0  0
  2  4  1  0
  3  5  2  0
  4 51  1  0
  4  1  2  0
  5  1  1  0
  5  7  1  0
  6  2  2  0
  6  3  1  0
  8  6  1  0
  9 22  1  0
 10 15  1  0
 11 12  1  0
 11 10  1  0
 13 12  1  0
 13 26  1  0
 13 14  1  0
 15  9  1  0
 15 14  1  0
 16  9  2  0
 18 21  1  0
 19 17  1  0
 20 18  1  0
 20 22  1  0
 21  3  1  0
 21 17  1  0
 22 19  1  0
 23 24  2  0
 24 43  1  0
 25 28  1  0
 25 24  1  0
 26 27  1  0
 26 23  1  0
 27 25  2  0
 28 29  1  0
 29 30  2  0
 31 34  1  0
 31 30  1  0
 32 31  2  0
 33 32  1  0
 33 28  2  0
 34 35  1  0
 35 40  2  0
 35 36  1  0
 36 37  2  0
 37 38  1  0
 38 42  1  0
 39 38  2  0
 40 39  1  0
 41 40  1  0
 43 44  1  0
 44 47  1  0
 44 46  1  0
 45 43  2  0
 48 23  1  0
 48 49  1  0
 50 48  1  0
 52 53  1  0
 52 51  1  0
 54 65  2  0
 55 53  1  0
 55 60  1  0
 56 64  1  0
 56 66  1  0
 57 63  1  0
 57 59  1  0
 58 64  1  0
 59 58  1  0
 60 59  2  0
 61 62  1  0
 61 55  2  0
 62 57  2  0
 63 56  1  0
 64 54  1  0
 66 68  2  0
 67 66  1  0
 69 67  1  0
 70 79  2  0
 70 75  1  0
 71 67  1  0
 71 75  1  0
 72 71  1  0
 73 74  1  0
 73 72  1  0
 74 70  1  0
 75 76  2  0
 76 77  1  0
 78 77  2  0
 79 78  1  0
 80 54  1  0
 80 81  1  0
 80 90  1  0
 81 84  1  0
 82 86  1  0
 82 81  1  0
 83 82  2  0
 86 85  1  0
 88 86  1  0
 88 89  1  0
 88 87  1  0
 90 93  1  1
 90 91  1  0
 92 90  1  0
M  ISO  4   9 100  22 100  52 101  53 101
M  END
>  <TORSDO>  (37) 
F 18

>  <SCORE>  (37) 
-10.729

>  <name>  (37) 
36

>  <ligand_id>  (37) 
36

>  <original_smiles>  (37) 
[H]c1c([H])c([H])c2c(c1[H])C([H])([H])C([H])([H])C([H])([H])C2([H])N([H])C(=O)C1([H])N(C(=O)C([H])(N([H])C(=O)C([H])(N([H])C([H])([H])[H])C([H])([H])[H])C(C([H])([H])[H])(C([H])([H])[H])C([H])([H])[H])C([H])([H])c2c([H])c(OC([H])([H])C([H])([H])c3c([H])c(C([H])([H])[H])c(C4([H])C([H])([H])C([H])([H])N(C(=O)N5C([H])([H])C([H])([H])C([H])([H])C([H])(n6nc(-c7c([H])c([H])c(Oc8c([H])c([H])c(F)c([H])c8F)c([H])c7[H])c(C(=O)N([H])[H])c6N([H])[H])C5([H])[H])C([H])([H])C4([H])[H])c(C([H])([H])[H])c3[H])c([H])c([H])c2C1([H])[H]

>  <smiles>  (37) 
[H]c1c([H])c([H])c2c(c1[H])C([H])([H])C([H])([H])C([H])([H])C2([H])N([H])C(=O)C1([H])N(C(=O)C([H])(N([H])C(=O)C([H])(N([H])C([H])([H])[H])C([H])([H])[H])C(C([H])([H])[H])(C([H])([H])[H])C([H])([H])[H])C([H])([H])c2c([H])c(OC([H])([H])C([H])([H])c3c([H])c(C([H])([H])[H])c(C4([H])C([H])([H])C([H])([H])N(C(=O)N5C([H])([H])C([H])([H])C([H])([H])C([H])(n6nc(-c7c([H])c([H])c(Oc8c([H])c([H])c(F)c([H])c8F)c([H])c7[H])c(C(=O)N([H])[H])c6N([H])[H])C5([H])[H])C([H])([H])C4([H])[H])c(C([H])([H])[H])c3[H])c([H])c([H])c2C1([H])[H]

$$$$
37:0:0
     RDKit          3D

 94103  0  0  1  0  0  0  0  0999 V2000
  -31.7820  -22.4630   18.4710 C   0  0  0  0  0  3  0  0  0  0  0  0
  -30.7620  -23.0700   19.2170 C   0  0  0  0  0  0  0  0  0  0  0  0
  -29.7550  -22.2860   19.8780 C   0  0  0  0  0  0  0  0  0  0  0  0
  -31.8280  -21.0790   18.3780 C   0  0  0  0  0  0  0  0  0  0  0  0
  -29.9540  -20.7790   19.7840 C   0  0  0  0  0  0  0  0  0  0  0  0
  -30.8450  -24.5920   19.2740 C   0  0  0  0  0  1  0  0  0  0  0  0
  -32.8890  -20.3740   17.5620 C   0  0  0  0  0  1  0  0  0  0  0  0
  -30.9600  -20.2990   19.0210 N   0  0  0  0  0  0  0  0  0  0  0  0
  -30.6130  -14.9680   20.2270 C   0  0  0  0  0  0  0  0  0  0  0  0
  -30.3560  -12.6450   19.2550 C   0  0  0  0  0  2  0  0  0  0  0  0
  -29.4070  -12.6100   18.0400 C   0  0  0  0  0  2  0  0  0  0  0  0
  -27.9560  -12.4000   18.5060 C   0  0  0  0  0  2  0  0  0  0  0  0
  -27.5760  -13.3230   19.6910 C   0  0  0  0  0  3  0  0  0  0  0  0
  -28.6570  -13.3710   20.7930 C   0  0  0  0  0  2  0  0  0  0  0  0
  -29.9130  -13.7630   20.1430 N   0  0  0  0  0  0  0  0  0  0  0  0
  -31.8240  -14.8970   19.9870 O   0  0  0  0  0  0  0  0  0  0  0  0
  -28.8370  -18.4760   19.4640 C   0  0  0  0  0  2  0  0  0  0  0  0
  -30.2150  -18.8140   21.3470 C   0  0  0  0  0  2  0  0  0  0  0  0
  -28.7900  -16.9170   19.9600 C   0  0  0  0  0  2  0  0  0  0  0  0
  -30.9150  -17.4390   20.8630 C   0  0  0  0  0  2  0  0  0  0  0  0
  -29.3520  -19.5660   20.3820 N   0  0  0  0  0  0  0  0  0  0  0  0
  -30.0490  -16.2660   20.4740 N   0  0  0  0  0  0  0  0  0  0  0  0
  -25.2160  -13.9020   20.4790 C   0  0  0  0  0  0  0  0  0  0  0  0
  -24.1560  -13.1270   20.8600 C   0  0  0  0  0  0  0  0  0  0  0  0
  -24.6190  -11.7760   20.8200 C   0  0  0  0  0  0  0  0  0  0  0  0
  -26.2520  -13.0230   20.2210 N   0  0  0  0  0  0  0  0  0  0  0  0
  -25.9060  -11.7390   20.4930 N   0  0  0  0  0  0  0  0  0  0  0  0
  -23.8920  -10.5140   21.0120 C   0  0  0  0  0  0  0  0  0  0  0  0
  -24.3240   -9.5480   21.9480 C   0  0  0  0  0  3  0  0  0  0  0  0
  -23.5960   -8.3530   22.1320 C   0  0  0  0  0  3  0  0  0  0  0  0
  -22.4210   -8.1150   21.3780 C   0  0  0  0  0  0  0  0  0  0  0  0
  -22.0080   -9.0690   20.4320 C   0  0  0  0  0  3  0  0  0  0  0  0
  -22.7380  -10.2560   20.2460 C   0  0  0  0  0  3  0  0  0  0  0  0
  -21.6650   -6.9720   21.4710 O   0  0  0  0  0  0  0  0  0  0  0  0
  -21.6120   -6.2350   22.6260 C   0  0  0  0  0  0  0  0  0  0  0  0
  -21.1700   -6.7920   23.8450 C   0  0  0  0  0  3  0  0  0  0  0  0
  -21.0650   -5.9830   24.9940 C   0  0  0  0  0  3  0  0  0  0  0  0
  -21.3930   -4.6150   24.9240 C   0  0  0  0  0  0  0  0  0  0  0  0
  -21.8280   -4.0560   23.7090 C   0  0  0  0  0  3  0  0  0  0  0  0
  -21.9340   -4.8650   22.5630 C   0  0  0  0  0  0  0  0  0  0  0  0
  -22.3330   -4.3170   21.3900 F   0  0  0  0  0  0  0  0  0  0  0  0
  -21.2850   -3.8350   26.0240 F   0  0  0  0  0  0  0  0  0  0  0  0
  -22.7630  -13.6060   21.1460 C   0  0  0  0  0  0  0  0  0  0  0  0
  -22.0430  -12.9060   22.0150 N   0  0  0  0  0  0  0  0  0  0  0  0
  -22.3240  -14.6360   20.6370 O   0  0  0  0  0  0  0  0  0  0  0  0
  -22.4140  -12.0730   22.4460 H   0  0  0  0  0  0  0  0  0  0  0  0
  -21.1080  -13.2060   22.2520 H   0  0  0  0  0  0  0  0  0  0  0  0
  -25.3780  -15.2740   20.3030 N   0  0  0  0  0  0  0  0  0  0  0  0
  -24.6120  -15.9270   20.4260 H   0  0  0  0  0  0  0  0  0  0  0  0
  -26.2220  -15.7100   19.9590 H   0  0  0  0  0  0  0  0  0  0  0  0
  -29.0360  -23.3760   22.1180 C   0  0  0  0  0  1  0  0  0  0  0  0
  -28.6490  -23.2090   20.6450 C   0  0  0  0  0  3  0  0  0  0  0  0
  -27.9650  -24.6620   20.0880 C   0  0  0  0  0  2  0  0  0  0  0  0
  -28.2830  -26.1680   20.3260 O   0  0  0  0  0  0  0  0  0  0  0  0
  -24.6340  -31.8830   23.2060 C   0  0  0  0  0  0  0  0  0  0  0  0
  -27.2450  -27.1650   20.2200 C   0  0  0  0  0  0  0  0  0  0  0  0
  -23.4530  -30.4750   21.5650 C   0  0  0  0  0  3  0  0  0  0  0  0
  -24.9180  -28.9070   20.1560 C   0  0  0  0  0  0  0  0  0  0  0  0
  -26.0090  -30.7470   21.4240 C   0  0  0  0  0  2  0  0  0  0  0  0
  -26.0900  -29.3530   20.7790 C   0  0  0  0  0  0  0  0  0  0  0  0
  -27.2540  -28.4970   20.8000 C   0  0  0  0  0  3  0  0  0  0  0  0
  -26.0520  -26.8310   19.5400 C   0  0  0  0  0  3  0  0  0  0  0  0
  -24.9120  -27.6590   19.5190 C   0  0  0  0  0  3  0  0  0  0  0  0
  -23.6880  -29.7990   20.1890 C   0  0  0  0  0  2  0  0  0  0  0  0
  -24.7180  -31.0560   22.1200 N   0  0  0  0  0  0  0  0  0  0  0  0
  -23.5410  -32.1680   23.7220 O   0  0  0  0  0  0  0  0  0  0  0  0
  -22.7700  -29.4670   22.5230 C   0  0  0  0  0  0  0  0  0  0  0  0
  -21.4460  -29.2860   22.3800 N   0  0  0  0  0  0  0  0  0  0  0  0
  -23.4360  -28.8520   23.3600 O   0  0  0  0  0  0  0  0  0  0  0  0
  -20.9650  -29.8390   21.6840 H   0  0  0  0  0  0  0  0  0  0  0  0
  -18.0690  -28.0590   22.8340 C   0  0  0  0  0  0  0  0  0  0  0  0
  -20.6190  -28.3500   23.1470 C   0  0  0  0  0  3  0  0  0  0  0  0
  -20.7460  -26.9110   22.5950 C   0  0  0  0  0  2  0  0  0  0  0  0
  -19.6670  -26.5640   21.5640 C   0  0  0  0  0  2  0  0  0  0  0  0
  -18.2710  -26.7020   22.1790 C   0  0  0  0  0  2  0  0  0  0  0  0
  -19.1700  -28.8390   23.2740 C   0  0  0  0  0  0  0  0  0  0  0  0
  -18.9270  -30.1050   23.8500 C   0  0  0  0  0  3  0  0  0  0  0  0
  -17.6140  -30.5930   23.9870 C   0  0  0  0  0  3  0  0  0  0  0  0
  -16.5260  -29.8120   23.5620 C   0  0  0  0  0  3  0  0  0  0  0  0
  -16.7530  -28.5450   22.9910 C   0  0  0  0  0  3  0  0  0  0  0  0
  -25.9040  -32.5250   23.8430 C   0  0  0  0  0  3  0  0  0  0  0  0
  -25.5850  -33.9250   24.1640 N   0  0  0  0  0  0  0  0  0  0  0  0
  -25.9210  -34.9780   23.4060 C   0  0  0  0  0  0  0  0  0  0  0  0
  -26.5980  -34.8730   22.3810 O   0  0  0  0  0  0  0  0  0  0  0  0
  -24.9850  -34.0790   24.9600 H   0  0  0  0  0  0  0  0  0  0  0  0
  -24.1960  -36.7720   23.0320 C   0  0  0  0  0  1  0  0  0  0  0  0
  -25.4270  -36.3670   23.8580 C   0  0  0  0  0  3  0  0  0  0  0  0
  -27.5520  -37.2560   24.7130 C   0  0  0  0  0  1  0  0  0  0  0  0
  -26.4620  -37.4210   23.7550 N   0  0  0  0  0  0  0  0  0  0  0  0
  -26.0530  -38.3410   23.8960 H   0  0  0  0  0  0  0  0  0  0  0  0
  -26.4020  -31.7650   25.1340 C   0  0  1  0  0  0  0  0  0  0  0  0
  -25.2940  -31.5390   26.1890 C   0  0  0  0  0  1  0  0  0  0  0  0
  -26.9900  -30.3830   24.7660 C   0  0  0  0  0  1  0  0  0  0  0  0
  -27.5410  -32.5660   25.8060 C   0  0  0  0  0  1  0  0  0  0  0  0
  1  2  1  0
  2  6  1  0
  2  3  2  0
  3 52  1  0
  4  1  2  0
  4  8  1  0
  5  3  1  0
  5 21  1  0
  7  4  1  0
  8  5  2  0
  9 22  1  0
 10 15  1  0
 11 12  1  0
 11 10  1  0
 13 12  1  0
 13 26  1  0
 13 14  1  0
 15  9  1  0
 15 14  1  0
 16  9  2  0
 17 19  1  0
 17 21  1  0
 19 22  1  0
 20 18  1  0
 21 18  1  0
 22 20  1  0
 23 24  2  0
 24 43  1  0
 25 24  1  0
 25 28  1  0
 26 23  1  0
 26 27  1  0
 27 25  2  0
 28 29  1  0
 29 30  2  0
 31 34  1  0
 31 30  1  0
 32 31  2  0
 33 32  1  0
 33 28  2  0
 34 35  1  0
 35 36  1  0
 36 37  2  0
 38 37  1  0
 38 42  1  0
 39 38  2  0
 40 35  2  0
 40 39  1  0
 41 40  1  0
 43 44  1  0
 44 47  1  0
 44 46  1  0
 45 43  2  0
 48 49  1  0
 48 23  1  0
 50 48  1  0
 52 51  1  0
 53 54  1  0
 53 52  1  0
 55 66  2  0
 56 54  1  0
 56 61  1  0
 57 65  1  0
 57 67  1  0
 58 64  1  0
 58 60  1  0
 59 65  1  0
 60 61  2  0
 60 59  1  0
 62 56  2  0
 63 62  1  0
 63 58  2  0
 64 57  1  0
 65 55  1  0
 67 69  2  0
 68 67  1  0
 70 68  1  0
 71 80  2  0
 71 76  1  0
 72 68  1  0
 72 76  1  0
 73 72  1  0
 74 75  1  0
 74 73  1  0
 75 71  1  0
 76 77  2  0
 77 78  1  0
 79 78  2  0
 80 79  1  0
 81 55  1  0
 81 82  1  0
 81 91  1  0
 82 85  1  0
 83 87  1  0
 83 82  1  0
 84 83  2  0
 87 86  1  0
 89 87  1  0
 89 90  1  0
 89 88  1  0
 91 94  1  1
 91 92  1  0
 93 91  1  0
M  ISO  4   9 100  22 100  53 101  54 101
M  END
>  <TORSDO>  (38) 
F 18

>  <SCORE>  (38) 
-15.466

>  <name>  (38) 
37

>  <ligand_id>  (38) 
37

>  <original_smiles>  (38) 
[H]c1c([H])c([H])c2c(c1[H])C([H])([H])C([H])([H])C([H])([H])C2([H])N([H])C(=O)C1([H])N(C(=O)C([H])(N([H])C(=O)C([H])(N([H])C([H])([H])[H])C([H])([H])[H])C(C([H])([H])[H])(C([H])([H])[H])C([H])([H])[H])C([H])([H])c2c([H])c(OC([H])([H])C([H])(c3c(N4C([H])([H])C([H])([H])N(C(=O)N5C([H])([H])C([H])([H])C([H])([H])C([H])(n6nc(-c7c([H])c([H])c(Oc8c([H])c([H])c(F)c([H])c8F)c([H])c7[H])c(C(=O)N([H])[H])c6N([H])[H])C5([H])[H])C([H])([H])C4([H])[H])nc(C([H])([H])[H])c([H])c3C([H])([H])[H])C([H])([H])[H])c([H])c([H])c2C1([H])[H]

>  <smiles>  (38) 
[H]c1c([H])c([H])c2c(c1[H])C([H])([H])C([H])([H])C([H])([H])C2([H])N([H])C(=O)C1([H])N(C(=O)C([H])(N([H])C(=O)C([H])(N([H])C([H])([H])[H])C([H])([H])[H])C(C([H])([H])[H])(C([H])([H])[H])C([H])([H])[H])C([H])([H])c2c([H])c(OC([H])([H])C([H])(c3c(N4C([H])([H])C([H])([H])N(C(=O)N5C([H])([H])C([H])([H])C([H])([H])C([H])(n6nc(-c7c([H])c([H])c(Oc8c([H])c([H])c(F)c([H])c8F)c([H])c7[H])c(C(=O)N([H])[H])c6N([H])[H])C5([H])[H])C([H])([H])C4([H])[H])nc(C([H])([H])[H])c([H])c3C([H])([H])[H])C([H])([H])[H])c([H])c([H])c2C1([H])[H]

$$$$
38:0:0
     RDKit          3D

 93101  0  0  1  0  0  0  0  0999 V2000
  -29.4370  -22.8180   20.5140 N   0  0  0  0  0  4  0  0  0  0  0  0
  -30.4020  -22.7460   20.2160 H   0  0  0  0  0  0  0  0  0  0  0  0
  -29.5140  -23.0160   21.5000 H   0  0  0  0  0  0  0  0  0  0  0  0
  -27.7170  -21.1590   21.2330 C   0  0  0  0  0  1  0  0  0  0  0  0
  -28.9670  -21.3780   20.3560 C   0  0  0  0  0  3  0  0  0  0  0  0
  -30.7350  -14.7070   20.3670 C   0  0  0  0  0  0  0  0  0  0  0  0
  -30.4380  -12.4740   19.3140 C   0  0  0  0  0  2  0  0  0  0  0  0
  -29.5040  -12.5690   18.0900 C   0  0  0  0  0  2  0  0  0  0  0  0
  -28.0400  -12.3860   18.5260 C   0  0  0  0  0  2  0  0  0  0  0  0
  -27.6660  -13.2890   19.7270 C   0  0  0  0  0  3  0  0  0  0  0  0
  -28.7230  -13.2260   20.8560 C   0  0  0  0  0  2  0  0  0  0  0  0
  -30.0320  -13.5320   20.2650 N   0  0  0  0  0  0  0  0  0  0  0  0
  -31.9100  -14.7630   19.9950 O   0  0  0  0  0  0  0  0  0  0  0  0
  -30.1300  -20.3600   20.7060 C   0  0  0  0  0  0  0  0  0  0  0  0
  -28.8650  -18.1430   20.3530 C   0  0  0  0  0  2  0  0  0  0  0  0
  -31.2110  -18.1330   21.0460 C   0  0  0  0  0  2  0  0  0  0  0  0
  -29.1160  -16.6080   20.0310 C   0  0  0  0  0  2  0  0  0  0  0  0
  -30.8440  -16.7790   21.7230 C   0  0  0  0  0  2  0  0  0  0  0  0
  -30.0400  -18.9730   20.6980 N   0  0  0  0  0  0  0  0  0  0  0  0
  -30.1160  -15.8510   20.8360 N   0  0  0  0  0  0  0  0  0  0  0  0
  -31.2090  -20.8960   20.9890 O   0  0  0  0  0  0  0  0  0  0  0  0
  -25.2770  -13.9120   20.4390 C   0  0  0  0  0  0  0  0  0  0  0  0
  -24.2050  -13.1450   20.8090 C   0  0  0  0  0  0  0  0  0  0  0  0
  -24.6650  -11.7920   20.7940 C   0  0  0  0  0  0  0  0  0  0  0  0
  -26.3190  -13.0230   20.2170 N   0  0  0  0  0  0  0  0  0  0  0  0
  -25.9560  -11.7460   20.4960 N   0  0  0  0  0  0  0  0  0  0  0  0
  -23.9350  -10.5350   20.9890 C   0  0  0  0  0  0  0  0  0  0  0  0
  -24.3580   -9.5780   21.9370 C   0  0  0  0  0  3  0  0  0  0  0  0
  -23.6320   -8.3800   22.1180 C   0  0  0  0  0  3  0  0  0  0  0  0
  -22.4680   -8.1350   21.3520 C   0  0  0  0  0  0  0  0  0  0  0  0
  -22.0620   -9.0820   20.3940 C   0  0  0  0  0  3  0  0  0  0  0  0
  -22.7900  -10.2700   20.2120 C   0  0  0  0  0  3  0  0  0  0  0  0
  -21.7120   -6.9910   21.4420 O   0  0  0  0  0  0  0  0  0  0  0  0
  -21.6510   -6.2600   22.6010 C   0  0  0  0  0  0  0  0  0  0  0  0
  -21.2050   -6.8240   23.8160 C   0  0  0  0  0  3  0  0  0  0  0  0
  -21.0920   -6.0190   24.9670 C   0  0  0  0  0  3  0  0  0  0  0  0
  -21.4150   -4.6500   24.9030 C   0  0  0  0  0  0  0  0  0  0  0  0
  -21.8540   -4.0850   23.6920 C   0  0  0  0  0  3  0  0  0  0  0  0
  -21.9680   -4.8880   22.5440 C   0  0  0  0  0  0  0  0  0  0  0  0
  -22.3720   -4.3340   21.3760 F   0  0  0  0  0  0  0  0  0  0  0  0
  -21.2990   -3.8740   26.0060 F   0  0  0  0  0  0  0  0  0  0  0  0
  -22.8070  -13.6280   21.0650 C   0  0  0  0  0  0  0  0  0  0  0  0
  -22.0690  -12.9400   21.9280 N   0  0  0  0  0  0  0  0  0  0  0  0
  -22.3770  -14.6520   20.5350 O   0  0  0  0  0  0  0  0  0  0  0  0
  -22.4280  -12.1100   22.3780 H   0  0  0  0  0  0  0  0  0  0  0  0
  -21.1310  -13.2460   22.1440 H   0  0  0  0  0  0  0  0  0  0  0  0
  -25.4420  -15.2800   20.2460 N   0  0  0  0  0  0  0  0  0  0  0  0
  -24.6710  -15.9310   20.3430 H   0  0  0  0  0  0  0  0  0  0  0  0
  -26.2870  -15.7140   19.9010 H   0  0  0  0  0  0  0  0  0  0  0  0
  -27.8380  -23.6300   18.6620 C   0  0  0  0  0  1  0  0  0  0  0  0
  -28.8440  -24.0170   19.7680 C   0  0  0  0  0  3  0  0  0  0  0  0
  -28.3130  -25.2180   20.6730 C   0  0  0  0  0  2  0  0  0  0  0  0
  -28.4170  -26.5980   20.1540 O   0  0  0  0  0  0  0  0  0  0  0  0
  -24.6140  -31.9040   23.2260 C   0  0  0  0  0  0  0  0  0  0  0  0
  -27.2750  -27.4030   20.1610 C   0  0  0  0  0  0  0  0  0  0  0  0
  -23.4240  -30.5040   21.5730 C   0  0  0  0  0  3  0  0  0  0  0  0
  -24.8910  -28.9690   20.1500 C   0  0  0  0  0  0  0  0  0  0  0  0
  -25.9580  -30.8520   21.3950 C   0  0  0  0  0  2  0  0  0  0  0  0
  -26.0530  -29.4790   20.7450 C   0  0  0  0  0  0  0  0  0  0  0  0
  -27.2510  -28.7090   20.7340 C   0  0  0  0  0  3  0  0  0  0  0  0
  -26.0920  -26.9320   19.5540 C   0  0  0  0  0  3  0  0  0  0  0  0
  -24.9110  -27.7010   19.5450 C   0  0  0  0  0  3  0  0  0  0  0  0
  -23.6480  -29.8330   20.1920 C   0  0  0  0  0  2  0  0  0  0  0  0
  -24.6840  -31.1040   22.1220 N   0  0  0  0  0  0  0  0  0  0  0  0
  -23.5260  -32.1710   23.7590 O   0  0  0  0  0  0  0  0  0  0  0  0
  -22.7670  -29.4780   22.5270 C   0  0  0  0  0  0  0  0  0  0  0  0
  -21.4410  -29.2990   22.4020 N   0  0  0  0  0  0  0  0  0  0  0  0
  -23.4480  -28.8460   23.3380 O   0  0  0  0  0  0  0  0  0  0  0  0
  -20.9500  -29.8640   21.7230 H   0  0  0  0  0  0  0  0  0  0  0  0
  -18.0650  -28.1030   22.9040 C   0  0  0  0  0  0  0  0  0  0  0  0
  -20.6250  -28.3530   23.1640 C   0  0  0  0  0  3  0  0  0  0  0  0
  -20.7210  -26.9290   22.5700 C   0  0  0  0  0  2  0  0  0  0  0  0
  -19.6140  -26.6200   21.5580 C   0  0  0  0  0  2  0  0  0  0  0  0
  -18.2350  -26.7610   22.2110 C   0  0  0  0  0  2  0  0  0  0  0  0
  -19.1880  -28.8580   23.3370 C   0  0  0  0  0  0  0  0  0  0  0  0
  -18.9740  -30.1140   23.9440 C   0  0  0  0  0  3  0  0  0  0  0  0
  -17.6710  -30.6170   24.1200 C   0  0  0  0  0  3  0  0  0  0  0  0
  -16.5630  -29.8590   23.7030 C   0  0  0  0  0  3  0  0  0  0  0  0
  -16.7610  -28.6040   23.1010 C   0  0  0  0  0  3  0  0  0  0  0  0
  -25.8900  -32.5420   23.8570 C   0  0  0  0  0  3  0  0  0  0  0  0
  -26.4040  -31.7690   25.1340 C   0  0  1  0  0  0  0  0  0  0  0  0
  -25.3060  -31.5240   26.1960 C   0  0  0  0  0  1  0  0  0  0  0  0
  -26.9970  -30.3960   24.7430 C   0  0  0  0  0  1  0  0  0  0  0  0
  -27.5480  -32.5680   25.8040 C   0  0  0  0  0  1  0  0  0  0  0  0
  -25.5720  -33.9380   24.1900 N   0  0  0  0  0  0  0  0  0  0  0  0
  -25.9060  -34.9930   23.4360 C   0  0  0  0  0  0  0  0  0  0  0  0
  -26.5830  -34.8960   22.4100 O   0  0  0  0  0  0  0  0  0  0  0  0
  -24.9720  -34.0880   24.9880 H   0  0  0  0  0  0  0  0  0  0  0  0
  -24.1780  -36.7840   23.0710 C   0  0  0  0  0  1  0  0  0  0  0  0
  -25.4110  -36.3790   23.8950 C   0  0  0  0  0  3  0  0  0  0  0  0
  -27.5330  -37.2660   24.7550 C   0  0  0  0  0  1  0  0  0  0  0  0
  -26.4420  -37.4350   23.7980 N   0  0  0  0  0  0  0  0  0  0  0  0
  -26.0330  -38.3540   23.9420 H   0  0  0  0  0  0  0  0  0  0  0  0
  1  3  1  0
  2  1  1  0
  5  1  1  0
  5 14  1  0
  5  4  1  0
  6 20  1  0
  7 12  1  0
  8  9  1  0
  8  7  1  0
 10  9  1  0
 10 25  1  0
 10 11  1  0
 12  6  1  0
 12 11  1  0
 13  6  2  0
 14 21  2  0
 15 19  1  0
 16 18  1  0
 17 15  1  0
 17 20  1  0
 19 14  1  0
 19 16  1  0
 20 18  1  0
 22 23  2  0
 23 42  1  0
 24 23  1  0
 24 27  1  0
 25 22  1  0
 25 26  1  0
 26 24  2  0
 27 28  1  0
 28 29  2  0
 30 33  1  0
 30 29  1  0
 31 30  2  0
 32 31  1  0
 32 27  2  0
 33 34  1  0
 34 35  1  0
 35 36  2  0
 37 36  1  0
 37 41  1  0
 38 37  2  0
 39 34  2  0
 39 38  1  0
 40 39  1  0
 42 43  1  0
 43 46  1  0
 43 45  1  0
 44 42  2  0
 47 48  1  0
 47 22  1  0
 49 47  1  0
 51 50  1  0
 51  1  1  0
 51 52  1  0
 53 55  1  0
 53 52  1  0
 54 65  2  0
 55 60  1  0
 56 64  1  0
 56 66  1  0
 57 63  1  0
 57 59  1  0
 58 64  1  0
 59 58  1  0
 60 59  2  0
 61 55  2  0
 62 61  1  0
 62 57  2  0
 63 56  1  0
 64 54  1  0
 66 68  2  0
 67 66  1  0
 69 67  1  0
 70 79  2  0
 70 75  1  0
 71 67  1  0
 71 75  1  0
 72 71  1  0
 73 74  1  0
 73 72  1  0
 74 70  1  0
 75 76  2  0
 76 77  1  0
 78 77  2  0
 79 78  1  0
 80 54  1  0
 80 85  1  0
 80 81  1  0
 81 84  1  1
 81 82  1  0
 83 81  1  0
 85 88  1  0
 86 90  1  0
 86 85  1  0
 87 86  2  0
 90 89  1  0
 92 90  1  0
 92 93  1  0
 92 91  1  0
M  ISO  4   6 100  20 100  52 101  53 101
M  END
>  <TORSDO>  (39) 
F 19

>  <SCORE>  (39) 
-14.234

>  <name>  (39) 
38

>  <ligand_id>  (39) 
38

>  <original_smiles>  (39) 
[H]c1c([H])c([H])c2c(c1[H])C([H])([H])C([H])([H])C([H])([H])C2([H])N([H])C(=O)C1([H])N(C(=O)C([H])(N([H])C(=O)C([H])(N([H])C([H])([H])[H])C([H])([H])[H])C(C([H])([H])[H])(C([H])([H])[H])C([H])([H])[H])C([H])([H])c2c([H])c(OC([H])([H])C([H])(C([H])([H])[H])[N+]([H])([H])C([H])(C(=O)N3C([H])([H])C([H])([H])N(C(=O)N4C([H])([H])C([H])([H])C([H])([H])C([H])(n5nc(-c6c([H])c([H])c(Oc7c([H])c([H])c(F)c([H])c7F)c([H])c6[H])c(C(=O)N([H])[H])c5N([H])[H])C4([H])[H])C([H])([H])C3([H])[H])C([H])([H])[H])c([H])c([H])c2C1([H])[H]

>  <smiles>  (39) 
[H]c1c([H])c([H])c2c(c1[H])C([H])([H])C([H])([H])C([H])([H])C2([H])N([H])C(=O)C1([H])N(C(=O)C([H])(N([H])C(=O)C([H])(N([H])C([H])([H])[H])C([H])([H])[H])C(C([H])([H])[H])(C([H])([H])[H])C([H])([H])[H])C([H])([H])c2c([H])c(OC([H])([H])C([H])(C([H])([H])[H])[N+]([H])([H])C([H])(C(=O)N3C([H])([H])C([H])([H])N(C(=O)N4C([H])([H])C([H])([H])C([H])([H])C([H])(n5nc(-c6c([H])c([H])c(Oc7c([H])c([H])c(F)c([H])c7F)c([H])c6[H])c(C(=O)N([H])[H])c5N([H])[H])C4([H])[H])C([H])([H])C3([H])[H])C([H])([H])[H])c([H])c([H])c2C1([H])[H]

$$$$
39:0:0
     RDKit          3D

109120  0  0  1  0  0  0  0  0999 V2000
  -30.6810  -14.8080   20.3100 C   0  0  0  0  0  0  0  0  0  0  0  0
  -30.4260  -12.5730   19.3320 C   0  0  0  0  0  2  0  0  0  0  0  0
  -29.4890  -12.6670   18.1130 C   0  0  0  0  0  2  0  0  0  0  0  0
  -28.0250  -12.4840   18.5560 C   0  0  0  0  0  2  0  0  0  0  0  0
  -27.6450  -13.3930   19.7570 C   0  0  0  0  0  3  0  0  0  0  0  0
  -28.7080  -13.3330   20.8760 C   0  0  0  0  0  2  0  0  0  0  0  0
  -30.0200  -13.6220   20.2790 N   0  0  0  0  0  0  0  0  0  0  0  0
  -31.7830  -14.9510   19.7690 O   0  0  0  0  0  0  0  0  0  0  0  0
  -31.6440  -17.6450   21.0700 C   0  0  0  0  0  3  0  0  0  0  0  0
  -32.2460  -18.7780   20.5030 C   0  0  0  0  0  0  0  0  0  0  0  0
  -33.5520  -19.3330   20.6010 C   0  0  0  0  0  0  0  0  0  0  0  0
  -31.4980  -19.5220   19.5470 C   0  0  0  0  0  0  0  0  0  0  0  0
  -33.6200  -20.3340   19.6820 C   0  0  0  0  0  0  0  0  0  0  0  0
  -30.1760  -19.0920   19.2500 C   0  0  0  0  0  0  0  0  0  0  0  0
  -30.4090  -17.1850   20.5850 C   0  0  0  0  0  0  0  0  0  0  0  0
  -34.7240  -18.8540   21.4150 C   0  0  0  0  0  2  0  0  0  0  0  0
  -34.9310  -20.9600   19.2980 C   0  0  0  0  0  2  0  0  0  0  0  0
  -36.0450  -20.6310   20.3180 C   0  0  0  0  0  2  0  0  0  0  0  0
  -29.2490  -19.7810   18.2690 C   0  0  0  0  0  1  0  0  0  0  0  0
  -29.6660  -17.9450   19.7620 N   0  0  0  0  0  0  0  0  0  0  0  0
  -32.3630  -20.5380   19.0890 N   0  0  0  0  0  0  0  0  0  0  0  0
  -30.0380  -15.8500   20.8660 N   0  0  0  0  0  0  0  0  0  0  0  0
  -36.0120  -19.2030   20.7540 N   0  0  1  0  0  4  0  0  0  0  0  0
  -29.0860  -15.6810   21.1490 H   0  0  0  0  0  0  0  0  0  0  0  0
  -36.0150  -18.6620   19.9040 H   0  0  0  0  0  0  0  0  0  0  0  0
  -25.2550  -13.9230   20.5470 C   0  0  0  0  0  0  0  0  0  0  0  0
  -24.2150  -13.1180   20.9260 C   0  0  0  0  0  0  0  0  0  0  0  0
  -24.7030  -11.7770   20.8420 C   0  0  0  0  0  0  0  0  0  0  0  0
  -26.3110  -13.0730   20.2620 N   0  0  0  0  0  0  0  0  0  0  0  0
  -25.9850  -11.7750   20.4980 N   0  0  0  0  0  0  0  0  0  0  0  0
  -24.0090  -10.4950   21.0160 C   0  0  0  0  0  0  0  0  0  0  0  0
  -24.4450   -9.5390   21.9600 C   0  0  0  0  0  3  0  0  0  0  0  0
  -23.7520   -8.3200   22.1190 C   0  0  0  0  0  3  0  0  0  0  0  0
  -22.6050   -8.0490   21.3350 C   0  0  0  0  0  0  0  0  0  0  0  0
  -22.1890   -8.9920   20.3790 C   0  0  0  0  0  3  0  0  0  0  0  0
  -22.8850  -10.2030   20.2180 C   0  0  0  0  0  3  0  0  0  0  0  0
  -21.8820   -6.8830   21.4070 O   0  0  0  0  0  0  0  0  0  0  0  0
  -21.7520   -6.1880   22.5830 C   0  0  0  0  0  0  0  0  0  0  0  0
  -21.1550   -6.7620   23.7280 C   0  0  0  0  0  3  0  0  0  0  0  0
  -20.9810   -5.9890   24.8920 C   0  0  0  0  0  3  0  0  0  0  0  0
  -21.3910   -4.6440   24.9160 C   0  0  0  0  0  0  0  0  0  0  0  0
  -21.9800   -4.0680   23.7760 C   0  0  0  0  0  3  0  0  0  0  0  0
  -22.1590   -4.8400   22.6130 C   0  0  0  0  0  0  0  0  0  0  0  0
  -22.7090   -4.2730   21.5110 F   0  0  0  0  0  0  0  0  0  0  0  0
  -21.2160   -3.9000   26.0330 F   0  0  0  0  0  0  0  0  0  0  0  0
  -22.8180  -13.5590   21.2560 C   0  0  0  0  0  0  0  0  0  0  0  0
  -22.1400  -12.8360   22.1380 N   0  0  0  0  0  0  0  0  0  0  0  0
  -22.3390  -14.5800   20.7650 O   0  0  0  0  0  0  0  0  0  0  0  0
  -22.5410  -12.0080   22.5580 H   0  0  0  0  0  0  0  0  0  0  0  0
  -21.2040  -13.1110   22.3960 H   0  0  0  0  0  0  0  0  0  0  0  0
  -25.3910  -15.3010   20.4010 N   0  0  0  0  0  0  0  0  0  0  0  0
  -24.6300  -15.9550   20.5420 H   0  0  0  0  0  0  0  0  0  0  0  0
  -26.2340  -15.7420   20.0540 H   0  0  0  0  0  0  0  0  0  0  0  0
  -38.0250  -19.7970   22.2250 C   0  0  0  0  0  1  0  0  0  0  0  0
  -38.0960  -17.8650   20.5810 C   0  0  0  0  0  1  0  0  0  0  0  0
  -37.2050  -18.7030   21.5070 C   0  0  0  0  0  3  0  0  0  0  0  0
  -32.0820  -21.5360   18.0510 C   0  0  0  0  0  2  0  0  0  0  0  0
  -31.2850  -23.8560   17.3880 C   0  0  0  0  0  2  0  0  0  0  0  0
  -30.9910  -23.2020   19.7760 C   0  0  0  0  0  2  0  0  0  0  0  0
  -31.1170  -25.3390   17.7740 C   0  0  0  0  0  2  0  0  0  0  0  0
  -30.8210  -24.6950   20.1440 C   0  0  0  0  0  2  0  0  0  0  0  0
  -31.8780  -23.0070   18.5290 C   0  0  1  0  0  0  0  0  0  0  0  0
  -30.3130  -25.5230   19.0160 N   0  0  1  0  0  4  0  0  0  0  0  0
  -29.3720  -25.2050   18.8260 H   0  0  0  0  0  0  0  0  0  0  0  0
  -33.1480  -23.5320   18.8510 O   0  0  0  0  0  0  0  0  0  0  0  0
  -33.5000  -23.0200   19.5700 H   0  0  0  0  0  0  0  0  0  0  0  0
  -30.1900  -26.9550   19.4050 C   0  0  0  0  0  2  0  0  0  0  0  0
  -28.9910  -27.6480   18.7440 C   0  0  0  0  0  2  0  0  0  0  0  0
  -27.8120  -27.0130   19.2400 O   0  0  0  0  0  0  0  0  0  0  0  0
  -24.4450  -31.9220   23.2210 C   0  0  0  0  0  0  0  0  0  0  0  0
  -26.6980  -27.7830   19.4910 C   0  0  0  0  0  0  0  0  0  0  0  0
  -23.0420  -30.6540   21.6240 C   0  0  0  0  0  3  0  0  0  0  0  0
  -24.3100  -29.2350   19.9240 C   0  0  0  0  0  0  0  0  0  0  0  0
  -25.5240  -31.0390   21.1610 C   0  0  0  0  0  2  0  0  0  0  0  0
  -25.5270  -29.7250   20.4120 C   0  0  0  0  0  0  0  0  0  0  0  0
  -26.7200  -29.0020   20.2080 C   0  0  0  0  0  3  0  0  0  0  0  0
  -25.4600  -27.2870   19.0310 C   0  0  0  0  0  3  0  0  0  0  0  0
  -24.2680  -28.0070   19.2390 C   0  0  0  0  0  3  0  0  0  0  0  0
  -23.0820  -30.0800   20.1820 C   0  0  0  0  0  2  0  0  0  0  0  0
  -24.3620  -31.2140   22.0600 N   0  0  0  0  0  0  0  0  0  0  0  0
  -23.4370  -32.1500   23.9040 O   0  0  0  0  0  0  0  0  0  0  0  0
  -22.4990  -29.5600   22.5710 C   0  0  0  0  0  0  0  0  0  0  0  0
  -21.1920  -29.2730   22.4640 N   0  0  0  0  0  0  0  0  0  0  0  0
  -23.2500  -28.9720   23.3540 O   0  0  0  0  0  0  0  0  0  0  0  0
  -20.6440  -29.8040   21.8020 H   0  0  0  0  0  0  0  0  0  0  0  0
  -18.0060  -27.6080   22.8010 C   0  0  0  0  0  0  0  0  0  0  0  0
  -20.4710  -28.2550   23.2260 C   0  0  0  0  0  3  0  0  0  0  0  0
  -20.8230  -26.8340   22.7270 C   0  0  0  0  0  2  0  0  0  0  0  0
  -19.8550  -26.3120   21.6600 C   0  0  0  0  0  2  0  0  0  0  0  0
  -18.4250  -26.2750   22.2040 C   0  0  0  0  0  2  0  0  0  0  0  0
  -18.9670  -28.5450   23.2640 C   0  0  0  0  0  0  0  0  0  0  0  0
  -18.5260  -29.7840   23.7760 C   0  0  0  0  0  3  0  0  0  0  0  0
  -17.1530  -30.0930   23.8310 C   0  0  0  0  0  3  0  0  0  0  0  0
  -16.2050  -29.1550   23.3850 C   0  0  0  0  0  3  0  0  0  0  0  0
  -16.6310  -27.9150   22.8760 C   0  0  0  0  0  3  0  0  0  0  0  0
  -25.8020  -32.4990   23.7330 C   0  0  0  0  0  3  0  0  0  0  0  0
  -25.5690  -33.8970   24.1210 N   0  0  0  0  0  0  0  0  0  0  0  0
  -25.8950  -34.9580   23.3700 C   0  0  0  0  0  0  0  0  0  0  0  0
  -26.4970  -34.8610   22.2970 O   0  0  0  0  0  0  0  0  0  0  0  0
  -25.0330  -34.0500   24.9630 H   0  0  0  0  0  0  0  0  0  0  0  0
  -24.2310  -36.8300   23.1490 C   0  0  0  0  0  1  0  0  0  0  0  0
  -25.4870  -36.3490   23.8920 C   0  0  0  0  0  3  0  0  0  0  0  0
  -27.6860  -37.1200   24.6630 C   0  0  0  0  0  1  0  0  0  0  0  0
  -26.5590  -37.3610   23.7680 N   0  0  0  0  0  0  0  0  0  0  0  0
  -26.1990  -38.2930   23.9540 H   0  0  0  0  0  0  0  0  0  0  0  0
  -26.4140  -31.6790   24.9340 C   0  0  1  0  0  0  0  0  0  0  0  0
  -25.4240  -31.4520   26.1000 C   0  0  0  0  0  1  0  0  0  0  0  0
  -26.9060  -30.2940   24.4540 C   0  0  0  0  0  1  0  0  0  0  0  0
  -27.6540  -32.4160   25.4940 C   0  0  0  0  0  1  0  0  0  0  0  0
  1 22  1  0
  2  7  1  0
  3  4  1  0
  3  2  1  0
  5  4  1  0
  5 29  1  0
  5  6  1  0
  7  1  1  0
  7  6  1  0
  8  1  2  0
 10 11  1  0
 10  9  2  0
 11 16  1  0
 12 10  1  0
 13 11  2  0
 14 12  2  0
 14 20  1  0
 15 22  1  0
 15  9  1  0
 17 13  1  0
 17 18  1  0
 18 23  1  0
 19 14  1  0
 20 15  2  0
 21 12  1  0
 21 13  1  0
 22 24  1  0
 23 16  1  0
 23 56  1  0
 23 25  1  6
 26 27  2  0
 27 46  1  0
 28 27  1  0
 28 31  1  0
 29 30  1  0
 29 26  1  0
 30 28  2  0
 31 32  1  0
 32 33  2  0
 34 37  1  0
 34 33  1  0
 35 34  2  0
 36 35  1  0
 36 31  2  0
 37 38  1  0
 38 43  2  0
 38 39  1  0
 39 40  2  0
 40 41  1  0
 41 45  1  0
 42 41  2  0
 43 42  1  0
 44 43  1  0
 46 47  1  0
 47 50  1  0
 47 49  1  0
 48 46  2  0
 51 52  1  0
 51 26  1  0
 53 51  1  0
 55 56  1  0
 56 54  1  0
 57 21  1  0
 58 60  1  0
 58 62  1  0
 59 61  1  0
 60 63  1  0
 62 57  1  6
 62 65  1  0
 62 59  1  0
 63 67  1  0
 63 61  1  0
 63 64  1  6
 65 66  1  0
 68 69  1  0
 68 67  1  0
 69 71  1  0
 70 81  2  0
 71 76  1  0
 72 80  1  0
 72 82  1  0
 73 79  1  0
 73 75  1  0
 74 80  1  0
 75 74  1  0
 76 75  2  0
 77 78  1  0
 77 71  2  0
 78 73  2  0
 79 72  1  0
 80 70  1  0
 82 84  2  0
 83 82  1  0
 85 83  1  0
 86 95  2  0
 86 91  1  0
 87 83  1  0
 87 91  1  0
 88 87  1  0
 89 90  1  0
 89 88  1  0
 90 86  1  0
 91 92  2  0
 92 93  1  0
 94 93  2  0
 95 94  1  0
 96 70  1  0
 96 97  1  0
 96106  1  0
 97100  1  0
 98102  1  0
 98 97  1  0
 99 98  2  0
102101  1  0
104102  1  0
104105  1  0
104103  1  0
106109  1  1
106107  1  0
108106  1  0
M  ISO  4   1 100  22 100  68 101  69 101
M  END
>  <TORSDO>  (40) 
F 21

>  <SCORE>  (40) 
-13.224

>  <name>  (40) 
39

>  <ligand_id>  (40) 
39

>  <original_smiles>  (40) 
[H]OC1(C([H])([H])n2c3c(c4c([H])c(N([H])C(=O)N5C([H])([H])C([H])([H])C([H])([H])C([H])(n6nc(-c7c([H])c([H])c(Oc8c([H])c([H])c(F)c([H])c8F)c([H])c7[H])c(C(=O)N([H])[H])c6N([H])[H])C5([H])[H])nc(C([H])([H])[H])c42)C([H])([H])[N+]([H])(C([H])(C([H])([H])[H])C([H])([H])[H])C([H])([H])C3([H])[H])C([H])([H])C([H])([H])[N+]([H])(C([H])([H])C([H])([H])Oc2c([H])c([H])c3c(c2[H])C([H])([H])N(C(=O)C([H])(N([H])C(=O)C([H])(N([H])C([H])([H])[H])C([H])([H])[H])C(C([H])([H])[H])(C([H])([H])[H])C([H])([H])[H])C([H])(C(=O)N([H])C2([H])c4c([H])c([H])c([H])c([H])c4C([H])([H])C([H])([H])C2([H])[H])C3([H])[H])C([H])([H])C1([H])[H]

>  <smiles>  (40) 
[H]OC1(C([H])([H])n2c3c(c4c([H])c(N([H])C(=O)N5C([H])([H])C([H])([H])C([H])([H])C([H])(n6nc(-c7c([H])c([H])c(Oc8c([H])c([H])c(F)c([H])c8F)c([H])c7[H])c(C(=O)N([H])[H])c6N([H])[H])C5([H])[H])nc(C([H])([H])[H])c42)C([H])([H])[N+]([H])(C([H])(C([H])([H])[H])C([H])([H])[H])C([H])([H])C3([H])[H])C([H])([H])C([H])([H])[N+]([H])(C([H])([H])C([H])([H])Oc2c([H])c([H])c3c(c2[H])C([H])([H])N(C(=O)C([H])(N([H])C(=O)C([H])(N([H])C([H])([H])[H])C([H])([H])[H])C(C([H])([H])[H])(C([H])([H])[H])C([H])([H])[H])C([H])(C(=O)N([H])C2([H])c4c([H])c([H])c([H])c([H])c4C([H])([H])C([H])([H])C2([H])[H])C3([H])[H])C([H])([H])C1([H])[H]

$$$$
40:0:0
     RDKit          3D

102112  0  0  1  0  0  0  0  0999 V2000
  -31.5730  -24.2210   21.8410 C   0  0  0  0  0  3  0  0  0  0  0  0
  -30.8450  -25.3680   21.4870 C   0  0  0  0  0  0  0  0  0  0  0  0
  -30.3360  -24.3590   19.3130 C   0  0  0  0  0  0  0  0  0  0  0  0
  -30.1880  -25.4440   20.2300 C   0  0  0  0  0  0  0  0  0  0  0  0
  -31.0160  -23.1650   19.7100 C   0  0  0  0  0  0  0  0  0  0  0  0
  -31.6650  -23.1130   20.9730 C   0  0  0  0  0  0  0  0  0  0  0  0
  -30.8090  -26.5140   22.4910 C   0  0  0  0  0  1  0  0  0  0  0  0
  -29.8090  -24.4920   17.8830 C   0  0  0  0  0  1  0  0  0  0  0  0
  -32.2920  -22.1130   17.8050 C   0  0  0  0  0  1  0  0  0  0  0  0
  -31.1070  -21.9340   18.7790 C   0  0  0  0  0  3  0  0  0  0  0  0
  -30.3950  -13.9970   19.1900 C   0  0  0  0  0  0  0  0  0  0  0  0
  -29.8120  -11.9370   17.9590 C   0  0  0  0  0  2  0  0  0  0  0  0
  -28.6170  -12.2190   17.0240 C   0  0  0  0  0  2  0  0  0  0  0  0
  -27.2790  -12.0440   17.7690 C   0  0  0  0  0  2  0  0  0  0  0  0
  -27.2510  -12.7950   19.1270 C   0  0  0  0  0  3  0  0  0  0  0  0
  -28.5240  -12.4790   19.9440 C   0  0  0  0  0  2  0  0  0  0  0  0
  -29.7000  -12.8300   19.1230 N   0  0  0  0  0  0  0  0  0  0  0  0
  -31.3060  -14.2760   18.4020 O   0  0  0  0  0  0  0  0  0  0  0  0
  -29.3120  -18.1670   21.5990 C   0  0  0  0  0  3  0  0  0  0  0  0
  -29.3640  -16.7710   21.3970 C   0  0  0  0  0  3  0  0  0  0  0  0
  -29.9750  -18.9570   20.6510 C   0  0  0  0  0  0  0  0  0  0  0  0
  -30.6400  -18.3600   19.6020 C   0  0  0  0  0  0  0  0  0  0  0  0
  -30.0600  -16.2240   20.2880 C   0  0  0  0  0  0  0  0  0  0  0  0
  -30.1130  -20.4570   20.5780 C   0  0  0  0  0  2  0  0  0  0  0  0
  -31.2890  -19.4010   18.7280 C   0  0  0  0  0  2  0  0  0  0  0  0
  -30.7010  -17.0280   19.3950 N   0  0  0  0  0  0  0  0  0  0  0  0
  -29.9950  -14.8110   20.1830 N   0  0  0  0  0  0  0  0  0  0  0  0
  -31.1680  -20.6510   19.5380 N   0  0  1  0  0  4  0  0  0  0  0  0
  -29.3650  -14.3700   20.8310 H   0  0  0  0  0  0  0  0  0  0  0  0
  -32.0270  -20.7090   20.0680 H   0  0  0  0  0  0  0  0  0  0  0  0
  -25.0880  -13.3520   20.4120 C   0  0  0  0  0  0  0  0  0  0  0  0
  -24.1190  -12.5560   20.9610 C   0  0  0  0  0  0  0  0  0  0  0  0
  -24.5360  -11.2100   20.7230 C   0  0  0  0  0  0  0  0  0  0  0  0
  -26.0360  -12.4900   19.8820 N   0  0  0  0  0  0  0  0  0  0  0  0
  -25.7170  -11.1920   20.1210 N   0  0  0  0  0  0  0  0  0  0  0  0
  -23.8510   -9.9370   20.9830 C   0  0  0  0  0  0  0  0  0  0  0  0
  -24.3790   -8.9850   21.8830 C   0  0  0  0  0  3  0  0  0  0  0  0
  -23.6940   -7.7760   22.1300 C   0  0  0  0  0  3  0  0  0  0  0  0
  -22.4660   -7.5100   21.4800 C   0  0  0  0  0  0  0  0  0  0  0  0
  -21.9550   -8.4510   20.5680 C   0  0  0  0  0  3  0  0  0  0  0  0
  -22.6420   -9.6520   20.3190 C   0  0  0  0  0  3  0  0  0  0  0  0
  -21.7440   -6.3520   21.6370 O   0  0  0  0  0  0  0  0  0  0  0  0
  -21.6650   -5.7130   22.8490 C   0  0  0  0  0  0  0  0  0  0  0  0
  -21.1640   -6.3580   24.0000 C   0  0  0  0  0  3  0  0  0  0  0  0
  -21.0350   -5.6440   25.2070 C   0  0  0  0  0  3  0  0  0  0  0  0
  -21.3960   -4.2840   25.2650 C   0  0  0  0  0  0  0  0  0  0  0  0
  -21.8910   -3.6390   24.1180 C   0  0  0  0  0  3  0  0  0  0  0  0
  -22.0220   -4.3510   22.9120 C   0  0  0  0  0  0  0  0  0  0  0  0
  -22.4790   -3.7180   21.8050 F   0  0  0  0  0  0  0  0  0  0  0  0
  -21.2660   -3.5950   26.4220 F   0  0  0  0  0  0  0  0  0  0  0  0
  -22.8330  -13.0110   21.5870 C   0  0  0  0  0  0  0  0  0  0  0  0
  -22.3460  -12.2840   22.5860 N   0  0  0  0  0  0  0  0  0  0  0  0
  -22.2760  -14.0460   21.2230 O   0  0  0  0  0  0  0  0  0  0  0  0
  -22.8120  -11.4460   22.9000 H   0  0  0  0  0  0  0  0  0  0  0  0
  -21.4920  -12.5710   23.0450 H   0  0  0  0  0  0  0  0  0  0  0  0
  -25.2340  -14.7320   20.3030 N   0  0  0  0  0  0  0  0  0  0  0  0
  -24.5270  -15.3790   20.6360 H   0  0  0  0  0  0  0  0  0  0  0  0
  -25.9960  -15.1940   19.8240 H   0  0  0  0  0  0  0  0  0  0  0  0
  -32.9210  -21.8520   22.6080 C   0  0  0  0  0  1  0  0  0  0  0  0
  -32.3690  -21.9680   21.3000 O   0  0  0  0  0  0  0  0  0  0  0  0
  -29.3740  -26.7140   19.9090 C   0  0  0  0  0  2  0  0  0  0  0  0
  -28.1830  -26.4930   19.1530 O   0  0  0  0  0  0  0  0  0  0  0  0
  -24.8770  -31.4900   23.0480 C   0  0  0  0  0  0  0  0  0  0  0  0
  -27.0990  -27.3240   19.3490 C   0  0  0  0  0  0  0  0  0  0  0  0
  -23.4780  -30.2880   21.3960 C   0  0  0  0  0  3  0  0  0  0  0  0
  -24.7480  -28.8580   19.7060 C   0  0  0  0  0  0  0  0  0  0  0  0
  -25.9800  -30.6120   20.9970 C   0  0  0  0  0  2  0  0  0  0  0  0
  -25.9650  -29.3070   20.2310 C   0  0  0  0  0  0  0  0  0  0  0  0
  -27.1420  -28.5540   20.0490 C   0  0  0  0  0  3  0  0  0  0  0  0
  -25.8660  -26.8890   18.8200 C   0  0  0  0  0  3  0  0  0  0  0  0
  -24.6900  -27.6470   18.9950 C   0  0  0  0  0  3  0  0  0  0  0  0
  -23.5390  -29.7340   19.9450 C   0  0  0  0  0  2  0  0  0  0  0  0
  -24.8020  -30.8030   21.8720 N   0  0  0  0  0  0  0  0  0  0  0  0
  -23.8600  -31.7370   23.7100 O   0  0  0  0  0  0  0  0  0  0  0  0
  -22.8780  -29.1980   22.3120 C   0  0  0  0  0  0  0  0  0  0  0  0
  -21.5520  -29.0120   22.2270 N   0  0  0  0  0  0  0  0  0  0  0  0
  -23.6010  -28.5270   23.0530 O   0  0  0  0  0  0  0  0  0  0  0  0
  -21.0290  -29.6090   21.6010 H   0  0  0  0  0  0  0  0  0  0  0  0
  -18.2210  -27.6990   22.7110 C   0  0  0  0  0  0  0  0  0  0  0  0
  -20.7740  -28.0180   22.9640 C   0  0  0  0  0  3  0  0  0  0  0  0
  -20.9090  -26.6180   22.3210 C   0  0  0  0  0  2  0  0  0  0  0  0
  -19.8030  -26.3110   21.3060 C   0  0  0  0  0  2  0  0  0  0  0  0
  -18.4260  -26.3870   21.9730 C   0  0  0  0  0  2  0  0  0  0  0  0
  -19.3240  -28.4720   23.1620 C   0  0  0  0  0  0  0  0  0  0  0  0
  -19.0800  -29.7020   23.8110 C   0  0  0  0  0  3  0  0  0  0  0  0
  -17.7640  -30.1600   24.0140 C   0  0  0  0  0  3  0  0  0  0  0  0
  -16.6750  -29.3830   23.5790 C   0  0  0  0  0  3  0  0  0  0  0  0
  -16.9060  -28.1550   22.9340 C   0  0  0  0  0  3  0  0  0  0  0  0
  -26.2370  -32.0170   23.6040 C   0  0  0  0  0  3  0  0  0  0  0  0
  -26.8100  -31.1400   24.7840 C   0  0  1  0  0  0  0  0  0  0  0  0
  -25.7880  -30.8760   25.9150 C   0  0  0  0  0  1  0  0  0  0  0  0
  -27.2990  -29.7700   24.2570 C   0  0  0  0  0  1  0  0  0  0  0  0
  -28.0420  -31.8390   25.4070 C   0  0  0  0  0  1  0  0  0  0  0  0
  -26.0290  -33.4050   24.0390 N   0  0  0  0  0  0  0  0  0  0  0  0
  -26.3750  -34.4840   23.3250 C   0  0  0  0  0  0  0  0  0  0  0  0
  -26.9770  -34.4110   22.2490 O   0  0  0  0  0  0  0  0  0  0  0  0
  -25.4930  -33.5380   24.8820 H   0  0  0  0  0  0  0  0  0  0  0  0
  -24.7390  -36.3870   23.1760 C   0  0  0  0  0  1  0  0  0  0  0  0
  -25.9930  -35.8630   23.8920 C   0  0  0  0  0  3  0  0  0  0  0  0
  -28.2100  -36.5780   24.6700 C   0  0  0  0  0  1  0  0  0  0  0  0
  -27.0790  -36.8630   23.7910 N   0  0  0  0  0  0  0  0  0  0  0  0
  -26.7340  -37.7940   24.0090 H   0  0  0  0  0  0  0  0  0  0  0  0
  2  1  1  0
  2  7  1  0
  3  5  2  0
  3  4  1  0
  4  2  2  0
  5  6  1  0
  6 60  1  0
  6  1  2  0
  8  3  1  0
 10  9  1  0
 10 28  1  0
 10  5  1  0
 11 27  1  0
 12 17  1  0
 13 14  1  0
 13 12  1  0
 15 14  1  0
 15 34  1  0
 15 16  1  0
 17 11  1  0
 17 16  1  0
 18 11  2  0
 20 19  1  0
 21 19  2  0
 22 21  1  0
 23 20  2  0
 24 21  1  0
 25 28  1  0
 25 22  1  0
 26 22  2  0
 26 23  1  0
 27 23  1  0
 27 29  1  0
 28 30  1  1
 28 24  1  0
 31 32  2  0
 32 51  1  0
 33 32  1  0
 33 36  1  0
 34 35  1  0
 34 31  1  0
 35 33  2  0
 36 37  1  0
 37 38  2  0
 39 42  1  0
 39 38  1  0
 40 39  2  0
 41 40  1  0
 41 36  2  0
 42 43  1  0
 43 48  2  0
 43 44  1  0
 44 45  2  0
 45 46  1  0
 46 50  1  0
 47 46  2  0
 48 47  1  0
 49 48  1  0
 51 52  1  0
 52 54  1  0
 52 55  1  0
 53 51  2  0
 56 31  1  0
 56 57  1  0
 58 56  1  0
 60 59  1  0
 61  4  1  0
 62 64  1  0
 62 61  1  0
 63 74  2  0
 64 69  1  0
 65 73  1  0
 65 75  1  0
 66 72  1  0
 66 68  1  0
 67 73  1  0
 68 67  1  0
 69 68  2  0
 70 71  1  0
 70 64  2  0
 71 66  2  0
 72 65  1  0
 73 63  1  0
 75 77  2  0
 76 75  1  0
 78 76  1  0
 79 88  2  0
 79 84  1  0
 80 76  1  0
 80 84  1  0
 81 80  1  0
 82 83  1  0
 82 81  1  0
 83 79  1  0
 84 85  2  0
 85 86  1  0
 87 86  2  0
 88 87  1  0
 89 63  1  0
 89 94  1  0
 89 90  1  0
 90 93  1  1
 90 91  1  0
 92 90  1  0
 94 97  1  0
 95 99  1  0
 95 94  1  0
 96 95  2  0
 99 98  1  0
101 99  1  0
101102  1  0
101100  1  0
M  ISO  4  11 100  27 100  61 101  62 101
M  END
>  <TORSDO>  (41) 
F 19

>  <SCORE>  (41) 
-7.221

>  <name>  (41) 
40

>  <ligand_id>  (41) 
40

>  <original_smiles>  (41) 
[H]c1c(N([H])C(=O)N2C([H])([H])C([H])([H])C([H])([H])C([H])(n3nc(-c4c([H])c([H])c(Oc5c([H])c([H])c(F)c([H])c5F)c([H])c4[H])c(C(=O)N([H])[H])c3N([H])[H])C2([H])[H])nc2c(c1[H])C([H])([H])[N+]([H])(C([H])(c1c(OC([H])([H])[H])c([H])c(C([H])([H])[H])c(C([H])([H])Oc3c([H])c([H])c4c(c3[H])C([H])([H])N(C(=O)C([H])(N([H])C(=O)C([H])(N([H])C([H])([H])[H])C([H])([H])[H])C(C([H])([H])[H])(C([H])([H])[H])C([H])([H])[H])C([H])(C(=O)N([H])C3([H])c5c([H])c([H])c([H])c([H])c5C([H])([H])C([H])([H])C3([H])[H])C4([H])[H])c1C([H])([H])[H])C([H])([H])[H])C2([H])[H]

>  <smiles>  (41) 
[H]c1c(N([H])C(=O)N2C([H])([H])C([H])([H])C([H])([H])C([H])(n3nc(-c4c([H])c([H])c(Oc5c([H])c([H])c(F)c([H])c5F)c([H])c4[H])c(C(=O)N([H])[H])c3N([H])[H])C2([H])[H])nc2c(c1[H])C([H])([H])[N+]([H])(C([H])(c1c(OC([H])([H])[H])c([H])c(C([H])([H])[H])c(C([H])([H])Oc3c([H])c([H])c4c(c3[H])C([H])([H])N(C(=O)C([H])(N([H])C(=O)C([H])(N([H])C([H])([H])[H])C([H])([H])[H])C(C([H])([H])[H])(C([H])([H])[H])C([H])([H])[H])C([H])(C(=O)N([H])C3([H])c5c([H])c([H])c([H])c([H])c5C([H])([H])C([H])([H])C3([H])[H])C4([H])[H])c1C([H])([H])[H])C([H])([H])[H])C2([H])[H]

$$$$
41:0:0
     RDKit          3D

 98107  0  0  1  0  0  0  0  0999 V2000
  -29.6800  -23.8090   22.2600 C   0  0  0  0  0  0  0  0  0  0  0  0
  -29.8220  -23.0450   23.4450 C   0  0  0  0  0  0  0  0  0  0  0  0
  -29.5770  -23.1560   20.9840 C   0  0  0  0  0  0  0  0  0  0  0  0
  -29.9250  -21.6510   23.3360 C   0  0  0  0  0  0  0  0  0  0  0  0
  -29.7440  -21.6960   20.9940 C   0  0  0  0  0  0  0  0  0  0  0  0
  -29.6230  -25.3340   22.4270 C   0  0  0  0  0  1  0  0  0  0  0  0
  -29.8570  -23.7110   24.8220 C   0  0  0  0  0  1  0  0  0  0  0  0
  -30.0870  -20.7320   24.5340 C   0  0  0  0  0  1  0  0  0  0  0  0
  -29.8850  -21.0310   22.1570 N   0  0  0  0  0  0  0  0  0  0  0  0
  -29.2530  -23.4950   18.3700 C   0  0  0  0  0  1  0  0  0  0  0  0
  -29.2970  -24.1320   19.7660 C   0  0  0  0  0  3  0  0  0  0  0  0
  -28.0990  -25.1720   19.9650 C   0  0  0  0  0  2  0  0  0  0  0  0
  -28.3170  -26.6400   19.9660 O   0  0  0  0  0  0  0  0  0  0  0  0
  -24.4820  -31.8430   23.1900 C   0  0  0  0  0  0  0  0  0  0  0  0
  -27.1710  -27.4570   19.9570 C   0  0  0  0  0  0  0  0  0  0  0  0
  -23.2830  -30.4250   21.5660 C   0  0  0  0  0  3  0  0  0  0  0  0
  -24.7460  -28.9730   20.0590 C   0  0  0  0  0  0  0  0  0  0  0  0
  -25.8010  -30.8560   21.3030 C   0  0  0  0  0  2  0  0  0  0  0  0
  -25.9160  -29.4970   20.6250 C   0  0  0  0  0  0  0  0  0  0  0  0
  -27.1310  -28.7510   20.5650 C   0  0  0  0  0  3  0  0  0  0  0  0
  -25.9730  -26.9940   19.3610 C   0  0  0  0  0  3  0  0  0  0  0  0
  -24.7760  -27.7270   19.4180 C   0  0  0  0  0  3  0  0  0  0  0  0
  -23.4760  -29.7920   20.1660 C   0  0  0  0  0  2  0  0  0  0  0  0
  -24.5420  -31.0570   22.0750 N   0  0  0  0  0  0  0  0  0  0  0  0
  -23.4080  -32.0650   23.7650 O   0  0  0  0  0  0  0  0  0  0  0  0
  -22.6990  -29.3600   22.5260 C   0  0  0  0  0  0  0  0  0  0  0  0
  -21.3960  -29.0650   22.3800 N   0  0  0  0  0  0  0  0  0  0  0  0
  -23.4170  -28.8030   23.3590 O   0  0  0  0  0  0  0  0  0  0  0  0
  -20.8710  -29.5750   21.6830 H   0  0  0  0  0  0  0  0  0  0  0  0
  -18.1580  -27.4950   22.7570 C   0  0  0  0  0  0  0  0  0  0  0  0
  -20.6490  -28.0670   23.1490 C   0  0  0  0  0  3  0  0  0  0  0  0
  -20.9500  -26.6360   22.6480 C   0  0  0  0  0  2  0  0  0  0  0  0
  -19.9540  -26.1450   21.5930 C   0  0  0  0  0  2  0  0  0  0  0  0
  -18.5290  -26.1500   22.1550 C   0  0  0  0  0  2  0  0  0  0  0  0
  -19.1540  -28.4020   23.2070 C   0  0  0  0  0  0  0  0  0  0  0  0
  -18.7560  -29.6520   23.7290 C   0  0  0  0  0  3  0  0  0  0  0  0
  -17.3940  -30.0010   23.8020 C   0  0  0  0  0  3  0  0  0  0  0  0
  -16.4130  -29.0940   23.3670 C   0  0  0  0  0  3  0  0  0  0  0  0
  -16.7940  -27.8440   22.8500 C   0  0  0  0  0  3  0  0  0  0  0  0
  -25.7580  -32.5180   23.7810 C   0  0  0  0  0  3  0  0  0  0  0  0
  -26.3290  -31.7660   25.0450 C   0  0  1  0  0  0  0  0  0  0  0  0
  -25.2660  -31.4800   26.1310 C   0  0  0  0  0  1  0  0  0  0  0  0
  -26.9630  -30.4160   24.6380 C   0  0  0  0  0  1  0  0  0  0  0  0
  -27.4550  -32.6080   25.6880 C   0  0  0  0  0  1  0  0  0  0  0  0
  -25.4090  -33.9060   24.1170 N   0  0  0  0  0  0  0  0  0  0  0  0
  -25.7350  -34.9740   23.3760 C   0  0  0  0  0  0  0  0  0  0  0  0
  -26.4300  -34.8950   22.3600 O   0  0  0  0  0  0  0  0  0  0  0  0
  -24.7920  -34.0380   24.9050 H   0  0  0  0  0  0  0  0  0  0  0  0
  -23.9850  -36.7390   22.9880 C   0  0  0  0  0  1  0  0  0  0  0  0
  -25.2060  -36.3480   23.8350 C   0  0  0  0  0  3  0  0  0  0  0  0
  -27.3000  -37.2540   24.7430 C   0  0  0  0  0  1  0  0  0  0  0  0
  -26.2220  -37.4210   23.7700 N   0  0  0  0  0  0  0  0  0  0  0  0
  -25.7950  -38.3300   23.9220 H   0  0  0  0  0  0  0  0  0  0  0  0
  -29.6590  -20.6070   19.8540 C   0  0  0  0  0  3  0  0  0  0  0  0
  -31.5060  -14.8070   20.0980 C   0  0  0  0  0  0  0  0  0  0  0  0
  -31.1040  -12.5630   19.1130 C   0  0  0  0  0  2  0  0  0  0  0  0
  -30.1490  -12.6780   17.9090 C   0  0  0  0  0  2  0  0  0  0  0  0
  -28.6830  -12.5910   18.3770 C   0  0  0  0  0  2  0  0  0  0  0  0
  -28.3840  -13.5100   19.5920 C   0  0  0  0  0  3  0  0  0  0  0  0
  -29.4650  -13.3790   20.6830 C   0  0  0  0  0  2  0  0  0  0  0  0
  -30.7550  -13.6590   20.0430 N   0  0  0  0  0  0  0  0  0  0  0  0
  -32.7000  -14.7480   19.7820 O   0  0  0  0  0  0  0  0  0  0  0  0
  -30.7630  -18.3920   18.8810 C   0  0  0  0  0  2  0  0  0  0  0  0
  -29.5570  -18.0790   20.9590 C   0  0  0  0  0  2  0  0  0  0  0  0
  -31.5400  -17.0660   19.1570 C   0  0  0  0  0  2  0  0  0  0  0  0
  -30.3450  -16.7420   21.2330 C   0  0  0  0  0  2  0  0  0  0  0  0
  -30.3480  -19.1680   20.1560 C   0  0  0  0  0  3  0  0  0  0  0  0
  -30.8820  -16.0480   20.0330 N   0  0  0  0  0  0  0  0  0  0  0  0
  -26.0560  -14.2120   20.4090 C   0  0  0  0  0  0  0  0  0  0  0  0
  -24.9600  -13.4870   20.7910 C   0  0  0  0  0  0  0  0  0  0  0  0
  -25.3470  -12.1140   20.7130 C   0  0  0  0  0  0  0  0  0  0  0  0
  -27.0430  -13.2840   20.1200 N   0  0  0  0  0  0  0  0  0  0  0  0
  -26.6250  -12.0160   20.3650 N   0  0  0  0  0  0  0  0  0  0  0  0
  -24.5590  -10.8880   20.8940 C   0  0  0  0  0  0  0  0  0  0  0  0
  -24.9300   -9.9020   21.8350 C   0  0  0  0  0  3  0  0  0  0  0  0
  -24.1440   -8.7420   22.0040 C   0  0  0  0  0  3  0  0  0  0  0  0
  -22.9720   -8.5600   21.2310 C   0  0  0  0  0  0  0  0  0  0  0  0
  -22.6210   -9.5330   20.2790 C   0  0  0  0  0  3  0  0  0  0  0  0
  -23.4070  -10.6840   20.1080 C   0  0  0  0  0  3  0  0  0  0  0  0
  -22.1620   -7.4520   21.3080 O   0  0  0  0  0  0  0  0  0  0  0  0
  -21.9830   -6.7720   22.4860 C   0  0  0  0  0  0  0  0  0  0  0  0
  -21.4880   -7.4060   23.6450 C   0  0  0  0  0  3  0  0  0  0  0  0
  -21.2530   -6.6540   24.8140 C   0  0  0  0  0  3  0  0  0  0  0  0
  -21.5070   -5.2690   24.8230 C   0  0  0  0  0  0  0  0  0  0  0  0
  -21.9950   -4.6350   23.6680 C   0  0  0  0  0  3  0  0  0  0  0  0
  -22.2300   -5.3840   22.5010 C   0  0  0  0  0  0  0  0  0  0  0  0
  -22.6800   -4.7640   21.3840 F   0  0  0  0  0  0  0  0  0  0  0  0
  -21.2750   -4.5440   25.9430 F   0  0  0  0  0  0  0  0  0  0  0  0
  -23.6000  -14.0320   21.1180 C   0  0  0  0  0  0  0  0  0  0  0  0
  -22.8720  -13.3650   22.0060 N   0  0  0  0  0  0  0  0  0  0  0  0
  -23.1960  -15.0830   20.6210 O   0  0  0  0  0  0  0  0  0  0  0  0
  -23.2120  -12.5130   22.4270 H   0  0  0  0  0  0  0  0  0  0  0  0
  -21.9600  -13.7130   22.2690 H   0  0  0  0  0  0  0  0  0  0  0  0
  -26.2930  -15.5760   20.2610 N   0  0  0  0  0  0  0  0  0  0  0  0
  -25.5750  -16.2750   20.4180 H   0  0  0  0  0  0  0  0  0  0  0  0
  -27.1680  -15.9710   19.9410 H   0  0  0  0  0  0  0  0  0  0  0  0
  -27.4640  -21.6570   18.8570 C   0  0  0  0  0  1  0  0  0  0  0  0
  -28.1930  -20.4070   19.3750 C   0  0  0  0  0  2  0  0  0  0  0  0
  1  6  1  0
  1  2  1  0
  2  7  1  0
  3  5  1  0
  3  1  2  0
  4  2  2  0
  4  8  1  0
  5  9  2  0
  9  4  1  0
 11 10  1  0
 11 12  1  0
 11  3  1  0
 12 13  1  0
 14 25  2  0
 15 13  1  0
 15 20  1  0
 16 24  1  0
 16 26  1  0
 17 23  1  0
 17 19  1  0
 18 24  1  0
 19 18  1  0
 20 19  2  0
 21 22  1  0
 21 15  2  0
 22 17  2  0
 23 16  1  0
 24 14  1  0
 26 28  2  0
 27 26  1  0
 29 27  1  0
 30 39  2  0
 30 35  1  0
 31 27  1  0
 31 35  1  0
 32 31  1  0
 33 34  1  0
 33 32  1  0
 34 30  1  0
 35 36  2  0
 36 37  1  0
 38 37  2  0
 39 38  1  0
 40 14  1  0
 40 45  1  0
 40 41  1  0
 41 44  1  1
 41 42  1  0
 43 41  1  0
 45 48  1  0
 46 50  1  0
 46 45  1  0
 47 46  2  0
 50 49  1  0
 52 50  1  0
 52 53  1  0
 52 51  1  0
 54 98  1  0
 54  5  1  0
 56 61  1  0
 57 58  1  0
 57 56  1  0
 59 58  1  0
 59 72  1  0
 59 60  1  0
 61 55  1  0
 61 60  1  0
 62 55  2  0
 63 65  1  0
 63 67  1  0
 64 66  1  0
 65 68  1  0
 67 54  1  0
 67 64  1  0
 68 55  1  0
 68 66  1  0
 69 70  2  0
 70 89  1  0
 71 70  1  0
 71 74  1  0
 72 73  1  0
 72 69  1  0
 73 71  2  0
 74 75  1  0
 75 76  2  0
 77 80  1  0
 77 76  1  0
 78 77  2  0
 79 78  1  0
 79 74  2  0
 80 81  1  0
 81 86  2  0
 81 82  1  0
 82 83  2  0
 83 84  1  0
 84 88  1  0
 85 84  2  0
 86 85  1  0
 87 86  1  0
 89 90  1  0
 90 93  1  0
 90 92  1  0
 91 89  2  0
 94 69  1  0
 94 95  1  0
 96 94  1  0
 97 98  1  0
M  ISO  4  12 101  13 101  55 100  68 100
M  END
>  <TORSDO>  (42) 
F 20

>  <SCORE>  (42) 
-12.388

>  <name>  (42) 
41

>  <ligand_id>  (42) 
41

>  <original_smiles>  (42) 
[H]c1c([H])c([H])c2c(c1[H])C([H])([H])C([H])([H])C([H])([H])C2([H])N([H])C(=O)C1([H])N(C(=O)C([H])(N([H])C(=O)C([H])(N([H])C([H])([H])[H])C([H])([H])[H])C(C([H])([H])[H])(C([H])([H])[H])C([H])([H])[H])C([H])([H])c2c([H])c(OC([H])([H])C([H])(c3c(C([H])(C([H])([H])C([H])([H])[H])C4([H])C([H])([H])C([H])([H])N(C(=O)N5C([H])([H])C([H])([H])C([H])([H])C([H])(n6nc(-c7c([H])c([H])c(Oc8c([H])c([H])c(F)c([H])c8F)c([H])c7[H])c(C(=O)N([H])[H])c6N([H])[H])C5([H])[H])C([H])([H])C4([H])[H])nc(C([H])([H])[H])c(C([H])([H])[H])c3C([H])([H])[H])C([H])([H])[H])c([H])c([H])c2C1([H])[H]

>  <smiles>  (42) 
[H]c1c([H])c([H])c2c(c1[H])C([H])([H])C([H])([H])C([H])([H])C2([H])N([H])C(=O)C1([H])N(C(=O)C([H])(N([H])C(=O)C([H])(N([H])C([H])([H])[H])C([H])([H])[H])C(C([H])([H])[H])(C([H])([H])[H])C([H])([H])[H])C([H])([H])c2c([H])c(OC([H])([H])C([H])(c3c(C([H])(C([H])([H])C([H])([H])[H])C4([H])C([H])([H])C([H])([H])N(C(=O)N5C([H])([H])C([H])([H])C([H])([H])C([H])(n6nc(-c7c([H])c([H])c(Oc8c([H])c([H])c(F)c([H])c8F)c([H])c7[H])c(C(=O)N([H])[H])c6N([H])[H])C5([H])[H])C([H])([H])C4([H])[H])nc(C([H])([H])[H])c(C([H])([H])[H])c3C([H])([H])[H])C([H])([H])[H])c([H])c([H])c2C1([H])[H]

$$$$
42:0:0
     RDKit          3D

 94103  0  0  1  0  0  0  0  0999 V2000
  -29.4010  -23.7250   17.5900 C   0  0  0  0  0  3  0  0  0  0  0  0
  -29.2040  -22.8990   19.8560 C   0  0  0  0  0  3  0  0  0  0  0  0
  -29.0560  -24.0050   18.9240 C   0  0  0  0  0  0  0  0  0  0  0  0
  -29.9990  -22.5280   17.1890 C   0  0  0  0  0  0  0  0  0  0  0  0
  -30.2780  -21.5130   18.1330 C   0  0  0  0  0  0  0  0  0  0  0  0
  -29.7780  -21.6030   19.4680 C   0  0  0  0  0  0  0  0  0  0  0  0
  -30.3890  -22.4010   15.7230 C   0  0  0  0  0  1  0  0  0  0  0  0
  -31.2560  -20.4350   17.6990 C   0  0  0  0  0  1  0  0  0  0  0  0
  -30.0010  -20.5260   20.4150 N   0  0  0  0  0  0  0  0  0  0  0  0
  -30.0170  -20.8930   21.3630 H   0  0  0  0  0  0  0  0  0  0  0  0
  -30.7210  -14.7010   20.1320 C   0  0  0  0  0  0  0  0  0  0  0  0
  -30.4340  -12.4560   19.0780 C   0  0  0  0  0  2  0  0  0  0  0  0
  -29.4390  -12.5460   17.9010 C   0  0  0  0  0  2  0  0  0  0  0  0
  -27.9870  -12.3870   18.3940 C   0  0  0  0  0  2  0  0  0  0  0  0
  -27.6780  -13.2600   19.6390 C   0  0  0  0  0  3  0  0  0  0  0  0
  -28.7860  -13.1580   20.7080 C   0  0  0  0  0  2  0  0  0  0  0  0
  -30.0560  -13.4990   20.0560 N   0  0  0  0  0  0  0  0  0  0  0  0
  -31.8970  -14.7780   19.7630 O   0  0  0  0  0  0  0  0  0  0  0  0
  -30.5530  -18.2360   21.4390 C   0  0  0  0  0  2  0  0  0  0  0  0
  -29.6580  -18.1290   19.1900 C   0  0  0  0  0  2  0  0  0  0  0  0
  -30.2500  -16.6920   21.6440 C   0  0  0  0  0  2  0  0  0  0  0  0
  -29.2220  -16.6320   19.4330 C   0  0  0  0  0  2  0  0  0  0  0  0
  -29.6370  -19.0380   20.4570 C   0  0  0  0  0  3  0  0  0  0  0  0
  -30.0080  -15.8590   20.4350 N   0  0  0  0  0  0  0  0  0  0  0  0
  -25.3380  -13.8610   20.4990 C   0  0  0  0  0  0  0  0  0  0  0  0
  -24.2800  -13.0900   20.8980 C   0  0  0  0  0  0  0  0  0  0  0  0
  -24.7230  -11.7350   20.8090 C   0  0  0  0  0  0  0  0  0  0  0  0
  -26.3570  -12.9760   20.1900 N   0  0  0  0  0  0  0  0  0  0  0  0
  -25.9980  -11.6900   20.4400 N   0  0  0  0  0  0  0  0  0  0  0  0
  -23.9900  -10.4770   20.9950 C   0  0  0  0  0  0  0  0  0  0  0  0
  -24.4230   -9.5010   21.9200 C   0  0  0  0  0  3  0  0  0  0  0  0
  -23.6920   -8.3070   22.0960 C   0  0  0  0  0  3  0  0  0  0  0  0
  -22.5110   -8.0820   21.3500 C   0  0  0  0  0  0  0  0  0  0  0  0
  -22.0950   -9.0470   20.4150 C   0  0  0  0  0  3  0  0  0  0  0  0
  -22.8280  -10.2320   20.2360 C   0  0  0  0  0  3  0  0  0  0  0  0
  -21.7480   -6.9420   21.4380 O   0  0  0  0  0  0  0  0  0  0  0  0
  -21.6660   -6.2180   22.6000 C   0  0  0  0  0  0  0  0  0  0  0  0
  -21.1790   -6.7850   23.7980 C   0  0  0  0  0  3  0  0  0  0  0  0
  -21.0460   -5.9870   24.9510 C   0  0  0  0  0  3  0  0  0  0  0  0
  -21.3910   -4.6220   24.9080 C   0  0  0  0  0  0  0  0  0  0  0  0
  -21.8700   -4.0540   23.7130 C   0  0  0  0  0  3  0  0  0  0  0  0
  -22.0050   -4.8500   22.5630 C   0  0  0  0  0  0  0  0  0  0  0  0
  -22.4480   -4.2930   21.4100 F   0  0  0  0  0  0  0  0  0  0  0  0
  -21.2570   -3.8530   26.0130 F   0  0  0  0  0  0  0  0  0  0  0  0
  -22.9030  -13.5770   21.2450 C   0  0  0  0  0  0  0  0  0  0  0  0
  -22.2020  -12.8670   22.1230 N   0  0  0  0  0  0  0  0  0  0  0  0
  -22.4570  -14.6210   20.7730 O   0  0  0  0  0  0  0  0  0  0  0  0
  -22.5720  -12.0210   22.5290 H   0  0  0  0  0  0  0  0  0  0  0  0
  -21.2790  -13.1770   22.3940 H   0  0  0  0  0  0  0  0  0  0  0  0
  -25.5120  -15.2350   20.3510 N   0  0  0  0  0  0  0  0  0  0  0  0
  -24.7660  -15.9000   20.5250 H   0  0  0  0  0  0  0  0  0  0  0  0
  -26.3610  -15.6710   20.0160 H   0  0  0  0  0  0  0  0  0  0  0  0
  -28.5240  -25.5050   19.0190 C   0  0  0  0  0  2  0  0  0  0  0  0
  -28.2520  -26.3320   20.2050 O   0  0  0  0  0  0  0  0  0  0  0  0
  -24.5870  -31.8170   23.2160 C   0  0  0  0  0  0  0  0  0  0  0  0
  -27.1610  -27.2250   20.1500 C   0  0  0  0  0  0  0  0  0  0  0  0
  -23.3740  -30.4320   21.5740 C   0  0  0  0  0  3  0  0  0  0  0  0
  -24.8120  -28.8740   20.1450 C   0  0  0  0  0  0  0  0  0  0  0  0
  -25.9190  -30.7250   21.3920 C   0  0  0  0  0  2  0  0  0  0  0  0
  -25.9870  -29.3450   20.7440 C   0  0  0  0  0  0  0  0  0  0  0  0
  -27.1630  -28.5290   20.7440 C   0  0  0  0  0  3  0  0  0  0  0  0
  -25.9420  -26.8010   19.5680 C   0  0  0  0  0  3  0  0  0  0  0  0
  -24.7920  -27.6060   19.5500 C   0  0  0  0  0  3  0  0  0  0  0  0
  -23.5840  -29.7600   20.1920 C   0  0  0  0  0  2  0  0  0  0  0  0
  -24.6470  -31.0080   22.1180 N   0  0  0  0  0  0  0  0  0  0  0  0
  -23.5050  -32.1030   23.7480 O   0  0  0  0  0  0  0  0  0  0  0  0
  -22.7010  -29.4170   22.5300 C   0  0  0  0  0  0  0  0  0  0  0  0
  -21.3740  -29.2540   22.4050 N   0  0  0  0  0  0  0  0  0  0  0  0
  -23.3740  -28.7810   23.3470 O   0  0  0  0  0  0  0  0  0  0  0  0
  -20.8910  -29.8210   21.7210 H   0  0  0  0  0  0  0  0  0  0  0  0
  -17.9830  -28.0960   22.9070 C   0  0  0  0  0  0  0  0  0  0  0  0
  -20.5450  -28.3240   23.1730 C   0  0  0  0  0  3  0  0  0  0  0  0
  -20.6260  -26.8930   22.5920 C   0  0  0  0  0  2  0  0  0  0  0  0
  -19.5190  -26.5860   21.5800 C   0  0  0  0  0  2  0  0  0  0  0  0
  -18.1410  -26.7470   22.2260 C   0  0  0  0  0  2  0  0  0  0  0  0
  -19.1110  -28.8430   23.3370 C   0  0  0  0  0  0  0  0  0  0  0  0
  -18.9080  -30.1060   23.9340 C   0  0  0  0  0  3  0  0  0  0  0  0
  -17.6090  -30.6220   24.1050 C   0  0  0  0  0  3  0  0  0  0  0  0
  -16.4960  -29.8720   23.6890 C   0  0  0  0  0  3  0  0  0  0  0  0
  -16.6830  -28.6110   23.0960 C   0  0  0  0  0  3  0  0  0  0  0  0
  -25.8730  -32.4370   23.8420 C   0  0  0  0  0  3  0  0  0  0  0  0
  -25.5740  -33.8370   24.1760 N   0  0  0  0  0  0  0  0  0  0  0  0
  -25.9030  -34.8900   23.4170 C   0  0  0  0  0  0  0  0  0  0  0  0
  -26.5610  -34.7840   22.3780 O   0  0  0  0  0  0  0  0  0  0  0  0
  -24.9880  -33.9930   24.9840 H   0  0  0  0  0  0  0  0  0  0  0  0
  -24.1810  -36.6930   23.0810 C   0  0  0  0  0  1  0  0  0  0  0  0
  -25.4280  -36.2800   23.8810 C   0  0  0  0  0  3  0  0  0  0  0  0
  -27.5710  -37.1550   24.7000 C   0  0  0  0  0  1  0  0  0  0  0  0
  -26.4660  -37.3280   23.7610 N   0  0  0  0  0  0  0  0  0  0  0  0
  -26.0660  -38.2510   23.9070 H   0  0  0  0  0  0  0  0  0  0  0  0
  -26.3800  -31.6590   25.1180 C   0  0  1  0  0  0  0  0  0  0  0  0
  -25.2820  -31.4270   26.1820 C   0  0  0  0  0  1  0  0  0  0  0  0
  -26.9550  -30.2790   24.7230 C   0  0  0  0  0  1  0  0  0  0  0  0
  -27.5350  -32.4440   25.7850 C   0  0  0  0  0  1  0  0  0  0  0  0
  1  3  1  0
  3 53  1  0
  3  2  2  0
  4  1  2  0
  4  5  1  0
  5  6  2  0
  6  2  1  0
  6  9  1  0
  7  4  1  0
  8  5  1  0
  9 10  1  0
 11 24  1  0
 12 17  1  0
 13 14  1  0
 13 12  1  0
 15 14  1  0
 15 28  1  0
 15 16  1  0
 17 11  1  0
 17 16  1  0
 18 11  2  0
 19 21  1  0
 20 22  1  0
 20 23  1  0
 22 24  1  0
 23  9  1  0
 23 19  1  0
 24 21  1  0
 25 26  2  0
 26 45  1  0
 27 26  1  0
 27 30  1  0
 28 29  1  0
 28 25  1  0
 29 27  2  0
 30 31  1  0
 31 32  2  0
 33 36  1  0
 33 32  1  0
 34 33  2  0
 35 34  1  0
 35 30  2  0
 36 37  1  0
 37 38  1  0
 38 39  2  0
 40 39  1  0
 40 44  1  0
 41 40  2  0
 42 37  2  0
 42 41  1  0
 43 42  1  0
 45 46  1  0
 46 49  1  0
 46 48  1  0
 47 45  2  0
 50 25  1  0
 50 51  1  0
 52 50  1  0
 53 54  1  0
 55 66  2  0
 56 54  1  0
 56 61  1  0
 57 65  1  0
 57 67  1  0
 58 64  1  0
 58 60  1  0
 59 65  1  0
 60 61  2  0
 60 59  1  0
 62 56  2  0
 63 62  1  0
 63 58  2  0
 64 57  1  0
 65 55  1  0
 67 69  2  0
 68 67  1  0
 70 68  1  0
 71 80  2  0
 71 76  1  0
 72 68  1  0
 72 76  1  0
 73 72  1  0
 74 75  1  0
 74 73  1  0
 75 71  1  0
 76 77  2  0
 77 78  1  0
 79 78  2  0
 80 79  1  0
 81 55  1  0
 81 82  1  0
 81 91  1  0
 82 85  1  0
 83 87  1  0
 83 82  1  0
 84 83  2  0
 87 86  1  0
 89 87  1  0
 89 90  1  0
 89 88  1  0
 91 94  1  1
 91 92  1  0
 93 91  1  0
M  ISO  4  11 100  24 100  53 101  54 101
M  END
>  <TORSDO>  (43) 
F 18

>  <SCORE>  (43) 
-14.790

>  <name>  (43) 
42

>  <ligand_id>  (43) 
42

>  <original_smiles>  (43) 
[H]c1c([H])c([H])c2c(c1[H])C([H])([H])C([H])([H])C([H])([H])C2([H])N([H])C(=O)C1([H])N(C(=O)C([H])(N([H])C(=O)C([H])(N([H])C([H])([H])[H])C([H])([H])[H])C(C([H])([H])[H])(C([H])([H])[H])C([H])([H])[H])C([H])([H])c2c([H])c(OC([H])([H])c3c([H])c(N([H])C4([H])C([H])([H])C([H])([H])N(C(=O)N5C([H])([H])C([H])([H])C([H])([H])C([H])(n6nc(-c7c([H])c([H])c(Oc8c([H])c([H])c(F)c([H])c8F)c([H])c7[H])c(C(=O)N([H])[H])c6N([H])[H])C5([H])[H])C([H])([H])C4([H])[H])c(C([H])([H])[H])c(C([H])([H])[H])c3[H])c([H])c([H])c2C1([H])[H]

>  <smiles>  (43) 
[H]c1c([H])c([H])c2c(c1[H])C([H])([H])C([H])([H])C([H])([H])C2([H])N([H])C(=O)C1([H])N(C(=O)C([H])(N([H])C(=O)C([H])(N([H])C([H])([H])[H])C([H])([H])[H])C(C([H])([H])[H])(C([H])([H])[H])C([H])([H])[H])C([H])([H])c2c([H])c(OC([H])([H])c3c([H])c(N([H])C4([H])C([H])([H])C([H])([H])N(C(=O)N5C([H])([H])C([H])([H])C([H])([H])C([H])(n6nc(-c7c([H])c([H])c(Oc8c([H])c([H])c(F)c([H])c8F)c([H])c7[H])c(C(=O)N([H])[H])c6N([H])[H])C5([H])[H])C([H])([H])C4([H])[H])c(C([H])([H])[H])c(C([H])([H])[H])c3[H])c([H])c([H])c2C1([H])[H]

$$$$
43:0:0
     RDKit          3D

 96106  0  0  1  0  0  0  0  0999 V2000
  -29.5750  -20.9160   21.6870 C   0  0  0  0  0  2  0  0  0  0  0  0
  -31.2150  -21.6460   19.1010 C   0  0  0  0  0  3  0  0  0  0  0  0
  -28.8290  -21.9790   21.2750 C   0  0  0  0  0  3  0  0  0  0  0  0
  -29.9670  -22.0690   18.8240 C   0  0  0  0  0  0  0  0  0  0  0  0
  -30.5880  -20.0920   20.9890 C   0  0  0  0  0  0  0  0  0  0  0  0
  -31.6790  -20.9900   20.3850 C   0  0  0  0  0  3  0  0  0  0  0  0
  -28.7540  -21.9460   19.7020 C   0  0  0  0  0  3  0  0  0  0  0  0
  -28.1990  -23.0890   20.3920 C   0  0  0  0  0  3  0  0  0  0  0  0
  -29.6390  -22.6250   17.4500 C   0  0  0  0  0  1  0  0  0  0  0  0
  -33.1270  -20.4690   20.3160 C   0  0  0  0  0  1  0  0  0  0  0  0
  -30.4920  -18.8080   21.0530 N   0  0  0  0  0  0  0  0  0  0  0  0
  -28.8010  -24.4920   20.5830 C   0  0  0  0  0  2  0  0  0  0  0  0
  -28.8090  -25.4190   19.3430 C   0  0  0  0  0  2  0  0  0  0  0  0
  -28.6650  -26.8090   19.6990 O   0  0  0  0  0  0  0  0  0  0  0  0
  -24.6300  -31.5930   23.0930 C   0  0  0  0  0  0  0  0  0  0  0  0
  -27.4210  -27.4180   19.7640 C   0  0  0  0  0  0  0  0  0  0  0  0
  -23.4430  -30.1710   21.4540 C   0  0  0  0  0  3  0  0  0  0  0  0
  -24.9300  -28.7780   19.9220 C   0  0  0  0  0  0  0  0  0  0  0  0
  -25.9300  -30.7030   21.1610 C   0  0  0  0  0  2  0  0  0  0  0  0
  -26.0780  -29.3590   20.4750 C   0  0  0  0  0  0  0  0  0  0  0  0
  -27.3200  -28.6870   20.3890 C   0  0  0  0  0  3  0  0  0  0  0  0
  -26.2410  -26.8490   19.2250 C   0  0  0  0  0  3  0  0  0  0  0  0
  -25.0080  -27.5250   19.2990 C   0  0  0  0  0  3  0  0  0  0  0  0
  -23.6360  -29.5490   20.0450 C   0  0  0  0  0  2  0  0  0  0  0  0
  -24.6890  -30.8350   21.9630 N   0  0  0  0  0  0  0  0  0  0  0  0
  -23.5580  -31.7790   23.6860 O   0  0  0  0  0  0  0  0  0  0  0  0
  -22.9020  -29.0800   22.4040 C   0  0  0  0  0  0  0  0  0  0  0  0
  -21.6290  -28.6970   22.2130 N   0  0  0  0  0  0  0  0  0  0  0  0
  -23.6260  -28.5780   23.2670 O   0  0  0  0  0  0  0  0  0  0  0  0
  -21.0990  -29.1640   21.4900 H   0  0  0  0  0  0  0  0  0  0  0  0
  -18.5030  -26.9010   22.4490 C   0  0  0  0  0  0  0  0  0  0  0  0
  -20.9220  -27.6590   22.9620 C   0  0  0  0  0  3  0  0  0  0  0  0
  -21.3510  -26.2470   22.5030 C   0  0  0  0  0  2  0  0  0  0  0  0
  -20.4500  -25.6670   21.4070 C   0  0  0  0  0  2  0  0  0  0  0  0
  -19.0010  -25.5780   21.8940 C   0  0  0  0  0  2  0  0  0  0  0  0
  -19.4040  -27.8830   22.9370 C   0  0  0  0  0  0  0  0  0  0  0  0
  -18.8920  -29.1120   23.4100 C   0  0  0  0  0  3  0  0  0  0  0  0
  -17.5070  -29.3630   23.4020 C   0  0  0  0  0  3  0  0  0  0  0  0
  -16.6170  -28.3810   22.9330 C   0  0  0  0  0  3  0  0  0  0  0  0
  -17.1150  -27.1520   22.4620 C   0  0  0  0  0  3  0  0  0  0  0  0
  -25.9010  -32.2850   23.6820 C   0  0  0  0  0  3  0  0  0  0  0  0
  -26.5130  -31.5100   24.9120 C   0  0  1  0  0  0  0  0  0  0  0  0
  -25.4650  -31.1100   25.9760 C   0  0  0  0  0  1  0  0  0  0  0  0
  -27.2290  -30.2200   24.4450 C   0  0  0  0  0  1  0  0  0  0  0  0
  -27.5870  -32.3830   25.5990 C   0  0  0  0  0  1  0  0  0  0  0  0
  -25.5220  -33.6520   24.0620 N   0  0  0  0  0  0  0  0  0  0  0  0
  -25.7690  -34.7400   23.3200 C   0  0  0  0  0  0  0  0  0  0  0  0
  -26.4110  -34.7010   22.2670 O   0  0  0  0  0  0  0  0  0  0  0  0
  -24.9350  -33.7500   24.8770 H   0  0  0  0  0  0  0  0  0  0  0  0
  -23.9360  -36.4400   23.0570 C   0  0  0  0  0  1  0  0  0  0  0  0
  -25.2160  -36.0850   23.8280 C   0  0  0  0  0  3  0  0  0  0  0  0
  -27.3140  -37.0680   24.6380 C   0  0  0  0  0  1  0  0  0  0  0  0
  -26.1850  -37.1970   23.7210 N   0  0  0  0  0  0  0  0  0  0  0  0
  -25.7310  -38.0900   23.9000 H   0  0  0  0  0  0  0  0  0  0  0  0
  -31.4870  -17.8520   20.5500 C   0  0  0  0  0  2  0  0  0  0  0  0
  -30.8650  -14.5440   19.6390 C   0  0  0  0  0  0  0  0  0  0  0  0
  -30.4710  -12.4000   18.4340 C   0  0  0  0  0  2  0  0  0  0  0  0
  -29.3330  -12.5300   17.3950 C   0  0  0  0  0  2  0  0  0  0  0  0
  -27.9470  -12.3510   18.0470 C   0  0  0  0  0  2  0  0  0  0  0  0
  -27.7950  -13.1720   19.3530 C   0  0  0  0  0  3  0  0  0  0  0  0
  -29.0140  -12.8920   20.2690 C   0  0  0  0  0  2  0  0  0  0  0  0
  -30.2060  -13.3450   19.5400 N   0  0  0  0  0  0  0  0  0  0  0  0
  -31.8760  -14.7530   18.9550 O   0  0  0  0  0  0  0  0  0  0  0  0
  -29.4150  -16.1860   22.5860 C   0  0  0  0  0  2  0  0  0  0  0  0
  -30.9220  -16.4480   22.6720 C   0  0  0  0  0  2  0  0  0  0  0  0
  -29.1580  -15.8520   21.1110 C   0  0  0  0  0  2  0  0  0  0  0  0
  -31.3970  -16.4270   21.2100 C   0  0  0  0  0  3  0  0  0  0  0  0
  -30.4700  -15.4790   20.5650 N   0  0  0  0  0  0  0  0  0  0  0  0
  -25.5700  -13.7770   20.5080 C   0  0  0  0  0  0  0  0  0  0  0  0
  -24.5440  -12.9950   20.9650 C   0  0  0  0  0  0  0  0  0  0  0  0
  -24.9330  -11.6450   20.7080 C   0  0  0  0  0  0  0  0  0  0  0  0
  -26.5280  -12.8960   20.0200 N   0  0  0  0  0  0  0  0  0  0  0  0
  -26.1520  -11.6050   20.1890 N   0  0  0  0  0  0  0  0  0  0  0  0
  -24.1980  -10.3870   20.8720 C   0  0  0  0  0  0  0  0  0  0  0  0
  -24.6720   -9.3620   21.7170 C   0  0  0  0  0  3  0  0  0  0  0  0
  -23.9380   -8.1660   21.8730 C   0  0  0  0  0  3  0  0  0  0  0  0
  -22.7170   -7.9890   21.1820 C   0  0  0  0  0  0  0  0  0  0  0  0
  -22.2630   -9.0030   20.3220 C   0  0  0  0  0  3  0  0  0  0  0  0
  -22.9970  -10.1920   20.1650 C   0  0  0  0  0  3  0  0  0  0  0  0
  -21.9490   -6.8530   21.2520 O   0  0  0  0  0  0  0  0  0  0  0  0
  -21.8610   -6.1150   22.4020 C   0  0  0  0  0  0  0  0  0  0  0  0
  -21.4410   -6.6870   23.6240 C   0  0  0  0  0  3  0  0  0  0  0  0
  -21.2970   -5.8770   24.7660 C   0  0  0  0  0  3  0  0  0  0  0  0
  -21.5630   -4.4970   24.6910 C   0  0  0  0  0  0  0  0  0  0  0  0
  -21.9780   -3.9250   23.4750 C   0  0  0  0  0  3  0  0  0  0  0  0
  -22.1230   -4.7310   22.3340 C   0  0  0  0  0  0  0  0  0  0  0  0
  -22.5020   -4.1730   21.1600 F   0  0  0  0  0  0  0  0  0  0  0  0
  -21.4180   -3.7170   25.7880 F   0  0  0  0  0  0  0  0  0  0  0  0
  -23.2330  -13.4680   21.5210 C   0  0  0  0  0  0  0  0  0  0  0  0
  -22.6660  -12.7260   22.4660 N   0  0  0  0  0  0  0  0  0  0  0  0
  -22.7270  -14.5290   21.1530 O   0  0  0  0  0  0  0  0  0  0  0  0
  -23.0850  -11.8620   22.7750 H   0  0  0  0  0  0  0  0  0  0  0  0
  -21.7990  -13.0290   22.8890 H   0  0  0  0  0  0  0  0  0  0  0  0
  -25.7640  -15.1540   20.4470 N   0  0  0  0  0  0  0  0  0  0  0  0
  -25.0580  -15.8170   20.7500 H   0  0  0  0  0  0  0  0  0  0  0  0
  -26.5690  -15.6010   20.0270 H   0  0  0  0  0  0  0  0  0  0  0  0
  2  6  1  0
  3  1  1  0
  4  2  2  0
  5 11  2  0
  5  1  1  0
  6 10  1  0
  6  5  1  0
  7  4  1  0
  7  8  1  0
  7  3  1  0
  8 12  1  0
  8  3  1  0
  9  4  1  0
 13 14  1  0
 13 12  1  0
 14 16  1  0
 15 26  2  0
 16 21  1  0
 17 25  1  0
 17 27  1  0
 18 24  1  0
 18 20  1  0
 19 25  1  0
 20 19  1  0
 21 20  2  0
 22 23  1  0
 22 16  2  0
 23 18  2  0
 24 17  1  0
 25 15  1  0
 27 29  2  0
 28 27  1  0
 30 28  1  0
 31 40  2  0
 31 36  1  0
 32 28  1  0
 33 32  1  0
 34 35  1  0
 34 33  1  0
 35 31  1  0
 36 32  1  0
 36 37  2  0
 38 37  1  0
 39 38  2  0
 40 39  1  0
 41 15  1  0
 41 46  1  0
 41 42  1  0
 42 45  1  1
 42 43  1  0
 44 42  1  0
 46 49  1  0
 47 51  1  0
 47 46  1  0
 48 47  2  0
 51 50  1  0
 53 51  1  0
 53 54  1  0
 53 52  1  0
 55 11  1  0
 56 68  1  0
 57 62  1  0
 58 59  1  0
 58 57  1  0
 60 59  1  0
 60 72  1  0
 60 61  1  0
 62 56  1  0
 62 61  1  0
 63 56  2  0
 64 65  1  0
 66 64  1  0
 67 55  1  0
 67 65  1  0
 68 66  1  0
 68 67  1  0
 69 70  2  0
 70 89  1  0
 71 74  1  0
 71 70  1  0
 72 73  1  0
 72 69  1  0
 73 71  2  0
 74 75  1  0
 75 76  2  0
 77 80  1  0
 77 76  1  0
 78 77  2  0
 79 78  1  0
 79 74  2  0
 80 81  1  0
 81 82  1  0
 82 83  2  0
 84 83  1  0
 84 88  1  0
 85 84  2  0
 86 81  2  0
 86 85  1  0
 87 86  1  0
 89 90  1  0
 90 92  1  0
 90 93  1  0
 91 89  2  0
 94 69  1  0
 94 95  1  0
 96 94  1  0
M  ISO  4  13 101  14 101  56 100  68 100
M  END
>  <TORSDO>  (44) 
F 19

>  <SCORE>  (44) 
-10.342

>  <name>  (44) 
43

>  <ligand_id>  (44) 
43

>  <original_smiles>  (44) 
[H]C1=C2C([H])(C(C([H])([H])[H])=C([H])C([H])(C([H])([H])[H])C1=NC([H])([H])C1([H])N(C(=O)N3C([H])([H])C([H])([H])C([H])([H])C([H])(n4nc(-c5c([H])c([H])c(Oc6c([H])c([H])c(F)c([H])c6F)c([H])c5[H])c(C(=O)N([H])[H])c4N([H])[H])C3([H])[H])C([H])([H])C([H])([H])C1([H])[H])C2([H])C([H])([H])C([H])([H])Oc1c([H])c([H])c2c(c1[H])C([H])([H])N(C(=O)C([H])(N([H])C(=O)C([H])(N([H])C([H])([H])[H])C([H])([H])[H])C(C([H])([H])[H])(C([H])([H])[H])C([H])([H])[H])C([H])(C(=O)N([H])C1([H])c3c([H])c([H])c([H])c([H])c3C([H])([H])C([H])([H])C1([H])[H])C2([H])[H]

>  <smiles>  (44) 
[H]C1=C2C([H])(C(C([H])([H])[H])=C([H])C([H])(C([H])([H])[H])C1=NC([H])([H])C1([H])N(C(=O)N3C([H])([H])C([H])([H])C([H])([H])C([H])(n4nc(-c5c([H])c([H])c(Oc6c([H])c([H])c(F)c([H])c6F)c([H])c5[H])c(C(=O)N([H])[H])c4N([H])[H])C3([H])[H])C([H])([H])C([H])([H])C1([H])[H])C2([H])C([H])([H])C([H])([H])Oc1c([H])c([H])c2c(c1[H])C([H])([H])N(C(=O)C([H])(N([H])C(=O)C([H])(N([H])C([H])([H])[H])C([H])([H])[H])C(C([H])([H])[H])(C([H])([H])[H])C([H])([H])[H])C([H])(C(=O)N([H])C1([H])c3c([H])c([H])c([H])c([H])c3C([H])([H])C([H])([H])C1([H])[H])C2([H])[H]

$$$$
44:0:0
     RDKit          3D

 92101  0  0  1  0  0  0  0  0999 V2000
  -27.9520  -22.7370   20.7160 C   0  0  0  0  0  3  0  0  0  0  0  0
  -29.6110  -20.9760   20.1330 C   0  0  0  0  0  0  0  0  0  0  0  0
  -28.3010  -21.3590   20.5580 C   0  0  0  0  0  0  0  0  0  0  0  0
  -28.8550  -23.8050   20.4670 C   0  0  0  0  0  0  0  0  0  0  0  0
  -30.4460  -22.1210   19.8610 C   0  0  0  0  0  0  0  0  0  0  0  0
  -27.2430  -20.3320   20.9130 C   0  0  0  0  0  1  0  0  0  0  0  0
  -31.8680  -21.9420   19.3610 C   0  0  0  0  0  1  0  0  0  0  0  0
  -30.0960  -23.4500   20.0310 N   0  0  0  0  0  0  0  0  0  0  0  0
  -31.1880  -15.0200   19.9340 C   0  0  0  0  0  0  0  0  0  0  0  0
  -30.9110  -12.7460   18.9390 C   0  0  0  0  0  2  0  0  0  0  0  0
  -29.9030  -12.8010   17.7750 C   0  0  0  0  0  2  0  0  0  0  0  0
  -28.4650  -12.6180   18.2980 C   0  0  0  0  0  2  0  0  0  0  0  0
  -28.1590  -13.5020   19.5380 C   0  0  0  0  0  3  0  0  0  0  0  0
  -29.2880  -13.4540   20.5880 C   0  0  0  0  0  2  0  0  0  0  0  0
  -30.5300  -13.8090   19.8990 N   0  0  0  0  0  0  0  0  0  0  0  0
  -32.3700  -15.0650   19.5780 O   0  0  0  0  0  0  0  0  0  0  0  0
  -30.2350  -18.5700   21.3160 C   0  0  0  0  0  2  0  0  0  0  0  0
  -29.4480  -18.4440   19.0430 C   0  0  0  0  0  2  0  0  0  0  0  0
  -30.9880  -17.1840   21.1430 C   0  0  0  0  0  2  0  0  0  0  0  0
  -30.1610  -17.0240   18.8880 C   0  0  0  0  0  2  0  0  0  0  0  0
  -30.1400  -19.4410   20.0250 C   0  0  0  0  0  3  0  0  0  0  0  0
  -30.4810  -16.2190   20.1150 N   0  0  0  0  0  0  0  0  0  0  0  0
  -25.8490  -14.0640   20.4860 C   0  0  0  0  0  0  0  0  0  0  0  0
  -24.8000  -13.2780   20.8830 C   0  0  0  0  0  0  0  0  0  0  0  0
  -25.2400  -11.9260   20.7330 C   0  0  0  0  0  0  0  0  0  0  0  0
  -26.8560  -13.1910   20.1150 N   0  0  0  0  0  0  0  0  0  0  0  0
  -26.5040  -11.8960   20.3290 N   0  0  0  0  0  0  0  0  0  0  0  0
  -24.5090  -10.6620   20.8950 C   0  0  0  0  0  0  0  0  0  0  0  0
  -24.8620   -9.7260   21.8920 C   0  0  0  0  0  3  0  0  0  0  0  0
  -24.1300   -8.5270   22.0410 C   0  0  0  0  0  3  0  0  0  0  0  0
  -23.0310   -8.2570   21.1920 C   0  0  0  0  0  0  0  0  0  0  0  0
  -22.6990   -9.1820   20.1870 C   0  0  0  0  0  3  0  0  0  0  0  0
  -23.4310  -10.3710   20.0360 C   0  0  0  0  0  3  0  0  0  0  0  0
  -22.2790   -7.1080   21.2470 O   0  0  0  0  0  0  0  0  0  0  0  0
  -21.9430   -6.5250   22.4420 C   0  0  0  0  0  0  0  0  0  0  0  0
  -21.1680   -7.2010   23.4100 C   0  0  0  0  0  3  0  0  0  0  0  0
  -20.7850   -6.5400   24.5940 C   0  0  0  0  0  3  0  0  0  0  0  0
  -21.1670   -5.2020   24.8090 C   0  0  0  0  0  0  0  0  0  0  0  0
  -21.9340   -4.5250   23.8450 C   0  0  0  0  0  3  0  0  0  0  0  0
  -22.3170   -5.1840   22.6630 C   0  0  0  0  0  0  0  0  0  0  0  0
  -23.0380   -4.5200   21.7270 F   0  0  0  0  0  0  0  0  0  0  0  0
  -20.7940   -4.5640   25.9430 F   0  0  0  0  0  0  0  0  0  0  0  0
  -23.4340  -13.7520   21.2850 C   0  0  0  0  0  0  0  0  0  0  0  0
  -22.7640  -13.0140   22.1620 N   0  0  0  0  0  0  0  0  0  0  0  0
  -22.9750  -14.8110   20.8590 O   0  0  0  0  0  0  0  0  0  0  0  0
  -23.1490  -12.1550   22.5250 H   0  0  0  0  0  0  0  0  0  0  0  0
  -21.8500  -13.3120   22.4740 H   0  0  0  0  0  0  0  0  0  0  0  0
  -26.0240  -15.4410   20.3860 N   0  0  0  0  0  0  0  0  0  0  0  0
  -25.2890  -16.1030   20.6050 H   0  0  0  0  0  0  0  0  0  0  0  0
  -26.8720  -15.8840   20.0570 H   0  0  0  0  0  0  0  0  0  0  0  0
  -28.4690  -25.2910   20.9480 C   0  0  0  0  0  2  0  0  0  0  0  0
  -28.7070  -26.5790   20.2150 O   0  0  0  0  0  0  0  0  0  0  0  0
  -24.6290  -31.8090   23.2220 C   0  0  0  0  0  0  0  0  0  0  0  0
  -27.6010  -27.4530   20.1650 C   0  0  0  0  0  0  0  0  0  0  0  0
  -23.5770  -30.4000   21.4910 C   0  0  0  0  0  3  0  0  0  0  0  0
  -25.1700  -28.9700   20.0860 C   0  0  0  0  0  0  0  0  0  0  0  0
  -26.1050  -30.8490   21.4340 C   0  0  0  0  0  2  0  0  0  0  0  0
  -26.2890  -29.4940   20.7490 C   0  0  0  0  0  0  0  0  0  0  0  0
  -27.5130  -28.7500   20.7760 C   0  0  0  0  0  3  0  0  0  0  0  0
  -26.4620  -26.9940   19.4750 C   0  0  0  0  0  3  0  0  0  0  0  0
  -25.2610  -27.7290   19.4370 C   0  0  0  0  0  3  0  0  0  0  0  0
  -23.8880  -29.7800   20.1050 C   0  0  0  0  0  2  0  0  0  0  0  0
  -24.7860  -31.0360   22.1070 N   0  0  0  0  0  0  0  0  0  0  0  0
  -23.5080  -32.0140   23.7120 O   0  0  0  0  0  0  0  0  0  0  0  0
  -22.9250  -29.3230   22.3910 C   0  0  0  0  0  0  0  0  0  0  0  0
  -21.6090  -29.1050   22.2220 N   0  0  0  0  0  0  0  0  0  0  0  0
  -23.6030  -28.6870   23.2020 O   0  0  0  0  0  0  0  0  0  0  0  0
  -21.1210  -29.6740   21.5440 H   0  0  0  0  0  0  0  0  0  0  0  0
  -18.2480  -27.8340   22.6560 C   0  0  0  0  0  0  0  0  0  0  0  0
  -20.8050  -28.1080   22.9300 C   0  0  0  0  0  3  0  0  0  0  0  0
  -20.9200  -26.7200   22.2580 C   0  0  0  0  0  2  0  0  0  0  0  0
  -19.8160  -26.4530   21.2300 C   0  0  0  0  0  2  0  0  0  0  0  0
  -18.4360  -26.5370   21.8880 C   0  0  0  0  0  2  0  0  0  0  0  0
  -19.3600  -28.5800   23.1300 C   0  0  0  0  0  0  0  0  0  0  0  0
  -19.1280  -29.7970   23.8070 C   0  0  0  0  0  3  0  0  0  0  0  0
  -17.8180  -30.2700   24.0130 C   0  0  0  0  0  3  0  0  0  0  0  0
  -16.7210  -29.5200   23.5540 C   0  0  0  0  0  3  0  0  0  0  0  0
  -16.9370  -28.3030   22.8830 C   0  0  0  0  0  3  0  0  0  0  0  0
  -25.8450  -32.4910   23.9210 C   0  0  0  0  0  3  0  0  0  0  0  0
  -25.4670  -33.8790   24.2200 N   0  0  0  0  0  0  0  0  0  0  0  0
  -25.7870  -34.9360   23.4620 C   0  0  0  0  0  0  0  0  0  0  0  0
  -26.5010  -34.8470   22.4590 O   0  0  0  0  0  0  0  0  0  0  0  0
  -24.8360  -34.0190   24.9950 H   0  0  0  0  0  0  0  0  0  0  0  0
  -23.9960  -36.6500   23.0280 C   0  0  0  0  0  1  0  0  0  0  0  0
  -25.2280  -36.3100   23.8820 C   0  0  0  0  0  3  0  0  0  0  0  0
  -27.2900  -37.3040   24.7710 C   0  0  0  0  0  1  0  0  0  0  0  0
  -26.2170  -37.4050   23.7850 N   0  0  0  0  0  0  0  0  0  0  0  0
  -25.7650  -38.3080   23.9030 H   0  0  0  0  0  0  0  0  0  0  0  0
  -26.3010  -31.7470   25.2370 C   0  0  1  0  0  0  0  0  0  0  0  0
  -25.1440  -31.4540   26.2200 C   0  0  0  0  0  1  0  0  0  0  0  0
  -26.9810  -30.4010   24.8960 C   0  0  0  0  0  1  0  0  0  0  0  0
  -27.3580  -32.5980   25.9780 C   0  0  0  0  0  1  0  0  0  0  0  0
  2  3  2  0
  3  1  1  0
  3  6  1  0
  4  1  2  0
  4 51  1  0
  5  8  2  0
  5  2  1  0
  7  5  1  0
  8  4  1  0
  9 22  1  0
 10 15  1  0
 11 12  1  0
 11 10  1  0
 13 12  1  0
 13 26  1  0
 13 14  1  0
 15  9  1  0
 15 14  1  0
 16  9  2  0
 18 21  1  0
 19 17  1  0
 20 18  1  0
 20 22  1  0
 21  2  1  0
 21 17  1  0
 22 19  1  0
 23 24  2  0
 24 43  1  0
 25 24  1  0
 25 28  1  0
 26 27  1  0
 26 23  1  0
 27 25  2  0
 28 29  1  0
 29 30  2  0
 31 34  1  0
 31 30  1  0
 32 31  2  0
 33 32  1  0
 33 28  2  0
 34 35  1  0
 35 40  2  0
 35 36  1  0
 36 37  2  0
 37 38  1  0
 38 42  1  0
 39 38  2  0
 40 39  1  0
 41 40  1  0
 43 44  1  0
 44 47  1  0
 44 46  1  0
 45 43  2  0
 48 23  1  0
 48 49  1  0
 50 48  1  0
 52 51  1  0
 53 64  2  0
 54 52  1  0
 54 59  1  0
 55 63  1  0
 55 65  1  0
 56 62  1  0
 56 58  1  0
 57 63  1  0
 58 59  2  0
 58 57  1  0
 60 54  2  0
 61 60  1  0
 61 56  2  0
 62 55  1  0
 63 53  1  0
 65 67  2  0
 66 65  1  0
 68 66  1  0
 69 78  2  0
 69 74  1  0
 70 66  1  0
 70 74  1  0
 71 70  1  0
 72 73  1  0
 72 71  1  0
 73 69  1  0
 74 75  2  0
 75 76  1  0
 77 76  2  0
 78 77  1  0
 79 53  1  0
 79 80  1  0
 79 89  1  0
 80 83  1  0
 81 85  1  0
 81 80  1  0
 82 81  2  0
 85 84  1  0
 87 85  1  0
 87 88  1  0
 87 86  1  0
 89 92  1  1
 89 90  1  0
 91 89  1  0
M  ISO  4   9 100  22 100  51 101  52 101
M  END
>  <TORSDO>  (45) 
F 17

>  <SCORE>  (45) 
-12.711

>  <name>  (45) 
44

>  <ligand_id>  (45) 
44

>  <original_smiles>  (45) 
[H]c1c([H])c([H])c2c(c1[H])C([H])([H])C([H])([H])C([H])([H])C2([H])N([H])C(=O)C1([H])N(C(=O)C([H])(N([H])C(=O)C([H])(N([H])C([H])([H])[H])C([H])([H])[H])C(C([H])([H])[H])(C([H])([H])[H])C([H])([H])[H])C([H])([H])c2c([H])c(OC([H])([H])c3nc(C([H])([H])[H])c(C4([H])C([H])([H])C([H])([H])N(C(=O)N5C([H])([H])C([H])([H])C([H])([H])C([H])(n6nc(-c7c([H])c([H])c(Oc8c([H])c([H])c(F)c([H])c8F)c([H])c7[H])c(C(=O)N([H])[H])c6N([H])[H])C5([H])[H])C([H])([H])C4([H])[H])c(C([H])([H])[H])c3[H])c([H])c([H])c2C1([H])[H]

>  <smiles>  (45) 
[H]c1c([H])c([H])c2c(c1[H])C([H])([H])C([H])([H])C([H])([H])C2([H])N([H])C(=O)C1([H])N(C(=O)C([H])(N([H])C(=O)C([H])(N([H])C([H])([H])[H])C([H])([H])[H])C(C([H])([H])[H])(C([H])([H])[H])C([H])([H])[H])C([H])([H])c2c([H])c(OC([H])([H])c3nc(C([H])([H])[H])c(C4([H])C([H])([H])C([H])([H])N(C(=O)N5C([H])([H])C([H])([H])C([H])([H])C([H])(n6nc(-c7c([H])c([H])c(Oc8c([H])c([H])c(F)c([H])c8F)c([H])c7[H])c(C(=O)N([H])[H])c6N([H])[H])C5([H])[H])C([H])([H])C4([H])[H])c(C([H])([H])[H])c3[H])c([H])c([H])c2C1([H])[H]

$$$$
45:0:0
     RDKit          3D

 95104  0  0  1  0  0  0  0  0999 V2000
  -28.7050  -21.7660   20.5420 N   0  0  0  0  0  4  0  0  0  0  0  0
  -27.8340  -21.5320   21.0100 H   0  0  0  0  0  0  0  0  0  0  0  0
  -31.4240  -18.2310   20.4780 C   0  0  0  0  0  3  0  0  0  0  0  0
  -29.1800  -19.0890   20.4120 C   0  0  0  0  0  3  0  0  0  0  0  0
  -31.8860  -19.5650   20.5450 C   0  0  0  0  0  0  0  0  0  0  0  0
  -30.0680  -17.8710   20.4130 C   0  0  0  0  0  0  0  0  0  0  0  0
  -29.5940  -20.5440   20.4300 C   0  0  0  0  0  0  0  0  0  0  0  0
  -31.0150  -20.7050   20.4710 C   0  0  0  0  0  0  0  0  0  0  0  0
  -33.3820  -19.7010   20.8090 C   0  0  0  0  0  1  0  0  0  0  0  0
  -30.4960  -15.1320   20.1580 C   0  0  0  0  0  0  0  0  0  0  0  0
  -30.3360  -12.8200   19.0900 C   0  0  0  0  0  2  0  0  0  0  0  0
  -29.3420  -12.8260   17.9050 C   0  0  0  0  0  2  0  0  0  0  0  0
  -27.9090  -12.5660   18.4010 C   0  0  0  0  0  2  0  0  0  0  0  0
  -27.5560  -13.4140   19.6510 C   0  0  0  0  0  3  0  0  0  0  0  0
  -28.6710  -13.3910   20.7170 C   0  0  0  0  0  2  0  0  0  0  0  0
  -29.8930  -13.8700   20.0600 N   0  0  0  0  0  0  0  0  0  0  0  0
  -31.6880  -15.1640   19.8370 O   0  0  0  0  0  0  0  0  0  0  0  0
  -29.7400  -16.3420   20.4000 N   0  0  0  0  0  0  0  0  0  0  0  0
  -28.7690  -16.1370   20.5820 H   0  0  0  0  0  0  0  0  0  0  0  0
  -25.2050  -13.9150   20.5170 C   0  0  0  0  0  0  0  0  0  0  0  0
  -24.1750  -13.1040   20.9090 C   0  0  0  0  0  0  0  0  0  0  0  0
  -24.6660  -11.7650   20.8130 C   0  0  0  0  0  0  0  0  0  0  0  0
  -26.2530  -13.0670   20.2020 N   0  0  0  0  0  0  0  0  0  0  0  0
  -25.9430  -11.7670   20.4470 N   0  0  0  0  0  0  0  0  0  0  0  0
  -23.9720  -10.4820   20.9930 C   0  0  0  0  0  0  0  0  0  0  0  0
  -24.4300   -9.5180   21.9170 C   0  0  0  0  0  3  0  0  0  0  0  0
  -23.7350   -8.3020   22.0870 C   0  0  0  0  0  3  0  0  0  0  0  0
  -22.5660   -8.0410   21.3320 C   0  0  0  0  0  0  0  0  0  0  0  0
  -22.1270   -8.9950   20.3960 C   0  0  0  0  0  3  0  0  0  0  0  0
  -22.8240  -10.2020   20.2250 C   0  0  0  0  0  3  0  0  0  0  0  0
  -21.8400   -6.8780   21.4110 O   0  0  0  0  0  0  0  0  0  0  0  0
  -21.7760   -6.1460   22.5700 C   0  0  0  0  0  0  0  0  0  0  0  0
  -21.2530   -6.6880   23.7640 C   0  0  0  0  0  3  0  0  0  0  0  0
  -21.1430   -5.8810   24.9140 C   0  0  0  0  0  3  0  0  0  0  0  0
  -21.5430   -4.5310   24.8680 C   0  0  0  0  0  0  0  0  0  0  0  0
  -22.0570   -3.9890   23.6780 C   0  0  0  0  0  3  0  0  0  0  0  0
  -22.1700   -4.7940   22.5310 C   0  0  0  0  0  0  0  0  0  0  0  0
  -22.6470   -4.2600   21.3810 F   0  0  0  0  0  0  0  0  0  0  0  0
  -21.4290   -3.7520   25.9700 F   0  0  0  0  0  0  0  0  0  0  0  0
  -22.7820  -13.5430   21.2510 C   0  0  0  0  0  0  0  0  0  0  0  0
  -22.1050  -12.8050   22.1240 N   0  0  0  0  0  0  0  0  0  0  0  0
  -22.3030  -14.5730   20.7820 O   0  0  0  0  0  0  0  0  0  0  0  0
  -22.5070  -11.9710   22.5250 H   0  0  0  0  0  0  0  0  0  0  0  0
  -21.1700  -13.0790   22.3960 H   0  0  0  0  0  0  0  0  0  0  0  0
  -25.3310  -15.2940   20.3760 N   0  0  0  0  0  0  0  0  0  0  0  0
  -24.5500  -15.9210   20.5390 H   0  0  0  0  0  0  0  0  0  0  0  0
  -26.1360  -15.7600   19.9790 H   0  0  0  0  0  0  0  0  0  0  0  0
  -32.6320  -22.3170   19.7190 C   0  0  0  0  0  1  0  0  0  0  0  0
  -31.5180  -21.9890   20.5540 O   0  0  0  0  0  0  0  0  0  0  0  0
  -28.5370  -23.1900   19.8300 C   0  0  0  0  0  0  0  0  0  0  0  0
  -29.3120  -22.5270   17.3820 C   0  0  0  0  0  2  0  0  0  0  0  0
  -28.7850  -23.9390   17.3310 C   0  0  0  0  0  2  0  0  0  0  0  0
  -29.4050  -23.4110   18.6090 C   0  0  0  0  0  3  0  0  0  0  0  0
  -28.1760  -24.6920   20.5910 C   0  0  0  0  0  2  0  0  0  0  0  0
  -28.2960  -26.1850   20.0840 O   0  0  0  0  0  0  0  0  0  0  0  0
  -24.6340  -31.8910   23.1450 C   0  0  0  0  0  0  0  0  0  0  0  0
  -27.2220  -27.1620   20.1020 C   0  0  0  0  0  0  0  0  0  0  0  0
  -23.4370  -30.4950   21.5040 C   0  0  0  0  0  3  0  0  0  0  0  0
  -24.8880  -28.9170   20.0780 C   0  0  0  0  0  0  0  0  0  0  0  0
  -25.9910  -30.7620   21.3350 C   0  0  0  0  0  2  0  0  0  0  0  0
  -26.0700  -29.3660   20.6820 C   0  0  0  0  0  0  0  0  0  0  0  0
  -27.2390  -28.5070   20.6680 C   0  0  0  0  0  3  0  0  0  0  0  0
  -26.0110  -26.8180   19.4680 C   0  0  0  0  0  3  0  0  0  0  0  0
  -24.8730  -27.6590   19.4530 C   0  0  0  0  0  3  0  0  0  0  0  0
  -23.6600  -29.8160   20.1240 C   0  0  0  0  0  2  0  0  0  0  0  0
  -24.7080  -31.0730   22.0500 N   0  0  0  0  0  0  0  0  0  0  0  0
  -23.5490  -32.1700   23.6760 O   0  0  0  0  0  0  0  0  0  0  0  0
  -22.7600  -29.4870   22.4650 C   0  0  0  0  0  0  0  0  0  0  0  0
  -21.4350  -29.3020   22.3300 N   0  0  0  0  0  0  0  0  0  0  0  0
  -23.4310  -28.8720   23.2980 O   0  0  0  0  0  0  0  0  0  0  0  0
  -20.9500  -29.8500   21.6340 H   0  0  0  0  0  0  0  0  0  0  0  0
  -18.0680  -28.0520   22.8040 C   0  0  0  0  0  0  0  0  0  0  0  0
  -20.6190  -28.3580   23.0960 C   0  0  0  0  0  3  0  0  0  0  0  0
  -20.7480  -26.9240   22.5320 C   0  0  0  0  0  2  0  0  0  0  0  0
  -19.6630  -26.5770   21.5070 C   0  0  0  0  0  2  0  0  0  0  0  0
  -18.2730  -26.7020   22.1350 C   0  0  0  0  0  2  0  0  0  0  0  0
  -19.1690  -28.8360   23.2410 C   0  0  0  0  0  0  0  0  0  0  0  0
  -18.9220  -30.0960   23.8260 C   0  0  0  0  0  3  0  0  0  0  0  0
  -17.6070  -30.5740   23.9790 C   0  0  0  0  0  3  0  0  0  0  0  0
  -16.5200  -29.7880   23.5570 C   0  0  0  0  0  3  0  0  0  0  0  0
  -16.7510  -28.5290   22.9750 C   0  0  0  0  0  3  0  0  0  0  0  0
  -25.9100  -32.5310   23.7740 C   0  0  0  0  0  3  0  0  0  0  0  0
  -25.5900  -33.9240   24.1230 N   0  0  0  0  0  0  0  0  0  0  0  0
  -25.9110  -34.9920   23.3820 C   0  0  0  0  0  0  0  0  0  0  0  0
  -26.5770  -34.9090   22.3460 O   0  0  0  0  0  0  0  0  0  0  0  0
  -24.9960  -34.0620   24.9280 H   0  0  0  0  0  0  0  0  0  0  0  0
  -24.1830  -36.7940   23.0570 C   0  0  0  0  0  1  0  0  0  0  0  0
  -25.4210  -36.3730   23.8660 C   0  0  0  0  0  3  0  0  0  0  0  0
  -27.5460  -37.2530   24.7300 C   0  0  0  0  0  1  0  0  0  0  0  0
  -26.4520  -37.4300   23.7770 N   0  0  0  0  0  0  0  0  0  0  0  0
  -26.0430  -38.3480   23.9310 H   0  0  0  0  0  0  0  0  0  0  0  0
  -26.4300  -31.7530   25.0460 C   0  0  1  0  0  0  0  0  0  0  0  0
  -25.3380  -31.5000   26.1120 C   0  0  0  0  0  1  0  0  0  0  0  0
  -27.0220  -30.3810   24.6490 C   0  0  0  0  0  1  0  0  0  0  0  0
  -27.5750  -32.5490   25.7140 C   0  0  0  0  0  1  0  0  0  0  0  0
  1  2  1  0
  3  5  1  0
  4  6  1  0
  4  7  2  0
  5  9  1  0
  6  3  2  0
  7  8  1  0
  7  1  1  0
  8  5  2  0
  8 49  1  0
 10 18  1  0
 11 16  1  0
 12 13  1  0
 12 11  1  0
 14 13  1  0
 14 23  1  0
 14 15  1  0
 16 10  1  0
 16 15  1  0
 17 10  2  0
 18  6  1  0
 18 19  1  0
 20 21  2  0
 21 40  1  0
 22 21  1  0
 22 25  1  0
 23 24  1  0
 23 20  1  0
 24 22  2  0
 25 26  1  0
 26 27  2  0
 28 31  1  0
 28 27  1  0
 29 28  2  0
 30 29  1  0
 30 25  2  0
 31 32  1  0
 32 33  1  0
 33 34  2  0
 35 34  1  0
 35 39  1  0
 36 35  2  0
 37 32  2  0
 37 36  1  0
 38 37  1  0
 40 41  1  0
 41 44  1  0
 41 43  1  0
 42 40  2  0
 45 20  1  0
 45 46  1  0
 47 45  1  0
 48 49  1  0
 50  1  2  0
 50 54  1  0
 51 53  1  0
 52 51  1  0
 52 53  1  0
 53 50  1  0
 55 57  1  0
 55 54  1  0
 56 67  2  0
 57 62  1  0
 58 66  1  0
 58 68  1  0
 59 65  1  0
 59 61  1  0
 60 66  1  0
 61 60  1  0
 62 61  2  0
 63 57  2  0
 64 63  1  0
 64 59  2  0
 65 58  1  0
 66 56  1  0
 68 70  2  0
 69 68  1  0
 71 69  1  0
 72 81  2  0
 72 77  1  0
 73 69  1  0
 73 77  1  0
 74 73  1  0
 75 76  1  0
 75 74  1  0
 76 72  1  0
 77 78  2  0
 78 79  1  0
 80 79  2  0
 81 80  1  0
 82 56  1  0
 82 83  1  0
 82 92  1  0
 83 86  1  0
 84 88  1  0
 84 83  1  0
 85 84  2  0
 88 87  1  0
 90 88  1  0
 90 91  1  0
 90 89  1  0
 92 95  1  1
 92 93  1  0
 94 92  1  0
M  ISO  4  10 100  18 100  54 101  55 101
M  END
>  <TORSDO>  (46) 
F 21

>  <SCORE>  (46) 
-14.325

>  <name>  (46) 
45

>  <ligand_id>  (46) 
45

>  <original_smiles>  (46) 
[H]c1c([H])c([H])c2c(c1[H])C([H])([H])C([H])([H])C([H])([H])C2([H])N([H])C(=O)C1([H])N(C(=O)C([H])(N([H])C(=O)C([H])(N([H])C([H])([H])[H])C([H])([H])[H])C(C([H])([H])[H])(C([H])([H])[H])C([H])([H])[H])C([H])([H])c2c([H])c(OC([H])([H])C([H])(N([H])c3c([H])c(N([H])C(=O)N4C([H])([H])C([H])([H])C([H])([H])C([H])(n5nc(-c6c([H])c([H])c(Oc7c([H])c([H])c(F)c([H])c7F)c([H])c6[H])c(C(=O)N([H])[H])c5N([H])[H])C4([H])[H])c([H])c(C([H])([H])[H])c3OC([H])([H])[H])C3([H])C([H])([H])C3([H])[H])c([H])c([H])c2C1([H])[H]

>  <smiles>  (46) 
[H]c1c([H])c([H])c2c(c1[H])C([H])([H])C([H])([H])C([H])([H])C2([H])N([H])C(=O)C1([H])N(C(=O)C([H])(N([H])C(=O)C([H])(N([H])C([H])([H])[H])C([H])([H])[H])C(C([H])([H])[H])(C([H])([H])[H])C([H])([H])[H])C([H])([H])c2c([H])c(OC([H])([H])C([H])(N([H])c3c([H])c(N([H])C(=O)N4C([H])([H])C([H])([H])C([H])([H])C([H])(n5nc(-c6c([H])c([H])c(Oc7c([H])c([H])c(F)c([H])c7F)c([H])c6[H])c(C(=O)N([H])[H])c5N([H])[H])C4([H])[H])c([H])c(C([H])([H])[H])c3OC([H])([H])[H])C3([H])C([H])([H])C3([H])[H])c([H])c([H])c2C1([H])[H]

$$$$
46:0:0
     RDKit          3D

 97107  0  0  1  0  0  0  0  0999 V2000
  -31.1220  -23.7160   16.8620 C   0  0  0  0  0  0  0  0  0  0  0  0
  -31.1500  -24.7400   17.8540 C   0  0  0  0  0  0  0  0  0  0  0  0
  -31.5880  -23.9420   15.5410 C   0  0  0  0  0  0  0  0  0  0  0  0
  -31.6750  -26.3400   16.0980 C   0  0  0  0  0  0  0  0  0  0  0  0
  -31.5870  -26.0590   17.5410 C   0  0  0  0  0  0  0  0  0  0  0  0
  -31.5640  -25.2920   15.0510 C   0  0  0  0  0  0  0  0  0  0  0  0
  -30.4130  -22.3830   17.1570 C   0  0  0  0  0  1  0  0  0  0  0  0
  -30.6310  -24.4120   19.2650 C   0  0  0  0  0  1  0  0  0  0  0  0
  -32.1270  -22.7210   14.7230 C   0  0  0  0  0  1  0  0  0  0  0  0
  -31.8010  -27.8120   15.6970 C   0  0  0  0  0  1  0  0  0  0  0  0
  -31.5690  -27.1380   18.7540 C   0  0  0  0  0  2  0  0  0  0  0  0
  -32.6310  -27.4840   19.7520 O   0  0  0  0  0  0  0  0  0  0  0  0
  -38.9600  -28.2190   22.9530 C   0  0  0  0  0  0  0  0  0  0  0  0
  -33.6590  -26.7250   20.3530 C   0  0  0  0  0  0  0  0  0  0  0  0
  -38.5420  -26.0190   21.9070 C   0  0  0  0  0  3  0  0  0  0  0  0
  -36.0970  -25.5060   21.2800 C   0  0  0  0  0  0  0  0  0  0  0  0
  -36.5960  -27.3780   22.8710 C   0  0  0  0  0  2  0  0  0  0  0  0
  -35.6820  -26.7250   21.8340 C   0  0  0  0  0  0  0  0  0  0  0  0
  -34.4710  -27.3220   21.3760 C   0  0  0  0  0  3  0  0  0  0  0  0
  -34.0730  -25.4690   19.8680 C   0  0  0  0  0  3  0  0  0  0  0  0
  -35.2840  -24.8750   20.3100 C   0  0  0  0  0  3  0  0  0  0  0  0
  -37.4310  -24.9420   21.7300 C   0  0  0  0  0  2  0  0  0  0  0  0
  -38.0530  -27.2650   22.5840 N   0  0  0  0  0  0  0  0  0  0  0  0
  -40.1790  -28.0560   22.7830 O   0  0  0  0  0  0  0  0  0  0  0  0
  -39.1680  -26.2890   20.5180 C   0  0  0  0  0  0  0  0  0  0  0  0
  -40.1440  -25.4540   20.1250 N   0  0  0  0  0  0  0  0  0  0  0  0
  -38.7490  -27.1990   19.8020 O   0  0  0  0  0  0  0  0  0  0  0  0
  -40.5070  -24.8030   20.8030 H   0  0  0  0  0  0  0  0  0  0  0  0
  -42.9360  -24.1370   18.2330 C   0  0  0  0  0  0  0  0  0  0  0  0
  -40.7840  -25.4410   18.8110 C   0  0  0  0  0  3  0  0  0  0  0  0
  -40.0570  -24.4750   17.8500 C   0  0  0  0  0  2  0  0  0  0  0  0
  -40.6830  -23.0790   17.8470 C   0  0  0  0  0  2  0  0  0  0  0  0
  -42.1450  -23.1500   17.3920 C   0  0  0  0  0  2  0  0  0  0  0  0
  -42.2910  -25.1900   18.9320 C   0  0  0  0  0  0  0  0  0  0  0  0
  -43.0560  -26.0250   19.7810 C   0  0  0  0  0  3  0  0  0  0  0  0
  -44.4410  -25.8340   19.9080 C   0  0  0  0  0  3  0  0  0  0  0  0
  -45.0810  -24.8080   19.1870 C   0  0  0  0  0  3  0  0  0  0  0  0
  -44.3270  -23.9550   18.3590 C   0  0  0  0  0  3  0  0  0  0  0  0
  -38.5240  -29.5560   23.6310 C   0  0  0  0  0  3  0  0  0  0  0  0
  -38.6030  -30.8030   22.6670 C   0  0  1  0  0  0  0  0  0  0  0  0
  -40.0420  -31.1320   22.2010 C   0  0  0  0  0  1  0  0  0  0  0  0
  -37.7340  -30.5810   21.4080 C   0  0  0  0  0  1  0  0  0  0  0  0
  -38.0330  -32.0550   23.3800 C   0  0  0  0  0  1  0  0  0  0  0  0
  -39.3880  -29.7670   24.8020 N   0  0  0  0  0  0  0  0  0  0  0  0
  -39.4330  -28.9580   25.8710 C   0  0  0  0  0  0  0  0  0  0  0  0
  -38.6910  -27.9840   26.0050 O   0  0  0  0  0  0  0  0  0  0  0  0
  -40.0570  -30.5170   24.7410 H   0  0  0  0  0  0  0  0  0  0  0  0
  -41.6080  -28.2590   26.9270 C   0  0  0  0  0  1  0  0  0  0  0  0
  -40.4670  -29.2890   26.9670 C   0  0  0  0  0  3  0  0  0  0  0  0
  -38.9440  -30.4240   28.5230 C   0  0  0  0  0  1  0  0  0  0  0  0
  -39.8870  -29.3260   28.3270 N   0  0  0  0  0  0  0  0  0  0  0  0
  -40.6170  -29.4030   29.0310 H   0  0  0  0  0  0  0  0  0  0  0  0
  -31.4580  -25.5360   13.4410 C   0  0  0  0  0  3  0  0  0  0  0  0
  -28.2220  -23.5320    9.1890 C   0  0  0  0  0  0  0  0  0  0  0  0
  -26.7830  -21.7770    8.0270 C   0  0  0  0  0  2  0  0  0  0  0  0
  -26.1410  -20.8510    9.0960 C   0  0  0  0  0  2  0  0  0  0  0  0
  -27.1180  -19.7160    9.4760 C   0  0  0  0  0  2  0  0  0  0  0  0
  -28.5320  -20.2730    9.7850 C   0  0  0  0  0  3  0  0  0  0  0  0
  -29.0050  -21.1490    8.6120 C   0  0  0  0  0  2  0  0  0  0  0  0
  -28.0810  -22.2900    8.5710 N   0  0  0  0  0  0  0  0  0  0  0  0
  -27.3440  -24.3770    8.8990 O   0  0  0  0  0  0  0  0  0  0  0  0
  -31.4080  -23.9020   11.3560 C   0  0  0  0  0  2  0  0  0  0  0  0
  -30.5030  -23.1520   10.3590 C   0  0  0  0  0  2  0  0  0  0  0  0
  -29.2510  -24.7830   11.4180 C   0  0  0  0  0  2  0  0  0  0  0  0
  -30.5300  -24.5470   12.4080 C   0  0  0  0  0  3  0  0  0  0  0  0
  -29.1630  -23.7500   10.2620 N   0  0  0  0  0  0  0  0  0  0  0  0
  -29.9170  -18.7480   11.3170 C   0  0  0  0  0  0  0  0  0  0  0  0
  -30.8080  -17.7470   11.0320 C   0  0  0  0  0  0  0  0  0  0  0  0
  -30.8710  -17.6690    9.6130 C   0  0  0  0  0  0  0  0  0  0  0  0
  -29.5000  -19.2290   10.0810 N   0  0  0  0  0  0  0  0  0  0  0  0
  -30.1270  -18.6110    9.0540 N   0  0  0  0  0  0  0  0  0  0  0  0
  -31.5690  -16.7120    8.7480 C   0  0  0  0  0  0  0  0  0  0  0  0
  -32.6870  -17.0860    7.9710 C   0  0  0  0  0  3  0  0  0  0  0  0
  -33.3420  -16.1340    7.1600 C   0  0  0  0  0  3  0  0  0  0  0  0
  -32.8860  -14.7960    7.1310 C   0  0  0  0  0  0  0  0  0  0  0  0
  -31.7530  -14.4350    7.8830 C   0  0  0  0  0  3  0  0  0  0  0  0
  -31.0960  -15.3860    8.6840 C   0  0  0  0  0  3  0  0  0  0  0  0
  -33.4460  -13.8090    6.3580 O   0  0  0  0  0  0  0  0  0  0  0  0
  -34.6950  -13.3080    6.6190 C   0  0  0  0  0  0  0  0  0  0  0  0
  -34.9370  -12.4610    7.7200 C   0  0  0  0  0  3  0  0  0  0  0  0
  -36.2200  -11.9150    7.9210 C   0  0  0  0  0  3  0  0  0  0  0  0
  -37.2590  -12.2040    7.0140 C   0  0  0  0  0  0  0  0  0  0  0  0
  -37.0180  -13.0430    5.9110 C   0  0  0  0  0  3  0  0  0  0  0  0
  -35.7390  -13.5910    5.7130 C   0  0  0  0  0  0  0  0  0  0  0  0
  -35.5080  -14.3860    4.6400 F   0  0  0  0  0  0  0  0  0  0  0  0
  -38.4890  -11.6730    7.2000 F   0  0  0  0  0  0  0  0  0  0  0  0
  -31.4780  -16.8540   12.0280 C   0  0  0  0  0  0  0  0  0  0  0  0
  -32.7750  -16.6190   11.8440 N   0  0  0  0  0  0  0  0  0  0  0  0
  -30.8720  -16.4020   12.9960 O   0  0  0  0  0  0  0  0  0  0  0  0
  -33.2460  -17.0090   11.0450 H   0  0  0  0  0  0  0  0  0  0  0  0
  -33.2900  -16.0430   12.4940 H   0  0  0  0  0  0  0  0  0  0  0  0
  -29.4380  -19.2480   12.5190 N   0  0  0  0  0  0  0  0  0  0  0  0
  -29.7450  -18.8810   13.4150 H   0  0  0  0  0  0  0  0  0  0  0  0
  -28.7810  -20.0120   12.6120 H   0  0  0  0  0  0  0  0  0  0  0  0
  -33.8650  -26.7870   13.0360 C   0  0  0  0  0  2  0  0  0  0  0  0
  -33.5800  -26.1980   11.6860 C   0  0  0  0  0  2  0  0  0  0  0  0
  -32.9590  -25.5630   12.9440 C   0  0  0  0  0  3  0  0  0  0  0  0
  1  7  1  0
  1  2  1  0
  2  8  1  0
  3  1  2  0
  4  5  1  0
  5  2  2  0
  5 11  1  0
  6  3  1  0
  6  4  2  0
  9  3  1  0
 10  4  1  0
 11 12  1  0
 12 14  1  0
 14 19  1  0
 15 25  1  0
 15 23  1  0
 16 22  1  0
 16 18  1  0
 18 17  1  0
 19 18  2  0
 20 21  1  0
 20 14  2  0
 21 16  2  0
 22 15  1  0
 23 17  1  0
 23 13  1  0
 24 13  2  0
 26 25  1  0
 26 28  1  0
 27 25  2  0
 29 38  2  0
 29 34  1  0
 30 34  1  0
 30 26  1  0
 31 30  1  0
 32 31  1  0
 33 32  1  0
 33 29  1  0
 34 35  2  0
 35 36  1  0
 37 36  2  0
 38 37  1  0
 39 13  1  0
 39 44  1  0
 40 43  1  1
 40 39  1  0
 41 40  1  0
 42 40  1  0
 44 45  1  0
 45 46  2  0
 45 49  1  0
 47 44  1  0
 49 48  1  0
 49 51  1  0
 51 50  1  0
 51 52  1  0
 53 97  1  0
 53  6  1  0
 54 66  1  0
 55 60  1  0
 55 56  1  0
 56 57  1  0
 57 58  1  0
 58 59  1  0
 58 70  1  0
 60 59  1  0
 60 54  1  0
 61 54  2  0
 62 65  1  0
 63 62  1  0
 64 65  1  0
 65 53  1  0
 66 63  1  0
 66 64  1  0
 67 92  1  0
 68 67  2  0
 68 87  1  0
 69 68  1  0
 70 67  1  0
 71 69  2  0
 71 70  1  0
 72 69  1  0
 73 72  2  0
 74 73  1  0
 75 74  2  0
 75 76  1  0
 76 77  2  0
 77 72  1  0
 78 79  1  0
 78 75  1  0
 79 80  1  0
 80 81  2  0
 82 86  1  0
 82 81  1  0
 83 82  2  0
 84 83  1  0
 84 79  2  0
 85 84  1  0
 87 89  2  0
 88 87  1  0
 88 91  1  0
 90 88  1  0
 92 94  1  0
 92 93  1  0
 96 97  1  0
 96 95  1  0
 97 95  1  0
M  ISO  4  11 101  12 101  54 100  66 100
M  END
>  <TORSDO>  (47) 
F 19

>  <SCORE>  (47) 
-3.486

>  <name>  (47) 
46

>  <ligand_id>  (47) 
46

>  <original_smiles>  (47) 
[H]c1c([H])c([H])c2c(c1[H])C([H])([H])C([H])([H])C([H])([H])C2([H])N([H])C(=O)C1([H])N(C(=O)C([H])(N([H])C(=O)C([H])(N([H])C([H])([H])[H])C([H])([H])[H])C(C([H])([H])[H])(C([H])([H])[H])C([H])([H])[H])C([H])([H])c2c([H])c(OC([H])([H])c3c(C([H])([H])[H])c(C([H])([H])[H])c(C([H])([H])[H])c(C([H])(C4([H])C([H])([H])N(C(=O)N5C([H])([H])C([H])([H])C([H])([H])C([H])(n6nc(-c7c([H])c([H])c(Oc8c([H])c([H])c(F)c([H])c8F)c([H])c7[H])c(C(=O)N([H])[H])c6N([H])[H])C5([H])[H])C([H])([H])C4([H])[H])C4([H])C([H])([H])C4([H])[H])c3C([H])([H])[H])c([H])c([H])c2C1([H])[H]

>  <smiles>  (47) 
[H]c1c([H])c([H])c2c(c1[H])C([H])([H])C([H])([H])C([H])([H])C2([H])N([H])C(=O)C1([H])N(C(=O)C([H])(N([H])C(=O)C([H])(N([H])C([H])([H])[H])C([H])([H])[H])C(C([H])([H])[H])(C([H])([H])[H])C([H])([H])[H])C([H])([H])c2c([H])c(OC([H])([H])c3c(C([H])([H])[H])c(C([H])([H])[H])c(C([H])([H])[H])c(C([H])(C4([H])C([H])([H])N(C(=O)N5C([H])([H])C([H])([H])C([H])([H])C([H])(n6nc(-c7c([H])c([H])c(Oc8c([H])c([H])c(F)c([H])c8F)c([H])c7[H])c(C(=O)N([H])[H])c6N([H])[H])C5([H])[H])C([H])([H])C4([H])[H])C4([H])C([H])([H])C4([H])[H])c3C([H])([H])[H])c([H])c([H])c2C1([H])[H]

$$$$
47:0:0
     RDKit          3D

 94103  0  0  1  0  0  0  0  0999 V2000
  -29.8460  -22.1450   21.1210 C   0  0  0  0  0  3  0  0  0  0  0  0
  -29.4930  -23.5180   20.9070 C   0  0  0  0  0  0  0  0  0  0  0  0
  -28.8920  -22.9450   18.6390 C   0  0  0  0  0  0  0  0  0  0  0  0
  -28.9910  -23.9670   19.6490 C   0  0  0  0  0  0  0  0  0  0  0  0
  -29.3700  -21.5960   18.8380 C   0  0  0  0  0  0  0  0  0  0  0  0
  -29.8170  -21.1400   20.1140 C   0  0  0  0  0  0  0  0  0  0  0  0
  -28.3110  -23.3160   17.2730 C   0  0  0  0  0  1  0  0  0  0  0  0
  -29.5360  -20.6790   17.6320 C   0  0  0  0  0  1  0  0  0  0  0  0
  -28.4730  -24.7590   22.8880 C   0  0  0  0  0  1  0  0  0  0  0  0
  -29.7320  -24.4960   22.0510 C   0  0  0  0  0  2  0  0  0  0  0  0
  -28.7540  -25.5020   19.2610 C   0  0  0  0  0  2  0  0  0  0  0  0
  -28.4640  -26.5760   20.2320 O   0  0  0  0  0  0  0  0  0  0  0  0
  -24.6150  -31.9060   23.1870 C   0  0  0  0  0  0  0  0  0  0  0  0
  -27.3140  -27.3790   20.1480 C   0  0  0  0  0  0  0  0  0  0  0  0
  -23.4380  -30.4810   21.5500 C   0  0  0  0  0  3  0  0  0  0  0  0
  -24.9150  -28.9460   20.1350 C   0  0  0  0  0  0  0  0  0  0  0  0
  -25.9720  -30.8400   21.3700 C   0  0  0  0  0  2  0  0  0  0  0  0
  -26.0730  -29.4590   20.7290 C   0  0  0  0  0  0  0  0  0  0  0  0
  -27.2710  -28.6860   20.7300 C   0  0  0  0  0  3  0  0  0  0  0  0
  -26.1210  -26.9050   19.5560 C   0  0  0  0  0  3  0  0  0  0  0  0
  -24.9390  -27.6730   19.5440 C   0  0  0  0  0  3  0  0  0  0  0  0
  -23.6650  -29.8000   20.1740 C   0  0  0  0  0  2  0  0  0  0  0  0
  -24.6940  -31.0940   22.0910 N   0  0  0  0  0  0  0  0  0  0  0  0
  -23.5260  -32.1700   23.7160 O   0  0  0  0  0  0  0  0  0  0  0  0
  -22.7890  -29.4590   22.5140 C   0  0  0  0  0  0  0  0  0  0  0  0
  -21.4630  -29.2790   22.3980 N   0  0  0  0  0  0  0  0  0  0  0  0
  -23.4770  -28.8330   23.3240 O   0  0  0  0  0  0  0  0  0  0  0  0
  -20.9680  -29.8340   21.7150 H   0  0  0  0  0  0  0  0  0  0  0  0
  -18.0880  -28.0930   22.9410 C   0  0  0  0  0  0  0  0  0  0  0  0
  -20.6510  -28.3370   23.1720 C   0  0  0  0  0  3  0  0  0  0  0  0
  -20.7380  -26.9120   22.5800 C   0  0  0  0  0  2  0  0  0  0  0  0
  -19.6180  -26.6050   21.5810 C   0  0  0  0  0  2  0  0  0  0  0  0
  -18.2470  -26.7500   22.2480 C   0  0  0  0  0  2  0  0  0  0  0  0
  -19.2180  -28.8450   23.3600 C   0  0  0  0  0  0  0  0  0  0  0  0
  -19.0140  -30.1030   23.9680 C   0  0  0  0  0  3  0  0  0  0  0  0
  -17.7150  -30.6090   24.1620 C   0  0  0  0  0  3  0  0  0  0  0  0
  -16.6000  -29.8520   23.7620 C   0  0  0  0  0  3  0  0  0  0  0  0
  -16.7880  -28.5970   23.1550 C   0  0  0  0  0  3  0  0  0  0  0  0
  -25.8860  -32.5590   23.8110 C   0  0  0  0  0  3  0  0  0  0  0  0
  -26.4150  -31.7970   25.0890 C   0  0  1  0  0  0  0  0  0  0  0  0
  -25.3210  -31.5320   26.1500 C   0  0  0  0  0  1  0  0  0  0  0  0
  -27.0310  -30.4350   24.6960 C   0  0  0  0  0  1  0  0  0  0  0  0
  -27.5430  -32.6170   25.7590 C   0  0  0  0  0  1  0  0  0  0  0  0
  -25.5530  -33.9530   24.1430 N   0  0  0  0  0  0  0  0  0  0  0  0
  -25.8640  -35.0130   23.3850 C   0  0  0  0  0  0  0  0  0  0  0  0
  -26.5360  -34.9230   22.3530 O   0  0  0  0  0  0  0  0  0  0  0  0
  -24.9590  -34.0960   24.9470 H   0  0  0  0  0  0  0  0  0  0  0  0
  -24.1170  -36.7850   23.0210 C   0  0  0  0  0  1  0  0  0  0  0  0
  -25.3520  -36.3910   23.8460 C   0  0  0  0  0  3  0  0  0  0  0  0
  -27.4560  -37.3070   24.7210 C   0  0  0  0  0  1  0  0  0  0  0  0
  -26.3710  -37.4600   23.7560 N   0  0  0  0  0  0  0  0  0  0  0  0
  -25.9480  -38.3730   23.8960 H   0  0  0  0  0  0  0  0  0  0  0  0
  -30.3850  -19.8720   20.4220 O   0  0  0  0  0  0  0  0  0  0  0  0
  -31.0080  -14.8340   19.9950 C   0  0  0  0  0  0  0  0  0  0  0  0
  -30.7060  -12.5960   18.9290 C   0  0  0  0  0  2  0  0  0  0  0  0
  -29.6990  -12.6840   17.7620 C   0  0  0  0  0  2  0  0  0  0  0  0
  -28.2560  -12.4970   18.2720 C   0  0  0  0  0  2  0  0  0  0  0  0
  -27.9530  -13.3630   19.5230 C   0  0  0  0  0  3  0  0  0  0  0  0
  -29.0750  -13.2300   20.5760 C   0  0  0  0  0  2  0  0  0  0  0  0
  -30.3280  -13.6320   19.9220 N   0  0  0  0  0  0  0  0  0  0  0  0
  -32.1640  -14.8860   19.5610 O   0  0  0  0  0  0  0  0  0  0  0  0
  -29.1580  -17.8900   21.3180 C   0  0  0  0  0  2  0  0  0  0  0  0
  -29.1950  -16.3570   21.0750 C   0  0  0  0  0  2  0  0  0  0  0  0
  -30.8820  -17.3870   19.8010 C   0  0  0  0  0  2  0  0  0  0  0  0
  -29.8380  -18.5310   20.1130 C   0  0  0  0  0  3  0  0  0  0  0  0
  -30.3440  -16.0440   20.2120 N   0  0  0  0  0  0  0  0  0  0  0  0
  -25.6250  -13.9550   20.4320 C   0  0  0  0  0  0  0  0  0  0  0  0
  -24.5750  -13.1780   20.8370 C   0  0  0  0  0  0  0  0  0  0  0  0
  -25.0130  -11.8250   20.7070 C   0  0  0  0  0  0  0  0  0  0  0  0
  -26.6380  -13.0750   20.0850 N   0  0  0  0  0  0  0  0  0  0  0  0
  -26.2790  -11.7850   20.3100 N   0  0  0  0  0  0  0  0  0  0  0  0
  -24.2800  -10.5650   20.8790 C   0  0  0  0  0  0  0  0  0  0  0  0
  -24.6820   -9.6020   21.8290 C   0  0  0  0  0  3  0  0  0  0  0  0
  -23.9510   -8.4050   21.9890 C   0  0  0  0  0  3  0  0  0  0  0  0
  -22.8010   -8.1660   21.1990 C   0  0  0  0  0  0  0  0  0  0  0  0
  -22.4170   -9.1180   20.2390 C   0  0  0  0  0  3  0  0  0  0  0  0
  -23.1500  -10.3050   20.0770 C   0  0  0  0  0  3  0  0  0  0  0  0
  -22.0430   -7.0220   21.2670 O   0  0  0  0  0  0  0  0  0  0  0  0
  -21.8510   -6.3560   22.4510 C   0  0  0  0  0  0  0  0  0  0  0  0
  -21.2240   -6.9690   23.5580 C   0  0  0  0  0  3  0  0  0  0  0  0
  -20.9860   -6.2270   24.7320 C   0  0  0  0  0  3  0  0  0  0  0  0
  -21.3610   -4.8710   24.7960 C   0  0  0  0  0  0  0  0  0  0  0  0
  -21.9780   -4.2560   23.6910 C   0  0  0  0  0  3  0  0  0  0  0  0
  -22.2190   -4.9970   22.5210 C   0  0  0  0  0  0  0  0  0  0  0  0
  -22.7950   -4.3960   21.4530 F   0  0  0  0  0  0  0  0  0  0  0  0
  -21.1230   -4.1540   25.9190 F   0  0  0  0  0  0  0  0  0  0  0  0
  -23.2070  -13.6610   21.2240 C   0  0  0  0  0  0  0  0  0  0  0  0
  -22.5270  -12.9310   22.1010 N   0  0  0  0  0  0  0  0  0  0  0  0
  -22.7550  -14.7170   20.7860 O   0  0  0  0  0  0  0  0  0  0  0  0
  -22.9100  -12.0770   22.4780 H   0  0  0  0  0  0  0  0  0  0  0  0
  -21.6090  -13.2300   22.3990 H   0  0  0  0  0  0  0  0  0  0  0  0
  -25.7870  -15.3280   20.3040 N   0  0  0  0  0  0  0  0  0  0  0  0
  -25.0270  -15.9750   20.4840 H   0  0  0  0  0  0  0  0  0  0  0  0
  -26.6000  -15.7740   19.9000 H   0  0  0  0  0  0  0  0  0  0  0  0
  2  1  1  0
  2 10  1  0
  3  5  2  0
  3  4  1  0
  4  2  2  0
  5  6  1  0
  6 53  1  0
  6  1  2  0
  7  3  1  0
  8  5  1  0
 10  9  1  0
 11  4  1  0
 11 12  1  0
 13 24  2  0
 14 12  1  0
 14 19  1  0
 15 23  1  0
 15 25  1  0
 16 22  1  0
 16 18  1  0
 17 23  1  0
 18 19  2  0
 18 17  1  0
 20 14  2  0
 21 20  1  0
 21 16  2  0
 22 15  1  0
 23 13  1  0
 25 27  2  0
 26 25  1  0
 28 26  1  0
 29 38  2  0
 29 34  1  0
 30 26  1  0
 30 34  1  0
 31 30  1  0
 32 33  1  0
 32 31  1  0
 33 29  1  0
 34 35  2  0
 35 36  1  0
 37 36  2  0
 38 37  1  0
 39 13  1  0
 39 44  1  0
 39 40  1  0
 40 43  1  1
 40 41  1  0
 42 40  1  0
 44 47  1  0
 45 49  1  0
 45 44  1  0
 46 45  2  0
 49 48  1  0
 51 49  1  0
 51 52  1  0
 51 50  1  0
 54 66  1  0
 55 60  1  0
 56 57  1  0
 56 55  1  0
 58 57  1  0
 58 70  1  0
 58 59  1  0
 60 54  1  0
 60 59  1  0
 61 54  2  0
 63 62  1  0
 64 65  1  0
 64 66  1  0
 65 53  1  0
 65 62  1  0
 66 63  1  0
 67 68  2  0
 68 87  1  0
 69 68  1  0
 69 72  1  0
 70 71  1  0
 70 67  1  0
 71 69  2  0
 72 73  1  0
 73 74  2  0
 75 78  1  0
 75 74  1  0
 76 75  2  0
 77 76  1  0
 77 72  2  0
 78 79  1  0
 79 84  2  0
 79 80  1  0
 80 81  2  0
 81 82  1  0
 82 86  1  0
 83 82  2  0
 84 83  1  0
 85 84  1  0
 87 88  1  0
 88 91  1  0
 88 90  1  0
 89 87  2  0
 92 67  1  0
 92 93  1  0
 94 92  1  0
M  ISO  4  11 101  12 101  54 100  66 100
M  END
>  <TORSDO>  (48) 
F 19

>  <SCORE>  (48) 
-13.445

>  <name>  (48) 
47

>  <ligand_id>  (48) 
47

>  <original_smiles>  (48) 
[H]c1c([H])c([H])c2c(c1[H])C([H])([H])C([H])([H])C([H])([H])C2([H])N([H])C(=O)C1([H])N(C(=O)C([H])(N([H])C(=O)C([H])(N([H])C([H])([H])[H])C([H])([H])[H])C(C([H])([H])[H])(C([H])([H])[H])C([H])([H])[H])C([H])([H])c2c([H])c(OC([H])([H])c3c(C([H])([H])[H])c(C([H])([H])[H])c(OC4([H])C([H])([H])N(C(=O)N5C([H])([H])C([H])([H])C([H])([H])C([H])(n6nc(-c7c([H])c([H])c(Oc8c([H])c([H])c(F)c([H])c8F)c([H])c7[H])c(C(=O)N([H])[H])c6N([H])[H])C5([H])[H])C([H])([H])C4([H])[H])c([H])c3C([H])([H])C([H])([H])[H])c([H])c([H])c2C1([H])[H]

>  <smiles>  (48) 
[H]c1c([H])c([H])c2c(c1[H])C([H])([H])C([H])([H])C([H])([H])C2([H])N([H])C(=O)C1([H])N(C(=O)C([H])(N([H])C(=O)C([H])(N([H])C([H])([H])[H])C([H])([H])[H])C(C([H])([H])[H])(C([H])([H])[H])C([H])([H])[H])C([H])([H])c2c([H])c(OC([H])([H])c3c(C([H])([H])[H])c(C([H])([H])[H])c(OC4([H])C([H])([H])N(C(=O)N5C([H])([H])C([H])([H])C([H])([H])C([H])(n6nc(-c7c([H])c([H])c(Oc8c([H])c([H])c(F)c([H])c8F)c([H])c7[H])c(C(=O)N([H])[H])c6N([H])[H])C5([H])[H])C([H])([H])C4([H])[H])c([H])c3C([H])([H])C([H])([H])[H])c([H])c([H])c2C1([H])[H]

$$$$
48:0:0
     RDKit          3D

 97107  0  0  1  0  0  0  0  0999 V2000
  -28.5350  -21.8020   22.1820 C   0  0  0  0  0  2  0  0  0  0  0  0
  -27.6950  -22.3500   19.7910 C   0  0  0  0  0  2  0  0  0  0  0  0
  -28.2740  -23.2730   22.5370 C   0  0  0  0  0  2  0  0  0  0  0  0
  -27.3460  -23.7070   20.3380 C   0  0  0  0  0  2  0  0  0  0  0  0
  -27.7490  -21.2960   20.9300 C   0  0  0  0  0  3  0  0  0  0  0  0
  -28.4200  -24.0350   21.2850 N   0  0  1  0  0  4  0  0  0  0  0  0
  -29.2600  -23.6660   20.8670 H   0  0  0  0  0  0  0  0  0  0  0  0
  -31.1910  -14.7740   20.1130 C   0  0  0  0  0  0  0  0  0  0  0  0
  -30.7960  -12.5620   19.1210 C   0  0  0  0  0  2  0  0  0  0  0  0
  -29.8380  -12.6460   17.9170 C   0  0  0  0  0  2  0  0  0  0  0  0
  -28.3790  -12.4500   18.3790 C   0  0  0  0  0  2  0  0  0  0  0  0
  -28.0080  -13.4080   19.5240 C   0  0  0  0  0  3  0  0  0  0  0  0
  -29.0960  -13.4180   20.6460 C   0  0  0  0  0  2  0  0  0  0  0  0
  -30.4340  -13.6350   20.0530 N   0  0  0  0  0  0  0  0  0  0  0  0
  -32.3920  -14.8040   19.8530 O   0  0  0  0  0  0  0  0  0  0  0  0
  -29.5390  -19.4390   20.7780 C   0  0  0  0  0  3  0  0  0  0  0  0
  -27.9210  -18.1000   18.8560 C   0  0  0  0  0  3  0  0  0  0  0  0
  -29.9290  -18.2020   20.2490 C   0  0  0  0  0  0  0  0  0  0  0  0
  -28.2760  -19.9790   20.3730 C   0  0  0  0  0  0  0  0  0  0  0  0
  -29.1120  -17.5820   19.3400 C   0  0  0  0  0  0  0  0  0  0  0  0
  -27.4670  -19.2970   19.4160 C   0  0  0  0  0  0  0  0  0  0  0  0
  -31.0380  -17.2510   20.6640 C   0  0  0  0  0  2  0  0  0  0  0  0
  -29.4150  -16.1660   19.3220 C   0  0  0  0  0  2  0  0  0  0  0  0
  -30.5160  -15.9300   20.2420 N   0  0  0  0  0  0  0  0  0  0  0  0
  -25.6810  -14.1550   20.3420 C   0  0  0  0  0  0  0  0  0  0  0  0
  -24.5790  -13.4270   20.6970 C   0  0  0  0  0  0  0  0  0  0  0  0
  -24.9810  -12.0590   20.6330 C   0  0  0  0  0  0  0  0  0  0  0  0
  -26.6700  -13.2190   20.0570 N   0  0  0  0  0  0  0  0  0  0  0  0
  -26.2590  -11.9600   20.3110 N   0  0  0  0  0  0  0  0  0  0  0  0
  -24.2150  -10.8260   20.7960 C   0  0  0  0  0  0  0  0  0  0  0  0
  -24.6100   -9.8390   21.7220 C   0  0  0  0  0  3  0  0  0  0  0  0
  -23.8520   -8.6600   21.8730 C   0  0  0  0  0  3  0  0  0  0  0  0
  -22.6880   -8.4620   21.0940 C   0  0  0  0  0  0  0  0  0  0  0  0
  -22.3070   -9.4450   20.1640 C   0  0  0  0  0  3  0  0  0  0  0  0
  -23.0660  -10.6150   20.0100 C   0  0  0  0  0  3  0  0  0  0  0  0
  -21.9070   -7.3350   21.1520 O   0  0  0  0  0  0  0  0  0  0  0  0
  -21.7670   -6.6200   22.3150 C   0  0  0  0  0  0  0  0  0  0  0  0
  -21.2730   -7.2120   23.4980 C   0  0  0  0  0  3  0  0  0  0  0  0
  -21.0840   -6.4260   24.6520 C   0  0  0  0  0  3  0  0  0  0  0  0
  -21.3700   -5.0470   24.6190 C   0  0  0  0  0  0  0  0  0  0  0  0
  -21.8580   -4.4550   23.4400 C   0  0  0  0  0  3  0  0  0  0  0  0
  -22.0540   -5.2420   22.2910 C   0  0  0  0  0  0  0  0  0  0  0  0
  -22.5060   -4.6650   21.1520 F   0  0  0  0  0  0  0  0  0  0  0  0
  -21.1820   -4.2870   25.7230 F   0  0  0  0  0  0  0  0  0  0  0  0
  -23.2050  -13.9580   20.9960 C   0  0  0  0  0  0  0  0  0  0  0  0
  -22.4660  -13.2840   21.8720 N   0  0  0  0  0  0  0  0  0  0  0  0
  -22.7990  -15.0070   20.4960 O   0  0  0  0  0  0  0  0  0  0  0  0
  -22.8020  -12.4340   22.3030 H   0  0  0  0  0  0  0  0  0  0  0  0
  -21.5420  -13.6160   22.1080 H   0  0  0  0  0  0  0  0  0  0  0  0
  -25.9090  -15.5230   20.2190 N   0  0  0  0  0  0  0  0  0  0  0  0
  -25.2130  -16.2050   20.4950 H   0  0  0  0  0  0  0  0  0  0  0  0
  -26.8150  -15.9390   20.0620 H   0  0  0  0  0  0  0  0  0  0  0  0
  -25.8010  -19.6890   17.7650 C   0  0  0  0  0  1  0  0  0  0  0  0
  -26.1970  -19.7390   19.1310 O   0  0  0  0  0  0  0  0  0  0  0  0
  -28.6930  -25.4660   21.3770 C   0  0  0  0  0  2  0  0  0  0  0  0
  -29.3080  -25.9000   20.0270 C   0  0  0  0  0  2  0  0  0  0  0  0
  -29.1130  -27.2730   19.8190 O   0  0  0  0  0  0  0  0  0  0  0  0
  -24.6370  -31.6280   23.0640 C   0  0  0  0  0  0  0  0  0  0  0  0
  -27.8250  -27.7360   19.8250 C   0  0  0  0  0  0  0  0  0  0  0  0
  -23.6210  -30.2010   21.3090 C   0  0  0  0  0  3  0  0  0  0  0  0
  -25.2670  -28.8970   19.8610 C   0  0  0  0  0  0  0  0  0  0  0  0
  -26.0930  -30.8380   21.2120 C   0  0  0  0  0  2  0  0  0  0  0  0
  -26.3350  -29.5250   20.5140 C   0  0  0  0  0  0  0  0  0  0  0  0
  -27.6090  -28.9430   20.5020 C   0  0  0  0  0  3  0  0  0  0  0  0
  -26.7420  -27.0900   19.1780 C   0  0  0  0  0  3  0  0  0  0  0  0
  -25.4600  -27.6710   19.2030 C   0  0  0  0  0  3  0  0  0  0  0  0
  -23.9400  -29.6150   19.9050 C   0  0  0  0  0  2  0  0  0  0  0  0
  -24.7980  -30.9040   21.9210 N   0  0  0  0  0  0  0  0  0  0  0  0
  -23.5230  -31.7600   23.5890 O   0  0  0  0  0  0  0  0  0  0  0  0
  -23.0540  -29.0710   22.1940 C   0  0  0  0  0  0  0  0  0  0  0  0
  -21.7500  -28.7910   22.0330 N   0  0  0  0  0  0  0  0  0  0  0  0
  -23.7820  -28.4450   22.9680 O   0  0  0  0  0  0  0  0  0  0  0  0
  -21.2230  -29.3580   21.3870 H   0  0  0  0  0  0  0  0  0  0  0  0
  -18.4720  -27.3360   22.4200 C   0  0  0  0  0  0  0  0  0  0  0  0
  -21.0040  -27.7440   22.7290 C   0  0  0  0  0  3  0  0  0  0  0  0
  -21.2070  -26.3690   22.0490 C   0  0  0  0  0  2  0  0  0  0  0  0
  -20.1340  -26.0510   21.0040 C   0  0  0  0  0  2  0  0  0  0  0  0
  -18.7430  -26.0540   21.6480 C   0  0  0  0  0  2  0  0  0  0  0  0
  -19.5340  -28.1380   22.9130 C   0  0  0  0  0  0  0  0  0  0  0  0
  -19.2290  -29.3360   23.5890 C   0  0  0  0  0  3  0  0  0  0  0  0
  -17.8940  -29.7390   23.7750 C   0  0  0  0  0  3  0  0  0  0  0  0
  -16.8450  -28.9300   23.3050 C   0  0  0  0  0  3  0  0  0  0  0  0
  -17.1340  -27.7310   22.6320 C   0  0  0  0  0  3  0  0  0  0  0  0
  -25.8440  -32.3400   23.7570 C   0  0  0  0  0  3  0  0  0  0  0  0
  -26.3830  -31.5670   25.0240 C   0  0  1  0  0  0  0  0  0  0  0  0
  -25.2800  -31.2080   26.0450 C   0  0  0  0  0  1  0  0  0  0  0  0
  -27.0820  -30.2550   24.5970 C   0  0  0  0  0  1  0  0  0  0  0  0
  -27.4440  -32.4260   25.7480 C   0  0  0  0  0  1  0  0  0  0  0  0
  -25.4100  -33.6960   24.1150 N   0  0  0  0  0  0  0  0  0  0  0  0
  -25.6820  -34.7940   23.3970 C   0  0  0  0  0  0  0  0  0  0  0  0
  -26.3960  -34.7790   22.3900 O   0  0  0  0  0  0  0  0  0  0  0  0
  -24.7780  -33.7820   24.8980 H   0  0  0  0  0  0  0  0  0  0  0  0
  -23.8190  -36.4380   23.0180 C   0  0  0  0  0  1  0  0  0  0  0  0
  -25.0600  -36.1210   23.8690 C   0  0  0  0  0  3  0  0  0  0  0  0
  -27.0770  -37.1610   24.8040 C   0  0  0  0  0  1  0  0  0  0  0  0
  -26.0000  -37.2600   23.8230 N   0  0  0  0  0  0  0  0  0  0  0  0
  -25.5110  -38.1380   23.9730 H   0  0  0  0  0  0  0  0  0  0  0  0
  1  3  1  0
  2  4  1  0
  2  5  1  0
  4  6  1  0
  5 19  1  0
  5  1  1  0
  6 55  1  0
  6  3  1  0
  6  7  1  6
  8 24  1  0
  9 14  1  0
 10 11  1  0
 10  9  1  0
 12 11  1  0
 12 28  1  0
 12 13  1  0
 14  8  1  0
 14 13  1  0
 15  8  2  0
 17 20  2  0
 17 21  1  0
 18 22  1  0
 18 16  2  0
 19 16  1  0
 20 18  1  0
 21 19  2  0
 23 20  1  0
 23 24  1  0
 24 22  1  0
 25 26  2  0
 26 45  1  0
 27 26  1  0
 27 30  1  0
 28 29  1  0
 28 25  1  0
 29 27  2  0
 30 31  1  0
 31 32  2  0
 33 36  1  0
 33 32  1  0
 34 33  2  0
 35 34  1  0
 35 30  2  0
 36 37  1  0
 37 38  1  0
 38 39  2  0
 40 39  1  0
 40 44  1  0
 41 40  2  0
 42 37  2  0
 42 41  1  0
 43 42  1  0
 45 46  1  0
 46 49  1  0
 46 48  1  0
 47 45  2  0
 50 25  1  0
 50 51  1  0
 52 50  1  0
 53 54  1  0
 54 21  1  0
 56 55  1  0
 57 59  1  0
 57 56  1  0
 58 69  2  0
 59 64  1  0
 60 68  1  0
 60 70  1  0
 61 67  1  0
 61 63  1  0
 62 68  1  0
 63 62  1  0
 64 63  2  0
 65 66  1  0
 65 59  2  0
 66 61  2  0
 67 60  1  0
 68 58  1  0
 70 72  2  0
 71 70  1  0
 73 71  1  0
 74 83  2  0
 74 79  1  0
 75 71  1  0
 75 79  1  0
 76 75  1  0
 77 78  1  0
 77 76  1  0
 78 74  1  0
 79 80  2  0
 80 81  1  0
 82 81  2  0
 83 82  1  0
 84 58  1  0
 84 89  1  0
 84 85  1  0
 85 88  1  1
 85 86  1  0
 87 85  1  0
 89 92  1  0
 90 94  1  0
 90 89  1  0
 91 90  2  0
 94 93  1  0
 96 94  1  0
 96 97  1  0
 96 95  1  0
M  ISO  4   8 100  24 100  56 101  57 101
M  END
>  <TORSDO>  (49) 
F 19

>  <SCORE>  (49) 
-12.044

>  <name>  (49) 
48

>  <ligand_id>  (49) 
48

>  <original_smiles>  (49) 
[H]c1c([H])c([H])c2c(c1[H])C([H])([H])C([H])([H])C([H])([H])C2([H])N([H])C(=O)C1([H])N(C(=O)C([H])(N([H])C(=O)C([H])(N([H])C([H])([H])[H])C([H])([H])[H])C(C([H])([H])[H])(C([H])([H])[H])C([H])([H])[H])C([H])([H])c2c([H])c(OC([H])([H])C([H])([H])[N+]3([H])C([H])([H])C([H])([H])C([H])(c4c([H])c5c(c([H])c4OC([H])([H])[H])C([H])([H])N(C(=O)N4C([H])([H])C([H])([H])C([H])([H])C([H])(n6nc(-c7c([H])c([H])c(Oc8c([H])c([H])c(F)c([H])c8F)c([H])c7[H])c(C(=O)N([H])[H])c6N([H])[H])C4([H])[H])C5([H])[H])C([H])([H])C3([H])[H])c([H])c([H])c2C1([H])[H]

>  <smiles>  (49) 
[H]c1c([H])c([H])c2c(c1[H])C([H])([H])C([H])([H])C([H])([H])C2([H])N([H])C(=O)C1([H])N(C(=O)C([H])(N([H])C(=O)C([H])(N([H])C([H])([H])[H])C([H])([H])[H])C(C([H])([H])[H])(C([H])([H])[H])C([H])([H])[H])C([H])([H])c2c([H])c(OC([H])([H])C([H])([H])[N+]3([H])C([H])([H])C([H])([H])C([H])(c4c([H])c5c(c([H])c4OC([H])([H])[H])C([H])([H])N(C(=O)N4C([H])([H])C([H])([H])C([H])([H])C([H])(n6nc(-c7c([H])c([H])c(Oc8c([H])c([H])c(F)c([H])c8F)c([H])c7[H])c(C(=O)N([H])[H])c6N([H])[H])C4([H])[H])C5([H])[H])C([H])([H])C3([H])[H])c([H])c([H])c2C1([H])[H]

$$$$
49:0:0
     RDKit          3D

 93102  0  0  1  0  0  0  0  0999 V2000
  -28.1740  -22.9880   21.2670 C   0  0  0  0  0  3  0  0  0  0  0  0
  -29.3250  -21.1110   20.1120 C   0  0  0  0  0  0  0  0  0  0  0  0
  -28.4970  -21.5990   21.1690 C   0  0  0  0  0  0  0  0  0  0  0  0
  -28.6690  -23.9710   20.3730 C   0  0  0  0  0  0  0  0  0  0  0  0
  -29.7840  -22.1750   19.2500 C   0  0  0  0  0  0  0  0  0  0  0  0
  -27.9550  -20.6900   22.2570 C   0  0  0  0  0  1  0  0  0  0  0  0
  -30.6930  -21.8650   18.0750 C   0  0  0  0  0  1  0  0  0  0  0  0
  -29.4910  -23.5230   19.3810 N   0  0  0  0  0  0  0  0  0  0  0  0
  -31.0280  -15.1410   19.8980 C   0  0  0  0  0  0  0  0  0  0  0  0
  -30.7140  -12.8490   18.9430 C   0  0  0  0  0  2  0  0  0  0  0  0
  -29.7190  -12.8560   17.7650 C   0  0  0  0  0  2  0  0  0  0  0  0
  -28.2880  -12.6420   18.2840 C   0  0  0  0  0  2  0  0  0  0  0  0
  -27.9530  -13.5610   19.4880 C   0  0  0  0  0  3  0  0  0  0  0  0
  -29.0780  -13.5880   20.5510 C   0  0  0  0  0  2  0  0  0  0  0  0
  -30.3210  -13.9520   19.8620 N   0  0  0  0  0  0  0  0  0  0  0  0
  -32.2160  -15.0960   19.5570 O   0  0  0  0  0  0  0  0  0  0  0  0
  -30.8980  -18.9940   20.7390 C   0  0  0  0  0  2  0  0  0  0  0  0
  -28.6740  -18.4060   20.0400 C   0  0  0  0  0  2  0  0  0  0  0  0
  -31.4230  -17.5680   20.3000 C   0  0  0  0  0  2  0  0  0  0  0  0
  -29.1220  -16.9000   19.7440 C   0  0  0  0  0  2  0  0  0  0  0  0
  -29.7320  -19.5520   19.8860 C   0  0  0  0  0  3  0  0  0  0  0  0
  -30.4690  -16.4100   20.1750 N   0  0  0  0  0  0  0  0  0  0  0  0
  -25.6400  -14.1260   20.4300 C   0  0  0  0  0  0  0  0  0  0  0  0
  -24.5970  -13.3390   20.8340 C   0  0  0  0  0  0  0  0  0  0  0  0
  -25.0430  -11.9900   20.6970 C   0  0  0  0  0  0  0  0  0  0  0  0
  -26.6540  -13.2540   20.0690 N   0  0  0  0  0  0  0  0  0  0  0  0
  -26.3070  -11.9590   20.2940 N   0  0  0  0  0  0  0  0  0  0  0  0
  -24.3180  -10.7240   20.8630 C   0  0  0  0  0  0  0  0  0  0  0  0
  -24.7230   -9.7610   21.8140 C   0  0  0  0  0  3  0  0  0  0  0  0
  -23.9970   -8.5600   21.9700 C   0  0  0  0  0  3  0  0  0  0  0  0
  -22.8520   -8.3150   21.1740 C   0  0  0  0  0  0  0  0  0  0  0  0
  -22.4670   -9.2660   20.2130 C   0  0  0  0  0  3  0  0  0  0  0  0
  -23.1940  -10.4590   20.0560 C   0  0  0  0  0  3  0  0  0  0  0  0
  -22.1000   -7.1670   21.2400 O   0  0  0  0  0  0  0  0  0  0  0  0
  -21.8940   -6.5090   22.4250 C   0  0  0  0  0  0  0  0  0  0  0  0
  -21.2600   -7.1290   23.5240 C   0  0  0  0  0  3  0  0  0  0  0  0
  -21.0070   -6.3930   24.6980 C   0  0  0  0  0  3  0  0  0  0  0  0
  -21.3780   -5.0380   24.7730 C   0  0  0  0  0  0  0  0  0  0  0  0
  -22.0040   -4.4160   23.6790 C   0  0  0  0  0  3  0  0  0  0  0  0
  -22.2590   -5.1500   22.5070 C   0  0  0  0  0  0  0  0  0  0  0  0
  -22.8440   -4.5410   21.4460 F   0  0  0  0  0  0  0  0  0  0  0  0
  -21.1290   -4.3280   25.8990 F   0  0  0  0  0  0  0  0  0  0  0  0
  -23.2280  -13.8130   21.2260 C   0  0  0  0  0  0  0  0  0  0  0  0
  -22.5580  -13.0850   22.1120 N   0  0  0  0  0  0  0  0  0  0  0  0
  -22.7620  -14.8620   20.7820 O   0  0  0  0  0  0  0  0  0  0  0  0
  -22.9460  -12.2340   22.4920 H   0  0  0  0  0  0  0  0  0  0  0  0
  -21.6420  -13.3840   22.4160 H   0  0  0  0  0  0  0  0  0  0  0  0
  -25.8010  -15.5020   20.3120 N   0  0  0  0  0  0  0  0  0  0  0  0
  -25.0470  -16.1500   20.5120 H   0  0  0  0  0  0  0  0  0  0  0  0
  -26.6180  -15.9530   19.9250 H   0  0  0  0  0  0  0  0  0  0  0  0
  -29.3630  -25.9540   21.8440 C   0  0  0  0  0  1  0  0  0  0  0  0
  -28.4050  -25.5230   20.7250 C   0  0  0  0  0  3  0  0  0  0  0  0
  -28.4500  -26.6680   19.7630 O   0  0  0  0  0  0  0  0  0  0  0  0
  -24.7000  -31.9460   23.1080 C   0  0  0  0  0  0  0  0  0  0  0  0
  -27.3590  -27.5610   19.8150 C   0  0  0  0  0  0  0  0  0  0  0  0
  -23.5020  -30.5850   21.4350 C   0  0  0  0  0  3  0  0  0  0  0  0
  -24.9650  -29.1310   19.9150 C   0  0  0  0  0  0  0  0  0  0  0  0
  -26.0310  -30.9720   21.2170 C   0  0  0  0  0  2  0  0  0  0  0  0
  -26.1350  -29.6210   20.5110 C   0  0  0  0  0  0  0  0  0  0  0  0
  -27.3410  -28.8490   20.4510 C   0  0  0  0  0  3  0  0  0  0  0  0
  -26.1680  -27.1360   19.1970 C   0  0  0  0  0  3  0  0  0  0  0  0
  -24.9840  -27.8970   19.2480 C   0  0  0  0  0  3  0  0  0  0  0  0
  -23.7070  -29.9730   20.0230 C   0  0  0  0  0  2  0  0  0  0  0  0
  -24.7640  -31.1850   21.9760 N   0  0  0  0  0  0  0  0  0  0  0  0
  -23.6210  -32.1710   23.6760 O   0  0  0  0  0  0  0  0  0  0  0  0
  -22.8840  -29.5120   22.3650 C   0  0  0  0  0  0  0  0  0  0  0  0
  -21.5580  -29.3160   22.2700 N   0  0  0  0  0  0  0  0  0  0  0  0
  -23.5980  -28.8630   23.1340 O   0  0  0  0  0  0  0  0  0  0  0  0
  -21.0400  -29.8950   21.6240 H   0  0  0  0  0  0  0  0  0  0  0  0
  -18.2160  -28.0470   22.8320 C   0  0  0  0  0  0  0  0  0  0  0  0
  -20.7800  -28.3260   23.0180 C   0  0  0  0  0  3  0  0  0  0  0  0
  -20.8760  -26.9300   22.3610 C   0  0  0  0  0  2  0  0  0  0  0  0
  -19.7400  -26.6480   21.3740 C   0  0  0  0  0  2  0  0  0  0  0  0
  -18.3820  -26.7400   22.0770 C   0  0  0  0  0  2  0  0  0  0  0  0
  -19.3420  -28.8010   23.2610 C   0  0  0  0  0  0  0  0  0  0  0  0
  -19.1310  -30.0240   23.9310 C   0  0  0  0  0  3  0  0  0  0  0  0
  -17.8280  -30.4970   24.1750 C   0  0  0  0  0  3  0  0  0  0  0  0
  -16.7170  -29.7420   23.7620 C   0  0  0  0  0  3  0  0  0  0  0  0
  -16.9130  -28.5180   23.0980 C   0  0  0  0  0  3  0  0  0  0  0  0
  -25.9780  -32.5890   23.7320 C   0  0  0  0  0  3  0  0  0  0  0  0
  -25.6420  -33.9690   24.1100 N   0  0  0  0  0  0  0  0  0  0  0  0
  -25.9300  -35.0530   23.3770 C   0  0  0  0  0  0  0  0  0  0  0  0
  -26.5750  -34.9970   22.3270 O   0  0  0  0  0  0  0  0  0  0  0  0
  -25.0630  -34.0850   24.9290 H   0  0  0  0  0  0  0  0  0  0  0  0
  -24.1520  -36.8150   23.1180 C   0  0  0  0  0  1  0  0  0  0  0  0
  -25.4210  -36.4150   23.8890 C   0  0  0  0  0  3  0  0  0  0  0  0
  -27.5510  -37.3280   24.7030 C   0  0  0  0  0  1  0  0  0  0  0  0
  -26.4250  -37.4960   23.7870 N   0  0  0  0  0  0  0  0  0  0  0  0
  -26.0000  -38.4010   23.9720 H   0  0  0  0  0  0  0  0  0  0  0  0
  -26.5290  -31.7910   24.9780 C   0  0  1  0  0  0  0  0  0  0  0  0
  -25.4550  -31.4920   26.0490 C   0  0  0  0  0  1  0  0  0  0  0  0
  -27.1430  -30.4420   24.5380 C   0  0  0  0  0  1  0  0  0  0  0  0
  -27.6650  -32.5950   25.6530 C   0  0  0  0  0  1  0  0  0  0  0  0
  2  3  2  0
  3  1  1  0
  3  6  1  0
  4 52  1  0
  4  1  2  0
  5  8  2  0
  5  2  1  0
  7  5  1  0
  8  4  1  0
  9 22  1  0
 10 15  1  0
 11 12  1  0
 11 10  1  0
 13 12  1  0
 13 26  1  0
 13 14  1  0
 15  9  1  0
 15 14  1  0
 16  9  2  0
 19 17  1  0
 20 18  1  0
 20 22  1  0
 21 18  1  0
 21  2  1  0
 21 17  1  0
 22 19  1  0
 23 24  2  0
 24 43  1  0
 25 24  1  0
 25 28  1  0
 26 27  1  0
 26 23  1  0
 27 25  2  0
 28 29  1  0
 29 30  2  0
 31 34  1  0
 31 30  1  0
 32 31  2  0
 33 32  1  0
 33 28  2  0
 34 35  1  0
 35 40  2  0
 35 36  1  0
 36 37  2  0
 37 38  1  0
 38 42  1  0
 39 38  2  0
 40 39  1  0
 41 40  1  0
 43 44  1  0
 44 47  1  0
 44 46  1  0
 45 43  2  0
 48 23  1  0
 48 49  1  0
 50 48  1  0
 52 51  1  0
 53 55  1  0
 53 52  1  0
 54 65  2  0
 55 60  1  0
 56 64  1  0
 56 66  1  0
 57 63  1  0
 57 59  1  0
 58 64  1  0
 59 58  1  0
 60 59  2  0
 61 62  1  0
 61 55  2  0
 62 57  2  0
 63 56  1  0
 64 54  1  0
 66 68  2  0
 67 66  1  0
 69 67  1  0
 70 79  2  0
 70 75  1  0
 71 67  1  0
 71 75  1  0
 72 71  1  0
 73 74  1  0
 73 72  1  0
 74 70  1  0
 75 76  2  0
 76 77  1  0
 78 77  2  0
 79 78  1  0
 80 54  1  0
 80 81  1  0
 80 90  1  0
 81 84  1  0
 82 86  1  0
 82 81  1  0
 83 82  2  0
 86 85  1  0
 88 86  1  0
 88 89  1  0
 88 87  1  0
 90 93  1  1
 90 91  1  0
 92 90  1  0
M  ISO  4   9 100  22 100  52 101  53 101
M  END
>  <TORSDO>  (50) 
F 17

>  <SCORE>  (50) 
-12.254

>  <name>  (50) 
49

>  <ligand_id>  (50) 
49

>  <original_smiles>  (50) 
[H]c1c([H])c([H])c2c(c1[H])C([H])([H])C([H])([H])C([H])([H])C2([H])N([H])C(=O)C1([H])N(C(=O)C([H])(N([H])C(=O)C([H])(N([H])C([H])([H])[H])C([H])([H])[H])C(C([H])([H])[H])(C([H])([H])[H])C([H])([H])[H])C([H])([H])c2c([H])c(OC([H])(c3nc(C([H])([H])[H])c(C4([H])C([H])([H])C([H])([H])N(C(=O)N5C([H])([H])C([H])([H])C([H])([H])C([H])(n6nc(-c7c([H])c([H])c(Oc8c([H])c([H])c(F)c([H])c8F)c([H])c7[H])c(C(=O)N([H])[H])c6N([H])[H])C5([H])[H])C([H])([H])C4([H])[H])c(C([H])([H])[H])c3[H])C([H])([H])[H])c([H])c([H])c2C1([H])[H]

>  <smiles>  (50) 
[H]c1c([H])c([H])c2c(c1[H])C([H])([H])C([H])([H])C([H])([H])C2([H])N([H])C(=O)C1([H])N(C(=O)C([H])(N([H])C(=O)C([H])(N([H])C([H])([H])[H])C([H])([H])[H])C(C([H])([H])[H])(C([H])([H])[H])C([H])([H])[H])C([H])([H])c2c([H])c(OC([H])(c3nc(C([H])([H])[H])c(C4([H])C([H])([H])C([H])([H])N(C(=O)N5C([H])([H])C([H])([H])C([H])([H])C([H])(n6nc(-c7c([H])c([H])c(Oc8c([H])c([H])c(F)c([H])c8F)c([H])c7[H])c(C(=O)N([H])[H])c6N([H])[H])C5([H])[H])C([H])([H])C4([H])[H])c(C([H])([H])[H])c3[H])C([H])([H])[H])c([H])c([H])c2C1([H])[H]

$$$$
50:0:0
     RDKit          3D

 92101  0  0  1  0  0  0  0  0999 V2000
  -29.6140  -22.9380   20.8170 C   0  0  0  0  0  3  0  0  0  0  0  0
  -29.6300  -20.4530   20.1060 C   0  0  0  0  0  0  0  0  0  0  0  0
  -30.0210  -21.5480   20.9750 C   0  0  0  0  0  0  0  0  0  0  0  0
  -28.8340  -23.4390   19.7310 C   0  0  0  0  0  0  0  0  0  0  0  0
  -28.8940  -20.9560   18.9750 C   0  0  0  0  0  0  0  0  0  0  0  0
  -28.5440  -22.3760   18.7850 C   0  0  0  0  0  0  0  0  0  0  0  0
  -30.9920  -21.2690   22.1010 C   0  0  0  0  0  1  0  0  0  0  0  0
  -28.5360  -19.8990   17.9360 C   0  0  0  0  0  1  0  0  0  0  0  0
  -27.8770  -22.8370   17.4850 C   0  0  0  0  0  1  0  0  0  0  0  0
  -30.6670  -14.9680   19.9510 C   0  0  0  0  0  0  0  0  0  0  0  0
  -30.3860  -12.6660   18.9330 C   0  0  0  0  0  2  0  0  0  0  0  0
  -29.3700  -12.6890   17.7700 C   0  0  0  0  0  2  0  0  0  0  0  0
  -27.9490  -12.4590   18.3060 C   0  0  0  0  0  2  0  0  0  0  0  0
  -27.6380  -13.3530   19.5340 C   0  0  0  0  0  3  0  0  0  0  0  0
  -28.7760  -13.3320   20.5830 C   0  0  0  0  0  2  0  0  0  0  0  0
  -30.0110  -13.7370   19.9020 N   0  0  0  0  0  0  0  0  0  0  0  0
  -31.8060  -15.0150   19.4770 O   0  0  0  0  0  0  0  0  0  0  0  0
  -29.7310  -18.2350   21.7410 C   0  0  0  0  0  2  0  0  0  0  0  0
  -30.0450  -16.6920   21.6820 C   0  0  0  0  0  2  0  0  0  0  0  0
  -29.8860  -17.5040   19.4980 C   0  0  0  0  0  2  0  0  0  0  0  0
  -30.0960  -18.8650   20.3830 C   0  0  0  0  0  3  0  0  0  0  0  0
  -30.0010  -16.1810   20.2950 N   0  0  0  0  0  0  0  0  0  0  0  0
  -25.3150  -13.9120   20.4440 C   0  0  0  0  0  0  0  0  0  0  0  0
  -24.2750  -13.1290   20.8550 C   0  0  0  0  0  0  0  0  0  0  0  0
  -24.7290  -11.7760   20.7510 C   0  0  0  0  0  0  0  0  0  0  0  0
  -26.3380  -13.0410   20.1130 N   0  0  0  0  0  0  0  0  0  0  0  0
  -26.0010  -11.7500   20.3630 N   0  0  0  0  0  0  0  0  0  0  0  0
  -24.0100  -10.5110   20.9470 C   0  0  0  0  0  0  0  0  0  0  0  0
  -24.4680   -9.5320   21.8560 C   0  0  0  0  0  3  0  0  0  0  0  0
  -23.7450   -8.3340   22.0460 C   0  0  0  0  0  3  0  0  0  0  0  0
  -22.5480   -8.1050   21.3280 C   0  0  0  0  0  0  0  0  0  0  0  0
  -22.1100   -9.0690   20.4030 C   0  0  0  0  0  3  0  0  0  0  0  0
  -22.8350  -10.2580   20.2110 C   0  0  0  0  0  3  0  0  0  0  0  0
  -21.7970   -6.9590   21.4290 O   0  0  0  0  0  0  0  0  0  0  0  0
  -21.7430   -6.2330   22.5910 C   0  0  0  0  0  0  0  0  0  0  0  0
  -21.3070   -6.8040   23.8060 C   0  0  0  0  0  3  0  0  0  0  0  0
  -21.1990   -6.0060   24.9610 C   0  0  0  0  0  3  0  0  0  0  0  0
  -21.5160   -4.6350   24.9030 C   0  0  0  0  0  0  0  0  0  0  0  0
  -21.9450   -4.0620   23.6920 C   0  0  0  0  0  3  0  0  0  0  0  0
  -22.0500   -4.8590   22.5380 C   0  0  0  0  0  0  0  0  0  0  0  0
  -22.4430   -4.2970   21.3690 F   0  0  0  0  0  0  0  0  0  0  0  0
  -21.4040   -3.8650   26.0110 F   0  0  0  0  0  0  0  0  0  0  0  0
  -22.9000  -13.5940   21.2360 C   0  0  0  0  0  0  0  0  0  0  0  0
  -22.2340  -12.8680   22.1270 N   0  0  0  0  0  0  0  0  0  0  0  0
  -22.4260  -14.6320   20.7760 O   0  0  0  0  0  0  0  0  0  0  0  0
  -22.6390  -12.0290   22.5210 H   0  0  0  0  0  0  0  0  0  0  0  0
  -21.3120  -13.1510   22.4270 H   0  0  0  0  0  0  0  0  0  0  0  0
  -25.4820  -15.2890   20.2980 N   0  0  0  0  0  0  0  0  0  0  0  0
  -24.7510  -15.9660   20.4990 H   0  0  0  0  0  0  0  0  0  0  0  0
  -26.3470  -15.7100   19.9830 H   0  0  0  0  0  0  0  0  0  0  0  0
  -28.5040  -25.0310   19.3970 C   0  0  0  0  0  2  0  0  0  0  0  0
  -28.2920  -26.2420   20.3250 O   0  0  0  0  0  0  0  0  0  0  0  0
  -24.6020  -31.8690   23.2650 C   0  0  0  0  0  0  0  0  0  0  0  0
  -27.2130  -27.1920   20.2120 C   0  0  0  0  0  0  0  0  0  0  0  0
  -23.4080  -30.4780   21.6170 C   0  0  0  0  0  3  0  0  0  0  0  0
  -24.8630  -28.9120   20.1900 C   0  0  0  0  0  0  0  0  0  0  0  0
  -25.9640  -30.7500   21.4620 C   0  0  0  0  0  2  0  0  0  0  0  0
  -26.0390  -29.3650   20.8000 C   0  0  0  0  0  0  0  0  0  0  0  0
  -27.2100  -28.5230   20.7960 C   0  0  0  0  0  3  0  0  0  0  0  0
  -25.9990  -26.8240   19.5880 C   0  0  0  0  0  3  0  0  0  0  0  0
  -24.8560  -27.6520   19.5700 C   0  0  0  0  0  3  0  0  0  0  0  0
  -23.6250  -29.7960   20.2410 C   0  0  0  0  0  2  0  0  0  0  0  0
  -24.6780  -31.0550   22.1680 N   0  0  0  0  0  0  0  0  0  0  0  0
  -23.5140  -32.1540   23.7900 O   0  0  0  0  0  0  0  0  0  0  0  0
  -22.7310  -29.4680   22.5780 C   0  0  0  0  0  0  0  0  0  0  0  0
  -21.4050  -29.2910   22.4360 N   0  0  0  0  0  0  0  0  0  0  0  0
  -23.4000  -28.8500   23.4070 O   0  0  0  0  0  0  0  0  0  0  0  0
  -20.9280  -29.8440   21.7360 H   0  0  0  0  0  0  0  0  0  0  0  0
  -18.0330  -28.0570   22.8950 C   0  0  0  0  0  0  0  0  0  0  0  0
  -20.5830  -28.3510   23.2010 C   0  0  0  0  0  3  0  0  0  0  0  0
  -20.7090  -26.9140   22.6390 C   0  0  0  0  0  2  0  0  0  0  0  0
  -19.6260  -26.5750   21.6060 C   0  0  0  0  0  2  0  0  0  0  0  0
  -18.2340  -26.7070   22.2250 C   0  0  0  0  0  2  0  0  0  0  0  0
  -19.1350  -28.8370   23.3330 C   0  0  0  0  0  0  0  0  0  0  0  0
  -18.8910  -30.1000   23.9140 C   0  0  0  0  0  3  0  0  0  0  0  0
  -17.5780  -30.5850   24.0620 C   0  0  0  0  0  3  0  0  0  0  0  0
  -16.4880  -29.8050   23.6330 C   0  0  0  0  0  3  0  0  0  0  0  0
  -16.7160  -28.5440   23.0560 C   0  0  0  0  0  3  0  0  0  0  0  0
  -25.8770  -32.5010   23.9010 C   0  0  0  0  0  3  0  0  0  0  0  0
  -25.5630  -33.9050   24.2130 N   0  0  0  0  0  0  0  0  0  0  0  0
  -25.9010  -34.9540   23.4470 C   0  0  0  0  0  0  0  0  0  0  0  0
  -26.5730  -34.8380   22.4190 O   0  0  0  0  0  0  0  0  0  0  0  0
  -24.9560  -34.0650   25.0030 H   0  0  0  0  0  0  0  0  0  0  0  0
  -24.1690  -36.7470   23.0850 C   0  0  0  0  0  1  0  0  0  0  0  0
  -25.4180  -36.3490   23.8910 C   0  0  0  0  0  3  0  0  0  0  0  0
  -27.5590  -37.2460   24.6940 C   0  0  0  0  0  1  0  0  0  0  0  0
  -26.4510  -37.3980   23.7540 N   0  0  0  0  0  0  0  0  0  0  0  0
  -26.0460  -38.3230   23.8830 H   0  0  0  0  0  0  0  0  0  0  0  0
  -26.3670  -31.7450   25.1990 C   0  0  1  0  0  0  0  0  0  0  0  0
  -25.2550  -31.5280   26.2520 C   0  0  0  0  0  1  0  0  0  0  0  0
  -26.9490  -30.3560   24.8450 C   0  0  0  0  0  1  0  0  0  0  0  0
  -27.5080  -32.5490   25.8670 C   0  0  0  0  0  1  0  0  0  0  0  0
  1  3  1  0
  2  3  2  0
  3  7  1  0
  4  1  2  0
  5  2  1  0
  6  5  2  0
  6  4  1  0
  8  5  1  0
  9  6  1  0
 10 22  1  0
 11 16  1  0
 12 13  1  0
 12 11  1  0
 14 13  1  0
 14 26  1  0
 14 15  1  0
 16 10  1  0
 16 15  1  0
 17 10  2  0
 19 18  1  0
 20 22  1  0
 20 21  1  0
 21  2  1  0
 21 18  1  0
 22 19  1  0
 23 24  2  0
 24 43  1  0
 25 24  1  0
 25 28  1  0
 26 27  1  0
 26 23  1  0
 27 25  2  0
 28 29  1  0
 29 30  2  0
 31 34  1  0
 31 30  1  0
 32 31  2  0
 33 32  1  0
 33 28  2  0
 34 35  1  0
 35 36  1  0
 36 37  2  0
 38 37  1  0
 38 42  1  0
 39 38  2  0
 40 35  2  0
 40 39  1  0
 41 40  1  0
 43 44  1  0
 44 47  1  0
 44 46  1  0
 45 43  2  0
 48 23  1  0
 48 49  1  0
 50 48  1  0
 51  4  1  0
 51 52  1  0
 53 64  2  0
 54 52  1  0
 54 59  1  0
 55 63  1  0
 55 65  1  0
 56 62  1  0
 56 58  1  0
 57 63  1  0
 58 57  1  0
 59 58  2  0
 60 54  2  0
 61 60  1  0
 61 56  2  0
 62 55  1  0
 63 53  1  0
 65 67  2  0
 66 65  1  0
 68 66  1  0
 69 78  2  0
 69 74  1  0
 70 66  1  0
 70 74  1  0
 71 70  1  0
 72 73  1  0
 72 71  1  0
 73 69  1  0
 74 75  2  0
 75 76  1  0
 77 76  2  0
 78 77  1  0
 79 53  1  0
 79 80  1  0
 79 89  1  0
 80 83  1  0
 81 85  1  0
 81 80  1  0
 82 81  2  0
 85 84  1  0
 87 88  1  0
 87 85  1  0
 87 86  1  0
 89 92  1  1
 89 90  1  0
 91 89  1  0
M  ISO  4  10 100  22 100  51 101  52 101
M  END
>  <TORSDO>  (51) 
F 17

>  <SCORE>  (51) 
-14.627

>  <name>  (51) 
50

>  <ligand_id>  (51) 
50

>  <original_smiles>  (51) 
[H]c1c([H])c([H])c2c(c1[H])C([H])([H])C([H])([H])C([H])([H])C2([H])N([H])C(=O)C1([H])N(C(=O)C([H])(N([H])C(=O)C([H])(N([H])C([H])([H])[H])C([H])([H])[H])C(C([H])([H])[H])(C([H])([H])[H])C([H])([H])[H])C([H])([H])c2c([H])c(OC([H])([H])c3c([H])c(C([H])([H])[H])c(C4([H])C([H])([H])N(C(=O)N5C([H])([H])C([H])([H])C([H])([H])C([H])(n6nc(-c7c([H])c([H])c(Oc8c([H])c([H])c(F)c([H])c8F)c([H])c7[H])c(C(=O)N([H])[H])c6N([H])[H])C5([H])[H])C([H])([H])C4([H])[H])c(C([H])([H])[H])c3C([H])([H])[H])c([H])c([H])c2C1([H])[H]

>  <smiles>  (51) 
[H]c1c([H])c([H])c2c(c1[H])C([H])([H])C([H])([H])C([H])([H])C2([H])N([H])C(=O)C1([H])N(C(=O)C([H])(N([H])C(=O)C([H])(N([H])C([H])([H])[H])C([H])([H])[H])C(C([H])([H])[H])(C([H])([H])[H])C([H])([H])[H])C([H])([H])c2c([H])c(OC([H])([H])c3c([H])c(C([H])([H])[H])c(C4([H])C([H])([H])N(C(=O)N5C([H])([H])C([H])([H])C([H])([H])C([H])(n6nc(-c7c([H])c([H])c(Oc8c([H])c([H])c(F)c([H])c8F)c([H])c7[H])c(C(=O)N([H])[H])c6N([H])[H])C5([H])[H])C([H])([H])C4([H])[H])c(C([H])([H])[H])c3C([H])([H])[H])c([H])c([H])c2C1([H])[H]

$$$$
51:0:0
     RDKit          3D

 94103  0  0  1  0  0  0  0  0999 V2000
  -30.6030  -14.8010   20.4170 C   0  0  0  0  0  0  0  0  0  0  0  0
  -30.4230  -12.4880   19.4680 C   0  0  0  0  0  2  0  0  0  0  0  0
  -29.5180  -12.5260   18.2170 C   0  0  0  0  0  2  0  0  0  0  0  0
  -28.0390  -12.3580   18.6130 C   0  0  0  0  0  2  0  0  0  0  0  0
  -27.6310  -13.2750   19.7980 C   0  0  0  0  0  3  0  0  0  0  0  0
  -28.6630  -13.2290   20.9470 C   0  0  0  0  0  2  0  0  0  0  0  0
  -29.9720  -13.5730   20.3750 N   0  0  0  0  0  0  0  0  0  0  0  0
  -31.8040  -14.8550   20.1320 O   0  0  0  0  0  0  0  0  0  0  0  0
  -29.3240  -19.8290   20.3390 C   0  0  0  0  0  0  0  0  0  0  0  0
  -30.6300  -20.2210   20.1350 C   0  0  0  0  0  0  0  0  0  0  0  0
  -29.0330  -18.4080   20.4740 C   0  0  0  0  0  0  0  0  0  0  0  0
  -31.6370  -19.2240   20.1490 C   0  0  0  0  0  0  0  0  0  0  0  0
  -30.0970  -17.4120   20.4400 C   0  0  0  0  0  0  0  0  0  0  0  0
  -28.4510  -21.1290   20.3950 C   0  0  0  0  0  2  0  0  0  0  0  0
  -30.7270  -21.7570   19.9640 C   0  0  0  0  0  3  0  0  0  0  0  0
  -27.5930  -17.9550   20.6320 C   0  0  0  0  0  1  0  0  0  0  0  0
  -33.1110  -19.5640   20.0460 C   0  0  0  0  0  1  0  0  0  0  0  0
  -31.4840  -22.1700   18.6890 C   0  0  0  0  0  1  0  0  0  0  0  0
  -31.3640  -17.8930   20.2910 N   0  0  0  0  0  0  0  0  0  0  0  0
  -29.8200  -15.9480   20.5750 N   0  0  0  0  0  0  0  0  0  0  0  0
  -29.3160  -22.2990   19.9260 N   0  0  2  0  0  4  0  0  0  0  0  0
  -28.8570  -15.7330   20.7610 H   0  0  0  0  0  0  0  0  0  0  0  0
  -29.1180  -22.3630   18.9390 H   0  0  0  0  0  0  0  0  0  0  0  0
  -25.2240  -13.8770   20.4520 C   0  0  0  0  0  0  0  0  0  0  0  0
  -24.1490  -13.1110   20.8130 C   0  0  0  0  0  0  0  0  0  0  0  0
  -24.6140  -11.7600   20.8240 C   0  0  0  0  0  0  0  0  0  0  0  0
  -26.2750  -12.9950   20.2610 N   0  0  0  0  0  0  0  0  0  0  0  0
  -25.9130  -11.7170   20.5500 N   0  0  0  0  0  0  0  0  0  0  0  0
  -23.8820  -10.5040   21.0210 C   0  0  0  0  0  0  0  0  0  0  0  0
  -24.3060   -9.5410   21.9630 C   0  0  0  0  0  3  0  0  0  0  0  0
  -23.5730   -8.3490   22.1480 C   0  0  0  0  0  3  0  0  0  0  0  0
  -22.4020   -8.1110   21.3900 C   0  0  0  0  0  0  0  0  0  0  0  0
  -21.9970   -9.0620   20.4370 C   0  0  0  0  0  3  0  0  0  0  0  0
  -22.7310  -10.2450   20.2500 C   0  0  0  0  0  3  0  0  0  0  0  0
  -21.6410   -6.9710   21.4840 O   0  0  0  0  0  0  0  0  0  0  0  0
  -21.6010   -6.2250   22.6350 C   0  0  0  0  0  0  0  0  0  0  0  0
  -21.2180   -6.7850   23.8730 C   0  0  0  0  0  3  0  0  0  0  0  0
  -21.1230   -5.9680   25.0170 C   0  0  0  0  0  3  0  0  0  0  0  0
  -21.4020   -4.5910   24.9240 C   0  0  0  0  0  0  0  0  0  0  0  0
  -21.7790   -4.0300   23.6910 C   0  0  0  0  0  3  0  0  0  0  0  0
  -21.8750   -4.8450   22.5480 C   0  0  0  0  0  0  0  0  0  0  0  0
  -22.2180   -4.2960   21.3580 F   0  0  0  0  0  0  0  0  0  0  0  0
  -21.3030   -3.8030   26.0200 F   0  0  0  0  0  0  0  0  0  0  0  0
  -22.7450  -13.5950   21.0320 C   0  0  0  0  0  0  0  0  0  0  0  0
  -21.9940  -12.9250   21.8970 N   0  0  0  0  0  0  0  0  0  0  0  0
  -22.3240  -14.6060   20.4710 O   0  0  0  0  0  0  0  0  0  0  0  0
  -22.3470  -12.1080   22.3720 H   0  0  0  0  0  0  0  0  0  0  0  0
  -21.0510  -13.2350   22.0870 H   0  0  0  0  0  0  0  0  0  0  0  0
  -25.3870  -15.2410   20.2420 N   0  0  0  0  0  0  0  0  0  0  0  0
  -24.5970  -15.8750   20.2850 H   0  0  0  0  0  0  0  0  0  0  0  0
  -26.2000  -15.6490   19.8030 H   0  0  0  0  0  0  0  0  0  0  0  0
  -29.1550  -23.7440   20.5050 C   0  0  0  0  0  3  0  0  0  0  0  0
  -28.1710  -24.8590   19.8360 C   0  0  0  0  0  3  0  0  0  0  0  0
  -28.3350  -26.3470   20.1110 O   0  0  0  0  0  0  0  0  0  0  0  0
  -24.6540  -31.8490   23.1390 C   0  0  0  0  0  0  0  0  0  0  0  0
  -27.2340  -27.2450   20.0470 C   0  0  0  0  0  0  0  0  0  0  0  0
  -23.4370  -30.4490   21.5140 C   0  0  0  0  0  3  0  0  0  0  0  0
  -24.8720  -28.9020   20.0610 C   0  0  0  0  0  0  0  0  0  0  0  0
  -25.9770  -30.7590   21.3030 C   0  0  0  0  0  2  0  0  0  0  0  0
  -26.0510  -29.3760   20.6510 C   0  0  0  0  0  0  0  0  0  0  0  0
  -27.2300  -28.5600   20.6330 C   0  0  0  0  0  3  0  0  0  0  0  0
  -26.0320  -26.8530   19.4120 C   0  0  0  0  0  3  0  0  0  0  0  0
  -24.8710  -27.6480   19.4320 C   0  0  0  0  0  3  0  0  0  0  0  0
  -23.6350  -29.7770   20.1290 C   0  0  0  0  0  2  0  0  0  0  0  0
  -24.7100  -31.0390   22.0400 N   0  0  0  0  0  0  0  0  0  0  0  0
  -23.5760  -32.1210   23.6880 O   0  0  0  0  0  0  0  0  0  0  0  0
  -22.7880  -29.4300   22.4830 C   0  0  0  0  0  0  0  0  0  0  0  0
  -21.4580  -29.2580   22.3830 N   0  0  0  0  0  0  0  0  0  0  0  0
  -23.4800  -28.7980   23.2840 O   0  0  0  0  0  0  0  0  0  0  0  0
  -20.9560  -29.8170   21.7070 H   0  0  0  0  0  0  0  0  0  0  0  0
  -18.0900  -28.0590   22.9480 C   0  0  0  0  0  0  0  0  0  0  0  0
  -20.6530  -28.3170   23.1680 C   0  0  0  0  0  3  0  0  0  0  0  0
  -20.7450  -26.8880   22.5860 C   0  0  0  0  0  2  0  0  0  0  0  0
  -19.6240  -26.5690   21.5930 C   0  0  0  0  0  2  0  0  0  0  0  0
  -18.2540  -26.7120   22.2610 C   0  0  0  0  0  2  0  0  0  0  0  0
  -19.2160  -28.8180   23.3600 C   0  0  0  0  0  0  0  0  0  0  0  0
  -19.0090  -30.0790   23.9620 C   0  0  0  0  0  3  0  0  0  0  0  0
  -17.7080  -30.5780   24.1580 C   0  0  0  0  0  3  0  0  0  0  0  0
  -16.5950  -29.8160   23.7610 C   0  0  0  0  0  3  0  0  0  0  0  0
  -16.7870  -28.5570   23.1630 C   0  0  0  0  0  3  0  0  0  0  0  0
  -25.9400  -32.4900   23.7450 C   0  0  0  0  0  3  0  0  0  0  0  0
  -25.6150  -33.8740   24.1230 N   0  0  0  0  0  0  0  0  0  0  0  0
  -25.9020  -34.9550   23.3850 C   0  0  0  0  0  0  0  0  0  0  0  0
  -26.5400  -34.8930   22.3310 O   0  0  0  0  0  0  0  0  0  0  0  0
  -25.0440  -33.9950   24.9460 H   0  0  0  0  0  0  0  0  0  0  0  0
  -24.1280  -36.7220   23.1440 C   0  0  0  0  0  1  0  0  0  0  0  0
  -25.4060  -36.3210   23.8970 C   0  0  0  0  0  3  0  0  0  0  0  0
  -27.5560  -37.2250   24.6650 C   0  0  0  0  0  1  0  0  0  0  0  0
  -26.4130  -37.3990   23.7750 N   0  0  0  0  0  0  0  0  0  0  0  0
  -25.9950  -38.3050   23.9680 H   0  0  0  0  0  0  0  0  0  0  0  0
  -26.5020  -31.6970   24.9880 C   0  0  1  0  0  0  0  0  0  0  0  0
  -25.4410  -31.4220   26.0800 C   0  0  0  0  0  1  0  0  0  0  0  0
  -27.0920  -30.3370   24.5500 C   0  0  0  0  0  1  0  0  0  0  0  0
  -27.6610  -32.4900   25.6360 C   0  0  0  0  0  1  0  0  0  0  0  0
  1 20  1  0
  2  7  1  0
  3  4  1  0
  3  2  1  0
  5  4  1  0
  5 27  1  0
  5  6  1  0
  7  1  1  0
  7  6  1  0
  8  1  2  0
  9 14  1  0
  9 11  1  0
 10 12  1  0
 10  9  2  0
 11 16  1  0
 12 19  2  0
 13 11  2  0
 13 20  1  0
 15 18  1  0
 15 10  1  0
 17 12  1  0
 19 13  1  0
 20 22  1  0
 21 15  1  0
 21 14  1  0
 21 52  1  0
 21 23  1  6
 24 25  2  0
 25 26  1  0
 25 44  1  0
 26 29  1  0
 27 24  1  0
 27 28  1  0
 28 26  2  0
 29 30  1  0
 30 31  2  0
 32 35  1  0
 32 31  1  0
 33 32  2  0
 34 33  1  0
 34 29  2  0
 35 36  1  0
 36 37  1  0
 37 38  2  0
 39 38  1  0
 39 43  1  0
 40 39  2  0
 41 36  2  0
 41 40  1  0
 42 41  1  0
 44 45  1  0
 45 48  1  0
 45 47  1  0
 46 44  2  0
 49 50  1  0
 49 24  1  0
 51 49  1  0
 53 54  1  0
 53 52  2  0
 55 66  2  0
 56 54  1  0
 56 61  1  0
 57 65  1  0
 57 67  1  0
 58 64  1  0
 58 60  1  0
 59 65  1  0
 60 59  1  0
 61 60  2  0
 62 63  1  0
 62 56  2  0
 63 58  2  0
 64 57  1  0
 65 55  1  0
 67 69  2  0
 68 67  1  0
 70 68  1  0
 71 80  2  0
 71 76  1  0
 72 68  1  0
 72 76  1  0
 73 72  1  0
 74 75  1  0
 74 73  1  0
 75 71  1  0
 76 77  2  0
 77 78  1  0
 79 78  2  0
 80 79  1  0
 81 55  1  0
 81 82  1  0
 81 91  1  0
 82 85  1  0
 83 87  1  0
 83 82  1  0
 84 83  2  0
 87 86  1  0
 89 87  1  0
 89 90  1  0
 89 88  1  0
 91 94  1  1
 91 92  1  0
 93 91  1  0
M  ISO  4   1 100  20 100  53 101  54 101
M  END
>  <TORSDO>  (52) 
F 17

>  <SCORE>  (52) 
-14.924

>  <name>  (52) 
51

>  <ligand_id>  (52) 
51

>  <original_smiles>  (52) 
[H]c1c([H])c([H])c2c(c1[H])C([H])([H])C([H])([H])C([H])([H])C2([H])N([H])C(=O)C1([H])N(C(=O)C([H])(N([H])C(=O)C([H])(N([H])C([H])([H])[H])C([H])([H])[H])C(C([H])([H])[H])(C([H])([H])[H])C([H])([H])[H])C([H])([H])c2c([H])c(OC([H])([H])C([H])([H])[N+]3([H])C([H])([H])c4c(C([H])([H])[H])c(N([H])C(=O)N5C([H])([H])C([H])([H])C([H])([H])C([H])(n6nc(-c7c([H])c([H])c(Oc8c([H])c([H])c(F)c([H])c8F)c([H])c7[H])c(C(=O)N([H])[H])c6N([H])[H])C5([H])[H])nc(C([H])([H])[H])c4C3([H])C([H])([H])[H])c([H])c([H])c2C1([H])[H]

>  <smiles>  (52) 
[H]c1c([H])c([H])c2c(c1[H])C([H])([H])C([H])([H])C([H])([H])C2([H])N([H])C(=O)C1([H])N(C(=O)C([H])(N([H])C(=O)C([H])(N([H])C([H])([H])[H])C([H])([H])[H])C(C([H])([H])[H])(C([H])([H])[H])C([H])([H])[H])C([H])([H])c2c([H])c(OC([H])([H])C([H])([H])[N+]3([H])C([H])([H])c4c(C([H])([H])[H])c(N([H])C(=O)N5C([H])([H])C([H])([H])C([H])([H])C([H])(n6nc(-c7c([H])c([H])c(Oc8c([H])c([H])c(F)c([H])c8F)c([H])c7[H])c(C(=O)N([H])[H])c6N([H])[H])C5([H])[H])nc(C([H])([H])[H])c4C3([H])C([H])([H])[H])c([H])c([H])c2C1([H])[H]

$$$$
52:0:0
     RDKit          3D

100110  0  0  1  0  0  0  0  0999 V2000
  -29.3550  -23.1260   19.3120 C   0  0  0  0  0  3  0  0  0  0  0  0
  -31.7150  -23.7520   20.6580 C   0  0  0  0  0  3  0  0  0  0  0  0
  -29.4540  -24.3730   19.9660 C   0  0  0  0  0  0  0  0  0  0  0  0
  -30.4200  -22.2000   19.2920 C   0  0  0  0  0  0  0  0  0  0  0  0
  -30.6440  -24.6770   20.6730 C   0  0  0  0  0  0  0  0  0  0  0  0
  -31.6240  -22.5200   19.9590 C   0  0  0  0  0  0  0  0  0  0  0  0
  -30.8080  -25.9700   21.4530 C   0  0  0  0  0  1  0  0  0  0  0  0
  -33.9340  -21.9880   20.3590 C   0  0  0  0  0  1  0  0  0  0  0  0
  -32.6500  -21.6000   19.8880 O   0  0  0  0  0  0  0  0  0  0  0  0
  -28.2170  -25.2730   19.8890 C   0  0  0  0  0  2  0  0  0  0  0  0
  -28.3760  -26.6830   20.1090 O   0  0  0  0  0  0  0  0  0  0  0  0
  -24.6160  -31.8920   23.2070 C   0  0  0  0  0  0  0  0  0  0  0  0
  -27.2070  -27.4260   20.1010 C   0  0  0  0  0  0  0  0  0  0  0  0
  -23.3900  -30.4980   21.5770 C   0  0  0  0  0  3  0  0  0  0  0  0
  -24.8210  -28.9590   20.1400 C   0  0  0  0  0  0  0  0  0  0  0  0
  -25.9200  -30.8380   21.3610 C   0  0  0  0  0  2  0  0  0  0  0  0
  -25.9900  -29.4680   20.7190 C   0  0  0  0  0  0  0  0  0  0  0  0
  -27.1860  -28.7090   20.6970 C   0  0  0  0  0  3  0  0  0  0  0  0
  -26.0080  -26.9400   19.5200 C   0  0  0  0  0  3  0  0  0  0  0  0
  -24.8250  -27.6930   19.5390 C   0  0  0  0  0  3  0  0  0  0  0  0
  -23.5850  -29.8240   20.1940 C   0  0  0  0  0  2  0  0  0  0  0  0
  -24.6610  -31.0900   22.1070 N   0  0  0  0  0  0  0  0  0  0  0  0
  -23.5400  -32.1700   23.7540 O   0  0  0  0  0  0  0  0  0  0  0  0
  -22.7400  -29.4770   22.5390 C   0  0  0  0  0  0  0  0  0  0  0  0
  -21.4150  -29.3040   22.4200 N   0  0  0  0  0  0  0  0  0  0  0  0
  -23.4260  -28.8460   23.3470 O   0  0  0  0  0  0  0  0  0  0  0  0
  -20.9230  -29.8650   21.7390 H   0  0  0  0  0  0  0  0  0  0  0  0
  -18.0340  -28.1400   22.9450 C   0  0  0  0  0  0  0  0  0  0  0  0
  -20.5960  -28.3720   23.1960 C   0  0  0  0  0  3  0  0  0  0  0  0
  -20.6800  -26.9410   22.6170 C   0  0  0  0  0  2  0  0  0  0  0  0
  -19.5670  -26.6300   21.6110 C   0  0  0  0  0  2  0  0  0  0  0  0
  -18.1910  -26.7890   22.2660 C   0  0  0  0  0  2  0  0  0  0  0  0
  -19.1630  -28.8900   23.3670 C   0  0  0  0  0  0  0  0  0  0  0  0
  -18.9620  -30.1550   23.9610 C   0  0  0  0  0  3  0  0  0  0  0  0
  -17.6630  -30.6690   24.1370 C   0  0  0  0  0  3  0  0  0  0  0  0
  -16.5490  -29.9150   23.7310 C   0  0  0  0  0  3  0  0  0  0  0  0
  -16.7350  -28.6520   23.1420 C   0  0  0  0  0  3  0  0  0  0  0  0
  -25.9100  -32.5150   23.8160 C   0  0  0  0  0  3  0  0  0  0  0  0
  -25.6060  -33.9080   24.1670 N   0  0  0  0  0  0  0  0  0  0  0  0
  -25.9230  -34.9680   23.4120 C   0  0  0  0  0  0  0  0  0  0  0  0
  -26.5760  -34.8750   22.3680 O   0  0  0  0  0  0  0  0  0  0  0  0
  -25.0280  -34.0550   24.9820 H   0  0  0  0  0  0  0  0  0  0  0  0
  -24.1880  -36.7600   23.0990 C   0  0  0  0  0  1  0  0  0  0  0  0
  -25.4410  -36.3510   23.8900 C   0  0  0  0  0  3  0  0  0  0  0  0
  -27.5880  -37.2280   24.6970 C   0  0  0  0  0  1  0  0  0  0  0  0
  -26.4700  -37.4060   23.7720 N   0  0  0  0  0  0  0  0  0  0  0  0
  -26.0660  -38.3240   23.9370 H   0  0  0  0  0  0  0  0  0  0  0  0
  -26.4470  -31.7270   25.0730 C   0  0  1  0  0  0  0  0  0  0  0  0
  -25.3700  -31.4760   26.1550 C   0  0  0  0  0  1  0  0  0  0  0  0
  -27.0220  -30.3540   24.6520 C   0  0  0  0  0  1  0  0  0  0  0  0
  -27.6090  -32.5110   25.7270 C   0  0  0  0  0  1  0  0  0  0  0  0
  -30.2750  -20.9300   18.4390 C   0  0  0  0  0  3  0  0  0  0  0  0
  -30.2070  -18.0420   21.0720 C   0  0  0  0  0  2  0  0  0  0  0  0
  -30.8120  -17.1200   18.8540 C   0  0  0  0  0  2  0  0  0  0  0  0
  -29.9130  -19.4210   20.4140 C   0  0  0  0  0  2  0  0  0  0  0  0
  -30.5170  -18.4780   18.1970 C   0  0  0  0  0  2  0  0  0  0  0  0
  -29.9130  -16.9010   20.0840 C   0  0  0  0  0  3  0  0  0  0  0  0
  -30.6430  -19.6440   19.1250 N   0  0  1  0  0  4  0  0  0  0  0  0
  -31.6210  -19.7420   19.3640 H   0  0  0  0  0  0  0  0  0  0  0  0
  -30.7010  -14.4910   20.4040 C   0  0  0  0  0  0  0  0  0  0  0  0
  -30.4100  -12.3080   19.3220 C   0  0  0  0  0  2  0  0  0  0  0  0
  -29.4630  -12.5140   18.1190 C   0  0  0  0  0  2  0  0  0  0  0  0
  -27.9920  -12.3710   18.5590 C   0  0  0  0  0  2  0  0  0  0  0  0
  -27.6570  -13.2190   19.8150 C   0  0  0  0  0  3  0  0  0  0  0  0
  -28.7210  -13.0190   20.9220 C   0  0  0  0  0  2  0  0  0  0  0  0
  -30.0460  -13.3030   20.3420 N   0  0  0  0  0  0  0  0  0  0  0  0
  -31.8520  -14.6440   19.9910 O   0  0  0  0  0  0  0  0  0  0  0  0
  -29.9010  -15.5420   20.6720 N   0  0  0  0  0  0  0  0  0  0  0  0
  -29.0160  -15.2680   21.0710 H   0  0  0  0  0  0  0  0  0  0  0  0
  -25.2640  -13.8270   20.5440 C   0  0  0  0  0  0  0  0  0  0  0  0
  -24.1990  -13.0540   20.9210 C   0  0  0  0  0  0  0  0  0  0  0  0
  -24.6590  -11.7020   20.8830 C   0  0  0  0  0  0  0  0  0  0  0  0
  -26.3070  -12.9450   20.3040 N   0  0  0  0  0  0  0  0  0  0  0  0
  -25.9460  -11.6630   20.5650 N   0  0  0  0  0  0  0  0  0  0  0  0
  -23.9340  -10.4390   21.0750 C   0  0  0  0  0  0  0  0  0  0  0  0
  -24.3800   -9.4670   21.9970 C   0  0  0  0  0  3  0  0  0  0  0  0
  -23.6570   -8.2670   22.1770 C   0  0  0  0  0  3  0  0  0  0  0  0
  -22.4750   -8.0340   21.4370 C   0  0  0  0  0  0  0  0  0  0  0  0
  -22.0470   -8.9960   20.5040 C   0  0  0  0  0  3  0  0  0  0  0  0
  -22.7700  -10.1870   20.3220 C   0  0  0  0  0  3  0  0  0  0  0  0
  -21.7230   -6.8870   21.5260 O   0  0  0  0  0  0  0  0  0  0  0  0
  -21.6950   -6.1320   22.6720 C   0  0  0  0  0  0  0  0  0  0  0  0
  -21.2920   -6.6740   23.9120 C   0  0  0  0  0  3  0  0  0  0  0  0
  -21.2120   -5.8470   25.0490 C   0  0  0  0  0  3  0  0  0  0  0  0
  -21.5240   -4.4780   24.9480 C   0  0  0  0  0  0  0  0  0  0  0  0
  -21.9190   -3.9350   23.7130 C   0  0  0  0  0  3  0  0  0  0  0  0
  -22.0010   -4.7600   22.5780 C   0  0  0  0  0  0  0  0  0  0  0  0
  -22.3630   -4.2280   21.3850 F   0  0  0  0  0  0  0  0  0  0  0  0
  -21.4370   -3.6800   26.0380 F   0  0  0  0  0  0  0  0  0  0  0  0
  -22.8030  -13.5310   21.2050 C   0  0  0  0  0  0  0  0  0  0  0  0
  -22.0780  -12.8340   22.0730 N   0  0  0  0  0  0  0  0  0  0  0  0
  -22.3610  -14.5590   20.6920 O   0  0  0  0  0  0  0  0  0  0  0  0
  -22.4470  -12.0040   22.5120 H   0  0  0  0  0  0  0  0  0  0  0  0
  -21.1430  -13.1380   22.3020 H   0  0  0  0  0  0  0  0  0  0  0  0
  -25.4280  -15.1980   20.3680 N   0  0  0  0  0  0  0  0  0  0  0  0
  -24.6610  -15.8520   20.4800 H   0  0  0  0  0  0  0  0  0  0  0  0
  -26.2700  -15.6340   20.0160 H   0  0  0  0  0  0  0  0  0  0  0  0
  -30.4400  -20.7910   15.7840 C   0  0  0  0  0  2  0  0  0  0  0  0
  -30.6210  -22.2350   16.1690 C   0  0  0  0  0  2  0  0  0  0  0  0
  -31.0410  -21.1420   17.1330 C   0  0  0  0  0  3  0  0  0  0  0  0
  1  3  1  0
  2  5  1  0
  3  5  2  0
  4  1  2  0
  4  6  1  0
  5  7  1  0
  6  2  2  0
  9  6  1  0
  9  8  1  0
 10  3  1  0
 10 11  1  0
 12 23  2  0
 13 11  1  0
 13 18  1  0
 14 22  1  0
 14 24  1  0
 15 21  1  0
 15 17  1  0
 16 22  1  0
 17 16  1  0
 18 17  2  0
 19 20  1  0
 19 13  2  0
 20 15  2  0
 21 14  1  0
 22 12  1  0
 24 26  2  0
 25 24  1  0
 27 25  1  0
 28 37  2  0
 28 33  1  0
 29 25  1  0
 29 33  1  0
 30 29  1  0
 31 32  1  0
 31 30  1  0
 32 28  1  0
 33 34  2  0
 34 35  1  0
 36 35  2  0
 37 36  1  0
 38 12  1  0
 38 39  1  0
 38 48  1  0
 39 42  1  0
 40 44  1  0
 40 39  1  0
 41 40  2  0
 44 43  1  0
 46 44  1  0
 46 47  1  0
 46 45  1  0
 48 51  1  1
 48 49  1  0
 50 48  1  0
 52100  1  0
 52 58  1  0
 52  4  1  0
 54 57  1  0
 55 53  1  0
 56 54  1  0
 56 58  1  0
 57 68  1  0
 57 53  1  0
 58 59  1  1
 58 55  1  0
 60 68  1  0
 61 66  1  0
 62 63  1  0
 62 61  1  0
 64 63  1  0
 64 73  1  0
 64 65  1  0
 66 60  1  0
 66 65  1  0
 67 60  2  0
 68 69  1  0
 70 71  2  0
 71 90  1  0
 72 71  1  0
 72 75  1  0
 73 70  1  0
 73 74  1  0
 74 72  2  0
 75 76  1  0
 76 77  2  0
 78 81  1  0
 78 77  1  0
 79 78  2  0
 80 79  1  0
 80 75  2  0
 81 82  1  0
 82 83  1  0
 83 84  2  0
 85 84  1  0
 85 89  1  0
 86 85  2  0
 87 82  2  0
 87 86  1  0
 88 87  1  0
 90 91  1  0
 91 94  1  0
 91 93  1  0
 92 90  2  0
 95 96  1  0
 95 70  1  0
 97 95  1  0
 98 99  1  0
 98100  1  0
 99100  1  0
M  ISO  4  10 101  11 101  60 100  68 100
M  END
>  <TORSDO>  (53) 
F 21

>  <SCORE>  (53) 
-13.689

>  <name>  (53) 
52

>  <ligand_id>  (53) 
52

>  <original_smiles>  (53) 
[H]c1c([H])c([H])c2c(c1[H])C([H])([H])C([H])([H])C([H])([H])C2([H])N([H])C(=O)C1([H])N(C(=O)C([H])(N([H])C(=O)C([H])(N([H])C([H])([H])[H])C([H])([H])[H])C(C([H])([H])[H])(C([H])([H])[H])C([H])([H])[H])C([H])([H])c2c([H])c(OC([H])([H])c3c([H])c(C([H])(C4([H])C([H])([H])C4([H])[H])[N+]4([H])C([H])([H])C([H])([H])C([H])(N([H])C(=O)N5C([H])([H])C([H])([H])C([H])([H])C([H])(n6nc(-c7c([H])c([H])c(Oc8c([H])c([H])c(F)c([H])c8F)c([H])c7[H])c(C(=O)N([H])[H])c6N([H])[H])C5([H])[H])C([H])([H])C4([H])[H])c(OC([H])([H])[H])c([H])c3C([H])([H])[H])c([H])c([H])c2C1([H])[H]

>  <smiles>  (53) 
[H]c1c([H])c([H])c2c(c1[H])C([H])([H])C([H])([H])C([H])([H])C2([H])N([H])C(=O)C1([H])N(C(=O)C([H])(N([H])C(=O)C([H])(N([H])C([H])([H])[H])C([H])([H])[H])C(C([H])([H])[H])(C([H])([H])[H])C([H])([H])[H])C([H])([H])c2c([H])c(OC([H])([H])c3c([H])c(C([H])(C4([H])C([H])([H])C4([H])[H])[N+]4([H])C([H])([H])C([H])([H])C([H])(N([H])C(=O)N5C([H])([H])C([H])([H])C([H])([H])C([H])(n6nc(-c7c([H])c([H])c(Oc8c([H])c([H])c(F)c([H])c8F)c([H])c7[H])c(C(=O)N([H])[H])c6N([H])[H])C5([H])[H])C([H])([H])C4([H])[H])c(OC([H])([H])[H])c([H])c3C([H])([H])[H])c([H])c([H])c2C1([H])[H]

$$$$
53:0:0
     RDKit          3D

 98108  0  0  1  0  0  0  0  0999 V2000
  -29.5550  -18.4100   20.7420 C   0  0  0  0  0  3  0  0  0  0  0  0
  -30.5230  -17.3070   18.7940 C   0  0  0  0  0  3  0  0  0  0  0  0
  -29.1630  -19.5510   19.9430 C   0  0  0  0  0  0  0  0  0  0  0  0
  -30.0860  -18.3790   17.9870 C   0  0  0  0  0  0  0  0  0  0  0  0
  -30.1790  -17.2370   20.1660 C   0  0  0  0  0  0  0  0  0  0  0  0
  -29.3300  -19.4260   18.5510 C   0  0  0  0  0  0  0  0  0  0  0  0
  -26.8930  -20.5190   19.5750 C   0  0  0  0  0  2  0  0  0  0  0  0
  -28.1950  -20.7110   20.3990 C   0  0  0  0  0  3  0  0  0  0  0  0
  -27.1530  -20.0430   18.1140 C   0  0  0  0  0  3  0  0  0  0  0  0
  -30.2910  -18.3190   16.4860 C   0  0  0  0  0  1  0  0  0  0  0  0
  -26.2620  -20.7240   17.0670 C   0  0  0  0  0  1  0  0  0  0  0  0
  -28.5310  -20.1950   17.7430 O   0  0  0  0  0  0  0  0  0  0  0  0
  -31.0230  -14.8360   20.4840 C   0  0  0  0  0  0  0  0  0  0  0  0
  -30.7660  -12.6020   19.4330 C   0  0  0  0  0  2  0  0  0  0  0  0
  -29.8700  -12.7690   18.1850 C   0  0  0  0  0  2  0  0  0  0  0  0
  -28.3810  -12.6490   18.5650 C   0  0  0  0  0  2  0  0  0  0  0  0
  -28.0110  -13.5140   19.8010 C   0  0  0  0  0  3  0  0  0  0  0  0
  -29.0290  -13.3350   20.9490 C   0  0  0  0  0  2  0  0  0  0  0  0
  -30.3660  -13.6330   20.4150 N   0  0  0  0  0  0  0  0  0  0  0  0
  -32.1890  -14.9400   20.0920 O   0  0  0  0  0  0  0  0  0  0  0  0
  -30.3060  -15.9480   20.8620 N   0  0  0  0  0  0  0  0  0  0  0  0
  -29.5360  -15.7400   21.4820 H   0  0  0  0  0  0  0  0  0  0  0  0
  -25.6120  -14.1690   20.4400 C   0  0  0  0  0  0  0  0  0  0  0  0
  -24.5160  -13.4220   20.7790 C   0  0  0  0  0  0  0  0  0  0  0  0
  -24.9470  -12.0590   20.7680 C   0  0  0  0  0  0  0  0  0  0  0  0
  -26.6420  -13.2630   20.2430 N   0  0  0  0  0  0  0  0  0  0  0  0
  -26.2450  -11.9890   20.5010 N   0  0  0  0  0  0  0  0  0  0  0  0
  -24.1850  -10.8160   20.9400 C   0  0  0  0  0  0  0  0  0  0  0  0
  -24.5600   -9.8440   21.8950 C   0  0  0  0  0  3  0  0  0  0  0  0
  -23.8010   -8.6650   22.0540 C   0  0  0  0  0  3  0  0  0  0  0  0
  -22.6510   -8.4490   21.2580 C   0  0  0  0  0  0  0  0  0  0  0  0
  -22.2950   -9.4070   20.2920 C   0  0  0  0  0  3  0  0  0  0  0  0
  -23.0550  -10.5780   20.1320 C   0  0  0  0  0  3  0  0  0  0  0  0
  -21.8670   -7.3230   21.3250 O   0  0  0  0  0  0  0  0  0  0  0  0
  -21.7510   -6.5950   22.4820 C   0  0  0  0  0  0  0  0  0  0  0  0
  -21.2530   -7.1640   23.6750 C   0  0  0  0  0  3  0  0  0  0  0  0
  -21.0860   -6.3620   24.8220 C   0  0  0  0  0  3  0  0  0  0  0  0
  -21.4050   -4.9910   24.7760 C   0  0  0  0  0  0  0  0  0  0  0  0
  -21.8970   -4.4230   23.5890 C   0  0  0  0  0  3  0  0  0  0  0  0
  -22.0660   -5.2220   22.4440 C   0  0  0  0  0  0  0  0  0  0  0  0
  -22.5190   -4.6630   21.2960 F   0  0  0  0  0  0  0  0  0  0  0  0
  -21.2380   -4.2190   25.8750 F   0  0  0  0  0  0  0  0  0  0  0  0
  -23.1220  -13.9330   21.0080 C   0  0  0  0  0  0  0  0  0  0  0  0
  -22.3720  -13.2930   21.8980 N   0  0  0  0  0  0  0  0  0  0  0  0
  -22.7070  -14.9360   20.4290 O   0  0  0  0  0  0  0  0  0  0  0  0
  -22.7190  -12.4830   22.3900 H   0  0  0  0  0  0  0  0  0  0  0  0
  -21.4360  -13.6180   22.0940 H   0  0  0  0  0  0  0  0  0  0  0  0
  -25.8150  -15.5340   20.2640 N   0  0  0  0  0  0  0  0  0  0  0  0
  -25.0590  -16.2060   20.3470 H   0  0  0  0  0  0  0  0  0  0  0  0
  -26.6840  -15.9530   19.9610 H   0  0  0  0  0  0  0  0  0  0  0  0
  -29.0110  -24.4230   21.5720 C   0  0  0  0  0  2  0  0  0  0  0  0
  -28.9810  -24.4570   19.0930 C   0  0  0  0  0  2  0  0  0  0  0  0
  -29.3100  -22.8700   21.4300 C   0  0  0  0  0  2  0  0  0  0  0  0
  -28.7810  -22.8940   19.0200 C   0  0  0  0  0  2  0  0  0  0  0  0
  -28.3650  -25.1400   20.3400 C   0  0  0  0  0  3  0  0  0  0  0  0
  -28.5350  -22.2170   20.3380 N   0  0  1  0  0  4  0  0  0  0  0  0
  -27.6160  -22.5610   20.5700 H   0  0  0  0  0  0  0  0  0  0  0  0
  -28.4910  -26.6250   20.3590 O   0  0  0  0  0  0  0  0  0  0  0  0
  -24.6120  -31.9750   23.2500 C   0  0  0  0  0  0  0  0  0  0  0  0
  -27.3440  -27.4340   20.2810 C   0  0  0  0  0  0  0  0  0  0  0  0
  -23.4490  -30.5260   21.6230 C   0  0  0  0  0  3  0  0  0  0  0  0
  -24.9420  -28.9880   20.2270 C   0  0  0  0  0  0  0  0  0  0  0  0
  -25.9810  -30.9020   21.4490 C   0  0  0  0  0  2  0  0  0  0  0  0
  -26.0940  -29.5150   20.8230 C   0  0  0  0  0  0  0  0  0  0  0  0
  -27.2980  -28.7500   20.8380 C   0  0  0  0  0  3  0  0  0  0  0  0
  -26.1730  -26.9660   19.6440 C   0  0  0  0  0  3  0  0  0  0  0  0
  -24.9830  -27.7190   19.6270 C   0  0  0  0  0  3  0  0  0  0  0  0
  -23.6870  -29.8350   20.2540 C   0  0  0  0  0  2  0  0  0  0  0  0
  -24.6990  -31.1520   22.1640 N   0  0  0  0  0  0  0  0  0  0  0  0
  -23.5190  -32.2350   23.7740 O   0  0  0  0  0  0  0  0  0  0  0  0
  -22.8020  -29.5100   22.5940 C   0  0  0  0  0  0  0  0  0  0  0  0
  -21.4920  -29.2630   22.4280 N   0  0  0  0  0  0  0  0  0  0  0  0
  -23.4820  -28.9450   23.4560 O   0  0  0  0  0  0  0  0  0  0  0  0
  -21.0030  -29.7740   21.7080 H   0  0  0  0  0  0  0  0  0  0  0  0
  -18.1620  -27.9140   22.8460 C   0  0  0  0  0  0  0  0  0  0  0  0
  -20.6920  -28.3100   23.2000 C   0  0  0  0  0  3  0  0  0  0  0  0
  -20.8870  -26.8680   22.6800 C   0  0  0  0  0  2  0  0  0  0  0  0
  -19.8410  -26.4550   21.6390 C   0  0  0  0  0  2  0  0  0  0  0  0
  -18.4300  -26.5530   22.2250 C   0  0  0  0  0  2  0  0  0  0  0  0
  -19.2250  -28.7460   23.2890 C   0  0  0  0  0  0  0  0  0  0  0  0
  -18.9220  -30.0160   23.8250 C   0  0  0  0  0  3  0  0  0  0  0  0
  -17.5890  -30.4560   23.9270 C   0  0  0  0  0  3  0  0  0  0  0  0
  -16.5400  -29.6230   23.5020 C   0  0  0  0  0  3  0  0  0  0  0  0
  -16.8270  -28.3540   22.9660 C   0  0  0  0  0  3  0  0  0  0  0  0
  -25.8770  -32.6440   23.8700 C   0  0  0  0  0  3  0  0  0  0  0  0
  -25.5360  -34.0400   24.1790 N   0  0  0  0  0  0  0  0  0  0  0  0
  -25.8770  -35.0930   23.4230 C   0  0  0  0  0  0  0  0  0  0  0  0
  -26.5830  -34.9910   22.4160 O   0  0  0  0  0  0  0  0  0  0  0  0
  -24.9170  -34.1930   24.9620 H   0  0  0  0  0  0  0  0  0  0  0  0
  -24.1680  -36.8800   22.9640 C   0  0  0  0  0  1  0  0  0  0  0  0
  -25.3550  -36.4770   23.8540 C   0  0  0  0  0  3  0  0  0  0  0  0
  -27.4170  -37.3760   24.8400 C   0  0  0  0  0  1  0  0  0  0  0  0
  -26.3890  -37.5350   23.8140 N   0  0  0  0  0  0  0  0  0  0  0  0
  -25.9680  -38.4540   23.9270 H   0  0  0  0  0  0  0  0  0  0  0  0
  -26.4020  -31.9040   25.1620 C   0  0  1  0  0  0  0  0  0  0  0  0
  -25.2940  -31.5990   26.1980 C   0  0  0  0  0  1  0  0  0  0  0  0
  -27.0760  -30.5630   24.7880 C   0  0  0  0  0  1  0  0  0  0  0  0
  -27.4840  -32.7640   25.8560 C   0  0  0  0  0  1  0  0  0  0  0  0
  2  5  2  0
  3  8  1  0
  3  1  2  0
  4  6  2  0
  4  2  1  0
  5  1  1  0
  5 21  1  0
  6  3  1  0
  8  7  1  0
  9 11  1  0
  9  7  1  0
 10  4  1  0
 12  9  1  0
 12  6  1  0
 13 21  1  0
 14 19  1  0
 15 16  1  0
 15 14  1  0
 17 16  1  0
 17 26  1  0
 17 18  1  0
 19 13  1  0
 19 18  1  0
 20 13  2  0
 21 22  1  0
 23 24  2  0
 24 43  1  0
 25 24  1  0
 25 28  1  0
 26 23  1  0
 26 27  1  0
 27 25  2  0
 28 29  1  0
 29 30  2  0
 31 34  1  0
 31 30  1  0
 32 31  2  0
 33 32  1  0
 33 28  2  0
 34 35  1  0
 35 36  1  0
 36 37  2  0
 38 37  1  0
 38 42  1  0
 39 38  2  0
 40 35  2  0
 40 39  1  0
 41 40  1  0
 43 44  1  0
 44 47  1  0
 44 46  1  0
 45 43  2  0
 48 49  1  0
 48 23  1  0
 50 48  1  0
 52 55  1  0
 53 51  1  0
 54 52  1  0
 54 56  1  0
 55 58  1  0
 55 51  1  0
 56  8  1  0
 56 57  1  1
 56 53  1  0
 59 70  2  0
 60 58  1  0
 60 65  1  0
 61 69  1  0
 61 71  1  0
 62 68  1  0
 62 64  1  0
 63 69  1  0
 64 65  2  0
 64 63  1  0
 66 60  2  0
 67 66  1  0
 67 62  2  0
 68 61  1  0
 69 59  1  0
 71 73  2  0
 72 71  1  0
 74 72  1  0
 75 84  2  0
 75 80  1  0
 76 72  1  0
 76 80  1  0
 77 76  1  0
 78 79  1  0
 78 77  1  0
 79 75  1  0
 80 81  2  0
 81 82  1  0
 83 82  2  0
 84 83  1  0
 85 59  1  0
 85 86  1  0
 85 95  1  0
 86 89  1  0
 87 91  1  0
 87 86  1  0
 88 87  2  0
 91 90  1  0
 93 91  1  0
 93 94  1  0
 93 92  1  0
 95 98  1  1
 95 96  1  0
 97 95  1  0
M  ISO  4  13 100  21 100  55 101  58 101
M  END
>  <TORSDO>  (54) 
F 17

>  <SCORE>  (54) 
-14.558

>  <name>  (54) 
53

>  <ligand_id>  (54) 
53

>  <original_smiles>  (54) 
[H]c1c([H])c([H])c2c(c1[H])C([H])([H])C([H])([H])C([H])([H])C2([H])N([H])C(=O)C1([H])N(C(=O)C([H])(N([H])C(=O)C([H])(N([H])C([H])([H])[H])C([H])([H])[H])C(C([H])([H])[H])(C([H])([H])[H])C([H])([H])[H])C([H])([H])c2c([H])c(OC3([H])C([H])([H])C([H])([H])[N+]([H])(C4([H])c5c([H])c(N([H])C(=O)N6C([H])([H])C([H])([H])C([H])([H])C([H])(n7nc(-c8c([H])c([H])c(Oc9c([H])c([H])c(F)c([H])c9F)c([H])c8[H])c(C(=O)N([H])[H])c7N([H])[H])C6([H])[H])c([H])c(C([H])([H])[H])c5OC([H])(C([H])([H])[H])C4([H])[H])C([H])([H])C3([H])[H])c([H])c([H])c2C1([H])[H]

>  <smiles>  (54) 
[H]c1c([H])c([H])c2c(c1[H])C([H])([H])C([H])([H])C([H])([H])C2([H])N([H])C(=O)C1([H])N(C(=O)C([H])(N([H])C(=O)C([H])(N([H])C([H])([H])[H])C([H])([H])[H])C(C([H])([H])[H])(C([H])([H])[H])C([H])([H])[H])C([H])([H])c2c([H])c(OC3([H])C([H])([H])C([H])([H])[N+]([H])(C4([H])c5c([H])c(N([H])C(=O)N6C([H])([H])C([H])([H])C([H])([H])C([H])(n7nc(-c8c([H])c([H])c(Oc9c([H])c([H])c(F)c([H])c9F)c([H])c8[H])c(C(=O)N([H])[H])c7N([H])[H])C6([H])[H])c([H])c(C([H])([H])[H])c5OC([H])(C([H])([H])[H])C4([H])[H])C([H])([H])C3([H])[H])c([H])c([H])c2C1([H])[H]

$$$$
54:0:0
     RDKit          3D

 90 99  0  0  1  0  0  0  0  0999 V2000
  -30.4420  -19.5970   17.9250 C   0  0  0  0  0  3  0  0  0  0  0  0
  -30.2950  -20.8070   18.6560 C   0  0  0  0  0  3  0  0  0  0  0  0
  -29.7600  -19.4560   20.6130 C   0  0  0  0  0  3  0  0  0  0  0  0
  -30.0260  -18.1690   19.9040 C   0  0  0  0  0  0  0  0  0  0  0  0
  -30.1790  -18.3500   18.5340 C   0  0  0  0  0  0  0  0  0  0  0  0
  -29.8190  -20.8160   19.9920 C   0  0  0  0  0  0  0  0  0  0  0  0
  -28.9820  -16.4760   18.7570 C   0  0  0  0  0  2  0  0  0  0  0  0
  -29.6560  -16.5710   20.1670 C   0  0  2  0  0  0  0  0  0  0  0  0
  -28.7180  -16.5500   21.3970 C   0  0  0  0  0  1  0  0  0  0  0  0
  -29.8000  -17.2390   17.8500 O   0  0  0  0  0  0  0  0  0  0  0  0
  -30.6090  -15.1490   20.1680 C   0  0  0  0  0  0  0  0  0  0  0  0
  -30.5980  -12.7720   19.2530 C   0  0  0  0  0  2  0  0  0  0  0  0
  -29.6280  -12.6550   18.0450 C   0  0  0  0  0  2  0  0  0  0  0  0
  -28.1550  -12.4790   18.4840 C   0  0  0  0  0  2  0  0  0  0  0  0
  -27.7580  -13.3630   19.6900 C   0  0  0  0  0  3  0  0  0  0  0  0
  -28.8510  -13.3290   20.7750 C   0  0  0  0  0  2  0  0  0  0  0  0
  -30.0960  -13.8380   20.1660 N   0  0  0  0  0  0  0  0  0  0  0  0
  -31.8260  -15.2250   19.9480 O   0  0  0  0  0  0  0  0  0  0  0  0
  -25.3770  -13.9320   20.4380 C   0  0  0  0  0  0  0  0  0  0  0  0
  -24.3260  -13.1500   20.8150 C   0  0  0  0  0  0  0  0  0  0  0  0
  -24.8020  -11.8020   20.7830 C   0  0  0  0  0  0  0  0  0  0  0  0
  -26.4290  -13.0610   20.1980 N   0  0  0  0  0  0  0  0  0  0  0  0
  -26.0920  -11.7750   20.4710 N   0  0  0  0  0  0  0  0  0  0  0  0
  -24.0910  -10.5370   20.9760 C   0  0  0  0  0  0  0  0  0  0  0  0
  -24.5210   -9.5870   21.9260 C   0  0  0  0  0  3  0  0  0  0  0  0
  -23.8060   -8.3840   22.1100 C   0  0  0  0  0  3  0  0  0  0  0  0
  -22.6480   -8.1250   21.3400 C   0  0  0  0  0  0  0  0  0  0  0  0
  -22.2400   -9.0630   20.3750 C   0  0  0  0  0  3  0  0  0  0  0  0
  -22.9560  -10.2570   20.1900 C   0  0  0  0  0  3  0  0  0  0  0  0
  -21.9020   -6.9740   21.4290 O   0  0  0  0  0  0  0  0  0  0  0  0
  -21.8130   -6.2660   22.5970 C   0  0  0  0  0  0  0  0  0  0  0  0
  -21.2860   -6.8360   23.7780 C   0  0  0  0  0  3  0  0  0  0  0  0
  -21.1390   -6.0500   24.9370 C   0  0  0  0  0  3  0  0  0  0  0  0
  -21.5190   -4.6930   24.9190 C   0  0  0  0  0  0  0  0  0  0  0  0
  -22.0440   -4.1230   23.7440 C   0  0  0  0  0  3  0  0  0  0  0  0
  -22.1830   -4.9060   22.5880 C   0  0  0  0  0  0  0  0  0  0  0  0
  -22.6640   -4.3460   21.4510 F   0  0  0  0  0  0  0  0  0  0  0  0
  -21.3740   -3.9340   26.0300 F   0  0  0  0  0  0  0  0  0  0  0  0
  -22.9260  -13.6120   21.0910 C   0  0  0  0  0  0  0  0  0  0  0  0
  -22.2100  -12.9170   21.9630 N   0  0  0  0  0  0  0  0  0  0  0  0
  -22.4740  -14.6320   20.5670 O   0  0  0  0  0  0  0  0  0  0  0  0
  -22.5730  -12.0860   22.4080 H   0  0  0  0  0  0  0  0  0  0  0  0
  -21.2720  -13.2150   22.1830 H   0  0  0  0  0  0  0  0  0  0  0  0
  -25.5060  -15.3090   20.2580 N   0  0  0  0  0  0  0  0  0  0  0  0
  -24.7380  -15.9430   20.4520 H   0  0  0  0  0  0  0  0  0  0  0  0
  -26.3620  -15.7910   20.0350 H   0  0  0  0  0  0  0  0  0  0  0  0
  -29.5930  -22.1240   20.6250 O   0  0  0  0  0  0  0  0  0  0  0  0
  -28.5690  -23.2390   20.2530 C   0  0  0  0  0  2  0  0  0  0  0  0
  -28.7520  -24.8800   19.8160 C   0  0  0  0  0  2  0  0  0  0  0  0
  -28.4780  -26.2670   20.4890 O   0  0  0  0  0  0  0  0  0  0  0  0
  -24.6460  -31.8950   23.2780 C   0  0  0  0  0  0  0  0  0  0  0  0
  -27.3790  -27.1960   20.3250 C   0  0  0  0  0  0  0  0  0  0  0  0
  -23.5040  -30.4740   21.6170 C   0  0  0  0  0  3  0  0  0  0  0  0
  -25.0090  -28.8990   20.2370 C   0  0  0  0  0  0  0  0  0  0  0  0
  -26.0550  -30.7680   21.5110 C   0  0  0  0  0  2  0  0  0  0  0  0
  -26.1600  -29.3710   20.8770 C   0  0  0  0  0  0  0  0  0  0  0  0
  -27.3310  -28.5250   20.9170 C   0  0  0  0  0  3  0  0  0  0  0  0
  -26.2000  -26.8260   19.6350 C   0  0  0  0  0  3  0  0  0  0  0  0
  -25.0390  -27.6400   19.6060 C   0  0  0  0  0  3  0  0  0  0  0  0
  -23.7660  -29.7780   20.2510 C   0  0  0  0  0  2  0  0  0  0  0  0
  -24.7530  -31.0700   22.1900 N   0  0  0  0  0  0  0  0  0  0  0  0
  -23.5440  -32.1690   23.7780 O   0  0  0  0  0  0  0  0  0  0  0  0
  -22.8120  -29.4730   22.5710 C   0  0  0  0  0  0  0  0  0  0  0  0
  -21.4900  -29.2900   22.4060 N   0  0  0  0  0  0  0  0  0  0  0  0
  -23.4660  -28.8590   23.4190 O   0  0  0  0  0  0  0  0  0  0  0  0
  -21.0260  -29.8320   21.6920 H   0  0  0  0  0  0  0  0  0  0  0  0
  -18.1000  -28.0760   22.8210 C   0  0  0  0  0  0  0  0  0  0  0  0
  -20.6500  -28.3490   23.1530 C   0  0  0  0  0  3  0  0  0  0  0  0
  -20.7750  -26.9200   22.5740 C   0  0  0  0  0  2  0  0  0  0  0  0
  -19.7000  -26.5980   21.5330 C   0  0  0  0  0  2  0  0  0  0  0  0
  -18.3000  -26.7300   22.1430 C   0  0  0  0  0  2  0  0  0  0  0  0
  -19.2050  -28.8440   23.2780 C   0  0  0  0  0  0  0  0  0  0  0  0
  -18.9650  -30.1030   23.8700 C   0  0  0  0  0  3  0  0  0  0  0  0
  -17.6540  -30.5940   24.0120 C   0  0  0  0  0  3  0  0  0  0  0  0
  -16.5640  -29.8220   23.5760 C   0  0  0  0  0  3  0  0  0  0  0  0
  -16.7870  -28.5680   22.9830 C   0  0  0  0  0  3  0  0  0  0  0  0
  -25.8990  -32.5480   23.9360 C   0  0  0  0  0  3  0  0  0  0  0  0
  -26.3580  -31.8130   25.2570 C   0  0  1  0  0  0  0  0  0  0  0  0
  -25.2230  -31.6030   26.2860 C   0  0  0  0  0  1  0  0  0  0  0  0
  -26.9570  -30.4260   24.9260 C   0  0  0  0  0  1  0  0  0  0  0  0
  -27.4720  -32.6300   25.9520 C   0  0  0  0  0  1  0  0  0  0  0  0
  -25.5770  -33.9550   24.2240 N   0  0  0  0  0  0  0  0  0  0  0  0
  -25.9270  -34.9940   23.4550 C   0  0  0  0  0  0  0  0  0  0  0  0
  -26.6240  -34.8700   22.4450 O   0  0  0  0  0  0  0  0  0  0  0  0
  -24.9650  -34.1280   25.0070 H   0  0  0  0  0  0  0  0  0  0  0  0
  -24.2100  -36.7830   23.0190 C   0  0  0  0  0  1  0  0  0  0  0  0
  -25.4260  -36.3910   23.8730 C   0  0  0  0  0  3  0  0  0  0  0  0
  -27.5280  -37.3030   24.7540 C   0  0  0  0  0  1  0  0  0  0  0  0
  -26.4580  -37.4450   23.7710 N   0  0  0  0  0  0  0  0  0  0  0  0
  -26.0400  -38.3660   23.8900 H   0  0  0  0  0  0  0  0  0  0  0  0
  1  5  2  0
  1  2  1  0
  2  6  2  0
  4  8  1  0
  4  3  2  0
  5  4  1  0
  6  3  1  0
  6 47  1  0
  7  8  1  0
  8 11  1  0
  8  9  1  1
 10  5  1  0
 10  7  1  0
 12 17  1  0
 13 14  1  0
 13 12  1  0
 15 14  1  0
 15 22  1  0
 15 16  1  0
 17 11  1  0
 17 16  1  0
 18 11  2  0
 19 20  2  0
 20 39  1  0
 21 20  1  0
 21 24  1  0
 22 19  1  0
 22 23  1  0
 23 21  2  0
 24 25  1  0
 25 26  2  0
 27 30  1  0
 27 26  1  0
 28 27  2  0
 29 28  1  0
 29 24  2  0
 30 31  1  0
 31 32  1  0
 32 33  2  0
 34 33  1  0
 34 38  1  0
 35 34  2  0
 36 31  2  0
 36 35  1  0
 37 36  1  0
 39 40  1  0
 40 43  1  0
 40 42  1  0
 41 39  2  0
 44 19  1  0
 44 45  1  0
 46 44  1  0
 48 47  1  0
 49 48  1  0
 49 50  1  0
 51 62  2  0
 52 50  1  0
 52 57  1  0
 53 61  1  0
 53 63  1  0
 54 60  1  0
 54 56  1  0
 55 61  1  0
 56 57  2  0
 56 55  1  0
 58 52  2  0
 59 58  1  0
 59 54  2  0
 60 53  1  0
 61 51  1  0
 63 65  2  0
 64 63  1  0
 66 64  1  0
 67 76  2  0
 67 72  1  0
 68 64  1  0
 68 72  1  0
 69 68  1  0
 70 71  1  0
 70 69  1  0
 71 67  1  0
 72 73  2  0
 73 74  1  0
 75 74  2  0
 76 75  1  0
 77 51  1  0
 77 82  1  0
 77 78  1  0
 78 81  1  1
 78 79  1  0
 80 78  1  0
 82 85  1  0
 83 87  1  0
 83 82  1  0
 84 83  2  0
 87 86  1  0
 89 87  1  0
 89 90  1  0
 89 88  1  0
M  ISO  4   8 100  11 100  49 101  50 101
M  END
>  <TORSDO>  (55) 
F 19

>  <SCORE>  (55) 
-14.540

>  <name>  (55) 
54

>  <ligand_id>  (55) 
54

>  <original_smiles>  (55) 
[H]c1c([H])c([H])c2c(c1[H])C([H])([H])C([H])([H])C([H])([H])C2([H])N([H])C(=O)C1([H])N(C(=O)C([H])(N([H])C(=O)C([H])(N([H])C([H])([H])[H])C([H])([H])[H])C(C([H])([H])[H])(C([H])([H])[H])C([H])([H])[H])C([H])([H])c2c([H])c(OC([H])([H])C([H])([H])Oc3c([H])c([H])c4c(c3[H])C(C(=O)N3C([H])([H])C([H])([H])C([H])([H])C([H])(n5nc(-c6c([H])c([H])c(Oc7c([H])c([H])c(F)c([H])c7F)c([H])c6[H])c(C(=O)N([H])[H])c5N([H])[H])C3([H])[H])(C([H])([H])[H])C([H])([H])O4)c([H])c([H])c2C1([H])[H]

>  <smiles>  (55) 
[H]c1c([H])c([H])c2c(c1[H])C([H])([H])C([H])([H])C([H])([H])C2([H])N([H])C(=O)C1([H])N(C(=O)C([H])(N([H])C(=O)C([H])(N([H])C([H])([H])[H])C([H])([H])[H])C(C([H])([H])[H])(C([H])([H])[H])C([H])([H])[H])C([H])([H])c2c([H])c(OC([H])([H])C([H])([H])Oc3c([H])c([H])c4c(c3[H])C(C(=O)N3C([H])([H])C([H])([H])C([H])([H])C([H])(n5nc(-c6c([H])c([H])c(Oc7c([H])c([H])c(F)c([H])c7F)c([H])c6[H])c(C(=O)N([H])[H])c5N([H])[H])C3([H])[H])(C([H])([H])[H])C([H])([H])O4)c([H])c([H])c2C1([H])[H]

$$$$
55:0:0
     RDKit          3D

 92101  0  0  1  0  0  0  0  0999 V2000
  -28.6600  -19.9610   19.5140 C   0  0  0  0  0  3  0  0  0  0  0  0
  -29.8140  -21.1840   21.6240 C   0  0  0  0  0  3  0  0  0  0  0  0
  -28.4140  -21.3960   19.7230 C   0  0  0  0  0  0  0  0  0  0  0  0
  -29.0440  -22.0600   20.7980 C   0  0  0  0  0  0  0  0  0  0  0  0
  -29.5050  -19.1510   20.3680 C   0  0  0  0  0  0  0  0  0  0  0  0
  -28.9270  -23.6500   21.0620 C   0  0  0  0  0  2  0  0  0  0  0  0
  -27.8370  -23.8440   18.8110 C   0  0  0  0  0  2  0  0  0  0  0  0
  -27.9730  -24.6340   20.1820 C   0  0  0  0  0  3  0  0  0  0  0  0
  -27.4600  -22.2730   18.8590 C   0  0  2  0  0  0  0  0  0  0  0  0
  -26.0370  -22.1150   19.4520 C   0  0  0  0  0  1  0  0  0  0  0  0
  -27.4230  -21.7020   17.4190 C   0  0  0  0  0  1  0  0  0  0  0  0
  -30.0360  -19.8330   21.4290 N   0  0  0  0  0  0  0  0  0  0  0  0
  -28.2220  -26.1920   20.1940 O   0  0  0  0  0  0  0  0  0  0  0  0
  -24.6350  -31.9080   23.2550 C   0  0  0  0  0  0  0  0  0  0  0  0
  -27.1780  -27.1920   20.1660 C   0  0  0  0  0  0  0  0  0  0  0  0
  -23.4250  -30.5110   21.6290 C   0  0  0  0  0  3  0  0  0  0  0  0
  -24.8580  -28.9550   20.1650 C   0  0  0  0  0  0  0  0  0  0  0  0
  -25.9760  -30.7810   21.4390 C   0  0  0  0  0  2  0  0  0  0  0  0
  -26.0450  -29.3930   20.7700 C   0  0  0  0  0  0  0  0  0  0  0  0
  -27.2070  -28.5270   20.7490 C   0  0  0  0  0  3  0  0  0  0  0  0
  -25.9650  -26.8680   19.5230 C   0  0  0  0  0  3  0  0  0  0  0  0
  -24.8360  -27.7120   19.5150 C   0  0  0  0  0  3  0  0  0  0  0  0
  -23.6300  -29.8490   20.2430 C   0  0  0  0  0  2  0  0  0  0  0  0
  -24.7000  -31.0880   22.1620 N   0  0  0  0  0  0  0  0  0  0  0  0
  -23.5510  -32.1870   23.7940 O   0  0  0  0  0  0  0  0  0  0  0  0
  -22.7580  -29.4960   22.5920 C   0  0  0  0  0  0  0  0  0  0  0  0
  -21.4340  -29.3040   22.4550 N   0  0  0  0  0  0  0  0  0  0  0  0
  -23.4350  -28.8850   23.4230 O   0  0  0  0  0  0  0  0  0  0  0  0
  -20.9450  -29.8490   21.7590 H   0  0  0  0  0  0  0  0  0  0  0  0
  -18.0650  -28.0620   22.9580 C   0  0  0  0  0  0  0  0  0  0  0  0
  -20.6210  -28.3580   23.2220 C   0  0  0  0  0  3  0  0  0  0  0  0
  -20.7400  -26.9260   22.6500 C   0  0  0  0  0  2  0  0  0  0  0  0
  -19.6420  -26.5890   21.6360 C   0  0  0  0  0  2  0  0  0  0  0  0
  -18.2590  -26.7160   22.2800 C   0  0  0  0  0  2  0  0  0  0  0  0
  -19.1760  -28.8400   23.3840 C   0  0  0  0  0  0  0  0  0  0  0  0
  -18.9430  -30.0980   23.9790 C   0  0  0  0  0  3  0  0  0  0  0  0
  -17.6340  -30.5850   24.1490 C   0  0  0  0  0  3  0  0  0  0  0  0
  -16.5380  -29.8050   23.7400 C   0  0  0  0  0  3  0  0  0  0  0  0
  -16.7540  -28.5460   23.1490 C   0  0  0  0  0  3  0  0  0  0  0  0
  -25.9150  -32.5480   23.8710 C   0  0  0  0  0  3  0  0  0  0  0  0
  -25.6060  -33.9530   24.1800 N   0  0  0  0  0  0  0  0  0  0  0  0
  -25.9340  -34.9990   23.4090 C   0  0  0  0  0  0  0  0  0  0  0  0
  -26.5980  -34.8860   22.3770 O   0  0  0  0  0  0  0  0  0  0  0  0
  -25.0120  -34.1120   24.9790 H   0  0  0  0  0  0  0  0  0  0  0  0
  -24.2110  -36.7960   23.0560 C   0  0  0  0  0  1  0  0  0  0  0  0
  -25.4560  -36.3930   23.8600 C   0  0  0  0  0  3  0  0  0  0  0  0
  -27.5880  -37.2850   24.6800 C   0  0  0  0  0  1  0  0  0  0  0  0
  -26.4890  -37.4420   23.7320 N   0  0  0  0  0  0  0  0  0  0  0  0
  -26.0870  -38.3640   23.8700 H   0  0  0  0  0  0  0  0  0  0  0  0
  -26.4230  -31.8000   25.1680 C   0  0  1  0  0  0  0  0  0  0  0  0
  -25.3190  -31.5830   26.2310 C   0  0  0  0  0  1  0  0  0  0  0  0
  -27.0070  -30.4140   24.8110 C   0  0  0  0  0  1  0  0  0  0  0  0
  -27.5690  -32.6080   25.8230 C   0  0  0  0  0  1  0  0  0  0  0  0
  -30.1480  -17.6750   19.9790 C   0  0  0  0  0  2  0  0  0  0  0  0
  -30.5940  -15.0360   20.3100 C   0  0  0  0  0  0  0  0  0  0  0  0
  -30.4500  -12.6870   19.3780 C   0  0  0  0  0  2  0  0  0  0  0  0
  -29.5120  -12.6660   18.1460 C   0  0  0  0  0  2  0  0  0  0  0  0
  -28.0560  -12.4510   18.5950 C   0  0  0  0  0  2  0  0  0  0  0  0
  -27.6630  -13.3830   19.7720 C   0  0  0  0  0  3  0  0  0  0  0  0
  -28.7220  -13.3800   20.8950 C   0  0  0  0  0  2  0  0  0  0  0  0
  -29.9930  -13.7800   20.2840 N   0  0  0  0  0  0  0  0  0  0  0  0
  -31.7810  -15.0970   19.9740 O   0  0  0  0  0  0  0  0  0  0  0  0
  -29.8290  -16.2210   20.4770 N   0  0  0  0  0  0  0  0  0  0  0  0
  -28.8790  -16.0830   20.7830 H   0  0  0  0  0  0  0  0  0  0  0  0
  -25.2990  -13.9700   20.5560 C   0  0  0  0  0  0  0  0  0  0  0  0
  -24.2350  -13.1940   20.9270 C   0  0  0  0  0  0  0  0  0  0  0  0
  -24.6930  -11.8420   20.8710 C   0  0  0  0  0  0  0  0  0  0  0  0
  -26.3310  -13.0890   20.2860 N   0  0  0  0  0  0  0  0  0  0  0  0
  -25.9790  -11.8030   20.5410 N   0  0  0  0  0  0  0  0  0  0  0  0
  -23.9630  -10.5790   21.0490 C   0  0  0  0  0  0  0  0  0  0  0  0
  -24.3840   -9.6100   21.9860 C   0  0  0  0  0  3  0  0  0  0  0  0
  -23.6530   -8.4150   22.1560 C   0  0  0  0  0  3  0  0  0  0  0  0
  -22.4900   -8.1810   21.3860 C   0  0  0  0  0  0  0  0  0  0  0  0
  -22.0880   -9.1390   20.4390 C   0  0  0  0  0  3  0  0  0  0  0  0
  -22.8180  -10.3260   20.2690 C   0  0  0  0  0  3  0  0  0  0  0  0
  -21.7330   -7.0370   21.4620 O   0  0  0  0  0  0  0  0  0  0  0  0
  -21.6460   -6.3080   22.6210 C   0  0  0  0  0  0  0  0  0  0  0  0
  -21.1440   -6.8660   23.8170 C   0  0  0  0  0  3  0  0  0  0  0  0
  -21.0060   -6.0610   24.9660 C   0  0  0  0  0  3  0  0  0  0  0  0
  -21.3610   -4.7000   24.9200 C   0  0  0  0  0  0  0  0  0  0  0  0
  -21.8550   -4.1410   23.7300 C   0  0  0  0  0  3  0  0  0  0  0  0
  -21.9950   -4.9420   22.5830 C   0  0  0  0  0  0  0  0  0  0  0  0
  -22.4530   -4.3930   21.4310 F   0  0  0  0  0  0  0  0  0  0  0  0
  -21.2200   -3.9260   26.0210 F   0  0  0  0  0  0  0  0  0  0  0  0
  -22.8460  -13.6770   21.2220 C   0  0  0  0  0  0  0  0  0  0  0  0
  -22.1210  -12.9650   22.0770 N   0  0  0  0  0  0  0  0  0  0  0  0
  -22.4130  -14.7180   20.7330 O   0  0  0  0  0  0  0  0  0  0  0  0
  -22.4840  -12.1180   22.4890 H   0  0  0  0  0  0  0  0  0  0  0  0
  -21.1910  -13.2730   22.3230 H   0  0  0  0  0  0  0  0  0  0  0  0
  -25.4670  -15.3420   20.3990 N   0  0  0  0  0  0  0  0  0  0  0  0
  -24.6960  -15.9900   20.5190 H   0  0  0  0  0  0  0  0  0  0  0  0
  -26.3030  -15.7880   20.0430 H   0  0  0  0  0  0  0  0  0  0  0  0
  1  3  2  0
  1  5  1  0
  3  4  1  0
  4  6  1  0
  4  2  2  0
  5 12  2  0
  7  9  1  0
  7  8  1  0
  8 13  1  0
  8  6  1  0
  9 10  1  1
  9  3  1  0
 11  9  1  0
 12  2  1  0
 14 25  2  0
 15 13  1  0
 15 20  1  0
 16 24  1  0
 16 26  1  0
 17 23  1  0
 17 19  1  0
 18 24  1  0
 19 18  1  0
 20 19  2  0
 21 15  2  0
 22 21  1  0
 22 17  2  0
 23 16  1  0
 24 14  1  0
 26 28  2  0
 27 26  1  0
 29 27  1  0
 30 39  2  0
 30 35  1  0
 31 27  1  0
 31 35  1  0
 32 31  1  0
 33 34  1  0
 33 32  1  0
 34 30  1  0
 35 36  2  0
 36 37  1  0
 38 37  2  0
 39 38  1  0
 40 14  1  0
 40 41  1  0
 40 50  1  0
 41 44  1  0
 42 46  1  0
 42 41  1  0
 43 42  2  0
 46 45  1  0
 48 46  1  0
 48 49  1  0
 48 47  1  0
 50 53  1  1
 50 51  1  0
 52 50  1  0
 54  5  1  0
 54 63  1  0
 55 63  1  0
 56 61  1  0
 57 58  1  0
 57 56  1  0
 59 58  1  0
 59 68  1  0
 59 60  1  0
 61 55  1  0
 61 60  1  0
 62 55  2  0
 63 64  1  0
 65 66  2  0
 66 85  1  0
 67 66  1  0
 67 70  1  0
 68 69  1  0
 68 65  1  0
 69 67  2  0
 70 71  1  0
 71 72  2  0
 73 76  1  0
 73 72  1  0
 74 73  2  0
 75 74  1  0
 75 70  2  0
 76 77  1  0
 77 78  1  0
 78 79  2  0
 80 79  1  0
 80 84  1  0
 81 80  2  0
 82 77  2  0
 82 81  1  0
 83 82  1  0
 85 86  1  0
 86 89  1  0
 86 88  1  0
 87 85  2  0
 90 91  1  0
 90 65  1  0
 92 90  1  0
M  ISO  4   8 101  13 101  55 100  63 100
M  END
>  <TORSDO>  (56) 
F 17

>  <SCORE>  (56) 
-14.678

>  <name>  (56) 
55

>  <ligand_id>  (56) 
55

>  <original_smiles>  (56) 
[H]c1nc(C([H])([H])N([H])C(=O)N2C([H])([H])C([H])([H])C([H])([H])C([H])(n3nc(-c4c([H])c([H])c(Oc5c([H])c([H])c(F)c([H])c5F)c([H])c4[H])c(C(=O)N([H])[H])c3N([H])[H])C2([H])[H])c([H])c2c1C([H])([H])C([H])(Oc1c([H])c([H])c3c(c1[H])C([H])([H])N(C(=O)C([H])(N([H])C(=O)C([H])(N([H])C([H])([H])[H])C([H])([H])[H])C(C([H])([H])[H])(C([H])([H])[H])C([H])([H])[H])C([H])(C(=O)N([H])C1([H])c4c([H])c([H])c([H])c([H])c4C([H])([H])C([H])([H])C1([H])[H])C3([H])[H])C([H])([H])C2(C([H])([H])[H])C([H])([H])[H]

>  <smiles>  (56) 
[H]c1nc(C([H])([H])N([H])C(=O)N2C([H])([H])C([H])([H])C([H])([H])C([H])(n3nc(-c4c([H])c([H])c(Oc5c([H])c([H])c(F)c([H])c5F)c([H])c4[H])c(C(=O)N([H])[H])c3N([H])[H])C2([H])[H])c([H])c2c1C([H])([H])C([H])(Oc1c([H])c([H])c3c(c1[H])C([H])([H])N(C(=O)C([H])(N([H])C(=O)C([H])(N([H])C([H])([H])[H])C([H])([H])[H])C(C([H])([H])[H])(C([H])([H])[H])C([H])([H])[H])C([H])(C(=O)N([H])C1([H])c4c([H])c([H])c([H])c([H])c4C([H])([H])C([H])([H])C1([H])[H])C3([H])[H])C([H])([H])C2(C([H])([H])[H])C([H])([H])[H]

$$$$
56:0:0
     RDKit          3D

 92101  0  0  1  0  0  0  0  0999 V2000
  -29.9770  -20.6720   19.5710 C   0  0  0  0  0  3  0  0  0  0  0  0
  -30.2400  -20.6880   22.2810 C   0  0  0  0  0  3  0  0  0  0  0  0
  -29.7920  -22.0150   20.2240 C   0  0  0  0  0  0  0  0  0  0  0  0
  -30.2870  -19.3530   20.2120 C   0  0  0  0  0  0  0  0  0  0  0  0
  -29.9900  -21.9220   21.6320 C   0  0  0  0  0  0  0  0  0  0  0  0
  -30.3920  -19.4460   21.6200 C   0  0  0  0  0  0  0  0  0  0  0  0
  -30.0120  -23.1440   22.5330 C   0  0  0  0  0  1  0  0  0  0  0  0
  -30.7150  -18.2330   22.4730 C   0  0  0  0  0  1  0  0  0  0  0  0
  -29.7750  -23.5340   17.9800 C   0  0  0  0  0  2  0  0  0  0  0  0
  -30.8980  -23.9980   18.8460 C   0  0  0  0  0  2  0  0  0  0  0  0
  -29.6060  -23.5150   19.4910 C   0  0  2  0  0  0  0  0  0  0  0  0
  -28.5350  -24.7290   19.9700 C   0  0  0  0  0  2  0  0  0  0  0  0
  -28.6760  -26.2800   19.7780 O   0  0  0  0  0  0  0  0  0  0  0  0
  -24.7160  -31.5900   23.0590 C   0  0  0  0  0  0  0  0  0  0  0  0
  -27.5420  -27.1800   19.8000 C   0  0  0  0  0  0  0  0  0  0  0  0
  -23.5780  -30.1780   21.3890 C   0  0  0  0  0  3  0  0  0  0  0  0
  -25.1000  -28.7690   19.8720 C   0  0  0  0  0  0  0  0  0  0  0  0
  -26.1020  -30.6300   21.1830 C   0  0  0  0  0  2  0  0  0  0  0  0
  -26.2580  -29.2700   20.4770 C   0  0  0  0  0  0  0  0  0  0  0  0
  -27.4790  -28.4930   20.4240 C   0  0  0  0  0  3  0  0  0  0  0  0
  -26.3470  -26.7820   19.1600 C   0  0  0  0  0  3  0  0  0  0  0  0
  -25.1570  -27.5410   19.1960 C   0  0  0  0  0  3  0  0  0  0  0  0
  -23.8140  -29.5730   19.9800 C   0  0  0  0  0  2  0  0  0  0  0  0
  -24.8190  -30.8200   21.9330 N   0  0  0  0  0  0  0  0  0  0  0  0
  -23.6240  -31.7780   23.6180 O   0  0  0  0  0  0  0  0  0  0  0  0
  -22.9910  -29.0900   22.3230 C   0  0  0  0  0  0  0  0  0  0  0  0
  -21.6870  -28.7950   22.1770 N   0  0  0  0  0  0  0  0  0  0  0  0
  -23.7140  -28.5140   23.1400 O   0  0  0  0  0  0  0  0  0  0  0  0
  -21.1580  -29.3140   21.4910 H   0  0  0  0  0  0  0  0  0  0  0  0
  -18.4500  -27.2130   22.5630 C   0  0  0  0  0  0  0  0  0  0  0  0
  -20.9530  -27.7660   22.9180 C   0  0  0  0  0  3  0  0  0  0  0  0
  -21.2370  -26.3580   22.3440 C   0  0  0  0  0  2  0  0  0  0  0  0
  -20.2140  -25.9180   21.2930 C   0  0  0  0  0  2  0  0  0  0  0  0
  -18.8030  -25.8980   21.8880 C   0  0  0  0  0  2  0  0  0  0  0  0
  -19.4590  -28.0970   23.0310 C   0  0  0  0  0  0  0  0  0  0  0  0
  -19.0750  -29.3230   23.6190 C   0  0  0  0  0  3  0  0  0  0  0  0
  -17.7150  -29.6670   23.7420 C   0  0  0  0  0  3  0  0  0  0  0  0
  -16.7210  -28.7830   23.2900 C   0  0  0  0  0  3  0  0  0  0  0  0
  -17.0890  -27.5570   22.7080 C   0  0  0  0  0  3  0  0  0  0  0  0
  -25.9610  -32.2890   23.6870 C   0  0  0  0  0  3  0  0  0  0  0  0
  -26.5250  -31.5240   24.9490 C   0  0  1  0  0  0  0  0  0  0  0  0
  -25.4520  -31.2160   26.0210 C   0  0  0  0  0  1  0  0  0  0  0  0
  -27.1760  -30.1860   24.5330 C   0  0  0  0  0  1  0  0  0  0  0  0
  -27.6430  -32.3620   25.6150 C   0  0  0  0  0  1  0  0  0  0  0  0
  -25.5700  -33.6600   24.0520 N   0  0  0  0  0  0  0  0  0  0  0  0
  -25.8620  -34.7520   23.3340 C   0  0  0  0  0  0  0  0  0  0  0  0
  -26.5520  -34.7160   22.3120 O   0  0  0  0  0  0  0  0  0  0  0  0
  -24.9540  -33.7560   24.8440 H   0  0  0  0  0  0  0  0  0  0  0  0
  -24.0500  -36.4690   23.0070 C   0  0  0  0  0  1  0  0  0  0  0  0
  -25.2990  -36.1010   23.8260 C   0  0  0  0  0  3  0  0  0  0  0  0
  -27.3720  -37.0670   24.7200 C   0  0  0  0  0  1  0  0  0  0  0  0
  -26.2790  -37.2080   23.7620 N   0  0  0  0  0  0  0  0  0  0  0  0
  -25.8250  -38.1040   23.9260 H   0  0  0  0  0  0  0  0  0  0  0  0
  -30.5680  -17.8930   19.4440 C   0  0  0  0  0  2  0  0  0  0  0  0
  -31.0880  -15.1860   19.7710 C   0  0  0  0  0  0  0  0  0  0  0  0
  -30.9020  -12.7820   18.9770 C   0  0  0  0  0  2  0  0  0  0  0  0
  -29.9360  -12.6970   17.7740 C   0  0  0  0  0  2  0  0  0  0  0  0
  -28.4810  -12.5380   18.2560 C   0  0  0  0  0  2  0  0  0  0  0  0
  -28.1270  -13.5180   19.4090 C   0  0  0  0  0  3  0  0  0  0  0  0
  -29.2210  -13.5650   20.4990 C   0  0  0  0  0  2  0  0  0  0  0  0
  -30.4770  -13.9290   19.8330 N   0  0  0  0  0  0  0  0  0  0  0  0
  -32.2570  -15.2110   19.3740 O   0  0  0  0  0  0  0  0  0  0  0  0
  -30.3480  -16.3940   19.9450 N   0  0  0  0  0  0  0  0  0  0  0  0
  -29.4240  -16.2350   20.3170 H   0  0  0  0  0  0  0  0  0  0  0  0
  -25.8270  -14.1840   20.3190 C   0  0  0  0  0  0  0  0  0  0  0  0
  -24.7450  -13.4510   20.7190 C   0  0  0  0  0  0  0  0  0  0  0  0
  -25.1250  -12.0800   20.5940 C   0  0  0  0  0  0  0  0  0  0  0  0
  -26.8020  -13.2650   19.9700 N   0  0  0  0  0  0  0  0  0  0  0  0
  -26.3930  -11.9880   20.2000 N   0  0  0  0  0  0  0  0  0  0  0  0
  -24.3380  -10.8530   20.7700 C   0  0  0  0  0  0  0  0  0  0  0  0
  -24.7340   -9.8400   21.6720 C   0  0  0  0  0  3  0  0  0  0  0  0
  -23.9490   -8.6790   21.8350 C   0  0  0  0  0  3  0  0  0  0  0  0
  -22.7520   -8.5220   21.0970 C   0  0  0  0  0  0  0  0  0  0  0  0
  -22.3740   -9.5220   20.1840 C   0  0  0  0  0  3  0  0  0  0  0  0
  -23.1590  -10.6740   20.0180 C   0  0  0  0  0  3  0  0  0  0  0  0
  -21.9370   -7.4180   21.1780 O   0  0  0  0  0  0  0  0  0  0  0  0
  -21.8200   -6.6890   22.3330 C   0  0  0  0  0  0  0  0  0  0  0  0
  -21.3700   -7.2720   23.5380 C   0  0  0  0  0  3  0  0  0  0  0  0
  -21.1980   -6.4710   24.6850 C   0  0  0  0  0  3  0  0  0  0  0  0
  -21.4640   -5.0900   24.6280 C   0  0  0  0  0  0  0  0  0  0  0  0
  -21.9030   -4.5070   23.4260 C   0  0  0  0  0  3  0  0  0  0  0  0
  -22.0780   -5.3050   22.2810 C   0  0  0  0  0  0  0  0  0  0  0  0
  -22.4820   -4.7320   21.1210 F   0  0  0  0  0  0  0  0  0  0  0  0
  -21.2880   -4.3200   25.7260 F   0  0  0  0  0  0  0  0  0  0  0  0
  -23.3950  -13.9950   21.0910 C   0  0  0  0  0  0  0  0  0  0  0  0
  -22.6780  -13.3110   21.9750 N   0  0  0  0  0  0  0  0  0  0  0  0
  -22.9870  -15.0600   20.6320 O   0  0  0  0  0  0  0  0  0  0  0  0
  -23.0210  -12.4530   22.3850 H   0  0  0  0  0  0  0  0  0  0  0  0
  -21.7720  -13.6590   22.2540 H   0  0  0  0  0  0  0  0  0  0  0  0
  -26.0550  -15.5510   20.1940 N   0  0  0  0  0  0  0  0  0  0  0  0
  -25.3260  -16.2330   20.3740 H   0  0  0  0  0  0  0  0  0  0  0  0
  -26.8860  -15.9600   19.7860 H   0  0  0  0  0  0  0  0  0  0  0  0
  1  4  2  0
  1  3  1  0
  3  5  2  0
  4  6  1  0
  5  2  1  0
  5  7  1  0
  6  2  2  0
  6  8  1  0
  9 10  1  0
  9 11  1  0
 10 11  1  0
 11 12  1  6
 11  3  1  0
 13 15  1  0
 13 12  1  0
 14 25  2  0
 15 20  1  0
 16 24  1  0
 16 26  1  0
 17 23  1  0
 17 19  1  0
 18 24  1  0
 19 18  1  0
 20 19  2  0
 21 22  1  0
 21 15  2  0
 22 17  2  0
 23 16  1  0
 24 14  1  0
 26 28  2  0
 27 26  1  0
 29 27  1  0
 30 39  2  0
 30 35  1  0
 31 27  1  0
 31 35  1  0
 32 31  1  0
 33 34  1  0
 33 32  1  0
 34 30  1  0
 35 36  2  0
 36 37  1  0
 38 37  2  0
 39 38  1  0
 40 14  1  0
 40 45  1  0
 40 41  1  0
 41 44  1  1
 41 42  1  0
 43 41  1  0
 45 48  1  0
 46 50  1  0
 46 45  1  0
 47 46  2  0
 50 49  1  0
 52 50  1  0
 52 53  1  0
 52 51  1  0
 54 63  1  0
 54  4  1  0
 55 61  1  0
 55 63  1  0
 56 61  1  0
 57 58  1  0
 57 56  1  0
 59 58  1  0
 59 68  1  0
 59 60  1  0
 61 60  1  0
 62 55  2  0
 63 64  1  0
 65 66  2  0
 66 85  1  0
 67 66  1  0
 67 70  1  0
 68 69  1  0
 68 65  1  0
 69 67  2  0
 70 71  1  0
 71 72  2  0
 73 76  1  0
 73 72  1  0
 74 73  2  0
 75 74  1  0
 75 70  2  0
 76 77  1  0
 77 78  1  0
 78 79  2  0
 80 79  1  0
 80 84  1  0
 81 80  2  0
 82 77  2  0
 82 81  1  0
 83 82  1  0
 85 86  1  0
 86 89  1  0
 86 88  1  0
 87 85  2  0
 90 65  1  0
 90 91  1  0
 92 90  1  0
M  ISO  4  12 101  13 101  55 100  63 100
M  END
>  <TORSDO>  (57) 
F 19

>  <SCORE>  (57) 
-12.731

>  <name>  (57) 
56

>  <ligand_id>  (57) 
56

>  <original_smiles>  (57) 
[H]c1c([H])c([H])c2c(c1[H])C([H])([H])C([H])([H])C([H])([H])C2([H])N([H])C(=O)C1([H])N(C(=O)C([H])(N([H])C(=O)C([H])(N([H])C([H])([H])[H])C([H])([H])[H])C(C([H])([H])[H])(C([H])([H])[H])C([H])([H])[H])C([H])([H])c2c([H])c(OC([H])([H])C3(c4c([H])c(C([H])([H])N([H])C(=O)N5C([H])([H])C([H])([H])C([H])([H])C([H])(n6nc(-c7c([H])c([H])c(Oc8c([H])c([H])c(F)c([H])c8F)c([H])c7[H])c(C(=O)N([H])[H])c6N([H])[H])C5([H])[H])c(C([H])([H])[H])c([H])c4C([H])([H])[H])C([H])([H])C3([H])[H])c([H])c([H])c2C1([H])[H]

>  <smiles>  (57) 
[H]c1c([H])c([H])c2c(c1[H])C([H])([H])C([H])([H])C([H])([H])C2([H])N([H])C(=O)C1([H])N(C(=O)C([H])(N([H])C(=O)C([H])(N([H])C([H])([H])[H])C([H])([H])[H])C(C([H])([H])[H])(C([H])([H])[H])C([H])([H])[H])C([H])([H])c2c([H])c(OC([H])([H])C3(c4c([H])c(C([H])([H])N([H])C(=O)N5C([H])([H])C([H])([H])C([H])([H])C([H])(n6nc(-c7c([H])c([H])c(Oc8c([H])c([H])c(F)c([H])c8F)c([H])c7[H])c(C(=O)N([H])[H])c6N([H])[H])C5([H])[H])c(C([H])([H])[H])c([H])c4C([H])([H])[H])C([H])([H])C3([H])[H])c([H])c([H])c2C1([H])[H]

$$$$
57:0:0
     RDKit          3D

 98106  0  0  1  0  0  0  0  0999 V2000
  -28.9000  -17.7080   19.7240 C   0  0  0  0  0  2  0  0  0  0  0  0
  -26.7960  -17.8700   20.5230 C   0  0  0  0  0  2  0  0  0  0  0  0
  -29.1210  -19.3820   19.9410 C   0  0  0  0  0  2  0  0  0  0  0  0
  -27.0110  -19.5630   20.7560 C   0  0  0  0  0  2  0  0  0  0  0  0
  -27.9510  -16.6610   20.6110 C   0  0  0  0  0  3  0  0  0  0  0  0
  -27.9750  -20.4390   19.8840 N   0  0  1  0  0  4  0  0  0  0  0  0
  -27.6180  -20.4000   18.9400 H   0  0  0  0  0  0  0  0  0  0  0  0
  -27.2680  -12.7850   17.9560 C   0  0  0  0  0  3  0  0  0  0  0  0
  -27.1710  -11.2960   19.1640 C   0  0  0  0  0  3  0  0  0  0  0  0
  -27.7660  -14.8520   20.3140 C   0  0  0  0  0  0  0  0  0  0  0  0
  -27.5920  -13.4730   21.5070 C   0  0  0  0  0  0  0  0  0  0  0  0
  -27.7420  -14.4790   18.6380 C   0  0  0  0  0  0  0  0  0  0  0  0
  -27.3520  -11.7010   20.9950 C   0  0  0  0  0  0  0  0  0  0  0  0
  -27.6400  -13.7880   22.9860 C   0  0  0  0  0  1  0  0  0  0  0  0
  -30.5280  -14.7840   19.1990 C   0  0  0  0  0  0  0  0  0  0  0  0
  -31.5700  -12.5840   19.0380 C   0  0  0  0  0  2  0  0  0  0  0  0
  -30.7510  -12.0190   17.8870 C   0  0  0  0  0  2  0  0  0  0  0  0
  -29.5330  -11.5940   18.6820 C   0  0  0  0  0  2  0  0  0  0  0  0
  -28.8190  -12.7700   19.6990 C   0  0  0  0  0  2  0  0  0  0  0  0
  -29.9160  -13.0170   20.7270 C   0  0  0  0  0  2  0  0  0  0  0  0
  -30.8020  -13.5950   19.8050 N   0  0  0  0  0  0  0  0  0  0  0  0
  -31.5710  -15.4320   19.1080 O   0  0  0  0  0  0  0  0  0  0  0  0
  -29.2410  -15.0470   18.4810 N   0  0  0  0  0  0  0  0  0  0  0  0
  -29.3050  -15.8410   17.8620 H   0  0  0  0  0  0  0  0  0  0  0  0
  -25.0990  -14.0230   20.3590 C   0  0  0  0  0  3  0  0  0  0  0  0
  -24.1770  -13.1540   20.9230 C   0  0  0  0  0  3  0  0  0  0  0  0
  -24.6080  -11.8280   20.7560 C   0  0  0  0  0  3  0  0  0  0  0  0
  -26.0690  -13.2230   19.8410 N   0  0  0  0  0  2  0  0  0  0  0  0
  -25.0530  -12.2230   19.6350 N   0  0  0  0  0  2  0  0  0  0  0  0
  -24.0880  -10.4300   20.9150 C   0  0  0  0  0  0  0  0  0  0  0  0
  -24.5170   -9.5270   21.9290 C   0  0  0  0  0  3  0  0  0  0  0  0
  -23.9210   -8.2540   22.0940 C   0  0  0  0  0  3  0  0  0  0  0  0
  -22.8430   -7.8730   21.2640 C   0  0  0  0  0  0  0  0  0  0  0  0
  -22.4530   -8.7400   20.2280 C   0  0  0  0  0  3  0  0  0  0  0  0
  -23.0770   -9.9860   20.0430 C   0  0  0  0  0  3  0  0  0  0  0  0
  -22.1470   -6.6900   21.3700 O   0  0  0  0  0  0  0  0  0  0  0  0
  -21.9530   -6.0550   22.5720 C   0  0  0  0  0  0  0  0  0  0  0  0
  -21.3440   -6.6920   23.6760 C   0  0  0  0  0  3  0  0  0  0  0  0
  -21.1120   -5.9710   24.8660 C   0  0  0  0  0  3  0  0  0  0  0  0
  -21.4750   -4.6140   24.9520 C   0  0  0  0  0  0  0  0  0  0  0  0
  -22.0690   -3.9740   23.8490 C   0  0  0  0  0  3  0  0  0  0  0  0
  -22.3020   -4.6920   22.6630 C   0  0  0  0  0  0  0  0  0  0  0  0
  -22.8550   -4.0640   21.5980 F   0  0  0  0  0  0  0  0  0  0  0  0
  -21.2490   -3.9190   26.0920 F   0  0  0  0  0  0  0  0  0  0  0  0
  -22.7760  -13.4880   21.1250 C   0  0  0  0  0  0  0  0  0  0  0  0
  -22.1150  -12.7260   21.9770 N   0  0  0  0  0  0  0  0  0  0  0  0
  -22.2780  -14.4160   20.4980 O   0  0  0  0  0  0  0  0  0  0  0  0
  -22.5740  -11.9760   22.4720 H   0  0  0  0  0  0  0  0  0  0  0  0
  -21.1330  -12.8970   22.1480 H   0  0  0  0  0  0  0  0  0  0  0  0
  -25.1080  -15.3720   20.1110 N   0  0  0  0  0  0  0  0  0  0  0  0
  -24.3340  -15.9900   20.3250 H   0  0  0  0  0  0  0  0  0  0  0  0
  -25.8600  -15.8020   19.5940 H   0  0  0  0  0  0  0  0  0  0  0  0
  -27.9840   -9.5020   21.5100 C   0  0  0  0  0  1  0  0  0  0  0  0
  -27.4520  -10.7390   21.9620 O   0  0  0  0  0  0  0  0  0  0  0  0
  -28.3560  -22.1000   20.1430 C   0  0  0  0  0  2  0  0  0  0  0  0
  -26.3180  -23.7430   20.5510 C   0  0  0  0  0  1  0  0  0  0  0  0
  -27.6150  -23.7490   19.7250 C   0  0  0  0  0  3  0  0  0  0  0  0
  -28.1070  -25.3890   19.7790 O   0  0  0  0  0  0  0  0  0  0  0  0
  -24.7960  -31.4580   22.8740 C   0  0  0  0  0  0  0  0  0  0  0  0
  -27.2600  -26.6320   19.6760 C   0  0  0  0  0  0  0  0  0  0  0  0
  -23.6130  -30.1230   21.1870 C   0  0  0  0  0  3  0  0  0  0  0  0
  -25.0560  -28.6160   19.6600 C   0  0  0  0  0  0  0  0  0  0  0  0
  -26.1790  -30.3390   21.0450 C   0  0  0  0  0  2  0  0  0  0  0  0
  -26.2410  -28.9530   20.3250 C   0  0  0  0  0  0  0  0  0  0  0  0
  -27.3460  -27.9780   20.3160 C   0  0  0  0  0  3  0  0  0  0  0  0
  -26.1030  -26.5250   18.8840 C   0  0  0  0  0  3  0  0  0  0  0  0
  -25.0230  -27.4350   18.9070 C   0  0  0  0  0  3  0  0  0  0  0  0
  -23.8370  -29.5310   19.7700 C   0  0  0  0  0  2  0  0  0  0  0  0
  -24.8860  -30.6700   21.7540 N   0  0  0  0  0  0  0  0  0  0  0  0
  -23.7040  -31.7090   23.4110 O   0  0  0  0  0  0  0  0  0  0  0  0
  -22.9480  -29.0630   22.1050 C   0  0  0  0  0  0  0  0  0  0  0  0
  -21.6120  -28.9140   22.0210 N   0  0  0  0  0  0  0  0  0  0  0  0
  -23.6390  -28.3820   22.8670 O   0  0  0  0  0  0  0  0  0  0  0  0
  -21.1050  -29.5170   21.3900 H   0  0  0  0  0  0  0  0  0  0  0  0
  -18.2380  -27.7270   22.6300 C   0  0  0  0  0  0  0  0  0  0  0  0
  -20.8150  -27.9320   22.7640 C   0  0  0  0  0  3  0  0  0  0  0  0
  -20.8530  -26.5480   22.0750 C   0  0  0  0  0  2  0  0  0  0  0  0
  -19.6900  -26.3250   21.1030 C   0  0  0  0  0  2  0  0  0  0  0  0
  -18.3500  -26.4360   21.8350 C   0  0  0  0  0  2  0  0  0  0  0  0
  -19.3940  -28.4380   23.0520 C   0  0  0  0  0  0  0  0  0  0  0  0
  -19.2310  -29.6460   23.7620 C   0  0  0  0  0  3  0  0  0  0  0  0
  -17.9470  -30.1470   24.0470 C   0  0  0  0  0  3  0  0  0  0  0  0
  -16.8070  -29.4350   23.6370 C   0  0  0  0  0  3  0  0  0  0  0  0
  -16.9530  -28.2250   22.9350 C   0  0  0  0  0  3  0  0  0  0  0  0
  -26.0590  -32.1010   23.5240 C   0  0  0  0  0  3  0  0  0  0  0  0
  -26.6100  -31.2720   24.7500 C   0  0  1  0  0  0  0  0  0  0  0  0
  -25.5380  -30.9430   25.8150 C   0  0  0  0  0  1  0  0  0  0  0  0
  -27.2260  -29.9340   24.2830 C   0  0  0  0  0  1  0  0  0  0  0  0
  -27.7470  -32.0590   25.4420 C   0  0  0  0  0  1  0  0  0  0  0  0
  -25.7010  -33.4640   23.9590 N   0  0  0  0  0  0  0  0  0  0  0  0
  -25.9970  -34.5870   23.2910 C   0  0  0  0  0  0  0  0  0  0  0  0
  -26.6610  -34.5880   22.2510 O   0  0  0  0  0  0  0  0  0  0  0  0
  -25.1060  -33.5360   24.7700 H   0  0  0  0  0  0  0  0  0  0  0  0
  -24.2140  -36.3580   23.1010 C   0  0  0  0  0  1  0  0  0  0  0  0
  -25.4760  -35.9230   23.8630 C   0  0  0  0  0  3  0  0  0  0  0  0
  -27.5900  -36.8070   24.7470 C   0  0  0  0  0  1  0  0  0  0  0  0
  -26.4760  -37.0120   23.8260 N   0  0  0  0  0  0  0  0  0  0  0  0
  -26.0440  -37.9050   24.0450 H   0  0  0  0  0  0  0  0  0  0  0  0
  1  3  1  0
  1  5  1  0
  2  5  1  0
  2  4  1  0
  5 10  1  0
  6  3  1  0
  6 55  1  0
  6  4  1  0
  6  7  1  6
  8 12  2  0
  8  9  1  0
  9 13  2  0
 10 11  2  0
 11 14  1  0
 12 10  1  0
 13 11  1  0
 13 54  1  0
 15 21  1  0
 16 21  1  0
 17 18  1  0
 17 16  1  0
 18 19  1  0
 19 20  1  0
 21 20  1  0
 22 15  2  0
 23 12  1  0
 23 15  1  0
 24 23  1  0
 25 50  1  0
 25 26  1  0
 26 45  1  0
 27 30  1  0
 27 26  1  0
 28 25  1  0
 29 28  1  0
 29 27  1  0
 30 31  1  0
 31 32  2  0
 33 36  1  0
 33 32  1  0
 34 33  2  0
 35 34  1  0
 35 30  2  0
 36 37  1  0
 37 42  2  0
 37 38  1  0
 38 39  2  0
 39 40  1  0
 40 44  1  0
 41 40  2  0
 42 41  1  0
 43 42  1  0
 45 46  1  0
 46 49  1  0
 46 48  1  0
 47 45  2  0
 50 51  1  0
 52 50  1  0
 53 54  1  0
 57 58  1  0
 57 55  1  0
 57 56  1  0
 59 70  2  0
 60 58  1  0
 60 65  1  0
 61 69  1  0
 61 71  1  0
 62 68  1  0
 62 64  1  0
 63 69  1  0
 64 63  1  0
 65 64  2  0
 66 67  1  0
 66 60  2  0
 67 62  2  0
 68 61  1  0
 69 59  1  0
 71 73  2  0
 72 71  1  0
 74 72  1  0
 75 84  2  0
 75 80  1  0
 76 72  1  0
 76 80  1  0
 77 76  1  0
 78 79  1  0
 78 77  1  0
 79 75  1  0
 80 81  2  0
 81 82  1  0
 83 82  2  0
 84 83  1  0
 85 59  1  0
 85 90  1  0
 85 86  1  0
 86 89  1  1
 86 87  1  0
 88 86  1  0
 90 93  1  0
 91 95  1  0
 91 90  1  0
 92 91  2  0
 95 94  1  0
 97 95  1  0
 97 98  1  0
 97 96  1  0
M  ISO  4  15 100  23 100  57 101  58 101
M  END
>  <TORSDO>  (58) 
F 20

>  <SCORE>  (58) 
-9.327

>  <name>  (58) 
57

>  <ligand_id>  (58) 
57

>  <original_smiles>  (58) 
[H]c1c([H])c([H])c2c(c1[H])C([H])([H])C([H])([H])C([H])([H])C2([H])N([H])C(=O)C1([H])N(C(=O)C([H])(N([H])C(=O)C([H])(N([H])C([H])([H])[H])C([H])([H])[H])C(C([H])([H])[H])(C([H])([H])[H])C([H])([H])[H])C([H])([H])c2c([H])c(OC([H])(C([H])([H])[H])C([H])([H])[N+]3([H])C([H])([H])C([H])([H])C([H])(c4c(N([H])C(=O)N5C([H])([H])C([H])([H])C([H])([H])C([H])(n6nc(-c7c([H])c([H])c(Oc8c([H])c([H])c(F)c([H])c8F)c([H])c7[H])c(C(=O)N([H])[H])c6N([H])[H])C5([H])[H])c([H])c([H])c(OC([H])([H])[H])c4C([H])([H])[H])C([H])([H])C3([H])[H])c([H])c([H])c2C1([H])[H]

>  <smiles>  (58) 
[H]c1c([H])c([H])c2c(c1[H])C([H])([H])C([H])([H])C([H])([H])C2([H])N([H])C(=O)C1([H])N(C(=O)C([H])(N([H])C(=O)C([H])(N([H])C([H])([H])[H])C([H])([H])[H])C(C([H])([H])[H])(C([H])([H])[H])C([H])([H])[H])C([H])([H])c2c([H])c(OC([H])(C([H])([H])[H])C([H])([H])[N+]3([H])C([H])([H])C([H])([H])C([H])(c4c(N([H])C(=O)N5C([H])([H])C([H])([H])C([H])([H])C([H])(n6nc(-c7c([H])c([H])c(Oc8c([H])c([H])c(F)c([H])c8F)c([H])c7[H])c(C(=O)N([H])[H])c6N([H])[H])C5([H])[H])c([H])c([H])c(OC([H])([H])[H])c4C([H])([H])[H])C([H])([H])C3([H])[H])c([H])c([H])c2C1([H])[H]

$$$$
58:0:0
     RDKit          3D

 96105  0  0  1  0  0  0  0  0999 V2000
  -31.3810  -21.4360   21.8150 C   0  0  0  0  0  3  0  0  0  0  0  0
  -30.9600  -22.7800   21.8360 C   0  0  0  0  0  3  0  0  0  0  0  0
  -30.8890  -22.7790   19.4110 C   0  0  0  0  0  3  0  0  0  0  0  0
  -31.5730  -20.7480   20.5960 C   0  0  0  0  0  0  0  0  0  0  0  0
  -31.2980  -21.4300   19.3780 C   0  0  0  0  0  0  0  0  0  0  0  0
  -30.7270  -23.4710   20.6240 C   0  0  0  0  0  0  0  0  0  0  0  0
  -31.4060  -20.7730   18.0110 C   0  0  0  0  0  1  0  0  0  0  0  0
  -32.1200  -19.3210   20.6560 C   0  0  0  0  0  2  0  0  0  0  0  0
  -30.6970  -14.4840   20.3640 C   0  0  0  0  0  0  0  0  0  0  0  0
  -30.3560  -12.3470   19.2120 C   0  0  0  0  0  2  0  0  0  0  0  0
  -29.3990  -12.5750   18.0240 C   0  0  0  0  0  2  0  0  0  0  0  0
  -27.9320  -12.4380   18.4790 C   0  0  0  0  0  2  0  0  0  0  0  0
  -27.6120  -13.2580   19.7560 C   0  0  0  0  0  3  0  0  0  0  0  0
  -28.6870  -13.0470   20.8470 C   0  0  0  0  0  2  0  0  0  0  0  0
  -30.0000  -13.3250   20.2460 N   0  0  0  0  0  0  0  0  0  0  0  0
  -31.8610  -14.6110   19.9820 O   0  0  0  0  0  0  0  0  0  0  0  0
  -29.9640  -16.3100   21.7920 C   0  0  0  0  0  2  0  0  0  0  0  0
  -31.0630  -17.4060   21.8330 C   0  0  0  0  0  2  0  0  0  0  0  0
  -31.0120  -17.5270   19.3700 C   0  0  0  0  0  2  0  0  0  0  0  0
  -29.8580  -16.5050   19.3500 C   0  0  0  0  0  3  0  0  0  0  0  0
  -28.4810  -17.1860   19.2080 C   0  0  0  0  0  1  0  0  0  0  0  0
  -29.9310  -15.5910   20.5100 N   0  0  0  0  0  0  0  0  0  0  0  0
  -31.0440  -18.2950   20.6380 N   0  0  2  0  0  4  0  0  0  0  0  0
  -30.1830  -18.8180   20.6780 H   0  0  0  0  0  0  0  0  0  0  0  0
  -25.2180  -13.8570   20.4880 C   0  0  0  0  0  0  0  0  0  0  0  0
  -24.1550  -13.0800   20.8630 C   0  0  0  0  0  0  0  0  0  0  0  0
  -24.6240  -11.7300   20.8300 C   0  0  0  0  0  0  0  0  0  0  0  0
  -26.2660  -12.9810   20.2500 N   0  0  0  0  0  0  0  0  0  0  0  0
  -25.9120  -11.6980   20.5150 N   0  0  0  0  0  0  0  0  0  0  0  0
  -23.9090  -10.4650   21.0250 C   0  0  0  0  0  0  0  0  0  0  0  0
  -24.3560   -9.4990   21.9540 C   0  0  0  0  0  3  0  0  0  0  0  0
  -23.6400   -8.2970   22.1390 C   0  0  0  0  0  3  0  0  0  0  0  0
  -22.4620   -8.0530   21.3940 C   0  0  0  0  0  0  0  0  0  0  0  0
  -22.0340   -9.0060   20.4540 C   0  0  0  0  0  3  0  0  0  0  0  0
  -22.7500  -10.1990   20.2670 C   0  0  0  0  0  3  0  0  0  0  0  0
  -21.7200   -6.9010   21.4870 O   0  0  0  0  0  0  0  0  0  0  0  0
  -21.6880   -6.1560   22.6380 C   0  0  0  0  0  0  0  0  0  0  0  0
  -21.2680   -6.7040   23.8700 C   0  0  0  0  0  3  0  0  0  0  0  0
  -21.1830   -5.8830   25.0130 C   0  0  0  0  0  3  0  0  0  0  0  0
  -21.5100   -4.5170   24.9260 C   0  0  0  0  0  0  0  0  0  0  0  0
  -21.9230   -3.9680   23.7010 C   0  0  0  0  0  3  0  0  0  0  0  0
  -22.0100   -4.7850   22.5590 C   0  0  0  0  0  0  0  0  0  0  0  0
  -22.3880   -4.2460   21.3740 F   0  0  0  0  0  0  0  0  0  0  0  0
  -21.4200   -3.7300   26.0220 F   0  0  0  0  0  0  0  0  0  0  0  0
  -22.7580  -13.5510   21.1450 C   0  0  0  0  0  0  0  0  0  0  0  0
  -22.0400  -12.8510   22.0170 N   0  0  0  0  0  0  0  0  0  0  0  0
  -22.3090  -14.5750   20.6300 O   0  0  0  0  0  0  0  0  0  0  0  0
  -22.4130  -12.0240   22.4590 H   0  0  0  0  0  0  0  0  0  0  0  0
  -21.1030  -13.1500   22.2470 H   0  0  0  0  0  0  0  0  0  0  0  0
  -25.3750  -15.2290   20.3130 N   0  0  0  0  0  0  0  0  0  0  0  0
  -24.6100  -15.8850   20.4300 H   0  0  0  0  0  0  0  0  0  0  0  0
  -26.2360  -15.6750   20.0270 H   0  0  0  0  0  0  0  0  0  0  0  0
  -30.3640  -24.7950   20.5420 O   0  0  0  0  0  0  0  0  0  0  0  0
  -29.7080  -25.3720   21.6610 C   0  0  0  0  0  2  0  0  0  0  0  0
  -29.2280  -26.7840   21.2960 C   0  0  0  0  0  2  0  0  0  0  0  0
  -28.3430  -26.7020   20.1750 O   0  0  0  0  0  0  0  0  0  0  0  0
  -24.5360  -31.8940   23.2420 C   0  0  0  0  0  0  0  0  0  0  0  0
  -27.2100  -27.4810   20.1970 C   0  0  0  0  0  0  0  0  0  0  0  0
  -23.3380  -30.4930   21.5870 C   0  0  0  0  0  3  0  0  0  0  0  0
  -24.8040  -28.9560   20.1780 C   0  0  0  0  0  0  0  0  0  0  0  0
  -25.8580  -30.8660   21.4010 C   0  0  0  0  0  2  0  0  0  0  0  0
  -25.9500  -29.4940   20.7730 C   0  0  0  0  0  0  0  0  0  0  0  0
  -27.1570  -28.7660   20.7840 C   0  0  0  0  0  3  0  0  0  0  0  0
  -26.0520  -26.9550   19.5880 C   0  0  0  0  0  3  0  0  0  0  0  0
  -24.8460  -27.6810   19.5830 C   0  0  0  0  0  3  0  0  0  0  0  0
  -23.5580  -29.8110   20.2090 C   0  0  0  0  0  2  0  0  0  0  0  0
  -24.5940  -31.0990   22.1370 N   0  0  0  0  0  0  0  0  0  0  0  0
  -23.4520  -32.1630   23.7800 O   0  0  0  0  0  0  0  0  0  0  0  0
  -22.6820  -29.4720   22.5430 C   0  0  0  0  0  0  0  0  0  0  0  0
  -21.3580  -29.2950   22.4120 N   0  0  0  0  0  0  0  0  0  0  0  0
  -23.3620  -28.8400   23.3560 O   0  0  0  0  0  0  0  0  0  0  0  0
  -20.8700  -29.8560   21.7280 H   0  0  0  0  0  0  0  0  0  0  0  0
  -17.9760  -28.1360   22.9190 C   0  0  0  0  0  0  0  0  0  0  0  0
  -20.5380  -28.3600   23.1790 C   0  0  0  0  0  3  0  0  0  0  0  0
  -20.6200  -26.9340   22.5900 C   0  0  0  0  0  2  0  0  0  0  0  0
  -19.5080  -26.6340   21.5780 C   0  0  0  0  0  2  0  0  0  0  0  0
  -18.1330  -26.7910   22.2300 C   0  0  0  0  0  2  0  0  0  0  0  0
  -19.1050  -28.8800   23.3520 C   0  0  0  0  0  0  0  0  0  0  0  0
  -18.9070  -30.1390   23.9570 C   0  0  0  0  0  3  0  0  0  0  0  0
  -17.6090  -30.6570   24.1300 C   0  0  0  0  0  3  0  0  0  0  0  0
  -16.4940  -29.9110   23.7130 C   0  0  0  0  0  3  0  0  0  0  0  0
  -16.6770  -28.6520   23.1150 C   0  0  0  0  0  3  0  0  0  0  0  0
  -25.8200  -32.5210   23.8690 C   0  0  0  0  0  3  0  0  0  0  0  0
  -26.3270  -31.7530   25.1500 C   0  0  1  0  0  0  0  0  0  0  0  0
  -25.2310  -31.5300   26.2180 C   0  0  0  0  0  1  0  0  0  0  0  0
  -26.9000  -30.3700   24.7630 C   0  0  0  0  0  1  0  0  0  0  0  0
  -27.4830  -32.5390   25.8110 C   0  0  0  0  0  1  0  0  0  0  0  0
  -25.5160  -33.9220   24.1870 N   0  0  0  0  0  0  0  0  0  0  0  0
  -25.8690  -34.9670   23.4260 C   0  0  0  0  0  0  0  0  0  0  0  0
  -26.5570  -34.8520   22.4080 O   0  0  0  0  0  0  0  0  0  0  0  0
  -24.9070  -34.0860   24.9750 H   0  0  0  0  0  0  0  0  0  0  0  0
  -24.1650  -36.7710   23.0220 C   0  0  0  0  0  1  0  0  0  0  0  0
  -25.3820  -36.3610   23.8650 C   0  0  0  0  0  3  0  0  0  0  0  0
  -27.5070  -37.2270   24.7410 C   0  0  0  0  0  1  0  0  0  0  0  0
  -26.4250  -37.4050   23.7750 N   0  0  0  0  0  0  0  0  0  0  0  0
  -26.0230  -38.3280   23.9190 H   0  0  0  0  0  0  0  0  0  0  0  0
  1  2  1  0
  3  6  1  0
  4  8  1  0
  4  1  2  0
  5  3  2  0
  5  4  1  0
  6  2  2  0
  7  5  1  0
  9 22  1  0
 10 15  1  0
 11 12  1  0
 11 10  1  0
 13 12  1  0
 13 28  1  0
 13 14  1  0
 15  9  1  0
 15 14  1  0
 16  9  2  0
 17 18  1  0
 19 23  1  0
 20 21  1  0
 20 19  1  0
 20 22  1  0
 22 17  1  0
 23  8  1  0
 23 24  1  1
 23 18  1  0
 25 26  2  0
 26 45  1  0
 27 26  1  0
 27 30  1  0
 28 25  1  0
 28 29  1  0
 29 27  2  0
 30 31  1  0
 31 32  2  0
 33 36  1  0
 33 32  1  0
 34 33  2  0
 35 34  1  0
 35 30  2  0
 36 37  1  0
 37 38  1  0
 38 39  2  0
 40 39  1  0
 40 44  1  0
 41 40  2  0
 42 37  2  0
 42 41  1  0
 43 42  1  0
 45 46  1  0
 46 49  1  0
 46 48  1  0
 47 45  2  0
 50 51  1  0
 50 25  1  0
 52 50  1  0
 53  6  1  0
 53 54  1  0
 55 54  1  0
 56 58  1  0
 56 55  1  0
 57 68  2  0
 58 63  1  0
 59 67  1  0
 59 69  1  0
 60 66  1  0
 60 62  1  0
 61 67  1  0
 62 63  2  0
 62 61  1  0
 64 58  2  0
 65 64  1  0
 65 60  2  0
 66 59  1  0
 67 57  1  0
 69 71  2  0
 70 69  1  0
 72 70  1  0
 73 82  2  0
 73 78  1  0
 74 70  1  0
 74 78  1  0
 75 74  1  0
 76 77  1  0
 76 75  1  0
 77 73  1  0
 78 79  2  0
 79 80  1  0
 81 80  2  0
 82 81  1  0
 83 57  1  0
 83 88  1  0
 83 84  1  0
 84 87  1  1
 84 85  1  0
 86 84  1  0
 88 91  1  0
 89 93  1  0
 89 88  1  0
 90 89  2  0
 93 92  1  0
 95 93  1  0
 95 96  1  0
 95 94  1  0
M  ISO  4   9 100  22 100  55 101  56 101
M  END
>  <TORSDO>  (59) 
F 20

>  <SCORE>  (59) 
-14.222

>  <name>  (59) 
58

>  <ligand_id>  (59) 
58

>  <original_smiles>  (59) 
[H]c1c([H])c([H])c2c(c1[H])C([H])([H])C([H])([H])C([H])([H])C2([H])N([H])C(=O)C1([H])N(C(=O)C([H])(N([H])C(=O)C([H])(N([H])C([H])([H])[H])C([H])([H])[H])C(C([H])([H])[H])(C([H])([H])[H])C([H])([H])[H])C([H])([H])c2c([H])c(OC([H])([H])C([H])([H])Oc3c([H])c([H])c(C([H])([H])[N+]4([H])C([H])([H])C([H])([H])N(C(=O)N5C([H])([H])C([H])([H])C([H])([H])C([H])(n6nc(-c7c([H])c([H])c(Oc8c([H])c([H])c(F)c([H])c8F)c([H])c7[H])c(C(=O)N([H])[H])c6N([H])[H])C5([H])[H])C([H])(C([H])([H])[H])C4([H])[H])c(C([H])([H])[H])c3[H])c([H])c([H])c2C1([H])[H]

>  <smiles>  (59) 
[H]c1c([H])c([H])c2c(c1[H])C([H])([H])C([H])([H])C([H])([H])C2([H])N([H])C(=O)C1([H])N(C(=O)C([H])(N([H])C(=O)C([H])(N([H])C([H])([H])[H])C([H])([H])[H])C(C([H])([H])[H])(C([H])([H])[H])C([H])([H])[H])C([H])([H])c2c([H])c(OC([H])([H])C([H])([H])Oc3c([H])c([H])c(C([H])([H])[N+]4([H])C([H])([H])C([H])([H])N(C(=O)N5C([H])([H])C([H])([H])C([H])([H])C([H])(n6nc(-c7c([H])c([H])c(Oc8c([H])c([H])c(F)c([H])c8F)c([H])c7[H])c(C(=O)N([H])[H])c6N([H])[H])C5([H])[H])C([H])(C([H])([H])[H])C4([H])[H])c(C([H])([H])[H])c3[H])c([H])c([H])c2C1([H])[H]

$$$$
59:0:0
     RDKit          3D

 93102  0  0  1  0  0  0  0  0999 V2000
  -30.4620  -20.8000   21.0560 C   0  0  0  0  0  3  0  0  0  0  0  0
  -29.3650  -20.4700   20.2390 C   0  0  0  0  0  0  0  0  0  0  0  0
  -28.5840  -21.6780   19.8120 C   0  0  0  0  0  0  0  0  0  0  0  0
  -28.8840  -23.1120   20.1620 C   0  0  0  0  0  0  0  0  0  0  0  0
  -30.0160  -23.2550   21.0080 C   0  0  0  0  0  0  0  0  0  0  0  0
  -30.7820  -22.1320   21.4450 C   0  0  0  0  0  0  0  0  0  0  0  0
  -27.3450  -21.4200   18.9710 C   0  0  0  0  0  1  0  0  0  0  0  0
  -30.4120  -24.6490   21.4880 C   0  0  0  0  0  1  0  0  0  0  0  0
  -30.4170  -14.9030   19.9020 C   0  0  0  0  0  0  0  0  0  0  0  0
  -30.2040  -12.5550   18.9240 C   0  0  0  0  0  2  0  0  0  0  0  0
  -29.1860  -12.4840   17.7610 C   0  0  0  0  0  2  0  0  0  0  0  0
  -27.7650  -12.2400   18.3000 C   0  0  0  0  0  2  0  0  0  0  0  0
  -27.4330  -13.1520   19.5090 C   0  0  0  0  0  3  0  0  0  0  0  0
  -28.5720  -13.1750   20.5510 C   0  0  0  0  0  2  0  0  0  0  0  0
  -29.7740  -13.6520   19.8500 N   0  0  0  0  0  0  0  0  0  0  0  0
  -31.6020  -14.8920   19.5450 O   0  0  0  0  0  0  0  0  0  0  0  0
  -28.2620  -18.0440   20.9250 C   0  0  0  0  0  2  0  0  0  0  0  0
  -28.4320  -16.4950   20.6490 C   0  0  0  0  0  2  0  0  0  0  0  0
  -30.2770  -17.6430   19.8370 C   0  0  0  0  0  2  0  0  0  0  0  0
  -29.1290  -18.8350   19.9320 C   0  0  0  0  0  3  0  0  0  0  0  0
  -29.7580  -16.1860   20.0740 N   0  0  0  0  0  0  0  0  0  0  0  0
  -25.1150  -13.7060   20.4370 C   0  0  0  0  0  0  0  0  0  0  0  0
  -24.0810  -12.9220   20.8620 C   0  0  0  0  0  0  0  0  0  0  0  0
  -24.5410  -11.5730   20.7610 C   0  0  0  0  0  0  0  0  0  0  0  0
  -26.1380  -12.8380   20.0990 N   0  0  0  0  0  0  0  0  0  0  0  0
  -25.8080  -11.5460   20.3600 N   0  0  0  0  0  0  0  0  0  0  0  0
  -23.8280  -10.3070   20.9650 C   0  0  0  0  0  0  0  0  0  0  0  0
  -24.2940   -9.3350   21.8770 C   0  0  0  0  0  3  0  0  0  0  0  0
  -23.5770   -8.1350   22.0720 C   0  0  0  0  0  3  0  0  0  0  0  0
  -22.3800   -7.8990   21.3540 C   0  0  0  0  0  0  0  0  0  0  0  0
  -21.9340   -8.8590   20.4300 C   0  0  0  0  0  3  0  0  0  0  0  0
  -22.6510  -10.0510   20.2340 C   0  0  0  0  0  3  0  0  0  0  0  0
  -21.6310   -6.7510   21.4600 O   0  0  0  0  0  0  0  0  0  0  0  0
  -21.5830   -6.0290   22.6250 C   0  0  0  0  0  0  0  0  0  0  0  0
  -21.1220   -6.5940   23.8340 C   0  0  0  0  0  3  0  0  0  0  0  0
  -21.0240   -5.7960   24.9920 C   0  0  0  0  0  3  0  0  0  0  0  0
  -21.3760   -4.4350   24.9410 C   0  0  0  0  0  0  0  0  0  0  0  0
  -21.8300   -3.8690   23.7360 C   0  0  0  0  0  3  0  0  0  0  0  0
  -21.9300   -4.6630   22.5810 C   0  0  0  0  0  0  0  0  0  0  0  0
  -22.3480   -4.1090   21.4180 F   0  0  0  0  0  0  0  0  0  0  0  0
  -21.2740   -3.6650   26.0500 F   0  0  0  0  0  0  0  0  0  0  0  0
  -22.7080  -13.3920   21.2430 C   0  0  0  0  0  0  0  0  0  0  0  0
  -22.0470  -12.6800   22.1480 N   0  0  0  0  0  0  0  0  0  0  0  0
  -22.2340  -14.4260   20.7750 O   0  0  0  0  0  0  0  0  0  0  0  0
  -22.4450  -11.8420   22.5470 H   0  0  0  0  0  0  0  0  0  0  0  0
  -21.1280  -12.9760   22.4490 H   0  0  0  0  0  0  0  0  0  0  0  0
  -25.2540  -15.0820   20.2810 N   0  0  0  0  0  0  0  0  0  0  0  0
  -24.4900  -15.7220   20.4620 H   0  0  0  0  0  0  0  0  0  0  0  0
  -26.0650  -15.5360   19.8840 H   0  0  0  0  0  0  0  0  0  0  0  0
  -32.4840  -21.3260   22.9630 C   0  0  0  0  0  1  0  0  0  0  0  0
  -31.8560  -22.4000   22.2710 O   0  0  0  0  0  0  0  0  0  0  0  0
  -28.0050  -24.4720   19.7150 C   0  0  0  0  0  2  0  0  0  0  0  0
  -28.2620  -25.9880   20.0630 O   0  0  0  0  0  0  0  0  0  0  0  0
  -24.6010  -31.6290   23.1520 C   0  0  0  0  0  0  0  0  0  0  0  0
  -27.2200  -26.9980   19.9960 C   0  0  0  0  0  0  0  0  0  0  0  0
  -23.4240  -30.2910   21.4490 C   0  0  0  0  0  3  0  0  0  0  0  0
  -24.8940  -28.7620   19.9910 C   0  0  0  0  0  0  0  0  0  0  0  0
  -25.9820  -30.5550   21.3300 C   0  0  0  0  0  2  0  0  0  0  0  0
  -26.0660  -29.1830   20.6310 C   0  0  0  0  0  0  0  0  0  0  0  0
  -27.2280  -28.3170   20.6160 C   0  0  0  0  0  3  0  0  0  0  0  0
  -26.0210  -26.6930   19.3130 C   0  0  0  0  0  3  0  0  0  0  0  0
  -24.8860  -27.5330   19.3160 C   0  0  0  0  0  3  0  0  0  0  0  0
  -23.6670  -29.6610   20.0510 C   0  0  0  0  0  2  0  0  0  0  0  0
  -24.6890  -30.8460   22.0320 N   0  0  0  0  0  0  0  0  0  0  0  0
  -23.5070  -31.8960   23.6740 O   0  0  0  0  0  0  0  0  0  0  0  0
  -22.7310  -29.2530   22.3680 C   0  0  0  0  0  0  0  0  0  0  0  0
  -21.4030  -29.0960   22.2260 N   0  0  0  0  0  0  0  0  0  0  0  0
  -23.3940  -28.5940   23.1730 O   0  0  0  0  0  0  0  0  0  0  0  0
  -20.9260  -29.6840   21.5570 H   0  0  0  0  0  0  0  0  0  0  0  0
  -18.0070  -27.9190   22.6870 C   0  0  0  0  0  0  0  0  0  0  0  0
  -20.5710  -28.1360   22.9570 C   0  0  0  0  0  3  0  0  0  0  0  0
  -20.6500  -26.7300   22.3180 C   0  0  0  0  0  2  0  0  0  0  0  0
  -19.5410  -26.4670   21.2950 C   0  0  0  0  0  2  0  0  0  0  0  0
  -18.1630  -26.6000   21.9480 C   0  0  0  0  0  2  0  0  0  0  0  0
  -19.1370  -28.6460   23.1470 C   0  0  0  0  0  0  0  0  0  0  0  0
  -18.9350  -29.8800   23.8030 C   0  0  0  0  0  3  0  0  0  0  0  0
  -17.6370  -30.3880   23.9990 C   0  0  0  0  0  3  0  0  0  0  0  0
  -16.5210  -29.6570   23.5540 C   0  0  0  0  0  3  0  0  0  0  0  0
  -16.7080  -28.4240   22.9040 C   0  0  0  0  0  3  0  0  0  0  0  0
  -25.8690  -32.2450   23.8180 C   0  0  0  0  0  3  0  0  0  0  0  0
  -25.5590  -33.6410   24.1650 N   0  0  0  0  0  0  0  0  0  0  0  0
  -25.8770  -34.7050   23.4150 C   0  0  0  0  0  0  0  0  0  0  0  0
  -26.5250  -34.6140   22.3700 O   0  0  0  0  0  0  0  0  0  0  0  0
  -24.9800  -33.7860   24.9790 H   0  0  0  0  0  0  0  0  0  0  0  0
  -24.1230  -36.4900   23.1470 C   0  0  0  0  0  1  0  0  0  0  0  0
  -25.4000  -36.0890   23.9010 C   0  0  0  0  0  3  0  0  0  0  0  0
  -27.5560  -36.9940   24.6520 C   0  0  0  0  0  1  0  0  0  0  0  0
  -26.4190  -37.1500   23.7490 N   0  0  0  0  0  0  0  0  0  0  0  0
  -26.0110  -38.0670   23.9100 H   0  0  0  0  0  0  0  0  0  0  0  0
  -26.3420  -31.4540   25.0990 C   0  0  1  0  0  0  0  0  0  0  0  0
  -25.2190  -31.2140   26.1340 C   0  0  0  0  0  1  0  0  0  0  0  0
  -26.9250  -30.0750   24.7110 C   0  0  0  0  0  1  0  0  0  0  0  0
  -27.4790  -32.2310   25.8040 C   0  0  0  0  0  1  0  0  0  0  0  0
  1  6  1  0
  2  1  2  0
  3  4  2  0
  3  2  1  0
  4  5  1  0
  5  6  2  0
  5  8  1  0
  6 51  1  0
  7  3  1  0
  9 21  1  0
 10 15  1  0
 11 12  1  0
 11 10  1  0
 13 12  1  0
 13 25  1  0
 13 14  1  0
 15  9  1  0
 15 14  1  0
 16  9  2  0
 18 17  1  0
 19 20  1  0
 19 21  1  0
 20  2  1  0
 20 17  1  0
 21 18  1  0
 22 23  2  0
 23 42  1  0
 24 23  1  0
 24 27  1  0
 25 26  1  0
 25 22  1  0
 26 24  2  0
 27 28  1  0
 28 29  2  0
 30 33  1  0
 30 29  1  0
 31 30  2  0
 32 31  1  0
 32 27  2  0
 33 34  1  0
 34 35  1  0
 35 36  2  0
 37 36  1  0
 37 41  1  0
 38 37  2  0
 39 34  2  0
 39 38  1  0
 40 39  1  0
 42 43  1  0
 43 46  1  0
 43 45  1  0
 44 42  2  0
 47 22  1  0
 47 48  1  0
 49 47  1  0
 51 50  1  0
 52 53  1  0
 52  4  1  0
 54 65  2  0
 55 53  1  0
 55 60  1  0
 56 64  1  0
 56 66  1  0
 57 63  1  0
 57 59  1  0
 58 64  1  0
 59 58  1  0
 60 59  2  0
 61 62  1  0
 61 55  2  0
 62 57  2  0
 63 56  1  0
 64 54  1  0
 66 68  2  0
 67 66  1  0
 69 67  1  0
 70 79  2  0
 70 75  1  0
 71 67  1  0
 71 75  1  0
 72 71  1  0
 73 74  1  0
 73 72  1  0
 74 70  1  0
 75 76  2  0
 76 77  1  0
 78 77  2  0
 79 78  1  0
 80 54  1  0
 80 81  1  0
 80 90  1  0
 81 84  1  0
 82 86  1  0
 82 81  1  0
 83 82  2  0
 86 85  1  0
 88 86  1  0
 88 89  1  0
 88 87  1  0
 90 93  1  1
 90 91  1  0
 92 90  1  0
M  ISO  4   9 100  21 100  52 101  53 101
M  END
>  <TORSDO>  (60) 
F 18

>  <SCORE>  (60) 
-13.338

>  <name>  (60) 
59

>  <ligand_id>  (60) 
59

>  <original_smiles>  (60) 
[H]c1c([H])c([H])c2c(c1[H])C([H])([H])C([H])([H])C([H])([H])C2([H])N([H])C(=O)C1([H])N(C(=O)C([H])(N([H])C(=O)C([H])(N([H])C([H])([H])[H])C([H])([H])[H])C(C([H])([H])[H])(C([H])([H])[H])C([H])([H])[H])C([H])([H])c2c([H])c(OC([H])([H])c3c(C([H])([H])[H])c(OC([H])([H])[H])c([H])c(C4([H])C([H])([H])N(C(=O)N5C([H])([H])C([H])([H])C([H])([H])C([H])(n6nc(-c7c([H])c([H])c(Oc8c([H])c([H])c(F)c([H])c8F)c([H])c7[H])c(C(=O)N([H])[H])c6N([H])[H])C5([H])[H])C([H])([H])C4([H])[H])c3C([H])([H])[H])c([H])c([H])c2C1([H])[H]

>  <smiles>  (60) 
[H]c1c([H])c([H])c2c(c1[H])C([H])([H])C([H])([H])C([H])([H])C2([H])N([H])C(=O)C1([H])N(C(=O)C([H])(N([H])C(=O)C([H])(N([H])C([H])([H])[H])C([H])([H])[H])C(C([H])([H])[H])(C([H])([H])[H])C([H])([H])[H])C([H])([H])c2c([H])c(OC([H])([H])c3c(C([H])([H])[H])c(OC([H])([H])[H])c([H])c(C4([H])C([H])([H])N(C(=O)N5C([H])([H])C([H])([H])C([H])([H])C([H])(n6nc(-c7c([H])c([H])c(Oc8c([H])c([H])c(F)c([H])c8F)c([H])c7[H])c(C(=O)N([H])[H])c6N([H])[H])C5([H])[H])C([H])([H])C4([H])[H])c3C([H])([H])[H])c([H])c([H])c2C1([H])[H]

$$$$
60:0:0
     RDKit          3D

 95105  0  0  1  0  0  0  0  0999 V2000
  -28.3870  -22.1390   20.7630 C   0  0  0  0  0  3  0  0  0  0  0  0
  -30.4650  -23.1670   20.0990 C   0  0  0  0  0  3  0  0  0  0  0  0
  -29.0920  -23.2920   20.3690 C   0  0  0  0  0  0  0  0  0  0  0  0
  -30.4300  -20.7630   20.6820 C   0  0  0  0  0  0  0  0  0  0  0  0
  -29.0260  -20.8880   20.9160 C   0  0  0  0  0  0  0  0  0  0  0  0
  -31.1310  -21.9290   20.2450 C   0  0  0  0  0  0  0  0  0  0  0  0
  -28.1310  -19.7340   21.3490 C   0  0  0  0  0  1  0  0  0  0  0  0
  -32.6180  -21.9040   19.9190 C   0  0  0  0  0  1  0  0  0  0  0  0
  -31.3680  -18.9900   22.3870 C   0  0  0  0  0  2  0  0  0  0  0  0
  -31.3320  -17.4530   22.3720 C   0  0  0  0  0  2  0  0  0  0  0  0
  -30.7530  -18.1880   20.1360 C   0  0  0  0  0  2  0  0  0  0  0  0
  -31.2010  -19.4380   20.9210 C   0  0  0  0  0  3  0  0  0  0  0  0
  -31.4290  -17.0300   20.8970 C   0  0  0  0  0  3  0  0  0  0  0  0
  -31.3510  -14.7210   19.9310 C   0  0  0  0  0  0  0  0  0  0  0  0
  -30.9410  -12.5130   18.9060 C   0  0  0  0  0  2  0  0  0  0  0  0
  -29.9510  -12.6460   17.7330 C   0  0  0  0  0  2  0  0  0  0  0  0
  -28.4960  -12.5640   18.2350 C   0  0  0  0  0  2  0  0  0  0  0  0
  -28.2280  -13.5020   19.4420 C   0  0  0  0  0  3  0  0  0  0  0  0
  -29.3220  -13.3360   20.5200 C   0  0  0  0  0  2  0  0  0  0  0  0
  -30.6310  -13.5690   19.8830 N   0  0  0  0  0  0  0  0  0  0  0  0
  -32.4050  -14.8800   19.3100 O   0  0  0  0  0  0  0  0  0  0  0  0
  -30.8180  -15.7150   20.6640 N   0  0  0  0  0  0  0  0  0  0  0  0
  -29.9430  -15.5130   21.1250 H   0  0  0  0  0  0  0  0  0  0  0  0
  -25.9190  -14.2260   20.3220 C   0  0  0  0  0  0  0  0  0  0  0  0
  -24.8280  -13.5060   20.7280 C   0  0  0  0  0  0  0  0  0  0  0  0
  -25.1990  -12.1310   20.6150 C   0  0  0  0  0  0  0  0  0  0  0  0
  -26.8900  -13.2930   19.9930 N   0  0  0  0  0  0  0  0  0  0  0  0
  -26.4620  -12.0250   20.2230 N   0  0  0  0  0  0  0  0  0  0  0  0
  -24.4060  -10.9080   20.8010 C   0  0  0  0  0  0  0  0  0  0  0  0
  -24.7930   -9.9110   21.7220 C   0  0  0  0  0  3  0  0  0  0  0  0
  -24.0050   -8.7520   21.8960 C   0  0  0  0  0  3  0  0  0  0  0  0
  -22.8150   -8.5850   21.1490 C   0  0  0  0  0  0  0  0  0  0  0  0
  -22.4460   -9.5710   20.2170 C   0  0  0  0  0  3  0  0  0  0  0  0
  -23.2350  -10.7200   20.0400 C   0  0  0  0  0  3  0  0  0  0  0  0
  -22.0010   -7.4820   21.2340 O   0  0  0  0  0  0  0  0  0  0  0  0
  -21.8580   -6.7810   22.4040 C   0  0  0  0  0  0  0  0  0  0  0  0
  -21.3750   -7.3880   23.5830 C   0  0  0  0  0  3  0  0  0  0  0  0
  -21.1790   -6.6140   24.7440 C   0  0  0  0  0  3  0  0  0  0  0  0
  -21.4540   -5.2330   24.7250 C   0  0  0  0  0  0  0  0  0  0  0  0
  -21.9290   -4.6260   23.5510 C   0  0  0  0  0  3  0  0  0  0  0  0
  -22.1280   -5.3960   22.3920 C   0  0  0  0  0  0  0  0  0  0  0  0
  -22.5660   -4.8020   21.2560 F   0  0  0  0  0  0  0  0  0  0  0  0
  -21.2580   -4.4880   25.8390 F   0  0  0  0  0  0  0  0  0  0  0  0
  -23.4840  -14.0560   21.1100 C   0  0  0  0  0  0  0  0  0  0  0  0
  -22.7750  -13.3760   22.0040 N   0  0  0  0  0  0  0  0  0  0  0  0
  -23.0750  -15.1220   20.6500 O   0  0  0  0  0  0  0  0  0  0  0  0
  -23.1190  -12.5120   22.3960 H   0  0  0  0  0  0  0  0  0  0  0  0
  -21.8750  -13.7260   22.3010 H   0  0  0  0  0  0  0  0  0  0  0  0
  -26.1620  -15.5900   20.1890 N   0  0  0  0  0  0  0  0  0  0  0  0
  -25.4490  -16.2880   20.3710 H   0  0  0  0  0  0  0  0  0  0  0  0
  -27.0220  -15.9870   19.8310 H   0  0  0  0  0  0  0  0  0  0  0  0
  -27.5860  -25.1680   21.3810 C   0  0  0  0  0  2  0  0  0  0  0  0
  -28.3620  -24.6040   20.2120 C   0  0  0  0  0  3  0  0  0  0  0  0
  -28.7910  -25.9250   20.8470 C   0  0  0  0  0  3  0  0  0  0  0  0
  -28.6220  -27.0650   19.9790 O   0  0  0  0  0  0  0  0  0  0  0  0
  -24.6820  -31.9430   23.3940 C   0  0  0  0  0  0  0  0  0  0  0  0
  -27.4450  -27.7730   20.0630 C   0  0  0  0  0  0  0  0  0  0  0  0
  -23.5130  -30.6040   21.6750 C   0  0  0  0  0  3  0  0  0  0  0  0
  -25.0090  -29.1970   20.1600 C   0  0  0  0  0  0  0  0  0  0  0  0
  -26.0260  -31.0490   21.4960 C   0  0  0  0  0  2  0  0  0  0  0  0
  -26.1510  -29.7190   20.7830 C   0  0  0  0  0  0  0  0  0  0  0  0
  -27.3740  -29.0110   20.7380 C   0  0  0  0  0  3  0  0  0  0  0  0
  -26.2960  -27.2760   19.4140 C   0  0  0  0  0  3  0  0  0  0  0  0
  -25.0760  -27.9730   19.4740 C   0  0  0  0  0  3  0  0  0  0  0  0
  -23.7390  -30.0120   20.2570 C   0  0  0  0  0  2  0  0  0  0  0  0
  -24.7580  -31.2110   22.2470 N   0  0  0  0  0  0  0  0  0  0  0  0
  -23.5960  -32.1500   23.9520 O   0  0  0  0  0  0  0  0  0  0  0  0
  -22.8970  -29.5070   22.5740 C   0  0  0  0  0  0  0  0  0  0  0  0
  -21.5970  -29.2320   22.3760 N   0  0  0  0  0  0  0  0  0  0  0  0
  -23.5870  -28.9100   23.4040 O   0  0  0  0  0  0  0  0  0  0  0  0
  -21.1000  -29.7720   21.6820 H   0  0  0  0  0  0  0  0  0  0  0  0
  -18.3440  -27.6740   22.5640 C   0  0  0  0  0  0  0  0  0  0  0  0
  -20.8180  -28.2140   23.0800 C   0  0  0  0  0  3  0  0  0  0  0  0
  -21.1330  -26.8000   22.5400 C   0  0  0  0  0  2  0  0  0  0  0  0
  -20.1780  -26.3510   21.4290 C   0  0  0  0  0  2  0  0  0  0  0  0
  -18.7330  -26.3480   21.9330 C   0  0  0  0  0  2  0  0  0  0  0  0
  -19.3240  -28.5580   23.0890 C   0  0  0  0  0  0  0  0  0  0  0  0
  -18.9120  -29.7930   23.6330 C   0  0  0  0  0  3  0  0  0  0  0  0
  -17.5510  -30.1490   23.6620 C   0  0  0  0  0  3  0  0  0  0  0  0
  -16.5820  -29.2640   23.1560 C   0  0  0  0  0  3  0  0  0  0  0  0
  -16.9790  -28.0280   22.6130 C   0  0  0  0  0  3  0  0  0  0  0  0
  -25.9520  -32.5740   24.0470 C   0  0  0  0  0  3  0  0  0  0  0  0
  -25.6350  -33.9710   24.3700 N   0  0  0  0  0  0  0  0  0  0  0  0
  -25.9880  -35.0240   23.6210 C   0  0  0  0  0  0  0  0  0  0  0  0
  -26.6880  -34.9210   22.6090 O   0  0  0  0  0  0  0  0  0  0  0  0
  -25.0180  -34.1250   25.1540 H   0  0  0  0  0  0  0  0  0  0  0  0
  -24.2700  -36.8140   23.2160 C   0  0  0  0  0  1  0  0  0  0  0  0
  -25.4870  -36.4110   24.0640 C   0  0  0  0  0  3  0  0  0  0  0  0
  -27.5930  -37.2990   24.9600 C   0  0  0  0  0  1  0  0  0  0  0  0
  -26.5220  -37.4650   23.9820 N   0  0  0  0  0  0  0  0  0  0  0  0
  -26.1100  -38.3850   24.1150 H   0  0  0  0  0  0  0  0  0  0  0  0
  -26.4410  -31.8000   25.3320 C   0  0  1  0  0  0  0  0  0  0  0  0
  -25.3190  -31.5330   26.3610 C   0  0  0  0  0  1  0  0  0  0  0  0
  -27.0600  -30.4360   24.9440 C   0  0  0  0  0  1  0  0  0  0  0  0
  -27.5560  -32.6070   26.0370 C   0  0  0  0  0  1  0  0  0  0  0  0
  1  5  1  0
  2  6  2  0
  2  3  1  0
  3  1  2  0
  4  5  2  0
  5  7  1  0
  6  4  1  0
  8  6  1  0
 10  9  1  0
 11 13  1  0
 11 12  1  0
 12  4  1  0
 12  9  1  0
 13 22  1  0
 13 10  1  0
 14 22  1  0
 15 20  1  0
 16 17  1  0
 16 15  1  0
 18 17  1  0
 18 27  1  0
 18 19  1  0
 20 14  1  0
 20 19  1  0
 21 14  2  0
 22 23  1  0
 24 25  2  0
 25 44  1  0
 26 25  1  0
 26 29  1  0
 27 28  1  0
 27 24  1  0
 28 26  2  0
 29 30  1  0
 30 31  2  0
 32 35  1  0
 32 31  1  0
 33 32  2  0
 34 33  1  0
 34 29  2  0
 35 36  1  0
 36 37  1  0
 37 38  2  0
 39 38  1  0
 39 43  1  0
 40 39  2  0
 41 36  2  0
 41 40  1  0
 42 41  1  0
 44 45  1  0
 45 48  1  0
 45 47  1  0
 46 44  2  0
 49 24  1  0
 49 50  1  0
 51 49  1  0
 53  3  1  0
 53 54  1  0
 53 52  1  0
 54 55  1  0
 54 52  1  0
 55 57  1  0
 56 67  2  0
 57 62  1  0
 58 66  1  0
 58 68  1  0
 59 65  1  0
 59 61  1  0
 60 66  1  0
 61 60  1  0
 62 61  2  0
 63 64  1  0
 63 57  2  0
 64 59  2  0
 65 58  1  0
 66 56  1  0
 68 70  2  0
 69 68  1  0
 71 69  1  0
 72 81  2  0
 72 77  1  0
 73 69  1  0
 73 77  1  0
 74 73  1  0
 75 76  1  0
 75 74  1  0
 76 72  1  0
 77 78  2  0
 78 79  1  0
 80 79  2  0
 81 80  1  0
 82 56  1  0
 82 83  1  0
 82 92  1  0
 83 86  1  0
 84 88  1  0
 84 83  1  0
 85 84  2  0
 88 87  1  0
 90 88  1  0
 90 91  1  0
 90 89  1  0
 92 95  1  1
 92 93  1  0
 94 92  1  0
M  ISO  4  14 100  22 100  54 101  55 101
M  END
>  <TORSDO>  (61) 
F 18

>  <SCORE>  (61) 
-12.631

>  <name>  (61) 
60

>  <ligand_id>  (61) 
60

>  <original_smiles>  (61) 
[H]c1c([H])c([H])c2c(c1[H])C([H])([H])C([H])([H])C([H])([H])C2([H])N([H])C(=O)C1([H])N(C(=O)C([H])(N([H])C(=O)C([H])(N([H])C([H])([H])[H])C([H])([H])[H])C(C([H])([H])[H])(C([H])([H])[H])C([H])([H])[H])C([H])([H])c2c([H])c(OC3([H])C([H])([H])C3([H])c3c([H])c(C([H])([H])[H])c(C4([H])C([H])([H])C([H])([H])C([H])(N([H])C(=O)N5C([H])([H])C([H])([H])C([H])([H])C([H])(n6nc(-c7c([H])c([H])c(Oc8c([H])c([H])c(F)c([H])c8F)c([H])c7[H])c(C(=O)N([H])[H])c6N([H])[H])C5([H])[H])C4([H])[H])c(C([H])([H])[H])c3[H])c([H])c([H])c2C1([H])[H]

>  <smiles>  (61) 
[H]c1c([H])c([H])c2c(c1[H])C([H])([H])C([H])([H])C([H])([H])C2([H])N([H])C(=O)C1([H])N(C(=O)C([H])(N([H])C(=O)C([H])(N([H])C([H])([H])[H])C([H])([H])[H])C(C([H])([H])[H])(C([H])([H])[H])C([H])([H])[H])C([H])([H])c2c([H])c(OC3([H])C([H])([H])C3([H])c3c([H])c(C([H])([H])[H])c(C4([H])C([H])([H])C([H])([H])C([H])(N([H])C(=O)N5C([H])([H])C([H])([H])C([H])([H])C([H])(n6nc(-c7c([H])c([H])c(Oc8c([H])c([H])c(F)c([H])c8F)c([H])c7[H])c(C(=O)N([H])[H])c6N([H])[H])C5([H])[H])C4([H])[H])c(C([H])([H])[H])c3[H])c([H])c([H])c2C1([H])[H]

$$$$
61:0:0
     RDKit          3D

 93102  0  0  1  0  0  0  0  0999 V2000
  -30.1420  -22.6510   17.8690 C   0  0  0  0  0  3  0  0  0  0  0  0
  -28.7680  -21.6240   19.5830 C   0  0  0  0  0  0  0  0  0  0  0  0
  -29.0210  -21.8520   18.2020 C   0  0  0  0  0  0  0  0  0  0  0  0
  -30.8570  -23.3240   18.8890 C   0  0  0  0  0  0  0  0  0  0  0  0
  -28.9140  -23.0090   20.2450 C   0  0  0  0  0  0  0  0  0  0  0  0
  -30.2390  -23.4740   20.1540 C   0  0  0  0  0  0  0  0  0  0  0  0
  -28.4010  -21.0100   17.1040 C   0  0  0  0  0  1  0  0  0  0  0  0
  -32.1950  -23.9720   18.5810 C   0  0  0  0  0  1  0  0  0  0  0  0
  -30.8190  -24.4070   21.2030 C   0  0  0  0  0  1  0  0  0  0  0  0
  -30.4780  -15.1680   20.2590 C   0  0  0  0  0  0  0  0  0  0  0  0
  -30.3500  -12.7560   19.3790 C   0  0  0  0  0  2  0  0  0  0  0  0
  -29.4180  -12.5790   18.1590 C   0  0  0  0  0  2  0  0  0  0  0  0
  -27.9740  -12.3260   18.6210 C   0  0  0  0  0  2  0  0  0  0  0  0
  -27.5430  -13.2990   19.7470 C   0  0  0  0  0  3  0  0  0  0  0  0
  -28.6040  -13.4540   20.8560 C   0  0  0  0  0  2  0  0  0  0  0  0
  -29.8360  -13.9100   20.1980 N   0  0  0  0  0  0  0  0  0  0  0  0
  -31.7020  -15.0980   20.0790 O   0  0  0  0  0  0  0  0  0  0  0  0
  -29.9660  -19.2680   21.1130 C   0  0  0  0  0  3  0  0  0  0  0  0
  -28.3290  -18.7000   19.5480 C   0  0  0  0  0  3  0  0  0  0  0  0
  -30.6020  -17.7340   20.9370 C   0  0  0  0  0  2  0  0  0  0  0  0
  -28.9290  -17.1650   19.3820 C   0  0  0  0  0  3  0  0  0  0  0  0
  -29.2650  -19.9750   19.8650 C   0  0  0  0  0  0  0  0  0  0  0  0
  -29.8460  -16.4970   20.3990 N   0  0  0  0  0  0  0  0  0  0  0  0
  -25.1870  -13.8650   20.5380 C   0  0  0  0  0  0  0  0  0  0  0  0
  -24.1270  -13.0880   20.9130 C   0  0  0  0  0  0  0  0  0  0  0  0
  -24.5890  -11.7370   20.8690 C   0  0  0  0  0  0  0  0  0  0  0  0
  -26.2240  -12.9880   20.2770 N   0  0  0  0  0  0  0  0  0  0  0  0
  -25.8770  -11.7020   20.5450 N   0  0  0  0  0  0  0  0  0  0  0  0
  -23.8610  -10.4740   21.0580 C   0  0  0  0  0  0  0  0  0  0  0  0
  -24.3000   -9.4990   21.9800 C   0  0  0  0  0  3  0  0  0  0  0  0
  -23.5710   -8.3030   22.1590 C   0  0  0  0  0  3  0  0  0  0  0  0
  -22.3880   -8.0750   21.4160 C   0  0  0  0  0  0  0  0  0  0  0  0
  -21.9680   -9.0400   20.4830 C   0  0  0  0  0  3  0  0  0  0  0  0
  -22.6980  -10.2270   20.3020 C   0  0  0  0  0  3  0  0  0  0  0  0
  -21.6300   -6.9330   21.5050 O   0  0  0  0  0  0  0  0  0  0  0  0
  -21.5910   -6.1830   22.6530 C   0  0  0  0  0  0  0  0  0  0  0  0
  -21.1700   -6.7280   23.8860 C   0  0  0  0  0  3  0  0  0  0  0  0
  -21.0780   -5.9030   25.0240 C   0  0  0  0  0  3  0  0  0  0  0  0
  -21.3980   -4.5350   24.9320 C   0  0  0  0  0  0  0  0  0  0  0  0
  -21.8120   -3.9900   23.7040 C   0  0  0  0  0  3  0  0  0  0  0  0
  -21.9040   -4.8110   22.5670 C   0  0  0  0  0  0  0  0  0  0  0  0
  -22.2840   -4.2760   21.3820 F   0  0  0  0  0  0  0  0  0  0  0  0
  -21.3020   -3.7410   26.0240 F   0  0  0  0  0  0  0  0  0  0  0  0
  -22.7340  -13.5670   21.1970 C   0  0  0  0  0  0  0  0  0  0  0  0
  -22.0120  -12.8720   22.0700 N   0  0  0  0  0  0  0  0  0  0  0  0
  -22.2930  -14.5930   20.6810 O   0  0  0  0  0  0  0  0  0  0  0  0
  -22.3810  -12.0420   22.5100 H   0  0  0  0  0  0  0  0  0  0  0  0
  -21.0780  -13.1760   22.3020 H   0  0  0  0  0  0  0  0  0  0  0  0
  -25.3530  -15.2360   20.3700 N   0  0  0  0  0  0  0  0  0  0  0  0
  -24.5950  -15.8970   20.5110 H   0  0  0  0  0  0  0  0  0  0  0  0
  -26.2140  -15.6790   20.0770 H   0  0  0  0  0  0  0  0  0  0  0  0
  -27.8870  -24.3700   20.0570 C   0  0  0  0  0  2  0  0  0  0  0  0
  -28.1890  -25.9500   20.2430 O   0  0  0  0  0  0  0  0  0  0  0  0
  -24.6490  -31.8360   23.2400 C   0  0  0  0  0  0  0  0  0  0  0  0
  -27.1720  -27.0180   20.1850 C   0  0  0  0  0  0  0  0  0  0  0  0
  -23.4360  -30.4520   21.6030 C   0  0  0  0  0  3  0  0  0  0  0  0
  -24.8690  -28.8600   20.1640 C   0  0  0  0  0  0  0  0  0  0  0  0
  -25.9980  -30.6740   21.4340 C   0  0  0  0  0  2  0  0  0  0  0  0
  -26.0610  -29.2730   20.7730 C   0  0  0  0  0  0  0  0  0  0  0  0
  -27.2090  -28.3710   20.7630 C   0  0  0  0  0  3  0  0  0  0  0  0
  -25.9500  -26.7410   19.5310 C   0  0  0  0  0  3  0  0  0  0  0  0
  -24.8350  -27.6120   19.5230 C   0  0  0  0  0  3  0  0  0  0  0  0
  -23.6510  -29.7770   20.2210 C   0  0  0  0  0  2  0  0  0  0  0  0
  -24.7160  -31.0120   22.1460 N   0  0  0  0  0  0  0  0  0  0  0  0
  -23.5650  -32.1260   23.7720 O   0  0  0  0  0  0  0  0  0  0  0  0
  -22.7500  -29.4510   22.5680 C   0  0  0  0  0  0  0  0  0  0  0  0
  -21.4200  -29.2860   22.4470 N   0  0  0  0  0  0  0  0  0  0  0  0
  -23.4200  -28.8240   23.3920 O   0  0  0  0  0  0  0  0  0  0  0  0
  -20.9330  -29.8430   21.7590 H   0  0  0  0  0  0  0  0  0  0  0  0
  -18.0410  -28.0710   22.9530 C   0  0  0  0  0  0  0  0  0  0  0  0
  -20.5990  -28.3480   23.2200 C   0  0  0  0  0  3  0  0  0  0  0  0
  -20.7070  -26.9140   22.6500 C   0  0  0  0  0  2  0  0  0  0  0  0
  -19.6070  -26.5840   21.6360 C   0  0  0  0  0  2  0  0  0  0  0  0
  -18.2240  -26.7230   22.2780 C   0  0  0  0  0  2  0  0  0  0  0  0
  -19.1550  -28.8410   23.3810 C   0  0  0  0  0  0  0  0  0  0  0  0
  -18.9280  -30.1010   23.9750 C   0  0  0  0  0  3  0  0  0  0  0  0
  -17.6190  -30.5940   24.1440 C   0  0  0  0  0  3  0  0  0  0  0  0
  -16.5200  -29.8220   23.7300 C   0  0  0  0  0  3  0  0  0  0  0  0
  -16.7310  -28.5620   23.1410 C   0  0  0  0  0  3  0  0  0  0  0  0
  -25.9290  -32.4680   23.8660 C   0  0  0  0  0  3  0  0  0  0  0  0
  -25.6240  -33.8710   24.1980 N   0  0  0  0  0  0  0  0  0  0  0  0
  -25.9480  -34.9270   23.4400 C   0  0  0  0  0  0  0  0  0  0  0  0
  -26.5990  -34.8230   22.3990 O   0  0  0  0  0  0  0  0  0  0  0  0
  -25.0410  -34.0240   25.0090 H   0  0  0  0  0  0  0  0  0  0  0  0
  -24.2160  -36.7300   23.1360 C   0  0  0  0  0  1  0  0  0  0  0  0
  -25.4780  -36.3180   23.9130 C   0  0  0  0  0  3  0  0  0  0  0  0
  -27.6360  -37.2020   24.6870 C   0  0  0  0  0  1  0  0  0  0  0  0
  -26.5100  -37.3690   23.7710 N   0  0  0  0  0  0  0  0  0  0  0  0
  -26.1100  -38.2910   23.9250 H   0  0  0  0  0  0  0  0  0  0  0  0
  -26.4360  -31.7010   25.1490 C   0  0  1  0  0  0  0  0  0  0  0  0
  -25.3390  -31.4820   26.2180 C   0  0  0  0  0  1  0  0  0  0  0  0
  -27.0060  -30.3140   24.7740 C   0  0  0  0  0  1  0  0  0  0  0  0
  -27.5930  -32.4880   25.8070 C   0  0  0  0  0  1  0  0  0  0  0  0
  1  3  2  0
  1  4  1  0
  2 22  1  0
  2  5  2  3
  3  2  1  0
  4  6  2  0
  6  5  1  0
  6  9  1  0
  7  3  1  0
  8  4  1  0
 10 23  1  0
 11 16  1  0
 12 13  1  0
 12 11  1  0
 14 13  1  0
 14 27  1  0
 14 15  1  0
 16 10  1  0
 16 15  1  0
 17 10  2  0
 19 22  1  0
 20 18  1  0
 21 19  2  0
 21 23  1  0
 22 18  2  0
 23 20  1  0
 24 25  2  0
 25 44  1  0
 26 25  1  0
 26 29  1  0
 27 24  1  0
 27 28  1  0
 28 26  2  0
 29 30  1  0
 30 31  2  0
 32 35  1  0
 32 31  1  0
 33 32  2  0
 34 33  1  0
 34 29  2  0
 35 36  1  0
 36 37  1  0
 37 38  2  0
 39 38  1  0
 39 43  1  0
 40 39  2  0
 41 36  2  0
 41 40  1  0
 42 41  1  0
 44 45  1  0
 45 48  1  0
 45 47  1  0
 46 44  2  0
 49 50  1  0
 49 24  1  0
 51 49  1  0
 52 53  1  0
 52  5  1  0
 54 65  2  0
 55 53  1  0
 55 60  1  0
 56 64  1  0
 56 66  1  0
 57 63  1  0
 57 59  1  0
 58 64  1  0
 59 58  1  0
 60 59  2  0
 61 55  2  0
 62 61  1  0
 62 57  2  0
 63 56  1  0
 64 54  1  0
 66 68  2  0
 67 66  1  0
 69 67  1  0
 70 79  2  0
 70 75  1  0
 71 67  1  0
 71 75  1  0
 72 71  1  0
 73 74  1  0
 73 72  1  0
 74 70  1  0
 75 76  2  0
 76 77  1  0
 78 77  2  0
 79 78  1  0
 80 54  1  0
 80 81  1  0
 80 90  1  0
 81 84  1  0
 82 86  1  0
 82 81  1  0
 83 82  2  0
 86 85  1  0
 88 86  1  0
 88 89  1  0
 88 87  1  0
 90 93  1  1
 90 91  1  0
 92 90  1  0
M  ISO  4  10 100  23 100  52 101  53 101
M  END
>  <TORSDO>  (62) 
F 17

>  <SCORE>  (62) 
-16.255

>  <name>  (62) 
61

>  <ligand_id>  (62) 
61

>  <original_smiles>  (62) 
[H]c1c([H])c([H])c2c(c1[H])C([H])([H])C([H])([H])C([H])([H])C2([H])N([H])C(=O)C1([H])N(C(=O)C([H])(N([H])C(=O)C([H])(N([H])C([H])([H])[H])C([H])([H])[H])C(C([H])([H])[H])(C([H])([H])[H])C([H])([H])[H])C([H])([H])c2c([H])c(OC([H])([H])c3c(C([H])([H])[H])c(C([H])([H])[H])c([H])c(C([H])([H])[H])c3C3([H])C([H])([H])C([H])([H])N(C(=O)N4C([H])([H])C([H])([H])C([H])([H])C([H])(n5nc(-c6c([H])c([H])c(Oc7c([H])c([H])c(F)c([H])c7F)c([H])c6[H])c(C(=O)N([H])[H])c5N([H])[H])C4([H])[H])C([H])([H])C3([H])[H])c([H])c([H])c2C1([H])[H]

>  <smiles>  (62) 
[H]c1c([H])c([H])c2c(c1[H])C([H])([H])C([H])([H])C([H])([H])C2([H])N([H])C(=O)C1([H])N(C(=O)C([H])(N([H])C(=O)C([H])(N([H])C([H])([H])[H])C([H])([H])[H])C(C([H])([H])[H])(C([H])([H])[H])C([H])([H])[H])C([H])([H])c2c([H])c(OC([H])([H])c3c(C([H])([H])[H])c(C([H])([H])[H])c([H])c(C([H])([H])[H])c3C3([H])C([H])([H])C([H])([H])N(C(=O)N4C([H])([H])C([H])([H])C([H])([H])C([H])(n5nc(-c6c([H])c([H])c(Oc7c([H])c([H])c(F)c([H])c7F)c([H])c6[H])c(C(=O)N([H])[H])c5N([H])[H])C4([H])[H])C([H])([H])C3([H])[H])c([H])c([H])c2C1([H])[H]

$$$$
62:0:0
     RDKit          3D

 98107  0  0  1  0  0  0  0  0999 V2000
  -32.3640  -20.8080   22.4110 C   0  0  0  0  0  3  0  0  0  0  0  0
  -30.9010  -19.5070   20.9160 C   0  0  0  0  0  0  0  0  0  0  0  0
  -32.1450  -19.6860   21.5940 C   0  0  0  0  0  0  0  0  0  0  0  0
  -31.3310  -21.7220   22.6520 C   0  0  0  0  0  0  0  0  0  0  0  0
  -30.0450  -20.6830   20.8380 C   0  0  0  0  0  0  0  0  0  0  0  0
  -30.1520  -21.6480   21.8830 C   0  0  0  0  0  0  0  0  0  0  0  0
  -33.2610  -18.6550   21.5590 C   0  0  0  0  0  1  0  0  0  0  0  0
  -31.5160  -22.7740   23.7340 C   0  0  0  0  0  1  0  0  0  0  0  0
  -28.9950  -22.5740   22.2600 C   0  0  0  0  0  1  0  0  0  0  0  0
  -30.9180  -14.4560   19.7840 C   0  0  0  0  0  0  0  0  0  0  0  0
  -30.5600  -12.2240   18.7350 C   0  0  0  0  0  2  0  0  0  0  0  0
  -29.5090  -12.3230   17.6090 C   0  0  0  0  0  2  0  0  0  0  0  0
  -28.0890  -12.1400   18.1800 C   0  0  0  0  0  2  0  0  0  0  0  0
  -27.8400  -13.0120   19.4390 C   0  0  0  0  0  3  0  0  0  0  0  0
  -29.0030  -12.8760   20.4480 C   0  0  0  0  0  2  0  0  0  0  0  0
  -30.2300  -13.2630   19.7400 N   0  0  0  0  0  0  0  0  0  0  0  0
  -32.0560  -14.4960   19.3060 O   0  0  0  0  0  0  0  0  0  0  0  0
  -30.8490  -16.9990   19.6690 C   0  0  0  0  0  2  0  0  0  0  0  0
  -29.1660  -15.9750   20.9650 C   0  0  0  0  0  2  0  0  0  0  0  0
  -30.4370  -17.9920   20.8010 C   0  0  0  0  0  3  0  0  0  0  0  0
  -29.0130  -17.5240   21.0690 C   0  0  0  0  0  3  0  0  0  0  0  0
  -28.3930  -17.9710   22.4030 C   0  0  0  0  0  1  0  0  0  0  0  0
  -30.2670  -15.6640   20.0270 N   0  0  0  0  0  0  0  0  0  0  0  0
  -25.5480  -13.6050   20.4340 C   0  0  0  0  0  0  0  0  0  0  0  0
  -24.5170  -12.8270   20.8830 C   0  0  0  0  0  0  0  0  0  0  0  0
  -24.9540  -11.4750   20.7410 C   0  0  0  0  0  0  0  0  0  0  0  0
  -26.5500  -12.7260   20.0530 N   0  0  0  0  0  0  0  0  0  0  0  0
  -26.2040  -11.4370   20.2980 N   0  0  0  0  0  0  0  0  0  0  0  0
  -24.2320  -10.2130   20.9460 C   0  0  0  0  0  0  0  0  0  0  0  0
  -24.6890   -9.2410   21.8610 C   0  0  0  0  0  3  0  0  0  0  0  0
  -23.9670   -8.0430   22.0530 C   0  0  0  0  0  3  0  0  0  0  0  0
  -22.7720   -7.8120   21.3290 C   0  0  0  0  0  0  0  0  0  0  0  0
  -22.3370   -8.7720   20.4000 C   0  0  0  0  0  3  0  0  0  0  0  0
  -23.0600   -9.9610   20.2070 C   0  0  0  0  0  3  0  0  0  0  0  0
  -22.0180   -6.6680   21.4320 O   0  0  0  0  0  0  0  0  0  0  0  0
  -21.8660   -6.0120   22.6270 C   0  0  0  0  0  0  0  0  0  0  0  0
  -21.3180   -6.6490   23.7630 C   0  0  0  0  0  3  0  0  0  0  0  0
  -21.1140   -5.9180   24.9500 C   0  0  0  0  0  3  0  0  0  0  0  0
  -21.4490   -4.5520   25.0020 C   0  0  0  0  0  0  0  0  0  0  0  0
  -21.9910   -3.9150   23.8720 C   0  0  0  0  0  3  0  0  0  0  0  0
  -22.1950   -4.6430   22.6870 C   0  0  0  0  0  0  0  0  0  0  0  0
  -22.6970   -4.0200   21.5930 F   0  0  0  0  0  0  0  0  0  0  0  0
  -21.2470   -3.8470   26.1410 F   0  0  0  0  0  0  0  0  0  0  0  0
  -23.1640  -13.3050   21.3230 C   0  0  0  0  0  0  0  0  0  0  0  0
  -22.5330  -12.5890   22.2460 N   0  0  0  0  0  0  0  0  0  0  0  0
  -22.6810  -14.3480   20.8840 O   0  0  0  0  0  0  0  0  0  0  0  0
  -22.9420  -11.7460   22.6200 H   0  0  0  0  0  0  0  0  0  0  0  0
  -21.6290  -12.8860   22.5840 H   0  0  0  0  0  0  0  0  0  0  0  0
  -25.7030  -14.9800   20.2930 N   0  0  0  0  0  0  0  0  0  0  0  0
  -24.9550  -15.6290   20.5100 H   0  0  0  0  0  0  0  0  0  0  0  0
  -26.5030  -15.4270   19.8650 H   0  0  0  0  0  0  0  0  0  0  0  0
  -29.1080  -21.0360   19.6450 C   0  0  0  0  0  2  0  0  0  0  0  0
  -29.2480  -22.4500   19.0890 N   0  0  0  0  0  4  0  0  0  0  0  0
  -28.9010  -22.3860   18.1460 H   0  0  0  0  0  0  0  0  0  0  0  0
  -30.2340  -22.6400   19.0140 H   0  0  0  0  0  0  0  0  0  0  0  0
  -28.5470  -23.6470   19.7240 C   0  0  0  0  0  2  0  0  0  0  0  0
  -28.7030  -25.0340   18.9690 C   0  0  0  0  0  2  0  0  0  0  0  0
  -28.5700  -26.2830   19.7450 O   0  0  0  0  0  0  0  0  0  0  0  0
  -24.7300  -31.3350   23.1230 C   0  0  0  0  0  0  0  0  0  0  0  0
  -27.4250  -27.0870   19.7260 C   0  0  0  0  0  0  0  0  0  0  0  0
  -23.5870  -30.1360   21.2900 C   0  0  0  0  0  3  0  0  0  0  0  0
  -25.0800  -28.7160   19.7800 C   0  0  0  0  0  0  0  0  0  0  0  0
  -26.1330  -30.4290   21.2600 C   0  0  0  0  0  2  0  0  0  0  0  0
  -26.2230  -29.1240   20.4790 C   0  0  0  0  0  0  0  0  0  0  0  0
  -27.3960  -28.3180   20.4450 C   0  0  0  0  0  3  0  0  0  0  0  0
  -26.2560  -26.7170   19.0250 C   0  0  0  0  0  3  0  0  0  0  0  0
  -25.0980  -27.5180   19.0500 C   0  0  0  0  0  3  0  0  0  0  0  0
  -23.8560  -29.6040   19.8590 C   0  0  0  0  0  2  0  0  0  0  0  0
  -24.8320  -30.6440   21.9500 N   0  0  0  0  0  0  0  0  0  0  0  0
  -23.6260  -31.5780   23.6320 O   0  0  0  0  0  0  0  0  0  0  0  0
  -22.8680  -29.0370   22.1070 C   0  0  0  0  0  0  0  0  0  0  0  0
  -21.5280  -28.9930   22.0100 N   0  0  0  0  0  0  0  0  0  0  0  0
  -23.5130  -28.2350   22.7870 O   0  0  0  0  0  0  0  0  0  0  0  0
  -21.0720  -29.6960   21.4480 H   0  0  0  0  0  0  0  0  0  0  0  0
  -18.0700  -28.0740   22.5310 C   0  0  0  0  0  0  0  0  0  0  0  0
  -20.6510  -28.0160   22.6590 C   0  0  0  0  0  3  0  0  0  0  0  0
  -20.5590  -26.7130   21.8330 C   0  0  0  0  0  2  0  0  0  0  0  0
  -19.3760  -26.6960   20.8610 C   0  0  0  0  0  2  0  0  0  0  0  0
  -18.0550  -26.8610   21.6180 C   0  0  0  0  0  2  0  0  0  0  0  0
  -19.2870  -28.6260   23.0070 C   0  0  0  0  0  0  0  0  0  0  0  0
  -19.2450  -29.7750   23.8260 C   0  0  0  0  0  3  0  0  0  0  0  0
  -18.0160  -30.3670   24.1720 C   0  0  0  0  0  3  0  0  0  0  0  0
  -16.8120  -29.8090   23.7100 C   0  0  0  0  0  3  0  0  0  0  0  0
  -16.8400  -28.6640   22.8950 C   0  0  0  0  0  3  0  0  0  0  0  0
  -25.9890  -31.8740   23.8680 C   0  0  0  0  0  3  0  0  0  0  0  0
  -26.4100  -30.9850   25.1020 C   0  0  1  0  0  0  0  0  0  0  0  0
  -25.2570  -30.7150   26.1000 C   0  0  0  0  0  1  0  0  0  0  0  0
  -26.9520  -29.6150   24.6300 C   0  0  0  0  0  1  0  0  0  0  0  0
  -27.5580  -31.6740   25.8760 C   0  0  0  0  0  1  0  0  0  0  0  0
  -25.6960  -33.2490   24.2970 N   0  0  0  0  0  0  0  0  0  0  0  0
  -26.1170  -34.3500   23.6610 C   0  0  0  0  0  0  0  0  0  0  0  0
  -26.8610  -34.3130   22.6780 O   0  0  0  0  0  0  0  0  0  0  0  0
  -25.0400  -33.3540   25.0580 H   0  0  0  0  0  0  0  0  0  0  0  0
  -24.4830  -36.2370   23.3350 C   0  0  0  0  0  1  0  0  0  0  0  0
  -25.6390  -35.7120   24.2020 C   0  0  0  0  0  3  0  0  0  0  0  0
  -27.7170  -36.4460   25.2870 C   0  0  0  0  0  1  0  0  0  0  0  0
  -26.7100  -36.7290   24.2660 N   0  0  0  0  0  0  0  0  0  0  0  0
  -26.3230  -37.6510   24.4490 H   0  0  0  0  0  0  0  0  0  0  0  0
  1  4  1  0
  2  3  1  0
  3  1  2  0
  4  8  1  0
  5  2  2  0
  5  6  1  0
  6  9  1  0
  6  4  2  0
  7  3  1  0
 10 23  1  0
 11 16  1  0
 12 13  1  0
 12 11  1  0
 14 13  1  0
 14 27  1  0
 14 15  1  0
 16 10  1  0
 16 15  1  0
 17 10  2  0
 18 23  1  0
 18 20  1  0
 19 21  1  0
 20  2  1  0
 20 21  1  0
 21 22  1  0
 23 19  1  0
 24 25  2  0
 25 44  1  0
 26 25  1  0
 26 29  1  0
 27 28  1  0
 27 24  1  0
 28 26  2  0
 29 30  1  0
 30 31  2  0
 32 35  1  0
 32 31  1  0
 33 32  2  0
 34 33  1  0
 34 29  2  0
 35 36  1  0
 36 41  2  0
 36 37  1  0
 37 38  2  0
 38 39  1  0
 39 43  1  0
 40 39  2  0
 41 40  1  0
 42 41  1  0
 44 45  1  0
 45 48  1  0
 45 47  1  0
 46 44  2  0
 49 24  1  0
 49 50  1  0
 51 49  1  0
 52  5  1  0
 53 52  1  0
 53 56  1  0
 54 53  1  0
 55 53  1  0
 57 56  1  0
 57 58  1  0
 59 70  2  0
 60 58  1  0
 60 65  1  0
 61 69  1  0
 61 71  1  0
 62 68  1  0
 62 64  1  0
 63 69  1  0
 64 63  1  0
 65 64  2  0
 66 67  1  0
 66 60  2  0
 67 62  2  0
 68 61  1  0
 69 59  1  0
 71 73  2  0
 72 71  1  0
 74 72  1  0
 75 84  2  0
 75 80  1  0
 76 72  1  0
 76 80  1  0
 77 76  1  0
 78 79  1  0
 78 77  1  0
 79 75  1  0
 80 81  2  0
 81 82  1  0
 83 82  2  0
 84 83  1  0
 85 59  1  0
 85 90  1  0
 85 86  1  0
 86 89  1  1
 86 87  1  0
 88 86  1  0
 90 93  1  0
 91 95  1  0
 91 90  1  0
 92 91  2  0
 95 94  1  0
 95 97  1  0
 97 98  1  0
 97 96  1  0
M  ISO  4  10 100  23 100  57 101  58 101
M  END
>  <TORSDO>  (63) 
F 20

>  <SCORE>  (63) 
-6.677

>  <name>  (63) 
62

>  <ligand_id>  (63) 
62

>  <original_smiles>  (63) 
[H]c1c([H])c([H])c2c(c1[H])C([H])([H])C([H])([H])C([H])([H])C2([H])N([H])C(=O)C1([H])N(C(=O)C([H])(N([H])C(=O)C([H])(N([H])C([H])([H])[H])C([H])([H])[H])C(C([H])([H])[H])(C([H])([H])[H])C([H])([H])[H])C([H])([H])c2c([H])c(OC([H])([H])C([H])([H])[N+]([H])([H])C([H])([H])c3c(C([H])([H])[H])c(C([H])([H])[H])c([H])c(C([H])([H])[H])c3C3([H])C([H])([H])N(C(=O)N4C([H])([H])C([H])([H])C([H])([H])C([H])(n5nc(-c6c([H])c([H])c(Oc7c([H])c([H])c(F)c([H])c7F)c([H])c6[H])c(C(=O)N([H])[H])c5N([H])[H])C4([H])[H])C([H])([H])C3([H])C([H])([H])[H])c([H])c([H])c2C1([H])[H]

>  <smiles>  (63) 
[H]c1c([H])c([H])c2c(c1[H])C([H])([H])C([H])([H])C([H])([H])C2([H])N([H])C(=O)C1([H])N(C(=O)C([H])(N([H])C(=O)C([H])(N([H])C([H])([H])[H])C([H])([H])[H])C(C([H])([H])[H])(C([H])([H])[H])C([H])([H])[H])C([H])([H])c2c([H])c(OC([H])([H])C([H])([H])[N+]([H])([H])C([H])([H])c3c(C([H])([H])[H])c(C([H])([H])[H])c([H])c(C([H])([H])[H])c3C3([H])C([H])([H])N(C(=O)N4C([H])([H])C([H])([H])C([H])([H])C([H])(n5nc(-c6c([H])c([H])c(Oc7c([H])c([H])c(F)c([H])c7F)c([H])c6[H])c(C(=O)N([H])[H])c5N([H])[H])C4([H])[H])C([H])([H])C3([H])C([H])([H])[H])c([H])c([H])c2C1([H])[H]

$$$$
63:0:0
     RDKit          3D

 95104  0  0  1  0  0  0  0  0999 V2000
  -29.9760  -21.4770   21.4370 C   0  0  0  0  0  3  0  0  0  0  0  0
  -29.0680  -22.8260   19.6550 C   0  0  0  0  0  3  0  0  0  0  0  0
  -29.4510  -21.5400   20.1340 C   0  0  0  0  0  0  0  0  0  0  0  0
  -30.1060  -22.6420   22.2340 C   0  0  0  0  0  0  0  0  0  0  0  0
  -29.1410  -24.0150   20.4410 C   0  0  0  0  0  0  0  0  0  0  0  0
  -29.6920  -23.9170   21.7470 C   0  0  0  0  0  0  0  0  0  0  0  0
  -30.6760  -22.4820   23.6340 C   0  0  0  0  0  1  0  0  0  0  0  0
  -29.8110  -25.1610   22.6180 C   0  0  0  0  0  1  0  0  0  0  0  0
  -28.5260  -25.2990   19.8140 C   0  0  0  0  0  2  0  0  0  0  0  0
  -28.6060  -26.6180   20.4550 O   0  0  0  0  0  0  0  0  0  0  0  0
  -24.6040  -31.8690   23.2810 C   0  0  0  0  0  0  0  0  0  0  0  0
  -27.4910  -27.4510   20.3070 C   0  0  0  0  0  0  0  0  0  0  0  0
  -23.5380  -30.4890   21.5360 C   0  0  0  0  0  3  0  0  0  0  0  0
  -25.1060  -29.0080   20.1750 C   0  0  0  0  0  0  0  0  0  0  0  0
  -26.0770  -30.8550   21.5350 C   0  0  0  0  0  2  0  0  0  0  0  0
  -26.2220  -29.4980   20.8670 C   0  0  0  0  0  0  0  0  0  0  0  0
  -27.4150  -28.7270   20.9340 C   0  0  0  0  0  3  0  0  0  0  0  0
  -26.3630  -27.0300   19.5600 C   0  0  0  0  0  3  0  0  0  0  0  0
  -25.1770  -27.7760   19.5160 C   0  0  0  0  0  3  0  0  0  0  0  0
  -23.8530  -29.8550   20.1590 C   0  0  0  0  0  2  0  0  0  0  0  0
  -24.7540  -31.0860   22.1750 N   0  0  0  0  0  0  0  0  0  0  0  0
  -23.4830  -32.1190   23.7450 O   0  0  0  0  0  0  0  0  0  0  0  0
  -22.8360  -29.4340   22.4240 C   0  0  0  0  0  0  0  0  0  0  0  0
  -21.5130  -29.2800   22.2460 N   0  0  0  0  0  0  0  0  0  0  0  0
  -23.4790  -28.7620   23.2350 O   0  0  0  0  0  0  0  0  0  0  0  0
  -21.0550  -29.8760   21.5700 H   0  0  0  0  0  0  0  0  0  0  0  0
  -18.0960  -28.1580   22.6250 C   0  0  0  0  0  0  0  0  0  0  0  0
  -20.6560  -28.3250   22.9490 C   0  0  0  0  0  3  0  0  0  0  0  0
  -20.7250  -26.9240   22.2960 C   0  0  0  0  0  2  0  0  0  0  0  0
  -19.6320  -26.6920   21.2480 C   0  0  0  0  0  2  0  0  0  0  0  0
  -18.2440  -26.8430   21.8770 C   0  0  0  0  0  2  0  0  0  0  0  0
  -19.2280  -28.8610   23.1150 C   0  0  0  0  0  0  0  0  0  0  0  0
  -19.0350  -30.0950   23.7720 C   0  0  0  0  0  3  0  0  0  0  0  0
  -17.7430  -30.6250   23.9450 C   0  0  0  0  0  3  0  0  0  0  0  0
  -16.6250  -29.9170   23.4720 C   0  0  0  0  0  3  0  0  0  0  0  0
  -16.8020  -28.6850   22.8180 C   0  0  0  0  0  3  0  0  0  0  0  0
  -25.8320  -32.5080   23.9980 C   0  0  0  0  0  3  0  0  0  0  0  0
  -26.2320  -31.7610   25.3300 C   0  0  1  0  0  0  0  0  0  0  0  0
  -25.0470  -31.5410   26.3000 C   0  0  0  0  0  1  0  0  0  0  0  0
  -26.8480  -30.3780   25.0180 C   0  0  0  0  0  1  0  0  0  0  0  0
  -27.3210  -32.5690   26.0740 C   0  0  0  0  0  1  0  0  0  0  0  0
  -25.5010  -33.9130   24.2720 N   0  0  0  0  0  0  0  0  0  0  0  0
  -25.8870  -34.9480   23.5140 C   0  0  0  0  0  0  0  0  0  0  0  0
  -26.6280  -34.8200   22.5350 O   0  0  0  0  0  0  0  0  0  0  0  0
  -24.8530  -34.0870   25.0270 H   0  0  0  0  0  0  0  0  0  0  0  0
  -24.1710  -36.7180   23.0100 C   0  0  0  0  0  1  0  0  0  0  0  0
  -25.3680  -36.3460   23.9010 C   0  0  0  0  0  3  0  0  0  0  0  0
  -27.4450  -37.2730   24.8260 C   0  0  0  0  0  1  0  0  0  0  0  0
  -26.4010  -37.4020   23.8130 N   0  0  0  0  0  0  0  0  0  0  0  0
  -25.9820  -38.3230   23.9040 H   0  0  0  0  0  0  0  0  0  0  0  0
  -29.2180  -20.2610   19.2690 C   0  0  0  0  0  3  0  0  0  0  0  0
  -31.3790  -14.8150   20.2200 C   0  0  0  0  0  0  0  0  0  0  0  0
  -31.0730  -12.4700   19.5060 C   0  0  0  0  0  2  0  0  0  0  0  0
  -30.2110  -12.4500   18.2260 C   0  0  0  0  0  2  0  0  0  0  0  0
  -28.7150  -12.4090   18.5930 C   0  0  0  0  0  2  0  0  0  0  0  0
  -28.3230  -13.4710   19.6550 C   0  0  0  0  0  3  0  0  0  0  0  0
  -29.3160  -13.4930   20.8380 C   0  0  0  0  0  2  0  0  0  0  0  0
  -30.6640  -13.6550   20.2820 N   0  0  0  0  0  0  0  0  0  0  0  0
  -32.5850  -14.8150   19.9540 O   0  0  0  0  0  0  0  0  0  0  0  0
  -29.7630  -17.8170   18.5760 C   0  0  0  0  0  2  0  0  0  0  0  0
  -30.0930  -18.3490   20.9490 C   0  0  0  0  0  2  0  0  0  0  0  0
  -30.6600  -16.5650   18.7510 C   0  0  0  0  0  2  0  0  0  0  0  0
  -30.9690  -17.0620   21.0940 C   0  0  0  0  0  2  0  0  0  0  0  0
  -30.1290  -18.9810   19.5280 C   0  0  0  0  0  3  0  0  0  0  0  0
  -30.6740  -15.9870   20.1160 N   0  0  0  0  0  0  0  0  0  0  0  0
  -25.9690  -14.2550   20.3170 C   0  0  0  0  0  0  0  0  0  0  0  0
  -24.8330  -13.5670   20.6490 C   0  0  0  0  0  0  0  0  0  0  0  0
  -25.1870  -12.1830   20.6210 C   0  0  0  0  0  0  0  0  0  0  0  0
  -26.9450  -13.2960   20.1050 N   0  0  0  0  0  0  0  0  0  0  0  0
  -26.4790  -12.0430   20.3500 N   0  0  0  0  0  0  0  0  0  0  0  0
  -24.3570  -10.9810   20.7820 C   0  0  0  0  0  0  0  0  0  0  0  0
  -24.7120   -9.9510   21.6800 C   0  0  0  0  0  3  0  0  0  0  0  0
  -23.8880   -8.8150   21.8290 C   0  0  0  0  0  3  0  0  0  0  0  0
  -22.6930   -8.7020   21.0810 C   0  0  0  0  0  0  0  0  0  0  0  0
  -22.3540   -9.7200   20.1710 C   0  0  0  0  0  3  0  0  0  0  0  0
  -23.1780  -10.8470   20.0200 C   0  0  0  0  0  3  0  0  0  0  0  0
  -21.8430   -7.6240   21.1420 O   0  0  0  0  0  0  0  0  0  0  0  0
  -21.7280   -6.8630   22.2780 C   0  0  0  0  0  0  0  0  0  0  0  0
  -21.3570   -7.4260   23.5180 C   0  0  0  0  0  3  0  0  0  0  0  0
  -21.1820   -6.5960   24.6450 C   0  0  0  0  0  3  0  0  0  0  0  0
  -21.3680   -5.2060   24.5310 C   0  0  0  0  0  0  0  0  0  0  0  0
  -21.7300   -4.6430   23.2950 C   0  0  0  0  0  3  0  0  0  0  0  0
  -21.9070   -5.4690   22.1720 C   0  0  0  0  0  0  0  0  0  0  0  0
  -22.2360   -4.9180   20.9770 F   0  0  0  0  0  0  0  0  0  0  0  0
  -21.1920   -4.4070   25.6100 F   0  0  0  0  0  0  0  0  0  0  0  0
  -23.4710  -14.1520   20.8870 C   0  0  0  0  0  0  0  0  0  0  0  0
  -22.6880  -13.5410   21.7680 N   0  0  0  0  0  0  0  0  0  0  0  0
  -23.1130  -15.1870   20.3250 O   0  0  0  0  0  0  0  0  0  0  0  0
  -22.9880  -12.7040   22.2430 H   0  0  0  0  0  0  0  0  0  0  0  0
  -21.7730  -13.9190   21.9740 H   0  0  0  0  0  0  0  0  0  0  0  0
  -26.2520  -15.6080   20.1560 N   0  0  0  0  0  0  0  0  0  0  0  0
  -25.5480  -16.3300   20.2570 H   0  0  0  0  0  0  0  0  0  0  0  0
  -27.1600  -15.9710   19.8970 H   0  0  0  0  0  0  0  0  0  0  0  0
  -26.8230  -20.9270   18.4570 C   0  0  0  0  0  1  0  0  0  0  0  0
  -27.7170  -19.8900   19.1570 C   0  0  0  0  0  2  0  0  0  0  0  0
  1  4  1  0
  2  3  1  0
  2  5  2  0
  3  1  2  0
  4  7  1  0
  5  6  1  0
  6  4  2  0
  6  8  1  0
  9  5  1  0
  9 10  1  0
 11 22  2  0
 12 10  1  0
 12 17  1  0
 13 21  1  0
 13 23  1  0
 14 16  1  0
 15 21  1  0
 16 17  2  0
 16 15  1  0
 18 12  2  0
 19 18  1  0
 19 14  2  0
 20 14  1  0
 20 13  1  0
 21 11  1  0
 23 25  2  0
 24 23  1  0
 26 24  1  0
 27 36  2  0
 27 32  1  0
 28 24  1  0
 28 32  1  0
 29 28  1  0
 30 31  1  0
 30 29  1  0
 31 27  1  0
 32 33  2  0
 33 34  1  0
 35 34  2  0
 36 35  1  0
 37 11  1  0
 37 42  1  0
 37 38  1  0
 38 41  1  1
 38 39  1  0
 40 38  1  0
 42 45  1  0
 43 47  1  0
 43 42  1  0
 44 43  2  0
 47 46  1  0
 49 47  1  0
 49 50  1  0
 49 48  1  0
 51 95  1  0
 51  3  1  0
 52 58  1  0
 53 58  1  0
 54 55  1  0
 54 53  1  0
 56 55  1  0
 56 69  1  0
 56 57  1  0
 58 57  1  0
 59 52  2  0
 60 62  1  0
 60 64  1  0
 61 63  1  0
 62 65  1  0
 64 51  1  0
 64 61  1  0
 65 52  1  0
 65 63  1  0
 66 67  2  0
 67 86  1  0
 68 67  1  0
 68 71  1  0
 69 66  1  0
 69 70  1  0
 70 68  2  0
 71 72  1  0
 72 73  2  0
 74 77  1  0
 74 73  1  0
 75 74  2  0
 76 75  1  0
 76 71  2  0
 77 78  1  0
 78 79  1  0
 79 80  2  0
 81 80  1  0
 81 85  1  0
 82 81  2  0
 83 78  2  0
 83 82  1  0
 84 83  1  0
 86 87  1  0
 87 90  1  0
 87 89  1  0
 88 86  2  0
 91 92  1  0
 91 66  1  0
 93 91  1  0
 94 95  1  0
M  ISO  4   9 101  10 101  52 100  65 100
M  END
>  <TORSDO>  (64) 
F 19

>  <SCORE>  (64) 
-13.852

>  <name>  (64) 
63

>  <ligand_id>  (64) 
63

>  <original_smiles>  (64) 
[H]c1c([H])c([H])c2c(c1[H])C([H])([H])C([H])([H])C([H])([H])C2([H])N([H])C(=O)C1([H])N(C(=O)C([H])(N([H])C(=O)C([H])(N([H])C([H])([H])[H])C([H])([H])[H])C(C([H])([H])[H])(C([H])([H])[H])C([H])([H])[H])C([H])([H])c2c([H])c(OC([H])([H])c3c([H])c(C([H])(C([H])([H])C([H])([H])[H])C4([H])C([H])([H])C([H])([H])N(C(=O)N5C([H])([H])C([H])([H])C([H])([H])C([H])(n6nc(-c7c([H])c([H])c(Oc8c([H])c([H])c(F)c([H])c8F)c([H])c7[H])c(C(=O)N([H])[H])c6N([H])[H])C5([H])[H])C([H])([H])C4([H])[H])c([H])c(C([H])([H])[H])c3C([H])([H])[H])c([H])c([H])c2C1([H])[H]

>  <smiles>  (64) 
[H]c1c([H])c([H])c2c(c1[H])C([H])([H])C([H])([H])C([H])([H])C2([H])N([H])C(=O)C1([H])N(C(=O)C([H])(N([H])C(=O)C([H])(N([H])C([H])([H])[H])C([H])([H])[H])C(C([H])([H])[H])(C([H])([H])[H])C([H])([H])[H])C([H])([H])c2c([H])c(OC([H])([H])c3c([H])c(C([H])(C([H])([H])C([H])([H])[H])C4([H])C([H])([H])C([H])([H])N(C(=O)N5C([H])([H])C([H])([H])C([H])([H])C([H])(n6nc(-c7c([H])c([H])c(Oc8c([H])c([H])c(F)c([H])c8F)c([H])c7[H])c(C(=O)N([H])[H])c6N([H])[H])C5([H])[H])C([H])([H])C4([H])[H])c([H])c(C([H])([H])[H])c3C([H])([H])[H])c([H])c([H])c2C1([H])[H]

$$$$
64:0:0
     RDKit          3D

 97107  0  0  1  0  0  0  0  0999 V2000
  -27.4120  -20.3270   20.4420 C   0  0  0  0  0  2  0  0  0  0  0  0
  -27.4910  -21.8240   20.7520 C   0  0  0  0  0  2  0  0  0  0  0  0
  -29.7320  -20.9750   20.8230 C   0  0  0  0  0  2  0  0  0  0  0  0
  -28.7360  -19.8180   21.0410 C   0  0  0  0  0  3  0  0  0  0  0  0
  -28.9190  -22.1900   20.5510 N   0  0  2  0  0  4  0  0  0  0  0  0
  -29.0070  -22.2760   19.5480 H   0  0  0  0  0  0  0  0  0  0  0  0
  -29.5940  -16.4930   19.2010 C   0  0  0  0  0  3  0  0  0  0  0  0
  -30.3290  -15.7780   20.1600 C   0  0  0  0  0  0  0  0  0  0  0  0
  -29.2830  -18.3960   20.7180 C   0  0  0  0  0  0  0  0  0  0  0  0
  -29.1000  -17.7860   19.4410 C   0  0  0  0  0  0  0  0  0  0  0  0
  -30.5460  -16.3670   21.4360 C   0  0  0  0  0  0  0  0  0  0  0  0
  -30.0410  -17.6780   21.7020 C   0  0  0  0  0  0  0  0  0  0  0  0
  -28.4530  -18.4630   18.2420 C   0  0  0  0  0  1  0  0  0  0  0  0
  -31.3410  -15.6140   22.5070 C   0  0  0  0  0  1  0  0  0  0  0  0
  -30.3600  -18.3220   23.0590 C   0  0  0  0  0  1  0  0  0  0  0  0
  -30.9730  -14.5020   19.6810 C   0  0  0  0  0  0  0  0  0  0  0  0
  -30.4500  -12.3970   18.5280 C   0  0  0  0  0  2  0  0  0  0  0  0
  -29.4180  -12.7040   17.4220 C   0  0  0  0  0  2  0  0  0  0  0  0
  -27.9820  -12.6160   17.9770 C   0  0  0  0  0  2  0  0  0  0  0  0
  -27.8060  -13.4160   19.2940 C   0  0  0  0  0  3  0  0  0  0  0  0
  -28.9490  -13.1420   20.2900 C   0  0  0  0  0  2  0  0  0  0  0  0
  -30.2300  -13.3650   19.6110 N   0  0  0  0  0  0  0  0  0  0  0  0
  -32.0680  -14.6190   19.1250 O   0  0  0  0  0  0  0  0  0  0  0  0
  -25.5270  -14.0860   20.2760 C   0  0  0  0  0  0  0  0  0  0  0  0
  -24.4700  -13.3410   20.7300 C   0  0  0  0  0  0  0  0  0  0  0  0
  -24.8700  -11.9740   20.6080 C   0  0  0  0  0  0  0  0  0  0  0  0
  -26.5020  -13.1750   19.9050 N   0  0  0  0  0  0  0  0  0  0  0  0
  -26.1190  -11.8970   20.1620 N   0  0  0  0  0  0  0  0  0  0  0  0
  -24.1160  -10.7340   20.8360 C   0  0  0  0  0  0  0  0  0  0  0  0
  -24.5550   -9.7610   21.7620 C   0  0  0  0  0  3  0  0  0  0  0  0
  -23.8050   -8.5830   21.9730 C   0  0  0  0  0  3  0  0  0  0  0  0
  -22.6030   -8.3720   21.2560 C   0  0  0  0  0  0  0  0  0  0  0  0
  -22.1820   -9.3330   20.3190 C   0  0  0  0  0  3  0  0  0  0  0  0
  -22.9330  -10.5000   20.1070 C   0  0  0  0  0  3  0  0  0  0  0  0
  -21.8190   -7.2490   21.3780 O   0  0  0  0  0  0  0  0  0  0  0  0
  -21.7370   -6.5510   22.5560 C   0  0  0  0  0  0  0  0  0  0  0  0
  -21.3330   -7.1660   23.7620 C   0  0  0  0  0  3  0  0  0  0  0  0
  -21.2010   -6.3960   24.9350 C   0  0  0  0  0  3  0  0  0  0  0  0
  -21.4580   -5.0130   24.9020 C   0  0  0  0  0  0  0  0  0  0  0  0
  -21.8540   -4.3980   23.7020 C   0  0  0  0  0  3  0  0  0  0  0  0
  -21.9910   -5.1640   22.5320 C   0  0  0  0  0  0  0  0  0  0  0  0
  -22.3520   -4.5620   21.3720 F   0  0  0  0  0  0  0  0  0  0  0  0
  -21.3220   -4.2730   26.0270 F   0  0  0  0  0  0  0  0  0  0  0  0
  -23.1300  -13.8600   21.1660 C   0  0  0  0  0  0  0  0  0  0  0  0
  -22.4940  -13.1890   22.1210 N   0  0  0  0  0  0  0  0  0  0  0  0
  -22.6620  -14.8960   20.6960 O   0  0  0  0  0  0  0  0  0  0  0  0
  -22.8820  -12.3440   22.5140 H   0  0  0  0  0  0  0  0  0  0  0  0
  -21.6030  -13.5210   22.4620 H   0  0  0  0  0  0  0  0  0  0  0  0
  -25.7330  -15.4540   20.1310 N   0  0  0  0  0  0  0  0  0  0  0  0
  -25.0240  -16.1430   20.3580 H   0  0  0  0  0  0  0  0  0  0  0  0
  -26.6030  -15.8670   19.8180 H   0  0  0  0  0  0  0  0  0  0  0  0
  -28.6450  -24.2400   22.1520 C   0  0  0  0  0  2  0  0  0  0  0  0
  -28.2650  -25.6090   21.5700 C   0  0  0  0  0  2  0  0  0  0  0  0
  -29.5930  -24.5350   19.9050 C   0  0  0  0  0  2  0  0  0  0  0  0
  -29.4610  -23.5020   21.0510 C   0  0  0  0  0  3  0  0  0  0  0  0
  -28.3690  -25.4360   20.0480 C   0  0  0  0  0  3  0  0  0  0  0  0
  -28.4640  -26.6840   19.3440 O   0  0  0  0  0  0  0  0  0  0  0  0
  -24.6870  -31.4650   22.9500 C   0  0  0  0  0  0  0  0  0  0  0  0
  -27.2970  -27.4100   19.3860 C   0  0  0  0  0  0  0  0  0  0  0  0
  -23.4330  -30.1530   21.2630 C   0  0  0  0  0  3  0  0  0  0  0  0
  -24.8570  -28.8030   19.6350 C   0  0  0  0  0  0  0  0  0  0  0  0
  -25.9250  -30.6350   20.9560 C   0  0  0  0  0  2  0  0  0  0  0  0
  -26.0250  -29.3250   20.2030 C   0  0  0  0  0  0  0  0  0  0  0  0
  -27.2490  -28.6360   20.0790 C   0  0  0  0  0  3  0  0  0  0  0  0
  -26.1180  -26.9120   18.7850 C   0  0  0  0  0  3  0  0  0  0  0  0
  -24.8970  -27.5930   18.9190 C   0  0  0  0  0  3  0  0  0  0  0  0
  -23.5810  -29.5910   19.8230 C   0  0  0  0  0  2  0  0  0  0  0  0
  -24.7030  -30.7600   21.7820 N   0  0  0  0  0  0  0  0  0  0  0  0
  -23.6330  -31.6470   23.5720 O   0  0  0  0  0  0  0  0  0  0  0  0
  -22.8810  -29.0320   22.1720 C   0  0  0  0  0  0  0  0  0  0  0  0
  -21.5620  -28.7910   22.0930 N   0  0  0  0  0  0  0  0  0  0  0  0
  -23.6310  -28.3830   22.9060 O   0  0  0  0  0  0  0  0  0  0  0  0
  -21.0070  -29.3690   21.4780 H   0  0  0  0  0  0  0  0  0  0  0  0
  -18.2910  -27.3480   22.5770 C   0  0  0  0  0  0  0  0  0  0  0  0
  -20.8290  -27.7620   22.8260 C   0  0  0  0  0  3  0  0  0  0  0  0
  -21.0180  -26.3740   22.1710 C   0  0  0  0  0  2  0  0  0  0  0  0
  -19.9210  -26.0330   21.1570 C   0  0  0  0  0  2  0  0  0  0  0  0
  -18.5450  -26.0500   21.8290 C   0  0  0  0  0  2  0  0  0  0  0  0
  -19.3630  -28.1610   23.0300 C   0  0  0  0  0  0  0  0  0  0  0  0
  -19.0700  -29.3760   23.6860 C   0  0  0  0  0  3  0  0  0  0  0  0
  -17.7370  -29.7760   23.9000 C   0  0  0  0  0  3  0  0  0  0  0  0
  -16.6790  -28.9590   23.4640 C   0  0  0  0  0  3  0  0  0  0  0  0
  -16.9580  -27.7490   22.8060 C   0  0  0  0  0  3  0  0  0  0  0  0
  -25.9860  -32.0950   23.5440 C   0  0  0  0  0  3  0  0  0  0  0  0
  -25.6500  -33.4430   24.0190 N   0  0  0  0  0  0  0  0  0  0  0  0
  -25.9140  -34.5750   23.3510 C   0  0  0  0  0  0  0  0  0  0  0  0
  -26.5430  -34.5930   22.2890 O   0  0  0  0  0  0  0  0  0  0  0  0
  -25.0930  -33.4990   24.8590 H   0  0  0  0  0  0  0  0  0  0  0  0
  -24.1090  -36.3220   23.2400 C   0  0  0  0  0  1  0  0  0  0  0  0
  -25.3990  -35.8940   23.9580 C   0  0  0  0  0  3  0  0  0  0  0  0
  -27.5340  -36.7820   24.7840 C   0  0  0  0  0  1  0  0  0  0  0  0
  -26.3880  -36.9930   23.9040 N   0  0  0  0  0  0  0  0  0  0  0  0
  -25.9560  -37.8770   24.1570 H   0  0  0  0  0  0  0  0  0  0  0  0
  -26.6230  -31.2330   24.7030 C   0  0  1  0  0  0  0  0  0  0  0  0
  -25.6190  -30.8510   25.8140 C   0  0  0  0  0  1  0  0  0  0  0  0
  -27.2140  -29.9180   24.1420 C   0  0  0  0  0  1  0  0  0  0  0  0
  -27.7950  -32.0020   25.3520 C   0  0  0  0  0  1  0  0  0  0  0  0
  1  2  1  0
  1  4  1  0
  3  4  1  0
  4  9  1  0
  5  6  1  6
  5  2  1  0
  5  3  1  0
  5 55  1  0
  7 10  2  0
  7  8  1  0
  8 11  2  0
  9 12  2  0
 10  9  1  0
 11 12  1  0
 11 14  1  0
 12 15  1  0
 13 10  1  0
 16  8  1  0
 17 22  1  0
 18 19  1  0
 18 17  1  0
 20 19  1  0
 20 27  1  0
 20 21  1  0
 22 16  1  0
 22 21  1  0
 23 16  2  0
 24 25  2  0
 25 44  1  0
 26 25  1  0
 26 29  1  0
 27 28  1  0
 27 24  1  0
 28 26  2  0
 29 30  1  0
 30 31  2  0
 32 35  1  0
 32 31  1  0
 33 32  2  0
 34 33  1  0
 34 29  2  0
 35 36  1  0
 36 37  1  0
 37 38  2  0
 39 38  1  0
 39 43  1  0
 40 39  2  0
 41 36  2  0
 41 40  1  0
 42 41  1  0
 44 45  1  0
 45 48  1  0
 45 47  1  0
 46 44  2  0
 49 24  1  0
 49 50  1  0
 51 49  1  0
 53 52  1  0
 54 56  1  0
 55 54  1  0
 55 52  1  0
 56 57  1  0
 56 53  1  0
 57 59  1  0
 58 69  2  0
 59 64  1  0
 60 68  1  0
 60 70  1  0
 61 67  1  0
 61 63  1  0
 62 68  1  0
 63 62  1  0
 64 63  2  0
 65 66  1  0
 65 59  2  0
 66 61  2  0
 67 60  1  0
 68 58  1  0
 70 72  2  0
 71 70  1  0
 73 71  1  0
 74 83  2  0
 74 79  1  0
 75 71  1  0
 75 79  1  0
 76 75  1  0
 77 78  1  0
 77 76  1  0
 78 74  1  0
 79 80  2  0
 80 81  1  0
 82 81  2  0
 83 82  1  0
 84 58  1  0
 84 85  1  0
 84 94  1  0
 85 88  1  0
 86 90  1  0
 86 85  1  0
 87 86  2  0
 90 89  1  0
 92 90  1  0
 92 93  1  0
 92 91  1  0
 94 97  1  1
 94 95  1  0
 96 94  1  0
M  ISO  4   8 100  16 100  56 101  57 101
M  END
>  <TORSDO>  (65) 
F 18

>  <SCORE>  (65) 
-10.710

>  <name>  (65) 
64

>  <ligand_id>  (65) 
64

>  <original_smiles>  (65) 
[H]c1c([H])c([H])c2c(c1[H])C([H])([H])C([H])([H])C([H])([H])C2([H])N([H])C(=O)C1([H])N(C(=O)C([H])(N([H])C(=O)C([H])(N([H])C([H])([H])[H])C([H])([H])[H])C(C([H])([H])[H])(C([H])([H])[H])C([H])([H])[H])C([H])([H])c2c([H])c(OC3([H])C([H])([H])C([H])([H])C([H])([N+]4([H])C([H])([H])C([H])([H])C([H])(c5c(C([H])([H])[H])c([H])c(C(=O)N6C([H])([H])C([H])([H])C([H])([H])C([H])(n7nc(-c8c([H])c([H])c(Oc9c([H])c([H])c(F)c([H])c9F)c([H])c8[H])c(C(=O)N([H])[H])c7N([H])[H])C6([H])[H])c(C([H])([H])[H])c5C([H])([H])[H])C4([H])[H])C3([H])[H])c([H])c([H])c2C1([H])[H]

>  <smiles>  (65) 
[H]c1c([H])c([H])c2c(c1[H])C([H])([H])C([H])([H])C([H])([H])C2([H])N([H])C(=O)C1([H])N(C(=O)C([H])(N([H])C(=O)C([H])(N([H])C([H])([H])[H])C([H])([H])[H])C(C([H])([H])[H])(C([H])([H])[H])C([H])([H])[H])C([H])([H])c2c([H])c(OC3([H])C([H])([H])C([H])([H])C([H])([N+]4([H])C([H])([H])C([H])([H])C([H])(c5c(C([H])([H])[H])c([H])c(C(=O)N6C([H])([H])C([H])([H])C([H])([H])C([H])(n7nc(-c8c([H])c([H])c(Oc9c([H])c([H])c(F)c([H])c9F)c([H])c8[H])c(C(=O)N([H])[H])c7N([H])[H])C6([H])[H])c(C([H])([H])[H])c5C([H])([H])[H])C4([H])[H])C3([H])[H])c([H])c([H])c2C1([H])[H]

$$$$
65:0:0
     RDKit          3D

 92101  0  0  1  0  0  0  0  0999 V2000
  -30.6790  -20.9780   19.4030 C   0  0  0  0  0  3  0  0  0  0  0  0
  -28.5580  -21.7830   20.2800 C   0  0  0  0  0  3  0  0  0  0  0  0
  -30.3990  -19.6990   19.9660 C   0  0  0  0  0  0  0  0  0  0  0  0
  -29.2080  -19.4600   20.6420 C   0  0  0  0  0  0  0  0  0  0  0  0
  -28.2720  -20.5030   20.8140 C   0  0  0  0  0  0  0  0  0  0  0  0
  -29.7480  -22.0510   19.5500 C   0  0  0  0  0  0  0  0  0  0  0  0
  -31.2540  -18.4370   19.9260 C   0  0  0  0  0  2  0  0  0  0  0  0
  -29.0840  -18.0090   21.0880 C   0  0  0  0  0  2  0  0  0  0  0  0
  -30.3940  -17.2990   20.6080 C   0  0  0  0  0  3  0  0  0  0  0  0
  -26.9610  -20.2860   21.5410 C   0  0  0  0  0  1  0  0  0  0  0  0
  -30.9560  -14.9270   19.8780 C   0  0  0  0  0  0  0  0  0  0  0  0
  -30.7130  -12.6450   18.9540 C   0  0  0  0  0  2  0  0  0  0  0  0
  -29.7150  -12.6840   17.7770 C   0  0  0  0  0  2  0  0  0  0  0  0
  -28.2610  -12.5540   18.2850 C   0  0  0  0  0  2  0  0  0  0  0  0
  -27.9400  -13.4590   19.5050 C   0  0  0  0  0  3  0  0  0  0  0  0
  -29.0590  -13.4020   20.5660 C   0  0  0  0  0  2  0  0  0  0  0  0
  -30.3250  -13.7130   19.8910 N   0  0  0  0  0  0  0  0  0  0  0  0
  -32.1560  -15.0290   19.6090 O   0  0  0  0  0  0  0  0  0  0  0  0
  -29.6470  -16.3890   18.4730 C   0  0  0  0  0  1  0  0  0  0  0  0
  -30.1520  -16.0420   19.8180 N   0  0  0  0  0  0  0  0  0  0  0  0
  -25.5990  -14.0530   20.3700 C   0  0  0  0  0  0  0  0  0  0  0  0
  -24.5500  -13.2740   20.7740 C   0  0  0  0  0  0  0  0  0  0  0  0
  -25.0050  -11.9230   20.6840 C   0  0  0  0  0  0  0  0  0  0  0  0
  -26.6260  -13.1730   20.0640 N   0  0  0  0  0  0  0  0  0  0  0  0
  -26.2770  -11.8870   20.3120 N   0  0  0  0  0  0  0  0  0  0  0  0
  -24.2880  -10.6570   20.8760 C   0  0  0  0  0  0  0  0  0  0  0  0
  -24.7200   -9.6990   21.8210 C   0  0  0  0  0  3  0  0  0  0  0  0
  -23.9990   -8.4990   21.9990 C   0  0  0  0  0  3  0  0  0  0  0  0
  -22.8340   -8.2470   21.2350 C   0  0  0  0  0  0  0  0  0  0  0  0
  -22.4250   -9.1940   20.2780 C   0  0  0  0  0  3  0  0  0  0  0  0
  -23.1460  -10.3850   20.0970 C   0  0  0  0  0  3  0  0  0  0  0  0
  -22.0890   -7.0970   21.3240 O   0  0  0  0  0  0  0  0  0  0  0  0
  -21.9370   -6.4280   22.5120 C   0  0  0  0  0  0  0  0  0  0  0  0
  -21.3700   -7.0460   23.6460 C   0  0  0  0  0  3  0  0  0  0  0  0
  -21.1670   -6.3020   24.8260 C   0  0  0  0  0  3  0  0  0  0  0  0
  -21.5240   -4.9410   24.8690 C   0  0  0  0  0  0  0  0  0  0  0  0
  -22.0860   -4.3240   23.7380 C   0  0  0  0  0  3  0  0  0  0  0  0
  -22.2890   -5.0660   22.5610 C   0  0  0  0  0  0  0  0  0  0  0  0
  -22.8100   -4.4610   21.4660 F   0  0  0  0  0  0  0  0  0  0  0  0
  -21.3280   -4.2220   26.0000 F   0  0  0  0  0  0  0  0  0  0  0  0
  -23.1700  -13.7480   21.1290 C   0  0  0  0  0  0  0  0  0  0  0  0
  -22.5010  -13.0520   22.0400 N   0  0  0  0  0  0  0  0  0  0  0  0
  -22.6970  -14.7690   20.6340 O   0  0  0  0  0  0  0  0  0  0  0  0
  -22.8960  -12.2230   22.4580 H   0  0  0  0  0  0  0  0  0  0  0  0
  -21.5800  -13.3560   22.3250 H   0  0  0  0  0  0  0  0  0  0  0  0
  -25.7630  -15.4270   20.2180 N   0  0  0  0  0  0  0  0  0  0  0  0
  -25.0070  -16.0840   20.3790 H   0  0  0  0  0  0  0  0  0  0  0  0
  -26.6050  -15.8610   19.8630 H   0  0  0  0  0  0  0  0  0  0  0  0
  -30.0170  -23.3000   18.9730 O   0  0  0  0  0  0  0  0  0  0  0  0
  -29.2010  -24.4550   19.3230 C   0  0  0  0  0  2  0  0  0  0  0  0
  -29.5430  -25.7800   18.5600 C   0  0  0  0  0  2  0  0  0  0  0  0
  -29.2280  -27.0200   19.2510 O   0  0  0  0  0  0  0  0  0  0  0  0
  -24.7280  -31.3440   22.7540 C   0  0  0  0  0  0  0  0  0  0  0  0
  -27.9500  -27.5740   19.2780 C   0  0  0  0  0  0  0  0  0  0  0  0
  -23.7240  -29.9930   20.9410 C   0  0  0  0  0  3  0  0  0  0  0  0
  -25.3770  -28.7880   19.4030 C   0  0  0  0  0  0  0  0  0  0  0  0
  -26.1950  -30.6530   20.8530 C   0  0  0  0  0  2  0  0  0  0  0  0
  -26.4540  -29.3720   20.0780 C   0  0  0  0  0  0  0  0  0  0  0  0
  -27.7360  -28.7700   20.0150 C   0  0  0  0  0  3  0  0  0  0  0  0
  -26.8430  -27.0030   18.6110 C   0  0  0  0  0  3  0  0  0  0  0  0
  -25.5680  -27.6030   18.6680 C   0  0  0  0  0  3  0  0  0  0  0  0
  -24.0400  -29.4890   19.5050 C   0  0  0  0  0  2  0  0  0  0  0  0
  -24.8980  -30.6750   21.5770 N   0  0  0  0  0  0  0  0  0  0  0  0
  -23.6140  -31.4290   23.2900 O   0  0  0  0  0  0  0  0  0  0  0  0
  -23.1760  -28.8120   21.7750 C   0  0  0  0  0  0  0  0  0  0  0  0
  -21.8670  -28.5370   21.6440 N   0  0  0  0  0  0  0  0  0  0  0  0
  -23.9260  -28.1490   22.4970 O   0  0  0  0  0  0  0  0  0  0  0  0
  -21.3130  -29.1360   21.0460 H   0  0  0  0  0  0  0  0  0  0  0  0
  -18.6060  -27.0430   22.0980 C   0  0  0  0  0  0  0  0  0  0  0  0
  -21.1520  -27.4430   22.3010 C   0  0  0  0  0  3  0  0  0  0  0  0
  -21.3180  -26.1200   21.5180 C   0  0  0  0  0  2  0  0  0  0  0  0
  -20.1920  -25.8700   20.5110 C   0  0  0  0  0  2  0  0  0  0  0  0
  -18.8360  -25.8230   21.2200 C   0  0  0  0  0  2  0  0  0  0  0  0
  -19.6930  -27.8120   22.5920 C   0  0  0  0  0  0  0  0  0  0  0  0
  -19.4240  -28.9560   23.3730 C   0  0  0  0  0  3  0  0  0  0  0  0
  -18.1000  -29.3360   23.6610 C   0  0  0  0  0  3  0  0  0  0  0  0
  -17.0280  -28.5650   23.1800 C   0  0  0  0  0  3  0  0  0  0  0  0
  -17.2820  -27.4180   22.4060 C   0  0  0  0  0  3  0  0  0  0  0  0
  -25.9190  -32.0540   23.4720 C   0  0  0  0  0  3  0  0  0  0  0  0
  -26.5020  -31.2230   24.6800 C   0  0  1  0  0  0  0  0  0  0  0  0
  -25.4290  -30.7610   25.6920 C   0  0  0  0  0  1  0  0  0  0  0  0
  -27.2420  -29.9630   24.1710 C   0  0  0  0  0  1  0  0  0  0  0  0
  -27.5480  -32.0680   25.4430 C   0  0  0  0  0  1  0  0  0  0  0  0
  -25.4440  -33.3690   23.9260 N   0  0  0  0  0  0  0  0  0  0  0  0
  -25.6760  -34.5240   23.2880 C   0  0  0  0  0  0  0  0  0  0  0  0
  -26.3800  -34.6010   22.2770 O   0  0  0  0  0  0  0  0  0  0  0  0
  -24.8170  -33.3730   24.7170 H   0  0  0  0  0  0  0  0  0  0  0  0
  -23.7650  -36.1450   23.0480 C   0  0  0  0  0  1  0  0  0  0  0  0
  -25.0220  -35.7960   23.8630 C   0  0  0  0  0  3  0  0  0  0  0  0
  -27.0130  -36.8240   24.8660 C   0  0  0  0  0  1  0  0  0  0  0  0
  -25.9300  -36.9630   23.8960 N   0  0  0  0  0  0  0  0  0  0  0  0
  -25.4160  -37.8130   24.1160 H   0  0  0  0  0  0  0  0  0  0  0  0
  1  6  2  0
  1  3  1  0
  2  5  2  0
  3  4  2  0
  4  5  1  0
  4  8  1  0
  5 10  1  0
  6  2  1  0
  7  3  1  0
  7  9  1  0
  9 20  1  0
  9  8  1  0
 11 17  1  0
 12 17  1  0
 13 14  1  0
 13 12  1  0
 15 14  1  0
 15 24  1  0
 15 16  1  0
 17 16  1  0
 18 11  2  0
 19 20  1  0
 20 11  1  0
 21 22  2  0
 22 41  1  0
 23 22  1  0
 23 26  1  0
 24 25  1  0
 24 21  1  0
 25 23  2  0
 26 27  1  0
 27 28  2  0
 29 32  1  0
 29 28  1  0
 30 29  2  0
 31 30  1  0
 31 26  2  0
 32 33  1  0
 33 38  2  0
 33 34  1  0
 34 35  2  0
 35 36  1  0
 36 40  1  0
 37 36  2  0
 38 37  1  0
 39 38  1  0
 41 42  1  0
 42 45  1  0
 42 44  1  0
 43 41  2  0
 46 21  1  0
 46 47  1  0
 48 46  1  0
 49 50  1  0
 49  6  1  0
 51 52  1  0
 51 50  1  0
 52 54  1  0
 53 64  2  0
 54 59  1  0
 55 63  1  0
 55 65  1  0
 56 62  1  0
 56 58  1  0
 57 63  1  0
 58 57  1  0
 59 58  2  0
 60 61  1  0
 60 54  2  0
 61 56  2  0
 62 55  1  0
 63 53  1  0
 65 67  2  0
 66 65  1  0
 68 66  1  0
 69 78  2  0
 69 74  1  0
 70 66  1  0
 70 74  1  0
 71 70  1  0
 72 73  1  0
 72 71  1  0
 73 69  1  0
 74 75  2  0
 75 76  1  0
 77 76  2  0
 78 77  1  0
 79 53  1  0
 79 84  1  0
 79 80  1  0
 80 83  1  1
 80 81  1  0
 82 80  1  0
 84 87  1  0
 85 89  1  0
 85 84  1  0
 86 85  2  0
 89 88  1  0
 89 91  1  0
 91 92  1  0
 91 90  1  0
M  ISO  4  11 100  20 100  51 101  52 101
M  END
>  <TORSDO>  (66) 
F 19

>  <SCORE>  (66) 
-7.460

>  <name>  (66) 
65

>  <ligand_id>  (66) 
65

>  <original_smiles>  (66) 
[H]c1c([H])c([H])c2c(c1[H])C([H])([H])C([H])([H])C([H])([H])C2([H])N([H])C(=O)C1([H])N(C(=O)C([H])(N([H])C(=O)C([H])(N([H])C([H])([H])[H])C([H])([H])[H])C(C([H])([H])[H])(C([H])([H])[H])C([H])([H])[H])C([H])([H])c2c([H])c(OC([H])([H])C([H])([H])Oc3c([H])c(C([H])([H])[H])c4c(c3[H])C([H])([H])C([H])(N(C(=O)N3C([H])([H])C([H])([H])C([H])([H])C([H])(n5nc(-c6c([H])c([H])c(Oc7c([H])c([H])c(F)c([H])c7F)c([H])c6[H])c(C(=O)N([H])[H])c5N([H])[H])C3([H])[H])C([H])([H])[H])C4([H])[H])c([H])c([H])c2C1([H])[H]

>  <smiles>  (66) 
[H]c1c([H])c([H])c2c(c1[H])C([H])([H])C([H])([H])C([H])([H])C2([H])N([H])C(=O)C1([H])N(C(=O)C([H])(N([H])C(=O)C([H])(N([H])C([H])([H])[H])C([H])([H])[H])C(C([H])([H])[H])(C([H])([H])[H])C([H])([H])[H])C([H])([H])c2c([H])c(OC([H])([H])C([H])([H])Oc3c([H])c(C([H])([H])[H])c4c(c3[H])C([H])([H])C([H])(N(C(=O)N3C([H])([H])C([H])([H])C([H])([H])C([H])(n5nc(-c6c([H])c([H])c(Oc7c([H])c([H])c(F)c([H])c7F)c([H])c6[H])c(C(=O)N([H])[H])c5N([H])[H])C3([H])[H])C([H])([H])[H])C4([H])[H])c([H])c([H])c2C1([H])[H]

$$$$
66:0:0
     RDKit          3D

 94103  0  0  1  0  0  0  0  0999 V2000
  -28.7170  -22.1210   19.4560 C   0  0  0  0  0  3  0  0  0  0  0  0
  -28.6520  -20.7070   19.4660 C   0  0  0  0  0  3  0  0  0  0  0  0
  -29.8010  -20.6660   21.5850 C   0  0  0  0  0  3  0  0  0  0  0  0
  -29.3330  -22.8370   20.5080 C   0  0  0  0  0  0  0  0  0  0  0  0
  -29.2230  -19.9390   20.5120 C   0  0  0  0  0  0  0  0  0  0  0  0
  -29.8600  -22.0930   21.5990 C   0  0  0  0  0  0  0  0  0  0  0  0
  -30.6820  -14.5050   20.0530 C   0  0  0  0  0  0  0  0  0  0  0  0
  -30.3400  -12.3450   18.9160 C   0  0  0  0  0  2  0  0  0  0  0  0
  -29.3260  -12.5560   17.7720 C   0  0  0  0  0  2  0  0  0  0  0  0
  -27.8820  -12.4020   18.2900 C   0  0  0  0  0  2  0  0  0  0  0  0
  -27.6140  -13.2100   19.5890 C   0  0  0  0  0  3  0  0  0  0  0  0
  -28.7410  -12.9920   20.6250 C   0  0  0  0  0  2  0  0  0  0  0  0
  -30.0140  -13.3210   19.9710 N   0  0  0  0  0  0  0  0  0  0  0  0
  -31.8330  -14.6300   19.6180 O   0  0  0  0  0  0  0  0  0  0  0  0
  -28.9760  -17.7880   19.2310 C   0  0  0  0  0  2  0  0  0  0  0  0
  -29.7810  -17.7130   21.5870 C   0  0  0  0  0  2  0  0  0  0  0  0
  -29.9460  -16.5990   19.0550 C   0  0  0  0  0  2  0  0  0  0  0  0
  -29.4880  -16.1860   21.4560 C   0  0  0  0  0  2  0  0  0  0  0  0
  -29.2220  -18.5090   20.4830 N   0  0  0  0  0  0  0  0  0  0  0  0
  -29.8930  -15.6130   20.1540 N   0  0  0  0  0  0  0  0  0  0  0  0
  -25.2650  -13.7780   20.4640 C   0  0  0  0  0  0  0  0  0  0  0  0
  -24.2250  -12.9860   20.8730 C   0  0  0  0  0  0  0  0  0  0  0  0
  -24.6920  -11.6400   20.7760 C   0  0  0  0  0  0  0  0  0  0  0  0
  -26.2980  -12.9100   20.1450 N   0  0  0  0  0  0  0  0  0  0  0  0
  -25.9610  -11.6190   20.3900 N   0  0  0  0  0  0  0  0  0  0  0  0
  -23.9850  -10.3660   20.9730 C   0  0  0  0  0  0  0  0  0  0  0  0
  -24.4450   -9.4020   21.8970 C   0  0  0  0  0  3  0  0  0  0  0  0
  -23.7370   -8.1950   22.0820 C   0  0  0  0  0  3  0  0  0  0  0  0
  -22.5580   -7.9430   21.3410 C   0  0  0  0  0  0  0  0  0  0  0  0
  -22.1200   -8.8950   20.4050 C   0  0  0  0  0  3  0  0  0  0  0  0
  -22.8280  -10.0940   20.2190 C   0  0  0  0  0  3  0  0  0  0  0  0
  -21.8210   -6.7870   21.4350 O   0  0  0  0  0  0  0  0  0  0  0  0
  -21.7420   -6.0770   22.6060 C   0  0  0  0  0  0  0  0  0  0  0  0
  -21.2700   -6.6600   23.8010 C   0  0  0  0  0  3  0  0  0  0  0  0
  -21.1420   -5.8740   24.9650 C   0  0  0  0  0  3  0  0  0  0  0  0
  -21.4760   -4.5070   24.9330 C   0  0  0  0  0  0  0  0  0  0  0  0
  -21.9430   -3.9240   23.7400 C   0  0  0  0  0  3  0  0  0  0  0  0
  -22.0730   -4.7070   22.5800 C   0  0  0  0  0  0  0  0  0  0  0  0
  -22.5030   -4.1360   21.4300 F   0  0  0  0  0  0  0  0  0  0  0  0
  -21.3460   -3.7510   26.0470 F   0  0  0  0  0  0  0  0  0  0  0  0
  -22.8440  -13.4450   21.2430 C   0  0  0  0  0  0  0  0  0  0  0  0
  -22.1790  -12.7210   22.1380 N   0  0  0  0  0  0  0  0  0  0  0  0
  -22.3640  -14.4760   20.7740 O   0  0  0  0  0  0  0  0  0  0  0  0
  -22.5830  -11.8870   22.5360 H   0  0  0  0  0  0  0  0  0  0  0  0
  -21.2550  -13.0070   22.4310 H   0  0  0  0  0  0  0  0  0  0  0  0
  -25.4130  -15.1540   20.3180 N   0  0  0  0  0  0  0  0  0  0  0  0
  -24.6590  -15.8050   20.5020 H   0  0  0  0  0  0  0  0  0  0  0  0
  -26.2550  -15.6040   19.9810 H   0  0  0  0  0  0  0  0  0  0  0  0
  -30.6680  -24.7320   19.4970 C   0  0  0  0  0  1  0  0  0  0  0  0
  -29.5010  -24.3790   20.4340 C   0  0  0  0  0  3  0  0  0  0  0  0
  -28.2280  -25.1770   20.0360 C   0  0  0  0  0  2  0  0  0  0  0  0
  -28.3770  -26.6090   20.2130 O   0  0  0  0  0  0  0  0  0  0  0  0
  -24.5960  -31.8510   23.2660 C   0  0  0  0  0  0  0  0  0  0  0  0
  -27.2210  -27.3760   20.1800 C   0  0  0  0  0  0  0  0  0  0  0  0
  -23.3920  -30.4660   21.6120 C   0  0  0  0  0  3  0  0  0  0  0  0
  -24.8430  -28.9280   20.1860 C   0  0  0  0  0  0  0  0  0  0  0  0
  -25.9270  -30.8010   21.4330 C   0  0  0  0  0  2  0  0  0  0  0  0
  -26.0070  -29.4320   20.7810 C   0  0  0  0  0  0  0  0  0  0  0  0
  -27.1990  -28.6660   20.7690 C   0  0  0  0  0  3  0  0  0  0  0  0
  -26.0330  -26.8990   19.5770 C   0  0  0  0  0  3  0  0  0  0  0  0
  -24.8540  -27.6620   19.5800 C   0  0  0  0  0  3  0  0  0  0  0  0
  -23.6060  -29.7970   20.2290 C   0  0  0  0  0  2  0  0  0  0  0  0
  -24.6570  -31.0550   22.1610 N   0  0  0  0  0  0  0  0  0  0  0  0
  -23.5120  -32.1280   23.7990 O   0  0  0  0  0  0  0  0  0  0  0  0
  -22.7290  -29.4410   22.5620 C   0  0  0  0  0  0  0  0  0  0  0  0
  -21.4030  -29.2730   22.4310 N   0  0  0  0  0  0  0  0  0  0  0  0
  -23.4060  -28.8020   23.3710 O   0  0  0  0  0  0  0  0  0  0  0  0
  -20.9200  -29.8420   21.7500 H   0  0  0  0  0  0  0  0  0  0  0  0
  -18.0140  -28.1220   22.9280 C   0  0  0  0  0  0  0  0  0  0  0  0
  -20.5760  -28.3380   23.1930 C   0  0  0  0  0  3  0  0  0  0  0  0
  -20.6550  -26.9130   22.5980 C   0  0  0  0  0  2  0  0  0  0  0  0
  -19.5440  -26.6200   21.5850 C   0  0  0  0  0  2  0  0  0  0  0  0
  -18.1670  -26.7780   22.2350 C   0  0  0  0  0  2  0  0  0  0  0  0
  -19.1450  -28.8620   23.3630 C   0  0  0  0  0  0  0  0  0  0  0  0
  -18.9470  -30.1210   23.9700 C   0  0  0  0  0  3  0  0  0  0  0  0
  -17.6520  -30.6410   24.1450 C   0  0  0  0  0  3  0  0  0  0  0  0
  -16.5350  -29.8980   23.7260 C   0  0  0  0  0  3  0  0  0  0  0  0
  -16.7170  -28.6400   23.1230 C   0  0  0  0  0  3  0  0  0  0  0  0
  -25.8810  -32.4730   23.8960 C   0  0  0  0  0  3  0  0  0  0  0  0
  -26.3830  -31.6980   25.1760 C   0  0  1  0  0  0  0  0  0  0  0  0
  -25.2810  -31.4670   26.2350 C   0  0  0  0  0  1  0  0  0  0  0  0
  -26.9590  -30.3170   24.7870 C   0  0  0  0  0  1  0  0  0  0  0  0
  -27.5340  -32.4850   25.8480 C   0  0  0  0  0  1  0  0  0  0  0  0
  -25.5800  -33.8740   24.2220 N   0  0  0  0  0  0  0  0  0  0  0  0
  -25.9130  -34.9200   23.4550 C   0  0  0  0  0  0  0  0  0  0  0  0
  -26.5780  -34.8090   22.4220 O   0  0  0  0  0  0  0  0  0  0  0  0
  -24.9910  -34.0360   25.0250 H   0  0  0  0  0  0  0  0  0  0  0  0
  -24.1800  -36.7100   23.1130 C   0  0  0  0  0  1  0  0  0  0  0  0
  -25.4330  -36.3130   23.9080 C   0  0  0  0  0  3  0  0  0  0  0  0
  -27.5810  -37.2030   24.6990 C   0  0  0  0  0  1  0  0  0  0  0  0
  -26.4650  -37.3640   23.7720 N   0  0  0  0  0  0  0  0  0  0  0  0
  -26.0620  -38.2860   23.9180 H   0  0  0  0  0  0  0  0  0  0  0  0
  -30.8670  -22.1140   23.7930 C   0  0  0  0  0  1  0  0  0  0  0  0
  -30.4390  -22.8090   22.6280 O   0  0  0  0  0  0  0  0  0  0  0  0
  1  2  2  0
  1  4  1  0
  2  5  1  0
  3  6  1  0
  4  6  2  0
  5  3  2  0
  6 94  1  0
  7 20  1  0
  8 13  1  0
  9 10  1  0
  9  8  1  0
 11 10  1  0
 11 24  1  0
 11 12  1  0
 13  7  1  0
 13 12  1  0
 14  7  2  0
 15 19  1  0
 17 15  1  0
 17 20  1  0
 18 16  1  0
 19  5  1  0
 19 16  1  0
 20 18  1  0
 21 22  2  0
 22 41  1  0
 23 22  1  0
 23 26  1  0
 24 25  1  0
 24 21  1  0
 25 23  2  0
 26 27  1  0
 27 28  2  0
 29 32  1  0
 29 28  1  0
 30 29  2  0
 31 30  1  0
 31 26  2  0
 32 33  1  0
 33 34  1  0
 34 35  2  0
 36 35  1  0
 36 40  1  0
 37 36  2  0
 38 33  2  0
 38 37  1  0
 39 38  1  0
 41 42  1  0
 42 45  1  0
 42 44  1  0
 43 41  2  0
 46 21  1  0
 46 47  1  0
 48 46  1  0
 50 49  1  0
 50  4  1  0
 51 52  1  0
 51 50  1  0
 53 64  2  0
 54 52  1  0
 54 59  1  0
 55 63  1  0
 55 65  1  0
 56 62  1  0
 56 58  1  0
 57 63  1  0
 58 57  1  0
 59 58  2  0
 60 61  1  0
 60 54  2  0
 61 56  2  0
 62 55  1  0
 63 53  1  0
 65 67  2  0
 66 65  1  0
 68 66  1  0
 69 78  2  0
 69 74  1  0
 70 66  1  0
 70 74  1  0
 71 70  1  0
 72 73  1  0
 72 71  1  0
 73 69  1  0
 74 75  2  0
 75 76  1  0
 77 76  2  0
 78 77  1  0
 79 53  1  0
 79 84  1  0
 79 80  1  0
 80 83  1  1
 80 81  1  0
 82 80  1  0
 84 87  1  0
 85 89  1  0
 85 84  1  0
 86 85  2  0
 89 88  1  0
 91 89  1  0
 91 92  1  0
 91 90  1  0
 94 93  1  0
M  ISO  4   7 100  20 100  51 101  52 101
M  END
>  <TORSDO>  (67) 
F 19

>  <SCORE>  (67) 
-14.184

>  <name>  (67) 
66

>  <ligand_id>  (67) 
66

>  <original_smiles>  (67) 
[H]c1c([H])c([H])c2c(c1[H])C([H])([H])C([H])([H])C([H])([H])C2([H])N([H])C(=O)C1([H])N(C(=O)C([H])(N([H])C(=O)C([H])(N([H])C([H])([H])[H])C([H])([H])[H])C(C([H])([H])[H])(C([H])([H])[H])C([H])([H])[H])C([H])([H])c2c([H])c(OC([H])([H])C([H])(c3c([H])c([H])c(N4C([H])([H])C([H])([H])N(C(=O)N5C([H])([H])C([H])([H])C([H])([H])C([H])(n6nc(-c7c([H])c([H])c(Oc8c([H])c([H])c(F)c([H])c8F)c([H])c7[H])c(C(=O)N([H])[H])c6N([H])[H])C5([H])[H])C([H])([H])C4([H])[H])c([H])c3OC([H])([H])[H])C([H])([H])[H])c([H])c([H])c2C1([H])[H]

>  <smiles>  (67) 
[H]c1c([H])c([H])c2c(c1[H])C([H])([H])C([H])([H])C([H])([H])C2([H])N([H])C(=O)C1([H])N(C(=O)C([H])(N([H])C(=O)C([H])(N([H])C([H])([H])[H])C([H])([H])[H])C(C([H])([H])[H])(C([H])([H])[H])C([H])([H])[H])C([H])([H])c2c([H])c(OC([H])([H])C([H])(c3c([H])c([H])c(N4C([H])([H])C([H])([H])N(C(=O)N5C([H])([H])C([H])([H])C([H])([H])C([H])(n6nc(-c7c([H])c([H])c(Oc8c([H])c([H])c(F)c([H])c8F)c([H])c7[H])c(C(=O)N([H])[H])c6N([H])[H])C5([H])[H])C([H])([H])C4([H])[H])c([H])c3OC([H])([H])[H])C([H])([H])[H])c([H])c([H])c2C1([H])[H]

$$$$
67:0:0
     RDKit          3D

 89 99  0  0  1  0  0  0  0  0999 V2000
  -29.1840  -23.2700   20.9680 C   0  0  0  0  0  3  0  0  0  0  0  0
  -28.1000  -23.0990   19.3460 C   0  0  0  0  0  3  0  0  0  0  0  0
  -28.0950  -24.3790   20.3960 C   0  0  0  0  0  3  0  0  0  0  0  0
  -28.4540  -21.8870   20.4300 C   0  0  2  0  0  0  0  0  0  0  0  0
  -27.2250  -21.4760   21.2660 C   0  0  0  0  0  1  0  0  0  0  0  0
  -30.6300  -15.5210   20.0660 C   0  0  0  0  0  0  0  0  0  0  0  0
  -30.5820  -13.0790   19.1880 C   0  0  0  0  0  2  0  0  0  0  0  0
  -29.6280  -12.8190   17.9940 C   0  0  0  0  0  2  0  0  0  0  0  0
  -28.2110  -12.4990   18.5000 C   0  0  0  0  0  2  0  0  0  0  0  0
  -27.7670  -13.4720   19.6210 C   0  0  0  0  0  3  0  0  0  0  0  0
  -28.8470  -13.6970   20.7020 C   0  0  0  0  0  2  0  0  0  0  0  0
  -30.0340  -14.2260   20.0090 N   0  0  0  0  0  0  0  0  0  0  0  0
  -31.8510  -15.4610   19.8530 O   0  0  0  0  0  0  0  0  0  0  0  0
  -29.1850  -17.6970   19.2070 C   0  0  0  0  0  2  0  0  0  0  0  0
  -30.6700  -18.0940   20.8880 C   0  0  0  0  0  2  0  0  0  0  0  0
  -28.4810  -19.2080   19.4860 C   0  0  0  0  0  2  0  0  0  0  0  0
  -30.0150  -19.6270   21.1510 C   0  0  0  0  0  2  0  0  0  0  0  0
  -29.9740  -16.8650   20.2440 N   0  0  0  0  0  0  0  0  0  0  0  0
  -29.2490  -20.4290   20.0700 N   0  0  2  0  0  4  0  0  0  0  0  0
  -29.9500  -20.6680   19.3810 H   0  0  0  0  0  0  0  0  0  0  0  0
  -25.4360  -13.9720   20.5100 C   0  0  0  0  0  0  0  0  0  0  0  0
  -24.3970  -13.1700   20.8940 C   0  0  0  0  0  0  0  0  0  0  0  0
  -24.8780  -11.8280   20.8010 C   0  0  0  0  0  0  0  0  0  0  0  0
  -26.4740  -13.1190   20.1870 N   0  0  0  0  0  0  0  0  0  0  0  0
  -26.1570  -11.8210   20.4330 N   0  0  0  0  0  0  0  0  0  0  0  0
  -24.1730  -10.5530   20.9820 C   0  0  0  0  0  0  0  0  0  0  0  0
  -24.6020   -9.5960   21.9270 C   0  0  0  0  0  3  0  0  0  0  0  0
  -23.8910   -8.3880   22.0950 C   0  0  0  0  0  3  0  0  0  0  0  0
  -22.7370   -8.1290   21.3180 C   0  0  0  0  0  0  0  0  0  0  0  0
  -22.3300   -9.0740   20.3620 C   0  0  0  0  0  3  0  0  0  0  0  0
  -23.0420  -10.2720   20.1910 C   0  0  0  0  0  3  0  0  0  0  0  0
  -21.9980   -6.9740   21.3940 O   0  0  0  0  0  0  0  0  0  0  0  0
  -21.8640   -6.2790   22.5710 C   0  0  0  0  0  0  0  0  0  0  0  0
  -21.3010   -6.8710   23.7230 C   0  0  0  0  0  3  0  0  0  0  0  0
  -21.1200   -6.1020   24.8900 C   0  0  0  0  0  3  0  0  0  0  0  0
  -21.4900   -4.7450   24.9070 C   0  0  0  0  0  0  0  0  0  0  0  0
  -22.0440   -4.1540   23.7580 C   0  0  0  0  0  3  0  0  0  0  0  0
  -22.2290   -4.9200   22.5940 C   0  0  0  0  0  0  0  0  0  0  0  0
  -22.7480   -4.3400   21.4830 F   0  0  0  0  0  0  0  0  0  0  0  0
  -21.3100   -4.0040   26.0260 F   0  0  0  0  0  0  0  0  0  0  0  0
  -23.0090  -13.6240   21.2330 C   0  0  0  0  0  0  0  0  0  0  0  0
  -22.3250  -12.8980   22.1090 N   0  0  0  0  0  0  0  0  0  0  0  0
  -22.5420  -14.6580   20.7580 O   0  0  0  0  0  0  0  0  0  0  0  0
  -22.7260  -12.0680   22.5200 H   0  0  0  0  0  0  0  0  0  0  0  0
  -21.3950  -13.1840   22.3800 H   0  0  0  0  0  0  0  0  0  0  0  0
  -25.5800  -15.3520   20.3830 N   0  0  0  0  0  0  0  0  0  0  0  0
  -24.8240  -15.9930   20.5940 H   0  0  0  0  0  0  0  0  0  0  0  0
  -26.4290  -15.8190   20.1010 H   0  0  0  0  0  0  0  0  0  0  0  0
  -28.2910  -26.0160   20.2290 O   0  0  0  0  0  0  0  0  0  0  0  0
  -24.7030  -31.9540   23.2650 C   0  0  0  0  0  0  0  0  0  0  0  0
  -27.2600  -27.0960   20.2160 C   0  0  0  0  0  0  0  0  0  0  0  0
  -23.5080  -30.5660   21.6190 C   0  0  0  0  0  3  0  0  0  0  0  0
  -24.9550  -28.9680   20.1870 C   0  0  0  0  0  0  0  0  0  0  0  0
  -26.0730  -30.7860   21.4610 C   0  0  0  0  0  2  0  0  0  0  0  0
  -26.1460  -29.3790   20.7990 C   0  0  0  0  0  0  0  0  0  0  0  0
  -27.2960  -28.4650   20.7820 C   0  0  0  0  0  3  0  0  0  0  0  0
  -26.0360  -26.8340   19.5630 C   0  0  0  0  0  3  0  0  0  0  0  0
  -24.9230  -27.7170   19.5510 C   0  0  0  0  0  3  0  0  0  0  0  0
  -23.7380  -29.8910   20.2400 C   0  0  0  0  0  2  0  0  0  0  0  0
  -24.7820  -31.1280   22.1700 N   0  0  0  0  0  0  0  0  0  0  0  0
  -23.6130  -32.2350   23.7910 O   0  0  0  0  0  0  0  0  0  0  0  0
  -22.8190  -29.5600   22.5790 C   0  0  0  0  0  0  0  0  0  0  0  0
  -21.4920  -29.3810   22.4490 N   0  0  0  0  0  0  0  0  0  0  0  0
  -23.4870  -28.9430   23.4120 O   0  0  0  0  0  0  0  0  0  0  0  0
  -21.0040  -29.9320   21.7580 H   0  0  0  0  0  0  0  0  0  0  0  0
  -18.1220  -28.1320   22.9420 C   0  0  0  0  0  0  0  0  0  0  0  0
  -20.6770  -28.4300   23.2140 C   0  0  0  0  0  3  0  0  0  0  0  0
  -20.7970  -27.0000   22.6380 C   0  0  0  0  0  2  0  0  0  0  0  0
  -19.7040  -26.6660   21.6170 C   0  0  0  0  0  2  0  0  0  0  0  0
  -18.3190  -26.7890   22.2600 C   0  0  0  0  0  2  0  0  0  0  0  0
  -19.2290  -28.9080   23.3760 C   0  0  0  0  0  0  0  0  0  0  0  0
  -18.9880  -30.1620   23.9810 C   0  0  0  0  0  3  0  0  0  0  0  0
  -17.6760  -30.6420   24.1490 C   0  0  0  0  0  3  0  0  0  0  0  0
  -16.5830  -29.8630   23.7270 C   0  0  0  0  0  3  0  0  0  0  0  0
  -16.8080  -28.6110   23.1290 C   0  0  0  0  0  3  0  0  0  0  0  0
  -25.9710  -32.5960   23.9020 C   0  0  0  0  0  3  0  0  0  0  0  0
  -25.6480  -33.9950   24.2380 N   0  0  0  0  0  0  0  0  0  0  0  0
  -25.9450  -35.0550   23.4760 C   0  0  0  0  0  0  0  0  0  0  0  0
  -26.5790  -34.9620   22.4220 O   0  0  0  0  0  0  0  0  0  0  0  0
  -25.0740  -34.1390   25.0560 H   0  0  0  0  0  0  0  0  0  0  0  0
  -24.1710  -36.8280   23.2250 C   0  0  0  0  0  1  0  0  0  0  0  0
  -25.4660  -36.4420   23.9580 C   0  0  0  0  0  3  0  0  0  0  0  0
  -27.6310  -37.3750   24.6520 C   0  0  0  0  0  1  0  0  0  0  0  0
  -26.4710  -37.5120   23.7760 N   0  0  0  0  0  0  0  0  0  0  0  0
  -26.0570  -38.4260   23.9390 H   0  0  0  0  0  0  0  0  0  0  0  0
  -26.4740  -31.8290   25.1890 C   0  0  1  0  0  0  0  0  0  0  0  0
  -25.3720  -31.5970   26.2500 C   0  0  0  0  0  1  0  0  0  0  0  0
  -27.0590  -30.4490   24.8140 C   0  0  0  0  0  1  0  0  0  0  0  0
  -27.6170  -32.6280   25.8610 C   0  0  0  0  0  1  0  0  0  0  0  0
  2  3  1  0
  2  4  1  0
  2  1  1  0
  3  1  1  0
  4  1  1  0
  4  5  1  1
  6 18  1  0
  7 12  1  0
  8  9  1  0
  8  7  1  0
  9 10  1  0
 10 24  1  0
 10 11  1  0
 12  6  1  0
 12 11  1  0
 13  6  2  0
 14 16  1  0
 14 18  1  0
 15 17  1  0
 16 19  1  0
 18 15  1  0
 19  4  1  0
 19 17  1  0
 19 20  1  6
 21 22  2  0
 22 41  1  0
 23 22  1  0
 23 26  1  0
 24 25  1  0
 24 21  1  0
 25 23  2  0
 26 27  1  0
 27 28  2  0
 29 32  1  0
 29 28  1  0
 30 29  2  0
 31 30  1  0
 31 26  2  0
 32 33  1  0
 33 38  2  0
 33 34  1  0
 34 35  2  0
 35 36  1  0
 36 40  1  0
 37 36  2  0
 38 37  1  0
 39 38  1  0
 41 42  1  0
 42 45  1  0
 42 44  1  0
 43 41  2  0
 46 21  1  0
 46 47  1  0
 48 46  1  0
 49  3  1  0
 50 61  2  0
 50 76  1  0
 51 49  1  0
 51 56  1  0
 52 60  1  0
 52 62  1  0
 53 59  1  0
 53 55  1  0
 54 60  1  0
 55 54  1  0
 56 55  2  0
 57 51  2  0
 58 57  1  0
 58 53  2  0
 59 52  1  0
 60 50  1  0
 62 64  2  0
 63 62  1  0
 63 67  1  0
 65 63  1  0
 66 75  2  0
 66 71  1  0
 67 71  1  0
 68 67  1  0
 69 70  1  0
 69 68  1  0
 70 66  1  0
 71 72  2  0
 72 73  1  0
 74 73  2  0
 75 74  1  0
 76 77  1  0
 76 86  1  0
 77 80  1  0
 78 82  1  0
 78 77  1  0
 79 78  2  0
 81 82  1  0
 84 85  1  0
 84 82  1  0
 84 83  1  0
 86 89  1  1
 86 87  1  0
 88 86  1  0
M  ISO  4   3 101   6 100  18 100  49 101
M  END
>  <TORSDO>  (68) 
F 16

>  <SCORE>  (68) 
-15.663

>  <name>  (68) 
67

>  <ligand_id>  (68) 
67

>  <original_smiles>  (68) 
[H]c1c([H])c([H])c2c(c1[H])C([H])([H])C([H])([H])C([H])([H])C2([H])N([H])C(=O)C1([H])N(C(=O)C([H])(N([H])C(=O)C([H])(N([H])C([H])([H])[H])C([H])([H])[H])C(C([H])([H])[H])(C([H])([H])[H])C([H])([H])[H])C([H])([H])c2c([H])c(OC3([H])C([H])([H])C(C([H])([H])[H])([N+]4([H])C([H])([H])C([H])([H])N(C(=O)N5C([H])([H])C([H])([H])C([H])([H])C([H])(n6nc(-c7c([H])c([H])c(Oc8c([H])c([H])c(F)c([H])c8F)c([H])c7[H])c(C(=O)N([H])[H])c6N([H])[H])C5([H])[H])C([H])([H])C4([H])[H])C3([H])[H])c([H])c([H])c2C1([H])[H]

>  <smiles>  (68) 
[H]c1c([H])c([H])c2c(c1[H])C([H])([H])C([H])([H])C([H])([H])C2([H])N([H])C(=O)C1([H])N(C(=O)C([H])(N([H])C(=O)C([H])(N([H])C([H])([H])[H])C([H])([H])[H])C(C([H])([H])[H])(C([H])([H])[H])C([H])([H])[H])C([H])([H])c2c([H])c(OC3([H])C([H])([H])C(C([H])([H])[H])([N+]4([H])C([H])([H])C([H])([H])N(C(=O)N5C([H])([H])C([H])([H])C([H])([H])C([H])(n6nc(-c7c([H])c([H])c(Oc8c([H])c([H])c(F)c([H])c8F)c([H])c7[H])c(C(=O)N([H])[H])c6N([H])[H])C5([H])[H])C([H])([H])C4([H])[H])C3([H])[H])c([H])c([H])c2C1([H])[H]

$$$$
68:0:0
     RDKit          3D

 97107  0  0  1  0  0  0  0  0999 V2000
  -32.9450  -22.3860   20.9510 C   0  0  0  0  0  1  0  0  0  0  0  0
  -31.4400  -22.1100   20.7760 C   0  0  0  0  0  3  0  0  0  0  0  0
  -29.2650  -23.2120   19.7730 C   0  0  0  0  0  2  0  0  0  0  0  0
  -30.4130  -24.2480   21.7280 C   0  0  0  0  0  2  0  0  0  0  0  0
  -28.6850  -24.5690   19.3450 C   0  0  0  0  0  2  0  0  0  0  0  0
  -29.8330  -25.6200   21.3730 C   0  0  0  0  0  2  0  0  0  0  0  0
  -30.6430  -23.4060   20.4560 C   0  0  0  0  0  3  0  0  0  0  0  0
  -28.5480  -25.5390   20.5290 C   0  0  0  0  0  3  0  0  0  0  0  0
  -28.4170  -26.8460   20.0070 O   0  0  0  0  0  0  0  0  0  0  0  0
  -24.5830  -31.8680   23.2060 C   0  0  0  0  0  0  0  0  0  0  0  0
  -27.2020  -27.4670   20.1000 C   0  0  0  0  0  0  0  0  0  0  0  0
  -23.3570  -30.4680   21.5720 C   0  0  0  0  0  3  0  0  0  0  0  0
  -24.7950  -28.9220   20.1490 C   0  0  0  0  0  0  0  0  0  0  0  0
  -25.8730  -30.8390   21.3420 C   0  0  0  0  0  2  0  0  0  0  0  0
  -25.9540  -29.4660   20.7150 C   0  0  0  0  0  0  0  0  0  0  0  0
  -27.1630  -28.7470   20.6810 C   0  0  0  0  0  3  0  0  0  0  0  0
  -26.0290  -26.9100   19.5480 C   0  0  0  0  0  3  0  0  0  0  0  0
  -24.8230  -27.6400   19.5690 C   0  0  0  0  0  3  0  0  0  0  0  0
  -23.5510  -29.7780   20.1950 C   0  0  0  0  0  2  0  0  0  0  0  0
  -24.6240  -31.0720   22.1010 N   0  0  0  0  0  0  0  0  0  0  0  0
  -23.5070  -32.1430   23.7560 O   0  0  0  0  0  0  0  0  0  0  0  0
  -22.7160  -29.4490   22.5390 C   0  0  0  0  0  0  0  0  0  0  0  0
  -21.3920  -29.2660   22.4160 N   0  0  0  0  0  0  0  0  0  0  0  0
  -23.4050  -28.8230   23.3490 O   0  0  0  0  0  0  0  0  0  0  0  0
  -20.8990  -29.8230   21.7310 H   0  0  0  0  0  0  0  0  0  0  0  0
  -18.0230  -28.0700   22.9150 C   0  0  0  0  0  0  0  0  0  0  0  0
  -20.5790  -28.3300   23.1890 C   0  0  0  0  0  3  0  0  0  0  0  0
  -20.6850  -26.8980   22.6170 C   0  0  0  0  0  2  0  0  0  0  0  0
  -19.5840  -26.5700   21.6010 C   0  0  0  0  0  2  0  0  0  0  0  0
  -18.2020  -26.7180   22.2440 C   0  0  0  0  0  2  0  0  0  0  0  0
  -19.1400  -28.8340   23.3430 C   0  0  0  0  0  0  0  0  0  0  0  0
  -18.9210  -30.1010   23.9280 C   0  0  0  0  0  3  0  0  0  0  0  0
  -17.6170  -30.6050   24.0880 C   0  0  0  0  0  3  0  0  0  0  0  0
  -16.5130  -29.8370   23.6760 C   0  0  0  0  0  3  0  0  0  0  0  0
  -16.7170  -28.5720   23.0970 C   0  0  0  0  0  3  0  0  0  0  0  0
  -25.8770  -32.4940   23.8150 C   0  0  0  0  0  3  0  0  0  0  0  0
  -26.4150  -31.7060   25.0730 C   0  0  1  0  0  0  0  0  0  0  0  0
  -25.3370  -31.4460   26.1490 C   0  0  0  0  0  1  0  0  0  0  0  0
  -27.0010  -30.3400   24.6460 C   0  0  0  0  0  1  0  0  0  0  0  0
  -27.5700  -32.4950   25.7330 C   0  0  0  0  0  1  0  0  0  0  0  0
  -25.5720  -33.8880   24.1640 N   0  0  0  0  0  0  0  0  0  0  0  0
  -25.8980  -34.9460   23.4090 C   0  0  0  0  0  0  0  0  0  0  0  0
  -26.5590  -34.8520   22.3720 O   0  0  0  0  0  0  0  0  0  0  0  0
  -24.9870  -34.0350   24.9730 H   0  0  0  0  0  0  0  0  0  0  0  0
  -24.1670  -36.7390   23.0820 C   0  0  0  0  0  1  0  0  0  0  0  0
  -25.4130  -36.3300   23.8830 C   0  0  0  0  0  3  0  0  0  0  0  0
  -27.5540  -37.2060   24.7060 C   0  0  0  0  0  1  0  0  0  0  0  0
  -26.4450  -37.3840   23.7720 N   0  0  0  0  0  0  0  0  0  0  0  0
  -26.0420  -38.3030   23.9310 H   0  0  0  0  0  0  0  0  0  0  0  0
  -30.9400  -19.6890   20.2480 C   0  0  0  0  0  3  0  0  0  0  0  0
  -30.9170  -18.8620   17.9550 C   0  0  0  0  0  3  0  0  0  0  0  0
  -31.4260  -21.1960   18.3910 C   0  0  0  0  0  3  0  0  0  0  0  0
  -30.8030  -18.6260   19.3400 C   0  0  0  0  0  0  0  0  0  0  0  0
  -31.2440  -20.9800   19.7760 C   0  0  0  0  0  0  0  0  0  0  0  0
  -31.2390  -20.1410   17.4650 C   0  0  0  0  0  0  0  0  0  0  0  0
  -30.7090  -14.3810   20.4650 C   0  0  0  0  0  0  0  0  0  0  0  0
  -30.3530  -12.2430   19.3350 C   0  0  0  0  0  2  0  0  0  0  0  0
  -29.4250  -12.4870   18.1290 C   0  0  0  0  0  2  0  0  0  0  0  0
  -27.9490  -12.3720   18.5540 C   0  0  0  0  0  2  0  0  0  0  0  0
  -27.6170  -13.2080   19.8190 C   0  0  0  0  0  3  0  0  0  0  0  0
  -28.6680  -12.9830   20.9310 C   0  0  0  0  0  2  0  0  0  0  0  0
  -29.9960  -13.2350   20.3560 N   0  0  0  0  0  0  0  0  0  0  0  0
  -31.8830  -14.4760   20.1010 O   0  0  0  0  0  0  0  0  0  0  0  0
  -30.6440  -16.7210   21.2750 C   0  0  0  0  0  2  0  0  0  0  0  0
  -29.4460  -16.3240   19.6720 C   0  0  0  0  0  2  0  0  0  0  0  0
  -30.6820  -17.1990   19.8220 C   0  0  0  0  0  3  0  0  0  0  0  0
  -29.9970  -15.4900   20.7670 N   0  0  0  0  0  0  0  0  0  0  0  0
  -25.2190  -13.8300   20.5150 C   0  0  0  0  0  0  0  0  0  0  0  0
  -24.1470  -13.0640   20.8810 C   0  0  0  0  0  0  0  0  0  0  0  0
  -24.6050  -11.7100   20.8630 C   0  0  0  0  0  0  0  0  0  0  0  0
  -26.2630  -12.9440   20.2960 N   0  0  0  0  0  0  0  0  0  0  0  0
  -25.8970  -11.6650   20.5630 N   0  0  0  0  0  0  0  0  0  0  0  0
  -23.8750  -10.4520   21.0570 C   0  0  0  0  0  0  0  0  0  0  0  0
  -24.3130   -9.4820   21.9850 C   0  0  0  0  0  3  0  0  0  0  0  0
  -23.5860   -8.2850   22.1680 C   0  0  0  0  0  3  0  0  0  0  0  0
  -22.4050   -8.0520   21.4220 C   0  0  0  0  0  0  0  0  0  0  0  0
  -21.9880   -9.0110   20.4820 C   0  0  0  0  0  3  0  0  0  0  0  0
  -22.7160  -10.1980   20.2990 C   0  0  0  0  0  3  0  0  0  0  0  0
  -21.6490   -6.9100   21.5150 O   0  0  0  0  0  0  0  0  0  0  0  0
  -21.6210   -6.1550   22.6590 C   0  0  0  0  0  0  0  0  0  0  0  0
  -21.2340   -6.7010   23.9030 C   0  0  0  0  0  3  0  0  0  0  0  0
  -21.1520   -5.8750   25.0410 C   0  0  0  0  0  3  0  0  0  0  0  0
  -21.4460   -4.5020   24.9360 C   0  0  0  0  0  0  0  0  0  0  0  0
  -21.8290   -3.9550   23.6980 C   0  0  0  0  0  3  0  0  0  0  0  0
  -21.9120   -4.7790   22.5630 C   0  0  0  0  0  0  0  0  0  0  0  0
  -22.2590   -4.2430   21.3680 F   0  0  0  0  0  0  0  0  0  0  0  0
  -21.3600   -3.7060   26.0270 F   0  0  0  0  0  0  0  0  0  0  0  0
  -22.7490  -13.5450   21.1430 C   0  0  0  0  0  0  0  0  0  0  0  0
  -22.0170  -12.8530   22.0100 N   0  0  0  0  0  0  0  0  0  0  0  0
  -22.3140  -14.5670   20.6170 O   0  0  0  0  0  0  0  0  0  0  0  0
  -22.3830  -12.0250   22.4560 H   0  0  0  0  0  0  0  0  0  0  0  0
  -21.0800  -13.1560   22.2290 H   0  0  0  0  0  0  0  0  0  0  0  0
  -25.3910  -15.1990   20.3280 N   0  0  0  0  0  0  0  0  0  0  0  0
  -24.6330  -15.8640   20.4340 H   0  0  0  0  0  0  0  0  0  0  0  0
  -26.2570  -15.6320   20.0350 H   0  0  0  0  0  0  0  0  0  0  0  0
  -31.7870  -21.5320   15.5850 C   0  0  0  0  0  1  0  0  0  0  0  0
  -31.3790  -20.2700   16.1010 O   0  0  0  0  0  0  0  0  0  0  0  0
  2  1  1  0
  3  7  1  0
  5  3  1  0
  5  8  1  0
  6  4  1  0
  7  2  1  0
  7  4  1  0
  8  9  1  0
  8  6  1  0
  9 11  1  0
 10 21  2  0
 11 16  1  0
 12 20  1  0
 12 22  1  0
 13 19  1  0
 13 15  1  0
 14 20  1  0
 15 14  1  0
 16 15  2  0
 17 18  1  0
 17 11  2  0
 18 13  2  0
 19 12  1  0
 20 10  1  0
 22 24  2  0
 23 22  1  0
 25 23  1  0
 26 35  2  0
 26 31  1  0
 27 23  1  0
 27 31  1  0
 28 27  1  0
 29 30  1  0
 29 28  1  0
 30 26  1  0
 31 32  2  0
 32 33  1  0
 34 33  2  0
 35 34  1  0
 36 10  1  0
 36 41  1  0
 36 37  1  0
 37 40  1  1
 37 38  1  0
 39 37  1  0
 41 44  1  0
 42 46  1  0
 42 41  1  0
 43 42  2  0
 46 45  1  0
 48 46  1  0
 48 49  1  0
 48 47  1  0
 51 53  1  0
 52 54  2  0
 53 50  2  0
 54 50  1  0
 54  2  1  0
 55 51  2  0
 55 52  1  0
 56 67  1  0
 57 62  1  0
 58 59  1  0
 58 57  1  0
 60 59  1  0
 60 71  1  0
 60 61  1  0
 62 56  1  0
 62 61  1  0
 63 56  2  0
 65 66  1  0
 65 67  1  0
 66 53  1  0
 66 64  1  0
 67 64  1  0
 68 69  2  0
 69 88  1  0
 70 69  1  0
 70 73  1  0
 71 68  1  0
 71 72  1  0
 72 70  2  0
 73 74  1  0
 74 75  2  0
 76 79  1  0
 76 75  1  0
 77 76  2  0
 78 77  1  0
 78 73  2  0
 79 80  1  0
 80 81  1  0
 81 82  2  0
 83 82  1  0
 83 87  1  0
 84 83  2  0
 85 80  2  0
 85 84  1  0
 86 85  1  0
 88 89  1  0
 89 92  1  0
 89 91  1  0
 90 88  2  0
 93 94  1  0
 93 68  1  0
 95 93  1  0
 96 97  1  0
 97 55  1  0
M  ISO  4   8 101   9 101  56 100  67 100
M  END
>  <TORSDO>  (69) 
F 19

>  <SCORE>  (69) 
-14.221

>  <name>  (69) 
68

>  <ligand_id>  (69) 
68

>  <original_smiles>  (69) 
[H]c1c([H])c([H])c2c(c1[H])C([H])([H])C([H])([H])C([H])([H])C2([H])N([H])C(=O)C1([H])N(C(=O)C([H])(N([H])C(=O)C([H])(N([H])C([H])([H])[H])C([H])([H])[H])C(C([H])([H])[H])(C([H])([H])[H])C([H])([H])[H])C([H])([H])c2c([H])c(OC3([H])C([H])([H])C([H])([H])C([H])(C([H])(c4c([H])c(OC([H])([H])[H])c([H])c(C5([H])C([H])([H])N(C(=O)N6C([H])([H])C([H])([H])C([H])([H])C([H])(n7nc(-c8c([H])c([H])c(Oc9c([H])c([H])c(F)c([H])c9F)c([H])c8[H])c(C(=O)N([H])[H])c7N([H])[H])C6([H])[H])C5([H])[H])c4[H])C([H])([H])[H])C([H])([H])C3([H])[H])c([H])c([H])c2C1([H])[H]

>  <smiles>  (69) 
[H]c1c([H])c([H])c2c(c1[H])C([H])([H])C([H])([H])C([H])([H])C2([H])N([H])C(=O)C1([H])N(C(=O)C([H])(N([H])C(=O)C([H])(N([H])C([H])([H])[H])C([H])([H])[H])C(C([H])([H])[H])(C([H])([H])[H])C([H])([H])[H])C([H])([H])c2c([H])c(OC3([H])C([H])([H])C([H])([H])C([H])(C([H])(c4c([H])c(OC([H])([H])[H])c([H])c(C5([H])C([H])([H])N(C(=O)N6C([H])([H])C([H])([H])C([H])([H])C([H])(n7nc(-c8c([H])c([H])c(Oc9c([H])c([H])c(F)c([H])c9F)c([H])c8[H])c(C(=O)N([H])[H])c7N([H])[H])C6([H])[H])C5([H])[H])c4[H])C([H])([H])[H])C([H])([H])C3([H])[H])c([H])c([H])c2C1([H])[H]

$$$$
69:0:0
     RDKit          3D

 96105  0  0  1  0  0  0  0  0999 V2000
  -29.9980  -18.7470   21.0850 C   0  0  0  0  0  3  0  0  0  0  0  0
  -29.2880  -17.8190   18.9840 C   0  0  0  0  0  3  0  0  0  0  0  0
  -29.6860  -20.0560   20.5480 C   0  0  0  0  0  0  0  0  0  0  0  0
  -29.7980  -17.5510   20.2880 C   0  0  0  0  0  0  0  0  0  0  0  0
  -29.1410  -20.1570   19.2920 C   0  0  0  0  0  0  0  0  0  0  0  0
  -29.7980  -21.4950   21.1270 C   0  0  0  0  0  3  0  0  0  0  0  0
  -28.7550  -21.6320   18.9340 C   0  0  1  0  0  0  0  0  0  0  0  0
  -29.3620  -21.5060   22.6030 C   0  0  0  0  0  1  0  0  0  0  0  0
  -27.2520  -21.6950   18.5940 C   0  0  0  0  0  1  0  0  0  0  0  0
  -28.9480  -19.0590   18.5090 N   0  0  0  0  0  0  0  0  0  0  0  0
  -28.9800  -22.4360   20.2190 N   0  0  2  0  0  4  0  0  0  0  0  0
  -28.0700  -22.3990   20.6550 H   0  0  0  0  0  0  0  0  0  0  0  0
  -30.6630  -15.0470   20.4050 C   0  0  0  0  0  0  0  0  0  0  0  0
  -30.5750  -12.6870   19.5570 C   0  0  0  0  0  2  0  0  0  0  0  0
  -29.6620  -12.6490   18.3110 C   0  0  0  0  0  2  0  0  0  0  0  0
  -28.1850  -12.4650   18.7100 C   0  0  0  0  0  2  0  0  0  0  0  0
  -27.7640  -13.4070   19.8690 C   0  0  0  0  0  3  0  0  0  0  0  0
  -28.7980  -13.4150   21.0160 C   0  0  0  0  0  2  0  0  0  0  0  0
  -30.1000  -13.7840   20.4390 N   0  0  0  0  0  0  0  0  0  0  0  0
  -31.8080  -15.1890   19.9690 O   0  0  0  0  0  0  0  0  0  0  0  0
  -29.8970  -16.1430   20.7990 N   0  0  0  0  0  0  0  0  0  0  0  0
  -29.1080  -15.8660   21.3660 H   0  0  0  0  0  0  0  0  0  0  0  0
  -25.3690  -13.9890   20.5830 C   0  0  0  0  0  0  0  0  0  0  0  0
  -24.3020  -13.2140   20.9440 C   0  0  0  0  0  0  0  0  0  0  0  0
  -24.7660  -11.8630   20.9120 C   0  0  0  0  0  0  0  0  0  0  0  0
  -26.4150  -13.1120   20.3470 N   0  0  0  0  0  0  0  0  0  0  0  0
  -26.0580  -11.8280   20.6090 N   0  0  0  0  0  0  0  0  0  0  0  0
  -24.0380  -10.6000   21.0990 C   0  0  0  0  0  0  0  0  0  0  0  0
  -24.4530   -9.6430   22.0500 C   0  0  0  0  0  3  0  0  0  0  0  0
  -23.7250   -8.4460   22.2240 C   0  0  0  0  0  3  0  0  0  0  0  0
  -22.5680   -8.2000   21.4470 C   0  0  0  0  0  0  0  0  0  0  0  0
  -22.1720   -9.1460   20.4870 C   0  0  0  0  0  3  0  0  0  0  0  0
  -22.9020  -10.3330   20.3110 C   0  0  0  0  0  3  0  0  0  0  0  0
  -21.8150   -7.0520   21.5290 O   0  0  0  0  0  0  0  0  0  0  0  0
  -21.7320   -6.3250   22.6890 C   0  0  0  0  0  0  0  0  0  0  0  0
  -21.1850   -6.8690   23.8720 C   0  0  0  0  0  3  0  0  0  0  0  0
  -21.0550   -6.0660   25.0230 C   0  0  0  0  0  3  0  0  0  0  0  0
  -21.4630   -4.7190   24.9910 C   0  0  0  0  0  0  0  0  0  0  0  0
  -22.0060   -4.1740   23.8150 C   0  0  0  0  0  3  0  0  0  0  0  0
  -22.1360   -4.9750   22.6650 C   0  0  0  0  0  0  0  0  0  0  0  0
  -22.6400   -4.4400   21.5270 F   0  0  0  0  0  0  0  0  0  0  0  0
  -21.3310   -3.9440   26.0930 F   0  0  0  0  0  0  0  0  0  0  0  0
  -22.9040  -13.6910   21.2110 C   0  0  0  0  0  0  0  0  0  0  0  0
  -22.1720  -12.9960   22.0750 N   0  0  0  0  0  0  0  0  0  0  0  0
  -22.4710  -14.7170   20.6880 O   0  0  0  0  0  0  0  0  0  0  0  0
  -22.5330  -12.1680   22.5230 H   0  0  0  0  0  0  0  0  0  0  0  0
  -21.2340  -13.3030   22.2940 H   0  0  0  0  0  0  0  0  0  0  0  0
  -25.5330  -15.3610   20.4200 N   0  0  0  0  0  0  0  0  0  0  0  0
  -24.7700  -16.0150   20.5470 H   0  0  0  0  0  0  0  0  0  0  0  0
  -26.3940  -15.8110   20.1340 H   0  0  0  0  0  0  0  0  0  0  0  0
  -29.4840  -21.4640   16.3930 C   0  0  0  0  0  1  0  0  0  0  0  0
  -29.6220  -22.1740   17.7560 C   0  0  0  0  0  2  0  0  0  0  0  0
  -29.8570  -24.5230   21.5060 C   0  0  0  0  0  1  0  0  0  0  0  0
  -29.3400  -23.9790   20.1550 C   0  0  0  0  0  3  0  0  0  0  0  0
  -28.2310  -25.0830   19.6850 C   0  0  0  0  0  2  0  0  0  0  0  0
  -28.4470  -26.5670   19.9400 O   0  0  0  0  0  0  0  0  0  0  0  0
  -24.6480  -31.8510   23.1940 C   0  0  0  0  0  0  0  0  0  0  0  0
  -27.3440  -27.4590   19.9100 C   0  0  0  0  0  0  0  0  0  0  0  0
  -23.4820  -30.5220   21.4730 C   0  0  0  0  0  3  0  0  0  0  0  0
  -24.9680  -29.0830   19.9640 C   0  0  0  0  0  0  0  0  0  0  0  0
  -26.0210  -30.8840   21.3270 C   0  0  0  0  0  2  0  0  0  0  0  0
  -26.1290  -29.5400   20.6030 C   0  0  0  0  0  0  0  0  0  0  0  0
  -27.3190  -28.7420   20.5650 C   0  0  0  0  0  3  0  0  0  0  0  0
  -26.1610  -27.0800   19.2400 C   0  0  0  0  0  3  0  0  0  0  0  0
  -24.9910  -27.8630   19.2730 C   0  0  0  0  0  3  0  0  0  0  0  0
  -23.7170  -29.9370   20.0570 C   0  0  0  0  0  2  0  0  0  0  0  0
  -24.7360  -31.1020   22.0550 N   0  0  0  0  0  0  0  0  0  0  0  0
  -23.5540  -32.0760   23.7350 O   0  0  0  0  0  0  0  0  0  0  0  0
  -22.8360  -29.4380   22.3700 C   0  0  0  0  0  0  0  0  0  0  0  0
  -21.5090  -29.2570   22.2440 N   0  0  0  0  0  0  0  0  0  0  0  0
  -23.5250  -28.7670   23.1420 O   0  0  0  0  0  0  0  0  0  0  0  0
  -21.0080  -29.8520   21.5990 H   0  0  0  0  0  0  0  0  0  0  0  0
  -18.1400  -28.0330   22.7370 C   0  0  0  0  0  0  0  0  0  0  0  0
  -20.7060  -28.2650   22.9610 C   0  0  0  0  0  3  0  0  0  0  0  0
  -20.7870  -26.8810   22.2750 C   0  0  0  0  0  2  0  0  0  0  0  0
  -19.6590  -26.6410   21.2680 C   0  0  0  0  0  2  0  0  0  0  0  0
  -18.2930  -26.7410   21.9540 C   0  0  0  0  0  2  0  0  0  0  0  0
  -19.2720  -28.7570   23.1970 C   0  0  0  0  0  0  0  0  0  0  0  0
  -19.0720  -29.9700   23.8910 C   0  0  0  0  0  3  0  0  0  0  0  0
  -17.7740  -30.4590   24.1290 C   0  0  0  0  0  3  0  0  0  0  0  0
  -16.6570  -29.7300   23.6840 C   0  0  0  0  0  3  0  0  0  0  0  0
  -16.8400  -28.5180   22.9950 C   0  0  0  0  0  3  0  0  0  0  0  0
  -25.9110  -32.4780   23.8580 C   0  0  0  0  0  3  0  0  0  0  0  0
  -26.3820  -31.7000   25.1480 C   0  0  1  0  0  0  0  0  0  0  0  0
  -25.2560  -31.4680   26.1810 C   0  0  0  0  0  1  0  0  0  0  0  0
  -26.9720  -30.3210   24.7740 C   0  0  0  0  0  1  0  0  0  0  0  0
  -27.5130  -32.4890   25.8510 C   0  0  0  0  0  1  0  0  0  0  0  0
  -25.5940  -33.8750   24.1870 N   0  0  0  0  0  0  0  0  0  0  0  0
  -25.9010  -34.9280   23.4190 C   0  0  0  0  0  0  0  0  0  0  0  0
  -26.5510  -34.8270   22.3740 O   0  0  0  0  0  0  0  0  0  0  0  0
  -25.0140  -34.0270   25.0000 H   0  0  0  0  0  0  0  0  0  0  0  0
  -24.1360  -36.6950   23.1120 C   0  0  0  0  0  1  0  0  0  0  0  0
  -25.4110  -36.3150   23.8810 C   0  0  0  0  0  3  0  0  0  0  0  0
  -27.5520  -37.2500   24.6390 C   0  0  0  0  0  1  0  0  0  0  0  0
  -26.4240  -37.3800   23.7210 N   0  0  0  0  0  0  0  0  0  0  0  0
  -26.0070  -38.2960   23.8600 H   0  0  0  0  0  0  0  0  0  0  0  0
  2  4  1  0
  3  1  1  0
  3  6  1  0
  4 21  1  0
  4  1  2  0
  5  3  2  0
  6  8  1  0
  7  9  1  6
  7  5  1  0
  7 11  1  0
 10  2  2  0
 10  5  1  0
 11 12  1  1
 11  6  1  0
 13 19  1  0
 13 21  1  0
 14 19  1  0
 15 16  1  0
 15 14  1  0
 17 16  1  0
 17 26  1  0
 17 18  1  0
 19 18  1  0
 20 13  2  0
 21 22  1  0
 23 24  2  0
 24 43  1  0
 25 24  1  0
 25 28  1  0
 26 23  1  0
 26 27  1  0
 27 25  2  0
 28 29  1  0
 29 30  2  0
 31 34  1  0
 31 30  1  0
 32 31  2  0
 33 32  1  0
 33 28  2  0
 34 35  1  0
 35 36  1  0
 36 37  2  0
 38 37  1  0
 38 42  1  0
 39 38  2  0
 40 35  2  0
 40 39  1  0
 41 40  1  0
 43 44  1  0
 44 47  1  0
 44 46  1  0
 45 43  2  0
 48 49  1  0
 48 23  1  0
 50 48  1  0
 51 52  1  0
 52  7  1  0
 54 11  1  0
 54 53  1  0
 55 56  1  0
 55 54  1  0
 57 68  2  0
 58 56  1  0
 58 63  1  0
 59 67  1  0
 59 69  1  0
 60 66  1  0
 60 62  1  0
 61 67  1  0
 62 61  1  0
 63 62  2  0
 64 65  1  0
 64 58  2  0
 65 60  2  0
 66 59  1  0
 67 57  1  0
 69 71  2  0
 70 69  1  0
 72 70  1  0
 73 82  2  0
 73 78  1  0
 74 70  1  0
 74 78  1  0
 75 74  1  0
 76 77  1  0
 76 75  1  0
 77 73  1  0
 78 79  2  0
 79 80  1  0
 81 80  2  0
 82 81  1  0
 83 57  1  0
 83 88  1  0
 83 84  1  0
 84 87  1  1
 84 85  1  0
 86 84  1  0
 88 91  1  0
 89 93  1  0
 89 88  1  0
 90 89  2  0
 93 92  1  0
 95 96  1  0
 95 93  1  0
 95 94  1  0
M  ISO  4  13 100  21 100  55 101  56 101
M  END
>  <TORSDO>  (70) 
F 19

>  <SCORE>  (70) 
-14.364

>  <name>  (70) 
69

>  <ligand_id>  (70) 
69

>  <original_smiles>  (70) 
[H]c1nc2c(c([H])c1N([H])C(=O)N1C([H])([H])C([H])([H])C([H])([H])C([H])(n3nc(-c4c([H])c([H])c(Oc5c([H])c([H])c(F)c([H])c5F)c([H])c4[H])c(C(=O)N([H])[H])c3N([H])[H])C1([H])[H])C([H])(C([H])([H])[H])[N+]([H])(C([H])(C([H])([H])[H])C([H])([H])Oc1c([H])c([H])c3c(c1[H])C([H])([H])N(C(=O)C([H])(N([H])C(=O)C([H])(N([H])C([H])([H])[H])C([H])([H])[H])C(C([H])([H])[H])(C([H])([H])[H])C([H])([H])[H])C([H])(C(=O)N([H])C1([H])c4c([H])c([H])c([H])c([H])c4C([H])([H])C([H])([H])C1([H])[H])C3([H])[H])C2(C([H])([H])[H])C([H])([H])C([H])([H])[H]

>  <smiles>  (70) 
[H]c1nc2c(c([H])c1N([H])C(=O)N1C([H])([H])C([H])([H])C([H])([H])C([H])(n3nc(-c4c([H])c([H])c(Oc5c([H])c([H])c(F)c([H])c5F)c([H])c4[H])c(C(=O)N([H])[H])c3N([H])[H])C1([H])[H])C([H])(C([H])([H])[H])[N+]([H])(C([H])(C([H])([H])[H])C([H])([H])Oc1c([H])c([H])c3c(c1[H])C([H])([H])N(C(=O)C([H])(N([H])C(=O)C([H])(N([H])C([H])([H])[H])C([H])([H])[H])C(C([H])([H])[H])(C([H])([H])[H])C([H])([H])[H])C([H])(C(=O)N([H])C1([H])c4c([H])c([H])c([H])c([H])c4C([H])([H])C([H])([H])C1([H])[H])C3([H])[H])C2(C([H])([H])[H])C([H])([H])C([H])([H])[H]

$$$$
70:0:0
     RDKit          3D

 95104  0  0  1  0  0  0  0  0999 V2000
  -30.2280  -23.8180   18.5050 C   0  0  0  0  0  3  0  0  0  0  0  0
  -30.4380  -21.0770   18.0930 C   0  0  0  0  0  3  0  0  0  0  0  0
  -30.8640  -23.3490   17.3450 C   0  0  0  0  0  0  0  0  0  0  0  0
  -29.6670  -22.9490   19.4710 C   0  0  0  0  0  0  0  0  0  0  0  0
  -30.9440  -21.9640   17.1240 C   0  0  0  0  0  0  0  0  0  0  0  0
  -29.8070  -21.5010   19.2980 C   0  0  0  0  0  0  0  0  0  0  0  0
  -31.4490  -24.3390   16.3520 C   0  0  0  0  0  1  0  0  0  0  0  0
  -31.5830  -21.4100   15.8600 C   0  0  0  0  0  1  0  0  0  0  0  0
  -29.9580  -24.0880   21.7380 C   0  0  0  0  0  1  0  0  0  0  0  0
  -28.9600  -23.7040   20.6380 C   0  0  0  0  0  3  0  0  0  0  0  0
  -28.0020  -24.9350   20.2420 C   0  0  0  0  0  2  0  0  0  0  0  0
  -28.3510  -26.3880   20.2680 O   0  0  0  0  0  0  0  0  0  0  0  0
  -24.5920  -31.8420   23.1980 C   0  0  0  0  0  0  0  0  0  0  0  0
  -27.2610  -27.2810   20.1770 C   0  0  0  0  0  0  0  0  0  0  0  0
  -23.4230  -30.4460   21.5340 C   0  0  0  0  0  3  0  0  0  0  0  0
  -24.9010  -28.9110   20.1270 C   0  0  0  0  0  0  0  0  0  0  0  0
  -25.9670  -30.7650   21.4000 C   0  0  0  0  0  2  0  0  0  0  0  0
  -26.0620  -29.3900   20.7480 C   0  0  0  0  0  0  0  0  0  0  0  0
  -27.2460  -28.5880   20.7640 C   0  0  0  0  0  3  0  0  0  0  0  0
  -26.0750  -26.8740   19.5170 C   0  0  0  0  0  3  0  0  0  0  0  0
  -24.9120  -27.6590   19.5020 C   0  0  0  0  0  3  0  0  0  0  0  0
  -23.6630  -29.7820   20.1550 C   0  0  0  0  0  2  0  0  0  0  0  0
  -24.6790  -31.0350   22.1000 N   0  0  0  0  0  0  0  0  0  0  0  0
  -23.4980  -32.1160   23.7110 O   0  0  0  0  0  0  0  0  0  0  0  0
  -22.7450  -29.4230   22.4770 C   0  0  0  0  0  0  0  0  0  0  0  0
  -21.4190  -29.2580   22.3400 N   0  0  0  0  0  0  0  0  0  0  0  0
  -23.4130  -28.7830   23.2940 O   0  0  0  0  0  0  0  0  0  0  0  0
  -20.9390  -29.8270   21.6560 H   0  0  0  0  0  0  0  0  0  0  0  0
  -18.0190  -28.1230   22.8450 C   0  0  0  0  0  0  0  0  0  0  0  0
  -20.5860  -28.3220   23.0980 C   0  0  0  0  0  3  0  0  0  0  0  0
  -20.6510  -26.9010   22.4900 C   0  0  0  0  0  2  0  0  0  0  0  0
  -19.5330  -26.6260   21.4780 C   0  0  0  0  0  2  0  0  0  0  0  0
  -18.1610  -26.7870   22.1380 C   0  0  0  0  0  2  0  0  0  0  0  0
  -19.1580  -28.8520   23.2820 C   0  0  0  0  0  0  0  0  0  0  0  0
  -18.9710  -30.1050   23.9040 C   0  0  0  0  0  3  0  0  0  0  0  0
  -17.6790  -30.6310   24.0930 C   0  0  0  0  0  3  0  0  0  0  0  0
  -16.5550  -29.8980   23.6710 C   0  0  0  0  0  3  0  0  0  0  0  0
  -16.7260  -28.6470   23.0540 C   0  0  0  0  0  3  0  0  0  0  0  0
  -25.8620  -32.4760   23.8440 C   0  0  0  0  0  3  0  0  0  0  0  0
  -26.3550  -31.7050   25.1300 C   0  0  1  0  0  0  0  0  0  0  0  0
  -25.2420  -31.4650   26.1770 C   0  0  0  0  0  1  0  0  0  0  0  0
  -26.9490  -30.3280   24.7510 C   0  0  0  0  0  1  0  0  0  0  0  0
  -27.4910  -32.5020   25.8140 C   0  0  0  0  0  1  0  0  0  0  0  0
  -25.5430  -33.8740   24.1710 N   0  0  0  0  0  0  0  0  0  0  0  0
  -25.8790  -34.9280   23.4150 C   0  0  0  0  0  0  0  0  0  0  0  0
  -26.5590  -34.8270   22.3900 O   0  0  0  0  0  0  0  0  0  0  0  0
  -24.9370  -34.0250   24.9630 H   0  0  0  0  0  0  0  0  0  0  0  0
  -24.1480  -36.7170   23.0420 C   0  0  0  0  0  1  0  0  0  0  0  0
  -25.3800  -36.3140   23.8680 C   0  0  0  0  0  3  0  0  0  0  0  0
  -27.4990  -37.2090   24.7290 C   0  0  0  0  0  1  0  0  0  0  0  0
  -26.4110  -37.3700   23.7680 N   0  0  0  0  0  0  0  0  0  0  0  0
  -26.0000  -38.2900   23.9070 H   0  0  0  0  0  0  0  0  0  0  0  0
  -29.3770  -20.5120   20.2200 O   0  0  0  0  0  0  0  0  0  0  0  0
  -30.7870  -14.6760   20.0480 C   0  0  0  0  0  0  0  0  0  0  0  0
  -30.3490  -12.4730   18.9780 C   0  0  0  0  0  2  0  0  0  0  0  0
  -29.3600  -12.5790   17.8030 C   0  0  0  0  0  2  0  0  0  0  0  0
  -27.9200  -12.4040   18.3160 C   0  0  0  0  0  2  0  0  0  0  0  0
  -27.6190  -13.2790   19.5630 C   0  0  0  0  0  3  0  0  0  0  0  0
  -28.7440  -13.1900   20.6200 C   0  0  0  0  0  2  0  0  0  0  0  0
  -29.9950  -13.5490   19.9410 N   0  0  0  0  0  0  0  0  0  0  0  0
  -31.9720  -14.5480   19.7370 O   0  0  0  0  0  0  0  0  0  0  0  0
  -30.9990  -18.5620   20.1360 C   0  0  0  0  0  2  0  0  0  0  0  0
  -28.7710  -18.0520   20.8270 C   0  0  0  0  0  2  0  0  0  0  0  0
  -31.2430  -17.0830   19.7000 C   0  0  0  0  0  2  0  0  0  0  0  0
  -28.9360  -16.5150   20.4560 C   0  0  0  0  0  2  0  0  0  0  0  0
  -29.5560  -19.0550   19.9370 C   0  0  0  0  0  3  0  0  0  0  0  0
  -30.3050  -15.9950   20.1520 N   0  0  0  0  0  0  0  0  0  0  0  0
  -25.2720  -13.8640   20.4080 C   0  0  0  0  0  0  0  0  0  0  0  0
  -24.2230  -13.0860   20.8130 C   0  0  0  0  0  0  0  0  0  0  0  0
  -24.6850  -11.7360   20.7530 C   0  0  0  0  0  0  0  0  0  0  0  0
  -26.3060  -12.9880   20.1210 N   0  0  0  0  0  0  0  0  0  0  0  0
  -25.9620  -11.7020   20.3920 N   0  0  0  0  0  0  0  0  0  0  0  0
  -23.9670  -10.4720   20.9610 C   0  0  0  0  0  0  0  0  0  0  0  0
  -24.4150   -9.5130   21.8960 C   0  0  0  0  0  3  0  0  0  0  0  0
  -23.6970   -8.3140   22.0910 C   0  0  0  0  0  3  0  0  0  0  0  0
  -22.5160   -8.0640   21.3530 C   0  0  0  0  0  0  0  0  0  0  0  0
  -22.0870   -9.0120   20.4070 C   0  0  0  0  0  3  0  0  0  0  0  0
  -22.8050  -10.2030   20.2090 C   0  0  0  0  0  3  0  0  0  0  0  0
  -21.7670   -6.9170   21.4590 O   0  0  0  0  0  0  0  0  0  0  0  0
  -21.7130   -6.1990   22.6270 C   0  0  0  0  0  0  0  0  0  0  0  0
  -21.2480   -6.7700   23.8330 C   0  0  0  0  0  3  0  0  0  0  0  0
  -21.1420   -5.9770   24.9920 C   0  0  0  0  0  3  0  0  0  0  0  0
  -21.4920   -4.6130   24.9490 C   0  0  0  0  0  0  0  0  0  0  0  0
  -21.9500   -4.0420   23.7480 C   0  0  0  0  0  3  0  0  0  0  0  0
  -22.0580   -4.8330   22.5910 C   0  0  0  0  0  0  0  0  0  0  0  0
  -22.4790   -4.2710   21.4320 F   0  0  0  0  0  0  0  0  0  0  0  0
  -21.3830   -3.8500   26.0610 F   0  0  0  0  0  0  0  0  0  0  0  0
  -22.8380  -13.5620   21.1430 C   0  0  0  0  0  0  0  0  0  0  0  0
  -22.1440  -12.8600   22.0320 N   0  0  0  0  0  0  0  0  0  0  0  0
  -22.3810  -14.5910   20.6480 O   0  0  0  0  0  0  0  0  0  0  0  0
  -22.5260  -12.0260   22.4560 H   0  0  0  0  0  0  0  0  0  0  0  0
  -21.2160  -13.1600   22.2940 H   0  0  0  0  0  0  0  0  0  0  0  0
  -25.4280  -15.2370   20.2340 N   0  0  0  0  0  0  0  0  0  0  0  0
  -24.6660  -15.8900   20.3870 H   0  0  0  0  0  0  0  0  0  0  0  0
  -26.2650  -15.6800   19.8810 H   0  0  0  0  0  0  0  0  0  0  0  0
  1  4  1  0
  2  6  1  0
  3  1  2  0
  4 10  1  0
  5  3  1  0
  5  2  2  0
  6  4  2  0
  6 53  1  0
  7  3  1  0
  8  5  1  0
 10  9  1  0
 11 12  1  0
 11 10  1  0
 13 24  2  0
 14 12  1  0
 14 19  1  0
 15 23  1  0
 15 25  1  0
 16 22  1  0
 16 18  1  0
 17 23  1  0
 18 19  2  0
 18 17  1  0
 20 14  2  0
 21 20  1  0
 21 16  2  0
 22 15  1  0
 23 13  1  0
 25 27  2  0
 26 25  1  0
 28 26  1  0
 29 38  2  0
 29 34  1  0
 30 26  1  0
 30 34  1  0
 31 30  1  0
 32 33  1  0
 32 31  1  0
 33 29  1  0
 34 35  2  0
 35 36  1  0
 37 36  2  0
 38 37  1  0
 39 13  1  0
 39 44  1  0
 39 40  1  0
 40 43  1  1
 40 41  1  0
 42 40  1  0
 44 47  1  0
 45 49  1  0
 45 44  1  0
 46 45  2  0
 49 48  1  0
 51 49  1  0
 51 52  1  0
 51 50  1  0
 54 67  1  0
 55 60  1  0
 56 57  1  0
 56 55  1  0
 58 57  1  0
 58 71  1  0
 58 59  1  0
 60 54  1  0
 60 59  1  0
 61 54  2  0
 64 62  1  0
 64 67  1  0
 65 63  1  0
 66 62  1  0
 66 53  1  0
 66 63  1  0
 67 65  1  0
 68 69  2  0
 69 88  1  0
 70 69  1  0
 70 73  1  0
 71 72  1  0
 71 68  1  0
 72 70  2  0
 73 74  1  0
 74 75  2  0
 76 79  1  0
 76 75  1  0
 77 76  2  0
 78 77  1  0
 78 73  2  0
 79 80  1  0
 80 81  1  0
 81 82  2  0
 83 82  1  0
 83 87  1  0
 84 83  2  0
 85 80  2  0
 85 84  1  0
 86 85  1  0
 88 89  1  0
 89 92  1  0
 89 91  1  0
 90 88  2  0
 93 94  1  0
 93 68  1  0
 95 93  1  0
M  ISO  4  11 101  12 101  54 100  67 100
M  END
>  <TORSDO>  (71) 
F 19

>  <SCORE>  (71) 
-14.289

>  <name>  (71) 
70

>  <ligand_id>  (71) 
70

>  <original_smiles>  (71) 
[H]c1c([H])c([H])c2c(c1[H])C([H])([H])C([H])([H])C([H])([H])C2([H])N([H])C(=O)C1([H])N(C(=O)C([H])(N([H])C(=O)C([H])(N([H])C([H])([H])[H])C([H])([H])[H])C(C([H])([H])[H])(C([H])([H])[H])C([H])([H])[H])C([H])([H])c2c([H])c(OC([H])([H])C([H])(c3c([H])c(C([H])([H])[H])c(C([H])([H])[H])c([H])c3OC3([H])C([H])([H])C([H])([H])N(C(=O)N4C([H])([H])C([H])([H])C([H])([H])C([H])(n5nc(-c6c([H])c([H])c(Oc7c([H])c([H])c(F)c([H])c7F)c([H])c6[H])c(C(=O)N([H])[H])c5N([H])[H])C4([H])[H])C([H])([H])C3([H])[H])C([H])([H])[H])c([H])c([H])c2C1([H])[H]

>  <smiles>  (71) 
[H]c1c([H])c([H])c2c(c1[H])C([H])([H])C([H])([H])C([H])([H])C2([H])N([H])C(=O)C1([H])N(C(=O)C([H])(N([H])C(=O)C([H])(N([H])C([H])([H])[H])C([H])([H])[H])C(C([H])([H])[H])(C([H])([H])[H])C([H])([H])[H])C([H])([H])c2c([H])c(OC([H])([H])C([H])(c3c([H])c(C([H])([H])[H])c(C([H])([H])[H])c([H])c3OC3([H])C([H])([H])C([H])([H])N(C(=O)N4C([H])([H])C([H])([H])C([H])([H])C([H])(n5nc(-c6c([H])c([H])c(Oc7c([H])c([H])c(F)c([H])c7F)c([H])c6[H])c(C(=O)N([H])[H])c5N([H])[H])C4([H])[H])C([H])([H])C3([H])[H])C([H])([H])[H])c([H])c([H])c2C1([H])[H]

$$$$
71:0:0
     RDKit          3D

 98107  0  0  1  0  0  0  0  0999 V2000
  -30.0550  -23.4830   20.4680 C   0  0  0  0  0  3  0  0  0  0  0  0
  -28.7250  -23.9550   20.4640 C   0  0  0  0  0  0  0  0  0  0  0  0
  -30.3990  -22.1100   20.2960 C   0  0  0  0  0  0  0  0  0  0  0  0
  -27.7210  -22.9630   20.2260 C   0  0  0  0  0  0  0  0  0  0  0  0
  -28.0600  -21.5770   19.9790 C   0  0  0  0  0  0  0  0  0  0  0  0
  -29.4140  -21.1000   20.0350 C   0  0  0  0  0  0  0  0  0  0  0  0
  -31.8710  -21.7720   20.4690 C   0  0  0  0  0  1  0  0  0  0  0  0
  -26.2590  -23.4040   20.3070 C   0  0  0  0  0  1  0  0  0  0  0  0
  -26.9370  -20.5950   19.6410 C   0  0  0  0  0  1  0  0  0  0  0  0
  -29.5890  -18.5080   20.6480 C   0  0  0  0  0  2  0  0  0  0  0  0
  -30.5320  -19.3160   18.6020 C   0  0  0  0  0  2  0  0  0  0  0  0
  -30.5160  -17.3530   20.0840 C   0  0  0  0  0  3  0  0  0  0  0  0
  -30.5790  -17.7670   18.6000 C   0  0  0  0  0  3  0  0  0  0  0  0
  -29.7840  -19.7170   19.7940 N   0  0  0  0  0  0  0  0  0  0  0  0
  -30.8330  -14.7880   19.9960 C   0  0  0  0  0  0  0  0  0  0  0  0
  -30.5450  -12.5450   18.9770 C   0  0  0  0  0  2  0  0  0  0  0  0
  -29.5380  -12.6520   17.8110 C   0  0  0  0  0  2  0  0  0  0  0  0
  -28.0960  -12.4820   18.3270 C   0  0  0  0  0  2  0  0  0  0  0  0
  -27.8000  -13.3540   19.5780 C   0  0  0  0  0  3  0  0  0  0  0  0
  -28.9240  -13.2440   20.6330 C   0  0  0  0  0  2  0  0  0  0  0  0
  -30.1900  -13.5800   19.9700 N   0  0  0  0  0  0  0  0  0  0  0  0
  -31.9670  -14.9210   19.5270 O   0  0  0  0  0  0  0  0  0  0  0  0
  -30.1000  -15.9090   20.2880 N   0  0  0  0  0  0  0  0  0  0  0  0
  -29.1560  -15.7540   20.6020 H   0  0  0  0  0  0  0  0  0  0  0  0
  -25.4680  -13.9340   20.4830 C   0  0  0  0  0  0  0  0  0  0  0  0
  -24.4220  -13.1530   20.8910 C   0  0  0  0  0  0  0  0  0  0  0  0
  -24.8690  -11.8010   20.7730 C   0  0  0  0  0  0  0  0  0  0  0  0
  -26.4860  -13.0580   20.1430 N   0  0  0  0  0  0  0  0  0  0  0  0
  -26.1360  -11.7670   20.3780 N   0  0  0  0  0  0  0  0  0  0  0  0
  -24.1450  -10.5360   20.9570 C   0  0  0  0  0  0  0  0  0  0  0  0
  -24.5660   -9.5750   21.9040 C   0  0  0  0  0  3  0  0  0  0  0  0
  -23.8400   -8.3760   22.0750 C   0  0  0  0  0  3  0  0  0  0  0  0
  -22.6840   -8.1270   21.2990 C   0  0  0  0  0  0  0  0  0  0  0  0
  -22.2850   -9.0770   20.3420 C   0  0  0  0  0  3  0  0  0  0  0  0
  -23.0090  -10.2680   20.1690 C   0  0  0  0  0  3  0  0  0  0  0  0
  -21.9330   -6.9790   21.3790 O   0  0  0  0  0  0  0  0  0  0  0  0
  -21.7840   -6.2980   22.5600 C   0  0  0  0  0  0  0  0  0  0  0  0
  -21.1900   -6.8940   23.6940 C   0  0  0  0  0  3  0  0  0  0  0  0
  -20.9910   -6.1360   24.8650 C   0  0  0  0  0  3  0  0  0  0  0  0
  -21.3780   -4.7830   24.9040 C   0  0  0  0  0  0  0  0  0  0  0  0
  -21.9640   -4.1860   23.7740 C   0  0  0  0  0  3  0  0  0  0  0  0
  -22.1630   -4.9410   22.6040 C   0  0  0  0  0  0  0  0  0  0  0  0
  -22.7090   -4.3550   21.5110 F   0  0  0  0  0  0  0  0  0  0  0  0
  -21.1790   -4.0520   26.0260 F   0  0  0  0  0  0  0  0  0  0  0  0
  -23.0490  -13.6250   21.2730 C   0  0  0  0  0  0  0  0  0  0  0  0
  -22.3710  -12.8960   22.1510 N   0  0  0  0  0  0  0  0  0  0  0  0
  -22.5910  -14.6780   20.8300 O   0  0  0  0  0  0  0  0  0  0  0  0
  -22.7580  -12.0430   22.5290 H   0  0  0  0  0  0  0  0  0  0  0  0
  -21.4530  -13.1930   22.4490 H   0  0  0  0  0  0  0  0  0  0  0  0
  -25.6310  -15.3090   20.3500 N   0  0  0  0  0  0  0  0  0  0  0  0
  -24.8750  -15.9580   20.5330 H   0  0  0  0  0  0  0  0  0  0  0  0
  -26.4410  -15.7530   19.9380 H   0  0  0  0  0  0  0  0  0  0  0  0
  -31.7530  -17.2230   17.8980 N   0  0  0  0  0  4  0  0  0  0  0  0
  -32.5830  -17.7350   18.1380 H   0  0  0  0  0  0  0  0  0  0  0  0
  -31.6270  -17.2540   16.9020 H   0  0  0  0  0  0  0  0  0  0  0  0
  -31.8940  -16.2640   18.1910 H   0  0  0  0  0  0  0  0  0  0  0  0
  -28.4040  -25.4280   20.9550 C   0  0  0  0  0  2  0  0  0  0  0  0
  -28.4970  -26.5940   20.0580 O   0  0  0  0  0  0  0  0  0  0  0  0
  -24.6510  -31.8740   23.1650 C   0  0  0  0  0  0  0  0  0  0  0  0
  -27.3850  -27.4410   20.0570 C   0  0  0  0  0  0  0  0  0  0  0  0
  -23.4930  -30.4930   21.4750 C   0  0  0  0  0  3  0  0  0  0  0  0
  -24.9940  -28.9970   20.0390 C   0  0  0  0  0  0  0  0  0  0  0  0
  -26.0280  -30.8590   21.3410 C   0  0  0  0  0  2  0  0  0  0  0  0
  -26.1430  -29.4990   20.6640 C   0  0  0  0  0  0  0  0  0  0  0  0
  -27.3460  -28.7300   20.6670 C   0  0  0  0  0  3  0  0  0  0  0  0
  -26.2200  -26.9860   19.4070 C   0  0  0  0  0  3  0  0  0  0  0  0
  -25.0310  -27.7450   19.4010 C   0  0  0  0  0  3  0  0  0  0  0  0
  -23.7390  -29.8500   20.0840 C   0  0  0  0  0  2  0  0  0  0  0  0
  -24.7400  -31.0920   22.0500 N   0  0  0  0  0  0  0  0  0  0  0  0
  -23.5560  -32.1240   23.6900 O   0  0  0  0  0  0  0  0  0  0  0  0
  -22.8350  -29.4440   22.4020 C   0  0  0  0  0  0  0  0  0  0  0  0
  -21.5070  -29.2800   22.2800 N   0  0  0  0  0  0  0  0  0  0  0  0
  -23.5170  -28.7860   23.1920 O   0  0  0  0  0  0  0  0  0  0  0  0
  -21.0170  -29.8680   21.6200 H   0  0  0  0  0  0  0  0  0  0  0  0
  -18.1160  -28.1360   22.8210 C   0  0  0  0  0  0  0  0  0  0  0  0
  -20.6880  -28.3190   23.0210 C   0  0  0  0  0  3  0  0  0  0  0  0
  -20.7340  -26.9210   22.3630 C   0  0  0  0  0  2  0  0  0  0  0  0
  -19.5930  -26.6830   21.3690 C   0  0  0  0  0  2  0  0  0  0  0  0
  -18.2360  -26.8250   22.0640 C   0  0  0  0  0  2  0  0  0  0  0  0
  -19.2680  -28.8450   23.2570 C   0  0  0  0  0  0  0  0  0  0  0  0
  -19.1020  -30.0780   23.9260 C   0  0  0  0  0  3  0  0  0  0  0  0
  -17.8180  -30.6020   24.1640 C   0  0  0  0  0  3  0  0  0  0  0  0
  -16.6800  -29.8880   23.7460 C   0  0  0  0  0  3  0  0  0  0  0  0
  -16.8300  -28.6570   23.0810 C   0  0  0  0  0  3  0  0  0  0  0  0
  -25.9160  -32.5130   23.8170 C   0  0  0  0  0  3  0  0  0  0  0  0
  -26.4110  -31.7400   25.1010 C   0  0  1  0  0  0  0  0  0  0  0  0
  -25.2960  -31.4800   26.1410 C   0  0  0  0  0  1  0  0  0  0  0  0
  -27.0250  -30.3740   24.7150 C   0  0  0  0  0  1  0  0  0  0  0  0
  -27.5320  -32.5480   25.7970 C   0  0  0  0  0  1  0  0  0  0  0  0
  -25.5880  -33.9060   24.1510 N   0  0  0  0  0  0  0  0  0  0  0  0
  -25.9180  -34.9680   23.4040 C   0  0  0  0  0  0  0  0  0  0  0  0
  -26.6020  -34.8780   22.3820 O   0  0  0  0  0  0  0  0  0  0  0  0
  -24.9830  -34.0450   24.9470 H   0  0  0  0  0  0  0  0  0  0  0  0
  -24.1770  -36.7460   23.0390 C   0  0  0  0  0  1  0  0  0  0  0  0
  -25.4100  -36.3480   23.8630 C   0  0  0  0  0  3  0  0  0  0  0  0
  -27.5190  -37.2550   24.7390 C   0  0  0  0  0  1  0  0  0  0  0  0
  -26.4340  -37.4120   23.7730 N   0  0  0  0  0  0  0  0  0  0  0  0
  -26.0160  -38.3260   23.9160 H   0  0  0  0  0  0  0  0  0  0  0  0
  2  1  1  0
  2 57  1  0
  3  1  2  0
  3  7  1  0
  4  8  1  0
  4  2  2  0
  5  6  2  0
  5  4  1  0
  6  3  1  0
  9  5  1  0
 11 14  1  0
 12 23  1  0
 12 10  1  0
 13 53  1  0
 13 11  1  0
 13 12  1  0
 14  6  1  0
 14 10  1  0
 15 23  1  0
 16 21  1  0
 17 18  1  0
 17 16  1  0
 19 18  1  0
 19 28  1  0
 19 20  1  0
 21 15  1  0
 21 20  1  0
 22 15  2  0
 23 24  1  0
 25 26  2  0
 26 45  1  0
 27 26  1  0
 27 30  1  0
 28 29  1  0
 28 25  1  0
 29 27  2  0
 30 31  1  0
 31 32  2  0
 33 36  1  0
 33 32  1  0
 34 33  2  0
 35 34  1  0
 35 30  2  0
 36 37  1  0
 37 42  2  0
 37 38  1  0
 38 39  2  0
 39 40  1  0
 40 44  1  0
 41 40  2  0
 42 41  1  0
 43 42  1  0
 45 46  1  0
 46 49  1  0
 46 48  1  0
 47 45  2  0
 50 25  1  0
 50 51  1  0
 52 50  1  0
 53 54  1  0
 53 56  1  0
 55 53  1  0
 58 57  1  0
 59 70  2  0
 60 58  1  0
 60 65  1  0
 61 69  1  0
 61 71  1  0
 62 68  1  0
 62 64  1  0
 63 69  1  0
 64 65  2  0
 64 63  1  0
 66 60  2  0
 67 66  1  0
 67 62  2  0
 68 61  1  0
 69 59  1  0
 71 73  2  0
 72 71  1  0
 74 72  1  0
 75 84  2  0
 75 80  1  0
 76 72  1  0
 76 80  1  0
 77 76  1  0
 78 79  1  0
 78 77  1  0
 79 75  1  0
 80 81  2  0
 81 82  1  0
 83 82  2  0
 84 83  1  0
 85 59  1  0
 85 90  1  0
 85 86  1  0
 86 89  1  1
 86 87  1  0
 88 86  1  0
 90 93  1  0
 91 95  1  0
 91 90  1  0
 92 91  2  0
 95 94  1  0
 97 95  1  0
 97 98  1  0
 97 96  1  0
M  ISO  4  15 100  23 100  57 101  58 101
M  END
>  <TORSDO>  (72) 
F 19

>  <SCORE>  (72) 
-14.073

>  <name>  (72) 
71

>  <ligand_id>  (72) 
71

>  <original_smiles>  (72) 
[H]c1c([H])c([H])c2c(c1[H])C([H])([H])C([H])([H])C([H])([H])C2([H])N([H])C(=O)C1([H])N(C(=O)C([H])(N([H])C(=O)C([H])(N([H])C([H])([H])[H])C([H])([H])[H])C(C([H])([H])[H])(C([H])([H])[H])C([H])([H])[H])C([H])([H])c2c([H])c(OC([H])([H])c3c([H])c(C([H])([H])[H])c(N4C([H])([H])C([H])(N([H])C(=O)N5C([H])([H])C([H])([H])C([H])([H])C([H])(n6nc(-c7c([H])c([H])c(Oc8c([H])c([H])c(F)c([H])c8F)c([H])c7[H])c(C(=O)N([H])[H])c6N([H])[H])C5([H])[H])C([H])([N+]([H])([H])[H])C4([H])[H])c(C([H])([H])[H])c3C([H])([H])[H])c([H])c([H])c2C1([H])[H]

>  <smiles>  (72) 
[H]c1c([H])c([H])c2c(c1[H])C([H])([H])C([H])([H])C([H])([H])C2([H])N([H])C(=O)C1([H])N(C(=O)C([H])(N([H])C(=O)C([H])(N([H])C([H])([H])[H])C([H])([H])[H])C(C([H])([H])[H])(C([H])([H])[H])C([H])([H])[H])C([H])([H])c2c([H])c(OC([H])([H])c3c([H])c(C([H])([H])[H])c(N4C([H])([H])C([H])(N([H])C(=O)N5C([H])([H])C([H])([H])C([H])([H])C([H])(n6nc(-c7c([H])c([H])c(Oc8c([H])c([H])c(F)c([H])c8F)c([H])c7[H])c(C(=O)N([H])[H])c6N([H])[H])C5([H])[H])C([H])([N+]([H])([H])[H])C4([H])[H])c(C([H])([H])[H])c3C([H])([H])[H])c([H])c([H])c2C1([H])[H]

$$$$
72:0:0
     RDKit          3D

 96105  0  0  1  0  0  0  0  0999 V2000
  -28.8550  -22.2380   21.0140 C   0  0  0  0  0  3  0  0  0  0  0  0
  -28.7050  -21.4930   18.3750 C   0  0  0  0  0  3  0  0  0  0  0  0
  -29.0950  -20.8440   20.6260 C   0  0  0  0  0  0  0  0  0  0  0  0
  -29.0060  -20.4220   19.2880 C   0  0  0  0  0  0  0  0  0  0  0  0
  -28.4610  -22.8740   18.7590 C   0  0  0  0  0  0  0  0  0  0  0  0
  -28.5120  -23.3320   20.1150 C   0  0  0  0  0  0  0  0  0  0  0  0
  -29.3550  -19.7000   21.6290 C   0  0  0  0  0  2  0  0  0  0  0  0
  -29.0770  -18.8410   18.9230 C   0  0  0  0  0  3  0  0  0  0  0  0
  -30.3300  -18.5180   21.1670 C   0  0  0  0  0  3  0  0  0  0  0  0
  -30.0390  -17.8190   19.7580 C   0  0  0  0  0  3  0  0  0  0  0  0
  -28.0690  -23.8670   17.6810 C   0  0  0  0  0  1  0  0  0  0  0  0
  -29.2550  -18.5980   17.4170 C   0  0  0  0  0  1  0  0  0  0  0  0
  -30.5450  -15.0790   19.5440 C   0  0  0  0  0  0  0  0  0  0  0  0
  -30.3750  -12.6960   18.6940 C   0  0  0  0  0  2  0  0  0  0  0  0
  -29.3450  -12.6000   17.5450 C   0  0  0  0  0  2  0  0  0  0  0  0
  -27.9230  -12.3990   18.1010 C   0  0  0  0  0  2  0  0  0  0  0  0
  -27.6030  -13.3670   19.2700 C   0  0  0  0  0  3  0  0  0  0  0  0
  -28.7430  -13.4250   20.3080 C   0  0  0  0  0  2  0  0  0  0  0  0
  -29.9580  -13.8180   19.5840 N   0  0  0  0  0  0  0  0  0  0  0  0
  -31.7220  -15.1470   19.1750 O   0  0  0  0  0  0  0  0  0  0  0  0
  -29.7640  -16.2500   19.7440 N   0  0  0  0  0  0  0  0  0  0  0  0
  -28.8020  -16.0220   19.9430 H   0  0  0  0  0  0  0  0  0  0  0  0
  -25.3130  -13.9710   20.2390 C   0  0  0  0  0  0  0  0  0  0  0  0
  -24.2720  -13.2070   20.6880 C   0  0  0  0  0  0  0  0  0  0  0  0
  -24.7050  -11.8480   20.5830 C   0  0  0  0  0  0  0  0  0  0  0  0
  -26.3120  -13.0810   19.8830 N   0  0  0  0  0  0  0  0  0  0  0  0
  -25.9610  -11.7970   20.1550 N   0  0  0  0  0  0  0  0  0  0  0  0
  -23.9720  -10.5950   20.8080 C   0  0  0  0  0  0  0  0  0  0  0  0
  -24.4200   -9.6350   21.7420 C   0  0  0  0  0  3  0  0  0  0  0  0
  -23.6870   -8.4470   21.9550 C   0  0  0  0  0  3  0  0  0  0  0  0
  -22.4910   -8.2120   21.2350 C   0  0  0  0  0  0  0  0  0  0  0  0
  -22.0620   -9.1610   20.2900 C   0  0  0  0  0  3  0  0  0  0  0  0
  -22.7960  -10.3400   20.0750 C   0  0  0  0  0  3  0  0  0  0  0  0
  -21.7280   -7.0760   21.3580 O   0  0  0  0  0  0  0  0  0  0  0  0
  -21.6380   -6.3950   22.5450 C   0  0  0  0  0  0  0  0  0  0  0  0
  -21.1670   -7.0110   23.7240 C   0  0  0  0  0  3  0  0  0  0  0  0
  -21.0240   -6.2550   24.9050 C   0  0  0  0  0  3  0  0  0  0  0  0
  -21.3420   -4.8850   24.9070 C   0  0  0  0  0  0  0  0  0  0  0  0
  -21.8070   -4.2670   23.7310 C   0  0  0  0  0  3  0  0  0  0  0  0
  -21.9510   -5.0210   22.5530 C   0  0  0  0  0  0  0  0  0  0  0  0
  -22.3780   -4.4160   21.4190 F   0  0  0  0  0  0  0  0  0  0  0  0
  -21.1990   -4.1560   26.0390 F   0  0  0  0  0  0  0  0  0  0  0  0
  -22.9140  -13.7020   21.0930 C   0  0  0  0  0  0  0  0  0  0  0  0
  -22.2650  -13.0140   22.0260 N   0  0  0  0  0  0  0  0  0  0  0  0
  -22.4440  -14.7350   20.6190 O   0  0  0  0  0  0  0  0  0  0  0  0
  -22.6610  -12.1780   22.4290 H   0  0  0  0  0  0  0  0  0  0  0  0
  -21.3580  -13.3280   22.3410 H   0  0  0  0  0  0  0  0  0  0  0  0
  -25.4840  -15.3430   20.0770 N   0  0  0  0  0  0  0  0  0  0  0  0
  -24.7330  -15.9980   20.2620 H   0  0  0  0  0  0  0  0  0  0  0  0
  -26.2800  -15.7730   19.6250 H   0  0  0  0  0  0  0  0  0  0  0  0
  -31.8540  -16.6160   22.0280 C   0  0  0  0  0  1  0  0  0  0  0  0
  -30.6340  -17.5070   22.3160 C   0  0  0  0  0  3  0  0  0  0  0  0
  -30.9420  -18.1610   23.5360 O   0  0  0  0  0  0  0  0  0  0  0  0
  -30.9910  -17.5010   24.2220 H   0  0  0  0  0  0  0  0  0  0  0  0
  -27.9850  -24.8030   20.6790 C   0  0  0  0  0  2  0  0  0  0  0  0
  -28.3490  -26.2600   20.2700 O   0  0  0  0  0  0  0  0  0  0  0  0
  -24.6910  -31.9590   23.2410 C   0  0  0  0  0  0  0  0  0  0  0  0
  -27.3030  -27.2550   20.2370 C   0  0  0  0  0  0  0  0  0  0  0  0
  -23.4990  -30.5370   21.6200 C   0  0  0  0  0  3  0  0  0  0  0  0
  -24.9590  -28.9720   20.1980 C   0  0  0  0  0  0  0  0  0  0  0  0
  -26.0490  -30.8330   21.4380 C   0  0  0  0  0  2  0  0  0  0  0  0
  -26.1360  -29.4360   20.7990 C   0  0  0  0  0  0  0  0  0  0  0  0
  -27.3130  -28.5940   20.8010 C   0  0  0  0  0  3  0  0  0  0  0  0
  -26.1040  -26.9000   19.5840 C   0  0  0  0  0  3  0  0  0  0  0  0
  -24.9550  -27.7170   19.5730 C   0  0  0  0  0  3  0  0  0  0  0  0
  -23.7200  -29.8530   20.2450 C   0  0  0  0  0  2  0  0  0  0  0  0
  -24.7660  -31.1320   22.1540 N   0  0  0  0  0  0  0  0  0  0  0  0
  -23.6050  -32.2340   23.7730 O   0  0  0  0  0  0  0  0  0  0  0  0
  -22.8380  -29.5280   22.5920 C   0  0  0  0  0  0  0  0  0  0  0  0
  -21.5160  -29.3210   22.4570 N   0  0  0  0  0  0  0  0  0  0  0  0
  -23.5180  -28.9340   23.4330 O   0  0  0  0  0  0  0  0  0  0  0  0
  -21.0230  -29.8530   21.7540 H   0  0  0  0  0  0  0  0  0  0  0  0
  -18.1800  -27.9780   22.8920 C   0  0  0  0  0  0  0  0  0  0  0  0
  -20.7120  -28.3770   23.2380 C   0  0  0  0  0  3  0  0  0  0  0  0
  -20.9030  -26.9290   22.7290 C   0  0  0  0  0  2  0  0  0  0  0  0
  -19.8560  -26.5100   21.6920 C   0  0  0  0  0  2  0  0  0  0  0  0
  -18.4460  -26.6130   22.2790 C   0  0  0  0  0  2  0  0  0  0  0  0
  -19.2430  -28.8120   23.3280 C   0  0  0  0  0  0  0  0  0  0  0  0
  -18.9410  -30.0840   23.8600 C   0  0  0  0  0  3  0  0  0  0  0  0
  -17.6080  -30.5230   23.9620 C   0  0  0  0  0  3  0  0  0  0  0  0
  -16.5580  -29.6890   23.5420 C   0  0  0  0  0  3  0  0  0  0  0  0
  -16.8440  -28.4180   23.0130 C   0  0  0  0  0  3  0  0  0  0  0  0
  -25.9650  -32.6140   23.8550 C   0  0  0  0  0  3  0  0  0  0  0  0
  -26.4870  -31.8680   25.1440 C   0  0  1  0  0  0  0  0  0  0  0  0
  -25.3890  -31.6160   26.2060 C   0  0  0  0  0  1  0  0  0  0  0  0
  -27.1030  -30.4980   24.7740 C   0  0  0  0  0  1  0  0  0  0  0  0
  -27.6150  -32.6920   25.8060 C   0  0  0  0  0  1  0  0  0  0  0  0
  -25.6400  -34.0140   24.1720 N   0  0  0  0  0  0  0  0  0  0  0  0
  -25.9680  -35.0670   23.4110 C   0  0  0  0  0  0  0  0  0  0  0  0
  -26.6450  -34.9630   22.3850 O   0  0  0  0  0  0  0  0  0  0  0  0
  -25.0390  -34.1680   24.9680 H   0  0  0  0  0  0  0  0  0  0  0  0
  -24.2340  -36.8530   23.0390 C   0  0  0  0  0  1  0  0  0  0  0  0
  -25.4710  -36.4560   23.8600 C   0  0  0  0  0  3  0  0  0  0  0  0
  -27.5960  -37.3560   24.7000 C   0  0  0  0  0  1  0  0  0  0  0  0
  -26.4990  -37.5150   23.7490 N   0  0  0  0  0  0  0  0  0  0  0  0
  -26.0870  -38.4340   23.8910 H   0  0  0  0  0  0  0  0  0  0  0  0
  2  5  2  0
  2  4  1  0
  3  1  1  0
  3  7  1  0
  4  3  2  0
  5  6  1  0
  6 55  1  0
  6  1  2  0
  8 12  1  0
  8  4  1  0
  8 10  1  0
  9  7  1  0
  9 52  1  0
 10 21  1  0
 10  9  1  0
 11  5  1  0
 13 19  1  0
 13 21  1  0
 14 19  1  0
 15 16  1  0
 15 14  1  0
 17 16  1  0
 17 26  1  0
 17 18  1  0
 19 18  1  0
 20 13  2  0
 21 22  1  0
 23 24  2  0
 24 43  1  0
 25 24  1  0
 25 28  1  0
 26 27  1  0
 26 23  1  0
 27 25  2  0
 28 29  1  0
 29 30  2  0
 31 34  1  0
 31 30  1  0
 32 31  2  0
 33 32  1  0
 33 28  2  0
 34 35  1  0
 35 40  2  0
 35 36  1  0
 36 37  2  0
 37 38  1  0
 38 42  1  0
 39 38  2  0
 40 39  1  0
 41 40  1  0
 43 44  1  0
 44 47  1  0
 44 46  1  0
 45 43  2  0
 48 23  1  0
 48 49  1  0
 50 48  1  0
 52 51  1  0
 52 53  1  0
 53 54  1  0
 56 55  1  0
 57 68  2  0
 58 56  1  0
 58 63  1  0
 59 67  1  0
 59 69  1  0
 60 66  1  0
 60 62  1  0
 61 67  1  0
 62 63  2  0
 62 61  1  0
 64 58  2  0
 65 64  1  0
 65 60  2  0
 66 59  1  0
 67 57  1  0
 69 71  2  0
 70 69  1  0
 72 70  1  0
 73 82  2  0
 73 78  1  0
 74 70  1  0
 74 78  1  0
 75 74  1  0
 76 77  1  0
 76 75  1  0
 77 73  1  0
 78 79  2  0
 79 80  1  0
 81 80  2  0
 82 81  1  0
 83 57  1  0
 83 88  1  0
 83 84  1  0
 84 87  1  1
 84 85  1  0
 86 84  1  0
 88 91  1  0
 89 93  1  0
 89 88  1  0
 90 89  2  0
 93 92  1  0
 95 93  1  0
 95 96  1  0
 95 94  1  0
M  ISO  4  13 100  21 100  55 101  56 101
M  END
>  <TORSDO>  (73) 
F 19

>  <SCORE>  (73) 
-12.871

>  <name>  (73) 
72

>  <ligand_id>  (73) 
72

>  <original_smiles>  (73) 
[H]OC([H])(C([H])([H])[H])C1([H])C([H])([H])c2c([H])c(C([H])([H])Oc3c([H])c([H])c4c(c3[H])C([H])([H])N(C(=O)C([H])(N([H])C(=O)C([H])(N([H])C([H])([H])[H])C([H])([H])[H])C(C([H])([H])[H])(C([H])([H])[H])C([H])([H])[H])C([H])(C(=O)N([H])C3([H])c5c([H])c([H])c([H])c([H])c5C([H])([H])C([H])([H])C3([H])[H])C4([H])[H])c(C([H])([H])[H])c([H])c2C([H])(C([H])([H])[H])C1([H])N([H])C(=O)N1C([H])([H])C([H])([H])C([H])([H])C([H])(n2nc(-c3c([H])c([H])c(Oc4c([H])c([H])c(F)c([H])c4F)c([H])c3[H])c(C(=O)N([H])[H])c2N([H])[H])C1([H])[H]

>  <smiles>  (73) 
[H]OC([H])(C([H])([H])[H])C1([H])C([H])([H])c2c([H])c(C([H])([H])Oc3c([H])c([H])c4c(c3[H])C([H])([H])N(C(=O)C([H])(N([H])C(=O)C([H])(N([H])C([H])([H])[H])C([H])([H])[H])C(C([H])([H])[H])(C([H])([H])[H])C([H])([H])[H])C([H])(C(=O)N([H])C3([H])c5c([H])c([H])c([H])c([H])c5C([H])([H])C([H])([H])C3([H])[H])C4([H])[H])c(C([H])([H])[H])c([H])c2C([H])(C([H])([H])[H])C1([H])N([H])C(=O)N1C([H])([H])C([H])([H])C([H])([H])C([H])(n2nc(-c3c([H])c([H])c(Oc4c([H])c([H])c(F)c([H])c4F)c([H])c3[H])c(C(=O)N([H])[H])c2N([H])[H])C1([H])[H]

$$$$
73:0:0
     RDKit          3D

 96105  0  0  1  0  0  0  0  0999 V2000
  -28.6410  -20.2630   20.3420 C   0  0  0  0  0  3  0  0  0  0  0  0
  -29.0790  -21.6420   20.3310 C   0  0  0  0  0  0  0  0  0  0  0  0
  -30.4790  -21.4570   20.0310 C   0  0  0  0  0  0  0  0  0  0  0  0
  -30.7580  -20.1050   19.8620 C   0  0  0  0  0  0  0  0  0  0  0  0
  -31.9350  -19.3070   19.4470 C   0  0  0  0  0  2  0  0  0  0  0  0
  -31.3910  -17.9360   19.0090 C   0  0  0  0  0  2  0  0  0  0  0  0
  -29.9610  -17.7450   19.6020 C   0  0  0  0  0  3  0  0  0  0  0  0
  -29.6790  -19.2760   20.0500 N   0  0  0  0  0  0  0  0  0  0  0  0
  -30.4960  -15.0490   20.1880 C   0  0  0  0  0  0  0  0  0  0  0  0
  -30.3280  -12.6660   19.3020 C   0  0  0  0  0  2  0  0  0  0  0  0
  -29.3770  -12.5900   18.0850 C   0  0  0  0  0  2  0  0  0  0  0  0
  -27.9300  -12.3660   18.5550 C   0  0  0  0  0  2  0  0  0  0  0  0
  -27.5430  -13.3000   19.7320 C   0  0  0  0  0  3  0  0  0  0  0  0
  -28.6240  -13.3690   20.8320 C   0  0  0  0  0  2  0  0  0  0  0  0
  -29.8700  -13.7910   20.1830 N   0  0  0  0  0  0  0  0  0  0  0  0
  -31.6880  -15.0110   19.8680 O   0  0  0  0  0  0  0  0  0  0  0  0
  -29.7960  -16.3100   20.3260 N   0  0  0  0  0  0  0  0  0  0  0  0
  -28.8670  -16.1870   20.7010 H   0  0  0  0  0  0  0  0  0  0  0  0
  -25.1910  -13.8580   20.5570 C   0  0  0  0  0  0  0  0  0  0  0  0
  -24.1380  -13.0760   20.9440 C   0  0  0  0  0  0  0  0  0  0  0  0
  -24.6020  -11.7260   20.8780 C   0  0  0  0  0  0  0  0  0  0  0  0
  -26.2240  -12.9860   20.2700 N   0  0  0  0  0  0  0  0  0  0  0  0
  -25.8830  -11.6960   20.5310 N   0  0  0  0  0  0  0  0  0  0  0  0
  -23.8790  -10.4620   21.0680 C   0  0  0  0  0  0  0  0  0  0  0  0
  -24.3310   -9.4800   21.9770 C   0  0  0  0  0  3  0  0  0  0  0  0
  -23.6060   -8.2820   22.1570 C   0  0  0  0  0  3  0  0  0  0  0  0
  -22.4140   -8.0570   21.4270 C   0  0  0  0  0  0  0  0  0  0  0  0
  -21.9810   -9.0270   20.5060 C   0  0  0  0  0  3  0  0  0  0  0  0
  -22.7060  -10.2160   20.3250 C   0  0  0  0  0  3  0  0  0  0  0  0
  -21.6590   -6.9130   21.5180 O   0  0  0  0  0  0  0  0  0  0  0  0
  -21.6370   -6.1530   22.6610 C   0  0  0  0  0  0  0  0  0  0  0  0
  -21.2280   -6.6870   23.9020 C   0  0  0  0  0  3  0  0  0  0  0  0
  -21.1530   -5.8540   25.0360 C   0  0  0  0  0  3  0  0  0  0  0  0
  -21.4770   -4.4890   24.9300 C   0  0  0  0  0  0  0  0  0  0  0  0
  -21.8780   -3.9530   23.6930 C   0  0  0  0  0  3  0  0  0  0  0  0
  -21.9550   -4.7840   22.5610 C   0  0  0  0  0  0  0  0  0  0  0  0
  -22.3210   -4.2600   21.3670 F   0  0  0  0  0  0  0  0  0  0  0  0
  -21.3980   -3.6860   26.0180 F   0  0  0  0  0  0  0  0  0  0  0  0
  -22.7500  -13.5500   21.2610 C   0  0  0  0  0  0  0  0  0  0  0  0
  -22.0450  -12.8400   22.1330 N   0  0  0  0  0  0  0  0  0  0  0  0
  -22.3030  -14.5850   20.7680 O   0  0  0  0  0  0  0  0  0  0  0  0
  -22.4220  -12.0040   22.5520 H   0  0  0  0  0  0  0  0  0  0  0  0
  -21.1130  -13.1380   22.3860 H   0  0  0  0  0  0  0  0  0  0  0  0
  -25.3490  -15.2310   20.3950 N   0  0  0  0  0  0  0  0  0  0  0  0
  -24.5830  -15.8810   20.5350 H   0  0  0  0  0  0  0  0  0  0  0  0
  -26.1790  -15.6730   20.0210 H   0  0  0  0  0  0  0  0  0  0  0  0
  -31.8090  -22.8750   18.4230 C   0  0  0  0  0  1  0  0  0  0  0  0
  -32.7700  -22.3230   20.7140 C   0  0  0  0  0  1  0  0  0  0  0  0
  -31.4950  -22.5800   19.8950 C   0  0  0  0  0  3  0  0  0  0  0  0
  -28.3460  -23.1330   20.7020 C   0  0  0  0  0  3  0  0  0  0  0  0
  -28.6990  -23.4230   22.1000 N   0  0  0  0  0  4  0  0  0  0  0  0
  -28.5160  -22.6190   22.6740 H   0  0  0  0  0  0  0  0  0  0  0  0
  -28.1520  -24.1930   22.4450 H   0  0  0  0  0  0  0  0  0  0  0  0
  -29.6710  -23.6620   22.1870 H   0  0  0  0  0  0  0  0  0  0  0  0
  -28.3530  -24.6300   19.8540 C   0  0  0  0  0  2  0  0  0  0  0  0
  -28.2560  -26.1220   20.3840 O   0  0  0  0  0  0  0  0  0  0  0  0
  -24.6170  -31.8810   23.2370 C   0  0  0  0  0  0  0  0  0  0  0  0
  -27.1940  -27.1050   20.2500 C   0  0  0  0  0  0  0  0  0  0  0  0
  -23.4240  -30.4800   21.5970 C   0  0  0  0  0  3  0  0  0  0  0  0
  -24.8760  -28.8850   20.1860 C   0  0  0  0  0  0  0  0  0  0  0  0
  -25.9810  -30.7240   21.4520 C   0  0  0  0  0  2  0  0  0  0  0  0
  -26.0510  -29.3250   20.8050 C   0  0  0  0  0  0  0  0  0  0  0  0
  -27.2040  -28.4490   20.8210 C   0  0  0  0  0  3  0  0  0  0  0  0
  -25.9950  -26.7760   19.5840 C   0  0  0  0  0  3  0  0  0  0  0  0
  -24.8630  -27.6270   19.5590 C   0  0  0  0  0  3  0  0  0  0  0  0
  -23.6520  -29.7910   20.2240 C   0  0  0  0  0  2  0  0  0  0  0  0
  -24.6930  -31.0520   22.1500 N   0  0  0  0  0  0  0  0  0  0  0  0
  -23.5280  -32.1730   23.7560 O   0  0  0  0  0  0  0  0  0  0  0  0
  -22.7340  -29.4840   22.5630 C   0  0  0  0  0  0  0  0  0  0  0  0
  -21.4030  -29.3260   22.4380 N   0  0  0  0  0  0  0  0  0  0  0  0
  -23.3990  -28.8550   23.3900 O   0  0  0  0  0  0  0  0  0  0  0  0
  -20.9240  -29.8840   21.7460 H   0  0  0  0  0  0  0  0  0  0  0  0
  -18.0110  -28.1600   22.9490 C   0  0  0  0  0  0  0  0  0  0  0  0
  -20.5730  -28.3970   23.2110 C   0  0  0  0  0  3  0  0  0  0  0  0
  -20.6590  -26.9650   22.6340 C   0  0  0  0  0  2  0  0  0  0  0  0
  -19.5520  -26.6530   21.6230 C   0  0  0  0  0  2  0  0  0  0  0  0
  -18.1740  -26.8110   22.2700 C   0  0  0  0  0  2  0  0  0  0  0  0
  -19.1390  -28.9110   23.3770 C   0  0  0  0  0  0  0  0  0  0  0  0
  -18.9310  -30.1740   23.9740 C   0  0  0  0  0  3  0  0  0  0  0  0
  -17.6310  -30.6840   24.1470 C   0  0  0  0  0  3  0  0  0  0  0  0
  -16.5190  -29.9300   23.7350 C   0  0  0  0  0  3  0  0  0  0  0  0
  -16.7100  -28.6690   23.1420 C   0  0  0  0  0  3  0  0  0  0  0  0
  -25.8920  -32.5180   23.8700 C   0  0  0  0  0  3  0  0  0  0  0  0
  -26.3910  -31.7560   25.1610 C   0  0  1  0  0  0  0  0  0  0  0  0
  -25.2850  -31.5320   26.2190 C   0  0  0  0  0  1  0  0  0  0  0  0
  -26.9740  -30.3730   24.7930 C   0  0  0  0  0  1  0  0  0  0  0  0
  -27.5370  -32.5520   25.8280 C   0  0  0  0  0  1  0  0  0  0  0  0
  -25.5800  -33.9200   24.1960 N   0  0  0  0  0  0  0  0  0  0  0  0
  -25.9070  -34.9740   23.4380 C   0  0  0  0  0  0  0  0  0  0  0  0
  -26.5700  -34.8700   22.4020 O   0  0  0  0  0  0  0  0  0  0  0  0
  -24.9900  -34.0740   25.0010 H   0  0  0  0  0  0  0  0  0  0  0  0
  -24.1760  -36.7710   23.1020 C   0  0  0  0  0  1  0  0  0  0  0  0
  -25.4270  -36.3640   23.8990 C   0  0  0  0  0  3  0  0  0  0  0  0
  -27.5680  -37.2550   24.7070 C   0  0  0  0  0  1  0  0  0  0  0  0
  -26.4580  -37.4180   23.7720 N   0  0  0  0  0  0  0  0  0  0  0  0
  -26.0540  -38.3390   23.9160 H   0  0  0  0  0  0  0  0  0  0  0  0
  2  1  2  0
  2 50  1  0
  3  2  1  0
  4  3  2  0
  4  8  1  0
  5  4  1  0
  6  5  1  0
  6  7  1  0
  7  8  1  0
  7 17  1  0
  8  1  1  0
  9 17  1  0
 10 15  1  0
 11 12  1  0
 11 10  1  0
 13 12  1  0
 13 22  1  0
 13 14  1  0
 15  9  1  0
 15 14  1  0
 16  9  2  0
 17 18  1  0
 19 20  2  0
 20 39  1  0
 21 20  1  0
 21 24  1  0
 22 23  1  0
 22 19  1  0
 23 21  2  0
 24 25  1  0
 25 26  2  0
 27 30  1  0
 27 26  1  0
 28 27  2  0
 29 28  1  0
 29 24  2  0
 30 31  1  0
 31 32  1  0
 32 33  2  0
 34 33  1  0
 34 38  1  0
 35 34  2  0
 36 31  2  0
 36 35  1  0
 37 36  1  0
 39 40  1  0
 40 43  1  0
 40 42  1  0
 41 39  2  0
 44 45  1  0
 44 19  1  0
 46 44  1  0
 47 49  1  0
 49  3  1  0
 49 48  1  0
 50 55  1  0
 50 51  1  0
 51 54  1  0
 51 53  1  0
 51 52  1  0
 55 56  1  0
 57 68  2  0
 58 56  1  0
 58 63  1  0
 59 67  1  0
 59 69  1  0
 60 66  1  0
 60 62  1  0
 61 67  1  0
 62 63  2  0
 62 61  1  0
 64 58  2  0
 65 64  1  0
 65 60  2  0
 66 59  1  0
 67 57  1  0
 69 71  2  0
 70 69  1  0
 72 70  1  0
 73 82  2  0
 73 78  1  0
 74 70  1  0
 74 78  1  0
 75 74  1  0
 76 77  1  0
 76 75  1  0
 77 73  1  0
 78 79  2  0
 79 80  1  0
 81 80  2  0
 82 81  1  0
 83 57  1  0
 83 88  1  0
 83 84  1  0
 84 87  1  1
 84 85  1  0
 86 84  1  0
 88 91  1  0
 89 93  1  0
 89 88  1  0
 90 89  2  0
 93 92  1  0
 95 93  1  0
 95 96  1  0
 95 94  1  0
M  ISO  4   9 100  17 100  55 101  56 101
M  END
>  <TORSDO>  (74) 
F 20

>  <SCORE>  (74) 
-15.374

>  <name>  (74) 
73

>  <ligand_id>  (74) 
73

>  <original_smiles>  (74) 
[H]c1c([H])c([H])c2c(c1[H])C([H])([H])C([H])([H])C([H])([H])C2([H])N([H])C(=O)C1([H])N(C(=O)C([H])(N([H])C(=O)C([H])(N([H])C([H])([H])[H])C([H])([H])[H])C(C([H])([H])[H])(C([H])([H])[H])C([H])([H])[H])C([H])([H])c2c([H])c(OC([H])([H])C([H])(c3c(C([H])(C([H])([H])[H])C([H])([H])[H])c4n(c3[H])C([H])(N([H])C(=O)N3C([H])([H])C([H])([H])C([H])([H])C([H])(n5nc(-c6c([H])c([H])c(Oc7c([H])c([H])c(F)c([H])c7F)c([H])c6[H])c(C(=O)N([H])[H])c5N([H])[H])C3([H])[H])C([H])([H])C4([H])[H])[N+]([H])([H])[H])c([H])c([H])c2C1([H])[H]

>  <smiles>  (74) 
[H]c1c([H])c([H])c2c(c1[H])C([H])([H])C([H])([H])C([H])([H])C2([H])N([H])C(=O)C1([H])N(C(=O)C([H])(N([H])C(=O)C([H])(N([H])C([H])([H])[H])C([H])([H])[H])C(C([H])([H])[H])(C([H])([H])[H])C([H])([H])[H])C([H])([H])c2c([H])c(OC([H])([H])C([H])(c3c(C([H])(C([H])([H])[H])C([H])([H])[H])c4n(c3[H])C([H])(N([H])C(=O)N3C([H])([H])C([H])([H])C([H])([H])C([H])(n5nc(-c6c([H])c([H])c(Oc7c([H])c([H])c(F)c([H])c7F)c([H])c6[H])c(C(=O)N([H])[H])c5N([H])[H])C3([H])[H])C([H])([H])C4([H])[H])[N+]([H])([H])[H])c([H])c([H])c2C1([H])[H]

$$$$
74:0:0
     RDKit          3D

 96105  0  0  1  0  0  0  0  0999 V2000
  -26.9700  -22.0880   19.4500 C   0  0  0  0  0  0  0  0  0  0  0  0
  -27.1780  -23.3320   18.8130 C   0  0  0  0  0  0  0  0  0  0  0  0
  -27.9590  -21.5230   20.2900 C   0  0  0  0  0  0  0  0  0  0  0  0
  -29.3760  -23.4710   19.9020 C   0  0  0  0  0  0  0  0  0  0  0  0
  -28.3100  -24.1400   19.1570 C   0  0  0  0  0  0  0  0  0  0  0  0
  -29.2700  -22.0750   20.3720 C   0  0  0  0  0  0  0  0  0  0  0  0
  -25.6290  -21.3470   19.2670 C   0  0  0  0  0  1  0  0  0  0  0  0
  -26.1530  -23.6940   17.7280 C   0  0  0  0  0  1  0  0  0  0  0  0
  -27.5210  -20.3320   21.1500 C   0  0  0  0  0  1  0  0  0  0  0  0
  -30.6270  -24.3070   20.1970 C   0  0  0  0  0  1  0  0  0  0  0  0
  -31.7410  -21.8170   21.3880 C   0  0  0  0  0  1  0  0  0  0  0  0
  -30.3860  -21.1490   21.0920 C   0  0  0  0  0  3  0  0  0  0  0  0
  -31.6780  -15.2620   19.8590 C   0  0  0  0  0  0  0  0  0  0  0  0
  -31.3580  -12.9520   18.9420 C   0  0  0  0  0  2  0  0  0  0  0  0
  -30.3880  -12.9400   17.7420 C   0  0  0  0  0  2  0  0  0  0  0  0
  -28.9250  -12.8350   18.2120 C   0  0  0  0  0  2  0  0  0  0  0  0
  -28.6110  -13.7990   19.3880 C   0  0  0  0  0  3  0  0  0  0  0  0
  -29.6920  -13.7230   20.4800 C   0  0  0  0  0  2  0  0  0  0  0  0
  -30.9640  -14.0740   19.8390 N   0  0  0  0  0  0  0  0  0  0  0  0
  -32.8400  -15.2280   19.4340 O   0  0  0  0  0  0  0  0  0  0  0  0
  -31.1190  -19.1330   19.3040 C   0  0  0  0  0  2  0  0  0  0  0  0
  -29.6840  -18.4780   21.1280 C   0  0  0  0  0  2  0  0  0  0  0  0
  -31.7790  -17.6950   19.3390 C   0  0  0  0  0  2  0  0  0  0  0  0
  -30.2220  -16.9860   21.1200 C   0  0  0  0  0  2  0  0  0  0  0  0
  -30.6880  -19.5870   20.7040 C   0  0  0  0  0  3  0  0  0  0  0  0
  -31.0650  -16.5280   19.9720 N   0  0  0  0  0  0  0  0  0  0  0  0
  -26.2920  -14.5030   20.2150 C   0  0  0  0  0  0  0  0  0  0  0  0
  -25.2010  -13.7780   20.6160 C   0  0  0  0  0  0  0  0  0  0  0  0
  -25.5870  -12.4060   20.5400 C   0  0  0  0  0  0  0  0  0  0  0  0
  -27.2780  -13.5720   19.9290 N   0  0  0  0  0  0  0  0  0  0  0  0
  -26.8610  -12.3040   20.1760 N   0  0  0  0  0  0  0  0  0  0  0  0
  -24.8030  -11.1800   20.7440 C   0  0  0  0  0  0  0  0  0  0  0  0
  -25.1280  -10.2550   21.7600 C   0  0  0  0  0  3  0  0  0  0  0  0
  -24.3500   -9.0900   21.9420 C   0  0  0  0  0  3  0  0  0  0  0  0
  -23.2330   -8.8480   21.1090 C   0  0  0  0  0  0  0  0  0  0  0  0
  -22.9270   -9.7600   20.0830 C   0  0  0  0  0  3  0  0  0  0  0  0
  -23.7060  -10.9150   19.8990 C   0  0  0  0  0  3  0  0  0  0  0  0
  -22.4340   -7.7350   21.1970 O   0  0  0  0  0  0  0  0  0  0  0  0
  -22.1420   -7.1530   22.4020 C   0  0  0  0  0  0  0  0  0  0  0  0
  -21.5120   -7.8700   23.4440 C   0  0  0  0  0  3  0  0  0  0  0  0
  -21.1640   -7.2150   24.6420 C   0  0  0  0  0  3  0  0  0  0  0  0
  -21.4370   -5.8420   24.8010 C   0  0  0  0  0  0  0  0  0  0  0  0
  -22.0610   -5.1250   23.7640 C   0  0  0  0  0  3  0  0  0  0  0  0
  -22.4060   -5.7770   22.5680 C   0  0  0  0  0  0  0  0  0  0  0  0
  -22.9860   -5.0770   21.5620 F   0  0  0  0  0  0  0  0  0  0  0  0
  -21.0980   -5.2090   25.9470 F   0  0  0  0  0  0  0  0  0  0  0  0
  -23.8450  -14.3270   20.9590 C   0  0  0  0  0  0  0  0  0  0  0  0
  -23.1380  -13.6830   21.8810 N   0  0  0  0  0  0  0  0  0  0  0  0
  -23.4230  -15.3600   20.4430 O   0  0  0  0  0  0  0  0  0  0  0  0
  -23.4880  -12.8450   22.3220 H   0  0  0  0  0  0  0  0  0  0  0  0
  -22.2310  -14.0370   22.1560 H   0  0  0  0  0  0  0  0  0  0  0  0
  -26.5240  -15.8650   20.0540 N   0  0  0  0  0  0  0  0  0  0  0  0
  -25.8060  -16.5660   20.2150 H   0  0  0  0  0  0  0  0  0  0  0  0
  -27.3950  -16.2590   19.7210 H   0  0  0  0  0  0  0  0  0  0  0  0
  -28.4110  -25.6180   18.5500 C   0  0  0  0  0  2  0  0  0  0  0  0
  -28.2490  -26.8550   19.3540 O   0  0  0  0  0  0  0  0  0  0  0  0
  -24.5260  -31.7340   23.0560 C   0  0  0  0  0  0  0  0  0  0  0  0
  -27.0960  -27.6590   19.3750 C   0  0  0  0  0  0  0  0  0  0  0  0
  -23.2680  -30.4820   21.3320 C   0  0  0  0  0  3  0  0  0  0  0  0
  -24.6810  -29.1760   19.6470 C   0  0  0  0  0  0  0  0  0  0  0  0
  -25.7750  -30.9330   21.0440 C   0  0  0  0  0  2  0  0  0  0  0  0
  -25.8590  -29.6380   20.2460 C   0  0  0  0  0  0  0  0  0  0  0  0
  -27.0620  -28.8820   20.1140 C   0  0  0  0  0  3  0  0  0  0  0  0
  -25.8900  -27.2780   18.7470 C   0  0  0  0  0  3  0  0  0  0  0  0
  -24.6960  -28.0040   18.8860 C   0  0  0  0  0  3  0  0  0  0  0  0
  -23.4140  -29.9750   19.8720 C   0  0  0  0  0  2  0  0  0  0  0  0
  -24.5410  -31.0670   21.8680 N   0  0  0  0  0  0  0  0  0  0  0  0
  -23.4690  -31.8950   23.6860 O   0  0  0  0  0  0  0  0  0  0  0  0
  -22.7100  -29.3280   22.2070 C   0  0  0  0  0  0  0  0  0  0  0  0
  -21.3930  -29.0800   22.1040 N   0  0  0  0  0  0  0  0  0  0  0  0
  -23.4550  -28.6720   22.9400 O   0  0  0  0  0  0  0  0  0  0  0  0
  -20.8490  -29.6730   21.4900 H   0  0  0  0  0  0  0  0  0  0  0  0
  -18.1310  -27.5540   22.5140 C   0  0  0  0  0  0  0  0  0  0  0  0
  -20.6610  -28.0200   22.7980 C   0  0  0  0  0  3  0  0  0  0  0  0
  -20.8880  -26.6480   22.1230 C   0  0  0  0  0  2  0  0  0  0  0  0
  -19.8100  -26.2980   21.0910 C   0  0  0  0  0  2  0  0  0  0  0  0
  -18.4210  -26.2760   21.7410 C   0  0  0  0  0  2  0  0  0  0  0  0
  -19.1830  -28.3770   22.9950 C   0  0  0  0  0  0  0  0  0  0  0  0
  -18.8650  -29.5670   23.6860 C   0  0  0  0  0  3  0  0  0  0  0  0
  -17.5250  -29.9490   23.8770 C   0  0  0  0  0  3  0  0  0  0  0  0
  -16.4860  -29.1260   23.4090 C   0  0  0  0  0  3  0  0  0  0  0  0
  -16.7870  -27.9240   22.7400 C   0  0  0  0  0  3  0  0  0  0  0  0
  -25.8250  -32.3400   23.6720 C   0  0  0  0  0  3  0  0  0  0  0  0
  -25.4980  -33.6920   24.1480 N   0  0  0  0  0  0  0  0  0  0  0  0
  -25.7920  -34.8220   23.4860 C   0  0  0  0  0  0  0  0  0  0  0  0
  -26.4410  -34.8320   22.4370 O   0  0  0  0  0  0  0  0  0  0  0  0
  -24.9230  -33.7560   24.9750 H   0  0  0  0  0  0  0  0  0  0  0  0
  -24.0270  -36.6030   23.3540 C   0  0  0  0  0  1  0  0  0  0  0  0
  -25.2960  -36.1490   24.0910 C   0  0  0  0  0  3  0  0  0  0  0  0
  -27.4330  -36.9900   24.9570 C   0  0  0  0  0  1  0  0  0  0  0  0
  -26.3090  -37.2270   24.0540 N   0  0  0  0  0  0  0  0  0  0  0  0
  -25.8900  -38.1200   24.3000 H   0  0  0  0  0  0  0  0  0  0  0  0
  -26.4290  -31.4650   24.8380 C   0  0  1  0  0  0  0  0  0  0  0  0
  -25.4080  -31.1070   25.9450 C   0  0  0  0  0  1  0  0  0  0  0  0
  -27.0150  -30.1440   24.2840 C   0  0  0  0  0  1  0  0  0  0  0  0
  -27.6000  -32.2230   25.4970 C   0  0  0  0  0  1  0  0  0  0  0  0
  1  3  1  0
  2  5  1  0
  2  1  2  0
  3  6  2  0
  3  9  1  0
  4 10  1  0
  4  6  1  0
  5  4  2  0
  6 12  1  0
  7  1  1  0
  8  2  1  0
 12 11  1  0
 13 26  1  0
 14 19  1  0
 15 16  1  0
 15 14  1  0
 17 16  1  0
 17 30  1  0
 17 18  1  0
 19 13  1  0
 19 18  1  0
 20 13  2  0
 21 23  1  0
 21 25  1  0
 23 26  1  0
 24 22  1  0
 25 12  1  0
 25 22  1  0
 26 24  1  0
 27 28  2  0
 28 47  1  0
 29 28  1  0
 29 32  1  0
 30 31  1  0
 30 27  1  0
 31 29  2  0
 32 33  1  0
 33 34  2  0
 35 38  1  0
 35 34  1  0
 36 35  2  0
 37 36  1  0
 37 32  2  0
 38 39  1  0
 39 44  2  0
 39 40  1  0
 40 41  2  0
 41 42  1  0
 42 46  1  0
 43 42  2  0
 44 43  1  0
 45 44  1  0
 47 48  1  0
 48 51  1  0
 48 50  1  0
 49 47  2  0
 52 27  1  0
 52 53  1  0
 54 52  1  0
 55  5  1  0
 55 56  1  0
 56 58  1  0
 57 68  2  0
 58 63  1  0
 59 67  1  0
 59 69  1  0
 60 66  1  0
 60 62  1  0
 61 67  1  0
 62 61  1  0
 63 62  2  0
 64 65  1  0
 64 58  2  0
 65 60  2  0
 66 59  1  0
 67 57  1  0
 69 71  2  0
 70 69  1  0
 72 70  1  0
 73 82  2  0
 73 78  1  0
 74 70  1  0
 74 78  1  0
 75 74  1  0
 76 77  1  0
 76 75  1  0
 77 73  1  0
 78 79  2  0
 79 80  1  0
 81 80  2  0
 82 81  1  0
 83 57  1  0
 83 84  1  0
 83 93  1  0
 84 87  1  0
 85 89  1  0
 85 84  1  0
 86 85  2  0
 89 88  1  0
 91 89  1  0
 91 92  1  0
 91 90  1  0
 93 96  1  1
 93 94  1  0
 95 93  1  0
M  ISO  4  13 100  26 100  55 101  56 101
M  END
>  <TORSDO>  (75) 
F 18

>  <SCORE>  (75) 
-10.538

>  <name>  (75) 
74

>  <ligand_id>  (75) 
74

>  <original_smiles>  (75) 
[H]c1c([H])c([H])c2c(c1[H])C([H])([H])C([H])([H])C([H])([H])C2([H])N([H])C(=O)C1([H])N(C(=O)C([H])(N([H])C(=O)C([H])(N([H])C([H])([H])[H])C([H])([H])[H])C(C([H])([H])[H])(C([H])([H])[H])C([H])([H])[H])C([H])([H])c2c([H])c(OC([H])([H])c3c(C([H])([H])[H])c(C([H])([H])[H])c(C([H])([H])[H])c(C([H])(C([H])([H])[H])C4([H])C([H])([H])C([H])([H])N(C(=O)N5C([H])([H])C([H])([H])C([H])([H])C([H])(n6nc(-c7c([H])c([H])c(Oc8c([H])c([H])c(F)c([H])c8F)c([H])c7[H])c(C(=O)N([H])[H])c6N([H])[H])C5([H])[H])C([H])([H])C4([H])[H])c3C([H])([H])[H])c([H])c([H])c2C1([H])[H]

>  <smiles>  (75) 
[H]c1c([H])c([H])c2c(c1[H])C([H])([H])C([H])([H])C([H])([H])C2([H])N([H])C(=O)C1([H])N(C(=O)C([H])(N([H])C(=O)C([H])(N([H])C([H])([H])[H])C([H])([H])[H])C(C([H])([H])[H])(C([H])([H])[H])C([H])([H])[H])C([H])([H])c2c([H])c(OC([H])([H])c3c(C([H])([H])[H])c(C([H])([H])[H])c(C([H])([H])[H])c(C([H])(C([H])([H])[H])C4([H])C([H])([H])C([H])([H])N(C(=O)N5C([H])([H])C([H])([H])C([H])([H])C([H])(n6nc(-c7c([H])c([H])c(Oc8c([H])c([H])c(F)c([H])c8F)c([H])c7[H])c(C(=O)N([H])[H])c6N([H])[H])C5([H])[H])C([H])([H])C4([H])[H])c3C([H])([H])[H])c([H])c([H])c2C1([H])[H]

$$$$
75:0:0
     RDKit          3D

 96106  0  0  1  0  0  0  0  0999 V2000
  -27.6870  -20.2580   19.1790 C   0  0  0  0  0  3  0  0  0  0  0  0
  -29.2620  -21.7300   20.3020 C   0  0  0  0  0  0  0  0  0  0  0  0
  -28.9140  -20.4220   19.8590 C   0  0  0  0  0  0  0  0  0  0  0  0
  -28.3890  -22.8280   20.0390 C   0  0  0  0  0  3  0  0  0  0  0  0
  -26.8400  -21.3660   18.9750 C   0  0  0  0  0  0  0  0  0  0  0  0
  -30.5670  -21.9480   21.0610 C   0  0  0  0  0  1  0  0  0  0  0  0
  -25.5110  -21.2450   18.2560 C   0  0  0  0  0  1  0  0  0  0  0  0
  -27.2170  -22.5870   19.4110 N   0  0  0  0  0  0  0  0  0  0  0  0
  -26.5820  -23.3710   19.2490 H   0  0  0  0  0  0  0  0  0  0  0  0
  -29.9120  -24.9190   19.8640 C   0  0  0  0  0  2  0  0  0  0  0  0
  -28.6690  -24.2670   20.4340 C   0  0  0  0  0  3  0  0  0  0  0  0
  -28.5650  -25.4730   19.4930 C   0  0  0  0  0  3  0  0  0  0  0  0
  -28.4870  -26.7850   20.0700 O   0  0  0  0  0  0  0  0  0  0  0  0
  -24.6710  -31.8400   23.2990 C   0  0  0  0  0  0  0  0  0  0  0  0
  -27.2880  -27.4670   20.0870 C   0  0  0  0  0  0  0  0  0  0  0  0
  -23.4470  -30.4740   21.6380 C   0  0  0  0  0  3  0  0  0  0  0  0
  -24.8860  -28.9660   20.1660 C   0  0  0  0  0  0  0  0  0  0  0  0
  -25.9690  -30.8390   21.4200 C   0  0  0  0  0  2  0  0  0  0  0  0
  -26.0490  -29.4800   20.7510 C   0  0  0  0  0  0  0  0  0  0  0  0
  -27.2490  -28.7370   20.7100 C   0  0  0  0  0  3  0  0  0  0  0  0
  -26.1040  -26.9610   19.5050 C   0  0  0  0  0  3  0  0  0  0  0  0
  -24.9070  -27.7060   19.5430 C   0  0  0  0  0  3  0  0  0  0  0  0
  -23.6430  -29.8240   20.2420 C   0  0  0  0  0  2  0  0  0  0  0  0
  -24.7150  -31.0640   22.1780 N   0  0  0  0  0  0  0  0  0  0  0  0
  -23.5960  -32.0980   23.8560 O   0  0  0  0  0  0  0  0  0  0  0  0
  -22.8090  -29.4310   22.5830 C   0  0  0  0  0  0  0  0  0  0  0  0
  -21.4870  -29.2320   22.4490 N   0  0  0  0  0  0  0  0  0  0  0  0
  -23.4990  -28.8030   23.3910 O   0  0  0  0  0  0  0  0  0  0  0  0
  -20.9910  -29.7930   21.7710 H   0  0  0  0  0  0  0  0  0  0  0  0
  -18.1300  -27.9810   22.9110 C   0  0  0  0  0  0  0  0  0  0  0  0
  -20.6820  -28.2720   23.2020 C   0  0  0  0  0  3  0  0  0  0  0  0
  -20.8090  -26.8500   22.6090 C   0  0  0  0  0  2  0  0  0  0  0  0
  -19.7200  -26.5240   21.5850 C   0  0  0  0  0  2  0  0  0  0  0  0
  -18.3310  -26.6410   22.2210 C   0  0  0  0  0  2  0  0  0  0  0  0
  -19.2350  -28.7520   23.3580 C   0  0  0  0  0  0  0  0  0  0  0  0
  -18.9940  -30.0060   23.9610 C   0  0  0  0  0  3  0  0  0  0  0  0
  -17.6820  -30.4870   24.1240 C   0  0  0  0  0  3  0  0  0  0  0  0
  -16.5910  -29.7120   23.6940 C   0  0  0  0  0  3  0  0  0  0  0  0
  -16.8160  -28.4600   23.0930 C   0  0  0  0  0  3  0  0  0  0  0  0
  -25.9640  -32.4570   23.9180 C   0  0  0  0  0  3  0  0  0  0  0  0
  -25.6690  -33.8590   24.2460 N   0  0  0  0  0  0  0  0  0  0  0  0
  -25.9860  -34.9050   23.4700 C   0  0  0  0  0  0  0  0  0  0  0  0
  -26.6270  -34.7930   22.4230 O   0  0  0  0  0  0  0  0  0  0  0  0
  -25.0980  -34.0230   25.0620 H   0  0  0  0  0  0  0  0  0  0  0  0
  -24.2470  -36.6940   23.1580 C   0  0  0  0  0  1  0  0  0  0  0  0
  -25.5150  -36.2980   23.9310 C   0  0  0  0  0  3  0  0  0  0  0  0
  -27.6720  -37.1940   24.6850 C   0  0  0  0  0  1  0  0  0  0  0  0
  -26.5420  -37.3500   23.7730 N   0  0  0  0  0  0  0  0  0  0  0  0
  -26.1390  -38.2710   23.9240 H   0  0  0  0  0  0  0  0  0  0  0  0
  -26.4750  -31.6820   25.1920 C   0  0  1  0  0  0  0  0  0  0  0  0
  -25.3820  -31.4530   26.2620 C   0  0  0  0  0  1  0  0  0  0  0  0
  -27.0460  -30.3000   24.7960 C   0  0  0  0  0  1  0  0  0  0  0  0
  -27.6340  -32.4650   25.8540 C   0  0  0  0  0  1  0  0  0  0  0  0
  -29.8060  -19.3420   20.0700 N   0  0  0  0  0  0  0  0  0  0  0  0
  -30.6850  -19.5890   20.5090 H   0  0  0  0  0  0  0  0  0  0  0  0
  -30.8340  -14.5590   19.9020 C   0  0  0  0  0  0  0  0  0  0  0  0
  -30.4450  -12.4260   18.7200 C   0  0  0  0  0  2  0  0  0  0  0  0
  -29.3730  -12.6570   17.6340 C   0  0  0  0  0  2  0  0  0  0  0  0
  -27.9520  -12.4990   18.2130 C   0  0  0  0  0  2  0  0  0  0  0  0
  -27.7540  -13.2800   19.5410 C   0  0  0  0  0  3  0  0  0  0  0  0
  -28.9260  -12.9920   20.5070 C   0  0  0  0  0  2  0  0  0  0  0  0
  -30.1670  -13.3700   19.8160 N   0  0  0  0  0  0  0  0  0  0  0  0
  -31.9250  -14.7220   19.3420 O   0  0  0  0  0  0  0  0  0  0  0  0
  -29.4830  -17.4700   21.6840 C   0  0  0  0  0  2  0  0  0  0  0  0
  -29.5040  -15.9430   21.5420 C   0  0  0  0  0  2  0  0  0  0  0  0
  -30.2210  -16.9260   19.4960 C   0  0  0  0  0  2  0  0  0  0  0  0
  -29.3620  -17.9560   20.2460 C   0  0  0  0  0  3  0  0  0  0  0  0
  -30.0840  -15.6510   20.2240 N   0  0  0  0  0  0  0  0  0  0  0  0
  -25.4660  -13.8590   20.5650 C   0  0  0  0  0  0  0  0  0  0  0  0
  -24.4310  -13.0720   20.9950 C   0  0  0  0  0  0  0  0  0  0  0  0
  -24.8570  -11.7220   20.8050 C   0  0  0  0  0  0  0  0  0  0  0  0
  -26.4600  -12.9850   20.1500 N   0  0  0  0  0  0  0  0  0  0  0  0
  -26.1020  -11.6920   20.3460 N   0  0  0  0  0  0  0  0  0  0  0  0
  -24.1320  -10.4570   20.9780 C   0  0  0  0  0  0  0  0  0  0  0  0
  -24.5810   -9.4680   21.8800 C   0  0  0  0  0  3  0  0  0  0  0  0
  -23.8570   -8.2660   22.0440 C   0  0  0  0  0  3  0  0  0  0  0  0
  -22.6710   -8.0470   21.3040 C   0  0  0  0  0  0  0  0  0  0  0  0
  -22.2410   -9.0250   20.3910 C   0  0  0  0  0  3  0  0  0  0  0  0
  -22.9650  -10.2180   20.2260 C   0  0  0  0  0  3  0  0  0  0  0  0
  -21.9160   -6.9010   21.3790 O   0  0  0  0  0  0  0  0  0  0  0  0
  -21.7850   -6.2010   22.5520 C   0  0  0  0  0  0  0  0  0  0  0  0
  -21.2410   -6.7910   23.7140 C   0  0  0  0  0  3  0  0  0  0  0  0
  -21.0590   -6.0160   24.8760 C   0  0  0  0  0  3  0  0  0  0  0  0
  -21.4100   -4.6530   24.8770 C   0  0  0  0  0  0  0  0  0  0  0  0
  -21.9460   -4.0630   23.7190 C   0  0  0  0  0  3  0  0  0  0  0  0
  -22.1300   -4.8350   22.5590 C   0  0  0  0  0  0  0  0  0  0  0  0
  -22.6270   -4.2570   21.4400 F   0  0  0  0  0  0  0  0  0  0  0  0
  -21.2280   -3.9070   25.9910 F   0  0  0  0  0  0  0  0  0  0  0  0
  -23.0840  -13.5420   21.4660 C   0  0  0  0  0  0  0  0  0  0  0  0
  -22.4650  -12.8080   22.3830 N   0  0  0  0  0  0  0  0  0  0  0  0
  -22.5950  -14.5930   21.0550 O   0  0  0  0  0  0  0  0  0  0  0  0
  -22.8770  -11.9550   22.7350 H   0  0  0  0  0  0  0  0  0  0  0  0
  -21.5680  -13.1020   22.7390 H   0  0  0  0  0  0  0  0  0  0  0  0
  -25.6380  -15.2370   20.4760 N   0  0  0  0  0  0  0  0  0  0  0  0
  -24.9010  -15.8890   20.7210 H   0  0  0  0  0  0  0  0  0  0  0  0
  -26.4560  -15.6860   20.0870 H   0  0  0  0  0  0  0  0  0  0  0  0
  1  3  1  0
  2  6  1  0
  3 54  1  0
  3  2  2  0
  4  2  1  0
  4 11  1  0
  5  1  2  0
  5  8  1  0
  7  5  1  0
  8  4  1  0
  9  8  1  0
 11 10  1  0
 12 10  1  0
 12 13  1  0
 12 11  1  0
 13 15  1  0
 14 25  2  0
 15 20  1  0
 16 24  1  0
 16 26  1  0
 17 23  1  0
 17 19  1  0
 18 24  1  0
 19 18  1  0
 20 19  2  0
 21 22  1  0
 21 15  2  0
 22 17  2  0
 23 16  1  0
 24 14  1  0
 26 28  2  0
 27 26  1  0
 29 27  1  0
 30 39  2  0
 30 35  1  0
 31 27  1  0
 31 35  1  0
 32 31  1  0
 33 34  1  0
 33 32  1  0
 34 30  1  0
 35 36  2  0
 36 37  1  0
 38 37  2  0
 39 38  1  0
 40 14  1  0
 40 41  1  0
 40 50  1  0
 41 44  1  0
 42 46  1  0
 42 41  1  0
 43 42  2  0
 46 45  1  0
 48 49  1  0
 48 46  1  0
 48 47  1  0
 50 53  1  1
 50 51  1  0
 52 50  1  0
 54 55  1  0
 56 68  1  0
 57 62  1  0
 58 59  1  0
 58 57  1  0
 60 59  1  0
 60 72  1  0
 60 61  1  0
 62 56  1  0
 62 61  1  0
 63 56  2  0
 65 64  1  0
 66 68  1  0
 66 67  1  0
 67 54  1  0
 67 64  1  0
 68 65  1  0
 69 70  2  0
 70 89  1  0
 71 74  1  0
 71 70  1  0
 72 73  1  0
 72 69  1  0
 73 71  2  0
 74 75  1  0
 75 76  2  0
 77 80  1  0
 77 76  1  0
 78 77  2  0
 79 78  1  0
 79 74  2  0
 80 81  1  0
 81 86  2  0
 81 82  1  0
 82 83  2  0
 83 84  1  0
 84 88  1  0
 85 84  2  0
 86 85  1  0
 87 86  1  0
 89 90  1  0
 90 92  1  0
 90 93  1  0
 91 89  2  0
 94 69  1  0
 94 95  1  0
 96 94  1  0
M  ISO  4  12 101  13 101  56 100  68 100
M  END
>  <TORSDO>  (76) 
F 18

>  <SCORE>  (76) 
-13.754

>  <name>  (76) 
75

>  <ligand_id>  (76) 
75

>  <original_smiles>  (76) 
[H]c1c([H])c([H])c2c(c1[H])C([H])([H])C([H])([H])C([H])([H])C2([H])N([H])C(=O)C1([H])N(C(=O)C([H])(N([H])C(=O)C([H])(N([H])C([H])([H])[H])C([H])([H])[H])C(C([H])([H])[H])(C([H])([H])[H])C([H])([H])[H])C([H])([H])c2c([H])c(OC3([H])C([H])([H])C3([H])c3c(C([H])([H])[H])c(N([H])C4([H])C([H])([H])N(C(=O)N5C([H])([H])C([H])([H])C([H])([H])C([H])(n6nc(-c7c([H])c([H])c(Oc8c([H])c([H])c(F)c([H])c8F)c([H])c7[H])c(C(=O)N([H])[H])c6N([H])[H])C5([H])[H])C([H])([H])C4([H])[H])c([H])c(C([H])([H])[H])[n+]3[H])c([H])c([H])c2C1([H])[H]

>  <smiles>  (76) 
[H]c1c([H])c([H])c2c(c1[H])C([H])([H])C([H])([H])C([H])([H])C2([H])N([H])C(=O)C1([H])N(C(=O)C([H])(N([H])C(=O)C([H])(N([H])C([H])([H])[H])C([H])([H])[H])C(C([H])([H])[H])(C([H])([H])[H])C([H])([H])[H])C([H])([H])c2c([H])c(OC3([H])C([H])([H])C3([H])c3c(C([H])([H])[H])c(N([H])C4([H])C([H])([H])N(C(=O)N5C([H])([H])C([H])([H])C([H])([H])C([H])(n6nc(-c7c([H])c([H])c(Oc8c([H])c([H])c(F)c([H])c8F)c([H])c7[H])c(C(=O)N([H])[H])c6N([H])[H])C5([H])[H])C([H])([H])C4([H])[H])c([H])c(C([H])([H])[H])[n+]3[H])c([H])c([H])c2C1([H])[H]

$$$$
76:0:0
     RDKit          3D

102112  0  0  1  0  0  0  0  0999 V2000
  -28.1870  -20.0310   17.5140 N   0  0  0  0  0  0  0  0  0  0  0  0
  -27.3330  -19.8900   16.9940 H   0  0  0  0  0  0  0  0  0  0  0  0
  -30.3790  -17.7940   19.4270 C   0  0  0  0  0  3  0  0  0  0  0  0
  -31.4800  -18.7070   21.4070 C   0  0  0  0  0  3  0  0  0  0  0  0
  -29.4490  -18.8640   19.4650 C   0  0  0  0  0  0  0  0  0  0  0  0
  -31.3610  -17.6770   20.4490 C   0  0  0  0  0  0  0  0  0  0  0  0
  -29.4730  -19.7670   20.5450 C   0  0  0  0  0  0  0  0  0  0  0  0
  -30.5340  -19.7460   21.4670 C   0  0  0  0  0  0  0  0  0  0  0  0
  -26.9820  -18.9850   19.4010 C   0  0  0  0  0  2  0  0  0  0  0  0
  -27.1460  -19.8340   20.6880 C   0  0  0  0  0  2  0  0  0  0  0  0
  -28.2480  -18.9560   18.5290 C   0  0  0  0  0  3  0  0  0  0  0  0
  -28.3770  -20.5710   20.7510 O   0  0  0  0  0  0  0  0  0  0  0  0
  -30.6170  -20.9040   22.7470 Cl  0  0  0  0  0  0  0  0  0  0  0  0
  -32.2230  -16.4330   20.6790 C   0  0  0  0  0  2  0  0  0  0  0  0
  -33.1110  -14.4250   19.5350 C   0  0  0  0  0  0  0  0  0  0  0  0
  -32.4640  -12.1700   18.7940 C   0  0  0  0  0  2  0  0  0  0  0  0
  -31.4330  -12.3140   17.6520 C   0  0  0  0  0  2  0  0  0  0  0  0
  -29.9990  -12.4870   18.2060 C   0  0  0  0  0  2  0  0  0  0  0  0
  -29.9030  -13.5360   19.3480 C   0  0  0  0  0  3  0  0  0  0  0  0
  -31.0180  -13.2780   20.3830 C   0  0  0  0  0  2  0  0  0  0  0  0
  -32.3000  -13.3410   19.6690 N   0  0  0  0  0  0  0  0  0  0  0  0
  -34.2340  -14.3610   19.0380 O   0  0  0  0  0  0  0  0  0  0  0  0
  -32.4890  -15.6150   19.5020 N   0  0  0  0  0  0  0  0  0  0  0  0
  -32.9170  -16.1900   18.7940 H   0  0  0  0  0  0  0  0  0  0  0  0
  -27.8290  -14.6160   20.4200 C   0  0  0  0  0  0  0  0  0  0  0  0
  -26.6320  -14.0900   20.8270 C   0  0  0  0  0  0  0  0  0  0  0  0
  -26.7120  -12.6870   20.5740 C   0  0  0  0  0  0  0  0  0  0  0  0
  -28.5780  -13.5450   19.9610 N   0  0  0  0  0  0  0  0  0  0  0  0
  -27.9110  -12.3710   20.1020 N   0  0  0  0  0  0  0  0  0  0  0  0
  -25.6980  -11.6330   20.6970 C   0  0  0  0  0  0  0  0  0  0  0  0
  -25.8850  -10.5240   21.5510 C   0  0  0  0  0  3  0  0  0  0  0  0
  -24.8880   -9.5330   21.6650 C   0  0  0  0  0  3  0  0  0  0  0  0
  -23.6880   -9.6440   20.9230 C   0  0  0  0  0  0  0  0  0  0  0  0
  -23.5160  -10.7380   20.0590 C   0  0  0  0  0  3  0  0  0  0  0  0
  -24.5120  -11.7230   19.9410 C   0  0  0  0  0  3  0  0  0  0  0  0
  -22.6770   -8.7150   20.9520 O   0  0  0  0  0  0  0  0  0  0  0  0
  -22.3710   -8.0160   22.0930 C   0  0  0  0  0  0  0  0  0  0  0  0
  -22.1360   -8.6660   23.3250 C   0  0  0  0  0  3  0  0  0  0  0  0
  -21.7580   -7.9170   24.4550 C   0  0  0  0  0  3  0  0  0  0  0  0
  -21.6040   -6.5210   24.3580 C   0  0  0  0  0  0  0  0  0  0  0  0
  -21.8330   -5.8730   23.1300 C   0  0  0  0  0  3  0  0  0  0  0  0
  -22.2110   -6.6180   22.0010 C   0  0  0  0  0  0  0  0  0  0  0  0
  -22.4090   -5.9910   20.8170 F   0  0  0  0  0  0  0  0  0  0  0  0
  -21.2350   -5.8000   25.4420 F   0  0  0  0  0  0  0  0  0  0  0  0
  -25.4420  -14.8570   21.3320 C   0  0  0  0  0  0  0  0  0  0  0  0
  -24.7360  -14.3130   22.3180 N   0  0  0  0  0  0  0  0  0  0  0  0
  -25.1630  -15.9720   20.8920 O   0  0  0  0  0  0  0  0  0  0  0  0
  -24.9740  -13.4080   22.6940 H   0  0  0  0  0  0  0  0  0  0  0  0
  -23.9440  -14.8080   22.7030 H   0  0  0  0  0  0  0  0  0  0  0  0
  -28.3390  -15.9110   20.3900 N   0  0  0  0  0  0  0  0  0  0  0  0
  -27.8040  -16.7100   20.7020 H   0  0  0  0  0  0  0  0  0  0  0  0
  -29.2680  -16.1490   20.0640 H   0  0  0  0  0  0  0  0  0  0  0  0
  -27.3240  -23.6130   18.1100 C   0  0  0  0  0  3  0  0  0  0  0  0
  -28.5770  -24.1800   17.8220 C   0  0  0  0  0  0  0  0  0  0  0  0
  -27.1480  -22.2180   17.9930 C   0  0  0  0  0  0  0  0  0  0  0  0
  -29.6420  -23.2860   17.5490 C   0  0  0  0  0  0  0  0  0  0  0  0
  -28.2880  -21.4040   17.7870 C   0  0  0  0  0  0  0  0  0  0  0  0
  -25.7280  -21.6780   17.9980 C   0  0  0  0  0  1  0  0  0  0  0  0
  -31.0190  -23.7720   17.1240 C   0  0  0  0  0  1  0  0  0  0  0  0
  -29.5080  -21.9350   17.5950 N   0  0  0  0  0  0  0  0  0  0  0  0
  -28.7330  -25.7050   17.7920 C   0  0  0  0  0  2  0  0  0  0  0  0
  -27.7770  -26.3850   16.9630 O   0  0  0  0  0  0  0  0  0  0  0  0
  -25.7410  -29.2770   23.1490 C   0  0  0  0  0  0  0  0  0  0  0  0
  -26.8790  -27.1880   17.6270 C   0  0  0  0  0  0  0  0  0  0  0  0
  -24.1270  -29.4670   21.2840 C   0  0  0  0  0  3  0  0  0  0  0  0
  -25.0210  -28.8300   18.9800 C   0  0  0  0  0  0  0  0  0  0  0  0
  -26.6390  -29.3130   20.8250 C   0  0  0  0  0  2  0  0  0  0  0  0
  -26.3020  -28.6340   19.5170 C   0  0  0  0  0  0  0  0  0  0  0  0
  -27.2370  -27.8200   18.8390 C   0  0  0  0  0  3  0  0  0  0  0  0
  -25.5960  -27.4150   17.0870 C   0  0  0  0  0  3  0  0  0  0  0  0
  -24.6600  -28.2160   17.7680 C   0  0  0  0  0  3  0  0  0  0  0  0
  -24.0750  -29.7200   19.7540 C   0  0  0  0  0  2  0  0  0  0  0  0
  -25.5250  -29.3250   21.8040 N   0  0  0  0  0  0  0  0  0  0  0  0
  -24.8010  -29.3890   23.9480 O   0  0  0  0  0  0  0  0  0  0  0  0
  -23.2280  -28.2500   21.5990 C   0  0  0  0  0  0  0  0  0  0  0  0
  -21.9040  -28.4660   21.5790 N   0  0  0  0  0  0  0  0  0  0  0  0
  -23.7200  -27.1380   21.8060 O   0  0  0  0  0  0  0  0  0  0  0  0
  -21.5800  -29.4150   21.4410 H   0  0  0  0  0  0  0  0  0  0  0  0
  -18.3440  -27.8730   21.4670 C   0  0  0  0  0  0  0  0  0  0  0  0
  -20.8730  -27.4490   21.7670 C   0  0  0  0  0  3  0  0  0  0  0  0
  -20.7740  -26.5240   20.5330 C   0  0  0  0  0  2  0  0  0  0  0  0
  -19.6720  -26.9000   19.5330 C   0  0  0  0  0  2  0  0  0  0  0  0
  -18.3070  -27.0240   20.2080 C   0  0  0  0  0  2  0  0  0  0  0  0
  -19.5450  -28.0770   22.1950 C   0  0  0  0  0  0  0  0  0  0  0  0
  -19.5200  -28.8880   23.3540 C   0  0  0  0  0  3  0  0  0  0  0  0
  -18.3260  -29.4960   23.7810 C   0  0  0  0  0  3  0  0  0  0  0  0
  -17.1370  -29.2820   23.0640 C   0  0  0  0  0  3  0  0  0  0  0  0
  -17.1480  -28.4750   21.9110 C   0  0  0  0  0  3  0  0  0  0  0  0
  -27.1700  -29.0950   23.7450 C   0  0  0  0  0  3  0  0  0  0  0  0
  -27.5860  -27.5830   23.9320 C   0  0  1  0  0  0  0  0  0  0  0  0
  -26.5510  -26.7480   24.7180 C   0  0  0  0  0  1  0  0  0  0  0  0
  -27.7980  -26.9060   22.5590 C   0  0  0  0  0  1  0  0  0  0  0  0
  -28.9370  -27.4970   24.6790 C   0  0  0  0  0  1  0  0  0  0  0  0
  -27.2060  -29.8090   25.0290 N   0  0  0  0  0  0  0  0  0  0  0  0
  -27.9500  -30.8960   25.2710 C   0  0  0  0  0  0  0  0  0  0  0  0
  -28.7380  -31.3650   24.4480 O   0  0  0  0  0  0  0  0  0  0  0  0
  -26.5420  -29.5170   25.7310 H   0  0  0  0  0  0  0  0  0  0  0  0
  -26.9690  -32.8630   26.4910 C   0  0  0  0  0  1  0  0  0  0  0  0
  -27.7900  -31.5730   26.6470 C   0  0  0  0  0  3  0  0  0  0  0  0
  -29.7960  -30.6840   27.7470 C   0  0  0  0  0  1  0  0  0  0  0  0
  -29.0790  -31.8770   27.3050 N   0  0  0  0  0  0  0  0  0  0  0  0
  -28.9390  -32.4850   28.1090 H   0  0  0  0  0  0  0  0  0  0  0  0
  1 57  1  0
  2  1  1  0
  3  5  2  0
  3  6  1  0
  4  8  1  0
  5  7  1  0
  6 14  1  0
  6  4  2  0
  7 12  1  0
  7  8  2  0
  8 13  1  0
  9 10  1  0
 10 12  1  0
 11  1  1  0
 11  9  1  0
 11  5  1  0
 15 21  1  0
 16 21  1  0
 17 18  1  0
 17 16  1  0
 19 18  1  0
 19 28  1  0
 19 20  1  0
 21 20  1  0
 22 15  2  0
 23 15  1  0
 23 14  1  0
 24 23  1  0
 25 26  2  0
 26 45  1  0
 27 30  1  0
 27 26  1  0
 28 29  1  0
 28 25  1  0
 29 27  2  0
 30 31  1  0
 31 32  2  0
 33 36  1  0
 33 32  1  0
 34 33  2  0
 35 34  1  0
 35 30  2  0
 36 37  1  0
 37 38  1  0
 38 39  2  0
 40 39  1  0
 40 44  1  0
 41 40  2  0
 42 37  2  0
 42 41  1  0
 43 42  1  0
 45 46  1  0
 46 48  1  0
 46 49  1  0
 47 45  2  0
 50 25  1  0
 50 51  1  0
 52 50  1  0
 54 53  2  0
 55 58  1  0
 55 53  1  0
 56 60  2  0
 56 54  1  0
 57 55  2  0
 59 56  1  0
 60 57  1  0
 61 54  1  0
 62 64  1  0
 62 61  1  0
 63 74  2  0
 64 69  1  0
 65 75  1  0
 65 73  1  0
 66 68  1  0
 66 72  1  0
 67 73  1  0
 68 67  1  0
 69 68  2  0
 70 64  2  0
 70 71  1  0
 71 66  2  0
 72 65  1  0
 73 63  1  0
 75 77  2  0
 76 75  1  0
 78 76  1  0
 79 88  2  0
 79 84  1  0
 80 76  1  0
 80 84  1  0
 81 80  1  0
 82 83  1  0
 82 81  1  0
 83 79  1  0
 84 85  2  0
 85 86  1  0
 87 86  2  0
 88 87  1  0
 89 63  1  0
 89 90  1  0
 89 94  1  0
 90 93  1  1
 90 91  1  0
 92 90  1  0
 94 95  1  0
 94 97  1  0
 95 99  1  0
 96 95  2  0
 99 98  1  0
 99101  1  0
101100  1  0
101102  1  0
M  ISO  4  15 100  23 100  61 101  62 101
M  END
>  <TORSDO>  (77) 
F 20

>  <SCORE>  (77) 
-7.843

>  <name>  (77) 
76

>  <ligand_id>  (77) 
76

>  <original_smiles>  (77) 
[H]c1c([H])c([H])c2c(c1[H])C([H])([H])C([H])([H])C([H])([H])C2([H])N([H])C(=O)C1([H])N(C(=O)C([H])(N([H])C(=O)C([H])(N([H])C([H])([H])[H])C([H])([H])[H])C(C([H])([H])[H])(C([H])([H])[H])C([H])([H])[H])C([H])([H])c2c([H])c(OC([H])([H])c3c(C([H])([H])[H])nc(N([H])C4([H])c5c([H])c(C([H])([H])N([H])C(=O)N6C([H])([H])C([H])([H])C([H])([H])C([H])(n7nc(-c8c([H])c([H])c(Oc9c([H])c([H])c(F)c([H])c9F)c([H])c8[H])c(C(=O)N([H])[H])c7N([H])[H])C6([H])[H])c([H])c(Cl)c5OC([H])([H])C4([H])[H])c(C([H])([H])[H])c3[H])c([H])c([H])c2C1([H])[H]

>  <smiles>  (77) 
[H]c1c([H])c([H])c2c(c1[H])C([H])([H])C([H])([H])C([H])([H])C2([H])N([H])C(=O)C1([H])N(C(=O)C([H])(N([H])C(=O)C([H])(N([H])C([H])([H])[H])C([H])([H])[H])C(C([H])([H])[H])(C([H])([H])[H])C([H])([H])[H])C([H])([H])c2c([H])c(OC([H])([H])c3c(C([H])([H])[H])nc(N([H])C4([H])c5c([H])c(C([H])([H])N([H])C(=O)N6C([H])([H])C([H])([H])C([H])([H])C([H])(n7nc(-c8c([H])c([H])c(Oc9c([H])c([H])c(F)c([H])c9F)c([H])c8[H])c(C(=O)N([H])[H])c7N([H])[H])C6([H])[H])c([H])c(Cl)c5OC([H])([H])C4([H])[H])c(C([H])([H])[H])c3[H])c([H])c([H])c2C1([H])[H]

$$$$
77:0:0
     RDKit          3D

 94103  0  0  1  0  0  0  0  0999 V2000
  -28.4620  -23.6270   18.1960 C   0  0  0  0  0  3  0  0  0  0  0  0
  -29.7670  -24.0830   20.1890 C   0  0  0  0  0  3  0  0  0  0  0  0
  -28.9540  -24.5500   19.1360 C   0  0  0  0  0  0  0  0  0  0  0  0
  -28.8370  -22.2680   18.2420 C   0  0  0  0  0  0  0  0  0  0  0  0
  -30.1580  -22.7230   20.2510 C   0  0  0  0  0  0  0  0  0  0  0  0
  -29.7340  -21.8080   19.2480 C   0  0  0  0  0  0  0  0  0  0  0  0
  -28.3050  -21.3520   17.1510 C   0  0  0  0  0  1  0  0  0  0  0  0
  -31.0940  -22.2860   21.3660 C   0  0  0  0  0  1  0  0  0  0  0  0
  -28.7150  -26.0400   18.9140 C   0  0  0  0  0  2  0  0  0  0  0  0
  -28.3860  -26.7750   20.0940 O   0  0  0  0  0  0  0  0  0  0  0  0
  -24.5630  -31.8920   23.2130 C   0  0  0  0  0  0  0  0  0  0  0  0
  -27.1980  -27.4720   20.0980 C   0  0  0  0  0  0  0  0  0  0  0  0
  -23.3480  -30.4940   21.5720 C   0  0  0  0  0  3  0  0  0  0  0  0
  -24.7930  -28.9590   20.1380 C   0  0  0  0  0  0  0  0  0  0  0  0
  -25.8700  -30.8560   21.3630 C   0  0  0  0  0  2  0  0  0  0  0  0
  -25.9510  -29.4840   20.7250 C   0  0  0  0  0  0  0  0  0  0  0  0
  -27.1520  -28.7430   20.7140 C   0  0  0  0  0  3  0  0  0  0  0  0
  -26.0140  -26.9450   19.5310 C   0  0  0  0  0  3  0  0  0  0  0  0
  -24.8170  -27.6860   19.5430 C   0  0  0  0  0  3  0  0  0  0  0  0
  -23.5500  -29.8180   20.1900 C   0  0  0  0  0  2  0  0  0  0  0  0
  -24.6110  -31.0950   22.1080 N   0  0  0  0  0  0  0  0  0  0  0  0
  -23.4840  -32.1630   23.7590 O   0  0  0  0  0  0  0  0  0  0  0  0
  -22.7030  -29.4680   22.5330 C   0  0  0  0  0  0  0  0  0  0  0  0
  -21.3770  -29.2900   22.4150 N   0  0  0  0  0  0  0  0  0  0  0  0
  -23.3920  -28.8380   23.3400 O   0  0  0  0  0  0  0  0  0  0  0  0
  -20.8840  -29.8540   21.7370 H   0  0  0  0  0  0  0  0  0  0  0  0
  -18.0020  -28.1160   22.9400 C   0  0  0  0  0  0  0  0  0  0  0  0
  -20.5640  -28.3530   23.1870 C   0  0  0  0  0  3  0  0  0  0  0  0
  -20.6490  -26.9250   22.5980 C   0  0  0  0  0  2  0  0  0  0  0  0
  -19.5350  -26.6190   21.5930 C   0  0  0  0  0  2  0  0  0  0  0  0
  -18.1600  -26.7700   22.2520 C   0  0  0  0  0  2  0  0  0  0  0  0
  -19.1310  -28.8660   23.3640 C   0  0  0  0  0  0  0  0  0  0  0  0
  -18.9280  -30.1270   23.9660 C   0  0  0  0  0  3  0  0  0  0  0  0
  -17.6290  -30.6370   24.1480 C   0  0  0  0  0  3  0  0  0  0  0  0
  -16.5140  -29.8840   23.7410 C   0  0  0  0  0  3  0  0  0  0  0  0
  -16.7020  -28.6250   23.1430 C   0  0  0  0  0  3  0  0  0  0  0  0
  -25.8530  -32.5210   23.8270 C   0  0  0  0  0  3  0  0  0  0  0  0
  -26.3790  -31.7460   25.0980 C   0  0  1  0  0  0  0  0  0  0  0  0
  -25.2940  -31.5060   26.1740 C   0  0  0  0  0  1  0  0  0  0  0  0
  -26.9580  -30.3700   24.6960 C   0  0  0  0  0  1  0  0  0  0  0  0
  -27.5360  -32.5370   25.7520 C   0  0  0  0  0  1  0  0  0  0  0  0
  -25.5490  -33.9180   24.1600 N   0  0  0  0  0  0  0  0  0  0  0  0
  -25.8890  -34.9710   23.4040 C   0  0  0  0  0  0  0  0  0  0  0  0
  -26.5650  -34.8670   22.3760 O   0  0  0  0  0  0  0  0  0  0  0  0
  -24.9520  -34.0730   24.9580 H   0  0  0  0  0  0  0  0  0  0  0  0
  -24.1790  -36.7750   23.0290 C   0  0  0  0  0  1  0  0  0  0  0  0
  -25.4030  -36.3600   23.8610 C   0  0  0  0  0  3  0  0  0  0  0  0
  -27.5280  -37.2230   24.7330 C   0  0  0  0  0  1  0  0  0  0  0  0
  -26.4440  -37.4060   23.7720 N   0  0  0  0  0  0  0  0  0  0  0  0
  -26.0420  -38.3280   23.9200 H   0  0  0  0  0  0  0  0  0  0  0  0
  -30.3850  -20.4190   19.1320 C   0  0  0  0  0  2  0  0  0  0  0  0
  -30.1670  -19.5010   20.2140 O   0  0  0  0  0  0  0  0  0  0  0  0
  -30.7720  -14.5260   20.4170 C   0  0  0  0  0  0  0  0  0  0  0  0
  -30.4660  -12.3650   19.2910 C   0  0  0  0  0  2  0  0  0  0  0  0
  -29.5380  -12.5880   18.0790 C   0  0  0  0  0  2  0  0  0  0  0  0
  -28.0580  -12.4700   18.4960 C   0  0  0  0  0  2  0  0  0  0  0  0
  -27.7140  -13.2950   19.7650 C   0  0  0  0  0  3  0  0  0  0  0  0
  -28.7650  -13.0800   20.8790 C   0  0  0  0  0  2  0  0  0  0  0  0
  -30.0900  -13.3560   20.3070 N   0  0  0  0  0  0  0  0  0  0  0  0
  -31.9570  -14.6440   20.0930 O   0  0  0  0  0  0  0  0  0  0  0  0
  -31.1190  -17.6290   21.5240 C   0  0  0  0  0  2  0  0  0  0  0  0
  -30.7940  -17.4090   19.0060 C   0  0  0  0  0  2  0  0  0  0  0  0
  -30.0470  -16.5230   21.6980 C   0  0  0  0  0  2  0  0  0  0  0  0
  -29.6690  -16.4070   19.3300 C   0  0  0  0  0  2  0  0  0  0  0  0
  -31.0750  -18.3850   20.1740 C   0  0  0  0  0  3  0  0  0  0  0  0
  -29.9880  -15.6280   20.5350 N   0  0  0  0  0  0  0  0  0  0  0  0
  -25.3110  -13.9060   20.4470 C   0  0  0  0  0  0  0  0  0  0  0  0
  -24.2390  -13.1360   20.8120 C   0  0  0  0  0  0  0  0  0  0  0  0
  -24.7030  -11.7840   20.8010 C   0  0  0  0  0  0  0  0  0  0  0  0
  -26.3580  -13.0230   20.2360 N   0  0  0  0  0  0  0  0  0  0  0  0
  -25.9950  -11.7430   20.5060 N   0  0  0  0  0  0  0  0  0  0  0  0
  -23.9760  -10.5230   20.9960 C   0  0  0  0  0  0  0  0  0  0  0  0
  -24.4020   -9.5660   21.9440 C   0  0  0  0  0  3  0  0  0  0  0  0
  -23.6790   -8.3680   22.1270 C   0  0  0  0  0  3  0  0  0  0  0  0
  -22.5140   -8.1190   21.3620 C   0  0  0  0  0  0  0  0  0  0  0  0
  -22.1080   -9.0650   20.4040 C   0  0  0  0  0  3  0  0  0  0  0  0
  -22.8330  -10.2540   20.2200 C   0  0  0  0  0  3  0  0  0  0  0  0
  -21.7640   -6.9720   21.4510 O   0  0  0  0  0  0  0  0  0  0  0  0
  -21.7050   -6.2390   22.6090 C   0  0  0  0  0  0  0  0  0  0  0  0
  -21.2580   -6.8000   23.8250 C   0  0  0  0  0  3  0  0  0  0  0  0
  -21.1490   -5.9930   24.9740 C   0  0  0  0  0  3  0  0  0  0  0  0
  -21.4760   -4.6250   24.9100 C   0  0  0  0  0  0  0  0  0  0  0  0
  -21.9160   -4.0630   23.6990 C   0  0  0  0  0  3  0  0  0  0  0  0
  -22.0290   -4.8670   22.5520 C   0  0  0  0  0  0  0  0  0  0  0  0
  -22.4330   -4.3160   21.3810 F   0  0  0  0  0  0  0  0  0  0  0  0
  -21.3640   -3.8490   26.0140 F   0  0  0  0  0  0  0  0  0  0  0  0
  -22.8380  -13.6130   21.0650 C   0  0  0  0  0  0  0  0  0  0  0  0
  -22.1020  -12.9220   21.9300 N   0  0  0  0  0  0  0  0  0  0  0  0
  -22.4030  -14.6320   20.5300 O   0  0  0  0  0  0  0  0  0  0  0  0
  -22.4670  -12.0980   22.3840 H   0  0  0  0  0  0  0  0  0  0  0  0
  -21.1610  -13.2240   22.1410 H   0  0  0  0  0  0  0  0  0  0  0  0
  -25.4800  -15.2750   20.2580 N   0  0  0  0  0  0  0  0  0  0  0  0
  -24.7240  -15.9420   20.3630 H   0  0  0  0  0  0  0  0  0  0  0  0
  -26.3500  -15.7030   19.9700 H   0  0  0  0  0  0  0  0  0  0  0  0
  1  4  2  0
  1  3  1  0
  2  5  1  0
  3  2  2  0
  4  6  1  0
  5  8  1  0
  6  5  2  0
  7  4  1  0
  9  3  1  0
  9 10  1  0
 10 12  1  0
 11 22  2  0
 12 17  1  0
 13 21  1  0
 13 23  1  0
 14 20  1  0
 14 16  1  0
 15 21  1  0
 16 15  1  0
 17 16  2  0
 18 19  1  0
 18 12  2  0
 19 14  2  0
 20 13  1  0
 21 11  1  0
 23 25  2  0
 24 23  1  0
 26 24  1  0
 27 36  2  0
 27 32  1  0
 28 24  1  0
 28 32  1  0
 29 28  1  0
 30 31  1  0
 30 29  1  0
 31 27  1  0
 32 33  2  0
 33 34  1  0
 35 34  2  0
 36 35  1  0
 37 11  1  0
 37 42  1  0
 37 38  1  0
 38 41  1  1
 38 39  1  0
 40 38  1  0
 42 45  1  0
 43 47  1  0
 43 42  1  0
 44 43  2  0
 47 46  1  0
 49 47  1  0
 49 50  1  0
 49 48  1  0
 51  6  1  0
 51 52  1  0
 53 66  1  0
 54 59  1  0
 55 56  1  0
 55 54  1  0
 57 56  1  0
 57 70  1  0
 57 58  1  0
 59 53  1  0
 59 58  1  0
 60 53  2  0
 61 63  1  0
 62 64  1  0
 62 65  1  0
 64 66  1  0
 65 52  1  0
 65 61  1  0
 66 63  1  0
 67 68  2  0
 68 87  1  0
 69 68  1  0
 69 72  1  0
 70 67  1  0
 70 71  1  0
 71 69  2  0
 72 73  1  0
 73 74  2  0
 75 78  1  0
 75 74  1  0
 76 75  2  0
 77 76  1  0
 77 72  2  0
 78 79  1  0
 79 80  1  0
 80 81  2  0
 82 81  1  0
 82 86  1  0
 83 82  2  0
 84 79  2  0
 84 83  1  0
 85 84  1  0
 87 88  1  0
 88 91  1  0
 88 90  1  0
 89 87  2  0
 92 93  1  0
 92 67  1  0
 94 92  1  0
M  ISO  4   9 101  10 101  53 100  66 100
M  END
>  <TORSDO>  (78) 
F 19

>  <SCORE>  (78) 
-14.430

>  <name>  (78) 
77

>  <ligand_id>  (78) 
77

>  <original_smiles>  (78) 
[H]c1c([H])c([H])c2c(c1[H])C([H])([H])C([H])([H])C([H])([H])C2([H])N([H])C(=O)C1([H])N(C(=O)C([H])(N([H])C(=O)C([H])(N([H])C([H])([H])[H])C([H])([H])[H])C(C([H])([H])[H])(C([H])([H])[H])C([H])([H])[H])C([H])([H])c2c([H])c(OC([H])([H])c3c([H])c(C([H])([H])[H])c(C([H])([H])OC4([H])C([H])([H])C([H])([H])N(C(=O)N5C([H])([H])C([H])([H])C([H])([H])C([H])(n6nc(-c7c([H])c([H])c(Oc8c([H])c([H])c(F)c([H])c8F)c([H])c7[H])c(C(=O)N([H])[H])c6N([H])[H])C5([H])[H])C([H])([H])C4([H])[H])c(C([H])([H])[H])c3[H])c([H])c([H])c2C1([H])[H]

>  <smiles>  (78) 
[H]c1c([H])c([H])c2c(c1[H])C([H])([H])C([H])([H])C([H])([H])C2([H])N([H])C(=O)C1([H])N(C(=O)C([H])(N([H])C(=O)C([H])(N([H])C([H])([H])[H])C([H])([H])[H])C(C([H])([H])[H])(C([H])([H])[H])C([H])([H])[H])C([H])([H])c2c([H])c(OC([H])([H])c3c([H])c(C([H])([H])[H])c(C([H])([H])OC4([H])C([H])([H])C([H])([H])N(C(=O)N5C([H])([H])C([H])([H])C([H])([H])C([H])(n6nc(-c7c([H])c([H])c(Oc8c([H])c([H])c(F)c([H])c8F)c([H])c7[H])c(C(=O)N([H])[H])c6N([H])[H])C5([H])[H])C([H])([H])C4([H])[H])c(C([H])([H])[H])c3[H])c([H])c([H])c2C1([H])[H]

$$$$
78:0:0
     RDKit          3D

 95104  0  0  1  0  0  0  0  0999 V2000
  -28.4470  -20.6740   19.9180 C   0  0  0  0  0  3  0  0  0  0  0  0
  -30.4010  -22.4230   20.8660 C   0  0  0  0  0  3  0  0  0  0  0  0
  -29.7100  -20.1410   20.2770 C   0  0  0  0  0  0  0  0  0  0  0  0
  -30.6970  -21.0470   20.7420 C   0  0  0  0  0  0  0  0  0  0  0  0
  -29.1290  -22.9490   20.5450 C   0  0  0  0  0  0  0  0  0  0  0  0
  -28.1510  -22.0630   20.0260 C   0  0  0  0  0  0  0  0  0  0  0  0
  -32.0860  -20.5770   21.1430 C   0  0  0  0  0  1  0  0  0  0  0  0
  -30.7420  -14.5450   20.1240 C   0  0  0  0  0  0  0  0  0  0  0  0
  -30.3790  -12.3650   19.0420 C   0  0  0  0  0  2  0  0  0  0  0  0
  -29.3960  -12.5770   17.8720 C   0  0  0  0  0  2  0  0  0  0  0  0
  -27.9390  -12.4540   18.3620 C   0  0  0  0  0  2  0  0  0  0  0  0
  -27.6540  -13.2900   19.6400 C   0  0  0  0  0  3  0  0  0  0  0  0
  -28.7580  -13.0820   20.7020 C   0  0  0  0  0  2  0  0  0  0  0  0
  -30.0500  -13.3700   20.0660 N   0  0  0  0  0  0  0  0  0  0  0  0
  -31.9100  -14.6320   19.7330 O   0  0  0  0  0  0  0  0  0  0  0  0
  -29.7600  -17.8600   21.4910 C   0  0  0  0  0  2  0  0  0  0  0  0
  -29.3070  -17.8860   19.0340 C   0  0  0  0  0  2  0  0  0  0  0  0
  -29.5460  -16.3140   21.3850 C   0  0  0  0  0  2  0  0  0  0  0  0
  -29.9230  -16.4770   18.8810 C   0  0  0  0  0  2  0  0  0  0  0  0
  -30.0120  -18.6240   20.1740 C   0  0  0  0  0  3  0  0  0  0  0  0
  -29.9720  -15.6680   20.1260 N   0  0  0  0  0  0  0  0  0  0  0  0
  -25.2960  -13.8960   20.4720 C   0  0  0  0  0  0  0  0  0  0  0  0
  -24.2380  -13.1230   20.8690 C   0  0  0  0  0  0  0  0  0  0  0  0
  -24.6860  -11.7680   20.7860 C   0  0  0  0  0  0  0  0  0  0  0  0
  -26.3230  -13.0120   20.1760 N   0  0  0  0  0  0  0  0  0  0  0  0
  -25.9610  -11.7270   20.4230 N   0  0  0  0  0  0  0  0  0  0  0  0
  -23.9550  -10.5090   20.9780 C   0  0  0  0  0  0  0  0  0  0  0  0
  -24.3900   -9.5340   21.9040 C   0  0  0  0  0  3  0  0  0  0  0  0
  -23.6610   -8.3390   22.0820 C   0  0  0  0  0  3  0  0  0  0  0  0
  -22.4830   -8.1080   21.3340 C   0  0  0  0  0  0  0  0  0  0  0  0
  -22.0670   -9.0700   20.3960 C   0  0  0  0  0  3  0  0  0  0  0  0
  -22.7960  -10.2570   20.2150 C   0  0  0  0  0  3  0  0  0  0  0  0
  -21.7260   -6.9640   21.4180 O   0  0  0  0  0  0  0  0  0  0  0  0
  -21.6450   -6.2430   22.5840 C   0  0  0  0  0  0  0  0  0  0  0  0
  -21.1620   -6.8140   23.7800 C   0  0  0  0  0  3  0  0  0  0  0  0
  -21.0270   -6.0200   24.9360 C   0  0  0  0  0  3  0  0  0  0  0  0
  -21.3660   -4.6540   24.8970 C   0  0  0  0  0  0  0  0  0  0  0  0
  -21.8450   -4.0820   23.7050 C   0  0  0  0  0  3  0  0  0  0  0  0
  -21.9790   -4.8740   22.5510 C   0  0  0  0  0  0  0  0  0  0  0  0
  -22.4200   -4.3130   21.3990 F   0  0  0  0  0  0  0  0  0  0  0  0
  -21.2300   -3.8880   26.0060 F   0  0  0  0  0  0  0  0  0  0  0  0
  -22.8580  -13.6030   21.2160 C   0  0  0  0  0  0  0  0  0  0  0  0
  -22.1640  -12.8950   22.0960 N   0  0  0  0  0  0  0  0  0  0  0  0
  -22.4080  -14.6470   20.7420 O   0  0  0  0  0  0  0  0  0  0  0  0
  -22.5450  -12.0500   22.5000 H   0  0  0  0  0  0  0  0  0  0  0  0
  -21.2390  -13.1970   22.3730 H   0  0  0  0  0  0  0  0  0  0  0  0
  -25.4670  -15.2690   20.3190 N   0  0  0  0  0  0  0  0  0  0  0  0
  -24.7090  -15.9280   20.4680 H   0  0  0  0  0  0  0  0  0  0  0  0
  -26.3170  -15.7040   19.9840 H   0  0  0  0  0  0  0  0  0  0  0  0
  -27.6910  -24.5560   21.8960 C   0  0  0  0  0  1  0  0  0  0  0  0
  -28.8360  -24.4330   20.8740 C   0  0  0  0  0  3  0  0  0  0  0  0
  -28.6330  -25.3880   19.6640 C   0  0  0  0  0  2  0  0  0  0  0  0
  -28.5250  -26.7690   20.0980 O   0  0  0  0  0  0  0  0  0  0  0  0
  -24.5980  -31.8920   23.1850 C   0  0  0  0  0  0  0  0  0  0  0  0
  -27.3120  -27.4460   20.1210 C   0  0  0  0  0  0  0  0  0  0  0  0
  -23.4240  -30.4810   21.5330 C   0  0  0  0  0  3  0  0  0  0  0  0
  -24.9000  -28.9430   20.1420 C   0  0  0  0  0  0  0  0  0  0  0  0
  -25.9500  -30.8540   21.3600 C   0  0  0  0  0  2  0  0  0  0  0  0
  -26.0530  -29.4760   20.7290 C   0  0  0  0  0  0  0  0  0  0  0  0
  -27.2620  -28.7360   20.7130 C   0  0  0  0  0  3  0  0  0  0  0  0
  -26.1220  -26.9260   19.5580 C   0  0  0  0  0  3  0  0  0  0  0  0
  -24.9270  -27.6650   19.5650 C   0  0  0  0  0  3  0  0  0  0  0  0
  -23.6530  -29.7940   20.1630 C   0  0  0  0  0  2  0  0  0  0  0  0
  -24.6780  -31.0910   22.0870 N   0  0  0  0  0  0  0  0  0  0  0  0
  -23.5100  -32.1530   23.7160 O   0  0  0  0  0  0  0  0  0  0  0  0
  -22.7650  -29.4590   22.4860 C   0  0  0  0  0  0  0  0  0  0  0  0
  -21.4400  -29.2790   22.3520 N   0  0  0  0  0  0  0  0  0  0  0  0
  -23.4420  -28.8260   23.3010 O   0  0  0  0  0  0  0  0  0  0  0  0
  -20.9480  -29.8500   21.6770 H   0  0  0  0  0  0  0  0  0  0  0  0
  -18.0600  -28.1000   22.8580 C   0  0  0  0  0  0  0  0  0  0  0  0
  -20.6230  -28.3360   23.1150 C   0  0  0  0  0  3  0  0  0  0  0  0
  -20.7070  -26.9100   22.5220 C   0  0  0  0  0  2  0  0  0  0  0  0
  -19.5990  -26.6100   21.5080 C   0  0  0  0  0  2  0  0  0  0  0  0
  -18.2220  -26.7560   22.1650 C   0  0  0  0  0  2  0  0  0  0  0  0
  -19.1880  -28.8450   23.2910 C   0  0  0  0  0  0  0  0  0  0  0  0
  -18.9860  -30.1020   23.9000 C   0  0  0  0  0  3  0  0  0  0  0  0
  -17.6890  -30.6180   24.0740 C   0  0  0  0  0  3  0  0  0  0  0  0
  -16.5750  -29.8680   23.6580 C   0  0  0  0  0  3  0  0  0  0  0  0
  -16.7600  -28.6100   23.0580 C   0  0  0  0  0  3  0  0  0  0  0  0
  -25.8700  -32.5370   23.8210 C   0  0  0  0  0  3  0  0  0  0  0  0
  -26.3850  -31.7650   25.0990 C   0  0  1  0  0  0  0  0  0  0  0  0
  -25.2890  -31.5180   26.1590 C   0  0  0  0  0  1  0  0  0  0  0  0
  -26.9880  -30.3960   24.7040 C   0  0  0  0  0  1  0  0  0  0  0  0
  -27.5130  -32.5720   25.7800 C   0  0  0  0  0  1  0  0  0  0  0  0
  -25.5400  -33.9300   24.1540 N   0  0  0  0  0  0  0  0  0  0  0  0
  -25.8670  -34.9920   23.4010 C   0  0  0  0  0  0  0  0  0  0  0  0
  -26.5480  -34.9000   22.3770 O   0  0  0  0  0  0  0  0  0  0  0  0
  -24.9350  -34.0710   24.9510 H   0  0  0  0  0  0  0  0  0  0  0  0
  -24.1280  -36.7700   23.0340 C   0  0  0  0  0  1  0  0  0  0  0  0
  -25.3590  -36.3700   23.8600 C   0  0  0  0  0  3  0  0  0  0  0  0
  -27.4710  -37.2770   24.7290 C   0  0  0  0  0  1  0  0  0  0  0  0
  -26.3820  -37.4330   23.7670 N   0  0  0  0  0  0  0  0  0  0  0  0
  -25.9640  -38.3470   23.9160 H   0  0  0  0  0  0  0  0  0  0  0  0
  -26.0880  -21.8690   18.7900 C   0  0  0  0  0  1  0  0  0  0  0  0
  -26.9350  -22.6040   19.6650 O   0  0  0  0  0  0  0  0  0  0  0  0
  1  6  2  0
  1  3  1  0
  3  4  2  0
  4  2  1  0
  4  7  1  0
  5  2  2  0
  5 51  1  0
  6  5  1  0
  8 21  1  0
  9 14  1  0
 10 11  1  0
 10  9  1  0
 12 11  1  0
 12 25  1  0
 12 13  1  0
 14  8  1  0
 14 13  1  0
 15  8  2  0
 17 20  1  0
 18 16  1  0
 19 17  1  0
 19 21  1  0
 20  3  1  0
 20 16  1  0
 21 18  1  0
 22 23  2  0
 23 42  1  0
 24 23  1  0
 24 27  1  0
 25 26  1  0
 25 22  1  0
 26 24  2  0
 27 28  1  0
 28 29  2  0
 30 33  1  0
 30 29  1  0
 31 30  2  0
 32 31  1  0
 32 27  2  0
 33 34  1  0
 34 35  1  0
 35 36  2  0
 37 36  1  0
 37 41  1  0
 38 37  2  0
 39 34  2  0
 39 38  1  0
 40 39  1  0
 42 43  1  0
 43 46  1  0
 43 45  1  0
 44 42  2  0
 47 48  1  0
 47 22  1  0
 49 47  1  0
 51 50  1  0
 52 53  1  0
 52 51  1  0
 53 55  1  0
 54 65  2  0
 55 60  1  0
 56 64  1  0
 56 66  1  0
 57 63  1  0
 57 59  1  0
 58 64  1  0
 59 58  1  0
 60 59  2  0
 61 62  1  0
 61 55  2  0
 62 57  2  0
 63 56  1  0
 64 54  1  0
 66 68  2  0
 67 66  1  0
 69 67  1  0
 70 79  2  0
 70 75  1  0
 71 67  1  0
 71 75  1  0
 72 71  1  0
 73 74  1  0
 73 72  1  0
 74 70  1  0
 75 76  2  0
 76 77  1  0
 78 77  2  0
 79 78  1  0
 80 54  1  0
 80 85  1  0
 80 81  1  0
 81 84  1  1
 81 82  1  0
 83 81  1  0
 85 88  1  0
 86 90  1  0
 86 85  1  0
 87 86  2  0
 90 89  1  0
 92 90  1  0
 92 93  1  0
 92 91  1  0
 94 95  1  0
 95  6  1  0
M  ISO  4   8 100  21 100  52 101  53 101
M  END
>  <TORSDO>  (79) 
F 19

>  <SCORE>  (79) 
-14.405

>  <name>  (79) 
78

>  <ligand_id>  (79) 
78

>  <original_smiles>  (79) 
[H]c1c([H])c([H])c2c(c1[H])C([H])([H])C([H])([H])C([H])([H])C2([H])N([H])C(=O)C1([H])N(C(=O)C([H])(N([H])C(=O)C([H])(N([H])C([H])([H])[H])C([H])([H])[H])C(C([H])([H])[H])(C([H])([H])[H])C([H])([H])[H])C([H])([H])c2c([H])c(OC([H])([H])C([H])(c3c([H])c(C([H])([H])[H])c(C4([H])C([H])([H])C([H])([H])N(C(=O)N5C([H])([H])C([H])([H])C([H])([H])C([H])(n6nc(-c7c([H])c([H])c(Oc8c([H])c([H])c(F)c([H])c8F)c([H])c7[H])c(C(=O)N([H])[H])c6N([H])[H])C5([H])[H])C([H])([H])C4([H])[H])c([H])c3OC([H])([H])[H])C([H])([H])[H])c([H])c([H])c2C1([H])[H]

>  <smiles>  (79) 
[H]c1c([H])c([H])c2c(c1[H])C([H])([H])C([H])([H])C([H])([H])C2([H])N([H])C(=O)C1([H])N(C(=O)C([H])(N([H])C(=O)C([H])(N([H])C([H])([H])[H])C([H])([H])[H])C(C([H])([H])[H])(C([H])([H])[H])C([H])([H])[H])C([H])([H])c2c([H])c(OC([H])([H])C([H])(c3c([H])c(C([H])([H])[H])c(C4([H])C([H])([H])C([H])([H])N(C(=O)N5C([H])([H])C([H])([H])C([H])([H])C([H])(n6nc(-c7c([H])c([H])c(Oc8c([H])c([H])c(F)c([H])c8F)c([H])c7[H])c(C(=O)N([H])[H])c6N([H])[H])C5([H])[H])C([H])([H])C4([H])[H])c([H])c3OC([H])([H])[H])C([H])([H])[H])c([H])c([H])c2C1([H])[H]

$$$$
79:0:0
     RDKit          3D

 97106  0  0  1  0  0  0  0  0999 V2000
  -31.2930  -21.8440   20.4110 C   0  0  0  0  0  2  0  0  0  0  0  0
  -30.7100  -23.1080   19.7200 C   0  0  0  0  0  2  0  0  0  0  0  0
  -30.2790  -21.3470   21.4640 C   0  0  0  0  0  3  0  0  0  0  0  0
  -28.9580  -22.0610   20.9320 C   0  0  0  0  0  3  0  0  0  0  0  0
  -27.8800  -22.3240   22.0040 C   0  0  0  0  0  1  0  0  0  0  0  0
  -29.3840  -23.3880   20.3140 N   0  0  2  0  0  4  0  0  0  0  0  0
  -29.5780  -24.0110   21.0880 H   0  0  0  0  0  0  0  0  0  0  0  0
  -30.0530  -18.6800   21.0320 C   0  0  0  0  0  3  0  0  0  0  0  0
  -31.2660  -18.0250   23.3990 C   0  0  0  0  0  3  0  0  0  0  0  0
  -30.4170  -19.7880   21.8780 C   0  0  0  0  0  0  0  0  0  0  0  0
  -31.0270  -19.3910   23.1090 C   0  0  0  0  0  0  0  0  0  0  0  0
  -30.8640  -16.9550   22.5620 C   0  0  0  0  0  0  0  0  0  0  0  0
  -30.2220  -17.2460   21.3140 C   0  0  0  0  0  0  0  0  0  0  0  0
  -31.4200  -20.3980   24.1840 C   0  0  0  0  0  1  0  0  0  0  0  0
  -31.1720  -15.5560   23.1050 C   0  0  0  0  0  1  0  0  0  0  0  0
  -30.3390  -15.0090   19.9420 C   0  0  0  0  0  0  0  0  0  0  0  0
  -29.9860  -12.7980   18.7670 C   0  0  0  0  0  2  0  0  0  0  0  0
  -28.9550  -12.8270   17.6200 C   0  0  0  0  0  2  0  0  0  0  0  0
  -27.5360  -12.5620   18.1540 C   0  0  0  0  0  2  0  0  0  0  0  0
  -27.2110  -13.4250   19.4060 C   0  0  0  0  0  3  0  0  0  0  0  0
  -28.3660  -13.4430   20.4500 C   0  0  0  0  0  2  0  0  0  0  0  0
  -29.6230  -13.8270   19.7820 N   0  0  0  0  0  0  0  0  0  0  0  0
  -31.4470  -15.1070   19.4050 O   0  0  0  0  0  0  0  0  0  0  0  0
  -29.7090  -16.1850   20.3740 N   0  0  0  0  0  0  0  0  0  0  0  0
  -24.8750  -13.8790   20.4120 C   0  0  0  0  0  0  0  0  0  0  0  0
  -23.8840  -13.0620   20.8460 C   0  0  0  0  0  0  0  0  0  0  0  0
  -24.3820  -11.7330   20.6770 C   0  0  0  0  0  0  0  0  0  0  0  0
  -25.9250  -13.0670   20.0100 N   0  0  0  0  0  0  0  0  0  0  0  0
  -25.6340  -11.7590   20.2300 N   0  0  0  0  0  0  0  0  0  0  0  0
  -23.7040  -10.4470   20.8530 C   0  0  0  0  0  0  0  0  0  0  0  0
  -24.1680   -9.4930   21.7820 C   0  0  0  0  0  3  0  0  0  0  0  0
  -23.4820   -8.2710   21.9540 C   0  0  0  0  0  3  0  0  0  0  0  0
  -22.3200   -7.9950   21.1940 C   0  0  0  0  0  0  0  0  0  0  0  0
  -21.8720   -8.9430   20.2580 C   0  0  0  0  0  3  0  0  0  0  0  0
  -22.5600  -10.1550   20.0830 C   0  0  0  0  0  3  0  0  0  0  0  0
  -21.6070   -6.8230   21.2750 O   0  0  0  0  0  0  0  0  0  0  0  0
  -21.5190   -6.1190   22.4500 C   0  0  0  0  0  0  0  0  0  0  0  0
  -20.9870   -6.6950   23.6240 C   0  0  0  0  0  3  0  0  0  0  0  0
  -20.8440   -5.9150   24.7890 C   0  0  0  0  0  3  0  0  0  0  0  0
  -21.2280   -4.5600   24.7800 C   0  0  0  0  0  0  0  0  0  0  0  0
  -21.7530   -3.9840   23.6110 C   0  0  0  0  0  3  0  0  0  0  0  0
  -21.8960   -4.7610   22.4490 C   0  0  0  0  0  0  0  0  0  0  0  0
  -22.3850   -4.1980   21.3170 F   0  0  0  0  0  0  0  0  0  0  0  0
  -21.0840   -3.8080   25.8950 F   0  0  0  0  0  0  0  0  0  0  0  0
  -22.5130  -13.4800   21.2900 C   0  0  0  0  0  0  0  0  0  0  0  0
  -21.9080  -12.7360   22.2030 N   0  0  0  0  0  0  0  0  0  0  0  0
  -21.9970  -14.5170   20.8670 O   0  0  0  0  0  0  0  0  0  0  0  0
  -22.3550  -11.9100   22.5690 H   0  0  0  0  0  0  0  0  0  0  0  0
  -20.9910  -12.9990   22.5410 H   0  0  0  0  0  0  0  0  0  0  0  0
  -24.9370  -15.2560   20.3140 N   0  0  0  0  0  0  0  0  0  0  0  0
  -24.1760  -15.8690   20.5950 H   0  0  0  0  0  0  0  0  0  0  0  0
  -25.7660  -15.7220   19.9790 H   0  0  0  0  0  0  0  0  0  0  0  0
  -27.5270  -17.2580   19.8090 C   0  0  0  0  0  1  0  0  0  0  0  0
  -28.8730  -16.7420   19.2970 C   0  0  0  0  0  2  0  0  0  0  0  0
  -28.4000  -24.1550   19.4190 C   0  0  0  0  0  2  0  0  0  0  0  0
  -28.8250  -25.5720   18.7950 C   0  0  0  0  0  2  0  0  0  0  0  0
  -28.5260  -26.8650   19.4300 O   0  0  0  0  0  0  0  0  0  0  0  0
  -24.4100  -31.5520   22.8970 C   0  0  0  0  0  0  0  0  0  0  0  0
  -27.2830  -27.5120   19.4150 C   0  0  0  0  0  0  0  0  0  0  0  0
  -23.2480  -30.1510   21.2220 C   0  0  0  0  0  3  0  0  0  0  0  0
  -24.7580  -28.8450   19.6130 C   0  0  0  0  0  0  0  0  0  0  0  0
  -25.7190  -30.7470   20.9250 C   0  0  0  0  0  2  0  0  0  0  0  0
  -25.8960  -29.4310   20.1760 C   0  0  0  0  0  0  0  0  0  0  0  0
  -27.1530  -28.7760   20.0660 C   0  0  0  0  0  3  0  0  0  0  0  0
  -26.1180  -26.9660   18.8270 C   0  0  0  0  0  3  0  0  0  0  0  0
  -24.8680  -27.6220   18.9270 C   0  0  0  0  0  3  0  0  0  0  0  0
  -23.4420  -29.5780   19.7910 C   0  0  0  0  0  2  0  0  0  0  0  0
  -24.4790  -30.8330   21.7390 N   0  0  0  0  0  0  0  0  0  0  0  0
  -23.3430  -31.6860   23.5100 O   0  0  0  0  0  0  0  0  0  0  0  0
  -22.7440  -29.0190   22.1440 C   0  0  0  0  0  0  0  0  0  0  0  0
  -21.4330  -28.7290   22.0750 N   0  0  0  0  0  0  0  0  0  0  0  0
  -23.5230  -28.4060   22.8770 O   0  0  0  0  0  0  0  0  0  0  0  0
  -20.8600  -29.2710   21.4430 H   0  0  0  0  0  0  0  0  0  0  0  0
  -18.2050  -27.2110   22.6680 C   0  0  0  0  0  0  0  0  0  0  0  0
  -20.7460  -27.6720   22.8170 C   0  0  0  0  0  3  0  0  0  0  0  0
  -20.9320  -26.3020   22.1240 C   0  0  0  0  0  2  0  0  0  0  0  0
  -19.7990  -25.9600   21.1510 C   0  0  0  0  0  2  0  0  0  0  0  0
  -18.4530  -25.9350   21.8790 C   0  0  0  0  0  2  0  0  0  0  0  0
  -19.2810  -28.0350   23.0920 C   0  0  0  0  0  0  0  0  0  0  0  0
  -18.9940  -29.2290   23.7880 C   0  0  0  0  0  3  0  0  0  0  0  0
  -17.6640  -29.5980   24.0660 C   0  0  0  0  0  3  0  0  0  0  0  0
  -16.6050  -28.7700   23.6570 C   0  0  0  0  0  3  0  0  0  0  0  0
  -16.8760  -27.5780   22.9630 C   0  0  0  0  0  3  0  0  0  0  0  0
  -25.6670  -32.2580   23.4950 C   0  0  0  0  0  3  0  0  0  0  0  0
  -26.2720  -31.4990   24.7360 C   0  0  1  0  0  0  0  0  0  0  0  0
  -25.2300  -31.1630   25.8280 C   0  0  0  0  0  1  0  0  0  0  0  0
  -26.9330  -30.1730   24.2940 C   0  0  0  0  0  1  0  0  0  0  0  0
  -27.3850  -32.3550   25.3820 C   0  0  0  0  0  1  0  0  0  0  0  0
  -25.2780  -33.6270   23.8670 N   0  0  0  0  0  0  0  0  0  0  0  0
  -25.5240  -34.7150   23.1250 C   0  0  0  0  0  0  0  0  0  0  0  0
  -26.1730  -34.6750   22.0750 O   0  0  0  0  0  0  0  0  0  0  0  0
  -24.6980  -33.7260   24.6880 H   0  0  0  0  0  0  0  0  0  0  0  0
  -23.6700  -36.3870   22.8490 C   0  0  0  0  0  1  0  0  0  0  0  0
  -24.9580  -36.0600   23.6220 C   0  0  0  0  0  3  0  0  0  0  0  0
  -27.0480  -37.0670   24.4180 C   0  0  0  0  0  1  0  0  0  0  0  0
  -25.9150  -37.1810   23.5040 N   0  0  0  0  0  0  0  0  0  0  0  0
  -25.4550  -38.0690   23.6800 H   0  0  0  0  0  0  0  0  0  0  0  0
  1  3  1  0
  2  6  1  0
  2  1  1  0
  3 10  1  0
  4  3  1  0
  4  5  1  0
  6  4  1  0
  6  7  1  1
  8 13  2  0
  8 10  1  0
 10 11  2  0
 11  9  1  0
 11 14  1  0
 12 15  1  0
 12  9  2  0
 13 12  1  0
 16 24  1  0
 17 22  1  0
 18 19  1  0
 18 17  1  0
 20 19  1  0
 20 28  1  0
 20 21  1  0
 22 16  1  0
 22 21  1  0
 23 16  2  0
 24 13  1  0
 25 26  2  0
 26 45  1  0
 27 26  1  0
 27 30  1  0
 28 29  1  0
 28 25  1  0
 29 27  2  0
 30 31  1  0
 31 32  2  0
 33 36  1  0
 33 32  1  0
 34 33  2  0
 35 34  1  0
 35 30  2  0
 36 37  1  0
 37 38  1  0
 38 39  2  0
 40 39  1  0
 40 44  1  0
 41 40  2  0
 42 37  2  0
 42 41  1  0
 43 42  1  0
 45 46  1  0
 46 49  1  0
 46 48  1  0
 47 45  2  0
 50 25  1  0
 50 51  1  0
 52 50  1  0
 54 53  1  0
 54 24  1  0
 55  6  1  0
 56 55  1  0
 56 57  1  0
 58 69  2  0
 59 57  1  0
 59 64  1  0
 60 68  1  0
 60 70  1  0
 61 67  1  0
 61 63  1  0
 62 68  1  0
 63 62  1  0
 64 63  2  0
 65 66  1  0
 65 59  2  0
 66 61  2  0
 67 60  1  0
 68 58  1  0
 70 72  2  0
 71 70  1  0
 73 71  1  0
 74 83  2  0
 74 79  1  0
 75 71  1  0
 75 79  1  0
 76 75  1  0
 77 78  1  0
 77 76  1  0
 78 74  1  0
 79 80  2  0
 80 81  1  0
 82 81  2  0
 83 82  1  0
 84 58  1  0
 84 89  1  0
 84 85  1  0
 85 88  1  1
 85 86  1  0
 87 85  1  0
 89 92  1  0
 90 94  1  0
 90 89  1  0
 91 90  2  0
 94 93  1  0
 96 94  1  0
 96 97  1  0
 96 95  1  0
M  ISO  4  16 100  24 100  56 101  57 101
M  END
>  <TORSDO>  (80) 
F 20

>  <SCORE>  (80) 
-9.715

>  <name>  (80) 
79

>  <ligand_id>  (80) 
79

>  <original_smiles>  (80) 
[H]c1c([H])c([H])c2c(c1[H])C([H])([H])C([H])([H])C([H])([H])C2([H])N([H])C(=O)C1([H])N(C(=O)C([H])(N([H])C(=O)C([H])(N([H])C([H])([H])[H])C([H])([H])[H])C(C([H])([H])[H])(C([H])([H])[H])C([H])([H])[H])C([H])([H])c2c([H])c(OC([H])([H])C([H])([H])[N+]3([H])C([H])([H])C([H])([H])C([H])(c4c([H])c(N(C(=O)N5C([H])([H])C([H])([H])C([H])([H])C([H])(n6nc(-c7c([H])c([H])c(Oc8c([H])c([H])c(F)c([H])c8F)c([H])c7[H])c(C(=O)N([H])[H])c6N([H])[H])C5([H])[H])C([H])([H])C([H])([H])[H])c(C([H])([H])[H])c([H])c4C([H])([H])[H])C3([H])C([H])([H])[H])c([H])c([H])c2C1([H])[H]

>  <smiles>  (80) 
[H]c1c([H])c([H])c2c(c1[H])C([H])([H])C([H])([H])C([H])([H])C2([H])N([H])C(=O)C1([H])N(C(=O)C([H])(N([H])C(=O)C([H])(N([H])C([H])([H])[H])C([H])([H])[H])C(C([H])([H])[H])(C([H])([H])[H])C([H])([H])[H])C([H])([H])c2c([H])c(OC([H])([H])C([H])([H])[N+]3([H])C([H])([H])C([H])([H])C([H])(c4c([H])c(N(C(=O)N5C([H])([H])C([H])([H])C([H])([H])C([H])(n6nc(-c7c([H])c([H])c(Oc8c([H])c([H])c(F)c([H])c8F)c([H])c7[H])c(C(=O)N([H])[H])c6N([H])[H])C5([H])[H])C([H])([H])C([H])([H])[H])c(C([H])([H])[H])c([H])c4C([H])([H])[H])C3([H])C([H])([H])[H])c([H])c([H])c2C1([H])[H]

$$$$
80:0:0
     RDKit          3D

 97107  0  0  1  0  0  0  0  0999 V2000
  -26.0610  -19.1010   19.0620 C   0  0  0  0  0  3  0  0  0  0  0  0
  -28.3600  -19.6130   19.8280 C   0  0  0  0  0  0  0  0  0  0  0  0
  -25.8300  -20.4290   18.7270 C   0  0  0  0  0  0  0  0  0  0  0  0
  -28.1280  -21.0550   19.4750 C   0  0  0  0  0  0  0  0  0  0  0  0
  -26.8900  -21.3590   18.8070 C   0  0  0  0  0  0  0  0  0  0  0  0
  -27.3270  -18.6850   19.4860 C   0  0  0  0  0  0  0  0  0  0  0  0
  -24.4530  -20.7960   18.1900 C   0  0  0  0  0  1  0  0  0  0  0  0
  -26.6950  -22.6550   18.0300 C   0  0  0  0  0  1  0  0  0  0  0  0
  -30.9180  -15.1390   21.1690 C   0  0  0  0  0  0  0  0  0  0  0  0
  -30.8190  -12.7710   20.3670 C   0  0  0  0  0  2  0  0  0  0  0  0
  -30.0700  -12.6720   19.0250 C   0  0  0  0  0  2  0  0  0  0  0  0
  -28.5600  -12.5020   19.2720 C   0  0  0  0  0  2  0  0  0  0  0  0
  -28.0020  -13.4990   20.3240 C   0  0  0  0  0  3  0  0  0  0  0  0
  -28.9030  -13.6150   21.5700 C   0  0  0  0  0  2  0  0  0  0  0  0
  -30.2470  -13.9350   21.0850 N   0  0  0  0  0  0  0  0  0  0  0  0
  -32.1500  -15.0860   21.2180 O   0  0  0  0  0  0  0  0  0  0  0  0
  -30.5500  -18.3870   19.2250 C   0  0  0  0  0  2  0  0  0  0  0  0
  -31.1570  -17.0130   19.5890 C   0  0  0  0  0  2  0  0  0  0  0  0
  -29.5790  -17.4630   21.2390 C   0  0  0  0  0  2  0  0  0  0  0  0
  -29.6660  -18.8570   20.3830 C   0  0  0  0  0  3  0  0  0  0  0  0
  -30.3530  -16.3100   20.6140 N   0  0  0  0  0  0  0  0  0  0  0  0
  -25.5480  -14.0830   20.7590 C   0  0  0  0  0  0  0  0  0  0  0  0
  -24.4460  -13.3100   20.9990 C   0  0  0  0  0  0  0  0  0  0  0  0
  -24.9110  -11.9610   21.0500 C   0  0  0  0  0  0  0  0  0  0  0  0
  -26.6140  -13.2060   20.6650 N   0  0  0  0  0  0  0  0  0  0  0  0
  -26.2310  -11.9250   20.9100 N   0  0  0  0  0  0  0  0  0  0  0  0
  -24.1650  -10.7010   21.1660 C   0  0  0  0  0  0  0  0  0  0  0  0
  -24.4990   -9.7310   22.1360 C   0  0  0  0  0  3  0  0  0  0  0  0
  -23.7520   -8.5380   22.2420 C   0  0  0  0  0  3  0  0  0  0  0  0
  -22.6580   -8.3060   21.3740 C   0  0  0  0  0  0  0  0  0  0  0  0
  -22.3480   -9.2640   20.3930 C   0  0  0  0  0  3  0  0  0  0  0  0
  -23.0940  -10.4490   20.2860 C   0  0  0  0  0  3  0  0  0  0  0  0
  -21.8930   -7.1640   21.3860 O   0  0  0  0  0  0  0  0  0  0  0  0
  -21.7320   -6.4180   22.5260 C   0  0  0  0  0  0  0  0  0  0  0  0
  -21.1830   -6.9680   23.7060 C   0  0  0  0  0  3  0  0  0  0  0  0
  -20.9710   -6.1490   24.8330 C   0  0  0  0  0  3  0  0  0  0  0  0
  -21.2980   -4.7790   24.7810 C   0  0  0  0  0  0  0  0  0  0  0  0
  -21.8400   -4.2290   23.6060 C   0  0  0  0  0  3  0  0  0  0  0  0
  -22.0530   -5.0460   22.4820 C   0  0  0  0  0  0  0  0  0  0  0  0
  -22.5570   -4.5070   21.3450 F   0  0  0  0  0  0  0  0  0  0  0  0
  -21.0860   -3.9900   25.8580 F   0  0  0  0  0  0  0  0  0  0  0  0
  -23.0260  -13.7900   21.0760 C   0  0  0  0  0  0  0  0  0  0  0  0
  -22.1960  -13.1150   21.8640 N   0  0  0  0  0  0  0  0  0  0  0  0
  -22.6570  -14.7980   20.4730 O   0  0  0  0  0  0  0  0  0  0  0  0
  -22.5070  -12.3010   22.3720 H   0  0  0  0  0  0  0  0  0  0  0  0
  -21.2370  -13.4170   21.9600 H   0  0  0  0  0  0  0  0  0  0  0  0
  -25.7220  -15.4510   20.5900 N   0  0  0  0  0  0  0  0  0  0  0  0
  -24.9390  -16.0920   20.6100 H   0  0  0  0  0  0  0  0  0  0  0  0
  -26.5970  -15.9140   20.3620 H   0  0  0  0  0  0  0  0  0  0  0  0
  -27.4600  -16.6850   18.2330 C   0  0  0  0  0  1  0  0  0  0  0  0
  -27.5540  -17.3290   19.5030 O   0  0  0  0  0  0  0  0  0  0  0  0
  -29.1220  -22.3200   19.5920 C   0  0  0  0  0  2  0  0  0  0  0  0
  -27.7400  -23.7250   21.4600 C   0  0  0  0  0  2  0  0  0  0  0  0
  -29.2000  -23.9380   21.7030 C   0  0  0  0  0  2  0  0  0  0  0  0
  -28.6980  -23.7580   20.2780 C   0  0  1  0  0  0  0  0  0  0  0  0
  -28.7230  -25.1320   19.4010 C   0  0  0  0  0  2  0  0  0  0  0  0
  -28.6350  -26.5480   19.9540 O   0  0  0  0  0  0  0  0  0  0  0  0
  -24.7150  -31.6830   23.3070 C   0  0  0  0  0  0  0  0  0  0  0  0
  -27.4870  -27.3860   19.9330 C   0  0  0  0  0  0  0  0  0  0  0  0
  -23.5670  -30.3640   21.5690 C   0  0  0  0  0  3  0  0  0  0  0  0
  -25.0740  -28.9660   20.0340 C   0  0  0  0  0  0  0  0  0  0  0  0
  -26.1010  -30.7670   21.4200 C   0  0  0  0  0  2  0  0  0  0  0  0
  -26.2270  -29.4370   20.6710 C   0  0  0  0  0  0  0  0  0  0  0  0
  -27.4320  -28.6580   20.6110 C   0  0  0  0  0  3  0  0  0  0  0  0
  -26.3010  -26.9860   19.2810 C   0  0  0  0  0  3  0  0  0  0  0  0
  -25.1170  -27.7510   19.3310 C   0  0  0  0  0  3  0  0  0  0  0  0
  -23.8070  -29.7940   20.1440 C   0  0  0  0  0  2  0  0  0  0  0  0
  -24.8130  -30.9530   22.1560 N   0  0  0  0  0  0  0  0  0  0  0  0
  -23.6210  -31.8810   23.8570 O   0  0  0  0  0  0  0  0  0  0  0  0
  -22.9360  -29.2600   22.4520 C   0  0  0  0  0  0  0  0  0  0  0  0
  -21.6240  -29.0240   22.2870 N   0  0  0  0  0  0  0  0  0  0  0  0
  -23.6300  -28.6200   23.2470 O   0  0  0  0  0  0  0  0  0  0  0  0
  -21.1200  -29.5940   21.6210 H   0  0  0  0  0  0  0  0  0  0  0  0
  -18.3130  -27.5990   22.6120 C   0  0  0  0  0  0  0  0  0  0  0  0
  -20.8420  -27.9990   22.9810 C   0  0  0  0  0  3  0  0  0  0  0  0
  -21.0500  -26.6090   22.3370 C   0  0  0  0  0  2  0  0  0  0  0  0
  -20.0020  -26.2750   21.2710 C   0  0  0  0  0  2  0  0  0  0  0  0
  -18.5950  -26.3010   21.8750 C   0  0  0  0  0  2  0  0  0  0  0  0
  -19.3680  -28.4050   23.1170 C   0  0  0  0  0  0  0  0  0  0  0  0
  -19.0520  -29.6180   23.7670 C   0  0  0  0  0  3  0  0  0  0  0  0
  -17.7140  -30.0290   23.9150 C   0  0  0  0  0  3  0  0  0  0  0  0
  -16.6730  -29.2200   23.4250 C   0  0  0  0  0  3  0  0  0  0  0  0
  -16.9740  -28.0070   22.7810 C   0  0  0  0  0  3  0  0  0  0  0  0
  -25.9710  -32.3170   23.9800 C   0  0  0  0  0  3  0  0  0  0  0  0
  -26.4840  -31.5010   25.2300 C   0  0  1  0  0  0  0  0  0  0  0  0
  -25.3780  -31.1930   26.2660 C   0  0  0  0  0  1  0  0  0  0  0  0
  -27.1040  -30.1550   24.7890 C   0  0  0  0  0  1  0  0  0  0  0  0
  -27.6050  -32.2910   25.9460 C   0  0  0  0  0  1  0  0  0  0  0  0
  -25.6200  -33.6910   24.3720 N   0  0  0  0  0  0  0  0  0  0  0  0
  -25.9530  -34.7900   23.6820 C   0  0  0  0  0  0  0  0  0  0  0  0
  -26.6560  -34.7540   22.6680 O   0  0  0  0  0  0  0  0  0  0  0  0
  -24.9940  -33.7900   25.1580 H   0  0  0  0  0  0  0  0  0  0  0  0
  -24.2020  -36.5690   23.3730 C   0  0  0  0  0  1  0  0  0  0  0  0
  -25.4270  -36.1440   24.1970 C   0  0  0  0  0  3  0  0  0  0  0  0
  -27.5160  -37.0250   25.1410 C   0  0  0  0  0  1  0  0  0  0  0  0
  -26.4410  -37.2200   24.1710 N   0  0  0  0  0  0  0  0  0  0  0  0
  -26.0120  -38.1230   24.3500 H   0  0  0  0  0  0  0  0  0  0  0  0
  1  6  1  0
  3  5  1  0
  3  1  2  0
  4 52  1  0
  4  2  1  0
  5  4  2  0
  6 51  1  0
  6  2  2  0
  7  3  1  0
  8  5  1  0
  9 16  2  0
 10 15  1  0
 11 12  1  0
 11 10  1  0
 13 12  1  0
 13 25  1  0
 13 14  1  0
 15  9  1  0
 15 14  1  0
 17 18  1  0
 17 20  1  0
 18 21  1  0
 20  2  1  0
 20 19  1  0
 21  9  1  0
 21 19  1  0
 22 23  2  0
 23 24  1  0
 23 42  1  0
 24 27  1  0
 25 22  1  0
 25 26  1  0
 26 24  2  0
 27 28  1  0
 28 29  2  0
 30 33  1  0
 30 29  1  0
 31 30  2  0
 32 31  1  0
 32 27  2  0
 33 34  1  0
 34 35  1  0
 35 36  2  0
 37 36  1  0
 37 41  1  0
 38 37  2  0
 39 34  2  0
 39 38  1  0
 40 39  1  0
 42 43  1  0
 43 46  1  0
 43 45  1  0
 44 42  2  0
 47 48  1  0
 47 22  1  0
 49 47  1  0
 50 51  1  0
 55 52  1  6
 53 54  1  0
 55 53  1  0
 55 54  1  0
 56 57  1  0
 56 55  1  0
 58 69  2  0
 59 57  1  0
 59 64  1  0
 60 68  1  0
 60 70  1  0
 61 67  1  0
 61 63  1  0
 62 68  1  0
 63 62  1  0
 64 63  2  0
 65 66  1  0
 65 59  2  0
 66 61  2  0
 67 60  1  0
 68 58  1  0
 70 72  2  0
 71 70  1  0
 73 71  1  0
 74 83  2  0
 74 79  1  0
 75 71  1  0
 75 79  1  0
 76 75  1  0
 77 78  1  0
 77 76  1  0
 78 74  1  0
 79 80  2  0
 80 81  1  0
 82 81  2  0
 83 82  1  0
 84 58  1  0
 84 89  1  0
 84 85  1  0
 85 88  1  1
 85 86  1  0
 87 85  1  0
 89 92  1  0
 90 94  1  0
 90 89  1  0
 91 90  2  0
 94 93  1  0
 96 94  1  0
 96 97  1  0
 96 95  1  0
M  ISO  4   9 100  21 100  56 101  57 101
M  END
>  <TORSDO>  (81) 
F 20

>  <SCORE>  (81) 
-11.418

>  <name>  (81) 
80

>  <ligand_id>  (81) 
80

>  <original_smiles>  (81) 
[H]c1c([H])c([H])c2c(c1[H])C([H])([H])C([H])([H])C([H])([H])C2([H])N([H])C(=O)C1([H])N(C(=O)C([H])(N([H])C(=O)C([H])(N([H])C([H])([H])[H])C([H])([H])[H])C(C([H])([H])[H])(C([H])([H])[H])C([H])([H])[H])C([H])([H])c2c([H])c(OC([H])([H])C3(C([H])([H])c4c(C([H])([H])[H])c(C([H])([H])[H])c([H])c(OC([H])([H])[H])c4C4([H])C([H])([H])N(C(=O)N5C([H])([H])C([H])([H])C([H])([H])C([H])(n6nc(-c7c([H])c([H])c(Oc8c([H])c([H])c(F)c([H])c8F)c([H])c7[H])c(C(=O)N([H])[H])c6N([H])[H])C5([H])[H])C([H])([H])C4([H])[H])C([H])([H])C3([H])[H])c([H])c([H])c2C1([H])[H]

>  <smiles>  (81) 
[H]c1c([H])c([H])c2c(c1[H])C([H])([H])C([H])([H])C([H])([H])C2([H])N([H])C(=O)C1([H])N(C(=O)C([H])(N([H])C(=O)C([H])(N([H])C([H])([H])[H])C([H])([H])[H])C(C([H])([H])[H])(C([H])([H])[H])C([H])([H])[H])C([H])([H])c2c([H])c(OC([H])([H])C3(C([H])([H])c4c(C([H])([H])[H])c(C([H])([H])[H])c([H])c(OC([H])([H])[H])c4C4([H])C([H])([H])N(C(=O)N5C([H])([H])C([H])([H])C([H])([H])C([H])(n6nc(-c7c([H])c([H])c(Oc8c([H])c([H])c(F)c([H])c8F)c([H])c7[H])c(C(=O)N([H])[H])c6N([H])[H])C5([H])[H])C([H])([H])C4([H])[H])C([H])([H])C3([H])[H])c([H])c([H])c2C1([H])[H]

$$$$
81:0:0
     RDKit          3D

 99109  0  0  1  0  0  0  0  0999 V2000
  -27.9410  -19.7460   18.4590 C   0  0  0  0  0  3  0  0  0  0  0  0
  -28.1510  -21.0040   19.0990 C   0  0  0  0  0  0  0  0  0  0  0  0
  -29.7310  -19.8410   20.5570 C   0  0  0  0  0  0  0  0  0  0  0  0
  -29.0580  -21.0810   20.1940 C   0  0  0  0  0  0  0  0  0  0  0  0
  -29.5310  -18.5940   19.8990 C   0  0  0  0  0  0  0  0  0  0  0  0
  -28.6030  -18.5500   18.8370 C   0  0  0  0  0  0  0  0  0  0  0  0
  -30.7680  -19.6350   21.6390 C   0  0  0  0  0  2  0  0  0  0  0  0
  -31.0090  -18.0910   21.7090 C   0  0  0  0  0  2  0  0  0  0  0  0
  -29.2090  -22.4660   20.9400 C   0  0  0  0  0  3  0  0  0  0  0  0
  -30.5020  -17.4600   20.3880 C   0  0  0  0  0  3  0  0  0  0  0  0
  -28.7320  -23.7840   20.1380 C   0  0  0  0  0  3  0  0  0  0  0  0
  -27.4400  -22.2680   18.5410 C   0  0  2  0  0  0  0  0  0  0  0  0
  -28.3140  -17.2770   18.0590 C   0  0  0  0  0  1  0  0  0  0  0  0
  -28.4850  -22.3720   22.3000 C   0  0  0  0  0  1  0  0  0  0  0  0
  -25.9530  -21.9670   18.2360 C   0  0  0  0  0  1  0  0  0  0  0  0
  -28.1210  -22.6680   17.2160 C   0  0  0  0  0  1  0  0  0  0  0  0
  -27.4470  -23.4310   19.4780 N   0  0  0  0  0  4  0  0  0  0  0  0
  -27.1140  -24.2330   18.9670 H   0  0  0  0  0  0  0  0  0  0  0  0
  -26.7670  -23.2280   20.1950 H   0  0  0  0  0  0  0  0  0  0  0  0
  -30.8790  -14.8660   20.3520 C   0  0  0  0  0  0  0  0  0  0  0  0
  -30.6910  -12.5790   19.3750 C   0  0  0  0  0  2  0  0  0  0  0  0
  -29.7560  -12.6370   18.1480 C   0  0  0  0  0  2  0  0  0  0  0  0
  -28.2830  -12.4800   18.5730 C   0  0  0  0  0  2  0  0  0  0  0  0
  -27.9060  -13.3840   19.7760 C   0  0  0  0  0  3  0  0  0  0  0  0
  -28.9580  -13.3050   20.9030 C   0  0  0  0  0  2  0  0  0  0  0  0
  -30.2550  -13.6420   20.3080 N   0  0  0  0  0  0  0  0  0  0  0  0
  -32.0710  -14.9620   20.0510 O   0  0  0  0  0  0  0  0  0  0  0  0
  -30.0950  -15.9960   20.5140 N   0  0  0  0  0  0  0  0  0  0  0  0
  -29.1180  -15.8270   20.6950 H   0  0  0  0  0  0  0  0  0  0  0  0
  -25.5250  -13.9920   20.5100 C   0  0  0  0  0  0  0  0  0  0  0  0
  -24.4520  -13.2230   20.8690 C   0  0  0  0  0  0  0  0  0  0  0  0
  -24.9040  -11.8690   20.8290 C   0  0  0  0  0  0  0  0  0  0  0  0
  -26.5620  -13.1050   20.2640 N   0  0  0  0  0  0  0  0  0  0  0  0
  -26.1950  -11.8230   20.5230 N   0  0  0  0  0  0  0  0  0  0  0  0
  -24.1670  -10.6110   21.0070 C   0  0  0  0  0  0  0  0  0  0  0  0
  -24.5590   -9.6550   21.9690 C   0  0  0  0  0  3  0  0  0  0  0  0
  -23.8210   -8.4630   22.1340 C   0  0  0  0  0  3  0  0  0  0  0  0
  -22.6790   -8.2180   21.3340 C   0  0  0  0  0  0  0  0  0  0  0  0
  -22.3080   -9.1630   20.3610 C   0  0  0  0  0  3  0  0  0  0  0  0
  -23.0450  -10.3460   20.1960 C   0  0  0  0  0  3  0  0  0  0  0  0
  -21.9160   -7.0780   21.4070 O   0  0  0  0  0  0  0  0  0  0  0  0
  -21.7710   -6.3820   22.5810 C   0  0  0  0  0  0  0  0  0  0  0  0
  -21.1890   -6.9670   23.7270 C   0  0  0  0  0  3  0  0  0  0  0  0
  -20.9970   -6.1960   24.8910 C   0  0  0  0  0  3  0  0  0  0  0  0
  -21.3740   -4.8390   24.9070 C   0  0  0  0  0  0  0  0  0  0  0  0
  -21.9480   -4.2530   23.7640 C   0  0  0  0  0  3  0  0  0  0  0  0
  -22.1430   -5.0220   22.6040 C   0  0  0  0  0  0  0  0  0  0  0  0
  -22.6750   -4.4470   21.5000 F   0  0  0  0  0  0  0  0  0  0  0  0
  -21.1820   -4.0950   26.0210 F   0  0  0  0  0  0  0  0  0  0  0  0
  -23.0580  -13.7100   21.1400 C   0  0  0  0  0  0  0  0  0  0  0  0
  -22.3200  -13.0100   21.9950 N   0  0  0  0  0  0  0  0  0  0  0  0
  -22.6300  -14.7460   20.6300 O   0  0  0  0  0  0  0  0  0  0  0  0
  -22.6770  -12.1710   22.4270 H   0  0  0  0  0  0  0  0  0  0  0  0
  -21.3840  -13.3160   22.2190 H   0  0  0  0  0  0  0  0  0  0  0  0
  -25.6980  -15.3650   20.3470 N   0  0  0  0  0  0  0  0  0  0  0  0
  -24.9330  -16.0170   20.4760 H   0  0  0  0  0  0  0  0  0  0  0  0
  -26.5490  -15.8110   20.0340 H   0  0  0  0  0  0  0  0  0  0  0  0
  -28.5870  -25.1870   20.9610 C   0  0  0  0  0  2  0  0  0  0  0  0
  -28.7040  -26.5620   20.3720 O   0  0  0  0  0  0  0  0  0  0  0  0
  -24.7140  -31.8970   23.2970 C   0  0  0  0  0  0  0  0  0  0  0  0
  -27.5750  -27.4010   20.3440 C   0  0  0  0  0  0  0  0  0  0  0  0
  -23.6220  -30.4730   21.6020 C   0  0  0  0  0  3  0  0  0  0  0  0
  -25.1760  -28.9650   20.2370 C   0  0  0  0  0  0  0  0  0  0  0  0
  -26.1610  -30.8580   21.5290 C   0  0  0  0  0  2  0  0  0  0  0  0
  -26.3080  -29.4820   20.8830 C   0  0  0  0  0  0  0  0  0  0  0  0
  -27.5150  -28.7140   20.9200 C   0  0  0  0  0  3  0  0  0  0  0  0
  -26.4210  -26.9420   19.6790 C   0  0  0  0  0  3  0  0  0  0  0  0
  -25.2380  -27.7040   19.6240 C   0  0  0  0  0  3  0  0  0  0  0  0
  -23.9180  -29.8100   20.2310 C   0  0  0  0  0  2  0  0  0  0  0  0
  -24.8500  -31.0940   22.1990 N   0  0  0  0  0  0  0  0  0  0  0  0
  -23.6000  -32.1390   23.7860 O   0  0  0  0  0  0  0  0  0  0  0  0
  -22.9490  -29.4320   22.5290 C   0  0  0  0  0  0  0  0  0  0  0  0
  -21.6300  -29.2370   22.3650 N   0  0  0  0  0  0  0  0  0  0  0  0
  -23.6170  -28.8020   23.3540 O   0  0  0  0  0  0  0  0  0  0  0  0
  -21.1480  -29.8000   21.6780 H   0  0  0  0  0  0  0  0  0  0  0  0
  -18.2500  -28.0170   22.7930 C   0  0  0  0  0  0  0  0  0  0  0  0
  -20.8050  -28.2750   23.0990 C   0  0  0  0  0  3  0  0  0  0  0  0
  -20.9170  -26.8610   22.4850 C   0  0  0  0  0  2  0  0  0  0  0  0
  -19.8290  -26.5640   21.4500 C   0  0  0  0  0  2  0  0  0  0  0  0
  -18.4390  -26.6890   22.0800 C   0  0  0  0  0  2  0  0  0  0  0  0
  -19.3630  -28.7690   23.2580 C   0  0  0  0  0  0  0  0  0  0  0  0
  -19.1340  -30.0140   23.8830 C   0  0  0  0  0  3  0  0  0  0  0  0
  -17.8270  -30.5080   24.0490 C   0  0  0  0  0  3  0  0  0  0  0  0
  -16.7280  -29.7510   23.6030 C   0  0  0  0  0  3  0  0  0  0  0  0
  -16.9400  -28.5080   22.9810 C   0  0  0  0  0  3  0  0  0  0  0  0
  -25.9480  -32.5670   23.9760 C   0  0  0  0  0  3  0  0  0  0  0  0
  -25.5980  -33.9690   24.2540 N   0  0  0  0  0  0  0  0  0  0  0  0
  -25.9330  -35.0060   23.4760 C   0  0  0  0  0  0  0  0  0  0  0  0
  -26.6420  -34.8880   22.4720 O   0  0  0  0  0  0  0  0  0  0  0  0
  -24.9800  -34.1350   25.0340 H   0  0  0  0  0  0  0  0  0  0  0  0
  -24.1850  -36.7520   23.0100 C   0  0  0  0  0  1  0  0  0  0  0  0
  -25.4030  -36.3950   23.8770 C   0  0  0  0  0  3  0  0  0  0  0  0
  -27.4790  -37.3550   24.7720 C   0  0  0  0  0  1  0  0  0  0  0  0
  -26.4180  -37.4670   23.7750 N   0  0  0  0  0  0  0  0  0  0  0  0
  -25.9850  -38.3820   23.8730 H   0  0  0  0  0  0  0  0  0  0  0  0
  -26.4000  -31.8360   25.3000 C   0  0  1  0  0  0  0  0  0  0  0  0
  -25.2500  -31.6050   26.3070 C   0  0  0  0  0  1  0  0  0  0  0  0
  -27.0290  -30.4610   24.9770 C   0  0  0  0  0  1  0  0  0  0  0  0
  -27.4930  -32.6680   26.0120 C   0  0  0  0  0  1  0  0  0  0  0  0
  1  6  2  0
  1  2  1  0
  2  4  2  0
  3  7  1  0
  4  3  1  0
  4  9  1  0
  5 10  1  0
  5  3  2  0
  6  5  1  0
  7  8  1  0
  9 14  1  0
 10 28  1  0
 10  8  1  0
 11  9  1  0
 11 58  1  0
 12  2  1  0
 12 17  1  0
 13  6  1  0
 12 15  1  6
 16 12  1  0
 17 11  1  0
 17 19  1  0
 18 17  1  0
 20 28  1  0
 21 26  1  0
 22 23  1  0
 22 21  1  0
 24 23  1  0
 24 33  1  0
 24 25  1  0
 26 20  1  0
 26 25  1  0
 27 20  2  0
 28 29  1  0
 30 31  2  0
 31 50  1  0
 32 31  1  0
 32 35  1  0
 33 30  1  0
 33 34  1  0
 34 32  2  0
 35 36  1  0
 36 37  2  0
 38 41  1  0
 38 37  1  0
 39 38  2  0
 40 39  1  0
 40 35  2  0
 41 42  1  0
 42 47  2  0
 42 43  1  0
 43 44  2  0
 44 45  1  0
 45 49  1  0
 46 45  2  0
 47 46  1  0
 48 47  1  0
 50 51  1  0
 51 54  1  0
 51 53  1  0
 52 50  2  0
 55 56  1  0
 55 30  1  0
 57 55  1  0
 59 58  1  0
 60 71  2  0
 61 59  1  0
 61 66  1  0
 62 70  1  0
 62 72  1  0
 63 65  1  0
 64 70  1  0
 65 66  2  0
 65 64  1  0
 67 61  2  0
 68 67  1  0
 68 63  2  0
 69 63  1  0
 69 62  1  0
 70 60  1  0
 72 74  2  0
 73 72  1  0
 75 73  1  0
 76 85  2  0
 76 81  1  0
 77 73  1  0
 77 81  1  0
 78 77  1  0
 79 80  1  0
 79 78  1  0
 80 76  1  0
 81 82  2  0
 82 83  1  0
 84 83  2  0
 85 84  1  0
 86 60  1  0
 86 87  1  0
 86 96  1  0
 87 90  1  0
 88 92  1  0
 88 87  1  0
 89 88  2  0
 92 91  1  0
 94 95  1  0
 94 92  1  0
 94 93  1  0
 96 99  1  1
 96 97  1  0
 98 96  1  0
M  ISO  4  20 100  28 100  58 101  59 101
M  END
>  <TORSDO>  (82) 
F 17

>  <SCORE>  (82) 
-15.025

>  <name>  (82) 
81

>  <ligand_id>  (82) 
81

>  <original_smiles>  (82) 
[H]c1c([H])c([H])c2c(c1[H])C([H])([H])C([H])([H])C([H])([H])C2([H])N([H])C(=O)C1([H])N(C(=O)C([H])(N([H])C(=O)C([H])(N([H])C([H])([H])[H])C([H])([H])[H])C(C([H])([H])[H])(C([H])([H])[H])C([H])([H])[H])C([H])([H])c2c([H])c(OC([H])([H])C3([H])C([H])(C([H])([H])[H])c4c5c(c(C([H])([H])[H])c([H])c4C(C([H])([H])[H])(C([H])([H])[H])[N+]3([H])[H])C([H])(N([H])C(=O)N3C([H])([H])C([H])([H])C([H])([H])C([H])(n4nc(-c6c([H])c([H])c(Oc7c([H])c([H])c(F)c([H])c7F)c([H])c6[H])c(C(=O)N([H])[H])c4N([H])[H])C3([H])[H])C([H])([H])C5([H])[H])c([H])c([H])c2C1([H])[H]

>  <smiles>  (82) 
[H]c1c([H])c([H])c2c(c1[H])C([H])([H])C([H])([H])C([H])([H])C2([H])N([H])C(=O)C1([H])N(C(=O)C([H])(N([H])C(=O)C([H])(N([H])C([H])([H])[H])C([H])([H])[H])C(C([H])([H])[H])(C([H])([H])[H])C([H])([H])[H])C([H])([H])c2c([H])c(OC([H])([H])C3([H])C([H])(C([H])([H])[H])c4c5c(c(C([H])([H])[H])c([H])c4C(C([H])([H])[H])(C([H])([H])[H])[N+]3([H])[H])C([H])(N([H])C(=O)N3C([H])([H])C([H])([H])C([H])([H])C([H])(n4nc(-c6c([H])c([H])c(Oc7c([H])c([H])c(F)c([H])c7F)c([H])c6[H])c(C(=O)N([H])[H])c4N([H])[H])C3([H])[H])C([H])([H])C5([H])[H])c([H])c([H])c2C1([H])[H]

$$$$
82:0:0
     RDKit          3D

 96106  0  0  1  0  0  0  0  0999 V2000
  -29.7010  -18.8730   20.1890 C   0  0  0  0  0  3  0  0  0  0  0  0
  -30.2000  -20.2010   19.7580 C   0  0  0  0  0  0  0  0  0  0  0  0
  -31.4350  -20.1230   19.0290 C   0  0  0  0  0  0  0  0  0  0  0  0
  -31.8500  -18.9030   18.4210 C   0  0  0  0  0  0  0  0  0  0  0  0
  -31.1960  -17.6720   18.6930 C   0  0  0  0  0  0  0  0  0  0  0  0
  -30.2710  -17.5630   19.7760 C   0  0  0  0  0  0  0  0  0  0  0  0
  -33.0550  -18.9360   17.4640 C   0  0  0  0  0  1  0  0  0  0  0  0
  -31.4560  -16.4930   17.7510 C   0  0  0  0  0  1  0  0  0  0  0  0
  -30.6220  -14.9440   20.3220 C   0  0  0  0  0  0  0  0  0  0  0  0
  -30.4260  -12.6220   19.3890 C   0  0  0  0  0  2  0  0  0  0  0  0
  -29.5010  -12.6280   18.1510 C   0  0  0  0  0  2  0  0  0  0  0  0
  -28.0320  -12.4420   18.5760 C   0  0  0  0  0  2  0  0  0  0  0  0
  -27.6330  -13.3550   19.7640 C   0  0  0  0  0  3  0  0  0  0  0  0
  -28.6870  -13.3480   20.8930 C   0  0  0  0  0  2  0  0  0  0  0  0
  -29.9720  -13.7190   20.2850 N   0  0  0  0  0  0  0  0  0  0  0  0
  -31.8470  -14.9310   20.1700 O   0  0  0  0  0  0  0  0  0  0  0  0
  -29.9030  -16.1690   20.2930 N   0  0  0  0  0  0  0  0  0  0  0  0
  -28.9510  -16.0870   20.6170 H   0  0  0  0  0  0  0  0  0  0  0  0
  -25.2430  -13.9280   20.4710 C   0  0  0  0  0  0  0  0  0  0  0  0
  -24.1730  -13.1510   20.8280 C   0  0  0  0  0  0  0  0  0  0  0  0
  -24.6430  -11.8010   20.8130 C   0  0  0  0  0  0  0  0  0  0  0  0
  -26.2920  -13.0530   20.2530 N   0  0  0  0  0  0  0  0  0  0  0  0
  -25.9390  -11.7680   20.5250 N   0  0  0  0  0  0  0  0  0  0  0  0
  -23.9180  -10.5360   20.9960 C   0  0  0  0  0  0  0  0  0  0  0  0
  -24.3320   -9.5790   21.9490 C   0  0  0  0  0  3  0  0  0  0  0  0
  -23.6070   -8.3800   22.1220 C   0  0  0  0  0  3  0  0  0  0  0  0
  -22.4510   -8.1310   21.3430 C   0  0  0  0  0  0  0  0  0  0  0  0
  -22.0560   -9.0770   20.3800 C   0  0  0  0  0  3  0  0  0  0  0  0
  -22.7840  -10.2650   20.2040 C   0  0  0  0  0  3  0  0  0  0  0  0
  -21.7000   -6.9840   21.4300 O   0  0  0  0  0  0  0  0  0  0  0  0
  -21.6140   -6.2600   22.5920 C   0  0  0  0  0  0  0  0  0  0  0  0
  -21.1190   -6.8250   23.7880 C   0  0  0  0  0  3  0  0  0  0  0  0
  -20.9830   -6.0260   24.9410 C   0  0  0  0  0  3  0  0  0  0  0  0
  -21.3330   -4.6630   24.8980 C   0  0  0  0  0  0  0  0  0  0  0  0
  -21.8230   -4.0970   23.7090 C   0  0  0  0  0  3  0  0  0  0  0  0
  -21.9580   -4.8930   22.5580 C   0  0  0  0  0  0  0  0  0  0  0  0
  -22.4100   -4.3360   21.4080 F   0  0  0  0  0  0  0  0  0  0  0  0
  -21.1970   -3.8950   26.0050 F   0  0  0  0  0  0  0  0  0  0  0  0
  -22.7700  -13.6230   21.0690 C   0  0  0  0  0  0  0  0  0  0  0  0
  -22.0220  -12.9280   21.9190 N   0  0  0  0  0  0  0  0  0  0  0  0
  -22.3420  -14.6470   20.5340 O   0  0  0  0  0  0  0  0  0  0  0  0
  -22.3720  -12.0970   22.3720 H   0  0  0  0  0  0  0  0  0  0  0  0
  -21.0790  -13.2350   22.1180 H   0  0  0  0  0  0  0  0  0  0  0  0
  -25.4100  -15.2980   20.2940 N   0  0  0  0  0  0  0  0  0  0  0  0
  -24.6620  -15.9640   20.4480 H   0  0  0  0  0  0  0  0  0  0  0  0
  -26.2850  -15.7400   20.0470 H   0  0  0  0  0  0  0  0  0  0  0  0
  -28.4150  -22.1430   20.9530 C   0  0  0  0  0  2  0  0  0  0  0  0
  -29.4530  -22.7300   18.8520 C   0  0  0  0  0  2  0  0  0  0  0  0
  -28.2500  -23.7360   21.2540 C   0  0  0  0  0  2  0  0  0  0  0  0
  -29.4450  -24.2820   19.2020 C   0  0  0  0  0  2  0  0  0  0  0  0
  -29.6570  -21.7370   20.0730 C   0  0  0  0  0  3  0  0  0  0  0  0
  -28.2370  -24.7870   20.0490 C   0  0  0  0  0  3  0  0  0  0  0  0
  -28.2840  -26.3080   20.3240 O   0  0  0  0  0  0  0  0  0  0  0  0
  -24.5790  -31.9090   23.2680 C   0  0  0  0  0  0  0  0  0  0  0  0
  -27.1780  -27.2170   20.2570 C   0  0  0  0  0  0  0  0  0  0  0  0
  -23.3850  -30.5010   21.6340 C   0  0  0  0  0  3  0  0  0  0  0  0
  -24.8360  -28.9310   20.2160 C   0  0  0  0  0  0  0  0  0  0  0  0
  -25.9350  -30.7830   21.4650 C   0  0  0  0  0  2  0  0  0  0  0  0
  -26.0110  -29.3900   20.8220 C   0  0  0  0  0  0  0  0  0  0  0  0
  -27.1810  -28.5500   20.8230 C   0  0  0  0  0  3  0  0  0  0  0  0
  -25.9690  -26.8430   19.6250 C   0  0  0  0  0  3  0  0  0  0  0  0
  -24.8280  -27.6710   19.5990 C   0  0  0  0  0  3  0  0  0  0  0  0
  -23.6070  -29.8220   20.2560 C   0  0  0  0  0  2  0  0  0  0  0  0
  -24.6530  -31.0880   22.1750 N   0  0  0  0  0  0  0  0  0  0  0  0
  -23.4910  -32.1930   23.7910 O   0  0  0  0  0  0  0  0  0  0  0  0
  -22.7110  -29.4940   22.5970 C   0  0  0  0  0  0  0  0  0  0  0  0
  -21.3880  -29.3090   22.4560 N   0  0  0  0  0  0  0  0  0  0  0  0
  -23.3810  -28.8820   23.4330 O   0  0  0  0  0  0  0  0  0  0  0  0
  -20.9060  -29.8510   21.7540 H   0  0  0  0  0  0  0  0  0  0  0  0
  -18.0060  -28.1050   22.9380 C   0  0  0  0  0  0  0  0  0  0  0  0
  -20.5630  -28.3740   23.2260 C   0  0  0  0  0  3  0  0  0  0  0  0
  -20.6740  -26.9400   22.6570 C   0  0  0  0  0  2  0  0  0  0  0  0
  -19.5790  -26.6100   21.6370 C   0  0  0  0  0  2  0  0  0  0  0  0
  -18.1930  -26.7530   22.2710 C   0  0  0  0  0  2  0  0  0  0  0  0
  -19.1190  -28.8730   23.3720 C   0  0  0  0  0  0  0  0  0  0  0  0
  -18.8890  -30.1390   23.9540 C   0  0  0  0  0  3  0  0  0  0  0  0
  -17.5790  -30.6340   24.1110 C   0  0  0  0  0  3  0  0  0  0  0  0
  -16.4820  -29.8610   23.6950 C   0  0  0  0  0  3  0  0  0  0  0  0
  -16.6970  -28.5990   23.1110 C   0  0  0  0  0  3  0  0  0  0  0  0
  -25.8540  -32.5480   23.8970 C   0  0  0  0  0  3  0  0  0  0  0  0
  -25.5480  -33.9550   24.2020 N   0  0  0  0  0  0  0  0  0  0  0  0
  -25.8950  -34.9960   23.4350 C   0  0  0  0  0  0  0  0  0  0  0  0
  -26.5770  -34.8760   22.4140 O   0  0  0  0  0  0  0  0  0  0  0  0
  -24.9460  -34.1220   24.9950 H   0  0  0  0  0  0  0  0  0  0  0  0
  -24.1960  -36.8080   23.0250 C   0  0  0  0  0  1  0  0  0  0  0  0
  -25.4110  -36.3940   23.8700 C   0  0  0  0  0  3  0  0  0  0  0  0
  -27.5270  -37.2730   24.7560 C   0  0  0  0  0  1  0  0  0  0  0  0
  -26.4580  -37.4360   23.7750 N   0  0  0  0  0  0  0  0  0  0  0  0
  -26.0570  -38.3630   23.8950 H   0  0  0  0  0  0  0  0  0  0  0  0
  -26.3490  -31.7980   25.1940 C   0  0  1  0  0  0  0  0  0  0  0  0
  -25.2430  -31.5870   26.2550 C   0  0  0  0  0  1  0  0  0  0  0  0
  -26.9240  -30.4090   24.8350 C   0  0  0  0  0  1  0  0  0  0  0  0
  -27.5000  -32.5940   25.8550 C   0  0  0  0  0  1  0  0  0  0  0  0
  -33.8010  -21.3200   19.3180 C   0  0  0  0  0  2  0  0  0  0  0  0
  -32.8120  -22.2380   19.9640 C   0  0  0  0  0  2  0  0  0  0  0  0
  -32.3570  -21.3260   18.8360 C   0  0  0  0  0  3  0  0  0  0  0  0
  2  1  2  0
  3  2  1  0
  4  5  1  0
  4  3  2  0
  5  6  2  0
  6  1  1  0
  6 17  1  0
  7  4  1  0
  8  5  1  0
 10 15  1  0
 11 12  1  0
 11 10  1  0
 13 12  1  0
 13 22  1  0
 13 14  1  0
 15  9  1  0
 15 14  1  0
 16  9  2  0
 17  9  1  0
 17 18  1  0
 19 20  2  0
 20 39  1  0
 21 20  1  0
 21 24  1  0
 22 19  1  0
 22 23  1  0
 23 21  2  0
 24 25  1  0
 25 26  2  0
 27 30  1  0
 27 26  1  0
 28 27  2  0
 29 28  1  0
 29 24  2  0
 30 31  1  0
 31 32  1  0
 32 33  2  0
 34 33  1  0
 34 38  1  0
 35 34  2  0
 36 31  2  0
 36 35  1  0
 37 36  1  0
 39 40  1  0
 40 43  1  0
 40 42  1  0
 41 39  2  0
 44 45  1  0
 44 19  1  0
 46 44  1  0
 47 49  1  0
 48 50  1  0
 48 51  1  0
 50 52  1  0
 51  2  1  0
 51 47  1  0
 52 53  1  0
 52 49  1  0
 54 65  2  0
 55 53  1  0
 55 60  1  0
 56 64  1  0
 56 66  1  0
 57 63  1  0
 57 59  1  0
 58 64  1  0
 59 60  2  0
 59 58  1  0
 61 55  2  0
 62 61  1  0
 62 57  2  0
 63 56  1  0
 64 54  1  0
 66 68  2  0
 67 66  1  0
 69 67  1  0
 70 79  2  0
 70 75  1  0
 71 67  1  0
 71 75  1  0
 72 71  1  0
 73 74  1  0
 73 72  1  0
 74 70  1  0
 75 76  2  0
 76 77  1  0
 78 77  2  0
 79 78  1  0
 80 54  1  0
 80 81  1  0
 80 90  1  0
 81 84  1  0
 82 86  1  0
 82 81  1  0
 83 82  2  0
 86 85  1  0
 88 86  1  0
 88 89  1  0
 88 87  1  0
 90 93  1  1
 90 91  1  0
 92 90  1  0
 94 95  1  0
 96  3  1  0
 96 94  1  0
 96 95  1  0
M  ISO  4   9 100  17 100  52 101  53 101
M  END
>  <TORSDO>  (83) 
F 18

>  <SCORE>  (83) 
-14.724

>  <name>  (83) 
82

>  <ligand_id>  (83) 
82

>  <original_smiles>  (83) 
[H]c1c([H])c([H])c2c(c1[H])C([H])([H])C([H])([H])C([H])([H])C2([H])N([H])C(=O)C1([H])N(C(=O)C([H])(N([H])C(=O)C([H])(N([H])C([H])([H])[H])C([H])([H])[H])C(C([H])([H])[H])(C([H])([H])[H])C([H])([H])[H])C([H])([H])c2c([H])c(OC3([H])C([H])([H])C([H])([H])C([H])(c4c([H])c(N([H])C(=O)N5C([H])([H])C([H])([H])C([H])([H])C([H])(n6nc(-c7c([H])c([H])c(Oc8c([H])c([H])c(F)c([H])c8F)c([H])c7[H])c(C(=O)N([H])[H])c6N([H])[H])C5([H])[H])c(C([H])([H])[H])c(C([H])([H])[H])c4C4([H])C([H])([H])C4([H])[H])C([H])([H])C3([H])[H])c([H])c([H])c2C1([H])[H]

>  <smiles>  (83) 
[H]c1c([H])c([H])c2c(c1[H])C([H])([H])C([H])([H])C([H])([H])C2([H])N([H])C(=O)C1([H])N(C(=O)C([H])(N([H])C(=O)C([H])(N([H])C([H])([H])[H])C([H])([H])[H])C(C([H])([H])[H])(C([H])([H])[H])C([H])([H])[H])C([H])([H])c2c([H])c(OC3([H])C([H])([H])C([H])([H])C([H])(c4c([H])c(N([H])C(=O)N5C([H])([H])C([H])([H])C([H])([H])C([H])(n6nc(-c7c([H])c([H])c(Oc8c([H])c([H])c(F)c([H])c8F)c([H])c7[H])c(C(=O)N([H])[H])c6N([H])[H])C5([H])[H])c(C([H])([H])[H])c(C([H])([H])[H])c4C4([H])C([H])([H])C4([H])[H])C([H])([H])C3([H])[H])c([H])c([H])c2C1([H])[H]

$$$$
83:0:0
     RDKit          3D

 97107  0  0  1  0  0  0  0  0999 V2000
  -30.3130  -23.4550   18.8760 C   0  0  0  0  0  3  0  0  0  0  0  0
  -30.1770  -24.7810   19.3170 C   0  0  0  0  0  3  0  0  0  0  0  0
  -29.3160  -25.4090   17.1230 C   0  0  0  0  0  3  0  0  0  0  0  0
  -29.9460  -23.0880   17.5620 C   0  0  0  0  0  0  0  0  0  0  0  0
  -29.6520  -25.7510   18.4480 C   0  0  0  0  0  0  0  0  0  0  0  0
  -29.4660  -24.0800   16.6660 C   0  0  0  0  0  0  0  0  0  0  0  0
  -29.0970  -23.7560   15.2240 C   0  0  0  0  0  1  0  0  0  0  0  0
  -31.4470  -21.0500   17.2810 C   0  0  0  0  0  2  0  0  0  0  0  0
  -29.0500  -20.8040   18.0660 C   0  0  0  0  0  2  0  0  0  0  0  0
  -31.4590  -19.5390   17.0170 C   0  0  0  0  0  2  0  0  0  0  0  0
  -29.1570  -19.2970   17.8080 C   0  0  0  0  0  2  0  0  0  0  0  0
  -30.0170  -21.6120   17.1820 C   0  0  0  0  0  3  0  0  0  0  0  0
  -30.5590  -18.8370   17.9750 N   0  0  1  0  0  4  0  0  0  0  0  0
  -30.8610  -19.1340   18.8920 H   0  0  0  0  0  0  0  0  0  0  0  0
  -31.0860  -14.7440   20.5390 C   0  0  0  0  0  0  0  0  0  0  0  0
  -30.7370  -12.5210   19.6720 C   0  0  0  0  0  2  0  0  0  0  0  0
  -29.8360  -12.6300   18.4200 C   0  0  0  0  0  2  0  0  0  0  0  0
  -28.3540  -12.5970   18.8090 C   0  0  0  0  0  2  0  0  0  0  0  0
  -27.9830  -13.5350   19.9890 C   0  0  0  0  0  3  0  0  0  0  0  0
  -29.0110  -13.4360   21.1420 C   0  0  0  0  0  2  0  0  0  0  0  0
  -30.3590  -13.6020   20.5790 N   0  0  0  0  0  0  0  0  0  0  0  0
  -32.2170  -14.8420   20.9990 O   0  0  0  0  0  0  0  0  0  0  0  0
  -32.1050  -16.8280   17.8370 C   0  0  0  0  0  2  0  0  0  0  0  0
  -31.9780  -15.4080   18.3590 C   0  0  0  0  0  2  0  0  0  0  0  0
  -30.2310  -16.7110   19.3150 C   0  0  0  0  0  2  0  0  0  0  0  0
  -30.6860  -17.3570   17.9900 C   0  0  0  0  0  3  0  0  0  0  0  0
  -30.8950  -15.4080   19.3740 N   0  0  0  0  0  0  0  0  0  0  0  0
  -25.5630  -14.1730   20.6090 C   0  0  0  0  0  0  0  0  0  0  0  0
  -24.4620  -13.4100   20.8940 C   0  0  0  0  0  0  0  0  0  0  0  0
  -24.9020  -12.0520   20.8600 C   0  0  0  0  0  0  0  0  0  0  0  0
  -26.6090  -13.2820   20.4240 N   0  0  0  0  0  0  0  0  0  0  0  0
  -26.2100  -12.0020   20.6410 N   0  0  0  0  0  0  0  0  0  0  0  0
  -24.1460  -10.7970   20.9700 C   0  0  0  0  0  0  0  0  0  0  0  0
  -24.5040   -9.8000   21.9050 C   0  0  0  0  0  3  0  0  0  0  0  0
  -23.7530   -8.6090   22.0040 C   0  0  0  0  0  3  0  0  0  0  0  0
  -22.6300   -8.4070   21.1680 C   0  0  0  0  0  0  0  0  0  0  0  0
  -22.2930   -9.3900   20.2230 C   0  0  0  0  0  3  0  0  0  0  0  0
  -23.0440  -10.5730   20.1210 C   0  0  0  0  0  3  0  0  0  0  0  0
  -21.8540   -7.2740   21.1800 O   0  0  0  0  0  0  0  0  0  0  0  0
  -21.6960   -6.5210   22.3160 C   0  0  0  0  0  0  0  0  0  0  0  0
  -21.1290   -7.0580   23.4930 C   0  0  0  0  0  3  0  0  0  0  0  0
  -20.9210   -6.2310   24.6150 C   0  0  0  0  0  3  0  0  0  0  0  0
  -21.2710   -4.8680   24.5600 C   0  0  0  0  0  0  0  0  0  0  0  0
  -21.8290   -4.3300   23.3870 C   0  0  0  0  0  3  0  0  0  0  0  0
  -22.0390   -5.1550   22.2680 C   0  0  0  0  0  0  0  0  0  0  0  0
  -22.5580   -4.6280   21.1320 F   0  0  0  0  0  0  0  0  0  0  0  0
  -21.0660   -4.0700   25.6350 F   0  0  0  0  0  0  0  0  0  0  0  0
  -23.0560  -13.9040   21.0940 C   0  0  0  0  0  0  0  0  0  0  0  0
  -22.2660  -13.2000   21.8990 N   0  0  0  0  0  0  0  0  0  0  0  0
  -22.6650  -14.9470   20.5720 O   0  0  0  0  0  0  0  0  0  0  0  0
  -22.5970  -12.3580   22.3470 H   0  0  0  0  0  0  0  0  0  0  0  0
  -21.3180  -13.5070   22.0710 H   0  0  0  0  0  0  0  0  0  0  0  0
  -25.7640  -15.5430   20.4680 N   0  0  0  0  0  0  0  0  0  0  0  0
  -25.0080  -16.2130   20.5560 H   0  0  0  0  0  0  0  0  0  0  0  0
  -26.6530  -15.9720   20.2490 H   0  0  0  0  0  0  0  0  0  0  0  0
  -29.4390  -27.1510   18.9760 C   0  0  0  0  0  2  0  0  0  0  0  0
  -28.7610  -27.1130   20.2240 O   0  0  0  0  0  0  0  0  0  0  0  0
  -24.5920  -31.9370   23.3070 C   0  0  0  0  0  0  0  0  0  0  0  0
  -27.5480  -27.7420   20.2190 C   0  0  0  0  0  0  0  0  0  0  0  0
  -23.5080  -30.5320   21.5790 C   0  0  0  0  0  3  0  0  0  0  0  0
  -25.0820  -29.0920   20.1820 C   0  0  0  0  0  0  0  0  0  0  0  0
  -26.0150  -31.0100   21.4920 C   0  0  0  0  0  2  0  0  0  0  0  0
  -26.1840  -29.6630   20.8300 C   0  0  0  0  0  0  0  0  0  0  0  0
  -27.4180  -28.9880   20.8580 C   0  0  0  0  0  3  0  0  0  0  0  0
  -26.4350  -27.1610   19.5760 C   0  0  0  0  0  3  0  0  0  0  0  0
  -25.1970  -27.8330   19.5610 C   0  0  0  0  0  3  0  0  0  0  0  0
  -23.7980  -29.8910   20.1950 C   0  0  0  0  0  2  0  0  0  0  0  0
  -24.7190  -31.1740   22.1850 N   0  0  0  0  0  0  0  0  0  0  0  0
  -23.4810  -32.1500   23.8120 O   0  0  0  0  0  0  0  0  0  0  0  0
  -22.8610  -29.4620   22.4870 C   0  0  0  0  0  0  0  0  0  0  0  0
  -21.5450  -29.2520   22.3140 N   0  0  0  0  0  0  0  0  0  0  0  0
  -23.5390  -28.8260   23.2970 O   0  0  0  0  0  0  0  0  0  0  0  0
  -21.0590  -29.8180   21.6320 H   0  0  0  0  0  0  0  0  0  0  0  0
  -18.1840  -28.0050   22.7150 C   0  0  0  0  0  0  0  0  0  0  0  0
  -20.7340  -28.2670   23.0260 C   0  0  0  0  0  3  0  0  0  0  0  0
  -20.8560  -26.8700   22.3760 C   0  0  0  0  0  2  0  0  0  0  0  0
  -19.7680  -26.5930   21.3340 C   0  0  0  0  0  2  0  0  0  0  0  0
  -18.3790  -26.6950   21.9690 C   0  0  0  0  0  2  0  0  0  0  0  0
  -19.2920  -28.7510   23.1950 C   0  0  0  0  0  0  0  0  0  0  0  0
  -19.0570  -29.9810   23.8480 C   0  0  0  0  0  3  0  0  0  0  0  0
  -17.7490  -30.4640   24.0250 C   0  0  0  0  0  3  0  0  0  0  0  0
  -16.6530  -29.7120   23.5650 C   0  0  0  0  0  3  0  0  0  0  0  0
  -16.8720  -28.4830   22.9160 C   0  0  0  0  0  3  0  0  0  0  0  0
  -25.8300  -32.5960   23.9950 C   0  0  0  0  0  3  0  0  0  0  0  0
  -25.4830  -33.9930   24.2880 N   0  0  0  0  0  0  0  0  0  0  0  0
  -25.8670  -35.0410   23.5470 C   0  0  0  0  0  0  0  0  0  0  0  0
  -26.6240  -34.9360   22.5790 O   0  0  0  0  0  0  0  0  0  0  0  0
  -24.8190  -34.1490   25.0330 H   0  0  0  0  0  0  0  0  0  0  0  0
  -24.1780  -36.8240   23.0030 C   0  0  0  0  0  1  0  0  0  0  0  0
  -25.3280  -36.4280   23.9450 C   0  0  0  0  0  3  0  0  0  0  0  0
  -27.3560  -37.3280   24.9990 C   0  0  0  0  0  1  0  0  0  0  0  0
  -26.3620  -37.4850   23.9400 N   0  0  0  0  0  0  0  0  0  0  0  0
  -25.9370  -38.4020   24.0420 H   0  0  0  0  0  0  0  0  0  0  0  0
  -26.2850  -31.8440   25.3050 C   0  0  1  0  0  0  0  0  0  0  0  0
  -25.1380  -31.5950   26.3090 C   0  0  0  0  0  1  0  0  0  0  0  0
  -26.9140  -30.4730   24.9600 C   0  0  0  0  0  1  0  0  0  0  0  0
  -27.3810  -32.6600   26.0280 C   0  0  0  0  0  1  0  0  0  0  0  0
  1  2  1  0
  3  5  1  0
  4  1  2  0
  5 56  1  0
  5  2  2  0
  6  3  2  0
  6  4  1  0
  7  6  1  0
 10  8  1  0
 10 13  1  0
 11 13  1  0
 11  9  1  0
 12  8  1  0
 12  4  1  0
 12  9  1  0
 13 26  1  0
 13 14  1  1
 15 21  1  0
 15 22  2  0
 16 21  1  0
 17 18  1  0
 17 16  1  0
 19 18  1  0
 19 31  1  0
 19 20  1  0
 21 20  1  0
 23 24  1  0
 24 27  1  0
 25 27  1  0
 26 23  1  0
 26 25  1  0
 27 15  1  0
 28 29  2  0
 29 48  1  0
 30 29  1  0
 30 33  1  0
 31 28  1  0
 31 32  1  0
 32 30  2  0
 33 34  1  0
 34 35  2  0
 36 39  1  0
 36 35  1  0
 37 36  2  0
 38 37  1  0
 38 33  2  0
 39 40  1  0
 40 41  1  0
 41 42  2  0
 43 42  1  0
 43 47  1  0
 44 43  2  0
 45 40  2  0
 45 44  1  0
 46 45  1  0
 48 49  1  0
 49 52  1  0
 49 51  1  0
 50 48  2  0
 53 54  1  0
 53 28  1  0
 55 53  1  0
 56 57  1  0
 58 69  2  0
 59 57  1  0
 59 64  1  0
 60 68  1  0
 60 70  1  0
 61 67  1  0
 61 63  1  0
 62 68  1  0
 63 64  2  0
 63 62  1  0
 65 59  2  0
 66 65  1  0
 66 61  2  0
 67 60  1  0
 68 58  1  0
 70 72  2  0
 71 70  1  0
 73 71  1  0
 74 83  2  0
 74 79  1  0
 75 71  1  0
 75 79  1  0
 76 75  1  0
 77 78  1  0
 77 76  1  0
 78 74  1  0
 79 80  2  0
 80 81  1  0
 82 81  2  0
 83 82  1  0
 84 58  1  0
 84 85  1  0
 84 94  1  0
 85 88  1  0
 86 90  1  0
 86 85  1  0
 87 86  2  0
 90 89  1  0
 92 90  1  0
 92 93  1  0
 92 91  1  0
 94 97  1  1
 94 95  1  0
 96 94  1  0
M  ISO  4  15 100  27 100  56 101  57 101
M  END
>  <TORSDO>  (84) 
F 18

>  <SCORE>  (84) 
-13.780

>  <name>  (84) 
83

>  <ligand_id>  (84) 
83

>  <original_smiles>  (84) 
[H]c1c([H])c([H])c2c(c1[H])C([H])([H])C([H])([H])C([H])([H])C2([H])N([H])C(=O)C1([H])N(C(=O)C([H])(N([H])C(=O)C([H])(N([H])C([H])([H])[H])C([H])([H])[H])C(C([H])([H])[H])(C([H])([H])[H])C([H])([H])[H])C([H])([H])c2c([H])c(OC([H])([H])c3c([H])c([H])c(C4([H])C([H])([H])C([H])([H])[N+]([H])(C5([H])C([H])([H])N(C(=O)N6C([H])([H])C([H])([H])C([H])([H])C([H])(n7nc(-c8c([H])c([H])c(Oc9c([H])c([H])c(F)c([H])c9F)c([H])c8[H])c(C(=O)N([H])[H])c7N([H])[H])C6([H])[H])C([H])([H])C5([H])[H])C([H])([H])C4([H])[H])c(C([H])([H])[H])c3[H])c([H])c([H])c2C1([H])[H]

>  <smiles>  (84) 
[H]c1c([H])c([H])c2c(c1[H])C([H])([H])C([H])([H])C([H])([H])C2([H])N([H])C(=O)C1([H])N(C(=O)C([H])(N([H])C(=O)C([H])(N([H])C([H])([H])[H])C([H])([H])[H])C(C([H])([H])[H])(C([H])([H])[H])C([H])([H])[H])C([H])([H])c2c([H])c(OC([H])([H])c3c([H])c([H])c(C4([H])C([H])([H])C([H])([H])[N+]([H])(C5([H])C([H])([H])N(C(=O)N6C([H])([H])C([H])([H])C([H])([H])C([H])(n7nc(-c8c([H])c([H])c(Oc9c([H])c([H])c(F)c([H])c9F)c([H])c8[H])c(C(=O)N([H])[H])c7N([H])[H])C6([H])[H])C([H])([H])C5([H])[H])C([H])([H])C4([H])[H])c(C([H])([H])[H])c3[H])c([H])c([H])c2C1([H])[H]

$$$$
84:0:0
     RDKit          3D

 94103  0  0  1  0  0  0  0  0999 V2000
  -28.4280  -20.6680   20.7190 C   0  0  0  0  0  3  0  0  0  0  0  0
  -29.5480  -20.6690   18.5580 C   0  0  0  0  0  3  0  0  0  0  0  0
  -29.2530  -20.0210   19.7750 C   0  0  0  0  0  0  0  0  0  0  0  0
  -27.9280  -21.9610   20.4570 C   0  0  0  0  0  0  0  0  0  0  0  0
  -29.0350  -21.9470   18.2750 C   0  0  0  0  0  0  0  0  0  0  0  0
  -28.2530  -22.6150   19.2450 C   0  0  0  0  0  0  0  0  0  0  0  0
  -27.0590  -22.6390   21.5000 C   0  0  0  0  0  1  0  0  0  0  0  0
  -29.3220  -22.5740   16.9210 C   0  0  0  0  0  1  0  0  0  0  0  0
  -31.0280  -14.6350   20.4460 C   0  0  0  0  0  0  0  0  0  0  0  0
  -30.6860  -12.4590   19.3770 C   0  0  0  0  0  2  0  0  0  0  0  0
  -29.7760  -12.6480   18.1470 C   0  0  0  0  0  2  0  0  0  0  0  0
  -28.2880  -12.5840   18.5510 C   0  0  0  0  0  2  0  0  0  0  0  0
  -27.9410  -13.4560   19.7910 C   0  0  0  0  0  3  0  0  0  0  0  0
  -28.9770  -13.2620   20.9230 C   0  0  0  0  0  2  0  0  0  0  0  0
  -30.3150  -13.4860   20.3560 N   0  0  0  0  0  0  0  0  0  0  0  0
  -32.2270  -14.7130   20.1630 O   0  0  0  0  0  0  0  0  0  0  0  0
  -29.8290  -18.0790   21.4350 C   0  0  0  0  0  2  0  0  0  0  0  0
  -29.2250  -17.5880   19.0990 C   0  0  0  0  0  2  0  0  0  0  0  0
  -30.6270  -16.7560   21.5200 C   0  0  0  0  0  2  0  0  0  0  0  0
  -30.0940  -16.3340   19.1230 C   0  0  0  0  0  2  0  0  0  0  0  0
  -29.8580  -18.6420   20.0050 C   0  0  0  0  0  3  0  0  0  0  0  0
  -30.2870  -15.7650   20.4740 N   0  0  0  0  0  0  0  0  0  0  0  0
  -25.5460  -14.1170   20.4520 C   0  0  0  0  0  0  0  0  0  0  0  0
  -24.4560  -13.3690   20.8040 C   0  0  0  0  0  0  0  0  0  0  0  0
  -24.8920  -12.0080   20.7960 C   0  0  0  0  0  0  0  0  0  0  0  0
  -26.5780  -13.2140   20.2520 N   0  0  0  0  0  0  0  0  0  0  0  0
  -26.1870  -11.9410   20.5170 N   0  0  0  0  0  0  0  0  0  0  0  0
  -24.1390  -10.7620   20.9800 C   0  0  0  0  0  0  0  0  0  0  0  0
  -24.5150   -9.8100   21.9540 C   0  0  0  0  0  3  0  0  0  0  0  0
  -23.7650   -8.6260   22.1230 C   0  0  0  0  0  3  0  0  0  0  0  0
  -22.6260   -8.3860   21.3190 C   0  0  0  0  0  0  0  0  0  0  0  0
  -22.2710   -9.3260   20.3350 C   0  0  0  0  0  3  0  0  0  0  0  0
  -23.0210  -10.5010   20.1640 C   0  0  0  0  0  3  0  0  0  0  0  0
  -21.8520   -7.2540   21.3960 O   0  0  0  0  0  0  0  0  0  0  0  0
  -21.7280   -6.5460   22.5650 C   0  0  0  0  0  0  0  0  0  0  0  0
  -21.1950   -7.1290   23.7350 C   0  0  0  0  0  3  0  0  0  0  0  0
  -21.0200   -6.3460   24.8940 C   0  0  0  0  0  3  0  0  0  0  0  0
  -21.3670   -4.9830   24.8830 C   0  0  0  0  0  0  0  0  0  0  0  0
  -21.8940   -4.3990   23.7160 C   0  0  0  0  0  3  0  0  0  0  0  0
  -22.0700   -5.1790   22.5600 C   0  0  0  0  0  0  0  0  0  0  0  0
  -22.5580   -4.6080   21.4320 F   0  0  0  0  0  0  0  0  0  0  0  0
  -21.1920   -4.2280   25.9930 F   0  0  0  0  0  0  0  0  0  0  0  0
  -23.0620  -13.8740   21.0420 C   0  0  0  0  0  0  0  0  0  0  0  0
  -22.3040  -13.1990   21.9000 N   0  0  0  0  0  0  0  0  0  0  0  0
  -22.6540  -14.9030   20.5050 O   0  0  0  0  0  0  0  0  0  0  0  0
  -22.6460  -12.3670   22.3570 H   0  0  0  0  0  0  0  0  0  0  0  0
  -21.3690  -13.5210   22.1030 H   0  0  0  0  0  0  0  0  0  0  0  0
  -25.7430  -15.4830   20.2680 N   0  0  0  0  0  0  0  0  0  0  0  0
  -24.9930  -16.1600   20.3670 H   0  0  0  0  0  0  0  0  0  0  0  0
  -26.6230  -15.9010   19.9960 H   0  0  0  0  0  0  0  0  0  0  0  0
  -27.7990  -23.8850   19.0040 O   0  0  0  0  0  0  0  0  0  0  0  0
  -28.8030  -24.8920   19.1070 C   0  0  0  0  0  2  0  0  0  0  0  0
  -28.6940  -25.5890   20.4700 C   0  0  0  0  0  2  0  0  0  0  0  0
  -28.7040  -27.0070   20.3450 O   0  0  0  0  0  0  0  0  0  0  0  0
  -24.6550  -31.9930   23.3230 C   0  0  0  0  0  0  0  0  0  0  0  0
  -27.4850  -27.6430   20.3180 C   0  0  0  0  0  0  0  0  0  0  0  0
  -23.5180  -30.5520   21.6650 C   0  0  0  0  0  3  0  0  0  0  0  0
  -25.0400  -29.0520   20.2790 C   0  0  0  0  0  0  0  0  0  0  0  0
  -26.0320  -30.9920   21.5070 C   0  0  0  0  0  2  0  0  0  0  0  0
  -26.1690  -29.6230   20.8770 C   0  0  0  0  0  0  0  0  0  0  0  0
  -27.3950  -28.9280   20.8870 C   0  0  0  0  0  3  0  0  0  0  0  0
  -26.3330  -27.0690   19.7290 C   0  0  0  0  0  3  0  0  0  0  0  0
  -25.1140  -27.7720   19.7030 C   0  0  0  0  0  3  0  0  0  0  0  0
  -23.7710  -29.8710   20.2930 C   0  0  0  0  0  2  0  0  0  0  0  0
  -24.7530  -31.1940   22.2240 N   0  0  0  0  0  0  0  0  0  0  0  0
  -23.5580  -32.2370   23.8420 O   0  0  0  0  0  0  0  0  0  0  0  0
  -22.8790  -29.5160   22.6170 C   0  0  0  0  0  0  0  0  0  0  0  0
  -21.5630  -29.3010   22.4670 N   0  0  0  0  0  0  0  0  0  0  0  0
  -23.5650  -28.9080   23.4430 O   0  0  0  0  0  0  0  0  0  0  0  0
  -21.0730  -29.8440   21.7700 H   0  0  0  0  0  0  0  0  0  0  0  0
  -18.2010  -28.0690   22.9390 C   0  0  0  0  0  0  0  0  0  0  0  0
  -20.7550  -28.3470   23.2240 C   0  0  0  0  0  3  0  0  0  0  0  0
  -20.8740  -26.9250   22.6310 C   0  0  0  0  0  2  0  0  0  0  0  0
  -19.7780  -26.6030   21.6100 C   0  0  0  0  0  2  0  0  0  0  0  0
  -18.3930  -26.7280   22.2510 C   0  0  0  0  0  2  0  0  0  0  0  0
  -19.3110  -28.8360   23.3820 C   0  0  0  0  0  0  0  0  0  0  0  0
  -19.0790  -30.0920   23.9830 C   0  0  0  0  0  3  0  0  0  0  0  0
  -17.7700  -30.5810   24.1470 C   0  0  0  0  0  3  0  0  0  0  0  0
  -16.6740  -29.8090   23.7230 C   0  0  0  0  0  3  0  0  0  0  0  0
  -16.8910  -28.5560   23.1250 C   0  0  0  0  0  3  0  0  0  0  0  0
  -25.9130  -32.6580   23.9640 C   0  0  0  0  0  3  0  0  0  0  0  0
  -26.4110  -31.9210   25.2680 C   0  0  1  0  0  0  0  0  0  0  0  0
  -25.2830  -31.6280   26.2850 C   0  0  0  0  0  1  0  0  0  0  0  0
  -27.0860  -30.5760   24.9080 C   0  0  0  0  0  1  0  0  0  0  0  0
  -27.4860  -32.7780   25.9770 C   0  0  0  0  0  1  0  0  0  0  0  0
  -25.5740  -34.0570   24.2530 N   0  0  0  0  0  0  0  0  0  0  0  0
  -25.9170  -35.0960   23.4810 C   0  0  0  0  0  0  0  0  0  0  0  0
  -26.6240  -34.9800   22.4760 O   0  0  0  0  0  0  0  0  0  0  0  0
  -24.9490  -34.2210   25.0290 H   0  0  0  0  0  0  0  0  0  0  0  0
  -24.1840  -36.8570   23.0140 C   0  0  0  0  0  1  0  0  0  0  0  0
  -25.3910  -36.4860   23.8890 C   0  0  0  0  0  3  0  0  0  0  0  0
  -27.4680  -37.4200   24.8070 C   0  0  0  0  0  1  0  0  0  0  0  0
  -26.4140  -37.5500   23.8040 N   0  0  0  0  0  0  0  0  0  0  0  0
  -25.9870  -38.4680   23.9080 H   0  0  0  0  0  0  0  0  0  0  0  0
  2  3  1  0
  3  1  2  0
  4  1  1  0
  4  7  1  0
  5  2  2  0
  5  6  1  0
  6  4  2  0
  8  5  1  0
  9 22  1  0
 10 15  1  0
 11 12  1  0
 11 10  1  0
 13 12  1  0
 13 26  1  0
 13 14  1  0
 15  9  1  0
 15 14  1  0
 16  9  2  0
 17 19  1  0
 18 20  1  0
 18 21  1  0
 20 22  1  0
 21  3  1  0
 21 17  1  0
 22 19  1  0
 23 24  2  0
 24 43  1  0
 25 24  1  0
 25 28  1  0
 26 23  1  0
 26 27  1  0
 27 25  2  0
 28 29  1  0
 29 30  2  0
 31 34  1  0
 31 30  1  0
 32 31  2  0
 33 32  1  0
 33 28  2  0
 34 35  1  0
 35 36  1  0
 36 37  2  0
 38 37  1  0
 38 42  1  0
 39 38  2  0
 40 35  2  0
 40 39  1  0
 41 40  1  0
 43 44  1  0
 44 47  1  0
 44 46  1  0
 45 43  2  0
 48 49  1  0
 48 23  1  0
 50 48  1  0
 51 52  1  0
 51  6  1  0
 52 53  1  0
 54 53  1  0
 55 66  2  0
 56 54  1  0
 56 61  1  0
 57 65  1  0
 57 67  1  0
 58 64  1  0
 58 60  1  0
 59 65  1  0
 60 61  2  0
 60 59  1  0
 62 56  2  0
 63 62  1  0
 63 58  2  0
 64 57  1  0
 65 55  1  0
 67 69  2  0
 68 67  1  0
 70 68  1  0
 71 80  2  0
 71 76  1  0
 72 68  1  0
 72 76  1  0
 73 72  1  0
 74 75  1  0
 74 73  1  0
 75 71  1  0
 76 77  2  0
 77 78  1  0
 79 78  2  0
 80 79  1  0
 81 55  1  0
 81 86  1  0
 81 82  1  0
 82 85  1  1
 82 83  1  0
 84 82  1  0
 86 89  1  0
 87 91  1  0
 87 86  1  0
 88 87  2  0
 91 90  1  0
 93 91  1  0
 93 94  1  0
 93 92  1  0
M  ISO  4   9 100  22 100  53 101  54 101
M  END
>  <TORSDO>  (85) 
F 19

>  <SCORE>  (85) 
-14.135

>  <name>  (85) 
84

>  <ligand_id>  (85) 
84

>  <original_smiles>  (85) 
[H]c1c([H])c([H])c2c(c1[H])C([H])([H])C([H])([H])C([H])([H])C2([H])N([H])C(=O)C1([H])N(C(=O)C([H])(N([H])C(=O)C([H])(N([H])C([H])([H])[H])C([H])([H])[H])C(C([H])([H])[H])(C([H])([H])[H])C([H])([H])[H])C([H])([H])c2c([H])c(OC([H])([H])C([H])([H])Oc3c(C([H])([H])[H])c([H])c(C4([H])C([H])([H])C([H])([H])N(C(=O)N5C([H])([H])C([H])([H])C([H])([H])C([H])(n6nc(-c7c([H])c([H])c(Oc8c([H])c([H])c(F)c([H])c8F)c([H])c7[H])c(C(=O)N([H])[H])c6N([H])[H])C5([H])[H])C([H])([H])C4([H])[H])c([H])c3C([H])([H])[H])c([H])c([H])c2C1([H])[H]

>  <smiles>  (85) 
[H]c1c([H])c([H])c2c(c1[H])C([H])([H])C([H])([H])C([H])([H])C2([H])N([H])C(=O)C1([H])N(C(=O)C([H])(N([H])C(=O)C([H])(N([H])C([H])([H])[H])C([H])([H])[H])C(C([H])([H])[H])(C([H])([H])[H])C([H])([H])[H])C([H])([H])c2c([H])c(OC([H])([H])C([H])([H])Oc3c(C([H])([H])[H])c([H])c(C4([H])C([H])([H])C([H])([H])N(C(=O)N5C([H])([H])C([H])([H])C([H])([H])C([H])(n6nc(-c7c([H])c([H])c(Oc8c([H])c([H])c(F)c([H])c8F)c([H])c7[H])c(C(=O)N([H])[H])c6N([H])[H])C5([H])[H])C([H])([H])C4([H])[H])c([H])c3C([H])([H])[H])c([H])c([H])c2C1([H])[H]

$$$$
85:0:0
     RDKit          3D

100110  0  0  1  0  0  0  0  0999 V2000
  -31.8060  -21.7760   19.0320 C   0  0  0  0  0  2  0  0  0  0  0  0
  -31.8680  -23.9030   20.3880 C   0  0  0  0  0  2  0  0  0  0  0  0
  -29.2440  -22.6450   19.8570 C   0  0  0  0  0  2  0  0  0  0  0  0
  -31.2120  -21.0880   20.2970 C   0  0  0  0  0  3  0  0  0  0  0  0
  -30.2080  -22.0870   20.9510 C   0  0  0  0  0  3  0  0  0  0  0  0
  -31.0590  -23.2480   21.5410 C   0  0  0  0  0  3  0  0  0  0  0  0
  -31.4620  -23.2820   19.0230 C   0  0  0  0  0  3  0  0  0  0  0  0
  -30.2500  -24.2620   22.3720 C   0  0  0  0  0  1  0  0  0  0  0  0
  -29.9920  -23.4290   18.8210 N   0  0  2  0  0  4  0  0  0  0  0  0
  -29.7910  -22.9990   17.9300 H   0  0  0  0  0  0  0  0  0  0  0  0
  -29.4870  -19.1810   20.5230 C   0  0  0  0  0  3  0  0  0  0  0  0
  -30.7690  -19.6190   20.1120 C   0  0  0  0  0  0  0  0  0  0  0  0
  -29.1430  -17.8120   20.5330 C   0  0  0  0  0  0  0  0  0  0  0  0
  -31.6640  -18.6500   19.5860 C   0  0  0  0  0  0  0  0  0  0  0  0
  -31.2370  -17.3110   19.3870 C   0  0  0  0  0  0  0  0  0  0  0  0
  -30.0330  -16.8440   20.0000 C   0  0  0  0  0  0  0  0  0  0  0  0
  -27.8040  -17.4130   21.1400 C   0  0  0  0  0  1  0  0  0  0  0  0
  -33.1140  -19.0150   19.2630 C   0  0  0  0  0  1  0  0  0  0  0  0
  -32.0840  -16.4300   18.4650 C   0  0  0  0  0  1  0  0  0  0  0  0
  -30.4260  -14.3670   19.8620 C   0  0  0  0  0  0  0  0  0  0  0  0
  -30.0580  -12.2120   18.7640 C   0  0  0  0  0  2  0  0  0  0  0  0
  -29.0160  -12.4170   17.6470 C   0  0  0  0  0  2  0  0  0  0  0  0
  -27.5860  -12.2530   18.1980 C   0  0  0  0  0  2  0  0  0  0  0  0
  -27.3410  -13.0650   19.5020 C   0  0  0  0  0  3  0  0  0  0  0  0
  -28.4990  -12.8810   20.5100 C   0  0  0  0  0  2  0  0  0  0  0  0
  -29.7540  -13.1900   19.8150 N   0  0  0  0  0  0  0  0  0  0  0  0
  -31.5990  -14.4600   19.5060 O   0  0  0  0  0  0  0  0  0  0  0  0
  -29.6550  -15.4580   20.0740 N   0  0  0  0  0  0  0  0  0  0  0  0
  -28.7250  -15.2680   20.4100 H   0  0  0  0  0  0  0  0  0  0  0  0
  -25.0090  -13.5940   20.4420 C   0  0  0  0  0  0  0  0  0  0  0  0
  -23.9990  -12.7870   20.8900 C   0  0  0  0  0  0  0  0  0  0  0  0
  -24.4890  -11.4480   20.7940 C   0  0  0  0  0  0  0  0  0  0  0  0
  -26.0490  -12.7440   20.1000 N   0  0  0  0  0  0  0  0  0  0  0  0
  -25.7470  -11.4480   20.3710 N   0  0  0  0  0  0  0  0  0  0  0  0
  -23.8110  -10.1650   21.0200 C   0  0  0  0  0  0  0  0  0  0  0  0
  -24.2900   -9.2380   21.9730 C   0  0  0  0  0  3  0  0  0  0  0  0
  -23.6130   -8.0190   22.1890 C   0  0  0  0  0  3  0  0  0  0  0  0
  -22.4420   -7.7180   21.4540 C   0  0  0  0  0  0  0  0  0  0  0  0
  -21.9810   -8.6350   20.4920 C   0  0  0  0  0  3  0  0  0  0  0  0
  -22.6590   -9.8460   20.2740 C   0  0  0  0  0  3  0  0  0  0  0  0
  -21.7310   -6.5490   21.5790 O   0  0  0  0  0  0  0  0  0  0  0  0
  -21.6550   -5.8780   22.7730 C   0  0  0  0  0  0  0  0  0  0  0  0
  -21.1040   -6.4740   23.9300 C   0  0  0  0  0  3  0  0  0  0  0  0
  -20.9810   -5.7260   25.1170 C   0  0  0  0  0  3  0  0  0  0  0  0
  -21.3960   -4.3800   25.1490 C   0  0  0  0  0  0  0  0  0  0  0  0
  -21.9420   -3.7840   23.9980 C   0  0  0  0  0  3  0  0  0  0  0  0
  -22.0670   -4.5310   22.8130 C   0  0  0  0  0  0  0  0  0  0  0  0
  -22.5710   -3.9440   21.7010 F   0  0  0  0  0  0  0  0  0  0  0  0
  -21.2720   -3.6600   26.2870 F   0  0  0  0  0  0  0  0  0  0  0  0
  -22.6210  -13.2250   21.2920 C   0  0  0  0  0  0  0  0  0  0  0  0
  -22.0010  -12.5110   22.2260 N   0  0  0  0  0  0  0  0  0  0  0  0
  -22.1030  -14.2330   20.8130 O   0  0  0  0  0  0  0  0  0  0  0  0
  -22.4330  -11.6960   22.6340 H   0  0  0  0  0  0  0  0  0  0  0  0
  -21.0800  -12.7860   22.5390 H   0  0  0  0  0  0  0  0  0  0  0  0
  -25.1190  -14.9730   20.2760 N   0  0  0  0  0  0  0  0  0  0  0  0
  -24.3420  -15.5990   20.4510 H   0  0  0  0  0  0  0  0  0  0  0  0
  -25.9090  -15.4380   19.8490 H   0  0  0  0  0  0  0  0  0  0  0  0
  -29.5770  -24.8540   18.6890 C   0  0  0  0  0  2  0  0  0  0  0  0
  -28.0730  -25.0860   18.4710 C   0  0  0  0  0  2  0  0  0  0  0  0
  -27.9300  -26.5000   18.5440 O   0  0  0  0  0  0  0  0  0  0  0  0
  -24.3140  -31.1140   22.5100 C   0  0  0  0  0  0  0  0  0  0  0  0
  -26.6960  -27.0610   18.7700 C   0  0  0  0  0  0  0  0  0  0  0  0
  -22.9470  -29.7430   20.9690 C   0  0  0  0  0  3  0  0  0  0  0  0
  -24.2430  -28.3810   19.2470 C   0  0  0  0  0  0  0  0  0  0  0  0
  -25.3820  -30.2790   20.4160 C   0  0  0  0  0  2  0  0  0  0  0  0
  -25.4410  -28.9530   19.6870 C   0  0  0  0  0  0  0  0  0  0  0  0
  -26.6660  -28.3020   19.4410 C   0  0  0  0  0  3  0  0  0  0  0  0
  -25.4780  -26.4840   18.3420 C   0  0  0  0  0  3  0  0  0  0  0  0
  -24.2550  -27.1440   18.5750 C   0  0  0  0  0  3  0  0  0  0  0  0
  -22.9770  -29.1590   19.5280 C   0  0  0  0  0  2  0  0  0  0  0  0
  -24.2410  -30.3910   21.3560 N   0  0  0  0  0  0  0  0  0  0  0  0
  -23.3140  -31.2840   23.2210 O   0  0  0  0  0  0  0  0  0  0  0  0
  -22.5000  -28.6280   21.9410 C   0  0  0  0  0  0  0  0  0  0  0  0
  -21.1810  -28.3960   22.0210 N   0  0  0  0  0  0  0  0  0  0  0  0
  -23.3290  -27.9780   22.5820 O   0  0  0  0  0  0  0  0  0  0  0  0
  -20.5630  -28.9840   21.4770 H   0  0  0  0  0  0  0  0  0  0  0  0
  -17.9790  -26.9850   22.9150 C   0  0  0  0  0  0  0  0  0  0  0  0
  -20.5330  -27.3680   22.8360 C   0  0  0  0  0  3  0  0  0  0  0  0
  -20.6160  -25.9810   22.1570 C   0  0  0  0  0  2  0  0  0  0  0  0
  -19.3930  -25.6580   21.2920 C   0  0  0  0  0  2  0  0  0  0  0  0
  -18.1170  -25.6880   22.1370 C   0  0  0  0  0  2  0  0  0  0  0  0
  -19.1110  -27.7820   23.2300 C   0  0  0  0  0  0  0  0  0  0  0  0
  -18.9210  -28.9960   23.9260 C   0  0  0  0  0  3  0  0  0  0  0  0
  -17.6330  -29.4130   24.3080 C   0  0  0  0  0  3  0  0  0  0  0  0
  -16.5180  -28.6130   24.0080 C   0  0  0  0  0  3  0  0  0  0  0  0
  -16.6920  -27.4000   23.3170 C   0  0  0  0  0  3  0  0  0  0  0  0
  -25.6440  -31.7810   22.9790 C   0  0  0  0  0  3  0  0  0  0  0  0
  -26.4530  -30.9020   24.0120 C   0  0  1  0  0  0  0  0  0  0  0  0
  -25.6100  -30.4310   25.2190 C   0  0  0  0  0  1  0  0  0  0  0  0
  -27.0300  -29.6470   23.3170 C   0  0  0  0  0  1  0  0  0  0  0  0
  -27.6550  -31.7050   24.5600 C   0  0  0  0  0  1  0  0  0  0  0  0
  -25.3030  -33.0860   23.5610 N   0  0  0  0  0  0  0  0  0  0  0  0
  -25.5240  -34.2650   22.9650 C   0  0  0  0  0  0  0  0  0  0  0  0
  -26.1090  -34.3710   21.8840 O   0  0  0  0  0  0  0  0  0  0  0  0
  -24.7720  -33.0730   24.4200 H   0  0  0  0  0  0  0  0  0  0  0  0
  -23.7020  -35.9970   23.0380 C   0  0  0  0  0  1  0  0  0  0  0  0
  -25.0160  -35.5290   23.6850 C   0  0  0  0  0  3  0  0  0  0  0  0
  -27.1620  -36.3810   24.5200 C   0  0  0  0  0  1  0  0  0  0  0  0
  -25.9930  -36.6390   23.6850 N   0  0  0  0  0  0  0  0  0  0  0  0
  -25.5570  -37.5000   24.0050 H   0  0  0  0  0  0  0  0  0  0  0  0
  1  4  1  0
  2  6  1  0
  4 12  1  0
  4  5  1  0
  5  3  1  0
  5  6  1  0
  6  8  1  0
  7  1  1  0
  7  2  1  0
  9  7  1  0
  9  3  1  0
  9 10  1  6
 11 13  1  0
 12 11  2  0
 13 17  1  0
 14 12  1  0
 15 14  2  0
 15 16  1  0
 16 28  1  0
 16 13  2  0
 18 14  1  0
 19 15  1  0
 20 28  1  0
 21 26  1  0
 22 23  1  0
 22 21  1  0
 24 23  1  0
 24 33  1  0
 24 25  1  0
 26 20  1  0
 26 25  1  0
 27 20  2  0
 28 29  1  0
 30 31  2  0
 31 50  1  0
 32 31  1  0
 32 35  1  0
 33 34  1  0
 33 30  1  0
 34 32  2  0
 35 36  1  0
 36 37  2  0
 38 41  1  0
 38 37  1  0
 39 38  2  0
 40 39  1  0
 40 35  2  0
 41 42  1  0
 42 47  2  0
 42 43  1  0
 43 44  2  0
 44 45  1  0
 45 49  1  0
 46 45  2  0
 47 46  1  0
 48 47  1  0
 50 51  1  0
 51 54  1  0
 51 53  1  0
 52 50  2  0
 55 30  1  0
 55 56  1  0
 57 55  1  0
 58  9  1  0
 59 60  1  0
 59 58  1  0
 60 62  1  0
 61 72  2  0
 62 67  1  0
 63 71  1  0
 63 73  1  0
 64 70  1  0
 64 66  1  0
 65 71  1  0
 66 65  1  0
 67 66  2  0
 68 69  1  0
 68 62  2  0
 69 64  2  0
 70 63  1  0
 71 61  1  0
 73 74  1  0
 73 75  2  0
 76 74  1  0
 77 82  2  0
 77 86  1  0
 78 74  1  0
 78 82  1  0
 79 78  1  0
 80 81  1  0
 80 79  1  0
 81 77  1  0
 82 83  1  0
 83 84  2  0
 85 84  1  0
 86 85  2  0
 87 61  1  0
 87 92  1  0
 87 88  1  0
 88 91  1  1
 88 89  1  0
 90 88  1  0
 92 95  1  0
 93 92  1  0
 93 97  1  0
 94 93  2  0
 97 96  1  0
 97 99  1  0
 99100  1  0
 99 98  1  0
M  ISO  4  20 100  28 100  59 101  60 101
M  END
>  <TORSDO>  (86) 
F 19

>  <SCORE>  (86) 
-9.666

>  <name>  (86) 
85

>  <ligand_id>  (86) 
85

>  <original_smiles>  (86) 
[H]c1c([H])c([H])c2c(c1[H])C([H])([H])C([H])([H])C([H])([H])C2([H])N([H])C(=O)C1([H])N(C(=O)C([H])(N([H])C(=O)C([H])(N([H])C([H])([H])[H])C([H])([H])[H])C(C([H])([H])[H])(C([H])([H])[H])C([H])([H])[H])C([H])([H])c2c([H])c(OC([H])([H])C([H])([H])[N+]3([H])C([H])([H])C4([H])C([H])(c5c([H])c(C([H])([H])[H])c(N([H])C(=O)N6C([H])([H])C([H])([H])C([H])([H])C([H])(n7nc(-c8c([H])c([H])c(Oc9c([H])c([H])c(F)c([H])c9F)c([H])c8[H])c(C(=O)N([H])[H])c7N([H])[H])C6([H])[H])c(C([H])([H])[H])c5C([H])([H])[H])C([H])([H])C3([H])C([H])([H])C4([H])C([H])([H])[H])c([H])c([H])c2C1([H])[H]

>  <smiles>  (86) 
[H]c1c([H])c([H])c2c(c1[H])C([H])([H])C([H])([H])C([H])([H])C2([H])N([H])C(=O)C1([H])N(C(=O)C([H])(N([H])C(=O)C([H])(N([H])C([H])([H])[H])C([H])([H])[H])C(C([H])([H])[H])(C([H])([H])[H])C([H])([H])[H])C([H])([H])c2c([H])c(OC([H])([H])C([H])([H])[N+]3([H])C([H])([H])C4([H])C([H])(c5c([H])c(C([H])([H])[H])c(N([H])C(=O)N6C([H])([H])C([H])([H])C([H])([H])C([H])(n7nc(-c8c([H])c([H])c(Oc9c([H])c([H])c(F)c([H])c9F)c([H])c8[H])c(C(=O)N([H])[H])c7N([H])[H])C6([H])[H])c(C([H])([H])[H])c5C([H])([H])[H])C([H])([H])C3([H])C([H])([H])C4([H])C([H])([H])[H])c([H])c([H])c2C1([H])[H]

$$$$
86:0:0
     RDKit          3D

100110  0  0  1  0  0  0  0  0999 V2000
  -31.4870  -22.5550   18.8520 C   0  0  0  0  0  2  0  0  0  0  0  0
  -30.0270  -21.9690   20.8890 C   0  0  0  0  0  2  0  0  0  0  0  0
  -30.2260  -23.3610   18.4490 C   0  0  0  0  0  2  0  0  0  0  0  0
  -29.7290  -23.4550   20.9300 C   0  0  0  0  0  2  0  0  0  0  0  0
  -31.3330  -21.7030   20.1350 C   0  0  0  0  0  3  0  0  0  0  0  0
  -29.4810  -24.0140   19.5770 N   0  0  1  0  0  4  0  0  0  0  0  0
  -28.5200  -23.7840   19.3650 H   0  0  0  0  0  0  0  0  0  0  0  0
  -30.5690  -17.9690   20.3920 C   0  0  0  0  0  3  0  0  0  0  0  0
  -31.5240  -20.1800   20.0390 C   0  0  0  0  0  0  0  0  0  0  0  0
  -30.4050  -19.3060   20.0070 C   0  0  0  0  0  0  0  0  0  0  0  0
  -32.8140  -19.6140   20.2450 C   0  0  0  0  0  0  0  0  0  0  0  0
  -32.9350  -18.2730   20.7080 C   0  0  0  0  0  0  0  0  0  0  0  0
  -31.7930  -17.4470   20.8650 C   0  0  0  0  0  0  0  0  0  0  0  0
  -28.9930  -19.7390   19.6370 C   0  0  0  0  0  1  0  0  0  0  0  0
  -34.0790  -20.4360   20.0050 C   0  0  0  0  0  1  0  0  0  0  0  0
  -34.3060  -17.7050   21.0860 C   0  0  0  0  0  1  0  0  0  0  0  0
  -30.7300  -15.3080   21.5580 C   0  0  0  0  0  2  0  0  0  0  0  0
  -32.6930  -15.2020   20.7420 C   0  0  0  0  0  2  0  0  0  0  0  0
  -31.4210  -14.3590   20.5730 C   0  0  0  0  0  3  0  0  0  0  0  0
  -31.9080  -16.1730   21.4920 N   0  0  0  0  0  0  0  0  0  0  0  0
  -30.8530  -14.3190   19.1390 C   0  0  0  0  0  0  0  0  0  0  0  0
  -30.0570  -12.4820   17.7210 C   0  0  0  0  0  2  0  0  0  0  0  0
  -28.8070  -12.7420   16.8780 C   0  0  0  0  0  2  0  0  0  0  0  0
  -27.5350  -12.4760   17.6980 C   0  0  0  0  0  2  0  0  0  0  0  0
  -27.5480  -13.2180   19.0590 C   0  0  0  0  0  3  0  0  0  0  0  0
  -28.8710  -12.9620   19.8180 C   0  0  0  0  0  2  0  0  0  0  0  0
  -29.9860  -13.3110   18.9240 N   0  0  0  0  0  0  0  0  0  0  0  0
  -31.4190  -14.9300   18.2220 O   0  0  0  0  0  0  0  0  0  0  0  0
  -25.4370  -13.6770   20.4640 C   0  0  0  0  0  0  0  0  0  0  0  0
  -24.5050  -12.8380   21.0150 C   0  0  0  0  0  0  0  0  0  0  0  0
  -24.9320  -11.5130   20.6950 C   0  0  0  0  0  0  0  0  0  0  0  0
  -26.3770  -12.8570   19.8580 N   0  0  0  0  0  0  0  0  0  0  0  0
  -26.0880  -11.5440   20.0450 N   0  0  0  0  0  0  0  0  0  0  0  0
  -24.2800  -10.2160   20.9200 C   0  0  0  0  0  0  0  0  0  0  0  0
  -24.7650   -9.3020   21.8820 C   0  0  0  0  0  3  0  0  0  0  0  0
  -24.1090   -8.0700   22.0910 C   0  0  0  0  0  3  0  0  0  0  0  0
  -22.9540   -7.7420   21.3420 C   0  0  0  0  0  0  0  0  0  0  0  0
  -22.4910   -8.6440   20.3690 C   0  0  0  0  0  3  0  0  0  0  0  0
  -23.1480   -9.8680   20.1570 C   0  0  0  0  0  3  0  0  0  0  0  0
  -22.2670   -6.5580   21.4620 O   0  0  0  0  0  0  0  0  0  0  0  0
  -22.0490   -5.9720   22.6840 C   0  0  0  0  0  0  0  0  0  0  0  0
  -21.3430   -6.6350   23.7110 C   0  0  0  0  0  3  0  0  0  0  0  0
  -21.0800   -5.9710   24.9270 C   0  0  0  0  0  3  0  0  0  0  0  0
  -21.5150   -4.6440   25.1130 C   0  0  0  0  0  0  0  0  0  0  0  0
  -22.2120   -3.9810   24.0890 C   0  0  0  0  0  3  0  0  0  0  0  0
  -22.4760   -4.6430   22.8760 C   0  0  0  0  0  0  0  0  0  0  0  0
  -23.1310   -3.9920   21.8850 F   0  0  0  0  0  0  0  0  0  0  0  0
  -21.2560   -4.0030   26.2770 F   0  0  0  0  0  0  0  0  0  0  0  0
  -23.2420  -13.2380   21.7210 C   0  0  0  0  0  0  0  0  0  0  0  0
  -22.8090  -12.4470   22.6970 N   0  0  0  0  0  0  0  0  0  0  0  0
  -22.6580  -14.2830   21.4410 O   0  0  0  0  0  0  0  0  0  0  0  0
  -23.2970  -11.5980   22.9390 H   0  0  0  0  0  0  0  0  0  0  0  0
  -21.9750  -12.6930   23.2110 H   0  0  0  0  0  0  0  0  0  0  0  0
  -25.5570  -15.0640   20.4100 N   0  0  0  0  0  0  0  0  0  0  0  0
  -24.8620  -15.6900   20.8010 H   0  0  0  0  0  0  0  0  0  0  0  0
  -26.2910  -15.5530   19.9140 H   0  0  0  0  0  0  0  0  0  0  0  0
  -29.5240  -25.4950   19.5480 C   0  0  0  0  0  2  0  0  0  0  0  0
  -28.6460  -26.6110   21.7330 C   0  0  0  0  0  1  0  0  0  0  0  0
  -28.3410  -26.1560   20.2880 C   0  0  0  0  0  3  0  0  0  0  0  0
  -28.0880  -27.3060   19.5040 O   0  0  0  0  0  0  0  0  0  0  0  0
  -24.5060  -32.1050   23.2850 C   0  0  0  0  0  0  0  0  0  0  0  0
  -26.8980  -27.9370   19.7240 C   0  0  0  0  0  0  0  0  0  0  0  0
  -23.1650  -30.8110   21.6510 C   0  0  0  0  0  3  0  0  0  0  0  0
  -24.5010  -29.3630   20.0350 C   0  0  0  0  0  0  0  0  0  0  0  0
  -25.6610  -31.2000   21.2800 C   0  0  0  0  0  2  0  0  0  0  0  0
  -25.6940  -29.8760   20.5570 C   0  0  0  0  0  0  0  0  0  0  0  0
  -26.8980  -29.1670   20.4020 C   0  0  0  0  0  3  0  0  0  0  0  0
  -25.6960  -27.4110   19.2100 C   0  0  0  0  0  3  0  0  0  0  0  0
  -24.4920  -28.1240   19.3690 C   0  0  0  0  0  3  0  0  0  0  0  0
  -23.2650  -30.2090   20.2230 C   0  0  0  0  0  2  0  0  0  0  0  0
  -24.4650  -31.3830   22.1320 N   0  0  0  0  0  0  0  0  0  0  0  0
  -23.4730  -32.3400   23.9300 O   0  0  0  0  0  0  0  0  0  0  0  0
  -22.5950  -29.7300   22.5930 C   0  0  0  0  0  0  0  0  0  0  0  0
  -21.2830  -29.4650   22.4680 N   0  0  0  0  0  0  0  0  0  0  0  0
  -23.3260  -29.1330   23.3880 O   0  0  0  0  0  0  0  0  0  0  0  0
  -20.7540  -30.0000   21.7950 H   0  0  0  0  0  0  0  0  0  0  0  0
  -18.0220  -27.9840   22.8710 C   0  0  0  0  0  0  0  0  0  0  0  0
  -20.5360  -28.4610   23.2200 C   0  0  0  0  0  3  0  0  0  0  0  0
  -20.7820  -27.0450   22.6510 C   0  0  0  0  0  2  0  0  0  0  0  0
  -19.7440  -26.6250   21.6060 C   0  0  0  0  0  2  0  0  0  0  0  0
  -18.3360  -26.6530   22.2080 C   0  0  0  0  0  2  0  0  0  0  0  0
  -19.0560  -28.8390   23.3330 C   0  0  0  0  0  0  0  0  0  0  0  0
  -18.7130  -30.0820   23.9080 C   0  0  0  0  0  3  0  0  0  0  0  0
  -17.3670  -30.4680   24.0370 C   0  0  0  0  0  3  0  0  0  0  0  0
  -16.3450  -29.6090   23.5970 C   0  0  0  0  0  3  0  0  0  0  0  0
  -16.6720  -28.3720   23.0160 C   0  0  0  0  0  3  0  0  0  0  0  0
  -25.8430  -32.6910   23.8410 C   0  0  0  0  0  3  0  0  0  0  0  0
  -26.4190  -31.8820   25.0680 C   0  0  1  0  0  0  0  0  0  0  0  0
  -25.3650  -31.5780   26.1550 C   0  0  0  0  0  1  0  0  0  0  0  0
  -27.0210  -30.5370   24.5960 C   0  0  0  0  0  1  0  0  0  0  0  0
  -27.5670  -32.6780   25.7330 C   0  0  0  0  0  1  0  0  0  0  0  0
  -25.5940  -34.0880   24.2120 N   0  0  0  0  0  0  0  0  0  0  0  0
  -25.9260  -35.1450   23.4570 C   0  0  0  0  0  0  0  0  0  0  0  0
  -26.5420  -35.0420   22.3940 O   0  0  0  0  0  0  0  0  0  0  0  0
  -25.0490  -34.2450   25.0470 H   0  0  0  0  0  0  0  0  0  0  0  0
  -24.2530  -37.0000   23.1860 C   0  0  0  0  0  1  0  0  0  0  0  0
  -25.4970  -36.5340   23.9600 C   0  0  0  0  0  3  0  0  0  0  0  0
  -27.6780  -37.3290   24.7650 C   0  0  0  0  0  1  0  0  0  0  0  0
  -26.5620  -37.5530   23.8500 N   0  0  0  0  0  0  0  0  0  0  0  0
  -26.1920  -38.4840   24.0240 H   0  0  0  0  0  0  0  0  0  0  0  0
  1  5  1  0
  2  4  1  0
  3  1  1  0
  3  6  1  0
  5  9  1  0
  5  2  1  0
  6  4  1  0
  6  7  1  6
  8 13  1  0
  9 11  2  0
 10  9  1  0
 10  8  2  0
 11 12  1  0
 12 13  2  0
 12 16  1  0
 13 20  1  0
 14 10  1  0
 15 11  1  0
 18 20  1  0
 19 21  1  0
 19 18  1  0
 19 17  1  0
 20 17  1  0
 22 27  1  0
 23 24  1  0
 23 22  1  0
 25 24  1  0
 25 26  1  0
 25 32  1  0
 27 21  1  0
 27 26  1  0
 28 21  2  0
 29 30  2  0
 30 49  1  0
 31 34  1  0
 31 30  1  0
 32 33  1  0
 32 29  1  0
 33 31  2  0
 34 35  1  0
 35 36  2  0
 37 40  1  0
 37 36  1  0
 38 37  2  0
 39 38  1  0
 39 34  2  0
 40 41  1  0
 41 46  2  0
 41 42  1  0
 42 43  2  0
 43 44  1  0
 44 48  1  0
 45 44  2  0
 46 45  1  0
 47 46  1  0
 49 50  1  0
 50 52  1  0
 50 53  1  0
 51 49  2  0
 54 29  1  0
 54 55  1  0
 56 54  1  0
 57  6  1  0
 57 59  1  0
 59 58  1  0
 60 62  1  0
 60 59  1  0
 61 72  2  0
 62 67  1  0
 63 71  1  0
 63 73  1  0
 64 70  1  0
 64 66  1  0
 65 71  1  0
 66 65  1  0
 67 66  2  0
 68 69  1  0
 68 62  2  0
 69 64  2  0
 70 63  1  0
 71 61  1  0
 73 75  2  0
 74 73  1  0
 76 74  1  0
 77 86  2  0
 77 82  1  0
 78 74  1  0
 78 82  1  0
 79 78  1  0
 80 81  1  0
 80 79  1  0
 81 77  1  0
 82 83  2  0
 83 84  1  0
 85 84  2  0
 86 85  1  0
 87 61  1  0
 87 92  1  0
 87 88  1  0
 88 91  1  1
 88 89  1  0
 90 88  1  0
 92 95  1  0
 93 97  1  0
 93 92  1  0
 94 93  2  0
 97 96  1  0
 99 97  1  0
 99100  1  0
 99 98  1  0
M  ISO  4  19 100  21 100  59 101  60 101
M  END
>  <TORSDO>  (87) 
F 20

>  <SCORE>  (87) 
-7.830

>  <name>  (87) 
86

>  <ligand_id>  (87) 
86

>  <original_smiles>  (87) 
[H]c1c([H])c([H])c2c(c1[H])C([H])([H])C([H])([H])C([H])([H])C2([H])N([H])C(=O)C1([H])N(C(=O)C([H])(N([H])C(=O)C([H])(N([H])C([H])([H])[H])C([H])([H])[H])C(C([H])([H])[H])(C([H])([H])[H])C([H])([H])[H])C([H])([H])c2c([H])c(OC([H])(C([H])([H])[H])C([H])([H])[N+]3([H])C([H])([H])C([H])([H])C([H])(c4c(C([H])([H])[H])c([H])c(N5C([H])([H])C([H])(C(=O)N6C([H])([H])C([H])([H])C([H])([H])C([H])(n7nc(-c8c([H])c([H])c(Oc9c([H])c([H])c(F)c([H])c9F)c([H])c8[H])c(C(=O)N([H])[H])c7N([H])[H])C6([H])[H])C5([H])[H])c(C([H])([H])[H])c4C([H])([H])[H])C([H])([H])C3([H])[H])c([H])c([H])c2C1([H])[H]

>  <smiles>  (87) 
[H]c1c([H])c([H])c2c(c1[H])C([H])([H])C([H])([H])C([H])([H])C2([H])N([H])C(=O)C1([H])N(C(=O)C([H])(N([H])C(=O)C([H])(N([H])C([H])([H])[H])C([H])([H])[H])C(C([H])([H])[H])(C([H])([H])[H])C([H])([H])[H])C([H])([H])c2c([H])c(OC([H])(C([H])([H])[H])C([H])([H])[N+]3([H])C([H])([H])C([H])([H])C([H])(c4c(C([H])([H])[H])c([H])c(N5C([H])([H])C([H])(C(=O)N6C([H])([H])C([H])([H])C([H])([H])C([H])(n7nc(-c8c([H])c([H])c(Oc9c([H])c([H])c(F)c([H])c9F)c([H])c8[H])c(C(=O)N([H])[H])c7N([H])[H])C6([H])[H])C5([H])[H])c(C([H])([H])[H])c4C([H])([H])[H])C([H])([H])C3([H])[H])c([H])c([H])c2C1([H])[H]

$$$$
87:0:0
     RDKit          3D

 92101  0  0  1  0  0  0  0  0999 V2000
  -28.5300  -21.7800   19.9450 C   0  0  0  0  0  3  0  0  0  0  0  0
  -30.8360  -21.1110   20.0770 C   0  0  0  0  0  3  0  0  0  0  0  0
  -30.2290  -23.5120   20.0280 C   0  0  0  0  0  3  0  0  0  0  0  0
  -29.4980  -20.6490   19.9940 C   0  0  0  0  0  0  0  0  0  0  0  0
  -28.8530  -23.2360   19.9710 C   0  0  0  0  0  0  0  0  0  0  0  0
  -31.2020  -22.4890   20.0890 C   0  0  0  0  0  0  0  0  0  0  0  0
  -29.9010  -18.2710   21.1940 C   0  0  0  0  0  2  0  0  0  0  0  0
  -29.2300  -19.0040   20.0700 C   0  0  0  0  0  3  0  0  0  0  0  0
  -30.1670  -17.5990   19.8580 C   0  0  1  0  0  0  0  0  0  0  0  0
  -31.4620  -17.8300   19.0880 C   0  0  0  0  0  1  0  0  0  0  0  0
  -30.6150  -14.8510   19.8430 C   0  0  0  0  0  0  0  0  0  0  0  0
  -30.4570  -12.4540   19.0260 C   0  0  0  0  0  2  0  0  0  0  0  0
  -29.4640  -12.3280   17.8480 C   0  0  0  0  0  2  0  0  0  0  0  0
  -28.0340  -12.1090   18.3730 C   0  0  0  0  0  2  0  0  0  0  0  0
  -27.6700  -13.0920   19.5180 C   0  0  0  0  0  3  0  0  0  0  0  0
  -28.7840  -13.2040   20.5830 C   0  0  0  0  0  2  0  0  0  0  0  0
  -30.0100  -13.5940   19.8780 N   0  0  0  0  0  0  0  0  0  0  0  0
  -31.8130  -14.8690   19.5430 O   0  0  0  0  0  0  0  0  0  0  0  0
  -29.8510  -16.0560   19.9540 N   0  0  0  0  0  0  0  0  0  0  0  0
  -28.8740  -15.8640   20.1180 H   0  0  0  0  0  0  0  0  0  0  0  0
  -25.3590  -13.6770   20.4460 C   0  0  0  0  0  0  0  0  0  0  0  0
  -24.3100  -12.9060   20.8610 C   0  0  0  0  0  0  0  0  0  0  0  0
  -24.7460  -11.5490   20.7530 C   0  0  0  0  0  0  0  0  0  0  0  0
  -26.3680  -12.7930   20.1040 N   0  0  0  0  0  0  0  0  0  0  0  0
  -26.0120  -11.5050   20.3560 N   0  0  0  0  0  0  0  0  0  0  0  0
  -24.0090  -10.2930   20.9490 C   0  0  0  0  0  0  0  0  0  0  0  0
  -24.4290   -9.3350   21.8960 C   0  0  0  0  0  3  0  0  0  0  0  0
  -23.6960   -8.1420   22.0810 C   0  0  0  0  0  3  0  0  0  0  0  0
  -22.5290   -7.9010   21.3180 C   0  0  0  0  0  0  0  0  0  0  0  0
  -22.1280   -8.8490   20.3590 C   0  0  0  0  0  3  0  0  0  0  0  0
  -22.8620  -10.0320   20.1720 C   0  0  0  0  0  3  0  0  0  0  0  0
  -21.7660   -6.7610   21.4120 O   0  0  0  0  0  0  0  0  0  0  0  0
  -21.6430   -6.0720   22.5910 C   0  0  0  0  0  0  0  0  0  0  0  0
  -21.0960   -6.6690   23.7490 C   0  0  0  0  0  3  0  0  0  0  0  0
  -20.9230   -5.9040   24.9210 C   0  0  0  0  0  3  0  0  0  0  0  0
  -21.2860   -4.5440   24.9350 C   0  0  0  0  0  0  0  0  0  0  0  0
  -21.8270   -3.9470   23.7820 C   0  0  0  0  0  3  0  0  0  0  0  0
  -22.0020   -4.7090   22.6140 C   0  0  0  0  0  0  0  0  0  0  0  0
  -22.5030   -4.1250   21.5000 F   0  0  0  0  0  0  0  0  0  0  0  0
  -21.1150   -3.8080   26.0570 F   0  0  0  0  0  0  0  0  0  0  0  0
  -22.9410  -13.3930   21.2390 C   0  0  0  0  0  0  0  0  0  0  0  0
  -22.2600  -12.6780   22.1260 N   0  0  0  0  0  0  0  0  0  0  0  0
  -22.4880  -14.4400   20.7770 O   0  0  0  0  0  0  0  0  0  0  0  0
  -22.6420  -11.8290   22.5150 H   0  0  0  0  0  0  0  0  0  0  0  0
  -21.3410  -12.9790   22.4160 H   0  0  0  0  0  0  0  0  0  0  0  0
  -25.5320  -15.0510   20.3040 N   0  0  0  0  0  0  0  0  0  0  0  0
  -24.7810  -15.7080   20.4890 H   0  0  0  0  0  0  0  0  0  0  0  0
  -26.3380  -15.4870   19.8780 H   0  0  0  0  0  0  0  0  0  0  0  0
  -33.5390  -21.9700   20.3620 C   0  0  0  0  0  1  0  0  0  0  0  0
  -32.5060  -22.9290   20.1720 O   0  0  0  0  0  0  0  0  0  0  0  0
  -27.8180  -24.5130   19.9320 C   0  0  0  0  0  2  0  0  0  0  0  0
  -28.1680  -26.0120   20.1760 O   0  0  0  0  0  0  0  0  0  0  0  0
  -24.6600  -31.7400   23.2250 C   0  0  0  0  0  0  0  0  0  0  0  0
  -27.1460  -27.0310   20.1130 C   0  0  0  0  0  0  0  0  0  0  0  0
  -23.4360  -30.4000   21.5580 C   0  0  0  0  0  3  0  0  0  0  0  0
  -24.8560  -28.8270   20.1070 C   0  0  0  0  0  0  0  0  0  0  0  0
  -25.9950  -30.6150   21.4040 C   0  0  0  0  0  2  0  0  0  0  0  0
  -26.0420  -29.2330   20.7310 C   0  0  0  0  0  0  0  0  0  0  0  0
  -27.1890  -28.3520   20.7200 C   0  0  0  0  0  3  0  0  0  0  0  0
  -25.9410  -26.7360   19.4390 C   0  0  0  0  0  3  0  0  0  0  0  0
  -24.8200  -27.5940   19.4400 C   0  0  0  0  0  3  0  0  0  0  0  0
  -23.6460  -29.7460   20.1670 C   0  0  0  0  0  2  0  0  0  0  0  0
  -24.7180  -30.9380   22.1180 N   0  0  0  0  0  0  0  0  0  0  0  0
  -23.5790  -32.0390   23.7560 O   0  0  0  0  0  0  0  0  0  0  0  0
  -22.7330  -29.3900   22.4990 C   0  0  0  0  0  0  0  0  0  0  0  0
  -21.4030  -29.2440   22.3590 N   0  0  0  0  0  0  0  0  0  0  0  0
  -23.3870  -28.7420   23.3210 O   0  0  0  0  0  0  0  0  0  0  0  0
  -20.9350  -29.8160   21.6710 H   0  0  0  0  0  0  0  0  0  0  0  0
  -17.9940  -28.1170   22.8340 C   0  0  0  0  0  0  0  0  0  0  0  0
  -20.5580  -28.3120   23.1100 C   0  0  0  0  0  3  0  0  0  0  0  0
  -20.6270  -26.8900   22.5050 C   0  0  0  0  0  2  0  0  0  0  0  0
  -19.5190  -26.6160   21.4830 C   0  0  0  0  0  2  0  0  0  0  0  0
  -18.1400  -26.7790   22.1290 C   0  0  0  0  0  2  0  0  0  0  0  0
  -19.1300  -28.8440   23.2800 C   0  0  0  0  0  0  0  0  0  0  0  0
  -18.9380  -30.0980   23.9010 C   0  0  0  0  0  3  0  0  0  0  0  0
  -17.6440  -30.6240   24.0770 C   0  0  0  0  0  3  0  0  0  0  0  0
  -16.5240  -29.8950   23.6440 C   0  0  0  0  0  3  0  0  0  0  0  0
  -16.7000  -28.6420   23.0290 C   0  0  0  0  0  3  0  0  0  0  0  0
  -25.9500  -32.3360   23.8670 C   0  0  0  0  0  3  0  0  0  0  0  0
  -26.4230  -31.5490   25.1520 C   0  0  1  0  0  0  0  0  0  0  0  0
  -25.3030  -31.3370   26.1980 C   0  0  0  0  0  1  0  0  0  0  0  0
  -26.9740  -30.1560   24.7700 C   0  0  0  0  0  1  0  0  0  0  0  0
  -27.5830  -32.3100   25.8370 C   0  0  0  0  0  1  0  0  0  0  0  0
  -25.6750  -33.7440   24.1990 N   0  0  0  0  0  0  0  0  0  0  0  0
  -26.0120  -34.7900   23.4330 C   0  0  0  0  0  0  0  0  0  0  0  0
  -26.6550  -34.6690   22.3870 O   0  0  0  0  0  0  0  0  0  0  0  0
  -25.1020  -33.9120   25.0120 H   0  0  0  0  0  0  0  0  0  0  0  0
  -24.3070  -36.6170   23.1310 C   0  0  0  0  0  1  0  0  0  0  0  0
  -25.5690  -36.1900   23.8990 C   0  0  0  0  0  3  0  0  0  0  0  0
  -27.7420  -37.0510   24.6540 C   0  0  0  0  0  1  0  0  0  0  0  0
  -26.6160  -37.2230   23.7400 N   0  0  0  0  0  0  0  0  0  0  0  0
  -26.2310  -38.1520   23.8830 H   0  0  0  0  0  0  0  0  0  0  0  0
  1  5  2  0
  1  4  1  0
  2  6  1  0
  3  6  2  0
  4  2  2  0
  5  3  1  0
  6 50  1  0
  8  4  1  0
  8  7  1  0
  9 10  1  6
  9 19  1  0
  9  8  1  0
  9  7  1  0
 11 17  1  0
 11 19  1  0
 12 17  1  0
 13 14  1  0
 13 12  1  0
 15 14  1  0
 15 24  1  0
 15 16  1  0
 17 16  1  0
 18 11  2  0
 19 20  1  0
 21 22  2  0
 22 41  1  0
 23 22  1  0
 23 26  1  0
 24 25  1  0
 24 21  1  0
 25 23  2  0
 26 27  1  0
 27 28  2  0
 29 32  1  0
 29 28  1  0
 30 29  2  0
 31 30  1  0
 31 26  2  0
 32 33  1  0
 33 38  2  0
 33 34  1  0
 34 35  2  0
 35 36  1  0
 36 40  1  0
 37 36  2  0
 38 37  1  0
 39 38  1  0
 41 42  1  0
 42 45  1  0
 42 44  1  0
 43 41  2  0
 46 21  1  0
 46 47  1  0
 48 46  1  0
 50 49  1  0
 51  5  1  0
 51 52  1  0
 53 64  2  0
 54 52  1  0
 54 59  1  0
 55 63  1  0
 55 65  1  0
 56 62  1  0
 56 58  1  0
 57 63  1  0
 58 57  1  0
 59 58  2  0
 60 61  1  0
 60 54  2  0
 61 56  2  0
 62 55  1  0
 63 53  1  0
 65 67  2  0
 66 65  1  0
 68 66  1  0
 69 78  2  0
 69 74  1  0
 70 66  1  0
 70 74  1  0
 71 70  1  0
 72 73  1  0
 72 71  1  0
 73 69  1  0
 74 75  2  0
 75 76  1  0
 77 76  2  0
 78 77  1  0
 79 53  1  0
 79 84  1  0
 79 80  1  0
 80 83  1  1
 80 81  1  0
 82 80  1  0
 84 87  1  0
 85 89  1  0
 85 84  1  0
 86 85  2  0
 89 88  1  0
 91 92  1  0
 91 89  1  0
 91 90  1  0
M  ISO  4  11 100  19 100  51 101  52 101
M  END
>  <TORSDO>  (88) 
F 19

>  <SCORE>  (88) 
-13.704

>  <name>  (88) 
87

>  <ligand_id>  (88) 
87

>  <original_smiles>  (88) 
[H]c1c([H])c([H])c2c(c1[H])C([H])([H])C([H])([H])C([H])([H])C2([H])N([H])C(=O)C1([H])N(C(=O)C([H])(N([H])C(=O)C([H])(N([H])C([H])([H])[H])C([H])([H])[H])C(C([H])([H])[H])(C([H])([H])[H])C([H])([H])[H])C([H])([H])c2c([H])c(OC([H])([H])c3c([H])c(OC([H])([H])[H])c([H])c(C4([H])C([H])([H])C4(N([H])C(=O)N4C([H])([H])C([H])([H])C([H])([H])C([H])(n5nc(-c6c([H])c([H])c(Oc7c([H])c([H])c(F)c([H])c7F)c([H])c6[H])c(C(=O)N([H])[H])c5N([H])[H])C4([H])[H])C([H])([H])[H])c3[H])c([H])c([H])c2C1([H])[H]

>  <smiles>  (88) 
[H]c1c([H])c([H])c2c(c1[H])C([H])([H])C([H])([H])C([H])([H])C2([H])N([H])C(=O)C1([H])N(C(=O)C([H])(N([H])C(=O)C([H])(N([H])C([H])([H])[H])C([H])([H])[H])C(C([H])([H])[H])(C([H])([H])[H])C([H])([H])[H])C([H])([H])c2c([H])c(OC([H])([H])c3c([H])c(OC([H])([H])[H])c([H])c(C4([H])C([H])([H])C4(N([H])C(=O)N4C([H])([H])C([H])([H])C([H])([H])C([H])(n5nc(-c6c([H])c([H])c(Oc7c([H])c([H])c(F)c([H])c7F)c([H])c6[H])c(C(=O)N([H])[H])c5N([H])[H])C4([H])[H])C([H])([H])[H])c3[H])c([H])c([H])c2C1([H])[H]

$$$$
88:0:0
     RDKit          3D

 92101  0  0  1  0  0  0  0  0999 V2000
  -28.3050  -22.8890   19.1920 C   0  0  0  0  0  3  0  0  0  0  0  0
  -28.5840  -21.5530   19.5930 C   0  0  0  0  0  3  0  0  0  0  0  0
  -29.7910  -22.4110   21.4930 C   0  0  0  0  0  3  0  0  0  0  0  0
  -28.7770  -24.0190   19.9140 C   0  0  0  0  0  0  0  0  0  0  0  0
  -29.5330  -23.7530   21.0880 C   0  0  0  0  0  0  0  0  0  0  0  0
  -29.3530  -21.2850   20.7510 C   0  0  0  0  0  0  0  0  0  0  0  0
  -30.1130  -24.8890   21.9130 C   0  0  0  0  0  1  0  0  0  0  0  0
  -28.5910  -25.4420   19.2950 C   0  0  0  0  0  2  0  0  0  0  0  0
  -28.3810  -26.5960   20.1620 O   0  0  0  0  0  0  0  0  0  0  0  0
  -24.6100  -31.8570   23.2210 C   0  0  0  0  0  0  0  0  0  0  0  0
  -27.2130  -27.3550   20.1170 C   0  0  0  0  0  0  0  0  0  0  0  0
  -23.3920  -30.4670   21.5810 C   0  0  0  0  0  3  0  0  0  0  0  0
  -24.8320  -28.9230   20.1410 C   0  0  0  0  0  0  0  0  0  0  0  0
  -25.9250  -30.7970   21.3780 C   0  0  0  0  0  2  0  0  0  0  0  0
  -25.9980  -29.4230   20.7290 C   0  0  0  0  0  0  0  0  0  0  0  0
  -27.1870  -28.6470   20.7140 C   0  0  0  0  0  3  0  0  0  0  0  0
  -26.0140  -26.8780   19.5370 C   0  0  0  0  0  3  0  0  0  0  0  0
  -24.8370  -27.6520   19.5430 C   0  0  0  0  0  3  0  0  0  0  0  0
  -23.5940  -29.7920   20.1980 C   0  0  0  0  0  2  0  0  0  0  0  0
  -24.6620  -31.0570   22.1170 N   0  0  0  0  0  0  0  0  0  0  0  0
  -23.5320  -32.1330   23.7650 O   0  0  0  0  0  0  0  0  0  0  0  0
  -22.7380  -29.4470   22.5410 C   0  0  0  0  0  0  0  0  0  0  0  0
  -21.4120  -29.2710   22.4190 N   0  0  0  0  0  0  0  0  0  0  0  0
  -23.4210  -28.8170   23.3530 O   0  0  0  0  0  0  0  0  0  0  0  0
  -20.9200  -29.8320   21.7380 H   0  0  0  0  0  0  0  0  0  0  0  0
  -18.0360  -28.0780   22.9220 C   0  0  0  0  0  0  0  0  0  0  0  0
  -20.5940  -28.3330   23.1890 C   0  0  0  0  0  3  0  0  0  0  0  0
  -20.6930  -26.9020   22.6120 C   0  0  0  0  0  2  0  0  0  0  0  0
  -19.5900  -26.5820   21.5990 C   0  0  0  0  0  2  0  0  0  0  0  0
  -18.2090  -26.7290   22.2450 C   0  0  0  0  0  2  0  0  0  0  0  0
  -19.1560  -28.8380   23.3510 C   0  0  0  0  0  0  0  0  0  0  0  0
  -18.9390  -30.1010   23.9430 C   0  0  0  0  0  3  0  0  0  0  0  0
  -17.6370  -30.6050   24.1100 C   0  0  0  0  0  3  0  0  0  0  0  0
  -16.5310  -29.8420   23.6980 C   0  0  0  0  0  3  0  0  0  0  0  0
  -16.7310  -28.5800   23.1090 C   0  0  0  0  0  3  0  0  0  0  0  0
  -25.9010  -32.4820   23.8380 C   0  0  0  0  0  3  0  0  0  0  0  0
  -25.5960  -33.8780   24.1830 N   0  0  0  0  0  0  0  0  0  0  0  0
  -25.9150  -34.9360   23.4260 C   0  0  0  0  0  0  0  0  0  0  0  0
  -26.5690  -34.8410   22.3840 O   0  0  0  0  0  0  0  0  0  0  0  0
  -25.0140  -34.0260   24.9940 H   0  0  0  0  0  0  0  0  0  0  0  0
  -24.1750  -36.7260   23.1190 C   0  0  0  0  0  1  0  0  0  0  0  0
  -25.4340  -36.3200   23.9010 C   0  0  0  0  0  3  0  0  0  0  0  0
  -27.5840  -37.2080   24.6900 C   0  0  0  0  0  1  0  0  0  0  0  0
  -26.4610  -37.3780   23.7720 N   0  0  0  0  0  0  0  0  0  0  0  0
  -26.0560  -38.2960   23.9340 H   0  0  0  0  0  0  0  0  0  0  0  0
  -26.4280  -31.6990   25.1030 C   0  0  1  0  0  0  0  0  0  0  0  0
  -25.3460  -31.4540   26.1800 C   0  0  0  0  0  1  0  0  0  0  0  0
  -27.0040  -30.3240   24.6930 C   0  0  0  0  0  1  0  0  0  0  0  0
  -27.5870  -32.4850   25.7620 C   0  0  0  0  0  1  0  0  0  0  0  0
  -29.6850  -20.0140   21.2370 O   0  0  0  0  0  0  0  0  0  0  0  0
  -30.7020  -14.5930   20.1610 C   0  0  0  0  0  0  0  0  0  0  0  0
  -30.3290  -12.3990   19.0520 C   0  0  0  0  0  2  0  0  0  0  0  0
  -29.3540  -12.5520   17.8670 C   0  0  0  0  0  2  0  0  0  0  0  0
  -27.8990  -12.3900   18.3450 C   0  0  0  0  0  2  0  0  0  0  0  0
  -27.5910  -13.2520   19.5970 C   0  0  0  0  0  3  0  0  0  0  0  0
  -28.6880  -13.1040   20.6790 C   0  0  0  0  0  2  0  0  0  0  0  0
  -29.9760  -13.4310   20.0540 N   0  0  0  0  0  0  0  0  0  0  0  0
  -31.8540  -14.6350   19.7170 O   0  0  0  0  0  0  0  0  0  0  0  0
  -31.0990  -18.1040   20.5910 C   0  0  0  0  0  2  0  0  0  0  0  0
  -28.6140  -17.8190   20.7870 C   0  0  0  0  0  2  0  0  0  0  0  0
  -31.0480  -16.7460   21.3630 C   0  0  0  0  0  2  0  0  0  0  0  0
  -28.8620  -16.3360   20.3400 C   0  0  0  0  0  2  0  0  0  0  0  0
  -29.7320  -18.8200   20.4080 C   0  0  0  0  0  3  0  0  0  0  0  0
  -30.1620  -15.7290   20.7370 N   0  0  0  0  0  0  0  0  0  0  0  0
  -25.2300  -13.8800   20.3890 C   0  0  0  0  0  0  0  0  0  0  0  0
  -24.1710  -13.1180   20.7980 C   0  0  0  0  0  0  0  0  0  0  0  0
  -24.6230  -11.7640   20.7580 C   0  0  0  0  0  0  0  0  0  0  0  0
  -26.2610  -12.9900   20.1290 N   0  0  0  0  0  0  0  0  0  0  0  0
  -25.9030  -11.7120   20.4120 N   0  0  0  0  0  0  0  0  0  0  0  0
  -23.8940  -10.5080   20.9740 C   0  0  0  0  0  0  0  0  0  0  0  0
  -24.3500   -9.5390   21.8930 C   0  0  0  0  0  3  0  0  0  0  0  0
  -23.6210   -8.3480   22.0950 C   0  0  0  0  0  3  0  0  0  0  0  0
  -22.4230   -8.1170   21.3770 C   0  0  0  0  0  0  0  0  0  0  0  0
  -21.9870   -9.0760   20.4450 C   0  0  0  0  0  3  0  0  0  0  0  0
  -22.7160  -10.2590   20.2420 C   0  0  0  0  0  3  0  0  0  0  0  0
  -21.6630   -6.9790   21.4900 O   0  0  0  0  0  0  0  0  0  0  0  0
  -21.6470   -6.2350   22.6430 C   0  0  0  0  0  0  0  0  0  0  0  0
  -21.2710   -6.7930   23.8850 C   0  0  0  0  0  3  0  0  0  0  0  0
  -21.2040   -5.9770   25.0310 C   0  0  0  0  0  3  0  0  0  0  0  0
  -21.5000   -4.6040   24.9370 C   0  0  0  0  0  0  0  0  0  0  0  0
  -21.8690   -4.0460   23.7010 C   0  0  0  0  0  3  0  0  0  0  0  0
  -21.9400   -4.8590   22.5570 C   0  0  0  0  0  0  0  0  0  0  0  0
  -22.2760   -4.3130   21.3630 F   0  0  0  0  0  0  0  0  0  0  0  0
  -21.4280   -3.8180   26.0360 F   0  0  0  0  0  0  0  0  0  0  0  0
  -22.7860  -13.6080   21.1090 C   0  0  0  0  0  0  0  0  0  0  0  0
  -22.0790  -12.9230   22.0000 N   0  0  0  0  0  0  0  0  0  0  0  0
  -22.3420  -14.6340   20.5950 O   0  0  0  0  0  0  0  0  0  0  0  0
  -22.4520  -12.0940   22.4400 H   0  0  0  0  0  0  0  0  0  0  0  0
  -21.1500  -13.2330   22.2490 H   0  0  0  0  0  0  0  0  0  0  0  0
  -25.3910  -15.2490   20.1940 N   0  0  0  0  0  0  0  0  0  0  0  0
  -24.6220  -15.8980   20.3220 H   0  0  0  0  0  0  0  0  0  0  0  0
  -26.2190  -15.6840   19.8130 H   0  0  0  0  0  0  0  0  0  0  0  0
  1  2  2  0
  1  4  1  0
  2  6  1  0
  4  5  2  0
  5  3  1  0
  5  7  1  0
  6 50  1  0
  6  3  2  0
  8  4  1  0
  8  9  1  0
 10 21  2  0
 11  9  1  0
 11 16  1  0
 12 20  1  0
 12 22  1  0
 13 19  1  0
 13 15  1  0
 14 20  1  0
 15 14  1  0
 16 15  2  0
 17 18  1  0
 17 11  2  0
 18 13  2  0
 19 12  1  0
 20 10  1  0
 22 24  2  0
 23 22  1  0
 25 23  1  0
 26 35  2  0
 26 31  1  0
 27 23  1  0
 27 31  1  0
 28 27  1  0
 29 30  1  0
 29 28  1  0
 30 26  1  0
 31 32  2  0
 32 33  1  0
 34 33  2  0
 35 34  1  0
 36 10  1  0
 36 37  1  0
 36 46  1  0
 37 40  1  0
 38 42  1  0
 38 37  1  0
 39 38  2  0
 42 41  1  0
 44 42  1  0
 44 45  1  0
 44 43  1  0
 46 49  1  1
 46 47  1  0
 48 46  1  0
 51 64  1  0
 52 57  1  0
 53 54  1  0
 53 52  1  0
 55 54  1  0
 55 68  1  0
 55 56  1  0
 57 51  1  0
 57 56  1  0
 58 51  2  0
 59 61  1  0
 62 64  1  0
 62 60  1  0
 63 59  1  0
 63 60  1  0
 63 50  1  0
 64 61  1  0
 65 66  2  0
 66 85  1  0
 67 66  1  0
 67 70  1  0
 68 65  1  0
 68 69  1  0
 69 67  2  0
 70 71  1  0
 71 72  2  0
 73 76  1  0
 73 72  1  0
 74 73  2  0
 75 74  1  0
 75 70  2  0
 76 77  1  0
 77 78  1  0
 78 79  2  0
 80 79  1  0
 80 84  1  0
 81 80  2  0
 82 77  2  0
 82 81  1  0
 83 82  1  0
 85 86  1  0
 86 89  1  0
 86 88  1  0
 87 85  2  0
 90 91  1  0
 90 65  1  0
 92 90  1  0
M  ISO  4   8 101   9 101  51 100  64 100
M  END
>  <TORSDO>  (89) 
F 18

>  <SCORE>  (89) 
-14.818

>  <name>  (89) 
88

>  <ligand_id>  (89) 
88

>  <original_smiles>  (89) 
[H]c1c([H])c([H])c2c(c1[H])C([H])([H])C([H])([H])C([H])([H])C2([H])N([H])C(=O)C1([H])N(C(=O)C([H])(N([H])C(=O)C([H])(N([H])C([H])([H])[H])C([H])([H])[H])C(C([H])([H])[H])(C([H])([H])[H])C([H])([H])[H])C([H])([H])c2c([H])c(OC([H])([H])c3c([H])c([H])c(OC4([H])C([H])([H])C([H])([H])N(C(=O)N5C([H])([H])C([H])([H])C([H])([H])C([H])(n6nc(-c7c([H])c([H])c(Oc8c([H])c([H])c(F)c([H])c8F)c([H])c7[H])c(C(=O)N([H])[H])c6N([H])[H])C5([H])[H])C([H])([H])C4([H])[H])c([H])c3C([H])([H])[H])c([H])c([H])c2C1([H])[H]

>  <smiles>  (89) 
[H]c1c([H])c([H])c2c(c1[H])C([H])([H])C([H])([H])C([H])([H])C2([H])N([H])C(=O)C1([H])N(C(=O)C([H])(N([H])C(=O)C([H])(N([H])C([H])([H])[H])C([H])([H])[H])C(C([H])([H])[H])(C([H])([H])[H])C([H])([H])[H])C([H])([H])c2c([H])c(OC([H])([H])c3c([H])c([H])c(OC4([H])C([H])([H])C([H])([H])N(C(=O)N5C([H])([H])C([H])([H])C([H])([H])C([H])(n6nc(-c7c([H])c([H])c(Oc8c([H])c([H])c(F)c([H])c8F)c([H])c7[H])c(C(=O)N([H])[H])c6N([H])[H])C5([H])[H])C([H])([H])C4([H])[H])c([H])c3C([H])([H])[H])c([H])c([H])c2C1([H])[H]

$$$$
89:0:0
     RDKit          3D

 91100  0  0  1  0  0  0  0  0999 V2000
  -28.8690  -21.1880   19.2700 C   0  0  0  0  0  3  0  0  0  0  0  0
  -29.8640  -19.9480   21.5370 C   0  0  0  0  0  3  0  0  0  0  0  0
  -28.9210  -22.0370   20.4240 C   0  0  0  0  0  0  0  0  0  0  0  0
  -29.2990  -19.8000   19.2410 C   0  0  0  0  0  0  0  0  0  0  0  0
  -29.4300  -21.3260   21.5660 C   0  0  0  0  0  0  0  0  0  0  0  0
  -29.8330  -19.1090   20.3830 C   0  0  0  0  0  0  0  0  0  0  0  0
  -29.2180  -19.0580   17.9180 C   0  0  0  0  0  1  0  0  0  0  0  0
  -29.5220  -22.0590   22.8960 C   0  0  0  0  0  1  0  0  0  0  0  0
  -29.1600  -24.6710   20.9700 C   0  0  0  0  0  2  0  0  0  0  0  0
  -28.3390  -23.5540   20.5450 C   0  0  0  0  0  3  0  0  0  0  0  0
  -28.4020  -24.9560   19.6580 C   0  0  0  0  0  3  0  0  0  0  0  0
  -28.3670  -26.4740   19.9360 O   0  0  0  0  0  0  0  0  0  0  0  0
  -24.6830  -31.8670   23.2040 C   0  0  0  0  0  0  0  0  0  0  0  0
  -27.2370  -27.3500   19.9230 C   0  0  0  0  0  0  0  0  0  0  0  0
  -23.4550  -30.5300   21.5340 C   0  0  0  0  0  3  0  0  0  0  0  0
  -24.8800  -29.0290   20.0180 C   0  0  0  0  0  0  0  0  0  0  0  0
  -25.9980  -30.8330   21.3250 C   0  0  0  0  0  2  0  0  0  0  0  0
  -26.0640  -29.4750   20.6170 C   0  0  0  0  0  0  0  0  0  0  0  0
  -27.2390  -28.6500   20.5550 C   0  0  0  0  0  3  0  0  0  0  0  0
  -26.0230  -26.9890   19.2940 C   0  0  0  0  0  3  0  0  0  0  0  0
  -24.8690  -27.7970   19.3470 C   0  0  0  0  0  3  0  0  0  0  0  0
  -23.6460  -29.9060   20.1260 C   0  0  0  0  0  2  0  0  0  0  0  0
  -24.7320  -31.0960   22.0760 N   0  0  0  0  0  0  0  0  0  0  0  0
  -23.6070  -32.1210   23.7660 O   0  0  0  0  0  0  0  0  0  0  0  0
  -22.8080  -29.4780   22.4680 C   0  0  0  0  0  0  0  0  0  0  0  0
  -21.4820  -29.2880   22.3470 N   0  0  0  0  0  0  0  0  0  0  0  0
  -23.4990  -28.8360   23.2640 O   0  0  0  0  0  0  0  0  0  0  0  0
  -20.9800  -29.8590   21.6820 H   0  0  0  0  0  0  0  0  0  0  0  0
  -18.1270  -28.0160   22.8290 C   0  0  0  0  0  0  0  0  0  0  0  0
  -20.6830  -28.3140   23.0940 C   0  0  0  0  0  3  0  0  0  0  0  0
  -20.8070  -26.9010   22.4750 C   0  0  0  0  0  2  0  0  0  0  0  0
  -19.7050  -26.5880   21.4580 C   0  0  0  0  0  2  0  0  0  0  0  0
  -18.3250  -26.6890   22.1120 C   0  0  0  0  0  2  0  0  0  0  0  0
  -19.2350  -28.7850   23.2760 C   0  0  0  0  0  0  0  0  0  0  0  0
  -18.9950  -30.0250   23.9070 C   0  0  0  0  0  3  0  0  0  0  0  0
  -17.6820  -30.4950   24.0960 C   0  0  0  0  0  3  0  0  0  0  0  0
  -16.5900  -29.7220   23.6650 C   0  0  0  0  0  3  0  0  0  0  0  0
  -16.8140  -28.4840   23.0380 C   0  0  0  0  0  3  0  0  0  0  0  0
  -25.9720  -32.4830   23.8290 C   0  0  0  0  0  3  0  0  0  0  0  0
  -25.6680  -33.8740   24.1980 N   0  0  0  0  0  0  0  0  0  0  0  0
  -25.9520  -34.9440   23.4440 C   0  0  0  0  0  0  0  0  0  0  0  0
  -26.5650  -34.8650   22.3770 O   0  0  0  0  0  0  0  0  0  0  0  0
  -25.1160  -34.0090   25.0340 H   0  0  0  0  0  0  0  0  0  0  0  0
  -24.1780  -36.7180   23.2430 C   0  0  0  0  0  1  0  0  0  0  0  0
  -25.4820  -36.3210   23.9540 C   0  0  0  0  0  3  0  0  0  0  0  0
  -27.6560  -37.2330   24.6430 C   0  0  0  0  0  1  0  0  0  0  0  0
  -26.4900  -37.3900   23.7790 N   0  0  0  0  0  0  0  0  0  0  0  0
  -26.0820  -38.3030   23.9600 H   0  0  0  0  0  0  0  0  0  0  0  0
  -26.4950  -31.6840   25.0850 C   0  0  1  0  0  0  0  0  0  0  0  0
  -25.4100  -31.4320   26.1600 C   0  0  0  0  0  1  0  0  0  0  0  0
  -27.0680  -30.3110   24.6650 C   0  0  0  0  0  1  0  0  0  0  0  0
  -27.6570  -32.4590   25.7520 C   0  0  0  0  0  1  0  0  0  0  0  0
  -30.6140  -17.6760   20.3280 C   0  0  0  0  0  2  0  0  0  0  0  0
  -30.8120  -15.0440   20.3110 C   0  0  0  0  0  0  0  0  0  0  0  0
  -30.6530  -12.7130   19.3810 C   0  0  0  0  0  2  0  0  0  0  0  0
  -29.7210  -12.6950   18.1490 C   0  0  0  0  0  2  0  0  0  0  0  0
  -28.2570  -12.4910   18.5860 C   0  0  0  0  0  2  0  0  0  0  0  0
  -27.8550  -13.4090   19.7700 C   0  0  0  0  0  3  0  0  0  0  0  0
  -28.9150  -13.4230   20.8930 C   0  0  0  0  0  2  0  0  0  0  0  0
  -30.1910  -13.8060   20.2770 N   0  0  0  0  0  0  0  0  0  0  0  0
  -32.0050  -15.1060   20.0020 O   0  0  0  0  0  0  0  0  0  0  0  0
  -30.0760  -16.2290   20.4800 N   0  0  0  0  0  0  0  0  0  0  0  0
  -29.0960  -16.1300   20.6970 H   0  0  0  0  0  0  0  0  0  0  0  0
  -25.4770  -13.9610   20.5450 C   0  0  0  0  0  0  0  0  0  0  0  0
  -24.4210  -13.1720   20.9090 C   0  0  0  0  0  0  0  0  0  0  0  0
  -24.8920  -11.8250   20.8430 C   0  0  0  0  0  0  0  0  0  0  0  0
  -26.5230  -13.0940   20.2750 N   0  0  0  0  0  0  0  0  0  0  0  0
  -26.1800  -11.8030   20.5190 N   0  0  0  0  0  0  0  0  0  0  0  0
  -24.1730  -10.5540   21.0120 C   0  0  0  0  0  0  0  0  0  0  0  0
  -24.5800   -9.5960   21.9670 C   0  0  0  0  0  3  0  0  0  0  0  0
  -23.8600   -8.3910   22.1230 C   0  0  0  0  0  3  0  0  0  0  0  0
  -22.7190   -8.1370   21.3230 C   0  0  0  0  0  0  0  0  0  0  0  0
  -22.3340   -9.0840   20.3600 C   0  0  0  0  0  3  0  0  0  0  0  0
  -23.0540  -10.2790   20.2020 C   0  0  0  0  0  3  0  0  0  0  0  0
  -21.9740   -6.9850   21.3900 O   0  0  0  0  0  0  0  0  0  0  0  0
  -21.8130   -6.2980   22.5670 C   0  0  0  0  0  0  0  0  0  0  0  0
  -21.2190   -6.8920   23.7020 C   0  0  0  0  0  3  0  0  0  0  0  0
  -21.0100   -6.1290   24.8680 C   0  0  0  0  0  3  0  0  0  0  0  0
  -21.3830   -4.7720   24.8990 C   0  0  0  0  0  0  0  0  0  0  0  0
  -21.9690   -4.1770   23.7670 C   0  0  0  0  0  3  0  0  0  0  0  0
  -22.1800   -4.9380   22.6040 C   0  0  0  0  0  0  0  0  0  0  0  0
  -22.7250   -4.3540   21.5100 F   0  0  0  0  0  0  0  0  0  0  0  0
  -21.1760   -4.0360   26.0150 F   0  0  0  0  0  0  0  0  0  0  0  0
  -23.0250  -13.6340   21.2060 C   0  0  0  0  0  0  0  0  0  0  0  0
  -22.3110  -12.9180   22.0670 N   0  0  0  0  0  0  0  0  0  0  0  0
  -22.5750  -14.6660   20.7080 O   0  0  0  0  0  0  0  0  0  0  0  0
  -22.6840  -12.0840   22.4930 H   0  0  0  0  0  0  0  0  0  0  0  0
  -21.3750  -13.2130   22.3080 H   0  0  0  0  0  0  0  0  0  0  0  0
  -25.6300  -15.3360   20.3970 N   0  0  0  0  0  0  0  0  0  0  0  0
  -24.8560  -15.9790   20.5290 H   0  0  0  0  0  0  0  0  0  0  0  0
  -26.4630  -15.7910   20.0410 H   0  0  0  0  0  0  0  0  0  0  0  0
  1  3  1  0
  2  5  1  0
  3  5  2  0
  4  1  2  0
  4  6  1  0
  5  8  1  0
  6  2  2  0
  7  4  1  0
 10  3  1  0
 10  9  1  0
 11 12  1  0
 11 10  1  0
 11  9  1  0
 13 24  2  0
 14 12  1  0
 14 19  1  0
 15 23  1  0
 15 25  1  0
 16 22  1  0
 16 18  1  0
 17 23  1  0
 18 17  1  0
 19 18  2  0
 20 21  1  0
 20 14  2  0
 21 16  2  0
 22 15  1  0
 23 13  1  0
 25 27  2  0
 26 25  1  0
 28 26  1  0
 29 38  2  0
 29 34  1  0
 30 26  1  0
 30 34  1  0
 31 30  1  0
 32 33  1  0
 32 31  1  0
 33 29  1  0
 34 35  2  0
 35 36  1  0
 37 36  2  0
 38 37  1  0
 39 13  1  0
 39 40  1  0
 39 49  1  0
 40 43  1  0
 41 45  1  0
 41 40  1  0
 42 41  2  0
 45 44  1  0
 47 45  1  0
 47 48  1  0
 47 46  1  0
 49 52  1  1
 49 50  1  0
 51 49  1  0
 53  6  1  0
 53 62  1  0
 54 62  1  0
 55 60  1  0
 56 57  1  0
 56 55  1  0
 58 57  1  0
 58 67  1  0
 58 59  1  0
 60 54  1  0
 60 59  1  0
 61 54  2  0
 62 63  1  0
 64 65  2  0
 65 84  1  0
 66 65  1  0
 66 69  1  0
 67 68  1  0
 67 64  1  0
 68 66  2  0
 69 70  1  0
 70 71  2  0
 72 75  1  0
 72 71  1  0
 73 72  2  0
 74 73  1  0
 74 69  2  0
 75 76  1  0
 76 81  2  0
 76 77  1  0
 77 78  2  0
 78 79  1  0
 79 83  1  0
 80 79  2  0
 81 80  1  0
 82 81  1  0
 84 85  1  0
 85 88  1  0
 85 87  1  0
 86 84  2  0
 89 90  1  0
 89 64  1  0
 91 89  1  0
M  ISO  4  11 101  12 101  54 100  62 100
M  END
>  <TORSDO>  (90) 
F 18

>  <SCORE>  (90) 
-14.438

>  <name>  (90) 
89

>  <ligand_id>  (90) 
89

>  <original_smiles>  (90) 
[H]c1c([H])c([H])c2c(c1[H])C([H])([H])C([H])([H])C([H])([H])C2([H])N([H])C(=O)C1([H])N(C(=O)C([H])(N([H])C(=O)C([H])(N([H])C([H])([H])[H])C([H])([H])[H])C(C([H])([H])[H])(C([H])([H])[H])C([H])([H])[H])C([H])([H])c2c([H])c(OC3([H])C([H])([H])C3([H])c3c([H])c(C([H])([H])[H])c(C([H])([H])N([H])C(=O)N4C([H])([H])C([H])([H])C([H])([H])C([H])(n5nc(-c6c([H])c([H])c(Oc7c([H])c([H])c(F)c([H])c7F)c([H])c6[H])c(C(=O)N([H])[H])c5N([H])[H])C4([H])[H])c([H])c3C([H])([H])[H])c([H])c([H])c2C1([H])[H]

>  <smiles>  (90) 
[H]c1c([H])c([H])c2c(c1[H])C([H])([H])C([H])([H])C([H])([H])C2([H])N([H])C(=O)C1([H])N(C(=O)C([H])(N([H])C(=O)C([H])(N([H])C([H])([H])[H])C([H])([H])[H])C(C([H])([H])[H])(C([H])([H])[H])C([H])([H])[H])C([H])([H])c2c([H])c(OC3([H])C([H])([H])C3([H])c3c([H])c(C([H])([H])[H])c(C([H])([H])N([H])C(=O)N4C([H])([H])C([H])([H])C([H])([H])C([H])(n5nc(-c6c([H])c([H])c(Oc7c([H])c([H])c(F)c([H])c7F)c([H])c6[H])c(C(=O)N([H])[H])c5N([H])[H])C4([H])[H])c([H])c3C([H])([H])[H])c([H])c([H])c2C1([H])[H]

$$$$
90:0:0
     RDKit          3D

 88 96  0  0  1  0  0  0  0  0999 V2000
  -30.4100  -15.7360   20.2180 C   0  0  0  0  0  0  0  0  0  0  0  0
  -30.5190  -13.1360   19.6000 C   0  0  0  0  0  2  0  0  0  0  0  0
  -29.6650  -12.6730   18.3840 C   0  0  0  0  0  2  0  0  0  0  0  0
  -28.2190  -12.3730   18.8060 C   0  0  0  0  0  2  0  0  0  0  0  0
  -27.6880  -13.4470   19.7820 C   0  0  0  0  0  3  0  0  0  0  0  0
  -28.6820  -13.8110   20.9110 C   0  0  0  0  0  2  0  0  0  0  0  0
  -29.8920  -14.3680   20.2620 N   0  0  0  0  0  0  0  0  0  0  0  0
  -31.6430  -15.6680   20.0400 O   0  0  0  0  0  0  0  0  0  0  0  0
  -28.3940  -19.6100   20.5980 C   0  0  0  0  0  3  0  0  0  0  0  0
  -28.0860  -21.0960   20.4690 C   0  0  0  0  0  0  0  0  0  0  0  0
  -28.8170  -22.1650   19.7380 C   0  0  0  0  0  0  0  0  0  0  0  0
  -29.9180  -21.2790   19.2180 C   0  0  0  0  0  0  0  0  0  0  0  0
  -29.4980  -18.7830   20.0630 C   0  0  0  0  0  0  0  0  0  0  0  0
  -26.8080  -21.5450   21.1550 C   0  0  0  0  0  1  0  0  0  0  0  0
  -30.9310  -21.9460   18.3130 C   0  0  0  0  0  1  0  0  0  0  0  0
  -30.2100  -19.8300   19.3810 N   0  0  0  0  0  0  0  0  0  0  0  0
  -29.6060  -17.0700   20.2470 N   0  0  0  0  0  0  0  0  0  0  0  0
  -28.6830  -16.7560   20.5000 H   0  0  0  0  0  0  0  0  0  0  0  0
  -25.3210  -14.0580   20.4740 C   0  0  0  0  0  0  0  0  0  0  0  0
  -24.2340  -13.3150   20.8350 C   0  0  0  0  0  0  0  0  0  0  0  0
  -24.6700  -11.9540   20.8450 C   0  0  0  0  0  0  0  0  0  0  0  0
  -26.3480  -13.1560   20.2740 N   0  0  0  0  0  0  0  0  0  0  0  0
  -25.9680  -11.8820   20.5650 N   0  0  0  0  0  0  0  0  0  0  0  0
  -23.9050  -10.7140   21.0440 C   0  0  0  0  0  0  0  0  0  0  0  0
  -24.3060   -9.7390   21.9820 C   0  0  0  0  0  3  0  0  0  0  0  0
  -23.5390   -8.5690   22.1710 C   0  0  0  0  0  3  0  0  0  0  0  0
  -22.3550   -8.3660   21.4230 C   0  0  0  0  0  0  0  0  0  0  0  0
  -21.9720   -9.3290   20.4730 C   0  0  0  0  0  3  0  0  0  0  0  0
  -22.7400  -10.4910   20.2830 C   0  0  0  0  0  3  0  0  0  0  0  0
  -21.5620   -7.2480   21.5210 O   0  0  0  0  0  0  0  0  0  0  0  0
  -21.5230   -6.4910   22.6650 C   0  0  0  0  0  0  0  0  0  0  0  0
  -21.1670   -7.0460   23.9140 C   0  0  0  0  0  3  0  0  0  0  0  0
  -21.0720   -6.2180   25.0500 C   0  0  0  0  0  3  0  0  0  0  0  0
  -21.3220   -4.8380   24.9390 C   0  0  0  0  0  0  0  0  0  0  0  0
  -21.6710   -4.2820   23.6960 C   0  0  0  0  0  3  0  0  0  0  0  0
  -21.7670   -5.1070   22.5610 C   0  0  0  0  0  0  0  0  0  0  0  0
  -22.0830   -4.5630   21.3610 F   0  0  0  0  0  0  0  0  0  0  0  0
  -21.2240   -4.0410   26.0290 F   0  0  0  0  0  0  0  0  0  0  0  0
  -22.8430  -13.8330   21.0510 C   0  0  0  0  0  0  0  0  0  0  0  0
  -22.0760  -13.1840   21.9190 N   0  0  0  0  0  0  0  0  0  0  0  0
  -22.4460  -14.8500   20.4840 O   0  0  0  0  0  0  0  0  0  0  0  0
  -22.4110  -12.3620   22.3990 H   0  0  0  0  0  0  0  0  0  0  0  0
  -21.1400  -13.5160   22.1080 H   0  0  0  0  0  0  0  0  0  0  0  0
  -25.5180  -15.4210   20.2660 N   0  0  0  0  0  0  0  0  0  0  0  0
  -24.7530  -16.0850   20.3240 H   0  0  0  0  0  0  0  0  0  0  0  0
  -26.3600  -15.8230   19.8780 H   0  0  0  0  0  0  0  0  0  0  0  0
  -28.1910  -23.8930   19.3270 C   0  0  0  0  0  2  0  0  0  0  0  0
  -28.3890  -25.6050   19.6470 O   0  0  0  0  0  0  0  0  0  0  0  0
  -24.6630  -31.5950   22.8840 C   0  0  0  0  0  0  0  0  0  0  0  0
  -27.3830  -26.7910   19.6270 C   0  0  0  0  0  0  0  0  0  0  0  0
  -23.5210  -30.2280   21.1890 C   0  0  0  0  0  3  0  0  0  0  0  0
  -25.0270  -28.7200   19.6840 C   0  0  0  0  0  0  0  0  0  0  0  0
  -26.0890  -30.4910   21.0560 C   0  0  0  0  0  2  0  0  0  0  0  0
  -26.2100  -29.0970   20.3290 C   0  0  0  0  0  0  0  0  0  0  0  0
  -27.3700  -28.1610   20.2730 C   0  0  0  0  0  3  0  0  0  0  0  0
  -26.1580  -26.6290   18.9300 C   0  0  0  0  0  3  0  0  0  0  0  0
  -25.0380  -27.5140   18.9620 C   0  0  0  0  0  3  0  0  0  0  0  0
  -23.7780  -29.6110   19.7840 C   0  0  0  0  0  2  0  0  0  0  0  0
  -24.7800  -30.8030   21.7640 N   0  0  0  0  0  0  0  0  0  0  0  0
  -23.5620  -31.8220   23.4170 O   0  0  0  0  0  0  0  0  0  0  0  0
  -22.8570  -29.1740   22.1160 C   0  0  0  0  0  0  0  0  0  0  0  0
  -21.5250  -29.0010   22.0260 N   0  0  0  0  0  0  0  0  0  0  0  0
  -23.5530  -28.5110   22.8890 O   0  0  0  0  0  0  0  0  0  0  0  0
  -21.0110  -29.5890   21.3850 H   0  0  0  0  0  0  0  0  0  0  0  0
  -18.1730  -27.7220   22.6110 C   0  0  0  0  0  0  0  0  0  0  0  0
  -20.7420  -27.9990   22.7630 C   0  0  0  0  0  3  0  0  0  0  0  0
  -20.8230  -26.6160   22.0760 C   0  0  0  0  0  2  0  0  0  0  0  0
  -19.6740  -26.3610   21.0950 C   0  0  0  0  0  2  0  0  0  0  0  0
  -18.3260  -26.4350   21.8160 C   0  0  0  0  0  2  0  0  0  0  0  0
  -19.3060  -28.4650   23.0410 C   0  0  0  0  0  0  0  0  0  0  0  0
  -19.1030  -29.6670   23.7520 C   0  0  0  0  0  3  0  0  0  0  0  0
  -17.8030  -30.1300   24.0310 C   0  0  0  0  0  3  0  0  0  0  0  0
  -16.6860  -29.3850   23.6110 C   0  0  0  0  0  3  0  0  0  0  0  0
  -16.8730  -28.1820   22.9080 C   0  0  0  0  0  3  0  0  0  0  0  0
  -25.9020  -32.2680   23.5460 C   0  0  0  0  0  3  0  0  0  0  0  0
  -25.5100  -33.6210   23.9900 N   0  0  0  0  0  0  0  0  0  0  0  0
  -25.7560  -34.7550   23.3190 C   0  0  0  0  0  0  0  0  0  0  0  0
  -26.3930  -34.7760   22.2640 O   0  0  0  0  0  0  0  0  0  0  0  0
  -24.9330  -33.6730   24.8160 H   0  0  0  0  0  0  0  0  0  0  0  0
  -23.9040  -36.4620   23.2010 C   0  0  0  0  0  1  0  0  0  0  0  0
  -25.2120  -36.0750   23.9090 C   0  0  0  0  0  3  0  0  0  0  0  0
  -27.3320  -37.0400   24.6930 C   0  0  0  0  0  1  0  0  0  0  0  0
  -26.1710  -37.2010   23.8230 N   0  0  0  0  0  0  0  0  0  0  0  0
  -25.7160  -38.0780   24.0600 H   0  0  0  0  0  0  0  0  0  0  0  0
  -26.4690  -31.4490   24.7730 C   0  0  1  0  0  0  0  0  0  0  0  0
  -25.4010  -31.1000   25.8380 C   0  0  0  0  0  1  0  0  0  0  0  0
  -27.1090  -30.1230   24.3070 C   0  0  0  0  0  1  0  0  0  0  0  0
  -27.5900  -32.2560   25.4690 C   0  0  0  0  0  1  0  0  0  0  0  0
  1 17  1  0
  1  7  1  0
  2  7  1  0
  3  4  1  0
  3  2  1  0
  5  4  1  0
  5 22  1  0
  5  6  1  0
  7  6  1  0
  8  1  2  0
 10  9  1  0
 10 14  1  0
 11 10  2  0
 12 16  2  0
 12 11  1  0
 13 17  1  0
 13  9  2  0
 15 12  1  0
 16 13  1  0
 17 18  1  0
 19 20  2  0
 20 21  1  0
 20 39  1  0
 21 24  1  0
 22 19  1  0
 22 23  1  0
 23 21  2  0
 24 25  1  0
 25 26  2  0
 27 30  1  0
 27 26  1  0
 28 27  2  0
 29 28  1  0
 29 24  2  0
 30 31  1  0
 31 32  1  0
 32 33  2  0
 34 33  1  0
 34 38  1  0
 35 34  2  0
 36 31  2  0
 36 35  1  0
 37 36  1  0
 39 40  1  0
 40 43  1  0
 40 42  1  0
 41 39  2  0
 44 45  1  0
 44 19  1  0
 46 44  1  0
 47 48  1  0
 47 11  1  0
 49 60  2  0
 50 48  1  0
 50 55  1  0
 51 59  1  0
 51 61  1  0
 52 58  1  0
 52 54  1  0
 53 59  1  0
 54 53  1  0
 55 54  2  0
 56 57  1  0
 56 50  2  0
 57 52  2  0
 58 51  1  0
 59 49  1  0
 61 63  2  0
 62 61  1  0
 64 62  1  0
 65 74  2  0
 65 70  1  0
 66 62  1  0
 66 70  1  0
 67 66  1  0
 68 69  1  0
 68 67  1  0
 69 65  1  0
 70 71  2  0
 71 72  1  0
 73 72  2  0
 74 73  1  0
 75 49  1  0
 75 76  1  0
 75 85  1  0
 76 79  1  0
 77 81  1  0
 77 76  1  0
 78 77  2  0
 81 80  1  0
 83 81  1  0
 83 84  1  0
 83 82  1  0
 85 88  1  1
 85 86  1  0
 87 85  1  0
M  ISO  4   1 100  17 100  47 101  48 101
M  END
>  <TORSDO>  (91) 
F 16

>  <SCORE>  (91) 
-14.213

>  <name>  (91) 
90

>  <ligand_id>  (91) 
90

>  <original_smiles>  (91) 
[H]c1c([H])c([H])c2c(c1[H])C([H])([H])C([H])([H])C([H])([H])C2([H])N([H])C(=O)C1([H])N(C(=O)C([H])(N([H])C(=O)C([H])(N([H])C([H])([H])[H])C([H])([H])[H])C(C([H])([H])[H])(C([H])([H])[H])C([H])([H])[H])C([H])([H])c2c([H])c(OC([H])([H])c3c(C([H])([H])[H])nc(N([H])C(=O)N4C([H])([H])C([H])([H])C([H])([H])C([H])(n5nc(-c6c([H])c([H])c(Oc7c([H])c([H])c(F)c([H])c7F)c([H])c6[H])c(C(=O)N([H])[H])c5N([H])[H])C4([H])[H])c([H])c3C([H])([H])[H])c([H])c([H])c2C1([H])[H]

>  <smiles>  (91) 
[H]c1c([H])c([H])c2c(c1[H])C([H])([H])C([H])([H])C([H])([H])C2([H])N([H])C(=O)C1([H])N(C(=O)C([H])(N([H])C(=O)C([H])(N([H])C([H])([H])[H])C([H])([H])[H])C(C([H])([H])[H])(C([H])([H])[H])C([H])([H])[H])C([H])([H])c2c([H])c(OC([H])([H])c3c(C([H])([H])[H])nc(N([H])C(=O)N4C([H])([H])C([H])([H])C([H])([H])C([H])(n5nc(-c6c([H])c([H])c(Oc7c([H])c([H])c(F)c([H])c7F)c([H])c6[H])c(C(=O)N([H])[H])c5N([H])[H])C4([H])[H])c([H])c3C([H])([H])[H])c([H])c([H])c2C1([H])[H]

$$$$
91:0:0
     RDKit          3D

102113  0  0  1  0  0  0  0  0999 V2000
  -29.3600  -23.1820   21.7970 C   0  0  0  0  0  3  0  0  0  0  0  0
  -29.8730  -21.8610   21.8000 C   0  0  0  0  0  0  0  0  0  0  0  0
  -29.8690  -21.0820   20.6100 C   0  0  0  0  0  0  0  0  0  0  0  0
  -29.3310  -21.6650   19.4170 C   0  0  0  0  0  0  0  0  0  0  0  0
  -28.8400  -23.8070   20.6380 C   0  0  0  0  0  0  0  0  0  0  0  0
  -28.8580  -23.0350   19.4330 C   0  0  0  0  0  0  0  0  0  0  0  0
  -30.4140  -21.1470   23.0280 C   0  0  0  0  0  2  0  0  0  0  0  0
  -31.7740  -20.4700   22.8090 C   0  0  0  0  0  2  0  0  0  0  0  0
  -31.9690  -19.9610   21.3750 C   0  0  0  0  0  2  0  0  0  0  0  0
  -29.9500  -18.4100   21.2770 C   0  0  0  0  0  2  0  0  0  0  0  0
  -29.2810  -20.6510   18.2610 C   0  0  0  0  0  3  0  0  0  0  0  0
  -31.0290  -19.0980   19.2110 C   0  0  0  0  0  3  0  0  0  0  0  0
  -30.6480  -19.9860   18.0110 C   0  0  0  0  0  3  0  0  0  0  0  0
  -30.6310  -17.1520   20.6270 C   0  0  0  0  0  3  0  0  0  0  0  0
  -30.6390  -19.6780   20.6180 C   0  0  1  0  0  0  0  0  0  0  0  0
  -30.6360  -17.5710   19.1330 C   0  0  1  0  0  0  0  0  0  0  0  0
  -28.3490  -23.6830   18.1540 C   0  0  0  0  0  1  0  0  0  0  0  0
  -31.7410  -21.0230   17.6770 C   0  0  0  0  0  1  0  0  0  0  0  0
  -29.2550  -17.2860   18.4840 C   0  0  0  0  0  1  0  0  0  0  0  0
  -31.6880  -16.7920   18.3160 C   0  0  0  0  0  1  0  0  0  0  0  0
  -30.8620  -14.6230   20.8960 C   0  0  0  0  0  0  0  0  0  0  0  0
  -30.6990  -12.3470   19.9490 C   0  0  0  0  0  2  0  0  0  0  0  0
  -29.8610  -12.4100   18.6570 C   0  0  0  0  0  2  0  0  0  0  0  0
  -28.3640  -12.2460   18.9810 C   0  0  0  0  0  2  0  0  0  0  0  0
  -27.8940  -13.1650   20.1410 C   0  0  0  0  0  3  0  0  0  0  0  0
  -28.8670  -13.1190   21.3400 C   0  0  0  0  0  2  0  0  0  0  0  0
  -30.2110  -13.4230   20.8320 N   0  0  0  0  0  0  0  0  0  0  0  0
  -32.0760  -14.6920   20.6950 O   0  0  0  0  0  0  0  0  0  0  0  0
  -30.1100  -15.7670   20.9250 N   0  0  0  0  0  0  0  0  0  0  0  0
  -29.1160  -15.6580   21.0380 H   0  0  0  0  0  0  0  0  0  0  0  0
  -25.4540  -13.7400   20.6940 C   0  0  0  0  0  0  0  0  0  0  0  0
  -24.3720  -12.9590   20.9950 C   0  0  0  0  0  0  0  0  0  0  0  0
  -24.8490  -11.6110   21.0100 C   0  0  0  0  0  0  0  0  0  0  0  0
  -26.5210  -12.8700   20.5400 N   0  0  0  0  0  0  0  0  0  0  0  0
  -26.1580  -11.5850   20.7920 N   0  0  0  0  0  0  0  0  0  0  0  0
  -24.1230  -10.3440   21.1590 C   0  0  0  0  0  0  0  0  0  0  0  0
  -24.4940   -9.3890   22.1310 C   0  0  0  0  0  3  0  0  0  0  0  0
  -23.7680   -8.1860   22.2680 C   0  0  0  0  0  3  0  0  0  0  0  0
  -22.6560   -7.9290   21.4300 C   0  0  0  0  0  0  0  0  0  0  0  0
  -22.3050   -8.8730   20.4480 C   0  0  0  0  0  3  0  0  0  0  0  0
  -23.0330  -10.0660   20.3100 C   0  0  0  0  0  3  0  0  0  0  0  0
  -21.9080   -6.7780   21.4730 O   0  0  0  0  0  0  0  0  0  0  0  0
  -21.7660   -6.0540   22.6310 C   0  0  0  0  0  0  0  0  0  0  0  0
  -21.2150   -6.6210   23.8000 C   0  0  0  0  0  3  0  0  0  0  0  0
  -21.0220   -5.8230   24.9470 C   0  0  0  0  0  3  0  0  0  0  0  0
  -21.3720   -4.4600   24.9220 C   0  0  0  0  0  0  0  0  0  0  0  0
  -21.9160   -3.8920   23.7560 C   0  0  0  0  0  3  0  0  0  0  0  0
  -22.1090   -4.6880   22.6130 C   0  0  0  0  0  0  0  0  0  0  0  0
  -22.6140   -4.1300   21.4860 F   0  0  0  0  0  0  0  0  0  0  0  0
  -21.1800   -3.6910   26.0200 F   0  0  0  0  0  0  0  0  0  0  0  0
  -22.9550  -13.4230   21.1630 C   0  0  0  0  0  0  0  0  0  0  0  0
  -22.1780  -12.7340   21.9910 N   0  0  0  0  0  0  0  0  0  0  0  0
  -22.5420  -14.4340   20.5950 O   0  0  0  0  0  0  0  0  0  0  0  0
  -22.5220  -11.9170   22.4720 H   0  0  0  0  0  0  0  0  0  0  0  0
  -21.2240  -13.0290   22.1470 H   0  0  0  0  0  0  0  0  0  0  0  0
  -25.6150  -15.1120   20.5140 N   0  0  0  0  0  0  0  0  0  0  0  0
  -24.8310  -15.7530   20.5600 H   0  0  0  0  0  0  0  0  0  0  0  0
  -26.4740  -15.5580   20.2230 H   0  0  0  0  0  0  0  0  0  0  0  0
  -28.1960  -20.2390   16.1570 C   0  0  0  0  0  1  0  0  0  0  0  0
  -28.7970  -21.1880   17.0330 O   0  0  0  0  0  0  0  0  0  0  0  0
  -28.0370  -25.1490   20.8370 C   0  0  0  0  0  2  0  0  0  0  0  0
  -28.3260  -26.3990   20.1070 O   0  0  0  0  0  0  0  0  0  0  0  0
  -24.6250  -31.8180   23.1400 C   0  0  0  0  0  0  0  0  0  0  0  0
  -27.2380  -27.2800   20.0690 C   0  0  0  0  0  0  0  0  0  0  0  0
  -23.4210  -30.4220   21.4970 C   0  0  0  0  0  3  0  0  0  0  0  0
  -24.8720  -28.8770   20.0670 C   0  0  0  0  0  0  0  0  0  0  0  0
  -25.9600  -30.7410   21.3180 C   0  0  0  0  0  2  0  0  0  0  0  0
  -26.0410  -29.3670   20.6670 C   0  0  0  0  0  0  0  0  0  0  0  0
  -27.2300  -28.5780   20.6620 C   0  0  0  0  0  3  0  0  0  0  0  0
  -26.0520  -26.8490   19.4340 C   0  0  0  0  0  3  0  0  0  0  0  0
  -24.8770  -27.6220   19.4440 C   0  0  0  0  0  3  0  0  0  0  0  0
  -23.6350  -29.7500   20.1160 C   0  0  0  0  0  2  0  0  0  0  0  0
  -24.6870  -31.0100   22.0420 N   0  0  0  0  0  0  0  0  0  0  0  0
  -23.5410  -32.0950   23.6740 O   0  0  0  0  0  0  0  0  0  0  0  0
  -22.7580  -29.4040   22.4540 C   0  0  0  0  0  0  0  0  0  0  0  0
  -21.4280  -29.2430   22.3370 N   0  0  0  0  0  0  0  0  0  0  0  0
  -23.4370  -28.7630   23.2600 O   0  0  0  0  0  0  0  0  0  0  0  0
  -20.9420  -29.8130   21.6590 H   0  0  0  0  0  0  0  0  0  0  0  0
  -18.0330  -28.1240   22.8960 C   0  0  0  0  0  0  0  0  0  0  0  0
  -20.6030  -28.3110   23.1070 C   0  0  0  0  0  3  0  0  0  0  0  0
  -20.6540  -26.8910   22.4990 C   0  0  0  0  0  2  0  0  0  0  0  0
  -19.5200  -26.6180   21.5060 C   0  0  0  0  0  2  0  0  0  0  0  0
  -18.1580  -26.7860   22.1860 C   0  0  0  0  0  2  0  0  0  0  0  0
  -19.1830  -28.8470   23.3130 C   0  0  0  0  0  0  0  0  0  0  0  0
  -19.0110  -30.1020   23.9370 C   0  0  0  0  0  3  0  0  0  0  0  0
  -17.7250  -30.6340   24.1460 C   0  0  0  0  0  3  0  0  0  0  0  0
  -16.5910  -29.9080   23.7430 C   0  0  0  0  0  3  0  0  0  0  0  0
  -16.7460  -28.6540   23.1250 C   0  0  0  0  0  3  0  0  0  0  0  0
  -25.9100  -32.4450   23.7650 C   0  0  0  0  0  3  0  0  0  0  0  0
  -25.5940  -33.8370   24.1190 N   0  0  0  0  0  0  0  0  0  0  0  0
  -25.9180  -34.9030   23.3760 C   0  0  0  0  0  0  0  0  0  0  0  0
  -26.5860  -34.8200   22.3410 O   0  0  0  0  0  0  0  0  0  0  0  0
  -25.0020  -33.9740   24.9250 H   0  0  0  0  0  0  0  0  0  0  0  0
  -24.1880  -36.6990   23.0530 C   0  0  0  0  0  1  0  0  0  0  0  0
  -25.4270  -36.2820   23.8590 C   0  0  0  0  0  3  0  0  0  0  0  0
  -27.5570  -37.1550   24.7140 C   0  0  0  0  0  1  0  0  0  0  0  0
  -26.4580  -37.3380   23.7690 N   0  0  0  0  0  0  0  0  0  0  0  0
  -26.0500  -38.2540   23.9340 H   0  0  0  0  0  0  0  0  0  0  0  0
  -26.4370  -31.6570   25.0260 C   0  0  1  0  0  0  0  0  0  0  0  0
  -25.3520  -31.3970   26.0980 C   0  0  0  0  0  1  0  0  0  0  0  0
  -27.0230  -30.2880   24.6110 C   0  0  0  0  0  1  0  0  0  0  0  0
  -27.5890  -32.4450   25.6920 C   0  0  0  0  0  1  0  0  0  0  0  0
  1  2  1  0
  2  7  1  0
  3 15  1  0
  3  2  2  0
  4  6  2  0
  4  3  1  0
  5 61  1  0
  5  1  2  0
  6  5  1  0
  8  7  1  0
  9  8  1  0
 11 60  1  0
 11  4  1  0
 12 16  1  0
 12 15  1  0
 13 18  1  0
 13 11  1  0
 13 12  1  0
 14 29  1  0
 14 10  1  0
 15 10  1  1
 15  9  1  0
 16 14  1  0
 17  6  1  0
 16 19  1  6
 20 16  1  0
 21 29  1  0
 22 27  1  0
 23 24  1  0
 23 22  1  0
 25 24  1  0
 25 34  1  0
 25 26  1  0
 27 21  1  0
 27 26  1  0
 28 21  2  0
 29 30  1  0
 31 32  2  0
 32 33  1  0
 32 51  1  0
 33 36  1  0
 34 31  1  0
 34 35  1  0
 35 33  2  0
 36 37  1  0
 37 38  2  0
 39 42  1  0
 39 38  1  0
 40 39  2  0
 41 40  1  0
 41 36  2  0
 42 43  1  0
 43 44  1  0
 44 45  2  0
 46 45  1  0
 46 50  1  0
 47 46  2  0
 48 43  2  0
 48 47  1  0
 49 48  1  0
 51 52  1  0
 52 55  1  0
 52 54  1  0
 53 51  2  0
 56 57  1  0
 56 31  1  0
 58 56  1  0
 59 60  1  0
 62 61  1  0
 63 74  2  0
 64 62  1  0
 64 69  1  0
 65 73  1  0
 65 75  1  0
 66 72  1  0
 66 68  1  0
 67 73  1  0
 68 67  1  0
 69 68  2  0
 70 71  1  0
 70 64  2  0
 71 66  2  0
 72 65  1  0
 73 63  1  0
 75 77  2  0
 76 75  1  0
 78 76  1  0
 79 88  2  0
 79 84  1  0
 80 76  1  0
 80 84  1  0
 81 80  1  0
 82 83  1  0
 82 81  1  0
 83 79  1  0
 84 85  2  0
 85 86  1  0
 87 86  2  0
 88 87  1  0
 89 63  1  0
 89 90  1  0
 89 99  1  0
 90 93  1  0
 91 95  1  0
 91 90  1  0
 92 91  2  0
 95 94  1  0
 97 95  1  0
 97 98  1  0
 97 96  1  0
 99102  1  1
 99100  1  0
101 99  1  0
M  ISO  4  21 100  29 100  61 101  62 101
M  END
>  <TORSDO>  (92) 
F 18

>  <SCORE>  (92) 
-14.625

>  <name>  (92) 
91

>  <ligand_id>  (92) 
91

>  <original_smiles>  (92) 
[H]c1c([H])c([H])c2c(c1[H])C([H])([H])C([H])([H])C([H])([H])C2([H])N([H])C(=O)C1([H])N(C(=O)C([H])(N([H])C(=O)C([H])(N([H])C([H])([H])[H])C([H])([H])[H])C(C([H])([H])[H])(C([H])([H])[H])C([H])([H])[H])C([H])([H])c2c([H])c(OC([H])([H])c3c([H])c4c5c(c3C([H])([H])[H])C([H])(OC([H])([H])[H])C([H])(C([H])([H])[H])C3([H])C5(C([H])([H])C([H])([H])C4([H])[H])C([H])([H])C([H])(N([H])C(=O)N4C([H])([H])C([H])([H])C([H])([H])C([H])(n5nc(-c6c([H])c([H])c(Oc7c([H])c([H])c(F)c([H])c7F)c([H])c6[H])c(C(=O)N([H])[H])c5N([H])[H])C4([H])[H])C3(C([H])([H])[H])C([H])([H])[H])c([H])c([H])c2C1([H])[H]

>  <smiles>  (92) 
[H]c1c([H])c([H])c2c(c1[H])C([H])([H])C([H])([H])C([H])([H])C2([H])N([H])C(=O)C1([H])N(C(=O)C([H])(N([H])C(=O)C([H])(N([H])C([H])([H])[H])C([H])([H])[H])C(C([H])([H])[H])(C([H])([H])[H])C([H])([H])[H])C([H])([H])c2c([H])c(OC([H])([H])c3c([H])c4c5c(c3C([H])([H])[H])C([H])(OC([H])([H])[H])C([H])(C([H])([H])[H])C3([H])C5(C([H])([H])C([H])([H])C4([H])[H])C([H])([H])C([H])(N([H])C(=O)N4C([H])([H])C([H])([H])C([H])([H])C([H])(n5nc(-c6c([H])c([H])c(Oc7c([H])c([H])c(F)c([H])c7F)c([H])c6[H])c(C(=O)N([H])[H])c5N([H])[H])C4([H])[H])C3(C([H])([H])[H])C([H])([H])[H])c([H])c([H])c2C1([H])[H]

$$$$
92:0:0
     RDKit          3D

 97107  0  0  1  0  0  0  0  0999 V2000
  -32.0550  -18.6030   20.8240 C   0  0  0  0  0  3  0  0  0  0  0  0
  -32.0880  -20.0010   20.6300 C   0  0  0  0  0  0  0  0  0  0  0  0
  -30.8770  -20.7340   20.6850 C   0  0  0  0  0  0  0  0  0  0  0  0
  -29.6620  -20.0520   20.9090 C   0  0  0  0  0  0  0  0  0  0  0  0
  -30.8620  -17.9120   21.1310 C   0  0  0  0  0  0  0  0  0  0  0  0
  -29.6400  -18.6450   21.1560 C   0  0  0  0  0  0  0  0  0  0  0  0
  -28.4090  -20.9250   20.9280 C   0  0  0  0  0  2  0  0  0  0  0  0
  -30.8650  -22.2780   20.6330 C   0  0  0  0  0  2  0  0  0  0  0  0
  -28.4770  -22.0610   19.8790 C   0  0  0  0  0  2  0  0  0  0  0  0
  -28.3250  -17.9540   21.5030 C   0  0  0  0  0  1  0  0  0  0  0  0
  -29.7020  -22.9140   19.9450 N   0  0  1  0  0  4  0  0  0  0  0  0
  -30.0050  -22.9670   18.9820 H   0  0  0  0  0  0  0  0  0  0  0  0
  -34.6690  -20.2430   21.1380 C   0  0  0  0  0  2  0  0  0  0  0  0
  -34.0100  -21.5480   21.5110 C   0  0  0  0  0  2  0  0  0  0  0  0
  -33.4110  -20.6850   20.4220 C   0  0  0  0  0  3  0  0  0  0  0  0
  -30.9970  -16.4410   21.5840 C   0  0  0  0  0  2  0  0  0  0  0  0
  -30.6690  -14.5270   20.0000 C   0  0  0  0  0  0  0  0  0  0  0  0
  -30.1890  -12.4900   18.6750 C   0  0  0  0  0  2  0  0  0  0  0  0
  -29.1360  -12.7750   17.5850 C   0  0  0  0  0  2  0  0  0  0  0  0
  -27.7130  -12.6070   18.1490 C   0  0  0  0  0  2  0  0  0  0  0  0
  -27.5100  -13.3600   19.4900 C   0  0  0  0  0  3  0  0  0  0  0  0
  -28.6630  -13.0610   20.4740 C   0  0  0  0  0  2  0  0  0  0  0  0
  -29.9300  -13.4000   19.8030 N   0  0  0  0  0  0  0  0  0  0  0  0
  -31.7110  -14.7520   19.3770 O   0  0  0  0  0  0  0  0  0  0  0  0
  -30.1980  -15.4030   20.9080 N   0  0  0  0  0  0  0  0  0  0  0  0
  -29.3090  -15.1780   21.3240 H   0  0  0  0  0  0  0  0  0  0  0  0
  -25.1850  -13.9340   20.4280 C   0  0  0  0  0  0  0  0  0  0  0  0
  -24.1530  -13.1460   20.8620 C   0  0  0  0  0  0  0  0  0  0  0  0
  -24.6110  -11.7970   20.7430 C   0  0  0  0  0  0  0  0  0  0  0  0
  -26.2060  -13.0650   20.0760 N   0  0  0  0  0  0  0  0  0  0  0  0
  -25.8680  -11.7720   20.3230 N   0  0  0  0  0  0  0  0  0  0  0  0
  -23.9030  -10.5270   20.9520 C   0  0  0  0  0  0  0  0  0  0  0  0
  -24.3690   -9.5650   21.8770 C   0  0  0  0  0  3  0  0  0  0  0  0
  -23.6620   -8.3600   22.0740 C   0  0  0  0  0  3  0  0  0  0  0  0
  -22.4750   -8.1060   21.3450 C   0  0  0  0  0  0  0  0  0  0  0  0
  -22.0290   -9.0550   20.4090 C   0  0  0  0  0  3  0  0  0  0  0  0
  -22.7360  -10.2530   20.2110 C   0  0  0  0  0  3  0  0  0  0  0  0
  -21.7370   -6.9520   21.4520 O   0  0  0  0  0  0  0  0  0  0  0  0
  -21.6620   -6.2510   22.6290 C   0  0  0  0  0  0  0  0  0  0  0  0
  -21.1910   -6.8440   23.8200 C   0  0  0  0  0  3  0  0  0  0  0  0
  -21.0640   -6.0680   24.9900 C   0  0  0  0  0  3  0  0  0  0  0  0
  -21.4000   -4.7020   24.9690 C   0  0  0  0  0  0  0  0  0  0  0  0
  -21.8640   -4.1080   23.7820 C   0  0  0  0  0  3  0  0  0  0  0  0
  -21.9920   -4.8810   22.6150 C   0  0  0  0  0  0  0  0  0  0  0  0
  -22.4200   -4.3000   21.4680 F   0  0  0  0  0  0  0  0  0  0  0  0
  -21.2710   -3.9540   26.0900 F   0  0  0  0  0  0  0  0  0  0  0  0
  -22.7850  -13.6080   21.2720 C   0  0  0  0  0  0  0  0  0  0  0  0
  -22.1400  -12.8840   22.1800 N   0  0  0  0  0  0  0  0  0  0  0  0
  -22.2990  -14.6450   20.8230 O   0  0  0  0  0  0  0  0  0  0  0  0
  -22.5460  -12.0420   22.5600 H   0  0  0  0  0  0  0  0  0  0  0  0
  -21.2270  -13.1750   22.4990 H   0  0  0  0  0  0  0  0  0  0  0  0
  -25.3360  -15.3100   20.2820 N   0  0  0  0  0  0  0  0  0  0  0  0
  -24.5830  -15.9620   20.4730 H   0  0  0  0  0  0  0  0  0  0  0  0
  -26.1570  -15.7550   19.8890 H   0  0  0  0  0  0  0  0  0  0  0  0
  -29.4890  -24.3400   20.3830 C   0  0  0  0  0  2  0  0  0  0  0  0
  -28.5320  -25.1820   19.4930 C   0  0  0  0  0  2  0  0  0  0  0  0
  -28.5990  -26.6070   19.7550 O   0  0  0  0  0  0  0  0  0  0  0  0
  -24.7080  -31.6280   23.0000 C   0  0  0  0  0  0  0  0  0  0  0  0
  -27.4210  -27.3430   19.7300 C   0  0  0  0  0  0  0  0  0  0  0  0
  -23.5250  -30.2720   21.3070 C   0  0  0  0  0  3  0  0  0  0  0  0
  -25.0040  -28.8330   19.8060 C   0  0  0  0  0  0  0  0  0  0  0  0
  -26.0460  -30.6820   21.1220 C   0  0  0  0  0  2  0  0  0  0  0  0
  -26.1550  -29.3410   20.4180 C   0  0  0  0  0  0  0  0  0  0  0  0
  -27.3650  -28.6040   20.3780 C   0  0  0  0  0  3  0  0  0  0  0  0
  -26.2520  -26.8760   19.0840 C   0  0  0  0  0  3  0  0  0  0  0  0
  -25.0480  -27.6010   19.1340 C   0  0  0  0  0  3  0  0  0  0  0  0
  -23.7440  -29.6630   19.8970 C   0  0  0  0  0  2  0  0  0  0  0  0
  -24.7780  -30.8730   21.8680 N   0  0  0  0  0  0  0  0  0  0  0  0
  -23.6230  -31.8530   23.5540 O   0  0  0  0  0  0  0  0  0  0  0  0
  -22.9000  -29.1940   22.2230 C   0  0  0  0  0  0  0  0  0  0  0  0
  -21.5730  -29.0160   22.1200 N   0  0  0  0  0  0  0  0  0  0  0  0
  -23.6060  -28.5250   22.9830 O   0  0  0  0  0  0  0  0  0  0  0  0
  -21.0650  -29.6110   21.4800 H   0  0  0  0  0  0  0  0  0  0  0  0
  -18.2100  -27.8010   22.6450 C   0  0  0  0  0  0  0  0  0  0  0  0
  -20.7760  -28.0360   22.8570 C   0  0  0  0  0  3  0  0  0  0  0  0
  -20.8570  -26.6420   22.1930 C   0  0  0  0  0  2  0  0  0  0  0  0
  -19.7260  -26.3830   21.1940 C   0  0  0  0  0  2  0  0  0  0  0  0
  -18.3630  -26.4920   21.8860 C   0  0  0  0  0  2  0  0  0  0  0  0
  -19.3440  -28.5330   23.0850 C   0  0  0  0  0  0  0  0  0  0  0  0
  -19.1500  -29.7600   23.7550 C   0  0  0  0  0  3  0  0  0  0  0  0
  -17.8550  -30.2540   23.9900 C   0  0  0  0  0  3  0  0  0  0  0  0
  -16.7350  -29.5170   23.5690 C   0  0  0  0  0  3  0  0  0  0  0  0
  -16.9140  -28.2930   22.9000 C   0  0  0  0  0  3  0  0  0  0  0  0
  -25.9830  -32.2600   23.6400 C   0  0  0  0  0  3  0  0  0  0  0  0
  -26.5230  -31.4480   24.8810 C   0  0  1  0  0  0  0  0  0  0  0  0
  -25.4430  -31.1560   25.9490 C   0  0  0  0  0  1  0  0  0  0  0  0
  -27.1230  -30.0950   24.4300 C   0  0  0  0  0  1  0  0  0  0  0  0
  -27.6670  -32.2340   25.5650 C   0  0  0  0  0  1  0  0  0  0  0  0
  -25.6490  -33.6370   24.0240 N   0  0  0  0  0  0  0  0  0  0  0  0
  -26.0000  -34.7270   23.3300 C   0  0  0  0  0  0  0  0  0  0  0  0
  -26.7090  -34.6780   22.3200 O   0  0  0  0  0  0  0  0  0  0  0  0
  -25.0250  -33.7490   24.8100 H   0  0  0  0  0  0  0  0  0  0  0  0
  -24.2670  -36.5170   22.9910 C   0  0  0  0  0  1  0  0  0  0  0  0
  -25.4790  -36.0860   23.8320 C   0  0  0  0  0  3  0  0  0  0  0  0
  -27.5670  -36.9510   24.7910 C   0  0  0  0  0  1  0  0  0  0  0  0
  -26.5040  -37.1530   23.8110 N   0  0  0  0  0  0  0  0  0  0  0  0
  -26.0820  -38.0620   23.9870 H   0  0  0  0  0  0  0  0  0  0  0  0
  1  5  1  0
  2  3  1  0
  2  1  2  0
  3  4  2  0
  4  7  1  0
  4  6  1  0
  5  6  2  0
  5 16  1  0
  6 10  1  0
  8  3  1  0
  9 11  1  0
  9  7  1  0
 11 55  1  0
 11  8  1  0
 11 12  1  6
 13 14  1  0
 15  2  1  0
 15 13  1  0
 15 14  1  0
 17 25  1  0
 18 23  1  0
 19 20  1  0
 19 18  1  0
 21 20  1  0
 21 30  1  0
 21 22  1  0
 23 17  1  0
 23 22  1  0
 24 17  2  0
 25 26  1  0
 25 16  1  0
 27 28  2  0
 28 47  1  0
 29 28  1  0
 29 32  1  0
 30 31  1  0
 30 27  1  0
 31 29  2  0
 32 33  1  0
 33 34  2  0
 35 38  1  0
 35 34  1  0
 36 35  2  0
 37 36  1  0
 37 32  2  0
 38 39  1  0
 39 40  1  0
 40 41  2  0
 42 41  1  0
 42 46  1  0
 43 42  2  0
 44 39  2  0
 44 43  1  0
 45 44  1  0
 47 48  1  0
 48 51  1  0
 48 50  1  0
 49 47  2  0
 52 27  1  0
 52 53  1  0
 54 52  1  0
 56 57  1  0
 56 55  1  0
 58 69  2  0
 59 57  1  0
 59 64  1  0
 60 68  1  0
 60 70  1  0
 61 67  1  0
 61 63  1  0
 62 68  1  0
 63 62  1  0
 64 63  2  0
 65 66  1  0
 65 59  2  0
 66 61  2  0
 67 60  1  0
 68 58  1  0
 70 72  2  0
 71 70  1  0
 73 71  1  0
 74 83  2  0
 74 79  1  0
 75 71  1  0
 75 79  1  0
 76 75  1  0
 77 78  1  0
 77 76  1  0
 78 74  1  0
 79 80  2  0
 80 81  1  0
 82 81  2  0
 83 82  1  0
 84 58  1  0
 84 89  1  0
 84 85  1  0
 85 88  1  1
 85 86  1  0
 87 85  1  0
 89 92  1  0
 90 94  1  0
 90 89  1  0
 91 90  2  0
 94 93  1  0
 96 94  1  0
 96 97  1  0
 96 95  1  0
M  ISO  4  17 100  25 100  56 101  57 101
M  END
>  <TORSDO>  (93) 
F 20

>  <SCORE>  (93) 
-11.680

>  <name>  (93) 
92

>  <ligand_id>  (93) 
92

>  <original_smiles>  (93) 
[H]c1c([H])c([H])c2c(c1[H])C([H])([H])C([H])([H])C([H])([H])C2([H])N([H])C(=O)C1([H])N(C(=O)C([H])(N([H])C(=O)C([H])(N([H])C([H])([H])[H])C([H])([H])[H])C(C([H])([H])[H])(C([H])([H])[H])C([H])([H])[H])C([H])([H])c2c([H])c(OC([H])([H])C([H])([H])[N+]3([H])C([H])([H])c4c(c(C([H])([H])[H])c(C([H])([H])N([H])C(=O)N5C([H])([H])C([H])([H])C([H])([H])C([H])(n6nc(-c7c([H])c([H])c(Oc8c([H])c([H])c(F)c([H])c8F)c([H])c7[H])c(C(=O)N([H])[H])c6N([H])[H])C5([H])[H])c([H])c4C4([H])C([H])([H])C4([H])[H])C([H])([H])C3([H])[H])c([H])c([H])c2C1([H])[H]

>  <smiles>  (93) 
[H]c1c([H])c([H])c2c(c1[H])C([H])([H])C([H])([H])C([H])([H])C2([H])N([H])C(=O)C1([H])N(C(=O)C([H])(N([H])C(=O)C([H])(N([H])C([H])([H])[H])C([H])([H])[H])C(C([H])([H])[H])(C([H])([H])[H])C([H])([H])[H])C([H])([H])c2c([H])c(OC([H])([H])C([H])([H])[N+]3([H])C([H])([H])c4c(c(C([H])([H])[H])c(C([H])([H])N([H])C(=O)N5C([H])([H])C([H])([H])C([H])([H])C([H])(n6nc(-c7c([H])c([H])c(Oc8c([H])c([H])c(F)c([H])c8F)c([H])c7[H])c(C(=O)N([H])[H])c6N([H])[H])C5([H])[H])c([H])c4C4([H])C([H])([H])C4([H])[H])C([H])([H])C3([H])[H])c([H])c([H])c2C1([H])[H]

$$$$
93:0:0
     RDKit          3D

 98107  0  0  1  0  0  0  0  0999 V2000
  -31.5500  -22.4440   21.1680 C   0  0  0  0  0  2  0  0  0  0  0  0
  -30.1560  -21.8990   19.0950 C   0  0  0  0  0  2  0  0  0  0  0  0
  -31.6190  -23.7850   20.4010 C   0  0  0  0  0  2  0  0  0  0  0  0
  -30.5820  -21.4380   20.5010 C   0  0  0  0  0  3  0  0  0  0  0  0
  -29.4840  -23.2890   19.1910 C   0  0  0  0  0  3  0  0  0  0  0  0
  -29.1630  -23.8690   17.8070 C   0  0  0  0  0  1  0  0  0  0  0  0
  -30.2660  -24.2760   20.0110 N   0  0  1  0  0  4  0  0  0  0  0  0
  -30.4310  -25.0730   19.4100 H   0  0  0  0  0  0  0  0  0  0  0  0
  -30.6890  -17.7670   21.7180 C   0  0  0  0  0  3  0  0  0  0  0  0
  -32.4350  -18.0470   20.0640 C   0  0  0  0  0  3  0  0  0  0  0  0
  -30.9810  -19.9520   20.6180 C   0  0  0  0  0  0  0  0  0  0  0  0
  -31.7820  -17.2470   21.0140 C   0  0  0  0  0  0  0  0  0  0  0  0
  -30.2800  -19.1010   21.5290 C   0  0  0  0  0  0  0  0  0  0  0  0
  -32.0410  -19.3850   19.8470 C   0  0  0  0  0  0  0  0  0  0  0  0
  -29.0730  -19.5610   22.3340 C   0  0  0  0  0  1  0  0  0  0  0  0
  -32.7760  -20.1360   18.7450 C   0  0  0  0  0  1  0  0  0  0  0  0
  -32.2220  -15.8170   21.2600 C   0  0  0  0  0  2  0  0  0  0  0  0
  -31.2910  -14.2440   19.5920 C   0  0  0  0  0  0  0  0  0  0  0  0
  -30.6080  -12.1970   18.4090 C   0  0  0  0  0  2  0  0  0  0  0  0
  -29.5400  -12.4390   17.3300 C   0  0  0  0  0  2  0  0  0  0  0  0
  -28.1310  -12.3980   17.9440 C   0  0  0  0  0  2  0  0  0  0  0  0
  -28.0030  -13.2940   19.2010 C   0  0  0  0  0  3  0  0  0  0  0  0
  -29.1620  -13.0360   20.1880 C   0  0  0  0  0  2  0  0  0  0  0  0
  -30.4410  -13.1950   19.4710 N   0  0  0  0  0  0  0  0  0  0  0  0
  -32.1560  -14.5230   18.7560 O   0  0  0  0  0  0  0  0  0  0  0  0
  -31.2440  -14.8510   20.7790 N   0  0  0  0  0  0  0  0  0  0  0  0
  -30.5370  -14.5370   21.4260 H   0  0  0  0  0  0  0  0  0  0  0  0
  -25.7780  -14.0740   20.2380 C   0  0  0  0  0  0  0  0  0  0  0  0
  -24.6960  -13.3790   20.7100 C   0  0  0  0  0  0  0  0  0  0  0  0
  -25.0200  -11.9950   20.5600 C   0  0  0  0  0  0  0  0  0  0  0  0
  -26.7000  -13.1180   19.8390 N   0  0  0  0  0  0  0  0  0  0  0  0
  -26.2520  -11.8610   20.0840 N   0  0  0  0  0  0  0  0  0  0  0  0
  -24.2100  -10.7910   20.7870 C   0  0  0  0  0  0  0  0  0  0  0  0
  -24.6140   -9.7890   21.6960 C   0  0  0  0  0  3  0  0  0  0  0  0
  -23.8080   -8.6500   21.9120 C   0  0  0  0  0  3  0  0  0  0  0  0
  -22.5830   -8.5050   21.2180 C   0  0  0  0  0  0  0  0  0  0  0  0
  -22.1950   -9.4970   20.2980 C   0  0  0  0  0  3  0  0  0  0  0  0
  -23.0010  -10.6270   20.0810 C   0  0  0  0  0  3  0  0  0  0  0  0
  -21.7460   -7.4230   21.3450 O   0  0  0  0  0  0  0  0  0  0  0  0
  -21.6410   -6.7300   22.5240 C   0  0  0  0  0  0  0  0  0  0  0  0
  -21.2490   -7.3570   23.7260 C   0  0  0  0  0  3  0  0  0  0  0  0
  -21.0870   -6.5930   24.8990 C   0  0  0  0  0  3  0  0  0  0  0  0
  -21.3070   -5.2030   24.8700 C   0  0  0  0  0  0  0  0  0  0  0  0
  -21.6930   -4.5750   23.6730 C   0  0  0  0  0  3  0  0  0  0  0  0
  -21.8580   -5.3370   22.5020 C   0  0  0  0  0  0  0  0  0  0  0  0
  -22.2070   -4.7240   21.3450 F   0  0  0  0  0  0  0  0  0  0  0  0
  -21.1450   -4.4670   25.9940 F   0  0  0  0  0  0  0  0  0  0  0  0
  -23.3960  -13.9580   21.1850 C   0  0  0  0  0  0  0  0  0  0  0  0
  -22.7370  -13.2910   22.1280 N   0  0  0  0  0  0  0  0  0  0  0  0
  -22.9790  -15.0330   20.7560 O   0  0  0  0  0  0  0  0  0  0  0  0
  -23.0870  -12.4150   22.4870 H   0  0  0  0  0  0  0  0  0  0  0  0
  -21.8700  -13.6600   22.4920 H   0  0  0  0  0  0  0  0  0  0  0  0
  -26.0500  -15.4300   20.0970 N   0  0  0  0  0  0  0  0  0  0  0  0
  -25.3830  -16.1560   20.3360 H   0  0  0  0  0  0  0  0  0  0  0  0
  -26.9020  -15.7980   19.6910 H   0  0  0  0  0  0  0  0  0  0  0  0
  -29.5350  -24.8290   21.1890 C   0  0  0  0  0  2  0  0  0  0  0  0
  -28.2150  -25.5400   20.8530 C   0  0  0  0  0  2  0  0  0  0  0  0
  -28.4070  -26.6410   19.9660 O   0  0  0  0  0  0  0  0  0  0  0  0
  -24.6750  -31.7410   23.1510 C   0  0  0  0  0  0  0  0  0  0  0  0
  -27.2740  -27.4090   19.9220 C   0  0  0  0  0  0  0  0  0  0  0  0
  -23.4510  -30.3970   21.4710 C   0  0  0  0  0  3  0  0  0  0  0  0
  -24.8880  -28.9030   19.9860 C   0  0  0  0  0  0  0  0  0  0  0  0
  -25.9720  -30.7590   21.2670 C   0  0  0  0  0  2  0  0  0  0  0  0
  -26.0500  -29.4120   20.5800 C   0  0  0  0  0  0  0  0  0  0  0  0
  -27.2510  -28.6720   20.5450 C   0  0  0  0  0  3  0  0  0  0  0  0
  -26.1050  -26.9060   19.3150 C   0  0  0  0  0  3  0  0  0  0  0  0
  -24.9090  -27.6490   19.3470 C   0  0  0  0  0  3  0  0  0  0  0  0
  -23.6480  -29.7620   20.0670 C   0  0  0  0  0  2  0  0  0  0  0  0
  -24.7180  -30.9760   22.0230 N   0  0  0  0  0  0  0  0  0  0  0  0
  -23.5990  -32.0040   23.7040 O   0  0  0  0  0  0  0  0  0  0  0  0
  -22.7980  -29.3490   22.4020 C   0  0  0  0  0  0  0  0  0  0  0  0
  -21.4680  -29.2050   22.2940 N   0  0  0  0  0  0  0  0  0  0  0  0
  -23.4840  -28.6720   23.1730 O   0  0  0  0  0  0  0  0  0  0  0  0
  -20.9790  -29.8100   21.6480 H   0  0  0  0  0  0  0  0  0  0  0  0
  -18.0700  -28.1010   22.8380 C   0  0  0  0  0  0  0  0  0  0  0  0
  -20.6420  -28.2580   23.0430 C   0  0  0  0  0  3  0  0  0  0  0  0
  -20.6750  -26.8540   22.3940 C   0  0  0  0  0  2  0  0  0  0  0  0
  -19.5360  -26.6240   21.3960 C   0  0  0  0  0  2  0  0  0  0  0  0
  -18.1800  -26.7820   22.0870 C   0  0  0  0  0  2  0  0  0  0  0  0
  -19.2280  -28.8010   23.2710 C   0  0  0  0  0  0  0  0  0  0  0  0
  -19.0730  -30.0390   23.9300 C   0  0  0  0  0  3  0  0  0  0  0  0
  -17.7930  -30.5800   24.1550 C   0  0  0  0  0  3  0  0  0  0  0  0
  -16.6500  -29.8750   23.7370 C   0  0  0  0  0  3  0  0  0  0  0  0
  -16.7890  -28.6350   23.0880 C   0  0  0  0  0  3  0  0  0  0  0  0
  -25.9710  -32.3420   23.7830 C   0  0  0  0  0  3  0  0  0  0  0  0
  -26.4820  -31.5340   25.0390 C   0  0  1  0  0  0  0  0  0  0  0  0
  -25.3870  -31.2740   26.1000 C   0  0  0  0  0  1  0  0  0  0  0  0
  -27.0550  -30.1660   24.6030 C   0  0  0  0  0  1  0  0  0  0  0  0
  -27.6380  -32.3000   25.7250 C   0  0  0  0  0  1  0  0  0  0  0  0
  -25.6830  -33.7360   24.1420 N   0  0  0  0  0  0  0  0  0  0  0  0
  -26.0380  -34.7980   23.4060 C   0  0  0  0  0  0  0  0  0  0  0  0
  -26.7130  -34.7060   22.3780 O   0  0  0  0  0  0  0  0  0  0  0  0
  -25.0910  -33.8840   24.9460 H   0  0  0  0  0  0  0  0  0  0  0  0
  -24.3400  -36.6200   23.0750 C   0  0  0  0  0  1  0  0  0  0  0  0
  -25.5690  -36.1840   23.8890 C   0  0  0  0  0  3  0  0  0  0  0  0
  -27.7090  -37.0180   24.7560 C   0  0  0  0  0  1  0  0  0  0  0  0
  -26.6180  -37.2230   23.8050 N   0  0  0  0  0  0  0  0  0  0  0  0
  -26.2250  -38.1450   23.9720 H   0  0  0  0  0  0  0  0  0  0  0  0
  2  5  1  0
  2  4  1  0
  3  1  1  0
  4 11  1  0
  4  1  1  0
  5  6  1  0
  5  7  1  0
  7  3  1  0
  7 56  1  0
  7  8  1  6
 10 12  1  0
 11 13  2  0
 12 17  1  0
 12  9  2  0
 13  9  1  0
 13 15  1  0
 14 10  2  0
 14 11  1  0
 16 14  1  0
 18 26  1  0
 19 24  1  0
 20 21  1  0
 20 19  1  0
 22 21  1  0
 22 31  1  0
 22 23  1  0
 24 18  1  0
 24 23  1  0
 25 18  2  0
 26 17  1  0
 26 27  1  0
 28 29  2  0
 29 48  1  0
 30 29  1  0
 30 33  1  0
 31 32  1  0
 31 28  1  0
 32 30  2  0
 33 34  1  0
 34 35  2  0
 36 39  1  0
 36 35  1  0
 37 36  2  0
 38 37  1  0
 38 33  2  0
 39 40  1  0
 40 41  1  0
 41 42  2  0
 43 42  1  0
 43 47  1  0
 44 43  2  0
 45 40  2  0
 45 44  1  0
 46 45  1  0
 48 49  1  0
 49 51  1  0
 49 52  1  0
 50 48  2  0
 53 28  1  0
 53 54  1  0
 55 53  1  0
 57 56  1  0
 58 57  1  0
 59 70  2  0
 60 58  1  0
 60 65  1  0
 61 69  1  0
 61 71  1  0
 62 68  1  0
 62 64  1  0
 63 69  1  0
 64 63  1  0
 65 64  2  0
 66 67  1  0
 66 60  2  0
 67 62  2  0
 68 61  1  0
 69 59  1  0
 71 73  2  0
 72 71  1  0
 74 72  1  0
 75 84  2  0
 75 80  1  0
 76 72  1  0
 76 80  1  0
 77 76  1  0
 78 79  1  0
 78 77  1  0
 79 75  1  0
 80 81  2  0
 81 82  1  0
 83 82  2  0
 84 83  1  0
 85 59  1  0
 85 90  1  0
 85 86  1  0
 86 89  1  1
 86 87  1  0
 88 86  1  0
 90 93  1  0
 91 95  1  0
 91 90  1  0
 92 91  2  0
 95 94  1  0
 97 95  1  0
 97 98  1  0
 97 96  1  0
M  ISO  4  18 100  26 100  57 101  58 101
M  END
>  <TORSDO>  (94) 
F 20

>  <SCORE>  (94) 
-10.167

>  <name>  (94) 
93

>  <ligand_id>  (94) 
93

>  <original_smiles>  (94) 
[H]c1c([H])c([H])c2c(c1[H])C([H])([H])C([H])([H])C([H])([H])C2([H])N([H])C(=O)C1([H])N(C(=O)C([H])(N([H])C(=O)C([H])(N([H])C([H])([H])[H])C([H])([H])[H])C(C([H])([H])[H])(C([H])([H])[H])C([H])([H])[H])C([H])([H])c2c([H])c(OC([H])([H])C([H])([H])[N+]3([H])C([H])([H])C([H])([H])C([H])(c4c(C([H])([H])[H])c([H])c(C([H])([H])N([H])C(=O)N5C([H])([H])C([H])([H])C([H])([H])C([H])(n6nc(-c7c([H])c([H])c(Oc8c([H])c([H])c(F)c([H])c8F)c([H])c7[H])c(C(=O)N([H])[H])c6N([H])[H])C5([H])[H])c([H])c4C([H])([H])[H])C([H])([H])C3([H])C([H])([H])[H])c([H])c([H])c2C1([H])[H]

>  <smiles>  (94) 
[H]c1c([H])c([H])c2c(c1[H])C([H])([H])C([H])([H])C([H])([H])C2([H])N([H])C(=O)C1([H])N(C(=O)C([H])(N([H])C(=O)C([H])(N([H])C([H])([H])[H])C([H])([H])[H])C(C([H])([H])[H])(C([H])([H])[H])C([H])([H])[H])C([H])([H])c2c([H])c(OC([H])([H])C([H])([H])[N+]3([H])C([H])([H])C([H])([H])C([H])(c4c(C([H])([H])[H])c([H])c(C([H])([H])N([H])C(=O)N5C([H])([H])C([H])([H])C([H])([H])C([H])(n6nc(-c7c([H])c([H])c(Oc8c([H])c([H])c(F)c([H])c8F)c([H])c7[H])c(C(=O)N([H])[H])c6N([H])[H])C5([H])[H])c([H])c4C([H])([H])[H])C([H])([H])C3([H])C([H])([H])[H])c([H])c([H])c2C1([H])[H]

$$$$
94:0:0
     RDKit          3D

 96105  0  0  1  0  0  0  0  0999 V2000
  -28.6580  -23.5790   18.4820 C   0  0  0  0  0  3  0  0  0  0  0  0
  -29.3590  -24.6290   19.1090 C   0  0  0  0  0  0  0  0  0  0  0  0
  -29.1260  -22.2530   18.5330 C   0  0  0  0  0  0  0  0  0  0  0  0
  -30.5460  -24.3330   19.8350 C   0  0  0  0  0  0  0  0  0  0  0  0
  -31.0230  -22.9930   19.8990 C   0  0  0  0  0  0  0  0  0  0  0  0
  -30.3150  -21.9480   19.2370 C   0  0  0  0  0  0  0  0  0  0  0  0
  -28.3390  -21.1720   17.8080 C   0  0  0  0  0  1  0  0  0  0  0  0
  -31.3400  -25.4380   20.5310 C   0  0  0  0  0  1  0  0  0  0  0  0
  -32.3230  -22.7100   20.6570 C   0  0  0  0  0  1  0  0  0  0  0  0
  -31.8320  -20.3820   18.2040 C   0  0  0  0  0  1  0  0  0  0  0  0
  -30.7910  -20.6250   19.1990 N   0  0  0  0  0  0  0  0  0  0  0  0
  -30.7270  -19.8170   20.4200 C   0  0  0  0  0  2  0  0  0  0  0  0
  -30.7870  -14.4560   20.0740 C   0  0  0  0  0  0  0  0  0  0  0  0
  -30.3900  -12.3140   18.9450 C   0  0  0  0  0  2  0  0  0  0  0  0
  -29.3930  -12.5500   17.7930 C   0  0  0  0  0  2  0  0  0  0  0  0
  -27.9420  -12.4180   18.2980 C   0  0  0  0  0  2  0  0  0  0  0  0
  -27.6740  -13.2470   19.5840 C   0  0  0  0  0  3  0  0  0  0  0  0
  -28.7870  -13.0290   20.6340 C   0  0  0  0  0  2  0  0  0  0  0  0
  -30.0810  -13.2990   19.9890 N   0  0  0  0  0  0  0  0  0  0  0  0
  -31.9440  -14.5720   19.6570 O   0  0  0  0  0  0  0  0  0  0  0  0
  -29.7450  -17.7550   21.5990 C   0  0  0  0  0  2  0  0  0  0  0  0
  -30.0680  -17.7060   19.0830 C   0  0  0  0  0  2  0  0  0  0  0  0
  -30.5270  -16.4210   21.4940 C   0  0  0  0  0  2  0  0  0  0  0  0
  -29.4630  -16.3030   19.2550 C   0  0  0  0  0  2  0  0  0  0  0  0
  -29.7750  -18.6020   20.3010 C   0  0  0  0  0  3  0  0  0  0  0  0
  -30.0670  -15.5620   20.3840 N   0  0  0  0  0  0  0  0  0  0  0  0
  -25.3280  -13.8880   20.4210 C   0  0  0  0  0  0  0  0  0  0  0  0
  -24.2640  -13.1320   20.8290 C   0  0  0  0  0  0  0  0  0  0  0  0
  -24.6990  -11.7730   20.7590 C   0  0  0  0  0  0  0  0  0  0  0  0
  -26.3450  -12.9910   20.1300 N   0  0  0  0  0  0  0  0  0  0  0  0
  -25.9720  -11.7130   20.3900 N   0  0  0  0  0  0  0  0  0  0  0  0
  -23.9610  -10.5210   20.9660 C   0  0  0  0  0  0  0  0  0  0  0  0
  -24.4090   -9.5450   21.8820 C   0  0  0  0  0  3  0  0  0  0  0  0
  -23.6770   -8.3540   22.0760 C   0  0  0  0  0  3  0  0  0  0  0  0
  -22.4810   -8.1320   21.3530 C   0  0  0  0  0  0  0  0  0  0  0  0
  -22.0500   -9.0970   20.4270 C   0  0  0  0  0  3  0  0  0  0  0  0
  -22.7830  -10.2800   20.2300 C   0  0  0  0  0  3  0  0  0  0  0  0
  -21.7180   -6.9950   21.4570 O   0  0  0  0  0  0  0  0  0  0  0  0
  -21.6770   -6.2590   22.6150 C   0  0  0  0  0  0  0  0  0  0  0  0
  -21.2650   -6.8220   23.8420 C   0  0  0  0  0  3  0  0  0  0  0  0
  -21.1720   -6.0140   24.9920 C   0  0  0  0  0  3  0  0  0  0  0  0
  -21.4810   -4.6430   24.9170 C   0  0  0  0  0  0  0  0  0  0  0  0
  -21.8860   -4.0780   23.6950 C   0  0  0  0  0  3  0  0  0  0  0  0
  -21.9820   -4.8840   22.5470 C   0  0  0  0  0  0  0  0  0  0  0  0
  -22.3510   -4.3320   21.3670 F   0  0  0  0  0  0  0  0  0  0  0  0
  -21.3860   -3.8630   26.0200 F   0  0  0  0  0  0  0  0  0  0  0  0
  -22.8880  -13.6300   21.1710 C   0  0  0  0  0  0  0  0  0  0  0  0
  -22.1840  -12.9360   22.0590 N   0  0  0  0  0  0  0  0  0  0  0  0
  -22.4490  -14.6710   20.6850 O   0  0  0  0  0  0  0  0  0  0  0  0
  -22.5450  -12.0930   22.4790 H   0  0  0  0  0  0  0  0  0  0  0  0
  -21.2620  -13.2560   22.3230 H   0  0  0  0  0  0  0  0  0  0  0  0
  -25.5110  -15.2590   20.2520 N   0  0  0  0  0  0  0  0  0  0  0  0
  -24.7680  -15.9320   20.4100 H   0  0  0  0  0  0  0  0  0  0  0  0
  -26.3720  -15.6830   19.9330 H   0  0  0  0  0  0  0  0  0  0  0  0
  -28.8370  -26.0530   18.9070 C   0  0  0  0  0  2  0  0  0  0  0  0
  -28.3750  -26.6620   20.1130 O   0  0  0  0  0  0  0  0  0  0  0  0
  -24.5470  -31.7660   23.2150 C   0  0  0  0  0  0  0  0  0  0  0  0
  -27.1950  -27.3690   20.0850 C   0  0  0  0  0  0  0  0  0  0  0  0
  -23.3420  -30.3910   21.5460 C   0  0  0  0  0  3  0  0  0  0  0  0
  -24.7960  -28.8620   20.1130 C   0  0  0  0  0  0  0  0  0  0  0  0
  -25.8670  -30.7440   21.3660 C   0  0  0  0  0  2  0  0  0  0  0  0
  -25.9490  -29.3800   20.7140 C   0  0  0  0  0  0  0  0  0  0  0  0
  -27.1470  -28.6340   20.7090 C   0  0  0  0  0  3  0  0  0  0  0  0
  -26.0190  -26.8500   19.4960 C   0  0  0  0  0  3  0  0  0  0  0  0
  -24.8220  -27.5930   19.5080 C   0  0  0  0  0  3  0  0  0  0  0  0
  -23.5550  -29.7240   20.1600 C   0  0  0  0  0  2  0  0  0  0  0  0
  -24.6030  -30.9810   22.1020 N   0  0  0  0  0  0  0  0  0  0  0  0
  -23.4630  -32.0390   23.7530 O   0  0  0  0  0  0  0  0  0  0  0  0
  -22.6780  -29.3650   22.4900 C   0  0  0  0  0  0  0  0  0  0  0  0
  -21.3570  -29.1760   22.3350 N   0  0  0  0  0  0  0  0  0  0  0  0
  -23.3490  -28.7390   23.3160 O   0  0  0  0  0  0  0  0  0  0  0  0
  -20.8780  -29.7320   21.6400 H   0  0  0  0  0  0  0  0  0  0  0  0
  -17.9860  -27.9390   22.7310 C   0  0  0  0  0  0  0  0  0  0  0  0
  -20.5300  -28.2310   23.0840 C   0  0  0  0  0  3  0  0  0  0  0  0
  -20.6700  -26.7980   22.5190 C   0  0  0  0  0  2  0  0  0  0  0  0
  -19.6050  -26.4570   21.4720 C   0  0  0  0  0  2  0  0  0  0  0  0
  -18.2010  -26.5900   22.0690 C   0  0  0  0  0  2  0  0  0  0  0  0
  -19.0810  -28.7170   23.1930 C   0  0  0  0  0  0  0  0  0  0  0  0
  -18.8270  -29.9820   23.7690 C   0  0  0  0  0  3  0  0  0  0  0  0
  -17.5120  -30.4680   23.8890 C   0  0  0  0  0  3  0  0  0  0  0  0
  -16.4320  -29.6870   23.4440 C   0  0  0  0  0  3  0  0  0  0  0  0
  -16.6690  -28.4240   22.8720 C   0  0  0  0  0  3  0  0  0  0  0  0
  -25.8350  -32.3790   23.8520 C   0  0  0  0  0  3  0  0  0  0  0  0
  -26.3320  -31.5940   25.1270 C   0  0  1  0  0  0  0  0  0  0  0  0
  -25.2270  -31.3630   26.1830 C   0  0  0  0  0  1  0  0  0  0  0  0
  -26.9030  -30.2140   24.7290 C   0  0  0  0  0  1  0  0  0  0  0  0
  -27.4870  -32.3710   25.8040 C   0  0  0  0  0  1  0  0  0  0  0  0
  -25.5400  -33.7790   24.1840 N   0  0  0  0  0  0  0  0  0  0  0  0
  -25.8850  -34.8280   23.4260 C   0  0  0  0  0  0  0  0  0  0  0  0
  -26.5570  -34.7200   22.3960 O   0  0  0  0  0  0  0  0  0  0  0  0
  -24.9500  -33.9390   24.9870 H   0  0  0  0  0  0  0  0  0  0  0  0
  -24.1720  -36.6330   23.0680 C   0  0  0  0  0  1  0  0  0  0  0  0
  -25.4090  -36.2200   23.8820 C   0  0  0  0  0  3  0  0  0  0  0  0
  -27.5490  -37.0850   24.7170 C   0  0  0  0  0  1  0  0  0  0  0  0
  -26.4500  -37.2650   23.7730 N   0  0  0  0  0  0  0  0  0  0  0  0
  -26.0510  -38.1870   23.9240 H   0  0  0  0  0  0  0  0  0  0  0  0
  1  3  2  0
  1  2  1  0
  2  4  2  0
  3  6  1  0
  4  5  1  0
  4  8  1  0
  5  9  1  0
  6  5  2  0
  7  3  1  0
 10 11  1  0
 11  6  1  0
 11 12  1  0
 13 26  1  0
 14 19  1  0
 15 16  1  0
 15 14  1  0
 17 16  1  0
 17 30  1  0
 17 18  1  0
 19 13  1  0
 19 18  1  0
 20 13  2  0
 22 24  1  0
 22 25  1  0
 23 21  1  0
 24 26  1  0
 25 12  1  0
 25 21  1  0
 26 23  1  0
 27 28  2  0
 28 47  1  0
 29 28  1  0
 29 32  1  0
 30 31  1  0
 30 27  1  0
 31 29  2  0
 32 33  1  0
 33 34  2  0
 35 38  1  0
 35 34  1  0
 36 35  2  0
 37 36  1  0
 37 32  2  0
 38 39  1  0
 39 40  1  0
 40 41  2  0
 42 41  1  0
 42 46  1  0
 43 42  2  0
 44 39  2  0
 44 43  1  0
 45 44  1  0
 47 48  1  0
 48 51  1  0
 48 50  1  0
 49 47  2  0
 52 53  1  0
 52 27  1  0
 54 52  1  0
 55  2  1  0
 55 56  1  0
 57 68  2  0
 58 56  1  0
 58 63  1  0
 59 67  1  0
 59 69  1  0
 60 66  1  0
 60 62  1  0
 61 67  1  0
 62 61  1  0
 63 62  2  0
 64 65  1  0
 64 58  2  0
 65 60  2  0
 66 59  1  0
 67 57  1  0
 69 71  2  0
 70 69  1  0
 72 70  1  0
 73 82  2  0
 73 78  1  0
 74 70  1  0
 74 78  1  0
 75 74  1  0
 76 77  1  0
 76 75  1  0
 77 73  1  0
 78 79  2  0
 79 80  1  0
 81 80  2  0
 82 81  1  0
 83 57  1  0
 83 88  1  0
 83 84  1  0
 84 87  1  1
 84 85  1  0
 86 84  1  0
 88 91  1  0
 89 93  1  0
 89 88  1  0
 90 89  2  0
 93 92  1  0
 95 93  1  0
 95 96  1  0
 95 94  1  0
M  ISO  4  13 100  26 100  55 101  56 101
M  END
>  <TORSDO>  (95) 
F 19

>  <SCORE>  (95) 
-14.085

>  <name>  (95) 
94

>  <ligand_id>  (95) 
94

>  <original_smiles>  (95) 
[H]c1c([H])c([H])c2c(c1[H])C([H])([H])C([H])([H])C([H])([H])C2([H])N([H])C(=O)C1([H])N(C(=O)C([H])(N([H])C(=O)C([H])(N([H])C([H])([H])[H])C([H])([H])[H])C(C([H])([H])[H])(C([H])([H])[H])C([H])([H])[H])C([H])([H])c2c([H])c(OC([H])([H])c3c([H])c(C([H])([H])[H])c(N(C([H])([H])[H])C([H])([H])C4([H])C([H])([H])C([H])([H])N(C(=O)N5C([H])([H])C([H])([H])C([H])([H])C([H])(n6nc(-c7c([H])c([H])c(Oc8c([H])c([H])c(F)c([H])c8F)c([H])c7[H])c(C(=O)N([H])[H])c6N([H])[H])C5([H])[H])C([H])([H])C4([H])[H])c(C([H])([H])[H])c3C([H])([H])[H])c([H])c([H])c2C1([H])[H]

>  <smiles>  (95) 
[H]c1c([H])c([H])c2c(c1[H])C([H])([H])C([H])([H])C([H])([H])C2([H])N([H])C(=O)C1([H])N(C(=O)C([H])(N([H])C(=O)C([H])(N([H])C([H])([H])[H])C([H])([H])[H])C(C([H])([H])[H])(C([H])([H])[H])C([H])([H])[H])C([H])([H])c2c([H])c(OC([H])([H])c3c([H])c(C([H])([H])[H])c(N(C([H])([H])[H])C([H])([H])C4([H])C([H])([H])C([H])([H])N(C(=O)N5C([H])([H])C([H])([H])C([H])([H])C([H])(n6nc(-c7c([H])c([H])c(Oc8c([H])c([H])c(F)c([H])c8F)c([H])c7[H])c(C(=O)N([H])[H])c6N([H])[H])C5([H])[H])C([H])([H])C4([H])[H])c(C([H])([H])[H])c3C([H])([H])[H])c([H])c([H])c2C1([H])[H]

$$$$
95:0:0
     RDKit          3D

 97108  0  0  1  0  0  0  0  0999 V2000
  -30.6160  -14.7840   20.4280 C   0  0  0  0  0  0  0  0  0  0  0  0
  -30.3850  -12.5090   19.4300 C   0  0  0  0  0  2  0  0  0  0  0  0
  -29.4730  -12.5850   18.1880 C   0  0  0  0  0  2  0  0  0  0  0  0
  -27.9980  -12.4150   18.5950 C   0  0  0  0  0  2  0  0  0  0  0  0
  -27.6070  -13.3060   19.8040 C   0  0  0  0  0  3  0  0  0  0  0  0
  -28.6480  -13.2380   20.9430 C   0  0  0  0  0  2  0  0  0  0  0  0
  -29.9520  -13.5780   20.3630 N   0  0  0  0  0  0  0  0  0  0  0  0
  -31.8220  -14.7880   20.1570 O   0  0  0  0  0  0  0  0  0  0  0  0
  -29.4430  -18.5560   20.4880 C   0  0  0  0  0  3  0  0  0  0  0  0
  -29.8480  -19.9060   20.0950 C   0  0  0  0  0  0  0  0  0  0  0  0
  -31.1300  -19.9800   19.4840 C   0  0  0  0  0  0  0  0  0  0  0  0
  -30.2920  -17.3800   20.3110 C   0  0  0  0  0  0  0  0  0  0  0  0
  -31.9320  -18.8230   19.4180 C   0  0  0  0  0  0  0  0  0  0  0  0
  -31.5230  -17.6050   19.8140 N   0  0  0  0  0  0  0  0  0  0  0  0
  -29.8960  -15.9710   20.6030 N   0  0  0  0  0  0  0  0  0  0  0  0
  -28.9300  -15.8420   20.8610 H   0  0  0  0  0  0  0  0  0  0  0  0
  -27.1460  -22.7960   21.5230 C   0  0  0  0  0  2  0  0  0  0  0  0
  -27.0520  -24.1760   20.7770 C   0  0  0  0  0  2  0  0  0  0  0  0
  -29.3790  -24.0610   20.0590 C   0  0  0  0  0  2  0  0  0  0  0  0
  -28.9990  -21.2590   20.1590 C   0  0  0  0  0  3  0  0  0  0  0  0
  -28.4450  -21.9670   21.4030 C   0  0  0  0  0  3  0  0  0  0  0  0
  -29.5880  -22.6290   20.6850 C   0  0  0  0  0  3  0  0  0  0  0  0
  -28.3580  -25.0180   20.7940 C   0  0  0  0  0  3  0  0  0  0  0  0
  -28.3840  -26.4560   20.3290 O   0  0  0  0  0  0  0  0  0  0  0  0
  -24.6290  -31.9430   23.2940 C   0  0  0  0  0  0  0  0  0  0  0  0
  -27.2640  -27.3120   20.3370 C   0  0  0  0  0  0  0  0  0  0  0  0
  -23.4500  -30.5350   21.6450 C   0  0  0  0  0  3  0  0  0  0  0  0
  -24.9170  -28.9630   20.2580 C   0  0  0  0  0  0  0  0  0  0  0  0
  -25.9940  -30.8330   21.5060 C   0  0  0  0  0  2  0  0  0  0  0  0
  -26.0790  -29.4430   20.8770 C   0  0  0  0  0  0  0  0  0  0  0  0
  -27.2560  -28.6300   20.9040 C   0  0  0  0  0  3  0  0  0  0  0  0
  -26.0900  -26.9080   19.6690 C   0  0  0  0  0  3  0  0  0  0  0  0
  -24.9270  -27.7030   19.6420 C   0  0  0  0  0  3  0  0  0  0  0  0
  -23.6860  -29.8480   20.2740 C   0  0  0  0  0  2  0  0  0  0  0  0
  -24.7090  -31.1230   22.2050 N   0  0  0  0  0  0  0  0  0  0  0  0
  -23.5370  -32.2290   23.8080 O   0  0  0  0  0  0  0  0  0  0  0  0
  -22.7650  -29.5300   22.6020 C   0  0  0  0  0  0  0  0  0  0  0  0
  -21.4380  -29.3680   22.4630 N   0  0  0  0  0  0  0  0  0  0  0  0
  -23.4280  -28.9000   23.4290 O   0  0  0  0  0  0  0  0  0  0  0  0
  -20.9620  -29.9280   21.7700 H   0  0  0  0  0  0  0  0  0  0  0  0
  -18.0410  -28.2210   22.9490 C   0  0  0  0  0  0  0  0  0  0  0  0
  -20.6020  -28.4410   23.2280 C   0  0  0  0  0  3  0  0  0  0  0  0
  -20.6840  -27.0100   22.6480 C   0  0  0  0  0  2  0  0  0  0  0  0
  -19.5800  -26.7070   21.6290 C   0  0  0  0  0  2  0  0  0  0  0  0
  -18.1980  -26.8720   22.2700 C   0  0  0  0  0  2  0  0  0  0  0  0
  -19.1690  -28.9640   23.3850 C   0  0  0  0  0  0  0  0  0  0  0  0
  -18.9670  -30.2280   23.9820 C   0  0  0  0  0  3  0  0  0  0  0  0
  -17.6710  -30.7490   24.1450 C   0  0  0  0  0  3  0  0  0  0  0  0
  -16.5560  -30.0030   23.7240 C   0  0  0  0  0  3  0  0  0  0  0  0
  -16.7420  -28.7400   23.1340 C   0  0  0  0  0  3  0  0  0  0  0  0
  -25.9030  -32.5770   23.9340 C   0  0  0  0  0  3  0  0  0  0  0  0
  -25.5920  -33.9800   24.2440 N   0  0  0  0  0  0  0  0  0  0  0  0
  -25.9270  -35.0230   23.4730 C   0  0  0  0  0  0  0  0  0  0  0  0
  -26.5980  -34.9070   22.4440 O   0  0  0  0  0  0  0  0  0  0  0  0
  -24.9930  -34.1450   25.0390 H   0  0  0  0  0  0  0  0  0  0  0  0
  -24.1900  -36.8080   23.1080 C   0  0  0  0  0  1  0  0  0  0  0  0
  -25.4410  -36.4180   23.9120 C   0  0  0  0  0  3  0  0  0  0  0  0
  -27.5810  -37.3230   24.7060 C   0  0  0  0  0  1  0  0  0  0  0  0
  -26.4690  -37.4720   23.7710 N   0  0  0  0  0  0  0  0  0  0  0  0
  -26.0630  -38.3940   23.9070 H   0  0  0  0  0  0  0  0  0  0  0  0
  -26.3900  -31.8180   25.2290 C   0  0  1  0  0  0  0  0  0  0  0  0
  -25.2750  -31.5980   26.2780 C   0  0  0  0  0  1  0  0  0  0  0  0
  -26.9740  -30.4330   24.8670 C   0  0  0  0  0  1  0  0  0  0  0  0
  -27.5320  -32.6150   25.9040 C   0  0  0  0  0  1  0  0  0  0  0  0
  -25.2060  -13.8880   20.4860 C   0  0  0  0  0  0  0  0  0  0  0  0
  -24.1390  -13.1100   20.8470 C   0  0  0  0  0  0  0  0  0  0  0  0
  -24.6120  -11.7630   20.8420 C   0  0  0  0  0  0  0  0  0  0  0  0
  -26.2590  -13.0120   20.2790 N   0  0  0  0  0  0  0  0  0  0  0  0
  -25.9090  -11.7300   20.5570 N   0  0  0  0  0  0  0  0  0  0  0  0
  -23.8900  -10.4980   21.0320 C   0  0  0  0  0  0  0  0  0  0  0  0
  -24.3150   -9.5380   21.9760 C   0  0  0  0  0  3  0  0  0  0  0  0
  -23.5930   -8.3390   22.1550 C   0  0  0  0  0  3  0  0  0  0  0  0
  -22.4290   -8.0900   21.3880 C   0  0  0  0  0  0  0  0  0  0  0  0
  -22.0240   -9.0380   20.4320 C   0  0  0  0  0  3  0  0  0  0  0  0
  -22.7470  -10.2290   20.2520 C   0  0  0  0  0  3  0  0  0  0  0  0
  -21.6790   -6.9430   21.4760 O   0  0  0  0  0  0  0  0  0  0  0  0
  -21.6220   -6.2070   22.6320 C   0  0  0  0  0  0  0  0  0  0  0  0
  -21.1800   -6.7660   23.8520 C   0  0  0  0  0  3  0  0  0  0  0  0
  -21.0710   -5.9570   24.9990 C   0  0  0  0  0  3  0  0  0  0  0  0
  -21.3930   -4.5880   24.9290 C   0  0  0  0  0  0  0  0  0  0  0  0
  -21.8260   -4.0270   23.7140 C   0  0  0  0  0  3  0  0  0  0  0  0
  -21.9370   -4.8350   22.5680 C   0  0  0  0  0  0  0  0  0  0  0  0
  -22.3360   -4.2850   21.3960 F   0  0  0  0  0  0  0  0  0  0  0  0
  -21.2800   -3.8070   26.0290 F   0  0  0  0  0  0  0  0  0  0  0  0
  -22.7340  -13.5820   21.0840 C   0  0  0  0  0  0  0  0  0  0  0  0
  -21.9950  -12.8950   21.9480 N   0  0  0  0  0  0  0  0  0  0  0  0
  -22.2990  -14.5940   20.5360 O   0  0  0  0  0  0  0  0  0  0  0  0
  -22.3610  -12.0770   22.4130 H   0  0  0  0  0  0  0  0  0  0  0  0
  -21.0510  -13.1930   22.1490 H   0  0  0  0  0  0  0  0  0  0  0  0
  -25.3630  -15.2560   20.2930 N   0  0  0  0  0  0  0  0  0  0  0  0
  -24.5830  -15.9020   20.3730 H   0  0  0  0  0  0  0  0  0  0  0  0
  -26.2020  -15.6960   19.9350 H   0  0  0  0  0  0  0  0  0  0  0  0
  -30.9880  -21.9480   17.7170 C   0  0  0  0  0  2  0  0  0  0  0  0
  -32.3170  -21.2780   17.5100 C   0  0  0  0  0  2  0  0  0  0  0  0
  -31.6720  -21.2580   18.8830 C   0  0  0  0  0  3  0  0  0  0  0  0
  -33.9700  -17.7310   18.7250 C   0  0  0  0  0  1  0  0  0  0  0  0
  -33.2100  -18.9220   18.9020 O   0  0  0  0  0  0  0  0  0  0  0  0
  1 15  1  0
  2  7  1  0
  3  4  1  0
  3  2  1  0
  5  4  1  0
  5 68  1  0
  5  6  1  0
  7  1  1  0
  7  6  1  0
  8  1  2  0
 10  9  1  0
 11 10  2  0
 12  9  2  0
 12 15  1  0
 13 11  1  0
 13 14  2  0
 14 12  1  0
 15 16  1  0
 18 23  1  0
 18 17  1  0
 19 23  1  0
 20 10  1  0
 20 22  1  0
 20 21  1  0
 21 17  1  0
 22 19  1  0
 22 21  1  0
 23 24  1  0
 24 26  1  0
 25 36  2  0
 26 31  1  0
 27 35  1  0
 27 37  1  0
 28 34  1  0
 28 30  1  0
 29 35  1  0
 30 31  2  0
 30 29  1  0
 32 26  2  0
 33 32  1  0
 33 28  2  0
 34 27  1  0
 35 25  1  0
 37 39  2  0
 38 37  1  0
 40 38  1  0
 41 50  2  0
 41 46  1  0
 42 38  1  0
 42 46  1  0
 43 42  1  0
 44 45  1  0
 44 43  1  0
 45 41  1  0
 46 47  2  0
 47 48  1  0
 49 48  2  0
 50 49  1  0
 51 25  1  0
 51 52  1  0
 51 61  1  0
 52 55  1  0
 53 57  1  0
 53 52  1  0
 54 53  2  0
 57 56  1  0
 59 60  1  0
 59 57  1  0
 59 58  1  0
 61 64  1  1
 61 62  1  0
 63 61  1  0
 65 66  2  0
 66 85  1  0
 67 66  1  0
 67 70  1  0
 68 65  1  0
 68 69  1  0
 69 67  2  0
 70 71  1  0
 71 72  2  0
 73 76  1  0
 73 72  1  0
 74 73  2  0
 75 74  1  0
 75 70  2  0
 76 77  1  0
 77 78  1  0
 78 79  2  0
 80 79  1  0
 80 84  1  0
 81 80  2  0
 82 77  2  0
 82 81  1  0
 83 82  1  0
 85 86  1  0
 86 89  1  0
 86 88  1  0
 87 85  2  0
 90 91  1  0
 90 65  1  0
 92 90  1  0
 93 95  1  0
 94 93  1  0
 94 95  1  0
 95 11  1  0
 96 97  1  0
 97 13  1  0
M  ISO  4   1 100  15 100  23 101  24 101
M  END
>  <TORSDO>  (96) 
F 18

>  <SCORE>  (96) 
-14.990

>  <name>  (96) 
95

>  <ligand_id>  (96) 
95

>  <original_smiles>  (96) 
[H]c1c([H])c([H])c2c(c1[H])C([H])([H])C([H])([H])C([H])([H])C2([H])N([H])C(=O)C1([H])N(C(=O)C([H])(N([H])C(=O)C([H])(N([H])C([H])([H])[H])C([H])([H])[H])C(C([H])([H])[H])(C([H])([H])[H])C([H])([H])[H])C([H])([H])c2c([H])c(OC3([H])C([H])([H])C([H])([H])C4([H])C([H])(c5c([H])c(N([H])C(=O)N6C([H])([H])C([H])([H])C([H])([H])C([H])(n7nc(-c8c([H])c([H])c(Oc9c([H])c([H])c(F)c([H])c9F)c([H])c8[H])c(C(=O)N([H])[H])c7N([H])[H])C6([H])[H])nc(OC([H])([H])[H])c5C5([H])C([H])([H])C5([H])[H])C4([H])C3([H])[H])c([H])c([H])c2C1([H])[H]

>  <smiles>  (96) 
[H]c1c([H])c([H])c2c(c1[H])C([H])([H])C([H])([H])C([H])([H])C2([H])N([H])C(=O)C1([H])N(C(=O)C([H])(N([H])C(=O)C([H])(N([H])C([H])([H])[H])C([H])([H])[H])C(C([H])([H])[H])(C([H])([H])[H])C([H])([H])[H])C([H])([H])c2c([H])c(OC3([H])C([H])([H])C([H])([H])C4([H])C([H])(c5c([H])c(N([H])C(=O)N6C([H])([H])C([H])([H])C([H])([H])C([H])(n7nc(-c8c([H])c([H])c(Oc9c([H])c([H])c(F)c([H])c9F)c([H])c8[H])c(C(=O)N([H])[H])c7N([H])[H])C6([H])[H])nc(OC([H])([H])[H])c5C5([H])C([H])([H])C5([H])[H])C4([H])C3([H])[H])c([H])c([H])c2C1([H])[H]

$$$$
96:0:0
     RDKit          3D

 97106  0  0  1  0  0  0  0  0999 V2000
  -28.1110  -20.6250   18.4760 C   0  0  0  0  0  2  0  0  0  0  0  0
  -28.1470  -22.1310   18.1330 C   0  0  0  0  0  2  0  0  0  0  0  0
  -28.1630  -22.4180   20.5940 C   0  0  0  0  0  2  0  0  0  0  0  0
  -28.7900  -21.0040   20.8510 C   0  0  0  0  0  3  0  0  0  0  0  0
  -29.1910  -20.2710   19.5270 C   0  0  0  0  0  3  0  0  0  0  0  0
  -27.8100  -20.2030   21.7430 C   0  0  0  0  0  1  0  0  0  0  0  0
  -28.5210  -23.0150   19.2770 N   0  0  2  0  0  4  0  0  0  0  0  0
  -29.5270  -23.1070   19.2560 H   0  0  0  0  0  0  0  0  0  0  0  0
  -31.6000  -15.0750   19.8650 C   0  0  0  0  0  0  0  0  0  0  0  0
  -31.3560  -12.7990   18.9790 C   0  0  0  0  0  2  0  0  0  0  0  0
  -30.3840  -12.8510   17.7830 C   0  0  0  0  0  2  0  0  0  0  0  0
  -28.9230  -12.7180   18.2590 C   0  0  0  0  0  2  0  0  0  0  0  0
  -28.5810  -13.6650   19.4410 C   0  0  0  0  0  3  0  0  0  0  0  0
  -29.6700  -13.5920   20.5370 C   0  0  0  0  0  2  0  0  0  0  0  0
  -30.9640  -13.8750   19.9000 N   0  0  0  0  0  0  0  0  0  0  0  0
  -32.7620  -15.1930   19.4630 O   0  0  0  0  0  0  0  0  0  0  0  0
  -30.8790  -16.9380   18.5290 C   0  0  0  0  0  2  0  0  0  0  0  0
  -30.2350  -16.8180   20.9560 C   0  0  0  0  0  2  0  0  0  0  0  0
  -29.9530  -18.1660   18.3980 C   0  0  0  0  0  2  0  0  0  0  0  0
  -30.2690  -18.3660   20.8640 C   0  0  0  0  0  3  0  0  0  0  0  0
  -30.7660  -16.1400   19.7630 N   0  0  0  0  0  0  0  0  0  0  0  0
  -29.4790  -18.7970   19.6650 N   0  0  1  0  0  4  0  0  0  0  0  0
  -28.5750  -18.3750   19.8180 H   0  0  0  0  0  0  0  0  0  0  0  0
  -26.2320  -14.2840   20.2880 C   0  0  0  0  0  0  0  0  0  0  0  0
  -25.1720  -13.5140   20.6860 C   0  0  0  0  0  0  0  0  0  0  0  0
  -25.6100  -12.1590   20.5840 C   0  0  0  0  0  0  0  0  0  0  0  0
  -27.2500  -13.3950   19.9770 N   0  0  0  0  0  0  0  0  0  0  0  0
  -26.8820  -12.1100   20.2110 N   0  0  0  0  0  0  0  0  0  0  0  0
  -24.8750  -10.9000   20.7650 C   0  0  0  0  0  0  0  0  0  0  0  0
  -25.2210   -9.9820   21.7800 C   0  0  0  0  0  3  0  0  0  0  0  0
  -24.4880   -8.7870   21.9440 C   0  0  0  0  0  3  0  0  0  0  0  0
  -23.3940   -8.5030   21.0930 C   0  0  0  0  0  0  0  0  0  0  0  0
  -23.0680   -9.4090   20.0690 C   0  0  0  0  0  3  0  0  0  0  0  0
  -23.8030  -10.5950   19.9030 C   0  0  0  0  0  3  0  0  0  0  0  0
  -22.6410   -7.3550   21.1640 O   0  0  0  0  0  0  0  0  0  0  0  0
  -22.3160   -6.7810   22.3660 C   0  0  0  0  0  0  0  0  0  0  0  0
  -21.5750   -7.4770   23.3480 C   0  0  0  0  0  3  0  0  0  0  0  0
  -21.2020   -6.8260   24.5400 C   0  0  0  0  0  3  0  0  0  0  0  0
  -21.5580   -5.4800   24.7510 C   0  0  0  0  0  0  0  0  0  0  0  0
  -22.2910   -4.7850   23.7730 C   0  0  0  0  0  3  0  0  0  0  0  0
  -22.6650   -5.4340   22.5820 C   0  0  0  0  0  0  0  0  0  0  0  0
  -23.3530   -4.7520   21.6340 F   0  0  0  0  0  0  0  0  0  0  0  0
  -21.1930   -4.8520   25.8920 F   0  0  0  0  0  0  0  0  0  0  0  0
  -23.7980  -14.0010   21.0420 C   0  0  0  0  0  0  0  0  0  0  0  0
  -23.1120  -13.2980   21.9370 N   0  0  0  0  0  0  0  0  0  0  0  0
  -23.3420  -15.0380   20.5620 O   0  0  0  0  0  0  0  0  0  0  0  0
  -23.4960  -12.4600   22.3460 H   0  0  0  0  0  0  0  0  0  0  0  0
  -22.1910  -13.6030   22.2160 H   0  0  0  0  0  0  0  0  0  0  0  0
  -26.4090  -15.6560   20.1390 N   0  0  0  0  0  0  0  0  0  0  0  0
  -25.6180  -16.2850   20.2290 H   0  0  0  0  0  0  0  0  0  0  0  0
  -27.1610  -16.0390   19.5850 H   0  0  0  0  0  0  0  0  0  0  0  0
  -32.4580  -18.6700   22.2270 C   0  0  0  0  0  1  0  0  0  0  0  0
  -31.7000  -18.9730   20.9250 C   0  0  0  0  0  2  0  0  0  0  0  0
  -27.9860  -24.3890   19.0600 C   0  0  0  0  0  2  0  0  0  0  0  0
  -28.3200  -25.4270   20.1600 C   0  0  0  0  0  2  0  0  0  0  0  0
  -29.0560  -26.6870   19.6460 C   0  0  0  0  0  2  0  0  0  0  0  0
  -28.3920  -27.3330   18.5610 O   0  0  0  0  0  0  0  0  0  0  0  0
  -24.6300  -31.5980   22.8740 C   0  0  0  0  0  0  0  0  0  0  0  0
  -27.2070  -27.9520   18.8620 C   0  0  0  0  0  0  0  0  0  0  0  0
  -23.3480  -30.3970   21.1310 C   0  0  0  0  0  3  0  0  0  0  0  0
  -24.7400  -29.2250   19.3460 C   0  0  0  0  0  0  0  0  0  0  0  0
  -25.8120  -30.9750   20.7730 C   0  0  0  0  0  2  0  0  0  0  0  0
  -25.9150  -29.7320   19.9160 C   0  0  0  0  0  0  0  0  0  0  0  0
  -27.1540  -29.0970   19.6840 C   0  0  0  0  0  3  0  0  0  0  0  0
  -26.0220  -27.4590   18.2790 C   0  0  0  0  0  3  0  0  0  0  0  0
  -24.7850  -28.0820   18.5300 C   0  0  0  0  0  3  0  0  0  0  0  0
  -23.4570  -29.9670   19.6430 C   0  0  0  0  0  2  0  0  0  0  0  0
  -24.6190  -30.9960   21.6510 N   0  0  0  0  0  0  0  0  0  0  0  0
  -23.5950  -31.6960   23.5470 O   0  0  0  0  0  0  0  0  0  0  0  0
  -22.8600  -29.1860   21.9580 C   0  0  0  0  0  0  0  0  0  0  0  0
  -21.5510  -28.8970   21.8770 N   0  0  0  0  0  0  0  0  0  0  0  0
  -23.6520  -28.5160   22.6260 O   0  0  0  0  0  0  0  0  0  0  0  0
  -20.9680  -29.4980   21.3110 H   0  0  0  0  0  0  0  0  0  0  0  0
  -18.3540  -27.2680   22.2910 C   0  0  0  0  0  0  0  0  0  0  0  0
  -20.8750  -27.7820   22.5390 C   0  0  0  0  0  3  0  0  0  0  0  0
  -21.1160  -26.4560   21.7790 C   0  0  0  0  0  2  0  0  0  0  0  0
  -20.0210  -26.1400   20.7570 C   0  0  0  0  0  2  0  0  0  0  0  0
  -18.6550  -26.0430   21.4430 C   0  0  0  0  0  2  0  0  0  0  0  0
  -19.3960  -28.0930   22.7910 C   0  0  0  0  0  0  0  0  0  0  0  0
  -19.0600  -29.2390   23.5440 C   0  0  0  0  0  3  0  0  0  0  0  0
  -17.7150  -29.5630   23.8010 C   0  0  0  0  0  3  0  0  0  0  0  0
  -16.6880  -28.7350   23.3170 C   0  0  0  0  0  3  0  0  0  0  0  0
  -17.0080  -27.5890   22.5670 C   0  0  0  0  0  3  0  0  0  0  0  0
  -25.9350  -32.2110   23.4720 C   0  0  0  0  0  3  0  0  0  0  0  0
  -26.6010  -31.3010   24.5750 C   0  0  1  0  0  0  0  0  0  0  0  0
  -25.6240  -30.8620   25.6910 C   0  0  0  0  0  1  0  0  0  0  0  0
  -27.2000  -30.0240   23.9420 C   0  0  0  0  0  1  0  0  0  0  0  0
  -27.7760  -32.0580   25.2390 C   0  0  0  0  0  1  0  0  0  0  0  0
  -25.5900  -33.5290   24.0210 N   0  0  0  0  0  0  0  0  0  0  0  0
  -25.8260  -34.6940   23.4030 C   0  0  0  0  0  0  0  0  0  0  0  0
  -26.4310  -34.7740   22.3310 O   0  0  0  0  0  0  0  0  0  0  0  0
  -25.0420  -33.5370   24.8690 H   0  0  0  0  0  0  0  0  0  0  0  0
  -23.9970  -36.4200   23.4220 C   0  0  0  0  0  1  0  0  0  0  0  0
  -25.3110  -35.9750   24.0850 C   0  0  0  0  0  3  0  0  0  0  0  0
  -27.4530  -36.8560   24.9010 C   0  0  0  0  0  1  0  0  0  0  0  0
  -26.2840  -37.0890   24.0560 N   0  0  0  0  0  0  0  0  0  0  0  0
  -25.8470  -37.9570   24.3530 H   0  0  0  0  0  0  0  0  0  0  0  0
  2  1  1  0
  2  7  1  0
  3  4  1  0
  4  6  1  0
  5  1  1  0
  5 22  1  0
  5  4  1  0
  7  3  1  0
  7  8  1  1
  9 15  1  0
 10 15  1  0
 11 12  1  0
 11 10  1  0
 13 12  1  0
 13 27  1  0
 13 14  1  0
 15 14  1  0
 16  9  2  0
 17 21  1  0
 19 17  1  0
 19 22  1  0
 20 53  1  0
 20 18  1  0
 21  9  1  0
 21 18  1  0
 22 23  1  1
 22 20  1  0
 24 25  2  0
 25 44  1  0
 26 25  1  0
 26 29  1  0
 27 28  1  0
 27 24  1  0
 28 26  2  0
 29 30  1  0
 30 31  2  0
 32 35  1  0
 32 31  1  0
 33 32  2  0
 34 33  1  0
 34 29  2  0
 35 36  1  0
 36 41  2  0
 36 37  1  0
 37 38  2  0
 38 39  1  0
 39 43  1  0
 40 39  2  0
 41 40  1  0
 42 41  1  0
 44 45  1  0
 45 48  1  0
 45 47  1  0
 46 44  2  0
 49 50  1  0
 49 24  1  0
 51 49  1  0
 53 52  1  0
 54  7  1  0
 54 55  1  0
 56 55  1  0
 57 59  1  0
 57 56  1  0
 58 69  2  0
 59 64  1  0
 60 68  1  0
 60 70  1  0
 61 67  1  0
 61 63  1  0
 62 68  1  0
 63 62  1  0
 64 63  2  0
 65 66  1  0
 65 59  2  0
 66 61  2  0
 67 60  1  0
 68 58  1  0
 70 72  2  0
 71 70  1  0
 73 71  1  0
 74 83  2  0
 74 79  1  0
 75 71  1  0
 75 79  1  0
 76 75  1  0
 77 78  1  0
 77 76  1  0
 78 74  1  0
 79 80  2  0
 80 81  1  0
 82 81  2  0
 83 82  1  0
 84 58  1  0
 84 89  1  0
 84 85  1  0
 85 88  1  1
 85 86  1  0
 87 85  1  0
 89 92  1  0
 90 89  1  0
 90 94  1  0
 91 90  2  0
 94 93  1  0
 96 94  1  0
 96 97  1  0
 96 95  1  0
M  ISO  4   9 100  21 100  56 101  57 101
M  END
>  <TORSDO>  (97) 
F 20

>  <SCORE>  (97) 
-8.198

>  <name>  (97) 
96

>  <ligand_id>  (97) 
96

>  <original_smiles>  (97) 
[H]c1c([H])c([H])c2c(c1[H])C([H])([H])C([H])([H])C([H])([H])C2([H])N([H])C(=O)C1([H])N(C(=O)C([H])(N([H])C(=O)C([H])(N([H])C([H])([H])[H])C([H])([H])[H])C(C([H])([H])[H])(C([H])([H])[H])C([H])([H])[H])C([H])([H])c2c([H])c(OC([H])([H])C([H])([H])C([H])([H])[N+]3([H])C([H])([H])C([H])([H])C([H])([N+]4([H])C([H])([H])C([H])([H])N(C(=O)N5C([H])([H])C([H])([H])C([H])([H])C([H])(n6nc(-c7c([H])c([H])c(Oc8c([H])c([H])c(F)c([H])c8F)c([H])c7[H])c(C(=O)N([H])[H])c6N([H])[H])C5([H])[H])C([H])([H])C4([H])C([H])([H])C([H])([H])[H])C([H])(C([H])([H])[H])C3([H])[H])c([H])c([H])c2C1([H])[H]

>  <smiles>  (97) 
[H]c1c([H])c([H])c2c(c1[H])C([H])([H])C([H])([H])C([H])([H])C2([H])N([H])C(=O)C1([H])N(C(=O)C([H])(N([H])C(=O)C([H])(N([H])C([H])([H])[H])C([H])([H])[H])C(C([H])([H])[H])(C([H])([H])[H])C([H])([H])[H])C([H])([H])c2c([H])c(OC([H])([H])C([H])([H])C([H])([H])[N+]3([H])C([H])([H])C([H])([H])C([H])([N+]4([H])C([H])([H])C([H])([H])N(C(=O)N5C([H])([H])C([H])([H])C([H])([H])C([H])(n6nc(-c7c([H])c([H])c(Oc8c([H])c([H])c(F)c([H])c8F)c([H])c7[H])c(C(=O)N([H])[H])c6N([H])[H])C5([H])[H])C([H])([H])C4([H])C([H])([H])C([H])([H])[H])C([H])(C([H])([H])[H])C3([H])[H])c([H])c([H])c2C1([H])[H]

$$$$
97:0:0
     RDKit          3D

 99108  0  0  1  0  0  0  0  0999 V2000
  -26.5960  -22.0080   21.4300 C   0  0  0  0  0  1  0  0  0  0  0  0
  -27.6300  -22.0700   20.2830 C   0  0  0  0  0  3  0  0  0  0  0  0
  -28.9720  -18.4540   20.5070 C   0  0  0  0  0  3  0  0  0  0  0  0
  -28.2410  -19.6210   20.7910 C   0  0  0  0  0  3  0  0  0  0  0  0
  -29.7090  -18.3460   19.3060 C   0  0  0  0  0  0  0  0  0  0  0  0
  -28.1990  -20.6990   19.8750 C   0  0  0  0  0  0  0  0  0  0  0  0
  -29.6100  -19.3850   18.3400 C   0  0  0  0  0  0  0  0  0  0  0  0
  -28.8290  -20.5390   18.6160 C   0  0  0  0  0  0  0  0  0  0  0  0
  -30.3690  -19.2770   17.0200 C   0  0  0  0  0  1  0  0  0  0  0  0
  -28.7020  -21.5460   17.6550 N   0  0  0  0  0  0  0  0  0  0  0  0
  -27.7660  -21.9270   17.5740 H   0  0  0  0  0  0  0  0  0  0  0  0
  -29.0180  -21.2860   16.7290 H   0  0  0  0  0  0  0  0  0  0  0  0
  -30.6870  -17.1800   19.1210 C   0  0  0  0  0  2  0  0  0  0  0  0
  -31.2190  -14.8830   19.7320 C   0  0  0  0  0  0  0  0  0  0  0  0
  -31.0140  -12.5740   18.9450 C   0  0  0  0  0  2  0  0  0  0  0  0
  -30.0250  -12.5760   17.7600 C   0  0  0  0  0  2  0  0  0  0  0  0
  -28.5660  -12.4670   18.2570 C   0  0  0  0  0  2  0  0  0  0  0  0
  -28.2350  -13.4730   19.3950 C   0  0  0  0  0  3  0  0  0  0  0  0
  -29.3260  -13.4210   20.4870 C   0  0  0  0  0  2  0  0  0  0  0  0
  -30.6220  -13.6730   19.8410 N   0  0  0  0  0  0  0  0  0  0  0  0
  -32.3690  -15.0320   19.3040 O   0  0  0  0  0  0  0  0  0  0  0  0
  -30.3860  -15.9340   19.8260 N   0  0  0  0  0  0  0  0  0  0  0  0
  -29.4290  -15.7600   20.0940 H   0  0  0  0  0  0  0  0  0  0  0  0
  -25.9210  -14.1440   20.3140 C   0  0  0  0  0  0  0  0  0  0  0  0
  -24.8500  -13.3950   20.7200 C   0  0  0  0  0  0  0  0  0  0  0  0
  -25.2550  -12.0300   20.5990 C   0  0  0  0  0  0  0  0  0  0  0  0
  -26.9100  -13.2360   19.9610 N   0  0  0  0  0  0  0  0  0  0  0  0
  -26.5170  -11.9580   20.1970 N   0  0  0  0  0  0  0  0  0  0  0  0
  -24.4940  -10.7910   20.7970 C   0  0  0  0  0  0  0  0  0  0  0  0
  -24.8340   -9.8810   21.8230 C   0  0  0  0  0  3  0  0  0  0  0  0
  -24.0850   -8.7000   22.0080 C   0  0  0  0  0  3  0  0  0  0  0  0
  -22.9830   -8.4200   21.1660 C   0  0  0  0  0  0  0  0  0  0  0  0
  -22.6620   -9.3160   20.1310 C   0  0  0  0  0  3  0  0  0  0  0  0
  -23.4110  -10.4910   19.9460 C   0  0  0  0  0  3  0  0  0  0  0  0
  -22.2130   -7.2880   21.2560 O   0  0  0  0  0  0  0  0  0  0  0  0
  -21.8990   -6.7250   22.4660 C   0  0  0  0  0  0  0  0  0  0  0  0
  -21.1980   -7.4390   23.4620 C   0  0  0  0  0  3  0  0  0  0  0  0
  -20.8270   -6.7950   24.6600 C   0  0  0  0  0  3  0  0  0  0  0  0
  -21.1580   -5.4420   24.8640 C   0  0  0  0  0  0  0  0  0  0  0  0
  -21.8510   -4.7270   23.8710 C   0  0  0  0  0  3  0  0  0  0  0  0
  -22.2180   -5.3680   22.6740 C   0  0  0  0  0  0  0  0  0  0  0  0
  -22.8690   -4.6690   21.7130 F   0  0  0  0  0  0  0  0  0  0  0  0
  -20.7970   -4.8210   26.0100 F   0  0  0  0  0  0  0  0  0  0  0  0
  -23.4900  -13.9060   21.0980 C   0  0  0  0  0  0  0  0  0  0  0  0
  -22.8070  -13.2210   22.0060 N   0  0  0  0  0  0  0  0  0  0  0  0
  -23.0450  -14.9460   20.6130 O   0  0  0  0  0  0  0  0  0  0  0  0
  -23.1820  -12.3750   22.4070 H   0  0  0  0  0  0  0  0  0  0  0  0
  -21.8990  -13.5450   22.3070 H   0  0  0  0  0  0  0  0  0  0  0  0
  -26.1200  -15.5190   20.1840 N   0  0  0  0  0  0  0  0  0  0  0  0
  -25.3860  -16.1810   20.4130 H   0  0  0  0  0  0  0  0  0  0  0  0
  -26.9370  -15.9760   19.8000 H   0  0  0  0  0  0  0  0  0  0  0  0
  -29.0130  -23.9000   21.8060 C   0  0  0  0  0  2  0  0  0  0  0  0
  -29.6130  -24.9250   20.8300 C   0  0  0  0  0  3  0  0  0  0  0  0
  -28.8380  -23.0100   20.5650 C   0  0  0  0  0  3  0  0  0  0  0  0
  -28.8120  -24.2560   19.7950 N   0  0  0  0  0  4  0  0  0  0  0  0
  -29.2630  -24.1770   18.8940 H   0  0  0  0  0  0  0  0  0  0  0  0
  -27.8850  -24.6330   19.7270 H   0  0  0  0  0  0  0  0  0  0  0  0
  -29.3080  -26.4130   21.0330 C   0  0  0  0  0  2  0  0  0  0  0  0
  -29.2070  -27.1550   19.8080 O   0  0  0  0  0  0  0  0  0  0  0  0
  -24.8990  -31.5530   23.2880 C   0  0  0  0  0  0  0  0  0  0  0  0
  -28.0190  -27.8380   19.7740 C   0  0  0  0  0  0  0  0  0  0  0  0
  -23.8540  -30.2250   21.4750 C   0  0  0  0  0  3  0  0  0  0  0  0
  -25.4760  -29.0340   19.9060 C   0  0  0  0  0  0  0  0  0  0  0  0
  -26.3190  -30.8900   21.3580 C   0  0  0  0  0  2  0  0  0  0  0  0
  -26.5600  -29.6220   20.5710 C   0  0  0  0  0  0  0  0  0  0  0  0
  -27.8340  -29.0200   20.5190 C   0  0  0  0  0  3  0  0  0  0  0  0
  -26.9310  -27.2630   19.0920 C   0  0  0  0  0  3  0  0  0  0  0  0
  -25.6540  -27.8500   19.1670 C   0  0  0  0  0  3  0  0  0  0  0  0
  -24.1410  -29.7310   20.0320 C   0  0  0  0  0  2  0  0  0  0  0  0
  -25.0400  -30.9000   22.1010 N   0  0  0  0  0  0  0  0  0  0  0  0
  -23.7960  -31.6340   23.8470 O   0  0  0  0  0  0  0  0  0  0  0  0
  -23.3160  -29.0380   22.3070 C   0  0  0  0  0  0  0  0  0  0  0  0
  -22.0460  -28.6660   22.0700 N   0  0  0  0  0  0  0  0  0  0  0  0
  -24.0440  -28.4560   23.1190 O   0  0  0  0  0  0  0  0  0  0  0  0
  -21.5190  -29.1770   21.3740 H   0  0  0  0  0  0  0  0  0  0  0  0
  -18.9140  -26.8740   22.1720 C   0  0  0  0  0  0  0  0  0  0  0  0
  -21.3450  -27.5540   22.7090 C   0  0  0  0  0  3  0  0  0  0  0  0
  -21.7520  -26.2080   22.0650 C   0  0  0  0  0  2  0  0  0  0  0  0
  -20.8230  -25.7700   20.9310 C   0  0  0  0  0  2  0  0  0  0  0  0
  -19.3880  -25.6260   21.4420 C   0  0  0  0  0  2  0  0  0  0  0  0
  -19.8320  -27.7870   22.7540 C   0  0  0  0  0  0  0  0  0  0  0  0
  -19.3380  -28.9510   23.3820 C   0  0  0  0  0  3  0  0  0  0  0  0
  -17.9550  -29.2050   23.4420 C   0  0  0  0  0  3  0  0  0  0  0  0
  -17.0480  -28.2920   22.8750 C   0  0  0  0  0  3  0  0  0  0  0  0
  -17.5270  -27.1310   22.2440 C   0  0  0  0  0  3  0  0  0  0  0  0
  -26.1090  -32.2480   23.9900 C   0  0  0  0  0  3  0  0  0  0  0  0
  -25.6900  -33.6080   24.3530 N   0  0  0  0  0  0  0  0  0  0  0  0
  -26.0010  -34.7090   23.6570 C   0  0  0  0  0  0  0  0  0  0  0  0
  -26.7390  -34.6920   22.6680 O   0  0  0  0  0  0  0  0  0  0  0  0
  -25.0380  -33.6920   25.1200 H   0  0  0  0  0  0  0  0  0  0  0  0
  -24.1820  -36.3990   23.2550 C   0  0  0  0  0  1  0  0  0  0  0  0
  -25.3930  -36.0440   24.1310 C   0  0  0  0  0  3  0  0  0  0  0  0
  -27.3990  -37.0360   25.1400 C   0  0  0  0  0  1  0  0  0  0  0  0
  -26.3580  -37.1650   24.1250 N   0  0  0  0  0  0  0  0  0  0  0  0
  -25.8790  -38.0500   24.2740 H   0  0  0  0  0  0  0  0  0  0  0  0
  -26.6230  -31.4660   25.2600 C   0  0  1  0  0  0  0  0  0  0  0  0
  -25.5000  -31.1170   26.2630 C   0  0  0  0  0  1  0  0  0  0  0  0
  -27.3180  -30.1490   24.8460 C   0  0  0  0  0  1  0  0  0  0  0  0
  -27.6820  -32.3090   26.0100 C   0  0  0  0  0  1  0  0  0  0  0  0
  2  1  1  0
  3  4  1  0
  5  3  2  0
  6  2  1  0
  6  4  2  0
  7  8  2  0
  7  5  1  0
  8  6  1  0
  9  7  1  0
 10  8  1  0
 11 10  1  0
 12 10  1  0
 13  5  1  0
 13 22  1  0
 14 22  1  0
 14 20  1  0
 15 20  1  0
 16 17  1  0
 16 15  1  0
 18 17  1  0
 18 27  1  0
 18 19  1  0
 20 19  1  0
 21 14  2  0
 22 23  1  0
 24 25  2  0
 25 44  1  0
 26 25  1  0
 26 29  1  0
 27 28  1  0
 27 24  1  0
 28 26  2  0
 29 30  1  0
 30 31  2  0
 32 35  1  0
 32 31  1  0
 33 32  2  0
 34 33  1  0
 34 29  2  0
 35 36  1  0
 36 41  2  0
 36 37  1  0
 37 38  2  0
 38 39  1  0
 39 43  1  0
 40 39  2  0
 41 40  1  0
 42 41  1  0
 44 45  1  0
 45 48  1  0
 45 47  1  0
 46 44  2  0
 49 24  1  0
 49 50  1  0
 51 49  1  0
 53 58  1  0
 53 52  1  0
 54  2  1  0
 54 52  1  0
 55 54  1  0
 55 53  1  0
 56 55  1  0
 57 55  1  0
 59 58  1  0
 60 71  2  0
 61 59  1  0
 61 66  1  0
 62 70  1  0
 62 72  1  0
 63 69  1  0
 63 65  1  0
 64 70  1  0
 65 64  1  0
 66 65  2  0
 67 68  1  0
 67 61  2  0
 68 63  2  0
 69 62  1  0
 70 60  1  0
 72 74  2  0
 73 72  1  0
 75 73  1  0
 76 85  2  0
 76 81  1  0
 77 73  1  0
 77 81  1  0
 78 77  1  0
 79 80  1  0
 79 78  1  0
 80 76  1  0
 81 82  2  0
 82 83  1  0
 84 83  2  0
 85 84  1  0
 86 60  1  0
 86 87  1  0
 86 96  1  0
 87 90  1  0
 88 92  1  0
 88 87  1  0
 89 88  2  0
 92 91  1  0
 94 92  1  0
 94 95  1  0
 94 93  1  0
 96 99  1  1
 96 97  1  0
 98 96  1  0
M  ISO  4  14 100  22 100  58 101  59 101
M  END
>  <TORSDO>  (98) 
F 21

>  <SCORE>  (98) 
-9.923

>  <name>  (98) 
97

>  <ligand_id>  (98) 
97

>  <original_smiles>  (98) 
[H]c1c([H])c([H])c2c(c1[H])C([H])([H])C([H])([H])C([H])([H])C2([H])N([H])C(=O)C1([H])N(C(=O)C([H])(N([H])C(=O)C([H])(N([H])C([H])([H])[H])C([H])([H])[H])C(C([H])([H])[H])(C([H])([H])[H])C([H])([H])[H])C([H])([H])c2c([H])c(OC([H])([H])C3([H])C([H])([H])C([H])(C([H])(c4c([H])c([H])c(C([H])([H])N([H])C(=O)N5C([H])([H])C([H])([H])C([H])([H])C([H])(n6nc(-c7c([H])c([H])c(Oc8c([H])c([H])c(F)c([H])c8F)c([H])c7[H])c(C(=O)N([H])[H])c6N([H])[H])C5([H])[H])c(C([H])([H])[H])c4N([H])[H])C([H])([H])[H])[N+]3([H])[H])c([H])c([H])c2C1([H])[H]

>  <smiles>  (98) 
[H]c1c([H])c([H])c2c(c1[H])C([H])([H])C([H])([H])C([H])([H])C2([H])N([H])C(=O)C1([H])N(C(=O)C([H])(N([H])C(=O)C([H])(N([H])C([H])([H])[H])C([H])([H])[H])C(C([H])([H])[H])(C([H])([H])[H])C([H])([H])[H])C([H])([H])c2c([H])c(OC([H])([H])C3([H])C([H])([H])C([H])(C([H])(c4c([H])c([H])c(C([H])([H])N([H])C(=O)N5C([H])([H])C([H])([H])C([H])([H])C([H])(n6nc(-c7c([H])c([H])c(Oc8c([H])c([H])c(F)c([H])c8F)c([H])c7[H])c(C(=O)N([H])[H])c6N([H])[H])C5([H])[H])c(C([H])([H])[H])c4N([H])[H])C([H])([H])[H])[N+]3([H])[H])c([H])c([H])c2C1([H])[H]

$$$$
98:0:0
     RDKit          3D

 95105  0  0  1  0  0  0  0  0999 V2000
  -29.1310  -23.4690   19.5720 C   0  0  0  0  0  3  0  0  0  0  0  0
  -29.3330  -23.2620   21.9580 C   0  0  0  0  0  3  0  0  0  0  0  0
  -29.4810  -22.0860   19.4280 C   0  0  0  0  0  0  0  0  0  0  0  0
  -29.0610  -24.0920   20.8430 C   0  0  0  0  0  0  0  0  0  0  0  0
  -29.6680  -21.8870   21.8350 C   0  0  0  0  0  0  0  0  0  0  0  0
  -29.7410  -21.2600   20.5640 C   0  0  0  0  0  0  0  0  0  0  0  0
  -29.9820  -21.1070   23.0960 C   0  0  0  0  0  1  0  0  0  0  0  0
  -30.8620  -20.9000   17.5370 C   0  0  0  0  0  2  0  0  0  0  0  0
  -30.3390  -22.1850   16.9430 C   0  0  0  0  0  2  0  0  0  0  0  0
  -29.5710  -21.4980   18.0510 C   0  0  0  0  0  3  0  0  0  0  0  0
  -28.6400  -25.5730   21.1300 C   0  0  0  0  0  2  0  0  0  0  0  0
  -28.7690  -26.6350   20.1310 O   0  0  0  0  0  0  0  0  0  0  0  0
  -24.7490  -31.7560   23.1950 C   0  0  0  0  0  0  0  0  0  0  0  0
  -27.6410  -27.4510   20.0820 C   0  0  0  0  0  0  0  0  0  0  0  0
  -23.6390  -30.3270   21.5130 C   0  0  0  0  0  3  0  0  0  0  0  0
  -25.1900  -28.8930   20.0720 C   0  0  0  0  0  0  0  0  0  0  0  0
  -26.1550  -30.8010   21.3620 C   0  0  0  0  0  2  0  0  0  0  0  0
  -26.3190  -29.4450   20.6910 C   0  0  0  0  0  0  0  0  0  0  0  0
  -27.5530  -28.7350   20.6910 C   0  0  0  0  0  3  0  0  0  0  0  0
  -26.4960  -26.9370   19.4400 C   0  0  0  0  0  3  0  0  0  0  0  0
  -25.2770  -27.6420   19.4380 C   0  0  0  0  0  3  0  0  0  0  0  0
  -23.9030  -29.6900   20.1230 C   0  0  0  0  0  2  0  0  0  0  0  0
  -24.8650  -30.9770   22.0820 N   0  0  0  0  0  0  0  0  0  0  0  0
  -23.6470  -31.9640   23.7240 O   0  0  0  0  0  0  0  0  0  0  0  0
  -23.0250  -29.2580   22.4470 C   0  0  0  0  0  0  0  0  0  0  0  0
  -21.7180  -28.9930   22.2810 N   0  0  0  0  0  0  0  0  0  0  0  0
  -23.7220  -28.6690   23.2770 O   0  0  0  0  0  0  0  0  0  0  0  0
  -21.2120  -29.5230   21.5840 H   0  0  0  0  0  0  0  0  0  0  0  0
  -18.4260  -27.5400   22.6400 C   0  0  0  0  0  0  0  0  0  0  0  0
  -20.9420  -27.9970   23.0200 C   0  0  0  0  0  3  0  0  0  0  0  0
  -21.1800  -26.5760   22.4550 C   0  0  0  0  0  2  0  0  0  0  0  0
  -20.1520  -26.1680   21.3960 C   0  0  0  0  0  2  0  0  0  0  0  0
  -18.7360  -26.2070   21.9790 C   0  0  0  0  0  2  0  0  0  0  0  0
  -19.4620  -28.3870   23.1150 C   0  0  0  0  0  0  0  0  0  0  0  0
  -19.1210  -29.6300   23.6900 C   0  0  0  0  0  3  0  0  0  0  0  0
  -17.7750  -30.0280   23.7980 C   0  0  0  0  0  3  0  0  0  0  0  0
  -16.7530  -29.1790   23.3390 C   0  0  0  0  0  3  0  0  0  0  0  0
  -17.0780  -27.9370   22.7670 C   0  0  0  0  0  3  0  0  0  0  0  0
  -25.9920  -32.4420   23.8450 C   0  0  0  0  0  3  0  0  0  0  0  0
  -26.5150  -31.6890   25.1300 C   0  0  1  0  0  0  0  0  0  0  0  0
  -25.4130  -31.4010   26.1750 C   0  0  0  0  0  1  0  0  0  0  0  0
  -27.1640  -30.3380   24.7450 C   0  0  0  0  0  1  0  0  0  0  0  0
  -27.6180  -32.5290   25.8170 C   0  0  0  0  0  1  0  0  0  0  0  0
  -25.6140  -33.8240   24.1730 N   0  0  0  0  0  0  0  0  0  0  0  0
  -25.9130  -34.8930   23.4210 C   0  0  0  0  0  0  0  0  0  0  0  0
  -26.6060  -34.8210   22.4030 O   0  0  0  0  0  0  0  0  0  0  0  0
  -24.9980  -33.9500   24.9620 H   0  0  0  0  0  0  0  0  0  0  0  0
  -24.1100  -36.6040   23.0450 C   0  0  0  0  0  1  0  0  0  0  0  0
  -25.3570  -36.2570   23.8730 C   0  0  0  0  0  3  0  0  0  0  0  0
  -27.4380  -37.2370   24.7310 C   0  0  0  0  0  1  0  0  0  0  0  0
  -26.3420  -37.3560   23.7740 N   0  0  0  0  0  0  0  0  0  0  0  0
  -25.8930  -38.2560   23.9170 H   0  0  0  0  0  0  0  0  0  0  0  0
  -30.1850  -19.9300   20.4270 O   0  0  0  0  0  0  0  0  0  0  0  0
  -30.9570  -14.7100   20.0260 C   0  0  0  0  0  0  0  0  0  0  0  0
  -30.6070  -12.4970   18.9730 C   0  0  0  0  0  2  0  0  0  0  0  0
  -29.6290  -12.6570   17.7920 C   0  0  0  0  0  2  0  0  0  0  0  0
  -28.1730  -12.5200   18.2780 C   0  0  0  0  0  2  0  0  0  0  0  0
  -27.8750  -13.3880   19.5310 C   0  0  0  0  0  3  0  0  0  0  0  0
  -28.9750  -13.2460   20.6060 C   0  0  0  0  0  2  0  0  0  0  0  0
  -30.2610  -13.5350   19.9620 N   0  0  0  0  0  0  0  0  0  0  0  0
  -32.1270  -14.7730   19.6350 O   0  0  0  0  0  0  0  0  0  0  0  0
  -29.2390  -17.9940   19.1500 C   0  0  0  0  0  2  0  0  0  0  0  0
  -29.3960  -17.8100   21.6320 C   0  0  0  0  0  2  0  0  0  0  0  0
  -30.3080  -16.8600   19.0790 C   0  0  0  0  0  2  0  0  0  0  0  0
  -30.4290  -16.6510   21.4350 C   0  0  0  0  0  2  0  0  0  0  0  0
  -29.2360  -18.8260   20.4580 C   0  0  0  0  0  3  0  0  0  0  0  0
  -30.2420  -15.8760   20.1910 N   0  0  0  0  0  0  0  0  0  0  0  0
  -25.5250  -14.0010   20.3620 C   0  0  0  0  0  0  0  0  0  0  0  0
  -24.4630  -13.2350   20.7610 C   0  0  0  0  0  0  0  0  0  0  0  0
  -24.9070  -11.8780   20.6900 C   0  0  0  0  0  0  0  0  0  0  0  0
  -26.5460  -13.1130   20.0720 N   0  0  0  0  0  0  0  0  0  0  0  0
  -26.1840  -11.8300   20.3320 N   0  0  0  0  0  0  0  0  0  0  0  0
  -24.1730  -10.6220   20.8890 C   0  0  0  0  0  0  0  0  0  0  0  0
  -24.5870   -9.6660   21.8430 C   0  0  0  0  0  3  0  0  0  0  0  0
  -23.8530   -8.4750   22.0290 C   0  0  0  0  0  3  0  0  0  0  0  0
  -22.6890   -8.2310   21.2630 C   0  0  0  0  0  0  0  0  0  0  0  0
  -22.2940   -9.1750   20.2980 C   0  0  0  0  0  3  0  0  0  0  0  0
  -23.0290  -10.3570   20.1100 C   0  0  0  0  0  3  0  0  0  0  0  0
  -21.9260   -7.0930   21.3570 O   0  0  0  0  0  0  0  0  0  0  0  0
  -21.7910   -6.4140   22.5420 C   0  0  0  0  0  0  0  0  0  0  0  0
  -21.2800   -7.0330   23.7020 C   0  0  0  0  0  3  0  0  0  0  0  0
  -21.0930   -6.2810   24.8790 C   0  0  0  0  0  3  0  0  0  0  0  0
  -21.4050   -4.9080   24.8940 C   0  0  0  0  0  0  0  0  0  0  0  0
  -21.9090   -4.2880   23.7380 C   0  0  0  0  0  3  0  0  0  0  0  0
  -22.0980   -5.0390   22.5640 C   0  0  0  0  0  0  0  0  0  0  0  0
  -22.5630   -4.4300   21.4460 F   0  0  0  0  0  0  0  0  0  0  0  0
  -21.2190   -4.1840   26.0210 F   0  0  0  0  0  0  0  0  0  0  0  0
  -23.0840  -13.7250   21.0950 C   0  0  0  0  0  0  0  0  0  0  0  0
  -22.3880  -13.0320   21.9900 N   0  0  0  0  0  0  0  0  0  0  0  0
  -22.6340  -14.7560   20.5980 O   0  0  0  0  0  0  0  0  0  0  0  0
  -22.7660  -12.1960   22.4130 H   0  0  0  0  0  0  0  0  0  0  0  0
  -21.4650  -13.3420   22.2560 H   0  0  0  0  0  0  0  0  0  0  0  0
  -25.7020  -15.3730   20.1990 N   0  0  0  0  0  0  0  0  0  0  0  0
  -24.9570  -16.0410   20.3580 H   0  0  0  0  0  0  0  0  0  0  0  0
  -26.5590  -15.8010   19.8740 H   0  0  0  0  0  0  0  0  0  0  0  0
  1  4  1  0
  3  1  2  0
  3  6  1  0
  4 11  1  0
  4  2  2  0
  5  2  1  0
  5  7  1  0
  6  5  2  0
  8 10  1  0
  9  8  1  0
  9 10  1  0
 10  3  1  0
 12 11  1  0
 13 24  2  0
 14 12  1  0
 14 19  1  0
 15 23  1  0
 15 25  1  0
 16 22  1  0
 16 18  1  0
 17 23  1  0
 18 17  1  0
 19 18  2  0
 20 14  2  0
 21 20  1  0
 21 16  2  0
 22 15  1  0
 23 13  1  0
 25 27  2  0
 26 25  1  0
 28 26  1  0
 29 38  2  0
 29 34  1  0
 30 26  1  0
 30 34  1  0
 31 30  1  0
 32 33  1  0
 32 31  1  0
 33 29  1  0
 34 35  2  0
 35 36  1  0
 37 36  2  0
 38 37  1  0
 39 13  1  0
 39 44  1  0
 39 40  1  0
 40 43  1  1
 40 41  1  0
 42 40  1  0
 44 47  1  0
 45 49  1  0
 45 44  1  0
 46 45  2  0
 49 48  1  0
 51 49  1  0
 51 52  1  0
 51 50  1  0
 53  6  1  0
 54 67  1  0
 55 60  1  0
 56 57  1  0
 56 55  1  0
 58 57  1  0
 58 71  1  0
 58 59  1  0
 60 54  1  0
 60 59  1  0
 61 54  2  0
 62 66  1  0
 64 62  1  0
 64 67  1  0
 65 63  1  0
 66 53  1  0
 66 63  1  0
 67 65  1  0
 68 69  2  0
 69 88  1  0
 70 69  1  0
 70 73  1  0
 71 72  1  0
 71 68  1  0
 72 70  2  0
 73 74  1  0
 74 75  2  0
 76 79  1  0
 76 75  1  0
 77 76  2  0
 78 77  1  0
 78 73  2  0
 79 80  1  0
 80 85  2  0
 80 81  1  0
 81 82  2  0
 82 83  1  0
 83 87  1  0
 84 83  2  0
 85 84  1  0
 86 85  1  0
 88 89  1  0
 89 92  1  0
 89 91  1  0
 90 88  2  0
 93 94  1  0
 93 68  1  0
 95 93  1  0
M  ISO  4  11 101  12 101  54 100  67 100
M  END
>  <TORSDO>  (99) 
F 19

>  <SCORE>  (99) 
-13.577

>  <name>  (99) 
98

>  <ligand_id>  (99) 
98

>  <original_smiles>  (99) 
[H]c1c([H])c([H])c2c(c1[H])C([H])([H])C([H])([H])C([H])([H])C2([H])N([H])C(=O)C1([H])N(C(=O)C([H])(N([H])C(=O)C([H])(N([H])C([H])([H])[H])C([H])([H])[H])C(C([H])([H])[H])(C([H])([H])[H])C([H])([H])[H])C([H])([H])c2c([H])c(OC([H])([H])c3c([H])c(C([H])([H])[H])c(OC4([H])C([H])([H])C([H])([H])N(C(=O)N5C([H])([H])C([H])([H])C([H])([H])C([H])(n6nc(-c7c([H])c([H])c(Oc8c([H])c([H])c(F)c([H])c8F)c([H])c7[H])c(C(=O)N([H])[H])c6N([H])[H])C5([H])[H])C([H])([H])C4([H])[H])c(C4([H])C([H])([H])C4([H])[H])c3[H])c([H])c([H])c2C1([H])[H]

>  <smiles>  (99) 
[H]c1c([H])c([H])c2c(c1[H])C([H])([H])C([H])([H])C([H])([H])C2([H])N([H])C(=O)C1([H])N(C(=O)C([H])(N([H])C(=O)C([H])(N([H])C([H])([H])[H])C([H])([H])[H])C(C([H])([H])[H])(C([H])([H])[H])C([H])([H])[H])C([H])([H])c2c([H])c(OC([H])([H])c3c([H])c(C([H])([H])[H])c(OC4([H])C([H])([H])C([H])([H])N(C(=O)N5C([H])([H])C([H])([H])C([H])([H])C([H])(n6nc(-c7c([H])c([H])c(Oc8c([H])c([H])c(F)c([H])c8F)c([H])c7[H])c(C(=O)N([H])[H])c6N([H])[H])C5([H])[H])C([H])([H])C4([H])[H])c(C4([H])C([H])([H])C4([H])[H])c3[H])c([H])c([H])c2C1([H])[H]

$$$$
